# Generated by pormake.
# Topology zzz, (3,6)-cn, num edge types: 1
# Building blocks:
#     Node 0, Type 0, BuildingBlock: ESEHIV_clean_linker_0, # of connection points: 3
#     Node 1, Type 0, BuildingBlock: ESEHIV_clean_linker_0, # of connection points: 3
#     Node 2, Type 0, BuildingBlock: ESEHIV_clean_linker_0, # of connection points: 3
#     Node 3, Type 0, BuildingBlock: ESEHIV_clean_linker_0, # of connection points: 3
#     Node 4, Type 0, BuildingBlock: ESEHIV_clean_linker_0, # of connection points: 3
#     Node 5, Type 0, BuildingBlock: ESEHIV_clean_linker_0, # of connection points: 3
#     Node 6, Type 0, BuildingBlock: ESEHIV_clean_linker_0, # of connection points: 3
#     Node 7, Type 0, BuildingBlock: ESEHIV_clean_linker_0, # of connection points: 3
#     Node 8, Type 1, BuildingBlock: MIFKUJ_clean_sbu_0, # of connection points: 6
#     Node 9, Type 1, BuildingBlock: MIFKUJ_clean_sbu_0, # of connection points: 6
#     Node 10, Type 1, BuildingBlock: MIFKUJ_clean_sbu_0, # of connection points: 6
#     Node 11, Type 1, BuildingBlock: MIFKUJ_clean_sbu_0, # of connection points: 6
#     Edge 12, Type (0, 1), BuildingBlock: XIVTED_clean_linker_0, # of connection points: 2
#     Edge 13, Type (0, 1), BuildingBlock: XIVTED_clean_linker_0, # of connection points: 2
#     Edge 14, Type (0, 1), BuildingBlock: XIVTED_clean_linker_0, # of connection points: 2
#     Edge 15, Type (0, 1), BuildingBlock: XIVTED_clean_linker_0, # of connection points: 2
#     Edge 16, Type (0, 1), BuildingBlock: XIVTED_clean_linker_0, # of connection points: 2
#     Edge 17, Type (0, 1), BuildingBlock: XIVTED_clean_linker_0, # of connection points: 2
#     Edge 18, Type (0, 1), BuildingBlock: XIVTED_clean_linker_0, # of connection points: 2
#     Edge 19, Type (0, 1), BuildingBlock: XIVTED_clean_linker_0, # of connection points: 2
#     Edge 20, Type (0, 1), BuildingBlock: XIVTED_clean_linker_0, # of connection points: 2
#     Edge 21, Type (0, 1), BuildingBlock: XIVTED_clean_linker_0, # of connection points: 2
#     Edge 22, Type (0, 1), BuildingBlock: XIVTED_clean_linker_0, # of connection points: 2
#     Edge 23, Type (0, 1), BuildingBlock: XIVTED_clean_linker_0, # of connection points: 2
#     Edge 24, Type (0, 1), BuildingBlock: XIVTED_clean_linker_0, # of connection points: 2
#     Edge 25, Type (0, 1), BuildingBlock: XIVTED_clean_linker_0, # of connection points: 2
#     Edge 26, Type (0, 1), BuildingBlock: XIVTED_clean_linker_0, # of connection points: 2
#     Edge 27, Type (0, 1), BuildingBlock: XIVTED_clean_linker_0, # of connection points: 2
#     Edge 28, Type (0, 1), BuildingBlock: XIVTED_clean_linker_0, # of connection points: 2
#     Edge 29, Type (0, 1), BuildingBlock: XIVTED_clean_linker_0, # of connection points: 2
#     Edge 30, Type (0, 1), BuildingBlock: XIVTED_clean_linker_0, # of connection points: 2
#     Edge 31, Type (0, 1), BuildingBlock: XIVTED_clean_linker_0, # of connection points: 2
#     Edge 32, Type (0, 1), BuildingBlock: XIVTED_clean_linker_0, # of connection points: 2
#     Edge 33, Type (0, 1), BuildingBlock: XIVTED_clean_linker_0, # of connection points: 2
#     Edge 34, Type (0, 1), BuildingBlock: XIVTED_clean_linker_0, # of connection points: 2
#     Edge 35, Type (0, 1), BuildingBlock: XIVTED_clean_linker_0, # of connection points: 2
# Relax obj value: 0.325
# Max RMSD: 0.209
# Mean RMSD: 0.193
data_MOF--net-zzz--node1-MIFKUJ_clean_sbu_0--node2-ESEHIV_clean_linker_0--edge1-XIVTED_clean_linker_0
_symmetry_space_group_name_H-M    P1
_symmetry_Int_Tables_number       1
_symmetry_cell_setting            triclinic
loop_
_symmetry_equiv_pos_as_xyz
'x, y, z'
_cell_length_a     44.257835
_cell_length_b     44.264064
_cell_length_c     16.569489
_cell_angle_alpha  89.40358
_cell_angle_beta   89.310905
_cell_angle_gamma 90.114515
loop_
_atom_site_label
_atom_site_type_symbol
_atom_site_fract_x
_atom_site_fract_y
_atom_site_fract_z
_atom_type_partial_charge
H0 H 0.77135 0.58704 0.11216 0.0
H1 H 0.6923 0.57123 0.97269 0.0
H2 H 0.69121 0.55096 0.22717 0.0
C3 C 0.7474 0.58187 0.10999 0.0
C4 C 0.73256 0.5712 0.18002 0.0
C5 C 0.73334 0.58101 0.03496 0.0
C6 C 0.70302 0.57255 0.03114 0.0
C7 C 0.68749 0.56226 0.10035 0.0
C8 C 0.70243 0.56095 0.17485 0.0
H9 H 0.02248 0.78745 0.13443 0.0
H10 H 0.03639 0.70863 0.99054 0.0
H11 H 0.98351 0.70245 0.21036 0.0
C12 C 0.0195 0.76341 0.12507 0.0
C13 C 0.00237 0.74654 0.18121 0.0
C14 C 0.03176 0.75002 0.05604 0.0
C15 C 0.02717 0.71917 0.04426 0.0
C16 C 0.00964 0.70191 0.09877 0.0
C17 C 0.99713 0.71557 0.168 0.0
H18 H 0.72255 0.92842 0.13296 0.0
H19 H 0.8022 0.94167 0.98822 0.0
H20 H 0.80462 0.95872 0.24345 0.0
C21 C 0.74672 0.93252 0.12913 0.0
C22 C 0.76216 0.94137 0.19845 0.0
C23 C 0.76076 0.93361 0.05323 0.0
C24 C 0.79145 0.94045 0.04741 0.0
C25 C 0.80766 0.94886 0.11573 0.0
C26 C 0.79282 0.95018 0.19149 0.0
H27 H 0.47617 0.71023 0.13736 0.0
H28 H 0.50907 0.79797 0.20414 0.0
H29 H 0.45487 0.78758 0.99146 0.0
C30 C 0.4773 0.7344 0.1263 0.0
C31 C 0.4633 0.7468 0.05843 0.0
C32 C 0.49353 0.75253 0.17948 0.0
C33 C 0.4962 0.78385 0.164 0.0
C34 C 0.48204 0.79663 0.09572 0.0
C35 C 0.46539 0.77792 0.04451 0.0
H36 H 0.2351 0.46116 0.02987 0.0
H37 H 0.30415 0.48092 0.19959 0.0
H38 H 0.32843 0.46236 0.95185 0.0
C39 C 0.25893 0.46344 0.04346 0.0
C40 C 0.28063 0.45972 0.98211 0.0
C41 C 0.26725 0.47146 0.12111 0.0
C42 C 0.29773 0.47472 0.13895 0.0
C43 C 0.32 0.47144 0.07867 0.0
C44 C 0.31151 0.46405 -0.00065 0.0
H45 H 0.00085 0.2305 0.01011 0.0
H46 H 0.98902 0.28868 0.21317 0.0
H47 H 0.02215 0.32504 0.98622 0.0
C48 C 0.00305 0.25254 0.03752 0.0
C49 C 0.0137 0.27679 0.99017 0.0
C50 C 0.9939 0.25648 0.11762 0.0
C51 C 0.99555 0.28535 0.15061 0.0
C52 C 0.00553 0.31019 0.10395 0.0
C53 C 0.01484 0.30598 0.02309 0.0
H54 H 0.27619 0.03488 0.05716 0.0
H55 H 0.20119 0.02208 0.21923 0.0
H56 H 0.18541 0.0417 0.96746 0.0
C57 C 0.25194 0.03472 0.06799 0.0
C58 C 0.23233 0.04004 0.00372 0.0
C59 C 0.24089 0.02776 0.14505 0.0
C60 C 0.20981 0.02749 0.15919 0.0
C61 C 0.18962 0.03267 0.09586 0.0
C62 C 0.20082 0.0387 0.0172 0.0
H63 H 0.5203 0.28775 0.99522 0.0
H64 H 0.48995 0.19542 0.99496 0.0
H65 H 0.5318 0.23236 0.2063 0.0
C66 C 0.51732 0.26635 0.02688 0.0
C67 C 0.52734 0.26322 0.10606 0.0
C68 C 0.50324 0.24253 0.98709 0.0
C69 C 0.50038 0.21414 0.0258 0.0
C70 C 0.51178 0.21024 0.10461 0.0
C71 C 0.52463 0.23501 0.14431 0.0
Zn72 Zn 0.9805 0.0527 0.59436 0.0
Zn73 Zn 0.01272 0.9701 0.62115 0.0
C74 C 0.97974 0.1104 0.6637 0.0
O75 O 0.95078 0.10442 0.65718 0.0
C76 C 0.01492 0.92603 0.50396 0.0
O77 O 0.04344 0.93183 0.51874 0.0
O78 O 0.94998 0.07001 0.51735 0.0
O79 O 0.01214 0.03437 0.51894 0.0
O80 O 0.04165 0.99824 0.56608 0.0
C81 C 0.96466 0.08679 0.46808 0.0
O82 O 0.99399 0.08966 0.4758 0.0
O83 O -0.00122 0.09014 0.64437 0.0
C84 C 0.02265 0.91739 0.70264 0.0
O85 O 0.99406 0.91578 0.68276 0.0
O86 O 0.03745 0.94136 0.68695 0.0
O87 O 0.98131 0.98484 0.6993 0.0
O88 O 0.95993 0.02977 0.6863 0.0
O89 O 0.99479 0.94275 0.53592 0.0
C90 C 0.03454 0.01675 0.51069 0.0
C91 C 0.96266 0.00464 0.72327 0.0
Zn92 Zn 0.46299 0.99975 0.59805 0.0
Zn93 Zn 0.54284 0.0111 0.63341 0.0
C94 C 0.41355 0.99552 0.70146 0.0
O95 O 0.41664 0.96801 0.67347 0.0
C96 C 0.58119 0.00543 0.50585 0.0
O97 O 0.58206 0.03382 0.52802 0.0
O98 O 0.43297 0.98774 0.51464 0.0
O99 O 0.48529 0.03466 0.54458 0.0
O100 O 0.52897 0.05136 0.58976 0.0
C101 C 0.41541 0.01005 0.50314 0.0
O102 O 0.42164 0.036 0.53701 0.0
O103 O 0.43425 0.01478 0.68555 0.0
C104 C 0.58875 0.98615 0.71037 0.0
O105 O 0.57133 0.96437 0.68411 0.0
O106 O 0.58102 0.01352 0.69763 0.0
O107 O 0.51633 0.98881 0.71564 0.0
O108 O 0.48416 0.96298 0.64315 0.0
O109 O 0.56102 0.98825 0.5377 0.0
C110 C 0.50679 0.0537 0.54203 0.0
C111 C 0.49971 0.96577 0.70652 0.0
Zn112 Zn 0.52609 0.46744 0.5745 0.0
Zn113 Zn 0.48215 0.52816 0.63021 0.0
C114 C 0.52414 0.41078 0.65086 0.0
O115 O 0.55314 0.41714 0.64689 0.0
C116 C 0.48392 0.57581 0.51974 0.0
O117 O 0.45513 0.56889 0.52704 0.0
O118 O 0.55776 0.44847 0.50347 0.0
O119 O 0.49915 0.48802 0.49134 0.0
O120 O 0.45869 0.49901 0.56352 0.0
C121 C 0.54434 0.43146 0.45424 0.0
O122 O 0.51477 0.42924 0.45747 0.0
O123 O 0.50536 0.43068 0.62717 0.0
C124 C 0.46778 0.57699 0.71824 0.0
O125 O 0.49731 0.57763 0.70927 0.0
O126 O 0.45302 0.5548 0.69071 0.0
O127 O 0.50894 0.51355 0.71961 0.0
O128 O 0.54751 0.49015 0.66196 0.0
O129 O 0.50318 0.55877 0.55409 0.0
C130 C 0.47078 0.49193 0.49651 0.0
C131 C 0.53557 0.50311 0.72247 0.0
Zn132 Zn 0.04925 0.50066 0.60322 0.0
Zn133 Zn 0.95343 0.50605 0.61133 0.0
C134 C 0.10249 0.49781 0.68409 0.0
O135 O 0.09961 0.52588 0.65871 0.0
C136 C 0.91118 0.5087 0.49378 0.0
O137 O 0.9096 0.48132 0.52494 0.0
O138 O 0.07478 0.51094 0.50588 0.0
O139 O 0.0144 0.475 0.56657 0.0
O140 O 0.96585 0.46498 0.57035 0.0
C141 C 0.08965 0.48732 0.48792 0.0
O142 O 0.08291 0.46173 0.52487 0.0
O143 O 0.08029 0.47978 0.67501 0.0
C144 C 0.90945 0.53296 0.69496 0.0
O145 O 0.92468 0.55439 0.65685 0.0
O146 O 0.91855 0.50576 0.68956 0.0
O147 O 0.98633 0.53058 0.66593 0.0
O148 O 0.03586 0.53642 0.66738 0.0
O149 O 0.93261 0.52597 0.51574 0.0
C150 C 0.99221 0.45901 0.5441 0.0
C151 C 0.00972 0.54374 0.69281 0.0
H152 H 0.14899 0.07784 0.12194 0.0
H153 H 0.07924 0.97809 0.46291 0.0
H154 H 0.1586 0.98107 0.12477 0.0
H155 H 0.03197 0.05842 0.38592 0.0
H156 H 0.10925 0.98017 0.33883 0.0
H157 H 0.10471 0.07283 0.21205 0.0
C158 C 0.14079 0.05549 0.13825 0.0
C159 C 0.15721 0.0298 0.11586 0.0
C160 C 0.09208 0.99718 0.3487 0.0
C161 C 0.10803 0.024 0.22172 0.0
C162 C 0.07509 0.99618 0.42002 0.0
C163 C 0.05316 0.01828 0.43563 0.0
C164 C 0.08765 0.02079 0.29288 0.0
C165 C 0.04883 0.0411 0.3771 0.0
C166 C 0.11584 0.05264 0.19051 0.0
C167 C 0.1463 0.00136 0.14039 0.0
N168 N 0.06623 0.04203 0.30879 0.0
N169 N 0.12288 0.99924 0.19378 0.0
H170 H 0.46195 0.17594 0.14599 0.0
H171 H 0.55342 0.09099 0.49355 0.0
H172 H 0.55874 0.17968 0.16917 0.0
H173 H 0.46084 0.06885 0.43946 0.0
H174 H 0.55475 0.12499 0.37655 0.0
H175 H 0.46017 0.13601 0.25059 0.0
C176 C 0.48285 0.16769 0.17137 0.0
C177 C 0.51052 0.18109 0.14934 0.0
C178 C 0.53411 0.11271 0.39031 0.0
C179 C 0.50866 0.13648 0.27035 0.0
C180 C 0.53325 0.0935 0.45775 0.0
C181 C 0.50696 0.07705 0.47692 0.0
C182 C 0.50841 0.11582 0.34177 0.0
C183 C 0.48161 0.08111 0.4274 0.0
C184 C 0.48184 0.14522 0.23169 0.0
C185 C 0.53695 0.16997 0.18488 0.0
N186 N 0.48293 0.10011 0.36234 0.0
N187 N 0.53534 0.14867 0.24428 0.0
H188 H 0.36581 0.43074 0.09863 0.0
H189 H 0.41718 0.52043 0.46788 0.0
H190 H 0.3438 0.52502 0.12155 0.0
H191 H 0.48271 0.46164 0.35593 0.0
H192 H 0.38713 0.51863 0.34502 0.0
H193 H 0.40834 0.43799 0.19104 0.0
C194 C 0.37086 0.45322 0.12001 0.0
C195 C 0.35147 0.47737 0.10253 0.0
C196 C 0.40822 0.50628 0.34733 0.0
C197 C 0.39858 0.48538 0.21067 0.0
C198 C 0.42521 0.50707 0.41763 0.0
C199 C 0.45237 0.49096 0.42251 0.0
C200 C 0.41797 0.4886 0.28218 0.0
C201 C 0.4618 0.47422 0.35501 0.0
C202 C 0.39481 0.45726 0.17343 0.0
C203 C 0.35841 0.50592 0.13346 0.0
N204 N 0.44435 0.47302 0.28797 0.0
N205 N 0.38085 0.50897 0.18788 0.0
H206 H 0.05314 0.34554 0.14929 0.0
H207 H 0.95155 0.41663 0.49452 0.0
H208 H 0.95595 0.34048 0.15334 0.0
H209 H 0.0393 0.45368 0.43591 0.0
H210 H 0.95472 0.38566 0.37364 0.0
H211 H 0.05066 0.3846 0.25394 0.0
C212 C 0.03131 0.35356 0.16999 0.0
C213 C 0.00469 0.34002 0.14284 0.0
C214 C 0.97346 0.40039 0.3877 0.0
C215 C 0.00168 0.38321 0.26429 0.0
C216 C 0.97181 0.41784 0.45727 0.0
C217 C 0.99569 0.43718 0.4772 0.0
C218 C -0.00074 0.40205 0.3376 0.0
C219 C 0.02108 0.43814 0.42539 0.0
C220 C 0.02987 0.37547 0.23035 0.0
C221 C 0.97693 0.35057 0.17274 0.0
N222 N 0.02232 0.42072 0.35824 0.0
N223 N 0.97614 0.3711 0.23291 0.0
H224 H 0.82505 0.0072 0.09603 0.0
H225 H 0.96304 0.95359 0.81843 0.0
H226 H 0.85855 0.91604 0.09028 0.0
H227 H 0.92063 0.04108 0.79807 0.0
H228 H 0.93206 0.94276 0.93797 0.0
H229 H 0.86817 0.02356 0.01215 0.0
C230 C 0.84239 0.99094 0.08055 0.0
C231 C 0.83854 0.96032 0.10066 0.0
C232 C 0.92965 0.96441 0.90772 0.0
C233 C 0.88703 0.97845 0.00174 0.0
C234 C 0.94726 0.97061 0.83903 0.0
C235 C 0.94422 0.99819 0.79711 0.0
C236 C 0.90872 0.98589 0.93515 0.0
C237 C 0.92357 0.0194 0.8277 0.0
C238 C 0.86667 1.00014 0.03131 0.0
C239 C 0.86103 0.93992 0.07688 0.0
N240 N 0.90648 0.01272 0.89445 0.0
N241 N 0.88406 0.94923 0.02753 0.0
H242 H 0.5347 0.828 0.06693 0.0
H243 H 0.45448 0.92447 0.73528 0.0
H244 H 0.43782 0.83705 0.06064 0.0
H245 H 0.53917 0.95587 0.83041 0.0
H246 H 0.45022 0.88863 0.84826 0.0
H247 H 0.53943 0.87328 0.98004 0.0
C248 C 0.51451 0.84018 0.04992 0.0
C249 C 0.48582 0.82869 0.07036 0.0
C250 C 0.46965 0.90353 0.84457 0.0
C251 C 0.49099 0.8793 0.96868 0.0
C252 C 0.4722 0.92382 0.77974 0.0
C253 C 0.49718 0.94325 0.77325 0.0
C254 C 0.49258 0.90207 0.90242 0.0
C255 C 0.51948 0.94133 0.83301 0.0
C256 C 0.5172 0.86574 -0.00043 0.0
C257 C 0.46035 0.84507 0.04557 0.0
N258 N 0.51686 0.92085 0.89463 0.0
N259 N 0.46349 0.86905 0.99444 0.0
H260 H 0.6765 0.50312 0.07537 0.0
H261 H 0.52319 0.54136 0.84738 0.0
H262 H 0.63293 0.58987 0.086 0.0
H263 H 0.58786 0.47471 0.76807 0.0
H264 H 0.55427 0.55089 0.96554 0.0
H265 H 0.63397 0.4837 -0.00234 0.0
C266 C 0.65718 0.51758 0.06484 0.0
C267 C 0.65791 0.54799 0.08746 0.0
C268 C 0.56141 0.53394 0.92268 0.0
C269 C 0.60995 0.52641 -0.00325 0.0
C270 C 0.54376 0.52848 0.85511 0.0
C271 C 0.5532 0.50751 0.79692 0.0
C272 C 0.58849 0.51804 0.93284 0.0
C273 C 0.57996 0.4914 0.81064 0.0
C274 C 0.63323 0.50668 0.01938 0.0
C275 C 0.63288 0.56618 0.07034 0.0
N276 N 0.59675 0.49711 0.87701 0.0
N277 N 0.61003 0.55523 0.0249 0.0
H278 H 0.95724 0.67861 0.04118 0.0
H279 H 0.0558 0.57157 0.77124 0.0
H280 H 0.04931 0.65551 0.09506 0.0
H281 H 0.95862 0.56329 0.775 0.0
H282 H 0.05266 0.60326 0.88985 0.0
H283 H 0.95486 0.63548 0.94929 0.0
C284 C 0.97641 0.66351 0.03673 0.0
C285 C 0.00347 0.6704 0.07581 0.0
C286 C 0.03195 0.5945 0.86484 0.0
C287 C 0.0015 0.6223 0.96829 0.0
C288 C 0.03368 0.57661 0.79628 0.0
C289 C 0.00734 0.56503 0.76152 0.0
C290 C 0.00365 0.6014 0.89895 0.0
C291 C 0.97944 0.5722 0.79806 0.0
C292 C 0.97523 0.63922 0.98335 0.0
C293 C 0.028 0.65073 0.06636 0.0
N294 N 0.97828 0.59018 0.86431 0.0
N295 N 0.02667 0.628 0.01216 0.0
H296 H 0.94741 0.25566 0.22996 0.0
H297 H 0.96674 0.07912 0.30788 0.0
H298 H 0.01303 0.19775 0.11408 0.0
H299 H 0.93382 0.13873 0.49271 0.0
H300 H 0.96564 0.12096 0.21073 0.0
H301 H 0.92824 0.2118 0.30653 0.0
C302 C 0.95781 0.23384 0.22049 0.0
C303 C 0.98193 0.23046 0.16533 0.0
C304 C 0.95761 0.12467 0.27184 0.0
C305 C 0.95919 0.18031 0.24985 0.0
C306 C 0.95771 0.10071 0.32672 0.0
C307 C 0.95014 0.10568 0.4076 0.0
C308 C 0.95038 0.15374 0.29889 0.0
C309 C 0.93941 0.13415 0.4302 0.0
C310 C 0.94655 0.20885 0.26339 0.0
C311 C 0.99405 0.20148 0.15454 0.0
N312 N 0.94049 0.15749 0.3763 0.0
N313 N 0.98253 0.17759 0.19632 0.0
H314 H 0.24289 0.04915 0.29898 0.0
H315 H 0.39982 0.96733 0.39197 0.0
H316 H 0.28672 0.98709 0.13642 0.0
H317 H 0.36576 0.04507 0.51905 0.0
H318 H 0.35271 0.9657 0.31524 0.0
H319 H 0.28204 0.03882 0.39875 0.0
C320 C 0.26055 0.03306 0.28494 0.0
C321 C 0.2621 0.0194 0.20922 0.0
C322 C 0.35557 0.98293 0.36047 0.0
C323 C 0.30672 0.00759 0.32191 0.0
C324 C 0.38236 0.98385 0.40399 0.0
C325 C 0.38685 0.00681 0.4601 0.0
C326 C 0.33325 0.00491 0.37425 0.0
C327 C 0.36348 0.02747 0.47459 0.0
C328 C 0.28289 0.02724 0.34151 0.0
C329 C 0.28527 0.99861 0.19368 0.0
N330 N 0.33775 0.02616 0.4315 0.0
N331 N 0.30691 0.99353 0.24932 0.0
H332 H 0.50831 0.32173 0.0923 0.0
H333 H 0.57339 0.37915 0.48799 0.0
H334 H 0.5725 0.26596 0.21996 0.0
H335 H 0.54839 0.43898 0.29358 0.0
H336 H 0.57915 0.33797 0.39101 0.0
H337 H 0.5261 0.36521 0.16443 0.0
C338 C 0.52664 0.3186 0.13425 0.0
C339 C 0.53905 0.28996 0.14925 0.0
C340 C 0.57375 0.36043 0.36905 0.0
C341 C 0.5589 0.34006 0.2349 0.0
C342 C 0.57079 0.38393 0.42417 0.0
C343 C 0.56057 0.41224 0.39788 0.0
C344 C 0.56575 0.36554 0.28829 0.0
C345 C 0.55648 0.41736 0.31547 0.0
C346 C 0.53678 0.3436 0.17575 0.0
C347 C 0.56194 0.28748 0.20713 0.0
N348 N 0.55846 0.394 0.26357 0.0
N349 N 0.57084 0.31218 0.24893 0.0
H350 H 0.26305 0.44934 0.27505 0.0
H351 H 0.10517 0.52972 0.37208 0.0
H352 H 0.21849 0.50827 0.10523 0.0
H353 H 0.13663 0.44855 0.49072 0.0
H354 H 0.15143 0.52996 0.28811 0.0
H355 H 0.22152 0.45732 0.37145 0.0
C356 C 0.24463 0.46418 0.25863 0.0
C357 C 0.24376 0.47782 0.18215 0.0
C358 C 0.14807 0.51222 0.33284 0.0
C359 C 0.19651 0.48703 0.29105 0.0
C360 C 0.1218 0.51207 0.38042 0.0
C361 C 0.11695 0.48879 0.43702 0.0
C362 C 0.16958 0.48924 0.34351 0.0
C363 C 0.13921 0.46657 0.44646 0.0
C364 C 0.22096 0.46864 0.31322 0.0
C365 C 0.21954 0.49692 0.16334 0.0
N366 N 0.16456 0.46734 0.40013 0.0
N367 N 0.19669 0.50088 0.21741 0.0
H368 H 0.07058 0.79822 0.07173 0.0
H369 H 0.01468 0.86 0.6554 0.0
H370 H 0.02401 0.74573 0.89338 0.0
H371 H 0.06399 0.91417 0.82397 0.0
H372 H 0.03136 0.81452 0.72531 0.0
H373 H 0.0815 0.83669 0.96846 0.0
C374 C 0.06322 0.79449 0.01053 0.0
C375 C 0.04559 0.76916 0.99171 0.0
C376 C 0.03903 0.83623 0.74665 0.0
C377 C 0.05803 0.81287 0.87367 0.0
C378 C 0.02938 0.86216 0.7069 0.0
C379 C 0.03736 0.89059 0.73589 0.0
C380 C 0.0559 0.8389 0.81749 0.0
C381 C 0.05703 0.89244 0.8011 0.0
C382 C 0.0696 0.81636 0.95155 0.0
C383 C 0.03745 0.76496 0.91107 0.0
N384 N 0.06504 0.86683 0.84138 0.0
N385 N 0.04321 0.78691 0.85546 0.0
H386 H 0.71621 0.89465 0.00754 0.0
H387 H 0.63738 0.02229 0.74627 0.0
H388 H 0.76097 0.97785 0.93892 0.0
H389 H 0.60412 0.93066 0.7658 0.0
H390 H 0.68401 0.00615 0.81278 0.0
H391 H 0.67648 0.90599 0.91063 0.0
C392 C 0.71803 0.91486 0.9703 0.0
C393 C 0.7417 0.93537 0.98109 0.0
C394 C 0.66653 0.9896 0.80172 0.0
C395 C 0.69614 0.94906 0.8726 0.0
C396 C 0.63989 0.99888 0.76461 0.0
C397 C 0.61686 0.97785 0.7512 0.0
C398 C 0.6698 0.95924 0.82603 0.0
C399 C 0.62129 0.94768 0.77514 0.0
C400 C 0.69534 0.92147 0.91543 0.0
C401 C 0.74313 0.96135 0.93186 0.0
N402 N 0.64713 0.93934 0.81186 0.0
N403 N 0.72029 0.96778 0.88073 0.0
H404 H 0.46702 0.75185 0.89392 0.0
H405 H 0.42455 0.57971 0.83791 0.0
H406 H 0.42863 0.69573 0.08395 0.0
H407 H 0.47793 0.63451 0.67353 0.0
H408 H 0.41004 0.6257 0.91123 0.0
H409 H 0.45387 0.71367 0.79651 0.0
C410 C 0.4551 0.73187 0.91517 0.0
C411 C 0.44961 0.72671 -0.00225 0.0
C412 C 0.42423 0.62767 0.85772 0.0
C413 C 0.43551 0.68225 0.88627 0.0
C414 C 0.43236 0.60154 0.81597 0.0
C415 C 0.45275 0.60363 0.75094 0.0
C416 C 0.43654 0.65568 0.83318 0.0
C417 C 0.46246 0.63215 0.72437 0.0
C418 C 0.4478 0.70988 0.85934 0.0
C419 C 0.43423 0.70017 0.02117 0.0
N420 N 0.45455 0.65705 0.76615 0.0
N421 N 0.42832 0.67856 0.96588 0.0
H422 H 0.77678 0.62182 0.98697 0.0
H423 H 0.86244 0.49574 0.74019 0.0
H424 H 0.73489 0.53773 0.92046 0.0
H425 H 0.89221 0.58866 0.74359 0.0
H426 H 0.81484 0.51103 0.80479 0.0
H427 H 0.81795 0.61172 0.89113 0.0
C428 C 0.77583 0.60173 0.95025 0.0
C429 C 0.7526 0.58053 0.96171 0.0
C430 C 0.83176 0.52807 0.79084 0.0
C431 C 0.79982 0.56829 0.85464 0.0
C432 C 0.859 0.51928 0.755 0.0
C433 C 0.88129 0.54093 0.73739 0.0
C434 C 0.8271 0.55861 0.80996 0.0
C435 C 0.8756 0.57122 0.75648 0.0
C436 C 0.79936 0.59584 0.89607 0.0
C437 C 0.75235 0.55475 0.91308 0.0
N438 N 0.84915 0.57914 0.79233 0.0
N439 N 0.77599 0.54901 0.86282 0.0
H440 H 0.06356 0.24937 0.92839 0.0
H441 H 0.94531 0.16109 0.67306 0.0
H442 H 0.97668 0.28475 0.86291 0.0
H443 H 0.03637 0.12943 0.70898 0.0
H444 H 0.96019 0.2107 0.72024 0.0
H445 H 0.05958 0.21195 0.82161 0.0
C446 C 0.04448 0.25045 0.8881 0.0
C447 C 0.02025 0.26992 0.90487 0.0
C448 C 0.97711 0.1931 0.71704 0.0
C449 C 0.01472 0.22625 0.78569 0.0
C450 C 0.96853 0.1646 0.69075 0.0
C451 C 0.98949 0.14087 0.68859 0.0
C452 C 0.00682 0.19801 0.74278 0.0
C453 C 0.01939 0.14698 0.71072 0.0
C454 C 0.04187 0.22862 0.82822 0.0
C455 C 0.99582 0.27008 0.85192 0.0
N456 N 0.02706 0.17484 0.73817 0.0
N457 N 0.99318 0.24787 0.79641 0.0
H458 H 0.26707 0.08603 0.94402 0.0
H459 H 0.36349 0.96048 0.72424 0.0
H460 H 0.23325 0.99765 0.8872 0.0
H461 H 0.39542 0.05194 0.75244 0.0
H462 H 0.31362 0.97601 0.77001 0.0
H463 H 0.31026 0.07777 0.85342 0.0
C464 C 0.26791 0.06555 0.90882 0.0
C465 C 0.24667 0.04242 0.92308 0.0
C466 C 0.33141 0.99281 0.76596 0.0
C467 C 0.29669 0.03214 0.82286 0.0
C468 C 0.3601 0.98387 0.74054 0.0
C469 C 0.3839 0.00485 0.73532 0.0
C470 C 0.32627 0.02297 0.78736 0.0
C471 C 0.37787 0.03491 0.75647 0.0
C472 C 0.2929 0.06056 0.85842 0.0
C473 C 0.24907 0.01607 0.87749 0.0
N474 N 0.34969 0.04303 0.78218 0.0
N475 N 0.27409 0.01129 0.83105 0.0
H476 H 0.45104 0.27018 0.94459 0.0
H477 H 0.55758 0.35961 0.64617 0.0
H478 H 0.53398 0.23493 0.84624 0.0
H479 H 0.46898 0.39176 0.71358 0.0
H480 H 0.54433 0.30978 0.69841 0.0
H481 H 0.45036 0.3084 0.83701 0.0
C482 C 0.4681 0.26927 0.89722 0.0
C483 C 0.49279 0.24956 0.90471 0.0
C484 C 0.52752 0.3275 0.70115 0.0
C485 C 0.49305 0.29414 0.78393 0.0
C486 C 0.5352 0.35614 0.67184 0.0
C487 C 0.51455 0.38007 0.677 0.0
C488 C 0.49912 0.32264 0.7377 0.0
C489 C 0.48568 0.374 0.70926 0.0
C490 C 0.4681 0.29159 0.83676 0.0
C491 C 0.51458 0.24973 0.84268 0.0
N492 N 0.47899 0.34599 0.73987 0.0
N493 N 0.51475 0.27232 0.78642 0.0
H494 H 0.28253 0.50026 0.85843 0.0
H495 H 0.11974 0.44082 0.73594 0.0
H496 H 0.24864 0.41209 0.92448 0.0
H497 H 0.15412 0.53092 0.69192 0.0
H498 H 0.17043 0.42533 0.77914 0.0
H499 H 0.24128 0.50586 0.76289 0.0
C500 C 0.26735 0.48138 0.84951 0.0
C501 C 0.26871 0.45587 0.89995 0.0
C502 C 0.16683 0.44841 0.75927 0.0
C503 C 0.22047 0.46267 0.79444 0.0
C504 C 0.13786 0.4573 0.73535 0.0
C505 C 0.13248 0.48734 0.71167 0.0
C506 C 0.19054 0.46969 0.75904 0.0
C507 C 0.15696 0.50762 0.71079 0.0
C508 C 0.24332 0.48482 0.79632 0.0
C509 C 0.24818 0.4322 0.88674 0.0
N510 N 0.18472 0.49848 0.7345 0.0
N511 N 0.22428 0.43653 0.83713 0.0
H512 H 0.02614 0.74503 0.3309 0.0
H513 H 0.96169 0.90951 0.43077 0.0
H514 H 0.95653 0.78727 0.19016 0.0
H515 H 0.04975 0.8759 0.49492 0.0
H516 H 0.95022 0.86011 0.37052 0.0
H517 H 0.02361 0.78705 0.42569 0.0
C518 C 0.00923 0.76241 0.32237 0.0
C519 C 0.99141 0.76272 0.25318 0.0
C520 C 0.97192 0.86364 0.39846 0.0
C521 C 0.98928 0.81142 0.35876 0.0
C522 C 0.97851 0.89178 0.43232 0.0
C523 C 0.00691 0.89698 0.46641 0.0
C524 C 0.99365 0.84051 0.4007 0.0
C525 C 0.0278 0.87316 0.46776 0.0
C526 C 0.00817 0.78667 0.37548 0.0
C527 C 0.97042 0.7862 0.24346 0.0
N528 N 0.02075 0.84607 0.4355 0.0
N529 N 0.9703 0.80999 0.29482 0.0
H530 H 0.72547 0.90168 0.28092 0.0
H531 H 0.6219 0.03808 0.41831 0.0
H532 H 0.75381 0.99483 0.2747 0.0
H533 H 0.60118 0.94639 0.49111 0.0
H534 H 0.66975 0.0212 0.36199 0.0
H535 H 0.68116 0.91584 0.36237 0.0
C536 C 0.72297 0.92493 0.29963 0.0
C537 C 0.74335 0.94715 0.27124 0.0
C538 C 0.65484 0.00465 0.39016 0.0
C539 C 0.69216 0.96366 0.36113 0.0
C540 C 0.62726 0.01423 0.42168 0.0
C541 C 0.6074 0.99363 0.45956 0.0
C542 C 0.66282 0.97407 0.39558 0.0
C543 C 0.61567 0.963 0.46176 0.0
C544 C 0.69748 0.93305 0.34509 0.0
C545 C 0.73885 0.97698 0.2959 0.0
N546 N 0.64283 0.95411 0.43016 0.0
N547 N 0.71344 0.98445 0.33803 0.0
H548 H 0.5405 0.71295 0.18599 0.0
H549 H 0.4505 0.6267 0.52468 0.0
H550 H 0.47198 0.75478 0.33327 0.0
H551 H 0.53637 0.59334 0.43863 0.0
H552 H 0.4616 0.67556 0.46314 0.0
H553 H 0.54491 0.67229 0.28672 0.0
C554 C 0.52749 0.71433 0.24164 0.0
C555 C 0.50591 0.73727 0.25169 0.0
C556 C 0.47828 0.65779 0.4581 0.0
C557 C 0.50972 0.69017 0.36506 0.0
C558 C 0.4718 0.6297 0.49262 0.0
C559 C 0.49232 0.60574 0.4855 0.0
C560 C 0.50522 0.66202 0.41387 0.0
C561 C 0.51983 0.61118 0.44482 0.0
C562 C 0.52971 0.6909 0.29862 0.0
C563 C 0.48905 0.73766 0.32368 0.0
N564 N 0.52526 0.63863 0.409 0.0
N565 N 0.49078 0.71407 0.37668 0.0
H566 H 0.73875 0.51787 0.26166 0.0
H567 H 0.8959 0.56766 0.45668 0.0
H568 H 0.77135 0.60972 0.25531 0.0
H569 H 0.86621 0.47544 0.42879 0.0
H570 H 0.84841 0.58491 0.39627 0.0
H571 H 0.7817 0.50366 0.34496 0.0
C572 C 0.75435 0.53528 0.28035 0.0
C573 C 0.75159 0.56497 0.2513 0.0
C574 C 0.85241 0.56091 0.40334 0.0
C575 C 0.80152 0.5487 0.34377 0.0
C576 C 0.87964 0.55107 0.43691 0.0
C577 C 0.88508 0.52007 0.4476 0.0
C578 C 0.83055 0.53957 0.38078 0.0
C579 C 0.86301 0.49957 0.42193 0.0
C580 C 0.77922 0.52707 0.32666 0.0
C581 C 0.77281 0.58652 0.27627 0.0
N582 N 0.83678 0.50967 0.39007 0.0
N583 N 0.79718 0.57789 0.31999 0.0
loop_
_geom_bond_atom_site_label_1
_geom_bond_atom_site_label_2
_geom_bond_distance
_geom_bond_site_symmetry_2
_ccdc_geom_bond_type
H0 C3 0.931 . S
H1 C6 0.928 . S
H2 C8 0.930 . S
C3 H0 0.931 . S
C3 C4 1.413 . S
C3 C5 1.360 1_554 S
C4 C3 1.413 . S
C4 C8 1.429 . S
C5 C3 1.360 1_556 S
C5 C6 1.372 . S
C6 H1 0.928 . S
C6 C5 1.372 . S
C6 C7 1.404 1_556 S
C7 C6 1.404 1_554 S
C7 C8 1.391 . S
C8 H2 0.930 . S
C8 C4 1.429 . S
C8 C7 1.391 . S
H9 C12 0.931 . S
H10 C15 0.928 . S
H11 C17 0.930 . S
C12 H9 0.931 . S
C12 C13 1.413 . S
C12 C14 1.360 1_554 S
C13 C12 1.413 . S
C13 C17 1.429 . S
C14 C12 1.360 1_556 S
C14 C15 1.372 . S
C15 H10 0.928 . S
C15 C14 1.372 . S
C15 C16 1.404 1_556 S
C16 C15 1.404 1_554 S
C16 C17 1.391 . S
C17 H11 0.930 . S
C17 C13 1.429 . S
C17 C16 1.391 . S
H18 C21 0.931 . S
H19 C24 0.928 . S
H20 C26 0.930 . S
C21 H18 0.931 . S
C21 C22 1.413 . S
C21 C23 1.360 1_554 S
C22 C21 1.413 . S
C22 C26 1.429 . S
C23 C21 1.360 1_556 S
C23 C24 1.372 . S
C24 H19 0.928 . S
C24 C23 1.372 . S
C24 C25 1.404 1_556 S
C25 C24 1.404 1_554 S
C25 C26 1.391 . S
C26 H20 0.930 . S
C26 C22 1.429 . S
C26 C25 1.391 . S
H27 C30 0.931 . S
H28 C33 0.928 . S
H29 C35 0.930 . S
C30 H27 0.931 . S
C30 C31 1.413 1_554 S
C30 C32 1.360 . S
C31 C30 1.413 1_556 S
C31 C35 1.429 . S
C32 C30 1.360 . S
C32 C33 1.372 . S
C33 H28 0.928 . S
C33 C32 1.372 . S
C33 C34 1.404 . S
C34 C33 1.404 . S
C34 C35 1.391 1_554 S
C35 H29 0.930 . S
C35 C31 1.429 . S
C35 C34 1.391 1_556 S
H36 C39 0.931 . S
H37 C42 0.928 . S
H38 C44 0.930 . S
C39 H36 0.931 . S
C39 C40 1.413 . S
C39 C41 1.360 . S
C40 C39 1.413 . S
C40 C44 1.429 . S
C41 C39 1.360 . S
C41 C42 1.372 . S
C42 H37 0.928 . S
C42 C41 1.372 . S
C42 C43 1.404 . S
C43 C42 1.404 . S
C43 C44 1.391 . S
C44 H38 0.930 . S
C44 C40 1.429 . S
C44 C43 1.391 . S
H45 C48 0.931 . S
H46 C51 0.928 . S
H47 C53 0.930 . S
C48 H45 0.931 . S
C48 C49 1.413 . S
C48 C50 1.360 . S
C49 C48 1.413 . S
C49 C53 1.429 . S
C50 C48 1.360 . S
C50 C51 1.372 . S
C51 H46 0.928 . S
C51 C50 1.372 . S
C51 C52 1.404 . S
C52 C51 1.404 . S
C52 C53 1.391 . S
C53 H47 0.930 . S
C53 C49 1.429 . S
C53 C52 1.391 . S
H54 C57 0.931 . S
H55 C60 0.928 . S
H56 C62 0.930 . S
C57 H54 0.931 . S
C57 C58 1.413 . S
C57 C59 1.360 . S
C58 C57 1.413 . S
C58 C62 1.429 . S
C59 C57 1.360 . S
C59 C60 1.372 . S
C60 H55 0.928 . S
C60 C59 1.372 . S
C60 C61 1.404 . S
C61 C60 1.404 . S
C61 C62 1.391 . S
C62 H56 0.930 . S
C62 C58 1.429 . S
C62 C61 1.391 . S
H63 C66 0.931 . S
H64 C69 0.928 . S
H65 C71 0.930 . S
C66 H63 0.931 . S
C66 C67 1.413 . S
C66 C68 1.360 . S
C67 C66 1.413 . S
C67 C71 1.429 . S
C68 C66 1.360 . S
C68 C69 1.372 . S
C69 H64 0.928 . S
C69 C68 1.372 . S
C69 C70 1.404 . S
C70 C69 1.404 . S
C70 C71 1.391 . S
C71 H65 0.930 . S
C71 C67 1.429 . S
C71 C70 1.391 . S
Zn72 O78 1.969 . S
Zn72 O79 1.965 1_655 S
Zn72 O83 2.024 1_655 S
Zn72 O88 1.969 . S
Zn73 O80 1.969 . S
Zn73 O86 1.969 . S
Zn73 O87 1.965 1_455 S
Zn73 O89 2.024 1_455 S
C74 O75 1.229 1_455 S
C74 O83 1.058 . S
O75 C74 1.229 1_655 S
C76 O77 1.229 1_655 S
C76 O89 1.058 . S
O77 C76 1.229 1_455 S
O78 Zn72 1.969 . S
O78 C81 1.267 . S
O79 Zn72 1.965 1_455 S
O79 C90 1.260 . S
O80 Zn73 1.969 . S
O80 C90 1.258 1_565 S
C81 O78 1.267 . S
C81 O82 1.228 1_655 S
O82 C81 1.228 1_455 S
O83 Zn72 2.024 1_455 S
O83 C74 1.058 . S
C84 O85 1.228 1_455 S
C84 O86 1.267 . S
O85 C84 1.228 1_655 S
O86 Zn73 1.969 . S
O86 C84 1.267 . S
O87 Zn73 1.965 1_655 S
O87 C91 1.260 1_565 S
O88 Zn72 1.969 . S
O88 C91 1.258 . S
O89 Zn73 2.024 1_655 S
O89 C76 1.058 . S
C90 O79 1.260 . S
C90 O80 1.258 1_545 S
C91 O87 1.260 1_545 S
C91 O88 1.258 . S
Zn92 O98 1.969 1_545 S
Zn92 O99 1.965 . S
Zn92 O103 2.024 . S
Zn92 O108 1.969 1_545 S
Zn93 O100 1.969 1_565 S
Zn93 O106 1.969 1_565 S
Zn93 O107 1.965 . S
Zn93 O109 2.024 . S
C94 O95 1.232 . S
C94 O103 1.058 . S
O95 C94 1.232 . S
C96 O97 1.229 1_565 S
C96 O109 1.058 . S
O97 C96 1.229 1_545 S
O98 Zn92 1.969 1_565 S
O98 C101 1.267 1_565 S
O99 Zn92 1.965 . S
O99 C110 1.260 . S
O100 Zn93 1.969 1_545 S
O100 C110 1.258 . S
C101 O98 1.267 1_545 S
C101 O102 1.228 . S
O102 C101 1.228 . S
O103 Zn92 2.024 . S
O103 C94 1.058 . S
C104 O105 1.228 . S
C104 O106 1.267 1_565 S
O105 C104 1.228 . S
O106 Zn93 1.969 1_545 S
O106 C104 1.267 1_545 S
O107 Zn93 1.965 . S
O107 C111 1.260 . S
O108 Zn92 1.969 1_565 S
O108 C111 1.258 . S
O109 Zn93 2.024 . S
O109 C96 1.058 . S
C110 O99 1.260 . S
C110 O100 1.258 . S
C111 O107 1.260 . S
C111 O108 1.258 . S
Zn112 O118 1.969 . S
Zn112 O119 1.965 . S
Zn112 O123 2.024 . S
Zn112 O128 1.969 . S
Zn113 O120 1.969 . S
Zn113 O126 1.969 . S
Zn113 O127 1.965 . S
Zn113 O129 2.024 . S
C114 O115 1.229 . S
C114 O123 1.058 . S
O115 C114 1.229 . S
C116 O117 1.229 . S
C116 O129 1.058 . S
O117 C116 1.229 . S
O118 Zn112 1.969 . S
O118 C121 1.267 . S
O119 Zn112 1.965 . S
O119 C130 1.260 . S
O120 Zn113 1.969 . S
O120 C130 1.258 . S
C121 O118 1.267 . S
C121 O122 1.228 . S
O122 C121 1.228 . S
O123 Zn112 2.024 . S
O123 C114 1.058 . S
C124 O125 1.228 . S
C124 O126 1.267 . S
O125 C124 1.228 . S
O126 Zn113 1.969 . S
O126 C124 1.267 . S
O127 Zn113 1.965 . S
O127 C131 1.260 . S
O128 Zn112 1.969 . S
O128 C131 1.258 . S
O129 Zn113 2.024 . S
O129 C116 1.058 . S
C130 O119 1.260 . S
C130 O120 1.258 . S
C131 O127 1.260 . S
C131 O128 1.258 . S
Zn132 O138 1.969 . S
Zn132 O139 1.965 . S
Zn132 O143 2.024 . S
Zn132 O148 1.969 . S
Zn133 O140 1.969 . S
Zn133 O146 1.969 . S
Zn133 O147 1.965 . S
Zn133 O149 2.024 . S
C134 O135 1.229 . S
C134 O143 1.058 . S
O135 C134 1.229 . S
C136 O137 1.229 . S
C136 O149 1.058 . S
O137 C136 1.229 . S
O138 Zn132 1.969 . S
O138 C141 1.267 . S
O139 Zn132 1.965 . S
O139 C150 1.255 1_455 S
O140 Zn133 1.969 . S
O140 C150 1.264 . S
C141 O138 1.267 . S
C141 O142 1.228 . S
O142 C141 1.228 . S
O143 Zn132 2.024 . S
O143 C134 1.058 . S
C144 O145 1.228 . S
C144 O146 1.267 . S
O145 C144 1.228 . S
O146 Zn133 1.969 . S
O146 C144 1.267 . S
O147 Zn133 1.965 . S
O147 C151 1.260 1_655 S
O148 Zn132 1.969 . S
O148 C151 1.258 . S
O149 Zn133 2.024 . S
O149 C136 1.058 . S
C150 O139 1.255 1_655 S
C150 O140 1.264 . S
C151 O147 1.260 1_455 S
C151 O148 1.258 . S
H152 C158 0.930 . S
H153 C162 0.930 . S
H154 C167 0.929 . S
H155 C165 0.929 . S
H156 C160 0.929 1_565 S
H157 C166 0.929 . S
C158 H152 0.930 . S
C158 C159 1.367 . S
C158 C166 1.378 . S
C159 C158 1.367 . S
C159 C167 1.433 . S
C160 H156 0.929 1_545 S
C160 C162 1.378 1_545 S
C160 C164 1.350 . S
C161 C164 1.463 . S
C161 C166 1.350 . S
C161 N169 1.427 . S
C162 H153 0.930 . S
C162 C160 1.378 1_565 S
C162 C163 1.367 1_565 S
C163 C162 1.367 1_545 S
C163 C165 1.433 . S
C164 C160 1.350 . S
C164 C161 1.463 . S
C164 N168 1.427 . S
C165 H155 0.929 . S
C165 C163 1.433 . S
C165 N168 1.384 . S
C166 H157 0.929 . S
C166 C158 1.378 . S
C166 C161 1.350 . S
C167 H154 0.929 . S
C167 C159 1.433 . S
C167 N169 1.384 . S
N168 C164 1.427 . S
N168 C165 1.384 . S
N169 C161 1.427 . S
N169 C167 1.384 . S
H170 C176 0.930 . S
H171 C180 0.930 . S
H172 C185 0.929 . S
H173 C183 0.929 . S
H174 C178 0.929 . S
H175 C184 0.929 . S
C176 H170 0.930 . S
C176 C177 1.367 . S
C176 C184 1.378 . S
C177 C176 1.367 . S
C177 C185 1.433 . S
C178 H174 0.929 . S
C178 C180 1.378 . S
C178 C182 1.350 . S
C179 C182 1.463 . S
C179 C184 1.350 . S
C179 N187 1.427 . S
C180 H171 0.930 . S
C180 C178 1.378 . S
C180 C181 1.367 . S
C181 C180 1.367 . S
C181 C183 1.433 . S
C182 C178 1.350 . S
C182 C179 1.463 . S
C182 N186 1.427 . S
C183 H173 0.929 . S
C183 C181 1.433 . S
C183 N186 1.384 . S
C184 H175 0.929 . S
C184 C176 1.378 . S
C184 C179 1.350 . S
C185 H172 0.929 . S
C185 C177 1.433 . S
C185 N187 1.384 . S
N186 C182 1.427 . S
N186 C183 1.384 . S
N187 C179 1.427 . S
N187 C185 1.384 . S
H188 C194 0.930 . S
H189 C198 0.930 . S
H190 C203 0.929 . S
H191 C201 0.929 . S
H192 C196 0.929 . S
H193 C202 0.929 . S
C194 H188 0.930 . S
C194 C195 1.367 . S
C194 C202 1.378 . S
C195 C194 1.367 . S
C195 C203 1.433 . S
C196 H192 0.929 . S
C196 C198 1.378 . S
C196 C200 1.350 . S
C197 C200 1.463 . S
C197 C202 1.350 . S
C197 N205 1.427 . S
C198 H189 0.930 . S
C198 C196 1.378 . S
C198 C199 1.367 . S
C199 C198 1.367 . S
C199 C201 1.433 . S
C200 C196 1.350 . S
C200 C197 1.463 . S
C200 N204 1.427 . S
C201 H191 0.929 . S
C201 C199 1.433 . S
C201 N204 1.384 . S
C202 H193 0.929 . S
C202 C194 1.378 . S
C202 C197 1.350 . S
C203 H190 0.929 . S
C203 C195 1.433 . S
C203 N205 1.384 . S
N204 C200 1.427 . S
N204 C201 1.384 . S
N205 C197 1.427 . S
N205 C203 1.384 . S
H206 C212 0.930 . S
H207 C216 0.930 1_655 S
H208 C221 0.929 . S
H209 C219 0.929 . S
H210 C214 0.929 1_655 S
H211 C220 0.929 . S
C212 H206 0.930 . S
C212 C213 1.367 . S
C212 C220 1.378 . S
C213 C212 1.367 . S
C213 C221 1.433 . S
C214 H210 0.929 1_455 S
C214 C216 1.378 . S
C214 C218 1.350 . S
C215 C218 1.463 . S
C215 C220 1.350 . S
C215 N223 1.427 . S
C216 H207 0.930 1_455 S
C216 C214 1.378 . S
C216 C217 1.367 . S
C217 C216 1.367 . S
C217 C219 1.433 . S
C218 C214 1.350 . S
C218 C215 1.463 . S
C218 N222 1.427 . S
C219 H209 0.929 . S
C219 C217 1.433 . S
C219 N222 1.384 . S
C220 H211 0.929 . S
C220 C212 1.378 . S
C220 C215 1.350 . S
C221 H208 0.929 . S
C221 C213 1.433 . S
C221 N223 1.384 . S
N222 C218 1.427 . S
N222 C219 1.384 . S
N223 C215 1.427 . S
N223 C221 1.384 . S
H224 C230 0.930 1_544 S
H225 C234 0.930 . S
H226 C239 0.929 . S
H227 C237 0.929 . S
H228 C232 0.929 . S
H229 C238 0.929 1_545 S
C230 H224 0.930 1_566 S
C230 C231 1.367 . S
C230 C238 1.378 . S
C231 C230 1.367 . S
C231 C239 1.433 . S
C232 H228 0.929 . S
C232 C234 1.378 . S
C232 C236 1.350 . S
C233 C236 1.463 . S
C233 C238 1.350 . S
C233 N241 1.427 . S
C234 H225 0.930 . S
C234 C232 1.378 . S
C234 C235 1.367 . S
C235 C234 1.367 . S
C235 C237 1.433 1_565 S
C236 C232 1.350 . S
C236 C233 1.463 . S
C236 N240 1.427 1_565 S
C237 H227 0.929 . S
C237 C235 1.433 1_545 S
C237 N240 1.384 . S
C238 H229 0.929 1_565 S
C238 C230 1.378 . S
C238 C233 1.350 . S
C239 H226 0.929 . S
C239 C231 1.433 . S
C239 N241 1.384 . S
N240 C236 1.427 1_545 S
N240 C237 1.384 . S
N241 C233 1.427 . S
N241 C239 1.384 . S
H242 C248 0.930 . S
H243 C252 0.930 . S
H244 C257 0.929 . S
H245 C255 0.929 . S
H246 C250 0.929 . S
H247 C256 0.929 . S
C248 H242 0.930 . S
C248 C249 1.367 1_554 S
C248 C256 1.378 1_554 S
C249 C248 1.367 1_556 S
C249 C257 1.433 . S
C250 H246 0.929 . S
C250 C252 1.378 . S
C250 C254 1.350 . S
C251 C254 1.463 . S
C251 C256 1.350 . S
C251 N259 1.427 . S
C252 H243 0.930 . S
C252 C250 1.378 . S
C252 C253 1.367 . S
C253 C252 1.367 . S
C253 C255 1.433 . S
C254 C250 1.350 . S
C254 C251 1.463 . S
C254 N258 1.427 . S
C255 H245 0.929 . S
C255 C253 1.433 . S
C255 N258 1.384 . S
C256 H247 0.929 . S
C256 C248 1.378 1_556 S
C256 C251 1.350 . S
C257 H244 0.929 . S
C257 C249 1.433 . S
C257 N259 1.384 . S
N258 C254 1.427 . S
N258 C255 1.384 . S
N259 C251 1.427 . S
N259 C257 1.384 . S
H260 C266 0.930 . S
H261 C270 0.930 . S
H262 C275 0.929 1_554 S
H263 C273 0.929 . S
H264 C268 0.929 . S
H265 C274 0.929 . S
C266 H260 0.930 . S
C266 C267 1.367 . S
C266 C274 1.378 . S
C267 C266 1.367 . S
C267 C275 1.433 . S
C268 H264 0.929 . S
C268 C270 1.378 . S
C268 C272 1.350 . S
C269 C272 1.463 . S
C269 C274 1.350 . S
C269 N277 1.427 . S
C270 H261 0.930 . S
C270 C268 1.378 . S
C270 C271 1.367 . S
C271 C270 1.367 . S
C271 C273 1.433 . S
C272 C268 1.350 . S
C272 C269 1.463 . S
C272 N276 1.427 . S
C273 H263 0.929 . S
C273 C271 1.433 . S
C273 N276 1.384 . S
C274 H265 0.929 . S
C274 C266 1.378 . S
C274 C269 1.350 . S
C275 H262 0.929 1_556 S
C275 C267 1.433 . S
C275 N277 1.384 . S
N276 C272 1.427 . S
N276 C273 1.384 . S
N277 C269 1.427 . S
N277 C275 1.384 . S
H278 C284 0.930 1_554 S
H279 C288 0.930 . S
H280 C293 0.929 . S
H281 C291 0.929 . S
H282 C286 0.929 . S
H283 C292 0.929 . S
C284 H278 0.930 1_556 S
C284 C285 1.367 . S
C284 C292 1.378 . S
C285 C284 1.367 . S
C285 C293 1.433 1_655 S
C286 H282 0.929 . S
C286 C288 1.378 . S
C286 C290 1.374 . S
C287 C290 1.459 1_655 S
C287 C292 1.350 . S
C287 N295 1.427 1_655 S
C288 H279 0.930 . S
C288 C286 1.378 . S
C288 C289 1.367 . S
C289 C288 1.367 . S
C289 C291 1.433 1_455 S
C290 C286 1.374 . S
C290 C287 1.459 1_455 S
C290 N294 1.406 1_455 S
C291 H281 0.929 . S
C291 C289 1.433 1_655 S
C291 N294 1.384 . S
C292 H283 0.929 . S
C292 C284 1.378 . S
C292 C287 1.350 . S
C293 H280 0.929 . S
C293 C285 1.433 1_455 S
C293 N295 1.384 . S
N294 C290 1.406 1_655 S
N294 C291 1.384 . S
N295 C287 1.427 1_455 S
N295 C293 1.384 . S
H296 C302 0.930 . S
H297 C306 0.930 . S
H298 C311 0.929 . S
H299 C309 0.929 . S
H300 C304 0.929 . S
H301 C310 0.929 . S
C302 H296 0.930 . S
C302 C303 1.367 1_655 S
C302 C310 1.378 . S
C303 C302 1.367 1_455 S
C303 C311 1.433 . S
C304 H300 0.929 . S
C304 C306 1.378 . S
C304 C308 1.350 1_455 S
C305 C308 1.463 . S
C305 C310 1.350 . S
C305 N313 1.427 1_655 S
C306 H297 0.930 . S
C306 C304 1.378 . S
C306 C307 1.367 1_455 S
C307 C306 1.367 1_655 S
C307 C309 1.433 . S
C308 C304 1.350 1_655 S
C308 C305 1.463 . S
C308 N312 1.427 . S
C309 H299 0.929 . S
C309 C307 1.433 . S
C309 N312 1.384 . S
C310 H301 0.929 . S
C310 C302 1.378 . S
C310 C305 1.350 . S
C311 H298 0.929 . S
C311 C303 1.433 . S
C311 N313 1.384 . S
N312 C308 1.427 . S
N312 C309 1.384 . S
N313 C305 1.427 1_455 S
N313 C311 1.384 . S
H314 C320 0.930 . S
H315 C324 0.930 . S
H316 C329 0.929 . S
H317 C327 0.929 . S
H318 C322 0.929 . S
H319 C328 0.929 . S
C320 H314 0.930 . S
C320 C321 1.367 . S
C320 C328 1.378 . S
C321 C320 1.367 . S
C321 C329 1.433 . S
C322 H318 0.929 . S
C322 C324 1.378 . S
C322 C326 1.350 1_565 S
C323 C326 1.463 . S
C323 C328 1.350 . S
C323 N331 1.427 . S
C324 H315 0.930 . S
C324 C322 1.378 . S
C324 C325 1.367 . S
C325 C324 1.367 . S
C325 C327 1.433 1_565 S
C326 C322 1.350 1_545 S
C326 C323 1.463 . S
C326 N330 1.427 . S
C327 H317 0.929 . S
C327 C325 1.433 1_545 S
C327 N330 1.384 . S
C328 H319 0.929 . S
C328 C320 1.378 . S
C328 C323 1.350 . S
C329 H316 0.929 . S
C329 C321 1.433 . S
C329 N331 1.384 . S
N330 C326 1.427 . S
N330 C327 1.384 . S
N331 C323 1.427 . S
N331 C329 1.384 . S
H332 C338 0.930 . S
H333 C342 0.930 . S
H334 C347 0.929 . S
H335 C345 0.929 . S
H336 C340 0.929 . S
H337 C346 0.929 . S
C338 H332 0.930 . S
C338 C339 1.367 . S
C338 C346 1.378 . S
C339 C338 1.367 . S
C339 C347 1.433 . S
C340 H336 0.929 . S
C340 C342 1.378 . S
C340 C344 1.350 . S
C341 C344 1.463 . S
C341 C346 1.350 . S
C341 N349 1.427 . S
C342 H333 0.930 . S
C342 C340 1.378 . S
C342 C343 1.367 . S
C343 C342 1.367 . S
C343 C345 1.433 . S
C344 C340 1.350 . S
C344 C341 1.463 . S
C344 N348 1.427 . S
C345 H335 0.929 . S
C345 C343 1.433 . S
C345 N348 1.384 . S
C346 H337 0.929 . S
C346 C338 1.378 . S
C346 C341 1.350 . S
C347 H334 0.929 . S
C347 C339 1.433 . S
C347 N349 1.384 . S
N348 C344 1.427 . S
N348 C345 1.384 . S
N349 C341 1.427 . S
N349 C347 1.384 . S
H350 C356 0.930 . S
H351 C360 0.930 . S
H352 C365 0.929 . S
H353 C363 0.929 . S
H354 C358 0.929 . S
H355 C364 0.929 . S
C356 H350 0.930 . S
C356 C357 1.367 . S
C356 C364 1.378 . S
C357 C356 1.367 . S
C357 C365 1.433 . S
C358 H354 0.929 . S
C358 C360 1.378 . S
C358 C362 1.350 . S
C359 C362 1.463 . S
C359 C364 1.350 . S
C359 N367 1.427 . S
C360 H351 0.930 . S
C360 C358 1.378 . S
C360 C361 1.367 . S
C361 C360 1.367 . S
C361 C363 1.433 . S
C362 C358 1.350 . S
C362 C359 1.463 . S
C362 N366 1.427 . S
C363 H353 0.929 . S
C363 C361 1.433 . S
C363 N366 1.384 . S
C364 H355 0.929 . S
C364 C356 1.378 . S
C364 C359 1.350 . S
C365 H352 0.929 . S
C365 C357 1.433 . S
C365 N367 1.384 . S
N366 C362 1.427 . S
N366 C363 1.384 . S
N367 C359 1.427 . S
N367 C365 1.384 . S
H368 C374 0.930 1_554 S
H369 C378 0.930 . S
H370 C383 0.929 . S
H371 C381 0.929 . S
H372 C376 0.929 . S
H373 C382 0.929 . S
C374 H368 0.930 1_556 S
C374 C375 1.367 1_455 S
C374 C382 1.378 . S
C375 C374 1.367 1_655 S
C375 C383 1.433 . S
C376 H372 0.929 . S
C376 C378 1.378 . S
C376 C380 1.350 1_655 S
C377 C380 1.463 . S
C377 C382 1.350 . S
C377 N385 1.427 1_455 S
C378 H369 0.930 . S
C378 C376 1.378 . S
C378 C379 1.367 1_655 S
C379 C378 1.367 1_455 S
C379 C381 1.433 . S
C380 C376 1.350 1_455 S
C380 C377 1.463 . S
C380 N384 1.427 . S
C381 H371 0.929 . S
C381 C379 1.433 . S
C381 N384 1.384 . S
C382 H373 0.929 . S
C382 C374 1.378 . S
C382 C377 1.350 . S
C383 H370 0.929 . S
C383 C375 1.433 . S
C383 N385 1.384 . S
N384 C380 1.427 . S
N384 C381 1.384 . S
N385 C377 1.427 1_655 S
N385 C383 1.384 . S
H386 C392 0.930 1_554 S
H387 C396 0.930 . S
H388 C401 0.929 . S
H389 C399 0.929 . S
H390 C394 0.929 . S
H391 C400 0.929 . S
C392 H386 0.930 1_556 S
C392 C393 1.367 . S
C392 C400 1.378 . S
C393 C392 1.367 . S
C393 C401 1.433 . S
C394 H390 0.929 . S
C394 C396 1.378 1_565 S
C394 C398 1.350 . S
C395 C398 1.463 . S
C395 C400 1.350 . S
C395 N403 1.427 . S
C396 H387 0.930 . S
C396 C394 1.378 1_545 S
C396 C397 1.367 . S
C397 C396 1.367 . S
C397 C399 1.433 1_545 S
C398 C394 1.350 . S
C398 C395 1.463 . S
C398 N402 1.427 . S
C399 H389 0.929 . S
C399 C397 1.433 1_565 S
C399 N402 1.384 . S
C400 H391 0.929 . S
C400 C392 1.378 . S
C400 C395 1.350 . S
C401 H388 0.929 . S
C401 C393 1.433 . S
C401 N403 1.384 . S
N402 C398 1.427 . S
N402 C399 1.384 . S
N403 C395 1.427 . S
N403 C401 1.384 . S
H404 C410 0.930 . S
H405 C414 0.930 . S
H406 C419 0.929 1_554 S
H407 C417 0.929 . S
H408 C412 0.929 . S
H409 C418 0.929 . S
C410 H404 0.930 . S
C410 C411 1.367 . S
C410 C418 1.378 . S
C411 C410 1.367 . S
C411 C419 1.433 . S
C412 H408 0.929 . S
C412 C414 1.378 . S
C412 C416 1.350 . S
C413 C416 1.463 . S
C413 C418 1.350 . S
C413 N421 1.427 . S
C414 H405 0.930 . S
C414 C412 1.378 . S
C414 C415 1.367 . S
C415 C414 1.367 . S
C415 C417 1.433 . S
C416 C412 1.350 . S
C416 C413 1.463 . S
C416 N420 1.427 . S
C417 H407 0.929 . S
C417 C415 1.433 . S
C417 N420 1.384 . S
C418 H409 0.929 . S
C418 C410 1.378 . S
C418 C413 1.350 . S
C419 H406 0.929 1_556 S
C419 C411 1.433 . S
C419 N421 1.384 . S
N420 C416 1.427 . S
N420 C417 1.384 . S
N421 C413 1.427 . S
N421 C419 1.384 . S
H422 C428 0.930 . S
H423 C432 0.930 . S
H424 C437 0.929 . S
H425 C435 0.929 . S
H426 C430 0.929 . S
H427 C436 0.929 . S
C428 H422 0.930 . S
C428 C429 1.367 . S
C428 C436 1.378 . S
C429 C428 1.367 . S
C429 C437 1.433 . S
C430 H426 0.929 . S
C430 C432 1.378 . S
C430 C434 1.350 . S
C431 C434 1.463 . S
C431 C436 1.350 . S
C431 N439 1.427 . S
C432 H423 0.930 . S
C432 C430 1.378 . S
C432 C433 1.367 . S
C433 C432 1.367 . S
C433 C435 1.433 . S
C434 C430 1.350 . S
C434 C431 1.463 . S
C434 N438 1.427 . S
C435 H425 0.929 . S
C435 C433 1.433 . S
C435 N438 1.384 . S
C436 H427 0.929 . S
C436 C428 1.378 . S
C436 C431 1.350 . S
C437 H424 0.929 . S
C437 C429 1.433 . S
C437 N439 1.384 . S
N438 C434 1.427 . S
N438 C435 1.384 . S
N439 C431 1.427 . S
N439 C437 1.384 . S
H440 C446 0.930 . S
H441 C450 0.930 1_655 S
H442 C455 0.929 . S
H443 C453 0.929 . S
H444 C448 0.916 1_655 S
H445 C454 0.929 . S
C446 H440 0.930 . S
C446 C447 1.367 . S
C446 C454 1.378 . S
C447 C446 1.367 . S
C447 C455 1.433 1_456 S
C448 H444 0.916 1_455 S
C448 C450 1.379 . S
C448 C452 1.362 . S
C449 C452 1.463 . S
C449 C454 1.350 . S
C449 N457 1.427 1_455 S
C450 H441 0.930 1_455 S
C450 C448 1.379 . S
C450 C451 1.367 . S
C451 C450 1.367 . S
C451 C453 1.433 . S
C452 C448 1.362 . S
C452 C449 1.463 . S
C452 N456 1.427 . S
C453 H443 0.929 . S
C453 C451 1.433 . S
C453 N456 1.384 . S
C454 H445 0.929 . S
C454 C446 1.378 . S
C454 C449 1.350 . S
C455 H442 0.929 . S
C455 C447 1.433 1_654 S
C455 N457 1.384 1_554 S
N456 C452 1.427 . S
N456 C453 1.384 . S
N457 C449 1.427 1_655 S
N457 C455 1.384 1_556 S
H458 C464 0.930 . S
H459 C468 0.930 1_565 S
H460 C473 0.929 . S
H461 C471 0.929 . S
H462 C466 0.929 1_565 S
H463 C472 0.929 . S
C464 H458 0.930 . S
C464 C465 1.367 . S
C464 C472 1.378 1_554 S
C465 C464 1.367 . S
C465 C473 1.433 1_554 S
C466 H462 0.929 1_545 S
C466 C468 1.378 . S
C466 C470 1.350 . S
C467 C470 1.463 . S
C467 C472 1.350 . S
C467 N475 1.427 . S
C468 H459 0.930 1_545 S
C468 C466 1.378 . S
C468 C469 1.367 . S
C469 C468 1.367 . S
C469 C471 1.433 . S
C470 C466 1.350 . S
C470 C467 1.463 . S
C470 N474 1.427 . S
C471 H461 0.929 . S
C471 C469 1.433 . S
C471 N474 1.384 . S
C472 H463 0.929 . S
C472 C464 1.378 1_556 S
C472 C467 1.350 . S
C473 H460 0.929 . S
C473 C465 1.433 1_556 S
C473 N475 1.384 . S
N474 C470 1.427 . S
N474 C471 1.384 . S
N475 C467 1.427 . S
N475 C473 1.384 . S
H476 C482 0.930 . S
H477 C486 0.930 . S
H478 C491 0.929 1_554 S
H479 C489 0.929 . S
H480 C484 0.929 . S
H481 C490 0.929 . S
C482 H476 0.930 . S
C482 C483 1.367 1_556 S
C482 C490 1.378 . S
C483 C482 1.367 1_554 S
C483 C491 1.433 1_554 S
C484 H480 0.929 . S
C484 C486 1.378 . S
C484 C488 1.350 . S
C485 C488 1.463 . S
C485 C490 1.350 . S
C485 N493 1.427 . S
C486 H477 0.930 . S
C486 C484 1.378 . S
C486 C487 1.367 . S
C487 C486 1.367 . S
C487 C489 1.433 . S
C488 C484 1.350 . S
C488 C485 1.463 . S
C488 N492 1.427 . S
C489 H479 0.929 . S
C489 C487 1.433 . S
C489 N492 1.384 . S
C490 H481 0.929 . S
C490 C482 1.378 . S
C490 C485 1.350 . S
C491 H478 0.929 1_556 S
C491 C483 1.433 1_556 S
C491 N493 1.384 . S
N492 C488 1.427 . S
N492 C489 1.384 . S
N493 C485 1.427 . S
N493 C491 1.384 . S
H494 C500 0.930 . S
H495 C504 0.930 . S
H496 C509 0.929 . S
H497 C507 0.929 . S
H498 C502 0.929 . S
H499 C508 0.929 . S
C500 H494 0.930 . S
C500 C501 1.367 . S
C500 C508 1.378 . S
C501 C500 1.367 . S
C501 C509 1.433 . S
C502 H498 0.929 . S
C502 C504 1.378 . S
C502 C506 1.350 . S
C503 C506 1.463 . S
C503 C508 1.350 . S
C503 N511 1.427 . S
C504 H495 0.930 . S
C504 C502 1.378 . S
C504 C505 1.367 . S
C505 C504 1.367 . S
C505 C507 1.433 . S
C506 C502 1.350 . S
C506 C503 1.463 . S
C506 N510 1.427 . S
C507 H497 0.929 . S
C507 C505 1.433 . S
C507 N510 1.384 . S
C508 H499 0.929 . S
C508 C500 1.378 . S
C508 C503 1.350 . S
C509 H496 0.929 . S
C509 C501 1.433 . S
C509 N511 1.384 . S
N510 C506 1.427 . S
N510 C507 1.384 . S
N511 C503 1.427 . S
N511 C509 1.384 . S
H512 C518 0.930 . S
H513 C522 0.930 . S
H514 C527 0.929 . S
H515 C525 0.929 . S
H516 C520 0.929 . S
H517 C526 0.929 . S
C518 H512 0.930 . S
C518 C519 1.367 1_455 S
C518 C526 1.378 . S
C519 C518 1.367 1_655 S
C519 C527 1.433 . S
C520 H516 0.929 . S
C520 C522 1.378 . S
C520 C524 1.350 . S
C521 C524 1.463 . S
C521 C526 1.350 1_655 S
C521 N529 1.427 . S
C522 H513 0.930 . S
C522 C520 1.378 . S
C522 C523 1.367 . S
C523 C522 1.367 . S
C523 C525 1.433 1_655 S
C524 C520 1.350 . S
C524 C521 1.463 . S
C524 N528 1.427 1_655 S
C525 H515 0.929 . S
C525 C523 1.433 1_455 S
C525 N528 1.384 . S
C526 H517 0.929 . S
C526 C518 1.378 . S
C526 C521 1.350 1_455 S
C527 H514 0.929 . S
C527 C519 1.433 . S
C527 N529 1.384 . S
N528 C524 1.427 1_455 S
N528 C525 1.384 . S
N529 C521 1.427 . S
N529 C527 1.384 . S
H530 C536 0.930 . S
H531 C540 0.930 . S
H532 C545 0.929 . S
H533 C543 0.929 . S
H534 C538 0.929 . S
H535 C544 0.929 . S
C536 H530 0.930 . S
C536 C537 1.367 . S
C536 C544 1.378 . S
C537 C536 1.367 . S
C537 C545 1.433 . S
C538 H534 0.929 . S
C538 C540 1.378 . S
C538 C542 1.350 . S
C539 C542 1.463 . S
C539 C544 1.350 . S
C539 N547 1.427 . S
C540 H531 0.930 . S
C540 C538 1.378 . S
C540 C541 1.367 . S
C541 C540 1.367 . S
C541 C543 1.433 . S
C542 C538 1.350 . S
C542 C539 1.463 . S
C542 N546 1.427 . S
C543 H533 0.929 . S
C543 C541 1.433 . S
C543 N546 1.384 . S
C544 H535 0.929 . S
C544 C536 1.378 . S
C544 C539 1.350 . S
C545 H532 0.929 . S
C545 C537 1.433 . S
C545 N547 1.384 . S
N546 C542 1.427 . S
N546 C543 1.384 . S
N547 C539 1.427 . S
N547 C545 1.384 . S
H548 C554 0.930 . S
H549 C558 0.930 . S
H550 C563 0.929 . S
H551 C561 0.929 . S
H552 C556 0.929 . S
H553 C562 0.929 . S
C554 H548 0.930 . S
C554 C555 1.367 . S
C554 C562 1.378 . S
C555 C554 1.367 . S
C555 C563 1.433 . S
C556 H552 0.929 . S
C556 C558 1.378 . S
C556 C560 1.350 . S
C557 C560 1.463 . S
C557 C562 1.350 . S
C557 N565 1.427 . S
C558 H549 0.930 . S
C558 C556 1.378 . S
C558 C559 1.367 . S
C559 C558 1.367 . S
C559 C561 1.433 . S
C560 C556 1.350 . S
C560 C557 1.463 . S
C560 N564 1.427 . S
C561 H551 0.929 . S
C561 C559 1.433 . S
C561 N564 1.384 . S
C562 H553 0.929 . S
C562 C554 1.378 . S
C562 C557 1.350 . S
C563 H550 0.929 . S
C563 C555 1.433 . S
C563 N565 1.384 . S
N564 C560 1.427 . S
N564 C561 1.384 . S
N565 C557 1.427 . S
N565 C563 1.384 . S
H566 C572 0.930 . S
H567 C576 0.930 . S
H568 C581 0.929 . S
H569 C579 0.929 . S
H570 C574 0.929 . S
H571 C580 0.929 . S
C572 H566 0.930 . S
C572 C573 1.367 . S
C572 C580 1.378 . S
C573 C572 1.367 . S
C573 C581 1.433 . S
C574 H570 0.929 . S
C574 C576 1.378 . S
C574 C578 1.350 . S
C575 C578 1.463 . S
C575 C580 1.350 . S
C575 N583 1.427 . S
C576 H567 0.930 . S
C576 C574 1.378 . S
C576 C577 1.367 . S
C577 C576 1.367 . S
C577 C579 1.433 . S
C578 C574 1.350 . S
C578 C575 1.463 . S
C578 N582 1.427 . S
C579 H569 0.929 . S
C579 C577 1.433 . S
C579 N582 1.384 . S
C580 H571 0.929 . S
C580 C572 1.378 . S
C580 C575 1.350 . S
C581 H568 0.929 . S
C581 C573 1.433 . S
C581 N583 1.384 . S
N582 C578 1.427 . S
N582 C579 1.384 . S
N583 C575 1.427 . S
N583 C581 1.384 . S
C159 C61 1.375 . S
C163 C90 1.378 . S
C181 C110 1.269 . S
C177 C70 1.283 . S
C199 C130 1.494 . S
C195 C43 1.490 . S
C217 C150 1.374 1_455 S
C213 C52 1.378 . S
C235 C91 1.424 1_565 S
C231 C25 1.410 1_556 S
C249 C34 1.328 1_556 S
C253 C111 1.319 . S
C267 C7 1.452 1_556 S
C271 C131 1.465 . S
C285 C16 1.397 1_556 S
C289 C151 1.393 . S
C307 C81 0.753 . S
C303 C50 0.764 . S
C325 C101 0.797 1_565 S
C321 C59 0.796 . S
C343 C121 0.748 . S
C339 C67 0.750 . S
C357 C41 0.805 . S
C361 C141 0.804 . S
C375 C14 0.691 . S
C379 C84 0.692 . S
C397 C104 0.764 1_545 S
C393 C23 0.767 . S
C415 C124 0.744 . S
C411 C31 0.732 . S
C429 C5 0.735 . S
C433 C144 0.747 . S
C447 C49 1.502 1_556 S
C451 C74 1.466 . S
C465 C58 1.471 . S
C469 C94 1.431 . S
C487 C114 1.454 . S
C483 C68 1.493 . S
C505 C134 1.559 . S
C501 C40 1.585 1_556 S
C519 C13 1.533 . S
C523 C76 1.507 . S
C541 C96 1.531 . S
C537 C22 1.569 . S
C559 C116 1.453 . S
C555 C32 1.495 . S
C573 C4 1.528 . S
C577 C136 1.494 . S
