# Generated by pormake.
# Topology rtl, (3,6)-cn, num edge types: 1
# Building blocks:
#     Node 0, Type 0, BuildingBlock: CUQRIR_clean_linker_1, # of connection points: 3
#     Node 1, Type 0, BuildingBlock: CUQRIR_clean_linker_1, # of connection points: 3
#     Node 2, Type 0, BuildingBlock: CUQRIR_clean_linker_1, # of connection points: 3
#     Node 3, Type 0, BuildingBlock: CUQRIR_clean_linker_1, # of connection points: 3
#     Node 4, Type 1, BuildingBlock: CIFDUS_clean_sbu_1, # of connection points: 6
#     Node 5, Type 1, BuildingBlock: CIFDUS_clean_sbu_1, # of connection points: 6
#     Edge 6, Type (0, 1), BuildingBlock: TEMPAE_clean_linker_10, # of connection points: 2
#     Edge 7, Type (0, 1), BuildingBlock: TEMPAE_clean_linker_10, # of connection points: 2
#     Edge 8, Type (0, 1), BuildingBlock: TEMPAE_clean_linker_10, # of connection points: 2
#     Edge 9, Type (0, 1), BuildingBlock: TEMPAE_clean_linker_10, # of connection points: 2
#     Edge 10, Type (0, 1), BuildingBlock: TEMPAE_clean_linker_10, # of connection points: 2
#     Edge 11, Type (0, 1), BuildingBlock: TEMPAE_clean_linker_10, # of connection points: 2
#     Edge 12, Type (0, 1), BuildingBlock: TEMPAE_clean_linker_10, # of connection points: 2
#     Edge 13, Type (0, 1), BuildingBlock: TEMPAE_clean_linker_10, # of connection points: 2
#     Edge 14, Type (0, 1), BuildingBlock: TEMPAE_clean_linker_10, # of connection points: 2
#     Edge 15, Type (0, 1), BuildingBlock: TEMPAE_clean_linker_10, # of connection points: 2
#     Edge 16, Type (0, 1), BuildingBlock: TEMPAE_clean_linker_10, # of connection points: 2
#     Edge 17, Type (0, 1), BuildingBlock: TEMPAE_clean_linker_10, # of connection points: 2
# Relax obj value: 0.023
# Max RMSD: 0.122
# Mean RMSD: 0.101
data_MOF--net-rtl--node1-CIFDUS_clean_sbu_1--node2-CUQRIR_clean_linker_1--edge1-TEMPAE_clean_linker_10
_symmetry_space_group_name_H-M    P1
_symmetry_Int_Tables_number       1
_symmetry_cell_setting            triclinic
loop_
_symmetry_equiv_pos_as_xyz
'x, y, z'
_cell_length_a     33.638277
_cell_length_b     33.641732
_cell_length_c     20.012756
_cell_angle_alpha  90.205064
_cell_angle_beta   97.48334
_cell_angle_gamma 89.814393
loop_
_atom_site_label
_atom_site_type_symbol
_atom_site_fract_x
_atom_site_fract_y
_atom_site_fract_z
_atom_type_partial_charge
C0 C 0.2288 0.80124 0.05802 0.0
N1 N 0.20211 0.82947 0.07121 0.0
N2 N 0.25142 0.78929 0.11558 0.0
C3 C 0.2351 0.78796 0.98817 0.0
C4 C 0.23786 0.81194 0.16411 0.0
N5 N 0.20824 0.83663 0.13701 0.0
C6 C 0.25168 0.80834 0.23839 0.0
H7 H 0.21487 0.76265 0.97271 0.0
H8 H 0.26652 0.77826 0.98669 0.0
H9 H 0.22788 0.81233 0.9513 0.0
H10 H 0.27707 0.82903 0.25217 0.0
H11 H 0.262 0.77766 0.25146 0.0
H12 H 0.22739 0.81651 0.26846 0.0
C13 C 0.72048 0.72943 0.6604 0.0
N14 N 0.6914 0.7039 0.63373 0.0
N15 N 0.7367 0.74842 0.61111 0.0
C16 C 0.73496 0.73428 0.73422 0.0
C17 C 0.71693 0.73351 0.55342 0.0
N18 N 0.68954 0.70641 0.56705 0.0
C19 C 0.72398 0.74555 0.48364 0.0
H20 H 0.71767 0.75849 0.7549 0.0
H21 H 0.76712 0.7426 0.74214 0.0
H22 H 0.73073 0.70647 0.76207 0.0
H23 H 0.74031 0.72128 0.46107 0.0
H24 H 0.74186 0.77323 0.48425 0.0
H25 H 0.69486 0.74978 0.45133 0.0
C26 C 0.79992 0.23379 0.06915 0.0
N27 N 0.82517 0.20385 0.05715 0.0
N28 N 0.77623 0.24417 1.01156 0.0
C29 C 0.79733 0.25207 0.13735 0.0
C30 C 0.78799 0.21926 0.96438 0.0
N31 N 0.8174 0.19462 0.99222 0.0
C32 C 0.77095 0.21905 0.89105 0.0
H33 H 0.77532 0.23509 0.16256 0.0
H34 H 0.78727 0.28347 0.13242 0.0
H35 H 0.82632 0.25113 0.17041 0.0
H36 H 0.78923 0.23894 0.86322 0.0
H37 H 0.73949 0.22982 0.88403 0.0
H38 H 0.77195 0.18888 0.86895 0.0
C39 C 0.27361 0.31185 0.45921 0.0
N40 N 0.30512 0.33538 0.4829 0.0
N41 N 0.25863 0.29349 0.51058 0.0
C42 C 0.25799 0.30597 0.38583 0.0
C43 C 0.28169 0.30706 0.56644 0.0
N44 N 0.30976 0.33258 0.54975 0.0
C45 C 0.27752 0.29449 0.6373 0.0
H46 H 0.22518 0.30139 0.37829 0.0
H47 H 0.27213 0.27904 0.36701 0.0
H48 H 0.26495 0.33194 0.35543 0.0
H49 H 0.29917 0.27013 0.65208 0.0
H50 H 0.24679 0.28359 0.64105 0.0
H51 H 0.28454 0.3194 0.67328 0.0
O52 O 0.98158 0.05114 0.49039 0.0
Mn53 Mn 0.00794 0.01222 0.5644 0.0
O54 O 0.97385 0.0096 0.4029 0.0
Mn55 Mn 0.98074 0.96433 0.45533 0.0
O56 O 0.03211 0.97007 0.63773 0.0
O57 O 0.04833 0.05868 0.59218 0.0
Mn58 Mn 0.05789 0.04327 0.678 0.0
O59 O 0.96902 0.03359 0.6301 0.0
O60 O 0.08703 0.99753 0.68788 0.0
O61 O 0.05108 0.9941 0.50088 0.0
O62 O 0.02824 0.9381 0.45681 0.0
O63 O 0.08747 0.08648 0.68013 0.0
O64 O 0.01275 0.04655 0.72155 0.0
C65 C 0.93811 0.94167 0.50654 0.0
C66 C 0.97268 0.04435 0.42724 0.0
C67 C 0.06599 0.96714 0.67484 0.0
C68 C 0.074 0.08653 0.61635 0.0
C69 C 0.977 0.04387 0.69229 0.0
C70 C 0.05696 0.9615 0.47039 0.0
O71 O 0.96362 0.96833 0.53644 0.0
O72 O 0.93983 0.93204 0.44415 0.0
O73 O 0.53108 0.55209 0.13343 0.0
Mn74 Mn 0.50812 0.51106 0.05807 0.0
O75 O 0.57336 0.51691 0.20608 0.0
Mn76 Mn 0.56176 0.4697 0.16288 0.0
O77 O 0.48676 0.46902 0.98242 0.0
O78 O 0.46021 0.55063 0.04127 0.0
Mn79 Mn 0.44488 0.53881 0.95543 0.0
O80 O 0.53713 0.54105 0.98661 0.0
O81 O 0.42554 0.48828 0.94477 0.0
O82 O 0.47566 0.48184 0.12828 0.0
O83 O 0.51971 0.44307 0.18971 0.0
O84 O 0.40913 0.57574 0.97105 0.0
O85 O 0.48563 0.55323 0.90611 0.0
C86 C 0.58991 0.45014 0.08498 0.0
C87 C 0.55595 0.54917 0.18768 0.0
C88 C 0.45233 0.46201 0.94905 0.0
C89 C 0.42985 0.5756 0.03042 0.0
C90 C 0.52303 0.55408 0.92776 0.0
C91 C 0.48432 0.45572 0.17481 0.0
O92 O 0.55825 0.47373 0.07396 0.0
O93 O 0.60296 0.44012 0.14655 0.0
C94 C 0.18895 0.27099 0.47956 0.0
C95 C 0.2286 0.26289 0.50665 0.0
C96 C 0.15901 0.24192 0.47928 0.0
C97 C 0.16874 0.20454 0.50959 0.0
C98 C 0.20919 0.19594 0.53513 0.0
C99 C 0.23865 0.22514 0.53267 0.0
C100 C 0.11665 0.25204 0.44973 0.0
C101 C 0.22097 0.15697 0.56942 0.0
C102 C 0.09542 0.15593 0.61075 0.0
C103 C 0.08742 0.11975 0.57662 0.0
C104 C 0.12031 0.18449 0.58761 0.0
C105 C 0.13634 0.1777 0.5267 0.0
C106 C 0.12459 0.14332 0.48764 0.0
C107 C 0.10057 0.1142 0.51363 0.0
C108 C 0.13242 0.22008 0.632 0.0
C109 C 0.13938 0.13614 0.4207 0.0
H110 H 0.18118 0.30047 0.46043 0.0
H111 H 0.26948 0.21907 0.55324 0.0
H112 H 0.10195 0.22614 0.42239 0.0
H113 H 0.0989 0.26007 0.49078 0.0
H114 H 0.11577 0.27764 0.41463 0.0
H115 H 0.25398 0.15387 0.58212 0.0
H116 H 0.2071 0.1548 0.61665 0.0
H117 H 0.20972 0.13168 0.53672 0.0
H118 H 0.08477 0.16055 0.65909 0.0
H119 H 0.09451 0.0863 0.48706 0.0
H120 H 0.12621 0.24805 0.60344 0.0
H121 H 0.16516 0.21895 0.64911 0.0
H122 H 0.11648 0.22129 0.67721 0.0
H123 H 0.13917 0.16418 0.39155 0.0
H124 H 0.12084 0.11366 0.39021 0.0
H125 H 0.17074 0.12513 0.42914 0.0
C126 C 0.31886 0.7642 0.16042 0.0
C127 C 0.28117 0.75805 0.12301 0.0
C128 C 0.34877 0.73466 0.16404 0.0
C129 C 0.34134 0.69891 0.12692 0.0
C130 C 0.3028 0.69224 0.09067 0.0
C131 C 0.27303 0.72151 0.09055 0.0
C132 C 0.38871 0.74243 0.20561 0.0
C133 C 0.29355 0.65517 0.04875 0.0
C134 C 0.42246 0.64694 0.04586 0.0
C135 C 0.42245 0.60907 0.07485 0.0
C136 C 0.39807 0.67752 0.06541 0.0
C137 C 0.37467 0.67073 0.11809 0.0
C138 C 0.37905 0.63434 0.15407 0.0
C139 C 0.40223 0.60336 0.13091 0.0
C140 C 0.39352 0.71502 0.02365 0.0
C141 C 0.35655 0.62686 0.21319 0.0
H142 H 0.32528 0.79249 0.18541 0.0
H143 H 0.24354 0.71638 0.06317 0.0
H144 H 0.40056 0.71501 0.23185 0.0
H145 H 0.41069 0.75209 0.17229 0.0
H146 H 0.38646 0.76619 0.24363 0.0
H147 H 0.26207 0.65462 0.02372 0.0
H148 H 0.31385 0.65326 1.00934 0.0
H149 H 0.29879 0.62836 0.0807 0.0
H150 H 0.43776 0.65114 1.0019 0.0
H151 H 0.40168 0.57399 0.15289 0.0
H152 H 0.397 0.74173 0.05635 0.0
H153 H 0.36296 0.7161 0.99501 0.0
H154 H 0.4157 0.71663 0.98718 0.0
H155 H 0.35525 0.65419 0.2441 0.0
H156 H 0.37068 0.60261 0.24563 0.0
H157 H 0.32532 0.61797 0.19468 0.0
C158 C 0.75668 0.81826 0.62622 0.0
C159 C 0.76713 0.77848 0.61809 0.0
C160 C 0.78514 0.84859 0.62426 0.0
C161 C 0.82486 0.83865 0.61369 0.0
C162 C 0.83595 0.79802 0.61024 0.0
C163 C 0.80677 0.7684 0.61197 0.0
C164 C 0.7718 0.8913 0.62791 0.0
C165 C 0.87775 0.78585 0.59878 0.0
C166 C 0.8745 0.90433 0.49663 0.0
C167 C 0.90636 0.92162 0.53929 0.0
C168 C 0.84769 0.87814 0.52078 0.0
C169 C 0.85146 0.86974 0.5904 0.0
C170 C 0.88157 0.88929 0.63507 0.0
C171 C 0.9091 0.91489 0.60889 0.0
C172 C 0.81657 0.85783 0.47073 0.0
C173 C 0.88549 0.88198 0.70989 0.0
H174 H 0.72576 0.82561 0.63087 0.0
H175 H 0.81441 0.7374 0.60582 0.0
H176 H 0.79491 0.90926 0.65899 0.0
H177 H 0.76757 0.90416 0.57648 0.0
H178 H 0.743 0.89397 0.64919 0.0
H179 H 0.88325 0.75365 0.60818 0.0
H180 H 0.88199 0.79227 0.54582 0.0
H181 H 0.90049 0.8031 0.6319 0.0
H182 H 0.87139 0.90991 0.44287 0.0
H183 H 0.93347 0.92817 0.64226 0.0
H184 H 0.78608 0.86341 0.48411 0.0
H185 H 0.82159 0.8252 0.47216 0.0
H186 H 0.81741 0.86809 0.41824 0.0
H187 H 0.85604 0.88616 0.72836 0.0
H188 H 0.90773 0.90211 0.73846 0.0
H189 H 0.89492 0.85078 0.72068 0.0
C190 C 0.71645 0.27684 0.04634 0.0
C191 C 0.74572 0.2747 1.00276 0.0
C192 C 0.68906 0.30855 0.04291 0.0
C193 C 0.68943 0.33779 0.99203 0.0
C194 C 0.71705 0.33402 0.94462 0.0
C195 C 0.74559 0.30318 0.95176 0.0
C196 C 0.66103 0.31165 0.09588 0.0
C197 C 0.71731 0.36306 0.88743 0.0
C198 C 0.59722 0.40338 0.99098 0.0
C199 C 0.61305 0.43434 0.03317 0.0
C200 C 0.62261 0.37368 0.96983 0.0
C201 C 0.66419 0.3743 0.99415 0.0
C202 C 0.68052 0.40789 0.03052 0.0
C203 C 0.65481 0.43806 0.04753 0.0
C204 C 0.60432 0.33982 0.92695 0.0
C205 C 0.72425 0.40957 0.05978 0.0
H206 H 0.71578 0.25419 0.08448 0.0
H207 H 0.7683 0.30174 0.91812 0.0
H208 H 0.66555 0.34047 0.12295 0.0
H209 H 0.62947 0.31073 0.07178 0.0
H210 H 0.66569 0.28726 0.1334 0.0
H211 H 0.73212 0.35016 0.8458 0.0
H212 H 0.68635 0.37219 0.86717 0.0
H213 H 0.73408 0.39012 0.90575 0.0
H214 H 0.56496 0.40005 0.98029 0.0
H215 H 0.66699 0.46182 0.08082 0.0
H216 H 0.59711 0.31513 0.95987 0.0
H217 H 0.62541 0.32833 0.89311 0.0
H218 H 0.57605 0.34921 0.89599 0.0
H219 H 0.73058 0.38611 0.09866 0.0
H220 H 0.7326 0.43878 0.08352 0.0
H221 H 0.74378 0.40375 1.02037 0.0
C222 C 0.2026 0.89873 0.19951 0.0
C223 C 0.18549 0.86308 0.17393 0.0
C224 C 0.18464 0.92125 0.24678 0.0
C225 C 0.14913 0.90723 0.26966 0.0
C226 C 0.13103 0.87179 0.24176 0.0
C227 C 0.14943 0.85022 0.1939 0.0
C228 C 0.20472 0.95891 0.27467 0.0
C229 C 0.09329 0.85561 0.26482 0.0
C230 C 0.12 0.93047 0.44288 0.0
C231 C 0.0888 0.95775 0.42689 0.0
C232 C 0.14216 0.91611 0.39282 0.0
C233 C 0.13172 0.92827 0.32496 0.0
C234 C 0.10167 0.95757 0.3095 0.0
C235 C 0.08085 0.97224 0.36087 0.0
C236 C 0.17464 0.88561 0.41169 0.0
C237 C 0.08899 0.9708 0.23786 0.0
H238 H 0.23088 0.90803 0.18426 0.0
H239 H 0.13692 0.82217 0.17459 0.0
H240 H 0.18277 0.98372 0.27187 0.0
H241 H 0.2164 0.95462 0.32861 0.0
H242 H 0.23 0.96761 0.24724 0.0
H243 H 0.08183 0.82903 0.23541 0.0
H244 H 0.09933 0.84726 0.31878 0.0
H245 H 0.06952 0.87874 0.26021 0.0
H246 H 0.12541 0.91854 0.49353 0.0
H247 H 0.05583 0.99246 0.34819 0.0
H248 H 0.20194 0.89314 0.38872 0.0
H249 H 0.16423 0.85606 0.39187 0.0
H250 H 0.18274 0.88331 0.46715 0.0
H251 H 0.11552 0.97825 0.21281 0.0
H252 H 0.06865 0.997 0.23524 0.0
H253 H 0.07307 0.94609 0.20889 0.0
C254 C 0.64748 0.69757 0.72203 0.0
C255 C 0.66613 0.68004 0.67067 0.0
C256 C 0.62659 0.67466 0.76421 0.0
C257 C 0.6228 0.63318 0.75318 0.0
C258 C 0.64022 0.6154 0.69951 0.0
C259 C 0.66213 0.63902 0.65928 0.0
C260 C 0.60872 0.69493 0.82085 0.0
C261 C 0.6359 0.57147 0.68495 0.0
C262 C 0.5917 0.57345 0.89974 0.0
C263 C 0.54993 0.57184 0.88238 0.0
C264 C 0.61618 0.59191 0.85685 0.0
C265 C 0.59844 0.60929 0.79557 0.0
C266 C 0.55654 0.60675 0.77717 0.0
C267 C 0.53296 0.58815 0.8205 0.0
C268 C 0.66087 0.59385 0.87787 0.0
C269 C 0.53627 0.62484 0.71248 0.0
H270 H 0.64991 0.72939 0.72983 0.0
H271 H 0.67688 0.62532 0.62007 0.0
H272 H 0.57563 0.69172 0.81308 0.0
H273 H 0.6199 0.6806 0.86957 0.0
H274 H 0.6161 0.7271 0.82463 0.0
H275 H 0.65031 0.56239 0.64037 0.0
H276 H 0.64958 0.55424 0.72929 0.0
H277 H 0.6037 0.56335 0.67587 0.0
H278 H 0.60521 0.56077 0.94706 0.0
H279 H 0.5008 0.58711 0.80597 0.0
H280 H 0.67008 0.62527 0.88682 0.0
H281 H 0.67704 0.58227 0.83695 0.0
H282 H 0.67041 0.57659 0.92446 0.0
H283 H 0.53961 0.65764 0.71464 0.0
H284 H 0.50379 0.61774 0.70312 0.0
H285 H 0.55072 0.61408 0.66901 0.0
C286 C 0.88342 0.20213 0.14541 0.0
C287 C 0.85187 0.18245 0.10649 0.0
C288 C 0.90613 0.18311 0.19999 0.0
C289 C 0.89772 0.14309 0.21443 0.0
C290 C 0.86727 0.1224 0.1726 0.0
C291 C 0.84456 0.14248 0.11919 0.0
C292 C 0.93826 0.20615 0.24332 0.0
C293 C 0.85797 0.07942 0.18536 0.0
C294 C 0.97409 0.07768 0.31798 0.0
C295 C 0.95881 0.07624 0.37975 0.0
C296 C 0.95565 0.10092 0.26477 0.0
C297 C 0.92062 0.12271 0.27325 0.0
C298 C 0.90613 0.12286 0.33676 0.0
C299 C 0.92568 0.09976 0.38971 0.0
C300 C 0.97233 0.10017 0.19828 0.0
C301 C 0.86861 0.14544 0.34744 0.0
H302 H 0.88933 0.23289 0.13427 0.0
H303 H 0.82017 0.12744 0.08854 0.0
H304 H 0.93076 0.20812 0.29561 0.0
H305 H 0.96746 0.19045 0.2456 0.0
H306 H 0.94172 0.23675 0.22426 0.0
H307 H 0.83449 0.06725 0.14656 0.0
H308 H 0.88545 0.06101 0.18605 0.0
H309 H 0.84759 0.07652 0.23551 0.0
H310 H 0.99961 0.05917 0.31043 0.0
H311 H 0.91348 0.09796 0.43715 0.0
H312 H 0.97564 0.13084 0.17965 0.0
H313 H 0.95118 0.08434 0.16011 0.0
H314 H 0.00192 0.08499 0.20211 0.0
H315 H 0.87076 0.17678 0.33127 0.0
H316 H 0.863 0.14501 0.40093 0.0
H317 H 0.84239 0.13209 0.31599 0.0
C318 C 0.32686 0.38523 0.63274 0.0
C319 C 0.33894 0.35268 0.59676 0.0
C320 C 0.35151 0.40036 0.68891 0.0
C321 C 0.38925 0.38232 0.70958 0.0
C322 C 0.40233 0.35043 0.67133 0.0
C323 C 0.37682 0.33583 0.6153 0.0
C324 C 0.33628 0.43447 0.72789 0.0
C325 C 0.44228 0.33049 0.69166 0.0
C326 C 0.45842 0.44544 0.83137 0.0
C327 C 0.44794 0.43302 0.89356 0.0
C328 C 0.4413 0.4277 0.77084 0.0
C329 C 0.41385 0.39606 0.77285 0.0
C330 C 0.40613 0.38105 0.83607 0.0
C331 C 0.42265 0.4003 0.89577 0.0
C332 C 0.4495 0.44545 0.70481 0.0
C333 C 0.37775 0.3468 0.8405 0.0
H334 H 0.29714 0.3975 0.61854 0.0
H335 H 0.38556 0.31013 0.58779 0.0
H336 H 0.33166 0.42428 0.77897 0.0
H337 H 0.35872 0.45873 0.73426 0.0
H338 H 0.30747 0.44669 0.70265 0.0
H339 H 0.44957 0.30851 0.65348 0.0
H340 H 0.46656 0.35292 0.69929 0.0
H341 H 0.44182 0.31496 0.74038 0.0
H342 H 0.47696 0.47167 0.82964 0.0
H343 H 0.41371 0.39146 0.94368 0.0
H344 H 0.42249 0.4618 0.68161 0.0
H345 H 0.45585 0.42181 0.66891 0.0
H346 H 0.47512 0.46648 0.71157 0.0
H347 H 0.34652 0.35685 0.82452 0.0
H348 H 0.37963 0.33496 0.89257 0.0
H349 H 0.38429 0.32238 0.80613 0.0
C350 C 0.62469 0.69758 0.49655 0.0
C351 C 0.66376 0.68438 0.51753 0.0
C352 C 0.60153 0.68014 0.44055 0.0
C353 C 0.61799 0.64869 0.40557 0.0
C354 C 0.65729 0.63481 0.42797 0.0
C355 C 0.6798 0.65317 0.48335 0.0
C356 C 0.55996 0.69592 0.41771 0.0
C357 C 0.67579 0.60088 0.39303 0.0
C358 C 0.55437 0.57234 0.30327 0.0
C359 C 0.56145 0.58145 0.23757 0.0
C360 C 0.57057 0.59547 0.35823 0.0
C361 C 0.59398 0.62901 0.34704 0.0
C362 C 0.59822 0.64044 0.28007 0.0
C363 C 0.58206 0.61619 0.22572 0.0
C364 C 0.56579 0.58169 0.42851 0.0
C365 C 0.62244 0.67645 0.26628 0.0
H366 H 0.61298 0.72243 0.5226 0.0
H367 H 0.71038 0.64377 0.49956 0.0
H368 H 0.55836 0.7073 0.36545 0.0
H369 H 0.53764 0.67166 0.41697 0.0
H370 H 0.55138 0.72022 0.45078 0.0
H371 H 0.70639 0.59331 0.41766 0.0
H372 H 0.65667 0.57405 0.39285 0.0
H373 H 0.67761 0.60874 0.33974 0.0
H374 H 0.53865 0.54513 0.31215 0.0
H375 H 0.58804 0.6228 0.17499 0.0
H376 H 0.55678 0.60677 0.45941 0.0
H377 H 0.59497 0.5703 0.45354 0.0
H378 H 0.54321 0.55764 0.4282 0.0
H379 H 0.61452 0.70217 0.29687 0.0
H380 H 0.61774 0.68481 0.21217 0.0
H381 H 0.65479 0.6701 0.2809 0.0
C382 C 0.87765 0.17746 0.94133 0.0
C383 C 0.83969 0.16704 0.9565 0.0
C384 C 0.89738 0.15384 0.89783 0.0
C385 C 0.8786 0.11888 0.86937 0.0
C386 C 0.84084 0.10749 0.88705 0.0
C387 C 0.8218 0.13183 0.93051 0.0
C388 C 0.93771 0.16696 0.88066 0.0
C389 C 0.82005 0.07032 0.85849 0.0
C390 C 0.91569 0.08352 0.70727 0.0
C391 C 0.94517 0.05601 0.73243 0.0
C392 C 0.8924 0.10312 0.75099 0.0
C393 C 0.89859 0.09451 0.82097 0.0
C394 C 0.92635 0.06464 0.84542 0.0
C395 C 0.9494 0.04594 0.80092 0.0
C396 C 0.86318 0.13495 0.72314 0.0
C397 C 0.93368 0.05423 0.91934 0.0
H398 H 0.89106 0.20494 0.96161 0.0
H399 H 0.79232 0.12416 0.94271 0.0
H400 H 0.96025 0.14307 0.89304 0.0
H401 H 0.93576 0.17259 0.82573 0.0
H402 H 0.94854 0.19441 0.90813 0.0
H403 H 0.79173 0.06466 0.87984 0.0
H404 H 0.81306 0.07302 0.80297 0.0
H405 H 0.84011 0.0442 0.86874 0.0
H406 H 0.91286 0.0918 0.65454 0.0
H407 H 0.9723 0.02468 0.82037 0.0
H408 H 0.8743 0.16445 0.74209 0.0
H409 H 0.83359 0.13032 0.74069 0.0
H410 H 0.85906 0.13554 0.66717 0.0
H411 H 0.94877 0.07944 0.94807 0.0
H412 H 0.95283 0.02735 0.92889 0.0
H413 H 0.90487 0.04904 0.93924 0.0
C414 C 0.33962 0.39622 0.4516 0.0
C415 C 0.33141 0.35561 0.44277 0.0
C416 C 0.36227 0.41646 0.40797 0.0
C417 C 0.37573 0.39575 0.3532 0.0
C418 C 0.36746 0.3547 0.34459 0.0
C419 C 0.3466 0.33501 0.39066 0.0
C420 C 0.37204 0.4598 0.42065 0.0
C421 C 0.38087 0.33137 0.28684 0.0
C422 C 0.41335 0.44802 0.20401 0.0
C423 C 0.45488 0.44251 0.21958 0.0
C424 C 0.38688 0.43421 0.24817 0.0
C425 C 0.40248 0.4152 0.30935 0.0
C426 C 0.44434 0.4112 0.32622 0.0
C427 C 0.46975 0.42456 0.28129 0.0
C428 C 0.34228 0.43876 0.2286 0.0
C429 C 0.46249 0.39169 0.39113 0.0
H430 H 0.32781 0.4122 0.4918 0.0
H431 H 0.34125 0.30338 0.38514 0.0
H432 H 0.405 0.46418 0.42657 0.0
H433 H 0.35905 0.47775 0.37674 0.0
H434 H 0.36039 0.47129 0.46648 0.0
H435 H 0.36827 0.30083 0.28321 0.0
H436 H 0.37156 0.34689 0.23847 0.0
H437 H 0.41405 0.3291 0.29345 0.0
H438 H 0.40158 0.46226 0.15704 0.0
H439 H 0.50177 0.42081 0.29514 0.0
H440 H 0.32874 0.454 0.26942 0.0
H441 H 0.32825 0.40895 0.22182 0.0
H442 H 0.33488 0.45587 0.18121 0.0
H443 H 0.45004 0.4051 0.43471 0.0
H444 H 0.49567 0.39443 0.39973 0.0
H445 H 0.45482 0.35963 0.38985 0.0
C446 C 0.14592 0.82335 0.98069 0.0
C447 C 0.17229 0.84756 0.02261 0.0
C448 C 0.12277 0.8388 0.92329 0.0
C449 C 0.12581 0.8796 0.90804 0.0
C450 C 0.15034 0.90477 0.9531 0.0
C451 C 0.17344 0.88834 1.00998 0.0
C452 C 0.09727 0.81093 0.87663 0.0
C453 C 0.15407 0.94857 0.93906 0.0
C454 C 0.11271 0.91629 0.72759 0.0
C455 C 0.07488 0.93423 0.72239 0.0
C456 C 0.12861 0.89627 0.78647 0.0
C457 C 0.10652 0.89522 0.84211 0.0
C458 C 0.06727 0.91137 0.83563 0.0
C459 C 0.05173 0.93043 0.7754 0.0
C460 C 0.17028 0.87881 0.79077 0.0
C461 C 0.04309 0.91152 0.8941 0.0
H462 H 0.14517 0.79179 0.99111 0.0
H463 H 0.19419 0.90681 0.04231 0.0
H464 H 0.06664 0.82327 0.86353 0.0
H465 H 0.11055 0.8076 0.82897 0.0
H466 H 0.09498 0.78101 0.89911 0.0
H467 H 0.17087 0.96467 0.98235 0.0
H468 H 0.17 0.95261 0.89438 0.0
H469 H 0.12395 0.96228 0.92725 0.0
H470 H 0.13094 0.92027 0.68724 0.0
H471 H 0.02305 0.94561 0.77223 0.0
H472 H 0.17068 0.84804 0.81063 0.0
H473 H 0.19123 0.89669 0.8262 0.0
H474 H 0.18157 0.8783 0.74101 0.0
H475 H 0.0431 0.88161 0.91721 0.0
H476 H 0.01157 0.92101 0.8787 0.0
H477 H 0.05699 0.9323 0.93354 0.0
loop_
_geom_bond_atom_site_label_1
_geom_bond_atom_site_label_2
_geom_bond_distance
_geom_bond_site_symmetry_2
_ccdc_geom_bond_type
C0 N1 1.317 . S
C0 N2 1.348 . S
C0 C3 1.485 1_554 S
N1 C0 1.317 . S
N1 N5 1.370 . S
N2 C0 1.348 . S
N2 C4 1.346 . S
C3 C0 1.485 1_556 S
C3 H7 0.960 . S
C3 H8 0.961 . S
C3 H9 0.960 . S
C4 N2 1.346 . S
C4 N5 1.307 . S
C4 C6 1.486 . S
N5 N1 1.370 . S
N5 C4 1.307 . S
C6 C4 1.486 . S
C6 H10 0.960 . S
C6 H11 0.960 . S
C6 H12 0.959 . S
H7 C3 0.960 . S
H8 C3 0.961 . S
H9 C3 0.960 . S
H10 C6 0.960 . S
H11 C6 0.960 . S
H12 C6 0.959 . S
C13 N14 1.317 . S
C13 N15 1.348 . S
C13 C16 1.485 . S
N14 C13 1.317 . S
N14 N18 1.370 . S
N15 C13 1.348 . S
N15 C17 1.346 . S
C16 C13 1.485 . S
C16 H20 0.960 . S
C16 H21 0.961 . S
C16 H22 0.960 . S
C17 N15 1.346 . S
C17 N18 1.307 . S
C17 C19 1.486 . S
N18 N14 1.370 . S
N18 C17 1.307 . S
C19 C17 1.486 . S
C19 H23 0.960 . S
C19 H24 0.960 . S
C19 H25 0.959 . S
H20 C16 0.960 . S
H21 C16 0.961 . S
H22 C16 0.960 . S
H23 C19 0.960 . S
H24 C19 0.960 . S
H25 C19 0.959 . S
C26 N27 1.317 . S
C26 N28 1.350 . S
C26 C29 1.485 . S
N27 C26 1.317 . S
N27 N31 1.370 1_554 S
N28 C26 1.350 . S
N28 C30 1.344 1_554 S
C29 C26 1.485 . S
C29 H33 0.960 . S
C29 H34 0.961 . S
C29 H35 0.960 . S
C30 N28 1.344 1_556 S
C30 N31 1.307 . S
C30 C32 1.486 . S
N31 N27 1.370 1_556 S
N31 C30 1.307 . S
C32 C30 1.486 . S
C32 H36 0.960 . S
C32 H37 0.960 . S
C32 H38 0.959 . S
H33 C29 0.960 . S
H34 C29 0.961 . S
H35 C29 0.960 . S
H36 C32 0.960 . S
H37 C32 0.960 . S
H38 C32 0.959 . S
C39 N40 1.317 . S
C39 N41 1.348 . S
C39 C42 1.485 . S
N40 C39 1.317 . S
N40 N44 1.370 . S
N41 C39 1.348 . S
N41 C43 1.346 . S
C42 C39 1.485 . S
C42 H46 0.960 . S
C42 H47 0.961 . S
C42 H48 0.960 . S
C43 N41 1.346 . S
C43 N44 1.307 . S
C43 C45 1.486 . S
N44 N40 1.370 . S
N44 C43 1.307 . S
C45 C43 1.486 . S
C45 H49 0.960 . S
C45 H50 0.960 . S
C45 H51 0.959 . S
H46 C42 0.960 . S
H47 C42 0.961 . S
H48 C42 0.960 . S
H49 C45 0.960 . S
H50 C45 0.960 . S
H51 C45 0.959 . S
O52 Mn53 2.163 1_655 S
O52 C66 1.244 . S
Mn53 O52 2.163 1_455 S
Mn53 O56 2.160 1_545 S
Mn53 O57 2.221 . S
Mn53 O59 2.163 1_455 S
Mn53 O61 2.160 1_545 S
Mn53 O71 2.221 1_445 S
O54 Mn55 2.087 1_545 S
O54 C66 1.256 . S
Mn55 O54 2.087 1_565 S
Mn55 O62 2.089 1_655 S
Mn55 O71 2.290 . S
Mn55 O72 2.251 . S
O56 Mn53 2.160 1_565 S
O56 C67 1.239 . S
O57 Mn53 2.221 . S
O57 Mn58 2.290 . S
O57 C68 1.278 . S
Mn58 O57 2.290 . S
Mn58 O60 2.089 . S
Mn58 O63 2.251 . S
Mn58 O64 2.087 . S
O59 Mn53 2.163 1_655 S
O59 C69 1.244 . S
O60 Mn58 2.089 . S
O60 C67 1.256 1_545 S
O61 Mn53 2.160 1_565 S
O61 C70 1.239 . S
O62 Mn55 2.089 1_455 S
O62 C70 1.256 . S
O63 Mn58 2.251 . S
O63 C68 1.241 . S
O64 Mn58 2.087 . S
O64 C69 1.256 1_455 S
C65 O71 1.278 . S
C65 O72 1.241 . S
C66 O52 1.244 . S
C66 O54 1.256 . S
C67 O56 1.239 . S
C67 O60 1.256 1_565 S
C68 O57 1.278 . S
C68 O63 1.241 . S
C69 O59 1.244 . S
C69 O64 1.256 1_655 S
C70 O61 1.239 . S
C70 O62 1.256 . S
O71 Mn53 2.221 1_665 S
O71 Mn55 2.290 . S
O71 C65 1.278 . S
O72 Mn55 2.251 . S
O72 C65 1.241 . S
O73 Mn74 2.163 . S
O73 C87 1.244 . S
Mn74 O73 2.163 . S
Mn74 O77 2.160 1_554 S
Mn74 O78 2.221 . S
Mn74 O80 2.163 1_554 S
Mn74 O82 2.160 . S
Mn74 O92 2.221 . S
O75 Mn76 2.087 . S
O75 C87 1.256 . S
Mn76 O75 2.087 . S
Mn76 O83 2.089 . S
Mn76 O92 2.290 . S
Mn76 O93 2.251 . S
O77 Mn74 2.160 1_556 S
O77 C88 1.239 . S
O78 Mn74 2.221 . S
O78 Mn79 2.290 1_554 S
O78 C89 1.278 . S
Mn79 O78 2.290 1_556 S
Mn79 O81 2.089 . S
Mn79 O84 2.251 . S
Mn79 O85 2.087 . S
O80 Mn74 2.163 1_556 S
O80 C90 1.244 . S
O81 Mn79 2.089 . S
O81 C88 1.256 . S
O82 Mn74 2.160 . S
O82 C91 1.239 . S
O83 Mn76 2.089 . S
O83 C91 1.256 . S
O84 Mn79 2.251 . S
O84 C89 1.241 1_556 S
O85 Mn79 2.087 . S
O85 C90 1.256 . S
C86 O92 1.278 . S
C86 O93 1.241 . S
C87 O73 1.244 . S
C87 O75 1.256 . S
C88 O77 1.239 . S
C88 O81 1.256 . S
C89 O78 1.278 . S
C89 O84 1.241 1_554 S
C90 O80 1.244 . S
C90 O85 1.256 . S
C91 O82 1.239 . S
C91 O83 1.256 . S
O92 Mn74 2.221 . S
O92 Mn76 2.290 . S
O92 C86 1.278 . S
O93 Mn76 2.251 . S
O93 C86 1.241 . S
C94 C95 1.391 . S
C94 C96 1.394 . S
C94 H110 0.931 . S
C95 C94 1.391 . S
C95 C99 1.376 . S
C96 C94 1.394 . S
C96 C97 1.369 . S
C96 C100 1.531 . S
C97 C96 1.369 . S
C97 C98 1.410 . S
C97 C105 1.503 . S
C98 C97 1.410 . S
C98 C99 1.392 . S
C98 C101 1.511 . S
C99 C95 1.376 . S
C99 C98 1.392 . S
C99 H111 0.929 . S
C100 C96 1.531 . S
C100 H112 0.960 . S
C100 H113 0.962 . S
C100 H114 0.960 . S
C101 C98 1.511 . S
C101 H115 0.961 . S
C101 H116 0.961 . S
C101 H117 0.961 . S
C102 C103 1.370 . S
C102 C104 1.363 . S
C102 H118 0.931 . S
C103 C102 1.370 . S
C103 C107 1.408 . S
C104 C102 1.363 . S
C104 C105 1.370 . S
C104 C108 1.524 . S
C105 C97 1.503 . S
C105 C104 1.370 . S
C105 C106 1.403 . S
C106 C105 1.403 . S
C106 C107 1.404 . S
C106 C109 1.539 . S
C107 C103 1.408 . S
C107 C106 1.404 . S
C107 H119 0.930 . S
C108 C104 1.524 . S
C108 H120 0.956 . S
C108 H121 0.961 . S
C108 H122 0.961 . S
C109 C106 1.539 . S
C109 H123 0.958 . S
C109 H124 0.961 . S
C109 H125 0.960 . S
H110 C94 0.931 . S
H111 C99 0.929 . S
H112 C100 0.960 . S
H113 C100 0.962 . S
H114 C100 0.960 . S
H115 C101 0.961 . S
H116 C101 0.961 . S
H117 C101 0.961 . S
H118 C102 0.931 . S
H119 C107 0.930 . S
H120 C108 0.956 . S
H121 C108 0.961 . S
H122 C108 0.961 . S
H123 C109 0.958 . S
H124 C109 0.961 . S
H125 C109 0.960 . S
C126 C127 1.391 . S
C126 C128 1.394 . S
C126 H142 0.931 . S
C127 C126 1.391 . S
C127 C131 1.376 . S
C128 C126 1.394 . S
C128 C129 1.369 . S
C128 C132 1.531 . S
C129 C128 1.369 . S
C129 C130 1.410 . S
C129 C137 1.503 . S
C130 C129 1.410 . S
C130 C131 1.392 . S
C130 C133 1.511 . S
C131 C127 1.376 . S
C131 C130 1.392 . S
C131 H143 0.929 . S
C132 C128 1.531 . S
C132 H144 0.960 . S
C132 H145 0.962 . S
C132 H146 0.960 . S
C133 C130 1.511 . S
C133 H147 0.961 . S
C133 H148 0.961 . S
C133 H149 0.961 . S
C134 C135 1.370 . S
C134 C136 1.363 . S
C134 H150 0.931 1_554 S
C135 C134 1.370 . S
C135 C139 1.408 . S
C136 C134 1.363 . S
C136 C137 1.370 . S
C136 C140 1.524 1_554 S
C137 C129 1.503 . S
C137 C136 1.370 . S
C137 C138 1.403 . S
C138 C137 1.403 . S
C138 C139 1.404 . S
C138 C141 1.539 . S
C139 C135 1.408 . S
C139 C138 1.404 . S
C139 H151 0.930 . S
C140 C136 1.524 1_556 S
C140 H152 0.956 . S
C140 H153 0.961 . S
C140 H154 0.961 . S
C141 C138 1.539 . S
C141 H155 0.958 . S
C141 H156 0.961 . S
C141 H157 0.960 . S
H142 C126 0.931 . S
H143 C131 0.929 . S
H144 C132 0.960 . S
H145 C132 0.962 . S
H146 C132 0.960 . S
H147 C133 0.961 . S
H148 C133 0.961 . S
H149 C133 0.961 . S
H150 C134 0.931 1_556 S
H151 C139 0.930 . S
H152 C140 0.956 . S
H153 C140 0.961 . S
H154 C140 0.961 . S
H155 C141 0.958 . S
H156 C141 0.961 . S
H157 C141 0.960 . S
C158 C159 1.391 . S
C158 C160 1.394 . S
C158 H174 0.931 . S
C159 C158 1.391 . S
C159 C163 1.376 . S
C160 C158 1.394 . S
C160 C161 1.369 . S
C160 C164 1.531 . S
C161 C160 1.369 . S
C161 C162 1.410 . S
C161 C169 1.503 . S
C162 C161 1.410 . S
C162 C163 1.392 . S
C162 C165 1.511 . S
C163 C159 1.376 . S
C163 C162 1.392 . S
C163 H175 0.929 . S
C164 C160 1.531 . S
C164 H176 0.960 . S
C164 H177 0.962 . S
C164 H178 0.960 . S
C165 C162 1.511 . S
C165 H179 0.961 . S
C165 H180 0.961 . S
C165 H181 0.961 . S
C166 C167 1.370 . S
C166 C168 1.363 . S
C166 H182 0.931 . S
C167 C166 1.370 . S
C167 C171 1.408 . S
C168 C166 1.363 . S
C168 C169 1.370 . S
C168 C172 1.524 . S
C169 C161 1.503 . S
C169 C168 1.370 . S
C169 C170 1.403 . S
C170 C169 1.403 . S
C170 C171 1.404 . S
C170 C173 1.539 . S
C171 C167 1.408 . S
C171 C170 1.404 . S
C171 H183 0.930 . S
C172 C168 1.524 . S
C172 H184 0.956 . S
C172 H185 0.961 . S
C172 H186 0.961 . S
C173 C170 1.539 . S
C173 H187 0.958 . S
C173 H188 0.961 . S
C173 H189 0.960 . S
H174 C158 0.931 . S
H175 C163 0.929 . S
H176 C164 0.960 . S
H177 C164 0.962 . S
H178 C164 0.960 . S
H179 C165 0.961 . S
H180 C165 0.961 . S
H181 C165 0.961 . S
H182 C166 0.931 . S
H183 C171 0.930 . S
H184 C172 0.956 . S
H185 C172 0.961 . S
H186 C172 0.961 . S
H187 C173 0.958 . S
H188 C173 0.961 . S
H189 C173 0.960 . S
C190 C191 1.391 . S
C190 C192 1.394 . S
C190 H206 0.931 . S
C191 C190 1.391 . S
C191 C195 1.376 1_554 S
C192 C190 1.394 . S
C192 C193 1.369 . S
C192 C196 1.531 . S
C193 C192 1.369 . S
C193 C194 1.410 1_554 S
C193 C201 1.503 . S
C194 C193 1.410 1_556 S
C194 C195 1.392 . S
C194 C197 1.511 . S
C195 C191 1.376 1_556 S
C195 C194 1.392 . S
C195 H207 0.929 . S
C196 C192 1.531 . S
C196 H208 0.960 . S
C196 H209 0.962 . S
C196 H210 0.960 . S
C197 C194 1.511 . S
C197 H211 0.961 . S
C197 H212 0.961 . S
C197 H213 0.961 . S
C198 C199 1.370 1_556 S
C198 C200 1.363 . S
C198 H214 0.931 . S
C199 C198 1.370 1_554 S
C199 C203 1.408 . S
C200 C198 1.363 . S
C200 C201 1.370 1_556 S
C200 C204 1.524 . S
C201 C193 1.503 . S
C201 C200 1.370 1_554 S
C201 C202 1.403 . S
C202 C201 1.403 . S
C202 C203 1.404 . S
C202 C205 1.539 . S
C203 C199 1.408 . S
C203 C202 1.404 . S
C203 H215 0.930 . S
C204 C200 1.524 . S
C204 H216 0.956 . S
C204 H217 0.961 . S
C204 H218 0.961 . S
C205 C202 1.539 . S
C205 H219 0.958 . S
C205 H220 0.961 . S
C205 H221 0.960 . S
H206 C190 0.931 . S
H207 C195 0.929 . S
H208 C196 0.960 . S
H209 C196 0.962 . S
H210 C196 0.960 . S
H211 C197 0.961 . S
H212 C197 0.961 . S
H213 C197 0.961 . S
H214 C198 0.931 . S
H215 C203 0.930 . S
H216 C204 0.956 . S
H217 C204 0.961 . S
H218 C204 0.961 . S
H219 C205 0.958 . S
H220 C205 0.961 . S
H221 C205 0.960 . S
C222 C223 1.391 . S
C222 C224 1.394 . S
C222 H238 0.931 . S
C223 C222 1.391 . S
C223 C227 1.376 . S
C224 C222 1.394 . S
C224 C225 1.369 . S
C224 C228 1.531 . S
C225 C224 1.369 . S
C225 C226 1.410 . S
C225 C233 1.503 . S
C226 C225 1.410 . S
C226 C227 1.392 . S
C226 C229 1.511 . S
C227 C223 1.376 . S
C227 C226 1.392 . S
C227 H239 0.929 . S
C228 C224 1.531 . S
C228 H240 0.960 . S
C228 H241 0.962 . S
C228 H242 0.960 . S
C229 C226 1.511 . S
C229 H243 0.961 . S
C229 H244 0.961 . S
C229 H245 0.961 . S
C230 C231 1.370 . S
C230 C232 1.363 . S
C230 H246 0.931 . S
C231 C230 1.370 . S
C231 C235 1.408 . S
C232 C230 1.363 . S
C232 C233 1.370 . S
C232 C236 1.524 . S
C233 C225 1.503 . S
C233 C232 1.370 . S
C233 C234 1.403 . S
C234 C233 1.403 . S
C234 C235 1.404 . S
C234 C237 1.539 . S
C235 C231 1.408 . S
C235 C234 1.404 . S
C235 H247 0.930 . S
C236 C232 1.524 . S
C236 H248 0.956 . S
C236 H249 0.961 . S
C236 H250 0.961 . S
C237 C234 1.539 . S
C237 H251 0.958 . S
C237 H252 0.961 . S
C237 H253 0.960 . S
H238 C222 0.931 . S
H239 C227 0.929 . S
H240 C228 0.960 . S
H241 C228 0.962 . S
H242 C228 0.960 . S
H243 C229 0.961 . S
H244 C229 0.961 . S
H245 C229 0.961 . S
H246 C230 0.931 . S
H247 C235 0.930 . S
H248 C236 0.956 . S
H249 C236 0.961 . S
H250 C236 0.961 . S
H251 C237 0.958 . S
H252 C237 0.961 . S
H253 C237 0.960 . S
C254 C255 1.391 . S
C254 C256 1.394 . S
C254 H270 0.931 . S
C255 C254 1.391 . S
C255 C259 1.376 . S
C256 C254 1.394 . S
C256 C257 1.369 . S
C256 C260 1.531 . S
C257 C256 1.369 . S
C257 C258 1.410 . S
C257 C265 1.503 . S
C258 C257 1.410 . S
C258 C259 1.392 . S
C258 C261 1.511 . S
C259 C255 1.376 . S
C259 C258 1.392 . S
C259 H271 0.929 . S
C260 C256 1.531 . S
C260 H272 0.960 . S
C260 H273 0.962 . S
C260 H274 0.960 . S
C261 C258 1.511 . S
C261 H275 0.961 . S
C261 H276 0.961 . S
C261 H277 0.961 . S
C262 C263 1.370 . S
C262 C264 1.363 . S
C262 H278 0.931 . S
C263 C262 1.370 . S
C263 C267 1.408 . S
C264 C262 1.363 . S
C264 C265 1.370 . S
C264 C268 1.524 . S
C265 C257 1.503 . S
C265 C264 1.370 . S
C265 C266 1.403 . S
C266 C265 1.403 . S
C266 C267 1.404 . S
C266 C269 1.539 . S
C267 C263 1.408 . S
C267 C266 1.404 . S
C267 H279 0.930 . S
C268 C264 1.524 . S
C268 H280 0.956 . S
C268 H281 0.961 . S
C268 H282 0.961 . S
C269 C266 1.539 . S
C269 H283 0.958 . S
C269 H284 0.961 . S
C269 H285 0.960 . S
H270 C254 0.931 . S
H271 C259 0.929 . S
H272 C260 0.960 . S
H273 C260 0.962 . S
H274 C260 0.960 . S
H275 C261 0.961 . S
H276 C261 0.961 . S
H277 C261 0.961 . S
H278 C262 0.931 . S
H279 C267 0.930 . S
H280 C268 0.956 . S
H281 C268 0.961 . S
H282 C268 0.961 . S
H283 C269 0.958 . S
H284 C269 0.961 . S
H285 C269 0.960 . S
C286 C287 1.391 . S
C286 C288 1.394 . S
C286 H302 0.931 . S
C287 C286 1.391 . S
C287 C291 1.376 . S
C288 C286 1.394 . S
C288 C289 1.369 . S
C288 C292 1.531 . S
C289 C288 1.369 . S
C289 C290 1.410 . S
C289 C297 1.503 . S
C290 C289 1.410 . S
C290 C291 1.392 . S
C290 C293 1.511 . S
C291 C287 1.376 . S
C291 C290 1.392 . S
C291 H303 0.929 . S
C292 C288 1.531 . S
C292 H304 0.960 . S
C292 H305 0.962 . S
C292 H306 0.960 . S
C293 C290 1.511 . S
C293 H307 0.961 . S
C293 H308 0.961 . S
C293 H309 0.961 . S
C294 C295 1.370 . S
C294 C296 1.363 . S
C294 H310 0.931 . S
C295 C294 1.370 . S
C295 C299 1.408 . S
C296 C294 1.363 . S
C296 C297 1.370 . S
C296 C300 1.524 . S
C297 C289 1.503 . S
C297 C296 1.370 . S
C297 C298 1.403 . S
C298 C297 1.403 . S
C298 C299 1.404 . S
C298 C301 1.539 . S
C299 C295 1.408 . S
C299 C298 1.404 . S
C299 H311 0.930 . S
C300 C296 1.524 . S
C300 H312 0.956 . S
C300 H313 0.961 . S
C300 H314 0.961 . S
C301 C298 1.539 . S
C301 H315 0.958 . S
C301 H316 0.961 . S
C301 H317 0.960 . S
H302 C286 0.931 . S
H303 C291 0.929 . S
H304 C292 0.960 . S
H305 C292 0.962 . S
H306 C292 0.960 . S
H307 C293 0.961 . S
H308 C293 0.961 . S
H309 C293 0.961 . S
H310 C294 0.931 . S
H311 C299 0.930 . S
H312 C300 0.956 . S
H313 C300 0.961 . S
H314 C300 0.961 . S
H315 C301 0.958 . S
H316 C301 0.961 . S
H317 C301 0.960 . S
C318 C319 1.391 . S
C318 C320 1.394 . S
C318 H334 0.931 . S
C319 C318 1.391 . S
C319 C323 1.376 . S
C320 C318 1.394 . S
C320 C321 1.369 . S
C320 C324 1.531 . S
C321 C320 1.369 . S
C321 C322 1.410 . S
C321 C329 1.503 . S
C322 C321 1.410 . S
C322 C323 1.392 . S
C322 C325 1.511 . S
C323 C319 1.376 . S
C323 C322 1.392 . S
C323 H335 0.929 . S
C324 C320 1.531 . S
C324 H336 0.960 . S
C324 H337 0.962 . S
C324 H338 0.960 . S
C325 C322 1.511 . S
C325 H339 0.961 . S
C325 H340 0.961 . S
C325 H341 0.961 . S
C326 C327 1.370 . S
C326 C328 1.363 . S
C326 H342 0.931 . S
C327 C326 1.370 . S
C327 C331 1.408 . S
C328 C326 1.363 . S
C328 C329 1.370 . S
C328 C332 1.524 . S
C329 C321 1.503 . S
C329 C328 1.370 . S
C329 C330 1.403 . S
C330 C329 1.403 . S
C330 C331 1.404 . S
C330 C333 1.539 . S
C331 C327 1.408 . S
C331 C330 1.404 . S
C331 H343 0.930 . S
C332 C328 1.524 . S
C332 H344 0.956 . S
C332 H345 0.961 . S
C332 H346 0.961 . S
C333 C330 1.539 . S
C333 H347 0.958 . S
C333 H348 0.961 . S
C333 H349 0.960 . S
H334 C318 0.931 . S
H335 C323 0.929 . S
H336 C324 0.960 . S
H337 C324 0.962 . S
H338 C324 0.960 . S
H339 C325 0.961 . S
H340 C325 0.961 . S
H341 C325 0.961 . S
H342 C326 0.931 . S
H343 C331 0.930 . S
H344 C332 0.956 . S
H345 C332 0.961 . S
H346 C332 0.961 . S
H347 C333 0.958 . S
H348 C333 0.961 . S
H349 C333 0.960 . S
C350 C351 1.391 . S
C350 C352 1.394 . S
C350 H366 0.931 . S
C351 C350 1.391 . S
C351 C355 1.376 . S
C352 C350 1.394 . S
C352 C353 1.369 . S
C352 C356 1.531 . S
C353 C352 1.369 . S
C353 C354 1.410 . S
C353 C361 1.503 . S
C354 C353 1.410 . S
C354 C355 1.392 . S
C354 C357 1.511 . S
C355 C351 1.376 . S
C355 C354 1.392 . S
C355 H367 0.929 . S
C356 C352 1.531 . S
C356 H368 0.960 . S
C356 H369 0.962 . S
C356 H370 0.960 . S
C357 C354 1.511 . S
C357 H371 0.961 . S
C357 H372 0.961 . S
C357 H373 0.961 . S
C358 C359 1.370 . S
C358 C360 1.363 . S
C358 H374 0.931 . S
C359 C358 1.370 . S
C359 C363 1.408 . S
C360 C358 1.363 . S
C360 C361 1.370 . S
C360 C364 1.524 . S
C361 C353 1.503 . S
C361 C360 1.370 . S
C361 C362 1.403 . S
C362 C361 1.403 . S
C362 C363 1.404 . S
C362 C365 1.539 . S
C363 C359 1.408 . S
C363 C362 1.404 . S
C363 H375 0.930 . S
C364 C360 1.524 . S
C364 H376 0.956 . S
C364 H377 0.961 . S
C364 H378 0.961 . S
C365 C362 1.539 . S
C365 H379 0.958 . S
C365 H380 0.961 . S
C365 H381 0.960 . S
H366 C350 0.931 . S
H367 C355 0.929 . S
H368 C356 0.960 . S
H369 C356 0.962 . S
H370 C356 0.960 . S
H371 C357 0.961 . S
H372 C357 0.961 . S
H373 C357 0.961 . S
H374 C358 0.931 . S
H375 C363 0.930 . S
H376 C364 0.956 . S
H377 C364 0.961 . S
H378 C364 0.961 . S
H379 C365 0.958 . S
H380 C365 0.961 . S
H381 C365 0.960 . S
C382 C383 1.391 . S
C382 C384 1.394 . S
C382 H398 0.931 . S
C383 C382 1.391 . S
C383 C387 1.376 . S
C384 C382 1.394 . S
C384 C385 1.369 . S
C384 C388 1.531 . S
C385 C384 1.369 . S
C385 C386 1.410 . S
C385 C393 1.503 . S
C386 C385 1.410 . S
C386 C387 1.392 . S
C386 C389 1.511 . S
C387 C383 1.376 . S
C387 C386 1.392 . S
C387 H399 0.929 . S
C388 C384 1.531 . S
C388 H400 0.960 . S
C388 H401 0.962 . S
C388 H402 0.960 . S
C389 C386 1.511 . S
C389 H403 0.961 . S
C389 H404 0.961 . S
C389 H405 0.961 . S
C390 C391 1.370 . S
C390 C392 1.363 . S
C390 H406 0.931 . S
C391 C390 1.370 . S
C391 C395 1.408 . S
C392 C390 1.363 . S
C392 C393 1.370 . S
C392 C396 1.524 . S
C393 C385 1.503 . S
C393 C392 1.370 . S
C393 C394 1.403 . S
C394 C393 1.403 . S
C394 C395 1.404 . S
C394 C397 1.539 . S
C395 C391 1.408 . S
C395 C394 1.404 . S
C395 H407 0.930 . S
C396 C392 1.524 . S
C396 H408 0.956 . S
C396 H409 0.961 . S
C396 H410 0.961 . S
C397 C394 1.539 . S
C397 H411 0.958 . S
C397 H412 0.961 . S
C397 H413 0.960 . S
H398 C382 0.931 . S
H399 C387 0.929 . S
H400 C388 0.960 . S
H401 C388 0.962 . S
H402 C388 0.960 . S
H403 C389 0.961 . S
H404 C389 0.961 . S
H405 C389 0.961 . S
H406 C390 0.931 . S
H407 C395 0.930 . S
H408 C396 0.956 . S
H409 C396 0.961 . S
H410 C396 0.961 . S
H411 C397 0.958 . S
H412 C397 0.961 . S
H413 C397 0.960 . S
C414 C415 1.391 . S
C414 C416 1.394 . S
C414 H430 0.931 . S
C415 C414 1.391 . S
C415 C419 1.376 . S
C416 C414 1.394 . S
C416 C417 1.369 . S
C416 C420 1.531 . S
C417 C416 1.369 . S
C417 C418 1.410 . S
C417 C425 1.503 . S
C418 C417 1.410 . S
C418 C419 1.392 . S
C418 C421 1.511 . S
C419 C415 1.376 . S
C419 C418 1.392 . S
C419 H431 0.929 . S
C420 C416 1.531 . S
C420 H432 0.960 . S
C420 H433 0.962 . S
C420 H434 0.960 . S
C421 C418 1.511 . S
C421 H435 0.961 . S
C421 H436 0.961 . S
C421 H437 0.961 . S
C422 C423 1.370 . S
C422 C424 1.363 . S
C422 H438 0.931 . S
C423 C422 1.370 . S
C423 C427 1.408 . S
C424 C422 1.363 . S
C424 C425 1.370 . S
C424 C428 1.524 . S
C425 C417 1.503 . S
C425 C424 1.370 . S
C425 C426 1.403 . S
C426 C425 1.403 . S
C426 C427 1.404 . S
C426 C429 1.539 . S
C427 C423 1.408 . S
C427 C426 1.404 . S
C427 H439 0.930 . S
C428 C424 1.524 . S
C428 H440 0.956 . S
C428 H441 0.961 . S
C428 H442 0.961 . S
C429 C426 1.539 . S
C429 H443 0.958 . S
C429 H444 0.961 . S
C429 H445 0.960 . S
H430 C414 0.931 . S
H431 C419 0.929 . S
H432 C420 0.960 . S
H433 C420 0.962 . S
H434 C420 0.960 . S
H435 C421 0.961 . S
H436 C421 0.961 . S
H437 C421 0.961 . S
H438 C422 0.931 . S
H439 C427 0.930 . S
H440 C428 0.956 . S
H441 C428 0.961 . S
H442 C428 0.961 . S
H443 C429 0.958 . S
H444 C429 0.961 . S
H445 C429 0.960 . S
C446 C447 1.391 . S
C446 C448 1.394 . S
C446 H462 0.931 . S
C447 C446 1.391 . S
C447 C451 1.376 . S
C448 C446 1.394 . S
C448 C449 1.369 . S
C448 C452 1.531 . S
C449 C448 1.369 . S
C449 C450 1.410 . S
C449 C457 1.503 . S
C450 C449 1.410 . S
C450 C451 1.392 . S
C450 C453 1.511 . S
C451 C447 1.376 . S
C451 C450 1.392 . S
C451 H463 0.929 1_556 S
C452 C448 1.531 . S
C452 H464 0.960 . S
C452 H465 0.962 . S
C452 H466 0.960 . S
C453 C450 1.511 . S
C453 H467 0.961 . S
C453 H468 0.961 . S
C453 H469 0.961 . S
C454 C455 1.370 . S
C454 C456 1.363 . S
C454 H470 0.931 . S
C455 C454 1.370 . S
C455 C459 1.408 . S
C456 C454 1.363 . S
C456 C457 1.370 . S
C456 C460 1.524 . S
C457 C449 1.503 . S
C457 C456 1.370 . S
C457 C458 1.403 . S
C458 C457 1.403 . S
C458 C459 1.404 . S
C458 C461 1.539 . S
C459 C455 1.408 . S
C459 C458 1.404 . S
C459 H471 0.930 . S
C460 C456 1.524 . S
C460 H472 0.956 . S
C460 H473 0.961 . S
C460 H474 0.961 . S
C461 C458 1.539 . S
C461 H475 0.958 . S
C461 H476 0.961 . S
C461 H477 0.960 . S
H462 C446 0.931 . S
H463 C451 0.929 1_554 S
H464 C452 0.960 . S
H465 C452 0.962 . S
H466 C452 0.960 . S
H467 C453 0.961 . S
H468 C453 0.961 . S
H469 C453 0.961 . S
H470 C454 0.931 . S
H471 C459 0.930 . S
H472 C460 0.956 . S
H473 C460 0.961 . S
H474 C460 0.961 . S
H475 C461 0.958 . S
H476 C461 0.961 . S
H477 C461 0.960 . S
C103 C68 1.293 . S
C95 N41 1.462 . S
C127 N2 1.467 . S
C135 C89 1.293 . S
C159 N15 1.615 . S
C167 C65 1.418 . S
C191 N28 1.602 . S
C199 C86 1.383 . S
C231 C70 1.450 . S
C223 N5 1.498 . S
C263 C90 1.505 . S
C255 N14 1.581 . S
C287 N27 1.531 . S
C295 C66 1.502 . S
C319 N44 1.469 . S
C327 C88 1.460 . S
C359 C87 1.512 . S
C351 N18 1.527 . S
C391 C69 1.520 . S
C383 N31 1.582 . S
C423 C91 1.448 . S
C415 N40 1.479 . S
C447 N1 1.503 1_556 S
C455 C67 1.443 . S
