# Generated by pormake.
# Topology anh, (6,3)-cn, num edge types: 1
# Building blocks:
#     Node 0, Type 0, BuildingBlock: PAMTOO_clean_sbu_0, # of connection points: 6
#     Node 1, Type 0, BuildingBlock: PAMTOO_clean_sbu_0, # of connection points: 6
#     Node 2, Type 0, BuildingBlock: PAMTOO_clean_sbu_0, # of connection points: 6
#     Node 3, Type 1, BuildingBlock: PAMTOO_clean_linker_0, # of connection points: 3
#     Node 4, Type 1, BuildingBlock: PAMTOO_clean_linker_0, # of connection points: 3
#     Node 5, Type 1, BuildingBlock: PAMTOO_clean_linker_0, # of connection points: 3
#     Node 6, Type 1, BuildingBlock: PAMTOO_clean_linker_0, # of connection points: 3
#     Node 7, Type 1, BuildingBlock: PAMTOO_clean_linker_0, # of connection points: 3
#     Node 8, Type 1, BuildingBlock: PAMTOO_clean_linker_0, # of connection points: 3
#     Edge 9, Type (0, 1), BuildingBlock: UVAHIK_clean_linker_0, # of connection points: 2
#     Edge 10, Type (0, 1), BuildingBlock: UVAHIK_clean_linker_0, # of connection points: 2
#     Edge 11, Type (0, 1), BuildingBlock: UVAHIK_clean_linker_0, # of connection points: 2
#     Edge 12, Type (0, 1), BuildingBlock: UVAHIK_clean_linker_0, # of connection points: 2
#     Edge 13, Type (0, 1), BuildingBlock: UVAHIK_clean_linker_0, # of connection points: 2
#     Edge 14, Type (0, 1), BuildingBlock: UVAHIK_clean_linker_0, # of connection points: 2
#     Edge 15, Type (0, 1), BuildingBlock: UVAHIK_clean_linker_0, # of connection points: 2
#     Edge 16, Type (0, 1), BuildingBlock: UVAHIK_clean_linker_0, # of connection points: 2
#     Edge 17, Type (0, 1), BuildingBlock: UVAHIK_clean_linker_0, # of connection points: 2
#     Edge 18, Type (0, 1), BuildingBlock: UVAHIK_clean_linker_0, # of connection points: 2
#     Edge 19, Type (0, 1), BuildingBlock: UVAHIK_clean_linker_0, # of connection points: 2
#     Edge 20, Type (0, 1), BuildingBlock: UVAHIK_clean_linker_0, # of connection points: 2
#     Edge 21, Type (0, 1), BuildingBlock: UVAHIK_clean_linker_0, # of connection points: 2
#     Edge 22, Type (0, 1), BuildingBlock: UVAHIK_clean_linker_0, # of connection points: 2
#     Edge 23, Type (0, 1), BuildingBlock: UVAHIK_clean_linker_0, # of connection points: 2
#     Edge 24, Type (0, 1), BuildingBlock: UVAHIK_clean_linker_0, # of connection points: 2
#     Edge 25, Type (0, 1), BuildingBlock: UVAHIK_clean_linker_0, # of connection points: 2
#     Edge 26, Type (0, 1), BuildingBlock: UVAHIK_clean_linker_0, # of connection points: 2
# Relax obj value: 0.130
# Max RMSD: 0.148
# Mean RMSD: 0.114
data_MOF--net-anh--node1-PAMTOO_clean_sbu_0--node2-PAMTOO_clean_linker_0--edge1-UVAHIK_clean_linker_0
_symmetry_space_group_name_H-M    P1
_symmetry_Int_Tables_number       1
_symmetry_cell_setting            triclinic
loop_
_symmetry_equiv_pos_as_xyz
'x, y, z'
_cell_length_a     38.940021
_cell_length_b     38.212899
_cell_length_c     63.936872
_cell_angle_alpha  87.0256
_cell_angle_beta   96.3599
_cell_angle_gamma 104.78182
loop_
_atom_site_label
_atom_site_type_symbol
_atom_site_fract_x
_atom_site_fract_y
_atom_site_fract_z
_atom_type_partial_charge
Dy0 Dy 0.12109 0.58942 0.15124 0.0
Dy1 Dy 0.09627 0.50167 0.14461 0.0
C2 C 0.11082 0.55751 0.10613 0.0
O3 O 1.06135 0.57563 0.14291 0.0
O4 O 1.04806 0.51623 0.15421 0.0
O5 O 0.12515 0.6443 0.13937 0.0
O6 O 0.14351 0.63412 0.17183 0.0
O7 O 0.11427 0.50924 0.17884 0.0
O8 O 0.10312 0.56456 0.18166 0.0
O9 O 0.15446 0.51712 0.13928 0.0
O10 O 0.17182 0.57077 0.15689 0.0
O11 O 0.09619 0.44649 0.15407 0.0
O12 O 0.0665 0.45749 0.12496 0.0
C13 C 1.03807 0.54611 0.14873 0.0
O14 O 0.13271 0.5807 0.11887 0.0
O15 O 0.08799 0.52948 0.11352 0.0
C16 C 0.17417 0.6876 0.15571 0.0
C17 C 0.23825 0.74256 0.15795 0.0
C18 C 0.23748 0.70771 0.15144 0.0
C19 C 0.20565 0.68037 0.1504 0.0
C20 C 0.17456 0.72252 0.16151 0.0
C21 C 0.2063 0.7498 0.1626 0.0
C22 C 0.14155 0.6585 0.15703 0.0
C23 C 0.10962 0.5348 0.19032 0.0
C24 C 0.17967 0.54359 0.14819 0.0
C25 C 1.04169 0.40416 0.1436 0.0
C26 C 0.97953 0.35062 0.15195 0.0
C27 C 0.99556 0.37783 0.16656 0.0
C28 C 1.02621 0.40448 0.16237 0.0
C29 C 1.02602 0.37704 0.12906 0.0
C30 C 0.99521 0.35058 0.13314 0.0
C31 C 0.07306 0.43275 0.13844 0.0
H32 H 0.26169 0.70124 0.1479 0.0
H33 H 0.2058 0.65338 0.14603 0.0
H34 H 0.15048 0.72849 0.1657 0.0
H35 H 0.20591 0.77649 0.16734 0.0
H36 H 0.98459 0.37848 0.18134 0.0
H37 H 1.03769 0.42539 0.17375 0.0
H38 H 1.03737 0.37663 0.11437 0.0
H39 H 0.98333 0.33051 0.12135 0.0
Dy40 Dy 0.60922 0.01962 0.5108 0.0
Dy41 Dy 0.69697 0.04104 0.51632 0.0
C42 C 0.65283 0.02876 0.55533 0.0
O43 O 0.62458 0.07914 0.5041 0.0
O44 O 0.68188 0.09273 0.52048 0.0
O45 O 0.55954 0.99855 0.52431 0.0
O46 O 0.55918 0.01619 0.49155 0.0
O47 O 0.67924 0.05472 0.48319 0.0
O48 O 0.62825 0.00923 0.48059 0.0
O49 O 0.68129 0.98197 0.50958 0.0
O50 O 0.62406 0.96762 0.51911 0.0
O51 O 0.7474 0.04136 0.50522 0.0
O52 O 0.74613 0.06438 0.53535 0.0
C53 C 0.65341 0.10264 0.51196 0.0
O54 O 0.62789 0.03973 0.54331 0.0
O55 O 0.67764 0.01829 0.54692 0.0
C56 C 0.51372 0.96585 0.50058 0.0
C57 C 0.46205 0.90079 0.49106 0.0
C58 C 0.49799 0.90066 0.49662 0.0
C59 C 0.52364 0.93295 0.50126 0.0
C60 C 0.47809 0.96624 0.49474 0.0
C61 C 0.45243 0.93397 0.48996 0.0
C62 C 0.54021 0.99963 0.50639 0.0
C63 C 0.65364 0.03261 0.4717 0.0
C64 C 0.65234 0.95803 0.51446 0.0
C65 C 0.79359 0.09286 0.51568 0.0
C66 C 0.84578 0.1566 0.50688 0.0
C67 C 0.8174 0.14218 0.49163 0.0
C68 C 0.79145 0.11076 0.49602 0.0
C69 C 0.82195 0.10691 0.53086 0.0
C70 C 0.84776 0.13852 0.52655 0.0
C71 C 0.76593 0.06041 0.52092 0.0
H72 H 0.50627 0.87559 0.49736 0.0
H73 H 0.55114 0.93221 0.50559 0.0
H74 H 0.47003 0.99142 0.49414 0.0
H75 H 0.42491 0.93488 0.48592 0.0
H76 H 0.81531 0.15502 0.4762 0.0
H77 H 0.76966 0.1006 0.48407 0.0
H78 H 0.82389 0.09364 0.54619 0.0
H79 H 0.86888 0.14911 0.53878 0.0
Dy80 Dy 0.66374 0.51386 0.84279 0.0
Dy81 Dy 0.57772 0.48747 0.8313 0.0
C82 C 0.6305 0.50641 0.79519 0.0
O83 O 0.64037 0.56003 0.8481 0.0
O84 O 0.59369 0.54636 0.82269 0.0
O85 O 0.71031 0.55652 0.85215 0.0
O86 O 0.716 0.5032 0.84636 0.0
O87 O 0.5863 0.49957 0.86561 0.0
O88 O 0.64327 0.49276 0.87338 0.0
O89 O 0.595 0.43898 0.84479 0.0
O90 O 0.65046 0.45577 0.8335 0.0
O91 O 0.52508 0.49434 0.83375 0.0
O92 O 0.53174 0.44993 0.81609 0.0
C93 C 0.6162 0.57009 0.83492 0.0
O94 O 0.65473 0.52634 0.80851 0.0
O95 O 0.60164 0.48428 0.8015 0.0
C96 C 0.76047 0.55347 0.83516 0.0
C97 C 0.81475 0.58446 0.809 0.0
C98 C 0.79738 0.60648 0.81854 0.0
C99 C 0.77055 0.59116 0.83151 0.0
C100 C 0.77752 0.53144 0.82537 0.0
C101 C 0.80426 0.54675 0.81239 0.0
C102 C 0.73233 0.53719 0.84907 0.0
C103 C 0.61272 0.49512 0.87931 0.0
C104 C 0.62349 0.43051 0.83966 0.0
C105 C 0.4844 0.47701 0.80361 0.0
C106 C 0.4317 0.48998 0.77234 0.0
C107 C 0.43399 0.50245 0.7929 0.0
C108 C 0.45992 0.49594 0.80833 0.0
C109 C 0.48313 0.46557 0.78289 0.0
C110 C 0.45689 0.47191 0.76739 0.0
C111 C 0.5098 0.46839 0.82076 0.0
H112 H 0.8049 0.63562 0.81621 0.0
H113 H 0.75799 0.60892 0.83884 0.0
H114 H 0.77057 0.50236 0.82796 0.0
H115 H 0.8177 0.52909 0.80568 0.0
H116 H 0.41451 0.5156 0.79748 0.0
H117 H 0.46015 0.50483 0.82418 0.0
H118 H 0.50179 0.451 0.77874 0.0
H119 H 0.45573 0.46192 0.75172 0.0
H120 H 0.69428 0.09551 0.24649 0.0
H121 H 0.59469 0.01406 0.23841 0.0
H122 H 0.64608 0.06284 0.1843 0.0
H123 H 0.56801 0.04221 0.17321 0.0
C124 C 0.5618 0.02843 0.18859 0.0
O125 O 0.59056 0.01583 0.19728 0.0
H126 H 0.55648 0.04877 0.19886 0.0
C127 C 0.67287 0.07888 0.23629 0.0
C128 C 0.67359 0.08241 0.21435 0.0
C129 C 0.64469 0.05416 0.24517 0.0
C130 C 0.61674 0.03318 0.23186 0.0
C131 C 0.61747 0.03622 0.20998 0.0
C132 C 0.64601 0.06046 0.20126 0.0
H133 H 0.65897 0.59759 0.57604 0.0
H134 H 0.6668 0.48992 0.56485 0.0
H135 H 0.65848 0.56404 0.51276 0.0
H136 H 0.62343 0.48373 0.50018 0.0
C137 C 0.63223 0.47371 0.51599 0.0
O138 O 0.66312 0.49811 0.52386 0.0
H139 H 0.61041 0.47136 0.52628 0.0
C140 C 0.66035 0.57711 0.56525 0.0
C141 C 0.6584 0.58495 0.54354 0.0
C142 C 0.66361 0.54306 0.57315 0.0
C143 C 0.6646 0.51648 0.55904 0.0
C144 C 0.66278 0.5241 0.53732 0.0
C145 C 0.66011 0.55843 0.52958 0.0
H146 H 0.1107 0.60276 0.87245 0.0
H147 H 0.18086 0.53431 0.89218 0.0
H148 H 0.16181 0.55966 0.82673 0.0
H149 H 0.14239 0.48112 0.84723 0.0
C150 C 0.1719 0.48468 0.84912 0.0
O151 O 0.19002 0.51984 0.85401 0.0
H152 H 0.17783 0.46623 0.86226 0.0
C153 C 0.12904 0.58766 0.86849 0.0
C154 C 0.134 0.58391 0.84726 0.0
C155 C 0.14674 0.57084 0.88481 0.0
C156 C 0.16848 0.54896 0.87986 0.0
C157 C 0.17286 0.54437 0.85889 0.0
C158 C 0.15713 0.56303 0.84279 0.0
H159 H 0.09455 0.45634 0.41451 0.0
H160 H 0.18184 0.55129 0.42397 0.0
H161 H 0.1354 0.49236 0.47719 0.0
H162 H 0.1664 0.57136 0.48854 0.0
C163 C 0.17439 0.57785 0.47235 0.0
O164 O 0.1837 0.54854 0.465 0.0
H165 H 0.151 0.5838 0.46246 0.0
C166 C 0.11331 0.47527 0.42497 0.0
C167 C 0.1118 0.47087 0.44681 0.0
C168 C 0.13862 0.50396 0.4165 0.0
C169 C 0.16225 0.5288 0.43016 0.0
C170 C 0.16107 0.52442 0.45198 0.0
C171 C 0.13625 0.49527 0.46029 0.0
H172 H 0.63261 0.93764 0.77542 0.0
H173 H 0.64192 0.04926 0.78825 0.0
H174 H 0.62176 0.96838 0.83773 0.0
H175 H 0.58769 0.03296 0.84382 0.0
C176 C 0.60004 0.04816 0.8301 0.0
O177 O 0.63096 0.03782 0.82785 0.0
H178 H 0.58045 0.04139 0.81592 0.0
C179 C 0.63255 0.95836 0.78637 0.0
C180 C 0.62643 0.94846 0.80735 0.0
C181 C 0.6383 0.99457 0.7793 0.0
C182 C 0.63769 0.02119 0.79346 0.0
C183 C 0.63175 0.01178 0.81448 0.0
C184 C 0.62649 0.97549 0.82149 0.0
H185 H 0.67634 0.53067 0.10281 0.0
H186 H 0.5666 0.53098 0.10647 0.0
H187 H 0.64205 0.55113 0.16165 0.0
H188 H 0.55902 0.51473 0.17103 0.0
C189 C 0.54914 0.51972 0.15444 0.0
O190 O 0.57459 0.5474 0.14586 0.0
H191 H 0.54545 0.49409 0.14595 0.0
C192 C 0.65514 0.53304 0.11189 0.0
C193 C 0.66341 0.54078 0.13331 0.0
C194 C 0.62035 0.52903 0.10198 0.0
C195 C 0.59357 0.53374 0.1138 0.0
C196 C 0.60101 0.54153 0.13525 0.0
C197 C 0.63606 0.54478 0.14513 0.0
C198 C 0.24581 0.57294 0.15524 0.0
C199 C 0.21809 0.54304 0.14829 0.0
C200 C 0.28183 0.57247 0.15534 0.0
C201 C 0.34167 0.52326 0.13347 0.0
H202 H 0.41066 0.57123 0.17798 0.0
C203 C 0.49356 0.53251 0.13376 0.0
C204 C 0.51296 0.52867 0.15328 0.0
C205 C 0.45845 0.53654 0.1327 0.0
C206 C 0.39184 0.55742 0.16547 0.0
H207 H 0.20716 0.48904 0.13603 0.0
H208 H 0.26956 0.48788 0.13661 0.0
H209 H 0.34837 0.57238 0.17734 0.0
H210 H 0.51055 0.52633 0.18699 0.0
H211 H 0.44968 0.53306 0.18525 0.0
H212 H 0.38496 0.50727 0.12202 0.0
C213 C 0.26361 0.51213 0.14163 0.0
C214 C 0.35593 0.5585 0.16493 0.0
C215 C 0.22759 0.51268 0.14142 0.0
C216 C 0.49658 0.52966 0.1717 0.0
C217 C 0.46153 0.53364 0.17066 0.0
C218 C 0.37758 0.5221 0.13404 0.0
C219 C 0.29143 0.54202 0.1486 0.0
C220 C 0.33011 0.54132 0.14897 0.0
C221 C 0.44162 0.53671 0.15114 0.0
C222 C 0.40333 0.53903 0.1501 0.0
H223 H 0.23975 0.59698 0.16051 0.0
H224 H 0.30216 0.59633 0.1605 0.0
H225 H 0.323 0.51008 0.12072 0.0
H226 H 0.5053 0.53156 0.11929 0.0
H227 H 0.44448 0.53937 0.11735 0.0
C228 C 0.90923 0.19449 0.50969 0.0
C229 C 0.87304 0.19042 0.5023 0.0
C230 C 0.93485 0.22606 0.50505 0.0
C231 C 0.95195 0.29984 0.466 0.0
H232 H 1.02403 0.34977 0.50857 0.0
C233 C 1.0484 0.43534 0.44678 0.0
C234 C 0.08415 0.44107 0.45526 0.0
C235 C 1.0224 0.40608 0.45376 0.0
C236 C 1.00436 0.33591 0.49644 0.0
H237 H 0.83543 0.21705 0.48478 0.0
H238 H 0.88031 0.27166 0.47625 0.0
H239 H 0.97926 0.29567 0.51839 0.0
H240 H 0.12079 0.42127 0.47792 0.0
H241 H 0.07551 0.36936 0.4898 0.0
H242 H 0.97726 0.33912 0.44391 0.0
C243 C 0.88876 0.25024 0.48553 0.0
C244 C 0.97869 0.30502 0.5021 0.0
C245 C 0.86311 0.21887 0.49034 0.0
C246 C 0.09333 0.41748 0.47122 0.0
C247 C 0.06735 0.38787 0.47805 0.0
C248 C 0.97776 0.33041 0.4603 0.0
C249 C 0.92489 0.25407 0.49275 0.0
C250 C 0.95217 0.28681 0.48693 0.0
C251 C 1.03162 0.38155 0.46919 0.0
C252 C 1.00421 0.34898 0.47545 0.0
H253 H 0.91793 0.17297 0.51869 0.0
H254 H 0.96259 0.22818 0.51062 0.0
H255 H 0.93215 0.28596 0.45392 0.0
H256 H 1.04056 0.45353 0.43469 0.0
H257 H 0.99505 0.40264 0.44696 0.0
C258 C 0.58983 0.62027 0.81926 0.0
C259 C 0.61454 0.60854 0.83386 0.0
C260 C 0.58894 0.6567 0.81792 0.0
C261 C 0.61655 0.7426 0.84694 0.0
H262 H 0.60776 0.78624 0.79116 0.0
C263 C 0.64049 0.89816 0.83102 0.0
C264 C 0.61982 0.90966 0.81391 0.0
C265 C 0.63765 0.86113 0.83503 0.0
C266 C 0.60966 0.77445 0.80689 0.0
H267 H 0.65737 0.626 0.85874 0.0
H268 H 0.65589 0.68952 0.85629 0.0
H269 H 0.60698 0.72246 0.79496 0.0
H270 H 0.57824 0.89165 0.78855 0.0
H271 H 0.57254 0.82734 0.79581 0.0
H272 H 0.61935 0.79483 0.85883 0.0
C273 C 0.637 0.67048 0.846 0.0
C274 C 0.60926 0.73779 0.80905 0.0
C275 C 0.63798 0.63406 0.8473 0.0
C276 C 0.59487 0.88352 0.80167 0.0
C277 C 0.59182 0.84667 0.80575 0.0
C278 C 0.61683 0.77938 0.84477 0.0
C279 C 0.61266 0.68232 0.83117 0.0
C280 C 0.61267 0.72135 0.82908 0.0
C281 C 0.61389 0.83495 0.82207 0.0
C282 C 0.61329 0.79576 0.8247 0.0
H283 H 0.57128 0.60137 0.80873 0.0
H284 H 0.56953 0.6648 0.8065 0.0
H285 H 0.61892 0.7307 0.86261 0.0
H286 H 0.66007 0.9178 0.84062 0.0
H287 H 0.65518 0.85314 0.84768 0.0
C288 C 0.98753 0.57738 0.14297 0.0
C289 C 0.99972 0.54641 0.14927 0.0
C290 C 0.95152 0.57746 0.14345 0.0
C291 C 0.86026 0.51508 0.14559 0.0
H292 H 0.83506 0.60223 0.15956 0.0
C293 C 0.71254 0.5154 0.15172 0.0
C294 C 0.70126 0.54512 0.14225 0.0
C295 C 0.74908 0.51625 0.15509 0.0
C296 C 0.84151 0.57765 0.15548 0.0
H297 H 0.98291 0.49118 0.16121 0.0
H298 H 0.92068 0.49141 0.16232 0.0
H299 H 0.89776 0.60217 0.15995 0.0
H300 H 0.7194 0.5991 0.12908 0.0
H301 H 0.78294 0.60104 0.13523 0.0
H302 H 0.80403 0.49064 0.14101 0.0
C303 C 0.93876 0.51563 0.15665 0.0
C304 C 0.87766 0.57765 0.15564 0.0
C305 C 0.97473 0.51554 0.15614 0.0
C306 C 0.72736 0.57619 0.13696 0.0
C307 C 0.76385 0.57716 0.1404 0.0
C308 C 0.82414 0.51507 0.14548 0.0
C309 C 0.92644 0.54654 0.15028 0.0
C310 C 0.88771 0.54642 0.15056 0.0
C311 C 0.77532 0.54683 0.14899 0.0
C312 C 0.8141 0.54641 0.15031 0.0
H313 H 1.00582 0.6017 0.13752 0.0
H314 H 0.94325 0.60167 0.13811 0.0
H315 H 0.86657 0.49061 0.14122 0.0
H316 H 0.69302 0.49078 0.15548 0.0
H317 H 0.75671 0.49252 0.16199 0.0
C318 C 0.40777 0.86379 0.47013 0.0
C319 C 0.43448 0.86636 0.48707 0.0
C320 C 0.38103 0.83176 0.4669 0.0
C321 C 0.35751 0.73378 0.48171 0.0
H322 H 0.26062 0.74167 0.4661 0.0
C323 C 0.23353 0.61428 0.48892 0.0
C324 C 0.20571 0.61038 0.4726 0.0
C325 C 0.26256 0.64466 0.48933 0.0
C326 C 0.28759 0.739 0.4702 0.0
H327 H 0.45411 0.8374 0.51391 0.0
H328 H 0.40725 0.78171 0.5085 0.0
H329 H 0.30925 0.79633 0.46927 0.0
H330 H 0.18698 0.63386 0.44338 0.0
H331 H 0.23766 0.68728 0.44413 0.0
H332 H 0.33554 0.67638 0.48307 0.0
C333 C 0.40731 0.80413 0.49741 0.0
C334 C 0.31551 0.77033 0.47198 0.0
C335 C 0.43415 0.83608 0.50055 0.0
C336 C 0.20785 0.63672 0.45633 0.0
C337 C 0.23676 0.66722 0.4568 0.0
C338 C 0.32953 0.70245 0.48004 0.0
C339 C 0.38026 0.80163 0.48063 0.0
C340 C 0.35081 0.76814 0.47788 0.0
C341 C 0.26429 0.67165 0.47339 0.0
C342 C 0.29425 0.70474 0.47438 0.0
H343 H 0.40764 0.88653 0.4593 0.0
H344 H 0.361 0.83059 0.4536 0.0
H345 H 0.38443 0.73105 0.48593 0.0
H346 H 0.23256 0.59398 0.50146 0.0
H347 H 0.28324 0.64742 0.50239 0.0
C348 C 0.59839 0.36523 0.84946 0.0
C349 C 0.62459 0.39192 0.84013 0.0
C350 C 0.59877 0.32872 0.84943 0.0
C351 C 0.62989 0.26391 0.82062 0.0
H352 H 0.61144 0.20266 0.87048 0.0
C353 C 0.63337 0.11316 0.82233 0.0
C354 C 0.6077 0.08848 0.8332 0.0
C355 C 0.63812 0.15053 0.82405 0.0
C356 C 0.61624 0.21923 0.85632 0.0
H357 H 0.67189 0.40106 0.82353 0.0
H358 H 0.67233 0.33724 0.82335 0.0
H359 H 0.61445 0.26703 0.87183 0.0
H360 H 0.56581 0.08358 0.85357 0.0
H361 H 0.5735 0.14857 0.85633 0.0
H362 H 0.63075 0.21611 0.8049 0.0
C363 C 0.65147 0.34464 0.83066 0.0
C364 C 0.61806 0.25619 0.85714 0.0
C365 C 0.65132 0.38123 0.83087 0.0
C366 C 0.58645 0.10198 0.84548 0.0
C367 C 0.59099 0.13929 0.8471 0.0
C368 C 0.62777 0.22687 0.81974 0.0
C369 C 0.62515 0.31795 0.8399 0.0
C370 C 0.62468 0.27893 0.83926 0.0
C371 C 0.61683 0.16414 0.83637 0.0
C372 C 0.62066 0.20393 0.83754 0.0
H373 H 0.57744 0.37248 0.85675 0.0
H374 H 0.57792 0.30881 0.8565 0.0
H375 H 0.6346 0.28061 0.8065 0.0
H376 H 0.64963 0.1036 0.81236 0.0
H377 H 0.65848 0.16873 0.81569 0.0
C378 C 0.67988 0.90716 0.50837 0.0
C379 C 0.65154 0.91902 0.51497 0.0
C380 C 0.67924 0.87034 0.50928 0.0
C381 C 0.64081 0.7863 0.53766 0.0
H382 H 0.66709 0.7383 0.49217 0.0
C383 C 0.62604 0.63354 0.54224 0.0
C384 C 0.65391 0.62083 0.53586 0.0
C385 C 0.62401 0.66901 0.53743 0.0
C386 C 0.66003 0.75139 0.50509 0.0
H387 H 0.6 0.90127 0.52736 0.0
H388 H 0.59909 0.83727 0.52903 0.0
H389 H 0.66762 0.80249 0.48834 0.0
H390 H 0.70075 0.63445 0.51884 0.0
H391 H 0.69788 0.6971 0.51081 0.0
H392 H 0.63403 0.73593 0.5547 0.0
C393 C 0.62188 0.85648 0.52327 0.0
C394 C 0.66028 0.78811 0.50287 0.0
C395 C 0.62238 0.89319 0.52224 0.0
C396 C 0.67892 0.64371 0.52381 0.0
C397 C 0.67718 0.6795 0.51921 0.0
C398 C 0.64082 0.74981 0.53995 0.0
C399 C 0.6504 0.84468 0.51696 0.0
C400 C 0.65047 0.80585 0.51911 0.0
C401 C 0.65016 0.69282 0.52643 0.0
C402 C 0.65018 0.73176 0.52366 0.0
H403 H 0.70269 0.9263 0.50261 0.0
H404 H 0.70171 0.86204 0.50444 0.0
H405 H 0.6338 0.7994 0.55061 0.0
H406 H 0.60621 0.61618 0.55135 0.0
H407 H 0.60226 0.67797 0.54273 0.0
C408 C 0.85252 0.58407 0.77968 0.0
C409 C 0.84642 0.60059 0.79758 0.0
C410 C 0.8861 0.59361 0.77217 0.0
C411 C 0.97882 0.65316 0.78234 0.0
H412 H 1.00316 0.56075 0.78636 0.0
C413 C 0.10026 0.62935 0.83245 0.0
C414 C 0.11201 0.59811 0.82988 0.0
C415 C 0.07368 0.63814 0.81819 0.0
C416 C 0.99738 0.58704 0.78451 0.0
H417 H 0.86943 0.6428 0.82014 0.0
H418 H 0.92779 0.65901 0.80734 0.0
H419 H 0.94193 0.56238 0.77819 0.0
H420 H 0.10761 0.55409 0.80863 0.0
H421 H 0.06352 0.5709 0.78329 0.0
H422 H 1.03447 0.6775 0.79002 0.0
C423 C 0.90678 0.639 0.79886 0.0
C424 C 0.96186 0.58795 0.77977 0.0
C425 C 0.87323 0.62955 0.80632 0.0
C426 C 0.09947 0.57836 0.81137 0.0
C427 C 0.0736 0.58771 0.79686 0.0
C428 C 1.01457 0.65228 0.78696 0.0
C429 C 0.9142 0.61964 0.78252 0.0
C430 C 0.95189 0.62075 0.77998 0.0
C431 C 1.05873 0.6163 0.80077 0.0
C432 C 1.02392 0.61897 0.78944 0.0
H433 H 0.83201 0.56223 0.77231 0.0
H434 H 0.89081 0.57871 0.75927 0.0
H435 H 0.972 0.67894 0.78215 0.0
H436 H 0.11016 0.64604 0.84607 0.0
H437 H 0.0631 0.66045 0.82182 0.0
C438 C 0.29736 0.77653 0.1459 0.0
C439 C 0.27239 0.77093 0.1608 0.0
C440 C 0.32927 0.8036 0.14869 0.0
C441 C 0.37017 0.88821 0.17756 0.0
H442 H 0.45934 0.8721 0.16379 0.0
C443 C 0.50541 0.98813 0.201 0.0
C444 C 0.52927 0.99728 0.18551 0.0
C445 C 0.47476 0.95967 0.19796 0.0
C446 C 0.43458 0.87709 0.16753 0.0
H447 H 0.26195 0.78841 0.19067 0.0
H448 H 0.3175 0.83525 0.19561 0.0
H449 H 0.40435 0.82409 0.15831 0.0
H450 H 0.54117 0.98291 0.15532 0.0
H451 H 0.48737 0.93309 0.14987 0.0
H452 H 0.40035 0.94106 0.1869 0.0
C453 C 0.31214 0.81945 0.1815 0.0
C454 C 0.40306 0.84963 0.16435 0.0
C455 C 0.28027 0.79257 0.17867 0.0
C456 C 0.52278 0.9766 0.16732 0.0
C457 C 0.49218 0.94801 0.1643 0.0
C458 C 0.40164 0.91555 0.18081 0.0
C459 C 0.33695 0.82552 0.16648 0.0
C460 C 0.37049 0.85482 0.16942 0.0
C461 C 0.4676 0.93953 0.17948 0.0
C462 C 0.43423 0.91029 0.17591 0.0
H463 H 0.29192 0.76044 0.1319 0.0
H464 H 0.34761 0.8078 0.1367 0.0
H465 H 0.34547 0.89344 0.18123 0.0
H466 H 0.5103 0.00327 0.21536 0.0
H467 H 0.4567 0.95335 0.21013 0.0
C468 C 0.62678 0.15406 0.49921 0.0
C469 C 0.65358 0.14148 0.51154 0.0
C470 C 0.6266 0.19061 0.49908 0.0
C471 C 0.65662 0.27152 0.53101 0.0
H472 H 0.64017 0.32317 0.47856 0.0
C473 C 0.66304 0.42428 0.52885 0.0
C474 C 0.63835 0.43653 0.51448 0.0
C475 C 0.66675 0.38895 0.528 0.0
C476 C 0.64435 0.30907 0.49338 0.0
H477 H 0.70133 0.15754 0.53336 0.0
H478 H 0.70071 0.22128 0.53328 0.0
H479 H 0.64286 0.26016 0.47795 0.0
H480 H 0.59695 0.42093 0.48878 0.0
H481 H 0.60272 0.35901 0.48755 0.0
H482 H 0.65715 0.31986 0.54655 0.0
C483 C 0.67986 0.20278 0.52373 0.0
C484 C 0.64601 0.273 0.493 0.0
C485 C 0.68029 0.16631 0.52368 0.0
C486 C 0.61685 0.41245 0.49965 0.0
C487 C 0.6203 0.37703 0.49892 0.0
C488 C 0.65459 0.30747 0.53142 0.0
C489 C 0.65299 0.21529 0.51145 0.0
C490 C 0.65208 0.25383 0.51181 0.0
C491 C 0.6453 0.36477 0.51309 0.0
C492 C 0.64833 0.32672 0.51261 0.0
H493 H 0.60586 0.1357 0.48963 0.0
H494 H 0.60539 0.19944 0.4896 0.0
H495 H 0.66088 0.25726 0.54577 0.0
H496 H 0.67946 0.44193 0.5408 0.0
H497 H 0.68651 0.38065 0.53905 0.0
C498 C 0.38504 0.52128 0.75755 0.0
C499 C 0.39989 0.49146 0.75753 0.0
C500 C 0.34884 0.51736 0.75131 0.0
C501 C 0.2737 0.44008 0.75785 0.0
H502 H 0.23044 0.51975 0.76223 0.0
C503 C 0.21116 0.45781 0.82965 0.0
C504 C 0.18348 0.47521 0.829 0.0
C505 C 0.22495 0.45271 0.81118 0.0
C506 C 0.24137 0.49678 0.7606 0.0
H507 H 0.39072 0.43685 0.74642 0.0
H508 H 0.32811 0.43068 0.73436 0.0
H509 H 0.27917 0.52695 0.74036 0.0
H510 H 0.14795 0.50052 0.8087 0.0
H511 H 0.17254 0.49204 0.77613 0.0
H512 H 0.23667 0.41041 0.77862 0.0
C513 C 0.3437 0.45643 0.74048 0.0
C514 C 0.26967 0.50103 0.74821 0.0
C515 C 0.37984 0.46011 0.74717 0.0
C516 C 0.16922 0.48681 0.80949 0.0
C517 C 0.18324 0.48196 0.79092 0.0
C518 C 0.24512 0.43567 0.76989 0.0
C519 C 0.32698 0.48358 0.74468 0.0
C520 C 0.28845 0.47398 0.74841 0.0
C521 C 0.21163 0.4653 0.79163 0.0
C522 C 0.23089 0.46504 0.7729 0.0
H523 H 0.40033 0.54635 0.76469 0.0
H524 H 0.33761 0.53949 0.75439 0.0
H525 H 0.28664 0.41811 0.75826 0.0
H526 H 0.22292 0.4492 0.84456 0.0
H527 H 0.24744 0.44064 0.8124 0.0
C528 C 0.91989 0.33146 0.16651 0.0
C529 C 0.94653 0.32255 0.15624 0.0
C530 C 0.88918 0.30505 0.17081 0.0
C531 C 0.85404 0.2054 0.17594 0.0
H532 H 0.76338 0.23037 0.17493 0.0
C533 C 0.72186 0.09989 0.19003 0.0
C534 C 0.70285 0.10959 0.20527 0.0
C535 C 0.75046 0.1254 0.18221 0.0
C536 C 0.78856 0.22307 0.17529 0.0
H537 H 0.96143 0.27856 0.14238 0.0
H538 H 0.90733 0.23293 0.14911 0.0
H539 H 0.81538 0.2757 0.16434 0.0
H540 H 0.69789 0.15363 0.22379 0.0
H541 H 0.74753 0.1983 0.20995 0.0
H542 H 0.82687 0.15259 0.18671 0.0
C543 C 0.91049 0.26023 0.15425 0.0
C544 C 0.81843 0.24906 0.16934 0.0
C545 C 0.94137 0.28658 0.15012 0.0
C546 C 0.71233 0.14541 0.21217 0.0
C547 C 0.74051 0.171 0.20413 0.0
C548 C 0.82405 0.1793 0.18164 0.0
C549 C 0.88407 0.26905 0.16478 0.0
C550 C 0.85172 0.24075 0.16989 0.0
C551 C 0.76008 0.16117 0.18924 0.0
C552 C 0.79115 0.18803 0.18166 0.0
H553 H 0.9226 0.35896 0.17116 0.0
H554 H 0.86972 0.31285 0.1792 0.0
H555 H 0.87927 0.19809 0.17689 0.0
H556 H 0.71512 0.0724 0.18452 0.0
H557 H 0.76502 0.11719 0.17065 0.0
C558 C 0.08295 0.54512 0.06924 0.0
C559 C 0.11204 0.56259 0.08314 0.0
C560 C 0.08448 0.54895 0.04749 0.0
C561 C 0.13721 0.60412 0.00636 0.0
H562 H 0.09251 0.52035 0.97235 0.0
C563 C 0.17017 0.58513 0.9222 0.0
C564 C 0.14091 0.57414 0.907 0.0
C565 C 0.16485 0.58661 0.94335 0.0
C566 C 0.1048 0.54405 0.98165 0.0
H567 H 0.16555 0.59779 0.08521 0.0
H568 H 0.16891 0.60332 0.04736 0.0
H569 H 0.08701 0.51702 0.01001 0.0
H570 H 0.08328 0.5561 0.90181 0.0
H571 H 0.07398 0.55782 0.93904 0.0
H572 H 0.15636 0.63035 0.97789 0.0
C573 C 0.14439 0.58755 0.05312 0.0
C574 C 0.10154 0.54228 0.00324 0.0
C575 C 0.1426 0.58421 0.07487 0.0
C576 C 0.10622 0.5649 0.91326 0.0
C577 C 0.10093 0.5657 0.93449 0.0
C578 C 0.14097 0.60562 0.98481 0.0
C579 C 0.1154 0.56983 0.03911 0.0
C580 C 0.11782 0.57225 0.01594 0.0
C581 C 0.13022 0.57643 0.94971 0.0
C582 C 0.1249 0.57556 0.9723 0.0
H583 H 1.05888 0.52856 0.07516 0.0
H584 H 1.0613 0.53554 0.03727 0.0
H585 H 0.1495 0.628 0.01547 0.0
H586 H 0.19715 0.59241 0.91769 0.0
H587 H 0.18785 0.59471 0.95483 0.0
C588 C 0.6734 0.06469 0.43829 0.0
C589 C 0.65309 0.03425 0.44852 0.0
C590 C 0.67216 0.06659 0.41633 0.0
C591 C 0.61789 0.02464 0.36805 0.0
H592 H 0.70295 0.07297 0.3417 0.0
C593 C 0.61465 0.05182 0.27813 0.0
C594 C 0.64478 0.05035 0.26835 0.0
C595 C 0.61541 0.04961 0.30007 0.0
C596 C 0.67901 0.05894 0.34874 0.0
H597 H 0.61614 0.98158 0.4438 0.0
H598 H 0.61501 0.98421 0.40564 0.0
H599 H 0.70538 0.0685 0.37979 0.0
H600 H 0.69884 0.04422 0.27368 0.0
H601 H 0.69988 0.03903 0.31186 0.0
H602 H 0.59197 0.01361 0.33699 0.0
C603 C 0.63104 0.0072 0.41443 0.0
C604 C 0.68025 0.05691 0.37068 0.0
C605 C 0.63188 0.00555 0.43636 0.0
C606 C 0.67541 0.04591 0.28087 0.0
C607 C 0.67602 0.04316 0.30276 0.0
C608 C 0.61677 0.02624 0.3461 0.0
C609 C 0.65099 0.03785 0.40409 0.0
C610 C 0.6497 0.03982 0.38066 0.0
C611 C 0.64617 0.04535 0.31271 0.0
C612 C 0.6473 0.04347 0.33613 0.0
H613 H 0.6898 0.08738 0.44722 0.0
H614 H 0.6874 0.09092 0.40898 0.0
H615 H 0.59363 0.01173 0.3751 0.0
H616 H 0.59081 0.05557 0.26881 0.0
H617 H 0.5921 0.052 0.30711 0.0
C618 C 0.6644 0.53505 0.76497 0.0
C619 C 0.63588 0.50877 0.77255 0.0
C620 C 0.66935 0.53738 0.74359 0.0
C621 C 0.64841 0.48527 0.69505 0.0
H622 H 0.66561 0.57973 0.66713 0.0
C623 C 0.64187 0.50474 0.60436 0.0
C624 C 0.665 0.5355 0.59613 0.0
C625 C 0.64049 0.4999 0.62612 0.0
C626 C 0.66146 0.55319 0.67471 0.0
H627 H 0.5904 0.46407 0.76361 0.0
H628 H 0.5992 0.46814 0.72629 0.0
H629 H 0.65911 0.57455 0.70465 0.0
H630 H 0.70627 0.58416 0.60406 0.0
H631 H 0.70468 0.57532 0.64199 0.0
H632 H 0.651 0.46388 0.66513 0.0
C633 C 0.61776 0.48681 0.73694 0.0
C634 C 0.65761 0.55025 0.69622 0.0
C635 C 0.61262 0.48467 0.7583 0.0
C636 C 0.68784 0.56047 0.61002 0.0
C637 C 0.68674 0.55548 0.63173 0.0
C638 C 0.65257 0.48822 0.67353 0.0
C639 C 0.64607 0.5133 0.72936 0.0
C640 C 0.65091 0.51628 0.7066 0.0
C641 C 0.66246 0.52559 0.64006 0.0
C642 C 0.65904 0.52223 0.66307 0.0
H643 H 0.68286 0.55399 0.77552 0.0
H644 H 0.69159 0.55786 0.7382 0.0
H645 H 0.64364 0.45876 0.70271 0.0
H646 H 0.62379 0.48525 0.59395 0.0
H647 H 0.62123 0.47676 0.63194 0.0
C648 C 0.6773 0.0127 0.59139 0.0
C649 C 0.65299 0.02798 0.57851 0.0
C650 C 0.67724 0.01145 0.61325 0.0
C651 C 0.6497 0.05305 0.65715 0.0
H652 H 0.6545 0.96306 0.68681 0.0
C653 C 0.62433 0.02514 0.74489 0.0
C654 C 0.64414 0.00392 0.75697 0.0
C655 C 0.62723 0.03064 0.72328 0.0
C656 C 0.65373 0.98861 0.67886 0.0
H657 H 0.60985 0.05442 0.57852 0.0
H658 H 0.6098 0.05222 0.61677 0.0
H659 H 0.6559 0.96755 0.64882 0.0
H660 H 0.68406 0.97366 0.7563 0.0
H661 H 0.68979 0.98386 0.71877 0.0
H662 H 0.64769 0.07417 0.68725 0.0
C663 C 0.62899 0.04136 0.6099 0.0
C664 C 0.65442 0.99111 0.65705 0.0
C665 C 0.62888 0.04239 0.588 0.0
C666 C 0.66805 0.98965 0.74726 0.0
C667 C 0.67117 0.99536 0.72575 0.0
C668 C 0.64922 0.05063 0.67903 0.0
C669 C 0.65302 0.02565 0.62275 0.0
C670 C 0.65241 0.02333 0.64595 0.0
C671 C 0.65021 0.01522 0.71338 0.0
C672 C 0.65126 0.01836 0.69015 0.0
H673 H 0.6963 0.00144 0.58461 0.0
H674 H 0.69634 0.99955 0.62276 0.0
H675 H 0.64846 0.07835 0.64902 0.0
H676 H 0.60551 0.03624 0.75198 0.0
H677 H 0.61046 0.04581 0.71422 0.0
C678 C 0.63182 0.48118 0.91687 0.0
C679 C 0.60837 0.49425 0.90203 0.0
C680 C 0.62842 0.48164 0.93839 0.0
C681 C 0.59795 0.53084 0.97667 0.0
H682 H 0.60066 0.44772 0.01366 0.0
C683 C 0.5899 0.53725 0.06585 0.0
C684 C 0.6126 0.52064 0.07921 0.0
C685 C 0.5848 0.53118 0.04421 0.0
C686 C 0.60025 0.47134 0.00361 0.0
H687 H 0.56284 0.51782 0.8981 0.0
H688 H 0.55741 0.51919 0.93572 0.0
H689 H 0.60145 0.44272 0.97584 0.0
H690 H 0.64627 0.48309 0.08032 0.0
H691 H 0.63885 0.47394 0.0427 0.0
H692 H 0.59834 0.56007 0.00431 0.0
C693 C 0.57823 0.50843 0.93065 0.0
C694 C 0.60055 0.46835 0.98195 0.0
C695 C 0.58127 0.50747 0.90913 0.0
C696 C 0.62917 0.49694 0.07047 0.0
C697 C 0.62441 0.49121 0.04886 0.0
C698 C 0.59816 0.534 -0.00165 0.0
C699 C 0.60186 0.49567 0.94547 0.0
C700 C 0.59969 0.49816 0.9683 0.0
C701 C 0.60252 0.50858 0.03537 0.0
C702 C 0.59966 0.50439 0.01216 0.0
H703 H 0.65289 0.47072 0.91189 0.0
H704 H 0.64714 0.47189 0.94952 0.0
H705 H 0.59764 0.55435 0.96649 0.0
H706 H 0.57683 0.55581 0.07199 0.0
H707 H 0.56724 0.54453 0.03439 0.0
C708 C 0.1163 0.49795 0.22349 0.0
C709 C 0.11265 0.53067 0.21354 0.0
C710 C 0.12033 0.49472 0.24546 0.0
C711 C 0.14917 0.54908 0.29304 0.0
H712 H 0.0945 0.46441 0.32142 0.0
C713 C 0.14127 0.54135 0.383 0.0
C714 C 0.1398 0.50779 0.39339 0.0
C715 C 0.13979 0.54418 0.36104 0.0
C716 C 0.1104 0.488 0.31376 0.0
H717 H 0.11022 0.58561 0.21892 0.0
H718 H 0.11721 0.57986 0.25714 0.0
H719 H 0.08809 0.46874 0.2831 0.0
H720 H 0.13736 0.45129 0.38912 0.0
H721 H 0.13545 0.45628 0.35088 0.0
H722 H 0.17166 0.56831 0.32365 0.0
C723 C 0.11722 0.55683 0.24796 0.0
C724 C 0.10664 0.49048 0.29179 0.0
C725 C 0.11293 0.55998 0.22604 0.0
C726 C 0.13795 0.47738 0.38147 0.0
C727 C 0.13672 0.48024 0.35957 0.0
C728 C 0.15311 0.54652 0.31501 0.0
C729 C 0.12108 0.52423 0.25791 0.0
C730 C 0.12582 0.52113 0.28121 0.0
C731 C 0.13708 0.51354 0.34905 0.0
C732 C 0.13365 0.51601 0.32565 0.0
H733 H 0.11621 0.47486 0.21433 0.0
H734 H 0.12348 0.46932 0.25271 0.0
H735 H 0.16468 0.57282 0.28529 0.0
H736 H 0.14238 0.56515 0.3918 0.0
H737 H 0.1397 0.57016 0.35345 0.0
loop_
_geom_bond_atom_site_label_1
_geom_bond_atom_site_label_2
_geom_bond_distance
_geom_bond_site_symmetry_2
_ccdc_geom_bond_type
Dy0 O3 2.307 1_455 S
Dy0 O5 2.395 . S
Dy0 O6 2.379 . S
Dy0 O8 2.339 . S
Dy0 O10 2.298 . S
Dy0 O14 2.275 . S
Dy0 C22 2.738 . S
Dy1 O4 2.298 1_455 S
Dy1 O7 2.275 . S
Dy1 O9 2.307 . S
Dy1 O11 2.395 1_455 S
Dy1 O12 2.379 1_455 S
Dy1 O15 2.339 . S
Dy1 C31 2.738 1_455 S
C2 O14 1.254 . S
C2 O15 1.257 . S
O3 Dy0 2.307 1_655 S
O3 C13 1.266 . S
O4 Dy1 2.298 1_655 S
O4 C13 1.236 . S
O5 Dy0 2.395 . S
O5 C22 1.255 . S
O6 Dy0 2.379 . S
O6 C22 1.249 . S
O7 Dy1 2.275 . S
O7 C23 1.254 . S
O8 Dy0 2.339 . S
O8 C23 1.257 . S
O9 Dy1 2.307 . S
O9 C24 1.266 . S
O10 Dy0 2.298 . S
O10 C24 1.236 . S
O11 Dy1 2.395 1_655 S
O11 C31 1.255 . S
O12 Dy1 2.379 1_655 S
O12 C31 1.249 . S
C13 O3 1.266 . S
C13 O4 1.236 . S
O14 Dy0 2.275 . S
O14 C2 1.254 . S
O15 Dy1 2.339 . S
O15 C2 1.257 . S
C16 C19 1.344 . S
C16 C20 1.328 . S
C16 C22 1.516 . S
C17 C18 1.304 . S
C17 C21 1.323 . S
C18 C17 1.304 . S
C18 C19 1.371 . S
C18 H32 0.930 . S
C19 C16 1.344 . S
C19 C18 1.371 . S
C19 H33 0.931 . S
C20 C16 1.328 . S
C20 C21 1.433 . S
C20 H34 0.931 . S
C21 C17 1.323 . S
C21 C20 1.433 . S
C21 H35 0.933 . S
C22 Dy0 2.738 . S
C22 O5 1.255 . S
C22 O6 1.249 . S
C22 C16 1.516 . S
C23 O7 1.254 . S
C23 O8 1.257 . S
C24 O9 1.266 . S
C24 O10 1.236 . S
C25 C28 1.344 . S
C25 C29 1.328 . S
C25 C31 1.516 . S
C26 C27 1.304 . S
C26 C30 1.323 . S
C27 C26 1.304 . S
C27 C28 1.371 . S
C27 H36 0.930 . S
C28 C25 1.344 . S
C28 C27 1.371 . S
C28 H37 0.931 . S
C29 C25 1.328 . S
C29 C30 1.433 . S
C29 H38 0.931 . S
C30 C26 1.323 . S
C30 C29 1.433 . S
C30 H39 0.933 . S
C31 Dy1 2.738 1_655 S
C31 O11 1.255 . S
C31 O12 1.249 . S
C31 C25 1.516 . S
H32 C18 0.930 . S
H33 C19 0.931 . S
H34 C20 0.931 . S
H35 C21 0.933 . S
H36 C27 0.930 . S
H37 C28 0.931 . S
H38 C29 0.931 . S
H39 C30 0.933 . S
Dy40 O43 2.307 . S
Dy40 O45 2.395 1_545 S
Dy40 O46 2.379 1_545 S
Dy40 O48 2.339 . S
Dy40 O50 2.298 1_545 S
Dy40 O54 2.275 . S
Dy40 C62 2.738 1_545 S
Dy41 O44 2.298 . S
Dy41 O47 2.275 . S
Dy41 O49 2.307 1_545 S
Dy41 O51 2.395 . S
Dy41 O52 2.379 . S
Dy41 O55 2.339 . S
Dy41 C71 2.738 . S
C42 O54 1.254 . S
C42 O55 1.257 . S
O43 Dy40 2.307 . S
O43 C53 1.266 . S
O44 Dy41 2.298 . S
O44 C53 1.236 . S
O45 Dy40 2.395 1_565 S
O45 C62 1.255 . S
O46 Dy40 2.379 1_565 S
O46 C62 1.249 . S
O47 Dy41 2.275 . S
O47 C63 1.254 . S
O48 Dy40 2.339 . S
O48 C63 1.257 . S
O49 Dy41 2.307 1_565 S
O49 C64 1.266 . S
O50 Dy40 2.298 1_565 S
O50 C64 1.236 . S
O51 Dy41 2.395 . S
O51 C71 1.255 . S
O52 Dy41 2.379 . S
O52 C71 1.249 . S
C53 O43 1.266 . S
C53 O44 1.236 . S
O54 Dy40 2.275 . S
O54 C42 1.254 . S
O55 Dy41 2.339 . S
O55 C42 1.257 . S
C56 C59 1.344 . S
C56 C60 1.328 . S
C56 C62 1.516 . S
C57 C58 1.304 . S
C57 C61 1.323 . S
C58 C57 1.304 . S
C58 C59 1.371 . S
C58 H72 0.930 . S
C59 C56 1.344 . S
C59 C58 1.371 . S
C59 H73 0.931 . S
C60 C56 1.328 . S
C60 C61 1.433 . S
C60 H74 0.931 . S
C61 C57 1.323 . S
C61 C60 1.433 . S
C61 H75 0.933 . S
C62 Dy40 2.738 1_565 S
C62 O45 1.255 . S
C62 O46 1.249 . S
C62 C56 1.516 . S
C63 O47 1.254 . S
C63 O48 1.257 . S
C64 O49 1.266 . S
C64 O50 1.236 . S
C65 C68 1.344 . S
C65 C69 1.328 . S
C65 C71 1.516 . S
C66 C67 1.304 . S
C66 C70 1.323 . S
C67 C66 1.304 . S
C67 C68 1.371 . S
C67 H76 0.930 . S
C68 C65 1.344 . S
C68 C67 1.371 . S
C68 H77 0.931 . S
C69 C65 1.328 . S
C69 C70 1.433 . S
C69 H78 0.931 . S
C70 C66 1.323 . S
C70 C69 1.433 . S
C70 H79 0.933 . S
C71 Dy41 2.738 . S
C71 O51 1.255 . S
C71 O52 1.249 . S
C71 C65 1.516 . S
H72 C58 0.930 . S
H73 C59 0.931 . S
H74 C60 0.931 . S
H75 C61 0.933 . S
H76 C67 0.930 . S
H77 C68 0.931 . S
H78 C69 0.931 . S
H79 C70 0.933 . S
Dy80 O83 2.307 . S
Dy80 O85 2.395 . S
Dy80 O86 2.379 . S
Dy80 O88 2.339 . S
Dy80 O90 2.298 . S
Dy80 O94 2.275 . S
Dy80 C102 2.738 . S
Dy81 O84 2.298 . S
Dy81 O87 2.275 . S
Dy81 O89 2.307 . S
Dy81 O91 2.395 . S
Dy81 O92 2.379 . S
Dy81 O95 2.339 . S
Dy81 C111 2.738 . S
C82 O94 1.254 . S
C82 O95 1.257 . S
O83 Dy80 2.307 . S
O83 C93 1.266 . S
O84 Dy81 2.298 . S
O84 C93 1.236 . S
O85 Dy80 2.395 . S
O85 C102 1.255 . S
O86 Dy80 2.379 . S
O86 C102 1.249 . S
O87 Dy81 2.275 . S
O87 C103 1.254 . S
O88 Dy80 2.339 . S
O88 C103 1.257 . S
O89 Dy81 2.307 . S
O89 C104 1.266 . S
O90 Dy80 2.298 . S
O90 C104 1.236 . S
O91 Dy81 2.395 . S
O91 C111 1.255 . S
O92 Dy81 2.379 . S
O92 C111 1.249 . S
C93 O83 1.266 . S
C93 O84 1.236 . S
O94 Dy80 2.275 . S
O94 C82 1.254 . S
O95 Dy81 2.339 . S
O95 C82 1.257 . S
C96 C99 1.344 . S
C96 C100 1.328 . S
C96 C102 1.516 . S
C97 C98 1.304 . S
C97 C101 1.323 . S
C98 C97 1.304 . S
C98 C99 1.371 . S
C98 H112 0.930 . S
C99 C96 1.344 . S
C99 C98 1.371 . S
C99 H113 0.931 . S
C100 C96 1.328 . S
C100 C101 1.433 . S
C100 H114 0.931 . S
C101 C97 1.323 . S
C101 C100 1.433 . S
C101 H115 0.933 . S
C102 Dy80 2.738 . S
C102 O85 1.255 . S
C102 O86 1.249 . S
C102 C96 1.516 . S
C103 O87 1.254 . S
C103 O88 1.257 . S
C104 O89 1.266 . S
C104 O90 1.236 . S
C105 C108 1.344 . S
C105 C109 1.328 . S
C105 C111 1.516 . S
C106 C107 1.304 . S
C106 C110 1.323 . S
C107 C106 1.304 . S
C107 C108 1.371 . S
C107 H116 0.930 . S
C108 C105 1.344 . S
C108 C107 1.371 . S
C108 H117 0.931 . S
C109 C105 1.328 . S
C109 C110 1.433 . S
C109 H118 0.931 . S
C110 C106 1.323 . S
C110 C109 1.433 . S
C110 H119 0.933 . S
C111 Dy81 2.738 . S
C111 O91 1.255 . S
C111 O92 1.249 . S
C111 C105 1.516 . S
H112 C98 0.930 . S
H113 C99 0.931 . S
H114 C100 0.931 . S
H115 C101 0.933 . S
H116 C107 0.930 . S
H117 C108 0.931 . S
H118 C109 0.931 . S
H119 C110 0.933 . S
H120 C127 0.929 . S
H121 C130 0.930 . S
H122 C132 0.929 . S
H123 C124 0.969 1_545 S
C124 H123 0.969 1_565 S
C124 O125 1.550 1_565 S
C124 H126 0.973 . S
O125 C124 1.550 1_545 S
O125 C131 1.412 . S
H126 C124 0.973 . S
C127 H120 0.929 . S
C127 C128 1.400 . S
C127 C129 1.364 . S
C128 C127 1.400 . S
C128 C132 1.377 . S
C129 C127 1.364 . S
C129 C130 1.374 . S
C130 H121 0.930 . S
C130 C129 1.374 . S
C130 C131 1.383 . S
C131 O125 1.412 . S
C131 C130 1.383 . S
C131 C132 1.394 . S
C132 H122 0.929 . S
C132 C128 1.377 . S
C132 C131 1.394 . S
H133 C140 0.929 . S
H134 C143 0.930 . S
H135 C145 0.929 . S
H136 C137 0.969 . S
C137 H136 0.969 . S
C137 O138 1.550 . S
C137 H139 0.973 . S
O138 C137 1.550 . S
O138 C144 1.412 . S
H139 C137 0.973 . S
C140 H133 0.929 . S
C140 C141 1.400 . S
C140 C142 1.364 . S
C141 C140 1.400 . S
C141 C145 1.377 . S
C142 C140 1.364 . S
C142 C143 1.374 . S
C143 H134 0.930 . S
C143 C142 1.374 . S
C143 C144 1.383 . S
C144 O138 1.412 . S
C144 C143 1.383 . S
C144 C145 1.394 . S
C145 H135 0.929 . S
C145 C141 1.377 . S
C145 C144 1.394 . S
H146 C153 0.929 . S
H147 C156 0.930 . S
H148 C158 0.929 . S
H149 C150 0.969 . S
C150 H149 0.969 . S
C150 O151 1.550 . S
C150 H152 0.973 . S
O151 C150 1.550 . S
O151 C157 1.412 . S
H152 C150 0.973 . S
C153 H146 0.929 . S
C153 C154 1.400 . S
C153 C155 1.364 . S
C154 C153 1.400 . S
C154 C158 1.377 . S
C155 C153 1.364 . S
C155 C156 1.374 . S
C156 H147 0.930 . S
C156 C155 1.374 . S
C156 C157 1.383 . S
C157 O151 1.412 . S
C157 C156 1.383 . S
C157 C158 1.394 . S
C158 H148 0.929 . S
C158 C154 1.377 . S
C158 C157 1.394 . S
H159 C166 0.929 . S
H160 C169 0.930 . S
H161 C171 0.929 . S
H162 C163 0.969 . S
C163 H162 0.969 . S
C163 O164 1.550 . S
C163 H165 0.973 . S
O164 C163 1.550 . S
O164 C170 1.412 . S
H165 C163 0.973 . S
C166 H159 0.929 . S
C166 C167 1.400 . S
C166 C168 1.364 . S
C167 C166 1.400 . S
C167 C171 1.377 . S
C168 C166 1.364 . S
C168 C169 1.374 . S
C169 H160 0.930 . S
C169 C168 1.374 . S
C169 C170 1.383 . S
C170 O164 1.412 . S
C170 C169 1.383 . S
C170 C171 1.394 . S
C171 H161 0.929 . S
C171 C167 1.377 . S
C171 C170 1.394 . S
H172 C179 0.929 . S
H173 C182 0.930 . S
H174 C184 0.929 . S
H175 C176 0.969 . S
C176 H175 0.969 . S
C176 O177 1.550 . S
C176 H178 0.973 . S
O177 C176 1.550 . S
O177 C183 1.412 . S
H178 C176 0.973 . S
C179 H172 0.929 . S
C179 C180 1.400 . S
C179 C181 1.364 1_565 S
C180 C179 1.400 . S
C180 C184 1.377 . S
C181 C179 1.364 1_545 S
C181 C182 1.374 . S
C182 H173 0.930 . S
C182 C181 1.374 . S
C182 C183 1.383 . S
C183 O177 1.412 . S
C183 C182 1.383 . S
C183 C184 1.394 1_545 S
C184 H174 0.929 . S
C184 C180 1.377 . S
C184 C183 1.394 1_565 S
H185 C192 0.929 . S
H186 C195 0.930 . S
H187 C197 0.929 . S
H188 C189 0.969 . S
C189 H188 0.969 . S
C189 O190 1.550 . S
C189 H191 0.973 . S
O190 C189 1.550 . S
O190 C196 1.412 . S
H191 C189 0.973 . S
C192 H185 0.929 . S
C192 C193 1.400 . S
C192 C194 1.364 . S
C193 C192 1.400 . S
C193 C197 1.377 . S
C194 C192 1.364 . S
C194 C195 1.374 . S
C195 H186 0.930 . S
C195 C194 1.374 . S
C195 C196 1.383 . S
C196 O190 1.412 . S
C196 C195 1.383 . S
C196 C197 1.394 . S
C197 H187 0.929 . S
C197 C193 1.377 . S
C197 C196 1.394 . S
C198 C199 1.349 . S
C198 C200 1.327 . S
C198 H223 0.950 . S
C199 C198 1.349 . S
C199 C215 1.349 . S
C200 C198 1.327 . S
C200 C219 1.429 . S
C200 H224 0.950 . S
C201 C218 1.574 . S
C201 C220 1.368 . S
C201 H225 0.949 . S
H202 C206 0.949 . S
C203 C204 1.349 . S
C203 C205 1.327 . S
C203 H226 0.950 . S
C204 C203 1.349 . S
C204 C216 1.349 . S
C205 C203 1.327 . S
C205 C221 1.429 . S
C205 H227 0.950 . S
C206 H202 0.949 . S
C206 C214 1.574 . S
C206 C222 1.368 . S
H207 C215 0.950 . S
H208 C213 0.950 . S
H209 C214 0.949 . S
H210 C216 0.950 . S
H211 C217 0.950 . S
H212 C218 0.949 . S
C213 H208 0.950 . S
C213 C215 1.327 . S
C213 C219 1.429 . S
C214 C206 1.574 . S
C214 H209 0.949 . S
C214 C220 1.368 . S
C215 C199 1.349 . S
C215 H207 0.950 . S
C215 C213 1.327 . S
C216 C204 1.349 . S
C216 H210 0.950 . S
C216 C217 1.327 . S
C217 H211 0.950 . S
C217 C216 1.327 . S
C217 C221 1.429 . S
C218 C201 1.574 . S
C218 H212 0.949 . S
C218 C222 1.368 . S
C219 C200 1.429 . S
C219 C213 1.429 . S
C219 C220 1.523 . S
C220 C201 1.368 . S
C220 C214 1.368 . S
C220 C219 1.523 . S
C221 C205 1.429 . S
C221 C217 1.429 . S
C221 C222 1.523 . S
C222 C206 1.368 . S
C222 C218 1.368 . S
C222 C221 1.523 . S
H223 C198 0.950 . S
H224 C200 0.950 . S
H225 C201 0.949 . S
H226 C203 0.950 . S
H227 C205 0.950 . S
C228 C229 1.349 . S
C228 C230 1.327 . S
C228 H253 0.950 . S
C229 C228 1.349 . S
C229 C245 1.349 . S
C230 C228 1.327 . S
C230 C249 1.429 . S
C230 H254 0.950 . S
C231 C248 1.574 . S
C231 C250 1.368 . S
C231 H255 0.949 . S
H232 C236 0.949 . S
C233 C234 1.349 1_655 S
C233 C235 1.327 . S
C233 H256 0.950 . S
C234 C233 1.349 1_455 S
C234 C246 1.349 . S
C235 C233 1.327 . S
C235 C251 1.429 . S
C235 H257 0.950 . S
C236 H232 0.949 . S
C236 C244 1.574 . S
C236 C252 1.368 . S
H237 C245 0.950 . S
H238 C243 0.950 . S
H239 C244 0.949 . S
H240 C246 0.950 . S
H241 C247 0.953 . S
H242 C248 0.949 . S
C243 H238 0.950 . S
C243 C245 1.327 . S
C243 C249 1.429 . S
C244 C236 1.574 . S
C244 H239 0.949 . S
C244 C250 1.368 . S
C245 C229 1.349 . S
C245 H237 0.950 . S
C245 C243 1.327 . S
C246 C234 1.349 . S
C246 H240 0.950 . S
C246 C247 1.327 1_455 S
C247 H241 0.953 . S
C247 C246 1.327 1_655 S
C247 C251 1.429 . S
C248 C231 1.574 . S
C248 H242 0.949 . S
C248 C252 1.368 . S
C249 C230 1.429 . S
C249 C243 1.429 . S
C249 C250 1.523 . S
C250 C231 1.368 . S
C250 C244 1.368 . S
C250 C249 1.523 . S
C251 C235 1.429 . S
C251 C247 1.429 . S
C251 C252 1.523 . S
C252 C236 1.368 . S
C252 C248 1.368 . S
C252 C251 1.523 . S
H253 C228 0.950 . S
H254 C230 0.950 . S
H255 C231 0.949 . S
H256 C233 0.950 . S
H257 C235 0.950 . S
C258 C259 1.349 . S
C258 C260 1.327 . S
C258 H283 0.950 . S
C259 C258 1.349 . S
C259 C275 1.349 . S
C260 C258 1.327 . S
C260 C279 1.429 . S
C260 H284 0.950 . S
C261 C278 1.574 . S
C261 C280 1.368 . S
C261 H285 0.949 . S
H262 C266 0.949 . S
C263 C264 1.349 . S
C263 C265 1.327 . S
C263 H286 0.950 . S
C264 C263 1.349 . S
C264 C276 1.349 . S
C265 C263 1.327 . S
C265 C281 1.429 . S
C265 H287 0.950 . S
C266 H262 0.949 . S
C266 C274 1.574 . S
C266 C282 1.368 . S
H267 C275 0.950 . S
H268 C273 0.950 . S
H269 C274 0.949 . S
H270 C276 0.950 . S
H271 C277 0.950 . S
H272 C278 0.949 . S
C273 H268 0.950 . S
C273 C275 1.327 . S
C273 C279 1.429 . S
C274 C266 1.574 . S
C274 H269 0.949 . S
C274 C280 1.368 . S
C275 C259 1.349 . S
C275 H267 0.950 . S
C275 C273 1.327 . S
C276 C264 1.349 . S
C276 H270 0.950 . S
C276 C277 1.327 . S
C277 H271 0.950 . S
C277 C276 1.327 . S
C277 C281 1.429 . S
C278 C261 1.574 . S
C278 H272 0.949 . S
C278 C282 1.368 . S
C279 C260 1.429 . S
C279 C273 1.429 . S
C279 C280 1.523 . S
C280 C261 1.368 . S
C280 C274 1.368 . S
C280 C279 1.523 . S
C281 C265 1.429 . S
C281 C277 1.429 . S
C281 C282 1.523 . S
C282 C266 1.368 . S
C282 C278 1.368 . S
C282 C281 1.523 . S
H283 C258 0.950 . S
H284 C260 0.950 . S
H285 C261 0.949 . S
H286 C263 0.950 . S
H287 C265 0.950 . S
C288 C289 1.349 . S
C288 C290 1.327 . S
C288 H313 0.950 . S
C289 C288 1.349 . S
C289 C305 1.349 . S
C290 C288 1.327 . S
C290 C309 1.429 . S
C290 H314 0.950 . S
C291 C308 1.574 . S
C291 C310 1.368 . S
C291 H315 0.949 . S
H292 C296 0.949 . S
C293 C294 1.349 . S
C293 C295 1.327 . S
C293 H316 0.950 . S
C294 C293 1.349 . S
C294 C306 1.349 . S
C295 C293 1.327 . S
C295 C311 1.429 . S
C295 H317 0.950 . S
C296 H292 0.949 . S
C296 C304 1.574 . S
C296 C312 1.368 . S
H297 C305 0.950 . S
H298 C303 0.950 . S
H299 C304 0.949 . S
H300 C306 0.950 . S
H301 C307 0.950 . S
H302 C308 0.949 . S
C303 H298 0.950 . S
C303 C305 1.327 . S
C303 C309 1.429 . S
C304 C296 1.574 . S
C304 H299 0.949 . S
C304 C310 1.368 . S
C305 C289 1.349 . S
C305 H297 0.950 . S
C305 C303 1.327 . S
C306 C294 1.349 . S
C306 H300 0.950 . S
C306 C307 1.327 . S
C307 H301 0.950 . S
C307 C306 1.327 . S
C307 C311 1.429 . S
C308 C291 1.574 . S
C308 H302 0.949 . S
C308 C312 1.368 . S
C309 C290 1.429 . S
C309 C303 1.429 . S
C309 C310 1.523 . S
C310 C291 1.368 . S
C310 C304 1.368 . S
C310 C309 1.523 . S
C311 C295 1.429 . S
C311 C307 1.429 . S
C311 C312 1.523 . S
C312 C296 1.368 . S
C312 C308 1.368 . S
C312 C311 1.523 . S
H313 C288 0.950 . S
H314 C290 0.950 . S
H315 C291 0.949 . S
H316 C293 0.950 . S
H317 C295 0.950 . S
C318 C319 1.349 . S
C318 C320 1.327 . S
C318 H343 0.950 . S
C319 C318 1.349 . S
C319 C335 1.349 . S
C320 C318 1.327 . S
C320 C339 1.429 . S
C320 H344 0.950 . S
C321 C338 1.574 . S
C321 C340 1.368 . S
C321 H345 0.949 . S
H322 C326 0.949 . S
C323 C324 1.349 . S
C323 C325 1.327 . S
C323 H346 0.950 . S
C324 C323 1.349 . S
C324 C336 1.349 . S
C325 C323 1.327 . S
C325 C341 1.429 . S
C325 H347 0.950 . S
C326 H322 0.949 . S
C326 C334 1.574 . S
C326 C342 1.368 . S
H327 C335 0.950 . S
H328 C333 0.950 . S
H329 C334 0.949 . S
H330 C336 0.950 . S
H331 C337 0.950 . S
H332 C338 0.949 . S
C333 H328 0.950 . S
C333 C335 1.327 . S
C333 C339 1.429 . S
C334 C326 1.574 . S
C334 H329 0.949 . S
C334 C340 1.368 . S
C335 C319 1.349 . S
C335 H327 0.950 . S
C335 C333 1.327 . S
C336 C324 1.349 . S
C336 H330 0.950 . S
C336 C337 1.327 . S
C337 H331 0.950 . S
C337 C336 1.327 . S
C337 C341 1.429 . S
C338 C321 1.574 . S
C338 H332 0.949 . S
C338 C342 1.368 . S
C339 C320 1.429 . S
C339 C333 1.429 . S
C339 C340 1.523 . S
C340 C321 1.368 . S
C340 C334 1.368 . S
C340 C339 1.523 . S
C341 C325 1.429 . S
C341 C337 1.429 . S
C341 C342 1.523 . S
C342 C326 1.368 . S
C342 C338 1.368 . S
C342 C341 1.523 . S
H343 C318 0.950 . S
H344 C320 0.950 . S
H345 C321 0.949 . S
H346 C323 0.950 . S
H347 C325 0.950 . S
C348 C349 1.349 . S
C348 C350 1.327 . S
C348 H373 0.950 . S
C349 C348 1.349 . S
C349 C365 1.349 . S
C350 C348 1.327 . S
C350 C369 1.429 . S
C350 H374 0.950 . S
C351 C368 1.574 . S
C351 C370 1.368 . S
C351 H375 0.949 . S
H352 C356 0.949 . S
C353 C354 1.349 . S
C353 C355 1.327 . S
C353 H376 0.950 . S
C354 C353 1.349 . S
C354 C366 1.349 . S
C355 C353 1.327 . S
C355 C371 1.429 . S
C355 H377 0.950 . S
C356 H352 0.949 . S
C356 C364 1.574 . S
C356 C372 1.368 . S
H357 C365 0.950 . S
H358 C363 0.950 . S
H359 C364 0.949 . S
H360 C366 0.950 . S
H361 C367 0.950 . S
H362 C368 0.949 . S
C363 H358 0.950 . S
C363 C365 1.327 . S
C363 C369 1.429 . S
C364 C356 1.574 . S
C364 H359 0.949 . S
C364 C370 1.368 . S
C365 C349 1.349 . S
C365 H357 0.950 . S
C365 C363 1.327 . S
C366 C354 1.349 . S
C366 H360 0.950 . S
C366 C367 1.327 . S
C367 H361 0.950 . S
C367 C366 1.327 . S
C367 C371 1.429 . S
C368 C351 1.574 . S
C368 H362 0.949 . S
C368 C372 1.368 . S
C369 C350 1.429 . S
C369 C363 1.429 . S
C369 C370 1.523 . S
C370 C351 1.368 . S
C370 C364 1.368 . S
C370 C369 1.523 . S
C371 C355 1.429 . S
C371 C367 1.429 . S
C371 C372 1.523 . S
C372 C356 1.368 . S
C372 C368 1.368 . S
C372 C371 1.523 . S
H373 C348 0.950 . S
H374 C350 0.950 . S
H375 C351 0.949 . S
H376 C353 0.950 . S
H377 C355 0.950 . S
C378 C379 1.349 . S
C378 C380 1.327 . S
C378 H403 0.950 . S
C379 C378 1.349 . S
C379 C395 1.349 . S
C380 C378 1.327 . S
C380 C399 1.429 . S
C380 H404 0.950 . S
C381 C398 1.574 . S
C381 C400 1.368 . S
C381 H405 0.949 . S
H382 C386 0.949 . S
C383 C384 1.349 . S
C383 C385 1.327 . S
C383 H406 0.950 . S
C384 C383 1.349 . S
C384 C396 1.349 . S
C385 C383 1.327 . S
C385 C401 1.429 . S
C385 H407 0.950 . S
C386 H382 0.949 . S
C386 C394 1.574 . S
C386 C402 1.368 . S
H387 C395 0.950 . S
H388 C393 0.950 . S
H389 C394 0.949 . S
H390 C396 0.950 . S
H391 C397 0.950 . S
H392 C398 0.949 . S
C393 H388 0.950 . S
C393 C395 1.327 . S
C393 C399 1.429 . S
C394 C386 1.574 . S
C394 H389 0.949 . S
C394 C400 1.368 . S
C395 C379 1.349 . S
C395 H387 0.950 . S
C395 C393 1.327 . S
C396 C384 1.349 . S
C396 H390 0.950 . S
C396 C397 1.327 . S
C397 H391 0.950 . S
C397 C396 1.327 . S
C397 C401 1.429 . S
C398 C381 1.574 . S
C398 H392 0.949 . S
C398 C402 1.368 . S
C399 C380 1.429 . S
C399 C393 1.429 . S
C399 C400 1.523 . S
C400 C381 1.368 . S
C400 C394 1.368 . S
C400 C399 1.523 . S
C401 C385 1.429 . S
C401 C397 1.429 . S
C401 C402 1.523 . S
C402 C386 1.368 . S
C402 C398 1.368 . S
C402 C401 1.523 . S
H403 C378 0.950 . S
H404 C380 0.950 . S
H405 C381 0.949 . S
H406 C383 0.950 . S
H407 C385 0.950 . S
C408 C409 1.349 . S
C408 C410 1.327 . S
C408 H433 0.950 . S
C409 C408 1.349 . S
C409 C425 1.349 . S
C410 C408 1.327 . S
C410 C429 1.429 . S
C410 H434 0.950 . S
C411 C428 1.574 . S
C411 C430 1.368 . S
C411 H435 0.949 . S
H412 C416 0.949 . S
C413 C414 1.349 . S
C413 C415 1.327 1_455 S
C413 H436 0.950 . S
C414 C413 1.349 . S
C414 C426 1.349 . S
C415 C413 1.327 1_655 S
C415 C431 1.429 . S
C415 H437 0.950 . S
C416 H412 0.949 . S
C416 C424 1.574 . S
C416 C432 1.368 . S
H417 C425 0.950 . S
H418 C423 0.950 . S
H419 C424 0.949 . S
H420 C426 0.950 . S
H421 C427 0.950 . S
H422 C428 0.949 . S
C423 H418 0.950 . S
C423 C425 1.327 . S
C423 C429 1.429 . S
C424 C416 1.574 . S
C424 H419 0.949 . S
C424 C430 1.368 . S
C425 C409 1.349 . S
C425 H417 0.950 . S
C425 C423 1.327 . S
C426 C414 1.349 . S
C426 H420 0.950 . S
C426 C427 1.327 1_455 S
C427 H421 0.950 . S
C427 C426 1.327 1_655 S
C427 C431 1.429 . S
C428 C411 1.574 . S
C428 H422 0.949 . S
C428 C432 1.368 . S
C429 C410 1.429 . S
C429 C423 1.429 . S
C429 C430 1.523 . S
C430 C411 1.368 . S
C430 C424 1.368 . S
C430 C429 1.523 . S
C431 C415 1.429 . S
C431 C427 1.429 . S
C431 C432 1.523 . S
C432 C416 1.368 . S
C432 C428 1.368 . S
C432 C431 1.523 . S
H433 C408 0.950 . S
H434 C410 0.950 . S
H435 C411 0.949 . S
H436 C413 0.950 . S
H437 C415 0.950 . S
C438 C439 1.349 . S
C438 C440 1.327 . S
C438 H463 0.950 . S
C439 C438 1.349 . S
C439 C455 1.349 . S
C440 C438 1.327 . S
C440 C459 1.429 . S
C440 H464 0.950 . S
C441 C458 1.574 . S
C441 C460 1.368 . S
C441 H465 0.949 . S
H442 C446 0.949 . S
C443 C444 1.349 . S
C443 C445 1.327 . S
C443 H466 0.950 . S
C444 C443 1.349 . S
C444 C456 1.349 . S
C445 C443 1.327 . S
C445 C461 1.429 . S
C445 H467 0.950 . S
C446 H442 0.949 . S
C446 C454 1.574 . S
C446 C462 1.368 . S
H447 C455 0.950 . S
H448 C453 0.950 . S
H449 C454 0.949 . S
H450 C456 0.950 . S
H451 C457 0.950 . S
H452 C458 0.949 . S
C453 H448 0.950 . S
C453 C455 1.327 . S
C453 C459 1.429 . S
C454 C446 1.574 . S
C454 H449 0.949 . S
C454 C460 1.368 . S
C455 C439 1.349 . S
C455 H447 0.950 . S
C455 C453 1.327 . S
C456 C444 1.349 . S
C456 H450 0.950 . S
C456 C457 1.327 . S
C457 H451 0.950 . S
C457 C456 1.327 . S
C457 C461 1.429 . S
C458 C441 1.574 . S
C458 H452 0.949 . S
C458 C462 1.368 . S
C459 C440 1.429 . S
C459 C453 1.429 . S
C459 C460 1.523 . S
C460 C441 1.368 . S
C460 C454 1.368 . S
C460 C459 1.523 . S
C461 C445 1.429 . S
C461 C457 1.429 . S
C461 C462 1.523 . S
C462 C446 1.368 . S
C462 C458 1.368 . S
C462 C461 1.523 . S
H463 C438 0.950 . S
H464 C440 0.950 . S
H465 C441 0.949 . S
H466 C443 0.950 . S
H467 C445 0.950 . S
C468 C469 1.349 . S
C468 C470 1.327 . S
C468 H493 0.950 . S
C469 C468 1.349 . S
C469 C485 1.349 . S
C470 C468 1.327 . S
C470 C489 1.429 . S
C470 H494 0.950 . S
C471 C488 1.574 . S
C471 C490 1.368 . S
C471 H495 0.949 . S
H472 C476 0.949 . S
C473 C474 1.349 . S
C473 C475 1.327 . S
C473 H496 0.950 . S
C474 C473 1.349 . S
C474 C486 1.349 . S
C475 C473 1.327 . S
C475 C491 1.429 . S
C475 H497 0.950 . S
C476 H472 0.949 . S
C476 C484 1.574 . S
C476 C492 1.368 . S
H477 C485 0.950 . S
H478 C483 0.950 . S
H479 C484 0.949 . S
H480 C486 0.950 . S
H481 C487 0.950 . S
H482 C488 0.949 . S
C483 H478 0.950 . S
C483 C485 1.327 . S
C483 C489 1.429 . S
C484 C476 1.574 . S
C484 H479 0.949 . S
C484 C490 1.368 . S
C485 C469 1.349 . S
C485 H477 0.950 . S
C485 C483 1.327 . S
C486 C474 1.349 . S
C486 H480 0.950 . S
C486 C487 1.327 . S
C487 H481 0.950 . S
C487 C486 1.327 . S
C487 C491 1.429 . S
C488 C471 1.574 . S
C488 H482 0.949 . S
C488 C492 1.368 . S
C489 C470 1.429 . S
C489 C483 1.429 . S
C489 C490 1.523 . S
C490 C471 1.368 . S
C490 C484 1.368 . S
C490 C489 1.523 . S
C491 C475 1.429 . S
C491 C487 1.429 . S
C491 C492 1.523 . S
C492 C476 1.368 . S
C492 C488 1.368 . S
C492 C491 1.523 . S
H493 C468 0.950 . S
H494 C470 0.950 . S
H495 C471 0.949 . S
H496 C473 0.950 . S
H497 C475 0.950 . S
C498 C499 1.349 . S
C498 C500 1.327 . S
C498 H523 0.950 . S
C499 C498 1.349 . S
C499 C515 1.349 . S
C500 C498 1.327 . S
C500 C519 1.429 . S
C500 H524 0.950 . S
C501 C518 1.574 . S
C501 C520 1.368 . S
C501 H525 0.949 . S
H502 C506 0.949 . S
C503 C504 1.349 . S
C503 C505 1.327 . S
C503 H526 0.950 . S
C504 C503 1.349 . S
C504 C516 1.349 . S
C505 C503 1.327 . S
C505 C521 1.429 . S
C505 H527 0.950 . S
C506 H502 0.949 . S
C506 C514 1.574 . S
C506 C522 1.368 . S
H507 C515 0.950 . S
H508 C513 0.950 . S
H509 C514 0.949 . S
H510 C516 0.950 . S
H511 C517 0.950 . S
H512 C518 0.949 . S
C513 H508 0.950 . S
C513 C515 1.327 . S
C513 C519 1.429 . S
C514 C506 1.574 . S
C514 H509 0.949 . S
C514 C520 1.368 . S
C515 C499 1.349 . S
C515 H507 0.950 . S
C515 C513 1.327 . S
C516 C504 1.349 . S
C516 H510 0.950 . S
C516 C517 1.327 . S
C517 H511 0.950 . S
C517 C516 1.327 . S
C517 C521 1.429 . S
C518 C501 1.574 . S
C518 H512 0.949 . S
C518 C522 1.368 . S
C519 C500 1.429 . S
C519 C513 1.429 . S
C519 C520 1.523 . S
C520 C501 1.368 . S
C520 C514 1.368 . S
C520 C519 1.523 . S
C521 C505 1.429 . S
C521 C517 1.429 . S
C521 C522 1.523 . S
C522 C506 1.368 . S
C522 C518 1.368 . S
C522 C521 1.523 . S
H523 C498 0.950 . S
H524 C500 0.950 . S
H525 C501 0.949 . S
H526 C503 0.950 . S
H527 C505 0.950 . S
C528 C529 1.349 . S
C528 C530 1.327 . S
C528 H553 0.950 . S
C529 C528 1.349 . S
C529 C545 1.349 . S
C530 C528 1.327 . S
C530 C549 1.429 . S
C530 H554 0.950 . S
C531 C548 1.574 . S
C531 C550 1.368 . S
C531 H555 0.949 . S
H532 C536 0.949 . S
C533 C534 1.349 . S
C533 C535 1.327 . S
C533 H556 0.950 . S
C534 C533 1.349 . S
C534 C546 1.349 . S
C535 C533 1.327 . S
C535 C551 1.429 . S
C535 H557 0.950 . S
C536 H532 0.949 . S
C536 C544 1.574 . S
C536 C552 1.368 . S
H537 C545 0.950 . S
H538 C543 0.950 . S
H539 C544 0.949 . S
H540 C546 0.950 . S
H541 C547 0.950 . S
H542 C548 0.949 . S
C543 H538 0.950 . S
C543 C545 1.327 . S
C543 C549 1.429 . S
C544 C536 1.574 . S
C544 H539 0.949 . S
C544 C550 1.368 . S
C545 C529 1.349 . S
C545 H537 0.950 . S
C545 C543 1.327 . S
C546 C534 1.349 . S
C546 H540 0.950 . S
C546 C547 1.327 . S
C547 H541 0.950 . S
C547 C546 1.327 . S
C547 C551 1.429 . S
C548 C531 1.574 . S
C548 H542 0.949 . S
C548 C552 1.368 . S
C549 C530 1.429 . S
C549 C543 1.429 . S
C549 C550 1.523 . S
C550 C531 1.368 . S
C550 C544 1.368 . S
C550 C549 1.523 . S
C551 C535 1.429 . S
C551 C547 1.429 . S
C551 C552 1.523 . S
C552 C536 1.368 . S
C552 C548 1.368 . S
C552 C551 1.523 . S
H553 C528 0.950 . S
H554 C530 0.950 . S
H555 C531 0.949 . S
H556 C533 0.950 . S
H557 C535 0.950 . S
C558 C559 1.349 . S
C558 C560 1.327 . S
C558 H583 0.950 1_455 S
C559 C558 1.349 . S
C559 C575 1.349 . S
C560 C558 1.327 . S
C560 C579 1.429 . S
C560 H584 0.950 1_455 S
C561 C578 1.574 . S
C561 C580 1.368 . S
C561 H585 0.949 . S
H562 C566 0.986 . S
C563 C564 1.349 . S
C563 C565 1.327 . S
C563 H586 0.950 . S
C564 C563 1.349 . S
C564 C576 1.349 . S
C565 C563 1.327 . S
C565 C581 1.429 . S
C565 H587 0.950 . S
C566 H562 0.986 . S
C566 C574 1.518 1_556 S
C566 C582 1.385 . S
H567 C575 0.950 . S
H568 C573 0.950 . S
H569 C574 0.936 1_655 S
H570 C576 0.950 . S
H571 C577 0.950 . S
H572 C578 0.935 1_556 S
C573 H568 0.950 . S
C573 C575 1.327 . S
C573 C579 1.429 . S
C574 C566 1.518 1_554 S
C574 H569 0.936 1_455 S
C574 C580 1.368 . S
C575 C559 1.349 . S
C575 H567 0.950 . S
C575 C573 1.327 . S
C576 C564 1.349 . S
C576 H570 0.950 . S
C576 C577 1.327 . S
C577 H571 0.950 . S
C577 C576 1.327 . S
C577 C581 1.429 . S
C578 C561 1.574 . S
C578 H572 0.935 1_554 S
C578 C582 1.368 1_554 S
C579 C560 1.429 . S
C579 C573 1.429 . S
C579 C580 1.523 . S
C580 C561 1.368 . S
C580 C574 1.368 . S
C580 C579 1.523 . S
C581 C565 1.429 . S
C581 C577 1.429 . S
C581 C582 1.523 . S
C582 C566 1.385 . S
C582 C578 1.368 1_556 S
C582 C581 1.523 . S
H583 C558 0.950 1_655 S
H584 C560 0.950 1_655 S
H585 C561 0.949 . S
H586 C563 0.950 . S
H587 C565 0.950 . S
C588 C589 1.349 . S
C588 C590 1.327 . S
C588 H613 0.950 . S
C589 C588 1.349 . S
C589 C605 1.349 . S
C590 C588 1.327 . S
C590 C609 1.429 . S
C590 H614 0.950 . S
C591 C608 1.574 . S
C591 C610 1.368 . S
C591 H615 0.949 1_545 S
H592 C596 0.949 . S
C593 C594 1.349 . S
C593 C595 1.327 . S
C593 H616 0.950 . S
C594 C593 1.349 . S
C594 C606 1.349 . S
C595 C593 1.327 . S
C595 C611 1.429 . S
C595 H617 0.961 . S
C596 H592 0.949 . S
C596 C604 1.574 . S
C596 C612 1.368 . S
H597 C605 0.950 1_565 S
H598 C603 0.950 1_565 S
H599 C604 0.949 . S
H600 C606 0.950 . S
H601 C607 0.950 . S
H602 C608 0.949 1_565 S
C603 H598 0.950 1_545 S
C603 C605 1.327 . S
C603 C609 1.429 . S
C604 C596 1.574 . S
C604 H599 0.949 . S
C604 C610 1.368 . S
C605 C589 1.349 . S
C605 H597 0.950 1_545 S
C605 C603 1.327 . S
C606 C594 1.349 . S
C606 H600 0.950 . S
C606 C607 1.327 . S
C607 H601 0.950 . S
C607 C606 1.327 . S
C607 C611 1.429 . S
C608 C591 1.574 . S
C608 H602 0.949 1_545 S
C608 C612 1.368 . S
C609 C590 1.429 . S
C609 C603 1.429 . S
C609 C610 1.523 . S
C610 C591 1.368 . S
C610 C604 1.368 . S
C610 C609 1.523 . S
C611 C595 1.429 . S
C611 C607 1.429 . S
C611 C612 1.523 . S
C612 C596 1.368 . S
C612 C608 1.368 . S
C612 C611 1.523 . S
H613 C588 0.950 . S
H614 C590 0.950 . S
H615 C591 0.949 1_565 S
H616 C593 0.950 . S
H617 C595 0.961 . S
C618 C619 1.349 . S
C618 C620 1.327 . S
C618 H643 0.950 . S
C619 C618 1.349 . S
C619 C635 1.349 . S
C620 C618 1.327 . S
C620 C639 1.429 . S
C620 H644 0.950 . S
C621 C638 1.574 . S
C621 C640 1.368 . S
C621 H645 0.949 . S
H622 C626 0.949 . S
C623 C624 1.349 . S
C623 C625 1.327 . S
C623 H646 0.950 . S
C624 C623 1.349 . S
C624 C636 1.349 . S
C625 C623 1.327 . S
C625 C641 1.429 . S
C625 H647 0.950 . S
C626 H622 0.949 . S
C626 C634 1.574 . S
C626 C642 1.368 . S
H627 C635 0.950 . S
H628 C633 0.950 . S
H629 C634 0.949 . S
H630 C636 0.950 . S
H631 C637 0.950 . S
H632 C638 0.949 . S
C633 H628 0.950 . S
C633 C635 1.327 . S
C633 C639 1.429 . S
C634 C626 1.574 . S
C634 H629 0.949 . S
C634 C640 1.368 . S
C635 C619 1.349 . S
C635 H627 0.950 . S
C635 C633 1.327 . S
C636 C624 1.349 . S
C636 H630 0.950 . S
C636 C637 1.327 . S
C637 H631 0.950 . S
C637 C636 1.327 . S
C637 C641 1.429 . S
C638 C621 1.574 . S
C638 H632 0.949 . S
C638 C642 1.368 . S
C639 C620 1.429 . S
C639 C633 1.429 . S
C639 C640 1.523 . S
C640 C621 1.368 . S
C640 C634 1.368 . S
C640 C639 1.523 . S
C641 C625 1.429 . S
C641 C637 1.429 . S
C641 C642 1.523 . S
C642 C626 1.368 . S
C642 C638 1.368 . S
C642 C641 1.523 . S
H643 C618 0.950 . S
H644 C620 0.950 . S
H645 C621 0.949 . S
H646 C623 0.950 . S
H647 C625 0.950 . S
C648 C649 1.349 1_565 S
C648 C650 1.327 . S
C648 H673 0.950 . S
C649 C648 1.349 1_545 S
C649 C665 1.349 . S
C650 C648 1.327 . S
C650 C669 1.429 1_565 S
C650 H674 0.950 . S
C651 C668 1.574 . S
C651 C670 1.368 . S
C651 H675 0.949 . S
H652 C656 0.949 . S
C653 C654 1.349 . S
C653 C655 1.327 . S
C653 H676 0.950 . S
C654 C653 1.349 . S
C654 C666 1.349 1_545 S
C655 C653 1.327 . S
C655 C671 1.429 . S
C655 H677 0.950 . S
C656 H652 0.949 . S
C656 C664 1.574 . S
C656 C672 1.368 1_565 S
H657 C665 0.950 . S
H658 C663 0.950 . S
H659 C664 0.949 . S
H660 C666 0.950 . S
H661 C667 0.950 . S
H662 C668 0.949 . S
C663 H658 0.950 . S
C663 C665 1.327 . S
C663 C669 1.429 . S
C664 C656 1.574 . S
C664 H659 0.949 . S
C664 C670 1.368 1_565 S
C665 C649 1.349 . S
C665 H657 0.950 . S
C665 C663 1.327 . S
C666 C654 1.349 1_565 S
C666 H660 0.950 . S
C666 C667 1.327 . S
C667 H661 0.950 . S
C667 C666 1.327 . S
C667 C671 1.429 1_565 S
C668 C651 1.574 . S
C668 H662 0.949 . S
C668 C672 1.368 . S
C669 C650 1.429 1_545 S
C669 C663 1.429 . S
C669 C670 1.523 . S
C670 C651 1.368 . S
C670 C664 1.368 1_545 S
C670 C669 1.523 . S
C671 C655 1.429 . S
C671 C667 1.429 1_545 S
C671 C672 1.523 . S
C672 C656 1.368 1_545 S
C672 C668 1.368 . S
C672 C671 1.523 . S
H673 C648 0.950 . S
H674 C650 0.950 . S
H675 C651 0.949 . S
H676 C653 0.950 . S
H677 C655 0.950 . S
C678 C679 1.349 . S
C678 C680 1.327 . S
C678 H703 0.950 . S
C679 C678 1.349 . S
C679 C695 1.349 . S
C680 C678 1.327 . S
C680 C699 1.429 . S
C680 H704 0.950 . S
C681 C698 1.574 . S
C681 C700 1.368 . S
C681 H705 0.949 . S
H682 C686 0.949 1_554 S
C683 C684 1.349 . S
C683 C685 1.327 . S
C683 H706 0.950 . S
C684 C683 1.349 . S
C684 C696 1.349 . S
C685 C683 1.327 . S
C685 C701 1.429 . S
C685 H707 0.950 . S
C686 H682 0.949 1_556 S
C686 C694 1.574 . S
C686 C702 1.368 1_556 S
H687 C695 0.950 . S
H688 C693 0.950 . S
H689 C694 0.949 . S
H690 C696 0.950 . S
H691 C697 0.950 . S
H692 C698 0.949 . S
C693 H688 0.950 . S
C693 C695 1.327 . S
C693 C699 1.429 . S
C694 C686 1.574 . S
C694 H689 0.949 . S
C694 C700 1.368 . S
C695 C679 1.349 . S
C695 H687 0.950 . S
C695 C693 1.327 . S
C696 C684 1.349 . S
C696 H690 0.950 . S
C696 C697 1.327 . S
C697 H691 0.950 . S
C697 C696 1.327 . S
C697 C701 1.429 . S
C698 C681 1.574 . S
C698 H692 0.949 . S
C698 C702 1.368 1_556 S
C699 C680 1.429 . S
C699 C693 1.429 . S
C699 C700 1.523 . S
C700 C681 1.368 . S
C700 C694 1.368 . S
C700 C699 1.523 . S
C701 C685 1.429 . S
C701 C697 1.429 . S
C701 C702 1.523 . S
C702 C686 1.368 1_554 S
C702 C698 1.368 1_554 S
C702 C701 1.523 . S
H703 C678 0.950 . S
H704 C680 0.950 . S
H705 C681 0.949 . S
H706 C683 0.950 . S
H707 C685 0.950 . S
C708 C709 1.349 . S
C708 C710 1.327 . S
C708 H733 0.950 . S
C709 C708 1.349 . S
C709 C725 1.349 . S
C710 C708 1.327 . S
C710 C729 1.429 . S
C710 H734 0.950 . S
C711 C728 1.574 . S
C711 C730 1.368 . S
C711 H735 0.949 . S
H712 C716 0.949 . S
C713 C714 1.349 . S
C713 C715 1.327 . S
C713 H736 0.950 . S
C714 C713 1.349 . S
C714 C726 1.349 . S
C715 C713 1.327 . S
C715 C731 1.429 . S
C715 H737 0.950 . S
C716 H712 0.949 . S
C716 C724 1.574 . S
C716 C732 1.368 . S
H717 C725 0.950 . S
H718 C723 0.950 . S
H719 C724 0.949 . S
H720 C726 0.950 . S
H721 C727 0.950 . S
H722 C728 0.949 . S
C723 H718 0.950 . S
C723 C725 1.327 . S
C723 C729 1.429 . S
C724 C716 1.574 . S
C724 H719 0.949 . S
C724 C730 1.368 . S
C725 C709 1.349 . S
C725 H717 0.950 . S
C725 C723 1.327 . S
C726 C714 1.349 . S
C726 H720 0.950 . S
C726 C727 1.327 . S
C727 H721 0.950 . S
C727 C726 1.327 . S
C727 C731 1.429 . S
C728 C711 1.574 . S
C728 H722 0.949 . S
C728 C732 1.368 . S
C729 C710 1.429 . S
C729 C723 1.429 . S
C729 C730 1.523 . S
C730 C711 1.368 . S
C730 C724 1.368 . S
C730 C729 1.523 . S
C731 C715 1.429 . S
C731 C727 1.429 . S
C731 C732 1.523 . S
C732 C716 1.368 . S
C732 C728 1.368 . S
C732 C731 1.523 . S
H733 C708 0.950 . S
H734 C710 0.950 . S
H735 C711 0.949 . S
H736 C713 0.950 . S
H737 C715 0.950 . S
C199 C24 2.980 . S
C204 C189 2.792 . S
C229 C66 1.015 . S
C234 C167 1.020 . S
C259 C93 1.644 . S
C264 C180 1.625 . S
C289 C13 2.946 . S
C294 C193 2.910 . S
C324 C163 1.215 . S
C319 C57 1.293 . S
C354 C176 1.828 . S
C349 C104 1.989 . S
C379 C64 1.825 . S
C384 C141 1.792 . S
C409 C97 0.134 . S
C414 C154 0.236 . S
C439 C17 1.258 . S
C444 C124 1.182 . S
C474 C137 1.651 . S
C469 C53 1.789 . S
C504 C150 0.449 . S
C499 C106 0.296 . S
C529 C26 1.013 . S
C534 C128 1.017 . S
C564 C155 1.253 . S
C559 C2 1.239 . S
C589 C63 1.533 . S
C594 C129 1.607 . S
C619 C82 1.435 . S
C624 C142 1.457 . S
C654 C181 1.548 . S
C649 C42 1.526 . S
C684 C194 1.709 . S
C679 C103 1.690 . S
C709 C23 1.523 . S
C714 C168 1.582 . S
