# Generated by pormake.
# Topology ctn, (3,4)-cn, num edge types: 1
# Building blocks:
#     Node 0, Type 0, BuildingBlock: BELTOD_clean_linker_0, # of connection points: 3
#     Node 1, Type 0, BuildingBlock: BELTOD_clean_linker_0, # of connection points: 3
#     Node 2, Type 0, BuildingBlock: BELTOD_clean_linker_0, # of connection points: 3
#     Node 3, Type 0, BuildingBlock: BELTOD_clean_linker_0, # of connection points: 3
#     Node 4, Type 0, BuildingBlock: BELTOD_clean_linker_0, # of connection points: 3
#     Node 5, Type 0, BuildingBlock: BELTOD_clean_linker_0, # of connection points: 3
#     Node 6, Type 0, BuildingBlock: BELTOD_clean_linker_0, # of connection points: 3
#     Node 7, Type 0, BuildingBlock: BELTOD_clean_linker_0, # of connection points: 3
#     Node 8, Type 0, BuildingBlock: BELTOD_clean_linker_0, # of connection points: 3
#     Node 9, Type 0, BuildingBlock: BELTOD_clean_linker_0, # of connection points: 3
#     Node 10, Type 0, BuildingBlock: BELTOD_clean_linker_0, # of connection points: 3
#     Node 11, Type 0, BuildingBlock: BELTOD_clean_linker_0, # of connection points: 3
#     Node 12, Type 0, BuildingBlock: BELTOD_clean_linker_0, # of connection points: 3
#     Node 13, Type 0, BuildingBlock: BELTOD_clean_linker_0, # of connection points: 3
#     Node 14, Type 0, BuildingBlock: BELTOD_clean_linker_0, # of connection points: 3
#     Node 15, Type 0, BuildingBlock: BELTOD_clean_linker_0, # of connection points: 3
#     Node 16, Type 1, BuildingBlock: NAHDIM_clean_sbu_0, # of connection points: 4
#     Node 17, Type 1, BuildingBlock: NAHDIM_clean_sbu_0, # of connection points: 4
#     Node 18, Type 1, BuildingBlock: NAHDIM_clean_sbu_0, # of connection points: 4
#     Node 19, Type 1, BuildingBlock: NAHDIM_clean_sbu_0, # of connection points: 4
#     Node 20, Type 1, BuildingBlock: NAHDIM_clean_sbu_0, # of connection points: 4
#     Node 21, Type 1, BuildingBlock: NAHDIM_clean_sbu_0, # of connection points: 4
#     Node 22, Type 1, BuildingBlock: NAHDIM_clean_sbu_0, # of connection points: 4
#     Node 23, Type 1, BuildingBlock: NAHDIM_clean_sbu_0, # of connection points: 4
#     Node 24, Type 1, BuildingBlock: NAHDIM_clean_sbu_0, # of connection points: 4
#     Node 25, Type 1, BuildingBlock: NAHDIM_clean_sbu_0, # of connection points: 4
#     Node 26, Type 1, BuildingBlock: NAHDIM_clean_sbu_0, # of connection points: 4
#     Node 27, Type 1, BuildingBlock: NAHDIM_clean_sbu_0, # of connection points: 4
#     Edge 28, Type (0, 1), BuildingBlock: XUDNAN_clean_linker_2, # of connection points: 2
#     Edge 29, Type (0, 1), BuildingBlock: XUDNAN_clean_linker_2, # of connection points: 2
#     Edge 30, Type (0, 1), BuildingBlock: XUDNAN_clean_linker_2, # of connection points: 2
#     Edge 31, Type (0, 1), BuildingBlock: XUDNAN_clean_linker_2, # of connection points: 2
#     Edge 32, Type (0, 1), BuildingBlock: XUDNAN_clean_linker_2, # of connection points: 2
#     Edge 33, Type (0, 1), BuildingBlock: XUDNAN_clean_linker_2, # of connection points: 2
#     Edge 34, Type (0, 1), BuildingBlock: XUDNAN_clean_linker_2, # of connection points: 2
#     Edge 35, Type (0, 1), BuildingBlock: XUDNAN_clean_linker_2, # of connection points: 2
#     Edge 36, Type (0, 1), BuildingBlock: XUDNAN_clean_linker_2, # of connection points: 2
#     Edge 37, Type (0, 1), BuildingBlock: XUDNAN_clean_linker_2, # of connection points: 2
#     Edge 38, Type (0, 1), BuildingBlock: XUDNAN_clean_linker_2, # of connection points: 2
#     Edge 39, Type (0, 1), BuildingBlock: XUDNAN_clean_linker_2, # of connection points: 2
#     Edge 40, Type (0, 1), BuildingBlock: XUDNAN_clean_linker_2, # of connection points: 2
#     Edge 41, Type (0, 1), BuildingBlock: XUDNAN_clean_linker_2, # of connection points: 2
#     Edge 42, Type (0, 1), BuildingBlock: XUDNAN_clean_linker_2, # of connection points: 2
#     Edge 43, Type (0, 1), BuildingBlock: XUDNAN_clean_linker_2, # of connection points: 2
#     Edge 44, Type (0, 1), BuildingBlock: XUDNAN_clean_linker_2, # of connection points: 2
#     Edge 45, Type (0, 1), BuildingBlock: XUDNAN_clean_linker_2, # of connection points: 2
#     Edge 46, Type (0, 1), BuildingBlock: XUDNAN_clean_linker_2, # of connection points: 2
#     Edge 47, Type (0, 1), BuildingBlock: XUDNAN_clean_linker_2, # of connection points: 2
#     Edge 48, Type (0, 1), BuildingBlock: XUDNAN_clean_linker_2, # of connection points: 2
#     Edge 49, Type (0, 1), BuildingBlock: XUDNAN_clean_linker_2, # of connection points: 2
#     Edge 50, Type (0, 1), BuildingBlock: XUDNAN_clean_linker_2, # of connection points: 2
#     Edge 51, Type (0, 1), BuildingBlock: XUDNAN_clean_linker_2, # of connection points: 2
#     Edge 52, Type (0, 1), BuildingBlock: XUDNAN_clean_linker_2, # of connection points: 2
#     Edge 53, Type (0, 1), BuildingBlock: XUDNAN_clean_linker_2, # of connection points: 2
#     Edge 54, Type (0, 1), BuildingBlock: XUDNAN_clean_linker_2, # of connection points: 2
#     Edge 55, Type (0, 1), BuildingBlock: XUDNAN_clean_linker_2, # of connection points: 2
#     Edge 56, Type (0, 1), BuildingBlock: XUDNAN_clean_linker_2, # of connection points: 2
#     Edge 57, Type (0, 1), BuildingBlock: XUDNAN_clean_linker_2, # of connection points: 2
#     Edge 58, Type (0, 1), BuildingBlock: XUDNAN_clean_linker_2, # of connection points: 2
#     Edge 59, Type (0, 1), BuildingBlock: XUDNAN_clean_linker_2, # of connection points: 2
#     Edge 60, Type (0, 1), BuildingBlock: XUDNAN_clean_linker_2, # of connection points: 2
#     Edge 61, Type (0, 1), BuildingBlock: XUDNAN_clean_linker_2, # of connection points: 2
#     Edge 62, Type (0, 1), BuildingBlock: XUDNAN_clean_linker_2, # of connection points: 2
#     Edge 63, Type (0, 1), BuildingBlock: XUDNAN_clean_linker_2, # of connection points: 2
#     Edge 64, Type (0, 1), BuildingBlock: XUDNAN_clean_linker_2, # of connection points: 2
#     Edge 65, Type (0, 1), BuildingBlock: XUDNAN_clean_linker_2, # of connection points: 2
#     Edge 66, Type (0, 1), BuildingBlock: XUDNAN_clean_linker_2, # of connection points: 2
#     Edge 67, Type (0, 1), BuildingBlock: XUDNAN_clean_linker_2, # of connection points: 2
#     Edge 68, Type (0, 1), BuildingBlock: XUDNAN_clean_linker_2, # of connection points: 2
#     Edge 69, Type (0, 1), BuildingBlock: XUDNAN_clean_linker_2, # of connection points: 2
#     Edge 70, Type (0, 1), BuildingBlock: XUDNAN_clean_linker_2, # of connection points: 2
#     Edge 71, Type (0, 1), BuildingBlock: XUDNAN_clean_linker_2, # of connection points: 2
#     Edge 72, Type (0, 1), BuildingBlock: XUDNAN_clean_linker_2, # of connection points: 2
#     Edge 73, Type (0, 1), BuildingBlock: XUDNAN_clean_linker_2, # of connection points: 2
#     Edge 74, Type (0, 1), BuildingBlock: XUDNAN_clean_linker_2, # of connection points: 2
#     Edge 75, Type (0, 1), BuildingBlock: XUDNAN_clean_linker_2, # of connection points: 2
# Relax obj value: 0.002
# Max RMSD: 0.035
# Mean RMSD: 0.021
data_MOF--net-ctn--node1-NAHDIM_clean_sbu_0--node2-BELTOD_clean_linker_0--edge1-XUDNAN_clean_linker_2
_symmetry_space_group_name_H-M    P1
_symmetry_Int_Tables_number       1
_symmetry_cell_setting            triclinic
loop_
_symmetry_equiv_pos_as_xyz
'x, y, z'
_cell_length_a     62.038884
_cell_length_b     62.864479
_cell_length_c     61.642975
_cell_angle_alpha  90.465494
_cell_angle_beta   90.144698
_cell_angle_gamma 92.919083
loop_
_atom_site_label
_atom_site_type_symbol
_atom_site_fract_x
_atom_site_fract_y
_atom_site_fract_z
_atom_type_partial_charge
P0 P 0.06815 0.08106 0.08419 0.0
H1 H 0.06404 0.06702 0.12886 0.0
H2 H 0.03314 0.05519 0.15101 0.0
H3 H 0.99068 0.06376 0.09639 0.0
H4 H 0.02175 0.07497 0.07423 0.0
H5 H 0.11258 0.07874 0.06969 0.0
H6 H 0.13508 0.04891 0.06129 0.0
H7 H 0.08043 0.00493 0.0722 0.0
H8 H 0.05815 0.03482 0.08079 0.0
H9 H 0.05348 0.12399 0.08011 0.0
H10 H 0.06412 0.07077 0.03759 0.0
O11 O 0.08377 0.09731 0.09979 0.0
H12 H 0.04338 0.14524 0.04899 0.0
H13 H 0.05377 0.09181 0.00638 0.0
C14 C 0.04513 0.07224 0.10007 0.0
C15 C 0.04805 0.06638 0.1217 0.0
C16 C 0.03035 0.05972 0.13436 0.0
C17 C 0.00937 0.05873 0.12556 0.0
C18 C 0.00661 0.06421 0.10367 0.0
C19 C 0.02436 0.07081 0.091 0.0
C20 C 0.08387 0.05896 0.07632 0.0
C21 C 0.10546 0.06267 0.07019 0.0
C22 C 0.11825 0.0456 0.06523 0.0
C23 C 0.10961 0.02451 0.06629 0.0
C24 C 0.08768 0.02096 0.07164 0.0
C25 C 0.0749 0.03805 0.07652 0.0
C26 C 0.06 0.09602 0.06108 0.0
C27 C 0.05359 0.11689 0.06405 0.0
C28 C 0.04764 0.12894 0.04626 0.0
C29 C 0.04791 0.12027 0.02517 0.0
C30 C 0.05376 0.09907 0.02237 0.0
C31 C 0.05965 0.08701 0.0402 0.0
P32 P 0.30911 0.68599 0.20454 0.0
H33 H 0.31748 0.69731 0.15915 0.0
H34 H 0.30824 0.72782 0.13736 0.0
H35 H 0.27672 0.75478 0.1929 0.0
H36 H 0.28655 0.72439 0.21472 0.0
H37 H 0.35447 0.69845 0.21066 0.0
H38 H 0.37538 0.71223 0.24175 0.0
H39 H 0.31771 0.70828 0.28112 0.0
H40 H 0.2968 0.69558 0.24958 0.0
H41 H 0.26491 0.68466 0.18716 0.0
H42 H 0.30007 0.65276 0.23667 0.0
O43 O 0.32447 0.67011 0.1901 0.0
H44 H 0.23245 0.66308 0.19584 0.0
H45 H 0.26736 0.63134 0.24587 0.0
C46 C 0.30284 0.70872 0.18858 0.0
C47 C 0.3087 0.70985 0.16667 0.0
C48 C 0.30324 0.72724 0.15417 0.0
C49 C 0.29171 0.74377 0.16336 0.0
C50 C 0.28588 0.74251 0.18538 0.0
C51 C 0.29141 0.72513 0.19787 0.0
C52 C 0.32424 0.69541 0.22798 0.0
C53 C 0.34638 0.70045 0.22605 0.0
C54 C 0.35834 0.70823 0.24391 0.0
C55 C 0.34835 0.71114 0.26413 0.0
C56 C 0.32598 0.70639 0.26584 0.0
C57 C 0.31401 0.69883 0.24786 0.0
C58 C 0.28479 0.67077 0.21171 0.0
C59 C 0.26559 0.67329 0.20019 0.0
C60 C 0.24696 0.66092 0.20522 0.0
C61 C 0.24719 0.64563 0.22174 0.0
C62 C 0.26661 0.64291 0.233 0.0
C63 C 0.28527 0.65528 0.22791 0.0
P64 P 0.98516 0.48865 0.02598 0.0
H65 H 0.99068 0.48127 0.97981 0.0
H66 H 0.99148 0.44896 0.95759 0.0
H67 H 0.98258 0.41065 0.01507 0.0
H68 H 0.982 0.44313 0.03725 0.0
H69 H 0.96872 0.53066 0.01749 0.0
H70 H 0.93236 0.54284 0.01217 0.0
H71 H 0.90591 0.4792 0.02481 0.0
H72 H 0.94245 0.46706 0.02954 0.0
H73 H 0.02492 0.47534 0.04528 0.0
H74 H 0.96254 0.49317 0.0678 0.0
O75 O 0.00261 0.50691 0.01564 0.0
H76 H 0.03664 0.47083 0.08281 0.0
H77 H 0.9742 0.48897 0.10532 0.0
C78 C 0.98672 0.46458 0.01018 0.0
C79 C 0.98912 0.46591 0.98765 0.0
C80 C 0.98939 0.44743 0.97495 0.0
C81 C 0.98712 0.42722 0.98457 0.0
C82 C 0.9847 0.42596 0.00722 0.0
C83 C 0.98434 0.44451 0.01991 0.0
C84 C 0.95826 0.49789 0.02354 0.0
C85 C 0.9551 0.51933 0.01913 0.0
C86 C 0.93425 0.52632 0.01626 0.0
C87 C 0.91617 0.51198 0.01791 0.0
C88 C 0.91946 0.49059 0.023 0.0
C89 C 0.94033 0.48363 0.02581 0.0
C90 C 0.9929 0.48455 0.05375 0.0
C91 C 0.01375 0.47825 0.05832 0.0
C92 C 0.02045 0.4758 0.07977 0.0
C93 C 0.00638 0.47962 0.09707 0.0
C94 C 0.98536 0.48568 0.09237 0.0
C95 C 0.97869 0.48817 0.07088 0.0
P96 P 0.68674 0.81687 0.1859 0.0
H97 H 0.73377 0.81512 0.17967 0.0
H98 H 0.76431 0.8367 0.19415 0.0
H99 H 0.72057 0.87395 0.23131 0.0
H100 H 0.68996 0.85249 0.21633 0.0
H101 H 0.6944 0.81325 0.13937 0.0
H102 H 0.70741 0.78471 0.11654 0.0
H103 H 0.71133 0.74457 0.17289 0.0
H104 H 0.69876 0.77343 0.19566 0.0
H105 H 0.64037 0.80704 0.18806 0.0
H106 H 0.69541 0.80349 0.23047 0.0
O107 O 0.67272 0.8332 0.17076 0.0
H108 H 0.61667 0.79341 0.21695 0.0
H109 H 0.6718 0.7903 0.25963 0.0
C110 C 0.70957 0.83212 0.19705 0.0
C111 C 0.73069 0.82784 0.19099 0.0
C112 C 0.7482 0.84016 0.19939 0.0
C113 C 0.74491 0.85702 0.21396 0.0
C114 C 0.72367 0.86124 0.21996 0.0
C115 C 0.70617 0.84891 0.21153 0.0
C116 C 0.69516 0.79528 0.16911 0.0
C117 C 0.69785 0.79823 0.14677 0.0
C118 C 0.70525 0.78186 0.13372 0.0
C119 C 0.71027 0.76227 0.14285 0.0
C120 C 0.70775 0.75949 0.16535 0.0
C121 C 0.70035 0.7759 0.17837 0.0
C122 C 0.66953 0.80671 0.2073 0.0
C123 C 0.64731 0.80348 0.20367 0.0
C124 C 0.63379 0.79576 0.22023 0.0
C125 C 0.6423 0.79095 0.24068 0.0
C126 C 0.66472 0.79373 0.24405 0.0
C127 C 0.67822 0.80146 0.22745 0.0
P128 P 0.05496 0.95298 0.44698 0.0
H129 H 0.10048 0.95853 0.45801 0.0
H130 H 0.12302 0.9889 0.47125 0.0
H131 H 0.0677 0.02805 0.46955 0.0
H132 H 0.04516 0.99733 0.45726 0.0
H133 H 0.04863 0.9068 0.4499 0.0
H134 H 0.04036 0.88285 0.48014 0.0
H135 H 0.03907 0.93702 0.52365 0.0
H136 H 0.04755 0.96086 0.49331 0.0
H137 H 0.04718 0.98203 0.4116 0.0
H138 H 0.00897 0.94031 0.45328 0.0
O139 O 0.06915 0.93997 0.42864 0.0
H140 H 0.01441 0.99193 0.39287 0.0
H141 H 0.97636 0.9495 0.43425 0.0
C142 C 0.0713 0.9758 0.45617 0.0
C143 C 0.09327 0.9737 0.46041 0.0
C144 C 0.10615 0.99114 0.46787 0.0
C145 C 0.09727 0.01106 0.47127 0.0
C146 C 0.07509 0.01296 0.46727 0.0
C147 C 0.0622 0.99544 0.45998 0.0
C148 C 0.0492 0.93553 0.46948 0.0
C149 C 0.04672 0.91349 0.46598 0.0
C150 C 0.0418 0.89984 0.48325 0.0
C151 C 0.03916 0.90802 0.50433 0.0
C152 C 0.04135 0.9302 0.50768 0.0
C153 C 0.04618 0.94384 0.49035 0.0
C154 C 0.03053 0.96064 0.43397 0.0
C155 C 0.03173 0.97503 0.41673 0.0
C156 C 0.01299 0.98053 0.40593 0.0
C157 C 0.99269 0.97153 0.41204 0.0
C158 C 0.99163 0.95704 0.42934 0.0
C159 C 0.01037 0.95166 0.4402 0.0
P160 P 0.22958 0.75111 0.78288 0.0
H161 H 0.25884 0.78033 0.80691 0.0
H162 H 0.25627 0.79833 0.84193 0.0
H163 H 0.19296 0.76788 0.85141 0.0
H164 H 0.19545 0.75042 0.81595 0.0
H165 H 0.26122 0.72883 0.75742 0.0
H166 H 0.28014 0.69632 0.76356 0.0
H167 H 0.24327 0.68517 0.82217 0.0
H168 H 0.2249 0.7181 0.8162 0.0
H169 H 0.20633 0.77902 0.75486 0.0
H170 H 0.1955 0.71664 0.78254 0.0
O171 O 0.24571 0.76644 0.76718 0.0
H172 H 0.17148 0.77537 0.7365 0.0
H173 H 0.16019 0.71306 0.76473 0.0
C174 C 0.22718 0.76441 0.80865 0.0
C175 C 0.24433 0.77768 0.81644 0.0
C176 C 0.24292 0.78779 0.8366 0.0
C177 C 0.22439 0.78458 0.84954 0.0
C178 C 0.2073 0.771 0.84174 0.0
C179 C 0.20872 0.76096 0.82148 0.0
C180 C 0.24197 0.72609 0.78657 0.0
C181 C 0.25719 0.71938 0.77158 0.0
C182 C 0.26789 0.70065 0.77504 0.0
C183 C 0.26339 0.68817 0.79348 0.0
C184 C 0.24749 0.69461 0.80805 0.0
C185 C 0.23687 0.7134 0.80461 0.0
C186 C 0.2037 0.74793 0.76966 0.0
C187 C 0.19642 0.76451 0.75698 0.0
C188 C 0.17634 0.76248 0.74667 0.0
C189 C 0.16298 0.74389 0.74908 0.0
C190 C 0.1702 0.72744 0.76221 0.0
C191 C 0.19038 0.72948 0.77246 0.0
P192 P 0.98211 0.5264 0.49926 0.0
H193 H 0.02791 0.52221 0.49168 0.0
H194 H 0.04904 0.51626 0.45904 0.0
H195 H 0.991 0.51725 0.42019 0.0
H196 H 0.97003 0.52373 0.45301 0.0
H197 H 0.98406 0.54808 0.54124 0.0
H198 H 0.98666 0.58561 0.55184 0.0
H199 H 0.98334 0.60343 0.48437 0.0
H200 H 0.98111 0.56571 0.47389 0.0
H201 H 0.96472 0.4856 0.48274 0.0
H202 H 0.93975 0.54228 0.51098 0.0
O203 O 0.99383 0.51305 0.51898 0.0
H204 H 0.92831 0.46882 0.4817 0.0
H205 H 0.90344 0.52546 0.51053 0.0
C206 C 0.99736 0.52281 0.47481 0.0
C207 C 0.01973 0.52111 0.47614 0.0
C208 C 0.03177 0.51763 0.45746 0.0
C209 C 0.02166 0.51592 0.43702 0.0
C210 C 0.99929 0.51849 0.43566 0.0
C211 C 0.98725 0.522 0.45442 0.0
C212 C 0.98292 0.55416 0.50677 0.0
C213 C 0.98392 0.56006 0.52872 0.0
C214 C 0.98518 0.58155 0.53477 0.0
C215 C 0.98532 0.59755 0.51894 0.0
C216 C 0.98363 0.59151 0.49694 0.0
C217 C 0.98232 0.56996 0.49092 0.0
C218 C 0.95491 0.51528 0.49659 0.0
C219 C 0.95135 0.4945 0.48851 0.0
C220 C 0.93056 0.48486 0.48813 0.0
C221 C 0.91293 0.49577 0.49608 0.0
C222 C 0.91657 0.51672 0.50398 0.0
C223 C 0.93739 0.52635 0.5043 0.0
P224 P 0.79773 0.81173 0.81129 0.0
H225 H 0.84407 0.81563 0.80295 0.0
H226 H 0.8665 0.80204 0.77404 0.0
H227 H 0.80926 0.77638 0.74099 0.0
H228 H 0.78695 0.78968 0.77035 0.0
H229 H 0.7563 0.81496 0.833 0.0
H230 H 0.7237 0.83316 0.82396 0.0
H231 H 0.7527 0.85396 0.76357 0.0
H232 H 0.78548 0.83595 0.77296 0.0
H233 H 0.81775 0.79501 0.85022 0.0
H234 H 0.76597 0.77607 0.8063 0.0
O235 O 0.81185 0.82968 0.82639 0.0
H236 H 0.81097 0.76231 0.87084 0.0
H237 H 0.75867 0.74357 0.82712 0.0
C238 C 0.81382 0.80402 0.78856 0.0
C239 C 0.83631 0.80739 0.78931 0.0
C240 C 0.84913 0.79964 0.7727 0.0
C241 C 0.8397 0.78817 0.75511 0.0
C242 C 0.81707 0.78499 0.75437 0.0
C243 C 0.80427 0.79274 0.77103 0.0
C244 C 0.77307 0.82353 0.80335 0.0
C245 C 0.75551 0.8231 0.81763 0.0
C246 C 0.73684 0.83351 0.81242 0.0
C247 C 0.73548 0.84486 0.79294 0.0
C248 C 0.75323 0.84541 0.77873 0.0
C249 C 0.77191 0.83494 0.78397 0.0
C250 C 0.79206 0.78813 0.82703 0.0
C251 C 0.80472 0.78393 0.84519 0.0
C252 C 0.80077 0.76525 0.85701 0.0
C253 C 0.78418 0.75034 0.85073 0.0
C254 C 0.77169 0.75458 0.83231 0.0
C255 C 0.7757 0.77325 0.8205 0.0
P256 P 0.31094 0.32067 0.31234 0.0
H257 H 0.35702 0.3227 0.30318 0.0
H258 H 0.37874 0.30587 0.27561 0.0
H259 H 0.32082 0.27611 0.24731 0.0
H260 H 0.29918 0.29284 0.2753 0.0
H261 H 0.26789 0.321 0.33182 0.0
H262 H 0.23449 0.3364 0.32043 0.0
H263 H 0.26517 0.35804 0.2612 0.0
H264 H 0.29871 0.34231 0.27265 0.0
H265 H 0.3292 0.31654 0.3558 0.0
H266 H 0.28408 0.28107 0.3143 0.0
O267 O 0.32488 0.3418 0.3227 0.0
H268 H 0.32253 0.29071 0.38462 0.0
H269 H 0.27682 0.25533 0.34334 0.0
C270 C 0.32648 0.30935 0.29098 0.0
C271 C 0.34896 0.31277 0.29088 0.0
C272 C 0.36137 0.30317 0.27506 0.0
C273 C 0.35152 0.28977 0.25914 0.0
C274 C 0.32892 0.28625 0.2594 0.0
C275 C 0.31652 0.29592 0.27527 0.0
C276 C 0.28563 0.32989 0.30276 0.0
C277 C 0.26736 0.32853 0.31611 0.0
C278 C 0.24823 0.33741 0.30961 0.0
C279 C 0.24715 0.34826 0.28982 0.0
C280 C 0.26553 0.34974 0.27651 0.0
C281 C 0.28463 0.34063 0.28296 0.0
C282 C 0.30683 0.30091 0.33309 0.0
C283 C 0.31779 0.30321 0.35291 0.0
C284 C 0.31387 0.28846 0.36943 0.0
C285 C 0.29889 0.2711 0.36642 0.0
C286 C 0.28852 0.26844 0.34618 0.0
C287 C 0.29254 0.2832 0.32961 0.0
P288 P 0.48637 0.99827 0.5115 0.0
H289 H 0.4931 0.98335 0.46725 0.0
H290 H 0.4962 0.94786 0.45136 0.0
H291 H 0.48521 0.91994 0.51448 0.0
H292 H 0.48257 0.95549 0.53026 0.0
H293 H 0.46921 0.04045 0.50865 0.0
H294 H 0.43264 0.05266 0.50459 0.0
H295 H 0.40723 0.98739 0.50665 0.0
H296 H 0.44388 0.97533 0.5103 0.0
H297 H 0.52923 1.00037 0.53091 0.0
H298 H 0.46334 0.99615 0.55318 0.0
O299 O 0.50269 0.01504 0.49755 0.0
H300 H 0.54199 0.00175 0.56849 0.0
H301 H 0.47593 0.99717 0.5908 0.0
C302 C 0.48816 0.97204 0.49999 0.0
C303 C 0.49147 0.96957 0.47765 0.0
C304 C 0.49304 0.94926 0.46857 0.0
C305 C 0.49114 0.93106 0.48168 0.0
C306 C 0.4872 0.93364 0.50401 0.0
C307 C 0.48565 0.95396 0.51305 0.0
C308 C 0.45927 0.00699 0.50924 0.0
C309 C 0.45575 0.02878 0.50815 0.0
C310 C 0.43481 0.03574 0.50602 0.0
C311 C 0.41699 0.02099 0.50512 0.0
C312 C 0.42061 0.99914 0.50685 0.0
C313 C 0.44157 0.99222 0.50899 0.0
C314 C 0.49537 0.99869 0.53929 0.0
C315 C 0.51752 0.99973 0.54392 0.0
C316 C 0.52478 1.00031 0.56541 0.0
C317 C 0.50998 0.99972 0.58267 0.0
C318 C 0.48775 0.99805 0.57789 0.0
C319 C 0.48052 0.99745 0.55638 0.0
P320 P 0.18501 0.31728 0.67883 0.0
H321 H 0.19722 0.35944 0.6619 0.0
H322 H 0.21947 0.38942 0.67654 0.0
H323 H 0.2349 0.35198 0.73234 0.0
H324 H 0.21211 0.32207 0.71789 0.0
H325 H 0.17574 0.28993 0.64129 0.0
H326 H 0.19514 0.26181 0.62384 0.0
H327 H 0.24483 0.26863 0.6731 0.0
H328 H 0.22565 0.29741 0.68997 0.0
H329 H 0.14494 0.33219 0.69613 0.0
H330 H 0.18796 0.28227 0.71002 0.0
O331 O 0.1692 0.3271 0.65979 0.0
H332 H 0.12134 0.32001 0.72561 0.0
H333 H 0.16472 0.27027 0.73995 0.0
C334 C 0.20289 0.33858 0.68888 0.0
C335 C 0.20538 0.35761 0.67727 0.0
C336 C 0.21806 0.37475 0.68564 0.0
C337 C 0.22876 0.373 0.7056 0.0
C338 C 0.22687 0.35366 0.71687 0.0
C339 C 0.21386 0.33662 0.70864 0.0
C340 C 0.19944 0.29609 0.66667 0.0
C341 C 0.19087 0.28547 0.64829 0.0
C342 C 0.2019 0.26917 0.63845 0.0
C343 C 0.22162 0.26289 0.64702 0.0
C344 C 0.22989 0.27327 0.66583 0.0
C345 C 0.21889 0.28973 0.67555 0.0
C346 C 0.1679 0.30782 0.70057 0.0
C347 C 0.14927 0.31856 0.70552 0.0
C348 C 0.13591 0.3117 0.72254 0.0
C349 C 0.14109 0.2941 0.73513 0.0
C350 C 0.16006 0.28364 0.73035 0.0
C351 C 0.1734 0.2905 0.71325 0.0
P352 P 0.81701 0.19252 0.69002 0.0
H353 H 0.83715 0.22209 0.65918 0.0
H354 H 0.82342 0.25102 0.63774 0.0
H355 H 0.76081 0.24062 0.66751 0.0
H356 H 0.7748 0.21184 0.68914 0.0
H357 H 0.84704 0.17164 0.71775 0.0
H358 H 0.86527 0.18197 0.75168 0.0
H359 H 0.83342 0.24154 0.75159 0.0
H360 H 0.81492 0.23087 0.71777 0.0
H361 H 0.79903 0.15734 0.66371 0.0
H362 H 0.78809 0.18414 0.7271 0.0
O363 O 0.83552 0.1815 0.67453 0.0
H364 H 0.77202 0.12862 0.67089 0.0
H365 H 0.76118 0.15524 0.73455 0.0
C366 C 0.80686 0.21456 0.67538 0.0
C367 C 0.82047 0.22604 0.66109 0.0
C368 C 0.81257 0.24251 0.64878 0.0
C369 C 0.79094 0.24794 0.65071 0.0
C370 C 0.77756 0.23687 0.66568 0.0
C371 C 0.78548 0.22032 0.67796 0.0
C372 C 0.83001 0.20066 0.71506 0.0
C373 C 0.84405 0.18696 0.72501 0.0
C374 C 0.8545 0.19291 0.74437 0.0
C375 C 0.85097 0.21268 0.75423 0.0
C376 C 0.83641 0.22617 0.74446 0.0
C377 C 0.82596 0.22018 0.72503 0.0
C378 C 0.79592 0.1725 0.69507 0.0
C379 C 0.79081 0.15701 0.67919 0.0
C380 C 0.77542 0.14059 0.68335 0.0
C381 C 0.76472 0.13948 0.70342 0.0
C382 C 0.76915 0.15566 0.71894 0.0
C383 C 0.78464 0.17208 0.71477 0.0
P384 P 0.55793 0.56076 0.57586 0.0
H385 H 0.55623 0.54857 0.62141 0.0
H386 H 0.52641 0.53858 0.64569 0.0
H387 H 0.48145 0.54345 0.59245 0.0
H388 H 0.51149 0.55267 0.56816 0.0
H389 H 0.60137 0.55568 0.55989 0.0
H390 H 0.61942 0.52557 0.54427 0.0
H391 H 0.56014 0.48668 0.54914 0.0
H392 H 0.54204 0.51716 0.56418 0.0
H393 H 0.52997 0.59622 0.57947 0.0
H394 H 0.56652 0.56671 0.52908 0.0
O395 O 0.57635 0.574 0.59125 0.0
H396 H 0.51937 0.62332 0.55409 0.0
H397 H 0.55669 0.59432 0.50374 0.0
C398 C 0.53598 0.55188 0.59316 0.0
C399 C 0.53995 0.5474 0.61497 0.0
C400 C 0.52286 0.54181 0.62886 0.0
C401 C 0.50146 0.54053 0.62113 0.0
C402 C 0.4977 0.54419 0.59897 0.0
C403 C 0.51484 0.54967 0.58508 0.0
C404 C 0.57052 0.53852 0.56358 0.0
C405 C 0.59227 0.54066 0.55758 0.0
C406 C 0.60259 0.52339 0.54875 0.0
C407 C 0.59132 0.50359 0.54573 0.0
C408 C 0.56928 0.50171 0.55116 0.0
C409 C 0.55894 0.51908 0.55993 0.0
C410 C 0.54876 0.57926 0.55612 0.0
C411 C 0.53555 0.59546 0.56286 0.0
C412 C 0.52969 0.6111 0.54836 0.0
C413 C 0.5373 0.61112 0.52688 0.0
C414 C 0.55032 0.59464 0.52008 0.0
C415 C 0.55605 0.57887 0.53461 0.0
P416 P 0.55439 0.44978 0.93753 0.0
H417 H 0.60095 0.45563 0.94217 0.0
H418 H 0.62449 0.48439 0.95724 0.0
H419 H 0.56888 0.52124 0.96979 0.0
H420 H 0.54537 0.49229 0.95471 0.0
H421 H 0.54981 0.40345 0.94108 0.0
H422 H 0.54086 0.37976 0.97125 0.0
H423 H 0.53357 0.43449 0.01307 0.0
H424 H 0.54346 0.45798 0.98302 0.0
H425 H 0.54286 0.45632 0.89218 0.0
H426 H 0.51253 0.46191 0.95469 0.0
O427 O 0.56821 0.43618 0.91934 0.0
H428 H 0.5092 0.46476 0.87438 0.0
H429 H 0.47897 0.47094 0.93708 0.0
C430 C 0.57146 0.47199 0.94694 0.0
C431 C 0.59384 0.47003 0.94784 0.0
C432 C 0.60729 0.48651 0.95643 0.0
C433 C 0.59856 0.50515 0.9646 0.0
C434 C 0.57607 0.50704 0.9637 0.0
C435 C 0.56263 0.49057 0.95493 0.0
C436 C 0.54769 0.43246 0.9599 0.0
C437 C 0.54646 0.41033 0.9568 0.0
C438 C 0.5411 0.39679 0.97405 0.0
C439 C 0.53652 0.40517 0.99469 0.0
C440 C 0.5374 0.42744 0.99756 0.0
C441 C 0.54297 0.44093 0.98034 0.0
C442 C 0.53008 0.45805 0.92474 0.0
C443 C 0.529 0.45953 0.9021 0.0
C444 C 0.50975 0.46454 0.89194 0.0
C445 C 0.49127 0.46835 0.90428 0.0
C446 C 0.49273 0.46765 0.92705 0.0
C447 C 0.51197 0.46257 0.93718 0.0
P448 P 0.73264 0.23761 0.27851 0.0
H449 H 0.76701 0.26744 0.29375 0.0
H450 H 0.76942 0.29299 0.3238 0.0
H451 H 0.70628 0.27059 0.34573 0.0
H452 H 0.70391 0.24496 0.31539 0.0
H453 H 0.74758 0.20425 0.25032 0.0
H454 H 0.76512 0.17119 0.25758 0.0
H455 H 0.75354 0.17953 0.32619 0.0
H456 H 0.73646 0.21291 0.31877 0.0
H457 H 0.70683 0.27296 0.26793 0.0
H458 H 0.70016 0.20443 0.26343 0.0
O459 O 0.74937 0.24786 0.2597 0.0
H460 H 0.67336 0.2757 0.24748 0.0
H461 H 0.66643 0.20713 0.24283 0.0
C462 C 0.73509 0.25466 0.30211 0.0
C463 C 0.7537 0.26794 0.30504 0.0
C464 C 0.75505 0.28256 0.3222 0.0
C465 C 0.73791 0.28397 0.33692 0.0
C466 C 0.71972 0.26984 0.33462 0.0
C467 C 0.7183 0.2553 0.31727 0.0
C468 C 0.74111 0.21122 0.28401 0.0
C469 C 0.74852 0.19878 0.2669 0.0
C470 C 0.75844 0.17977 0.27108 0.0
C471 C 0.76102 0.17281 0.29252 0.0
C472 C 0.75222 0.18466 0.30953 0.0
C473 C 0.74233 0.20372 0.3053 0.0
C474 C 0.70593 0.23853 0.26725 0.0
C475 C 0.69791 0.25848 0.26292 0.0
C476 C 0.67886 0.26004 0.25114 0.0
C477 C 0.66745 0.24163 0.24343 0.0
C478 C 0.6749 0.22155 0.2487 0.0
C479 C 0.69417 0.22001 0.26041 0.0
P480 P 0.49112 0.01707 0.99294 0.0
H481 H 0.51958 0.98836 0.97103 0.0
H482 H 0.53668 0.98893 0.93542 0.0
H483 H 0.50828 0.04881 0.92177 0.0
H484 H 0.49066 0.04769 0.95718 0.0
H485 H 0.52144 0.04371 0.01851 0.0
H486 H 0.52001 0.07948 0.03395 0.0
H487 H 0.45621 0.08467 0.00672 0.0
H488 H 0.45811 0.04902 0.99077 0.0
H489 H 0.47135 0.98701 0.96105 0.0
H490 H 0.45394 0.01551 0.02203 0.0
O491 O 0.50612 0.00322 0.00971 0.0
H492 H 0.43814 0.9645 0.96159 0.0
H493 H 0.42054 0.99302 0.02256 0.0
C494 C 0.50418 0.01817 0.96689 0.0
C495 C 0.51717 0.00169 0.96042 0.0
C496 C 0.52703 0.00209 0.94006 0.0
C497 C 0.52404 0.01901 0.92574 0.0
C498 C 0.51082 0.03545 0.93228 0.0
C499 C 0.50086 0.03494 0.95263 0.0
C500 C 0.48966 0.04353 0.00402 0.0
C501 C 0.50711 0.05252 0.01595 0.0
C502 C 0.50622 0.07295 0.02484 0.0
C503 C 0.48786 0.08485 0.02185 0.0
C504 C 0.47061 0.07598 0.00931 0.0
C505 C 0.47158 0.05552 1.00035 0.0
C506 C 0.46498 0.00326 0.99132 0.0
C507 C 0.4602 0.98881 0.97433 0.0
C508 C 0.44124 0.97583 0.9747 0.0
C509 C 0.42675 0.97701 0.99212 0.0
C510 C 0.43124 0.99198 0.00878 0.0
C511 C 0.45033 0.00483 0.00849 0.0
C512 C 0.21931 0.92287 0.02777 0.0
O513 O 0.22956 0.92877 0.01002 0.0
O514 O 0.23605 0.86974 0.00105 0.0
Zn515 Zn 0.24723 0.88619 0.02767 0.0
O516 O 0.27562 0.90231 0.0206 0.0
C517 C 0.25144 0.84636 0.0524 0.0
O518 O 0.24634 0.83633 0.03419 0.0
O519 O 0.22451 0.90606 0.0374 0.0
C520 C 0.29288 0.89252 0.02325 0.0
O521 O 0.29161 0.87307 0.03094 0.0
C522 C 0.24842 0.8596 0.9887 0.0
O523 O 0.26904 0.85937 0.99344 0.0
O524 O 0.25234 0.86662 0.05291 0.0
C525 C 0.13299 0.44733 0.26414 0.0
O526 O 0.11231 0.44525 0.26861 0.0
O527 O 0.10834 0.49173 0.28954 0.0
Zn528 Zn 0.12238 0.49095 0.25997 0.0
O529 O 0.14124 0.51769 0.25556 0.0
C530 C 0.08158 0.47921 0.23779 0.0
O531 O 0.07569 0.47139 0.25668 0.0
O532 O 0.14119 0.46566 0.25943 0.0
C533 C 0.13304 0.53506 0.25035 0.0
O534 O 0.11202 0.53546 0.24793 0.0
C535 C 0.0928 0.50297 0.29518 0.0
O536 O 0.08429 0.51556 0.28096 0.0
O537 O 0.10034 0.48809 0.23573 0.0
C538 C 0.78169 0.58607 0.99672 0.0
O539 O 0.76402 0.58014 0.98602 0.0
O540 O 0.76369 0.64319 0.97643 0.0
Zn541 Zn 0.75867 0.62443 0.00255 0.0
O542 O 0.73037 0.60728 0.99859 0.0
C543 C 0.74436 0.65819 0.02953 0.0
O544 O 0.73214 0.66104 0.01246 0.0
O545 O 0.78318 0.60452 0.00539 0.0
C546 C 0.71658 0.60438 0.01364 0.0
O547 O 0.72055 0.61281 0.03289 0.0
C548 C 0.76041 0.63586 0.95736 0.0
O549 O 0.75392 0.61577 0.95483 0.0
O550 O 0.75738 0.64321 0.02919 0.0
C551 C 0.85468 0.05172 0.28565 0.0
O552 O 0.87368 0.04987 0.29468 0.0
O553 O 0.88486 0.00589 0.29046 0.0
Zn554 Zn 0.86525 0.01203 0.26529 0.0
O555 O 0.84546 0.98613 0.25964 0.0
C556 C 0.90073 0.02871 0.23882 0.0
O557 O 0.90739 0.03749 0.25723 0.0
O558 O 0.84767 0.03753 0.27221 0.0
C559 C 0.85343 0.96789 0.25992 0.0
O560 O 0.8741 0.96663 0.26413 0.0
C561 C 0.87697 0.00236 0.30918 0.0
O562 O 0.85599 0.00285 0.31185 0.0
O563 O 0.88312 0.01746 0.23843 0.0
C564 C 0.2813 0.09502 0.49579 0.0
O565 O 0.26418 0.09119 0.48351 0.0
O566 O 0.26228 0.15499 0.4886 0.0
Zn567 Zn 0.25707 0.13066 0.50927 0.0
O568 O 0.2291 0.1141 0.50225 0.0
C569 C 0.27125 0.15532 0.54624 0.0
O570 O 0.28942 0.15581 0.53531 0.0
O571 O 0.28201 0.11121 0.50832 0.0
C572 C 0.21128 0.1193 0.51037 0.0
O573 O 0.21104 0.13611 0.52315 0.0
C574 C 0.26511 0.15417 0.46821 0.0
O575 O 0.26448 0.1356 0.45824 0.0
O576 O 0.25505 0.1444 0.53877 0.0
C577 C 0.34489 0.55776 0.7934 0.0
O578 O 0.35091 0.54606 0.80967 0.0
O579 O 0.37804 0.51268 0.79233 0.0
Zn580 Zn 0.35906 0.52211 0.76785 0.0
O581 O 0.33363 0.50145 0.76298 0.0
C582 C 0.39534 0.53168 0.7395 0.0
O583 O 0.40356 0.54113 0.75695 0.0
O584 O 0.34738 0.55103 0.7741 0.0
C585 C 0.33547 0.48174 0.75908 0.0
O586 O 0.35476 0.47402 0.75905 0.0
C587 C 0.37093 0.50139 0.80802 0.0
O588 O 0.35029 0.49563 0.80871 0.0
O589 O 0.37647 0.52288 0.74032 0.0
C590 C 0.69263 0.39454 0.50609 0.0
O591 O 0.69102 0.37814 0.49274 0.0
O592 O 0.73641 0.36659 0.48328 0.0
Zn593 Zn 0.73773 0.38339 0.51141 0.0
O594 O 0.76226 0.40569 0.50952 0.0
C595 C 0.75178 0.3473 0.53633 0.0
O596 O 0.75969 0.34118 0.51768 0.0
O597 O 0.71052 0.39914 0.51555 0.0
C598 C 0.78211 0.40171 0.51063 0.0
O599 O 0.78751 0.38204 0.51378 0.0
C600 C 0.73875 0.37729 0.46596 0.0
O601 O 0.74139 0.39812 0.46743 0.0
O602 O 0.74186 0.36449 0.53728 0.0
C603 C 0.62695 0.94914 0.76134 0.0
O604 O 0.60621 0.94919 0.76558 0.0
O605 O 0.60611 0.00298 0.7745 0.0
Zn606 Zn 0.62309 0.99386 0.7484 0.0
O607 O 0.64774 0.01476 0.74165 0.0
C608 C 0.58828 0.00546 0.72169 0.0
O609 O 0.58705 0.0195 0.73748 0.0
O610 O 0.63655 0.96586 0.75392 0.0
C611 C 0.6488 0.03483 0.74448 0.0
O612 O 0.63234 0.04419 0.75303 0.0
C613 C 0.61088 1.00007 0.79427 0.0
O614 O 0.62876 0.99079 0.7991 0.0
O615 O 0.60292 0.99202 0.72248 0.0
C616 C 0.0011 0.22505 0.91936 0.0
O617 O 0.9838 0.23435 0.92605 0.0
O618 O 0.97373 0.24339 0.86477 0.0
Zn619 Zn 1.00107 0.25306 0.88052 0.0
O620 O 0.99666 0.28172 0.89443 0.0
C621 C 0.03383 0.27243 0.85108 0.0
O622 O 0.028 0.29086 0.85867 0.0
O623 O 0.00997 0.23083 0.90166 0.0
C624 C 0.00462 0.28891 0.91221 0.0
O625 O 0.01739 0.27716 0.92352 0.0
C626 C 0.95518 0.24875 0.87082 0.0
O627 O 0.95346 0.26013 0.88864 0.0
O628 O 0.02464 0.25533 0.85811 0.0
C629 C 0.50717 0.71067 0.40931 0.0
O630 O 0.50579 0.70093 0.39038 0.0
O631 O 0.47523 0.7459 0.36948 0.0
Zn632 Zn 0.50275 0.75202 0.3865 0.0
O633 O 0.50311 0.78033 0.40216 0.0
C634 C 0.52925 0.76372 0.35004 0.0
O635 O 0.5133 0.77619 0.34641 0.0
O636 O 0.50598 0.73077 0.41033 0.0
C637 C 0.49506 0.79779 0.39701 0.0
O638 O 0.48464 0.7992 0.37854 0.0
C639 C 0.45686 0.75138 0.37592 0.0
O640 O 0.45533 0.76127 0.39466 0.0
O641 O 0.52833 0.75157 0.36643 0.0
C642 C 0.99514 0.79213 0.60344 0.0
O643 O 0.97945 0.78012 0.59466 0.0
O644 O 0.96764 0.7617 0.65259 0.0
Zn645 Zn 0.99467 0.75814 0.6349 0.0
O646 O 0.98975 0.73531 0.61186 0.0
C647 C 0.02923 0.76165 0.66688 0.0
O648 O 0.0241 0.78165 0.66791 0.0
O649 O 0.00389 0.78609 0.62087 0.0
C650 C 0.00299 0.73421 0.59622 0.0
O651 O 0.01927 0.74836 0.59509 0.0
C652 C 0.95353 0.74647 0.65472 0.0
O653 O 0.95665 0.72812 0.64517 0.0
O654 O 0.01868 0.74888 0.65423 0.0
C655 C 0.49659 0.28825 0.09409 0.0
O656 O 0.48738 0.27225 0.08311 0.0
O657 O 0.47368 0.25974 0.15125 0.0
Zn658 Zn 0.49821 0.25784 0.12989 0.0
O659 O 0.49255 0.23374 0.10833 0.0
C660 C 0.53049 0.24545 0.16296 0.0
O661 O 0.5146 0.23564 0.17353 0.0
O662 O 0.50177 0.28563 0.11382 0.0
C663 C 0.4988 0.21507 0.11154 0.0
O664 O 0.50908 0.21109 0.12959 0.0
C665 C 0.46043 0.24417 0.15525 0.0
O666 O 0.46285 0.22578 0.14553 0.0
O667 O 0.52664 0.25479 0.14524 0.0
H668 H 0.25658 0.79138 0.87987 0.0
H669 H 0.18913 0.80254 0.86779 0.0
H670 H 0.18732 0.82158 0.90291 0.0
H671 H 0.25242 0.78388 0.93787 0.0
H672 H 0.27811 0.79755 0.94341 0.0
H673 H 0.27364 0.78374 0.91795 0.0
H674 H 0.28426 0.81842 0.89723 0.0
H675 H 0.28876 0.83232 0.9226 0.0
H676 H 0.27026 0.84226 0.90298 0.0
H677 H 0.19343 0.84078 0.9389 0.0
H678 H 0.20703 0.85857 0.97253 0.0
H679 H 0.27063 0.83542 0.96015 0.0
C680 C 0.24141 0.79786 0.88452 0.0
C681 C 0.22299 0.79542 0.87101 0.0
C682 C 0.20339 0.80392 0.87796 0.0
C683 C 0.20223 0.81486 0.89784 0.0
C684 C 0.22079 0.81716 0.91061 0.0
C685 C 0.23999 0.80887 0.90422 0.0
C686 C 0.2578 0.81402 0.92054 0.0
C687 C 0.26596 0.79358 0.93053 0.0
C688 C 0.27636 0.82756 0.91022 0.0
C689 C 0.24569 0.82676 0.93701 0.0
C690 C 0.22433 0.8283 0.93111 0.0
C691 C 0.21012 0.8396 0.94371 0.0
C692 C 0.21798 0.84966 0.96278 0.0
C693 C 0.23989 0.84841 0.969 0.0
C694 C 0.2538 0.83669 0.95591 0.0
H695 H 0.0188 0.53296 0.39604 0.0
H696 H 0.05325 0.4873 0.43355 0.0
H697 H 0.07496 0.47909 0.4014 0.0
H698 H 0.01658 0.50225 0.34597 0.0
H699 H 0.02038 0.5253 0.32893 0.0
H700 H 0.00744 0.52763 0.35491 0.0
H701 H 0.03555 0.55767 0.36601 0.0
H702 H 0.0486 0.5554 0.34009 0.0
H703 H 0.06391 0.55281 0.36474 0.0
H704 H 0.09308 0.47589 0.36551 0.0
H705 H 0.10656 0.4779 0.32797 0.0
H706 H 0.06016 0.52527 0.31333 0.0
C707 C 0.03078 0.5211 0.39744 0.0
C708 C 0.0344 0.51088 0.4174 0.0
C709 C 0.05042 0.49562 0.41857 0.0
C710 C 0.06274 0.49073 0.40036 0.0
C711 C 0.05885 0.50117 0.38102 0.0
C712 C 0.04326 0.51601 0.37939 0.0
C713 C 0.04248 0.52502 0.35667 0.0
C714 C 0.02041 0.51973 0.34599 0.0
C715 C 0.04797 0.54916 0.3569 0.0
C716 C 0.06013 0.51296 0.34584 0.0
C717 C 0.06931 0.49927 0.3602 0.0
C718 C 0.08601 0.48652 0.35409 0.0
C719 C 0.09356 0.4878 0.33271 0.0
C720 C 0.08444 0.50174 0.31766 0.0
C721 C 0.06747 0.51444 0.3244 0.0
H722 H 0.78481 0.74534 0.89503 0.0
H723 H 0.77428 0.71015 0.8347 0.0
H724 H 0.76706 0.67712 0.85538 0.0
H725 H 0.81236 0.70425 0.92293 0.0
H726 H 0.80041 0.70992 0.94883 0.0
H727 H 0.80459 0.73083 0.92925 0.0
H728 H 0.76399 0.73856 0.93109 0.0
H729 H 0.75968 0.71766 0.95064 0.0
H730 H 0.74401 0.71727 0.92597 0.0
H731 H 0.76084 0.64791 0.88264 0.0
H732 H 0.75616 0.62463 0.9145 0.0
H733 H 0.77153 0.67875 0.957 0.0
C734 C 0.78119 0.73066 0.88613 0.0
C735 C 0.78005 0.73039 0.8632 0.0
C736 C 0.77493 0.71086 0.85225 0.0
C737 C 0.77094 0.69197 0.86385 0.0
C738 C 0.77218 0.69284 0.88641 0.0
C739 C 0.77721 0.71166 0.89744 0.0
C740 C 0.77745 0.70827 0.92174 0.0
C741 C 0.80005 0.71363 0.93124 0.0
C742 C 0.76026 0.72121 0.93302 0.0
C743 C 0.77172 0.68459 0.92265 0.0
C744 C 0.76875 0.67599 0.9021 0.0
C745 C 0.76317 0.65446 0.89881 0.0
C746 C 0.76054 0.64136 0.91703 0.0
C747 C 0.7635 0.64982 0.93827 0.0
C748 C 0.76921 0.67175 0.941 0.0
H749 H 0.9875 0.97753 0.36817 0.0
H750 H 0.95264 0.97779 0.42918 0.0
H751 H 0.91929 0.98556 0.40952 0.0
H752 H 0.96034 0.0213 0.34404 0.0
H753 H 0.96031 0.00974 0.31718 0.0
H754 H 0.98142 0.00414 0.3361 0.0
H755 H 0.97251 0.96366 0.33116 0.0
H756 H 0.95132 0.96913 0.3123 0.0
H757 H 0.94537 0.95312 0.33587 0.0
H758 H 0.88955 0.9926 0.38313 0.0
H759 H 0.86579 0.99941 0.35202 0.0
H760 H 0.9204 0.99582 0.30844 0.0
C761 C 0.97295 0.9795 0.37748 0.0
C762 C 0.97274 0.97695 0.40026 0.0
C763 C 0.95319 0.97931 0.4117 0.0
C764 C 0.93417 0.98387 0.4007 0.0
C765 C 0.93496 0.98614 0.37825 0.0
C766 C 0.95386 0.98415 0.36678 0.0
C767 C 0.95035 0.98732 0.34272 0.0
C768 C 0.96391 0.00679 0.33453 0.0
C769 C 0.95517 0.9671 0.32976 0.0
C770 C 0.92649 0.99131 0.34244 0.0
C771 C 0.9179 0.99052 0.36309 0.0
C772 C 0.89611 0.99336 0.36689 0.0
C773 C 0.88274 0.99717 0.3491 0.0
C774 C 0.89123 0.9982 0.32779 0.0
C775 C 0.91342 0.99524 0.32452 0.0
H776 H 0.20516 0.22626 0.62693 0.0
H777 H 0.26547 0.26171 0.64139 0.0
H778 H 0.28526 0.23533 0.6206 0.0
H779 H 0.22633 0.17257 0.62719 0.0
H780 H 0.20953 0.16362 0.60468 0.0
H781 H 0.20041 0.18366 0.62309 0.0
H782 H 0.195 0.20901 0.5908 0.0
H783 H 0.20404 0.18907 0.57233 0.0
H784 H 0.21727 0.21528 0.57283 0.0
H785 H 0.29809 0.20725 0.5952 0.0
H786 H 0.30283 0.18009 0.5667 0.0
H787 H 0.23406 0.16351 0.56811 0.0
C788 C 0.22255 0.22845 0.62589 0.0
C789 C 0.23372 0.24609 0.63594 0.0
C790 C 0.25653 0.24816 0.63424 0.0
C791 C 0.26793 0.23329 0.62237 0.0
C792 C 0.25634 0.21635 0.61234 0.0
C793 C 0.23415 0.21383 0.61403 0.0
C794 C 0.22534 0.19522 0.60037 0.0
C795 C 0.21478 0.17773 0.61469 0.0
C796 C 0.20949 0.20259 0.58305 0.0
C797 C 0.24598 0.18803 0.59023 0.0
C798 C 0.26371 0.20024 0.59756 0.0
C799 C 0.28436 0.1974 0.58954 0.0
C800 C 0.28689 0.18194 0.57333 0.0
C801 C 0.26885 0.16959 0.56522 0.0
C802 C 0.24822 0.17247 0.57415 0.0
H803 H 0.497 0.55544 0.6628 0.0
H804 H 0.46434 0.51568 0.61366 0.0
H805 H 0.43344 0.50947 0.63839 0.0
H806 H 0.47989 0.52333 0.70869 0.0
H807 H 0.47701 0.54605 0.72628 0.0
H808 H 0.49643 0.54738 0.7046 0.0
H809 H 0.47898 0.58089 0.68966 0.0
H810 H 0.45943 0.5796 0.71121 0.0
H811 H 0.45055 0.5797 0.68335 0.0
H812 H 0.40591 0.50798 0.6684 0.0
H813 H 0.38424 0.51046 0.70177 0.0
H814 H 0.43548 0.55039 0.73156 0.0
C815 C 0.48351 0.54517 0.65729 0.0
C816 C 0.48314 0.53607 0.63623 0.0
C817 C 0.46492 0.52308 0.62959 0.0
C818 C 0.44733 0.51936 0.64356 0.0
C819 C 0.44823 0.52868 0.66416 0.0
C820 C 0.46589 0.54123 0.67104 0.0
C821 C 0.46287 0.54937 0.69396 0.0
C822 C 0.48007 0.54103 0.70929 0.0
C823 C 0.46295 0.57384 0.69457 0.0
C824 C 0.44069 0.53948 0.6989 0.0
C825 C 0.4325 0.52764 0.68149 0.0
C826 C 0.41219 0.51715 0.68216 0.0
C827 C 0.39998 0.5187 0.70118 0.0
C828 C 0.40815 0.53061 0.71931 0.0
C829 C 0.42877 0.54114 0.71803 0.0
H830 H 0.7982 0.2543 0.60735 0.0
H831 H 0.76422 0.27954 0.66256 0.0
H832 H 0.75005 0.30748 0.63923 0.0
H833 H 0.81379 0.30468 0.58351 0.0
H834 H 0.81012 0.29512 0.55603 0.0
H835 H 0.81729 0.27704 0.57707 0.0
H836 H 0.7838 0.25238 0.56751 0.0
H837 H 0.7765 0.2704 0.54647 0.0
H838 H 0.75741 0.26314 0.56747 0.0
H839 H 0.74021 0.3331 0.60989 0.0
H840 H 0.73494 0.35405 0.57675 0.0
H841 H 0.7754 0.31183 0.54083 0.0
C842 C 0.78792 0.2658 0.6146 0.0
C843 C 0.78236 0.26477 0.63681 0.0
C844 C 0.76854 0.27991 0.64555 0.0
C845 C 0.7605 0.29589 0.63246 0.0
C846 C 0.76636 0.29645 0.61064 0.0
C847 C 0.77972 0.28178 0.60177 0.0
C848 C 0.78355 0.2858 0.57787 0.0
C849 C 0.80762 0.29097 0.57336 0.0
C850 C 0.77478 0.2668 0.56402 0.0
C851 C 0.77034 0.30512 0.57466 0.0
C852 C 0.76056 0.31104 0.59375 0.0
C853 C 0.74774 0.32857 0.59484 0.0
C854 C 0.74486 0.34038 0.57592 0.0
C855 C 0.75471 0.33457 0.55616 0.0
C856 C 0.76756 0.31665 0.55563 0.0
H857 H 0.54448 0.98083 0.60146 0.0
H858 H 0.49317 0.02333 0.61542 0.0
H859 H 0.50669 0.02793 0.65291 0.0
H860 H 0.54529 0.95567 0.65452 0.0
H861 H 0.57423 0.95424 0.65486 0.0
H862 H 0.55984 0.95331 0.62941 0.0
H863 H 0.58375 0.98541 0.61571 0.0
H864 H 0.59819 0.98645 0.6411 0.0
H865 H 0.58549 0.00975 0.63144 0.0
H866 H 0.52683 0.02966 0.68804 0.0
H867 H 0.55185 0.0278 0.71899 0.0
H868 H 0.59025 0.9841 0.68254 0.0
C869 C 0.53606 0.99108 0.61241 0.0
C870 C 0.51768 0.00165 0.6055 0.0
C871 C 0.50705 0.01479 0.62041 0.0
C872 C 0.51467 0.0176 0.64171 0.0
C873 C 0.53291 0.0071 0.64792 0.0
C874 C 0.54343 0.99403 0.63377 0.0
C875 C 0.563 0.98501 0.64445 0.0
C876 C 0.56043 0.96061 0.64589 0.0
C877 C 0.58384 0.99209 0.63246 0.0
C878 C 0.56201 0.99534 0.6667 0.0
C879 C 0.54449 0.00797 0.66834 0.0
C880 C 0.54051 0.0197 0.68702 0.0
C881 C 0.55487 0.01857 0.7045 0.0
C882 C 0.57299 0.00576 0.70323 0.0
C883 C 0.57646 0.99389 0.68409 0.0
H884 H 0.89357 0.20767 0.76371 0.0
H885 H 0.83519 0.23266 0.79027 0.0
H886 H 0.85516 0.24364 0.82364 0.0
H887 H 0.91373 0.18682 0.81398 0.0
H888 H 0.94151 0.19392 0.80766 0.0
H889 H 0.92246 0.18777 0.78612 0.0
H890 H 0.93217 0.22432 0.76852 0.0
H891 H 0.95125 0.23056 0.78997 0.0
H892 H 0.93007 0.24835 0.78438 0.0
H893 H 0.88187 0.25226 0.85399 0.0
H894 H 0.91329 0.25876 0.87831 0.0
H895 H 0.95382 0.2276 0.83172 0.0
C896 C 0.88488 0.21521 0.77664 0.0
C897 C 0.86279 0.21924 0.7744 0.0
C898 C 0.85216 0.22957 0.79154 0.0
C899 C 0.86333 0.23574 0.81061 0.0
C900 C 0.8851 0.23145 0.81227 0.0
C901 C 0.89575 0.22145 0.79571 0.0
C902 C 0.91929 0.21912 0.80125 0.0
C903 C 0.92455 0.1955 0.80232 0.0
C904 C 0.93406 0.23132 0.78507 0.0
C905 C 0.92028 0.22947 0.82349 0.0
C906 C 0.9004 0.23641 0.82963 0.0
C907 C 0.8975 0.24682 0.84937 0.0
C908 C 0.91544 0.25042 0.86309 0.0
C909 C 0.93603 0.24366 0.85696 0.0
C910 C 0.93831 0.23288 0.83696 0.0
H911 H 0.4756 0.91486 0.44266 0.0
H912 H 0.51296 0.89857 0.49927 0.0
H913 H 0.51786 0.8629 0.4837 0.0
H914 H 0.4486 0.86337 0.43475 0.0
H915 H 0.44971 0.86444 0.40556 0.0
H916 H 0.44889 0.8887 0.42122 0.0
H917 H 0.484 0.9032 0.40263 0.0
H918 H 0.48493 0.87898 0.38692 0.0
H919 H 0.50771 0.8878 0.40347 0.0
H920 H 0.51908 0.82931 0.46208 0.0
H921 H 0.51615 0.79949 0.43597 0.0
H922 H 0.4784 0.83745 0.39287 0.0
C923 C 0.48492 0.90384 0.45172 0.0
C924 C 0.49382 0.90951 0.47226 0.0
C925 C 0.50569 0.89451 0.48369 0.0
C926 C 0.5087 0.87425 0.47491 0.0
C927 C 0.49975 0.86921 0.45466 0.0
C928 C 0.48809 0.88353 0.44319 0.0
C929 C 0.48018 0.87402 0.42174 0.0
C930 C 0.45537 0.87254 0.42077 0.0
C931 C 0.48978 0.88676 0.40256 0.0
C932 C 0.48926 0.85213 0.42296 0.0
C933 C 0.5005 0.84975 0.4421 0.0
C934 C 0.51032 0.83097 0.44703 0.0
C935 C 0.50856 0.81411 0.43205 0.0
C936 C 0.49704 0.81608 0.41232 0.0
C937 C 0.48733 0.83543 0.40776 0.0
H938 H 0.11941 0.31826 0.76451 0.0
H939 H 0.12952 0.2528 0.74572 0.0
H940 H 0.10429 0.2402 0.77429 0.0
H941 H 0.11452 0.30926 0.82238 0.0
H942 H 0.09371 0.32798 0.82579 0.0
H943 H 0.11347 0.33183 0.80463 0.0
H944 H 0.08284 0.33287 0.77604 0.0
H945 H 0.063 0.329 0.79709 0.0
H946 H 0.06299 0.31096 0.77421 0.0
H947 H 0.07687 0.23474 0.80378 0.0
H948 H 0.04933 0.23669 0.83237 0.0
H949 H 0.0565 0.30578 0.83153 0.0
C950 C 0.11632 0.30127 0.76636 0.0
C951 C 0.12653 0.28652 0.75288 0.0
C952 C 0.12218 0.26441 0.75604 0.0
C953 C 0.10778 0.25709 0.77215 0.0
C954 C 0.09786 0.27207 0.78498 0.0
C955 C 0.10196 0.29369 0.78232 0.0
C956 C 0.08877 0.30646 0.79791 0.0
C957 C 0.1035 0.31966 0.8136 0.0
C958 C 0.07349 0.32066 0.78557 0.0
C959 C 0.07639 0.28863 0.80958 0.0
C960 C 0.08196 0.26892 0.80194 0.0
C961 C 0.07245 0.25007 0.80996 0.0
C962 C 0.05679 0.25137 0.8262 0.0
C963 C 0.05073 0.2714 0.83423 0.0
C964 C 0.06078 0.29023 0.8258 0.0
H965 H 0.52773 0.60916 0.48304 0.0
H966 H 0.53655 0.65347 0.53717 0.0
H967 H 0.52863 0.68316 0.51316 0.0
H968 H 0.5532 0.64349 0.44315 0.0
H969 H 0.53487 0.63517 0.42161 0.0
H970 H 0.54043 0.61708 0.44319 0.0
H971 H 0.49952 0.61227 0.45128 0.0
H972 H 0.49383 0.6304 0.42976 0.0
H973 H 0.48432 0.63539 0.45684 0.0
H974 H 0.52025 0.70806 0.48373 0.0
H975 H 0.51278 0.72715 0.45012 0.0
H976 H 0.51034 0.66726 0.41426 0.0
C977 C 0.52808 0.62511 0.48983 0.0
C978 C 0.53252 0.62889 0.51211 0.0
C979 C 0.5327 0.65004 0.52032 0.0
C980 C 0.52837 0.66706 0.50678 0.0
C981 C 0.52397 0.66277 0.48499 0.0
C982 C 0.52386 0.64237 0.47649 0.0
C983 C 0.51902 0.64231 0.45234 0.0
C984 C 0.53801 0.63402 0.43931 0.0
C985 C 0.49792 0.62932 0.44726 0.0
C986 C 0.51659 0.6659 0.44864 0.0
C987 C 0.51941 0.67732 0.46777 0.0
C988 C 0.51801 0.69932 0.46863 0.0
C989 C 0.51373 0.71001 0.4494 0.0
C990 C 0.51097 0.69874 0.42948 0.0
C991 C 0.51235 0.67634 0.42919 0.0
H992 H 0.87651 0.80613 0.73639 0.0
H993 H 0.83446 0.74876 0.73584 0.0
H994 H 0.85823 0.73244 0.70909 0.0
H995 H 0.89066 0.80512 0.67924 0.0
H996 H 0.91821 0.81451 0.68405 0.0
H997 H 0.89723 0.82213 0.70226 0.0
H998 H 0.91824 0.80719 0.73468 0.0
H999 H 0.93925 0.79949 0.71657 0.0
H1000 H 0.92595 0.77993 0.73385 0.0
H1001 H 0.88747 0.72167 0.68373 0.0
H1002 H 0.91977 0.71746 0.66111 0.0
H1003 H 0.94306 0.78167 0.67854 0.0
C1004 C 0.87227 0.79014 0.73065 0.0
C1005 C 0.85351 0.77878 0.73818 0.0
C1006 C 0.8485 0.75795 0.73007 0.0
C1007 C 0.86198 0.74847 0.71496 0.0
C1008 C 0.88043 0.76003 0.70807 0.0
C1009 C 0.88555 0.78043 0.71558 0.0
C1010 C 0.9066 0.78922 0.70597 0.0
C1011 C 0.90295 0.80891 0.69205 0.0
C1012 C 0.9235 0.79424 0.72383 0.0
C1013 C 0.91265 0.77046 0.69208 0.0
C1014 C 0.8973 0.75382 0.69347 0.0
C1015 C 0.89955 0.73464 0.68243 0.0
C1016 C 0.91798 0.73239 0.66964 0.0
C1017 C 0.93397 0.74923 0.668 0.0
C1018 C 0.93113 0.76852 0.67936 0.0
H1019 H 0.01075 0.87307 0.50503 0.0
H1020 H 0.05679 0.90988 0.54517 0.0
H1021 H 0.04958 0.885 0.57543 0.0
H1022 H 0.97246 0.85967 0.54768 0.0
H1023 H 0.96616 0.83323 0.53717 0.0
H1024 H 0.97441 0.85439 0.51898 0.0
H1025 H 0.00531 0.83195 0.50457 0.0
H1026 H 0.99716 0.81073 0.52269 0.0
H1027 H 0.0245 0.82189 0.52343 0.0
H1028 H 0.03861 0.85505 0.60072 0.0
H1029 H 0.02405 0.82282 0.61941 0.0
H1030 H 0.98498 0.80584 0.56273 0.0
C1031 C 0.01935 0.87589 0.52017 0.0
C1032 C 0.03433 0.89344 0.52274 0.0
C1033 C 0.04505 0.8967 0.54291 0.0
C1034 C 0.04114 0.88259 0.56016 0.0
C1035 C 0.02638 0.86538 0.55701 0.0
C1036 C 0.01558 0.86204 0.53756 0.0
C1037 C 1.00073 0.84218 0.53826 0.0
C1038 C 0.97704 0.84771 0.53536 0.0
C1039 C 0.00733 0.82572 0.52123 0.0
C1040 C 0.00504 0.83472 0.56108 0.0
C1041 C 0.01988 0.84831 0.57164 0.0
C1042 C 0.02687 0.84437 0.59266 0.0
C1043 C 0.01853 0.82601 0.60313 0.0
C1044 C 0.0033 0.81185 0.59259 0.0
C1045 C 0.99644 0.81643 0.57132 0.0
H1046 H 0.13355 0.77459 0.7427 0.0
H1047 H 0.14466 0.70817 0.72904 0.0
H1048 H 0.11051 0.70491 0.70838 0.0
H1049 H 0.07508 0.76873 0.74771 0.0
H1050 H 0.07083 0.79368 0.73456 0.0
H1051 H 0.0953 0.79031 0.74968 0.0
H1052 H 0.11796 0.80086 0.71581 0.0
H1053 H 0.09359 0.80425 0.70059 0.0
H1054 H 0.11328 0.78643 0.6907 0.0
H1055 H 0.07619 0.70946 0.68741 0.0
H1056 H 0.04435 0.72144 0.66774 0.0
H1057 H 0.05619 0.78513 0.69441 0.0
C1058 C 0.12884 0.75933 0.7354 0.0
C1059 C 0.14184 0.74161 0.73759 0.0
C1060 C 0.13487 0.72189 0.72793 0.0
C1061 C 0.11553 0.71991 0.71605 0.0
C1062 C 0.1033 0.73777 0.71399 0.0
C1063 C 0.10966 0.75709 0.72344 0.0
C1064 C 0.09405 0.77407 0.71809 0.0
C1065 C 0.08317 0.78217 0.73874 0.0
C1066 C 0.1054 0.79248 0.70555 0.0
C1067 C 0.0781 0.76137 0.70383 0.0
C1068 C 0.08363 0.74043 0.7018 0.0
C1069 C 0.07162 0.72579 0.68899 0.0
C1070 C 0.05357 0.73277 0.67786 0.0
C1071 C 0.04772 0.75423 0.67953 0.0
C1072 C 0.06014 0.76861 0.69285 0.0
H1073 H 0.96684 0.61781 0.55344 0.0
H1074 H 0.01071 0.62877 0.49946 0.0
H1075 H 0.01778 0.66591 0.51182 0.0
H1076 H 0.94526 0.67122 0.55462 0.0
H1077 H 0.94403 0.67195 0.58383 0.0
H1078 H 0.94082 0.64685 0.56955 0.0
H1079 H 0.97215 0.63228 0.59199 0.0
H1080 H 0.97547 0.6573 0.60628 0.0
H1081 H 0.99805 0.64664 0.59228 0.0
H1082 H 0.0227 0.70071 0.5319 0.0
H1083 H 0.02436 0.73098 0.5577 0.0
H1084 H 0.97721 0.69746 0.59859 0.0
C1085 C 0.97781 0.62806 0.54411 0.0
C1086 C 0.98816 0.62037 0.52542 0.0
C1087 C 0.00231 0.63436 0.51362 0.0
C1088 C 0.00651 0.65547 0.52057 0.0
C1089 C 0.99632 0.66241 0.53927 0.0
C1090 C 0.98214 0.64917 0.55079 0.0
C1091 C 0.97409 0.66025 0.57091 0.0
C1092 C 0.9496 0.66272 0.56964 0.0
C1093 C 0.98032 0.64841 0.59158 0.0
C1094 C 0.98639 0.6816 0.56919 0.0
C1095 C 0.99903 0.68256 0.55076 0.0
C1096 C 0.01268 0.70024 0.54625 0.0
C1097 C 0.01356 0.71734 0.56104 0.0
C1098 C 1.00085 0.71664 0.58011 0.0
C1099 C 0.98692 0.6986 0.58403 0.0
H1100 H 0.74801 0.90048 0.21981 0.0
H1101 H 0.78404 0.8436 0.22764 0.0
H1102 H 0.81543 0.86572 0.24093 0.0
H1103 H 0.79161 0.93425 0.2012 0.0
H1104 H 0.78331 0.95756 0.21551 0.0
H1105 H 0.76348 0.93722 0.20715 0.0
H1106 H 0.75013 0.93355 0.24681 0.0
H1107 H 0.7699 0.95393 0.2553 0.0
H1108 H 0.76914 0.92818 0.26799 0.0
H1109 H 0.84316 0.89406 0.25249 0.0
H1110 H 0.86531 0.92663 0.26161 0.0
H1111 H 0.81093 0.96499 0.24695 0.0
C1112 C 0.76238 0.89262 0.2246 0.0
C1113 C 0.76355 0.87028 0.22264 0.0
C1114 C 0.78284 0.8607 0.22873 0.0
C1115 C 0.80071 0.87311 0.23643 0.0
C1116 C 0.79903 0.89508 0.23804 0.0
C1117 C 0.78035 0.90476 0.23235 0.0
C1118 C 0.78289 0.92871 0.23524 0.0
C1119 C 0.78017 0.9401 0.21348 0.0
C1120 C 0.76707 0.93655 0.25235 0.0
C1121 C 0.80599 0.93101 0.24327 0.0
C1122 C 0.81498 0.91141 0.24481 0.0
C1123 C 0.83627 0.90949 0.25144 0.0
C1124 C 0.84872 0.9281 0.25657 0.0
C1125 C 0.83987 0.94838 0.25504 0.0
C1126 C 0.81816 0.94974 0.24839 0.0
H1127 H 0.76286 0.13492 0.26977 0.0
H1128 H 0.79058 0.16961 0.3252 0.0
H1129 H 0.81592 0.14124 0.33076 0.0
H1130 H 0.76869 0.08099 0.29135 0.0
H1131 H 0.7756 0.07021 0.26524 0.0
H1132 H 0.7581 0.09219 0.26694 0.0
H1133 H 0.78375 0.1142 0.24158 0.0
H1134 H 0.80139 0.09238 0.23992 0.0
H1135 H 0.81185 0.11828 0.24881 0.0
H1136 H 0.84055 0.11111 0.32825 0.0
H1137 H 0.8617 0.08016 0.31894 0.0
H1138 H 0.81825 0.06481 0.26508 0.0
C1139 C 0.77409 0.13644 0.28322 0.0
C1140 C 0.77457 0.15449 0.29714 0.0
C1141 C 0.78953 0.1558 0.31458 0.0
C1142 C 0.80413 0.13981 0.31779 0.0
C1143 C 0.80353 0.12252 0.3035 0.0
C1144 C 0.78879 0.12061 0.28668 0.0
C1145 C 0.79223 0.10088 0.27306 0.0
C1146 C 0.77248 0.08514 0.27423 0.0
C1147 C 0.79763 0.1068 0.24945 0.0
C1148 C 0.81152 0.09229 0.28458 0.0
C1149 C 0.81772 0.10499 0.30213 0.0
C1150 C 0.83571 0.10089 0.3147 0.0
C1151 C 0.84767 0.08332 0.30921 0.0
C1152 C 0.8416 0.07001 0.29133 0.0
C1153 C 0.82318 0.07455 0.27897 0.0
H1154 H 0.38462 0.9845 0.00276 0.0
H1155 H 0.42703 0.93412 0.98596 0.0
H1156 H 0.39698 0.90741 0.99085 0.0
H1157 H 0.35527 0.95657 0.044 0.0
H1158 H 0.32954 0.96686 0.0372 0.0
H1159 H 0.35407 0.9823 0.03145 0.0
H1160 H 0.34293 0.98451 0.99103 0.0
H1161 H 0.31831 0.96912 0.99667 0.0
H1162 H 0.33638 0.96032 0.97598 0.0
H1163 H 0.36362 0.88606 1.00018 0.0
H1164 H 0.32781 0.87115 0.01105 0.0
H1165 H 0.30586 0.93506 0.02034 0.0
C1166 C 0.38748 0.96785 0.99998 0.0
C1167 C 0.40812 0.96136 0.99386 0.0
C1168 C 0.41128 0.93945 0.99033 0.0
C1169 C 0.39435 0.92416 0.99318 0.0
C1170 C 0.37427 0.93103 0.99936 0.0
C1171 C 0.37063 0.95234 0.0025 0.0
C1172 C 0.34746 0.95531 0.00927 0.0
C1173 C 0.34654 0.96588 0.03182 0.0
C1174 C 0.33557 0.96807 0.99222 0.0
C1175 C 0.33881 0.93231 0.00983 0.0
C1176 C 0.35464 0.91862 0.00413 0.0
C1177 C 0.35101 0.8966 0.00444 0.0
C1178 C 0.33064 0.88829 0.01073 0.0
C1179 C 0.31406 0.90195 0.01642 0.0
C1180 C 0.31817 0.92426 0.01579 0.0
H1181 H 0.24362 0.38872 0.27437 0.0
H1182 H 0.20555 0.33177 0.2922 0.0
H1183 H 0.17208 0.3503 0.28509 0.0
H1184 H 0.21059 0.42518 0.29936 0.0
H1185 H 0.21385 0.44528 0.27878 0.0
H1186 H 0.23477 0.42698 0.28318 0.0
H1187 H 0.23287 0.41557 0.2427 0.0
H1188 H 0.21198 0.43394 0.23814 0.0
H1189 H 0.20737 0.40618 0.23114 0.0
H1190 H 0.14293 0.37565 0.27847 0.0
H1191 H 0.12001 0.40611 0.27311 0.0
H1192 H 0.17707 0.4467 0.25964 0.0
C1193 C 0.22824 0.38001 0.27628 0.0
C1194 C 0.22715 0.35878 0.28373 0.0
C1195 C 0.20672 0.34807 0.28658 0.0
C1196 C 0.18765 0.35842 0.28247 0.0
C1197 C 0.18929 0.37946 0.2755 0.0
C1198 C 0.20905 0.39014 0.27235 0.0
C1199 C 0.20633 0.4131 0.26605 0.0
C1200 C 0.21701 0.42854 0.28285 0.0
C1201 C 0.21516 0.41745 0.24314 0.0
C1202 C 0.18196 0.41378 0.26655 0.0
C1203 C 0.17244 0.39416 0.27184 0.0
C1204 C 0.15018 0.39104 0.27412 0.0
C1205 C 0.1373 0.40847 0.27107 0.0
C1206 C 0.14671 0.42881 0.2659 0.0
C1207 C 0.16935 0.43135 0.26341 0.0
H1208 H 0.13934 0.02204 0.46015 0.0
H1209 H 0.08659 0.04217 0.50038 0.0
H1210 H 0.1095 0.07285 0.51349 0.0
H1211 H 0.18115 0.03458 0.499 0.0
H1212 H 0.20065 0.04341 0.47895 0.0
H1213 H 0.17971 0.02367 0.47187 0.0
H1214 H 0.16769 0.0473 0.44024 0.0
H1215 H 0.18856 0.06715 0.44727 0.0
H1216 H 0.16084 0.07434 0.44575 0.0
H1217 H 0.13842 0.10099 0.52283 0.0
H1218 H 0.1715 0.1239 0.52845 0.0
H1219 H 0.20572 0.08458 0.48317 0.0
C1220 C 0.13258 0.03279 0.47182 0.0
C1221 C 0.11105 0.02967 0.47912 0.0
C1222 C 0.10287 0.04437 0.4942 0.0
C1223 C 0.11581 0.0618 0.50186 0.0
C1224 C 0.13694 0.06432 0.49436 0.0
C1225 C 0.1453 0.05018 0.47974 0.0
C1226 C 0.16871 0.05616 0.47469 0.0
C1227 C 0.18342 0.0384 0.48154 0.0
C1228 C 0.17161 0.06156 0.45056 0.0
C1229 C 0.17225 0.07579 0.4889 0.0
C1230 C 0.15369 0.08031 0.5 0.0
C1231 C 0.15305 0.09761 0.51421 0.0
C1232 C 0.17193 0.11055 0.51727 0.0
C1233 C 0.19123 0.10605 0.50628 0.0
C1234 C 0.19126 0.08847 0.49183 0.0
H1235 H 0.72492 0.13946 0.72332 0.0
H1236 H 0.77095 0.09761 0.69496 0.0
H1237 H 0.74647 0.06654 0.70284 0.0
H1238 H 0.70742 0.10425 0.76686 0.0
H1239 H 0.67963 0.11121 0.76538 0.0
H1240 H 0.70084 0.13031 0.75773 0.0
H1241 H 0.68288 0.13428 0.72008 0.0
H1242 H 0.66163 0.11519 0.72761 0.0
H1243 H 0.67721 0.11092 0.70346 0.0
H1244 H 0.71737 0.04014 0.71351 0.0
H1245 H 0.68488 0.0197 0.72582 0.0
H1246 H 0.65722 0.07833 0.74745 0.0
C1247 C 0.72988 0.12374 0.71892 0.0
C1248 C 0.7498 0.12096 0.7084 0.0
C1249 C 0.75563 0.10015 0.70271 0.0
C1250 C 0.74191 0.08239 0.70725 0.0
C1251 C 0.72238 0.08567 0.7175 0.0
C1252 C 0.7163 0.10578 0.72326 0.0
C1253 C 0.69422 0.1048 0.73384 0.0
C1254 C 0.69562 0.11314 0.75735 0.0
C1255 C 0.67803 0.11702 0.72044 0.0
C1256 C 0.68887 0.081 0.73305 0.0
C1257 C 0.70541 0.07032 0.72362 0.0
C1258 C 0.7043 0.04829 0.72094 0.0
C1259 C 0.68573 0.03683 0.728 0.0
C1260 C 0.66844 0.04738 0.73761 0.0
C1261 C 0.67013 0.06978 0.7402 0.0
H1262 H 0.39869 0.05577 0.52357 0.0
H1263 H 0.38521 0.00299 0.4789 0.0
H1264 H 0.34876 0.01564 0.47245 0.0
H1265 H 0.34511 0.05678 0.54659 0.0
H1266 H 0.34567 0.08543 0.54853 0.0
H1267 H 0.37044 0.07176 0.55026 0.0
H1268 H 0.38629 0.09431 0.51852 0.0
H1269 H 0.36158 0.10803 0.51668 0.0
H1270 H 0.37182 0.09471 0.49314 0.0
H1271 H 0.31427 0.03469 0.46985 0.0
H1272 H 0.28391 0.05849 0.47171 0.0
H1273 H 0.31995 0.09913 0.5178 0.0
C1274 C 0.3881 0.04689 0.51239 0.0
C1275 C 0.39482 0.02832 0.5018 0.0
C1276 C 0.38034 0.01705 0.48747 0.0
C1277 C 0.35964 0.02419 0.48359 0.0
C1278 C 0.35361 0.0426 0.49419 0.0
C1279 C 0.36738 0.05377 0.50835 0.0
C1280 C 0.35703 0.07326 0.51742 0.0
C1281 C 0.35441 0.0717 0.54217 0.0
C1282 C 0.36995 0.09379 0.51105 0.0
C1283 C 0.33537 0.07141 0.50598 0.0
C1284 C 0.33372 0.05359 0.4927 0.0
C1285 C 0.31534 0.04865 0.48026 0.0
C1286 C 0.29819 0.0623 0.48141 0.0
C1287 C 0.29951 0.08068 0.49491 0.0
C1288 C 0.31839 0.08519 0.50737 0.0
H1289 H 0.63209 0.49217 0.55618 0.0
H1290 H 0.57645 0.4728 0.51656 0.0
H1291 H 0.59581 0.44204 0.50278 0.0
H1292 H 0.67207 0.4795 0.5171 0.0
H1293 H 0.69066 0.47038 0.53709 0.0
H1294 H 0.67204 0.4903 0.54428 0.0
H1295 H 0.65749 0.46667 0.57583 0.0
H1296 H 0.67605 0.44665 0.5687 0.0
H1297 H 0.64753 0.43974 0.5702 0.0
H1298 H 0.62189 0.41372 0.49277 0.0
H1299 H 0.65242 0.39047 0.48727 0.0
H1300 H 0.69086 0.42924 0.53306 0.0
C1301 C 0.62398 0.48159 0.54447 0.0
C1302 C 0.60273 0.48495 0.53742 0.0
C1303 C 0.59262 0.47044 0.52239 0.0
C1304 C 0.60353 0.45298 0.51439 0.0
C1305 C 0.62451 0.45025 0.52162 0.0
C1306 C 0.63461 0.46418 0.53632 0.0
C1307 C 0.65731 0.45796 0.54133 0.0
C1308 C 0.674 0.47558 0.53453 0.0
C1309 C 0.65973 0.45242 0.56544 0.0
C1310 C 0.65851 0.43839 0.52703 0.0
C1311 C 0.63944 0.43413 0.51583 0.0
C1312 C 0.63688 0.41691 0.5015 0.0
C1313 C 0.65431 0.40379 0.49849 0.0
C1314 C 0.67405 0.408 0.50972 0.0
C1315 C 0.67601 0.42552 0.52422 0.0
H1316 H 0.72849 0.2804 0.38048 0.0
H1317 H 0.74895 0.32597 0.33122 0.0
H1318 H 0.75072 0.35467 0.35879 0.0
H1319 H 0.69531 0.31567 0.4113 0.0
H1320 H 0.70309 0.30547 0.43726 0.0
H1321 H 0.70287 0.28846 0.41359 0.0
H1322 H 0.74289 0.28066 0.42053 0.0
H1323 H 0.74324 0.29765 0.44421 0.0
H1324 H 0.76272 0.30253 0.42295 0.0
H1325 H 0.75026 0.37835 0.39124 0.0
H1326 H 0.74885 0.39567 0.42715 0.0
H1327 H 0.72948 0.33489 0.45606 0.0
C1328 C 0.73319 0.29646 0.37554 0.0
C1329 C 0.73865 0.30099 0.35374 0.0
C1330 C 0.74494 0.32214 0.34788 0.0
C1331 C 0.74588 0.33855 0.36338 0.0
C1332 C 0.74055 0.33357 0.38473 0.0
C1333 C 0.73441 0.31306 0.3909 0.0
C1334 C 0.73009 0.31203 0.41509 0.0
C1335 C 0.70643 0.30499 0.41957 0.0
C1336 C 0.74567 0.29735 0.42635 0.0
C1337 C 0.7348 0.33516 0.4215 0.0
C1338 C 0.74066 0.34727 0.40367 0.0
C1339 C 0.74571 0.36905 0.40535 0.0
C1340 C 0.74484 0.37874 0.42584 0.0
C1341 C 0.73909 0.36666 0.44445 0.0
C1342 C 0.73398 0.34456 0.44217 0.0
H1343 H 0.56468 0.00678 0.91488 0.0
H1344 H 0.50669 0.03149 0.88711 0.0
H1345 H 0.52342 0.0311 0.85087 0.0
H1346 H 0.60318 0.03496 0.87991 0.0
H1347 H 0.62055 0.0129 0.87788 0.0
H1348 H 0.60453 0.01632 0.90188 0.0
H1349 H 0.5875 0.97807 0.89702 0.0
H1350 H 0.60347 0.97452 0.87305 0.0
H1351 H 0.57451 0.97056 0.87171 0.0
H1352 H 0.54583 0.02676 0.81747 0.0
H1353 H 0.57207 0.01825 0.78913 0.0
H1354 H 0.61513 0.99535 0.83844 0.0
C1355 C 0.55544 0.01207 0.9012 0.0
C1356 C 0.53436 0.01927 0.90394 0.0
C1357 C 0.52298 0.02627 0.88556 0.0
C1358 C 0.53231 0.02599 0.86486 0.0
C1359 C 0.55302 0.01867 0.86276 0.0
C1360 C 0.56445 0.01182 0.88041 0.0
C1361 C 0.58619 0.00406 0.87363 0.0
C1362 C 0.6047 0.01789 0.88394 0.0
C1363 C 0.58801 0.9804 0.87918 0.0
C1364 C 0.58507 0.00735 0.84935 0.0
C1365 C 0.56587 0.01594 0.84345 0.0
C1366 C 0.56096 0.0201 0.8219 0.0
C1367 C 0.57599 0.0152 0.80591 0.0
C1368 C 0.5957 0.00612 0.81152 0.0
C1369 C 0.60028 0.00232 0.83359 0.0
H1370 H 0.29201 0.22735 0.36496 0.0
H1371 H 0.2935 0.2816 0.40912 0.0
H1372 H 0.28499 0.25757 0.43961 0.0
H1373 H 0.24709 0.19833 0.39061 0.0
H1374 H 0.25799 0.17262 0.38616 0.0
H1375 H 0.26432 0.19406 0.36764 0.0
H1376 H 0.30515 0.18956 0.37387 0.0
H1377 H 0.29895 0.16813 0.39241 0.0
H1378 H 0.31585 0.1908 0.4011 0.0
H1379 H 0.27642 0.22804 0.46528 0.0
H1380 H 0.26847 0.19459 0.48484 0.0
H1381 H 0.27189 0.15913 0.42424 0.0
C1382 C 0.29039 0.23419 0.38102 0.0
C1383 C 0.2936 0.25639 0.38464 0.0
C1384 C 0.29152 0.26465 0.40596 0.0
C1385 C 0.28653 0.25114 0.42339 0.0
C1386 C 0.28356 0.22939 0.41926 0.0
C1387 C 0.28537 0.22092 0.39864 0.0
C1388 C 0.28142 0.1969 0.39876 0.0
C1389 C 0.26152 0.19008 0.38498 0.0
C1390 C 0.30154 0.1857 0.39108 0.0
C1391 C 0.27725 0.19324 0.4227 0.0
C1392 C 0.27851 0.21223 0.43417 0.0
C1393 C 0.27536 0.21305 0.45649 0.0
C1394 C 0.27084 0.19392 0.46745 0.0
C1395 C 0.26954 0.17418 0.4561 0.0
C1396 C 0.27276 0.17392 0.43339 0.0
H1397 H 0.4844 0.49217 0.8678 0.0
H1398 H 0.45086 0.45287 0.91592 0.0
H1399 H 0.41633 0.45802 0.89725 0.0
H1400 H 0.44256 0.52959 0.86018 0.0
H1401 H 0.44706 0.53178 0.83139 0.0
H1402 H 0.46901 0.52587 0.84917 0.0
H1403 H 0.47568 0.49187 0.82661 0.0
H1404 H 0.45374 0.49765 0.80879 0.0
H1405 H 0.45379 0.47231 0.82226 0.0
H1406 H 0.3856 0.46629 0.87257 0.0
H1407 H 0.36086 0.4774 0.84384 0.0
H1408 H 0.41456 0.5107 0.81144 0.0
C1409 C 0.46982 0.48461 0.87443 0.0
C1410 C 0.47039 0.4722 0.89343 0.0
C1411 C 0.45084 0.46277 0.90163 0.0
C1412 C 0.43114 0.46548 0.89105 0.0
C1413 C 0.43121 0.47766 0.87228 0.0
C1414 C 0.45002 0.48711 0.86405 0.0
C1415 C 0.44573 0.49903 0.84335 0.0
C1416 C 0.45143 0.52299 0.8462 0.0
C1417 C 0.45796 0.48965 0.82412 0.0
C1418 C 0.4216 0.49462 0.84111 0.0
C1419 C 0.41352 0.48233 0.858 0.0
C1420 C 0.39172 0.47598 0.8593 0.0
C1421 C 0.3778 0.48236 0.84289 0.0
C1422 C 0.38573 0.49493 0.82538 0.0
C1423 C 0.40795 0.50113 0.82461 0.0
H1424 H 0.69616 0.74992 0.10216 0.0
H1425 H 0.74265 0.73546 0.15198 0.0
H1426 H 0.7562 0.70695 0.12867 0.0
H1427 H 0.68422 0.69606 0.08422 0.0
H1428 H 0.682 0.7031 0.05604 0.0
H1429 H 0.67572 0.72205 0.07687 0.0
H1430 H 0.70354 0.74957 0.06054 0.0
H1431 H 0.7099 0.73072 0.03966 0.0
H1432 H 0.73105 0.7424 0.05672 0.0
H1433 H 0.76498 0.68025 0.09958 0.0
H1434 H 0.76819 0.6574 0.06706 0.0
H1435 H 0.71639 0.68998 0.03615 0.0
C1436 C 0.70929 0.74087 0.10814 0.0
C1437 C 0.71831 0.74494 0.12894 0.0
C1438 C 0.73526 0.73247 0.13625 0.0
C1439 C 0.74316 0.71632 0.12307 0.0
C1440 C 0.73394 0.71282 0.10263 0.0
C1441 C 0.71737 0.72474 0.09522 0.0
C1442 C 0.71032 0.71788 0.07258 0.0
C1443 C 0.68666 0.70926 0.07243 0.0
C1444 C 0.71393 0.73623 0.05642 0.0
C1445 C 0.72559 0.70031 0.06835 0.0
C1446 C 0.73906 0.69758 0.08589 0.0
C1447 C 0.75451 0.68225 0.08575 0.0
C1448 C 0.75621 0.66934 0.0672 0.0
C1449 C 0.74257 0.6719 0.04903 0.0
C1450 C 0.7271 0.68763 0.04973 0.0
H1451 H 0.00206 0.06941 0.16815 0.0
H1452 H 0.97394 0.03306 0.11398 0.0
H1453 H 0.94263 0.0222 0.13673 0.0
H1454 H 0.9863 0.03184 0.20941 0.0
H1455 H 0.98096 0.05204 0.22933 0.0
H1456 H 1.00079 0.05742 0.20854 0.0
H1457 H 0.9807 0.09065 0.1969 0.0
H1458 H 0.96077 0.08534 0.21762 0.0
H1459 H 0.9525 0.08778 0.18973 0.0
H1460 H 0.91462 0.01487 0.16565 0.0
H1461 H 0.89222 0.01131 0.19859 0.0
H1462 H 0.93913 0.0519 0.23399 0.0
C1463 C 0.98942 0.05903 0.16107 0.0
C1464 C 0.99049 0.05212 0.13922 0.0
C1465 C 0.97338 0.03881 0.13056 0.0
C1466 C 0.95558 0.03246 0.1434 0.0
C1467 C 0.9551 0.03955 0.16486 0.0
C1468 C 0.97158 0.05251 0.17364 0.0
C1469 C 0.96729 0.05772 0.19722 0.0
C1470 C 0.98488 0.04924 0.21199 0.0
C1471 C 0.96518 0.0818 0.20055 0.0
C1472 C 0.94586 0.04555 0.20039 0.0
C1473 C 0.93906 0.03523 0.18152 0.0
C1474 C 0.91977 0.0229 0.18051 0.0
C1475 C 0.90715 0.02099 0.19932 0.0
C1476 C 0.91389 0.03132 0.2189 0.0
C1477 C 0.93349 0.04381 0.21931 0.0
H1478 H 0.27745 0.74344 0.12103 0.0
H1479 H 0.29273 0.78593 0.17543 0.0
H1480 H 0.28303 0.81659 0.15332 0.0
H1481 H 0.29925 0.77824 0.07977 0.0
H1482 H 0.2786 0.77067 0.06016 0.0
H1483 H 0.2861 0.75201 0.08051 0.0
H1484 H 0.24624 0.74767 0.09291 0.0
H1485 H 0.23863 0.76637 0.07264 0.0
H1486 H 0.23217 0.77092 0.10073 0.0
H1487 H 0.27244 0.8427 0.12509 0.0
H1488 H 0.26188 0.86249 0.09269 0.0
H1489 H 0.25402 0.80302 0.05648 0.0
C1490 C 0.2789 0.7592 0.12828 0.0
C1491 C 0.28581 0.76224 0.15003 0.0
C1492 C 0.28718 0.78313 0.15894 0.0
C1493 C 0.28182 0.80067 0.14647 0.0
C1494 C 0.27511 0.79708 0.12511 0.0
C1495 C 0.27365 0.77688 0.11607 0.0
C1496 C 0.26627 0.7774 0.09264 0.0
C1497 C 0.28359 0.76909 0.07737 0.0
C1498 C 0.24454 0.76485 0.08956 0.0
C1499 C 0.26391 0.80109 0.08987 0.0
C1500 C 0.26905 0.81214 0.10881 0.0
C1501 C 0.26833 0.83421 0.11018 0.0
C1502 C 0.26231 0.84531 0.09166 0.0
C1503 C 0.25707 0.83433 0.07201 0.0
C1504 C 0.25782 0.8119 0.07124 0.0
H1505 H 0.04546 0.49318 0.11457 0.0
H1506 H 0.98395 0.46159 0.13119 0.0
H1507 H 0.99625 0.45842 0.16916 0.0
H1508 H 0.07837 0.46146 0.14824 0.0
H1509 H 0.09678 0.48345 0.15564 0.0
H1510 H 0.08295 0.48343 0.12992 0.0
H1511 H 0.06778 0.52002 0.1394 0.0
H1512 H 0.08153 0.52013 0.16517 0.0
H1513 H 0.05279 0.52304 0.16415 0.0
H1514 H 0.01556 0.45833 0.20526 0.0
H1515 H 0.04027 0.46151 0.23674 0.0
H1516 H 0.08915 0.49299 0.19622 0.0
C1517 C 0.03463 0.48543 0.12614 0.0
C1518 C 0.01374 0.4776 0.11989 0.0
C1519 C 0.99993 0.4679 0.13565 0.0
C1520 C 0.00681 0.46593 0.15721 0.0
C1521 C 0.02752 0.4738 0.16279 0.0
C1522 C 0.04121 0.48337 0.1477 0.0
C1523 C 0.06264 0.49055 0.15784 0.0
C1524 C 0.08128 0.47903 0.14728 0.0
C1525 C 0.0664 0.51488 0.15656 0.0
C1526 C 0.05894 0.48341 0.18098 0.0
C1527 C 0.03858 0.4738 0.18352 0.0
C1528 C 0.03154 0.46585 0.20346 0.0
C1529 C 0.04569 0.46773 0.22125 0.0
C1530 C 0.06666 0.4775 0.21899 0.0
C1531 C 0.07324 0.48545 0.19853 0.0
H1532 H 0.38996 0.70214 0.27517 0.0
H1533 H 0.33608 0.73853 0.29642 0.0
H1534 H 0.35745 0.75172 0.328 0.0
H1535 H 0.40891 0.68775 0.32785 0.0
H1536 H 0.43702 0.69083 0.32061 0.0
H1537 H 0.41714 0.6835 0.30018 0.0
H1538 H 0.43029 0.71582 0.27701 0.0
H1539 H 0.45025 0.72322 0.29733 0.0
H1540 H 0.43112 0.74216 0.28887 0.0
H1541 H 0.38495 0.76121 0.35724 0.0
H1542 H 0.41685 0.76728 0.38101 0.0
H1543 H 0.45318 0.72614 0.33944 0.0
C1544 C 0.38263 0.71302 0.28631 0.0
C1545 C 0.36121 0.71916 0.28325 0.0
C1546 C 0.35227 0.73321 0.29853 0.0
C1547 C 0.36434 0.74092 0.31648 0.0
C1548 C 0.38539 0.73456 0.31891 0.0
C1549 C 0.3945 0.72102 0.30417 0.0
C1550 C 0.41764 0.71706 0.31014 0.0
C1551 C 0.42032 0.69338 0.31499 0.0
C1552 C 0.43324 0.72505 0.29228 0.0
C1553 C 0.42017 0.73058 0.33051 0.0
C1554 C 0.40135 0.74042 0.3354 0.0
C1555 C 0.39978 0.75361 0.35355 0.0
C1556 C 0.41798 0.75693 0.36698 0.0
C1557 C 0.43753 0.74724 0.36208 0.0
C1558 C 0.43851 0.73385 0.3436 0.0
H1559 H 0.00735 0.39 0.9923 0.0
H1560 H 0.96616 0.42013 0.9459 0.0
H1561 H 0.96615 0.38805 0.92258 0.0
H1562 H 0.03966 0.36359 0.9534 0.0
H1563 H 0.04178 0.33983 0.96928 0.0
H1564 H 0.03833 0.36504 0.98259 0.0
H1565 H 0.00443 0.34913 0.00227 0.0
H1566 H 0.00781 0.32385 0.98907 0.0
H1567 H 0.98262 0.33673 0.98656 0.0
H1568 H 0.97069 0.35302 0.90421 0.0
H1569 H 0.97955 0.31718 0.89177 0.0
H1570 H 0.01778 0.30943 0.95006 0.0
C1571 C 0.99817 0.38976 0.97733 0.0
C1572 C 0.98682 0.40763 0.97088 0.0
C1573 C 0.97522 0.40677 0.95103 0.0
C1574 C 0.97501 0.38858 0.93774 0.0
C1575 C 0.98647 0.37133 0.94449 0.0
C1576 C 0.99783 0.37172 0.96381 0.0
C1577 C 0.00901 0.35109 0.9671 0.0
C1578 C 0.03365 0.35514 0.96815 0.0
C1579 C 1.00045 0.33952 0.98746 0.0
C1580 C 0.00218 0.33908 0.94659 0.0
C1581 C 0.98915 0.35106 0.93382 0.0
C1582 C 0.98086 0.34347 0.91407 0.0
C1583 C 0.98601 0.32306 0.90714 0.0
C1584 C 0.99938 0.31044 0.91991 0.0
C1585 C 0.00754 0.31865 0.93991 0.0
H1586 H 0.60268 0.80532 0.25157 0.0
H1587 H 0.64918 0.75942 0.27014 0.0
H1588 H 0.62529 0.74725 0.30007 0.0
H1589 H 0.58659 0.81938 0.30509 0.0
H1590 H 0.55863 0.82179 0.29794 0.0
H1591 H 0.57934 0.82671 0.27792 0.0
H1592 H 0.56057 0.79841 0.25245 0.0
H1593 H 0.53978 0.79343 0.27238 0.0
H1594 H 0.55493 0.77177 0.26224 0.0
H1595 H 0.59629 0.7403 0.32819 0.0
H1596 H 0.56451 0.73917 0.35231 0.0
H1597 H 0.53691 0.78928 0.31478 0.0
C1598 C 0.60776 0.79253 0.26176 0.0
C1599 C 0.62782 0.78331 0.25848 0.0
C1600 C 0.634 0.76689 0.27247 0.0
C1601 C 0.62049 0.75979 0.28944 0.0
C1602 C 0.60084 0.76925 0.2922 0.0
C1603 C 0.59449 0.78526 0.27873 0.0
C1604 C 0.57269 0.79295 0.28526 0.0
C1605 C 0.57443 0.81661 0.29196 0.0
C1606 C 0.55601 0.78889 0.267 0.0
C1607 C 0.56776 0.7788 0.30454 0.0
C1608 C 0.58418 0.76523 0.30829 0.0
C1609 C 0.58331 0.75082 0.32537 0.0
C1610 C 0.5652 0.75031 0.33899 0.0
C1611 C 0.54819 0.76411 0.33544 0.0
C1612 C 0.54958 0.77847 0.31792 0.0
H1613 H 0.01571 0.14863 0.02106 0.0
H1614 H 0.06918 0.12231 0.98637 0.0
H1615 H 0.06222 0.14547 0.95528 0.0
H1616 H 0.98084 0.15424 0.97411 0.0
H1617 H 0.97062 0.17896 0.98361 0.0
H1618 H 0.97916 0.15962 0.00281 0.0
H1619 H 0.00547 0.18815 0.02037 0.0
H1620 H 0.99706 0.20756 0.00121 0.0
H1621 H 0.02522 0.2022 0.00369 0.0
H1622 H 0.05071 0.17248 0.92876 0.0
H1623 H 0.03476 0.20099 0.90789 0.0
H1624 H 0.98865 0.21012 0.95965 0.0
C1625 C 0.02595 0.14772 0.00692 0.0
C1626 C 0.04296 0.13357 0.00613 0.0
C1627 C 0.05586 0.13276 0.98723 0.0
C1628 C 0.05211 0.14594 0.96954 0.0
C1629 C 0.03536 0.15982 0.97093 0.0
C1630 C 0.0224 0.16074 0.98907 0.0
C1631 C 0.00568 0.17733 0.98649 0.0
C1632 C 0.98271 0.16691 0.98677 0.0
C1633 C 0.00854 0.19485 0.00398 0.0
C1634 C 0.01148 0.18579 0.96418 0.0
C1635 C 0.02862 0.17541 0.95552 0.0
C1636 C 0.03721 0.18065 0.93531 0.0
C1637 C 0.02803 0.19692 0.9236 0.0
C1638 C 0.0104 0.20781 0.93209 0.0
C1639 C 0.00203 0.20206 0.95266 0.0
H1640 H 0.38647 0.30704 0.23701 0.0
H1641 H 0.34704 0.2485 0.24426 0.0
H1642 H 0.37022 0.23057 0.21801 0.0
H1643 H 0.39715 0.30115 0.1797 0.0
H1644 H 0.42448 0.31213 0.18188 0.0
H1645 H 0.40428 0.32047 0.20062 0.0
H1646 H 0.42811 0.30963 0.23289 0.0
H1647 H 0.44836 0.3012 0.21426 0.0
H1648 H 0.43718 0.28287 0.23409 0.0
H1649 H 0.39852 0.21873 0.19184 0.0
H1650 H 0.4292 0.21412 0.1671 0.0
H1651 H 0.4503 0.28036 0.17746 0.0
C1652 C 0.38272 0.29043 0.23313 0.0
C1653 C 0.3649 0.27918 0.24269 0.0
C1654 C 0.36041 0.25753 0.23693 0.0
C1655 C 0.37356 0.24717 0.22214 0.0
C1656 C 0.39111 0.25869 0.21321 0.0
C1657 C 0.39565 0.27987 0.21842 0.0
C1658 C 0.4156 0.2886 0.20674 0.0
C1659 C 0.41004 0.30665 0.19132 0.0
C1660 C 0.43336 0.296 0.22297 0.0
C1661 C 0.42171 0.26897 0.19429 0.0
C1662 C 0.40738 0.25189 0.19819 0.0
C1663 C 0.40981 0.23201 0.18861 0.0
C1664 C 0.42732 0.22955 0.1746 0.0
C1665 C 0.44218 0.24686 0.17031 0.0
C1666 C 0.43926 0.2668 0.18037 0.0
H1667 H 0.51234 0.36712 0.99393 0.0
H1668 H 0.54882 0.4103 0.03734 0.0
H1669 H 0.5405 0.38618 0.06784 0.0
H1670 H 0.47079 0.34986 0.03205 0.0
H1671 H 0.46959 0.32269 0.02239 0.0
H1672 H 0.47714 0.34405 0.00417 0.0
H1673 H 0.51271 0.32601 0.99513 0.0
H1674 H 0.50525 0.30458 0.01325 0.0
H1675 H 0.53064 0.31943 0.01685 0.0
H1676 H 0.52949 0.35677 0.09338 0.0
H1677 H 0.5175 0.32364 0.11192 0.0
H1678 H 0.48929 0.29899 0.05164 0.0
C1679 C 0.51866 0.37153 0.00982 0.0
C1680 C 0.53114 0.39076 0.01318 0.0
C1681 C 0.53887 0.39592 0.03435 0.0
C1682 C 0.53433 0.38226 0.05179 0.0
C1683 C 0.52209 0.36343 0.04785 0.0
C1684 C 0.51441 0.35802 0.02738 0.0
C1685 C 0.5024 0.33642 0.02733 0.0
C1686 C 0.47856 0.33838 0.02112 0.0
C1687 C 0.51341 0.32068 0.01225 0.0
C1688 C 0.50475 0.33042 0.05093 0.0
C1689 C 0.51601 0.3463 0.06252 0.0
C1690 C 0.52059 0.34425 0.0845 0.0
C1691 C 0.51369 0.32535 0.09489 0.0
C1692 C 0.50243 0.30868 0.08326 0.0
C1693 C 0.49777 0.31143 0.06103 0.0
H1694 H 0.62669 0.2219 0.24542 0.0
H1695 H 0.66682 0.26608 0.20744 0.0
H1696 H 0.63648 0.2708 0.18233 0.0
H1697 H 0.5967 0.19719 0.19995 0.0
H1698 H 0.57148 0.1951 0.21442 0.0
H1699 H 0.59662 0.19431 0.22902 0.0
H1700 H 0.58563 0.22579 0.25328 0.0
H1701 H 0.56048 0.22669 0.23874 0.0
H1702 H 0.57824 0.25022 0.24078 0.0
H1703 H 0.60226 0.27128 0.16173 0.0
H1704 H 0.56531 0.26849 0.14711 0.0
H1705 H 0.54622 0.22469 0.1986 0.0
C1706 C 0.62905 0.23239 0.23169 0.0
C1707 C 0.64904 0.24369 0.22835 0.0
C1708 C 0.65156 0.25746 0.21037 0.0
C1709 C 0.63447 0.26016 0.19597 0.0
C1710 C 0.61491 0.24902 0.1998 0.0
C1711 C 0.61201 0.23546 0.21721 0.0
C1712 C 0.58898 0.22607 0.2179 0.0
C1713 C 0.58842 0.20172 0.21516 0.0
C1714 C 0.57767 0.23259 0.23892 0.0
C1715 C 0.57946 0.23661 0.19825 0.0
C1716 C 0.59482 0.24962 0.188 0.0
C1717 C 0.59006 0.26113 0.16957 0.0
C1718 C 0.56899 0.25941 0.16139 0.0
C1719 C 0.5528 0.24639 0.17169 0.0
C1720 C 0.5582 0.2348 0.19036 0.0
H1721 H 0.5017 0.09757 0.06246 0.0
H1722 H 0.47156 0.12077 0.0042 0.0
H1723 H 0.47021 0.15647 0.02107 0.0
H1724 H 0.47226 0.1281 0.10087 0.0
H1725 H 0.49512 0.13295 0.11865 0.0
H1726 H 0.49306 0.10914 0.10218 0.0
H1727 H 0.53063 0.11877 0.08561 0.0
H1728 H 0.53282 0.1426 0.10205 0.0
H1729 H 0.53551 0.14433 0.073 0.0
H1730 H 0.4729 0.18993 0.04422 0.0
H1731 H 0.47948 0.21839 0.07169 0.0
H1732 H 0.50857 0.17315 0.11428 0.0
C1733 C 0.49494 0.11016 0.05314 0.0
C1734 C 0.48675 0.10633 0.03197 0.0
C1735 C 0.4777 0.12322 0.02053 0.0
C1736 C 0.47696 0.14359 0.02994 0.0
C1737 C 0.48532 0.1468 0.05079 0.0
C1738 C 0.49413 0.13054 0.06224 0.0
C1739 C 0.50228 0.13815 0.08427 0.0
C1740 C 0.48994 0.12639 0.10257 0.0
C1741 C 0.52676 0.13583 0.08634 0.0
C1742 C 0.49683 0.16131 0.0834 0.0
C1743 C 0.48698 0.166 0.064 0.0
C1744 C 0.48057 0.18643 0.05948 0.0
C1745 C 0.48438 0.20248 0.07519 0.0
C1746 C 0.49455 0.19802 0.09515 0.0
C1747 C 0.50077 0.17711 0.09921 0.0
H1748 H 0.27045 0.37479 0.72079 0.0
H1749 H 0.21513 0.41314 0.71105 0.0
H1750 H 0.23588 0.44469 0.72569 0.0
H1751 H 0.29017 0.40071 0.7708 0.0
H1752 H 0.31816 0.39927 0.76344 0.0
H1753 H 0.29854 0.37937 0.75355 0.0
H1754 H 0.31024 0.38752 0.71403 0.0
H1755 H 0.32988 0.40742 0.72379 0.0
H1756 H 0.30984 0.41444 0.70425 0.0
H1757 H 0.26263 0.47205 0.74053 0.0
H1758 H 0.29436 0.49418 0.75273 0.0
H1759 H 0.33295 0.43843 0.75177 0.0
C1760 C 0.26269 0.3898 0.72202 0.0
C1761 C 0.24121 0.39161 0.7149 0.0
C1762 C 0.23162 0.41153 0.71636 0.0
C1763 C 0.24322 0.42946 0.72475 0.0
C1764 C 0.26443 0.42721 0.73149 0.0
C1765 C 0.27414 0.40794 0.73012 0.0
C1766 C 0.29753 0.41018 0.73735 0.0
C1767 C 0.30132 0.39657 0.75748 0.0
C1768 C 0.31277 0.40456 0.71874 0.0
C1769 C 0.29946 0.43375 0.74282 0.0
C1770 C 0.28009 0.44319 0.73955 0.0
C1771 C 0.27788 0.46485 0.74321 0.0
C1772 C 0.29601 0.47728 0.75015 0.0
C1773 C 0.31618 0.46807 0.75318 0.0
C1774 C 0.31778 0.44596 0.74963 0.0
H1775 H 0.27668 0.65818 0.76417 0.0
H1776 H 0.27841 0.67477 0.83271 0.0
H1777 H 0.29953 0.64342 0.84004 0.0
H1778 H 0.27192 0.60143 0.77059 0.0
H1779 H 0.28913 0.59602 0.7479 0.0
H1780 H 0.27378 0.61958 0.74809 0.0
H1781 H 0.30893 0.64295 0.74255 0.0
H1782 H 0.3244 0.61947 0.7424 0.0
H1783 H 0.33106 0.64084 0.7613 0.0
H1784 H 0.32064 0.61041 0.83996 0.0
H1785 H 0.33985 0.57773 0.83252 0.0
H1786 H 0.32536 0.58321 0.76389 0.0
C1787 C 0.2816 0.65533 0.78072 0.0
C1788 C 0.27575 0.66896 0.79787 0.0
C1789 C 0.28232 0.66442 0.81933 0.0
C1790 C 0.29449 0.64673 0.82364 0.0
C1791 C 0.30005 0.63374 0.80635 0.0
C1792 C 0.29383 0.6378 0.78531 0.0
C1793 C 0.30198 0.62135 0.76965 0.0
C1794 C 0.28307 0.60885 0.7584 0.0
C1795 C 0.31752 0.63178 0.753 0.0
C1796 C 0.31375 0.6074 0.78518 0.0
C1797 C 0.31244 0.61483 0.80627 0.0
C1798 C 0.32182 0.60445 0.82351 0.0
C1799 C 0.33271 0.5859 0.8191 0.0
C1800 C 0.33418 0.57791 0.79762 0.0
C1801 C 0.32465 0.58896 0.78047 0.0
H1802 H 0.90191 0.45433 0.50698 0.0
H1803 H 0.87423 0.51309 0.48679 0.0
H1804 H 0.83773 0.49559 0.48883 0.0
H1805 H 0.86531 0.41886 0.47665 0.0
H1806 H 0.86417 0.39876 0.49737 0.0
H1807 H 0.88804 0.41604 0.49451 0.0
H1808 H 0.88518 0.42744 0.53485 0.0
H1809 H 0.86125 0.41027 0.53782 0.0
H1810 H 0.86055 0.43819 0.54455 0.0
H1811 H 0.80425 0.4717 0.4933 0.0
H1812 H 0.77626 0.443 0.49905 0.0
H1813 H 0.82599 0.39961 0.51542 0.0
C1814 C 0.88822 0.46349 0.50272 0.0
C1815 C 0.89097 0.48512 0.49673 0.0
C1816 C 0.87253 0.49659 0.49169 0.0
C1817 C 0.85175 0.48676 0.49269 0.0
C1818 C 0.84965 0.46544 0.49873 0.0
C1819 C 0.86739 0.45392 0.50359 0.0
C1820 C 0.86074 0.43122 0.50962 0.0
C1821 C 0.87012 0.41529 0.49357 0.0
C1822 C 0.86732 0.42651 0.53311 0.0
C1823 C 0.83648 0.43173 0.50732 0.0
C1824 C 0.8304 0.45164 0.50111 0.0
C1825 C 0.80882 0.45604 0.49813 0.0
C1826 C 0.79304 0.43962 0.50147 0.0
C1827 C 0.79891 0.41903 0.50767 0.0
C1828 C 0.82096 0.41514 0.51064 0.0
H1829 H 0.73358 0.88485 0.77555 0.0
H1830 H 0.69307 0.83176 0.79928 0.0
H1831 H 0.6607 0.85218 0.79286 0.0
H1832 H 0.70404 0.92584 0.79879 0.0
H1833 H 0.7077 0.94368 0.77621 0.0
H1834 H 0.72755 0.92454 0.78179 0.0
H1835 H 0.72335 0.90947 0.74266 0.0
H1836 H 0.70354 0.92864 0.73692 0.0
H1837 H 0.69697 0.90063 0.73285 0.0
H1838 H 0.63279 0.87909 0.78509 0.0
H1839 H 0.61164 0.9102 0.77631 0.0
H1840 H 0.67056 0.94523 0.75712 0.0
C1841 C 0.71789 0.87734 0.77904 0.0
C1842 C 0.71589 0.85666 0.78792 0.0
C1843 C 0.69504 0.84765 0.79268 0.0
C1844 C 0.67655 0.85908 0.78897 0.0
C1845 C 0.67914 0.87949 0.78042 0.0
C1846 C 0.69929 0.8885 0.77543 0.0
C1847 C 0.69774 0.91091 0.76695 0.0
C1848 C 0.70998 0.9272 0.78183 0.0
C1849 C 0.70588 0.9125 0.74345 0.0
C1850 C 0.6736 0.91318 0.76813 0.0
C1851 C 0.66312 0.89489 0.77588 0.0
C1852 C 0.64082 0.89345 0.77887 0.0
C1853 C 0.62894 0.91122 0.77386 0.0
C1854 C 0.63939 0.93016 0.76596 0.0
C1855 C 0.66202 0.93098 0.763 0.0
H1856 H 0.6376 0.52144 0.94965 0.0
H1857 H 0.59205 0.52698 0.00246 0.0
H1858 H 0.61678 0.55385 0.02026 0.0
H1859 H 0.6852 0.52521 0.98187 0.0
H1860 H 0.70088 0.5406 0.96241 0.0
H1861 H 0.67914 0.52261 0.95333 0.0
H1862 H 0.66159 0.55356 0.93346 0.0
H1863 H 0.68332 0.57164 0.94244 0.0
H1864 H 0.65577 0.57736 0.9484 0.0
H1865 H 0.64746 0.57852 0.03331 0.0
H1866 H 0.68109 0.60039 0.03988 0.0
H1867 H 0.70636 0.57902 0.97826 0.0
C1868 C 0.63281 0.52835 0.96494 0.0
C1869 C 0.61288 0.52215 0.97466 0.0
C1870 C 0.60711 0.53169 0.99458 0.0
C1871 C 0.6211 0.54687 0.00487 0.0
C1872 C 0.64072 0.55244 0.99495 0.0
C1873 C 0.64651 0.54359 0.97535 0.0
C1874 C 0.66863 0.5521 0.96825 0.0
C1875 C 0.68439 0.53405 0.96636 0.0
C1876 C 0.66724 0.5644 0.94687 0.0
C1877 C 0.67453 0.56691 0.98707 0.0
C1878 C 0.65823 0.56687 0.00231 0.0
C1879 C 0.66026 0.57881 0.02141 0.0
C1880 C 0.67945 0.59113 0.02502 0.0
C1881 C 0.69632 0.59149 0.00956 0.0
C1882 C 0.6937 0.57924 0.99032 0.0
H1883 H 0.24369 0.60288 0.23133 0.0
H1884 H 0.20564 0.65846 0.22377 0.0
H1885 H 0.17243 0.63634 0.23077 0.0
H1886 H 0.20675 0.56556 0.20586 0.0
H1887 H 0.21171 0.54419 0.22424 0.0
H1888 H 0.23259 0.56446 0.21914 0.0
H1889 H 0.23564 0.5726 0.26035 0.0
H1890 H 0.21481 0.55228 0.26559 0.0
H1891 H 0.21187 0.57911 0.27527 0.0
H1892 H 0.14326 0.608 0.23739 0.0
H1893 H 0.12022 0.57555 0.244 0.0
H1894 H 0.17734 0.53864 0.24836 0.0
C1895 C 0.22842 0.6105 0.23146 0.0
C1896 C 0.2273 0.63243 0.22691 0.0
C1897 C 0.20691 0.64164 0.22689 0.0
C1898 C 0.18795 0.62924 0.23098 0.0
C1899 C 0.18964 0.60766 0.23521 0.0
C1900 C 0.20934 0.59837 0.23559 0.0
C1901 C 0.20665 0.57476 0.24027 0.0
C1902 C 0.21491 0.56147 0.22124 0.0
C1903 C 0.21791 0.56937 0.26164 0.0
C1904 C 0.18234 0.5722 0.24229 0.0
C1905 C 0.17283 0.59137 0.23931 0.0
C1906 C 0.15052 0.59292 0.23989 0.0
C1907 C 0.13757 0.57438 0.24361 0.0
C1908 C 0.14695 0.55455 0.24676 0.0
C1909 C 0.16967 0.55356 0.24616 0.0
H1910 H 0.89892 0.54985 0.03008 0.0
H1911 H 0.88344 0.49049 0.9956 0.0
H1912 H 0.84714 0.5026 0.98744 0.0
H1913 H 0.84601 0.55617 0.05311 0.0
H1914 H 0.84715 0.58466 0.04976 0.0
H1915 H 0.87166 0.57098 0.05369 0.0
H1916 H 0.88716 0.58717 0.01812 0.0
H1917 H 0.8627 0.60088 0.01407 0.0
H1918 H 0.8721 0.58339 0.99321 0.0
H1919 H 0.81297 0.52149 0.982 0.0
H1920 H 0.7831 0.54581 0.97984 0.0
H1921 H 0.82092 0.59326 0.01724 0.0
C1922 C 0.88794 0.5394 0.02077 0.0
C1923 C 0.89406 0.51914 0.0136 0.0
C1924 C 0.87905 0.5059 0.00163 0.0
C1925 C 0.85842 0.5127 0.99678 0.0
C1926 C 0.85299 0.53278 0.00398 0.0
C1927 C 0.86728 0.54594 0.01574 0.0
C1928 C 0.85752 0.56694 0.02122 0.0
C1929 C 0.85546 0.56985 0.04591 0.0
C1930 C 0.87065 0.5857 0.01104 0.0
C1931 C 0.83557 0.56358 0.01054 0.0
C1932 C 0.83328 0.54374 0.00075 0.0
C1933 C 0.81453 0.53705 0.98966 0.0
C1934 C 0.79766 0.55101 0.98851 0.0
C1935 C 0.79962 0.57146 0.99837 0.0
C1936 C 0.81887 0.57773 0.00956 0.0
H1937 H 0.14097 0.02005 0.03518 0.0
H1938 H 0.11032 0.98795 0.08996 0.0
H1939 H 0.13454 0.9583 0.08556 0.0
H1940 H 0.14939 0.9724 0.00319 0.0
H1941 H 0.1752 0.98223 0.99303 0.0
H1942 H 0.15494 0.00063 1.0 0.0
H1943 H 0.18195 0.02063 0.02609 0.0
H1944 H 0.20226 0.00226 0.01926 0.0
H1945 H 0.19478 0.00609 0.0472 0.0
H1946 H 0.16294 0.93291 0.07631 0.0
H1947 H 0.19287 0.9127 0.06199 0.0
H1948 H 0.20528 0.9611 0.01306 0.0
C1949 C 0.13936 0.00678 0.04624 0.0
C1950 C 0.12366 0.0063 0.06287 0.0
C1951 C 0.12196 0.98854 0.0769 0.0
C1952 C 0.13575 0.97168 0.07462 0.0
C1953 C 0.15112 0.97274 0.05819 0.0
C1954 C 0.15295 0.98975 0.04415 0.0
C1955 C 0.17099 0.987 0.02797 0.0
C1956 C 0.16209 0.98547 0.00467 0.0
C1957 C 0.18853 0.00507 0.03028 0.0
C1958 C 0.17917 0.9659 0.03528 0.0
C1959 C 0.16746 0.95797 0.05273 0.0
C1960 C 0.17217 0.9389 0.06258 0.0
C1961 C 0.18925 0.92755 0.05433 0.0
C1962 C 0.20145 0.93527 0.03636 0.0
C1963 C 0.19625 0.95472 0.02676 0.0
loop_
_geom_bond_atom_site_label_1
_geom_bond_atom_site_label_2
_geom_bond_distance
_geom_bond_site_symmetry_2
_ccdc_geom_bond_type
P0 O11 1.490 . S
P0 C14 1.812 . S
P0 C20 1.803 . S
P0 C26 1.819 . S
H1 C15 0.941 . S
H2 C16 0.939 . S
H3 C18 0.940 . S
H4 C19 0.940 . S
H5 C21 0.939 . S
H6 C22 0.942 . S
H7 C24 0.940 1_565 S
H8 C25 0.939 . S
H9 C27 0.941 . S
H10 C31 0.939 . S
O11 P0 1.490 . S
H12 C28 0.939 . S
H13 C30 0.940 1_556 S
C14 P0 1.812 . S
C14 C15 1.389 . S
C14 C19 1.391 . S
C15 H1 0.941 . S
C15 C14 1.389 . S
C15 C16 1.397 . S
C16 H2 0.939 . S
C16 C15 1.397 . S
C16 C17 1.378 1_455 S
C17 C16 1.378 1_655 S
C17 C18 1.378 . S
C18 H3 0.940 . S
C18 C17 1.378 . S
C18 C19 1.396 1_655 S
C19 H4 0.940 . S
C19 C14 1.391 . S
C19 C18 1.396 1_455 S
C20 P0 1.803 . S
C20 C21 1.378 . S
C20 C25 1.400 . S
C21 H5 0.939 . S
C21 C20 1.378 . S
C21 C22 1.361 . S
C22 H6 0.942 . S
C22 C21 1.361 . S
C22 C23 1.369 . S
C23 C22 1.369 . S
C23 C24 1.404 . S
C24 H7 0.940 1_545 S
C24 C23 1.404 . S
C24 C25 1.389 . S
C25 H8 0.939 . S
C25 C20 1.400 . S
C25 C24 1.389 . S
C26 P0 1.819 . S
C26 C27 1.391 . S
C26 C31 1.391 . S
C27 H9 0.941 . S
C27 C26 1.391 . S
C27 C28 1.396 . S
C28 H12 0.939 . S
C28 C27 1.396 . S
C28 C29 1.397 . S
C29 C28 1.397 . S
C29 C30 1.385 . S
C30 H13 0.940 1_554 S
C30 C29 1.385 . S
C30 C31 1.388 . S
C31 H10 0.939 . S
C31 C26 1.391 . S
C31 C30 1.388 . S
P32 O43 1.490 . S
P32 C46 1.812 . S
P32 C52 1.803 . S
P32 C58 1.819 . S
H33 C47 0.941 . S
H34 C48 0.939 . S
H35 C50 0.940 . S
H36 C51 0.940 . S
H37 C53 0.939 . S
H38 C54 0.942 . S
H39 C56 0.940 . S
H40 C57 0.939 . S
H41 C59 0.941 . S
H42 C63 0.939 . S
O43 P32 1.490 . S
H44 C60 0.939 . S
H45 C62 0.940 . S
C46 P32 1.812 . S
C46 C47 1.389 . S
C46 C51 1.391 . S
C47 H33 0.941 . S
C47 C46 1.389 . S
C47 C48 1.397 . S
C48 H34 0.939 . S
C48 C47 1.397 . S
C48 C49 1.378 . S
C49 C48 1.378 . S
C49 C50 1.378 . S
C50 H35 0.940 . S
C50 C49 1.378 . S
C50 C51 1.396 . S
C51 H36 0.940 . S
C51 C46 1.391 . S
C51 C50 1.396 . S
C52 P32 1.803 . S
C52 C53 1.378 . S
C52 C57 1.400 . S
C53 H37 0.939 . S
C53 C52 1.378 . S
C53 C54 1.361 . S
C54 H38 0.942 . S
C54 C53 1.361 . S
C54 C55 1.369 . S
C55 C54 1.369 . S
C55 C56 1.404 . S
C56 H39 0.940 . S
C56 C55 1.404 . S
C56 C57 1.389 . S
C57 H40 0.939 . S
C57 C52 1.400 . S
C57 C56 1.389 . S
C58 P32 1.819 . S
C58 C59 1.391 . S
C58 C63 1.391 . S
C59 H41 0.941 . S
C59 C58 1.391 . S
C59 C60 1.396 . S
C60 H44 0.939 . S
C60 C59 1.396 . S
C60 C61 1.397 . S
C61 C60 1.397 . S
C61 C62 1.385 . S
C62 H45 0.940 . S
C62 C61 1.385 . S
C62 C63 1.388 . S
C63 H42 0.939 . S
C63 C58 1.391 . S
C63 C62 1.388 . S
P64 O75 1.490 . S
P64 C78 1.812 . S
P64 C84 1.803 . S
P64 C90 1.819 . S
H65 C79 0.941 . S
H66 C80 0.939 . S
H67 C82 0.940 . S
H68 C83 0.940 . S
H69 C85 0.939 . S
H70 C86 0.942 . S
H71 C88 0.940 . S
H72 C89 0.939 . S
H73 C91 0.941 . S
H74 C95 0.939 . S
O75 P64 1.490 . S
H76 C92 0.939 . S
H77 C94 0.940 . S
C78 P64 1.812 . S
C78 C79 1.389 1_554 S
C78 C83 1.391 . S
C79 H65 0.941 . S
C79 C78 1.389 1_556 S
C79 C80 1.397 . S
C80 H66 0.939 . S
C80 C79 1.397 . S
C80 C81 1.378 . S
C81 C80 1.378 . S
C81 C82 1.378 1_556 S
C82 H67 0.940 . S
C82 C81 1.378 1_554 S
C82 C83 1.396 . S
C83 H68 0.940 . S
C83 C78 1.391 . S
C83 C82 1.396 . S
C84 P64 1.803 . S
C84 C85 1.378 . S
C84 C89 1.400 . S
C85 H69 0.939 . S
C85 C84 1.378 . S
C85 C86 1.361 . S
C86 H70 0.942 . S
C86 C85 1.361 . S
C86 C87 1.369 . S
C87 C86 1.369 . S
C87 C88 1.404 . S
C88 H71 0.940 . S
C88 C87 1.404 . S
C88 C89 1.389 . S
C89 H72 0.939 . S
C89 C84 1.400 . S
C89 C88 1.389 . S
C90 P64 1.819 . S
C90 C91 1.391 1_655 S
C90 C95 1.391 . S
C91 H73 0.941 . S
C91 C90 1.391 1_455 S
C91 C92 1.396 . S
C92 H76 0.939 . S
C92 C91 1.396 . S
C92 C93 1.397 . S
C93 C92 1.397 . S
C93 C94 1.385 1_455 S
C94 H77 0.940 . S
C94 C93 1.385 1_655 S
C94 C95 1.388 . S
C95 H74 0.939 . S
C95 C90 1.391 . S
C95 C94 1.388 . S
P96 O107 1.490 . S
P96 C110 1.812 . S
P96 C116 1.803 . S
P96 C122 1.819 . S
H97 C111 0.941 . S
H98 C112 0.939 . S
H99 C114 0.940 . S
H100 C115 0.940 . S
H101 C117 0.939 . S
H102 C118 0.942 . S
H103 C120 0.940 . S
H104 C121 0.939 . S
H105 C123 0.941 . S
H106 C127 0.939 . S
O107 P96 1.490 . S
H108 C124 0.939 . S
H109 C126 0.940 . S
C110 P96 1.812 . S
C110 C111 1.389 . S
C110 C115 1.391 . S
C111 H97 0.941 . S
C111 C110 1.389 . S
C111 C112 1.397 . S
C112 H98 0.939 . S
C112 C111 1.397 . S
C112 C113 1.378 . S
C113 C112 1.378 . S
C113 C114 1.378 . S
C114 H99 0.940 . S
C114 C113 1.378 . S
C114 C115 1.396 . S
C115 H100 0.940 . S
C115 C110 1.391 . S
C115 C114 1.396 . S
C116 P96 1.803 . S
C116 C117 1.378 . S
C116 C121 1.400 . S
C117 H101 0.939 . S
C117 C116 1.378 . S
C117 C118 1.361 . S
C118 H102 0.942 . S
C118 C117 1.361 . S
C118 C119 1.369 . S
C119 C118 1.369 . S
C119 C120 1.404 . S
C120 H103 0.940 . S
C120 C119 1.404 . S
C120 C121 1.389 . S
C121 H104 0.939 . S
C121 C116 1.400 . S
C121 C120 1.389 . S
C122 P96 1.819 . S
C122 C123 1.391 . S
C122 C127 1.391 . S
C123 H105 0.941 . S
C123 C122 1.391 . S
C123 C124 1.396 . S
C124 H108 0.939 . S
C124 C123 1.396 . S
C124 C125 1.397 . S
C125 C124 1.397 . S
C125 C126 1.385 . S
C126 H109 0.940 . S
C126 C125 1.385 . S
C126 C127 1.388 . S
C127 H106 0.939 . S
C127 C122 1.391 . S
C127 C126 1.388 . S
P128 O139 1.490 . S
P128 C142 1.812 . S
P128 C148 1.803 . S
P128 C154 1.819 . S
H129 C143 0.941 . S
H130 C144 0.939 . S
H131 C146 0.940 . S
H132 C147 0.940 . S
H133 C149 0.939 . S
H134 C150 0.942 . S
H135 C152 0.940 . S
H136 C153 0.939 . S
H137 C155 0.941 . S
H138 C159 0.939 . S
O139 P128 1.490 . S
H140 C156 0.939 . S
H141 C158 0.940 . S
C142 P128 1.812 . S
C142 C143 1.389 . S
C142 C147 1.391 . S
C143 H129 0.941 . S
C143 C142 1.389 . S
C143 C144 1.397 . S
C144 H130 0.939 . S
C144 C143 1.397 . S
C144 C145 1.378 1_565 S
C145 C144 1.378 1_545 S
C145 C146 1.378 . S
C146 H131 0.940 . S
C146 C145 1.378 . S
C146 C147 1.396 1_545 S
C147 H132 0.940 . S
C147 C142 1.391 . S
C147 C146 1.396 1_565 S
C148 P128 1.803 . S
C148 C149 1.378 . S
C148 C153 1.400 . S
C149 H133 0.939 . S
C149 C148 1.378 . S
C149 C150 1.361 . S
C150 H134 0.942 . S
C150 C149 1.361 . S
C150 C151 1.369 . S
C151 C150 1.369 . S
C151 C152 1.404 . S
C152 H135 0.940 . S
C152 C151 1.404 . S
C152 C153 1.389 . S
C153 H136 0.939 . S
C153 C148 1.400 . S
C153 C152 1.389 . S
C154 P128 1.819 . S
C154 C155 1.391 . S
C154 C159 1.391 . S
C155 H137 0.941 . S
C155 C154 1.391 . S
C155 C156 1.396 . S
C156 H140 0.939 . S
C156 C155 1.396 . S
C156 C157 1.397 1_455 S
C157 C156 1.397 1_655 S
C157 C158 1.385 . S
C158 H141 0.940 . S
C158 C157 1.385 . S
C158 C159 1.388 1_655 S
C159 H138 0.939 . S
C159 C154 1.391 . S
C159 C158 1.388 1_455 S
P160 O171 1.490 . S
P160 C174 1.812 . S
P160 C180 1.803 . S
P160 C186 1.819 . S
H161 C175 0.941 . S
H162 C176 0.939 . S
H163 C178 0.940 . S
H164 C179 0.940 . S
H165 C181 0.939 . S
H166 C182 0.942 . S
H167 C184 0.940 . S
H168 C185 0.939 . S
H169 C187 0.941 . S
H170 C191 0.939 . S
O171 P160 1.490 . S
H172 C188 0.939 . S
H173 C190 0.940 . S
C174 P160 1.812 . S
C174 C175 1.389 . S
C174 C179 1.391 . S
C175 H161 0.941 . S
C175 C174 1.389 . S
C175 C176 1.397 . S
C176 H162 0.939 . S
C176 C175 1.397 . S
C176 C177 1.378 . S
C177 C176 1.378 . S
C177 C178 1.378 . S
C178 H163 0.940 . S
C178 C177 1.378 . S
C178 C179 1.396 . S
C179 H164 0.940 . S
C179 C174 1.391 . S
C179 C178 1.396 . S
C180 P160 1.803 . S
C180 C181 1.378 . S
C180 C185 1.400 . S
C181 H165 0.939 . S
C181 C180 1.378 . S
C181 C182 1.361 . S
C182 H166 0.942 . S
C182 C181 1.361 . S
C182 C183 1.369 . S
C183 C182 1.369 . S
C183 C184 1.404 . S
C184 H167 0.940 . S
C184 C183 1.404 . S
C184 C185 1.389 . S
C185 H168 0.939 . S
C185 C180 1.400 . S
C185 C184 1.389 . S
C186 P160 1.819 . S
C186 C187 1.391 . S
C186 C191 1.391 . S
C187 H169 0.941 . S
C187 C186 1.391 . S
C187 C188 1.396 . S
C188 H172 0.939 . S
C188 C187 1.396 . S
C188 C189 1.397 . S
C189 C188 1.397 . S
C189 C190 1.385 . S
C190 H173 0.940 . S
C190 C189 1.385 . S
C190 C191 1.388 . S
C191 H170 0.939 . S
C191 C186 1.391 . S
C191 C190 1.388 . S
P192 O203 1.490 . S
P192 C206 1.812 . S
P192 C212 1.803 . S
P192 C218 1.819 . S
H193 C207 0.941 . S
H194 C208 0.939 . S
H195 C210 0.940 . S
H196 C211 0.940 . S
H197 C213 0.939 . S
H198 C214 0.942 . S
H199 C216 0.940 . S
H200 C217 0.939 . S
H201 C219 0.941 . S
H202 C223 0.939 . S
O203 P192 1.490 . S
H204 C220 0.939 . S
H205 C222 0.940 . S
C206 P192 1.812 . S
C206 C207 1.389 1_655 S
C206 C211 1.391 . S
C207 H193 0.941 . S
C207 C206 1.389 1_455 S
C207 C208 1.397 . S
C208 H194 0.939 . S
C208 C207 1.397 . S
C208 C209 1.378 . S
C209 C208 1.378 . S
C209 C210 1.378 1_455 S
C210 H195 0.940 . S
C210 C209 1.378 1_655 S
C210 C211 1.396 . S
C211 H196 0.940 . S
C211 C206 1.391 . S
C211 C210 1.396 . S
C212 P192 1.803 . S
C212 C213 1.378 . S
C212 C217 1.400 . S
C213 H197 0.939 . S
C213 C212 1.378 . S
C213 C214 1.361 . S
C214 H198 0.942 . S
C214 C213 1.361 . S
C214 C215 1.369 . S
C215 C214 1.369 . S
C215 C216 1.404 . S
C216 H199 0.940 . S
C216 C215 1.404 . S
C216 C217 1.389 . S
C217 H200 0.939 . S
C217 C212 1.400 . S
C217 C216 1.389 . S
C218 P192 1.819 . S
C218 C219 1.391 . S
C218 C223 1.391 . S
C219 H201 0.941 . S
C219 C218 1.391 . S
C219 C220 1.396 . S
C220 H204 0.939 . S
C220 C219 1.396 . S
C220 C221 1.397 . S
C221 C220 1.397 . S
C221 C222 1.385 . S
C222 H205 0.940 . S
C222 C221 1.385 . S
C222 C223 1.388 . S
C223 H202 0.939 . S
C223 C218 1.391 . S
C223 C222 1.388 . S
P224 O235 1.490 . S
P224 C238 1.812 . S
P224 C244 1.803 . S
P224 C250 1.819 . S
H225 C239 0.941 . S
H226 C240 0.939 . S
H227 C242 0.940 . S
H228 C243 0.940 . S
H229 C245 0.939 . S
H230 C246 0.942 . S
H231 C248 0.940 . S
H232 C249 0.939 . S
H233 C251 0.941 . S
H234 C255 0.939 . S
O235 P224 1.490 . S
H236 C252 0.939 . S
H237 C254 0.940 . S
C238 P224 1.812 . S
C238 C239 1.389 . S
C238 C243 1.391 . S
C239 H225 0.941 . S
C239 C238 1.389 . S
C239 C240 1.397 . S
C240 H226 0.939 . S
C240 C239 1.397 . S
C240 C241 1.378 . S
C241 C240 1.378 . S
C241 C242 1.378 . S
C242 H227 0.940 . S
C242 C241 1.378 . S
C242 C243 1.396 . S
C243 H228 0.940 . S
C243 C238 1.391 . S
C243 C242 1.396 . S
C244 P224 1.803 . S
C244 C245 1.378 . S
C244 C249 1.400 . S
C245 H229 0.939 . S
C245 C244 1.378 . S
C245 C246 1.361 . S
C246 H230 0.942 . S
C246 C245 1.361 . S
C246 C247 1.369 . S
C247 C246 1.369 . S
C247 C248 1.404 . S
C248 H231 0.940 . S
C248 C247 1.404 . S
C248 C249 1.389 . S
C249 H232 0.939 . S
C249 C244 1.400 . S
C249 C248 1.389 . S
C250 P224 1.819 . S
C250 C251 1.391 . S
C250 C255 1.391 . S
C251 H233 0.941 . S
C251 C250 1.391 . S
C251 C252 1.396 . S
C252 H236 0.939 . S
C252 C251 1.396 . S
C252 C253 1.397 . S
C253 C252 1.397 . S
C253 C254 1.385 . S
C254 H237 0.940 . S
C254 C253 1.385 . S
C254 C255 1.388 . S
C255 H234 0.939 . S
C255 C250 1.391 . S
C255 C254 1.388 . S
P256 O267 1.490 . S
P256 C270 1.812 . S
P256 C276 1.803 . S
P256 C282 1.819 . S
H257 C271 0.941 . S
H258 C272 0.939 . S
H259 C274 0.940 . S
H260 C275 0.940 . S
H261 C277 0.939 . S
H262 C278 0.942 . S
H263 C280 0.940 . S
H264 C281 0.939 . S
H265 C283 0.941 . S
H266 C287 0.939 . S
O267 P256 1.490 . S
H268 C284 0.939 . S
H269 C286 0.940 . S
C270 P256 1.812 . S
C270 C271 1.389 . S
C270 C275 1.391 . S
C271 H257 0.941 . S
C271 C270 1.389 . S
C271 C272 1.397 . S
C272 H258 0.939 . S
C272 C271 1.397 . S
C272 C273 1.378 . S
C273 C272 1.378 . S
C273 C274 1.378 . S
C274 H259 0.940 . S
C274 C273 1.378 . S
C274 C275 1.396 . S
C275 H260 0.940 . S
C275 C270 1.391 . S
C275 C274 1.396 . S
C276 P256 1.803 . S
C276 C277 1.378 . S
C276 C281 1.400 . S
C277 H261 0.939 . S
C277 C276 1.378 . S
C277 C278 1.361 . S
C278 H262 0.942 . S
C278 C277 1.361 . S
C278 C279 1.369 . S
C279 C278 1.369 . S
C279 C280 1.404 . S
C280 H263 0.940 . S
C280 C279 1.404 . S
C280 C281 1.389 . S
C281 H264 0.939 . S
C281 C276 1.400 . S
C281 C280 1.389 . S
C282 P256 1.819 . S
C282 C283 1.391 . S
C282 C287 1.391 . S
C283 H265 0.941 . S
C283 C282 1.391 . S
C283 C284 1.396 . S
C284 H268 0.939 . S
C284 C283 1.396 . S
C284 C285 1.397 . S
C285 C284 1.397 . S
C285 C286 1.385 . S
C286 H269 0.940 . S
C286 C285 1.385 . S
C286 C287 1.388 . S
C287 H266 0.939 . S
C287 C282 1.391 . S
C287 C286 1.388 . S
P288 O299 1.482 1_565 S
P288 C302 1.812 . S
P288 C308 1.803 . S
P288 C314 1.819 . S
H289 C303 0.941 . S
H290 C304 0.939 . S
H291 C306 0.940 . S
H292 C307 0.940 . S
H293 C309 0.939 . S
H294 C310 0.942 . S
H295 C312 0.940 . S
H296 C313 0.939 . S
H297 C315 0.941 . S
H298 C319 0.939 . S
O299 P288 1.482 1_545 S
H300 C316 0.939 . S
H301 C318 0.940 . S
C302 P288 1.812 . S
C302 C303 1.389 . S
C302 C307 1.391 . S
C303 H289 0.941 . S
C303 C302 1.389 . S
C303 C304 1.397 . S
C304 H290 0.939 . S
C304 C303 1.397 . S
C304 C305 1.378 . S
C305 C304 1.378 . S
C305 C306 1.378 . S
C306 H291 0.940 . S
C306 C305 1.378 . S
C306 C307 1.396 . S
C307 H292 0.940 . S
C307 C302 1.391 . S
C307 C306 1.396 . S
C308 P288 1.803 . S
C308 C309 1.378 1_565 S
C308 C313 1.400 . S
C309 H293 0.939 . S
C309 C308 1.378 1_545 S
C309 C310 1.361 . S
C310 H294 0.942 . S
C310 C309 1.361 . S
C310 C311 1.369 . S
C311 C310 1.369 . S
C311 C312 1.404 1_545 S
C312 H295 0.940 . S
C312 C311 1.404 1_565 S
C312 C313 1.389 . S
C313 H296 0.939 . S
C313 C308 1.400 . S
C313 C312 1.389 . S
C314 P288 1.819 . S
C314 C315 1.391 . S
C314 C319 1.391 . S
C315 H297 0.941 . S
C315 C314 1.391 . S
C315 C316 1.396 . S
C316 H300 0.939 . S
C316 C315 1.396 . S
C316 C317 1.397 . S
C317 C316 1.397 . S
C317 C318 1.385 . S
C318 H301 0.940 . S
C318 C317 1.385 . S
C318 C319 1.388 . S
C319 H298 0.939 . S
C319 C314 1.391 . S
C319 C318 1.388 . S
P320 O331 1.490 . S
P320 C334 1.812 . S
P320 C340 1.803 . S
P320 C346 1.819 . S
H321 C335 0.941 . S
H322 C336 0.939 . S
H323 C338 0.940 . S
H324 C339 0.940 . S
H325 C341 0.939 . S
H326 C342 0.942 . S
H327 C344 0.940 . S
H328 C345 0.939 . S
H329 C347 0.941 . S
H330 C351 0.939 . S
O331 P320 1.490 . S
H332 C348 0.939 . S
H333 C350 0.940 . S
C334 P320 1.812 . S
C334 C335 1.389 . S
C334 C339 1.391 . S
C335 H321 0.941 . S
C335 C334 1.389 . S
C335 C336 1.397 . S
C336 H322 0.939 . S
C336 C335 1.397 . S
C336 C337 1.378 . S
C337 C336 1.378 . S
C337 C338 1.378 . S
C338 H323 0.940 . S
C338 C337 1.378 . S
C338 C339 1.396 . S
C339 H324 0.940 . S
C339 C334 1.391 . S
C339 C338 1.396 . S
C340 P320 1.803 . S
C340 C341 1.378 . S
C340 C345 1.400 . S
C341 H325 0.939 . S
C341 C340 1.378 . S
C341 C342 1.361 . S
C342 H326 0.942 . S
C342 C341 1.361 . S
C342 C343 1.369 . S
C343 C342 1.369 . S
C343 C344 1.404 . S
C344 H327 0.940 . S
C344 C343 1.404 . S
C344 C345 1.389 . S
C345 H328 0.939 . S
C345 C340 1.400 . S
C345 C344 1.389 . S
C346 P320 1.819 . S
C346 C347 1.391 . S
C346 C351 1.391 . S
C347 H329 0.941 . S
C347 C346 1.391 . S
C347 C348 1.396 . S
C348 H332 0.939 . S
C348 C347 1.396 . S
C348 C349 1.397 . S
C349 C348 1.397 . S
C349 C350 1.385 . S
C350 H333 0.940 . S
C350 C349 1.385 . S
C350 C351 1.388 . S
C351 H330 0.939 . S
C351 C346 1.391 . S
C351 C350 1.388 . S
P352 O363 1.490 . S
P352 C366 1.812 . S
P352 C372 1.803 . S
P352 C378 1.819 . S
H353 C367 0.941 . S
H354 C368 0.939 . S
H355 C370 0.940 . S
H356 C371 0.940 . S
H357 C373 0.939 . S
H358 C374 0.942 . S
H359 C376 0.940 . S
H360 C377 0.939 . S
H361 C379 0.941 . S
H362 C383 0.939 . S
O363 P352 1.490 . S
H364 C380 0.939 . S
H365 C382 0.940 . S
C366 P352 1.812 . S
C366 C367 1.389 . S
C366 C371 1.391 . S
C367 H353 0.941 . S
C367 C366 1.389 . S
C367 C368 1.397 . S
C368 H354 0.939 . S
C368 C367 1.397 . S
C368 C369 1.378 . S
C369 C368 1.378 . S
C369 C370 1.378 . S
C370 H355 0.940 . S
C370 C369 1.378 . S
C370 C371 1.396 . S
C371 H356 0.940 . S
C371 C366 1.391 . S
C371 C370 1.396 . S
C372 P352 1.803 . S
C372 C373 1.378 . S
C372 C377 1.400 . S
C373 H357 0.939 . S
C373 C372 1.378 . S
C373 C374 1.361 . S
C374 H358 0.942 . S
C374 C373 1.361 . S
C374 C375 1.369 . S
C375 C374 1.369 . S
C375 C376 1.404 . S
C376 H359 0.940 . S
C376 C375 1.404 . S
C376 C377 1.389 . S
C377 H360 0.939 . S
C377 C372 1.400 . S
C377 C376 1.389 . S
C378 P352 1.819 . S
C378 C379 1.391 . S
C378 C383 1.391 . S
C379 H361 0.941 . S
C379 C378 1.391 . S
C379 C380 1.396 . S
C380 H364 0.939 . S
C380 C379 1.396 . S
C380 C381 1.397 . S
C381 C380 1.397 . S
C381 C382 1.385 . S
C382 H365 0.940 . S
C382 C381 1.385 . S
C382 C383 1.388 . S
C383 H362 0.939 . S
C383 C378 1.391 . S
C383 C382 1.388 . S
P384 O395 1.490 . S
P384 C398 1.812 . S
P384 C404 1.803 . S
P384 C410 1.819 . S
H385 C399 0.941 . S
H386 C400 0.939 . S
H387 C402 0.940 . S
H388 C403 0.940 . S
H389 C405 0.939 . S
H390 C406 0.942 . S
H391 C408 0.940 . S
H392 C409 0.939 . S
H393 C411 0.941 . S
H394 C415 0.939 . S
O395 P384 1.490 . S
H396 C412 0.939 . S
H397 C414 0.940 . S
C398 P384 1.812 . S
C398 C399 1.389 . S
C398 C403 1.391 . S
C399 H385 0.941 . S
C399 C398 1.389 . S
C399 C400 1.397 . S
C400 H386 0.939 . S
C400 C399 1.397 . S
C400 C401 1.378 . S
C401 C400 1.378 . S
C401 C402 1.378 . S
C402 H387 0.940 . S
C402 C401 1.378 . S
C402 C403 1.396 . S
C403 H388 0.940 . S
C403 C398 1.391 . S
C403 C402 1.396 . S
C404 P384 1.803 . S
C404 C405 1.378 . S
C404 C409 1.400 . S
C405 H389 0.939 . S
C405 C404 1.378 . S
C405 C406 1.361 . S
C406 H390 0.942 . S
C406 C405 1.361 . S
C406 C407 1.369 . S
C407 C406 1.369 . S
C407 C408 1.404 . S
C408 H391 0.940 . S
C408 C407 1.404 . S
C408 C409 1.389 . S
C409 H392 0.939 . S
C409 C404 1.400 . S
C409 C408 1.389 . S
C410 P384 1.819 . S
C410 C411 1.391 . S
C410 C415 1.391 . S
C411 H393 0.941 . S
C411 C410 1.391 . S
C411 C412 1.396 . S
C412 H396 0.939 . S
C412 C411 1.396 . S
C412 C413 1.397 . S
C413 C412 1.397 . S
C413 C414 1.385 . S
C414 H397 0.940 . S
C414 C413 1.385 . S
C414 C415 1.388 . S
C415 H394 0.939 . S
C415 C410 1.391 . S
C415 C414 1.388 . S
P416 O427 1.490 . S
P416 C430 1.812 . S
P416 C436 1.803 . S
P416 C442 1.819 . S
H417 C431 0.941 . S
H418 C432 0.939 . S
H419 C434 0.940 . S
H420 C435 0.940 . S
H421 C437 0.939 . S
H422 C438 0.942 . S
H423 C440 0.940 . S
H424 C441 0.939 . S
H425 C443 0.941 . S
H426 C447 0.939 . S
O427 P416 1.490 . S
H428 C444 0.939 . S
H429 C446 0.940 . S
C430 P416 1.812 . S
C430 C431 1.389 . S
C430 C435 1.391 . S
C431 H417 0.941 . S
C431 C430 1.389 . S
C431 C432 1.397 . S
C432 H418 0.939 . S
C432 C431 1.397 . S
C432 C433 1.378 . S
C433 C432 1.378 . S
C433 C434 1.378 . S
C434 H419 0.940 . S
C434 C433 1.378 . S
C434 C435 1.396 . S
C435 H420 0.940 . S
C435 C430 1.391 . S
C435 C434 1.396 . S
C436 P416 1.803 . S
C436 C437 1.378 . S
C436 C441 1.400 . S
C437 H421 0.939 . S
C437 C436 1.378 . S
C437 C438 1.361 . S
C438 H422 0.942 . S
C438 C437 1.361 . S
C438 C439 1.369 1_556 S
C439 C438 1.369 1_554 S
C439 C440 1.404 . S
C440 H423 0.940 . S
C440 C439 1.404 . S
C440 C441 1.389 1_554 S
C441 H424 0.939 . S
C441 C436 1.400 . S
C441 C440 1.389 1_556 S
C442 P416 1.819 . S
C442 C443 1.391 . S
C442 C447 1.391 . S
C443 H425 0.941 . S
C443 C442 1.391 . S
C443 C444 1.396 . S
C444 H428 0.939 . S
C444 C443 1.396 . S
C444 C445 1.397 . S
C445 C444 1.397 . S
C445 C446 1.385 . S
C446 H429 0.940 . S
C446 C445 1.385 . S
C446 C447 1.388 . S
C447 H426 0.939 . S
C447 C442 1.391 . S
C447 C446 1.388 . S
P448 O459 1.490 . S
P448 C462 1.812 . S
P448 C468 1.803 . S
P448 C474 1.819 . S
H449 C463 0.941 . S
H450 C464 0.939 . S
H451 C466 0.940 . S
H452 C467 0.940 . S
H453 C469 0.939 . S
H454 C470 0.942 . S
H455 C472 0.940 . S
H456 C473 0.939 . S
H457 C475 0.941 . S
H458 C479 0.939 . S
O459 P448 1.490 . S
H460 C476 0.939 . S
H461 C478 0.940 . S
C462 P448 1.812 . S
C462 C463 1.389 . S
C462 C467 1.391 . S
C463 H449 0.941 . S
C463 C462 1.389 . S
C463 C464 1.397 . S
C464 H450 0.939 . S
C464 C463 1.397 . S
C464 C465 1.378 . S
C465 C464 1.378 . S
C465 C466 1.378 . S
C466 H451 0.940 . S
C466 C465 1.378 . S
C466 C467 1.396 . S
C467 H452 0.940 . S
C467 C462 1.391 . S
C467 C466 1.396 . S
C468 P448 1.803 . S
C468 C469 1.378 . S
C468 C473 1.400 . S
C469 H453 0.939 . S
C469 C468 1.378 . S
C469 C470 1.361 . S
C470 H454 0.942 . S
C470 C469 1.361 . S
C470 C471 1.369 . S
C471 C470 1.369 . S
C471 C472 1.404 . S
C472 H455 0.940 . S
C472 C471 1.404 . S
C472 C473 1.389 . S
C473 H456 0.939 . S
C473 C468 1.400 . S
C473 C472 1.389 . S
C474 P448 1.819 . S
C474 C475 1.391 . S
C474 C479 1.391 . S
C475 H457 0.941 . S
C475 C474 1.391 . S
C475 C476 1.396 . S
C476 H460 0.939 . S
C476 C475 1.396 . S
C476 C477 1.397 . S
C477 C476 1.397 . S
C477 C478 1.385 . S
C478 H461 0.940 . S
C478 C477 1.385 . S
C478 C479 1.388 . S
C479 H458 0.939 . S
C479 C474 1.391 . S
C479 C478 1.388 . S
P480 O491 1.490 1_556 S
P480 C494 1.812 . S
P480 C500 1.803 . S
P480 C506 1.819 . S
H481 C495 0.941 . S
H482 C496 0.939 . S
H483 C498 0.940 . S
H484 C499 0.940 . S
H485 C501 0.939 . S
H486 C502 0.942 . S
H487 C504 0.940 . S
H488 C505 0.939 . S
H489 C507 0.941 . S
H490 C511 0.939 . S
O491 P480 1.490 1_554 S
H492 C508 0.939 . S
H493 C510 0.940 . S
C494 P480 1.812 . S
C494 C495 1.389 . S
C494 C499 1.391 . S
C495 H481 0.941 . S
C495 C494 1.389 . S
C495 C496 1.397 . S
C496 H482 0.939 . S
C496 C495 1.397 . S
C496 C497 1.378 . S
C497 C496 1.378 . S
C497 C498 1.378 . S
C498 H483 0.940 . S
C498 C497 1.378 . S
C498 C499 1.396 . S
C499 H484 0.940 . S
C499 C494 1.391 . S
C499 C498 1.396 . S
C500 P480 1.803 . S
C500 C501 1.378 1_556 S
C500 C505 1.400 . S
C501 H485 0.939 . S
C501 C500 1.378 1_554 S
C501 C502 1.361 . S
C502 H486 0.942 . S
C502 C501 1.361 . S
C502 C503 1.369 . S
C503 C502 1.369 . S
C503 C504 1.404 1_554 S
C504 H487 0.940 . S
C504 C503 1.404 1_556 S
C504 C505 1.389 . S
C505 H488 0.939 . S
C505 C500 1.400 . S
C505 C504 1.389 . S
C506 P480 1.819 . S
C506 C507 1.391 1_545 S
C506 C511 1.391 . S
C507 H489 0.941 . S
C507 C506 1.391 1_565 S
C507 C508 1.396 . S
C508 H492 0.939 . S
C508 C507 1.396 . S
C508 C509 1.397 . S
C509 C508 1.397 . S
C509 C510 1.385 1_565 S
C510 H493 0.940 . S
C510 C509 1.385 1_545 S
C510 C511 1.388 . S
C511 H490 0.939 . S
C511 C506 1.391 . S
C511 C510 1.388 . S
C512 O513 1.160 1_554 S
C512 O519 1.185 . S
O513 C512 1.160 1_556 S
O514 Zn515 1.899 1_556 S
O514 C522 1.284 . S
Zn515 O514 1.899 1_554 S
Zn515 O516 2.032 . S
Zn515 O519 2.086 . S
Zn515 O524 1.977 . S
O516 Zn515 2.032 . S
O516 C520 1.278 . S
C517 O518 1.203 . S
C517 O524 1.267 . S
O518 C517 1.203 . S
O519 C512 1.185 . S
O519 Zn515 2.086 . S
C520 O516 1.278 . S
C520 O521 1.211 . S
O521 C520 1.211 . S
C522 O514 1.284 . S
C522 O523 1.273 . S
O523 C522 1.273 . S
O524 Zn515 1.977 . S
O524 C517 1.267 . S
C525 O526 1.160 . S
C525 O532 1.185 . S
O526 C525 1.160 . S
O527 Zn528 1.899 . S
O527 C535 1.284 . S
Zn528 O527 1.899 . S
Zn528 O529 2.032 . S
Zn528 O532 2.086 . S
Zn528 O537 1.977 . S
O529 Zn528 2.032 . S
O529 C533 1.278 . S
C530 O531 1.203 . S
C530 O537 1.267 . S
O531 C530 1.203 . S
O532 C525 1.185 . S
O532 Zn528 2.086 . S
C533 O529 1.278 . S
C533 O534 1.211 . S
O534 C533 1.211 . S
C535 O527 1.284 . S
C535 O536 1.273 . S
O536 C535 1.273 . S
O537 Zn528 1.977 . S
O537 C530 1.267 . S
C538 O539 1.160 1_554 S
C538 O545 1.185 . S
O539 C538 1.160 1_556 S
O540 Zn541 1.899 1_556 S
O540 C548 1.284 . S
Zn541 O540 1.899 1_554 S
Zn541 O542 2.032 1_554 S
Zn541 O545 2.086 . S
Zn541 O550 1.977 . S
O542 Zn541 2.032 1_556 S
O542 C546 1.281 . S
C543 O544 1.203 . S
C543 O550 1.267 . S
O544 C543 1.203 . S
O545 C538 1.185 . S
O545 Zn541 2.086 . S
C546 O542 1.281 . S
C546 O547 1.201 1_556 S
O547 C546 1.201 1_554 S
C548 O540 1.284 . S
C548 O549 1.273 . S
O549 C548 1.273 . S
O550 Zn541 1.977 . S
O550 C543 1.267 . S
C551 O552 1.160 . S
C551 O558 1.185 . S
O552 C551 1.160 . S
O553 Zn554 1.899 . S
O553 C561 1.284 . S
Zn554 O553 1.899 . S
Zn554 O555 2.032 1_545 S
Zn554 O558 2.086 . S
Zn554 O563 1.977 . S
O555 Zn554 2.032 1_565 S
O555 C559 1.278 . S
C556 O557 1.203 . S
C556 O563 1.267 . S
O557 C556 1.203 . S
O558 C551 1.185 . S
O558 Zn554 2.086 . S
C559 O555 1.278 . S
C559 O560 1.211 . S
O560 C559 1.211 . S
C561 O553 1.284 . S
C561 O562 1.273 1_545 S
O562 C561 1.273 1_565 S
O563 Zn554 1.977 . S
O563 C556 1.267 . S
C564 O565 1.160 . S
C564 O571 1.185 . S
O565 C564 1.160 . S
O566 Zn567 1.899 . S
O566 C574 1.284 . S
Zn567 O566 1.899 . S
Zn567 O568 2.032 . S
Zn567 O571 2.086 . S
Zn567 O576 1.977 . S
O568 Zn567 2.032 . S
O568 C572 1.278 . S
C569 O570 1.203 . S
C569 O576 1.267 . S
O570 C569 1.203 . S
O571 C564 1.185 . S
O571 Zn567 2.086 . S
C572 O568 1.278 . S
C572 O573 1.211 . S
O573 C572 1.211 . S
C574 O566 1.284 . S
C574 O575 1.273 . S
O575 C574 1.273 . S
O576 Zn567 1.977 . S
O576 C569 1.267 . S
C577 O578 1.160 . S
C577 O584 1.185 . S
O578 C577 1.160 . S
O579 Zn580 1.899 . S
O579 C587 1.284 . S
Zn580 O579 1.899 . S
Zn580 O581 2.032 . S
Zn580 O584 2.086 . S
Zn580 O589 1.977 . S
O581 Zn580 2.032 . S
O581 C585 1.278 . S
C582 O583 1.203 . S
C582 O589 1.267 . S
O583 C582 1.203 . S
O584 C577 1.185 . S
O584 Zn580 2.086 . S
C585 O581 1.278 . S
C585 O586 1.211 . S
O586 C585 1.211 . S
C587 O579 1.284 . S
C587 O588 1.273 . S
O588 C587 1.273 . S
O589 Zn580 1.977 . S
O589 C582 1.267 . S
C590 O591 1.160 . S
C590 O597 1.185 . S
O591 C590 1.160 . S
O592 Zn593 1.899 . S
O592 C600 1.284 . S
Zn593 O592 1.899 . S
Zn593 O594 2.032 . S
Zn593 O597 2.086 . S
Zn593 O602 1.977 . S
O594 Zn593 2.032 . S
O594 C598 1.278 . S
C595 O596 1.203 . S
C595 O602 1.267 . S
O596 C595 1.203 . S
O597 C590 1.185 . S
O597 Zn593 2.086 . S
C598 O594 1.278 . S
C598 O599 1.211 . S
O599 C598 1.211 . S
C600 O592 1.284 . S
C600 O601 1.273 . S
O601 C600 1.273 . S
O602 Zn593 1.977 . S
O602 C595 1.267 . S
C603 O604 1.160 . S
C603 O610 1.185 . S
O604 C603 1.160 . S
O605 Zn606 1.899 . S
O605 C613 1.284 1_565 S
Zn606 O605 1.899 . S
Zn606 O607 2.032 1_565 S
Zn606 O610 2.086 . S
Zn606 O615 1.977 . S
O607 Zn606 2.032 1_545 S
O607 C611 1.278 . S
C608 O609 1.203 1_565 S
C608 O615 1.267 . S
O609 C608 1.203 1_545 S
O610 C603 1.185 . S
O610 Zn606 2.086 . S
C611 O607 1.278 . S
C611 O612 1.211 . S
O612 C611 1.211 . S
C613 O605 1.284 1_545 S
C613 O614 1.273 . S
O614 C613 1.273 . S
O615 Zn606 1.977 . S
O615 C608 1.267 . S
C616 O617 1.160 1_455 S
C616 O623 1.185 . S
O617 C616 1.160 1_655 S
O618 Zn619 1.899 1_655 S
O618 C626 1.284 . S
Zn619 O618 1.899 1_455 S
Zn619 O620 2.043 . S
Zn619 O623 2.086 . S
Zn619 O628 1.977 . S
O620 Zn619 2.043 . S
O620 C624 1.281 . S
C621 O622 1.203 . S
C621 O628 1.267 . S
O622 C621 1.203 . S
O623 C616 1.185 . S
O623 Zn619 2.086 . S
C624 O620 1.281 . S
C624 O625 1.211 . S
O625 C624 1.211 . S
C626 O618 1.284 . S
C626 O627 1.273 . S
O627 C626 1.273 . S
O628 Zn619 1.977 . S
O628 C621 1.267 . S
C629 O630 1.160 . S
C629 O636 1.185 . S
O630 C629 1.160 . S
O631 Zn632 1.899 . S
O631 C639 1.284 . S
Zn632 O631 1.899 . S
Zn632 O633 2.032 . S
Zn632 O636 2.086 . S
Zn632 O641 1.977 . S
O633 Zn632 2.032 . S
O633 C637 1.278 . S
C634 O635 1.203 . S
C634 O641 1.267 . S
O635 C634 1.203 . S
O636 C629 1.185 . S
O636 Zn632 2.086 . S
C637 O633 1.278 . S
C637 O638 1.211 . S
O638 C637 1.211 . S
C639 O631 1.284 . S
C639 O640 1.273 . S
O640 C639 1.273 . S
O641 Zn632 1.977 . S
O641 C634 1.267 . S
C642 O643 1.160 1_455 S
C642 O649 1.185 . S
O643 C642 1.160 1_655 S
O644 Zn645 1.899 1_655 S
O644 C652 1.284 . S
Zn645 O644 1.899 1_455 S
Zn645 O646 2.032 1_455 S
Zn645 O649 2.086 . S
Zn645 O654 1.977 . S
O646 Zn645 2.032 1_655 S
O646 C650 1.278 . S
C647 O648 1.203 . S
C647 O654 1.267 . S
O648 C647 1.203 . S
O649 C642 1.185 . S
O649 Zn645 2.086 . S
C650 O646 1.278 . S
C650 O651 1.211 1_655 S
O651 C650 1.211 1_455 S
C652 O644 1.284 . S
C652 O653 1.273 . S
O653 C652 1.273 . S
O654 Zn645 1.977 . S
O654 C647 1.267 . S
C655 O656 1.160 . S
C655 O662 1.185 . S
O656 C655 1.160 . S
O657 Zn658 1.899 . S
O657 C665 1.284 . S
Zn658 O657 1.899 . S
Zn658 O659 2.032 . S
Zn658 O662 2.086 . S
Zn658 O667 1.977 . S
O659 Zn658 2.032 . S
O659 C663 1.278 . S
C660 O661 1.203 . S
C660 O667 1.267 . S
O661 C660 1.203 . S
O662 C655 1.185 . S
O662 Zn658 2.086 . S
C663 O659 1.278 . S
C663 O664 1.211 . S
O664 C663 1.211 . S
C665 O657 1.284 . S
C665 O666 1.273 . S
O666 C665 1.273 . S
O667 Zn658 1.977 . S
O667 C660 1.267 . S
H668 C680 0.930 . S
H669 C682 0.930 . S
H670 C683 0.930 . S
H671 C687 0.959 . S
H672 C687 0.959 . S
H673 C687 0.961 . S
H674 C688 0.960 . S
H675 C688 0.961 . S
H676 C688 0.959 . S
H677 C691 0.929 . S
H678 C692 0.931 . S
H679 C694 0.930 . S
C680 H668 0.930 . S
C680 C681 1.399 . S
C680 C685 1.399 . S
C681 C680 1.399 . S
C681 C682 1.376 . S
C682 H669 0.930 . S
C682 C681 1.376 . S
C682 C683 1.388 . S
C683 H670 0.930 . S
C683 C682 1.388 . S
C683 C684 1.390 . S
C684 C683 1.390 . S
C684 C685 1.394 . S
C684 C690 1.465 . S
C685 C680 1.399 . S
C685 C684 1.394 . S
C685 C686 1.516 . S
C686 C685 1.516 . S
C686 C687 1.502 . S
C686 C688 1.561 . S
C686 C689 1.526 . S
C687 H671 0.959 . S
C687 H672 0.959 . S
C687 H673 0.961 . S
C687 C686 1.502 . S
C688 H674 0.960 . S
C688 H675 0.961 . S
C688 H676 0.959 . S
C688 C686 1.561 . S
C689 C686 1.526 . S
C689 C690 1.396 . S
C689 C694 1.390 . S
C690 C684 1.465 . S
C690 C689 1.396 . S
C690 C691 1.399 . S
C691 H677 0.929 . S
C691 C690 1.399 . S
C691 C692 1.385 . S
C692 H678 0.931 . S
C692 C691 1.385 . S
C692 C693 1.389 . S
C693 C692 1.389 . S
C693 C694 1.387 . S
C694 H679 0.930 . S
C694 C689 1.390 . S
C694 C693 1.387 . S
H695 C707 0.930 . S
H696 C709 0.930 . S
H697 C710 0.930 . S
H698 C714 0.959 . S
H699 C714 0.959 . S
H700 C714 0.961 . S
H701 C715 0.960 . S
H702 C715 0.961 . S
H703 C715 0.959 . S
H704 C718 0.929 . S
H705 C719 0.931 . S
H706 C721 0.930 . S
C707 H695 0.930 . S
C707 C708 1.399 . S
C707 C712 1.399 . S
C708 C707 1.399 . S
C708 C709 1.376 . S
C709 H696 0.930 . S
C709 C708 1.376 . S
C709 C710 1.388 . S
C710 H697 0.930 . S
C710 C709 1.388 . S
C710 C711 1.390 . S
C711 C710 1.390 . S
C711 C712 1.394 . S
C711 C717 1.465 . S
C712 C707 1.399 . S
C712 C711 1.394 . S
C712 C713 1.516 . S
C713 C712 1.516 . S
C713 C714 1.502 . S
C713 C715 1.561 . S
C713 C716 1.526 . S
C714 H698 0.959 . S
C714 H699 0.959 . S
C714 H700 0.961 . S
C714 C713 1.502 . S
C715 H701 0.960 . S
C715 H702 0.961 . S
C715 H703 0.959 . S
C715 C713 1.561 . S
C716 C713 1.526 . S
C716 C717 1.396 . S
C716 C721 1.390 . S
C717 C711 1.465 . S
C717 C716 1.396 . S
C717 C718 1.399 . S
C718 H704 0.929 . S
C718 C717 1.399 . S
C718 C719 1.385 . S
C719 H705 0.931 . S
C719 C718 1.385 . S
C719 C720 1.389 . S
C720 C719 1.389 . S
C720 C721 1.387 . S
C721 H706 0.930 . S
C721 C716 1.390 . S
C721 C720 1.387 . S
H722 C734 0.930 . S
H723 C736 0.930 . S
H724 C737 0.930 . S
H725 C741 0.959 . S
H726 C741 0.959 . S
H727 C741 0.961 . S
H728 C742 0.960 . S
H729 C742 0.961 . S
H730 C742 0.959 . S
H731 C745 0.929 . S
H732 C746 0.931 . S
H733 C748 0.930 . S
C734 H722 0.930 . S
C734 C735 1.399 . S
C734 C739 1.399 . S
C735 C734 1.399 . S
C735 C736 1.376 . S
C736 H723 0.930 . S
C736 C735 1.376 . S
C736 C737 1.388 . S
C737 H724 0.930 . S
C737 C736 1.388 . S
C737 C738 1.390 . S
C738 C737 1.390 . S
C738 C739 1.394 . S
C738 C744 1.465 . S
C739 C734 1.399 . S
C739 C738 1.394 . S
C739 C740 1.516 . S
C740 C739 1.516 . S
C740 C741 1.502 . S
C740 C742 1.561 . S
C740 C743 1.526 . S
C741 H725 0.959 . S
C741 H726 0.959 . S
C741 H727 0.961 . S
C741 C740 1.502 . S
C742 H728 0.960 . S
C742 H729 0.961 . S
C742 H730 0.959 . S
C742 C740 1.561 . S
C743 C740 1.526 . S
C743 C744 1.396 . S
C743 C748 1.390 . S
C744 C738 1.465 . S
C744 C743 1.396 . S
C744 C745 1.399 . S
C745 H731 0.929 . S
C745 C744 1.399 . S
C745 C746 1.385 . S
C746 H732 0.931 . S
C746 C745 1.385 . S
C746 C747 1.389 . S
C747 C746 1.389 . S
C747 C748 1.387 . S
C748 H733 0.930 . S
C748 C743 1.390 . S
C748 C747 1.387 . S
H749 C761 0.930 . S
H750 C763 0.930 . S
H751 C764 0.930 . S
H752 C768 0.959 . S
H753 C768 0.959 . S
H754 C768 0.961 . S
H755 C769 0.960 . S
H756 C769 0.961 . S
H757 C769 0.959 . S
H758 C772 0.929 . S
H759 C773 0.931 . S
H760 C775 0.930 . S
C761 H749 0.930 . S
C761 C762 1.399 . S
C761 C766 1.399 . S
C762 C761 1.399 . S
C762 C763 1.376 . S
C763 H750 0.930 . S
C763 C762 1.376 . S
C763 C764 1.388 . S
C764 H751 0.930 . S
C764 C763 1.388 . S
C764 C765 1.390 . S
C765 C764 1.390 . S
C765 C766 1.394 . S
C765 C771 1.465 . S
C766 C761 1.399 . S
C766 C765 1.394 . S
C766 C767 1.516 . S
C767 C766 1.516 . S
C767 C768 1.502 1_565 S
C767 C769 1.561 . S
C767 C770 1.526 . S
C768 H752 0.959 . S
C768 H753 0.959 . S
C768 H754 0.961 . S
C768 C767 1.502 1_545 S
C769 H755 0.960 . S
C769 H756 0.961 . S
C769 H757 0.959 . S
C769 C767 1.561 . S
C770 C767 1.526 . S
C770 C771 1.396 . S
C770 C775 1.390 1_565 S
C771 C765 1.465 . S
C771 C770 1.396 . S
C771 C772 1.399 . S
C772 H758 0.929 . S
C772 C771 1.399 . S
C772 C773 1.385 . S
C773 H759 0.931 . S
C773 C772 1.385 . S
C773 C774 1.389 1_565 S
C774 C773 1.389 1_545 S
C774 C775 1.387 . S
C775 H760 0.930 . S
C775 C770 1.390 1_545 S
C775 C774 1.387 . S
H776 C788 0.930 . S
H777 C790 0.930 . S
H778 C791 0.930 . S
H779 C795 0.959 . S
H780 C795 0.959 . S
H781 C795 0.961 . S
H782 C796 0.960 . S
H783 C796 0.961 . S
H784 C796 0.959 . S
H785 C799 0.929 . S
H786 C800 0.931 . S
H787 C802 0.930 . S
C788 H776 0.930 . S
C788 C789 1.399 . S
C788 C793 1.399 . S
C789 C788 1.399 . S
C789 C790 1.376 . S
C790 H777 0.930 . S
C790 C789 1.376 . S
C790 C791 1.388 . S
C791 H778 0.930 . S
C791 C790 1.388 . S
C791 C792 1.390 . S
C792 C791 1.390 . S
C792 C793 1.394 . S
C792 C798 1.465 . S
C793 C788 1.399 . S
C793 C792 1.394 . S
C793 C794 1.516 . S
C794 C793 1.516 . S
C794 C795 1.502 . S
C794 C796 1.561 . S
C794 C797 1.526 . S
C795 H779 0.959 . S
C795 H780 0.959 . S
C795 H781 0.961 . S
C795 C794 1.502 . S
C796 H782 0.960 . S
C796 H783 0.961 . S
C796 H784 0.959 . S
C796 C794 1.561 . S
C797 C794 1.526 . S
C797 C798 1.396 . S
C797 C802 1.390 . S
C798 C792 1.465 . S
C798 C797 1.396 . S
C798 C799 1.399 . S
C799 H785 0.929 . S
C799 C798 1.399 . S
C799 C800 1.385 . S
C800 H786 0.931 . S
C800 C799 1.385 . S
C800 C801 1.389 . S
C801 C800 1.389 . S
C801 C802 1.387 . S
C802 H787 0.930 . S
C802 C797 1.390 . S
C802 C801 1.387 . S
H803 C815 0.930 . S
H804 C817 0.930 . S
H805 C818 0.930 . S
H806 C822 0.959 . S
H807 C822 0.959 . S
H808 C822 0.961 . S
H809 C823 0.960 . S
H810 C823 0.961 . S
H811 C823 0.959 . S
H812 C826 0.929 . S
H813 C827 0.931 . S
H814 C829 0.930 . S
C815 H803 0.930 . S
C815 C816 1.399 . S
C815 C820 1.399 . S
C816 C815 1.399 . S
C816 C817 1.376 . S
C817 H804 0.930 . S
C817 C816 1.376 . S
C817 C818 1.388 . S
C818 H805 0.930 . S
C818 C817 1.388 . S
C818 C819 1.390 . S
C819 C818 1.390 . S
C819 C820 1.394 . S
C819 C825 1.465 . S
C820 C815 1.399 . S
C820 C819 1.394 . S
C820 C821 1.516 . S
C821 C820 1.516 . S
C821 C822 1.502 . S
C821 C823 1.561 . S
C821 C824 1.526 . S
C822 H806 0.959 . S
C822 H807 0.959 . S
C822 H808 0.961 . S
C822 C821 1.502 . S
C823 H809 0.960 . S
C823 H810 0.961 . S
C823 H811 0.959 . S
C823 C821 1.561 . S
C824 C821 1.526 . S
C824 C825 1.396 . S
C824 C829 1.390 . S
C825 C819 1.465 . S
C825 C824 1.396 . S
C825 C826 1.399 . S
C826 H812 0.929 . S
C826 C825 1.399 . S
C826 C827 1.385 . S
C827 H813 0.931 . S
C827 C826 1.385 . S
C827 C828 1.389 . S
C828 C827 1.389 . S
C828 C829 1.387 . S
C829 H814 0.930 . S
C829 C824 1.390 . S
C829 C828 1.387 . S
H830 C842 0.930 . S
H831 C844 0.930 . S
H832 C845 0.930 . S
H833 C849 0.959 . S
H834 C849 0.959 . S
H835 C849 0.961 . S
H836 C850 0.960 . S
H837 C850 0.961 . S
H838 C850 0.959 . S
H839 C853 0.929 . S
H840 C854 0.931 . S
H841 C856 0.930 . S
C842 H830 0.930 . S
C842 C843 1.399 . S
C842 C847 1.399 . S
C843 C842 1.399 . S
C843 C844 1.376 . S
C844 H831 0.930 . S
C844 C843 1.376 . S
C844 C845 1.388 . S
C845 H832 0.930 . S
C845 C844 1.388 . S
C845 C846 1.390 . S
C846 C845 1.390 . S
C846 C847 1.394 . S
C846 C852 1.465 . S
C847 C842 1.399 . S
C847 C846 1.394 . S
C847 C848 1.516 . S
C848 C847 1.516 . S
C848 C849 1.502 . S
C848 C850 1.561 . S
C848 C851 1.526 . S
C849 H833 0.959 . S
C849 H834 0.959 . S
C849 H835 0.961 . S
C849 C848 1.502 . S
C850 H836 0.960 . S
C850 H837 0.961 . S
C850 H838 0.959 . S
C850 C848 1.561 . S
C851 C848 1.526 . S
C851 C852 1.396 . S
C851 C856 1.390 . S
C852 C846 1.465 . S
C852 C851 1.396 . S
C852 C853 1.399 . S
C853 H839 0.929 . S
C853 C852 1.399 . S
C853 C854 1.385 . S
C854 H840 0.931 . S
C854 C853 1.385 . S
C854 C855 1.389 . S
C855 C854 1.389 . S
C855 C856 1.387 . S
C856 H841 0.930 . S
C856 C851 1.390 . S
C856 C855 1.387 . S
H857 C869 0.930 . S
H858 C871 0.930 . S
H859 C872 0.930 . S
H860 C876 0.959 . S
H861 C876 0.959 . S
H862 C876 0.961 . S
H863 C877 0.960 . S
H864 C877 0.961 . S
H865 C877 0.959 . S
H866 C880 0.929 . S
H867 C881 0.931 . S
H868 C883 0.930 . S
C869 H857 0.930 . S
C869 C870 1.399 . S
C869 C874 1.399 . S
C870 C869 1.399 . S
C870 C871 1.376 1_565 S
C871 H858 0.930 . S
C871 C870 1.376 1_545 S
C871 C872 1.388 . S
C872 H859 0.930 . S
C872 C871 1.388 . S
C872 C873 1.390 1_545 S
C873 C872 1.390 1_565 S
C873 C874 1.394 . S
C873 C879 1.465 . S
C874 C869 1.399 . S
C874 C873 1.394 . S
C874 C875 1.516 . S
C875 C874 1.516 . S
C875 C876 1.502 . S
C875 C877 1.561 . S
C875 C878 1.526 . S
C876 H860 0.959 . S
C876 H861 0.959 . S
C876 H862 0.961 . S
C876 C875 1.502 . S
C877 H863 0.960 . S
C877 H864 0.961 . S
C877 H865 0.959 . S
C877 C875 1.561 . S
C878 C875 1.526 . S
C878 C879 1.400 . S
C878 C883 1.390 . S
C879 C873 1.465 . S
C879 C878 1.400 . S
C879 C880 1.396 1_565 S
C880 H866 0.929 . S
C880 C879 1.396 1_545 S
C880 C881 1.385 . S
C881 H867 0.931 . S
C881 C880 1.385 . S
C881 C882 1.389 1_545 S
C882 C881 1.389 1_565 S
C882 C883 1.387 . S
C883 H868 0.930 . S
C883 C878 1.390 . S
C883 C882 1.387 . S
H884 C896 0.930 . S
H885 C898 0.930 . S
H886 C899 0.930 . S
H887 C903 0.959 . S
H888 C903 0.959 . S
H889 C903 0.961 . S
H890 C904 0.960 . S
H891 C904 0.961 . S
H892 C904 0.959 . S
H893 C907 0.929 . S
H894 C908 0.931 . S
H895 C910 0.930 . S
C896 H884 0.930 . S
C896 C897 1.399 . S
C896 C901 1.399 . S
C897 C896 1.399 . S
C897 C898 1.376 . S
C898 H885 0.930 . S
C898 C897 1.376 . S
C898 C899 1.388 . S
C899 H886 0.930 . S
C899 C898 1.388 . S
C899 C900 1.390 . S
C900 C899 1.390 . S
C900 C901 1.394 . S
C900 C906 1.465 . S
C901 C896 1.399 . S
C901 C900 1.394 . S
C901 C902 1.516 . S
C902 C901 1.516 . S
C902 C903 1.502 . S
C902 C904 1.561 . S
C902 C905 1.526 . S
C903 H887 0.959 . S
C903 H888 0.959 . S
C903 H889 0.961 . S
C903 C902 1.502 . S
C904 H890 0.960 . S
C904 H891 0.961 . S
C904 H892 0.959 . S
C904 C902 1.561 . S
C905 C902 1.526 . S
C905 C906 1.396 . S
C905 C910 1.390 . S
C906 C900 1.465 . S
C906 C905 1.396 . S
C906 C907 1.399 . S
C907 H893 0.929 . S
C907 C906 1.399 . S
C907 C908 1.385 . S
C908 H894 0.931 . S
C908 C907 1.385 . S
C908 C909 1.389 . S
C909 C908 1.389 . S
C909 C910 1.387 . S
C910 H895 0.930 . S
C910 C905 1.390 . S
C910 C909 1.387 . S
H911 C923 0.930 . S
H912 C925 0.930 . S
H913 C926 0.930 . S
H914 C930 0.959 . S
H915 C930 0.959 . S
H916 C930 0.961 . S
H917 C931 0.960 . S
H918 C931 0.961 . S
H919 C931 0.959 . S
H920 C934 0.929 . S
H921 C935 0.931 . S
H922 C937 0.930 . S
C923 H911 0.930 . S
C923 C924 1.399 . S
C923 C928 1.399 . S
C924 C923 1.399 . S
C924 C925 1.376 . S
C925 H912 0.930 . S
C925 C924 1.376 . S
C925 C926 1.388 . S
C926 H913 0.930 . S
C926 C925 1.388 . S
C926 C927 1.390 . S
C927 C926 1.390 . S
C927 C928 1.394 . S
C927 C933 1.465 . S
C928 C923 1.399 . S
C928 C927 1.394 . S
C928 C929 1.516 . S
C929 C928 1.516 . S
C929 C930 1.502 . S
C929 C931 1.561 . S
C929 C932 1.526 . S
C930 H914 0.959 . S
C930 H915 0.959 . S
C930 H916 0.961 . S
C930 C929 1.502 . S
C931 H917 0.960 . S
C931 H918 0.961 . S
C931 H919 0.959 . S
C931 C929 1.561 . S
C932 C929 1.526 . S
C932 C933 1.396 . S
C932 C937 1.390 . S
C933 C927 1.465 . S
C933 C932 1.396 . S
C933 C934 1.399 . S
C934 H920 0.929 . S
C934 C933 1.399 . S
C934 C935 1.385 . S
C935 H921 0.931 . S
C935 C934 1.385 . S
C935 C936 1.389 . S
C936 C935 1.389 . S
C936 C937 1.387 . S
C937 H922 0.930 . S
C937 C932 1.390 . S
C937 C936 1.387 . S
H938 C950 0.930 . S
H939 C952 0.930 . S
H940 C953 0.930 . S
H941 C957 0.959 . S
H942 C957 0.959 . S
H943 C957 0.961 . S
H944 C958 0.960 . S
H945 C958 0.961 . S
H946 C958 0.959 . S
H947 C961 0.929 . S
H948 C962 0.931 . S
H949 C964 0.930 . S
C950 H938 0.930 . S
C950 C951 1.399 . S
C950 C955 1.399 . S
C951 C950 1.399 . S
C951 C952 1.376 . S
C952 H939 0.930 . S
C952 C951 1.376 . S
C952 C953 1.388 . S
C953 H940 0.930 . S
C953 C952 1.388 . S
C953 C954 1.390 . S
C954 C953 1.390 . S
C954 C955 1.394 . S
C954 C960 1.465 . S
C955 C950 1.399 . S
C955 C954 1.394 . S
C955 C956 1.516 . S
C956 C955 1.516 . S
C956 C957 1.502 . S
C956 C958 1.561 . S
C956 C959 1.526 . S
C957 H941 0.959 . S
C957 H942 0.959 . S
C957 H943 0.961 . S
C957 C956 1.502 . S
C958 H944 0.960 . S
C958 H945 0.961 . S
C958 H946 0.959 . S
C958 C956 1.561 . S
C959 C956 1.526 . S
C959 C960 1.396 . S
C959 C964 1.390 . S
C960 C954 1.465 . S
C960 C959 1.396 . S
C960 C961 1.399 . S
C961 H947 0.929 . S
C961 C960 1.399 . S
C961 C962 1.385 . S
C962 H948 0.931 . S
C962 C961 1.385 . S
C962 C963 1.389 . S
C963 C962 1.389 . S
C963 C964 1.387 . S
C964 H949 0.930 . S
C964 C959 1.390 . S
C964 C963 1.387 . S
H965 C977 0.930 . S
H966 C979 0.930 . S
H967 C980 0.930 . S
H968 C984 0.959 . S
H969 C984 0.959 . S
H970 C984 0.961 . S
H971 C985 0.960 . S
H972 C985 0.961 . S
H973 C985 0.959 . S
H974 C988 0.929 . S
H975 C989 0.931 . S
H976 C991 0.930 . S
C977 H965 0.930 . S
C977 C978 1.399 . S
C977 C982 1.399 . S
C978 C977 1.399 . S
C978 C979 1.376 . S
C979 H966 0.930 . S
C979 C978 1.376 . S
C979 C980 1.388 . S
C980 H967 0.930 . S
C980 C979 1.388 . S
C980 C981 1.390 . S
C981 C980 1.390 . S
C981 C982 1.394 . S
C981 C987 1.465 . S
C982 C977 1.399 . S
C982 C981 1.394 . S
C982 C983 1.516 . S
C983 C982 1.516 . S
C983 C984 1.502 . S
C983 C985 1.561 . S
C983 C986 1.526 . S
C984 H968 0.959 . S
C984 H969 0.959 . S
C984 H970 0.961 . S
C984 C983 1.502 . S
C985 H971 0.960 . S
C985 H972 0.961 . S
C985 H973 0.959 . S
C985 C983 1.561 . S
C986 C983 1.526 . S
C986 C987 1.396 . S
C986 C991 1.390 . S
C987 C981 1.465 . S
C987 C986 1.396 . S
C987 C988 1.399 . S
C988 H974 0.929 . S
C988 C987 1.399 . S
C988 C989 1.385 . S
C989 H975 0.931 . S
C989 C988 1.385 . S
C989 C990 1.389 . S
C990 C989 1.389 . S
C990 C991 1.387 . S
C991 H976 0.930 . S
C991 C986 1.390 . S
C991 C990 1.387 . S
H992 C1004 0.930 . S
H993 C1006 0.930 . S
H994 C1007 0.930 . S
H995 C1011 0.959 . S
H996 C1011 0.959 . S
H997 C1011 0.961 . S
H998 C1012 0.960 . S
H999 C1012 0.961 . S
H1000 C1012 0.959 . S
H1001 C1015 0.929 . S
H1002 C1016 0.931 . S
H1003 C1018 0.930 . S
C1004 H992 0.930 . S
C1004 C1005 1.399 . S
C1004 C1009 1.399 . S
C1005 C1004 1.399 . S
C1005 C1006 1.376 . S
C1006 H993 0.930 . S
C1006 C1005 1.376 . S
C1006 C1007 1.388 . S
C1007 H994 0.930 . S
C1007 C1006 1.388 . S
C1007 C1008 1.390 . S
C1008 C1007 1.390 . S
C1008 C1009 1.394 . S
C1008 C1014 1.465 . S
C1009 C1004 1.399 . S
C1009 C1008 1.394 . S
C1009 C1010 1.516 . S
C1010 C1009 1.516 . S
C1010 C1011 1.502 . S
C1010 C1012 1.561 . S
C1010 C1013 1.526 . S
C1011 H995 0.959 . S
C1011 H996 0.959 . S
C1011 H997 0.961 . S
C1011 C1010 1.502 . S
C1012 H998 0.960 . S
C1012 H999 0.961 . S
C1012 H1000 0.959 . S
C1012 C1010 1.561 . S
C1013 C1010 1.526 . S
C1013 C1014 1.396 . S
C1013 C1018 1.390 . S
C1014 C1008 1.465 . S
C1014 C1013 1.396 . S
C1014 C1015 1.399 . S
C1015 H1001 0.929 . S
C1015 C1014 1.399 . S
C1015 C1016 1.385 . S
C1016 H1002 0.931 . S
C1016 C1015 1.385 . S
C1016 C1017 1.389 . S
C1017 C1016 1.389 . S
C1017 C1018 1.387 . S
C1018 H1003 0.930 . S
C1018 C1013 1.390 . S
C1018 C1017 1.387 . S
H1019 C1031 0.930 1_655 S
H1020 C1033 0.930 . S
H1021 C1034 0.930 . S
H1022 C1038 0.959 . S
H1023 C1038 0.959 . S
H1024 C1038 0.961 . S
H1025 C1039 0.960 . S
H1026 C1039 0.961 . S
H1027 C1039 0.959 1_455 S
H1028 C1042 0.929 . S
H1029 C1043 0.931 . S
H1030 C1045 0.930 . S
C1031 H1019 0.930 1_455 S
C1031 C1032 1.399 . S
C1031 C1036 1.399 . S
C1032 C1031 1.399 . S
C1032 C1033 1.376 . S
C1033 H1020 0.930 . S
C1033 C1032 1.376 . S
C1033 C1034 1.388 . S
C1034 H1021 0.930 . S
C1034 C1033 1.388 . S
C1034 C1035 1.390 . S
C1035 C1034 1.390 . S
C1035 C1036 1.394 . S
C1035 C1041 1.465 . S
C1036 C1031 1.399 . S
C1036 C1035 1.394 . S
C1036 C1037 1.516 1_455 S
C1037 C1036 1.516 1_655 S
C1037 C1038 1.502 . S
C1037 C1039 1.561 . S
C1037 C1040 1.526 1_655 S
C1038 H1022 0.959 . S
C1038 H1023 0.959 . S
C1038 H1024 0.961 . S
C1038 C1037 1.502 . S
C1039 H1025 0.960 . S
C1039 H1026 0.961 . S
C1039 H1027 0.959 1_655 S
C1039 C1037 1.561 . S
C1040 C1037 1.526 1_455 S
C1040 C1041 1.396 . S
C1040 C1045 1.390 1_455 S
C1041 C1035 1.465 . S
C1041 C1040 1.396 . S
C1041 C1042 1.399 . S
C1042 H1028 0.929 . S
C1042 C1041 1.399 . S
C1042 C1043 1.385 . S
C1043 H1029 0.931 . S
C1043 C1042 1.385 . S
C1043 C1044 1.389 . S
C1044 C1043 1.389 . S
C1044 C1045 1.387 1_455 S
C1045 H1030 0.930 . S
C1045 C1040 1.390 1_655 S
C1045 C1044 1.387 1_655 S
H1046 C1058 0.930 . S
H1047 C1060 0.930 . S
H1048 C1061 0.930 . S
H1049 C1065 0.959 . S
H1050 C1065 0.959 . S
H1051 C1065 0.961 . S
H1052 C1066 0.960 . S
H1053 C1066 0.961 . S
H1054 C1066 0.959 . S
H1055 C1069 0.929 . S
H1056 C1070 0.931 . S
H1057 C1072 0.930 . S
C1058 H1046 0.930 . S
C1058 C1059 1.399 . S
C1058 C1063 1.399 . S
C1059 C1058 1.399 . S
C1059 C1060 1.376 . S
C1060 H1047 0.930 . S
C1060 C1059 1.376 . S
C1060 C1061 1.388 . S
C1061 H1048 0.930 . S
C1061 C1060 1.388 . S
C1061 C1062 1.390 . S
C1062 C1061 1.390 . S
C1062 C1063 1.394 . S
C1062 C1068 1.465 . S
C1063 C1058 1.399 . S
C1063 C1062 1.394 . S
C1063 C1064 1.516 . S
C1064 C1063 1.516 . S
C1064 C1065 1.502 . S
C1064 C1066 1.561 . S
C1064 C1067 1.526 . S
C1065 H1049 0.959 . S
C1065 H1050 0.959 . S
C1065 H1051 0.961 . S
C1065 C1064 1.502 . S
C1066 H1052 0.960 . S
C1066 H1053 0.961 . S
C1066 H1054 0.959 . S
C1066 C1064 1.561 . S
C1067 C1064 1.526 . S
C1067 C1068 1.396 . S
C1067 C1072 1.390 . S
C1068 C1062 1.465 . S
C1068 C1067 1.396 . S
C1068 C1069 1.399 . S
C1069 H1055 0.929 . S
C1069 C1068 1.399 . S
C1069 C1070 1.385 . S
C1070 H1056 0.931 . S
C1070 C1069 1.385 . S
C1070 C1071 1.389 . S
C1071 C1070 1.389 . S
C1071 C1072 1.387 . S
C1072 H1057 0.930 . S
C1072 C1067 1.390 . S
C1072 C1071 1.387 . S
H1073 C1085 0.930 . S
H1074 C1087 0.934 1_455 S
H1075 C1088 0.930 . S
H1076 C1092 0.959 . S
H1077 C1092 0.959 . S
H1078 C1092 0.961 . S
H1079 C1093 0.960 . S
H1080 C1093 0.961 . S
H1081 C1093 0.959 . S
H1082 C1096 0.929 . S
H1083 C1097 0.931 . S
H1084 C1099 0.930 . S
C1085 H1073 0.930 . S
C1085 C1086 1.399 . S
C1085 C1090 1.399 . S
C1086 C1085 1.399 . S
C1086 C1087 1.371 . S
C1087 H1074 0.934 1_655 S
C1087 C1086 1.371 . S
C1087 C1088 1.390 1_655 S
C1088 H1075 0.930 . S
C1088 C1087 1.390 1_455 S
C1088 C1089 1.390 1_455 S
C1089 C1088 1.390 1_655 S
C1089 C1090 1.394 . S
C1089 C1095 1.465 . S
C1090 C1085 1.399 . S
C1090 C1089 1.394 . S
C1090 C1091 1.516 . S
C1091 C1090 1.516 . S
C1091 C1092 1.502 . S
C1091 C1093 1.561 . S
C1091 C1094 1.526 . S
C1092 H1076 0.959 . S
C1092 H1077 0.959 . S
C1092 H1078 0.961 . S
C1092 C1091 1.502 . S
C1093 H1079 0.960 . S
C1093 H1080 0.961 . S
C1093 H1081 0.959 . S
C1093 C1091 1.561 . S
C1094 C1091 1.526 . S
C1094 C1095 1.396 . S
C1094 C1099 1.390 . S
C1095 C1089 1.465 . S
C1095 C1094 1.396 . S
C1095 C1096 1.399 1_655 S
C1096 H1082 0.929 . S
C1096 C1095 1.399 1_455 S
C1096 C1097 1.385 . S
C1097 H1083 0.931 . S
C1097 C1096 1.385 . S
C1097 C1098 1.389 1_455 S
C1098 C1097 1.389 1_655 S
C1098 C1099 1.387 . S
C1099 H1084 0.930 . S
C1099 C1094 1.390 . S
C1099 C1098 1.387 . S
H1100 C1112 0.930 . S
H1101 C1114 0.930 . S
H1102 C1115 0.930 . S
H1103 C1119 0.959 . S
H1104 C1119 0.959 . S
H1105 C1119 0.961 . S
H1106 C1120 0.960 . S
H1107 C1120 0.961 . S
H1108 C1120 0.959 . S
H1109 C1123 0.929 . S
H1110 C1124 0.931 . S
H1111 C1126 0.930 . S
C1112 H1100 0.930 . S
C1112 C1113 1.399 . S
C1112 C1117 1.399 . S
C1113 C1112 1.399 . S
C1113 C1114 1.376 . S
C1114 H1101 0.930 . S
C1114 C1113 1.376 . S
C1114 C1115 1.388 . S
C1115 H1102 0.930 . S
C1115 C1114 1.388 . S
C1115 C1116 1.390 . S
C1116 C1115 1.390 . S
C1116 C1117 1.394 . S
C1116 C1122 1.465 . S
C1117 C1112 1.399 . S
C1117 C1116 1.394 . S
C1117 C1118 1.516 . S
C1118 C1117 1.516 . S
C1118 C1119 1.502 . S
C1118 C1120 1.561 . S
C1118 C1121 1.526 . S
C1119 H1103 0.959 . S
C1119 H1104 0.959 . S
C1119 H1105 0.961 . S
C1119 C1118 1.502 . S
C1120 H1106 0.960 . S
C1120 H1107 0.961 . S
C1120 H1108 0.959 . S
C1120 C1118 1.561 . S
C1121 C1118 1.526 . S
C1121 C1122 1.396 . S
C1121 C1126 1.390 . S
C1122 C1116 1.465 . S
C1122 C1121 1.396 . S
C1122 C1123 1.399 . S
C1123 H1109 0.929 . S
C1123 C1122 1.399 . S
C1123 C1124 1.385 . S
C1124 H1110 0.931 . S
C1124 C1123 1.385 . S
C1124 C1125 1.389 . S
C1125 C1124 1.389 . S
C1125 C1126 1.387 . S
C1126 H1111 0.930 . S
C1126 C1121 1.390 . S
C1126 C1125 1.387 . S
H1127 C1139 0.930 . S
H1128 C1141 0.930 . S
H1129 C1142 0.930 . S
H1130 C1146 0.959 . S
H1131 C1146 0.959 . S
H1132 C1146 0.961 . S
H1133 C1147 0.960 . S
H1134 C1147 0.961 . S
H1135 C1147 0.959 . S
H1136 C1150 0.929 . S
H1137 C1151 0.931 . S
H1138 C1153 0.930 . S
C1139 H1127 0.930 . S
C1139 C1140 1.399 . S
C1139 C1144 1.399 . S
C1140 C1139 1.399 . S
C1140 C1141 1.376 . S
C1141 H1128 0.930 . S
C1141 C1140 1.376 . S
C1141 C1142 1.388 . S
C1142 H1129 0.930 . S
C1142 C1141 1.388 . S
C1142 C1143 1.390 . S
C1143 C1142 1.390 . S
C1143 C1144 1.394 . S
C1143 C1149 1.465 . S
C1144 C1139 1.399 . S
C1144 C1143 1.394 . S
C1144 C1145 1.516 . S
C1145 C1144 1.516 . S
C1145 C1146 1.502 . S
C1145 C1147 1.561 . S
C1145 C1148 1.526 . S
C1146 H1130 0.959 . S
C1146 H1131 0.959 . S
C1146 H1132 0.961 . S
C1146 C1145 1.502 . S
C1147 H1133 0.960 . S
C1147 H1134 0.961 . S
C1147 H1135 0.959 . S
C1147 C1145 1.561 . S
C1148 C1145 1.526 . S
C1148 C1149 1.396 . S
C1148 C1153 1.390 . S
C1149 C1143 1.465 . S
C1149 C1148 1.396 . S
C1149 C1150 1.399 . S
C1150 H1136 0.929 . S
C1150 C1149 1.399 . S
C1150 C1151 1.385 . S
C1151 H1137 0.931 . S
C1151 C1150 1.385 . S
C1151 C1152 1.389 . S
C1152 C1151 1.389 . S
C1152 C1153 1.387 . S
C1153 H1138 0.930 . S
C1153 C1148 1.390 . S
C1153 C1152 1.387 . S
H1154 C1166 0.930 . S
H1155 C1168 0.930 . S
H1156 C1169 0.930 1_554 S
H1157 C1173 0.959 1_554 S
H1158 C1173 0.959 . S
H1159 C1173 0.961 . S
H1160 C1174 0.960 . S
H1161 C1174 0.961 . S
H1162 C1174 0.959 . S
H1163 C1177 0.929 . S
H1164 C1178 0.931 . S
H1165 C1180 0.930 . S
C1166 H1154 0.930 . S
C1166 C1167 1.399 . S
C1166 C1171 1.399 . S
C1167 C1166 1.399 . S
C1167 C1168 1.376 . S
C1168 H1155 0.930 . S
C1168 C1167 1.376 . S
C1168 C1169 1.388 . S
C1169 H1156 0.930 1_556 S
C1169 C1168 1.388 . S
C1169 C1170 1.390 . S
C1170 C1169 1.390 . S
C1170 C1171 1.394 . S
C1170 C1176 1.465 . S
C1171 C1166 1.399 . S
C1171 C1170 1.394 . S
C1171 C1172 1.516 . S
C1172 C1171 1.516 . S
C1172 C1173 1.502 . S
C1172 C1174 1.561 . S
C1172 C1175 1.526 . S
C1173 H1157 0.959 1_556 S
C1173 H1158 0.959 . S
C1173 H1159 0.961 . S
C1173 C1172 1.502 . S
C1174 H1160 0.960 . S
C1174 H1161 0.961 . S
C1174 H1162 0.959 . S
C1174 C1172 1.561 . S
C1175 C1172 1.526 . S
C1175 C1176 1.396 . S
C1175 C1180 1.390 . S
C1176 C1170 1.465 . S
C1176 C1175 1.396 . S
C1176 C1177 1.399 1_556 S
C1177 H1163 0.929 . S
C1177 C1176 1.399 1_554 S
C1177 C1178 1.385 . S
C1178 H1164 0.931 . S
C1178 C1177 1.385 . S
C1178 C1179 1.389 . S
C1179 C1178 1.389 . S
C1179 C1180 1.387 1_554 S
C1180 H1165 0.930 . S
C1180 C1175 1.390 . S
C1180 C1179 1.387 1_556 S
H1181 C1193 0.930 . S
H1182 C1195 0.930 . S
H1183 C1196 0.930 . S
H1184 C1200 0.959 . S
H1185 C1200 0.959 . S
H1186 C1200 0.961 . S
H1187 C1201 0.960 . S
H1188 C1201 0.961 . S
H1189 C1201 0.959 . S
H1190 C1204 0.929 . S
H1191 C1205 0.931 . S
H1192 C1207 0.930 . S
C1193 H1181 0.930 . S
C1193 C1194 1.399 . S
C1193 C1198 1.399 . S
C1194 C1193 1.399 . S
C1194 C1195 1.376 . S
C1195 H1182 0.930 . S
C1195 C1194 1.376 . S
C1195 C1196 1.388 . S
C1196 H1183 0.930 . S
C1196 C1195 1.388 . S
C1196 C1197 1.390 . S
C1197 C1196 1.390 . S
C1197 C1198 1.394 . S
C1197 C1203 1.465 . S
C1198 C1193 1.399 . S
C1198 C1197 1.394 . S
C1198 C1199 1.516 . S
C1199 C1198 1.516 . S
C1199 C1200 1.502 . S
C1199 C1201 1.561 . S
C1199 C1202 1.526 . S
C1200 H1184 0.959 . S
C1200 H1185 0.959 . S
C1200 H1186 0.961 . S
C1200 C1199 1.502 . S
C1201 H1187 0.960 . S
C1201 H1188 0.961 . S
C1201 H1189 0.959 . S
C1201 C1199 1.561 . S
C1202 C1199 1.526 . S
C1202 C1203 1.396 . S
C1202 C1207 1.390 . S
C1203 C1197 1.465 . S
C1203 C1202 1.396 . S
C1203 C1204 1.399 . S
C1204 H1190 0.929 . S
C1204 C1203 1.399 . S
C1204 C1205 1.385 . S
C1205 H1191 0.931 . S
C1205 C1204 1.385 . S
C1205 C1206 1.389 . S
C1206 C1205 1.389 . S
C1206 C1207 1.387 . S
C1207 H1192 0.930 . S
C1207 C1202 1.390 . S
C1207 C1206 1.387 . S
H1208 C1220 0.930 . S
H1209 C1222 0.930 . S
H1210 C1223 0.930 . S
H1211 C1227 0.959 . S
H1212 C1227 0.959 . S
H1213 C1227 0.961 . S
H1214 C1228 0.960 . S
H1215 C1228 0.961 . S
H1216 C1228 0.959 . S
H1217 C1231 0.929 . S
H1218 C1232 0.931 . S
H1219 C1234 0.930 . S
C1220 H1208 0.930 . S
C1220 C1221 1.399 . S
C1220 C1225 1.399 . S
C1221 C1220 1.399 . S
C1221 C1222 1.376 . S
C1222 H1209 0.930 . S
C1222 C1221 1.376 . S
C1222 C1223 1.388 . S
C1223 H1210 0.930 . S
C1223 C1222 1.388 . S
C1223 C1224 1.390 . S
C1224 C1223 1.390 . S
C1224 C1225 1.394 . S
C1224 C1230 1.465 . S
C1225 C1220 1.399 . S
C1225 C1224 1.394 . S
C1225 C1226 1.516 . S
C1226 C1225 1.516 . S
C1226 C1227 1.502 . S
C1226 C1228 1.561 . S
C1226 C1229 1.526 . S
C1227 H1211 0.959 . S
C1227 H1212 0.959 . S
C1227 H1213 0.961 . S
C1227 C1226 1.502 . S
C1228 H1214 0.960 . S
C1228 H1215 0.961 . S
C1228 H1216 0.959 . S
C1228 C1226 1.561 . S
C1229 C1226 1.526 . S
C1229 C1230 1.396 . S
C1229 C1234 1.390 . S
C1230 C1224 1.465 . S
C1230 C1229 1.396 . S
C1230 C1231 1.399 . S
C1231 H1217 0.929 . S
C1231 C1230 1.399 . S
C1231 C1232 1.385 . S
C1232 H1218 0.931 . S
C1232 C1231 1.385 . S
C1232 C1233 1.389 . S
C1233 C1232 1.389 . S
C1233 C1234 1.387 . S
C1234 H1219 0.930 . S
C1234 C1229 1.390 . S
C1234 C1233 1.387 . S
H1235 C1247 0.930 . S
H1236 C1249 0.930 . S
H1237 C1250 0.930 . S
H1238 C1254 0.959 . S
H1239 C1254 0.959 . S
H1240 C1254 0.961 . S
H1241 C1255 0.960 . S
H1242 C1255 0.961 . S
H1243 C1255 0.959 . S
H1244 C1258 0.929 . S
H1245 C1259 0.931 . S
H1246 C1261 0.930 . S
C1247 H1235 0.930 . S
C1247 C1248 1.399 . S
C1247 C1252 1.399 . S
C1248 C1247 1.399 . S
C1248 C1249 1.376 . S
C1249 H1236 0.930 . S
C1249 C1248 1.376 . S
C1249 C1250 1.388 . S
C1250 H1237 0.930 . S
C1250 C1249 1.388 . S
C1250 C1251 1.390 . S
C1251 C1250 1.390 . S
C1251 C1252 1.394 . S
C1251 C1257 1.465 . S
C1252 C1247 1.399 . S
C1252 C1251 1.394 . S
C1252 C1253 1.516 . S
C1253 C1252 1.516 . S
C1253 C1254 1.502 . S
C1253 C1255 1.561 . S
C1253 C1256 1.526 . S
C1254 H1238 0.959 . S
C1254 H1239 0.959 . S
C1254 H1240 0.961 . S
C1254 C1253 1.502 . S
C1255 H1241 0.960 . S
C1255 H1242 0.961 . S
C1255 H1243 0.959 . S
C1255 C1253 1.561 . S
C1256 C1253 1.526 . S
C1256 C1257 1.396 . S
C1256 C1261 1.390 . S
C1257 C1251 1.465 . S
C1257 C1256 1.396 . S
C1257 C1258 1.399 . S
C1258 H1244 0.929 . S
C1258 C1257 1.399 . S
C1258 C1259 1.385 . S
C1259 H1245 0.931 . S
C1259 C1258 1.385 . S
C1259 C1260 1.389 . S
C1260 C1259 1.389 . S
C1260 C1261 1.387 . S
C1261 H1246 0.930 . S
C1261 C1256 1.390 . S
C1261 C1260 1.387 . S
H1262 C1274 0.930 . S
H1263 C1276 0.930 . S
H1264 C1277 0.930 . S
H1265 C1281 0.959 . S
H1266 C1281 0.959 . S
H1267 C1281 0.961 . S
H1268 C1282 0.960 . S
H1269 C1282 0.961 . S
H1270 C1282 0.959 . S
H1271 C1285 0.929 . S
H1272 C1286 0.931 . S
H1273 C1288 0.930 . S
C1274 H1262 0.930 . S
C1274 C1275 1.399 . S
C1274 C1279 1.399 . S
C1275 C1274 1.399 . S
C1275 C1276 1.376 . S
C1276 H1263 0.930 . S
C1276 C1275 1.376 . S
C1276 C1277 1.388 . S
C1277 H1264 0.930 . S
C1277 C1276 1.388 . S
C1277 C1278 1.390 . S
C1278 C1277 1.390 . S
C1278 C1279 1.394 . S
C1278 C1284 1.465 . S
C1279 C1274 1.399 . S
C1279 C1278 1.394 . S
C1279 C1280 1.516 . S
C1280 C1279 1.516 . S
C1280 C1281 1.502 . S
C1280 C1282 1.561 . S
C1280 C1283 1.526 . S
C1281 H1265 0.959 . S
C1281 H1266 0.959 . S
C1281 H1267 0.961 . S
C1281 C1280 1.502 . S
C1282 H1268 0.960 . S
C1282 H1269 0.961 . S
C1282 H1270 0.959 . S
C1282 C1280 1.561 . S
C1283 C1280 1.526 . S
C1283 C1284 1.396 . S
C1283 C1288 1.390 . S
C1284 C1278 1.465 . S
C1284 C1283 1.396 . S
C1284 C1285 1.399 . S
C1285 H1271 0.929 . S
C1285 C1284 1.399 . S
C1285 C1286 1.385 . S
C1286 H1272 0.931 . S
C1286 C1285 1.385 . S
C1286 C1287 1.389 . S
C1287 C1286 1.389 . S
C1287 C1288 1.387 . S
C1288 H1273 0.930 . S
C1288 C1283 1.390 . S
C1288 C1287 1.387 . S
H1289 C1301 0.930 . S
H1290 C1303 0.930 . S
H1291 C1304 0.930 . S
H1292 C1308 0.959 . S
H1293 C1308 0.959 . S
H1294 C1308 0.961 . S
H1295 C1309 0.960 . S
H1296 C1309 0.961 . S
H1297 C1309 0.959 . S
H1298 C1312 0.929 . S
H1299 C1313 0.931 . S
H1300 C1315 0.930 . S
C1301 H1289 0.930 . S
C1301 C1302 1.399 . S
C1301 C1306 1.399 . S
C1302 C1301 1.399 . S
C1302 C1303 1.376 . S
C1303 H1290 0.930 . S
C1303 C1302 1.376 . S
C1303 C1304 1.388 . S
C1304 H1291 0.930 . S
C1304 C1303 1.388 . S
C1304 C1305 1.390 . S
C1305 C1304 1.390 . S
C1305 C1306 1.394 . S
C1305 C1311 1.465 . S
C1306 C1301 1.399 . S
C1306 C1305 1.394 . S
C1306 C1307 1.516 . S
C1307 C1306 1.516 . S
C1307 C1308 1.502 . S
C1307 C1309 1.561 . S
C1307 C1310 1.526 . S
C1308 H1292 0.959 . S
C1308 H1293 0.959 . S
C1308 H1294 0.961 . S
C1308 C1307 1.502 . S
C1309 H1295 0.960 . S
C1309 H1296 0.961 . S
C1309 H1297 0.959 . S
C1309 C1307 1.561 . S
C1310 C1307 1.526 . S
C1310 C1311 1.396 . S
C1310 C1315 1.390 . S
C1311 C1305 1.465 . S
C1311 C1310 1.396 . S
C1311 C1312 1.399 . S
C1312 H1298 0.929 . S
C1312 C1311 1.399 . S
C1312 C1313 1.385 . S
C1313 H1299 0.931 . S
C1313 C1312 1.385 . S
C1313 C1314 1.389 . S
C1314 C1313 1.389 . S
C1314 C1315 1.387 . S
C1315 H1300 0.930 . S
C1315 C1310 1.390 . S
C1315 C1314 1.387 . S
H1316 C1328 0.930 . S
H1317 C1330 0.930 . S
H1318 C1331 0.930 . S
H1319 C1335 0.959 . S
H1320 C1335 0.959 . S
H1321 C1335 0.961 . S
H1322 C1336 0.960 . S
H1323 C1336 0.961 . S
H1324 C1336 0.959 . S
H1325 C1339 0.929 . S
H1326 C1340 0.931 . S
H1327 C1342 0.930 . S
C1328 H1316 0.930 . S
C1328 C1329 1.399 . S
C1328 C1333 1.399 . S
C1329 C1328 1.399 . S
C1329 C1330 1.376 . S
C1330 H1317 0.930 . S
C1330 C1329 1.376 . S
C1330 C1331 1.388 . S
C1331 H1318 0.930 . S
C1331 C1330 1.388 . S
C1331 C1332 1.390 . S
C1332 C1331 1.390 . S
C1332 C1333 1.394 . S
C1332 C1338 1.465 . S
C1333 C1328 1.399 . S
C1333 C1332 1.394 . S
C1333 C1334 1.516 . S
C1334 C1333 1.516 . S
C1334 C1335 1.502 . S
C1334 C1336 1.561 . S
C1334 C1337 1.526 . S
C1335 H1319 0.959 . S
C1335 H1320 0.959 . S
C1335 H1321 0.961 . S
C1335 C1334 1.502 . S
C1336 H1322 0.960 . S
C1336 H1323 0.961 . S
C1336 H1324 0.959 . S
C1336 C1334 1.561 . S
C1337 C1334 1.526 . S
C1337 C1338 1.396 . S
C1337 C1342 1.390 . S
C1338 C1332 1.465 . S
C1338 C1337 1.396 . S
C1338 C1339 1.399 . S
C1339 H1325 0.929 . S
C1339 C1338 1.399 . S
C1339 C1340 1.385 . S
C1340 H1326 0.931 . S
C1340 C1339 1.385 . S
C1340 C1341 1.389 . S
C1341 C1340 1.389 . S
C1341 C1342 1.387 . S
C1342 H1327 0.930 . S
C1342 C1337 1.390 . S
C1342 C1341 1.387 . S
H1343 C1355 0.930 . S
H1344 C1357 0.930 . S
H1345 C1358 0.930 . S
H1346 C1362 0.959 . S
H1347 C1362 0.959 . S
H1348 C1362 0.961 . S
H1349 C1363 0.960 . S
H1350 C1363 0.961 . S
H1351 C1363 0.959 1_565 S
H1352 C1366 0.921 1_565 S
H1353 C1367 0.931 1_565 S
H1354 C1369 0.930 . S
C1355 H1343 0.930 . S
C1355 C1356 1.399 . S
C1355 C1360 1.399 . S
C1356 C1355 1.399 . S
C1356 C1357 1.376 . S
C1357 H1344 0.930 . S
C1357 C1356 1.376 . S
C1357 C1358 1.388 . S
C1358 H1345 0.930 . S
C1358 C1357 1.388 . S
C1358 C1359 1.390 . S
C1359 C1358 1.390 . S
C1359 C1360 1.394 . S
C1359 C1365 1.465 . S
C1360 C1355 1.399 . S
C1360 C1359 1.394 . S
C1360 C1361 1.516 . S
C1361 C1360 1.516 . S
C1361 C1362 1.502 . S
C1361 C1363 1.561 . S
C1361 C1364 1.526 . S
C1362 H1346 0.959 . S
C1362 H1347 0.959 . S
C1362 H1348 0.961 . S
C1362 C1361 1.502 . S
C1363 H1349 0.960 . S
C1363 H1350 0.961 . S
C1363 H1351 0.959 1_545 S
C1363 C1361 1.561 . S
C1364 C1361 1.526 . S
C1364 C1365 1.396 . S
C1364 C1369 1.390 . S
C1365 C1359 1.465 . S
C1365 C1364 1.396 . S
C1365 C1366 1.399 . S
C1366 H1352 0.921 1_545 S
C1366 C1365 1.399 . S
C1366 C1367 1.385 . S
C1367 H1353 0.931 1_545 S
C1367 C1366 1.385 . S
C1367 C1368 1.389 . S
C1368 C1367 1.389 . S
C1368 C1369 1.387 . S
C1369 H1354 0.930 . S
C1369 C1364 1.390 . S
C1369 C1368 1.387 . S
H1370 C1382 0.930 . S
H1371 C1384 0.930 . S
H1372 C1385 0.930 . S
H1373 C1389 0.959 . S
H1374 C1389 0.959 . S
H1375 C1389 0.961 . S
H1376 C1390 0.960 . S
H1377 C1390 0.961 . S
H1378 C1390 0.959 . S
H1379 C1393 0.929 . S
H1380 C1394 0.931 . S
H1381 C1396 0.930 . S
C1382 H1370 0.930 . S
C1382 C1383 1.399 . S
C1382 C1387 1.399 . S
C1383 C1382 1.399 . S
C1383 C1384 1.376 . S
C1384 H1371 0.930 . S
C1384 C1383 1.376 . S
C1384 C1385 1.388 . S
C1385 H1372 0.930 . S
C1385 C1384 1.388 . S
C1385 C1386 1.390 . S
C1386 C1385 1.390 . S
C1386 C1387 1.394 . S
C1386 C1392 1.465 . S
C1387 C1382 1.399 . S
C1387 C1386 1.394 . S
C1387 C1388 1.516 . S
C1388 C1387 1.516 . S
C1388 C1389 1.502 . S
C1388 C1390 1.561 . S
C1388 C1391 1.526 . S
C1389 H1373 0.959 . S
C1389 H1374 0.959 . S
C1389 H1375 0.961 . S
C1389 C1388 1.502 . S
C1390 H1376 0.960 . S
C1390 H1377 0.961 . S
C1390 H1378 0.959 . S
C1390 C1388 1.561 . S
C1391 C1388 1.526 . S
C1391 C1392 1.396 . S
C1391 C1396 1.390 . S
C1392 C1386 1.465 . S
C1392 C1391 1.396 . S
C1392 C1393 1.399 . S
C1393 H1379 0.929 . S
C1393 C1392 1.399 . S
C1393 C1394 1.385 . S
C1394 H1380 0.931 . S
C1394 C1393 1.385 . S
C1394 C1395 1.389 . S
C1395 C1394 1.389 . S
C1395 C1396 1.387 . S
C1396 H1381 0.930 . S
C1396 C1391 1.390 . S
C1396 C1395 1.387 . S
H1397 C1409 0.930 . S
H1398 C1411 0.930 . S
H1399 C1412 0.930 . S
H1400 C1416 0.959 . S
H1401 C1416 0.959 . S
H1402 C1416 0.961 . S
H1403 C1417 0.960 . S
H1404 C1417 0.961 . S
H1405 C1417 0.959 . S
H1406 C1420 0.929 . S
H1407 C1421 0.931 . S
H1408 C1423 0.930 . S
C1409 H1397 0.930 . S
C1409 C1410 1.399 . S
C1409 C1414 1.399 . S
C1410 C1409 1.399 . S
C1410 C1411 1.376 . S
C1411 H1398 0.930 . S
C1411 C1410 1.376 . S
C1411 C1412 1.388 . S
C1412 H1399 0.930 . S
C1412 C1411 1.388 . S
C1412 C1413 1.390 . S
C1413 C1412 1.390 . S
C1413 C1414 1.394 . S
C1413 C1419 1.465 . S
C1414 C1409 1.399 . S
C1414 C1413 1.394 . S
C1414 C1415 1.516 . S
C1415 C1414 1.516 . S
C1415 C1416 1.502 . S
C1415 C1417 1.561 . S
C1415 C1418 1.526 . S
C1416 H1400 0.959 . S
C1416 H1401 0.959 . S
C1416 H1402 0.961 . S
C1416 C1415 1.502 . S
C1417 H1403 0.960 . S
C1417 H1404 0.961 . S
C1417 H1405 0.959 . S
C1417 C1415 1.561 . S
C1418 C1415 1.526 . S
C1418 C1419 1.396 . S
C1418 C1423 1.390 . S
C1419 C1413 1.465 . S
C1419 C1418 1.396 . S
C1419 C1420 1.399 . S
C1420 H1406 0.929 . S
C1420 C1419 1.399 . S
C1420 C1421 1.385 . S
C1421 H1407 0.931 . S
C1421 C1420 1.385 . S
C1421 C1422 1.389 . S
C1422 C1421 1.389 . S
C1422 C1423 1.387 . S
C1423 H1408 0.930 . S
C1423 C1418 1.390 . S
C1423 C1422 1.387 . S
H1424 C1436 0.930 . S
H1425 C1438 0.930 . S
H1426 C1439 0.930 . S
H1427 C1443 0.959 . S
H1428 C1443 0.959 . S
H1429 C1443 0.961 . S
H1430 C1444 0.960 . S
H1431 C1444 0.961 . S
H1432 C1444 0.959 . S
H1433 C1447 0.929 . S
H1434 C1448 0.931 . S
H1435 C1450 0.930 . S
C1436 H1424 0.930 . S
C1436 C1437 1.399 . S
C1436 C1441 1.399 . S
C1437 C1436 1.399 . S
C1437 C1438 1.376 . S
C1438 H1425 0.930 . S
C1438 C1437 1.376 . S
C1438 C1439 1.388 . S
C1439 H1426 0.930 . S
C1439 C1438 1.388 . S
C1439 C1440 1.390 . S
C1440 C1439 1.390 . S
C1440 C1441 1.394 . S
C1440 C1446 1.465 . S
C1441 C1436 1.399 . S
C1441 C1440 1.394 . S
C1441 C1442 1.516 . S
C1442 C1441 1.516 . S
C1442 C1443 1.502 . S
C1442 C1444 1.561 . S
C1442 C1445 1.526 . S
C1443 H1427 0.959 . S
C1443 H1428 0.959 . S
C1443 H1429 0.961 . S
C1443 C1442 1.502 . S
C1444 H1430 0.960 . S
C1444 H1431 0.961 . S
C1444 H1432 0.959 . S
C1444 C1442 1.561 . S
C1445 C1442 1.526 . S
C1445 C1446 1.396 . S
C1445 C1450 1.390 . S
C1446 C1440 1.465 . S
C1446 C1445 1.396 . S
C1446 C1447 1.399 . S
C1447 H1433 0.929 . S
C1447 C1446 1.399 . S
C1447 C1448 1.385 . S
C1448 H1434 0.931 . S
C1448 C1447 1.385 . S
C1448 C1449 1.389 . S
C1449 C1448 1.389 . S
C1449 C1450 1.387 . S
C1450 H1435 0.930 . S
C1450 C1445 1.390 . S
C1450 C1449 1.387 . S
H1451 C1463 0.930 . S
H1452 C1465 0.930 . S
H1453 C1466 0.930 1_565 S
H1454 C1470 0.959 . S
H1455 C1470 0.959 . S
H1456 C1470 0.961 . S
H1457 C1471 0.960 . S
H1458 C1471 0.961 . S
H1459 C1471 0.959 . S
H1460 C1474 0.929 1_565 S
H1461 C1475 0.931 1_565 S
H1462 C1477 0.930 . S
C1463 H1451 0.930 . S
C1463 C1464 1.399 . S
C1463 C1468 1.399 . S
C1464 C1463 1.399 . S
C1464 C1465 1.376 . S
C1465 H1452 0.930 . S
C1465 C1464 1.376 . S
C1465 C1466 1.388 . S
C1466 H1453 0.930 1_545 S
C1466 C1465 1.388 . S
C1466 C1467 1.390 . S
C1467 C1466 1.390 . S
C1467 C1468 1.394 . S
C1467 C1473 1.465 . S
C1468 C1463 1.399 . S
C1468 C1467 1.394 . S
C1468 C1469 1.516 . S
C1469 C1468 1.516 . S
C1469 C1470 1.502 . S
C1469 C1471 1.561 . S
C1469 C1472 1.526 . S
C1470 H1454 0.959 . S
C1470 H1455 0.959 . S
C1470 H1456 0.961 . S
C1470 C1469 1.502 . S
C1471 H1457 0.960 . S
C1471 H1458 0.961 . S
C1471 H1459 0.959 . S
C1471 C1469 1.561 . S
C1472 C1469 1.526 . S
C1472 C1473 1.396 . S
C1472 C1477 1.390 . S
C1473 C1467 1.465 . S
C1473 C1472 1.396 . S
C1473 C1474 1.399 . S
C1474 H1460 0.929 1_545 S
C1474 C1473 1.399 . S
C1474 C1475 1.385 . S
C1475 H1461 0.931 1_545 S
C1475 C1474 1.385 . S
C1475 C1476 1.389 . S
C1476 C1475 1.389 . S
C1476 C1477 1.387 . S
C1477 H1462 0.930 . S
C1477 C1472 1.390 . S
C1477 C1476 1.387 . S
H1478 C1490 0.930 . S
H1479 C1492 0.930 . S
H1480 C1493 0.930 . S
H1481 C1497 0.959 . S
H1482 C1497 0.959 . S
H1483 C1497 0.961 . S
H1484 C1498 0.960 . S
H1485 C1498 0.961 . S
H1486 C1498 0.959 . S
H1487 C1501 0.929 . S
H1488 C1502 0.931 . S
H1489 C1504 0.930 . S
C1490 H1478 0.930 . S
C1490 C1491 1.399 . S
C1490 C1495 1.399 . S
C1491 C1490 1.399 . S
C1491 C1492 1.376 . S
C1492 H1479 0.930 . S
C1492 C1491 1.376 . S
C1492 C1493 1.388 . S
C1493 H1480 0.930 . S
C1493 C1492 1.388 . S
C1493 C1494 1.390 . S
C1494 C1493 1.390 . S
C1494 C1495 1.394 . S
C1494 C1500 1.465 . S
C1495 C1490 1.399 . S
C1495 C1494 1.394 . S
C1495 C1496 1.516 . S
C1496 C1495 1.516 . S
C1496 C1497 1.502 . S
C1496 C1498 1.561 . S
C1496 C1499 1.526 . S
C1497 H1481 0.959 . S
C1497 H1482 0.959 . S
C1497 H1483 0.961 . S
C1497 C1496 1.502 . S
C1498 H1484 0.960 . S
C1498 H1485 0.961 . S
C1498 H1486 0.959 . S
C1498 C1496 1.561 . S
C1499 C1496 1.526 . S
C1499 C1500 1.396 . S
C1499 C1504 1.390 . S
C1500 C1494 1.465 . S
C1500 C1499 1.396 . S
C1500 C1501 1.399 . S
C1501 H1487 0.929 . S
C1501 C1500 1.399 . S
C1501 C1502 1.385 . S
C1502 H1488 0.931 . S
C1502 C1501 1.385 . S
C1502 C1503 1.389 . S
C1503 C1502 1.389 . S
C1503 C1504 1.387 . S
C1504 H1489 0.930 . S
C1504 C1499 1.390 . S
C1504 C1503 1.387 . S
H1505 C1517 0.930 . S
H1506 C1519 0.930 . S
H1507 C1520 0.930 . S
H1508 C1524 0.959 . S
H1509 C1524 0.959 . S
H1510 C1524 0.961 . S
H1511 C1525 0.960 . S
H1512 C1525 0.961 . S
H1513 C1525 0.959 . S
H1514 C1528 0.929 . S
H1515 C1529 0.931 . S
H1516 C1531 0.930 . S
C1517 H1505 0.930 . S
C1517 C1518 1.399 . S
C1517 C1522 1.399 . S
C1518 C1517 1.399 . S
C1518 C1519 1.376 . S
C1519 H1506 0.930 . S
C1519 C1518 1.376 . S
C1519 C1520 1.388 . S
C1520 H1507 0.930 . S
C1520 C1519 1.388 . S
C1520 C1521 1.390 . S
C1521 C1520 1.390 . S
C1521 C1522 1.394 . S
C1521 C1527 1.465 . S
C1522 C1517 1.399 . S
C1522 C1521 1.394 . S
C1522 C1523 1.516 . S
C1523 C1522 1.516 . S
C1523 C1524 1.502 . S
C1523 C1525 1.561 . S
C1523 C1526 1.526 . S
C1524 H1508 0.959 . S
C1524 H1509 0.959 . S
C1524 H1510 0.961 . S
C1524 C1523 1.502 . S
C1525 H1511 0.960 . S
C1525 H1512 0.961 . S
C1525 H1513 0.959 . S
C1525 C1523 1.561 . S
C1526 C1523 1.526 . S
C1526 C1527 1.396 . S
C1526 C1531 1.390 . S
C1527 C1521 1.465 . S
C1527 C1526 1.396 . S
C1527 C1528 1.399 . S
C1528 H1514 0.929 . S
C1528 C1527 1.399 . S
C1528 C1529 1.385 . S
C1529 H1515 0.931 . S
C1529 C1528 1.385 . S
C1529 C1530 1.389 . S
C1530 C1529 1.389 . S
C1530 C1531 1.387 . S
C1531 H1516 0.930 . S
C1531 C1526 1.390 . S
C1531 C1530 1.387 . S
H1532 C1544 0.930 . S
H1533 C1546 0.930 . S
H1534 C1547 0.930 . S
H1535 C1551 0.959 . S
H1536 C1551 0.959 . S
H1537 C1551 0.961 . S
H1538 C1552 0.960 . S
H1539 C1552 0.961 . S
H1540 C1552 0.959 . S
H1541 C1555 0.929 . S
H1542 C1556 0.931 . S
H1543 C1558 0.930 . S
C1544 H1532 0.930 . S
C1544 C1545 1.399 . S
C1544 C1549 1.399 . S
C1545 C1544 1.399 . S
C1545 C1546 1.376 . S
C1546 H1533 0.930 . S
C1546 C1545 1.376 . S
C1546 C1547 1.388 . S
C1547 H1534 0.930 . S
C1547 C1546 1.388 . S
C1547 C1548 1.390 . S
C1548 C1547 1.390 . S
C1548 C1549 1.394 . S
C1548 C1554 1.465 . S
C1549 C1544 1.399 . S
C1549 C1548 1.394 . S
C1549 C1550 1.516 . S
C1550 C1549 1.516 . S
C1550 C1551 1.502 . S
C1550 C1552 1.561 . S
C1550 C1553 1.526 . S
C1551 H1535 0.959 . S
C1551 H1536 0.959 . S
C1551 H1537 0.961 . S
C1551 C1550 1.502 . S
C1552 H1538 0.960 . S
C1552 H1539 0.961 . S
C1552 H1540 0.959 . S
C1552 C1550 1.561 . S
C1553 C1550 1.526 . S
C1553 C1554 1.396 . S
C1553 C1558 1.390 . S
C1554 C1548 1.465 . S
C1554 C1553 1.396 . S
C1554 C1555 1.399 . S
C1555 H1541 0.929 . S
C1555 C1554 1.399 . S
C1555 C1556 1.385 . S
C1556 H1542 0.931 . S
C1556 C1555 1.385 . S
C1556 C1557 1.389 . S
C1557 C1556 1.389 . S
C1557 C1558 1.387 . S
C1558 H1543 0.930 . S
C1558 C1553 1.390 . S
C1558 C1557 1.387 . S
H1559 C1571 0.920 1_554 S
H1560 C1573 0.930 . S
H1561 C1574 0.930 . S
H1562 C1578 0.959 . S
H1563 C1578 0.959 . S
H1564 C1578 0.961 . S
H1565 C1579 0.962 1_554 S
H1566 C1579 0.961 . S
H1567 C1579 0.959 . S
H1568 C1582 0.929 . S
H1569 C1583 0.931 . S
H1570 C1585 0.930 1_455 S
C1571 H1559 0.920 1_556 S
C1571 C1572 1.399 . S
C1571 C1576 1.399 . S
C1572 C1571 1.399 . S
C1572 C1573 1.376 . S
C1573 H1560 0.930 . S
C1573 C1572 1.376 . S
C1573 C1574 1.388 . S
C1574 H1561 0.930 . S
C1574 C1573 1.388 . S
C1574 C1575 1.390 . S
C1575 C1574 1.390 . S
C1575 C1576 1.394 . S
C1575 C1581 1.465 . S
C1576 C1571 1.399 . S
C1576 C1575 1.394 . S
C1576 C1577 1.516 . S
C1577 C1576 1.516 . S
C1577 C1578 1.502 1_655 S
C1577 C1579 1.561 . S
C1577 C1580 1.526 . S
C1578 H1562 0.959 . S
C1578 H1563 0.959 . S
C1578 H1564 0.961 . S
C1578 C1577 1.502 1_455 S
C1579 H1565 0.962 1_556 S
C1579 H1566 0.961 . S
C1579 H1567 0.959 . S
C1579 C1577 1.561 . S
C1580 C1577 1.526 . S
C1580 C1581 1.396 . S
C1580 C1585 1.390 . S
C1581 C1575 1.465 . S
C1581 C1580 1.396 . S
C1581 C1582 1.399 . S
C1582 H1568 0.929 . S
C1582 C1581 1.399 . S
C1582 C1583 1.385 . S
C1583 H1569 0.931 . S
C1583 C1582 1.385 . S
C1583 C1584 1.389 . S
C1584 C1583 1.389 . S
C1584 C1585 1.387 . S
C1585 H1570 0.930 1_655 S
C1585 C1580 1.390 . S
C1585 C1584 1.387 . S
H1586 C1598 0.930 . S
H1587 C1600 0.930 . S
H1588 C1601 0.930 . S
H1589 C1605 0.959 . S
H1590 C1605 0.959 . S
H1591 C1605 0.961 . S
H1592 C1606 0.960 . S
H1593 C1606 0.961 . S
H1594 C1606 0.959 . S
H1595 C1609 0.929 . S
H1596 C1610 0.931 . S
H1597 C1612 0.930 . S
C1598 H1586 0.930 . S
C1598 C1599 1.399 . S
C1598 C1603 1.399 . S
C1599 C1598 1.399 . S
C1599 C1600 1.376 . S
C1600 H1587 0.930 . S
C1600 C1599 1.376 . S
C1600 C1601 1.388 . S
C1601 H1588 0.930 . S
C1601 C1600 1.388 . S
C1601 C1602 1.390 . S
C1602 C1601 1.390 . S
C1602 C1603 1.394 . S
C1602 C1608 1.465 . S
C1603 C1598 1.399 . S
C1603 C1602 1.394 . S
C1603 C1604 1.516 . S
C1604 C1603 1.516 . S
C1604 C1605 1.502 . S
C1604 C1606 1.561 . S
C1604 C1607 1.526 . S
C1605 H1589 0.959 . S
C1605 H1590 0.959 . S
C1605 H1591 0.961 . S
C1605 C1604 1.502 . S
C1606 H1592 0.960 . S
C1606 H1593 0.961 . S
C1606 H1594 0.959 . S
C1606 C1604 1.561 . S
C1607 C1604 1.526 . S
C1607 C1608 1.396 . S
C1607 C1612 1.390 . S
C1608 C1602 1.465 . S
C1608 C1607 1.396 . S
C1608 C1609 1.399 . S
C1609 H1595 0.929 . S
C1609 C1608 1.399 . S
C1609 C1610 1.385 . S
C1610 H1596 0.931 . S
C1610 C1609 1.385 . S
C1610 C1611 1.389 . S
C1611 C1610 1.389 . S
C1611 C1612 1.387 . S
C1612 H1597 0.930 . S
C1612 C1607 1.390 . S
C1612 C1611 1.387 . S
H1613 C1625 0.930 1_655 S
H1614 C1627 0.930 . S
H1615 C1628 0.930 . S
H1616 C1632 0.959 . S
H1617 C1632 0.959 . S
H1618 C1632 0.961 . S
H1619 C1633 0.960 . S
H1620 C1633 0.961 . S
H1621 C1633 0.959 . S
H1622 C1636 0.929 . S
H1623 C1637 0.931 . S
H1624 C1639 0.916 1_655 S
C1625 H1613 0.930 1_455 S
C1625 C1626 1.399 . S
C1625 C1630 1.399 . S
C1626 C1625 1.399 . S
C1626 C1627 1.376 . S
C1627 H1614 0.930 . S
C1627 C1626 1.376 . S
C1627 C1628 1.388 . S
C1628 H1615 0.930 . S
C1628 C1627 1.388 . S
C1628 C1629 1.390 . S
C1629 C1628 1.390 . S
C1629 C1630 1.394 . S
C1629 C1635 1.465 . S
C1630 C1625 1.399 . S
C1630 C1629 1.394 . S
C1630 C1631 1.516 1_455 S
C1631 C1630 1.516 1_655 S
C1631 C1632 1.502 . S
C1631 C1633 1.561 . S
C1631 C1634 1.526 1_655 S
C1632 H1616 0.959 . S
C1632 H1617 0.959 . S
C1632 H1618 0.961 . S
C1632 C1631 1.502 . S
C1633 H1619 0.960 . S
C1633 H1620 0.961 . S
C1633 H1621 0.959 . S
C1633 C1631 1.561 . S
C1634 C1631 1.526 1_455 S
C1634 C1635 1.396 . S
C1634 C1639 1.394 . S
C1635 C1629 1.465 . S
C1635 C1634 1.396 . S
C1635 C1636 1.399 . S
C1636 H1622 0.929 . S
C1636 C1635 1.399 . S
C1636 C1637 1.385 . S
C1637 H1623 0.931 . S
C1637 C1636 1.385 . S
C1637 C1638 1.389 . S
C1638 C1637 1.389 . S
C1638 C1639 1.395 . S
C1639 H1624 0.916 1_455 S
C1639 C1634 1.394 . S
C1639 C1638 1.395 . S
H1640 C1652 0.930 . S
H1641 C1654 0.930 . S
H1642 C1655 0.930 . S
H1643 C1659 0.959 . S
H1644 C1659 0.959 . S
H1645 C1659 0.961 . S
H1646 C1660 0.960 . S
H1647 C1660 0.961 . S
H1648 C1660 0.959 . S
H1649 C1663 0.929 . S
H1650 C1664 0.931 . S
H1651 C1666 0.930 . S
C1652 H1640 0.930 . S
C1652 C1653 1.399 . S
C1652 C1657 1.399 . S
C1653 C1652 1.399 . S
C1653 C1654 1.376 . S
C1654 H1641 0.930 . S
C1654 C1653 1.376 . S
C1654 C1655 1.388 . S
C1655 H1642 0.930 . S
C1655 C1654 1.388 . S
C1655 C1656 1.390 . S
C1656 C1655 1.390 . S
C1656 C1657 1.394 . S
C1656 C1662 1.465 . S
C1657 C1652 1.399 . S
C1657 C1656 1.394 . S
C1657 C1658 1.516 . S
C1658 C1657 1.516 . S
C1658 C1659 1.502 . S
C1658 C1660 1.561 . S
C1658 C1661 1.526 . S
C1659 H1643 0.959 . S
C1659 H1644 0.959 . S
C1659 H1645 0.961 . S
C1659 C1658 1.502 . S
C1660 H1646 0.960 . S
C1660 H1647 0.961 . S
C1660 H1648 0.959 . S
C1660 C1658 1.561 . S
C1661 C1658 1.526 . S
C1661 C1662 1.396 . S
C1661 C1666 1.390 . S
C1662 C1656 1.465 . S
C1662 C1661 1.396 . S
C1662 C1663 1.399 . S
C1663 H1649 0.929 . S
C1663 C1662 1.399 . S
C1663 C1664 1.385 . S
C1664 H1650 0.931 . S
C1664 C1663 1.385 . S
C1664 C1665 1.389 . S
C1665 C1664 1.389 . S
C1665 C1666 1.387 . S
C1666 H1651 0.930 . S
C1666 C1661 1.390 . S
C1666 C1665 1.387 . S
H1667 C1679 0.930 . S
H1668 C1681 0.930 . S
H1669 C1682 0.930 . S
H1670 C1686 0.959 . S
H1671 C1686 0.959 . S
H1672 C1686 0.961 . S
H1673 C1687 0.960 . S
H1674 C1687 0.961 . S
H1675 C1687 0.959 . S
H1676 C1690 0.929 . S
H1677 C1691 0.931 . S
H1678 C1693 0.930 . S
C1679 H1667 0.930 . S
C1679 C1680 1.399 . S
C1679 C1684 1.399 . S
C1680 C1679 1.399 . S
C1680 C1681 1.376 . S
C1681 H1668 0.930 . S
C1681 C1680 1.376 . S
C1681 C1682 1.388 . S
C1682 H1669 0.930 . S
C1682 C1681 1.388 . S
C1682 C1683 1.390 . S
C1683 C1682 1.390 . S
C1683 C1684 1.394 . S
C1683 C1689 1.465 . S
C1684 C1679 1.399 . S
C1684 C1683 1.394 . S
C1684 C1685 1.516 . S
C1685 C1684 1.516 . S
C1685 C1686 1.502 . S
C1685 C1687 1.561 . S
C1685 C1688 1.526 . S
C1686 H1670 0.959 . S
C1686 H1671 0.959 . S
C1686 H1672 0.961 . S
C1686 C1685 1.502 . S
C1687 H1673 0.960 . S
C1687 H1674 0.961 . S
C1687 H1675 0.959 . S
C1687 C1685 1.561 . S
C1688 C1685 1.526 . S
C1688 C1689 1.396 . S
C1688 C1693 1.390 . S
C1689 C1683 1.465 . S
C1689 C1688 1.396 . S
C1689 C1690 1.399 . S
C1690 H1676 0.929 . S
C1690 C1689 1.399 . S
C1690 C1691 1.385 . S
C1691 H1677 0.931 . S
C1691 C1690 1.385 . S
C1691 C1692 1.389 . S
C1692 C1691 1.389 . S
C1692 C1693 1.387 . S
C1693 H1678 0.930 . S
C1693 C1688 1.390 . S
C1693 C1692 1.387 . S
H1694 C1706 0.930 . S
H1695 C1708 0.930 . S
H1696 C1709 0.930 . S
H1697 C1713 0.959 . S
H1698 C1713 0.959 . S
H1699 C1713 0.961 . S
H1700 C1714 0.960 . S
H1701 C1714 0.961 . S
H1702 C1714 0.959 . S
H1703 C1717 0.929 . S
H1704 C1718 0.931 . S
H1705 C1720 0.930 . S
C1706 H1694 0.930 . S
C1706 C1707 1.399 . S
C1706 C1711 1.399 . S
C1707 C1706 1.399 . S
C1707 C1708 1.376 . S
C1708 H1695 0.930 . S
C1708 C1707 1.376 . S
C1708 C1709 1.388 . S
C1709 H1696 0.930 . S
C1709 C1708 1.388 . S
C1709 C1710 1.390 . S
C1710 C1709 1.390 . S
C1710 C1711 1.394 . S
C1710 C1716 1.465 . S
C1711 C1706 1.399 . S
C1711 C1710 1.394 . S
C1711 C1712 1.516 . S
C1712 C1711 1.516 . S
C1712 C1713 1.502 . S
C1712 C1714 1.561 . S
C1712 C1715 1.526 . S
C1713 H1697 0.959 . S
C1713 H1698 0.959 . S
C1713 H1699 0.961 . S
C1713 C1712 1.502 . S
C1714 H1700 0.960 . S
C1714 H1701 0.961 . S
C1714 H1702 0.959 . S
C1714 C1712 1.561 . S
C1715 C1712 1.526 . S
C1715 C1716 1.396 . S
C1715 C1720 1.390 . S
C1716 C1710 1.465 . S
C1716 C1715 1.396 . S
C1716 C1717 1.399 . S
C1717 H1703 0.929 . S
C1717 C1716 1.399 . S
C1717 C1718 1.385 . S
C1718 H1704 0.931 . S
C1718 C1717 1.385 . S
C1718 C1719 1.389 . S
C1719 C1718 1.389 . S
C1719 C1720 1.387 . S
C1720 H1705 0.930 . S
C1720 C1715 1.390 . S
C1720 C1719 1.387 . S
H1721 C1733 0.930 . S
H1722 C1735 0.930 . S
H1723 C1736 0.930 . S
H1724 C1740 0.959 . S
H1725 C1740 0.959 . S
H1726 C1740 0.961 . S
H1727 C1741 0.960 . S
H1728 C1741 0.961 . S
H1729 C1741 0.959 . S
H1730 C1744 0.929 . S
H1731 C1745 0.931 . S
H1732 C1747 0.930 . S
C1733 H1721 0.930 . S
C1733 C1734 1.399 . S
C1733 C1738 1.399 . S
C1734 C1733 1.399 . S
C1734 C1735 1.376 . S
C1735 H1722 0.930 . S
C1735 C1734 1.376 . S
C1735 C1736 1.388 . S
C1736 H1723 0.930 . S
C1736 C1735 1.388 . S
C1736 C1737 1.390 . S
C1737 C1736 1.390 . S
C1737 C1738 1.394 . S
C1737 C1743 1.465 . S
C1738 C1733 1.399 . S
C1738 C1737 1.394 . S
C1738 C1739 1.516 . S
C1739 C1738 1.516 . S
C1739 C1740 1.502 . S
C1739 C1741 1.561 . S
C1739 C1742 1.526 . S
C1740 H1724 0.959 . S
C1740 H1725 0.959 . S
C1740 H1726 0.961 . S
C1740 C1739 1.502 . S
C1741 H1727 0.960 . S
C1741 H1728 0.961 . S
C1741 H1729 0.959 . S
C1741 C1739 1.561 . S
C1742 C1739 1.526 . S
C1742 C1743 1.396 . S
C1742 C1747 1.390 . S
C1743 C1737 1.465 . S
C1743 C1742 1.396 . S
C1743 C1744 1.399 . S
C1744 H1730 0.929 . S
C1744 C1743 1.399 . S
C1744 C1745 1.385 . S
C1745 H1731 0.931 . S
C1745 C1744 1.385 . S
C1745 C1746 1.389 . S
C1746 C1745 1.389 . S
C1746 C1747 1.387 . S
C1747 H1732 0.930 . S
C1747 C1742 1.390 . S
C1747 C1746 1.387 . S
H1748 C1760 0.930 . S
H1749 C1762 0.930 . S
H1750 C1763 0.930 . S
H1751 C1767 0.959 . S
H1752 C1767 0.959 . S
H1753 C1767 0.961 . S
H1754 C1768 0.960 . S
H1755 C1768 0.961 . S
H1756 C1768 0.959 . S
H1757 C1771 0.929 . S
H1758 C1772 0.931 . S
H1759 C1774 0.930 . S
C1760 H1748 0.930 . S
C1760 C1761 1.399 . S
C1760 C1765 1.399 . S
C1761 C1760 1.399 . S
C1761 C1762 1.376 . S
C1762 H1749 0.930 . S
C1762 C1761 1.376 . S
C1762 C1763 1.388 . S
C1763 H1750 0.930 . S
C1763 C1762 1.388 . S
C1763 C1764 1.390 . S
C1764 C1763 1.390 . S
C1764 C1765 1.394 . S
C1764 C1770 1.465 . S
C1765 C1760 1.399 . S
C1765 C1764 1.394 . S
C1765 C1766 1.516 . S
C1766 C1765 1.516 . S
C1766 C1767 1.502 . S
C1766 C1768 1.561 . S
C1766 C1769 1.526 . S
C1767 H1751 0.959 . S
C1767 H1752 0.959 . S
C1767 H1753 0.961 . S
C1767 C1766 1.502 . S
C1768 H1754 0.960 . S
C1768 H1755 0.961 . S
C1768 H1756 0.959 . S
C1768 C1766 1.561 . S
C1769 C1766 1.526 . S
C1769 C1770 1.396 . S
C1769 C1774 1.390 . S
C1770 C1764 1.465 . S
C1770 C1769 1.396 . S
C1770 C1771 1.399 . S
C1771 H1757 0.929 . S
C1771 C1770 1.399 . S
C1771 C1772 1.385 . S
C1772 H1758 0.931 . S
C1772 C1771 1.385 . S
C1772 C1773 1.389 . S
C1773 C1772 1.389 . S
C1773 C1774 1.387 . S
C1774 H1759 0.930 . S
C1774 C1769 1.390 . S
C1774 C1773 1.387 . S
H1775 C1787 0.930 . S
H1776 C1789 0.930 . S
H1777 C1790 0.930 . S
H1778 C1794 0.959 . S
H1779 C1794 0.959 . S
H1780 C1794 0.961 . S
H1781 C1795 0.960 . S
H1782 C1795 0.961 . S
H1783 C1795 0.959 . S
H1784 C1798 0.929 . S
H1785 C1799 0.931 . S
H1786 C1801 0.930 . S
C1787 H1775 0.930 . S
C1787 C1788 1.399 . S
C1787 C1792 1.399 . S
C1788 C1787 1.399 . S
C1788 C1789 1.376 . S
C1789 H1776 0.930 . S
C1789 C1788 1.376 . S
C1789 C1790 1.388 . S
C1790 H1777 0.930 . S
C1790 C1789 1.388 . S
C1790 C1791 1.390 . S
C1791 C1790 1.390 . S
C1791 C1792 1.394 . S
C1791 C1797 1.465 . S
C1792 C1787 1.399 . S
C1792 C1791 1.394 . S
C1792 C1793 1.516 . S
C1793 C1792 1.516 . S
C1793 C1794 1.502 . S
C1793 C1795 1.561 . S
C1793 C1796 1.526 . S
C1794 H1778 0.959 . S
C1794 H1779 0.959 . S
C1794 H1780 0.961 . S
C1794 C1793 1.502 . S
C1795 H1781 0.960 . S
C1795 H1782 0.961 . S
C1795 H1783 0.959 . S
C1795 C1793 1.561 . S
C1796 C1793 1.526 . S
C1796 C1797 1.396 . S
C1796 C1801 1.390 . S
C1797 C1791 1.465 . S
C1797 C1796 1.396 . S
C1797 C1798 1.399 . S
C1798 H1784 0.929 . S
C1798 C1797 1.399 . S
C1798 C1799 1.385 . S
C1799 H1785 0.931 . S
C1799 C1798 1.385 . S
C1799 C1800 1.389 . S
C1800 C1799 1.389 . S
C1800 C1801 1.387 . S
C1801 H1786 0.930 . S
C1801 C1796 1.390 . S
C1801 C1800 1.387 . S
H1802 C1814 0.930 . S
H1803 C1816 0.930 . S
H1804 C1817 0.930 . S
H1805 C1821 0.959 . S
H1806 C1821 0.959 . S
H1807 C1821 0.961 . S
H1808 C1822 0.960 . S
H1809 C1822 0.961 . S
H1810 C1822 0.959 . S
H1811 C1825 0.929 . S
H1812 C1826 0.931 . S
H1813 C1828 0.930 . S
C1814 H1802 0.930 . S
C1814 C1815 1.399 . S
C1814 C1819 1.399 . S
C1815 C1814 1.399 . S
C1815 C1816 1.376 . S
C1816 H1803 0.930 . S
C1816 C1815 1.376 . S
C1816 C1817 1.388 . S
C1817 H1804 0.930 . S
C1817 C1816 1.388 . S
C1817 C1818 1.390 . S
C1818 C1817 1.390 . S
C1818 C1819 1.394 . S
C1818 C1824 1.465 . S
C1819 C1814 1.399 . S
C1819 C1818 1.394 . S
C1819 C1820 1.516 . S
C1820 C1819 1.516 . S
C1820 C1821 1.502 . S
C1820 C1822 1.561 . S
C1820 C1823 1.526 . S
C1821 H1805 0.959 . S
C1821 H1806 0.959 . S
C1821 H1807 0.961 . S
C1821 C1820 1.502 . S
C1822 H1808 0.960 . S
C1822 H1809 0.961 . S
C1822 H1810 0.959 . S
C1822 C1820 1.561 . S
C1823 C1820 1.526 . S
C1823 C1824 1.396 . S
C1823 C1828 1.390 . S
C1824 C1818 1.465 . S
C1824 C1823 1.396 . S
C1824 C1825 1.399 . S
C1825 H1811 0.929 . S
C1825 C1824 1.399 . S
C1825 C1826 1.385 . S
C1826 H1812 0.931 . S
C1826 C1825 1.385 . S
C1826 C1827 1.389 . S
C1827 C1826 1.389 . S
C1827 C1828 1.387 . S
C1828 H1813 0.930 . S
C1828 C1823 1.390 . S
C1828 C1827 1.387 . S
H1829 C1841 0.930 . S
H1830 C1843 0.930 . S
H1831 C1844 0.930 . S
H1832 C1848 0.959 . S
H1833 C1848 0.959 . S
H1834 C1848 0.961 . S
H1835 C1849 0.960 . S
H1836 C1849 0.961 . S
H1837 C1849 0.959 . S
H1838 C1852 0.929 . S
H1839 C1853 0.931 . S
H1840 C1855 0.930 . S
C1841 H1829 0.930 . S
C1841 C1842 1.399 . S
C1841 C1846 1.399 . S
C1842 C1841 1.399 . S
C1842 C1843 1.376 . S
C1843 H1830 0.930 . S
C1843 C1842 1.376 . S
C1843 C1844 1.388 . S
C1844 H1831 0.930 . S
C1844 C1843 1.388 . S
C1844 C1845 1.390 . S
C1845 C1844 1.390 . S
C1845 C1846 1.394 . S
C1845 C1851 1.465 . S
C1846 C1841 1.399 . S
C1846 C1845 1.394 . S
C1846 C1847 1.516 . S
C1847 C1846 1.516 . S
C1847 C1848 1.502 . S
C1847 C1849 1.561 . S
C1847 C1850 1.526 . S
C1848 H1832 0.959 . S
C1848 H1833 0.959 . S
C1848 H1834 0.961 . S
C1848 C1847 1.502 . S
C1849 H1835 0.960 . S
C1849 H1836 0.961 . S
C1849 H1837 0.959 . S
C1849 C1847 1.561 . S
C1850 C1847 1.526 . S
C1850 C1851 1.396 . S
C1850 C1855 1.390 . S
C1851 C1845 1.465 . S
C1851 C1850 1.396 . S
C1851 C1852 1.399 . S
C1852 H1838 0.929 . S
C1852 C1851 1.399 . S
C1852 C1853 1.385 . S
C1853 H1839 0.931 . S
C1853 C1852 1.385 . S
C1853 C1854 1.389 . S
C1854 C1853 1.389 . S
C1854 C1855 1.387 . S
C1855 H1840 0.930 . S
C1855 C1850 1.390 . S
C1855 C1854 1.387 . S
H1856 C1868 0.930 . S
H1857 C1870 0.926 1_554 S
H1858 C1871 0.930 . S
H1859 C1875 0.959 . S
H1860 C1875 0.959 . S
H1861 C1875 0.961 . S
H1862 C1876 0.960 . S
H1863 C1876 0.961 . S
H1864 C1876 0.959 . S
H1865 C1879 0.929 . S
H1866 C1880 0.931 . S
H1867 C1882 0.930 . S
C1868 H1856 0.930 . S
C1868 C1869 1.399 . S
C1868 C1873 1.399 . S
C1869 C1868 1.399 . S
C1869 C1870 1.384 . S
C1870 H1857 0.926 1_556 S
C1870 C1869 1.384 . S
C1870 C1871 1.386 1_556 S
C1871 H1858 0.930 . S
C1871 C1870 1.386 1_554 S
C1871 C1872 1.390 1_554 S
C1872 C1871 1.390 1_556 S
C1872 C1873 1.394 . S
C1872 C1878 1.465 . S
C1873 C1868 1.399 . S
C1873 C1872 1.394 . S
C1873 C1874 1.516 . S
C1874 C1873 1.516 . S
C1874 C1875 1.502 . S
C1874 C1876 1.561 . S
C1874 C1877 1.526 . S
C1875 H1859 0.959 . S
C1875 H1860 0.959 . S
C1875 H1861 0.961 . S
C1875 C1874 1.502 . S
C1876 H1862 0.960 . S
C1876 H1863 0.961 . S
C1876 H1864 0.959 . S
C1876 C1874 1.561 . S
C1877 C1874 1.526 . S
C1877 C1878 1.396 . S
C1877 C1882 1.390 . S
C1878 C1872 1.465 . S
C1878 C1877 1.396 . S
C1878 C1879 1.399 1_556 S
C1879 H1865 0.929 . S
C1879 C1878 1.399 1_554 S
C1879 C1880 1.385 . S
C1880 H1866 0.931 . S
C1880 C1879 1.385 . S
C1880 C1881 1.389 1_554 S
C1881 C1880 1.389 1_556 S
C1881 C1882 1.387 . S
C1882 H1867 0.930 . S
C1882 C1877 1.390 . S
C1882 C1881 1.387 . S
H1883 C1895 0.930 . S
H1884 C1897 0.930 . S
H1885 C1898 0.930 . S
H1886 C1902 0.959 . S
H1887 C1902 0.959 . S
H1888 C1902 0.961 . S
H1889 C1903 0.960 . S
H1890 C1903 0.961 . S
H1891 C1903 0.959 . S
H1892 C1906 0.929 . S
H1893 C1907 0.931 . S
H1894 C1909 0.930 . S
C1895 H1883 0.930 . S
C1895 C1896 1.399 . S
C1895 C1900 1.399 . S
C1896 C1895 1.399 . S
C1896 C1897 1.376 . S
C1897 H1884 0.930 . S
C1897 C1896 1.376 . S
C1897 C1898 1.388 . S
C1898 H1885 0.930 . S
C1898 C1897 1.388 . S
C1898 C1899 1.390 . S
C1899 C1898 1.390 . S
C1899 C1900 1.394 . S
C1899 C1905 1.465 . S
C1900 C1895 1.399 . S
C1900 C1899 1.394 . S
C1900 C1901 1.516 . S
C1901 C1900 1.516 . S
C1901 C1902 1.502 . S
C1901 C1903 1.561 . S
C1901 C1904 1.526 . S
C1902 H1886 0.959 . S
C1902 H1887 0.959 . S
C1902 H1888 0.961 . S
C1902 C1901 1.502 . S
C1903 H1889 0.960 . S
C1903 H1890 0.961 . S
C1903 H1891 0.959 . S
C1903 C1901 1.561 . S
C1904 C1901 1.526 . S
C1904 C1905 1.396 . S
C1904 C1909 1.390 . S
C1905 C1899 1.465 . S
C1905 C1904 1.396 . S
C1905 C1906 1.399 . S
C1906 H1892 0.929 . S
C1906 C1905 1.399 . S
C1906 C1907 1.385 . S
C1907 H1893 0.931 . S
C1907 C1906 1.385 . S
C1907 C1908 1.389 . S
C1908 C1907 1.389 . S
C1908 C1909 1.387 . S
C1909 H1894 0.930 . S
C1909 C1904 1.390 . S
C1909 C1908 1.387 . S
H1910 C1922 0.930 . S
H1911 C1924 0.930 1_556 S
H1912 C1925 0.930 . S
H1913 C1929 0.959 . S
H1914 C1929 0.959 . S
H1915 C1929 0.961 . S
H1916 C1930 0.960 . S
H1917 C1930 0.961 . S
H1918 C1930 0.959 . S
H1919 C1933 0.929 . S
H1920 C1934 0.931 . S
H1921 C1936 0.930 . S
C1922 H1910 0.930 . S
C1922 C1923 1.399 . S
C1922 C1927 1.399 . S
C1923 C1922 1.399 . S
C1923 C1924 1.376 . S
C1924 H1911 0.930 1_554 S
C1924 C1923 1.376 . S
C1924 C1925 1.388 1_554 S
C1925 H1912 0.930 . S
C1925 C1924 1.388 1_556 S
C1925 C1926 1.390 1_556 S
C1926 C1925 1.390 1_554 S
C1926 C1927 1.394 . S
C1926 C1932 1.465 . S
C1927 C1922 1.399 . S
C1927 C1926 1.394 . S
C1927 C1928 1.516 . S
C1928 C1927 1.516 . S
C1928 C1929 1.502 . S
C1928 C1930 1.561 . S
C1928 C1931 1.526 . S
C1929 H1913 0.959 . S
C1929 H1914 0.959 . S
C1929 H1915 0.961 . S
C1929 C1928 1.502 . S
C1930 H1916 0.960 . S
C1930 H1917 0.961 . S
C1930 H1918 0.959 . S
C1930 C1928 1.561 . S
C1931 C1928 1.526 . S
C1931 C1932 1.396 . S
C1931 C1936 1.390 . S
C1932 C1926 1.465 . S
C1932 C1931 1.396 . S
C1932 C1933 1.399 1_554 S
C1933 H1919 0.929 . S
C1933 C1932 1.399 1_556 S
C1933 C1934 1.385 . S
C1934 H1920 0.931 . S
C1934 C1933 1.385 . S
C1934 C1935 1.389 1_556 S
C1935 C1934 1.389 1_554 S
C1935 C1936 1.387 . S
C1936 H1921 0.930 . S
C1936 C1931 1.390 . S
C1936 C1935 1.387 . S
H1937 C1949 0.930 . S
H1938 C1951 0.930 . S
H1939 C1952 0.930 . S
H1940 C1956 0.959 . S
H1941 C1956 0.959 . S
H1942 C1956 0.961 . S
H1943 C1957 0.960 . S
H1944 C1957 0.961 . S
H1945 C1957 0.959 . S
H1946 C1960 0.929 . S
H1947 C1961 0.931 . S
H1948 C1963 0.930 1_556 S
C1949 H1937 0.930 . S
C1949 C1950 1.399 . S
C1949 C1954 1.399 . S
C1950 C1949 1.399 . S
C1950 C1951 1.376 . S
C1951 H1938 0.930 . S
C1951 C1950 1.376 . S
C1951 C1952 1.388 . S
C1952 H1939 0.930 . S
C1952 C1951 1.388 . S
C1952 C1953 1.390 . S
C1953 C1952 1.390 . S
C1953 C1954 1.394 . S
C1953 C1959 1.465 . S
C1954 C1949 1.399 . S
C1954 C1953 1.394 . S
C1954 C1955 1.516 . S
C1955 C1954 1.516 . S
C1955 C1956 1.502 1_554 S
C1955 C1957 1.561 1_554 S
C1955 C1958 1.526 . S
C1956 H1940 0.959 . S
C1956 H1941 0.959 . S
C1956 H1942 0.961 . S
C1956 C1955 1.502 1_556 S
C1957 H1943 0.960 . S
C1957 H1944 0.961 . S
C1957 H1945 0.959 . S
C1957 C1955 1.561 1_556 S
C1958 C1955 1.526 . S
C1958 C1959 1.396 . S
C1958 C1963 1.390 . S
C1959 C1953 1.465 . S
C1959 C1958 1.396 . S
C1959 C1960 1.399 . S
C1960 H1946 0.929 . S
C1960 C1959 1.399 . S
C1960 C1961 1.385 . S
C1961 H1947 0.931 . S
C1961 C1960 1.385 . S
C1961 C1962 1.389 . S
C1962 C1961 1.389 . S
C1962 C1963 1.387 . S
C1963 H1948 0.930 1_554 S
C1963 C1958 1.390 . S
C1963 C1962 1.387 . S
C693 C522 1.373 . S
C681 C177 1.326 . S
C720 C535 1.606 . S
C708 C209 1.576 . S
C735 C253 1.412 . S
C747 C548 1.385 . S
C774 C561 1.518 . S
C762 C157 1.507 . S
C801 C569 1.452 . S
C789 C343 1.460 . S
C828 C582 1.413 . S
C816 C401 1.423 . S
C843 C369 1.536 . S
C855 C595 1.533 . S
C882 C608 1.477 . S
C870 C317 1.461 . S
C897 C375 1.454 . S
C909 C626 1.425 . S
C936 C637 1.544 . S
C924 C305 1.553 . S
C951 C349 1.450 . S
C963 C621 1.451 . S
C990 C629 1.483 . S
C978 C413 1.424 . S
C1005 C241 1.453 . S
C1017 C652 1.453 . S
C1032 C151 1.427 . S
C1044 C642 1.470 . S
C1059 C189 1.448 . S
C1071 C647 1.493 . S
C1086 C215 1.514 . S
C1098 C650 1.502 . S
C1113 C113 1.411 . S
C1125 C559 1.383 . S
C1140 C471 1.359 . S
C1152 C551 1.368 . S
C1179 C520 1.518 . S
C1167 C509 1.528 . S
C1206 C525 1.461 . S
C1194 C279 1.487 . S
C1221 C145 1.491 . S
C1233 C572 1.443 . S
C1260 C611 1.540 . S
C1248 C381 1.517 . S
C1287 C564 1.466 . S
C1275 C311 1.478 . S
C1314 C590 1.410 . S
C1302 C407 1.463 . S
C1341 C600 1.372 . S
C1329 C465 1.325 . S
C1356 C497 1.611 . S
C1368 C613 1.619 . S
C1383 C285 1.352 . S
C1395 C574 1.418 . S
C1422 C587 1.513 . S
C1410 C445 1.471 . S
C1437 C119 1.466 . S
C1449 C543 1.462 . S
C1476 C556 1.400 . S
C1464 C17 1.422 . S
C1503 C517 1.533 . S
C1491 C49 1.536 . S
C1530 C530 1.493 . S
C1518 C93 1.509 . S
C1545 C55 1.419 . S
C1557 C639 1.428 . S
C1572 C81 1.548 . S
C1584 C624 1.526 1_655 S
C1599 C125 1.450 . S
C1611 C634 1.450 . S
C1626 C29 1.418 1_556 S
C1638 C616 1.480 . S
C1665 C665 1.465 . S
C1653 C273 1.433 . S
C1692 C655 1.436 . S
C1680 C439 1.461 . S
C1719 C660 1.503 . S
C1707 C477 1.448 . S
C1734 C503 1.531 . S
C1746 C663 1.529 . S
C1761 C337 1.402 . S
C1773 C585 1.420 . S
C1800 C577 1.367 . S
C1788 C183 1.368 . S
C1827 C598 1.568 . S
C1815 C221 1.569 . S
C1854 C603 1.461 . S
C1842 C247 1.486 . S
C1869 C433 1.490 . S
C1881 C546 1.449 . S
C1908 C533 1.520 . S
C1896 C61 1.543 . S
C1923 C87 1.478 . S
C1935 C538 1.464 . S
C1962 C512 1.461 . S
C1950 C23 1.403 1_565 S
