# Generated by pormake.
# Topology pto, (3,4)-cn, num edge types: 1
# Building blocks:
#     Node 0, Type 0, BuildingBlock: WUSLED_clean_sbu_0, # of connection points: 3
#     Node 1, Type 0, BuildingBlock: WUSLED_clean_sbu_0, # of connection points: 3
#     Node 2, Type 0, BuildingBlock: WUSLED_clean_sbu_0, # of connection points: 3
#     Node 3, Type 0, BuildingBlock: WUSLED_clean_sbu_0, # of connection points: 3
#     Node 4, Type 0, BuildingBlock: WUSLED_clean_sbu_0, # of connection points: 3
#     Node 5, Type 0, BuildingBlock: WUSLED_clean_sbu_0, # of connection points: 3
#     Node 6, Type 0, BuildingBlock: WUSLED_clean_sbu_0, # of connection points: 3
#     Node 7, Type 0, BuildingBlock: WUSLED_clean_sbu_0, # of connection points: 3
#     Node 8, Type 1, BuildingBlock: NAWXER_clean_linker_0, # of connection points: 4
#     Node 9, Type 1, BuildingBlock: NAWXER_clean_linker_0, # of connection points: 4
#     Node 10, Type 1, BuildingBlock: NAWXER_clean_linker_0, # of connection points: 4
#     Node 11, Type 1, BuildingBlock: NAWXER_clean_linker_0, # of connection points: 4
#     Node 12, Type 1, BuildingBlock: NAWXER_clean_linker_0, # of connection points: 4
#     Node 13, Type 1, BuildingBlock: NAWXER_clean_linker_0, # of connection points: 4
#     Edge 14, Type (0, 1), None
#     Edge 15, Type (0, 1), None
#     Edge 16, Type (0, 1), None
#     Edge 17, Type (0, 1), None
#     Edge 18, Type (0, 1), None
#     Edge 19, Type (0, 1), None
#     Edge 20, Type (0, 1), None
#     Edge 21, Type (0, 1), None
#     Edge 22, Type (0, 1), None
#     Edge 23, Type (0, 1), None
#     Edge 24, Type (0, 1), None
#     Edge 25, Type (0, 1), None
#     Edge 26, Type (0, 1), None
#     Edge 27, Type (0, 1), None
#     Edge 28, Type (0, 1), None
#     Edge 29, Type (0, 1), None
#     Edge 30, Type (0, 1), None
#     Edge 31, Type (0, 1), None
#     Edge 32, Type (0, 1), None
#     Edge 33, Type (0, 1), None
#     Edge 34, Type (0, 1), None
#     Edge 35, Type (0, 1), None
#     Edge 36, Type (0, 1), None
#     Edge 37, Type (0, 1), None
# Relax obj value: 0.000
# Max RMSD: 0.009
# Mean RMSD: 0.005
data_MOF--net-pto--node1-WUSLED_clean_sbu_0--node2-NAWXER_clean_linker_0--edge1-none
_symmetry_space_group_name_H-M    P1
_symmetry_Int_Tables_number       1
_symmetry_cell_setting            triclinic
loop_
_symmetry_equiv_pos_as_xyz
'x, y, z'
_cell_length_a     31.449588
_cell_length_b     43.997845
_cell_length_c     37.971523
_cell_angle_alpha  89.437274
_cell_angle_beta   90.876437
_cell_angle_gamma 90.544737
loop_
_atom_site_label
_atom_site_type_symbol
_atom_site_fract_x
_atom_site_fract_y
_atom_site_fract_z
_atom_type_partial_charge
C0 C 0.25334 0.21855 0.38401 0.0
C1 C 0.26927 0.19239 0.36821 0.0
C2 C 0.26221 0.16421 0.42345 0.0
C3 C 0.27355 0.16543 0.38773 0.0
C4 C 0.24689 0.19072 0.4392 0.0
C5 C 0.24244 0.2176 0.41961 0.0
U6 U 0.27989 0.26906 0.30527 0.0
O7 O 0.23898 0.29758 0.27149 0.0
O8 O 0.29105 0.31854 0.30223 0.0
C9 C 0.25729 0.32298 0.28205 0.0
C10 C 0.24815 0.24697 0.36377 0.0
C11 C 0.22878 0.3476 0.2928 0.0
C12 C 0.15929 0.36606 0.3097 0.0
C13 C 0.18628 0.34193 0.30205 0.0
C14 C 0.21727 0.40167 0.30024 0.0
C15 C 0.17431 0.39628 0.30836 0.0
C16 C 0.24409 0.37761 0.29241 0.0
C17 C 0.35913 0.24097 0.23775 0.0
C18 C 0.38973 0.27327 0.19225 0.0
C19 C 0.40034 0.21881 0.19111 0.0
C20 C 0.37645 0.21549 0.22168 0.0
C21 C 0.40743 0.24774 0.17611 0.0
C22 C 0.36564 0.26989 0.22276 0.0
C23 C 0.33468 0.23694 0.27019 0.0
O24 O 0.28184 0.26485 0.3631 0.0
O25 O 0.22912 0.2443 0.33286 0.0
O26 O 0.2933 0.23422 0.26579 0.0
O27 O 0.34564 0.25489 0.29634 0.0
H28 H 0.27808 0.19277 0.34073 0.0
H29 H 0.28499 0.14541 0.37463 0.0
H30 H 0.23856 0.19078 0.46677 0.0
H31 H 0.23045 0.23768 0.43229 0.0
H32 H 0.12637 0.36107 0.31561 0.0
H33 H 0.17364 0.31895 0.30273 0.0
H34 H 0.23021 0.42456 0.29969 0.0
H35 H 0.27678 0.3825 0.28554 0.0
H36 H 0.3942 0.29581 0.18112 0.0
H37 H 0.41391 0.19875 0.17958 0.0
H38 H 0.37174 0.193 0.23293 0.0
H39 H 0.35223 0.28983 0.23472 0.0
C40 C 0.2476 0.8278 0.6555 0.0
C41 C 0.24452 0.85612 0.67209 0.0
C42 C 0.25709 0.8824 0.6164 0.0
C43 C 0.249 0.88311 0.65269 0.0
C44 C 0.2609 0.85409 0.59996 0.0
C45 C 0.25598 0.82706 0.61931 0.0
U46 U 0.27517 0.77524 0.73296 0.0
O47 O 0.23394 0.74805 0.76768 0.0
O48 O 0.28208 0.72558 0.73601 0.0
C49 C 0.24993 0.72216 0.75749 0.0
C50 C 0.2418 0.79897 0.67535 0.0
C51 C 0.21871 0.69823 0.74858 0.0
C52 C 0.17365 0.67116 0.70652 0.0
C53 C 0.20281 0.69457 0.71412 0.0
C54 C 0.17555 0.65533 0.76782 0.0
C55 C 0.15974 0.65124 0.73332 0.0
C56 C 0.20474 0.67858 0.77532 0.0
C57 C 0.35997 0.80101 0.79981 0.0
C58 C 0.3963 0.76795 0.84198 0.0
C59 C 0.39865 0.82254 0.84959 0.0
C60 C 0.37371 0.8263 0.81912 0.0
C61 C 0.4106 0.79333 0.86129 0.0
C62 C 0.3711 0.77175 0.81157 0.0
C63 C 0.33426 0.80571 0.76752 0.0
O64 O 0.27405 0.78016 0.67508 0.0
O65 O 0.22429 0.80104 0.70646 0.0
O66 O 0.2934 0.80969 0.77224 0.0
O67 O 0.34241 0.78763 0.74114 0.0
H68 H 0.23848 0.85751 0.70003 0.0
H69 H 0.24643 0.90459 0.66617 0.0
H70 H 0.26682 0.85284 0.57199 0.0
H71 H 0.25847 0.80552 0.60593 0.0
H72 H 0.16179 0.66876 0.67975 0.0
H73 H 0.21304 0.70969 0.69314 0.0
H74 H 0.16604 0.64015 0.78896 0.0
H75 H 0.21671 0.68107 0.80206 0.0
H76 H 0.40516 0.74516 0.85 0.0
H77 H 0.40826 0.84257 0.86413 0.0
H78 H 0.36514 0.84904 0.8106 0.0
H79 H 0.36059 0.75187 0.79712 0.0
C80 C 0.70433 0.80325 0.24417 0.0
C81 C 0.70175 0.7747 0.22804 0.0
C82 C 0.65405 0.79525 0.18275 0.0
C83 C 0.67665 0.7707 0.19763 0.0
C84 C 0.6564 0.82367 0.1994 0.0
C85 C 0.68131 0.8276 0.22983 0.0
U86 U 0.79268 0.77778 0.30744 0.0
O87 O 0.84644 0.80426 0.32943 0.0
O88 O 0.79991 0.78305 0.36472 0.0
C89 C 0.83248 0.80184 0.36178 0.0
C90 C 0.73211 0.80832 0.27506 0.0
C91 C 0.82915 0.83069 0.38085 0.0
C92 C 0.78792 0.87385 0.39982 0.0
C93 C 0.79075 0.84669 0.3812 0.0
C94 C 0.86214 0.86982 0.41713 0.0
C95 C 0.82353 0.88565 0.41812 0.0
C96 C 0.86485 0.84253 0.39872 0.0
C97 C 0.84441 0.70004 0.29322 0.0
C98 C 0.88529 0.67017 0.3358 0.0
C99 C 0.89002 0.65958 0.2735 0.0
C100 C 0.86134 0.68288 0.26599 0.0
C101 C 0.90226 0.65288 0.30848 0.0
C102 C 0.85674 0.69369 0.32823 0.0
C103 C 0.81361 0.72402 0.28426 0.0
O104 O 0.72532 0.79044 0.30238 0.0
O105 O 0.77263 0.81193 0.26808 0.0
O106 O 0.82983 0.74951 0.27181 0.0
O107 O 0.78304 0.72825 0.3069 0.0
H108 H 0.7196 0.75568 0.23869 0.0
H109 H 0.67583 0.74863 0.18525 0.0
H110 H 0.63895 0.84291 0.18887 0.0
H111 H 0.68298 0.84977 0.24196 0.0
H112 H 0.7579 0.88571 0.39974 0.0
H113 H 0.76293 0.83813 0.36719 0.0
H114 H 0.89 0.8782 0.43121 0.0
H115 H 0.89479 0.83055 0.39861 0.0
H116 H 0.89443 0.66572 0.36297 0.0
H117 H 0.90206 0.64644 0.2519 0.0
H118 H 0.85212 0.68739 0.23884 0.0
H119 H 0.84423 0.7068 0.34967 0.0
C120 C 0.76397 0.18915 0.6916 0.0
C121 C 0.78002 0.19683 0.65834 0.0
C122 C 0.77556 0.14371 0.64068 0.0
C123 C 0.7857 0.1743 0.63306 0.0
C124 C 0.76016 0.13622 0.67433 0.0
C125 C 0.75435 0.15873 0.69945 0.0
U126 U 0.78695 0.26667 0.7333 0.0
O127 O 0.74271 0.29932 0.75621 0.0
O128 O 0.79311 0.27896 0.78911 0.0
C129 C 0.75899 0.29601 0.78807 0.0
C130 C 0.75691 0.21235 0.71849 0.0
C131 C 0.72818 0.2907 0.81634 0.0
C132 C 0.68983 0.25696 0.8561 0.0
C133 C 0.71801 0.26125 0.82824 0.0
C134 C 0.68088 0.31146 0.85978 0.0
C135 C 0.67118 0.28206 0.87243 0.0
C136 C 0.70915 0.3157 0.83208 0.0
C137 C 0.86888 0.3213 0.69522 0.0
C138 C 0.89799 0.36395 0.7282 0.0
C139 C 0.9074 0.36173 0.66508 0.0
C140 C 0.88494 0.33413 0.66418 0.0
C141 C 0.91434 0.37697 0.69713 0.0
C142 C 0.87531 0.33649 0.72722 0.0
C143 C 0.84533 0.29225 0.69394 0.0
O144 O 0.78873 0.21699 0.74069 0.0
O145 O 0.73891 0.23761 0.70736 0.0
O146 O 0.8044 0.29438 0.68696 0.0
O147 O 0.85409 0.27291 0.71959 0.0
H148 H 0.78786 0.22024 0.65185 0.0
H149 H 0.79734 0.18091 0.60738 0.0
H150 H 0.75288 0.11287 0.68144 0.0
H151 H 0.74228 0.15235 0.72508 0.0
H152 H 0.68344 0.23403 0.86533 0.0
H153 H 0.73226 0.24161 0.8163 0.0
H154 H 0.66653 0.33127 0.87121 0.0
H155 H 0.71639 0.33859 0.82308 0.0
H156 H 0.90318 0.37474 0.75342 0.0
H157 H 0.91886 0.37128 0.64057 0.0
H158 H 0.88 0.32283 0.63921 0.0
H159 H 0.86298 0.32702 0.7515 0.0
C160 C 0.84515 0.69616 0.75302 0.0
C161 C 0.85682 0.6912 0.718 0.0
C162 C 0.89953 0.64773 0.73664 0.0
C163 C 0.88379 0.66714 0.70987 0.0
C164 C 0.88841 0.65339 0.77173 0.0
C165 C 0.86145 0.67729 0.77977 0.0
U166 U 0.79216 0.77368 0.73745 0.0
O167 O 0.726 0.78722 0.74573 0.0
O168 O 0.77762 0.80896 0.77609 0.0
C169 C 0.73633 0.80569 0.77155 0.0
C170 C 0.81578 0.72053 0.76248 0.0
C171 C 0.71173 0.80188 0.80397 0.0
C172 C 0.68138 0.76995 0.84994 0.0
C173 C 0.70546 0.7731 0.81939 0.0
C174 C 0.67025 0.82437 0.85025 0.0
C175 C 0.66346 0.79557 0.86571 0.0
C176 C 0.69412 0.82746 0.81964 0.0
C177 C 0.81921 0.82375 0.65841 0.0
C178 C 0.79908 0.87689 0.65421 0.0
C179 C 0.82753 0.85163 0.60341 0.0
C180 C 0.83128 0.82472 0.62308 0.0
C181 C 0.81174 0.87816 0.6188 0.0
C182 C 0.80267 0.84991 0.6738 0.0
C183 C 0.82438 0.79547 0.67896 0.0
O184 O 0.83373 0.74627 0.77217 0.0
O185 O 0.7824 0.72423 0.74164 0.0
O186 O 0.79093 0.77734 0.67953 0.0
O187 O 0.84293 0.79853 0.71001 0.0
H188 H 0.84472 0.70567 0.69696 0.0
H189 H 0.89148 0.66334 0.68257 0.0
H190 H 0.90062 0.63935 0.7931 0.0
H191 H 0.85309 0.68094 0.80698 0.0
H192 H 0.67715 0.74752 0.86142 0.0
H193 H 0.7191 0.75309 0.80776 0.0
H194 H 0.6565 0.84449 0.86149 0.0
H195 H 0.69864 0.84985 0.80807 0.0
H196 H 0.78724 0.89691 0.66706 0.0
H197 H 0.83687 0.85159 0.57608 0.0
H198 H 0.84381 0.80467 0.61072 0.0
H199 H 0.79301 0.84955 0.70107 0.0
C200 C 0.70876 0.24102 0.24537 0.0
C201 C 0.69827 0.27034 0.23338 0.0
C202 C 0.65875 0.24895 0.18353 0.0
C203 C 0.67336 0.27426 0.20282 0.0
C204 C 0.66985 0.21966 0.19558 0.0
C205 C 0.69449 0.21578 0.22621 0.0
U206 U 0.79543 0.26675 0.31035 0.0
O207 O 0.79912 0.26286 0.3681 0.0
O208 O 0.84677 0.24049 0.33591 0.0
C209 C 0.8313 0.244 0.36754 0.0
C210 C 0.735 0.23626 0.27739 0.0
C211 C 0.82666 0.21587 0.38857 0.0
C212 C 0.78469 0.17254 0.40879 0.0
C213 C 0.78813 0.19947 0.38902 0.0
C214 C 0.85832 0.17795 0.42756 0.0
C215 C 0.81984 0.16139 0.42815 0.0
C216 C 0.86163 0.20495 0.40801 0.0
C217 C 0.85185 0.3434 0.29278 0.0
C218 C 0.89642 0.37153 0.33426 0.0
C219 C 0.89538 0.38574 0.27245 0.0
C220 C 0.86625 0.36231 0.2655 0.0
C221 C 0.91068 0.39076 0.30693 0.0
C222 C 0.86734 0.34795 0.32722 0.0
C223 C 0.82033 0.31947 0.28454 0.0
O224 O 0.77566 0.23192 0.27203 0.0
O225 O 0.72782 0.25459 0.30375 0.0
O226 O 0.78864 0.31636 0.30652 0.0
O227 O 0.83589 0.29341 0.27443 0.0
H228 H 0.70923 0.29019 0.24768 0.0
H229 H 0.66514 0.29712 0.19458 0.0
H230 H 0.65997 0.19965 0.18111 0.0
H231 H 0.70259 0.19299 0.23488 0.0
H232 H 0.75478 0.16014 0.40837 0.0
H233 H 0.76083 0.20738 0.37392 0.0
H234 H 0.88583 0.17014 0.44246 0.0
H235 H 0.89162 0.21727 0.40795 0.0
H236 H 0.90789 0.37464 0.36103 0.0
H237 H 0.90517 0.40037 0.25088 0.0
H238 H 0.85459 0.35916 0.23877 0.0
H239 H 0.85678 0.33342 0.34863 0.0
C240 C 0.24989 0.21435 0.65875 0.0
C241 C 0.28891 0.19913 0.65792 0.0
C242 C 0.25653 0.15877 0.62278 0.0
C243 C 0.29224 0.17167 0.63992 0.0
C244 C 0.21739 0.17389 0.62416 0.0
C245 C 0.21417 0.20147 0.64192 0.0
U246 U 0.28391 0.26841 0.73197 0.0
O247 O 0.29176 0.31811 0.73213 0.0
O248 O 0.24525 0.29622 0.76696 0.0
C249 C 0.26071 0.32191 0.75444 0.0
C250 C 0.24578 0.24336 0.67742 0.0
C251 C 0.22912 0.34528 0.74506 0.0
C252 C 0.18769 0.37428 0.702 0.0
C253 C 0.21709 0.35137 0.70992 0.0
C254 C 0.18154 0.38479 0.76421 0.0
C255 C 0.16956 0.39123 0.7291 0.0
C256 C 0.21105 0.3621 0.77206 0.0
C257 C 0.37189 0.24368 0.79656 0.0
C258 C 0.3991 0.27588 0.84364 0.0
C259 C 0.41862 0.22277 0.84192 0.0
C260 C 0.3943 0.21914 0.81113 0.0
C261 C 0.421 0.2511 0.85875 0.0
C262 C 0.37456 0.27216 0.81284 0.0
C263 C 0.34465 0.23874 0.7653 0.0
O264 O 0.23121 0.24111 0.70959 0.0
O265 O 0.278 0.26248 0.67466 0.0
O266 O 0.35157 0.25684 0.73819 0.0
O267 O 0.30407 0.23467 0.77176 0.0
H268 H 0.3168 0.20849 0.67113 0.0
H269 H 0.3227 0.1604 0.63967 0.0
H270 H 0.18942 0.1647 0.61093 0.0
H271 H 0.18376 0.21282 0.64241 0.0
H272 H 0.17882 0.37854 0.67473 0.0
H273 H 0.23048 0.33852 0.68864 0.0
H274 H 0.16865 0.39769 0.78566 0.0
H275 H 0.22 0.3578 0.79931 0.0
H276 H 0.39999 0.2979 0.85614 0.0
H277 H 0.43555 0.20336 0.8526 0.0
H278 H 0.39259 0.197 0.79889 0.0
H279 H 0.35719 0.29134 0.80203 0.0
C280 C 0.20178 0.72101 0.34551 0.0
C281 C 0.19579 0.70617 0.31325 0.0
C282 C 0.15589 0.66556 0.34232 0.0
C283 C 0.17289 0.67881 0.31164 0.0
C284 C 0.16242 0.68045 0.37466 0.0
C285 C 0.18509 0.70795 0.37619 0.0
U286 U 0.28489 0.77556 0.30914 0.0
O287 O 0.28361 0.82527 0.302 0.0
O288 O 0.3326 0.80433 0.33592 0.0
C289 C 0.3151 0.8297 0.32457 0.0
C290 C 0.2255 0.74997 0.34745 0.0
C291 C 0.30804 0.85306 0.35128 0.0
C292 C 0.287 0.86832 0.40987 0.0
C293 C 0.29227 0.84562 0.38471 0.0
C294 C 0.31228 0.90609 0.36811 0.0
C295 C 0.2973 0.89883 0.40194 0.0
C296 C 0.31766 0.88342 0.34312 0.0
C297 C 0.34511 0.75188 0.22673 0.0
C298 C 0.3834 0.78574 0.18705 0.0
C299 C 0.39361 0.73133 0.18406 0.0
C300 C 0.36498 0.72699 0.21149 0.0
C301 C 0.40282 0.76073 0.17116 0.0
C302 C 0.35487 0.78136 0.21465 0.0
C303 C 0.31376 0.74644 0.25455 0.0
O304 O 0.26628 0.74765 0.355 0.0
O305 O 0.21742 0.76954 0.32188 0.0
O306 O 0.27969 0.76353 0.25321 0.0
O307 O 0.32941 0.74291 0.28659 0.0
H308 H 0.20861 0.71581 0.28925 0.0
H309 H 0.16805 0.66829 0.28622 0.0
H310 H 0.15045 0.67072 0.3989 0.0
H311 H 0.18968 0.71898 0.40136 0.0
H312 H 0.27565 0.8619 0.4357 0.0
H313 H 0.28444 0.82227 0.39145 0.0
H314 H 0.31966 0.92937 0.36078 0.0
H315 H 0.32953 0.88962 0.31736 0.0
H316 H 0.3894 0.80866 0.17762 0.0
H317 H 0.40854 0.7116 0.17297 0.0
H318 H 0.35807 0.70409 0.22064 0.0
H319 H 0.33999 0.80093 0.22619 0.0
C320 C 0.97354 0.42359 0.29098 0.0
C321 C 0.94035 0.41658 0.31423 0.0
C322 C 0.99944 0.44918 0.29635 0.0
C323 C 0.99301 0.46814 0.32529 0.0
C324 C 0.93434 0.43539 0.34343 0.0
C325 C 0.96022 0.46103 0.34874 0.0
C326 C 1.01757 0.49682 0.32947 0.0
C327 C 0.11353 0.42089 0.33985 0.0
C328 C 0.14514 0.42223 0.31397 0.0
C329 C 0.08633 0.4455 0.34474 0.0
C330 C 0.09007 0.47179 0.32366 0.0
C331 C 0.14869 0.44868 0.29308 0.0
C332 C 0.12171 0.47319 0.29805 0.0
C333 C 0.06246 0.49851 0.32838 0.0
C334 C 0.09548 0.63149 0.36154 0.0
C335 C 0.13141 0.63641 0.3405 0.0
C336 C 0.07227 0.60428 0.35943 0.0
C337 C 0.08394 0.58158 0.33574 0.0
C338 C 0.14369 0.61326 0.31756 0.0
C339 C 0.12027 0.58618 0.31526 0.0
C340 C 0.05951 0.55261 0.33287 0.0
C341 C 0.96832 0.62395 0.29514 0.0
C342 C 0.93236 0.62773 0.31613 0.0
C343 C 0.99543 0.59939 0.30086 0.0
C344 C 0.98744 0.57819 0.32792 0.0
C345 C 0.92453 0.60662 0.3434 0.0
C346 C 0.95163 0.58191 0.34901 0.0
C347 C 1.01457 0.55101 0.33226 0.0
H348 H 0.97917 0.40949 0.26834 0.0
H349 H 1.02374 0.45458 0.27732 0.0
H350 H 0.90871 0.43089 0.36154 0.0
H351 H 0.95427 0.47559 0.37095 0.0
H352 H 0.11026 0.40104 0.35672 0.0
H353 H 0.06279 0.44413 0.36523 0.0
H354 H 0.17204 0.45036 0.27247 0.0
H355 H 0.12523 0.49322 0.28146 0.0
H356 H 0.08489 0.6488 0.37939 0.0
H357 H 0.04525 0.60101 0.37643 0.0
H358 H 0.17168 0.61592 0.30152 0.0
H359 H 0.13038 0.5689 0.29715 0.0
H360 H 0.97537 0.6399 0.27407 0.0
H361 H 1.02218 0.59663 0.28359 0.0
H362 H 0.89678 0.60872 0.35971 0.0
H363 H 0.94452 0.56559 0.3697 0.0
N364 N 0.99543 0.52317 0.33122 0.0
N365 N 0.08155 0.52631 0.33038 0.0
C366 C 0.97412 0.41114 0.67682 0.0
C367 C 0.93856 0.40625 0.69829 0.0
C368 C 0.99718 0.43845 0.67843 0.0
C369 C 0.98572 0.46128 0.70203 0.0
C370 C 0.92642 0.42955 0.72108 0.0
C371 C 0.94969 0.45672 0.72287 0.0
C372 C 1.01016 0.49026 0.7046 0.0
C373 C 0.10239 0.41913 0.74188 0.0
C374 C 0.13865 0.41583 0.7211 0.0
C375 C 0.07474 0.44338 0.73608 0.0
C376 C 0.08242 0.46473 0.70911 0.0
C377 C 0.14608 0.43702 0.69384 0.0
C378 C 0.11841 0.4614 0.68812 0.0
C379 C 0.0551 0.49186 0.70502 0.0
C380 C 0.09701 0.61815 0.74886 0.0
C381 C 0.12982 0.6257 0.72546 0.0
C382 C 0.07093 0.59274 0.74293 0.0
C383 C 0.07678 0.57455 0.71325 0.0
C384 C 0.13524 0.60765 0.69552 0.0
C385 C 0.10917 0.5822 0.68965 0.0
C386 C 0.05207 0.54604 0.70843 0.0
C387 C 0.95859 0.62333 0.7028 0.0
C388 C 0.92663 0.62122 0.72831 0.0
C389 C 0.98466 0.59842 0.69612 0.0
C390 C 0.97954 0.57105 0.71509 0.0
C391 C 0.92078 0.59344 0.7463 0.0
C392 C 0.94684 0.56871 0.73973 0.0
C393 C 1.00715 0.54437 0.70956 0.0
H394 H 0.98456 0.39372 0.65906 0.0
H395 H 1.02398 0.44166 0.66117 0.0
H396 H 0.89869 0.42693 0.73743 0.0
H397 H 0.93974 0.4741 0.74094 0.0
H398 H 0.09562 0.40312 0.76295 0.0
H399 H 0.04788 0.44584 0.75331 0.0
H400 H 0.17401 0.43532 0.67767 0.0
H401 H 0.12532 0.47785 0.66752 0.0
H402 H 0.09181 0.63167 0.77205 0.0
H403 H 0.0469 0.5869 0.76204 0.0
H404 H 0.16057 0.61257 0.67726 0.0
H405 H 0.11466 0.56821 0.66687 0.0
H406 H 0.96395 0.64436 0.68843 0.0
H407 H 1.00882 0.60061 0.67622 0.0
H408 H 0.89587 0.5907 0.76548 0.0
H409 H 0.94178 0.54777 0.75441 0.0
N410 N 0.98812 0.51655 0.70736 0.0
N411 N 0.07419 0.5197 0.70629 0.0
C412 C 0.23397 0.12713 0.4683 0.0
C413 C 0.26558 0.13534 0.44408 0.0
C414 C 0.23678 0.10001 0.48755 0.0
C415 C 0.27142 0.08055 0.48326 0.0
C416 C 0.29998 0.11558 0.4395 0.0
C417 C 0.30269 0.08836 0.45874 0.0
C418 C 0.27392 0.05146 0.50316 0.0
C419 C 0.29477 0.12577 0.58029 0.0
C420 C 0.26028 0.13006 0.60277 0.0
C421 C 0.29755 0.09939 0.56032 0.0
C422 C 0.26586 0.07673 0.56234 0.0
C423 C 0.22913 0.107 0.60541 0.0
C424 C 0.23212 0.08045 0.5856 0.0
C425 C 0.26782 0.04944 0.53985 0.0
C426 C 0.29377 0.91555 0.57161 0.0
C427 C 0.26077 0.91116 0.59575 0.0
C428 C 0.29728 0.94283 0.55252 0.0
C429 C 0.26719 0.96594 0.55653 0.0
C430 C 0.2313 0.93456 0.60029 0.0
C431 C 0.23451 0.96163 0.58092 0.0
C432 C 0.27019 0.99523 0.53688 0.0
C433 C 0.25793 0.9236 0.45135 0.0
C434 C 0.29297 0.92311 0.42871 0.0
C435 C 0.25324 0.94735 0.47527 0.0
C436 C 0.2837 0.97086 0.4772 0.0
C437 C 0.32358 0.94655 0.43115 0.0
C438 C 0.3188 0.97024 0.4549 0.0
C439 C 0.27809 0.9974 0.50029 0.0
H440 H 0.20652 0.14137 0.47191 0.0
H441 H 0.21149 0.09403 0.50546 0.0
H442 H 0.32507 0.12128 0.4213 0.0
H443 H 0.32949 0.07355 0.45477 0.0
H444 H 0.31917 0.14314 0.57753 0.0
H445 H 0.32432 0.09678 0.54303 0.0
H446 H 0.20248 0.10948 0.62285 0.0
H447 H 0.20753 0.06315 0.58778 0.0
H448 H 0.31739 0.89813 0.56803 0.0
H449 H 0.32382 0.94592 0.53498 0.0
H450 H 0.20538 0.93178 0.61854 0.0
H451 H 0.21113 0.97916 0.5848 0.0
H452 H 0.23348 0.90615 0.44987 0.0
H453 H 0.22535 0.94771 0.49165 0.0
H454 H 0.35134 0.94667 0.41462 0.0
H455 H 0.34261 0.98819 0.45584 0.0
N456 N 0.27949 0.02544 0.48493 0.0
N457 N 0.26551 0.02143 0.55523 0.0
C458 C 0.47122 0.81032 0.90055 0.0
C459 C 0.43801 0.78953 0.89337 0.0
C460 C 0.49622 0.80741 0.93108 0.0
C461 C 0.48932 0.78324 0.95484 0.0
C462 C 0.43085 0.76551 0.91739 0.0
C463 C 0.45614 0.76249 0.94786 0.0
C464 C 0.51453 0.78086 0.98812 0.0
C465 C 0.60724 0.76872 0.90104 0.0
C466 C 0.63741 0.79235 0.89793 0.0
C467 C 0.58191 0.76625 0.93091 0.0
C468 C 0.58606 0.78747 0.95821 0.0
C469 C 0.64213 0.81315 0.92566 0.0
C470 C 0.61693 0.81059 0.95559 0.0
C471 C 0.55912 0.78526 0.98986 0.0
C472 C 0.60322 0.76585 0.14371 0.0
C473 C 0.62914 0.79164 0.14943 0.0
C474 C 0.57964 0.76285 0.11232 0.0
C475 C 0.58146 0.78565 0.0862 0.0
C476 C 0.63138 0.81409 0.12291 0.0
C477 C 0.608 0.81103 0.09157 0.0
C478 C 0.55697 0.78315 0.05271 0.0
C479 C 0.46042 0.78977 0.13929 0.0
C480 C 0.43164 0.7651 0.14068 0.0
C481 C 0.48696 0.79388 0.11033 0.0
C482 C 0.48574 0.77314 0.08239 0.0
C483 C 0.43005 0.74473 0.11233 0.0
C484 C 0.45668 0.74878 0.08352 0.0
C485 C 0.51266 0.77736 0.05095 0.0
H486 H 0.47798 0.82893 0.88258 0.0
H487 H 0.52055 0.82442 0.93632 0.0
H488 H 0.40513 0.74938 0.91305 0.0
H489 H 0.44968 0.74397 0.96607 0.0
H490 H 0.60269 0.7524 0.88011 0.0
H491 H 0.55905 0.74775 0.93266 0.0
H492 H 0.66554 0.83132 0.92433 0.0
H493 H 0.62109 0.82699 0.9765 0.0
H494 H 0.60079 0.74818 0.16364 0.0
H495 H 0.56009 0.74273 0.10845 0.0
H496 H 0.65164 0.83394 0.12619 0.0
H497 H 0.61031 0.82871 0.07162 0.0
H498 H 0.46262 0.80585 0.16066 0.0
H499 H 0.50811 0.81343 0.10965 0.0
H500 H 0.40767 0.72587 0.11206 0.0
H501 H 0.45462 0.73276 0.06204 0.0
N502 N 0.49324 0.77656 1.0187 0.0
N503 N 0.57841 0.78675 0.0221 0.0
C504 C 0.78092 0.12574 0.46905 0.0
C505 C 0.81671 0.13237 0.44845 0.0
C506 C 0.77823 0.09842 0.48814 0.0
C507 C 0.81131 0.07722 0.48704 0.0
C508 C 0.84954 0.11094 0.44718 0.0
C509 C 0.84669 0.08357 0.46606 0.0
C510 C 0.80867 0.04783 0.50636 0.0
C511 C 0.81623 0.11957 0.59161 0.0
C512 C 0.78082 0.11957 0.61387 0.0
C513 C 0.82194 0.09595 0.56772 0.0
C514 C 0.79218 0.072 0.56546 0.0
C515 C 0.75085 0.09573 0.61105 0.0
C516 C 0.75667 0.07214 0.58734 0.0
C517 C 0.79915 0.04547 0.5426 0.0
C518 C 0.84196 0.91528 0.57485 0.0
C519 C 0.80938 0.90712 0.59821 0.0
C520 C 0.84017 0.94254 0.55575 0.0
C521 C 0.80564 0.96223 0.55936 0.0
C522 C 0.77507 0.92709 0.60209 0.0
C523 C 0.77339 0.95445 0.58302 0.0
C524 C 0.80415 0.99146 0.53962 0.0
C525 C 0.78502 0.9182 0.46082 0.0
C526 C 0.82008 0.91392 0.43897 0.0
C527 C 0.78219 0.94425 0.48132 0.0
C528 C 0.8144 0.96658 0.4805 0.0
C529 C 0.85193 0.93658 0.43764 0.0
C530 C 0.84888 0.96283 0.45799 0.0
C531 C 0.81189 0.99371 0.50315 0.0
H532 H 0.75516 0.14181 0.47066 0.0
H533 H 0.75011 0.09375 0.50347 0.0
H534 H 0.87721 0.11513 0.43115 0.0
H535 H 0.87235 0.06741 0.46447 0.0
H536 H 0.84025 0.13731 0.59341 0.0
H537 H 0.85019 0.09597 0.55176 0.0
H538 H 0.72283 0.09522 0.62727 0.0
H539 H 0.73338 0.05385 0.58615 0.0
H540 H 0.86937 0.90088 0.5718 0.0
H541 H 0.86618 0.94845 0.53854 0.0
H542 H 0.74925 0.92145 0.61961 0.0
H543 H 0.74662 0.9694 0.58644 0.0
H544 H 0.7601 0.90111 0.46259 0.0
H545 H 0.75486 0.94691 0.498 0.0
H546 H 0.87906 0.93407 0.42072 0.0
H547 H 0.87388 0.9799 0.45672 0.0
N548 N 0.81453 0.0218 0.48799 0.0
N549 N 0.79745 0.01737 0.5578 0.0
C550 C 0.47166 0.27973 0.89875 0.0
C551 C 0.4452 0.25432 0.89249 0.0
C552 C 0.49481 0.28221 0.93042 0.0
C553 C 0.49198 0.25926 0.95632 0.0
C554 C 0.44187 0.23176 0.91881 0.0
C555 C 0.46479 0.23432 0.95044 0.0
C556 C 0.51611 0.26114 0.99006 0.0
C557 C 0.61304 0.25347 0.90413 0.0
C558 C 0.64244 0.27778 0.90298 0.0
C559 C 0.58633 0.24955 0.93301 0.0
C560 C 0.58797 0.27013 0.9611 0.0
C561 C 0.64455 0.29792 0.93154 0.0
C562 C 0.61773 0.29407 0.96026 0.0
C563 C 0.56056 0.26621 0.99229 0.0
C564 C 0.59878 0.2324 0.14323 0.0
C565 C 0.63213 0.25293 0.15098 0.0
C566 C 0.57456 0.23549 0.11228 0.0
C567 C 0.58237 0.25961 0.08864 0.0
C568 C 0.64026 0.27685 0.12704 0.0
C569 C 0.61575 0.28007 0.09615 0.0
C570 C 0.55774 0.26236 0.05507 0.0
C571 C 0.46412 0.2747 0.14143 0.0
C572 C 0.43365 0.25121 0.14403 0.0
C573 C 0.48977 0.27729 0.11177 0.0
C574 C 0.48565 0.25633 0.0842 0.0
C575 C 0.42891 0.23072 0.116 0.0
C576 C 0.45445 0.23341 0.08629 0.0
C577 C 0.51308 0.25855 0.05285 0.0
H578 H 0.4749 0.29748 0.87898 0.0
H579 H 0.51487 0.30202 0.93469 0.0
H580 H 0.42117 0.2122 0.91511 0.0
H581 H 0.46169 0.21654 0.9702 0.0
H582 H 0.61042 0.23756 0.88261 0.0
H583 H 0.56463 0.2303 0.93346 0.0
H584 H 0.6674 0.31648 0.93198 0.0
H585 H 0.62013 0.30994 0.98187 0.0
H586 H 0.59128 0.21385 0.1611 0.0
H587 H 0.55007 0.2187 0.10667 0.0
H588 H 0.66614 0.29277 0.13176 0.0
H589 H 0.62291 0.29854 0.07808 0.0
H590 H 0.46869 0.29077 0.16261 0.0
H591 H 0.5129 0.29564 0.11042 0.0
H592 H 0.40527 0.21268 0.11695 0.0
H593 H 0.45032 0.21722 0.06515 0.0
N594 N 0.49417 0.25759 0.02044 0.0
N595 N 0.57957 0.26655 0.02473 0.0
loop_
_geom_bond_atom_site_label_1
_geom_bond_atom_site_label_2
_geom_bond_distance
_geom_bond_site_symmetry_2
_ccdc_geom_bond_type
C0 C1 1.264 . S
C0 C5 1.479 . S
C0 C10 1.465 . S
C1 C0 1.264 . S
C1 C3 1.339 . S
C1 H28 0.931 . S
C2 C3 1.395 . S
C2 C4 1.320 . S
C3 C1 1.339 . S
C3 C2 1.395 . S
C3 H29 0.929 . S
C4 C2 1.320 . S
C4 C5 1.405 . S
C4 H30 0.930 . S
C5 C0 1.479 . S
C5 C4 1.405 . S
C5 H31 0.931 . S
U6 O7 2.454 . S
U6 O8 2.458 . S
U6 C9 2.984 . S
U6 C10 2.847 . S
U6 C23 2.882 . S
U6 O24 2.441 . S
U6 O25 2.420 . S
U6 O26 2.455 . S
U6 O27 2.449 . S
O7 U6 2.454 . S
O7 C9 1.353 . S
O8 U6 2.458 . S
O8 C9 1.286 . S
C9 U6 2.984 . S
C9 O7 1.353 . S
C9 O8 1.286 . S
C9 C11 1.363 . S
C10 C0 1.465 . S
C10 U6 2.847 . S
C10 O24 1.249 . S
C10 O25 1.202 . S
C11 C9 1.363 . S
C11 C13 1.408 . S
C11 C16 1.342 . S
C12 C13 1.310 . S
C12 C15 1.461 . S
C12 H32 0.932 . S
C13 C11 1.408 . S
C13 C12 1.310 . S
C13 H33 0.930 . S
C14 C15 1.474 . S
C14 C16 1.285 . S
C14 H34 0.929 . S
C15 C12 1.461 . S
C15 C14 1.474 . S
C16 C11 1.342 . S
C16 C14 1.285 . S
C16 H35 0.930 . S
C17 C20 1.424 . S
C17 C22 1.245 . S
C17 C23 1.428 . S
C18 C21 1.260 . S
C18 C22 1.477 . S
C18 H36 0.932 . S
C19 C20 1.384 . S
C19 C21 1.479 . S
C19 H37 0.929 . S
C20 C17 1.424 . S
C20 C19 1.384 . S
C20 H38 0.928 . S
C21 C18 1.260 . S
C21 C19 1.479 . S
C22 C17 1.245 . S
C22 C18 1.477 . S
C22 H39 0.932 . S
C23 U6 2.882 . S
C23 C17 1.428 . S
C23 O26 1.301 . S
C23 O27 1.282 . S
O24 U6 2.441 . S
O24 C10 1.249 . S
O25 U6 2.420 . S
O25 C10 1.202 . S
O26 U6 2.455 . S
O26 C23 1.301 . S
O27 U6 2.449 . S
O27 C23 1.282 . S
H28 C1 0.931 . S
H29 C3 0.929 . S
H30 C4 0.930 . S
H31 C5 0.931 . S
H32 C12 0.932 . S
H33 C13 0.930 . S
H34 C14 0.929 . S
H35 C16 0.930 . S
H36 C18 0.932 . S
H37 C19 0.929 . S
H38 C20 0.928 . S
H39 C22 0.932 . S
C40 C41 1.264 . S
C40 C45 1.479 . S
C40 C50 1.465 . S
C41 C40 1.264 . S
C41 C43 1.339 . S
C41 H68 0.931 . S
C42 C43 1.395 . S
C42 C44 1.320 . S
C43 C41 1.339 . S
C43 C42 1.395 . S
C43 H69 0.929 . S
C44 C42 1.320 . S
C44 C45 1.405 . S
C44 H70 0.930 . S
C45 C40 1.479 . S
C45 C44 1.405 . S
C45 H71 0.931 . S
U46 O47 2.454 . S
U46 O48 2.458 . S
U46 C49 2.984 . S
U46 C50 2.847 . S
U46 C63 2.882 . S
U46 O64 2.441 . S
U46 O65 2.420 . S
U46 O66 2.455 . S
U46 O67 2.449 . S
O47 U46 2.454 . S
O47 C49 1.353 . S
O48 U46 2.458 . S
O48 C49 1.286 . S
C49 U46 2.984 . S
C49 O47 1.353 . S
C49 O48 1.286 . S
C49 C51 1.363 . S
C50 C40 1.465 . S
C50 U46 2.847 . S
C50 O64 1.249 . S
C50 O65 1.202 . S
C51 C49 1.363 . S
C51 C53 1.408 . S
C51 C56 1.342 . S
C52 C53 1.310 . S
C52 C55 1.461 . S
C52 H72 0.932 . S
C53 C51 1.408 . S
C53 C52 1.310 . S
C53 H73 0.930 . S
C54 C55 1.474 . S
C54 C56 1.285 . S
C54 H74 0.929 . S
C55 C52 1.461 . S
C55 C54 1.474 . S
C56 C51 1.342 . S
C56 C54 1.285 . S
C56 H75 0.930 . S
C57 C60 1.424 . S
C57 C62 1.245 . S
C57 C63 1.428 . S
C58 C61 1.260 . S
C58 C62 1.477 . S
C58 H76 0.932 . S
C59 C60 1.384 . S
C59 C61 1.479 . S
C59 H77 0.929 . S
C60 C57 1.424 . S
C60 C59 1.384 . S
C60 H78 0.928 . S
C61 C58 1.260 . S
C61 C59 1.479 . S
C62 C57 1.245 . S
C62 C58 1.477 . S
C62 H79 0.932 . S
C63 U46 2.882 . S
C63 C57 1.428 . S
C63 O66 1.301 . S
C63 O67 1.282 . S
O64 U46 2.441 . S
O64 C50 1.249 . S
O65 U46 2.420 . S
O65 C50 1.202 . S
O66 U46 2.455 . S
O66 C63 1.301 . S
O67 U46 2.449 . S
O67 C63 1.282 . S
H68 C41 0.931 . S
H69 C43 0.929 . S
H70 C44 0.930 . S
H71 C45 0.931 . S
H72 C52 0.932 . S
H73 C53 0.930 . S
H74 C54 0.929 . S
H75 C56 0.930 . S
H76 C58 0.932 . S
H77 C59 0.929 . S
H78 C60 0.928 . S
H79 C62 0.932 . S
C80 C81 1.264 . S
C80 C85 1.479 . S
C80 C90 1.465 . S
C81 C80 1.264 . S
C81 C83 1.339 . S
C81 H108 0.931 . S
C82 C83 1.395 . S
C82 C84 1.320 . S
C83 C81 1.339 . S
C83 C82 1.395 . S
C83 H109 0.929 . S
C84 C82 1.320 . S
C84 C85 1.405 . S
C84 H110 0.930 . S
C85 C80 1.479 . S
C85 C84 1.405 . S
C85 H111 0.931 . S
U86 O87 2.454 . S
U86 O88 2.458 . S
U86 C89 2.984 . S
U86 C90 2.847 . S
U86 C103 2.882 . S
U86 O104 2.441 . S
U86 O105 2.420 . S
U86 O106 2.455 . S
U86 O107 2.449 . S
O87 U86 2.454 . S
O87 C89 1.353 . S
O88 U86 2.458 . S
O88 C89 1.286 . S
C89 U86 2.984 . S
C89 O87 1.353 . S
C89 O88 1.286 . S
C89 C91 1.363 . S
C90 C80 1.465 . S
C90 U86 2.847 . S
C90 O104 1.249 . S
C90 O105 1.202 . S
C91 C89 1.363 . S
C91 C93 1.408 . S
C91 C96 1.342 . S
C92 C93 1.310 . S
C92 C95 1.461 . S
C92 H112 0.932 . S
C93 C91 1.408 . S
C93 C92 1.310 . S
C93 H113 0.930 . S
C94 C95 1.474 . S
C94 C96 1.285 . S
C94 H114 0.929 . S
C95 C92 1.461 . S
C95 C94 1.474 . S
C96 C91 1.342 . S
C96 C94 1.285 . S
C96 H115 0.930 . S
C97 C100 1.424 . S
C97 C102 1.245 . S
C97 C103 1.428 . S
C98 C101 1.260 . S
C98 C102 1.477 . S
C98 H116 0.932 . S
C99 C100 1.384 . S
C99 C101 1.479 . S
C99 H117 0.929 . S
C100 C97 1.424 . S
C100 C99 1.384 . S
C100 H118 0.928 . S
C101 C98 1.260 . S
C101 C99 1.479 . S
C102 C97 1.245 . S
C102 C98 1.477 . S
C102 H119 0.932 . S
C103 U86 2.882 . S
C103 C97 1.428 . S
C103 O106 1.301 . S
C103 O107 1.282 . S
O104 U86 2.441 . S
O104 C90 1.249 . S
O105 U86 2.420 . S
O105 C90 1.202 . S
O106 U86 2.455 . S
O106 C103 1.301 . S
O107 U86 2.449 . S
O107 C103 1.282 . S
H108 C81 0.931 . S
H109 C83 0.929 . S
H110 C84 0.930 . S
H111 C85 0.931 . S
H112 C92 0.932 . S
H113 C93 0.930 . S
H114 C94 0.929 . S
H115 C96 0.930 . S
H116 C98 0.932 . S
H117 C99 0.929 . S
H118 C100 0.928 . S
H119 C102 0.932 . S
C120 C121 1.264 . S
C120 C125 1.479 . S
C120 C130 1.465 . S
C121 C120 1.264 . S
C121 C123 1.339 . S
C121 H148 0.931 . S
C122 C123 1.395 . S
C122 C124 1.320 . S
C123 C121 1.339 . S
C123 C122 1.395 . S
C123 H149 0.929 . S
C124 C122 1.320 . S
C124 C125 1.405 . S
C124 H150 0.930 . S
C125 C120 1.479 . S
C125 C124 1.405 . S
C125 H151 0.931 . S
U126 O127 2.454 . S
U126 O128 2.458 . S
U126 C129 2.984 . S
U126 C130 2.847 . S
U126 C143 2.882 . S
U126 O144 2.441 . S
U126 O145 2.420 . S
U126 O146 2.455 . S
U126 O147 2.449 . S
O127 U126 2.454 . S
O127 C129 1.353 . S
O128 U126 2.458 . S
O128 C129 1.286 . S
C129 U126 2.984 . S
C129 O127 1.353 . S
C129 O128 1.286 . S
C129 C131 1.363 . S
C130 C120 1.465 . S
C130 U126 2.847 . S
C130 O144 1.249 . S
C130 O145 1.202 . S
C131 C129 1.363 . S
C131 C133 1.408 . S
C131 C136 1.342 . S
C132 C133 1.310 . S
C132 C135 1.461 . S
C132 H152 0.932 . S
C133 C131 1.408 . S
C133 C132 1.310 . S
C133 H153 0.930 . S
C134 C135 1.474 . S
C134 C136 1.285 . S
C134 H154 0.929 . S
C135 C132 1.461 . S
C135 C134 1.474 . S
C136 C131 1.342 . S
C136 C134 1.285 . S
C136 H155 0.930 . S
C137 C140 1.424 . S
C137 C142 1.245 . S
C137 C143 1.428 . S
C138 C141 1.260 . S
C138 C142 1.477 . S
C138 H156 0.932 . S
C139 C140 1.384 . S
C139 C141 1.479 . S
C139 H157 0.929 . S
C140 C137 1.424 . S
C140 C139 1.384 . S
C140 H158 0.928 . S
C141 C138 1.260 . S
C141 C139 1.479 . S
C142 C137 1.245 . S
C142 C138 1.477 . S
C142 H159 0.932 . S
C143 U126 2.882 . S
C143 C137 1.428 . S
C143 O146 1.301 . S
C143 O147 1.282 . S
O144 U126 2.441 . S
O144 C130 1.249 . S
O145 U126 2.420 . S
O145 C130 1.202 . S
O146 U126 2.455 . S
O146 C143 1.301 . S
O147 U126 2.449 . S
O147 C143 1.282 . S
H148 C121 0.931 . S
H149 C123 0.929 . S
H150 C124 0.930 . S
H151 C125 0.931 . S
H152 C132 0.932 . S
H153 C133 0.930 . S
H154 C134 0.929 . S
H155 C136 0.930 . S
H156 C138 0.932 . S
H157 C139 0.929 . S
H158 C140 0.928 . S
H159 C142 0.932 . S
C160 C161 1.264 . S
C160 C165 1.479 . S
C160 C170 1.465 . S
C161 C160 1.264 . S
C161 C163 1.339 . S
C161 H188 0.931 . S
C162 C163 1.395 . S
C162 C164 1.320 . S
C163 C161 1.339 . S
C163 C162 1.395 . S
C163 H189 0.929 . S
C164 C162 1.320 . S
C164 C165 1.405 . S
C164 H190 0.930 . S
C165 C160 1.479 . S
C165 C164 1.405 . S
C165 H191 0.931 . S
U166 O167 2.454 . S
U166 O168 2.458 . S
U166 C169 2.984 . S
U166 C170 2.847 . S
U166 C183 2.882 . S
U166 O184 2.441 . S
U166 O185 2.420 . S
U166 O186 2.455 . S
U166 O187 2.449 . S
O167 U166 2.454 . S
O167 C169 1.353 . S
O168 U166 2.458 . S
O168 C169 1.286 . S
C169 U166 2.984 . S
C169 O167 1.353 . S
C169 O168 1.286 . S
C169 C171 1.363 . S
C170 C160 1.465 . S
C170 U166 2.847 . S
C170 O184 1.249 . S
C170 O185 1.202 . S
C171 C169 1.363 . S
C171 C173 1.408 . S
C171 C176 1.342 . S
C172 C173 1.310 . S
C172 C175 1.461 . S
C172 H192 0.932 . S
C173 C171 1.408 . S
C173 C172 1.310 . S
C173 H193 0.930 . S
C174 C175 1.474 . S
C174 C176 1.285 . S
C174 H194 0.929 . S
C175 C172 1.461 . S
C175 C174 1.474 . S
C176 C171 1.342 . S
C176 C174 1.285 . S
C176 H195 0.930 . S
C177 C180 1.424 . S
C177 C182 1.245 . S
C177 C183 1.428 . S
C178 C181 1.260 . S
C178 C182 1.477 . S
C178 H196 0.932 . S
C179 C180 1.384 . S
C179 C181 1.479 . S
C179 H197 0.929 . S
C180 C177 1.424 . S
C180 C179 1.384 . S
C180 H198 0.928 . S
C181 C178 1.260 . S
C181 C179 1.479 . S
C182 C177 1.245 . S
C182 C178 1.477 . S
C182 H199 0.932 . S
C183 U166 2.882 . S
C183 C177 1.428 . S
C183 O186 1.301 . S
C183 O187 1.282 . S
O184 U166 2.441 . S
O184 C170 1.249 . S
O185 U166 2.420 . S
O185 C170 1.202 . S
O186 U166 2.455 . S
O186 C183 1.301 . S
O187 U166 2.449 . S
O187 C183 1.282 . S
H188 C161 0.931 . S
H189 C163 0.929 . S
H190 C164 0.930 . S
H191 C165 0.931 . S
H192 C172 0.932 . S
H193 C173 0.930 . S
H194 C174 0.929 . S
H195 C176 0.930 . S
H196 C178 0.932 . S
H197 C179 0.929 . S
H198 C180 0.928 . S
H199 C182 0.932 . S
C200 C201 1.264 . S
C200 C205 1.479 . S
C200 C210 1.465 . S
C201 C200 1.264 . S
C201 C203 1.339 . S
C201 H228 0.931 . S
C202 C203 1.395 . S
C202 C204 1.320 . S
C203 C201 1.339 . S
C203 C202 1.395 . S
C203 H229 0.929 . S
C204 C202 1.320 . S
C204 C205 1.405 . S
C204 H230 0.930 . S
C205 C200 1.479 . S
C205 C204 1.405 . S
C205 H231 0.931 . S
U206 O207 2.454 . S
U206 O208 2.458 . S
U206 C209 2.984 . S
U206 C210 2.847 . S
U206 C223 2.882 . S
U206 O224 2.441 . S
U206 O225 2.420 . S
U206 O226 2.455 . S
U206 O227 2.449 . S
O207 U206 2.454 . S
O207 C209 1.353 . S
O208 U206 2.458 . S
O208 C209 1.286 . S
C209 U206 2.984 . S
C209 O207 1.353 . S
C209 O208 1.286 . S
C209 C211 1.363 . S
C210 C200 1.465 . S
C210 U206 2.847 . S
C210 O224 1.249 . S
C210 O225 1.202 . S
C211 C209 1.363 . S
C211 C213 1.408 . S
C211 C216 1.342 . S
C212 C213 1.310 . S
C212 C215 1.461 . S
C212 H232 0.932 . S
C213 C211 1.408 . S
C213 C212 1.310 . S
C213 H233 0.930 . S
C214 C215 1.474 . S
C214 C216 1.285 . S
C214 H234 0.929 . S
C215 C212 1.461 . S
C215 C214 1.474 . S
C216 C211 1.342 . S
C216 C214 1.285 . S
C216 H235 0.930 . S
C217 C220 1.424 . S
C217 C222 1.245 . S
C217 C223 1.428 . S
C218 C221 1.260 . S
C218 C222 1.477 . S
C218 H236 0.932 . S
C219 C220 1.384 . S
C219 C221 1.479 . S
C219 H237 0.929 . S
C220 C217 1.424 . S
C220 C219 1.384 . S
C220 H238 0.928 . S
C221 C218 1.260 . S
C221 C219 1.479 . S
C222 C217 1.245 . S
C222 C218 1.477 . S
C222 H239 0.932 . S
C223 U206 2.882 . S
C223 C217 1.428 . S
C223 O226 1.301 . S
C223 O227 1.282 . S
O224 U206 2.441 . S
O224 C210 1.249 . S
O225 U206 2.420 . S
O225 C210 1.202 . S
O226 U206 2.455 . S
O226 C223 1.301 . S
O227 U206 2.449 . S
O227 C223 1.282 . S
H228 C201 0.931 . S
H229 C203 0.929 . S
H230 C204 0.930 . S
H231 C205 0.931 . S
H232 C212 0.932 . S
H233 C213 0.930 . S
H234 C214 0.929 . S
H235 C216 0.930 . S
H236 C218 0.932 . S
H237 C219 0.929 . S
H238 C220 0.928 . S
H239 C222 0.932 . S
C240 C241 1.264 . S
C240 C245 1.479 . S
C240 C250 1.465 . S
C241 C240 1.264 . S
C241 C243 1.339 . S
C241 H268 0.931 . S
C242 C243 1.395 . S
C242 C244 1.320 . S
C243 C241 1.339 . S
C243 C242 1.395 . S
C243 H269 0.929 . S
C244 C242 1.320 . S
C244 C245 1.405 . S
C244 H270 0.930 . S
C245 C240 1.479 . S
C245 C244 1.405 . S
C245 H271 0.931 . S
U246 O247 2.454 . S
U246 O248 2.458 . S
U246 C249 2.984 . S
U246 C250 2.847 . S
U246 C263 2.882 . S
U246 O264 2.441 . S
U246 O265 2.420 . S
U246 O266 2.455 . S
U246 O267 2.449 . S
O247 U246 2.454 . S
O247 C249 1.353 . S
O248 U246 2.458 . S
O248 C249 1.286 . S
C249 U246 2.984 . S
C249 O247 1.353 . S
C249 O248 1.286 . S
C249 C251 1.363 . S
C250 C240 1.465 . S
C250 U246 2.847 . S
C250 O264 1.249 . S
C250 O265 1.202 . S
C251 C249 1.363 . S
C251 C253 1.408 . S
C251 C256 1.342 . S
C252 C253 1.310 . S
C252 C255 1.461 . S
C252 H272 0.932 . S
C253 C251 1.408 . S
C253 C252 1.310 . S
C253 H273 0.930 . S
C254 C255 1.474 . S
C254 C256 1.285 . S
C254 H274 0.929 . S
C255 C252 1.461 . S
C255 C254 1.474 . S
C256 C251 1.342 . S
C256 C254 1.285 . S
C256 H275 0.930 . S
C257 C260 1.424 . S
C257 C262 1.245 . S
C257 C263 1.428 . S
C258 C261 1.260 . S
C258 C262 1.477 . S
C258 H276 0.932 . S
C259 C260 1.384 . S
C259 C261 1.479 . S
C259 H277 0.929 . S
C260 C257 1.424 . S
C260 C259 1.384 . S
C260 H278 0.928 . S
C261 C258 1.260 . S
C261 C259 1.479 . S
C262 C257 1.245 . S
C262 C258 1.477 . S
C262 H279 0.932 . S
C263 U246 2.882 . S
C263 C257 1.428 . S
C263 O266 1.301 . S
C263 O267 1.282 . S
O264 U246 2.441 . S
O264 C250 1.249 . S
O265 U246 2.420 . S
O265 C250 1.202 . S
O266 U246 2.455 . S
O266 C263 1.301 . S
O267 U246 2.449 . S
O267 C263 1.282 . S
H268 C241 0.931 . S
H269 C243 0.929 . S
H270 C244 0.930 . S
H271 C245 0.931 . S
H272 C252 0.932 . S
H273 C253 0.930 . S
H274 C254 0.929 . S
H275 C256 0.930 . S
H276 C258 0.932 . S
H277 C259 0.929 . S
H278 C260 0.928 . S
H279 C262 0.932 . S
C280 C281 1.264 . S
C280 C285 1.479 . S
C280 C290 1.465 . S
C281 C280 1.264 . S
C281 C283 1.339 . S
C281 H308 0.931 . S
C282 C283 1.395 . S
C282 C284 1.320 . S
C283 C281 1.339 . S
C283 C282 1.395 . S
C283 H309 0.929 . S
C284 C282 1.320 . S
C284 C285 1.405 . S
C284 H310 0.930 . S
C285 C280 1.479 . S
C285 C284 1.405 . S
C285 H311 0.931 . S
U286 O287 2.454 . S
U286 O288 2.458 . S
U286 C289 2.984 . S
U286 C290 2.847 . S
U286 C303 2.882 . S
U286 O304 2.441 . S
U286 O305 2.420 . S
U286 O306 2.455 . S
U286 O307 2.449 . S
O287 U286 2.454 . S
O287 C289 1.353 . S
O288 U286 2.458 . S
O288 C289 1.286 . S
C289 U286 2.984 . S
C289 O287 1.353 . S
C289 O288 1.286 . S
C289 C291 1.363 . S
C290 C280 1.465 . S
C290 U286 2.847 . S
C290 O304 1.249 . S
C290 O305 1.202 . S
C291 C289 1.363 . S
C291 C293 1.408 . S
C291 C296 1.342 . S
C292 C293 1.310 . S
C292 C295 1.461 . S
C292 H312 0.932 . S
C293 C291 1.408 . S
C293 C292 1.310 . S
C293 H313 0.930 . S
C294 C295 1.474 . S
C294 C296 1.285 . S
C294 H314 0.929 . S
C295 C292 1.461 . S
C295 C294 1.474 . S
C296 C291 1.342 . S
C296 C294 1.285 . S
C296 H315 0.930 . S
C297 C300 1.424 . S
C297 C302 1.245 . S
C297 C303 1.428 . S
C298 C301 1.260 . S
C298 C302 1.477 . S
C298 H316 0.932 . S
C299 C300 1.384 . S
C299 C301 1.479 . S
C299 H317 0.929 . S
C300 C297 1.424 . S
C300 C299 1.384 . S
C300 H318 0.928 . S
C301 C298 1.260 . S
C301 C299 1.479 . S
C302 C297 1.245 . S
C302 C298 1.477 . S
C302 H319 0.932 . S
C303 U286 2.882 . S
C303 C297 1.428 . S
C303 O306 1.301 . S
C303 O307 1.282 . S
O304 U286 2.441 . S
O304 C290 1.249 . S
O305 U286 2.420 . S
O305 C290 1.202 . S
O306 U286 2.455 . S
O306 C303 1.301 . S
O307 U286 2.449 . S
O307 C303 1.282 . S
H308 C281 0.931 . S
H309 C283 0.929 . S
H310 C284 0.930 . S
H311 C285 0.931 . S
H312 C292 0.932 . S
H313 C293 0.930 . S
H314 C294 0.929 . S
H315 C296 0.930 . S
H316 C298 0.932 . S
H317 C299 0.929 . S
H318 C300 0.928 . S
H319 C302 0.932 . S
C320 C321 1.384 . S
C320 C322 1.384 . S
C320 H348 0.931 . S
C321 C320 1.384 . S
C321 C324 1.382 . S
C322 C320 1.384 . S
C322 C323 1.381 . S
C322 H349 0.930 . S
C323 C322 1.381 . S
C323 C325 1.381 . S
C323 C326 1.487 . S
C324 C321 1.382 . S
C324 C325 1.387 . S
C324 H350 0.930 . S
C325 C323 1.381 . S
C325 C324 1.387 . S
C325 H351 0.931 . S
C326 C323 1.487 . S
C326 C333 1.399 1_655 S
C326 N364 1.343 . S
C327 C328 1.384 . S
C327 C329 1.384 . S
C327 H352 0.931 . S
C328 C327 1.384 . S
C328 C331 1.382 . S
C329 C327 1.384 . S
C329 C330 1.381 . S
C329 H353 0.930 . S
C330 C329 1.381 . S
C330 C332 1.381 . S
C330 C333 1.487 . S
C331 C328 1.382 . S
C331 C332 1.387 . S
C331 H354 0.930 . S
C332 C330 1.381 . S
C332 C331 1.387 . S
C332 H355 0.931 . S
C333 C326 1.399 1_455 S
C333 C330 1.487 . S
C333 N365 1.343 . S
C334 C335 1.384 . S
C334 C336 1.384 . S
C334 H356 0.931 . S
C335 C334 1.384 . S
C335 C338 1.382 . S
C336 C334 1.384 . S
C336 C337 1.381 . S
C336 H357 0.930 . S
C337 C336 1.381 . S
C337 C339 1.381 . S
C337 C340 1.487 . S
C338 C335 1.382 . S
C338 C339 1.387 . S
C338 H358 0.930 . S
C339 C337 1.381 . S
C339 C338 1.387 . S
C339 H359 0.931 . S
C340 C337 1.487 . S
C340 C347 1.399 1_455 S
C340 N365 1.343 . S
C341 C342 1.384 . S
C341 C343 1.384 . S
C341 H360 0.931 . S
C342 C341 1.384 . S
C342 C345 1.382 . S
C343 C341 1.384 . S
C343 C344 1.381 . S
C343 H361 0.930 . S
C344 C343 1.381 . S
C344 C346 1.381 . S
C344 C347 1.487 . S
C345 C342 1.382 . S
C345 C346 1.387 . S
C345 H362 0.930 . S
C346 C344 1.381 . S
C346 C345 1.387 . S
C346 H363 0.931 . S
C347 C340 1.399 1_655 S
C347 C344 1.487 . S
C347 N364 1.343 . S
H348 C320 0.931 . S
H349 C322 0.930 . S
H350 C324 0.930 . S
H351 C325 0.931 . S
H352 C327 0.931 . S
H353 C329 0.930 . S
H354 C331 0.930 . S
H355 C332 0.931 . S
H356 C334 0.931 . S
H357 C336 0.930 . S
H358 C338 0.930 . S
H359 C339 0.931 . S
H360 C341 0.931 . S
H361 C343 0.930 . S
H362 C345 0.930 . S
H363 C346 0.931 . S
N364 C326 1.343 . S
N364 C347 1.343 . S
N365 C333 1.343 . S
N365 C340 1.343 . S
C366 C367 1.384 . S
C366 C368 1.384 . S
C366 H394 0.931 . S
C367 C366 1.384 . S
C367 C370 1.382 . S
C368 C366 1.384 . S
C368 C369 1.381 . S
C368 H395 0.930 . S
C369 C368 1.381 . S
C369 C371 1.381 . S
C369 C372 1.487 . S
C370 C367 1.382 . S
C370 C371 1.387 . S
C370 H396 0.930 . S
C371 C369 1.381 . S
C371 C370 1.387 . S
C371 H397 0.931 . S
C372 C369 1.487 . S
C372 C379 1.399 1_655 S
C372 N410 1.343 . S
C373 C374 1.384 . S
C373 C375 1.384 . S
C373 H398 0.931 . S
C374 C373 1.384 . S
C374 C377 1.382 . S
C375 C373 1.384 . S
C375 C376 1.381 . S
C375 H399 0.930 . S
C376 C375 1.381 . S
C376 C378 1.381 . S
C376 C379 1.487 . S
C377 C374 1.382 . S
C377 C378 1.387 . S
C377 H400 0.930 . S
C378 C376 1.381 . S
C378 C377 1.387 . S
C378 H401 0.931 . S
C379 C372 1.399 1_455 S
C379 C376 1.487 . S
C379 N411 1.343 . S
C380 C381 1.384 . S
C380 C382 1.384 . S
C380 H402 0.931 . S
C381 C380 1.384 . S
C381 C384 1.382 . S
C382 C380 1.384 . S
C382 C383 1.381 . S
C382 H403 0.930 . S
C383 C382 1.381 . S
C383 C385 1.381 . S
C383 C386 1.487 . S
C384 C381 1.382 . S
C384 C385 1.387 . S
C384 H404 0.930 . S
C385 C383 1.381 . S
C385 C384 1.387 . S
C385 H405 0.931 . S
C386 C383 1.487 . S
C386 C393 1.399 1_455 S
C386 N411 1.343 . S
C387 C388 1.384 . S
C387 C389 1.384 . S
C387 H406 0.931 . S
C388 C387 1.384 . S
C388 C391 1.382 . S
C389 C387 1.384 . S
C389 C390 1.381 . S
C389 H407 0.930 . S
C390 C389 1.381 . S
C390 C392 1.381 . S
C390 C393 1.487 . S
C391 C388 1.382 . S
C391 C392 1.387 . S
C391 H408 0.930 . S
C392 C390 1.381 . S
C392 C391 1.387 . S
C392 H409 0.931 . S
C393 C386 1.399 1_655 S
C393 C390 1.487 . S
C393 N410 1.343 . S
H394 C366 0.931 . S
H395 C368 0.930 . S
H396 C370 0.930 . S
H397 C371 0.931 . S
H398 C373 0.931 . S
H399 C375 0.930 . S
H400 C377 0.930 . S
H401 C378 0.931 . S
H402 C380 0.931 . S
H403 C382 0.930 . S
H404 C384 0.930 . S
H405 C385 0.931 . S
H406 C387 0.931 . S
H407 C389 0.930 . S
H408 C391 0.930 . S
H409 C392 0.931 . S
N410 C372 1.343 . S
N410 C393 1.343 . S
N411 C379 1.343 . S
N411 C386 1.343 . S
C412 C413 1.384 . S
C412 C414 1.384 . S
C412 H440 0.931 . S
C413 C412 1.384 . S
C413 C416 1.382 . S
C414 C412 1.384 . S
C414 C415 1.381 . S
C414 H441 0.930 . S
C415 C414 1.381 . S
C415 C417 1.381 . S
C415 C418 1.487 . S
C416 C413 1.382 . S
C416 C417 1.387 . S
C416 H442 0.930 . S
C417 C415 1.381 . S
C417 C416 1.387 . S
C417 H443 0.931 . S
C418 C415 1.487 . S
C418 C425 1.399 . S
C418 N456 1.343 . S
C419 C420 1.384 . S
C419 C421 1.384 . S
C419 H444 0.931 . S
C420 C419 1.384 . S
C420 C423 1.382 . S
C421 C419 1.384 . S
C421 C422 1.381 . S
C421 H445 0.930 . S
C422 C421 1.381 . S
C422 C424 1.381 . S
C422 C425 1.487 . S
C423 C420 1.382 . S
C423 C424 1.387 . S
C423 H446 0.930 . S
C424 C422 1.381 . S
C424 C423 1.387 . S
C424 H447 0.931 . S
C425 C418 1.399 . S
C425 C422 1.487 . S
C425 N457 1.343 . S
C426 C427 1.384 . S
C426 C428 1.384 . S
C426 H448 0.931 . S
C427 C426 1.384 . S
C427 C430 1.382 . S
C428 C426 1.384 . S
C428 C429 1.381 . S
C428 H449 0.930 . S
C429 C428 1.381 . S
C429 C431 1.381 . S
C429 C432 1.487 . S
C430 C427 1.382 . S
C430 C431 1.387 . S
C430 H450 0.930 . S
C431 C429 1.381 . S
C431 C430 1.387 . S
C431 H451 0.931 . S
C432 C429 1.487 . S
C432 C439 1.399 . S
C432 N457 1.343 1_565 S
C433 C434 1.384 . S
C433 C435 1.384 . S
C433 H452 0.931 . S
C434 C433 1.384 . S
C434 C437 1.382 . S
C435 C433 1.384 . S
C435 C436 1.381 . S
C435 H453 0.930 . S
C436 C435 1.381 . S
C436 C438 1.381 . S
C436 C439 1.487 . S
C437 C434 1.382 . S
C437 C438 1.387 . S
C437 H454 0.930 . S
C438 C436 1.381 . S
C438 C437 1.387 . S
C438 H455 0.931 . S
C439 C432 1.399 . S
C439 C436 1.487 . S
C439 N456 1.343 1_565 S
H440 C412 0.931 . S
H441 C414 0.930 . S
H442 C416 0.930 . S
H443 C417 0.931 . S
H444 C419 0.931 . S
H445 C421 0.930 . S
H446 C423 0.930 . S
H447 C424 0.931 . S
H448 C426 0.931 . S
H449 C428 0.930 . S
H450 C430 0.930 . S
H451 C431 0.931 . S
H452 C433 0.931 . S
H453 C435 0.930 . S
H454 C437 0.930 . S
H455 C438 0.931 . S
N456 C418 1.343 . S
N456 C439 1.343 1_545 S
N457 C425 1.343 . S
N457 C432 1.343 1_545 S
C458 C459 1.384 . S
C458 C460 1.384 . S
C458 H486 0.931 . S
C459 C458 1.384 . S
C459 C462 1.382 . S
C460 C458 1.384 . S
C460 C461 1.381 . S
C460 H487 0.930 . S
C461 C460 1.381 . S
C461 C463 1.381 . S
C461 C464 1.487 . S
C462 C459 1.382 . S
C462 C463 1.387 . S
C462 H488 0.930 . S
C463 C461 1.381 . S
C463 C462 1.387 . S
C463 H489 0.931 . S
C464 C461 1.487 . S
C464 C471 1.399 . S
C464 N502 1.343 1_556 S
C465 C466 1.384 . S
C465 C467 1.384 . S
C465 H490 0.931 . S
C466 C465 1.384 . S
C466 C469 1.382 . S
C467 C465 1.384 . S
C467 C468 1.381 . S
C467 H491 0.930 . S
C468 C467 1.381 . S
C468 C470 1.381 . S
C468 C471 1.487 . S
C469 C466 1.382 . S
C469 C470 1.387 . S
C469 H492 0.930 . S
C470 C468 1.381 . S
C470 C469 1.387 . S
C470 H493 0.931 . S
C471 C464 1.399 . S
C471 C468 1.487 . S
C471 N503 1.343 1_556 S
C472 C473 1.384 . S
C472 C474 1.384 . S
C472 H494 0.931 . S
C473 C472 1.384 . S
C473 C476 1.382 . S
C474 C472 1.384 . S
C474 C475 1.381 . S
C474 H495 0.930 . S
C475 C474 1.381 . S
C475 C477 1.381 . S
C475 C478 1.487 . S
C476 C473 1.382 . S
C476 C477 1.387 . S
C476 H496 0.930 . S
C477 C475 1.381 . S
C477 C476 1.387 . S
C477 H497 0.931 . S
C478 C475 1.487 . S
C478 C485 1.399 . S
C478 N503 1.343 . S
C479 C480 1.384 . S
C479 C481 1.384 . S
C479 H498 0.931 . S
C480 C479 1.384 . S
C480 C483 1.382 . S
C481 C479 1.384 . S
C481 C482 1.381 . S
C481 H499 0.930 . S
C482 C481 1.381 . S
C482 C484 1.381 . S
C482 C485 1.487 . S
C483 C480 1.382 . S
C483 C484 1.387 . S
C483 H500 0.930 . S
C484 C482 1.381 . S
C484 C483 1.387 . S
C484 H501 0.931 . S
C485 C478 1.399 . S
C485 C482 1.487 . S
C485 N502 1.343 . S
H486 C458 0.931 . S
H487 C460 0.930 . S
H488 C462 0.930 . S
H489 C463 0.931 . S
H490 C465 0.931 . S
H491 C467 0.930 . S
H492 C469 0.930 . S
H493 C470 0.931 . S
H494 C472 0.931 . S
H495 C474 0.930 . S
H496 C476 0.930 . S
H497 C477 0.931 . S
H498 C479 0.931 . S
H499 C481 0.930 . S
H500 C483 0.930 . S
H501 C484 0.931 . S
N502 C464 1.343 1_554 S
N502 C485 1.343 . S
N503 C471 1.343 1_554 S
N503 C478 1.343 . S
C504 C505 1.384 . S
C504 C506 1.384 . S
C504 H532 0.931 . S
C505 C504 1.384 . S
C505 C508 1.382 . S
C506 C504 1.384 . S
C506 C507 1.381 . S
C506 H533 0.930 . S
C507 C506 1.381 . S
C507 C509 1.381 . S
C507 C510 1.487 . S
C508 C505 1.382 . S
C508 C509 1.387 . S
C508 H534 0.930 . S
C509 C507 1.381 . S
C509 C508 1.387 . S
C509 H535 0.931 . S
C510 C507 1.487 . S
C510 C517 1.399 . S
C510 N548 1.343 . S
C511 C512 1.384 . S
C511 C513 1.384 . S
C511 H536 0.931 . S
C512 C511 1.384 . S
C512 C515 1.382 . S
C513 C511 1.384 . S
C513 C514 1.381 . S
C513 H537 0.930 . S
C514 C513 1.381 . S
C514 C516 1.381 . S
C514 C517 1.487 . S
C515 C512 1.382 . S
C515 C516 1.387 . S
C515 H538 0.930 . S
C516 C514 1.381 . S
C516 C515 1.387 . S
C516 H539 0.931 . S
C517 C510 1.399 . S
C517 C514 1.487 . S
C517 N549 1.343 . S
C518 C519 1.384 . S
C518 C520 1.384 . S
C518 H540 0.931 . S
C519 C518 1.384 . S
C519 C522 1.382 . S
C520 C518 1.384 . S
C520 C521 1.381 . S
C520 H541 0.930 . S
C521 C520 1.381 . S
C521 C523 1.381 . S
C521 C524 1.487 . S
C522 C519 1.382 . S
C522 C523 1.387 . S
C522 H542 0.930 . S
C523 C521 1.381 . S
C523 C522 1.387 . S
C523 H543 0.931 . S
C524 C521 1.487 . S
C524 C531 1.399 . S
C524 N549 1.343 1_565 S
C525 C526 1.384 . S
C525 C527 1.384 . S
C525 H544 0.931 . S
C526 C525 1.384 . S
C526 C529 1.382 . S
C527 C525 1.384 . S
C527 C528 1.381 . S
C527 H545 0.930 . S
C528 C527 1.381 . S
C528 C530 1.381 . S
C528 C531 1.487 . S
C529 C526 1.382 . S
C529 C530 1.387 . S
C529 H546 0.930 . S
C530 C528 1.381 . S
C530 C529 1.387 . S
C530 H547 0.931 . S
C531 C524 1.399 . S
C531 C528 1.487 . S
C531 N548 1.343 1_565 S
H532 C504 0.931 . S
H533 C506 0.930 . S
H534 C508 0.930 . S
H535 C509 0.931 . S
H536 C511 0.931 . S
H537 C513 0.930 . S
H538 C515 0.930 . S
H539 C516 0.931 . S
H540 C518 0.931 . S
H541 C520 0.930 . S
H542 C522 0.930 . S
H543 C523 0.931 . S
H544 C525 0.931 . S
H545 C527 0.930 . S
H546 C529 0.930 . S
H547 C530 0.931 . S
N548 C510 1.343 . S
N548 C531 1.343 1_545 S
N549 C517 1.343 . S
N549 C524 1.343 1_545 S
C550 C551 1.384 . S
C550 C552 1.384 . S
C550 H578 0.931 . S
C551 C550 1.384 . S
C551 C554 1.382 . S
C552 C550 1.384 . S
C552 C553 1.381 . S
C552 H579 0.930 . S
C553 C552 1.381 . S
C553 C555 1.381 . S
C553 C556 1.487 . S
C554 C551 1.382 . S
C554 C555 1.387 . S
C554 H580 0.930 . S
C555 C553 1.381 . S
C555 C554 1.387 . S
C555 H581 0.931 . S
C556 C553 1.487 . S
C556 C563 1.399 . S
C556 N594 1.343 1_556 S
C557 C558 1.384 . S
C557 C559 1.384 . S
C557 H582 0.931 . S
C558 C557 1.384 . S
C558 C561 1.382 . S
C559 C557 1.384 . S
C559 C560 1.381 . S
C559 H583 0.930 . S
C560 C559 1.381 . S
C560 C562 1.381 . S
C560 C563 1.487 . S
C561 C558 1.382 . S
C561 C562 1.387 . S
C561 H584 0.930 . S
C562 C560 1.381 . S
C562 C561 1.387 . S
C562 H585 0.931 . S
C563 C556 1.399 . S
C563 C560 1.487 . S
C563 N595 1.343 1_556 S
C564 C565 1.384 . S
C564 C566 1.384 . S
C564 H586 0.931 . S
C565 C564 1.384 . S
C565 C568 1.382 . S
C566 C564 1.384 . S
C566 C567 1.381 . S
C566 H587 0.930 . S
C567 C566 1.381 . S
C567 C569 1.381 . S
C567 C570 1.487 . S
C568 C565 1.382 . S
C568 C569 1.387 . S
C568 H588 0.930 . S
C569 C567 1.381 . S
C569 C568 1.387 . S
C569 H589 0.931 . S
C570 C567 1.487 . S
C570 C577 1.399 . S
C570 N595 1.343 . S
C571 C572 1.384 . S
C571 C573 1.384 . S
C571 H590 0.931 . S
C572 C571 1.384 . S
C572 C575 1.382 . S
C573 C571 1.384 . S
C573 C574 1.381 . S
C573 H591 0.930 . S
C574 C573 1.381 . S
C574 C576 1.381 . S
C574 C577 1.487 . S
C575 C572 1.382 . S
C575 C576 1.387 . S
C575 H592 0.930 . S
C576 C574 1.381 . S
C576 C575 1.387 . S
C576 H593 0.931 . S
C577 C570 1.399 . S
C577 C574 1.487 . S
C577 N594 1.343 . S
H578 C550 0.931 . S
H579 C552 0.930 . S
H580 C554 0.930 . S
H581 C555 0.931 . S
H582 C557 0.931 . S
H583 C559 0.930 . S
H584 C561 0.930 . S
H585 C562 0.931 . S
H586 C564 0.931 . S
H587 C566 0.930 . S
H588 C568 0.930 . S
H589 C569 0.931 . S
H590 C571 0.931 . S
H591 C573 0.930 . S
H592 C575 0.930 . S
H593 C576 0.931 . S
N594 C556 1.343 1_554 S
N594 C577 1.343 . S
N595 C563 1.343 1_554 S
N595 C570 1.343 . S
C328 C15 1.622 . S
C381 C55 1.719 . S
C342 C101 1.671 . S
C367 C141 1.707 . S
C413 C2 1.514 . S
C459 C61 1.513 . S
C95 C526 1.961 . S
C558 C135 1.568 . S
C427 C42 1.525 . S
C82 C473 1.568 . S
C512 C122 1.991 . S
C572 C21 1.551 . S
C162 C388 1.729 . S
C321 C221 1.702 . S
C255 C374 1.715 . S
C282 C335 1.576 . S
C519 C181 2.022 . S
C565 C202 1.646 . S
C420 C242 1.654 . S
C301 C480 1.537 . S
C505 C215 1.984 . S
C551 C261 1.637 . S
C434 C295 1.577 . S
C175 C466 1.610 . S
