# Generated by pormake.
# Topology llj, (12,3)-cn, num edge types: 1
# Building blocks:
#     Node 0, Type 0, BuildingBlock: QEWDON_clean_sbu_0, # of connection points: 12
#     Node 1, Type 0, BuildingBlock: QEWDON_clean_sbu_0, # of connection points: 12
#     Node 2, Type 1, BuildingBlock: BETDAH_clean_linker_0, # of connection points: 3
#     Node 3, Type 1, BuildingBlock: BETDAH_clean_linker_0, # of connection points: 3
#     Node 4, Type 1, BuildingBlock: BETDAH_clean_linker_0, # of connection points: 3
#     Node 5, Type 1, BuildingBlock: BETDAH_clean_linker_0, # of connection points: 3
#     Node 6, Type 1, BuildingBlock: BETDAH_clean_linker_0, # of connection points: 3
#     Node 7, Type 1, BuildingBlock: BETDAH_clean_linker_0, # of connection points: 3
#     Node 8, Type 1, BuildingBlock: BETDAH_clean_linker_0, # of connection points: 3
#     Node 9, Type 1, BuildingBlock: BETDAH_clean_linker_0, # of connection points: 3
#     Edge 10, Type (0, 1), BuildingBlock: UVAHIK_clean_linker_0, # of connection points: 2
#     Edge 11, Type (0, 1), BuildingBlock: UVAHIK_clean_linker_0, # of connection points: 2
#     Edge 12, Type (0, 1), BuildingBlock: UVAHIK_clean_linker_0, # of connection points: 2
#     Edge 13, Type (0, 1), BuildingBlock: UVAHIK_clean_linker_0, # of connection points: 2
#     Edge 14, Type (0, 1), BuildingBlock: UVAHIK_clean_linker_0, # of connection points: 2
#     Edge 15, Type (0, 1), BuildingBlock: UVAHIK_clean_linker_0, # of connection points: 2
#     Edge 16, Type (0, 1), BuildingBlock: UVAHIK_clean_linker_0, # of connection points: 2
#     Edge 17, Type (0, 1), BuildingBlock: UVAHIK_clean_linker_0, # of connection points: 2
#     Edge 18, Type (0, 1), BuildingBlock: UVAHIK_clean_linker_0, # of connection points: 2
#     Edge 19, Type (0, 1), BuildingBlock: UVAHIK_clean_linker_0, # of connection points: 2
#     Edge 20, Type (0, 1), BuildingBlock: UVAHIK_clean_linker_0, # of connection points: 2
#     Edge 21, Type (0, 1), BuildingBlock: UVAHIK_clean_linker_0, # of connection points: 2
#     Edge 22, Type (0, 1), BuildingBlock: UVAHIK_clean_linker_0, # of connection points: 2
#     Edge 23, Type (0, 1), BuildingBlock: UVAHIK_clean_linker_0, # of connection points: 2
#     Edge 24, Type (0, 1), BuildingBlock: UVAHIK_clean_linker_0, # of connection points: 2
#     Edge 25, Type (0, 1), BuildingBlock: UVAHIK_clean_linker_0, # of connection points: 2
#     Edge 26, Type (0, 1), BuildingBlock: UVAHIK_clean_linker_0, # of connection points: 2
#     Edge 27, Type (0, 1), BuildingBlock: UVAHIK_clean_linker_0, # of connection points: 2
#     Edge 28, Type (0, 1), BuildingBlock: UVAHIK_clean_linker_0, # of connection points: 2
#     Edge 29, Type (0, 1), BuildingBlock: UVAHIK_clean_linker_0, # of connection points: 2
#     Edge 30, Type (0, 1), BuildingBlock: UVAHIK_clean_linker_0, # of connection points: 2
#     Edge 31, Type (0, 1), BuildingBlock: UVAHIK_clean_linker_0, # of connection points: 2
#     Edge 32, Type (0, 1), BuildingBlock: UVAHIK_clean_linker_0, # of connection points: 2
#     Edge 33, Type (0, 1), BuildingBlock: UVAHIK_clean_linker_0, # of connection points: 2
# Relax obj value: 0.009
# Max RMSD: 0.105
# Mean RMSD: 0.089
data_MOF--net-llj--node1-QEWDON_clean_sbu_0--node2-BETDAH_clean_linker_0--edge1-UVAHIK_clean_linker_0
_symmetry_space_group_name_H-M    P1
_symmetry_Int_Tables_number       1
_symmetry_cell_setting            triclinic
loop_
_symmetry_equiv_pos_as_xyz
'x, y, z'
_cell_length_a     49.476322
_cell_length_b     49.466661
_cell_length_c     31.10547
_cell_angle_alpha  91.191137
_cell_angle_beta   90.265361
_cell_angle_gamma 90.057829
loop_
_atom_site_label
_atom_site_type_symbol
_atom_site_fract_x
_atom_site_fract_y
_atom_site_fract_z
_atom_type_partial_charge
Zn0 Zn 0.95626 0.05354 0.9808 0.0
Zn1 Zn 0.96036 0.05523 0.08422 0.0
O2 O 0.98136 0.04698 0.03119 0.0
H3 H 0.99772 0.03636 0.02963 0.0
C4 C 0.92585 0.98902 0.93824 0.0
O5 O 0.92546 0.00343 0.97418 0.0
Zn6 Zn 0.0477 0.94301 0.07535 0.0
Zn7 Zn 0.04825 0.94619 0.97226 0.0
O8 O 0.02414 0.95055 0.02476 0.0
H9 H 0.00746 0.96065 0.02558 0.0
Zn10 Zn 0.94637 0.95075 -0.00141 0.0
O11 O 0.95399 0.97985 0.04378 0.0
Zn12 Zn 0.95436 0.95981 0.09844 0.0
H13 H 0.96518 0.99533 0.03794 0.0
Zn14 Zn 0.05625 0.04882 0.99793 0.0
O15 O 0.05161 0.01911 0.04103 0.0
H16 H 0.03971 0.00393 0.03526 0.0
Zn17 Zn 0.05465 0.03932 0.09658 0.0
C18 C 0.07158 0.01101 0.93176 0.0
O19 O 0.07484 0.99673 0.96653 0.0
O20 O 0.92197 0.07495 0.99794 0.0
O21 O 0.92585 0.07516 0.06926 0.0
O22 O 0.08209 0.92309 0.98407 0.0
O23 O 0.08067 0.92153 0.05542 0.0
O24 O 0.92703 0.91748 0.0231 0.0
O25 O 0.93037 0.92653 0.09331 0.0
C26 C 0.00814 0.07329 0.12697 0.0
O27 O 0.07961 0.08032 0.02167 0.0
O28 O 0.08075 0.07092 0.0913 0.0
O29 O 0.02915 0.93973 0.91341 0.0
C30 C 0.91321 0.08166 0.03516 0.0
O31 O 0.97505 0.06212 0.92318 0.0
C32 C 0.00202 0.92756 0.12366 0.0
O33 O 0.93414 0.96474 0.93916 0.0
C34 C 0.09174 0.91509 0.01967 0.0
O35 O 0.06337 0.03524 0.93562 0.0
C36 C 0.94092 0.00966 0.14301 0.0
O37 O 0.98323 0.07893 0.12357 0.0
O38 O 0.01695 0.05252 0.107 0.0
C39 C 0.9219 0.9117 0.062 0.0
O40 O 0.02643 0.9208 0.11721 0.0
O41 O 0.99306 0.94857 0.10573 0.0
C42 C 0.06617 0.9886 0.13716 0.0
O43 O 0.94015 0.98412 0.14639 0.0
O44 O 0.9527 0.01916 0.11037 0.0
C45 C 0.08802 0.08538 0.05982 0.0
O46 O 0.06735 0.01409 0.14299 0.0
O47 O 0.05681 0.97954 0.10157 0.0
C48 C 0.00421 0.93358 0.91329 0.0
O49 O 0.99143 0.93238 0.95012 0.0
C50 C 0.99915 0.07093 0.92581 0.0
O51 O 0.01032 0.07411 0.96398 0.0
Zn52 Zn 0.45744 0.56867 0.42859 0.0
Zn53 Zn 0.45119 0.55717 0.52979 0.0
O54 O 0.4757 0.55149 0.47955 0.0
H55 H 0.48902 0.53728 0.477 0.0
C56 C 0.40314 0.4898 0.40009 0.0
O57 O 0.40405 0.50184 0.43813 0.0
Zn58 Zn 0.54202 0.45112 0.53914 0.0
Zn59 Zn 0.53569 0.43922 0.4375 0.0
O60 O 0.51678 0.45455 0.48951 0.0
H61 H 0.50204 0.46727 0.48808 0.0
Zn62 Zn 0.433 0.4501 0.44761 0.0
O63 O 0.44856 0.47689 0.49073 0.0
Zn64 Zn 0.44679 0.45935 0.54775 0.0
H65 H 0.4595 0.49227 0.48341 0.0
Zn66 Zn 0.561 0.54002 0.43589 0.0
O67 O 0.54328 0.52236 0.4865 0.0
H68 H 0.53019 0.50795 0.48378 0.0
Zn69 Zn 0.54688 0.54805 0.53668 0.0
C70 C 0.58791 0.49201 0.39687 0.0
O71 O 0.5841 0.48152 0.43483 0.0
O72 O 0.42222 0.58874 0.4436 0.0
O73 O 0.419 0.58055 0.51337 0.0
O74 O 0.57029 0.41824 0.4518 0.0
O75 O 0.57529 0.42909 0.52125 0.0
O76 O 0.41378 0.41823 0.47596 0.0
O77 O 0.42233 0.42618 0.54541 0.0
C78 C 0.49686 0.57276 0.58132 0.0
O79 O 0.5813 0.57496 0.4521 0.0
O80 O 0.57181 0.57956 0.52166 0.0
O81 O 0.51174 0.42711 0.38601 0.0
C82 C 0.41005 0.59155 0.4794 0.0
O83 O 0.48162 0.5871 0.3838 0.0
C84 C 0.49685 0.43349 0.58804 0.0
O85 O 0.41431 0.46684 0.39501 0.0
C86 C 0.58349 0.41699 0.487 0.0
O87 O 0.5794 0.51575 0.38976 0.0
C88 C 0.43332 0.51163 0.58554 0.0
O89 O 0.47136 0.57523 0.57873 0.0
O90 O 0.50895 0.56037 0.55074 0.0
C91 C 0.41117 0.41211 0.51533 0.0
O92 O 0.52239 0.43124 0.58591 0.0
O93 O 0.48522 0.44932 0.56212 0.0
C94 C 0.5616 0.50258 0.58852 0.0
O95 O 0.43283 0.48635 0.59173 0.0
O96 O 0.44112 0.51999 0.54927 0.0
C97 C 0.58369 0.58769 0.48792 0.0
O98 O 0.56244 0.52823 0.58713 0.0
O99 O 0.55093 0.4897 0.55696 0.0
C100 C 0.48789 0.41859 0.39256 0.0
O101 O 0.47903 0.41725 0.43222 0.0
C102 C 0.50607 0.59371 0.3911 0.0
O103 O 0.5172 0.58787 0.4282 0.0
H104 H 0.38884 0.32788 0.97481 0.0
H105 H 0.36139 0.25979 0.04717 0.0
H106 H 0.3709 0.2523 0.91035 0.0
C107 C 0.38208 0.30707 0.97618 0.0
C108 C 0.38045 0.29157 0.93801 0.0
C109 C 0.37594 0.29573 0.01607 0.0
C110 C 0.36624 0.269 0.01687 0.0
C111 C 0.36429 0.25345 0.97866 0.0
C112 C 0.37217 0.26452 0.93963 0.0
N113 N 0.35487 0.22645 0.97893 0.0
C114 C 0.33154 0.21943 0.00062 0.0
H115 H 0.67663 0.40325 0.99231 0.0
H116 H 0.74043 0.35247 0.03943 0.0
H117 H 0.72916 0.36152 0.90352 0.0
C118 C 0.69344 0.38967 0.98628 0.0
C119 C 0.70095 0.38355 0.94377 0.0
C120 C 0.70774 0.37883 0.02107 0.0
C121 C 0.72915 0.36081 0.01288 0.0
C122 C 0.73691 0.35477 0.97031 0.0
C123 C 0.72307 0.36647 0.93618 0.0
N124 N 0.75893 0.3375 0.96061 0.0
C125 C 0.76694 0.31652 0.98662 0.0
H126 H 0.59743 0.68377 0.99481 0.0
H127 H 0.64194 0.73465 0.90978 0.0
H128 H 0.65068 0.74531 0.04649 0.0
C129 C 0.61141 0.7003 0.9899 0.0
C130 C 0.62275 0.71401 0.0257 0.0
C131 C 0.61842 0.7073 0.94792 0.0
C132 C 0.63674 0.72853 0.94197 0.0
C133 C 0.64878 0.74186 0.9772 0.0
C134 C 0.64194 0.73447 0.01917 0.0
N135 N 0.66713 0.76312 0.96926 0.0
C136 C 0.68915 0.76908 0.99556 0.0
H137 H 0.32425 0.59691 0.99346 0.0
H138 H 0.2619 0.62895 0.91174 0.0
H139 H 0.24676 0.61851 0.0459 0.0
C140 C 0.30395 0.60459 0.98892 0.0
C141 C 0.28649 0.60625 0.02435 0.0
C142 C 0.29548 0.61266 0.94793 0.0
C143 C 0.26928 0.62318 0.94309 0.0
C144 C 0.25206 0.62572 0.97852 0.0
C145 C 0.26061 0.61728 0.01904 0.0
N146 N 0.22556 0.63557 0.97283 0.0
C147 C 0.21976 0.66257 0.98102 0.0
H148 H 0.90283 0.82652 0.49368 0.0
H149 H 0.8805 0.76412 0.5812 0.0
H150 H 0.86287 0.7542 0.44681 0.0
C151 C 0.89315 0.80732 0.49975 0.0
C152 C 0.88273 0.79176 0.46508 0.0
C153 C 0.89251 0.79763 0.54187 0.0
C154 C 0.88133 0.77202 0.549 0.0
C155 C 0.87037 0.75665 0.515 0.0
C156 C 0.871 0.76648 0.47309 0.0
N157 N 0.85971 0.7308 0.52333 0.0
C158 C 0.83268 0.7248 0.51603 0.0
H159 H 0.16974 0.90291 0.51737 0.0
H160 H 0.24034 0.89448 0.59704 0.0
H161 H 0.24031 0.86247 0.46749 0.0
C162 C 0.19024 0.8957 0.52174 0.0
C163 C 0.20342 0.88224 0.48765 0.0
C164 C 0.20329 0.90009 0.56132 0.0
C165 C 0.22993 0.89111 0.56665 0.0
C166 C 0.24314 0.87723 0.53323 0.0
C167 C 0.22992 0.87285 0.4936 0.0
N168 N 0.26974 0.86786 0.54019 0.0
C169 C 0.27715 0.84154 0.52964 0.0
H170 H 0.10537 0.17098 0.51208 0.0
H171 H 0.13298 0.2491 0.47156 0.0
H172 H 0.12252 0.23414 0.6056 0.0
C173 C 0.11225 0.19133 0.51974 0.0
C174 C 0.1136 0.20013 0.56294 0.0
C175 C 0.11907 0.20883 0.48637 0.0
C176 C 0.12762 0.23529 0.49674 0.0
C177 C 0.12899 0.24416 0.53972 0.0
C178 C 0.12191 0.22673 0.57257 0.0
N179 N 0.13666 0.271 0.5501 0.0
C180 C 0.16371 0.27821 0.5513 0.0
H181 H 0.83586 0.10226 0.52285 0.0
H182 H 0.77245 0.12682 0.60916 0.0
H183 H 0.77341 0.1563 0.48036 0.0
C184 C 0.81796 0.11422 0.52952 0.0
C185 C 0.80633 0.12961 0.49673 0.0
C186 C 0.80603 0.11308 0.57025 0.0
C187 C 0.78196 0.12731 0.57786 0.0
C188 C 0.77044 0.14321 0.546 0.0
C189 C 0.78262 0.1444 0.50534 0.0
N190 N 0.74618 0.15716 0.55563 0.0
C191 C 0.74003 0.18249 0.54 0.0
C192 C 0.11478 0.12449 0.03327 0.0
C193 C 0.10844 0.10695 0.06675 0.0
C194 C 0.13662 0.14223 0.03712 0.0
C195 C 0.20256 0.1459 0.08798 0.0
H196 H 0.20455 0.21688 0.03753 0.0
C197 C 0.30357 0.20123 0.05894 0.0
C198 C 0.30569 0.21225 0.018 0.0
C199 C 0.27838 0.19275 0.07403 0.0
C200 C 0.20434 0.19708 0.05173 0.0
H201 H 0.11898 0.09563 0.13177 0.0
H202 H 0.15746 0.12656 0.13821 0.0
H203 H 0.16115 0.1946 0.04846 0.0
H204 H 0.28394 0.22376 0.96083 0.0
H205 H 0.24006 0.20864 0.98651 0.0
H206 H 0.24574 0.14765 0.0892 0.0
C207 C 0.14554 0.12634 0.1089 0.0
C208 C 0.17949 0.18439 0.05812 0.0
C209 C 0.12346 0.10872 0.10522 0.0
C210 C 0.28253 0.21536 0.99266 0.0
C211 C 0.25743 0.2069 0.00758 0.0
C212 C 0.22744 0.15852 0.08137 0.0
C213 C 0.15273 0.14277 0.07444 0.0
C214 C 0.1784 0.15832 0.07508 0.0
C215 C 0.25505 0.1952 0.04825 0.0
C216 C 0.22866 0.18388 0.06187 0.0
H217 H 0.10351 0.12382 0.00333 0.0
H218 H 0.14177 0.15447 0.00986 0.0
H219 H 0.20239 0.12568 0.10071 0.0
H220 H 0.32137 0.19877 0.07889 0.0
H221 H 0.2772 0.18403 0.10561 0.0
C222 C 0.87677 0.10956 0.00196 0.0
C223 C 0.88945 0.09969 0.03896 0.0
C224 C 0.85725 0.12983 0.00536 0.0
C225 C 0.8401 0.1868 0.07632 0.0
H226 H 0.7812 0.1952 0.9951 0.0
C227 C 0.75763 0.27116 0.01326 0.0
C228 C 0.77565 0.29269 0.00824 0.0
C229 C 0.76708 0.24623 0.02736 0.0
C230 C 0.7972 0.19303 0.01865 0.0
H231 H 0.88999 0.10188 0.1088 0.0
H232 H 0.85576 0.13714 0.11459 0.0
H233 H 0.80419 0.15182 -0.00043 0.0
H234 H 0.81704 0.30611 0.01517 0.0
H235 H 0.83379 0.26257 0.03962 0.0
H236 H 0.83353 0.22821 0.09467 0.0
C237 C 0.86132 0.12953 0.08295 0.0
C238 C 0.81056 0.16825 0.02084 0.0
C239 C 0.88086 0.10924 0.07958 0.0
C240 C 0.80287 0.28966 0.01934 0.0
C241 C 0.81235 0.26479 0.03347 0.0
C242 C 0.82674 0.21159 0.07412 0.0
C243 C 0.84991 0.14061 0.04583 0.0
C244 C 0.8327 0.16513 0.04873 0.0
C245 C 0.7947 0.24257 0.03645 0.0
C246 C 0.80571 0.21522 0.04432 0.0
H247 H 0.8828 0.10257 0.97019 0.0
H248 H 0.84904 0.13808 0.97609 0.0
H249 H 0.8572 0.18514 0.09796 0.0
H250 H 0.73651 0.27326 0.00456 0.0
H251 H 0.75296 0.22959 0.02978 0.0
C252 C 0.8907 0.88656 0.11044 0.0
C253 C 0.90383 0.88862 0.07059 0.0
C254 C 0.87026 0.86739 0.11592 0.0
C255 C 0.83844 0.80602 0.06814 0.0
H256 H 0.77061 0.84139 0.09574 0.0
C257 C 0.73838 0.77143 0.9947 0.0
C258 C 0.71421 0.77553 0.01695 0.0
C259 C 0.76284 0.77994 0.01283 0.0
C260 C 0.78935 0.83085 0.08908 0.0
H261 H 0.90756 0.87064 0.00668 0.0
H262 H 0.87223 0.83713 0.01642 0.0
H263 H 0.813 0.86532 0.10832 0.0
H264 H 0.69601 0.79064 0.07575 0.0
H265 H 0.73907 0.80542 0.10823 0.0
H266 H 0.81483 0.77187 0.04754 0.0
C267 C 0.87753 0.85042 0.04329 0.0
C268 C 0.81368 0.84463 0.09628 0.0
C269 C 0.89763 0.86978 0.03759 0.0
C270 C 0.71464 0.78737 0.05822 0.0
C271 C 0.7392 0.79588 0.07658 0.0
C272 C 0.81415 0.79213 0.06136 0.0
C273 C 0.86301 0.84964 0.08195 0.0
C274 C 0.83834 0.83276 0.08414 0.0
C275 C 0.76356 0.79269 0.05371 0.0
C276 C 0.78926 0.80486 0.06988 0.0
H277 H 0.89518 0.90065 0.13664 0.0
H278 H 0.85948 0.86705 0.14613 0.0
H279 H 0.85723 0.79631 0.05902 0.0
H280 H 0.73828 0.76243 0.96262 0.0
H281 H 0.781 0.77763 0.99383 0.0
C282 C 0.12398 0.88475 0.05805 0.0
C283 C 0.11421 0.89531 0.01933 0.0
C284 C 0.14171 0.86278 0.05757 0.0
C285 C 0.18527 0.81971 0.98696 0.0
H286 H 0.16177 0.76258 0.06174 0.0
C287 C 0.20831 0.70722 0.95335 0.0
C288 C 0.21339 0.69062 0.98833 0.0
C289 C 0.20092 0.7342 0.96023 0.0
C290 C 0.16899 0.77843 0.04121 0.0
H291 H 0.11705 0.89232 0.94976 0.0
H292 H 0.14762 0.85389 0.94898 0.0
H293 H 0.14153 0.80718 0.06865 0.0
H294 H 0.2156 0.68857 0.05761 0.0
H295 H 0.20277 0.73597 0.06999 0.0
H296 H 0.21215 0.79055 0.95864 0.0
C297 C 0.14173 0.86263 0.97974 0.0
C298 C 0.1574 0.80407 0.04521 0.0
C299 C 0.12405 0.88463 0.9802 0.0
C300 C 0.2116 0.70122 0.03028 0.0
C301 C 0.2042 0.72823 0.03726 0.0
C302 C 0.19687 0.79403 0.98295 0.0
C303 C 0.15005 0.8509 0.01839 0.0
C304 C 0.16501 0.82486 0.01758 0.0
C305 C 0.19849 0.74495 0.00229 0.0
C306 C 0.18846 0.77296 0.00946 0.0
H307 H 0.11707 0.89267 0.08881 0.0
H308 H 0.14818 0.85452 0.08791 0.0
H309 H 0.19183 0.83541 0.9656 0.0
H310 H 0.20959 0.69921 0.92072 0.0
H311 H 0.19628 0.74639 0.93263 0.0
C312 C 0.61718 0.6188 0.45463 0.0
C313 C 0.60294 0.61061 0.49116 0.0
C314 C 0.63852 0.63718 0.45853 0.0
C315 C 0.68902 0.65906 0.53852 0.0
H316 H 0.71035 0.70863 0.44981 0.0
C317 C 0.78874 0.71849 0.55033 0.0
C318 C 0.8045 0.71791 0.51308 0.0
C319 C 0.76184 0.70998 0.54867 0.0
C320 C 0.70466 0.69482 0.47478 0.0
H321 H 0.59856 0.61705 0.56002 0.0
H322 H 0.63555 0.6495 0.56668 0.0
H323 H 0.66608 0.68675 0.44573 0.0
H324 H 0.80508 0.70884 0.44481 0.0
H325 H 0.75787 0.69366 0.44165 0.0
H326 H 0.72772 0.66663 0.5671 0.0
C327 C 0.63061 0.64116 0.53514 0.0
C328 C 0.67931 0.6823 0.47248 0.0
C329 C 0.60928 0.62268 0.53127 0.0
C330 C 0.79304 0.70945 0.47384 0.0
C331 C 0.76607 0.70096 0.47208 0.0
C332 C 0.71426 0.67164 0.5409 0.0
C333 C 0.64605 0.64793 0.49903 0.0
C334 C 0.67139 0.66389 0.50394 0.0
C335 C 0.7503 0.70073 0.50965 0.0
C336 C 0.72255 0.6893 0.5087 0.0
H337 H 0.61272 0.61009 0.42315 0.0
H338 H 0.65003 0.64177 0.43006 0.0
H339 H 0.68386 0.64462 0.56287 0.0
H340 H 0.79738 0.72506 0.58089 0.0
H341 H 0.75014 0.71035 0.57803 0.0
C342 C 0.3797 0.62629 0.44733 0.0
C343 C 0.38716 0.61073 0.48278 0.0
C344 C 0.3618 0.64792 0.45237 0.0
C345 C 0.34106 0.69622 0.53664 0.0
H346 H 0.29269 0.72239 0.44834 0.0
C347 C 0.28367 0.79637 0.55847 0.0
C348 C 0.28451 0.81365 0.52346 0.0
C349 C 0.29193 0.76952 0.55365 0.0
C350 C 0.3062 0.71534 0.47319 0.0
H351 H 0.37972 0.60415 0.55051 0.0
H352 H 0.3481 0.64156 0.55904 0.0
H353 H 0.31324 0.67767 0.43991 0.0
H354 H 0.29376 0.81706 0.45594 0.0
H355 H 0.30859 0.76993 0.44727 0.0
H356 H 0.33454 0.73398 0.5695 0.0
C357 C 0.35668 0.6375 0.5276 0.0
C358 C 0.31793 0.68975 0.46842 0.0
C359 C 0.37469 0.61593 0.52262 0.0
C360 C 0.29305 0.80384 0.48326 0.0
C361 C 0.30131 0.77692 0.47834 0.0
C362 C 0.32929 0.7217 0.54146 0.0
C363 C 0.35084 0.65436 0.49291 0.0
C364 C 0.33581 0.68006 0.49983 0.0
C365 C 0.30117 0.75958 0.51367 0.0
C366 C 0.31203 0.73171 0.50954 0.0
H367 H 0.38878 0.62276 0.41611 0.0
H368 H 0.35788 0.66054 0.42501 0.0
H369 H 0.35517 0.6897 0.56103 0.0
H370 H 0.27696 0.80372 0.5897 0.0
H371 H 0.29127 0.75659 0.5813 0.0
C372 C 0.38051 0.37403 0.49337 0.0
C373 C 0.39259 0.38984 0.52628 0.0
C374 C 0.35971 0.35605 0.50262 0.0
C375 C 0.3053 0.34924 0.58003 0.0
H376 H 0.29072 0.28288 0.51543 0.0
C377 C 0.2033 0.29366 0.59295 0.0
C378 C 0.19174 0.28575 0.55351 0.0
C379 C 0.23028 0.30198 0.59494 0.0
C380 C 0.29451 0.3014 0.53367 0.0
H381 H 0.39374 0.39753 0.59524 0.0
H382 H 0.35738 0.36595 0.61136 0.0
H383 H 0.33511 0.30423 0.51062 0.0
H384 H 0.19861 0.27957 0.48545 0.0
H385 H 0.2458 0.29448 0.4885 0.0
H386 H 0.26448 0.34701 0.60189 0.0
C387 C 0.36377 0.36787 0.5783 0.0
C388 C 0.31992 0.31357 0.53101 0.0
C389 C 0.38468 0.38586 0.56906 0.0
C390 C 0.20737 0.28565 0.51616 0.0
C391 C 0.23435 0.29395 0.51807 0.0
C392 C 0.27991 0.33707 0.5827 0.0
C393 C 0.3505 0.35341 0.54499 0.0
C394 C 0.32536 0.33801 0.55327 0.0
C395 C 0.24605 0.30248 0.55743 0.0
C396 C 0.274 0.3134 0.55868 0.0
H397 H 0.38625 0.37639 0.46009 0.0
H398 H 0.34982 0.3454 0.47614 0.0
H399 H 0.30866 0.36826 0.5971 0.0
H400 H 0.1914 0.29369 0.62212 0.0
H401 H 0.23877 0.30816 0.62577 0.0
C402 C 0.62235 0.39692 0.5274 0.0
C403 C 0.60738 0.39903 0.48911 0.0
C404 C 0.64243 0.37725 0.53117 0.0
C405 C 0.6824 0.32558 0.46918 0.0
H406 H 0.67941 0.28731 0.57657 0.0
C407 C 0.71938 0.21547 0.49131 0.0
C408 C 0.73212 0.20966 0.53031 0.0
C409 C 0.70882 0.2413 0.48462 0.0
C410 C 0.68085 0.29801 0.54662 0.0
H411 H 0.60303 0.38321 0.42379 0.0
H412 H 0.63736 0.34855 0.43076 0.0
H413 H 0.65299 0.32818 0.56821 0.0
H414 H 0.74491 0.22572 0.59231 0.0
H415 H 0.72658 0.27093 0.58077 0.0
H416 H 0.70949 0.29444 0.44722 0.0
C417 C 0.63393 0.36226 0.45778 0.0
C418 C 0.66575 0.32156 0.54184 0.0
C419 C 0.61403 0.38207 0.45388 0.0
C420 C 0.73512 0.22998 0.56195 0.0
C421 C 0.72453 0.25571 0.55542 0.0
C422 C 0.69736 0.30182 0.47388 0.0
C423 C 0.64785 0.35908 0.49686 0.0
C424 C 0.66607 0.33552 0.50292 0.0
C425 C 0.71074 0.26149 0.51708 0.0
C426 C 0.69652 0.28767 0.51254 0.0
H427 H 0.61799 0.40988 0.55501 0.0
H428 H 0.65321 0.37582 0.56141 0.0
H429 H 0.68342 0.336 0.43896 0.0
H430 H 0.71679 0.19985 0.46668 0.0
H431 H 0.69809 0.24509 0.45492 0.0
C432 C 0.04764 0.08047 0.17628 0.0
C433 C 0.02612 0.09115 0.15263 0.0
C434 C 0.06266 0.09704 0.20442 0.0
C435 C 0.05386 0.15941 0.26893 0.0
H436 H 0.12909 0.14777 0.29868 0.0
C437 C 0.10249 0.2166 0.41139 0.0
C438 C 0.11556 0.19983 0.44088 0.0
C439 C 0.09604 0.20691 0.3701 0.0
C440 C 0.10808 0.15127 0.2906 0.0
H441 H 0.00416 0.1277 0.13794 0.0
H442 H 0.03067 0.15683 0.18631 0.0
H443 H 0.1096 0.12439 0.23573 0.0
H444 H 0.13377 0.16045 0.44932 0.0
H445 H 0.12219 0.14338 0.37739 0.0
H446 H 0.05207 0.18573 0.32412 0.0
C447 C 0.03569 0.13555 0.18393 0.0
C448 C 0.0969 0.13785 0.25467 0.0
C449 C 0.02056 0.11892 0.15614 0.0
C450 C 0.12337 0.1737 0.42744 0.0
C451 C 0.11701 0.16404 0.3861 0.0
C452 C 0.06505 0.17291 0.30455 0.0
C453 C 0.05641 0.12467 0.20938 0.0
C454 C 0.06948 0.14133 0.24397 0.0
C455 C 0.10262 0.18029 0.35741 0.0
C456 C 0.09211 0.16857 0.31634 0.0
H457 H 0.05196 0.05908 0.17481 0.0
H458 H 0.07818 0.08785 0.22392 0.0
H459 H 0.03256 0.16222 0.26227 0.0
H460 H 0.09609 0.23679 0.42085 0.0
H461 H 0.08518 0.21999 0.34851 0.0
C462 C 0.92616 0.05532 0.17211 0.0
C463 C 0.92694 0.02705 0.17536 0.0
C464 C 0.91155 0.07115 0.20163 0.0
C465 C 0.85634 0.0664 0.28076 0.0
H466 H 0.88785 0.13145 0.33152 0.0
C467 C 0.84642 0.12896 0.4479 0.0
C468 C 0.81822 0.12834 0.45304 0.0
C469 C 0.85801 0.12254 0.40818 0.0
C470 C 0.87872 0.1134 0.31748 0.0
H471 H 0.91327 0.9933 0.21325 0.0
H472 H 0.88826 0.02079 0.26487 0.0
H473 H 0.91181 0.10705 0.27426 0.0
H474 H 0.77998 0.12254 0.41982 0.0
H475 H 0.80023 0.11182 0.35006 0.0
H476 H 0.82396 0.07183 0.32521 0.0
C477 C 0.8985 0.03077 0.23888 0.0
C478 C 0.89235 0.09954 0.28447 0.0
C479 C 0.91309 0.01501 0.20942 0.0
C480 C 0.80178 0.12321 0.41684 0.0
C481 C 0.81338 0.11679 0.37701 0.0
C482 C 0.84274 0.08022 0.31368 0.0
C483 C 0.89735 0.05899 0.23512 0.0
C484 C 0.88163 0.07548 0.2666 0.0
C485 C 0.84165 0.11541 0.37265 0.0
C486 C 0.85408 0.1035 0.3332 0.0
H487 H 0.93652 0.06532 0.14667 0.0
H488 H 0.91099 0.09286 0.19778 0.0
H489 H 0.84731 0.04819 0.26707 0.0
H490 H 0.85958 0.13322 0.47514 0.0
H491 H 0.87983 0.12154 0.40612 0.0
C492 C 0.96476 0.92188 0.17637 0.0
C493 C 0.98418 0.91027 0.14907 0.0
C494 C 0.94871 0.90562 0.2021 0.0
C495 C 0.95055 0.83968 0.25373 0.0
H496 H 0.87715 0.85838 0.2858 0.0
C497 C 0.89656 0.78387 0.38844 0.0
C498 C 0.88608 0.80128 0.42051 0.0
C499 C 0.9036 0.79384 0.34829 0.0
C500 C 0.8976 0.85286 0.27701 0.0
H501 H 0.00193 0.87263 0.12644 0.0
H502 H 0.97373 0.84402 0.17115 0.0
H503 H 0.89901 0.88196 0.22699 0.0
H504 H 0.87295 0.84226 0.43473 0.0
H505 H 0.88541 0.85973 0.36477 0.0
H506 H 0.94947 0.81113 0.3043 0.0
C507 C 0.97098 0.86573 0.173 0.0
C508 C 0.91015 0.8664 0.24346 0.0
C509 C 0.98711 0.88206 0.14741 0.0
C510 C 0.88125 0.82846 0.41075 0.0
C511 C 0.88814 0.83839 0.37054 0.0
C512 C 0.93797 0.82606 0.28701 0.0
C513 C 0.95187 0.87736 0.20117 0.0
C514 C 0.93705 0.86047 0.23226 0.0
C515 C 0.90014 0.82137 0.33934 0.0
C516 C 0.91163 0.83299 0.29978 0.0
H517 H 0.96273 0.94358 0.17911 0.0
H518 H 0.93465 0.91533 0.22406 0.0
H519 H 0.97139 0.83483 0.24643 0.0
H520 H 0.90063 0.76286 0.3951 0.0
H521 H 0.91258 0.78021 0.32471 0.0
C522 C 0.08253 0.94352 0.16241 0.0
C523 C 0.0757 0.97057 0.17142 0.0
C524 C 0.09384 0.9274 0.19414 0.0
C525 C 0.10261 0.92233 0.31133 0.0
H526 H 0.16931 0.88486 0.28326 0.0
C527 C 0.202 0.88966 0.40848 0.0
C528 C 0.18959 0.87982 0.4455 0.0
C529 C 0.18684 0.89332 0.37101 0.0
C530 C 0.15061 0.89506 0.29146 0.0
H531 H 0.0746 0.00176 0.22149 0.0
H532 H 0.0942 0.9737 0.27691 0.0
H533 H 0.1436 0.90689 0.22648 0.0
H534 H 0.15261 0.86337 0.47132 0.0
H535 H 0.12622 0.86938 0.40572 0.0
H536 H 0.11009 0.91173 0.37644 0.0
C537 C 0.09072 0.96485 0.24521 0.0
C538 C 0.1358 0.90747 0.25897 0.0
C539 C 0.07965 0.98097 0.21336 0.0
C540 C 0.1625 0.87139 0.44331 0.0
C541 C 0.14741 0.87492 0.40587 0.0
C542 C 0.1173 0.90984 0.3437 0.0
C543 C 0.09829 0.93802 0.23576 0.0
C544 C 0.11203 0.92183 0.26885 0.0
C545 C 0.15909 0.88708 0.37 0.0
C546 C 0.14178 0.8966 0.33432 0.0
H547 H 0.07998 0.93497 0.13064 0.0
H548 H 0.09935 0.90674 0.18603 0.0
H549 H 0.08422 0.93302 0.31976 0.0
H550 H 0.22283 0.89643 0.40947 0.0
H551 H 0.19641 0.90288 0.344 0.0
C552 C 0.08983 0.97318 0.88649 0.0
C553 C 0.07929 -0.00051 0.88943 0.0
C554 C 0.09936 0.96284 0.84744 0.0
C555 C 0.12703 0.98543 0.74496 0.0
H556 H 0.12232 0.90902 0.71527 0.0
C557 C 0.17361 0.93696 0.59079 0.0
C558 C 0.18857 0.91325 0.59732 0.0
C559 C 0.15825 0.94833 0.6241 0.0
C560 C 0.12384 0.93039 0.72329 0.0
H561 H 0.06914 0.03515 0.85324 0.0
H562 H 0.08558 0.0169 0.78462 0.0
H563 H 0.09672 0.92707 0.7762 0.0
H564 H 0.19942 0.88291 0.64357 0.0
H565 H 0.17256 0.90279 0.70187 0.0
H566 H 0.15425 0.9886 0.69192 0.0
C567 C 0.08693 0.00448 0.81282 0.0
C568 C 0.10921 0.94073 0.75813 0.0
C569 C 0.07741 0.01488 0.85206 0.0
C570 C 0.18822 0.90131 0.63784 0.0
C571 C 0.17265 0.9125 0.67097 0.0
C572 C 0.14148 0.9751 0.70983 0.0
C573 C 0.09846 0.97851 0.81028 0.0
C574 C 0.11114 0.96825 0.77001 0.0
C575 C 0.15736 0.93597 0.6643 0.0
C576 C 0.14047 0.94738 0.69931 0.0
H577 H 0.09148 0.96075 0.91464 0.0
H578 H 0.10842 0.94292 0.84684 0.0
H579 H 0.12923 0.00665 0.75353 0.0
H580 H 0.17369 0.94661 0.55985 0.0
H581 H 0.14661 0.96642 0.61815 0.0
C582 C 0.00199 0.07668 0.84602 0.0
C583 C 0.01404 0.07887 0.88695 0.0
C584 C 0.01551 0.08603 0.80985 0.0
C585 C 0.06736 0.1355 0.78139 0.0
H586 H 0.06362 0.10056 0.66876 0.0
C587 C 0.12062 0.181 0.6361 0.0
C588 C 0.10536 0.18204 0.59798 0.0
C589 C 0.11191 0.16541 0.67028 0.0
C590 C 0.06471 0.11061 0.7 0.0
H591 H 0.05023 0.09141 0.92173 0.0
H592 H 0.07385 0.10734 0.85868 0.0
H593 H 0.04403 0.07823 0.73075 0.0
H594 H 0.06927 0.16717 0.56546 0.0
H595 H 0.05395 0.14006 0.62526 0.0
H596 H 0.08749 0.16807 0.75083 0.0
C597 C 0.05377 0.0989 0.85461 0.0
C598 C 0.0535 0.09783 0.73545 0.0
C599 C 0.04026 0.08964 0.89073 0.0
C600 C 0.08162 0.16653 0.59427 0.0
C601 C 0.07286 0.15097 0.62851 0.0
C602 C 0.07852 0.14824 0.74606 0.0
C603 C 0.04134 0.09772 0.81391 0.0
C604 C 0.05454 0.11026 0.77648 0.0
C605 C 0.0877 0.15058 0.66716 0.0
C606 C 0.07716 0.13607 0.70489 0.0
H607 H 0.98185 0.06837 0.84203 0.0
H608 H 0.0053 0.08502 0.77898 0.0
H609 H 0.06805 0.14587 0.81239 0.0
H610 H 0.13923 0.1924 0.6396 0.0
H611 H 0.12404 0.16515 0.69935 0.0
C612 C 0.91537 0.98546 0.85927 0.0
C613 C 0.91562 0.00069 0.89796 0.0
C614 C 0.90436 0.99629 0.82187 0.0
C615 C 0.85549 0.0474 0.78752 0.0
H616 H 0.88994 0.0399 0.67619 0.0
C617 C 0.803 0.08185 0.63269 0.0
C618 C 0.81884 0.09727 0.6049 0.0
C619 C 0.81499 0.06806 0.66654 0.0
C620 C 0.88013 0.04217 0.70711 0.0
H621 H 0.9054 0.0395 0.92737 0.0
H622 H 0.88635 0.0583 0.8623 0.0
H623 H 0.91138 0.02038 0.73944 0.0
H624 H 0.85974 0.11002 0.59058 0.0
H625 H 0.88064 0.08586 0.6496 0.0
H626 H 0.82453 0.06957 0.75562 0.0
C627 C 0.89425 0.03788 0.86099 0.0
C628 C 0.89228 0.03083 0.74319 0.0
C629 C 0.90531 0.02714 0.89822 0.0
C630 C 0.847 0.09805 0.61111 0.0
C631 C 0.85899 0.08421 0.64489 0.0
C632 C 0.8433 0.05859 0.75151 0.0
C633 C 0.89332 0.02247 0.82258 0.0
C634 C 0.88019 0.03358 0.78383 0.0
C635 C 0.84307 0.06934 0.67329 0.0
C636 C 0.85556 0.05628 0.71097 0.0
H637 H 0.92329 0.96505 0.85799 0.0
H638 H 0.90384 0.98392 0.79274 0.0
H639 H 0.84552 0.04955 0.81834 0.0
H640 H 0.78132 0.08042 0.62829 0.0
H641 H 0.80225 0.05642 0.68752 0.0
C642 C 0.96368 0.91563 0.87375 0.0
C643 C 0.99041 0.92523 0.87287 0.0
C644 C 0.95149 0.90505 0.83651 0.0
C645 C 0.95666 0.90005 0.71801 0.0
H646 H 0.9209 0.8311 0.73319 0.0
C647 C 0.89947 0.8421 0.58103 0.0
C648 C 0.90381 0.81401 0.5783 0.0
C649 C 0.90951 0.85733 0.61597 0.0
C650 C 0.9309 0.85029 0.7284 0.0
H651 H 0.02485 0.93252 0.83171 0.0
H652 H 0.00359 0.91373 0.7667 0.0
H653 H 0.93871 0.85581 0.79562 0.0
H654 H 0.92295 0.78011 0.60942 0.0
H655 H 0.94017 0.80661 0.67048 0.0
H656 H 0.94925 0.8941 0.65049 0.0
C657 C 0.99203 0.91455 0.79619 0.0
C658 C 0.94081 0.86461 0.76421 0.0
C659 C 0.00426 0.92516 0.83349 0.0
C660 C 0.91874 0.80159 0.61097 0.0
C661 C 0.92865 0.81677 0.64593 0.0
C662 C 0.94658 0.88575 0.6821 0.0
C663 C 0.96575 0.90379 0.79757 0.0
C664 C 0.95397 0.88955 0.75942 0.0
C665 C 0.92398 0.84476 0.64898 0.0
C666 C 0.93385 0.86057 0.68694 0.0
H667 H 0.95238 0.91552 0.90348 0.0
H668 H 0.93104 0.89734 0.8384 0.0
H669 H 0.96658 0.91929 0.71337 0.0
H670 H 0.8878 0.85224 0.55664 0.0
H671 H 0.9054 0.87882 0.61767 0.0
C672 C 0.49623 0.59115 0.65664 0.0
C673 C 0.51116 0.58352 0.61996 0.0
C674 C 0.50911 0.60236 0.69282 0.0
C675 C 0.57007 0.63995 0.72467 0.0
H676 H 0.54858 0.62132 0.84009 0.0
C677 C 0.62346 0.68441 0.87573 0.0
C678 C 0.60689 0.69222 0.9104 0.0
C679 C 0.61275 0.66984 0.84067 0.0
C680 C 0.55462 0.62692 0.80806 0.0
H681 H 0.55135 0.58137 0.59327 0.0
H682 H 0.57398 0.60082 0.65632 0.0
H683 H 0.52845 0.59744 0.77844 0.0
H684 H 0.56603 0.69126 0.93518 0.0
H685 H 0.54726 0.666 0.87384 0.0
H686 H 0.59592 0.66973 0.75416 0.0
C687 C 0.55223 0.59828 0.65685 0.0
C688 C 0.54314 0.6132 0.77278 0.0
C689 C 0.53931 0.58693 0.62071 0.0
C690 C 0.57937 0.68521 0.90921 0.0
C691 C 0.56864 0.67069 0.87411 0.0
C692 C 0.58151 0.65373 0.75994 0.0
C693 C 0.53722 0.60632 0.69315 0.0
C694 C 0.55057 0.61973 0.7307 0.0
C695 C 0.58522 0.6628 0.83946 0.0
C696 C 0.57375 0.64753 0.80203 0.0
H697 H 0.47448 0.58866 0.65738 0.0
H698 H 0.49693 0.60858 0.72011 0.0
H699 H 0.57593 0.64571 0.69261 0.0
H700 H 0.64484 0.68915 0.87604 0.0
H701 H 0.62614 0.66375 0.81479 0.0
C702 C 0.41272 0.55465 0.61385 0.0
C703 C 0.4262 0.53029 0.62131 0.0
C704 C 0.4032 0.57056 0.64824 0.0
C705 C 0.40562 0.57809 0.76806 0.0
H706 H 0.3314 0.60175 0.75439 0.0
C707 C 0.33049 0.58613 0.907 0.0
C708 C 0.3136 0.60895 0.9102 0.0
C709 C 0.34734 0.58228 0.87163 0.0
C710 C 0.35229 0.59573 0.7585 0.0
H711 H 0.44102 0.50366 0.67056 0.0
H712 H 0.42393 0.53079 0.73043 0.0
H713 H 0.35638 0.58514 0.69191 0.0
H714 H 0.3015 0.64574 0.87846 0.0
H715 H 0.33036 0.63831 0.81563 0.0
H716 H 0.40077 0.58718 0.83523 0.0
C717 C 0.42117 0.5382 0.6982 0.0
C718 C 0.36669 0.58628 0.72269 0.0
C719 C 0.43074 0.52245 0.66384 0.0
C720 C 0.31396 0.62777 0.87685 0.0
C721 C 0.33059 0.62366 0.84104 0.0
C722 C 0.39111 0.58724 0.8039 0.0
C723 C 0.40676 0.56218 0.69084 0.0
C724 C 0.39326 0.57657 0.72727 0.0
C725 C 0.34745 0.60089 0.83821 0.0
C726 C 0.36408 0.5954 0.7996 0.0
H727 H 0.40817 0.56063 0.58155 0.0
H728 H 0.39231 0.58897 0.64139 0.0
H729 H 0.42623 0.57135 0.77259 0.0
H730 H 0.33031 0.57082 0.93137 0.0
H731 H 0.35973 0.56424 0.8698 0.0
C732 C 0.45616 0.42564 0.63403 0.0
C733 C 0.48154 0.41722 0.61902 0.0
C734 C 0.44245 0.41079 0.66481 0.0
C735 C 0.4373 0.34406 0.71331 0.0
H736 H 0.41374 0.38404 0.81487 0.0
C737 C 0.40767 0.29147 0.87043 0.0
C738 C 0.38807 0.30372 0.89677 0.0
C739 C 0.41664 0.3043 0.83348 0.0
C740 C 0.41963 0.37254 0.78644 0.0
H741 H 0.51231 0.3862 0.62389 0.0
H742 H 0.48825 0.3601 0.6775 0.0
H743 H 0.43335 0.40815 0.75524 0.0
H744 H 0.36137 0.33811 0.90434 0.0
H745 H 0.37614 0.36008 0.83904 0.0
H746 H 0.42338 0.30844 0.74419 0.0
C747 C 0.47892 0.37821 0.66528 0.0
C748 C 0.43099 0.38641 0.75234 0.0
C749 C 0.49276 0.39327 0.63487 0.0
C750 C 0.37677 0.32845 0.88472 0.0
C751 C 0.38539 0.34107 0.84747 0.0
C752 C 0.42558 0.33017 0.74722 0.0
C753 C 0.45379 0.38703 0.68093 0.0
C754 C 0.4402 0.37229 0.71568 0.0
C755 C 0.40587 0.32947 0.82184 0.0
C756 C 0.41686 0.34421 0.78447 0.0
H757 H 0.44719 0.44404 0.62299 0.0
H758 H 0.42304 0.41798 0.67625 0.0
H759 H 0.44405 0.33275 0.68516 0.0
H760 H 0.41682 0.27248 0.87933 0.0
H761 H 0.43268 0.29489 0.81497 0.0
C762 C 0.58014 0.50424 0.66316 0.0
C763 C 0.57303 0.48886 0.62628 0.0
C764 C 0.59262 0.49211 0.69807 0.0
C765 C 0.60509 0.42698 0.74939 0.0
H766 H 0.66716 0.46453 0.79867 0.0
C767 C 0.6996 0.40599 0.87237 0.0
C768 C 0.68577 0.39505 0.90731 0.0
C769 C 0.68531 0.41685 0.83802 0.0
C770 C 0.64996 0.45373 0.78509 0.0
H771 H 0.57318 0.44859 0.59773 0.0
H772 H 0.5949 0.42729 0.6588 0.0
H773 H 0.6427 0.4843 0.73888 0.0
H774 H 0.6462 0.38651 0.93348 0.0
H775 H 0.62119 0.40573 0.87349 0.0
H776 H 0.61261 0.39626 0.7955 0.0
C777 C 0.59055 0.44873 0.66068 0.0
C778 C 0.63579 0.46517 0.75118 0.0
C779 C 0.57808 0.46093 0.62563 0.0
C780 C 0.65737 0.39504 0.90712 0.0
C781 C 0.64307 0.40577 0.87263 0.0
C782 C 0.61921 0.41558 0.78356 0.0
C783 C 0.59831 0.46431 0.69697 0.0
C784 C 0.61319 0.45195 0.733 0.0
C785 C 0.65691 0.41687 0.83782 0.0
C786 C 0.64181 0.42884 0.80167 0.0
H787 H 0.57633 0.5258 0.66498 0.0
H788 H 0.59796 0.50455 0.72591 0.0
H789 H 0.58766 0.41642 0.73613 0.0
H790 H 0.72149 0.40644 0.87182 0.0
H791 H 0.69651 0.42506 0.81144 0.0
C792 C 0.61019 0.49011 0.32506 0.0
C793 C 0.60325 0.47714 0.36323 0.0
C794 C 0.62539 0.47671 0.29365 0.0
C795 C 0.64188 0.41054 0.24906 0.0
H796 H 0.70018 0.44964 0.1951 0.0
C797 C 0.6983 0.3686 0.09855 0.0
C798 C 0.70083 0.38746 0.0656 0.0
C799 C 0.69035 0.37705 0.13986 0.0
C800 C 0.68396 0.43844 0.2098 0.0
H801 H 0.60678 0.4398 0.39818 0.0
H802 H 0.63295 0.41607 0.34241 0.0
H803 H 0.67815 0.46903 0.2585 0.0
H804 H 0.69826 0.42997 0.05048 0.0
H805 H 0.68405 0.44458 0.12181 0.0
H806 H 0.64687 0.3805 0.1991 0.0
C807 C 0.62664 0.43672 0.33721 0.0
C808 C 0.6714 0.44953 0.2461 0.0
C809 C 0.61166 0.45029 0.36905 0.0
C810 C 0.6961 0.41492 0.07504 0.0
C811 C 0.6883 0.42333 0.11614 0.0
C812 C 0.65436 0.39948 0.21244 0.0
C813 C 0.63384 0.44995 0.29941 0.0
C814 C 0.64969 0.4361 0.26526 0.0
C815 C 0.6851 0.40452 0.14897 0.0
C816 C 0.67495 0.41377 0.19163 0.0
H817 H 0.60408 0.51077 0.31947 0.0
H818 H 0.63029 0.48725 0.26449 0.0
H819 H 0.62513 0.39982 0.26321 0.0
H820 H 0.7018 0.3473 0.0921 0.0
H821 H 0.68819 0.36212 0.16459 0.0
C822 C 0.50801 0.61777 0.32146 0.0
C823 C 0.52123 0.609 0.35871 0.0
C824 C 0.52179 0.63284 0.2912 0.0
C825 C 0.58849 0.64633 0.24803 0.0
H826 H 0.55194 0.70729 0.19719 0.0
C827 C 0.63253 0.70344 0.10303 0.0
C828 C 0.61379 0.70717 0.06957 0.0
C829 C 0.62378 0.69528 0.14352 0.0
C830 C 0.56242 0.69032 0.21105 0.0
H831 H 0.55943 0.6091 0.39326 0.0
H832 H 0.58373 0.63522 0.33966 0.0
H833 H 0.53193 0.6852 0.25873 0.0
H834 H 0.57123 0.70655 0.05272 0.0
H835 H 0.55604 0.69205 0.12273 0.0
H836 H 0.61845 0.65079 0.19916 0.0
C837 C 0.56261 0.6304 0.33421 0.0
C838 C 0.55098 0.67771 0.24627 0.0
C839 C 0.5487 0.61547 0.36483 0.0
C840 C 0.58616 0.70349 0.07773 0.0
C841 C 0.57744 0.6955 0.11804 0.0
C842 C 0.59992 0.65892 0.21256 0.0
C843 C 0.54918 0.6394 0.29727 0.0
C844 C 0.56347 0.65508 0.26427 0.0
C845 C 0.59613 0.69102 0.15129 0.0
C846 C 0.58654 0.68051 0.19289 0.0
H847 H 0.48688 0.61314 0.31566 0.0
H848 H 0.51104 0.6391 0.26267 0.0
H849 H 0.59849 0.62887 0.26123 0.0
H850 H 0.65396 0.70609 0.09756 0.0
H851 H 0.63862 0.69212 0.16861 0.0
C852 C 0.37665 0.52805 0.36942 0.0
C853 C 0.389 0.50263 0.36389 0.0
C854 C 0.36302 0.54 0.33526 0.0
C855 C 0.33115 0.5234 0.23021 0.0
H856 H 0.34142 0.59959 0.20805 0.0
C857 C 0.3075 0.56954 0.06696 0.0
C858 C 0.29502 0.59501 0.06604 0.0
C859 C 0.31616 0.55885 0.10574 0.0
C860 C 0.33802 0.57839 0.21424 0.0
H861 H 0.39697 0.46995 0.31809 0.0
H862 H 0.37354 0.49092 0.25849 0.0
H863 H 0.36236 0.57983 0.27133 0.0
H864 H 0.28149 0.62916 0.105 0.0
H865 H 0.2968 0.61038 0.1733 0.0
H866 H 0.30735 0.52181 0.17263 0.0
C867 C 0.37396 0.50142 0.28939 0.0
C868 C 0.35002 0.56706 0.25044 0.0
C869 C 0.38757 0.48949 0.32348 0.0
C870 C 0.29102 0.60945 0.10486 0.0
C871 C 0.29991 0.5988 0.1438 0.0
C872 C 0.31925 0.53469 0.19403 0.0
C873 C 0.36144 0.52676 0.29491 0.0
C874 C 0.34711 0.53932 0.25837 0.0
C875 C 0.31262 0.5734 0.14454 0.0
C876 C 0.32296 0.56218 0.18524 0.0
H877 H 0.37741 0.53872 0.40017 0.0
H878 H 0.35342 0.55944 0.34062 0.0
H879 H 0.32802 0.5021 0.23595 0.0
H880 H 0.31053 0.5578 0.03758 0.0
H881 H 0.32615 0.53936 0.10521 0.0
C882 C 0.47989 0.41229 0.31364 0.0
C883 C 0.47062 0.40976 0.35597 0.0
C884 C 0.46421 0.40306 0.27898 0.0
C885 C 0.41186 0.35366 0.25052 0.0
H886 H 0.41122 0.39223 0.14324 0.0
C887 C 0.36433 0.30966 0.09241 0.0
C888 C 0.3815 0.3113 0.0566 0.0
C889 C 0.37044 0.3239 0.13064 0.0
C890 C 0.41117 0.38125 0.17302 0.0
H891 H 0.43724 0.39615 0.39509 0.0
H892 H 0.40981 0.37988 0.33423 0.0
H893 H 0.43034 0.41382 0.2077 0.0
H894 H 0.41896 0.32866 0.03359 0.0
H895 H 0.42918 0.35367 0.09947 0.0
H896 H 0.39339 0.32075 0.21532 0.0
C897 C 0.42934 0.38888 0.32806 0.0
C898 C 0.42213 0.39358 0.20987 0.0
C899 C 0.44502 0.39826 0.36284 0.0
C900 C 0.40483 0.32749 0.05996 0.0
C901 C 0.41075 0.34183 0.09784 0.0
C902 C 0.40082 0.34131 0.21356 0.0
C903 C 0.43888 0.39104 0.28577 0.0
C904 C 0.4234 0.3796 0.24868 0.0
C905 C 0.39369 0.3402 0.13361 0.0
C906 C 0.40118 0.35468 0.17415 0.0
H907 H 0.49948 0.42108 0.30719 0.0
H908 H 0.47233 0.40465 0.24685 0.0
H909 H 0.41268 0.34231 0.2799 0.0
H910 H 0.34612 0.29751 0.09083 0.0
H911 H 0.35692 0.32232 0.15777 0.0
loop_
_geom_bond_atom_site_label_1
_geom_bond_atom_site_label_2
_geom_bond_distance
_geom_bond_site_symmetry_2
_ccdc_geom_bond_type
Zn0 O2 1.933 1_556 S
Zn0 O20 1.985 . S
Zn0 O31 1.971 . S
Zn1 O2 1.911 . S
Zn1 O21 1.970 . S
Zn1 O37 1.945 . S
Zn1 O44 1.981 . S
O2 Zn0 1.933 1_554 S
O2 Zn1 1.911 . S
O2 H3 0.841 1_655 S
H3 O2 0.841 1_455 S
C4 O5 1.246 . S
C4 O33 1.276 1_545 S
O5 C4 1.246 . S
Zn6 O8 1.911 . S
Zn6 O23 1.970 . S
Zn6 O40 1.945 . S
Zn6 O47 1.981 . S
Zn7 O8 1.933 1_556 S
Zn7 O22 1.985 . S
Zn7 O29 1.955 . S
O8 Zn6 1.911 . S
O8 Zn7 1.933 1_554 S
O8 H9 0.841 1_455 S
H9 O8 0.841 1_655 S
Zn10 O11 1.933 1_556 S
Zn10 O24 1.985 . S
Zn10 O33 1.955 . S
O11 Zn10 1.933 1_554 S
O11 Zn12 1.911 . S
O11 H13 0.841 1_565 S
Zn12 O11 1.911 . S
Zn12 O25 1.970 . S
Zn12 O41 1.981 . S
Zn12 O43 1.945 . S
H13 O11 0.841 1_545 S
Zn14 O15 1.933 1_556 S
Zn14 O27 1.985 . S
Zn14 O35 1.955 . S
O15 Zn14 1.933 1_554 S
O15 H16 0.841 1_545 S
O15 Zn17 1.911 . S
H16 O15 0.841 1_565 S
Zn17 O15 1.911 . S
Zn17 O28 1.970 . S
Zn17 O38 1.981 . S
Zn17 O46 1.945 . S
C18 O19 1.246 . S
C18 O35 1.276 1_565 S
O19 C18 1.246 . S
O20 Zn0 1.985 . S
O20 C30 1.245 1_556 S
O21 Zn1 1.970 . S
O21 C30 1.263 . S
O22 Zn7 1.985 . S
O22 C34 1.245 1_556 S
O23 Zn6 1.970 . S
O23 C34 1.263 . S
O24 Zn10 1.985 . S
O24 C39 1.245 1_556 S
O25 Zn12 1.970 . S
O25 C39 1.263 . S
C26 O37 1.262 1_455 S
C26 O38 1.245 . S
O27 Zn14 1.985 . S
O27 C45 1.245 1_556 S
O28 Zn17 1.970 . S
O28 C45 1.263 . S
O29 Zn7 1.955 . S
O29 C48 1.276 1_455 S
C30 O20 1.245 1_554 S
C30 O21 1.263 . S
O31 Zn0 1.971 . S
O31 C50 1.237 1_655 S
C32 O40 1.262 1_655 S
C32 O41 1.245 . S
O33 C4 1.276 1_565 S
O33 Zn10 1.955 . S
C34 O22 1.245 1_554 S
C34 O23 1.263 . S
O35 Zn14 1.955 . S
O35 C18 1.276 1_545 S
C36 O43 1.262 1_545 S
C36 O44 1.245 . S
O37 Zn1 1.945 . S
O37 C26 1.262 1_655 S
O38 Zn17 1.981 . S
O38 C26 1.245 . S
C39 O24 1.245 1_554 S
C39 O25 1.263 . S
O40 Zn6 1.945 . S
O40 C32 1.262 1_455 S
O41 Zn12 1.981 . S
O41 C32 1.245 . S
C42 O46 1.262 1_565 S
C42 O47 1.245 . S
O43 Zn12 1.945 . S
O43 C36 1.262 1_565 S
O44 Zn1 1.981 . S
O44 C36 1.245 . S
C45 O27 1.245 1_554 S
C45 O28 1.263 . S
O46 Zn17 1.945 . S
O46 C42 1.262 1_545 S
O47 Zn6 1.981 . S
O47 C42 1.245 . S
C48 O29 1.276 1_655 S
C48 O49 1.246 . S
O49 C48 1.246 . S
C50 O31 1.237 1_455 S
C50 O51 1.246 . S
O51 C50 1.246 . S
Zn52 O54 1.933 . S
Zn52 O72 1.985 . S
Zn52 O83 1.955 . S
Zn53 O54 1.911 . S
Zn53 O73 1.970 . S
Zn53 O89 1.945 . S
Zn53 O96 1.981 . S
O54 Zn52 1.933 . S
O54 Zn53 1.911 . S
O54 H55 0.841 . S
H55 O54 0.841 . S
C56 O57 1.246 . S
C56 O85 1.276 . S
O57 C56 1.246 . S
Zn58 O60 1.911 . S
Zn58 O75 1.970 . S
Zn58 O92 1.945 . S
Zn58 O99 1.981 . S
Zn59 O60 1.933 . S
Zn59 O74 1.985 . S
Zn59 O81 1.955 . S
O60 Zn58 1.911 . S
O60 Zn59 1.933 . S
O60 H61 0.841 . S
H61 O60 0.841 . S
Zn62 O63 1.933 . S
Zn62 O76 1.985 . S
Zn62 O85 1.955 . S
O63 Zn62 1.933 . S
O63 Zn64 1.911 . S
O63 H65 0.841 . S
Zn64 O63 1.911 . S
Zn64 O77 1.970 . S
Zn64 O93 1.981 . S
Zn64 O95 1.945 . S
H65 O63 0.841 . S
Zn66 O67 1.933 . S
Zn66 O79 1.985 . S
Zn66 O87 1.955 . S
O67 Zn66 1.933 . S
O67 H68 0.841 . S
O67 Zn69 1.911 . S
H68 O67 0.841 . S
Zn69 O67 1.911 . S
Zn69 O80 1.970 . S
Zn69 O90 1.981 . S
Zn69 O98 1.945 . S
C70 O71 1.246 . S
C70 O87 1.276 . S
O71 C70 1.246 . S
O72 Zn52 1.985 . S
O72 C82 1.245 . S
O73 Zn53 1.970 . S
O73 C82 1.263 . S
O74 Zn59 1.985 . S
O74 C86 1.245 . S
O75 Zn58 1.970 . S
O75 C86 1.263 . S
O76 Zn62 1.985 . S
O76 C91 1.245 . S
O77 Zn64 1.970 . S
O77 C91 1.263 . S
C78 O89 1.262 . S
C78 O90 1.245 . S
O79 Zn66 1.985 . S
O79 C97 1.245 . S
O80 Zn69 1.970 . S
O80 C97 1.263 . S
O81 Zn59 1.955 . S
O81 C100 1.276 . S
C82 O72 1.245 . S
C82 O73 1.263 . S
O83 Zn52 1.955 . S
O83 C102 1.276 . S
C84 O92 1.262 . S
C84 O93 1.245 . S
O85 C56 1.276 . S
O85 Zn62 1.955 . S
C86 O74 1.245 . S
C86 O75 1.263 . S
O87 Zn66 1.955 . S
O87 C70 1.276 . S
C88 O95 1.262 . S
C88 O96 1.245 . S
O89 Zn53 1.945 . S
O89 C78 1.262 . S
O90 Zn69 1.981 . S
O90 C78 1.245 . S
C91 O76 1.245 . S
C91 O77 1.263 . S
O92 Zn58 1.945 . S
O92 C84 1.262 . S
O93 Zn64 1.981 . S
O93 C84 1.245 . S
C94 O98 1.262 . S
C94 O99 1.245 . S
O95 Zn64 1.945 . S
O95 C88 1.262 . S
O96 Zn53 1.981 . S
O96 C88 1.245 . S
C97 O79 1.245 . S
C97 O80 1.263 . S
O98 Zn69 1.945 . S
O98 C94 1.262 . S
O99 Zn58 1.981 . S
O99 C94 1.245 . S
C100 O81 1.276 . S
C100 O101 1.246 . S
O101 C100 1.246 . S
C102 O83 1.276 . S
C102 O103 1.246 . S
O103 C102 1.246 . S
H104 C107 0.929 . S
H105 C110 0.929 . S
H106 C112 0.930 . S
C107 H104 0.929 . S
C107 C108 1.398 1_554 S
C107 C109 1.396 . S
C108 C107 1.398 1_556 S
C108 C112 1.407 . S
C109 C107 1.396 . S
C109 C110 1.394 . S
C110 H105 0.929 . S
C110 C109 1.394 . S
C110 C111 1.400 . S
C111 C110 1.400 . S
C111 C112 1.376 1_554 S
C111 N113 1.418 1_554 S
C112 H106 0.930 . S
C112 C108 1.407 . S
C112 C111 1.376 1_556 S
N113 C111 1.418 1_556 S
N113 C114 1.244 1_556 S
C114 N113 1.244 1_554 S
H115 C118 0.929 . S
H116 C121 0.929 . S
H117 C123 0.930 . S
C118 H115 0.929 . S
C118 C119 1.398 1_554 S
C118 C120 1.396 . S
C119 C118 1.398 1_556 S
C119 C123 1.407 . S
C120 C118 1.396 . S
C120 C121 1.394 . S
C121 H116 0.929 . S
C121 C120 1.394 . S
C121 C122 1.382 . S
C122 C121 1.382 . S
C122 C123 1.392 1_554 S
C122 N124 1.420 1_554 S
C123 H117 0.930 . S
C123 C119 1.407 . S
C123 C122 1.392 1_556 S
N124 C122 1.420 1_556 S
N124 C125 1.244 1_556 S
C125 N124 1.244 1_554 S
H126 C129 0.929 . S
H127 C132 0.929 . S
H128 C134 0.930 . S
C129 H126 0.929 . S
C129 C130 1.398 . S
C129 C131 1.396 1_554 S
C130 C129 1.398 . S
C130 C134 1.407 . S
C131 C129 1.396 1_556 S
C131 C132 1.394 . S
C132 H127 0.929 . S
C132 C131 1.394 . S
C132 C133 1.382 1_556 S
C133 C132 1.382 1_554 S
C133 C134 1.392 . S
C133 N135 1.420 . S
C134 H128 0.930 . S
C134 C130 1.407 . S
C134 C133 1.392 . S
N135 C133 1.420 . S
N135 C136 1.244 . S
C136 N135 1.244 . S
H137 C140 0.929 . S
H138 C143 0.929 . S
H139 C145 0.930 . S
C140 H137 0.929 . S
C140 C141 1.398 . S
C140 C142 1.396 1_554 S
C141 C140 1.398 . S
C141 C145 1.407 . S
C142 C140 1.396 1_556 S
C142 C143 1.394 . S
C143 H138 0.929 . S
C143 C142 1.394 . S
C143 C144 1.382 1_556 S
C144 C143 1.382 1_554 S
C144 C145 1.392 . S
C144 N146 1.420 . S
C145 H139 0.930 . S
C145 C141 1.407 . S
C145 C144 1.392 . S
N146 C144 1.420 . S
N146 C147 1.244 . S
C147 N146 1.244 . S
H148 C151 0.929 . S
H149 C154 0.929 . S
H150 C156 0.930 . S
C151 H148 0.929 . S
C151 C152 1.398 . S
C151 C153 1.396 . S
C152 C151 1.398 . S
C152 C156 1.407 . S
C153 C151 1.396 . S
C153 C154 1.394 . S
C154 H149 0.929 . S
C154 C153 1.394 . S
C154 C155 1.382 . S
C155 C154 1.382 . S
C155 C156 1.392 . S
C155 N157 1.420 . S
C156 H150 0.930 . S
C156 C152 1.407 . S
C156 C155 1.392 . S
N157 C155 1.420 . S
N157 C158 1.244 . S
C158 N157 1.244 . S
H159 C162 0.929 . S
H160 C165 0.929 . S
H161 C167 0.930 . S
C162 H159 0.929 . S
C162 C163 1.398 . S
C162 C164 1.396 . S
C163 C162 1.398 . S
C163 C167 1.407 . S
C164 C162 1.396 . S
C164 C165 1.394 . S
C165 H160 0.929 . S
C165 C164 1.394 . S
C165 C166 1.382 . S
C166 C165 1.382 . S
C166 C167 1.392 . S
C166 N168 1.420 . S
C167 H161 0.930 . S
C167 C163 1.407 . S
C167 C166 1.392 . S
N168 C166 1.420 . S
N168 C169 1.244 . S
C169 N168 1.244 . S
H170 C173 0.929 . S
H171 C176 0.929 . S
H172 C178 0.930 . S
C173 H170 0.929 . S
C173 C174 1.398 . S
C173 C175 1.396 . S
C174 C173 1.398 . S
C174 C178 1.407 . S
C175 C173 1.396 . S
C175 C176 1.394 . S
C176 H171 0.929 . S
C176 C175 1.394 . S
C176 C177 1.382 . S
C177 C176 1.382 . S
C177 C178 1.392 . S
C177 N179 1.420 . S
C178 H172 0.930 . S
C178 C174 1.407 . S
C178 C177 1.392 . S
N179 C177 1.420 . S
N179 C180 1.244 . S
C180 N179 1.244 . S
H181 C184 0.929 . S
H182 C187 0.929 . S
H183 C189 0.930 . S
C184 H181 0.929 . S
C184 C185 1.398 . S
C184 C186 1.396 . S
C185 C184 1.398 . S
C185 C189 1.407 . S
C186 C184 1.396 . S
C186 C187 1.394 . S
C187 H182 0.929 . S
C187 C186 1.394 . S
C187 C188 1.382 . S
C188 C187 1.382 . S
C188 C189 1.392 . S
C188 N190 1.420 . S
C189 H183 0.930 . S
C189 C185 1.407 . S
C189 C188 1.392 . S
N190 C188 1.420 . S
N190 C191 1.244 . S
C191 N190 1.244 . S
C192 C193 1.349 1_556 S
C192 C194 1.327 . S
C192 H217 0.950 . S
C193 C192 1.349 1_554 S
C193 C209 1.349 . S
C194 C192 1.327 . S
C194 C213 1.429 1_556 S
C194 H218 0.950 . S
C195 C212 1.574 . S
C195 C214 1.368 . S
C195 H219 0.949 . S
H196 C200 0.949 . S
C197 C198 1.349 . S
C197 C199 1.327 . S
C197 H220 0.950 . S
C198 C197 1.349 . S
C198 C210 1.349 1_554 S
C199 C197 1.327 . S
C199 C215 1.429 . S
C199 H221 0.950 . S
C200 H196 0.949 . S
C200 C208 1.574 . S
C200 C216 1.368 1_556 S
H201 C209 0.950 . S
H202 C207 0.950 . S
H203 C208 0.949 . S
H204 C210 0.950 . S
H205 C211 0.950 . S
H206 C212 0.949 . S
C207 H202 0.950 . S
C207 C209 1.327 . S
C207 C213 1.429 . S
C208 C200 1.574 . S
C208 H203 0.949 . S
C208 C214 1.368 1_556 S
C209 C193 1.349 . S
C209 H201 0.950 . S
C209 C207 1.327 . S
C210 C198 1.349 1_556 S
C210 H204 0.950 . S
C210 C211 1.327 . S
C211 H205 0.950 . S
C211 C210 1.327 . S
C211 C215 1.429 1_556 S
C212 C195 1.574 . S
C212 H206 0.949 . S
C212 C216 1.368 . S
C213 C194 1.429 1_554 S
C213 C207 1.429 . S
C213 C214 1.523 . S
C214 C195 1.368 . S
C214 C208 1.368 1_554 S
C214 C213 1.523 . S
C215 C199 1.429 . S
C215 C211 1.429 1_554 S
C215 C216 1.523 . S
C216 C200 1.368 1_554 S
C216 C212 1.368 . S
C216 C215 1.523 . S
H217 C192 0.950 . S
H218 C194 0.950 . S
H219 C195 0.949 . S
H220 C197 0.950 . S
H221 C199 0.950 . S
C222 C223 1.349 1_556 S
C222 C224 1.327 . S
C222 H247 0.950 . S
C223 C222 1.349 1_554 S
C223 C239 1.349 . S
C224 C222 1.327 . S
C224 C243 1.429 1_556 S
C224 H248 0.950 . S
C225 C242 1.574 . S
C225 C244 1.368 . S
C225 H249 0.949 . S
H226 C230 0.949 . S
C227 C228 1.349 . S
C227 C229 1.327 . S
C227 H250 0.950 . S
C228 C227 1.349 . S
C228 C240 1.349 1_554 S
C229 C227 1.327 . S
C229 C245 1.429 . S
C229 H251 0.950 . S
C230 H226 0.949 . S
C230 C238 1.574 . S
C230 C246 1.368 1_556 S
H231 C239 0.950 . S
H232 C237 0.950 . S
H233 C238 0.949 . S
H234 C240 0.950 . S
H235 C241 0.950 . S
H236 C242 0.949 . S
C237 H232 0.950 . S
C237 C239 1.327 . S
C237 C243 1.429 . S
C238 C230 1.574 . S
C238 H233 0.949 . S
C238 C244 1.368 1_556 S
C239 C223 1.349 . S
C239 H231 0.950 . S
C239 C237 1.327 . S
C240 C228 1.349 1_556 S
C240 H234 0.950 . S
C240 C241 1.327 . S
C241 H235 0.950 . S
C241 C240 1.327 . S
C241 C245 1.429 1_556 S
C242 C225 1.574 . S
C242 H236 0.949 . S
C242 C246 1.368 . S
C243 C224 1.429 1_554 S
C243 C237 1.429 . S
C243 C244 1.523 . S
C244 C225 1.368 . S
C244 C238 1.368 1_554 S
C244 C243 1.523 . S
C245 C229 1.429 . S
C245 C241 1.429 1_554 S
C245 C246 1.523 . S
C246 C230 1.368 1_554 S
C246 C242 1.368 . S
C246 C245 1.523 . S
H247 C222 0.950 . S
H248 C224 0.950 . S
H249 C225 0.949 . S
H250 C227 0.950 . S
H251 C229 0.950 . S
C252 C253 1.349 . S
C252 C254 1.327 . S
C252 H277 0.950 . S
C253 C252 1.349 . S
C253 C269 1.349 1_554 S
C254 C252 1.327 . S
C254 C273 1.429 . S
C254 H278 0.950 . S
C255 C272 1.574 . S
C255 C274 1.368 1_556 S
C255 H279 0.949 . S
H256 C260 0.949 . S
C257 C258 1.349 1_556 S
C257 C259 1.327 . S
C257 H280 0.950 . S
C258 C257 1.349 1_554 S
C258 C270 1.349 . S
C259 C257 1.327 . S
C259 C275 1.429 1_556 S
C259 H281 0.950 . S
C260 H256 0.949 . S
C260 C268 1.574 . S
C260 C276 1.368 . S
H261 C269 0.950 . S
H262 C267 0.950 . S
H263 C268 0.949 . S
H264 C270 0.950 . S
H265 C271 0.950 . S
H266 C272 0.949 . S
C267 H262 0.950 . S
C267 C269 1.327 . S
C267 C273 1.429 1_556 S
C268 C260 1.574 . S
C268 H263 0.949 . S
C268 C274 1.368 . S
C269 C253 1.349 1_556 S
C269 H261 0.950 . S
C269 C267 1.327 . S
C270 C258 1.349 . S
C270 H264 0.950 . S
C270 C271 1.327 . S
C271 H265 0.950 . S
C271 C270 1.327 . S
C271 C275 1.429 . S
C272 C255 1.574 . S
C272 H266 0.949 . S
C272 C276 1.368 1_556 S
C273 C254 1.429 . S
C273 C267 1.429 1_554 S
C273 C274 1.523 . S
C274 C255 1.368 1_554 S
C274 C268 1.368 . S
C274 C273 1.523 . S
C275 C259 1.429 1_554 S
C275 C271 1.429 . S
C275 C276 1.523 . S
C276 C260 1.368 . S
C276 C272 1.368 1_554 S
C276 C275 1.523 . S
H277 C252 0.950 . S
H278 C254 0.950 . S
H279 C255 0.949 . S
H280 C257 0.950 . S
H281 C259 0.950 . S
C282 C283 1.349 . S
C282 C284 1.327 . S
C282 H307 0.950 . S
C283 C282 1.349 . S
C283 C299 1.349 1_554 S
C284 C282 1.327 . S
C284 C303 1.429 . S
C284 H308 0.950 . S
C285 C302 1.574 . S
C285 C304 1.368 1_556 S
C285 H309 0.949 . S
H286 C290 0.949 . S
C287 C288 1.349 1_556 S
C287 C289 1.327 . S
C287 H310 0.950 . S
C288 C287 1.349 1_554 S
C288 C300 1.349 . S
C289 C287 1.327 . S
C289 C305 1.429 1_556 S
C289 H311 0.950 . S
C290 H286 0.949 . S
C290 C298 1.574 . S
C290 C306 1.368 . S
H291 C299 0.950 . S
H292 C297 0.950 . S
H293 C298 0.949 . S
H294 C300 0.950 . S
H295 C301 0.950 . S
H296 C302 0.949 . S
C297 H292 0.950 . S
C297 C299 1.327 . S
C297 C303 1.429 1_556 S
C298 C290 1.574 . S
C298 H293 0.949 . S
C298 C304 1.368 . S
C299 C283 1.349 1_556 S
C299 H291 0.950 . S
C299 C297 1.327 . S
C300 C288 1.349 . S
C300 H294 0.950 . S
C300 C301 1.327 . S
C301 H295 0.950 . S
C301 C300 1.327 . S
C301 C305 1.429 . S
C302 C285 1.574 . S
C302 H296 0.949 . S
C302 C306 1.368 1_556 S
C303 C284 1.429 . S
C303 C297 1.429 1_554 S
C303 C304 1.523 . S
C304 C285 1.368 1_554 S
C304 C298 1.368 . S
C304 C303 1.523 . S
C305 C289 1.429 1_554 S
C305 C301 1.429 . S
C305 C306 1.523 . S
C306 C290 1.368 . S
C306 C302 1.368 1_554 S
C306 C305 1.523 . S
H307 C282 0.950 . S
H308 C284 0.950 . S
H309 C285 0.949 . S
H310 C287 0.950 . S
H311 C289 0.950 . S
C312 C313 1.349 . S
C312 C314 1.327 . S
C312 H337 0.950 . S
C313 C312 1.349 . S
C313 C329 1.349 . S
C314 C312 1.327 . S
C314 C333 1.429 . S
C314 H338 0.950 . S
C315 C332 1.574 . S
C315 C334 1.368 . S
C315 H339 0.949 . S
H316 C320 0.949 . S
C317 C318 1.349 . S
C317 C319 1.327 . S
C317 H340 0.950 . S
C318 C317 1.349 . S
C318 C330 1.349 . S
C319 C317 1.327 . S
C319 C335 1.429 . S
C319 H341 0.950 . S
C320 H316 0.949 . S
C320 C328 1.574 . S
C320 C336 1.368 . S
H321 C329 0.950 . S
H322 C327 0.950 . S
H323 C328 0.949 . S
H324 C330 0.950 . S
H325 C331 0.950 . S
H326 C332 0.949 . S
C327 H322 0.950 . S
C327 C329 1.327 . S
C327 C333 1.429 . S
C328 C320 1.574 . S
C328 H323 0.949 . S
C328 C334 1.368 . S
C329 C313 1.349 . S
C329 H321 0.950 . S
C329 C327 1.327 . S
C330 C318 1.349 . S
C330 H324 0.950 . S
C330 C331 1.327 . S
C331 H325 0.950 . S
C331 C330 1.327 . S
C331 C335 1.429 . S
C332 C315 1.574 . S
C332 H326 0.949 . S
C332 C336 1.368 . S
C333 C314 1.429 . S
C333 C327 1.429 . S
C333 C334 1.523 . S
C334 C315 1.368 . S
C334 C328 1.368 . S
C334 C333 1.523 . S
C335 C319 1.429 . S
C335 C331 1.429 . S
C335 C336 1.523 . S
C336 C320 1.368 . S
C336 C332 1.368 . S
C336 C335 1.523 . S
H337 C312 0.950 . S
H338 C314 0.950 . S
H339 C315 0.949 . S
H340 C317 0.950 . S
H341 C319 0.950 . S
C342 C343 1.349 . S
C342 C344 1.327 . S
C342 H367 0.950 . S
C343 C342 1.349 . S
C343 C359 1.349 . S
C344 C342 1.327 . S
C344 C363 1.429 . S
C344 H368 0.950 . S
C345 C362 1.574 . S
C345 C364 1.368 . S
C345 H369 0.949 . S
H346 C350 0.949 . S
C347 C348 1.349 . S
C347 C349 1.327 . S
C347 H370 0.950 . S
C348 C347 1.349 . S
C348 C360 1.349 . S
C349 C347 1.327 . S
C349 C365 1.429 . S
C349 H371 0.950 . S
C350 H346 0.949 . S
C350 C358 1.574 . S
C350 C366 1.368 . S
H351 C359 0.950 . S
H352 C357 0.950 . S
H353 C358 0.949 . S
H354 C360 0.950 . S
H355 C361 0.950 . S
H356 C362 0.949 . S
C357 H352 0.950 . S
C357 C359 1.327 . S
C357 C363 1.429 . S
C358 C350 1.574 . S
C358 H353 0.949 . S
C358 C364 1.368 . S
C359 C343 1.349 . S
C359 H351 0.950 . S
C359 C357 1.327 . S
C360 C348 1.349 . S
C360 H354 0.950 . S
C360 C361 1.327 . S
C361 H355 0.950 . S
C361 C360 1.327 . S
C361 C365 1.429 . S
C362 C345 1.574 . S
C362 H356 0.949 . S
C362 C366 1.368 . S
C363 C344 1.429 . S
C363 C357 1.429 . S
C363 C364 1.523 . S
C364 C345 1.368 . S
C364 C358 1.368 . S
C364 C363 1.523 . S
C365 C349 1.429 . S
C365 C361 1.429 . S
C365 C366 1.523 . S
C366 C350 1.368 . S
C366 C362 1.368 . S
C366 C365 1.523 . S
H367 C342 0.950 . S
H368 C344 0.950 . S
H369 C345 0.949 . S
H370 C347 0.950 . S
H371 C349 0.950 . S
C372 C373 1.349 . S
C372 C374 1.327 . S
C372 H397 0.950 . S
C373 C372 1.349 . S
C373 C389 1.349 . S
C374 C372 1.327 . S
C374 C393 1.429 . S
C374 H398 0.950 . S
C375 C392 1.574 . S
C375 C394 1.368 . S
C375 H399 0.949 . S
H376 C380 0.949 . S
C377 C378 1.349 . S
C377 C379 1.327 . S
C377 H400 0.950 . S
C378 C377 1.349 . S
C378 C390 1.349 . S
C379 C377 1.327 . S
C379 C395 1.429 . S
C379 H401 0.950 . S
C380 H376 0.949 . S
C380 C388 1.574 . S
C380 C396 1.368 . S
H381 C389 0.950 . S
H382 C387 0.950 . S
H383 C388 0.949 . S
H384 C390 0.950 . S
H385 C391 0.950 . S
H386 C392 0.949 . S
C387 H382 0.950 . S
C387 C389 1.327 . S
C387 C393 1.429 . S
C388 C380 1.574 . S
C388 H383 0.949 . S
C388 C394 1.368 . S
C389 C373 1.349 . S
C389 H381 0.950 . S
C389 C387 1.327 . S
C390 C378 1.349 . S
C390 H384 0.950 . S
C390 C391 1.327 . S
C391 H385 0.950 . S
C391 C390 1.327 . S
C391 C395 1.429 . S
C392 C375 1.574 . S
C392 H386 0.949 . S
C392 C396 1.368 . S
C393 C374 1.429 . S
C393 C387 1.429 . S
C393 C394 1.523 . S
C394 C375 1.368 . S
C394 C388 1.368 . S
C394 C393 1.523 . S
C395 C379 1.429 . S
C395 C391 1.429 . S
C395 C396 1.523 . S
C396 C380 1.368 . S
C396 C392 1.368 . S
C396 C395 1.523 . S
H397 C372 0.950 . S
H398 C374 0.950 . S
H399 C375 0.949 . S
H400 C377 0.950 . S
H401 C379 0.950 . S
C402 C403 1.349 . S
C402 C404 1.327 . S
C402 H427 0.950 . S
C403 C402 1.349 . S
C403 C419 1.349 . S
C404 C402 1.327 . S
C404 C423 1.429 . S
C404 H428 0.950 . S
C405 C422 1.574 . S
C405 C424 1.368 . S
C405 H429 0.949 . S
H406 C410 0.949 . S
C407 C408 1.349 . S
C407 C409 1.327 . S
C407 H430 0.950 . S
C408 C407 1.349 . S
C408 C420 1.349 . S
C409 C407 1.327 . S
C409 C425 1.429 . S
C409 H431 0.950 . S
C410 H406 0.949 . S
C410 C418 1.574 . S
C410 C426 1.368 . S
H411 C419 0.950 . S
H412 C417 0.950 . S
H413 C418 0.949 . S
H414 C420 0.950 . S
H415 C421 0.950 . S
H416 C422 0.949 . S
C417 H412 0.950 . S
C417 C419 1.327 . S
C417 C423 1.429 . S
C418 C410 1.574 . S
C418 H413 0.949 . S
C418 C424 1.368 . S
C419 C403 1.349 . S
C419 H411 0.950 . S
C419 C417 1.327 . S
C420 C408 1.349 . S
C420 H414 0.950 . S
C420 C421 1.327 . S
C421 H415 0.950 . S
C421 C420 1.327 . S
C421 C425 1.429 . S
C422 C405 1.574 . S
C422 H416 0.949 . S
C422 C426 1.368 . S
C423 C404 1.429 . S
C423 C417 1.429 . S
C423 C424 1.523 . S
C424 C405 1.368 . S
C424 C418 1.368 . S
C424 C423 1.523 . S
C425 C409 1.429 . S
C425 C421 1.429 . S
C425 C426 1.523 . S
C426 C410 1.368 . S
C426 C422 1.368 . S
C426 C425 1.523 . S
H427 C402 0.950 . S
H428 C404 0.950 . S
H429 C405 0.949 . S
H430 C407 0.950 . S
H431 C409 0.950 . S
C432 C433 1.349 . S
C432 C434 1.327 . S
C432 H457 0.950 . S
C433 C432 1.349 . S
C433 C449 1.349 . S
C434 C432 1.327 . S
C434 C453 1.429 . S
C434 H458 0.950 . S
C435 C452 1.574 . S
C435 C454 1.368 . S
C435 H459 0.949 . S
H436 C440 0.949 . S
C437 C438 1.349 . S
C437 C439 1.327 . S
C437 H460 0.950 . S
C438 C437 1.349 . S
C438 C450 1.349 . S
C439 C437 1.327 . S
C439 C455 1.429 . S
C439 H461 0.950 . S
C440 H436 0.949 . S
C440 C448 1.574 . S
C440 C456 1.368 . S
H441 C449 0.950 . S
H442 C447 0.950 . S
H443 C448 0.949 . S
H444 C450 0.950 . S
H445 C451 0.950 . S
H446 C452 0.949 . S
C447 H442 0.950 . S
C447 C449 1.327 . S
C447 C453 1.429 . S
C448 C440 1.574 . S
C448 H443 0.949 . S
C448 C454 1.368 . S
C449 C433 1.349 . S
C449 H441 0.950 . S
C449 C447 1.327 . S
C450 C438 1.349 . S
C450 H444 0.950 . S
C450 C451 1.327 . S
C451 H445 0.950 . S
C451 C450 1.327 . S
C451 C455 1.429 . S
C452 C435 1.574 . S
C452 H446 0.949 . S
C452 C456 1.368 . S
C453 C434 1.429 . S
C453 C447 1.429 . S
C453 C454 1.523 . S
C454 C435 1.368 . S
C454 C448 1.368 . S
C454 C453 1.523 . S
C455 C439 1.429 . S
C455 C451 1.429 . S
C455 C456 1.523 . S
C456 C440 1.368 . S
C456 C452 1.368 . S
C456 C455 1.523 . S
H457 C432 0.950 . S
H458 C434 0.950 . S
H459 C435 0.949 . S
H460 C437 0.950 . S
H461 C439 0.950 . S
C462 C463 1.349 . S
C462 C464 1.327 . S
C462 H487 0.950 . S
C463 C462 1.349 . S
C463 C479 1.349 . S
C464 C462 1.327 . S
C464 C483 1.429 . S
C464 H488 0.950 . S
C465 C482 1.574 . S
C465 C484 1.368 . S
C465 H489 0.949 . S
H466 C470 0.949 . S
C467 C468 1.349 . S
C467 C469 1.327 . S
C467 H490 0.950 . S
C468 C467 1.349 . S
C468 C480 1.349 . S
C469 C467 1.327 . S
C469 C485 1.429 . S
C469 H491 0.950 . S
C470 H466 0.949 . S
C470 C478 1.574 . S
C470 C486 1.368 . S
H471 C479 0.950 . S
H472 C477 0.950 . S
H473 C478 0.949 . S
H474 C480 0.950 . S
H475 C481 0.950 . S
H476 C482 0.949 . S
C477 H472 0.950 . S
C477 C479 1.327 . S
C477 C483 1.429 . S
C478 C470 1.574 . S
C478 H473 0.949 . S
C478 C484 1.368 . S
C479 C463 1.349 . S
C479 H471 0.950 . S
C479 C477 1.327 . S
C480 C468 1.349 . S
C480 H474 0.950 . S
C480 C481 1.327 . S
C481 H475 0.950 . S
C481 C480 1.327 . S
C481 C485 1.429 . S
C482 C465 1.574 . S
C482 H476 0.949 . S
C482 C486 1.368 . S
C483 C464 1.429 . S
C483 C477 1.429 . S
C483 C484 1.523 . S
C484 C465 1.368 . S
C484 C478 1.368 . S
C484 C483 1.523 . S
C485 C469 1.429 . S
C485 C481 1.429 . S
C485 C486 1.523 . S
C486 C470 1.368 . S
C486 C482 1.368 . S
C486 C485 1.523 . S
H487 C462 0.950 . S
H488 C464 0.950 . S
H489 C465 0.949 . S
H490 C467 0.950 . S
H491 C469 0.950 . S
C492 C493 1.349 . S
C492 C494 1.327 . S
C492 H517 0.950 . S
C493 C492 1.349 . S
C493 C509 1.349 . S
C494 C492 1.327 . S
C494 C513 1.429 . S
C494 H518 0.950 . S
C495 C512 1.574 . S
C495 C514 1.368 . S
C495 H519 0.949 . S
H496 C500 0.949 . S
C497 C498 1.349 . S
C497 C499 1.327 . S
C497 H520 0.950 . S
C498 C497 1.349 . S
C498 C510 1.349 . S
C499 C497 1.327 . S
C499 C515 1.429 . S
C499 H521 0.950 . S
C500 H496 0.949 . S
C500 C508 1.574 . S
C500 C516 1.368 . S
H501 C509 0.950 . S
H502 C507 0.950 . S
H503 C508 0.949 . S
H504 C510 0.950 . S
H505 C511 0.950 . S
H506 C512 0.949 . S
C507 H502 0.950 . S
C507 C509 1.327 . S
C507 C513 1.429 . S
C508 C500 1.574 . S
C508 H503 0.949 . S
C508 C514 1.368 . S
C509 C493 1.349 . S
C509 H501 0.950 . S
C509 C507 1.327 . S
C510 C498 1.349 . S
C510 H504 0.950 . S
C510 C511 1.327 . S
C511 H505 0.950 . S
C511 C510 1.327 . S
C511 C515 1.429 . S
C512 C495 1.574 . S
C512 H506 0.949 . S
C512 C516 1.368 . S
C513 C494 1.429 . S
C513 C507 1.429 . S
C513 C514 1.523 . S
C514 C495 1.368 . S
C514 C508 1.368 . S
C514 C513 1.523 . S
C515 C499 1.429 . S
C515 C511 1.429 . S
C515 C516 1.523 . S
C516 C500 1.368 . S
C516 C512 1.368 . S
C516 C515 1.523 . S
H517 C492 0.950 . S
H518 C494 0.950 . S
H519 C495 0.949 . S
H520 C497 0.950 . S
H521 C499 0.950 . S
C522 C523 1.349 . S
C522 C524 1.327 . S
C522 H547 0.950 . S
C523 C522 1.349 . S
C523 C539 1.349 . S
C524 C522 1.327 . S
C524 C543 1.429 . S
C524 H548 0.950 . S
C525 C542 1.574 . S
C525 C544 1.368 . S
C525 H549 0.949 . S
H526 C530 0.949 . S
C527 C528 1.349 . S
C527 C529 1.327 . S
C527 H550 0.950 . S
C528 C527 1.349 . S
C528 C540 1.349 . S
C529 C527 1.327 . S
C529 C545 1.429 . S
C529 H551 0.950 . S
C530 H526 0.949 . S
C530 C538 1.574 . S
C530 C546 1.368 . S
H531 C539 0.950 . S
H532 C537 0.950 . S
H533 C538 0.949 . S
H534 C540 0.950 . S
H535 C541 0.950 . S
H536 C542 0.949 . S
C537 H532 0.950 . S
C537 C539 1.327 . S
C537 C543 1.429 . S
C538 C530 1.574 . S
C538 H533 0.949 . S
C538 C544 1.368 . S
C539 C523 1.349 . S
C539 H531 0.950 . S
C539 C537 1.327 . S
C540 C528 1.349 . S
C540 H534 0.950 . S
C540 C541 1.327 . S
C541 H535 0.950 . S
C541 C540 1.327 . S
C541 C545 1.429 . S
C542 C525 1.574 . S
C542 H536 0.949 . S
C542 C546 1.368 . S
C543 C524 1.429 . S
C543 C537 1.429 . S
C543 C544 1.523 . S
C544 C525 1.368 . S
C544 C538 1.368 . S
C544 C543 1.523 . S
C545 C529 1.429 . S
C545 C541 1.429 . S
C545 C546 1.523 . S
C546 C530 1.368 . S
C546 C542 1.368 . S
C546 C545 1.523 . S
H547 C522 0.950 . S
H548 C524 0.950 . S
H549 C525 0.949 . S
H550 C527 0.950 . S
H551 C529 0.950 . S
C552 C553 1.349 . S
C552 C554 1.327 . S
C552 H577 0.950 . S
C553 C552 1.349 . S
C553 C569 1.349 . S
C554 C552 1.327 . S
C554 C573 1.429 . S
C554 H578 0.950 . S
C555 C572 1.574 . S
C555 C574 1.368 . S
C555 H579 0.949 . S
H556 C560 0.949 . S
C557 C558 1.349 . S
C557 C559 1.327 . S
C557 H580 0.950 . S
C558 C557 1.349 . S
C558 C570 1.349 . S
C559 C557 1.327 . S
C559 C575 1.429 . S
C559 H581 0.950 . S
C560 H556 0.949 . S
C560 C568 1.574 . S
C560 C576 1.368 . S
H561 C569 0.950 1_545 S
H562 C567 0.950 . S
H563 C568 0.949 . S
H564 C570 0.950 . S
H565 C571 0.950 . S
H566 C572 0.949 . S
C567 H562 0.950 . S
C567 C569 1.327 . S
C567 C573 1.429 . S
C568 C560 1.574 . S
C568 H563 0.949 . S
C568 C574 1.368 . S
C569 C553 1.349 . S
C569 H561 0.950 1_565 S
C569 C567 1.327 . S
C570 C558 1.349 . S
C570 H564 0.950 . S
C570 C571 1.327 . S
C571 H565 0.950 . S
C571 C570 1.327 . S
C571 C575 1.429 . S
C572 C555 1.574 . S
C572 H566 0.949 . S
C572 C576 1.368 . S
C573 C554 1.429 . S
C573 C567 1.429 . S
C573 C574 1.523 . S
C574 C555 1.368 . S
C574 C568 1.368 . S
C574 C573 1.523 . S
C575 C559 1.429 . S
C575 C571 1.429 . S
C575 C576 1.523 . S
C576 C560 1.368 . S
C576 C572 1.368 . S
C576 C575 1.523 . S
H577 C552 0.950 . S
H578 C554 0.950 . S
H579 C555 0.949 . S
H580 C557 0.950 . S
H581 C559 0.950 . S
C582 C583 1.349 . S
C582 C584 1.327 . S
C582 H607 0.950 . S
C583 C582 1.349 . S
C583 C599 1.349 . S
C584 C582 1.327 . S
C584 C603 1.429 . S
C584 H608 0.950 . S
C585 C602 1.574 . S
C585 C604 1.368 . S
C585 H609 0.949 . S
H586 C590 0.949 . S
C587 C588 1.349 . S
C587 C589 1.327 . S
C587 H610 0.950 . S
C588 C587 1.349 . S
C588 C600 1.349 . S
C589 C587 1.327 . S
C589 C605 1.429 . S
C589 H611 0.950 . S
C590 H586 0.949 . S
C590 C598 1.574 . S
C590 C606 1.368 . S
H591 C599 0.950 . S
H592 C597 0.950 . S
H593 C598 0.949 . S
H594 C600 0.950 . S
H595 C601 0.950 . S
H596 C602 0.949 . S
C597 H592 0.950 . S
C597 C599 1.327 . S
C597 C603 1.429 . S
C598 C590 1.574 . S
C598 H593 0.949 . S
C598 C604 1.368 . S
C599 C583 1.349 . S
C599 H591 0.950 . S
C599 C597 1.327 . S
C600 C588 1.349 . S
C600 H594 0.950 . S
C600 C601 1.327 . S
C601 H595 0.950 . S
C601 C600 1.327 . S
C601 C605 1.429 . S
C602 C585 1.574 . S
C602 H596 0.949 . S
C602 C606 1.368 . S
C603 C584 1.429 . S
C603 C597 1.429 . S
C603 C604 1.523 . S
C604 C585 1.368 . S
C604 C598 1.368 . S
C604 C603 1.523 . S
C605 C589 1.429 . S
C605 C601 1.429 . S
C605 C606 1.523 . S
C606 C590 1.368 . S
C606 C602 1.368 . S
C606 C605 1.523 . S
H607 C582 0.950 . S
H608 C584 0.950 . S
H609 C585 0.949 . S
H610 C587 0.950 . S
H611 C589 0.950 . S
C612 C613 1.349 . S
C612 C614 1.327 . S
C612 H637 0.950 . S
C613 C612 1.349 . S
C613 C629 1.349 . S
C614 C612 1.327 . S
C614 C633 1.429 . S
C614 H638 0.950 . S
C615 C632 1.574 . S
C615 C634 1.368 . S
C615 H639 0.949 . S
H616 C620 0.949 . S
C617 C618 1.349 . S
C617 C619 1.327 . S
C617 H640 0.950 . S
C618 C617 1.349 . S
C618 C630 1.349 . S
C619 C617 1.327 . S
C619 C635 1.429 . S
C619 H641 0.950 . S
C620 H616 0.949 . S
C620 C628 1.574 . S
C620 C636 1.368 . S
H621 C629 0.950 . S
H622 C627 0.950 . S
H623 C628 0.949 . S
H624 C630 0.950 . S
H625 C631 0.950 . S
H626 C632 0.949 . S
C627 H622 0.950 . S
C627 C629 1.327 . S
C627 C633 1.429 . S
C628 C620 1.574 . S
C628 H623 0.949 . S
C628 C634 1.368 . S
C629 C613 1.349 . S
C629 H621 0.950 . S
C629 C627 1.327 . S
C630 C618 1.349 . S
C630 H624 0.950 . S
C630 C631 1.327 . S
C631 H625 0.950 . S
C631 C630 1.327 . S
C631 C635 1.429 . S
C632 C615 1.574 . S
C632 H626 0.949 . S
C632 C636 1.368 . S
C633 C614 1.429 . S
C633 C627 1.429 . S
C633 C634 1.523 . S
C634 C615 1.368 . S
C634 C628 1.368 . S
C634 C633 1.523 . S
C635 C619 1.429 . S
C635 C631 1.429 . S
C635 C636 1.523 . S
C636 C620 1.368 . S
C636 C632 1.368 . S
C636 C635 1.523 . S
H637 C612 0.950 . S
H638 C614 0.950 . S
H639 C615 0.949 . S
H640 C617 0.950 . S
H641 C619 0.950 . S
C642 C643 1.349 . S
C642 C644 1.327 . S
C642 H667 0.950 . S
C643 C642 1.349 . S
C643 C659 1.349 . S
C644 C642 1.327 . S
C644 C663 1.429 . S
C644 H668 0.950 . S
C645 C662 1.574 . S
C645 C664 1.368 . S
C645 H669 0.949 . S
H646 C650 0.949 . S
C647 C648 1.349 . S
C647 C649 1.327 . S
C647 H670 0.950 . S
C648 C647 1.349 . S
C648 C660 1.349 . S
C649 C647 1.327 . S
C649 C665 1.429 . S
C649 H671 0.950 . S
C650 H646 0.949 . S
C650 C658 1.574 . S
C650 C666 1.368 . S
H651 C659 0.950 . S
H652 C657 0.950 . S
H653 C658 0.949 . S
H654 C660 0.950 . S
H655 C661 0.950 . S
H656 C662 0.949 . S
C657 H652 0.950 . S
C657 C659 1.327 . S
C657 C663 1.429 . S
C658 C650 1.574 . S
C658 H653 0.949 . S
C658 C664 1.368 . S
C659 C643 1.349 . S
C659 H651 0.950 . S
C659 C657 1.327 . S
C660 C648 1.349 . S
C660 H654 0.950 . S
C660 C661 1.327 . S
C661 H655 0.950 . S
C661 C660 1.327 . S
C661 C665 1.429 . S
C662 C645 1.574 . S
C662 H656 0.949 . S
C662 C666 1.368 . S
C663 C644 1.429 . S
C663 C657 1.429 . S
C663 C664 1.523 . S
C664 C645 1.368 . S
C664 C658 1.368 . S
C664 C663 1.523 . S
C665 C649 1.429 . S
C665 C661 1.429 . S
C665 C666 1.523 . S
C666 C650 1.368 . S
C666 C662 1.368 . S
C666 C665 1.523 . S
H667 C642 0.950 . S
H668 C644 0.950 . S
H669 C645 0.949 . S
H670 C647 0.950 . S
H671 C649 0.950 . S
C672 C673 1.349 . S
C672 C674 1.327 . S
C672 H697 0.950 . S
C673 C672 1.349 . S
C673 C689 1.349 . S
C674 C672 1.327 . S
C674 C693 1.429 . S
C674 H698 0.950 . S
C675 C692 1.574 . S
C675 C694 1.368 . S
C675 H699 0.949 . S
H676 C680 0.949 . S
C677 C678 1.349 . S
C677 C679 1.327 . S
C677 H700 0.950 . S
C678 C677 1.349 . S
C678 C690 1.349 . S
C679 C677 1.327 . S
C679 C695 1.429 . S
C679 H701 0.950 . S
C680 H676 0.949 . S
C680 C688 1.574 . S
C680 C696 1.368 . S
H681 C689 0.950 . S
H682 C687 0.950 . S
H683 C688 0.949 . S
H684 C690 0.950 . S
H685 C691 0.950 . S
H686 C692 0.949 . S
C687 H682 0.950 . S
C687 C689 1.327 . S
C687 C693 1.429 . S
C688 C680 1.574 . S
C688 H683 0.949 . S
C688 C694 1.368 . S
C689 C673 1.349 . S
C689 H681 0.950 . S
C689 C687 1.327 . S
C690 C678 1.349 . S
C690 H684 0.950 . S
C690 C691 1.327 . S
C691 H685 0.950 . S
C691 C690 1.327 . S
C691 C695 1.429 . S
C692 C675 1.574 . S
C692 H686 0.949 . S
C692 C696 1.368 . S
C693 C674 1.429 . S
C693 C687 1.429 . S
C693 C694 1.523 . S
C694 C675 1.368 . S
C694 C688 1.368 . S
C694 C693 1.523 . S
C695 C679 1.429 . S
C695 C691 1.429 . S
C695 C696 1.523 . S
C696 C680 1.368 . S
C696 C692 1.368 . S
C696 C695 1.523 . S
H697 C672 0.950 . S
H698 C674 0.950 . S
H699 C675 0.949 . S
H700 C677 0.950 . S
H701 C679 0.950 . S
C702 C703 1.349 . S
C702 C704 1.327 . S
C702 H727 0.950 . S
C703 C702 1.349 . S
C703 C719 1.349 . S
C704 C702 1.327 . S
C704 C723 1.429 . S
C704 H728 0.950 . S
C705 C722 1.574 . S
C705 C724 1.368 . S
C705 H729 0.949 . S
H706 C710 0.949 . S
C707 C708 1.349 . S
C707 C709 1.327 . S
C707 H730 0.950 . S
C708 C707 1.349 . S
C708 C720 1.349 . S
C709 C707 1.327 . S
C709 C725 1.429 . S
C709 H731 0.950 . S
C710 H706 0.949 . S
C710 C718 1.574 . S
C710 C726 1.368 . S
H711 C719 0.950 . S
H712 C717 0.950 . S
H713 C718 0.949 . S
H714 C720 0.950 . S
H715 C721 0.950 . S
H716 C722 0.949 . S
C717 H712 0.950 . S
C717 C719 1.327 . S
C717 C723 1.429 . S
C718 C710 1.574 . S
C718 H713 0.949 . S
C718 C724 1.368 . S
C719 C703 1.349 . S
C719 H711 0.950 . S
C719 C717 1.327 . S
C720 C708 1.349 . S
C720 H714 0.950 . S
C720 C721 1.327 . S
C721 H715 0.950 . S
C721 C720 1.327 . S
C721 C725 1.429 . S
C722 C705 1.574 . S
C722 H716 0.949 . S
C722 C726 1.368 . S
C723 C704 1.429 . S
C723 C717 1.429 . S
C723 C724 1.523 . S
C724 C705 1.368 . S
C724 C718 1.368 . S
C724 C723 1.523 . S
C725 C709 1.429 . S
C725 C721 1.429 . S
C725 C726 1.523 . S
C726 C710 1.368 . S
C726 C722 1.368 . S
C726 C725 1.523 . S
H727 C702 0.950 . S
H728 C704 0.950 . S
H729 C705 0.949 . S
H730 C707 0.950 . S
H731 C709 0.950 . S
C732 C733 1.349 . S
C732 C734 1.327 . S
C732 H757 0.950 . S
C733 C732 1.349 . S
C733 C749 1.349 . S
C734 C732 1.327 . S
C734 C753 1.429 . S
C734 H758 0.950 . S
C735 C752 1.574 . S
C735 C754 1.368 . S
C735 H759 0.949 . S
H736 C740 0.949 . S
C737 C738 1.349 . S
C737 C739 1.327 . S
C737 H760 0.950 . S
C738 C737 1.349 . S
C738 C750 1.349 . S
C739 C737 1.327 . S
C739 C755 1.429 . S
C739 H761 0.950 . S
C740 H736 0.949 . S
C740 C748 1.574 . S
C740 C756 1.368 . S
H741 C749 0.950 . S
H742 C747 0.950 . S
H743 C748 0.949 . S
H744 C750 0.950 . S
H745 C751 0.950 . S
H746 C752 0.949 . S
C747 H742 0.950 . S
C747 C749 1.327 . S
C747 C753 1.429 . S
C748 C740 1.574 . S
C748 H743 0.949 . S
C748 C754 1.368 . S
C749 C733 1.349 . S
C749 H741 0.950 . S
C749 C747 1.327 . S
C750 C738 1.349 . S
C750 H744 0.950 . S
C750 C751 1.327 . S
C751 H745 0.950 . S
C751 C750 1.327 . S
C751 C755 1.429 . S
C752 C735 1.574 . S
C752 H746 0.949 . S
C752 C756 1.368 . S
C753 C734 1.429 . S
C753 C747 1.429 . S
C753 C754 1.523 . S
C754 C735 1.368 . S
C754 C748 1.368 . S
C754 C753 1.523 . S
C755 C739 1.429 . S
C755 C751 1.429 . S
C755 C756 1.523 . S
C756 C740 1.368 . S
C756 C752 1.368 . S
C756 C755 1.523 . S
H757 C732 0.950 . S
H758 C734 0.950 . S
H759 C735 0.949 . S
H760 C737 0.950 . S
H761 C739 0.950 . S
C762 C763 1.349 . S
C762 C764 1.327 . S
C762 H787 0.950 . S
C763 C762 1.349 . S
C763 C779 1.349 . S
C764 C762 1.327 . S
C764 C783 1.429 . S
C764 H788 0.950 . S
C765 C782 1.574 . S
C765 C784 1.368 . S
C765 H789 0.949 . S
H766 C770 0.949 . S
C767 C768 1.349 . S
C767 C769 1.327 . S
C767 H790 0.950 . S
C768 C767 1.349 . S
C768 C780 1.349 . S
C769 C767 1.327 . S
C769 C785 1.429 . S
C769 H791 0.950 . S
C770 H766 0.949 . S
C770 C778 1.574 . S
C770 C786 1.368 . S
H771 C779 0.950 . S
H772 C777 0.950 . S
H773 C778 0.949 . S
H774 C780 0.950 . S
H775 C781 0.950 . S
H776 C782 0.949 . S
C777 H772 0.950 . S
C777 C779 1.327 . S
C777 C783 1.429 . S
C778 C770 1.574 . S
C778 H773 0.949 . S
C778 C784 1.368 . S
C779 C763 1.349 . S
C779 H771 0.950 . S
C779 C777 1.327 . S
C780 C768 1.349 . S
C780 H774 0.950 . S
C780 C781 1.327 . S
C781 H775 0.950 . S
C781 C780 1.327 . S
C781 C785 1.429 . S
C782 C765 1.574 . S
C782 H776 0.949 . S
C782 C786 1.368 . S
C783 C764 1.429 . S
C783 C777 1.429 . S
C783 C784 1.523 . S
C784 C765 1.368 . S
C784 C778 1.368 . S
C784 C783 1.523 . S
C785 C769 1.429 . S
C785 C781 1.429 . S
C785 C786 1.523 . S
C786 C770 1.368 . S
C786 C782 1.368 . S
C786 C785 1.523 . S
H787 C762 0.950 . S
H788 C764 0.950 . S
H789 C765 0.949 . S
H790 C767 0.950 . S
H791 C769 0.950 . S
C792 C793 1.349 . S
C792 C794 1.327 . S
C792 H817 0.950 . S
C793 C792 1.349 . S
C793 C809 1.349 . S
C794 C792 1.327 . S
C794 C813 1.429 . S
C794 H818 0.950 . S
C795 C812 1.574 . S
C795 C814 1.368 . S
C795 H819 0.949 . S
H796 C800 0.949 . S
C797 C798 1.349 . S
C797 C799 1.327 . S
C797 H820 0.950 . S
C798 C797 1.349 . S
C798 C810 1.349 . S
C799 C797 1.327 . S
C799 C815 1.429 . S
C799 H821 0.950 . S
C800 H796 0.949 . S
C800 C808 1.574 . S
C800 C816 1.368 . S
H801 C809 0.950 . S
H802 C807 0.950 . S
H803 C808 0.949 . S
H804 C810 0.950 . S
H805 C811 0.950 . S
H806 C812 0.949 . S
C807 H802 0.950 . S
C807 C809 1.327 . S
C807 C813 1.429 . S
C808 C800 1.574 . S
C808 H803 0.949 . S
C808 C814 1.368 . S
C809 C793 1.349 . S
C809 H801 0.950 . S
C809 C807 1.327 . S
C810 C798 1.349 . S
C810 H804 0.950 . S
C810 C811 1.327 . S
C811 H805 0.950 . S
C811 C810 1.327 . S
C811 C815 1.429 . S
C812 C795 1.574 . S
C812 H806 0.949 . S
C812 C816 1.368 . S
C813 C794 1.429 . S
C813 C807 1.429 . S
C813 C814 1.523 . S
C814 C795 1.368 . S
C814 C808 1.368 . S
C814 C813 1.523 . S
C815 C799 1.429 . S
C815 C811 1.429 . S
C815 C816 1.523 . S
C816 C800 1.368 . S
C816 C812 1.368 . S
C816 C815 1.523 . S
H817 C792 0.950 . S
H818 C794 0.950 . S
H819 C795 0.949 . S
H820 C797 0.950 . S
H821 C799 0.950 . S
C822 C823 1.349 . S
C822 C824 1.327 . S
C822 H847 0.950 . S
C823 C822 1.349 . S
C823 C839 1.349 . S
C824 C822 1.327 . S
C824 C843 1.429 . S
C824 H848 0.950 . S
C825 C842 1.574 . S
C825 C844 1.368 . S
C825 H849 0.949 . S
H826 C830 0.949 . S
C827 C828 1.349 . S
C827 C829 1.327 . S
C827 H850 0.950 . S
C828 C827 1.349 . S
C828 C840 1.349 . S
C829 C827 1.327 . S
C829 C845 1.429 . S
C829 H851 0.950 . S
C830 H826 0.949 . S
C830 C838 1.574 . S
C830 C846 1.368 . S
H831 C839 0.950 . S
H832 C837 0.950 . S
H833 C838 0.949 . S
H834 C840 0.950 . S
H835 C841 0.950 . S
H836 C842 0.949 . S
C837 H832 0.950 . S
C837 C839 1.327 . S
C837 C843 1.429 . S
C838 C830 1.574 . S
C838 H833 0.949 . S
C838 C844 1.368 . S
C839 C823 1.349 . S
C839 H831 0.950 . S
C839 C837 1.327 . S
C840 C828 1.349 . S
C840 H834 0.950 . S
C840 C841 1.327 . S
C841 H835 0.950 . S
C841 C840 1.327 . S
C841 C845 1.429 . S
C842 C825 1.574 . S
C842 H836 0.949 . S
C842 C846 1.368 . S
C843 C824 1.429 . S
C843 C837 1.429 . S
C843 C844 1.523 . S
C844 C825 1.368 . S
C844 C838 1.368 . S
C844 C843 1.523 . S
C845 C829 1.429 . S
C845 C841 1.429 . S
C845 C846 1.523 . S
C846 C830 1.368 . S
C846 C842 1.368 . S
C846 C845 1.523 . S
H847 C822 0.950 . S
H848 C824 0.950 . S
H849 C825 0.949 . S
H850 C827 0.950 . S
H851 C829 0.950 . S
C852 C853 1.349 . S
C852 C854 1.327 . S
C852 H877 0.950 . S
C853 C852 1.349 . S
C853 C869 1.349 . S
C854 C852 1.327 . S
C854 C873 1.429 . S
C854 H878 0.950 . S
C855 C872 1.574 . S
C855 C874 1.368 . S
C855 H879 0.949 . S
H856 C860 0.949 . S
C857 C858 1.349 . S
C857 C859 1.327 . S
C857 H880 0.950 . S
C858 C857 1.349 . S
C858 C870 1.349 . S
C859 C857 1.327 . S
C859 C875 1.429 . S
C859 H881 0.950 . S
C860 H856 0.949 . S
C860 C868 1.574 . S
C860 C876 1.368 . S
H861 C869 0.950 . S
H862 C867 0.950 . S
H863 C868 0.949 . S
H864 C870 0.950 . S
H865 C871 0.950 . S
H866 C872 0.949 . S
C867 H862 0.950 . S
C867 C869 1.327 . S
C867 C873 1.429 . S
C868 C860 1.574 . S
C868 H863 0.949 . S
C868 C874 1.368 . S
C869 C853 1.349 . S
C869 H861 0.950 . S
C869 C867 1.327 . S
C870 C858 1.349 . S
C870 H864 0.950 . S
C870 C871 1.327 . S
C871 H865 0.950 . S
C871 C870 1.327 . S
C871 C875 1.429 . S
C872 C855 1.574 . S
C872 H866 0.949 . S
C872 C876 1.368 . S
C873 C854 1.429 . S
C873 C867 1.429 . S
C873 C874 1.523 . S
C874 C855 1.368 . S
C874 C868 1.368 . S
C874 C873 1.523 . S
C875 C859 1.429 . S
C875 C871 1.429 . S
C875 C876 1.523 . S
C876 C860 1.368 . S
C876 C872 1.368 . S
C876 C875 1.523 . S
H877 C852 0.950 . S
H878 C854 0.950 . S
H879 C855 0.949 . S
H880 C857 0.950 . S
H881 C859 0.950 . S
C882 C883 1.349 . S
C882 C884 1.327 . S
C882 H907 0.950 . S
C883 C882 1.349 . S
C883 C899 1.349 . S
C884 C882 1.327 . S
C884 C903 1.429 . S
C884 H908 0.950 . S
C885 C902 1.574 . S
C885 C904 1.368 . S
C885 H909 0.949 . S
H886 C890 0.949 . S
C887 C888 1.349 . S
C887 C889 1.327 . S
C887 H910 0.950 . S
C888 C887 1.349 . S
C888 C900 1.349 . S
C889 C887 1.327 . S
C889 C905 1.429 . S
C889 H911 0.950 . S
C890 H886 0.949 . S
C890 C898 1.574 . S
C890 C906 1.368 . S
H891 C899 0.950 . S
H892 C897 0.950 . S
H893 C898 0.949 . S
H894 C900 0.950 . S
H895 C901 0.950 . S
H896 C902 0.949 . S
C897 H892 0.950 . S
C897 C899 1.327 . S
C897 C903 1.429 . S
C898 C890 1.574 . S
C898 H893 0.949 . S
C898 C904 1.368 . S
C899 C883 1.349 . S
C899 H891 0.950 . S
C899 C897 1.327 . S
C900 C888 1.349 . S
C900 H894 0.950 . S
C900 C901 1.327 . S
C901 H895 0.950 . S
C901 C900 1.327 . S
C901 C905 1.429 . S
C902 C885 1.574 . S
C902 H896 0.949 . S
C902 C906 1.368 . S
C903 C884 1.429 . S
C903 C897 1.429 . S
C903 C904 1.523 . S
C904 C885 1.368 . S
C904 C898 1.368 . S
C904 C903 1.523 . S
C905 C889 1.429 . S
C905 C901 1.429 . S
C905 C906 1.523 . S
C906 C890 1.368 . S
C906 C902 1.368 . S
C906 C905 1.523 . S
H907 C882 0.950 . S
H908 C884 0.950 . S
H909 C885 0.949 . S
H910 C887 0.950 . S
H911 C889 0.950 . S
C193 C45 1.576 . S
C198 C114 1.584 . S
C223 C30 1.577 . S
C228 C125 1.585 . S
C253 C39 1.576 . S
C258 C136 1.577 . S
C288 C147 1.578 . S
C283 C34 1.576 . S
C313 C97 1.577 . S
C318 C158 1.584 . S
C348 C169 1.584 . S
C343 C82 1.576 . S
C378 C180 1.578 . S
C373 C91 1.576 . S
C408 C191 1.587 . S
C403 C86 1.578 . S
C438 C175 1.562 . S
C433 C26 1.527 . S
C468 C185 1.463 . S
C463 C36 1.425 . S
C498 C152 1.556 . S
C493 C32 1.517 . S
C528 C163 1.515 . S
C523 C42 1.479 . S
C553 C18 1.614 . S
C558 C164 1.658 . S
C588 C174 1.628 . S
C583 C50 1.563 . S
C613 C4 1.668 . S
C618 C186 1.709 . S
C643 C48 1.574 . S
C648 C153 1.615 . S
C678 C131 1.536 . S
C673 C78 1.502 . S
C703 C88 1.525 . S
C708 C142 1.562 . S
C738 C108 1.524 . S
C733 C84 1.485 . S
C768 C119 1.499 . S
C763 C94 1.463 . S
C798 C120 1.674 . S
C793 C70 1.630 . S
C828 C130 1.653 . S
C823 C102 1.587 . S
C853 C56 1.565 . S
C858 C141 1.627 . S
C883 C100 1.606 . S
C888 C109 1.647 . S
