# Generated by pormake.
# Topology tsx, (6,3)-cn, num edge types: 1
# Building blocks:
#     Node 0, Type 0, BuildingBlock: VOLQOD_clean_sbu_1, # of connection points: 6
#     Node 1, Type 0, BuildingBlock: VOLQOD_clean_sbu_1, # of connection points: 6
#     Node 2, Type 1, BuildingBlock: BELTOD_clean_linker_0, # of connection points: 3
#     Node 3, Type 1, BuildingBlock: BELTOD_clean_linker_0, # of connection points: 3
#     Node 4, Type 1, BuildingBlock: BELTOD_clean_linker_0, # of connection points: 3
#     Node 5, Type 1, BuildingBlock: BELTOD_clean_linker_0, # of connection points: 3
#     Edge 6, Type (0, 1), BuildingBlock: AJUNOK_clean_linker_0, # of connection points: 2
#     Edge 7, Type (0, 1), BuildingBlock: AJUNOK_clean_linker_0, # of connection points: 2
#     Edge 8, Type (0, 1), BuildingBlock: AJUNOK_clean_linker_0, # of connection points: 2
#     Edge 9, Type (0, 1), BuildingBlock: AJUNOK_clean_linker_0, # of connection points: 2
#     Edge 10, Type (0, 1), BuildingBlock: AJUNOK_clean_linker_0, # of connection points: 2
#     Edge 11, Type (0, 1), BuildingBlock: AJUNOK_clean_linker_0, # of connection points: 2
#     Edge 12, Type (0, 1), BuildingBlock: AJUNOK_clean_linker_0, # of connection points: 2
#     Edge 13, Type (0, 1), BuildingBlock: AJUNOK_clean_linker_0, # of connection points: 2
#     Edge 14, Type (0, 1), BuildingBlock: AJUNOK_clean_linker_0, # of connection points: 2
#     Edge 15, Type (0, 1), BuildingBlock: AJUNOK_clean_linker_0, # of connection points: 2
#     Edge 16, Type (0, 1), BuildingBlock: AJUNOK_clean_linker_0, # of connection points: 2
#     Edge 17, Type (0, 1), BuildingBlock: AJUNOK_clean_linker_0, # of connection points: 2
# Relax obj value: 0.067
# Max RMSD: 0.102
# Mean RMSD: 0.074
data_MOF--net-tsx--node1-VOLQOD_clean_sbu_1--node2-BELTOD_clean_linker_0--edge1-AJUNOK_clean_linker_0
_symmetry_space_group_name_H-M    P1
_symmetry_Int_Tables_number       1
_symmetry_cell_setting            triclinic
loop_
_symmetry_equiv_pos_as_xyz
'x, y, z'
_cell_length_a     18.04381
_cell_length_b     18.684678
_cell_length_c     34.923238
_cell_angle_alpha  91.174533
_cell_angle_beta   90.385716
_cell_angle_gamma 90.150478
loop_
_atom_site_label
_atom_site_type_symbol
_atom_site_fract_x
_atom_site_fract_y
_atom_site_fract_z
_atom_type_partial_charge
O0 O 0.05134 -0.00167 0.09979 0.0
Zn1 Zn 0.0786 0.98928 0.04502 0.0
O2 O 0.9927 -0.00061 0.01198 0.0
Zn3 Zn 0.98327 0.91298 0.98031 0.0
Zn4 Zn 0.90318 0.01161 0.04362 0.0
Zn5 Zn 0.00905 0.08147 0.97892 0.0
O6 O 0.98476 0.93508 0.92449 0.0
O7 O 0.01136 0.051 0.9226 0.0
O8 O 0.13176 0.89719 0.03633 0.0
O9 O 0.06713 0.8446 0.98947 0.0
O10 O 0.89038 0.86043 0.99194 0.0
O11 O 0.8344 0.92562 0.03687 0.0
O12 O 0.84889 0.10225 0.02861 0.0
O13 O 0.1526 0.06603 0.03637 0.0
O14 O 0.92659 0.15131 0.98712 0.0
O15 O 0.10453 0.13454 0.99158 0.0
C16 C 0.99221 0.01205 0.11804 0.0
C17 C -0.00143 0.99105 0.90565 0.0
C18 C 0.8369 0.8702 0.01494 0.0
C19 C 0.12132 0.84514 0.01295 0.0
C20 C 0.86733 0.15307 0.00672 0.0
C21 C 0.15624 0.12031 0.01517 0.0
O22 O 0.93054 0.02008 0.10054 0.0
O23 O 0.51978 0.47915 0.60221 0.0
Zn24 Zn 0.55447 0.48668 0.54861 0.0
O25 O 0.47316 0.49867 0.51293 0.0
Zn26 Zn 0.46741 0.41445 0.47969 0.0
Zn27 Zn 0.38062 0.50982 0.54211 0.0
Zn28 Zn 0.49418 0.58134 0.48135 0.0
O29 O 0.46586 0.43986 0.42424 0.0
O30 O 0.49881 0.55441 0.42463 0.0
O31 O 0.61648 0.40171 0.53543 0.0
O32 O 0.55537 0.35029 0.48692 0.0
O33 O 0.37772 0.35749 0.49116 0.0
O34 O 0.31338 0.42281 0.53291 0.0
O35 O 0.32896 0.60242 0.52748 0.0
O36 O 0.62208 0.57093 0.54824 0.0
O37 O 0.41255 0.65214 0.48937 0.0
O38 O 0.58915 0.63224 0.4972 0.0
C39 C 0.45974 0.49616 0.61884 0.0
C40 C 0.48265 0.4964 0.40653 0.0
C41 C 0.32115 0.36619 0.51221 0.0
C42 C 0.60985 0.35211 0.51021 0.0
C43 C 0.35138 0.65442 0.50737 0.0
C44 C 0.63172 0.62287 0.52587 0.0
O45 O 0.40247 0.51424 0.59972 0.0
P46 P 0.0744 0.09837 0.41102 0.0
H47 H 0.04239 0.14692 0.48842 0.0
H48 H 0.92923 0.19054 0.51941 0.0
H49 H 0.80933 0.15736 0.41289 0.0
H50 H 0.92035 0.11014 0.38323 0.0
H51 H 0.21185 0.02498 0.39616 0.0
H52 H 0.27319 0.92352 0.42571 0.0
H53 H 0.09005 0.90177 0.50356 0.0
H54 H 0.02771 0.00224 0.47326 0.0
H55 H 0.10238 0.18304 0.34327 0.0
H56 H 0.00999 0.9763 0.36852 0.0
O57 O 0.13366 0.16663 0.41613 0.0
H58 H 0.07729 0.16176 0.27508 0.0
H59 H 0.98405 0.95501 0.29998 0.0
C60 C 0.98961 0.12443 0.43385 0.0
C61 C 0.99101 0.14725 0.47227 0.0
C62 C 0.92655 0.17235 0.48979 0.0
C63 C 0.85999 0.17637 0.46876 0.0
C64 C 0.85886 0.1526 0.43032 0.0
C65 C 0.92297 0.12636 0.4131 0.0
C66 C 0.11579 0.02168 0.43269 0.0
C67 C 0.18481 -0.00164 0.41955 0.0
C68 C 0.22004 0.94089 0.43669 0.0
C69 C 0.18685 0.90579 0.46741 0.0
C70 C 0.11686 0.92823 0.4801 0.0
C71 C 0.08148 0.98592 0.46284 0.0
C72 C 0.05926 0.08064 0.36076 0.0
C73 C 0.07715 0.13286 0.33412 0.0
C74 C 0.06244 0.12088 0.29524 0.0
C75 C 0.0284 0.05698 0.28246 0.0
C76 C 0.00959 0.00501 0.30925 0.0
C77 C 0.02512 0.01675 0.3482 0.0
P78 P 0.09742 0.90426 0.61422 0.0
H79 H 0.06973 0.80338 0.55094 0.0
H80 H 0.956 0.74728 0.5257 0.0
H81 H 0.8273 0.8696 0.60757 0.0
H82 H 0.94077 0.92629 0.63232 0.0
H83 H 0.23774 0.94843 0.5809 0.0
H84 H 0.27657 0.05749 0.54954 0.0
H85 H 0.05436 0.14112 0.55904 0.0
H86 H 0.01505 0.03045 0.58966 0.0
H87 H 0.09863 0.81413 0.68094 0.0
H88 H 0.06387 0.03768 0.65824 0.0
O89 O 0.16386 0.8426 0.61018 0.0
H90 H 0.0727 0.83685 0.7487 0.0
H91 H 0.03542 0.06011 0.72563 0.0
C92 C 0.01361 0.86762 0.594 0.0
C93 C 0.01692 0.81875 0.56309 0.0
C94 C 0.95206 0.78726 0.5485 0.0
C95 C 0.88323 0.80435 0.56478 0.0
C96 C 0.8799 0.85557 0.59469 0.0
C97 C 0.94465 0.88753 0.60897 0.0
C98 C 0.12369 0.98168 0.58783 0.0
C99 C 0.19696 0.98957 0.57571 0.0
C100 C 0.21897 0.05174 0.5575 0.0
C101 C 0.16814 0.10735 0.55145 0.0
C102 C 0.09436 0.09878 0.56305 0.0
C103 C 0.07204 0.03582 0.58061 0.0
C104 C 0.08406 0.92415 0.66448 0.0
C105 C 0.08572 0.86814 0.69052 0.0
C106 C 0.06992 0.88103 0.72915 0.0
C107 C 0.05076 0.95011 0.74237 0.0
C108 C 0.05004 0.00638 0.71629 0.0
C109 C 0.06629 0.99346 0.67764 0.0
P110 P 0.56875 0.58238 0.90806 0.0
H111 H 0.54328 0.62322 0.98759 0.0
H112 H 0.43317 0.66621 0.02171 0.0
H113 H 0.3046 0.64092 0.91735 0.0
H114 H 0.41245 0.59455 0.88451 0.0
H115 H 0.71808 0.52827 0.90021 0.0
H116 H 0.78471 0.43021 0.92996 0.0
H117 H 0.58924 0.37727 0.99432 0.0
H118 H 0.52197 0.47397 0.96348 0.0
H119 H 0.55092 0.67247 0.8418 0.0
H120 H 0.53393 0.44786 0.86649 0.0
O121 O 0.62497 0.65341 0.90974 0.0
H122 H 0.51352 0.64743 0.77541 0.0
H123 H 0.49623 0.42244 0.79988 0.0
C124 C 0.48609 0.60576 0.93364 0.0
C125 C 0.49072 0.62528 0.97252 0.0
C126 C 0.42795 0.64979 0.99188 0.0
C127 C 0.35993 0.6562 0.97235 0.0
C128 C 0.35536 0.63453 0.93363 0.0
C129 C 0.41774 0.60902 0.91454 0.0
C130 C 0.61583 0.50938 0.93025 0.0
C131 C 0.68975 0.49584 0.92094 0.0
C132 C 0.72793 0.44031 0.93829 0.0
C133 C 0.69278 0.39741 0.96543 0.0
C134 C 0.61798 0.41011 0.97403 0.0
C135 C 0.57964 0.46557 0.95645 0.0
C136 C 0.54698 0.5618 0.85871 0.0
C137 C 0.5397 0.61767 0.83281 0.0
C138 C 0.51721 0.60348 0.79508 0.0
C139 C 0.50109 0.53312 0.7827 0.0
C140 C 0.50825 0.47715 0.80877 0.0
C141 C 0.5303 0.49152 0.84666 0.0
P142 P 0.59967 0.41608 0.11688 0.0
H143 H 0.59477 0.30456 0.05745 0.0
H144 H 0.49211 0.24238 0.02481 0.0
H145 H 0.336 0.37335 0.08784 0.0
H146 H 0.43904 0.43646 0.11975 0.0
H147 H 0.7384 0.45593 0.08035 0.0
H148 H 0.77854 0.56404 0.04857 0.0
H149 H 0.56098 0.65567 0.0637 0.0
H150 H 0.52012 0.54589 0.09498 0.0
H151 H 0.56746 0.3232 0.17991 0.0
H152 H 0.57607 0.55085 0.16216 0.0
O153 O 0.67047 0.35879 0.11802 0.0
H154 H 0.53517 0.34508 0.24688 0.0
H155 H 0.5396 0.57299 0.22846 0.0
C156 C 0.52416 0.37375 0.0916 0.0
C157 C 0.53844 0.32021 0.06402 0.0
C158 C 0.47989 0.28504 0.04526 0.0
C159 C 0.40619 0.30319 0.05375 0.0
C160 C 0.39224 0.35909 0.08026 0.0
C161 C 0.45096 0.39444 0.09889 0.0
C162 C 0.62683 0.49372 0.09086 0.0
C163 C 0.69892 0.49877 0.07658 0.0
C164 C 0.72164 0.56034 0.05806 0.0
C165 C 0.67265 0.61796 0.05365 0.0
C166 C 0.59964 0.61189 0.06684 0.0
C167 C 0.5765 0.54953 0.08477 0.0
C168 C 0.57382 0.43514 0.16584 0.0
C169 C 0.56135 0.3779 0.19027 0.0
C170 C 0.54198 0.39052 0.22847 0.0
C171 C 0.53321 0.46085 0.24287 0.0
C172 C 0.54571 0.51822 0.21824 0.0
C173 C 0.56608 0.50549 0.18009 0.0
C174 C 0.28798 0.13947 0.03385 0.0
C175 C 0.2214 0.16796 0.01964 0.0
C176 C 0.34838 0.18354 0.04307 0.0
C177 C 0.34452 0.25802 0.03877 0.0
H178 H 0.29302 0.08262 0.03881 0.0
H179 H 0.3974 0.15929 0.05527 0.0
S180 S 0.18519 0.35917 0.99995 0.0
N181 N 0.15661 0.27506 0.99951 0.0
N182 N 0.27081 0.35825 0.01701 0.0
C183 C 0.27948 0.28718 0.02316 0.0
C184 C 0.21785 0.24204 0.01341 0.0
C185 C 0.25274 0.80725 0.01877 0.0
C186 C 0.17889 0.7895 0.00949 0.0
C187 C 0.31083 0.76121 0.00904 0.0
C188 C 0.29716 0.69529 0.99012 0.0
H189 H 0.26649 0.85916 0.03132 0.0
H190 H 0.36704 0.77976 0.01411 0.0
S191 S 0.11248 0.61704 0.96729 0.0
N192 N 0.09421 0.69736 0.98544 0.0
N193 N 0.20365 0.6094 0.96829 0.0
C194 C 0.2231 0.67398 0.98398 0.0
C195 C 0.16389 0.72143 0.99337 0.0
C196 C 0.7363 0.81059 0.05195 0.0
C197 C 0.78244 0.81125 0.01957 0.0
C198 C 0.69616 0.74909 0.06132 0.0
C199 C 0.70083 0.68622 0.03869 0.0
H200 H 0.73455 0.85624 0.07154 0.0
H201 H 0.66527 0.7493 0.08782 0.0
S202 S 0.80163 0.66362 0.94725 0.0
N203 N 0.82122 0.74618 0.96183 0.0
N204 N 0.74619 0.63087 0.98 0.0
C205 C 0.74138 0.68793 0.00463 0.0
C206 C 0.78199 0.75043 0.9949 0.0
C207 C 0.74439 0.20846 0.99315 0.0
C208 C 0.81948 0.21625 0.00327 0.0
C209 C 0.70207 0.26812 0.98286 0.0
C210 C 0.73355 0.33724 0.98281 0.0
H211 H 0.71957 0.15567 0.99093 0.0
H212 H 0.64569 0.2595 0.97291 0.0
S213 S 0.92353 0.38659 0.01506 0.0
N214 N 0.92081 0.29845 0.01761 0.0
N215 N 0.84064 0.41085 0.99986 0.0
C216 C 0.80673 0.34599 0.99619 0.0
C217 C 0.84993 0.28535 0.00598 0.0
C218 C 0.71799 0.68155 0.57263 0.0
C219 C 0.69307 0.67336 0.53451 0.0
C220 C 0.77811 0.72584 0.58209 0.0
C221 C 0.81631 0.76295 0.55376 0.0
H222 H 0.69105 0.65319 0.59546 0.0
H223 H 0.79615 0.72949 0.61173 0.0
S224 S 0.77247 0.76206 0.44995 0.0
N225 N 0.71001 0.70806 0.46834 0.0
N226 N 0.82438 0.79083 0.48629 0.0
C227 C 0.79166 0.75637 0.51562 0.0
C228 C 0.72951 0.71187 0.50597 0.0
C229 C 0.74379 0.32245 0.51429 0.0
C230 C 0.67106 0.30078 0.50503 0.0
C231 C 0.80445 0.27988 0.50426 0.0
C232 C 0.79462 0.2136 0.48507 0.0
H233 H 0.75441 0.37456 0.52741 0.0
H234 H 0.85954 0.30107 0.50973 0.0
S235 S 0.61465 0.12659 0.46101 0.0
N236 N 0.59182 0.20524 0.47982 0.0
N237 N 0.70613 0.12375 0.46212 0.0
C238 C 0.72188 0.18882 0.47833 0.0
C239 C 0.66003 0.23276 0.48804 0.0
C240 C 0.21979 0.30346 0.54729 0.0
C241 C 0.26963 0.30466 0.51643 0.0
C242 C 0.18279 0.24025 0.55691 0.0
C243 C 0.19452 0.17609 0.5361 0.0
H244 H 0.21263 0.35035 0.56563 0.0
H245 H 0.14862 0.24057 0.58231 0.0
S246 S 0.30807 0.15304 0.44877 0.0
N247 N 0.31981 0.23779 0.46175 0.0
N248 N 0.25106 0.11938 0.48051 0.0
C249 C 0.23907 0.17785 0.50341 0.0
C250 C 0.27631 0.24207 0.49336 0.0
C251 C 0.22992 0.71597 0.49686 0.0
C252 C 0.3065 0.71994 0.50433 0.0
C253 C 0.18983 0.77747 0.48711 0.0
C254 C 0.22523 0.84451 0.48491 0.0
H255 H 0.20187 0.66463 0.49627 0.0
H256 H 0.13194 0.77182 0.47916 0.0
S257 S 0.42097 0.88502 0.51003 0.0
N258 N 0.41361 0.79742 0.51431 0.0
N259 N 0.33797 0.91287 0.49698 0.0
C260 C 0.30014 0.84983 0.49569 0.0
C261 C 0.34091 0.7875 0.50513 0.0
C262 C 0.06792 0.03845 0.17658 0.0
C263 C -0.00194 0.02234 0.16021 0.0
C264 C 0.0768 0.04935 0.21604 0.0
C265 C 0.01646 0.04378 0.24093 0.0
H266 H 0.11646 0.04363 0.15875 0.0
H267 H 0.13158 0.0619 0.22722 0.0
S268 S 0.82203 0.00241 0.21334 0.0
N269 N 0.86721 0.00129 0.17233 0.0
N270 N 0.88444 0.0212 0.24693 0.0
C271 C 0.94635 0.02716 0.22529 0.0
C272 C 0.93698 0.01681 0.18484 0.0
C273 C 0.05117 0.03124 0.8433 0.0
C274 C 0.00495 0.98439 0.86337 0.0
C275 C 0.06453 0.02076 0.80402 0.0
C276 C 0.0319 0.96327 0.78332 0.0
H277 H 0.07947 0.07479 0.85829 0.0
H278 H 0.10254 0.05664 0.79004 0.0
S279 S 0.89796 0.83176 0.82116 0.0
N280 N 0.921 0.88238 0.85869 0.0
N281 N 0.9451 0.86368 0.7849 0.0
C282 C 0.9827 0.91826 0.80262 0.0
C283 C 0.96946 0.92859 0.84259 0.0
C284 C 0.51292 0.45864 0.68136 0.0
C285 C 0.4602 0.4992 0.66131 0.0
C286 C 0.52318 0.46757 0.72093 0.0
C287 C 0.48168 0.51796 0.74199 0.0
H288 H 0.54827 0.421 0.66619 0.0
H289 H 0.56633 0.4371 0.73482 0.0
S290 S 0.33177 0.63278 0.7042 0.0
N291 N 0.36211 0.58796 0.6662 0.0
N292 N 0.38175 0.60487 0.74076 0.0
C293 C 0.42634 0.55648 0.72278 0.0
C294 C 0.41534 0.5469 0.68243 0.0
C295 C 0.54062 0.53496 0.34526 0.0
C296 C 0.48854 0.4924 0.36421 0.0
C297 C 0.55338 0.52574 0.30586 0.0
C298 C 0.51402 0.47411 0.28383 0.0
H299 H 0.57405 0.57361 0.36125 0.0
H300 H 0.59632 0.55758 0.29286 0.0
S301 S 0.36346 0.35693 0.31875 0.0
N302 N 0.39239 0.40151 0.35734 0.0
N303 N 0.41473 0.38577 0.28322 0.0
C304 C 0.45888 0.43406 0.30209 0.0
C305 C 0.44653 0.44284 0.34225 0.0
loop_
_geom_bond_atom_site_label_1
_geom_bond_atom_site_label_2
_geom_bond_distance
_geom_bond_site_symmetry_2
_ccdc_geom_bond_type
O0 Zn1 1.953 . S
O0 C16 1.225 1_565 S
Zn1 O0 1.953 . S
Zn1 O2 1.949 1_565 S
Zn1 O8 1.919 . S
Zn1 O13 1.924 1_565 S
O2 Zn1 1.949 1_545 S
O2 Zn3 1.923 1_444 S
O2 Zn4 1.950 1_455 S
O2 Zn5 1.945 1_554 S
Zn3 O2 1.923 1_666 S
Zn3 O6 1.933 . S
Zn3 O9 1.941 1_655 S
Zn3 O10 1.965 . S
Zn4 O2 1.950 1_655 S
Zn4 O11 1.938 1_545 S
Zn4 O12 1.906 . S
Zn4 O22 1.953 . S
Zn5 O2 1.945 1_556 S
Zn5 O7 1.932 . S
Zn5 O14 1.977 1_455 S
Zn5 O15 1.910 . S
O6 Zn3 1.933 . S
O6 C17 1.226 1_665 S
O7 Zn5 1.932 . S
O7 C17 1.307 . S
O8 Zn1 1.919 . S
O8 C19 1.253 1_554 S
O9 Zn3 1.941 1_455 S
O9 C19 1.283 . S
O10 Zn3 1.965 . S
O10 C18 1.303 1_556 S
O11 Zn4 1.938 1_565 S
O11 C18 1.247 . S
O12 Zn4 1.906 . S
O12 C20 1.304 1_554 S
O13 Zn1 1.924 1_545 S
O13 C21 1.311 . S
O14 Zn5 1.977 1_655 S
O14 C20 1.272 . S
O15 Zn5 1.910 . S
O15 C21 1.231 1_556 S
C16 O0 1.225 1_545 S
C16 O22 1.298 1_455 S
C17 O6 1.226 1_445 S
C17 O7 1.307 . S
C18 O10 1.303 1_554 S
C18 O11 1.247 . S
C19 O8 1.253 1_556 S
C19 O9 1.283 . S
C20 O12 1.304 1_556 S
C20 O14 1.272 . S
C21 O13 1.311 . S
C21 O15 1.231 1_554 S
O22 Zn4 1.953 . S
O22 C16 1.298 1_655 S
O23 Zn24 1.953 . S
O23 C39 1.225 . S
Zn24 O23 1.953 . S
Zn24 O25 1.949 . S
Zn24 O31 1.919 . S
Zn24 O36 1.924 . S
O25 Zn24 1.949 . S
O25 Zn26 1.923 . S
O25 Zn27 1.950 . S
O25 Zn28 1.945 . S
Zn26 O25 1.923 . S
Zn26 O29 1.933 . S
Zn26 O32 1.941 . S
Zn26 O33 1.965 . S
Zn27 O25 1.950 . S
Zn27 O34 1.938 . S
Zn27 O35 1.906 . S
Zn27 O45 1.953 . S
Zn28 O25 1.945 . S
Zn28 O30 1.932 . S
Zn28 O37 1.977 . S
Zn28 O38 1.910 . S
O29 Zn26 1.933 . S
O29 C40 1.226 . S
O30 Zn28 1.932 . S
O30 C40 1.307 . S
O31 Zn24 1.919 . S
O31 C42 1.253 . S
O32 Zn26 1.941 . S
O32 C42 1.283 . S
O33 Zn26 1.965 . S
O33 C41 1.303 . S
O34 Zn27 1.938 . S
O34 C41 1.247 . S
O35 Zn27 1.906 . S
O35 C43 1.304 . S
O36 Zn24 1.924 . S
O36 C44 1.311 . S
O37 Zn28 1.977 . S
O37 C43 1.272 . S
O38 Zn28 1.910 . S
O38 C44 1.231 . S
C39 O23 1.225 . S
C39 O45 1.298 . S
C40 O29 1.226 . S
C40 O30 1.307 . S
C41 O33 1.303 . S
C41 O34 1.247 . S
C42 O31 1.253 . S
C42 O32 1.283 . S
C43 O35 1.304 . S
C43 O37 1.272 . S
C44 O36 1.311 . S
C44 O38 1.231 . S
O45 Zn27 1.953 . S
O45 C39 1.298 . S
P46 O57 1.490 . S
P46 C60 1.812 1_455 S
P46 C66 1.803 1_545 S
P46 C72 1.819 . S
H47 C61 0.941 1_455 S
H48 C62 0.939 . S
H49 C64 0.940 . S
H50 C65 0.940 . S
H51 C67 0.939 1_545 S
H52 C68 0.942 . S
H53 C70 0.940 . S
H54 C71 0.939 . S
H55 C73 0.941 . S
H56 C77 0.939 . S
O57 P46 1.490 . S
H58 C74 0.939 . S
H59 C76 0.940 . S
C60 P46 1.812 1_655 S
C60 C61 1.389 . S
C60 C65 1.391 . S
C61 H47 0.941 1_655 S
C61 C60 1.389 . S
C61 C62 1.397 . S
C62 H48 0.939 . S
C62 C61 1.397 . S
C62 C63 1.378 . S
C63 C62 1.378 . S
C63 C64 1.378 . S
C64 H49 0.940 . S
C64 C63 1.378 . S
C64 C65 1.396 . S
C65 H50 0.940 . S
C65 C60 1.391 . S
C65 C64 1.396 . S
C66 P46 1.803 1_565 S
C66 C67 1.378 . S
C66 C71 1.400 . S
C67 H51 0.939 1_565 S
C67 C66 1.378 . S
C67 C68 1.361 . S
C68 H52 0.942 . S
C68 C67 1.361 . S
C68 C69 1.369 . S
C69 C68 1.369 . S
C69 C70 1.404 . S
C70 H53 0.940 . S
C70 C69 1.404 . S
C70 C71 1.389 . S
C71 H54 0.939 . S
C71 C66 1.400 . S
C71 C70 1.389 . S
C72 P46 1.819 . S
C72 C73 1.391 . S
C72 C77 1.391 1_545 S
C73 H55 0.941 . S
C73 C72 1.391 . S
C73 C74 1.396 . S
C74 H58 0.939 . S
C74 C73 1.396 . S
C74 C75 1.397 . S
C75 C74 1.397 . S
C75 C76 1.385 1_545 S
C76 H59 0.940 . S
C76 C75 1.385 1_565 S
C76 C77 1.388 . S
C77 H56 0.939 . S
C77 C72 1.391 1_565 S
C77 C76 1.388 . S
P78 O89 1.490 . S
P78 C92 1.812 . S
P78 C98 1.803 1_565 S
P78 C104 1.819 . S
H79 C93 0.941 . S
H80 C94 0.939 . S
H81 C96 0.940 . S
H82 C97 0.940 . S
H83 C99 0.940 . S
H84 C100 0.942 . S
H85 C102 0.940 . S
H86 C103 0.939 . S
H87 C105 0.941 . S
H88 C109 0.939 . S
O89 P78 1.490 . S
H90 C106 0.939 . S
H91 C108 0.940 . S
C92 P78 1.812 . S
C92 C93 1.389 . S
C92 C97 1.391 1_455 S
C93 H79 0.941 . S
C93 C92 1.389 . S
C93 C94 1.397 1_455 S
C94 H80 0.939 . S
C94 C93 1.397 1_655 S
C94 C95 1.378 . S
C95 C94 1.378 . S
C95 C96 1.378 . S
C96 H81 0.940 . S
C96 C95 1.378 . S
C96 C97 1.396 . S
C97 H82 0.940 . S
C97 C92 1.391 1_655 S
C97 C96 1.396 . S
C98 P78 1.803 1_545 S
C98 C99 1.378 . S
C98 C103 1.400 . S
C99 H83 0.940 . S
C99 C98 1.378 . S
C99 C100 1.361 . S
C100 H84 0.942 . S
C100 C99 1.361 . S
C100 C101 1.369 . S
C101 C100 1.369 . S
C101 C102 1.404 . S
C102 H85 0.940 . S
C102 C101 1.404 . S
C102 C103 1.389 . S
C103 H86 0.939 . S
C103 C98 1.400 . S
C103 C102 1.389 . S
C104 P78 1.819 . S
C104 C105 1.391 . S
C104 C109 1.391 1_565 S
C105 H87 0.941 . S
C105 C104 1.391 . S
C105 C106 1.396 . S
C106 H90 0.939 . S
C106 C105 1.396 . S
C106 C107 1.397 . S
C107 C106 1.397 . S
C107 C108 1.385 1_565 S
C108 H91 0.940 . S
C108 C107 1.385 1_545 S
C108 C109 1.388 . S
C109 H88 0.939 . S
C109 C104 1.391 1_545 S
C109 C108 1.388 . S
P110 O121 1.490 . S
P110 C124 1.812 . S
P110 C130 1.803 . S
P110 C136 1.819 . S
H111 C125 0.941 . S
H112 C126 0.939 . S
H113 C128 0.940 . S
H114 C129 0.940 . S
H115 C131 0.939 . S
H116 C132 0.942 . S
H117 C134 0.940 . S
H118 C135 0.939 . S
H119 C137 0.941 . S
H120 C141 0.939 . S
O121 P110 1.490 . S
H122 C138 0.939 . S
H123 C140 0.940 . S
C124 P110 1.812 . S
C124 C125 1.389 . S
C124 C129 1.391 . S
C125 H111 0.941 . S
C125 C124 1.389 . S
C125 C126 1.397 . S
C126 H112 0.939 . S
C126 C125 1.397 . S
C126 C127 1.378 . S
C127 C126 1.378 . S
C127 C128 1.378 . S
C128 H113 0.940 . S
C128 C127 1.378 . S
C128 C129 1.396 . S
C129 H114 0.940 . S
C129 C124 1.391 . S
C129 C128 1.396 . S
C130 P110 1.803 . S
C130 C131 1.378 . S
C130 C135 1.400 . S
C131 H115 0.939 . S
C131 C130 1.378 . S
C131 C132 1.361 . S
C132 H116 0.942 . S
C132 C131 1.361 . S
C132 C133 1.369 . S
C133 C132 1.369 . S
C133 C134 1.404 . S
C134 H117 0.940 . S
C134 C133 1.404 . S
C134 C135 1.389 . S
C135 H118 0.939 . S
C135 C130 1.400 . S
C135 C134 1.389 . S
C136 P110 1.819 . S
C136 C137 1.391 . S
C136 C141 1.391 . S
C137 H119 0.941 . S
C137 C136 1.391 . S
C137 C138 1.396 . S
C138 H122 0.939 . S
C138 C137 1.396 . S
C138 C139 1.397 . S
C139 C138 1.397 . S
C139 C140 1.385 . S
C140 H123 0.940 . S
C140 C139 1.385 . S
C140 C141 1.388 . S
C141 H120 0.939 . S
C141 C136 1.391 . S
C141 C140 1.388 . S
P142 O153 1.490 . S
P142 C156 1.812 . S
P142 C162 1.803 . S
P142 C168 1.819 . S
H143 C157 0.941 . S
H144 C158 0.939 . S
H145 C160 0.940 . S
H146 C161 0.940 . S
H147 C163 0.939 . S
H148 C164 0.942 . S
H149 C166 0.940 . S
H150 C167 0.939 . S
H151 C169 0.941 . S
H152 C173 0.939 . S
O153 P142 1.490 . S
H154 C170 0.939 . S
H155 C172 0.940 . S
C156 P142 1.812 . S
C156 C157 1.389 . S
C156 C161 1.391 . S
C157 H143 0.941 . S
C157 C156 1.389 . S
C157 C158 1.397 . S
C158 H144 0.939 . S
C158 C157 1.397 . S
C158 C159 1.378 . S
C159 C158 1.378 . S
C159 C160 1.378 . S
C160 H145 0.940 . S
C160 C159 1.378 . S
C160 C161 1.396 . S
C161 H146 0.940 . S
C161 C156 1.391 . S
C161 C160 1.396 . S
C162 P142 1.803 . S
C162 C163 1.378 . S
C162 C167 1.400 . S
C163 H147 0.939 . S
C163 C162 1.378 . S
C163 C164 1.361 . S
C164 H148 0.942 . S
C164 C163 1.361 . S
C164 C165 1.369 . S
C165 C164 1.369 . S
C165 C166 1.404 . S
C166 H149 0.940 . S
C166 C165 1.404 . S
C166 C167 1.389 . S
C167 H150 0.939 . S
C167 C162 1.400 . S
C167 C166 1.389 . S
C168 P142 1.819 . S
C168 C169 1.391 . S
C168 C173 1.391 . S
C169 H151 0.941 . S
C169 C168 1.391 . S
C169 C170 1.396 . S
C170 H154 0.939 . S
C170 C169 1.396 . S
C170 C171 1.397 . S
C171 C170 1.397 . S
C171 C172 1.385 . S
C172 H155 0.940 . S
C172 C171 1.385 . S
C172 C173 1.388 . S
C173 H152 0.939 . S
C173 C168 1.391 . S
C173 C172 1.388 . S
C174 C175 1.369 . S
C174 C176 1.419 . S
C174 H178 0.930 . S
C175 C174 1.369 . S
C175 C184 1.429 . S
C176 C174 1.419 . S
C176 C177 1.363 . S
C176 H179 0.929 . S
C177 C176 1.363 . S
C177 C183 1.428 . S
H178 C174 0.930 . S
H179 C176 0.929 . S
S180 N181 1.613 . S
S180 N182 1.610 . S
N181 S180 1.613 . S
N181 C184 1.350 . S
N182 S180 1.610 . S
N182 C183 1.351 . S
C183 C177 1.428 . S
C183 N182 1.351 . S
C183 C184 1.434 . S
C184 C175 1.429 . S
C184 N181 1.350 . S
C184 C183 1.434 . S
C185 C186 1.369 . S
C185 C187 1.419 . S
C185 H189 0.930 . S
C186 C185 1.369 . S
C186 C195 1.429 . S
C187 C185 1.419 . S
C187 C188 1.363 . S
C187 H190 0.929 . S
C188 C187 1.363 . S
C188 C194 1.428 . S
H189 C185 0.930 . S
H190 C187 0.929 . S
S191 N192 1.613 . S
S191 N193 1.610 . S
N192 S191 1.613 . S
N192 C195 1.350 . S
N193 S191 1.610 . S
N193 C194 1.351 . S
C194 C188 1.428 . S
C194 N193 1.351 . S
C194 C195 1.434 . S
C195 C186 1.429 . S
C195 N192 1.350 . S
C195 C194 1.434 . S
C196 C197 1.369 . S
C196 C198 1.419 . S
C196 H200 0.930 . S
C197 C196 1.369 . S
C197 C206 1.429 . S
C198 C196 1.419 . S
C198 C199 1.363 . S
C198 H201 0.929 . S
C199 C198 1.363 . S
C199 C205 1.428 . S
H200 C196 0.930 . S
H201 C198 0.929 . S
S202 N203 1.613 . S
S202 N204 1.610 . S
N203 S202 1.613 . S
N203 C206 1.350 . S
N204 S202 1.610 . S
N204 C205 1.351 . S
C205 C199 1.428 . S
C205 N204 1.351 . S
C205 C206 1.434 . S
C206 C197 1.429 . S
C206 N203 1.350 . S
C206 C205 1.434 . S
C207 C208 1.369 . S
C207 C209 1.419 . S
C207 H211 0.930 . S
C208 C207 1.369 . S
C208 C217 1.429 1_556 S
C209 C207 1.419 . S
C209 C210 1.363 . S
C209 H212 0.929 . S
C210 C209 1.363 . S
C210 C216 1.428 . S
H211 C207 0.930 . S
H212 C209 0.929 . S
S213 N214 1.613 . S
S213 N215 1.610 . S
N214 S213 1.613 . S
N214 C217 1.350 . S
N215 S213 1.610 . S
N215 C216 1.351 1_554 S
C216 C210 1.428 . S
C216 N215 1.351 1_556 S
C216 C217 1.434 1_556 S
C217 C208 1.429 1_554 S
C217 N214 1.350 . S
C217 C216 1.434 1_554 S
C218 C219 1.369 . S
C218 C220 1.419 . S
C218 H222 0.930 . S
C219 C218 1.369 . S
C219 C228 1.429 . S
C220 C218 1.419 . S
C220 C221 1.363 . S
C220 H223 0.929 . S
C221 C220 1.363 . S
C221 C227 1.428 . S
H222 C218 0.930 . S
H223 C220 0.929 . S
S224 N225 1.613 . S
S224 N226 1.610 . S
N225 S224 1.613 . S
N225 C228 1.350 . S
N226 S224 1.610 . S
N226 C227 1.351 . S
C227 C221 1.428 . S
C227 N226 1.351 . S
C227 C228 1.434 . S
C228 C219 1.429 . S
C228 N225 1.350 . S
C228 C227 1.434 . S
C229 C230 1.369 . S
C229 C231 1.419 . S
C229 H233 0.930 . S
C230 C229 1.369 . S
C230 C239 1.429 . S
C231 C229 1.419 . S
C231 C232 1.363 . S
C231 H234 0.929 . S
C232 C231 1.363 . S
C232 C238 1.428 . S
H233 C229 0.930 . S
H234 C231 0.929 . S
S235 N236 1.613 . S
S235 N237 1.610 . S
N236 S235 1.613 . S
N236 C239 1.350 . S
N237 S235 1.610 . S
N237 C238 1.351 . S
C238 C232 1.428 . S
C238 N237 1.351 . S
C238 C239 1.434 . S
C239 C230 1.429 . S
C239 N236 1.350 . S
C239 C238 1.434 . S
C240 C241 1.369 . S
C240 C242 1.419 . S
C240 H244 0.930 . S
C241 C240 1.369 . S
C241 C250 1.429 . S
C242 C240 1.419 . S
C242 C243 1.363 . S
C242 H245 0.929 . S
C243 C242 1.363 . S
C243 C249 1.428 . S
H244 C240 0.930 . S
H245 C242 0.929 . S
S246 N247 1.613 . S
S246 N248 1.610 . S
N247 S246 1.613 . S
N247 C250 1.350 . S
N248 S246 1.610 . S
N248 C249 1.351 . S
C249 C243 1.428 . S
C249 N248 1.351 . S
C249 C250 1.434 . S
C250 C241 1.429 . S
C250 N247 1.350 . S
C250 C249 1.434 . S
C251 C252 1.369 . S
C251 C253 1.419 . S
C251 H255 0.930 . S
C252 C251 1.369 . S
C252 C261 1.429 . S
C253 C251 1.419 . S
C253 C254 1.363 . S
C253 H256 0.929 . S
C254 C253 1.363 . S
C254 C260 1.428 . S
H255 C251 0.930 . S
H256 C253 0.929 . S
S257 N258 1.613 . S
S257 N259 1.610 . S
N258 S257 1.613 . S
N258 C261 1.350 . S
N259 S257 1.610 . S
N259 C260 1.351 . S
C260 C254 1.428 . S
C260 N259 1.351 . S
C260 C261 1.434 . S
C261 C252 1.429 . S
C261 N258 1.350 . S
C261 C260 1.434 . S
C262 C263 1.369 . S
C262 C264 1.419 . S
C262 H266 0.930 . S
C263 C262 1.369 . S
C263 C272 1.429 1_445 S
C264 C262 1.419 . S
C264 C265 1.361 1_455 S
C264 H267 0.929 . S
C265 C264 1.361 1_655 S
C265 C271 1.430 1_545 S
H266 C262 0.930 . S
H267 C264 0.929 . S
S268 N269 1.613 . S
S268 N270 1.610 . S
N269 S268 1.613 . S
N269 C272 1.350 . S
N270 S268 1.610 . S
N270 C271 1.351 . S
C271 C265 1.430 1_565 S
C271 N270 1.351 . S
C271 C272 1.434 . S
C272 C263 1.429 1_665 S
C272 N269 1.350 . S
C272 C271 1.434 . S
C273 C274 1.369 . S
C273 C275 1.419 . S
C273 H277 0.930 . S
C274 C273 1.369 . S
C274 C283 1.429 1_445 S
C275 C273 1.419 . S
C275 C276 1.363 1_545 S
C275 H278 0.929 . S
C276 C275 1.363 1_565 S
C276 C282 1.429 1_455 S
H277 C273 0.930 . S
H278 C275 0.929 . S
S279 N280 1.613 . S
S279 N281 1.610 . S
N280 S279 1.613 . S
N280 C283 1.350 . S
N281 S279 1.610 . S
N281 C282 1.351 . S
C282 C276 1.429 1_655 S
C282 N281 1.351 . S
C282 C283 1.434 . S
C283 C274 1.429 1_665 S
C283 N280 1.350 . S
C283 C282 1.434 . S
C284 C285 1.369 . S
C284 C286 1.419 . S
C284 H288 0.930 . S
C285 C284 1.369 . S
C285 C294 1.429 . S
C286 C284 1.419 . S
C286 C287 1.363 . S
C286 H289 0.929 . S
C287 C286 1.363 . S
C287 C293 1.428 . S
H288 C284 0.930 . S
H289 C286 0.929 . S
S290 N291 1.613 . S
S290 N292 1.610 . S
N291 S290 1.613 . S
N291 C294 1.350 . S
N292 S290 1.610 . S
N292 C293 1.351 . S
C293 C287 1.428 . S
C293 N292 1.351 . S
C293 C294 1.434 . S
C294 C285 1.429 . S
C294 N291 1.350 . S
C294 C293 1.434 . S
C295 C296 1.369 . S
C295 C297 1.419 . S
C295 H299 0.930 . S
C296 C295 1.369 . S
C296 C305 1.429 . S
C297 C295 1.419 . S
C297 C298 1.363 . S
C297 H300 0.929 . S
C298 C297 1.363 . S
C298 C304 1.428 . S
H299 C295 0.930 . S
H300 C297 0.929 . S
S301 N302 1.613 . S
S301 N303 1.610 . S
N302 S301 1.613 . S
N302 C305 1.350 . S
N303 S301 1.610 . S
N303 C304 1.351 . S
C304 C298 1.428 . S
C304 N303 1.351 . S
C304 C305 1.434 . S
C305 C296 1.429 . S
C305 N302 1.350 . S
C305 C304 1.434 . S
C177 C159 1.461 . S
C175 C21 1.470 . S
C186 C19 1.461 . S
C188 C127 1.452 . S
C197 C18 1.445 . S
C199 C165 1.428 . S
C208 C20 1.458 . S
C210 C133 1.432 . S
C219 C44 1.468 . S
C221 C95 1.457 . S
C230 C42 1.461 . S
C232 C63 1.452 . S
C243 C101 1.432 . S
C241 C41 1.440 . S
C254 C69 1.432 . S
C252 C43 1.458 . S
C263 C16 1.499 . S
C265 C75 1.462 1_655 S
C274 C17 1.468 . S
C276 C107 1.440 . S
C287 C139 1.459 . S
C285 C39 1.500 . S
C296 C40 1.468 . S
C298 C171 1.439 . S
