# Generated by pormake.
# Topology eea, (3,6)-cn, num edge types: 1
# Building blocks:
#     Node 0, Type 0, BuildingBlock: QEWDON_clean_linker_0, # of connection points: 3
#     Node 1, Type 0, BuildingBlock: QEWDON_clean_linker_0, # of connection points: 3
#     Node 2, Type 0, BuildingBlock: QEWDON_clean_linker_0, # of connection points: 3
#     Node 3, Type 0, BuildingBlock: QEWDON_clean_linker_0, # of connection points: 3
#     Node 4, Type 0, BuildingBlock: QEWDON_clean_linker_0, # of connection points: 3
#     Node 5, Type 0, BuildingBlock: QEWDON_clean_linker_0, # of connection points: 3
#     Node 6, Type 0, BuildingBlock: QEWDON_clean_linker_0, # of connection points: 3
#     Node 7, Type 0, BuildingBlock: QEWDON_clean_linker_0, # of connection points: 3
#     Node 8, Type 0, BuildingBlock: QEWDON_clean_linker_0, # of connection points: 3
#     Node 9, Type 0, BuildingBlock: QEWDON_clean_linker_0, # of connection points: 3
#     Node 10, Type 0, BuildingBlock: QEWDON_clean_linker_0, # of connection points: 3
#     Node 11, Type 0, BuildingBlock: QEWDON_clean_linker_0, # of connection points: 3
#     Node 12, Type 0, BuildingBlock: QEWDON_clean_linker_0, # of connection points: 3
#     Node 13, Type 0, BuildingBlock: QEWDON_clean_linker_0, # of connection points: 3
#     Node 14, Type 0, BuildingBlock: QEWDON_clean_linker_0, # of connection points: 3
#     Node 15, Type 0, BuildingBlock: QEWDON_clean_linker_0, # of connection points: 3
#     Node 16, Type 0, BuildingBlock: QEWDON_clean_linker_0, # of connection points: 3
#     Node 17, Type 0, BuildingBlock: QEWDON_clean_linker_0, # of connection points: 3
#     Node 18, Type 1, BuildingBlock: CUKXOW_clean_sbu_0, # of connection points: 6
#     Node 19, Type 1, BuildingBlock: CUKXOW_clean_sbu_0, # of connection points: 6
#     Node 20, Type 1, BuildingBlock: CUKXOW_clean_sbu_0, # of connection points: 6
#     Node 21, Type 1, BuildingBlock: CUKXOW_clean_sbu_0, # of connection points: 6
#     Node 22, Type 1, BuildingBlock: CUKXOW_clean_sbu_0, # of connection points: 6
#     Node 23, Type 1, BuildingBlock: CUKXOW_clean_sbu_0, # of connection points: 6
#     Node 24, Type 1, BuildingBlock: CUKXOW_clean_sbu_0, # of connection points: 6
#     Node 25, Type 1, BuildingBlock: CUKXOW_clean_sbu_0, # of connection points: 6
#     Node 26, Type 1, BuildingBlock: CUKXOW_clean_sbu_0, # of connection points: 6
#     Edge 27, Type (0, 1), BuildingBlock: UVAHIK_clean_linker_0, # of connection points: 2
#     Edge 28, Type (0, 1), BuildingBlock: UVAHIK_clean_linker_0, # of connection points: 2
#     Edge 29, Type (0, 1), BuildingBlock: UVAHIK_clean_linker_0, # of connection points: 2
#     Edge 30, Type (0, 1), BuildingBlock: UVAHIK_clean_linker_0, # of connection points: 2
#     Edge 31, Type (0, 1), BuildingBlock: UVAHIK_clean_linker_0, # of connection points: 2
#     Edge 32, Type (0, 1), BuildingBlock: UVAHIK_clean_linker_0, # of connection points: 2
#     Edge 33, Type (0, 1), BuildingBlock: UVAHIK_clean_linker_0, # of connection points: 2
#     Edge 34, Type (0, 1), BuildingBlock: UVAHIK_clean_linker_0, # of connection points: 2
#     Edge 35, Type (0, 1), BuildingBlock: UVAHIK_clean_linker_0, # of connection points: 2
#     Edge 36, Type (0, 1), BuildingBlock: UVAHIK_clean_linker_0, # of connection points: 2
#     Edge 37, Type (0, 1), BuildingBlock: UVAHIK_clean_linker_0, # of connection points: 2
#     Edge 38, Type (0, 1), BuildingBlock: UVAHIK_clean_linker_0, # of connection points: 2
#     Edge 39, Type (0, 1), BuildingBlock: UVAHIK_clean_linker_0, # of connection points: 2
#     Edge 40, Type (0, 1), BuildingBlock: UVAHIK_clean_linker_0, # of connection points: 2
#     Edge 41, Type (0, 1), BuildingBlock: UVAHIK_clean_linker_0, # of connection points: 2
#     Edge 42, Type (0, 1), BuildingBlock: UVAHIK_clean_linker_0, # of connection points: 2
#     Edge 43, Type (0, 1), BuildingBlock: UVAHIK_clean_linker_0, # of connection points: 2
#     Edge 44, Type (0, 1), BuildingBlock: UVAHIK_clean_linker_0, # of connection points: 2
#     Edge 45, Type (0, 1), BuildingBlock: UVAHIK_clean_linker_0, # of connection points: 2
#     Edge 46, Type (0, 1), BuildingBlock: UVAHIK_clean_linker_0, # of connection points: 2
#     Edge 47, Type (0, 1), BuildingBlock: UVAHIK_clean_linker_0, # of connection points: 2
#     Edge 48, Type (0, 1), BuildingBlock: UVAHIK_clean_linker_0, # of connection points: 2
#     Edge 49, Type (0, 1), BuildingBlock: UVAHIK_clean_linker_0, # of connection points: 2
#     Edge 50, Type (0, 1), BuildingBlock: UVAHIK_clean_linker_0, # of connection points: 2
#     Edge 51, Type (0, 1), BuildingBlock: UVAHIK_clean_linker_0, # of connection points: 2
#     Edge 52, Type (0, 1), BuildingBlock: UVAHIK_clean_linker_0, # of connection points: 2
#     Edge 53, Type (0, 1), BuildingBlock: UVAHIK_clean_linker_0, # of connection points: 2
#     Edge 54, Type (0, 1), BuildingBlock: UVAHIK_clean_linker_0, # of connection points: 2
#     Edge 55, Type (0, 1), BuildingBlock: UVAHIK_clean_linker_0, # of connection points: 2
#     Edge 56, Type (0, 1), BuildingBlock: UVAHIK_clean_linker_0, # of connection points: 2
#     Edge 57, Type (0, 1), BuildingBlock: UVAHIK_clean_linker_0, # of connection points: 2
#     Edge 58, Type (0, 1), BuildingBlock: UVAHIK_clean_linker_0, # of connection points: 2
#     Edge 59, Type (0, 1), BuildingBlock: UVAHIK_clean_linker_0, # of connection points: 2
#     Edge 60, Type (0, 1), BuildingBlock: UVAHIK_clean_linker_0, # of connection points: 2
#     Edge 61, Type (0, 1), BuildingBlock: UVAHIK_clean_linker_0, # of connection points: 2
#     Edge 62, Type (0, 1), BuildingBlock: UVAHIK_clean_linker_0, # of connection points: 2
#     Edge 63, Type (0, 1), BuildingBlock: UVAHIK_clean_linker_0, # of connection points: 2
#     Edge 64, Type (0, 1), BuildingBlock: UVAHIK_clean_linker_0, # of connection points: 2
#     Edge 65, Type (0, 1), BuildingBlock: UVAHIK_clean_linker_0, # of connection points: 2
#     Edge 66, Type (0, 1), BuildingBlock: UVAHIK_clean_linker_0, # of connection points: 2
#     Edge 67, Type (0, 1), BuildingBlock: UVAHIK_clean_linker_0, # of connection points: 2
#     Edge 68, Type (0, 1), BuildingBlock: UVAHIK_clean_linker_0, # of connection points: 2
#     Edge 69, Type (0, 1), BuildingBlock: UVAHIK_clean_linker_0, # of connection points: 2
#     Edge 70, Type (0, 1), BuildingBlock: UVAHIK_clean_linker_0, # of connection points: 2
#     Edge 71, Type (0, 1), BuildingBlock: UVAHIK_clean_linker_0, # of connection points: 2
#     Edge 72, Type (0, 1), BuildingBlock: UVAHIK_clean_linker_0, # of connection points: 2
#     Edge 73, Type (0, 1), BuildingBlock: UVAHIK_clean_linker_0, # of connection points: 2
#     Edge 74, Type (0, 1), BuildingBlock: UVAHIK_clean_linker_0, # of connection points: 2
#     Edge 75, Type (0, 1), BuildingBlock: UVAHIK_clean_linker_0, # of connection points: 2
#     Edge 76, Type (0, 1), BuildingBlock: UVAHIK_clean_linker_0, # of connection points: 2
#     Edge 77, Type (0, 1), BuildingBlock: UVAHIK_clean_linker_0, # of connection points: 2
#     Edge 78, Type (0, 1), BuildingBlock: UVAHIK_clean_linker_0, # of connection points: 2
#     Edge 79, Type (0, 1), BuildingBlock: UVAHIK_clean_linker_0, # of connection points: 2
#     Edge 80, Type (0, 1), BuildingBlock: UVAHIK_clean_linker_0, # of connection points: 2
# Relax obj value: 0.053
# Max RMSD: 0.210
# Mean RMSD: 0.129
data_MOF--net-eea--node1-CUKXOW_clean_sbu_0--node2-QEWDON_clean_linker_0--edge1-UVAHIK_clean_linker_0
_symmetry_space_group_name_H-M    P1
_symmetry_Int_Tables_number       1
_symmetry_cell_setting            triclinic
loop_
_symmetry_equiv_pos_as_xyz
'x, y, z'
_cell_length_a     80.792586
_cell_length_b     77.281135
_cell_length_c     61.797383
_cell_angle_alpha  93.104648
_cell_angle_beta   93.262642
_cell_angle_gamma 119.92071
loop_
_atom_site_label
_atom_site_type_symbol
_atom_site_fract_x
_atom_site_fract_y
_atom_site_fract_z
_atom_type_partial_charge
H0 H 0.21793 0.12262 0.44498 0.0
C1 C 0.21776 0.11078 0.43455 0.0
C2 C 0.23098 0.10437 0.43934 0.0
C3 C 0.20315 0.10078 0.41746 0.0
H4 H 0.2397 0.08302 0.42976 0.0
C5 C 0.22973 0.08822 0.42614 0.0
C6 C 0.21495 0.07786 0.40919 0.0
C7 C 0.20186 0.08445 0.40484 0.0
C8 C 0.18753 0.10536 0.41474 0.0
H9 H 0.19024 0.07653 0.39199 0.0
C10 C 0.19076 0.12356 0.40727 0.0
C11 C 0.17546 0.12735 0.4042 0.0
C12 C 0.16909 0.0911 0.41948 0.0
H13 H 0.1664 0.07703 0.42528 0.0
C14 C 0.15403 0.09497 0.417 0.0
H15 H 0.20496 0.13437 0.40324 0.0
C16 C 0.15715 0.11293 0.40945 0.0
H17 H 0.14518 0.11556 0.40784 0.0
H18 H 0.13987 0.08399 0.42091 0.0
H19 H 0.88702 0.10223 0.44671 0.0
C20 C 0.89861 0.11392 0.43898 0.0
C21 C 0.9047 0.13423 0.44488 0.0
C22 C 0.90844 0.10857 0.42451 0.0
H23 H 0.92527 0.16483 0.43958 0.0
C24 C 0.92038 0.14913 0.43528 0.0
C25 C 0.93053 0.14398 0.42109 0.0
C26 C 0.92441 0.12369 0.41571 0.0
C27 C 0.90333 0.08734 0.42032 0.0
H28 H 0.93228 0.11964 0.40485 0.0
C29 C 0.88433 0.07214 0.41355 0.0
C30 C 0.87974 0.052 0.40963 0.0
C31 C 0.91767 0.08223 0.42339 0.0
H32 H 0.93234 0.09362 0.42882 0.0
C33 C 0.91317 0.06234 0.41995 0.0
H34 H 0.87332 0.07611 0.41081 0.0
C35 C 0.89439 0.04733 0.4132 0.0
H36 H 0.89134 0.03199 0.411 0.0
H37 H 0.92427 0.05852 0.42262 0.0
H38 H 0.91667 0.79301 0.46353 0.0
C39 C 0.90427 0.79256 0.45518 0.0
C40 C 0.88575 0.77787 0.45922 0.0
C41 C 0.90687 0.80705 0.4409 0.0
H42 H 0.85557 0.76702 0.45289 0.0
C43 C 0.86977 0.77775 0.44883 0.0
C44 C 0.87206 0.79208 0.43439 0.0
C45 C 0.89075 0.80652 0.43034 0.0
C46 C 0.9264 0.8234 0.43784 0.0
H47 H 0.89287 0.81747 0.41896 0.0
C48 C 0.94096 0.81917 0.43336 0.0
C49 C 0.95956 0.83479 0.43078 0.0
C50 C 0.93061 0.84343 0.43971 0.0
H51 H 0.91968 0.84708 0.44333 0.0
C52 C 0.94907 0.85897 0.43732 0.0
H53 H 0.9378 0.80376 0.43185 0.0
C54 C 0.96349 0.85472 0.43291 0.0
H55 H 0.97764 0.86702 0.43079 0.0
H56 H 0.95221 0.87435 0.43884 0.0
H57 H 0.10942 0.20642 0.55558 0.0
C58 C 0.09839 0.20755 0.56368 0.0
C59 C 0.09274 0.22117 0.5573 0.0
C60 C 0.08961 0.19512 0.58014 0.0
H61 H 0.07317 0.23201 0.56177 0.0
C62 C 0.07809 0.22217 0.56747 0.0
C63 C 0.06916 0.20991 0.58407 0.0
C64 C 0.07532 0.19668 0.5905 0.0
C65 C 0.09462 0.17979 0.58594 0.0
H66 H 0.06903 0.18751 0.60367 0.0
C67 C 0.11389 0.18458 0.58925 0.0
C68 C 0.11846 0.16992 0.59488 0.0
C69 C 0.07995 0.16013 0.58812 0.0
H70 H 0.065 0.15597 0.5854 0.0
C71 C 0.08439 0.14555 0.59359 0.0
H72 H 0.12528 0.1997 0.58756 0.0
C73 C 0.10347 0.15037 0.597 0.0
H74 H 0.10649 0.13885 0.60168 0.0
H75 H 0.07298 0.13047 0.59528 0.0
H76 H 0.7944 0.9034 0.60043 0.0
C77 C 0.79287 0.89019 0.60746 0.0
C78 C 0.77943 0.87102 0.5974 0.0
C79 C 0.80478 0.89239 0.62612 0.0
H80 H 0.76766 0.83919 0.59849 0.0
C81 C 0.77783 0.85397 0.60637 0.0
C82 C 0.7897 0.85587 0.62495 0.0
C83 C 0.80297 0.87514 0.6348 0.0
C84 C 0.82002 0.9126 0.63579 0.0
H85 H 0.81238 0.87679 0.64896 0.0
C86 C 0.81627 0.92846 0.63928 0.0
C87 C 0.8308 0.9474 0.64895 0.0
C88 C 0.83858 0.91606 0.64165 0.0
H89 H 0.84201 0.90431 0.63878 0.0
C90 C 0.85303 0.93481 0.65099 0.0
H91 H 0.80197 0.92591 0.63506 0.0
C92 C 0.84921 0.95036 0.65466 0.0
H93 H 0.86077 0.96484 0.66173 0.0
H94 H 0.86728 0.93732 0.65533 0.0
H95 H 0.10298 0.88281 0.57395 0.0
C96 C 0.11494 0.89476 0.58436 0.0
C97 C 0.13391 0.90157 0.57938 0.0
C98 C 0.11128 0.90448 0.60172 0.0
H99 H 0.16379 0.92312 0.58899 0.0
C100 C 0.14915 0.91769 0.59268 0.0
C101 C 0.14567 0.92773 0.60986 0.0
C102 C 0.12667 0.92085 0.61437 0.0
C103 C 0.09146 0.89942 0.60521 0.0
H104 H 0.12376 0.92855 0.62749 0.0
C105 C 0.07789 0.88041 0.61102 0.0
C106 C 0.05975 0.87677 0.61627 0.0
C107 C 0.08645 0.91435 0.60382 0.0
H108 H 0.09667 0.92904 0.59927 0.0
C109 C 0.06832 0.91055 0.60842 0.0
H110 H 0.08172 0.86889 0.61243 0.0
C111 C 0.05509 0.89195 0.6148 0.0
H112 H 0.04118 0.88939 0.61867 0.0
H113 H 0.0646 0.92215 0.60733 0.0
H114 H 0.88483 0.45626 0.77381 0.0
C115 C 0.88446 0.44411 0.76377 0.0
C116 C 0.89698 0.437 0.76949 0.0
C117 C 0.87024 0.43439 0.74623 0.0
H118 H 0.90498 0.41484 0.76104 0.0
C119 C 0.89551 0.42053 0.75673 0.0
C120 C 0.88113 0.41046 0.73937 0.0
C121 C 0.86868 0.41767 0.73412 0.0
C122 C 0.85513 0.43962 0.74245 0.0
H123 H 0.85733 0.40992 0.72095 0.0
C124 C 0.85919 0.45805 0.73483 0.0
C125 C 0.84425 0.46215 0.73027 0.0
C126 C 0.83623 0.42558 0.74602 0.0
H127 H 0.83288 0.41135 0.75193 0.0
C128 C 0.82153 0.4298 0.74212 0.0
H129 H 0.87374 0.46876 0.73174 0.0
C130 C 0.82545 0.4479 0.73427 0.0
H131 H 0.81374 0.45079 0.73139 0.0
H132 H 0.80701 0.41895 0.74507 0.0
H133 H 0.55008 0.43453 0.77272 0.0
C134 C 0.56149 0.44731 0.76604 0.0
C135 C 0.56734 0.46679 0.77515 0.0
C136 C 0.5706 0.44425 0.74875 0.0
H137 H 0.58712 0.49833 0.77404 0.0
C138 C 0.58244 0.48332 0.76682 0.0
C139 C 0.59194 0.48057 0.74976 0.0
C140 C 0.58572 0.46099 0.74067 0.0
C141 C 0.56505 0.42361 0.73977 0.0
H142 H 0.59302 0.45873 0.72759 0.0
C143 C 0.54561 0.40842 0.73593 0.0
C144 C 0.54052 0.38901 0.72708 0.0
C145 C 0.57932 0.41902 0.73496 0.0
H146 H 0.59439 0.43021 0.73815 0.0
C147 C 0.57434 0.39983 0.72628 0.0
H148 H 0.53445 0.4118 0.7393 0.0
C149 C 0.55511 0.38493 0.72231 0.0
H150 H 0.55166 0.37008 0.71583 0.0
H151 H 0.58546 0.39646 0.72272 0.0
H152 H 0.58121 0.12065 0.78949 0.0
C153 C 0.56865 0.1213 0.78372 0.0
C154 C 0.55072 0.1083 0.79104 0.0
C155 C 0.57067 0.13572 0.76956 0.0
H156 H 0.52117 0.10104 0.79027 0.0
C157 C 0.53475 0.10991 0.78368 0.0
C158 C 0.53629 0.12355 0.76868 0.0
C159 C 0.55432 0.13624 0.76157 0.0
C160 C 0.58999 0.15127 0.76437 0.0
H161 H 0.55576 0.14671 0.74984 0.0
C162 C 0.6042 0.14642 0.76004 0.0
C163 C 0.62276 0.16152 0.75645 0.0
C164 C 0.59456 0.17142 0.76473 0.0
H165 H 0.58408 0.17572 0.76839 0.0
C166 C 0.61288 0.18636 0.76094 0.0
H167 H 0.60091 0.13098 0.75969 0.0
C168 C 0.62694 0.1815 0.75691 0.0
H169 H 0.64107 0.19336 0.75397 0.0
H170 H 0.61624 0.20181 0.76131 0.0
H171 H 0.77862 0.54662 0.89987 0.0
C172 C 0.76778 0.5476 0.90853 0.0
C173 C 0.76207 0.56137 0.903 0.0
C174 C 0.75917 0.53474 0.92473 0.0
H175 H 0.74246 0.57195 0.90841 0.0
C176 C 0.74749 0.56207 0.91363 0.0
C177 C 0.73861 0.54926 0.92983 0.0
C178 C 0.74493 0.536 0.93558 0.0
C179 C 0.76417 0.51919 0.92958 0.0
H180 H 0.73867 0.52645 0.94849 0.0
C181 C 0.7834 0.52373 0.9317 0.0
C182 C 0.78799 0.50888 0.93637 0.0
C183 C 0.74953 0.49955 0.93196 0.0
H184 H 0.73459 0.49552 0.93007 0.0
C185 C 0.75398 0.4848 0.93654 0.0
H186 H 0.79476 0.53881 0.9298 0.0
C187 C 0.77304 0.48939 0.93881 0.0
H188 H 0.77607 0.47771 0.94282 0.0
H189 H 0.7426 0.46975 0.93842 0.0
H190 H 0.45659 0.23581 0.9318 0.0
C191 C 0.45631 0.22315 0.93888 0.0
C192 C 0.44404 0.20363 0.92884 0.0
C193 C 0.46861 0.22644 0.95758 0.0
H194 H 0.43536 0.17236 0.92942 0.0
C195 C 0.44416 0.1873 0.93769 0.0
C196 C 0.45654 0.19034 0.95624 0.0
C197 C 0.46832 0.20989 0.96632 0.0
C198 C 0.48269 0.24714 0.96729 0.0
H199 H 0.47752 0.21228 0.98096 0.0
C200 C 0.47758 0.26208 0.96966 0.0
C201 C 0.49106 0.28153 0.97915 0.0
C202 C 0.50156 0.25205 0.97418 0.0
H203 H 0.5061 0.24108 0.97214 0.0
C204 C 0.51493 0.27128 0.98347 0.0
H205 H 0.46305 0.25846 0.96465 0.0
C206 C 0.50976 0.28592 0.98599 0.0
H207 H 0.52053 0.30082 0.99298 0.0
H208 H 0.52942 0.27488 0.98862 0.0
H209 H 0.76909 0.21671 0.90849 0.0
C210 C 0.78107 0.22898 0.91856 0.0
C211 C 0.80001 0.23577 0.9135 0.0
C212 C 0.77742 0.23904 0.93558 0.0
H213 H 0.82989 0.25765 0.92271 0.0
C214 C 0.81525 0.25226 0.9264 0.0
C215 C 0.81178 0.26262 0.94323 0.0
C216 C 0.7928 0.25575 0.94782 0.0
C217 C 0.75756 0.2337 0.93934 0.0
H218 H 0.78991 0.26366 0.96074 0.0
C219 C 0.74422 0.21456 0.94506 0.0
C220 C 0.72606 0.21062 0.95057 0.0
C221 C 0.75229 0.24846 0.93831 0.0
H222 H 0.76231 0.26324 0.93383 0.0
C223 C 0.73413 0.24436 0.94321 0.0
H224 H 0.74823 0.20316 0.94619 0.0
C225 C 0.72114 0.22563 0.94951 0.0
H226 H 0.70721 0.22283 0.95365 0.0
H227 H 0.73021 0.25584 0.94242 0.0
H228 H 0.55163 0.79058 0.109 0.0
C229 C 0.55154 0.77863 0.09888 0.0
C230 C 0.5642 0.77171 0.10464 0.0
C231 C 0.53752 0.76896 0.08114 0.0
H232 H 0.5726 0.74989 0.09612 0.0
C233 C 0.56305 0.75545 0.09177 0.0
C234 C 0.54885 0.74542 0.07421 0.0
C235 C 0.5363 0.75249 0.06888 0.0
C236 C 0.52228 0.77398 0.07725 0.0
H237 H 0.52512 0.74482 0.05553 0.0
C238 C 0.52624 0.79242 0.06976 0.0
C239 C 0.5112 0.79634 0.06508 0.0
C240 C 0.50338 0.75974 0.08057 0.0
H241 H 0.50012 0.74549 0.08637 0.0
C242 C 0.48857 0.76378 0.07654 0.0
H243 H 0.5408 0.80328 0.06686 0.0
C244 C 0.4924 0.7819 0.06882 0.0
H245 H 0.4806 0.78465 0.06585 0.0
H246 H 0.47405 0.75278 0.07929 0.0
H247 H 0.21837 0.76878 0.10561 0.0
C248 C 0.22934 0.78161 0.09851 0.0
C249 C 0.23479 0.8011 0.10725 0.0
C250 C 0.23833 0.77864 0.08105 0.0
H251 H 0.25371 0.83271 0.10526 0.0
C252 C 0.24932 0.81769 0.09834 0.0
C253 C 0.25863 0.815 0.08103 0.0
C254 C 0.25287 0.79542 0.07237 0.0
C255 C 0.23335 0.7581 0.07245 0.0
H256 H 0.26007 0.7932 0.05915 0.0
C257 C 0.21408 0.74261 0.06816 0.0
C258 C 0.20957 0.72342 0.05924 0.0
C259 C 0.24804 0.75401 0.06821 0.0
H260 H 0.26299 0.76551 0.07171 0.0
C261 C 0.24364 0.73499 0.05961 0.0
H262 H 0.20263 0.74564 0.07112 0.0
C263 C 0.22457 0.7198 0.05507 0.0
H264 H 0.22155 0.70511 0.04854 0.0
H265 H 0.25507 0.732 0.05647 0.0
H266 H 0.25168 0.46408 0.13259 0.0
C267 C 0.23904 0.46383 0.12523 0.0
C268 C 0.22073 0.44836 0.12885 0.0
C269 C 0.2411 0.47927 0.11266 0.0
H270 H 0.1903 0.43676 0.12303 0.0
C271 C 0.20442 0.4483 0.11959 0.0
C272 C 0.20623 0.46374 0.10719 0.0
C273 C 0.22465 0.47914 0.10374 0.0
C274 C 0.26042 0.49595 0.10944 0.0
H275 H 0.2262 0.491 0.09395 0.0
C276 C 0.27462 0.49202 0.10256 0.0
C277 C 0.29287 0.50786 0.09909 0.0
C278 C 0.26467 0.51591 0.11306 0.0
H279 H 0.25401 0.51932 0.11853 0.0
C280 C 0.2828 0.53168 0.10995 0.0
H281 H 0.27122 0.47662 0.09926 0.0
C282 C 0.29683 0.52774 0.103 0.0
H283 H 0.31083 0.54027 0.10086 0.0
H284 H 0.286 0.54702 0.11293 0.0
H285 H 0.44707 0.87466 0.23293 0.0
C286 C 0.43549 0.87548 0.24004 0.0
C287 C 0.43144 0.89056 0.2348 0.0
C288 C 0.42422 0.86104 0.25378 0.0
H289 H 0.41254 0.9024 0.23909 0.0
C290 C 0.41617 0.89128 0.24374 0.0
C291 C 0.40467 0.87684 0.25733 0.0
C292 C 0.40893 0.86192 0.26243 0.0
C293 C 0.42771 0.84442 0.25836 0.0
H294 H 0.40025 0.8509 0.27315 0.0
C295 C 0.44636 0.84816 0.26434 0.0
C296 C 0.44937 0.8324 0.26965 0.0
C297 C 0.41218 0.82465 0.25713 0.0
H298 H 0.39772 0.8213 0.25224 0.0
C299 C 0.41517 0.80896 0.26205 0.0
H300 H 0.4584 0.86338 0.26566 0.0
C301 C 0.43361 0.81278 0.26839 0.0
H302 H 0.43558 0.80036 0.27218 0.0
H303 H 0.40312 0.7938 0.26102 0.0
H304 H 0.12648 0.57155 0.26276 0.0
C305 C 0.12712 0.55884 0.26834 0.0
C306 C 0.11554 0.53963 0.25708 0.0
C307 C 0.14 0.56189 0.2864 0.0
H308 H 0.10875 0.50868 0.25558 0.0
C309 C 0.11682 0.52338 0.26453 0.0
C310 C 0.12934 0.52613 0.28275 0.0
C311 C 0.14068 0.54533 0.29368 0.0
C312 C 0.15371 0.58243 0.29692 0.0
H313 H 0.1502 0.54738 0.3079 0.0
C314 C 0.14809 0.59688 0.30051 0.0
C315 C 0.16129 0.61616 0.31066 0.0
C316 C 0.17278 0.58771 0.30331 0.0
H317 H 0.17775 0.5772 0.3003 0.0
C318 C 0.18584 0.60675 0.31334 0.0
H319 H 0.13344 0.59303 0.29587 0.0
C320 C 0.18017 0.62088 0.31704 0.0
H321 H 0.19071 0.63568 0.32453 0.0
H322 H 0.20047 0.61062 0.3181 0.0
H323 H 0.43617 0.55428 0.23998 0.0
C324 C 0.44858 0.56587 0.25014 0.0
C325 C 0.46715 0.57101 0.24503 0.0
C326 C 0.44597 0.57667 0.26738 0.0
H327 H 0.49741 0.59018 0.25471 0.0
C328 C 0.48306 0.58658 0.25801 0.0
C329 C 0.48079 0.59796 0.27482 0.0
C330 C 0.46215 0.59269 0.27958 0.0
C331 C 0.42641 0.57243 0.27149 0.0
H332 H 0.46016 0.60147 0.29235 0.0
C333 C 0.41136 0.55268 0.27278 0.0
C334 C 0.39288 0.54891 0.27674 0.0
C335 C 0.42273 0.58836 0.27401 0.0
H336 H 0.43395 0.60366 0.27278 0.0
C337 C 0.40449 0.58471 0.27787 0.0
H338 H 0.41407 0.54031 0.27078 0.0
C339 C 0.38968 0.56518 0.27929 0.0
H340 H 0.37576 0.56287 0.28274 0.0
H341 H 0.40184 0.59709 0.27985 0.0
Tb342 Tb 0.52017 0.0177 0.01772 0.0
C343 C 0.50725 0.97105 0.01064 0.0
Tb344 Tb 0.47712 0.98573 0.00987 0.0
O345 O 0.5178 0.0222 0.05255 0.0
O346 O 0.4997 0.99485 0.0346 0.0
O347 O 0.52154 0.99004 0.01171 0.0
C348 C 0.44075 0.96198 0.01783 0.0
O349 O 0.48902 0.96604 0.0118 0.0
C350 C 0.49496 0.99855 0.97511 0.0
C351 C 0.48983 0.03226 0.01597 0.0
O352 O 0.44719 0.9633 0.99882 0.0
O353 O 0.45476 0.97404 0.03221 0.0
O354 O 0.47989 0.98083 0.97517 0.0
O355 O 0.49764 0.00842 0.99304 0.0
O356 O 0.47575 0.01332 0.01594 0.0
O357 O 0.50798 0.03714 0.01443 0.0
C358 C 0.55661 0.04228 0.01053 0.0
O359 O 0.54931 0.04193 0.02882 0.0
O360 O 0.54342 0.02862 0.99639 0.0
C361 C 0.5027 0.00455 0.05275 0.0
Tb362 Tb 0.98976 0.50599 0.01346 0.0
C363 C 0.03369 0.53603 0.01948 0.0
Tb364 Tb 0.01631 0.48859 0.01938 0.0
O365 O 0.99931 0.52122 0.0464 0.0
O366 O 0.99851 0.4941 0.03885 0.0
O367 O 0.01689 0.53325 0.01129 0.0
C368 C 0.04293 0.47986 0.03327 0.0
O369 O 0.03601 0.52104 0.0255 0.0
C370 C 0.00265 0.48627 0.97929 0.0
C371 C 0.97237 0.45852 0.01335 0.0
O372 O 0.04095 0.48495 0.01406 0.0
O373 O 0.02983 0.47959 0.04473 0.0
O374 O 0.0072 0.47355 0.98643 0.0
O375 O 0.00753 0.50043 0.99389 0.0
O376 O 0.9892 0.46126 0.02135 0.0
O377 O 0.97005 0.47353 0.00738 0.0
C378 C 0.96301 0.51467 0.99994 0.0
O379 O 0.96464 0.50876 0.01878 0.0
O380 O 0.97655 0.51582 0.98867 0.0
C381 C 0.00354 0.50825 0.05348 0.0
Tb382 Tb 0.48338 0.50024 0.00881 0.0
C383 C 0.49601 0.46871 0.00187 0.0
Tb384 Tb 0.52606 0.51528 0.00556 0.0
O385 O 0.47587 0.4883 0.97449 0.0
O386 O 0.50296 0.51264 0.98501 0.0
O387 O 0.48387 0.47258 0.01176 0.0
C388 C 0.56048 0.52279 0.99512 0.0
O389 O 0.51196 0.48317 0.995 0.0
C390 C 0.51611 0.51561 0.04509 0.0
C391 C 0.51319 0.54742 0.00974 0.0
O392 O 0.55059 0.51053 0.00898 0.0
O393 O 0.55101 0.53081 0.98708 0.0
O394 O 0.53303 0.52785 0.03953 0.0
O395 O 0.50642 0.50271 0.02933 0.0
O396 O 0.52716 0.54396 0.00486 0.0
O397 O 0.49562 0.53281 0.01254 0.0
C398 C 0.45068 0.49357 0.02422 0.0
O399 O 0.46757 0.50347 0.03479 0.0
O400 O 0.45214 0.48735 0.00488 0.0
C401 C 0.49298 0.50015 0.96903 0.0
Tb402 Tb 0.18923 0.34896 0.34173 0.0
C403 C 0.17418 0.30304 0.34384 0.0
Tb404 Tb 0.14568 0.3208 0.34355 0.0
O405 O 0.19504 0.34449 0.37528 0.0
O406 O 0.16905 0.34258 0.36496 0.0
O407 O 0.18904 0.32062 0.34028 0.0
C408 C 0.11157 0.29481 0.35642 0.0
O409 O 0.1567 0.30016 0.34599 0.0
C410 C 0.1565 0.32875 0.30444 0.0
C411 C 0.16075 0.36611 0.34075 0.0
O412 O 0.12805 0.29787 0.3646 0.0
O413 O 0.11427 0.30636 0.34093 0.0
O414 O 0.13925 0.3232 0.3093 0.0
O415 O 0.16574 0.32707 0.32044 0.0
O416 O 0.14785 0.34993 0.34931 0.0
O417 O 0.17677 0.36767 0.33418 0.0
C418 C 0.22381 0.37584 0.33087 0.0
O419 O 0.21665 0.37703 0.34878 0.0
O420 O 0.21156 0.3594 0.31911 0.0
C421 C 0.17808 0.33995 0.38053 0.0
Tb422 Tb 0.65652 0.83879 0.35135 0.0
C423 C 0.70028 0.86964 0.35645 0.0
Tb424 Tb 0.68404 0.82247 0.3543 0.0
O425 O 0.66615 0.8535 0.38445 0.0
O426 O 0.66707 0.82747 0.37578 0.0
O427 O 0.68318 0.86681 0.34944 0.0
C428 C 0.71189 0.81447 0.3646 0.0
O429 O 0.70304 0.85477 0.36176 0.0
C430 C 0.66854 0.81985 0.31504 0.0
C431 C 0.64036 0.79153 0.35042 0.0
O432 O 0.71193 0.82548 0.34949 0.0
O433 O 0.69614 0.8079 0.37396 0.0
O434 O 0.67426 0.80776 0.32124 0.0
O435 O 0.67355 0.83384 0.32988 0.0
O436 O 0.6576 0.7948 0.35738 0.0
O437 O 0.63734 0.80623 0.34506 0.0
C438 C 0.62826 0.84587 0.33982 0.0
O439 O 0.63031 0.83895 0.35781 0.0
O440 O 0.64231 0.84906 0.3283 0.0
C441 C 0.67188 0.84141 0.39068 0.0
Tb442 Tb 0.15357 0.83434 0.34296 0.0
C443 C 0.16746 0.80359 0.33795 0.0
Tb444 Tb 0.19626 0.85053 0.3384 0.0
O445 O 0.14557 0.82131 0.30903 0.0
O446 O 0.17232 0.84665 0.31844 0.0
O447 O 0.15493 0.80731 0.34711 0.0
C448 C 0.23038 0.85872 0.32613 0.0
O449 O 0.18338 0.81805 0.33102 0.0
C450 C 0.18702 0.8518 0.37809 0.0
C451 C 0.18227 0.88169 0.34194 0.0
O452 O 0.2244 0.85317 0.34495 0.0
O453 O 0.21717 0.85967 0.31424 0.0
O454 O 0.20342 0.86467 0.37174 0.0
O455 O 0.17741 0.83815 0.36293 0.0
O456 O 0.1964 0.87865 0.33667 0.0
O457 O 0.16506 0.86685 0.34561 0.0
C458 C 0.12109 0.82733 0.35919 0.0
O459 O 0.1222 0.82017 0.34019 0.0
O460 O 0.13821 0.8384 0.36895 0.0
C461 C 0.16231 0.83355 0.30294 0.0
Tb462 Tb 0.85337 0.6835 0.6828 0.0
C463 C 0.84027 0.63683 0.67577 0.0
Tb464 Tb 0.81016 0.6516 0.67573 0.0
O465 O 0.85144 0.68795 0.71788 0.0
O466 O 0.8331 0.66074 0.69987 0.0
O467 O 0.85458 0.65579 0.67655 0.0
C468 C 0.77414 0.6281 0.68509 0.0
O469 O 0.82212 0.63192 0.67741 0.0
C470 C 0.8271 0.66412 0.64034 0.0
C471 C 0.82303 0.69811 0.68155 0.0
O472 O 0.78023 0.62824 0.66603 0.0
O473 O 0.78827 0.64124 0.69868 0.0
O474 O 0.81167 0.64673 0.64075 0.0
O475 O 0.83051 0.67412 0.6584 0.0
O476 O 0.80904 0.67923 0.68216 0.0
O477 O 0.84105 0.70288 0.67916 0.0
C478 C 0.88994 0.70818 0.67609 0.0
O479 O 0.88207 0.7087 0.69367 0.0
O480 O 0.87727 0.69356 0.66238 0.0
C481 C 0.83629 0.67037 0.71806 0.0
Tb482 Tb 0.32033 0.17122 0.68388 0.0
C483 C 0.36367 0.20268 0.69333 0.0
Tb484 Tb 0.34845 0.1557 0.68956 0.0
O485 O 0.32748 0.18459 0.71765 0.0
O486 O 0.32942 0.15921 0.70894 0.0
O487 O 0.34709 0.1994 0.68378 0.0
C488 C 0.37652 0.14863 0.70202 0.0
O489 O 0.36621 0.1879 0.69957 0.0
C490 C 0.33578 0.15442 0.64926 0.0
C491 C 0.30485 0.12409 0.68161 0.0
O492 O 0.37738 0.1606 0.68766 0.0
O493 O 0.35979 0.14051 0.7094 0.0
O494 O 0.34145 0.14242 0.65587 0.0
O495 O 0.33939 0.16767 0.66448 0.0
O496 O 0.32181 0.1274 0.68992 0.0
O497 O 0.30188 0.1388 0.67615 0.0
C498 C 0.29319 0.17901 0.66932 0.0
O499 O 0.294 0.17209 0.68777 0.0
O500 O 0.30775 0.18168 0.65909 0.0
C501 C 0.3329 0.17236 0.72427 0.0
Tb502 Tb 0.82074 0.16546 0.67916 0.0
C503 C 0.83559 0.1357 0.67302 0.0
Tb504 Tb 0.86364 0.18262 0.67519 0.0
O505 O 0.81315 0.15315 0.64494 0.0
O506 O 0.83971 0.17844 0.65496 0.0
O507 O 0.82306 0.13889 0.68293 0.0
C508 C 0.8981 0.19127 0.66369 0.0
O509 O 0.8509 0.15052 0.66554 0.0
C510 C 0.85407 0.18309 0.71489 0.0
C511 C 0.84868 0.21302 0.67908 0.0
O512 O 0.88934 0.17993 0.67876 0.0
O513 O 0.8875 0.19783 0.6551 0.0
O514 O 0.87064 0.1959 0.70889 0.0
O515 O 0.84462 0.16968 0.69947 0.0
O516 O 0.86313 0.21043 0.67407 0.0
O517 O 0.8315 0.19785 0.68229 0.0
C518 C 0.78751 0.15681 0.69454 0.0
O519 O 0.78929 0.14965 0.67591 0.0
O520 O 0.80439 0.16883 0.70444 0.0
C521 C 0.82996 0.16561 0.63919 0.0
C522 C 0.28962 0.84782 0.08767 0.0
C523 C 0.27527 0.83242 0.07293 0.0
C524 C 0.30623 0.86316 0.08029 0.0
C525 C 0.33603 0.87332 0.0345 0.0
H526 H 0.36139 0.92815 0.06095 0.0
C527 C 0.40671 0.93558 0.00609 0.0
C528 C 0.42086 0.94849 0.02266 0.0
C529 C 0.38802 0.92238 0.01097 0.0
C530 C 0.35455 0.91287 0.0535 0.0
H531 H 0.26669 0.82164 0.03876 0.0
H532 H 0.29566 0.84843 0.02586 0.0
H533 H 0.33016 0.90361 0.07166 0.0
H534 H 0.42665 0.95791 0.05725 0.0
H535 H 0.39416 0.9348 0.06583 0.0
H536 H 0.36054 0.88247 0.01662 0.0
C537 C 0.29423 0.84844 0.04318 0.0
C538 C 0.33665 0.89881 0.05963 0.0
C539 C 0.27761 0.83311 0.05056 0.0
C540 C 0.41598 0.94816 0.04414 0.0
C541 C 0.39733 0.935 0.04902 0.0
C542 C 0.35393 0.88738 0.02837 0.0
C543 C 0.30888 0.86347 0.05799 0.0
C544 C 0.32727 0.87881 0.05039 0.0
C545 C 0.38313 0.92186 0.03252 0.0
C546 C 0.36352 0.90727 0.03799 0.0
H547 H 0.28841 0.84759 0.10503 0.0
H548 H 0.31732 0.87433 0.09218 0.0
H549 H 0.32936 0.85798 0.0273 0.0
H550 H 0.41011 0.93559 0.98938 0.0
H551 H 0.37738 0.91261 0.99785 0.0
C552 C 0.17231 0.44677 0.08975 0.0
C553 C 0.18891 0.46433 0.09893 0.0
C554 C 0.15579 0.44725 0.08279 0.0
C555 C 0.127 0.45547 0.05815 0.0
H556 H 0.11192 0.48716 0.09386 0.0
C557 C 0.0712 0.47623 0.02669 0.0
C558 C 0.05822 0.47595 0.041 0.0
C559 C 0.08622 0.47332 0.03405 0.0
C560 C 0.11581 0.47808 0.08382 0.0
H561 H 0.20114 0.49615 0.10808 0.0
H562 H 0.17244 0.49705 0.09561 0.0
H563 H 0.13996 0.48495 0.10619 0.0
H564 H 0.0505 0.47222 0.07413 0.0
H565 H 0.07678 0.46706 0.08707 0.0
H566 H 0.10278 0.44853 0.03582 0.0
C567 C 0.17214 0.48287 0.09397 0.0
C568 C 0.13201 0.47701 0.09075 0.0
C569 C 0.18866 0.4824 0.10085 0.0
C570 C 0.06035 0.47249 0.06277 0.0
C571 C 0.07543 0.46966 0.07018 0.0
C572 C 0.11082 0.4566 0.05118 0.0
C573 C 0.15548 0.46529 0.08497 0.0
C574 C 0.13788 0.46584 0.07791 0.0
C575 C 0.0886 0.47015 0.05591 0.0
C576 C 0.10514 0.46804 0.06385 0.0
H577 H 0.17211 0.43264 0.08792 0.0
H578 H 0.14315 0.43343 0.07604 0.0
H579 H 0.13121 0.44684 0.04783 0.0
H580 H 0.0699 0.47892 0.00982 0.0
H581 H 0.09625 0.47406 0.02272 0.0
C582 C 0.52696 0.70972 0.05905 0.0
C583 C 0.54568 0.72622 0.06328 0.0
C584 C 0.52386 0.69103 0.05093 0.0
C585 C 0.54612 0.66476 0.0242 0.0
H586 H 0.50882 0.61977 0.0525 0.0
C587 C 0.53611 0.58467 0.0134 0.0
C588 C 0.51725 0.56839 0.01257 0.0
C589 C 0.53993 0.60436 0.01785 0.0
C590 C 0.51908 0.6321 0.04419 0.0
H591 H 0.5758 0.73614 0.06138 0.0
H592 H 0.57037 0.7033 0.04747 0.0
H593 H 0.51481 0.65328 0.06305 0.0
H594 H 0.48752 0.56017 0.01483 0.0
H595 H 0.49414 0.59432 0.0222 0.0
H596 H 0.5504 0.64341 0.00539 0.0
C597 C 0.55809 0.70493 0.05033 0.0
C598 C 0.52253 0.65134 0.05025 0.0
C599 C 0.56121 0.72369 0.05848 0.0
C600 C 0.50226 0.57229 0.01556 0.0
C601 C 0.50606 0.59191 0.01991 0.0
C602 C 0.54263 0.64542 0.01808 0.0
C603 C 0.53938 0.68829 0.0469 0.0
C604 C 0.53598 0.6679 0.04026 0.0
C605 C 0.52496 0.60817 0.02153 0.0
C606 C 0.52897 0.62884 0.02793 0.0
H607 H 0.51466 0.711 0.06279 0.0
H608 H 0.50925 0.6786 0.04814 0.0
H609 H 0.5565 0.67721 0.01611 0.0
H610 H 0.54801 0.58221 0.01122 0.0
H611 H 0.55467 0.61653 0.01911 0.0
C612 C 0.84574 0.28387 0.96066 0.0
C613 C 0.82777 0.28178 0.95439 0.0
C614 C 0.86118 0.30249 0.9693 0.0
C615 C 0.87849 0.35631 0.96834 0.0
H616 H 0.91441 0.3632 0.01698 0.0
C617 C 0.93717 0.43486 0.00428 0.0
C618 C 0.9556 0.43789 0.00983 0.0
C619 C 0.9215 0.41553 0.99931 0.0
C620 C 0.90461 0.36149 0.00324 0.0
H621 H 0.81191 0.2976 0.95263 0.0
H622 H 0.83867 0.32986 0.96795 0.0
H623 H 0.88715 0.3298 0.00514 0.0
H624 H 0.9719 0.42284 0.01501 0.0
H625 H 0.94454 0.38905 0.00595 0.0
H626 H 0.89593 0.38777 0.96605 0.0
C627 C 0.84089 0.31716 0.96604 0.0
C628 C 0.88899 0.34237 0.99649 0.0
C629 C 0.82547 0.29859 0.95751 0.0
C630 C 0.95788 0.42105 0.01087 0.0
C631 C 0.94218 0.40166 0.00575 0.0
C632 C 0.89409 0.37535 0.97499 0.0
C633 C 0.859 0.31942 0.97169 0.0
C634 C 0.87569 0.3396 0.97903 0.0
C635 C 0.92383 0.39868 0.99957 0.0
C636 C 0.9073 0.37824 0.9926 0.0
H637 H 0.84792 0.27117 0.95862 0.0
H638 H 0.87498 0.30376 0.97342 0.0
H639 H 0.86875 0.35464 0.95453 0.0
H640 H 0.93482 0.44746 0.00354 0.0
H641 H 0.90752 0.41381 0.99512 0.0
C642 C 0.72063 0.56619 0.94281 0.0
C643 C 0.72192 0.54873 0.9396 0.0
C644 C 0.70426 0.56525 0.95046 0.0
C645 C 0.66431 0.53713 0.98193 0.0
H646 H 0.63488 0.55241 0.94392 0.0
C647 C 0.58648 0.51438 0.99536 0.0
C648 C 0.57958 0.52711 0.98969 0.0
C649 C 0.60461 0.51841 0.99025 0.0
C650 C 0.64305 0.54846 0.95502 0.0
H651 H 0.70675 0.51655 0.94218 0.0
H652 H 0.67882 0.51527 0.95656 0.0
H653 H 0.66586 0.55784 0.93427 0.0
H654 H 0.58613 0.55416 0.9746 0.0
H655 H 0.61816 0.56181 0.96651 0.0
H656 H 0.64195 0.52816 0.00301 0.0
C657 C 0.6905 0.52961 0.95299 0.0
C658 C 0.66076 0.55151 0.94938 0.0
C659 C 0.70662 0.53044 0.94489 0.0
C660 C 0.59113 0.54405 0.979 0.0
C661 C 0.60943 0.54833 0.97425 0.0
C662 C 0.6468 0.53445 0.98782 0.0
C663 C 0.68908 0.54694 0.95554 0.0
C664 C 0.67134 0.54555 0.96261 0.0
C665 C 0.61641 0.53551 0.97974 0.0
C666 C 0.63572 0.5397 0.97423 0.0
H667 H 0.73221 0.58061 0.93933 0.0
H668 H 0.70346 0.57882 0.95245 0.0
H669 H 0.67235 0.53256 0.99244 0.0
H670 H 0.57775 0.50113 0.00349 0.0
H671 H 0.60919 0.50789 0.99428 0.0
C672 C 0.44231 0.15436 0.96493 0.0
C673 C 0.45844 0.17349 0.96413 0.0
C674 C 0.4445 0.13855 0.97178 0.0
C675 C 0.48075 0.12281 0.97689 0.0
H676 H 0.44744 0.08557 0.01572 0.0
C677 C 0.49962 0.06841 0.01503 0.0
C678 C 0.48492 0.04829 0.01434 0.0
C679 C 0.49538 0.08334 0.01047 0.0
C680 C 0.45675 0.09576 0.00473 0.0
H681 H 0.48951 0.19088 0.96973 0.0
H682 H 0.49324 0.16364 0.98208 0.0
H683 H 0.44168 0.11209 0.0041 0.0
H684 H 0.45408 0.02827 0.00944 0.0
H685 H 0.44671 0.05445 0.00136 0.0
H686 H 0.49583 0.10666 0.97742 0.0
C687 C 0.47891 0.16073 0.97726 0.0
C688 C 0.45343 0.11092 0.99804 0.0
C689 C 0.47674 0.17645 0.97044 0.0
C690 C 0.46577 0.04362 0.0101 0.0
C691 C 0.46152 0.05862 0.0055 0.0
C692 C 0.48406 0.10776 0.98356 0.0
C693 C 0.46286 0.14154 0.97782 0.0
C694 C 0.46557 0.12476 0.98425 0.0
C695 C 0.47635 0.07856 0.00505 0.0
C696 C 0.47227 0.0942 0.99777 0.0
H697 H 0.42802 0.15162 0.96029 0.0
H698 H 0.43186 0.1239 0.97192 0.0
H699 H 0.49008 0.1329 0.96583 0.0
H700 H 0.51452 0.07262 0.01849 0.0
H701 H 0.50711 0.09864 0.01077 0.0
C702 C 0.70335 0.17353 0.94465 0.0
C703 C 0.71232 0.19137 0.95853 0.0
C704 C 0.68814 0.15606 0.95134 0.0
C705 C 0.65145 0.14128 0.99071 0.0
H706 H 0.63992 0.08726 0.97274 0.0
C707 C 0.58846 0.07274 0.02182 0.0
C708 C 0.57614 0.05723 0.00588 0.0
C709 C 0.60628 0.088 0.01685 0.0
C710 C 0.64296 0.10228 0.9778 0.0
H711 H 0.71348 0.2049 0.99056 0.0
H712 H 0.68762 0.17438 0.00267 0.0
H713 H 0.66937 0.11594 0.9629 0.0
H714 H 0.57295 0.04504 0.9725 0.0
H715 H 0.60419 0.07172 0.96381 0.0
H716 H 0.62513 0.1277 0.00559 0.0
C717 C 0.6917 0.17384 0.98636 0.0
C718 C 0.65979 0.11872 0.97213 0.0
C719 C 0.70664 0.19128 0.97956 0.0
C720 C 0.58222 0.05683 0.9851 0.0
C721 C 0.60012 0.07205 0.98016 0.0
C722 C 0.63478 0.12492 0.9965 0.0
C723 C 0.6818 0.15616 0.97212 0.0
C724 C 0.66425 0.13845 0.97851 0.0
C725 C 0.61218 0.08801 0.99587 0.0
C726 C 0.6303 0.10523 0.99011 0.0
H727 H 0.70746 0.17336 0.92829 0.0
H728 H 0.68082 0.1428 0.93987 0.0
H729 H 0.65405 0.15619 0.99542 0.0
H730 H 0.58414 0.07337 0.03798 0.0
H731 H 0.61537 0.09996 0.02938 0.0
C732 C 0.82251 0.53165 0.95094 0.0
C733 C 0.80828 0.51364 0.93931 0.0
C734 C 0.8412 0.53526 0.95528 0.0
C735 C 0.87432 0.51692 0.94041 0.0
H736 H 0.89757 0.53844 0.99939 0.0
C737 C 0.94673 0.52431 0.97136 0.0
C738 C 0.94753 0.51832 0.99225 0.0
C739 C 0.93146 0.52683 0.96387 0.0
C740 C 0.89126 0.53236 0.98287 0.0
H741 H 0.80284 0.4858 0.92211 0.0
H742 H 0.83512 0.49175 0.93029 0.0
H743 H 0.86764 0.5369 0.98742 0.0
H744 H 0.93325 0.51045 0.02179 0.0
H745 H 0.90648 0.51442 0.00867 0.0
H746 H 0.89742 0.51136 0.93628 0.0
C747 C 0.83199 0.50324 0.93586 0.0
C748 C 0.87421 0.53174 0.97589 0.0
C749 C 0.81336 0.49968 0.93143 0.0
C750 C 0.93301 0.51517 0.00564 0.0
C751 C 0.91775 0.5176 0.99816 0.0
C752 C 0.89132 0.51743 0.94745 0.0
C753 C 0.84608 0.52092 0.94816 0.0
C754 C 0.86531 0.52364 0.95471 0.0
C755 C 0.91669 0.52334 0.97713 0.0
C756 C 0.89979 0.52477 0.96891 0.0
H757 H 0.81907 0.54268 0.95735 0.0
H758 H 0.85176 0.54917 0.96453 0.0
H759 H 0.86803 0.51089 0.92388 0.0
H760 H 0.9578 0.52685 0.96075 0.0
H761 H 0.9312 0.53146 0.94769 0.0
C762 C 0.47599 0.30073 0.9645 0.0
C763 C 0.48598 0.2975 0.9817 0.0
C764 C 0.47314 0.31718 0.96618 0.0
C765 C 0.48326 0.36089 0.96834 0.0
H766 H 0.47415 0.38076 0.02272 0.0
C767 C 0.50399 0.4433 0.98687 0.0
C768 C 0.49184 0.44773 0.9984 0.0
C769 C 0.50041 0.42365 0.98383 0.0
C770 C 0.47645 0.37531 0.00732 0.0
H771 H 0.49978 0.30825 0.01459 0.0
H772 H 0.49508 0.337 0.01741 0.0
H773 H 0.47181 0.34799 0.01957 0.0
H774 H 0.46621 0.43486 0.01554 0.0
H775 H 0.45994 0.40047 0.01017 0.0
H776 H 0.48803 0.38824 0.95613 0.0
C777 C 0.48937 0.32686 0.00265 0.0
C778 C 0.4753 0.35661 0.00558 0.0
C779 C 0.49226 0.3105 0.00095 0.0
C780 C 0.47589 0.43198 0.00664 0.0
C781 C 0.47234 0.41229 0.00364 0.0
C782 C 0.48444 0.37958 0.97009 0.0
C783 C 0.48012 0.33065 0.98513 0.0
C784 C 0.47907 0.34935 0.98621 0.0
C785 C 0.4846 0.40791 0.99225 0.0
C786 C 0.48144 0.3872 0.98973 0.0
H787 H 0.47104 0.29101 0.94944 0.0
H788 H 0.46577 0.31956 0.95248 0.0
H789 H 0.4864 0.35585 0.95324 0.0
H790 H 0.5164 0.45502 0.98027 0.0
H791 H 0.51031 0.42088 0.97528 0.0
C792 C 0.18367 0.69455 0.03466 0.0
C793 C 0.18935 0.70699 0.05428 0.0
C794 C 0.16518 0.67796 0.03069 0.0
C795 C 0.12613 0.64208 0.05991 0.0
H796 H 0.09798 0.62458 0.00257 0.0
C797 C 0.06729 0.56035 0.03523 0.0
C798 C 0.05043 0.55667 0.02305 0.0
C799 C 0.08295 0.57979 0.03931 0.0
C800 C 0.10555 0.62937 0.01873 0.0
H801 H 0.1799 0.71219 0.08482 0.0
H802 H 0.14745 0.68313 0.07785 0.0
H803 H 0.12724 0.65737 0.00901 0.0
H804 H 0.03688 0.57063 0.00551 0.0
H805 H 0.0644 0.60468 0.01254 0.0
H806 H 0.10461 0.61401 0.06957 0.0
C807 C 0.1574 0.68619 0.06561 0.0
C808 C 0.12239 0.64806 0.02237 0.0
C809 C 0.17591 0.7029 0.06953 0.0
C810 C 0.04965 0.57293 0.01492 0.0
C811 C 0.06543 0.59242 0.01888 0.0
C812 C 0.10937 0.62337 0.05624 0.0
C813 C 0.15194 0.67335 0.04628 0.0
C814 C 0.13303 0.65449 0.04292 0.0
C815 C 0.0822 0.59606 0.03124 0.0
C816 C 0.09907 0.61665 0.03552 0.0
H817 H 0.19365 0.69747 0.02249 0.0
H818 H 0.1615 0.6683 0.01572 0.0
H819 H 0.13406 0.6465 0.07586 0.0
H820 H 0.06841 0.54823 0.04183 0.0
H821 H 0.09576 0.58204 0.0486 0.0
C822 C 0.31928 0.51508 0.07526 0.0
C823 C 0.30767 0.50374 0.09103 0.0
C824 C 0.33338 0.51149 0.06783 0.0
C825 C 0.36319 0.48947 0.08312 0.0
H826 H 0.37342 0.49405 0.02252 0.0
C827 C 0.43364 0.49995 0.05318 0.0
C828 C 0.43297 0.49115 0.03244 0.0
C829 C 0.41717 0.49895 0.06048 0.0
C830 C 0.37062 0.49243 0.03944 0.0
H831 H 0.30176 0.47963 0.11132 0.0
H832 H 0.32617 0.47307 0.098 0.0
H833 H 0.34651 0.49665 0.03446 0.0
H834 H 0.41456 0.47378 0.00335 0.0
H835 H 0.38562 0.4717 0.01621 0.0
H836 H 0.38721 0.48505 0.08803 0.0
C837 C 0.32449 0.48492 0.09157 0.0
C838 C 0.35532 0.4942 0.04634 0.0
C839 C 0.31037 0.48854 0.09904 0.0
C840 C 0.41544 0.48079 0.01937 0.0
C841 C 0.39893 0.47972 0.02669 0.0
C842 C 0.37847 0.48765 0.07619 0.0
C843 C 0.3362 0.4964 0.07592 0.0
C844 C 0.3516 0.49306 0.06833 0.0
C845 C 0.39966 0.48905 0.04721 0.0
C846 C 0.38253 0.48939 0.05432 0.0
H847 H 0.31741 0.52672 0.06852 0.0
H848 H 0.3423 0.5208 0.05598 0.0
H849 H 0.36081 0.48865 0.10019 0.0
H850 H 0.44701 0.50803 0.06358 0.0
H851 H 0.41833 0.50653 0.07624 0.0
C852 C 0.50179 0.81439 0.03916 0.0
C853 C 0.51469 0.81515 0.05595 0.0
C854 C 0.50352 0.83197 0.03204 0.0
C855 C 0.53522 0.88638 0.03117 0.0
H856 H 0.48717 0.88639 0.02882 0.0
C857 C 0.52863 0.95758 0.02205 0.0
C858 C 0.51166 0.95468 0.01089 0.0
C859 C 0.53098 0.94112 0.02556 0.0
C860 C 0.50068 0.8866 0.02897 0.0
H861 H 0.54022 0.835 0.07756 0.0
H862 H 0.5433 0.86596 0.06495 0.0
H863 H 0.48793 0.85683 0.03855 0.0
H864 H 0.48464 0.93269 0.99305 0.0
H865 H 0.48902 0.90424 0.99832 0.0
H866 H 0.54792 0.91629 0.02145 0.0
C867 C 0.53184 0.85165 0.05738 0.0
C868 C 0.50111 0.86962 0.03465 0.0
C869 C 0.53007 0.83395 0.06459 0.0
C870 C 0.49774 0.93532 0.00199 0.0
C871 C 0.5002 0.91899 0.00518 0.0
C872 C 0.53477 0.90343 0.02527 0.0
C873 C 0.51823 0.85079 0.04146 0.0
C874 C 0.51831 0.86923 0.03566 0.0
C875 C 0.51648 0.92154 0.01774 0.0
C876 C 0.51741 0.90366 0.02392 0.0
H877 H 0.49008 0.80014 0.03178 0.0
H878 H 0.49307 0.83084 0.0194 0.0
H879 H 0.54869 0.88646 0.03181 0.0
H880 H 0.53955 0.97237 0.02917 0.0
H881 H 0.54367 0.94365 0.03534 0.0
C882 C 0.94931 0.17633 0.40418 0.0
C883 C 0.94856 0.1598 0.41352 0.0
C884 C 0.9666 0.19148 0.39776 0.0
C885 C 0.01848 0.21531 0.40976 0.0
H886 H 0.02183 0.23259 0.35165 0.0
C887 C 0.09151 0.26643 0.37793 0.0
C888 C 0.09281 0.28029 0.3634 0.0
C889 C 0.07369 0.25232 0.38419 0.0
C890 C 0.02114 0.22825 0.36808 0.0
H891 H 0.96525 0.14626 0.42375 0.0
H892 H 0.99548 0.17286 0.41286 0.0
H893 H 0.99096 0.20713 0.36228 0.0
H894 H 0.07672 0.29065 0.34434 0.0
H895 H 0.04566 0.26654 0.35584 0.0
H896 H 0.04842 0.23662 0.41593 0.0
C897 C 0.9827 0.17401 0.41033 0.0
C898 C 0.00343 0.21358 0.3741 0.0
C899 C 0.96539 0.15873 0.41638 0.0
C900 C 0.07606 0.28001 0.35547 0.0
C901 C 0.05825 0.26608 0.36196 0.0
C902 C 0.03611 0.23018 0.40389 0.0
C903 C 0.98349 0.19055 0.401 0.0
C904 C 0.002 0.2068 0.3949 0.0
C905 C 0.05679 0.25193 0.37631 0.0
C906 C 0.03776 0.2367 0.38287 0.0
H907 H 0.93652 0.17748 0.40179 0.0
H908 H 0.96687 0.20413 0.39068 0.0
H909 H 0.0177 0.21053 0.42602 0.0
H910 H 0.10423 0.2663 0.38423 0.0
H911 H 0.0732 0.24148 0.39492 0.0
C912 C 0.85623 0.81108 0.42116 0.0
C913 C 0.85505 0.79263 0.42455 0.0
C914 C 0.84014 0.81171 0.41282 0.0
C915 C 0.7905 0.78984 0.41418 0.0
H916 H 0.78783 0.80909 0.35818 0.0
C917 C 0.7243 0.79454 0.3827 0.0
C918 C 0.72747 0.81043 0.37037 0.0
C919 C 0.73917 0.79073 0.38802 0.0
C920 C 0.78841 0.80397 0.37401 0.0
H921 H 0.83584 0.76031 0.42119 0.0
H922 H 0.80751 0.76168 0.40773 0.0
H923 H 0.81545 0.80585 0.36986 0.0
H924 H 0.74854 0.83504 0.35419 0.0
H925 H 0.77474 0.82922 0.36439 0.0
H926 H 0.76422 0.78904 0.41919 0.0
C927 C 0.82109 0.77553 0.41137 0.0
C928 C 0.80415 0.80193 0.38053 0.0
C929 C 0.83729 0.77482 0.41924 0.0
C930 C 0.74572 0.82257 0.36358 0.0
C931 C 0.76069 0.81907 0.36928 0.0
C932 C 0.77496 0.79229 0.40792 0.0
C933 C 0.82244 0.79398 0.40815 0.0
C934 C 0.80531 0.79494 0.40067 0.0
C935 C 0.75764 0.80305 0.38151 0.0
C936 C 0.77375 0.79953 0.38779 0.0
H937 H 0.86944 0.82515 0.42548 0.0
H938 H 0.84137 0.82611 0.41061 0.0
H939 H 0.79129 0.78458 0.42991 0.0
H940 H 0.71027 0.78489 0.38799 0.0
H941 H 0.73609 0.77803 0.39709 0.0
C942 C 0.22744 0.05677 0.39207 0.0
C943 C 0.21188 0.05884 0.39787 0.0
C944 C 0.22449 0.03819 0.38347 0.0
C945 C 0.18988 0.98432 0.38362 0.0
H946 H 0.21693 0.97744 0.33708 0.0
C947 C 0.17055 0.90588 0.34796 0.0
C948 C 0.18577 0.90247 0.34447 0.0
C949 C 0.17394 0.92534 0.35238 0.0
C950 C 0.20939 0.97917 0.35022 0.0
H951 H 0.18095 0.04298 0.39872 0.0
H952 H 0.17581 0.01093 0.38326 0.0
H953 H 0.22254 0.01094 0.34851 0.0
H954 H 0.21646 0.91698 0.34216 0.0
H955 H 0.22239 0.95102 0.35014 0.0
H956 H 0.17687 0.95276 0.3856 0.0
C957 C 0.19033 0.02357 0.38561 0.0
C958 C 0.2126 0.99833 0.35675 0.0
C959 C 0.19327 0.04206 0.3942 0.0
C960 C 0.2044 0.91907 0.34474 0.0
C961 C 0.2078 0.93859 0.34924 0.0
C962 C 0.18669 0.96526 0.37713 0.0
C963 C 0.20592 0.02128 0.38057 0.0
C964 C 0.20277 0.00109 0.37345 0.0
C965 C 0.19264 0.94191 0.35354 0.0
C966 C 0.19629 0.96239 0.36027 0.0
H967 H 0.24193 0.06943 0.3945 0.0
H968 H 0.23681 0.03691 0.37982 0.0
H969 H 0.18242 0.98596 0.39689 0.0
H970 H 0.15599 0.8935 0.34767 0.0
H971 H 0.16188 0.92738 0.35514 0.0
C972 C 0.49898 0.6219 0.30833 0.0
C973 C 0.49785 0.61633 0.28599 0.0
C974 C 0.51474 0.63969 0.31832 0.0
C975 C 0.56496 0.67757 0.31128 0.0
H976 H 0.5556 0.7136 0.34781 0.0
C977 C 0.60535 0.76678 0.34107 0.0
C978 C 0.62398 0.77064 0.34739 0.0
C979 C 0.59008 0.7471 0.33673 0.0
C980 C 0.55844 0.70368 0.33767 0.0
H981 H 0.51237 0.62546 0.25665 0.0
H982 H 0.53978 0.65608 0.27406 0.0
H983 H 0.52886 0.68051 0.33402 0.0
H984 H 0.64099 0.7567 0.35466 0.0
H985 H 0.61431 0.72235 0.34707 0.0
H986 H 0.5944 0.70092 0.3143 0.0
C987 C 0.52867 0.64656 0.28396 0.0
C988 C 0.54316 0.68466 0.32995 0.0
C989 C 0.51293 0.62892 0.27398 0.0
C990 C 0.62686 0.75431 0.34978 0.0
C991 C 0.61158 0.73461 0.34533 0.0
C992 C 0.58024 0.69652 0.31908 0.0
C993 C 0.52974 0.65223 0.3062 0.0
C994 C 0.5462 0.67155 0.31631 0.0
C995 C 0.59306 0.73078 0.3385 0.0
C996 C 0.57711 0.70995 0.33204 0.0
H997 H 0.48773 0.61248 0.31813 0.0
H998 H 0.51523 0.6436 0.33553 0.0
H999 H 0.5678 0.66772 0.301 0.0
H1000 H 0.60257 0.77896 0.33907 0.0
H1001 H 0.57605 0.74469 0.33126 0.0
C1002 C 0.3881 0.89414 0.27308 0.0
C1003 C 0.38741 0.87644 0.26491 0.0
C1004 C 0.37159 0.89363 0.27968 0.0
C1005 C 0.33673 0.885 0.30426 0.0
H1006 H 0.28878 0.85262 0.26789 0.0
C1007 C 0.26264 0.86234 0.33386 0.0
C1008 C 0.249 0.86277 0.31915 0.0
C1009 C 0.28011 0.86565 0.32708 0.0
C1010 C 0.30208 0.86188 0.27812 0.0
H1011 H 0.36886 0.84438 0.25699 0.0
H1012 H 0.34016 0.84346 0.26866 0.0
H1013 H 0.31827 0.85541 0.25619 0.0
H1014 H 0.24283 0.86718 0.28598 0.0
H1015 H 0.27338 0.87294 0.27408 0.0
H1016 H 0.32047 0.8914 0.32623 0.0
C1017 C 0.35341 0.85774 0.26991 0.0
C1018 C 0.31892 0.86331 0.27153 0.0
C1019 C 0.3699 0.85823 0.26347 0.0
C1020 C 0.25314 0.86676 0.29762 0.0
C1021 C 0.27056 0.86995 0.29081 0.0
C1022 C 0.31983 0.88346 0.31093 0.0
C1023 C 0.35405 0.87542 0.27801 0.0
C1024 C 0.33639 0.87473 0.28462 0.0
C1025 C 0.28419 0.86933 0.30544 0.0
C1026 C 0.30231 0.87177 0.29799 0.0
H1027 H 0.40143 0.90837 0.27445 0.0
H1028 H 0.37248 0.9075 0.28576 0.0
H1029 H 0.34997 0.89383 0.31473 0.0
H1030 H 0.25976 0.85927 0.35055 0.0
H1031 H 0.29023 0.86483 0.33866 0.0
C1032 C 0.15002 0.51189 0.29388 0.0
C1033 C 0.13159 0.50924 0.2896 0.0
C1034 C 0.15234 0.49604 0.29994 0.0
C1035 C 0.12889 0.44835 0.32432 0.0
H1036 H 0.16524 0.4386 0.29546 0.0
C1037 C 0.13839 0.37981 0.33782 0.0
C1038 C 0.157 0.38273 0.33754 0.0
C1039 C 0.13467 0.39505 0.33269 0.0
C1040 C 0.15524 0.44127 0.30395 0.0
H1041 H 0.10113 0.488 0.28857 0.0
H1042 H 0.10521 0.46016 0.29939 0.0
H1043 H 0.1598 0.46539 0.28503 0.0
H1044 H 0.18645 0.40425 0.33268 0.0
H1045 H 0.18013 0.43091 0.32446 0.0
H1046 H 0.1246 0.42445 0.34356 0.0
C1047 C 0.11783 0.47456 0.29801 0.0
C1048 C 0.15207 0.45658 0.29787 0.0
C1049 C 0.11549 0.49041 0.29169 0.0
C1050 C 0.17191 0.40142 0.33281 0.0
C1051 C 0.16824 0.41668 0.32792 0.0
C1052 C 0.1322 0.4331 0.33058 0.0
C1053 C 0.13629 0.4772 0.30204 0.0
C1054 C 0.13898 0.46039 0.30809 0.0
C1055 C 0.14952 0.41359 0.32735 0.0
C1056 C 0.14555 0.42948 0.32058 0.0
H1057 H 0.16268 0.52617 0.2922 0.0
H1058 H 0.16674 0.49856 0.30312 0.0
H1059 H 0.11881 0.45106 0.33257 0.0
H1060 H 0.12657 0.36553 0.34127 0.0
H1061 H 0.12005 0.39207 0.33225 0.0
C1062 C 0.38 0.51507 0.29104 0.0
C1063 C 0.37694 0.52825 0.27888 0.0
C1064 C 0.36455 0.49646 0.29489 0.0
C1065 C 0.31297 0.46011 0.27717 0.0
H1066 H 0.31187 0.44565 0.33638 0.0
C1067 C 0.24854 0.38897 0.30421 0.0
C1068 C 0.24248 0.39127 0.32447 0.0
C1069 C 0.26592 0.40404 0.2979 0.0
C1070 C 0.31191 0.44949 0.31978 0.0
H1071 H 0.3554 0.53171 0.26019 0.0
H1072 H 0.32853 0.49964 0.26728 0.0
H1073 H 0.3403 0.47478 0.32596 0.0
H1074 H 0.24977 0.41096 0.35407 0.0
H1075 H 0.27989 0.43736 0.34302 0.0
H1076 H 0.28423 0.43537 0.27128 0.0
C1077 C 0.34282 0.50351 0.27375 0.0
C1078 C 0.32834 0.46606 0.31371 0.0
C1079 C 0.35822 0.52204 0.2699 0.0
C1080 C 0.25416 0.40876 0.3384 0.0
C1081 C 0.27149 0.42383 0.3321 0.0
C1082 C 0.29651 0.44358 0.28326 0.0
C1083 C 0.34571 0.49062 0.28663 0.0
C1084 C 0.32897 0.47179 0.29242 0.0
C1085 C 0.27757 0.42172 0.31173 0.0
C1086 C 0.29564 0.43826 0.30475 0.0
H1087 H 0.39422 0.51941 0.29827 0.0
H1088 H 0.36734 0.48679 0.30463 0.0
H1089 H 0.31303 0.46392 0.26055 0.0
H1090 H 0.23977 0.3756 0.29316 0.0
H1091 H 0.27024 0.40182 0.2822 0.0
C1092 C 0.47152 0.82802 0.29566 0.0
C1093 C 0.46879 0.83627 0.27705 0.0
C1094 C 0.4895 0.83067 0.30218 0.0
C1095 C 0.54143 0.86081 0.2948 0.0
H1096 H 0.54198 0.81531 0.3176 0.0
C1097 C 0.6101 0.85477 0.31274 0.0
C1098 C 0.61148 0.84763 0.33279 0.0
C1099 C 0.59338 0.85487 0.30556 0.0
C1100 C 0.54205 0.82818 0.3114 0.0
H1101 H 0.48277 0.85409 0.25085 0.0
H1102 H 0.51427 0.85836 0.26194 0.0
H1103 H 0.51153 0.81254 0.30551 0.0
H1104 H 0.59683 0.83549 0.36132 0.0
H1105 H 0.56767 0.83551 0.34876 0.0
H1106 H 0.57217 0.87622 0.30041 0.0
C1107 C 0.50256 0.85012 0.27173 0.0
C1108 C 0.52459 0.82666 0.30455 0.0
C1109 C 0.48454 0.84764 0.26533 0.0
C1110 C 0.59612 0.84104 0.34577 0.0
C1111 C 0.57941 0.84095 0.33854 0.0
C1112 C 0.55897 0.86226 0.30148 0.0
C1113 C 0.50519 0.84142 0.2901 0.0
C1114 C 0.524 0.84303 0.29647 0.0
C1115 C 0.57775 0.84759 0.31824 0.0
C1116 C 0.5594 0.84604 0.31013 0.0
H1117 H 0.45969 0.8195 0.30522 0.0
H1118 H 0.49108 0.82422 0.31675 0.0
H1119 H 0.54151 0.87376 0.28881 0.0
H1120 H 0.62176 0.8599 0.30243 0.0
H1121 H 0.59243 0.85999 0.28982 0.0
C1122 C 0.14589 0.63546 0.29737 0.0
C1123 C 0.15582 0.63174 0.31419 0.0
C1124 C 0.14307 0.6519 0.29981 0.0
C1125 C 0.15399 0.69582 0.30347 0.0
H1126 H 0.14491 0.71483 0.35841 0.0
C1127 C 0.17597 0.77829 0.32401 0.0
C1128 C 0.16361 0.7827 0.33512 0.0
C1129 C 0.1723 0.75862 0.32089 0.0
C1130 C 0.14723 0.70963 0.34287 0.0
H1131 H 0.1694 0.64146 0.34725 0.0
H1132 H 0.16472 0.67018 0.35142 0.0
H1133 H 0.14183 0.68172 0.35418 0.0
H1134 H 0.13764 0.76977 0.35167 0.0
H1135 H 0.13126 0.73535 0.3462 0.0
H1136 H 0.15955 0.72375 0.2922 0.0
C1137 C 0.15905 0.66046 0.33636 0.0
C1138 C 0.14563 0.69073 0.34051 0.0
C1139 C 0.16192 0.64411 0.33389 0.0
C1140 C 0.14749 0.76692 0.34309 0.0
C1141 C 0.14385 0.7472 0.34002 0.0
C1142 C 0.15563 0.7147 0.30584 0.0
C1143 C 0.15002 0.66485 0.31917 0.0
C1144 C 0.14935 0.68377 0.32091 0.0
C1145 C 0.1562 0.74283 0.32882 0.0
C1146 C 0.15266 0.722 0.32571 0.0
H1147 H 0.14107 0.62622 0.28198 0.0
H1148 H 0.13584 0.65474 0.28635 0.0
H1149 H 0.15713 0.69102 0.28822 0.0
H1150 H 0.18853 0.79003 0.31764 0.0
H1151 H 0.18228 0.75583 0.31252 0.0
C1152 C 0.857 0.01978 0.38699 0.0
C1153 C 0.85986 0.0357 0.40186 0.0
C1154 C 0.83869 0.00333 0.38134 0.0
C1155 C 0.78757 0.9841 0.37663 0.0
H1156 H 0.78416 0.93389 0.38931 0.0
C1157 C 0.71582 0.90696 0.36541 0.0
C1158 C 0.71723 0.89005 0.35907 0.0
C1159 C 0.73245 0.92581 0.37024 0.0
C1160 C 0.78484 0.94768 0.38529 0.0
H1161 H 0.84533 0.04719 0.42142 0.0
H1162 H 0.81307 0.01846 0.41091 0.0
H1163 H 0.81439 0.9651 0.39774 0.0
H1164 H 0.73691 0.87974 0.3514 0.0
H1165 H 0.7656 0.91242 0.35874 0.0
H1166 H 0.75812 0.96657 0.36343 0.0
C1167 C 0.82523 0.01882 0.40394 0.0
C1168 C 0.80216 0.96558 0.39031 0.0
C1169 C 0.84369 0.03526 0.40989 0.0
C1170 C 0.7354 0.89246 0.3566 0.0
C1171 C 0.75189 0.91122 0.36101 0.0
C1172 C 0.77019 0.96605 0.37124 0.0
C1173 C 0.8227 0.0025 0.39007 0.0
C1174 C 0.80378 0.98392 0.3858 0.0
C1175 C 0.75074 0.92807 0.36854 0.0
C1176 C 0.76871 0.94756 0.37519 0.0
H1177 H 0.86899 0.01984 0.37993 0.0
H1178 H 0.83704 0.99104 0.37036 0.0
H1179 H 0.78852 0.99811 0.37301 0.0
H1180 H 0.70196 0.90546 0.36752 0.0
H1181 H 0.73099 0.93841 0.37604 0.0
C1182 C 0.97105 0.81538 0.40873 0.0
C1183 C 0.97479 0.83038 0.42533 0.0
C1184 C 0.98576 0.81218 0.40256 0.0
C1185 C 0.03396 0.82125 0.42055 0.0
H1186 H 0.04009 0.81981 0.35881 0.0
C1187 C 0.10438 0.83469 0.38779 0.0
C1188 C 0.10339 0.8244 0.3679 0.0
C1189 C 0.08775 0.83294 0.39553 0.0
C1190 C 0.03842 0.81979 0.37608 0.0
H1191 H 0.99659 0.85323 0.44908 0.0
H1192 H 0.02231 0.84765 0.4383 0.0
H1193 H 0.01252 0.82086 0.37123 0.0
H1194 H 0.08434 0.80369 0.34083 0.0
H1195 H 0.05516 0.80022 0.35454 0.0
H1196 H 0.05989 0.82025 0.42544 0.0
C1197 C 0.00802 0.83837 0.43007 0.0
C1198 C 0.02262 0.82043 0.38318 0.0
C1199 C 0.99336 0.84169 0.4361 0.0
C1200 C 0.08546 0.81188 0.35616 0.0
C1201 C 0.0688 0.81001 0.36396 0.0
C1202 C 0.0497 0.82043 0.41343 0.0
C1203 C 0.00444 0.82379 0.41303 0.0
C1204 C 0.02038 0.82146 0.4055 0.0
C1205 C 0.06977 0.82074 0.38359 0.0
C1206 C 0.05228 0.82 0.39112 0.0
H1207 H 0.95689 0.80652 0.40007 0.0
H1208 H 0.98257 0.80074 0.38948 0.0
H1209 H 0.03245 0.82178 0.43784 0.0
H1210 H 0.11806 0.84445 0.39716 0.0
H1211 H 0.08911 0.84165 0.41054 0.0
C1212 C 0.19463 0.16477 0.40203 0.0
C1213 C 0.17823 0.14604 0.39532 0.0
C1214 C 0.19622 0.1824 0.39487 0.0
C1215 C 0.16558 0.20207 0.37747 0.0
H1216 H 0.20998 0.24425 0.354 0.0
C1217 C 0.16121 0.26618 0.34148 0.0
C1218 C 0.17693 0.28569 0.34606 0.0
C1219 C 0.1629 0.24962 0.34599 0.0
C1220 C 0.19756 0.23271 0.36077 0.0
H1221 H 0.15136 0.13109 0.37457 0.0
H1222 H 0.15396 0.16174 0.36259 0.0
H1223 H 0.21055 0.21455 0.36514 0.0
H1224 H 0.20696 0.30319 0.35828 0.0
H1225 H 0.20983 0.27418 0.3668 0.0
H1226 H 0.15266 0.2201 0.37381 0.0
C1227 C 0.16543 0.16283 0.37361 0.0
C1228 C 0.1979 0.21572 0.36709 0.0
C1229 C 0.16392 0.14528 0.38057 0.0
C1230 C 0.19463 0.28829 0.35447 0.0
C1231 C 0.19626 0.27166 0.35932 0.0
C1232 C 0.16532 0.21904 0.37143 0.0
C1233 C 0.18139 0.18158 0.38101 0.0
C1234 C 0.18177 0.20012 0.37518 0.0
C1235 C 0.18026 0.25214 0.35561 0.0
C1236 C 0.18115 0.23446 0.36265 0.0
H1237 H 0.20589 0.1659 0.41343 0.0
H1238 H 0.20865 0.19671 0.40085 0.0
H1239 H 0.1531 0.19046 0.3841 0.0
H1240 H 0.14744 0.26369 0.33471 0.0
H1241 H 0.15043 0.23481 0.34225 0.0
C1242 C 0.61246 0.4989 0.72031 0.0
C1243 C 0.60922 0.4979 0.74245 0.0
C1244 C 0.62959 0.51417 0.71376 0.0
C1245 C 0.67981 0.5494 0.73535 0.0
H1246 H 0.68219 0.57428 0.68189 0.0
C1247 C 0.75043 0.61512 0.71261 0.0
C1248 C 0.75462 0.61451 0.69094 0.0
C1249 C 0.73226 0.60173 0.71857 0.0
C1250 C 0.68176 0.56734 0.69677 0.0
H1251 H 0.62134 0.51253 0.775 0.0
H1252 H 0.65089 0.53942 0.76353 0.0
H1253 H 0.65105 0.54974 0.69299 0.0
H1254 H 0.7431 0.5997 0.65842 0.0
H1255 H 0.71123 0.57613 0.66885 0.0
H1256 H 0.71045 0.56685 0.73912 0.0
C1257 C 0.64033 0.5282 0.75124 0.0
C1258 C 0.66392 0.55328 0.70314 0.0
C1259 C 0.62325 0.51293 0.75779 0.0
C1260 C 0.7402 0.60049 0.67524 0.0
C1261 C 0.72196 0.58709 0.6812 0.0
C1262 C 0.69759 0.56344 0.72902 0.0
C1263 C 0.64388 0.52882 0.7292 0.0
C1264 C 0.66274 0.54413 0.72252 0.0
C1265 C 0.71784 0.58742 0.703 0.0
C1266 C 0.6988 0.57259 0.70966 0.0
H1267 H 0.60187 0.4877 0.70804 0.0
H1268 H 0.63187 0.51411 0.69666 0.0
H1269 H 0.67949 0.54235 0.75012 0.0
H1270 H 0.76129 0.62581 0.72504 0.0
H1271 H 0.72949 0.60259 0.73543 0.0
C1272 C 0.52119 0.14374 0.75715 0.0
C1273 C 0.51922 0.12506 0.76114 0.0
C1274 C 0.50523 0.14518 0.75011 0.0
C1275 C 0.45462 0.12352 0.75306 0.0
H1276 H 0.45403 0.14675 0.69918 0.0
C1277 C 0.38876 0.12846 0.72003 0.0
C1278 C 0.39224 0.14509 0.70884 0.0
C1279 C 0.40375 0.125 0.72596 0.0
C1280 C 0.45403 0.14054 0.71446 0.0
H1281 H 0.49866 0.0932 0.76061 0.0
H1282 H 0.47069 0.09603 0.74934 0.0
H1283 H 0.48132 0.143 0.71068 0.0
H1284 H 0.414 0.17144 0.69556 0.0
H1285 H 0.4403 0.1661 0.70679 0.0
H1286 H 0.42787 0.12189 0.75756 0.0
C1287 C 0.48474 0.10944 0.75152 0.0
C1288 C 0.46962 0.13826 0.7209 0.0
C1289 C 0.50076 0.1079 0.7581 0.0
C1290 C 0.41094 0.15838 0.704 0.0
C1291 C 0.42598 0.15518 0.71029 0.0
C1292 C 0.43918 0.12619 0.74687 0.0
C1293 C 0.48689 0.12807 0.74737 0.0
C1294 C 0.47006 0.12979 0.74026 0.0
C1295 C 0.4226 0.13833 0.72117 0.0
C1296 C 0.43872 0.13485 0.72753 0.0
H1297 H 0.53502 0.15738 0.75978 0.0
H1298 H 0.50715 0.15975 0.74721 0.0
H1299 H 0.45477 0.11707 0.76816 0.0
H1300 H 0.37439 0.11795 0.72385 0.0
H1301 H 0.40047 0.1117 0.734 0.0
C1302 C 0.85898 0.37461 0.72481 0.0
C1303 C 0.87774 0.39113 0.72856 0.0
C1304 C 0.85576 0.35581 0.71691 0.0
C1305 C 0.87767 0.32926 0.68995 0.0
H1306 H 0.84164 0.28477 0.7199 0.0
C1307 C 0.87027 0.25044 0.68147 0.0
C1308 C 0.8518 0.23366 0.68151 0.0
C1309 C 0.87333 0.26988 0.68531 0.0
C1310 C 0.85152 0.29694 0.71111 0.0
H1311 H 0.90775 0.40097 0.72599 0.0
H1312 H 0.90211 0.36798 0.71239 0.0
H1313 H 0.84711 0.31824 0.72957 0.0
H1314 H 0.82194 0.22427 0.68486 0.0
H1315 H 0.82723 0.25804 0.69115 0.0
H1316 H 0.88212 0.30785 0.67156 0.0
C1317 C 0.8899 0.36966 0.71549 0.0
C1318 C 0.85468 0.31616 0.71667 0.0
C1319 C 0.89315 0.38851 0.72345 0.0
C1320 C 0.83639 0.2368 0.68487 0.0
C1321 C 0.83944 0.25621 0.68862 0.0
C1322 C 0.87446 0.30995 0.68432 0.0
C1323 C 0.87119 0.353 0.71257 0.0
C1324 C 0.86776 0.33256 0.70617 0.0
C1325 C 0.85798 0.27299 0.68924 0.0
C1326 C 0.86133 0.29355 0.69483 0.0
H1327 H 0.84679 0.37599 0.7288 0.0
H1328 H 0.84114 0.34335 0.71453 0.0
H1329 H 0.88773 0.34156 0.68144 0.0
H1330 H 0.88248 0.24859 0.679 0.0
H1331 H 0.88782 0.28245 0.68588 0.0
C1332 C 0.17967 0.94874 0.62728 0.0
C1333 C 0.16168 0.94672 0.62129 0.0
C1334 C 0.19519 0.9673 0.63594 0.0
C1335 C 0.21245 0.0211 0.63519 0.0
H1336 H 0.24877 0.02816 0.68347 0.0
C1337 C 0.26993 0.09967 0.672 0.0
C1338 C 0.28856 0.10322 0.67749 0.0
C1339 C 0.25462 0.08019 0.6667 0.0
C1340 C 0.23886 0.0264 0.66981 0.0
H1341 H 0.14586 0.96261 0.62016 0.0
H1342 H 0.17274 0.99474 0.63554 0.0
H1343 H 0.22161 0.99466 0.67165 0.0
H1344 H 0.3056 0.08893 0.68218 0.0
H1345 H 0.27883 0.05481 0.67253 0.0
H1346 H 0.22965 0.05259 0.633 0.0
C1347 C 0.17491 0.98204 0.63337 0.0
C1348 C 0.2233 0.00722 0.66308 0.0
C1349 C 0.15943 0.96353 0.62481 0.0
C1350 C 0.29142 0.08672 0.67808 0.0
C1351 C 0.27606 0.06715 0.67262 0.0
C1352 C 0.22798 0.04017 0.64182 0.0
C1353 C 0.19306 0.98425 0.63864 0.0
C1354 C 0.20982 0.00441 0.64582 0.0
C1355 C 0.25752 0.06369 0.66654 0.0
C1356 C 0.2413 0.04314 0.65934 0.0
H1357 H 0.18182 0.93603 0.62492 0.0
H1358 H 0.20901 0.96854 0.63978 0.0
H1359 H 0.20259 0.01939 0.6215 0.0
H1360 H 0.26712 0.11197 0.67163 0.0
H1361 H 0.24048 0.07808 0.66261 0.0
C1362 C 0.05219 0.22807 0.59679 0.0
C1363 C 0.0529 0.21023 0.59403 0.0
C1364 C 0.03653 0.22804 0.60538 0.0
C1365 C 0.99981 0.20369 0.6413 0.0
H1366 H 0.96707 0.21583 0.60467 0.0
C1367 C 0.92449 0.18351 0.66322 0.0
C1368 C 0.91682 0.19543 0.65697 0.0
C1369 C 0.94198 0.18698 0.65641 0.0
C1370 C 0.97622 0.21282 0.61537 0.0
H1371 H 0.0373 0.17832 0.59809 0.0
H1372 H 0.01066 0.17869 0.61413 0.0
H1373 H 0.99658 0.21964 0.59174 0.0
H1374 H 0.92141 0.22057 0.63915 0.0
H1375 H 0.95246 0.22736 0.62806 0.0
H1376 H 0.97999 0.19736 0.66521 0.0
C1377 C 0.02225 0.19259 0.60947 0.0
C1378 C 0.99306 0.21491 0.60786 0.0
C1379 C 0.03764 0.19248 0.60044 0.0
C1380 C 0.92703 0.2111 0.64407 0.0
C1381 C 0.94475 0.21487 0.6376 0.0
C1382 C 0.98322 0.20202 0.64903 0.0
C1383 C 0.02151 0.21031 0.61185 0.0
C1384 C 0.00477 0.21 0.62061 0.0
C1385 C 0.95242 0.20275 0.64354 0.0
C1386 C 0.97094 0.20613 0.63599 0.0
H1387 H 0.06376 0.2421 0.59244 0.0
H1388 H 0.03622 0.2419 0.60719 0.0
H1389 H 0.00877 0.19998 0.65144 0.0
H1390 H 0.91677 0.1712 0.67302 0.0
H1391 H 0.94707 0.17698 0.66092 0.0
C1392 C 0.78808 0.82265 0.6185 0.0
C1393 C 0.78935 0.83793 0.63316 0.0
C1394 C 0.78942 0.80665 0.6261 0.0
C1395 C 0.80969 0.79383 0.67305 0.0
H1396 H 0.77956 0.73975 0.6447 0.0
C1397 C 0.79863 0.70923 0.6792 0.0
C1398 C 0.81794 0.71405 0.6806 0.0
C1399 C 0.79376 0.72399 0.67604 0.0
C1400 C 0.78794 0.75471 0.653 0.0
H1401 H 0.7922 0.84785 0.66738 0.0
H1402 H 0.79468 0.81994 0.68064 0.0
H1403 H 0.77265 0.7656 0.63404 0.0
H1404 H 0.84729 0.73841 0.68066 0.0
H1405 H 0.83878 0.76405 0.67511 0.0
H1406 H 0.8251 0.78298 0.69187 0.0
C1407 C 0.79288 0.82052 0.66324 0.0
C1408 C 0.7841 0.76957 0.64672 0.0
C1409 C 0.79147 0.8365 0.65564 0.0
C1410 C 0.83227 0.73412 0.67961 0.0
C1411 C 0.8274 0.74888 0.67655 0.0
C1412 C 0.81359 0.77899 0.67927 0.0
C1413 C 0.79213 0.80554 0.64855 0.0
C1414 C 0.79511 0.78937 0.65646 0.0
C1415 C 0.80808 0.74393 0.67434 0.0
C1416 C 0.80293 0.75932 0.6691 0.0
H1417 H 0.78679 0.82342 0.60109 0.0
H1418 H 0.78906 0.79552 0.61434 0.0
H1419 H 0.81854 0.80897 0.68077 0.0
H1420 H 0.7872 0.69394 0.67997 0.0
H1421 H 0.77876 0.71975 0.67469 0.0
C1422 C 0.03899 0.85795 0.64466 0.0
C1423 C 0.04573 0.85765 0.62431 0.0
C1424 C 0.0239 0.84057 0.65136 0.0
C1425 C 0.99358 0.78509 0.63887 0.0
H1426 H 0.95675 0.7938 0.66808 0.0
C1427 C 0.91615 0.72209 0.65127 0.0
C1428 C 0.90946 0.72324 0.67149 0.0
C1429 C 0.93398 0.73741 0.64626 0.0
C1430 C 0.96699 0.79111 0.66019 0.0
H1431 H 0.04261 0.83896 0.59527 0.0
H1432 H 0.01572 0.80846 0.60665 0.0
H1433 H 0.98564 0.82233 0.65795 0.0
H1434 H 0.91632 0.74085 0.70257 0.0
H1435 H 0.94739 0.76758 0.69385 0.0
H1436 H 0.97435 0.75364 0.64066 0.0
C1437 C 0.02232 0.82204 0.61768 0.0
C1438 C 0.98365 0.80749 0.65441 0.0
C1439 C 0.03767 0.83946 0.6111 0.0
C1440 C 0.92111 0.73962 0.68684 0.0
C1441 C 0.93885 0.75496 0.6818 0.0
C1442 C 0.97675 0.76861 0.64452 0.0
C1443 C 0.01492 0.82251 0.63768 0.0
C1444 C 0.99726 0.80477 0.64381 0.0
C1445 C 0.94534 0.75421 0.66133 0.0
C1446 C 0.96334 0.77148 0.65535 0.0
H1447 H 0.04514 0.8718 0.65521 0.0
H1448 H 0.01901 0.84142 0.66713 0.0
H1449 H 0.00378 0.78241 0.63088 0.0
H1450 H 0.9074 0.70963 0.63912 0.0
H1451 H 0.93853 0.73648 0.6303 0.0
C1452 C 0.15233 0.19288 0.61147 0.0
C1453 C 0.13874 0.17494 0.59919 0.0
C1454 C 0.17093 0.19667 0.61717 0.0
C1455 C 0.20542 0.17956 0.60494 0.0
H1456 H 0.22555 0.19966 0.66506 0.0
C1457 C 0.2776 0.18889 0.64022 0.0
C1458 C 0.27758 0.18217 0.66088 0.0
C1459 C 0.26226 0.19092 0.63189 0.0
C1460 C 0.22012 0.19399 0.64823 0.0
H1461 H 0.13435 0.14742 0.58229 0.0
H1462 H 0.16651 0.15374 0.59267 0.0
H1463 H 0.19581 0.19769 0.65117 0.0
H1464 H 0.26174 0.17254 0.68916 0.0
H1465 H 0.23486 0.17577 0.6746 0.0
H1466 H 0.22925 0.17494 0.60232 0.0
C1467 C 0.16293 0.16501 0.59777 0.0
C1468 C 0.20318 0.19312 0.64017 0.0
C1469 C 0.14439 0.16125 0.59204 0.0
C1470 C 0.26214 0.17783 0.67321 0.0
C1471 C 0.24681 0.17982 0.66491 0.0
C1472 C 0.22233 0.18038 0.61303 0.0
C1473 C 0.17635 0.1826 0.61072 0.0
C1474 C 0.19542 0.18553 0.61854 0.0
C1475 C 0.2466 0.18626 0.64408 0.0
C1476 C 0.22969 0.18724 0.63489 0.0
H1477 H 0.14843 0.20369 0.61734 0.0
H1478 H 0.18099 0.21049 0.62692 0.0
H1479 H 0.19999 0.17391 0.58811 0.0
H1480 H 0.28938 0.19235 0.6304 0.0
H1481 H 0.26264 0.19612 0.6159 0.0
C1482 C 0.83474 0.97681 0.67264 0.0
C1483 C 0.82714 0.96428 0.65305 0.0
C1484 C 0.83334 0.99404 0.67571 0.0
C1485 C 0.80879 0.02039 0.65526 0.0
H1486 H 0.85651 0.06789 0.67822 0.0
C1487 C 0.81645 0.09866 0.67695 0.0
C1488 C 0.83286 0.11522 0.67048 0.0
C1489 C 0.81432 0.07948 0.6749 0.0
C1490 C 0.84308 0.05479 0.67172 0.0
H1491 H 0.81126 0.9595 0.62173 0.0
H1492 H 0.80879 0.98973 0.6271 0.0
H1493 H 0.85478 0.03552 0.6748 0.0
H1494 H 0.85974 0.12446 0.65638 0.0
H1495 H 0.85601 0.09122 0.65289 0.0
H1496 H 0.79726 0.03995 0.65189 0.0
C1497 C 0.81578 0.98612 0.64011 0.0
C1498 C 0.84202 0.03618 0.66999 0.0
C1499 C 0.81719 0.96882 0.63703 0.0
C1500 C 0.84695 0.11212 0.66166 0.0
C1501 C 0.84487 0.09305 0.65974 0.0
C1502 C 0.80982 0.03907 0.65714 0.0
C1503 C 0.82428 0.99918 0.65928 0.0
C1504 C 0.82491 0.01876 0.66166 0.0
C1505 C 0.82864 0.07654 0.6665 0.0
C1506 C 0.82705 0.0565 0.66521 0.0
H1507 H 0.84212 0.97348 0.6855 0.0
H1508 H 0.83965 0.00354 0.69086 0.0
H1509 H 0.79537 0.00722 0.64889 0.0
H1510 H 0.8053 0.10051 0.68374 0.0
H1511 H 0.80169 0.06706 0.68034 0.0
C1512 C 0.51363 0.3598 0.70379 0.0
C1513 C 0.5201 0.37283 0.72304 0.0
C1514 C 0.49495 0.34344 0.70073 0.0
C1515 C 0.45201 0.31413 0.6942 0.0
H1516 H 0.43487 0.28207 0.74305 0.0
C1517 C 0.37916 0.23959 0.68904 0.0
C1518 C 0.37997 0.22352 0.69764 0.0
C1519 C 0.39486 0.25914 0.69279 0.0
C1520 C 0.43944 0.29086 0.72926 0.0
H1521 H 0.51183 0.37929 0.75386 0.0
H1522 H 0.47906 0.35071 0.74843 0.0
H1523 H 0.46475 0.31421 0.74779 0.0
H1524 H 0.39786 0.21552 0.71729 0.0
H1525 H 0.4251 0.24942 0.72369 0.0
H1526 H 0.42703 0.29039 0.67546 0.0
C1527 C 0.48854 0.35309 0.7358 0.0
C1528 C 0.45646 0.3094 0.73204 0.0
C1529 C 0.50724 0.36955 0.73882 0.0
C1530 C 0.39671 0.22749 0.71034 0.0
C1531 C 0.41231 0.24699 0.71419 0.0
C1532 C 0.43494 0.29561 0.69144 0.0
C1533 C 0.48229 0.33967 0.71686 0.0
C1534 C 0.46314 0.32108 0.71444 0.0
C1535 C 0.41163 0.26304 0.70538 0.0
C1536 C 0.42867 0.28358 0.70883 0.0
H1537 H 0.52314 0.36207 0.69121 0.0
H1538 H 0.49068 0.33332 0.68604 0.0
H1539 H 0.45666 0.32287 0.68037 0.0
H1540 H 0.36649 0.23707 0.67921 0.0
H1541 H 0.39386 0.27122 0.68592 0.0
C1542 C 0.63427 0.14092 0.73666 0.0
C1543 C 0.63789 0.15661 0.75226 0.0
C1544 C 0.64904 0.13737 0.7316 0.0
C1545 C 0.69723 0.14734 0.75158 0.0
H1546 H 0.70469 0.14455 0.69034 0.0
C1547 C 0.76938 0.16332 0.722 0.0
C1548 C 0.7693 0.15295 0.70261 0.0
C1549 C 0.75221 0.16073 0.72897 0.0
C1550 C 0.70265 0.14489 0.70749 0.0
H1551 H 0.65945 0.18027 0.77551 0.0
H1552 H 0.68523 0.17408 0.76673 0.0
H1553 H 0.67637 0.14497 0.70113 0.0
H1554 H 0.75132 0.13118 0.67571 0.0
H1555 H 0.72121 0.12626 0.68809 0.0
H1556 H 0.72357 0.14744 0.758 0.0
C1557 C 0.67102 0.16453 0.75839 0.0
C1558 C 0.68641 0.14516 0.71366 0.0
C1559 C 0.65634 0.1682 0.76327 0.0
C1560 C 0.75174 0.13945 0.69065 0.0
C1561 C 0.73454 0.13674 0.69769 0.0
C1562 C 0.7134 0.1469 0.74541 0.0
C1563 C 0.66761 0.14929 0.74226 0.0
C1564 C 0.68372 0.14678 0.73577 0.0
C1565 C 0.73458 0.14759 0.71676 0.0
C1566 C 0.7165 0.14607 0.72331 0.0
H1567 H 0.62019 0.13181 0.72789 0.0
H1568 H 0.64601 0.12545 0.7192 0.0
H1569 H 0.69538 0.14833 0.76874 0.0
H1570 H 0.78277 0.17382 0.73152 0.0
H1571 H 0.75285 0.16955 0.74356 0.0
C1572 C 0.86328 0.49972 0.72946 0.0
C1573 C 0.8478 0.48092 0.721 0.0
C1574 C 0.86505 0.51741 0.7222 0.0
C1575 C 0.83423 0.53543 0.69988 0.0
H1576 H 0.88085 0.5819 0.68595 0.0
C1577 C 0.83056 0.60101 0.66731 0.0
C1578 C 0.84463 0.62041 0.67592 0.0
C1579 C 0.83301 0.58467 0.67046 0.0
C1580 C 0.86775 0.5691 0.68997 0.0
H1581 H 0.82302 0.46589 0.69705 0.0
H1582 H 0.82602 0.49657 0.6846 0.0
H1583 H 0.88169 0.55211 0.69631 0.0
H1584 H 0.87277 0.63814 0.69365 0.0
H1585 H 0.87689 0.60941 0.69977 0.0
H1586 H 0.82028 0.55222 0.69428 0.0
C1587 C 0.83655 0.49771 0.69713 0.0
C1588 C 0.86825 0.55207 0.69587 0.0
C1589 C 0.83482 0.48014 0.7043 0.0
C1590 C 0.86173 0.62332 0.68674 0.0
C1591 C 0.86407 0.60686 0.69023 0.0
C1592 C 0.83376 0.55238 0.6942 0.0
C1593 C 0.85135 0.51655 0.70641 0.0
C1594 C 0.85141 0.53498 0.70063 0.0
C1595 C 0.84944 0.58725 0.68272 0.0
C1596 C 0.85042 0.56938 0.68889 0.0
H1597 H 0.8735 0.50079 0.74234 0.0
H1598 H 0.87659 0.53174 0.72965 0.0
H1599 H 0.82111 0.52268 0.70398 0.0
H1600 H 0.81735 0.59837 0.65864 0.0
H1601 H 0.82171 0.56989 0.66382 0.0
C1602 C 0.44425 0.89677 0.19844 0.0
C1603 C 0.44189 0.9044 0.21842 0.0
C1604 C 0.45249 0.90937 0.18211 0.0
C1605 C 0.4623 0.95834 0.16408 0.0
H1606 H 0.4916 0.94741 0.12353 0.0
C1607 C 0.49967 0.00633 0.09284 0.0
C1608 C 0.49513 0.99493 0.07266 0.0
C1609 C 0.4938 0.9968 0.1119 0.0
C1610 C 0.48344 0.95061 0.13476 0.0
H1611 H 0.44685 0.93126 0.23732 0.0
H1612 H 0.46184 0.95352 0.209 0.0
H1613 H 0.48168 0.92846 0.15518 0.0
H1614 H 0.48055 0.96473 0.05643 0.0
H1615 H 0.47064 0.9482 0.08963 0.0
H1616 H 0.46445 0.98079 0.14353 0.0
C1617 C 0.45688 0.93769 0.20571 0.0
C1618 C 0.47765 0.9397 0.15283 0.0
C1619 C 0.44841 0.925 0.22198 0.0
C1620 C 0.48426 0.97392 0.07175 0.0
C1621 C 0.47868 0.96444 0.09074 0.0
C1622 C 0.46838 0.96949 0.14612 0.0
C1623 C 0.4588 0.92999 0.18544 0.0
C1624 C 0.46661 0.94307 0.16747 0.0
C1625 C 0.48363 0.97576 0.111 0.0
C1626 C 0.47862 0.96539 0.13107 0.0
H1627 H 0.43904 0.88089 0.1951 0.0
H1628 H 0.45332 0.90276 0.1666 0.0
H1629 H 0.45365 0.96123 0.17483 0.0
H1630 H 0.50802 0.02255 0.09393 0.0
H1631 H 0.49775 0.00581 0.12737 0.0
C1632 C 0.10857 0.55158 0.22233 0.0
C1633 C 0.10295 0.53663 0.23688 0.0
C1634 C 0.09719 0.54841 0.20297 0.0
C1635 C 0.06461 0.51028 0.16152 0.0
H1636 H 0.04546 0.54597 0.14839 0.0
C1637 C 0.01362 0.49463 0.08408 0.0
C1638 C 0.01473 0.51109 0.07435 0.0
C1639 C 0.02405 0.49747 0.10413 0.0
C1640 C 0.05096 0.53604 0.15151 0.0
H1641 H 0.08044 0.50673 0.24242 0.0
H1642 H 0.06118 0.50094 0.20806 0.0
H1643 H 0.06451 0.5518 0.18285 0.0
H1644 H 0.02797 0.54342 0.07729 0.0
H1645 H 0.04687 0.54858 0.11158 0.0
H1646 H 0.052 0.49501 0.12995 0.0
C1647 C 0.07439 0.51513 0.2119 0.0
C1648 C 0.06173 0.53932 0.17138 0.0
C1649 C 0.08553 0.51846 0.23151 0.0
C1650 C 0.02667 0.53045 0.08468 0.0
C1651 C 0.03741 0.53336 0.10445 0.0
C1652 C 0.05421 0.50723 0.14142 0.0
C1653 C 0.08015 0.53007 0.19748 0.0
C1654 C 0.06859 0.52645 0.17656 0.0
C1655 C 0.0361 0.5169 0.11464 0.0
C1656 C 0.04719 0.52005 0.13611 0.0
H1657 H 0.12203 0.5656 0.22551 0.0
H1658 H 0.10196 0.56008 0.19197 0.0
H1659 H 0.06994 0.50027 0.16514 0.0
H1660 H 0.0044 0.47953 0.07641 0.0
H1661 H 0.02235 0.48436 0.1115 0.0
C1662 C 0.45819 0.54097 0.21823 0.0
C1663 C 0.47019 0.5615 0.22516 0.0
C1664 C 0.46147 0.53243 0.1995 0.0
C1665 C 0.49998 0.53979 0.16617 0.0
H1666 H 0.46113 0.51232 0.11735 0.0
C1667 C 0.52043 0.53501 0.08032 0.0
C1668 C 0.50942 0.51741 0.06635 0.0
C1669 C 0.51443 0.53728 0.10042 0.0
C1670 C 0.47204 0.5196 0.13099 0.0
H1671 H 0.4944 0.58925 0.21697 0.0
H1672 H 0.50042 0.57426 0.18514 0.0
H1673 H 0.45244 0.52158 0.15172 0.0
H1674 H 0.48364 0.48817 0.06249 0.0
H1675 H 0.47296 0.49217 0.09791 0.0
H1676 H 0.51967 0.53819 0.14567 0.0
C1677 C 0.48866 0.56473 0.19431 0.0
C1678 C 0.46705 0.52491 0.15062 0.0
C1679 C 0.48526 0.57328 0.21269 0.0
C1680 C 0.49228 0.50199 0.07292 0.0
C1681 C 0.48618 0.50428 0.09314 0.0
C1682 C 0.50492 0.53439 0.14673 0.0
C1683 C 0.47693 0.54423 0.18759 0.0
C1684 C 0.48115 0.53562 0.16812 0.0
C1685 C 0.49728 0.52195 0.10716 0.0
C1686 C 0.49117 0.52486 0.12866 0.0
H1687 H 0.44648 0.53144 0.22743 0.0
H1688 H 0.4522 0.51657 0.19458 0.0
H1689 H 0.51105 0.54777 0.17956 0.0
H1690 H 0.53365 0.54719 0.07561 0.0
H1691 H 0.52312 0.55126 0.11058 0.0
C1692 C 0.91966 0.46578 0.79726 0.0
C1693 C 0.91009 0.44519 0.79004 0.0
C1694 C 0.93146 0.47304 0.81697 0.0
C1695 C 0.9594 0.46044 0.85533 0.0
H1696 H 0.95188 0.49271 0.89962 0.0
C1697 C 0.98523 0.4657 0.94462 0.0
C1698 C 0.99322 0.4841 0.95738 0.0
C1699 C 0.97654 0.46329 0.92368 0.0
C1700 C 0.9544 0.484 0.8873 0.0
H1701 H 0.90496 0.4161 0.79854 0.0
H1702 H 0.92586 0.42883 0.83221 0.0
H1703 H 0.93443 0.48469 0.86339 0.0
H1704 H 0.99855 0.51452 0.9583 0.0
H1705 H 0.98326 0.51035 0.92144 0.0
H1706 H 0.97916 0.4595 0.87903 0.0
C1707 C 0.92447 0.43938 0.82251 0.0
C1708 C 0.9444 0.47942 0.86658 0.0
C1709 C 0.91256 0.43211 0.80307 0.0
C1710 C 0.99226 0.50009 0.94886 0.0
C1711 C 0.98354 0.4977 0.92778 0.0
C1712 C 0.96944 0.46511 0.8759 0.0
C1713 C 0.93406 0.45989 0.82969 0.0
C1714 C 0.94644 0.46713 0.85061 0.0
C1715 C 0.97573 0.47928 0.91488 0.0
C1716 C 0.96666 0.47645 0.89234 0.0
H1717 H 0.91816 0.47629 0.78762 0.0
H1718 H 0.93873 0.48894 0.82214 0.0
H1719 H 0.9615 0.45124 0.84319 0.0
H1720 H 0.98562 0.45306 0.95087 0.0
H1721 H 0.97029 0.44877 0.91444 0.0
C1722 C 0.55711 0.45954 0.81266 0.0
C1723 C 0.55849 0.4699 0.79424 0.0
C1724 C 0.54975 0.46323 0.83116 0.0
C1725 C 0.51833 0.48094 0.84993 0.0
H1726 H 0.54773 0.49268 0.90604 0.0
C1727 C 0.51862 0.51185 0.94348 0.0
C1728 C 0.50002 0.49793 0.94813 0.0
C1729 C 0.52567 0.50895 0.92429 0.0
C1730 C 0.53942 0.4895 0.89047 0.0
H1731 H 0.5529 0.49189 0.78049 0.0
H1732 H 0.53959 0.49804 0.81277 0.0
H1733 H 0.56005 0.48611 0.87319 0.0
H1734 H 0.47386 0.47052 0.93602 0.0
H1735 H 0.48599 0.46573 0.90216 0.0
H1736 H 0.49753 0.48399 0.86729 0.0
C1737 C 0.54435 0.48719 0.81289 0.0
C1738 C 0.54639 0.4856 0.87173 0.0
C1739 C 0.55202 0.48375 0.79451 0.0
C1740 C 0.48829 0.48146 0.93287 0.0
C1741 C 0.49521 0.47873 0.9135 0.0
C1742 C 0.51119 0.48449 0.86873 0.0
C1743 C 0.54335 0.47712 0.83147 0.0
C1744 C 0.53592 0.4813 0.85129 0.0
C1745 C 0.51405 0.49231 0.90917 0.0
C1746 C 0.5217 0.48884 0.88917 0.0
H1747 H 0.56214 0.44891 0.81292 0.0
H1748 H 0.54901 0.45518 0.84522 0.0
H1749 H 0.50996 0.47758 0.83437 0.0
H1750 H 0.52771 0.52497 0.95466 0.0
H1751 H 0.54016 0.5198 0.92119 0.0
C1752 C 0.56375 0.0984 0.8233 0.0
C1753 C 0.54869 0.09387 0.80728 0.0
C1754 C 0.56117 0.08564 0.83958 0.0
C1755 C 0.52513 0.036 0.85857 0.0
H1756 H 0.55189 0.06324 0.91477 0.0
C1757 C 0.50335 0.99578 0.93717 0.0
C1758 C 0.50433 0.00764 0.95573 0.0
C1759 C 0.51181 0.00478 0.91863 0.0
C1760 C 0.54404 0.05537 0.89928 0.0
H1761 H 0.51946 0.07131 0.79524 0.0
H1762 H 0.51435 0.05041 0.82456 0.0
H1763 H 0.5602 0.08139 0.88299 0.0
H1764 H 0.51482 0.03805 0.96966 0.0
H1765 H 0.52836 0.05358 0.93734 0.0
H1766 H 0.5076 0.01058 0.87536 0.0
C1767 C 0.52846 0.06341 0.82432 0.0
C1768 C 0.54917 0.06574 0.88076 0.0
C1769 C 0.53125 0.07578 0.80762 0.0
C1770 C 0.51398 0.02854 0.95559 0.0
C1771 C 0.52198 0.03748 0.93701 0.0
C1772 C 0.51956 0.02582 0.87724 0.0
C1773 C 0.54325 0.06832 0.84085 0.0
C1774 C 0.53948 0.05639 0.86013 0.0
C1775 C 0.521 0.02577 0.91817 0.0
C1776 C 0.52858 0.03554 0.89796 0.0
H1777 H 0.5774 0.11215 0.82387 0.0
H1778 H 0.57319 0.08975 0.85146 0.0
H1779 H 0.51771 0.02792 0.84301 0.0
H1780 H 0.49609 0.97961 0.937 0.0
H1781 H 0.51102 0.99522 0.90467 0.0
C1782 C 0.10381 0.22547 0.51989 0.0
C1783 C 0.10162 0.23387 0.53947 0.0
C1784 C 0.11182 0.23736 0.50291 0.0
C1785 C 0.12321 0.28621 0.48271 0.0
H1786 H 0.1564 0.27605 0.44786 0.0
C1787 C 0.15129 0.32536 0.40454 0.0
C1788 C 0.16976 0.32987 0.39996 0.0
C1789 C 0.14291 0.3142 0.42193 0.0
C1790 C 0.14735 0.27928 0.45756 0.0
H1791 H 0.1063 0.2613 0.5568 0.0
H1792 H 0.12077 0.28223 0.52741 0.0
H1793 H 0.14238 0.25578 0.47758 0.0
H1794 H 0.19444 0.32736 0.4106 0.0
H1795 H 0.18022 0.30867 0.44139 0.0
H1796 H 0.12879 0.31021 0.46312 0.0
C1797 C 0.11587 0.26636 0.52489 0.0
C1798 C 0.13904 0.26741 0.47444 0.0
C1799 C 0.10767 0.25441 0.54179 0.0
C1800 C 0.18008 0.3239 0.41364 0.0
C1801 C 0.17183 0.31299 0.43115 0.0
C1802 C 0.13167 0.29821 0.46592 0.0
C1803 C 0.11803 0.25798 0.50521 0.0
C1804 C 0.12685 0.27069 0.48723 0.0
C1805 C 0.153 0.30764 0.43528 0.0
C1806 C 0.14388 0.29491 0.45315 0.0
H1807 H 0.09898 0.20961 0.51754 0.0
H1808 H 0.1129 0.23029 0.48787 0.0
H1809 H 0.1137 0.28901 0.49202 0.0
H1810 H 0.14316 0.33007 0.39439 0.0
H1811 H 0.12834 0.31026 0.42451 0.0
C1812 C 0.7768 0.88007 0.55953 0.0
C1813 C 0.76793 0.86871 0.57672 0.0
C1814 C 0.76627 0.87709 0.53957 0.0
C1815 C 0.73927 0.87553 0.50255 0.0
H1816 H 0.69942 0.82172 0.48061 0.0
C1817 C 0.68809 0.86106 0.4263 0.0
C1818 C 0.68248 0.84395 0.41196 0.0
C1819 C 0.69833 0.86388 0.44641 0.0
C1820 C 0.71063 0.83682 0.48635 0.0
H1821 H 0.74098 0.8457 0.58669 0.0
H1822 H 0.72243 0.84083 0.55204 0.0
H1823 H 0.71782 0.82715 0.51539 0.0
H1824 H 0.68272 0.81613 0.40755 0.0
H1825 H 0.70129 0.82132 0.44233 0.0
H1826 H 0.73261 0.88512 0.47318 0.0
C1827 C 0.73764 0.85169 0.55374 0.0
C1828 C 0.721 0.83999 0.50651 0.0
C1829 C 0.74822 0.85454 0.57365 0.0
C1830 C 0.68715 0.8296 0.41816 0.0
C1831 C 0.69757 0.83248 0.43823 0.0
C1832 C 0.72901 0.87234 0.48234 0.0
C1833 C 0.74656 0.8628 0.53635 0.0
C1834 C 0.73543 0.8594 0.51491 0.0
C1835 C 0.70333 0.84971 0.45262 0.0
C1836 C 0.71449 0.85296 0.47399 0.0
H1837 H 0.79203 0.89087 0.56131 0.0
H1838 H 0.77373 0.88569 0.52649 0.0
H1839 H 0.7501 0.89072 0.50855 0.0
H1840 H 0.68458 0.87234 0.42199 0.0
H1841 H 0.70213 0.87711 0.45719 0.0
C1842 C 0.12734 0.87281 0.5519 0.0
C1843 C 0.13792 0.89338 0.55921 0.0
C1844 C 0.13145 0.86549 0.53289 0.0
C1845 C 0.17071 0.87759 0.49872 0.0
H1846 H 0.13169 0.84603 0.45111 0.0
C1847 C 0.1907 0.87212 0.41247 0.0
C1848 C 0.18043 0.85389 0.39934 0.0
C1849 C 0.18468 0.87456 0.43253 0.0
C1850 C 0.14271 0.85453 0.4644 0.0
H1851 H 0.16043 0.92243 0.55139 0.0
H1852 H 0.16791 0.9096 0.51901 0.0
H1853 H 0.12237 0.85419 0.48559 0.0
H1854 H 0.15594 0.82377 0.39689 0.0
H1855 H 0.14535 0.82798 0.43223 0.0
H1856 H 0.19108 0.87814 0.4778 0.0
C1857 C 0.15665 0.8991 0.52812 0.0
C1858 C 0.13736 0.8592 0.4841 0.0
C1859 C 0.15241 0.90642 0.54682 0.0
C1860 C 0.16403 0.83804 0.40669 0.0
C1861 C 0.15795 0.84048 0.42686 0.0
C1862 C 0.17602 0.87281 0.4792 0.0
C1863 C 0.14634 0.87858 0.52101 0.0
C1864 C 0.1514 0.87124 0.50121 0.0
C1865 C 0.1683 0.85877 0.44006 0.0
C1866 C 0.16217 0.86172 0.46157 0.0
H1867 H 0.1161 0.86233 0.56102 0.0
H1868 H 0.12328 0.84958 0.52772 0.0
H1869 H 0.18179 0.8866 0.51179 0.0
H1870 H 0.20333 0.88464 0.40713 0.0
H1871 H 0.19277 0.889 0.44201 0.0
C1872 C 0.57986 0.76689 0.13822 0.0
C1873 C 0.57714 0.77989 0.12532 0.0
C1874 C 0.59156 0.77415 0.15781 0.0
C1875 C 0.60995 0.81327 0.20257 0.0
H1876 H 0.64629 0.79529 0.21466 0.0
C1877 C 0.65705 0.83357 0.28546 0.0
C1878 C 0.65882 0.81781 0.29334 0.0
C1879 C 0.64837 0.83137 0.2644 0.0
C1880 C 0.63612 0.80034 0.21163 0.0
H1881 H 0.58458 0.81087 0.1233 0.0
H1882 H 0.60472 0.82347 0.15811 0.0
H1883 H 0.62898 0.78721 0.17864 0.0
H1884 H 0.65255 0.7873 0.28581 0.0
H1885 H 0.63723 0.78332 0.24948 0.0
H1886 H 0.61659 0.82575 0.2359 0.0
C1887 C 0.59782 0.80764 0.1527 0.0
C1888 C 0.62629 0.79579 0.19096 0.0
C1889 C 0.58626 0.8004 0.13283 0.0
C1890 C 0.65155 0.79978 0.28005 0.0
C1891 C 0.64288 0.79756 0.25916 0.0
C1892 C 0.61972 0.81771 0.22341 0.0
C1893 C 0.60066 0.79456 0.16528 0.0
C1894 C 0.61278 0.80178 0.18636 0.0
C1895 C 0.64139 0.81339 0.25092 0.0
C1896 C 0.63255 0.81082 0.22832 0.0
H1897 H 0.5726 0.75092 0.13348 0.0
H1898 H 0.59317 0.76365 0.1674 0.0
H1899 H 0.59954 0.81799 0.19944 0.0
H1900 H 0.66272 0.84769 0.29537 0.0
H1901 H 0.64751 0.84388 0.25852 0.0
C1902 C 0.22618 0.79492 0.14543 0.0
C1903 C 0.22615 0.8042 0.12652 0.0
C1904 C 0.21903 0.79869 0.16408 0.0
C1905 C 0.18559 0.81319 0.1831 0.0
H1906 H 0.21773 0.83073 0.23797 0.0
C1907 C 0.18617 0.84682 0.27536 0.0
C1908 C 0.1689 0.83146 0.28169 0.0
C1909 C 0.19305 0.84414 0.25594 0.0
C1910 C 0.20865 0.82591 0.22274 0.0
H1911 H 0.2183 0.82431 0.11202 0.0
H1912 H 0.20522 0.83046 0.14456 0.0
H1913 H 0.2299 0.82424 0.2049 0.0
H1914 H 0.14468 0.8017 0.27218 0.0
H1915 H 0.15639 0.79726 0.23782 0.0
H1916 H 0.16416 0.81437 0.20107 0.0
C1917 C 0.21098 0.82046 0.14496 0.0
C1918 C 0.21554 0.82209 0.2039 0.0
C1919 C 0.21849 0.81701 0.12643 0.0
C1920 C 0.15812 0.81375 0.26774 0.0
C1921 C 0.16479 0.81121 0.2481 0.0
C1922 C 0.17855 0.81662 0.20204 0.0
C1923 C 0.21139 0.81151 0.16402 0.0
C1924 C 0.20408 0.8157 0.18391 0.0
C1925 C 0.18246 0.82625 0.2422 0.0
C1926 C 0.19002 0.82304 0.22202 0.0
H1927 H 0.23215 0.78511 0.14595 0.0
H1928 H 0.2194 0.79153 0.17855 0.0
H1929 H 0.17647 0.8082 0.16789 0.0
H1930 H 0.19435 0.86091 0.28541 0.0
H1931 H 0.20658 0.85608 0.25157 0.0
C1932 C 0.22783 0.43928 0.16503 0.0
C1933 C 0.2184 0.4332 0.1439 0.0
C1934 C 0.2233 0.4254 0.18045 0.0
C1935 C 0.18264 0.37698 0.19182 0.0
H1936 H 0.21741 0.38305 0.24136 0.0
C1937 C 0.15502 0.34584 0.27218 0.0
C1938 C 0.16442 0.33804 0.28455 0.0
C1939 C 0.1626 0.35531 0.25367 0.0
C1940 C 0.20755 0.38092 0.22748 0.0
H1941 H 0.19799 0.40771 0.12173 0.0
H1942 H 0.19052 0.38326 0.14838 0.0
H1943 H 0.23005 0.40287 0.21071 0.0
H1944 H 0.18861 0.33321 0.28696 0.0
H1945 H 0.20201 0.34986 0.25441 0.0
H1946 H 0.16019 0.35496 0.20841 0.0
C1947 C 0.20095 0.39884 0.15334 0.0
C1948 C 0.21477 0.39247 0.21001 0.0
C1949 C 0.20528 0.41279 0.13803 0.0
C1950 C 0.18136 0.33952 0.2779 0.0
C1951 C 0.18897 0.34899 0.25927 0.0
C1952 C 0.17547 0.36537 0.20915 0.0
C1953 C 0.20939 0.40508 0.17497 0.0
C1954 C 0.20233 0.391 0.19219 0.0
C1955 C 0.17966 0.35702 0.24696 0.0
C1956 C 0.18774 0.3676 0.22747 0.0
H1957 H 0.23788 0.45498 0.17001 0.0
H1958 H 0.22994 0.43085 0.19696 0.0
H1959 H 0.17254 0.37553 0.17857 0.0
H1960 H 0.14199 0.34499 0.27706 0.0
H1961 H 0.15525 0.36167 0.24488 0.0
C1962 C 0.77077 0.56551 0.86469 0.0
C1963 C 0.77035 0.57413 0.88509 0.0
C1964 C 0.7774 0.57728 0.84734 0.0
C1965 C 0.8084 0.628 0.83337 0.0
H1966 H 0.77649 0.60922 0.77838 0.0
C1967 C 0.83124 0.67257 0.75754 0.0
C1968 C 0.82749 0.66103 0.73764 0.0
C1969 C 0.82334 0.66327 0.77616 0.0
C1970 C 0.7857 0.6146 0.79353 0.0
H1971 H 0.77693 0.6018 0.90359 0.0
H1972 H 0.789 0.62256 0.87322 0.0
H1973 H 0.7652 0.59023 0.80981 0.0
H1974 H 0.81269 0.63082 0.72152 0.0
H1975 H 0.79936 0.61464 0.75377 0.0
H1976 H 0.82927 0.65193 0.81695 0.0
C1977 C 0.78403 0.60667 0.87069 0.0
C1978 C 0.77917 0.60374 0.81153 0.0
C1979 C 0.77709 0.59482 0.88797 0.0
C1980 C 0.81565 0.64013 0.7366 0.0
C1981 C 0.8079 0.63085 0.75512 0.0
C1982 C 0.81508 0.63875 0.81525 0.0
C1983 C 0.784 0.59794 0.85015 0.0
C1984 C 0.79056 0.61018 0.83152 0.0
C1985 C 0.81166 0.64225 0.77519 0.0
C1986 C 0.80393 0.63199 0.795 0.0
H1987 H 0.7655 0.54956 0.86202 0.0
H1988 H 0.77739 0.57023 0.8317 0.0
H1989 H 0.81747 0.63323 0.84863 0.0
H1990 H 0.84031 0.68873 0.75872 0.0
H1991 H 0.82636 0.67253 0.79127 0.0
C1992 C 0.43999 0.2122 0.89111 0.0
C1993 C 0.43199 0.20041 0.9083 0.0
C1994 C 0.42887 0.20887 0.87151 0.0
C1995 C 0.40043 0.2065 0.83592 0.0
H1996 H 0.36156 0.1524 0.81365 0.0
C1997 C 0.34827 0.19155 0.7604 0.0
C1998 C 0.34311 0.17474 0.74578 0.0
C1999 C 0.35851 0.19432 0.78051 0.0
C2000 C 0.37248 0.1676 0.81948 0.0
H2001 H 0.40604 0.17606 0.9186 0.0
H2002 H 0.38638 0.17058 0.88462 0.0
H2003 H 0.38094 0.15793 0.84767 0.0
H2004 H 0.34395 0.14728 0.74097 0.0
H2005 H 0.36263 0.15247 0.7756 0.0
H2006 H 0.39261 0.2161 0.8073 0.0
C2007 C 0.40138 0.18209 0.88601 0.0
C2008 C 0.38343 0.17081 0.83923 0.0
C2009 C 0.41259 0.18528 0.90554 0.0
C2010 C 0.3481 0.16056 0.75177 0.0
C2011 C 0.35855 0.16343 0.77179 0.0
C2012 C 0.38964 0.20327 0.81608 0.0
C2013 C 0.40939 0.1938 0.86868 0.0
C2014 C 0.39756 0.19032 0.84773 0.0
C2015 C 0.36399 0.18042 0.78641 0.0
C2016 C 0.37548 0.18378 0.80759 0.0
H2017 H 0.455 0.22374 0.89265 0.0
H2018 H 0.43569 0.21791 0.85844 0.0
H2019 H 0.41096 0.22177 0.84203 0.0
H2020 H 0.34448 0.20267 0.75626 0.0
H2021 H 0.36203 0.20735 0.79148 0.0
C2022 C 0.81849 0.23964 0.88107 0.0
C2023 C 0.80398 0.22702 0.8937 0.0
C2024 C 0.8227 0.2318 0.86275 0.0
C2025 C 0.80344 0.19135 0.81962 0.0
H2026 H 0.85706 0.20895 0.8145 0.0
C2027 C 0.83049 0.1694 0.74297 0.0
C2028 C 0.84722 0.1851 0.73598 0.0
C2029 C 0.82421 0.17187 0.763 0.0
C2030 C 0.84203 0.20398 0.81557 0.0
H2031 H 0.78209 0.19615 0.89633 0.0
H2032 H 0.78918 0.18248 0.86362 0.0
H2033 H 0.84761 0.21804 0.84801 0.0
H2034 H 0.87046 0.21562 0.74426 0.0
H2035 H 0.85955 0.22003 0.77884 0.0
H2036 H 0.79798 0.178 0.78673 0.0
C2037 C 0.7974 0.19847 0.86834 0.0
C2038 C 0.83663 0.20911 0.83482 0.0
C2039 C 0.79334 0.20632 0.887 0.0
C2040 C 0.85759 0.2032 0.74931 0.0
C2041 C 0.85137 0.20567 0.76922 0.0
C2042 C 0.80888 0.18634 0.80017 0.0
C2043 C 0.81232 0.21116 0.85625 0.0
C2044 C 0.81737 0.20328 0.83686 0.0
C2045 C 0.83467 0.19004 0.77641 0.0
C2046 C 0.82834 0.19308 0.79774 0.0
H2047 H 0.82655 0.25572 0.88514 0.0
H2048 H 0.834 0.24197 0.85344 0.0
H2049 H 0.78849 0.18673 0.82078 0.0
H2050 H 0.82232 0.15523 0.73301 0.0
H2051 H 0.81135 0.15949 0.7681 0.0
C2052 C 0.2534 0.13343 0.46692 0.0
C2053 C 0.24463 0.11294 0.45945 0.0
C2054 C 0.26533 0.14098 0.48651 0.0
C2055 C 0.29496 0.1302 0.52452 0.0
H2056 H 0.28456 0.15964 0.56933 0.0
C2057 C 0.31985 0.13453 0.61388 0.0
C2058 C 0.32666 0.15246 0.62722 0.0
C2059 C 0.31148 0.13229 0.59281 0.0
C2060 C 0.28789 0.15176 0.55687 0.0
H2061 H 0.24134 0.08436 0.46728 0.0
H2062 H 0.26253 0.09765 0.50073 0.0
H2063 H 0.26741 0.15147 0.53292 0.0
H2064 H 0.33031 0.18223 0.62903 0.0
H2065 H 0.31552 0.17833 0.59194 0.0
H2066 H 0.31523 0.13022 0.54827 0.0
C2067 C 0.26033 0.1079 0.49133 0.0
C2068 C 0.27806 0.14708 0.53605 0.0
C2069 C 0.24825 0.10031 0.472 0.0
C2070 C 0.32489 0.16815 0.61914 0.0
C2071 C 0.31648 0.16592 0.59793 0.0
C2072 C 0.30484 0.13498 0.54519 0.0
C2073 C 0.26893 0.12826 0.49885 0.0
C2074 C 0.28114 0.13576 0.51988 0.0
C2075 C 0.30983 0.14798 0.58446 0.0
C2076 C 0.30102 0.14528 0.56182 0.0
H2077 H 0.25107 0.14363 0.45763 0.0
H2078 H 0.27186 0.15677 0.49194 0.0
H2079 H 0.29785 0.12177 0.51223 0.0
H2080 H 0.3209 0.12213 0.61977 0.0
H2081 H 0.30611 0.1181 0.58313 0.0
C2082 C 0.8764 0.12814 0.46539 0.0
C2083 C 0.89605 0.13985 0.46268 0.0
C2084 C 0.86881 0.13234 0.4834 0.0
C2085 C 0.88435 0.15854 0.53923 0.0
H2086 H 0.83239 0.14906 0.53668 0.0
C2087 C 0.85457 0.17951 0.61257 0.0
C2088 C 0.83677 0.16427 0.61787 0.0
C2089 C 0.8615 0.17762 0.59289 0.0
C2090 C 0.84691 0.1517 0.53761 0.0
H2091 H 0.92297 0.16555 0.47682 0.0
H2092 H 0.90959 0.17345 0.50732 0.0
H2093 H 0.84508 0.14423 0.50336 0.0
H2094 H 0.81185 0.1355 0.6065 0.0
H2095 H 0.82382 0.13231 0.5719 0.0
H2096 H 0.8862 0.16621 0.57344 0.0
C2097 C 0.90009 0.16066 0.49587 0.0
C2098 C 0.85417 0.14887 0.51855 0.0
C2099 C 0.90772 0.15632 0.47806 0.0
C2100 C 0.82566 0.14745 0.60282 0.0
C2101 C 0.83248 0.14565 0.58301 0.0
C2102 C 0.87717 0.16159 0.55819 0.0
C2103 C 0.88063 0.14848 0.49907 0.0
C2104 C 0.87297 0.15214 0.51913 0.0
C2105 C 0.85058 0.16059 0.57799 0.0
C2106 C 0.85834 0.15808 0.55761 0.0
H2107 H 0.86691 0.11551 0.45376 0.0
H2108 H 0.85378 0.12253 0.48536 0.0
H2109 H 0.89872 0.16078 0.54048 0.0
H2110 H 0.86312 0.19288 0.62362 0.0
H2111 H 0.87538 0.1895 0.58929 0.0
C2112 C 0.89302 0.77029 0.49625 0.0
C2113 C 0.88293 0.76346 0.47548 0.0
C2114 C 0.88889 0.75711 0.51238 0.0
C2115 C 0.84939 0.70921 0.52716 0.0
H2116 H 0.88742 0.71627 0.57334 0.0
C2117 C 0.8292 0.66138 0.60021 0.0
C2118 C 0.83584 0.67282 0.62049 0.0
C2119 C 0.83648 0.67023 0.5812 0.0
C2120 C 0.87667 0.71411 0.5605 0.0
H2121 H 0.86138 0.73736 0.45485 0.0
H2122 H 0.85447 0.71416 0.48282 0.0
H2123 H 0.89763 0.7356 0.54187 0.0
H2124 H 0.85545 0.70232 0.63691 0.0
H2125 H 0.86843 0.71762 0.60388 0.0
H2126 H 0.82844 0.68787 0.54595 0.0
C2127 C 0.86521 0.7298 0.48689 0.0
C2128 C 0.88249 0.72523 0.54252 0.0
C2129 C 0.86921 0.74304 0.47084 0.0
C2130 C 0.85027 0.69306 0.62154 0.0
C2131 C 0.85772 0.70182 0.60262 0.0
C2132 C 0.84362 0.69796 0.54502 0.0
C2133 C 0.87469 0.73675 0.50803 0.0
C2134 C 0.86887 0.72327 0.52586 0.0
C2135 C 0.85067 0.6906 0.58222 0.0
C2136 C 0.85714 0.70063 0.56209 0.0
H2137 H 0.90352 0.78601 0.50034 0.0
H2138 H 0.89627 0.76311 0.52853 0.0
H2139 H 0.83845 0.7075 0.51487 0.0
H2140 H 0.81807 0.64574 0.59897 0.0
H2141 H 0.83087 0.66122 0.56568 0.0
loop_
_geom_bond_atom_site_label_1
_geom_bond_atom_site_label_2
_geom_bond_distance
_geom_bond_site_symmetry_2
_ccdc_geom_bond_type
H0 C1 0.949 . S
C1 H0 0.949 . S
C1 C2 1.395 . S
C1 C3 1.391 . S
C2 C1 1.395 . S
C2 C5 1.390 . S
C3 C1 1.391 . S
C3 C7 1.387 . S
C3 C8 1.491 . S
H4 C5 0.950 . S
C5 C2 1.390 . S
C5 H4 0.950 . S
C5 C6 1.378 . S
C6 C5 1.378 . S
C6 C7 1.409 . S
C7 C3 1.387 . S
C7 C6 1.409 . S
C7 H9 0.951 . S
C8 C3 1.491 . S
C8 C10 1.382 . S
C8 C12 1.404 . S
H9 C7 0.951 . S
C10 C8 1.382 . S
C10 C11 1.390 . S
C10 H15 0.949 . S
C11 C10 1.390 . S
C11 C16 1.399 . S
C12 C8 1.404 . S
C12 H13 0.950 . S
C12 C14 1.375 . S
H13 C12 0.950 . S
C14 C12 1.375 . S
C14 C16 1.382 . S
C14 H18 0.950 . S
H15 C10 0.949 . S
C16 C11 1.399 . S
C16 C14 1.382 . S
C16 H17 0.952 . S
H17 C16 0.952 . S
H18 C14 0.950 . S
H19 C20 0.949 . S
C20 H19 0.949 . S
C20 C21 1.395 . S
C20 C22 1.391 . S
C21 C20 1.395 . S
C21 C24 1.390 . S
C22 C20 1.391 . S
C22 C26 1.387 . S
C22 C27 1.491 . S
H23 C24 0.950 . S
C24 C21 1.390 . S
C24 H23 0.950 . S
C24 C25 1.378 . S
C25 C24 1.378 . S
C25 C26 1.409 . S
C26 C22 1.387 . S
C26 C25 1.409 . S
C26 H28 0.951 . S
C27 C22 1.491 . S
C27 C29 1.382 . S
C27 C31 1.404 . S
H28 C26 0.951 . S
C29 C27 1.382 . S
C29 C30 1.390 . S
C29 H34 0.949 . S
C30 C29 1.390 . S
C30 C35 1.399 . S
C31 C27 1.404 . S
C31 H32 0.950 . S
C31 C33 1.375 . S
H32 C31 0.950 . S
C33 C31 1.375 . S
C33 C35 1.382 . S
C33 H37 0.950 . S
H34 C29 0.949 . S
C35 C30 1.399 . S
C35 C33 1.382 . S
C35 H36 0.952 . S
H36 C35 0.952 . S
H37 C33 0.950 . S
H38 C39 0.949 . S
C39 H38 0.949 . S
C39 C40 1.395 . S
C39 C41 1.391 . S
C40 C39 1.395 . S
C40 C43 1.390 . S
C41 C39 1.391 . S
C41 C45 1.387 . S
C41 C46 1.491 . S
H42 C43 0.950 . S
C43 C40 1.390 . S
C43 H42 0.950 . S
C43 C44 1.378 . S
C44 C43 1.378 . S
C44 C45 1.409 . S
C45 C41 1.387 . S
C45 C44 1.409 . S
C45 H47 0.951 . S
C46 C41 1.491 . S
C46 C48 1.382 . S
C46 C50 1.404 . S
H47 C45 0.951 . S
C48 C46 1.382 . S
C48 C49 1.390 . S
C48 H53 0.949 . S
C49 C48 1.390 . S
C49 C54 1.399 . S
C50 C46 1.404 . S
C50 H51 0.950 . S
C50 C52 1.375 . S
H51 C50 0.950 . S
C52 C50 1.375 . S
C52 C54 1.382 . S
C52 H56 0.950 . S
H53 C48 0.949 . S
C54 C49 1.399 . S
C54 C52 1.382 . S
C54 H55 0.952 . S
H55 C54 0.952 . S
H56 C52 0.950 . S
H57 C58 0.949 . S
C58 H57 0.949 . S
C58 C59 1.395 . S
C58 C60 1.391 . S
C59 C58 1.395 . S
C59 C62 1.390 . S
C60 C58 1.391 . S
C60 C64 1.387 . S
C60 C65 1.491 . S
H61 C62 0.950 . S
C62 C59 1.390 . S
C62 H61 0.950 . S
C62 C63 1.378 . S
C63 C62 1.378 . S
C63 C64 1.409 . S
C64 C60 1.387 . S
C64 C63 1.409 . S
C64 H66 0.951 . S
C65 C60 1.491 . S
C65 C67 1.382 . S
C65 C69 1.404 . S
H66 C64 0.951 . S
C67 C65 1.382 . S
C67 C68 1.390 . S
C67 H72 0.949 . S
C68 C67 1.390 . S
C68 C73 1.399 . S
C69 C65 1.404 . S
C69 H70 0.950 . S
C69 C71 1.375 . S
H70 C69 0.950 . S
C71 C69 1.375 . S
C71 C73 1.382 . S
C71 H75 0.950 . S
H72 C67 0.949 . S
C73 C68 1.399 . S
C73 C71 1.382 . S
C73 H74 0.952 . S
H74 C73 0.952 . S
H75 C71 0.950 . S
H76 C77 0.949 . S
C77 H76 0.949 . S
C77 C78 1.395 . S
C77 C79 1.391 . S
C78 C77 1.395 . S
C78 C81 1.390 . S
C79 C77 1.391 . S
C79 C83 1.387 . S
C79 C84 1.491 . S
H80 C81 0.950 . S
C81 C78 1.390 . S
C81 H80 0.950 . S
C81 C82 1.378 . S
C82 C81 1.378 . S
C82 C83 1.409 . S
C83 C79 1.387 . S
C83 C82 1.409 . S
C83 H85 0.951 . S
C84 C79 1.491 . S
C84 C86 1.382 . S
C84 C88 1.404 . S
H85 C83 0.951 . S
C86 C84 1.382 . S
C86 C87 1.390 . S
C86 H91 0.949 . S
C87 C86 1.390 . S
C87 C92 1.399 . S
C88 C84 1.404 . S
C88 H89 0.950 . S
C88 C90 1.375 . S
H89 C88 0.950 . S
C90 C88 1.375 . S
C90 C92 1.382 . S
C90 H94 0.950 . S
H91 C86 0.949 . S
C92 C87 1.399 . S
C92 C90 1.382 . S
C92 H93 0.952 . S
H93 C92 0.952 . S
H94 C90 0.950 . S
H95 C96 0.949 . S
C96 H95 0.949 . S
C96 C97 1.395 . S
C96 C98 1.391 . S
C97 C96 1.395 . S
C97 C100 1.390 . S
C98 C96 1.391 . S
C98 C102 1.387 . S
C98 C103 1.491 . S
H99 C100 0.950 . S
C100 C97 1.390 . S
C100 H99 0.950 . S
C100 C101 1.378 . S
C101 C100 1.378 . S
C101 C102 1.409 . S
C102 C98 1.387 . S
C102 C101 1.409 . S
C102 H104 0.951 . S
C103 C98 1.491 . S
C103 C105 1.382 . S
C103 C107 1.404 . S
H104 C102 0.951 . S
C105 C103 1.382 . S
C105 C106 1.390 . S
C105 H110 0.949 . S
C106 C105 1.390 . S
C106 C111 1.399 . S
C107 C103 1.404 . S
C107 H108 0.950 . S
C107 C109 1.375 . S
H108 C107 0.950 . S
C109 C107 1.375 . S
C109 C111 1.382 . S
C109 H113 0.950 . S
H110 C105 0.949 . S
C111 C106 1.399 . S
C111 C109 1.382 . S
C111 H112 0.952 . S
H112 C111 0.952 . S
H113 C109 0.950 . S
H114 C115 0.949 . S
C115 H114 0.949 . S
C115 C116 1.395 . S
C115 C117 1.391 . S
C116 C115 1.395 . S
C116 C119 1.390 . S
C117 C115 1.391 . S
C117 C121 1.387 . S
C117 C122 1.491 . S
H118 C119 0.950 . S
C119 C116 1.390 . S
C119 H118 0.950 . S
C119 C120 1.378 . S
C120 C119 1.378 . S
C120 C121 1.409 . S
C121 C117 1.387 . S
C121 C120 1.409 . S
C121 H123 0.951 . S
C122 C117 1.491 . S
C122 C124 1.382 . S
C122 C126 1.404 . S
H123 C121 0.951 . S
C124 C122 1.382 . S
C124 C125 1.390 . S
C124 H129 0.949 . S
C125 C124 1.390 . S
C125 C130 1.399 . S
C126 C122 1.404 . S
C126 H127 0.950 . S
C126 C128 1.375 . S
H127 C126 0.950 . S
C128 C126 1.375 . S
C128 C130 1.382 . S
C128 H132 0.950 . S
H129 C124 0.949 . S
C130 C125 1.399 . S
C130 C128 1.382 . S
C130 H131 0.952 . S
H131 C130 0.952 . S
H132 C128 0.950 . S
H133 C134 0.949 . S
C134 H133 0.949 . S
C134 C135 1.395 . S
C134 C136 1.391 . S
C135 C134 1.395 . S
C135 C138 1.390 . S
C136 C134 1.391 . S
C136 C140 1.387 . S
C136 C141 1.491 . S
H137 C138 0.950 . S
C138 C135 1.390 . S
C138 H137 0.950 . S
C138 C139 1.378 . S
C139 C138 1.378 . S
C139 C140 1.409 . S
C140 C136 1.387 . S
C140 C139 1.409 . S
C140 H142 0.951 . S
C141 C136 1.491 . S
C141 C143 1.382 . S
C141 C145 1.404 . S
H142 C140 0.951 . S
C143 C141 1.382 . S
C143 C144 1.390 . S
C143 H148 0.949 . S
C144 C143 1.390 . S
C144 C149 1.399 . S
C145 C141 1.404 . S
C145 H146 0.950 . S
C145 C147 1.375 . S
H146 C145 0.950 . S
C147 C145 1.375 . S
C147 C149 1.382 . S
C147 H151 0.950 . S
H148 C143 0.949 . S
C149 C144 1.399 . S
C149 C147 1.382 . S
C149 H150 0.952 . S
H150 C149 0.952 . S
H151 C147 0.950 . S
H152 C153 0.949 . S
C153 H152 0.949 . S
C153 C154 1.395 . S
C153 C155 1.391 . S
C154 C153 1.395 . S
C154 C157 1.390 . S
C155 C153 1.391 . S
C155 C159 1.387 . S
C155 C160 1.491 . S
H156 C157 0.950 . S
C157 C154 1.390 . S
C157 H156 0.950 . S
C157 C158 1.378 . S
C158 C157 1.378 . S
C158 C159 1.409 . S
C159 C155 1.387 . S
C159 C158 1.409 . S
C159 H161 0.951 . S
C160 C155 1.491 . S
C160 C162 1.382 . S
C160 C164 1.404 . S
H161 C159 0.951 . S
C162 C160 1.382 . S
C162 C163 1.390 . S
C162 H167 0.949 . S
C163 C162 1.390 . S
C163 C168 1.399 . S
C164 C160 1.404 . S
C164 H165 0.950 . S
C164 C166 1.375 . S
H165 C164 0.950 . S
C166 C164 1.375 . S
C166 C168 1.382 . S
C166 H170 0.950 . S
H167 C162 0.949 . S
C168 C163 1.399 . S
C168 C166 1.382 . S
C168 H169 0.952 . S
H169 C168 0.952 . S
H170 C166 0.950 . S
H171 C172 0.949 . S
C172 H171 0.949 . S
C172 C173 1.395 . S
C172 C174 1.391 . S
C173 C172 1.395 . S
C173 C176 1.390 . S
C174 C172 1.391 . S
C174 C178 1.387 . S
C174 C179 1.491 . S
H175 C176 0.950 . S
C176 C173 1.390 . S
C176 H175 0.950 . S
C176 C177 1.378 . S
C177 C176 1.378 . S
C177 C178 1.409 . S
C178 C174 1.387 . S
C178 C177 1.409 . S
C178 H180 0.951 . S
C179 C174 1.491 . S
C179 C181 1.382 . S
C179 C183 1.404 . S
H180 C178 0.951 . S
C181 C179 1.382 . S
C181 C182 1.390 . S
C181 H186 0.949 . S
C182 C181 1.390 . S
C182 C187 1.399 . S
C183 C179 1.404 . S
C183 H184 0.950 . S
C183 C185 1.375 . S
H184 C183 0.950 . S
C185 C183 1.375 . S
C185 C187 1.382 . S
C185 H189 0.950 . S
H186 C181 0.949 . S
C187 C182 1.399 . S
C187 C185 1.382 . S
C187 H188 0.952 . S
H188 C187 0.952 . S
H189 C185 0.950 . S
H190 C191 0.949 . S
C191 H190 0.949 . S
C191 C192 1.395 . S
C191 C193 1.391 . S
C192 C191 1.395 . S
C192 C195 1.390 . S
C193 C191 1.391 . S
C193 C197 1.387 . S
C193 C198 1.491 . S
H194 C195 0.950 . S
C195 C192 1.390 . S
C195 H194 0.950 . S
C195 C196 1.378 . S
C196 C195 1.378 . S
C196 C197 1.409 . S
C197 C193 1.387 . S
C197 C196 1.409 . S
C197 H199 0.953 . S
C198 C193 1.491 . S
C198 C200 1.382 . S
C198 C202 1.404 . S
H199 C197 0.953 . S
C200 C198 1.382 . S
C200 C201 1.390 . S
C200 H205 0.949 . S
C201 C200 1.390 . S
C201 C206 1.399 1_556 S
C202 C198 1.404 . S
C202 H203 0.950 . S
C202 C204 1.375 1_556 S
H203 C202 0.950 . S
C204 C202 1.375 1_554 S
C204 C206 1.382 . S
C204 H208 0.950 . S
H205 C200 0.949 . S
C206 C201 1.399 1_554 S
C206 C204 1.382 . S
C206 H207 0.952 . S
H207 C206 0.952 . S
H208 C204 0.950 . S
H209 C210 0.949 . S
C210 H209 0.949 . S
C210 C211 1.395 . S
C210 C212 1.391 . S
C211 C210 1.395 . S
C211 C214 1.390 . S
C212 C210 1.391 . S
C212 C216 1.387 . S
C212 C217 1.491 . S
H213 C214 0.950 . S
C214 C211 1.390 . S
C214 H213 0.950 . S
C214 C215 1.378 . S
C215 C214 1.378 . S
C215 C216 1.409 . S
C216 C212 1.387 . S
C216 C215 1.409 . S
C216 H218 0.951 . S
C217 C212 1.491 . S
C217 C219 1.382 . S
C217 C221 1.404 . S
H218 C216 0.951 . S
C219 C217 1.382 . S
C219 C220 1.390 . S
C219 H224 0.949 . S
C220 C219 1.390 . S
C220 C225 1.399 . S
C221 C217 1.404 . S
C221 H222 0.950 . S
C221 C223 1.375 . S
H222 C221 0.950 . S
C223 C221 1.375 . S
C223 C225 1.382 . S
C223 H227 0.950 . S
H224 C219 0.949 . S
C225 C220 1.399 . S
C225 C223 1.382 . S
C225 H226 0.952 . S
H226 C225 0.952 . S
H227 C223 0.950 . S
H228 C229 0.949 . S
C229 H228 0.949 . S
C229 C230 1.395 . S
C229 C231 1.391 . S
C230 C229 1.395 . S
C230 C233 1.390 . S
C231 C229 1.391 . S
C231 C235 1.387 . S
C231 C236 1.491 . S
H232 C233 0.950 . S
C233 C230 1.390 . S
C233 H232 0.950 . S
C233 C234 1.378 . S
C234 C233 1.378 . S
C234 C235 1.409 . S
C235 C231 1.387 . S
C235 C234 1.409 . S
C235 H237 0.951 . S
C236 C231 1.491 . S
C236 C238 1.382 . S
C236 C240 1.404 . S
H237 C235 0.951 . S
C238 C236 1.382 . S
C238 C239 1.390 . S
C238 H243 0.949 . S
C239 C238 1.390 . S
C239 C244 1.399 . S
C240 C236 1.404 . S
C240 H241 0.950 . S
C240 C242 1.375 . S
H241 C240 0.950 . S
C242 C240 1.375 . S
C242 C244 1.382 . S
C242 H246 0.950 . S
H243 C238 0.949 . S
C244 C239 1.399 . S
C244 C242 1.382 . S
C244 H245 0.952 . S
H245 C244 0.952 . S
H246 C242 0.950 . S
H247 C248 0.949 . S
C248 H247 0.949 . S
C248 C249 1.395 . S
C248 C250 1.391 . S
C249 C248 1.395 . S
C249 C252 1.390 . S
C250 C248 1.391 . S
C250 C254 1.387 . S
C250 C255 1.491 . S
H251 C252 0.950 . S
C252 C249 1.390 . S
C252 H251 0.950 . S
C252 C253 1.378 . S
C253 C252 1.378 . S
C253 C254 1.409 . S
C254 C250 1.387 . S
C254 C253 1.409 . S
C254 H256 0.951 . S
C255 C250 1.491 . S
C255 C257 1.382 . S
C255 C259 1.404 . S
H256 C254 0.951 . S
C257 C255 1.382 . S
C257 C258 1.390 . S
C257 H262 0.949 . S
C258 C257 1.390 . S
C258 C263 1.399 . S
C259 C255 1.404 . S
C259 H260 0.950 . S
C259 C261 1.375 . S
H260 C259 0.950 . S
C261 C259 1.375 . S
C261 C263 1.382 . S
C261 H265 0.950 . S
H262 C257 0.949 . S
C263 C258 1.399 . S
C263 C261 1.382 . S
C263 H264 0.952 . S
H264 C263 0.952 . S
H265 C261 0.950 . S
H266 C267 0.949 . S
C267 H266 0.949 . S
C267 C268 1.395 . S
C267 C269 1.391 . S
C268 C267 1.395 . S
C268 C271 1.390 . S
C269 C267 1.391 . S
C269 C273 1.387 . S
C269 C274 1.491 . S
H270 C271 0.950 . S
C271 C268 1.390 . S
C271 H270 0.950 . S
C271 C272 1.378 . S
C272 C271 1.378 . S
C272 C273 1.409 . S
C273 C269 1.387 . S
C273 C272 1.409 . S
C273 H275 0.951 . S
C274 C269 1.491 . S
C274 C276 1.382 . S
C274 C278 1.404 . S
H275 C273 0.951 . S
C276 C274 1.382 . S
C276 C277 1.390 . S
C276 H281 0.949 . S
C277 C276 1.390 . S
C277 C282 1.399 . S
C278 C274 1.404 . S
C278 H279 0.950 . S
C278 C280 1.375 . S
H279 C278 0.950 . S
C280 C278 1.375 . S
C280 C282 1.382 . S
C280 H284 0.950 . S
H281 C276 0.949 . S
C282 C277 1.399 . S
C282 C280 1.382 . S
C282 H283 0.952 . S
H283 C282 0.952 . S
H284 C280 0.950 . S
H285 C286 0.949 . S
C286 H285 0.949 . S
C286 C287 1.395 . S
C286 C288 1.391 . S
C287 C286 1.395 . S
C287 C290 1.390 . S
C288 C286 1.391 . S
C288 C292 1.387 . S
C288 C293 1.491 . S
H289 C290 0.950 . S
C290 C287 1.390 . S
C290 H289 0.950 . S
C290 C291 1.378 . S
C291 C290 1.378 . S
C291 C292 1.409 . S
C292 C288 1.387 . S
C292 C291 1.409 . S
C292 H294 0.951 . S
C293 C288 1.491 . S
C293 C295 1.382 . S
C293 C297 1.404 . S
H294 C292 0.951 . S
C295 C293 1.382 . S
C295 C296 1.390 . S
C295 H300 0.949 . S
C296 C295 1.390 . S
C296 C301 1.399 . S
C297 C293 1.404 . S
C297 H298 0.950 . S
C297 C299 1.375 . S
H298 C297 0.950 . S
C299 C297 1.375 . S
C299 C301 1.382 . S
C299 H303 0.950 . S
H300 C295 0.949 . S
C301 C296 1.399 . S
C301 C299 1.382 . S
C301 H302 0.952 . S
H302 C301 0.952 . S
H303 C299 0.950 . S
H304 C305 0.949 . S
C305 H304 0.949 . S
C305 C306 1.395 . S
C305 C307 1.391 . S
C306 C305 1.395 . S
C306 C309 1.390 . S
C307 C305 1.391 . S
C307 C311 1.387 . S
C307 C312 1.491 . S
H308 C309 0.950 . S
C309 C306 1.390 . S
C309 H308 0.950 . S
C309 C310 1.378 . S
C310 C309 1.378 . S
C310 C311 1.409 . S
C311 C307 1.387 . S
C311 C310 1.409 . S
C311 H313 0.951 . S
C312 C307 1.491 . S
C312 C314 1.382 . S
C312 C316 1.404 . S
H313 C311 0.951 . S
C314 C312 1.382 . S
C314 C315 1.390 . S
C314 H319 0.949 . S
C315 C314 1.390 . S
C315 C320 1.399 . S
C316 C312 1.404 . S
C316 H317 0.950 . S
C316 C318 1.375 . S
H317 C316 0.950 . S
C318 C316 1.375 . S
C318 C320 1.382 . S
C318 H322 0.950 . S
H319 C314 0.949 . S
C320 C315 1.399 . S
C320 C318 1.382 . S
C320 H321 0.952 . S
H321 C320 0.952 . S
H322 C318 0.950 . S
H323 C324 0.949 . S
C324 H323 0.949 . S
C324 C325 1.395 . S
C324 C326 1.391 . S
C325 C324 1.395 . S
C325 C328 1.390 . S
C326 C324 1.391 . S
C326 C330 1.387 . S
C326 C331 1.491 . S
H327 C328 0.950 . S
C328 C325 1.390 . S
C328 H327 0.950 . S
C328 C329 1.378 . S
C329 C328 1.378 . S
C329 C330 1.409 . S
C330 C326 1.387 . S
C330 C329 1.409 . S
C330 H332 0.951 . S
C331 C326 1.491 . S
C331 C333 1.382 . S
C331 C335 1.404 . S
H332 C330 0.951 . S
C333 C331 1.382 . S
C333 C334 1.390 . S
C333 H338 0.949 . S
C334 C333 1.390 . S
C334 C339 1.399 . S
C335 C331 1.404 . S
C335 H336 0.950 . S
C335 C337 1.375 . S
H336 C335 0.950 . S
C337 C335 1.375 . S
C337 C339 1.382 . S
C337 H341 0.950 . S
H338 C333 0.949 . S
C339 C334 1.399 . S
C339 C337 1.382 . S
C339 H340 0.952 . S
H340 C339 0.952 . S
H341 C337 0.950 . S
Tb342 O345 2.453 . S
Tb342 O346 2.596 1_545 S
Tb342 O347 2.374 1_545 S
Tb342 O355 2.343 1_554 S
Tb342 O357 2.353 . S
Tb342 O359 2.427 . S
Tb342 O360 2.513 . S
C343 O347 1.251 . S
C343 O349 1.263 1_554 S
Tb344 O346 2.343 1_556 S
Tb344 O349 2.353 . S
Tb344 O352 2.427 1_556 S
Tb344 O353 2.513 1_556 S
Tb344 O354 2.453 . S
Tb344 O355 2.596 1_565 S
Tb344 O356 2.374 1_566 S
O345 Tb342 2.453 . S
O345 C361 1.245 1_545 S
O346 Tb342 2.596 1_565 S
O346 Tb344 2.343 1_554 S
O346 C361 1.259 . S
O347 Tb342 2.374 1_565 S
O347 C343 1.251 . S
C348 O352 1.275 . S
C348 O353 1.246 . S
O349 C343 1.263 1_556 S
O349 Tb344 2.353 . S
C350 O354 1.245 1_545 S
C350 O355 1.259 . S
C351 O356 1.250 . S
C351 O357 1.263 . S
O352 Tb344 2.427 1_554 S
O352 C348 1.275 . S
O353 Tb344 2.513 1_554 S
O353 C348 1.246 . S
O354 Tb344 2.453 . S
O354 C350 1.245 1_565 S
O355 Tb342 2.343 1_556 S
O355 Tb344 2.596 1_545 S
O355 C350 1.259 . S
O356 Tb344 2.374 1_544 S
O356 C351 1.250 . S
O357 Tb342 2.353 . S
O357 C351 1.263 . S
C358 O359 1.275 . S
C358 O360 1.246 . S
O359 Tb342 2.427 . S
O359 C358 1.275 . S
O360 Tb342 2.513 . S
O360 C358 1.246 . S
C361 O345 1.245 1_565 S
C361 O346 1.259 . S
Tb362 O365 2.453 . S
Tb362 O366 2.596 1_655 S
Tb362 O367 2.374 1_655 S
Tb362 O375 2.343 1_554 S
Tb362 O377 2.353 . S
Tb362 O379 2.427 . S
Tb362 O380 2.513 1_554 S
C363 O367 1.251 . S
C363 O369 1.263 . S
Tb364 O366 2.343 1_556 S
Tb364 O369 2.353 1_556 S
Tb364 O372 2.427 1_556 S
Tb364 O373 2.513 1_556 S
Tb364 O374 2.453 . S
Tb364 O375 2.596 1_455 S
Tb364 O376 2.374 1_456 S
O365 Tb362 2.453 . S
O365 C381 1.245 1_655 S
O366 Tb362 2.596 1_455 S
O366 Tb364 2.343 1_554 S
O366 C381 1.259 . S
O367 Tb362 2.374 1_455 S
O367 C363 1.251 . S
C368 O372 1.275 . S
C368 O373 1.246 . S
O369 C363 1.263 . S
O369 Tb364 2.353 1_554 S
C370 O374 1.245 1_655 S
C370 O375 1.259 . S
C371 O376 1.250 . S
C371 O377 1.263 . S
O372 Tb364 2.427 1_554 S
O372 C368 1.275 . S
O373 Tb364 2.513 1_554 S
O373 C368 1.246 . S
O374 Tb364 2.453 . S
O374 C370 1.245 1_455 S
O375 Tb362 2.343 1_556 S
O375 Tb364 2.596 1_655 S
O375 C370 1.259 . S
O376 Tb364 2.374 1_654 S
O376 C371 1.250 . S
O377 Tb362 2.353 . S
O377 C371 1.263 . S
C378 O379 1.275 1_556 S
C378 O380 1.246 . S
O379 Tb362 2.427 . S
O379 C378 1.275 1_554 S
O380 Tb362 2.513 1_556 S
O380 C378 1.246 . S
C381 O365 1.245 1_455 S
C381 O366 1.259 . S
Tb382 O385 2.453 1_554 S
Tb382 O386 2.596 1_554 S
Tb382 O387 2.374 . S
Tb382 O395 2.343 . S
Tb382 O397 2.353 . S
Tb382 O399 2.427 . S
Tb382 O400 2.513 . S
C383 O387 1.251 . S
C383 O389 1.263 . S
Tb384 O386 2.343 1_554 S
Tb384 O389 2.353 . S
Tb384 O392 2.427 . S
Tb384 O393 2.513 . S
Tb384 O394 2.453 . S
Tb384 O395 2.596 . S
Tb384 O396 2.374 . S
O385 Tb382 2.453 1_556 S
O385 C401 1.245 . S
O386 Tb382 2.596 1_556 S
O386 Tb384 2.343 1_556 S
O386 C401 1.259 . S
O387 Tb382 2.374 . S
O387 C383 1.251 . S
C388 O392 1.275 . S
C388 O393 1.246 . S
O389 C383 1.263 . S
O389 Tb384 2.353 . S
C390 O394 1.245 . S
C390 O395 1.259 . S
C391 O396 1.250 . S
C391 O397 1.263 . S
O392 Tb384 2.427 . S
O392 C388 1.275 . S
O393 Tb384 2.513 . S
O393 C388 1.246 . S
O394 Tb384 2.453 . S
O394 C390 1.245 . S
O395 Tb382 2.343 . S
O395 Tb384 2.596 . S
O395 C390 1.259 . S
O396 Tb384 2.374 . S
O396 C391 1.250 . S
O397 Tb382 2.353 . S
O397 C391 1.263 . S
C398 O399 1.275 . S
C398 O400 1.246 . S
O399 Tb382 2.427 . S
O399 C398 1.275 . S
O400 Tb382 2.513 . S
O400 C398 1.246 . S
C401 O385 1.245 . S
C401 O386 1.259 . S
Tb402 O405 2.453 . S
Tb402 O406 2.596 . S
Tb402 O407 2.374 . S
Tb402 O415 2.343 . S
Tb402 O417 2.353 . S
Tb402 O419 2.427 . S
Tb402 O420 2.513 . S
C403 O407 1.251 . S
C403 O409 1.263 . S
Tb404 O406 2.343 . S
Tb404 O409 2.353 . S
Tb404 O412 2.427 . S
Tb404 O413 2.513 . S
Tb404 O414 2.453 . S
Tb404 O415 2.596 . S
Tb404 O416 2.374 . S
O405 Tb402 2.453 . S
O405 C421 1.245 . S
O406 Tb402 2.596 . S
O406 Tb404 2.343 . S
O406 C421 1.259 . S
O407 Tb402 2.374 . S
O407 C403 1.251 . S
C408 O412 1.275 . S
C408 O413 1.246 . S
O409 C403 1.263 . S
O409 Tb404 2.353 . S
C410 O414 1.245 . S
C410 O415 1.259 . S
C411 O416 1.250 . S
C411 O417 1.263 . S
O412 Tb404 2.427 . S
O412 C408 1.275 . S
O413 Tb404 2.513 . S
O413 C408 1.246 . S
O414 Tb404 2.453 . S
O414 C410 1.245 . S
O415 Tb402 2.343 . S
O415 Tb404 2.596 . S
O415 C410 1.259 . S
O416 Tb404 2.374 . S
O416 C411 1.250 . S
O417 Tb402 2.353 . S
O417 C411 1.263 . S
C418 O419 1.275 . S
C418 O420 1.246 . S
O419 Tb402 2.427 . S
O419 C418 1.275 . S
O420 Tb402 2.513 . S
O420 C418 1.246 . S
C421 O405 1.245 . S
C421 O406 1.259 . S
Tb422 O425 2.453 . S
Tb422 O426 2.596 . S
Tb422 O427 2.374 . S
Tb422 O435 2.343 . S
Tb422 O437 2.353 . S
Tb422 O439 2.427 . S
Tb422 O440 2.513 . S
C423 O427 1.251 . S
C423 O429 1.263 . S
Tb424 O426 2.343 . S
Tb424 O429 2.353 . S
Tb424 O432 2.427 . S
Tb424 O433 2.513 . S
Tb424 O434 2.453 . S
Tb424 O435 2.596 . S
Tb424 O436 2.374 . S
O425 Tb422 2.453 . S
O425 C441 1.245 . S
O426 Tb422 2.596 . S
O426 Tb424 2.343 . S
O426 C441 1.259 . S
O427 Tb422 2.374 . S
O427 C423 1.251 . S
C428 O432 1.275 . S
C428 O433 1.246 . S
O429 C423 1.263 . S
O429 Tb424 2.353 . S
C430 O434 1.245 . S
C430 O435 1.259 . S
C431 O436 1.250 . S
C431 O437 1.263 . S
O432 Tb424 2.427 . S
O432 C428 1.275 . S
O433 Tb424 2.513 . S
O433 C428 1.246 . S
O434 Tb424 2.453 . S
O434 C430 1.245 . S
O435 Tb422 2.343 . S
O435 Tb424 2.596 . S
O435 C430 1.259 . S
O436 Tb424 2.374 . S
O436 C431 1.250 . S
O437 Tb422 2.353 . S
O437 C431 1.263 . S
C438 O439 1.275 . S
C438 O440 1.246 . S
O439 Tb422 2.427 . S
O439 C438 1.275 . S
O440 Tb422 2.513 . S
O440 C438 1.246 . S
C441 O425 1.245 . S
C441 O426 1.259 . S
Tb442 O445 2.453 . S
Tb442 O446 2.596 . S
Tb442 O447 2.374 . S
Tb442 O455 2.343 . S
Tb442 O457 2.353 . S
Tb442 O459 2.427 . S
Tb442 O460 2.513 . S
C443 O447 1.251 . S
C443 O449 1.263 . S
Tb444 O446 2.343 . S
Tb444 O449 2.353 . S
Tb444 O452 2.427 . S
Tb444 O453 2.513 . S
Tb444 O454 2.453 . S
Tb444 O455 2.596 . S
Tb444 O456 2.374 . S
O445 Tb442 2.453 . S
O445 C461 1.245 . S
O446 Tb442 2.596 . S
O446 Tb444 2.343 . S
O446 C461 1.259 . S
O447 Tb442 2.374 . S
O447 C443 1.251 . S
C448 O452 1.275 . S
C448 O453 1.246 . S
O449 C443 1.263 . S
O449 Tb444 2.353 . S
C450 O454 1.245 . S
C450 O455 1.259 . S
C451 O456 1.250 . S
C451 O457 1.263 . S
O452 Tb444 2.427 . S
O452 C448 1.275 . S
O453 Tb444 2.513 . S
O453 C448 1.246 . S
O454 Tb444 2.453 . S
O454 C450 1.245 . S
O455 Tb442 2.343 . S
O455 Tb444 2.596 . S
O455 C450 1.259 . S
O456 Tb444 2.374 . S
O456 C451 1.250 . S
O457 Tb442 2.353 . S
O457 C451 1.263 . S
C458 O459 1.275 . S
C458 O460 1.246 . S
O459 Tb442 2.427 . S
O459 C458 1.275 . S
O460 Tb442 2.513 . S
O460 C458 1.246 . S
C461 O445 1.245 . S
C461 O446 1.259 . S
Tb462 O465 2.453 . S
Tb462 O466 2.596 . S
Tb462 O467 2.374 . S
Tb462 O475 2.343 . S
Tb462 O477 2.353 . S
Tb462 O479 2.427 . S
Tb462 O480 2.513 . S
C463 O467 1.251 . S
C463 O469 1.263 . S
Tb464 O466 2.343 . S
Tb464 O469 2.353 . S
Tb464 O472 2.427 . S
Tb464 O473 2.513 . S
Tb464 O474 2.453 . S
Tb464 O475 2.596 . S
Tb464 O476 2.374 . S
O465 Tb462 2.453 . S
O465 C481 1.245 . S
O466 Tb462 2.596 . S
O466 Tb464 2.343 . S
O466 C481 1.259 . S
O467 Tb462 2.374 . S
O467 C463 1.251 . S
C468 O472 1.275 . S
C468 O473 1.246 . S
O469 C463 1.263 . S
O469 Tb464 2.353 . S
C470 O474 1.245 . S
C470 O475 1.259 . S
C471 O476 1.250 . S
C471 O477 1.263 . S
O472 Tb464 2.427 . S
O472 C468 1.275 . S
O473 Tb464 2.513 . S
O473 C468 1.246 . S
O474 Tb464 2.453 . S
O474 C470 1.245 . S
O475 Tb462 2.343 . S
O475 Tb464 2.596 . S
O475 C470 1.259 . S
O476 Tb464 2.374 . S
O476 C471 1.250 . S
O477 Tb462 2.353 . S
O477 C471 1.263 . S
C478 O479 1.275 . S
C478 O480 1.246 . S
O479 Tb462 2.427 . S
O479 C478 1.275 . S
O480 Tb462 2.513 . S
O480 C478 1.246 . S
C481 O465 1.245 . S
C481 O466 1.259 . S
Tb482 O485 2.453 . S
Tb482 O486 2.596 . S
Tb482 O487 2.374 . S
Tb482 O495 2.343 . S
Tb482 O497 2.353 . S
Tb482 O499 2.427 . S
Tb482 O500 2.513 . S
C483 O487 1.251 . S
C483 O489 1.263 . S
Tb484 O486 2.343 . S
Tb484 O489 2.353 . S
Tb484 O492 2.427 . S
Tb484 O493 2.513 . S
Tb484 O494 2.453 . S
Tb484 O495 2.596 . S
Tb484 O496 2.374 . S
O485 Tb482 2.453 . S
O485 C501 1.245 . S
O486 Tb482 2.596 . S
O486 Tb484 2.343 . S
O486 C501 1.259 . S
O487 Tb482 2.374 . S
O487 C483 1.251 . S
C488 O492 1.275 . S
C488 O493 1.246 . S
O489 C483 1.263 . S
O489 Tb484 2.353 . S
C490 O494 1.245 . S
C490 O495 1.259 . S
C491 O496 1.250 . S
C491 O497 1.263 . S
O492 Tb484 2.427 . S
O492 C488 1.275 . S
O493 Tb484 2.513 . S
O493 C488 1.246 . S
O494 Tb484 2.453 . S
O494 C490 1.245 . S
O495 Tb482 2.343 . S
O495 Tb484 2.596 . S
O495 C490 1.259 . S
O496 Tb484 2.374 . S
O496 C491 1.250 . S
O497 Tb482 2.353 . S
O497 C491 1.263 . S
C498 O499 1.275 . S
C498 O500 1.246 . S
O499 Tb482 2.427 . S
O499 C498 1.275 . S
O500 Tb482 2.513 . S
O500 C498 1.246 . S
C501 O485 1.245 . S
C501 O486 1.259 . S
Tb502 O505 2.453 . S
Tb502 O506 2.596 . S
Tb502 O507 2.374 . S
Tb502 O515 2.343 . S
Tb502 O517 2.353 . S
Tb502 O519 2.427 . S
Tb502 O520 2.513 . S
C503 O507 1.251 . S
C503 O509 1.263 . S
Tb504 O506 2.343 . S
Tb504 O509 2.353 . S
Tb504 O512 2.427 . S
Tb504 O513 2.513 . S
Tb504 O514 2.453 . S
Tb504 O515 2.596 . S
Tb504 O516 2.374 . S
O505 Tb502 2.453 . S
O505 C521 1.245 . S
O506 Tb502 2.596 . S
O506 Tb504 2.343 . S
O506 C521 1.259 . S
O507 Tb502 2.374 . S
O507 C503 1.251 . S
C508 O512 1.275 . S
C508 O513 1.246 . S
O509 C503 1.263 . S
O509 Tb504 2.353 . S
C510 O514 1.245 . S
C510 O515 1.259 . S
C511 O516 1.250 . S
C511 O517 1.263 . S
O512 Tb504 2.427 . S
O512 C508 1.275 . S
O513 Tb504 2.513 . S
O513 C508 1.246 . S
O514 Tb504 2.453 . S
O514 C510 1.245 . S
O515 Tb502 2.343 . S
O515 Tb504 2.596 . S
O515 C510 1.259 . S
O516 Tb504 2.374 . S
O516 C511 1.250 . S
O517 Tb502 2.353 . S
O517 C511 1.263 . S
C518 O519 1.275 . S
C518 O520 1.246 . S
O519 Tb502 2.427 . S
O519 C518 1.275 . S
O520 Tb502 2.513 . S
O520 C518 1.246 . S
C521 O505 1.245 . S
C521 O506 1.259 . S
C522 C523 1.349 . S
C522 C524 1.327 . S
C522 H547 0.950 . S
C523 C522 1.349 . S
C523 C539 1.349 . S
C524 C522 1.327 . S
C524 C543 1.429 . S
C524 H548 0.950 . S
C525 C542 1.574 . S
C525 C544 1.368 . S
C525 H549 0.949 . S
H526 C530 0.949 . S
C527 C528 1.349 . S
C527 C529 1.327 . S
C527 H550 0.950 . S
C528 C527 1.349 . S
C528 C540 1.349 . S
C529 C527 1.327 . S
C529 C545 1.429 . S
C529 H551 0.950 . S
C530 H526 0.949 . S
C530 C538 1.574 . S
C530 C546 1.368 . S
H531 C539 0.950 . S
H532 C537 0.950 . S
H533 C538 0.949 . S
H534 C540 0.950 . S
H535 C541 0.950 . S
H536 C542 0.949 . S
C537 H532 0.950 . S
C537 C539 1.327 . S
C537 C543 1.429 . S
C538 C530 1.574 . S
C538 H533 0.949 . S
C538 C544 1.368 . S
C539 C523 1.349 . S
C539 H531 0.950 . S
C539 C537 1.327 . S
C540 C528 1.349 . S
C540 H534 0.950 . S
C540 C541 1.327 . S
C541 H535 0.950 . S
C541 C540 1.327 . S
C541 C545 1.429 . S
C542 C525 1.574 . S
C542 H536 0.949 . S
C542 C546 1.368 . S
C543 C524 1.429 . S
C543 C537 1.429 . S
C543 C544 1.523 . S
C544 C525 1.368 . S
C544 C538 1.368 . S
C544 C543 1.523 . S
C545 C529 1.429 . S
C545 C541 1.429 . S
C545 C546 1.523 . S
C546 C530 1.368 . S
C546 C542 1.368 . S
C546 C545 1.523 . S
H547 C522 0.950 . S
H548 C524 0.950 . S
H549 C525 0.949 . S
H550 C527 0.950 . S
H551 C529 0.950 . S
C552 C553 1.349 . S
C552 C554 1.327 . S
C552 H577 0.950 . S
C553 C552 1.349 . S
C553 C569 1.349 . S
C554 C552 1.327 . S
C554 C573 1.429 . S
C554 H578 0.950 . S
C555 C572 1.574 . S
C555 C574 1.368 . S
C555 H579 0.949 . S
H556 C560 0.949 . S
C557 C558 1.349 . S
C557 C559 1.327 . S
C557 H580 0.950 . S
C558 C557 1.349 . S
C558 C570 1.349 . S
C559 C557 1.327 . S
C559 C575 1.429 . S
C559 H581 0.950 . S
C560 H556 0.949 . S
C560 C568 1.574 . S
C560 C576 1.368 . S
H561 C569 0.950 . S
H562 C567 0.950 . S
H563 C568 0.949 . S
H564 C570 0.950 . S
H565 C571 0.950 . S
H566 C572 0.949 . S
C567 H562 0.950 . S
C567 C569 1.327 . S
C567 C573 1.429 . S
C568 C560 1.574 . S
C568 H563 0.949 . S
C568 C574 1.368 . S
C569 C553 1.349 . S
C569 H561 0.950 . S
C569 C567 1.327 . S
C570 C558 1.349 . S
C570 H564 0.950 . S
C570 C571 1.327 . S
C571 H565 0.950 . S
C571 C570 1.327 . S
C571 C575 1.429 . S
C572 C555 1.574 . S
C572 H566 0.949 . S
C572 C576 1.368 . S
C573 C554 1.429 . S
C573 C567 1.429 . S
C573 C574 1.523 . S
C574 C555 1.368 . S
C574 C568 1.368 . S
C574 C573 1.523 . S
C575 C559 1.429 . S
C575 C571 1.429 . S
C575 C576 1.523 . S
C576 C560 1.368 . S
C576 C572 1.368 . S
C576 C575 1.523 . S
H577 C552 0.950 . S
H578 C554 0.950 . S
H579 C555 0.949 . S
H580 C557 0.950 . S
H581 C559 0.950 . S
C582 C583 1.349 . S
C582 C584 1.327 . S
C582 H607 0.950 . S
C583 C582 1.349 . S
C583 C599 1.349 . S
C584 C582 1.327 . S
C584 C603 1.429 . S
C584 H608 0.950 . S
C585 C602 1.574 . S
C585 C604 1.368 . S
C585 H609 0.949 . S
H586 C590 0.949 . S
C587 C588 1.349 . S
C587 C589 1.327 . S
C587 H610 0.950 1_554 S
C588 C587 1.349 . S
C588 C600 1.349 . S
C589 C587 1.327 . S
C589 C605 1.429 . S
C589 H611 0.985 . S
C590 H586 0.949 . S
C590 C598 1.574 . S
C590 C606 1.368 . S
H591 C599 0.950 . S
H592 C597 0.950 . S
H593 C598 0.949 . S
H594 C600 0.950 . S
H595 C601 0.950 . S
H596 C602 0.949 . S
C597 H592 0.950 . S
C597 C599 1.327 . S
C597 C603 1.429 . S
C598 C590 1.574 . S
C598 H593 0.949 . S
C598 C604 1.368 . S
C599 C583 1.349 . S
C599 H591 0.950 . S
C599 C597 1.327 . S
C600 C588 1.349 . S
C600 H594 0.950 . S
C600 C601 1.327 . S
C601 H595 0.950 . S
C601 C600 1.327 . S
C601 C605 1.429 . S
C602 C585 1.574 . S
C602 H596 0.949 . S
C602 C606 1.368 . S
C603 C584 1.429 . S
C603 C597 1.429 . S
C603 C604 1.523 . S
C604 C585 1.368 . S
C604 C598 1.368 . S
C604 C603 1.523 . S
C605 C589 1.429 . S
C605 C601 1.429 . S
C605 C606 1.523 . S
C606 C590 1.368 . S
C606 C602 1.368 . S
C606 C605 1.523 . S
H607 C582 0.950 . S
H608 C584 0.950 . S
H609 C585 0.949 . S
H610 C587 0.950 1_556 S
H611 C589 0.985 . S
C612 C613 1.349 . S
C612 C614 1.327 . S
C612 H637 0.950 . S
C613 C612 1.349 . S
C613 C629 1.349 . S
C614 C612 1.327 . S
C614 C633 1.429 . S
C614 H638 0.953 . S
C615 C632 1.574 . S
C615 C634 1.368 . S
C615 H639 0.949 . S
H616 C620 0.949 . S
C617 C618 1.345 . S
C617 C619 1.327 . S
C617 H640 0.950 . S
C618 C617 1.345 . S
C618 C630 1.353 1_556 S
C619 C617 1.327 . S
C619 C635 1.429 . S
C619 H641 0.950 . S
C620 H616 0.949 . S
C620 C628 1.574 1_554 S
C620 C636 1.368 1_554 S
H621 C629 0.950 . S
H622 C627 0.950 . S
H623 C628 0.949 1_554 S
H624 C630 0.950 . S
H625 C631 0.950 . S
H626 C632 0.949 . S
C627 H622 0.950 . S
C627 C629 1.327 . S
C627 C633 1.429 . S
C628 C620 1.574 1_556 S
C628 H623 0.949 1_556 S
C628 C634 1.368 . S
C629 C613 1.349 . S
C629 H621 0.950 . S
C629 C627 1.327 . S
C630 C618 1.353 1_554 S
C630 H624 0.950 . S
C630 C631 1.327 . S
C631 H625 0.950 . S
C631 C630 1.327 . S
C631 C635 1.429 1_554 S
C632 C615 1.574 . S
C632 H626 0.949 . S
C632 C636 1.368 . S
C633 C614 1.429 . S
C633 C627 1.429 . S
C633 C634 1.523 . S
C634 C615 1.368 . S
C634 C628 1.368 . S
C634 C633 1.523 . S
C635 C619 1.429 . S
C635 C631 1.429 1_556 S
C635 C636 1.523 . S
C636 C620 1.368 1_556 S
C636 C632 1.368 . S
C636 C635 1.523 . S
H637 C612 0.950 . S
H638 C614 0.953 . S
H639 C615 0.949 . S
H640 C617 0.950 . S
H641 C619 0.950 . S
C642 C643 1.349 . S
C642 C644 1.327 . S
C642 H667 0.950 . S
C643 C642 1.349 . S
C643 C659 1.349 . S
C644 C642 1.327 . S
C644 C663 1.429 . S
C644 H668 0.950 . S
C645 C662 1.574 . S
C645 C664 1.368 . S
C645 H669 0.949 . S
H646 C650 0.949 . S
C647 C648 1.349 . S
C647 C649 1.327 . S
C647 H670 0.950 1_556 S
C648 C647 1.349 . S
C648 C660 1.349 . S
C649 C647 1.327 . S
C649 C665 1.429 . S
C649 H671 0.950 . S
C650 H646 0.949 . S
C650 C658 1.574 . S
C650 C666 1.368 . S
H651 C659 0.950 . S
H652 C657 0.950 . S
H653 C658 0.949 . S
H654 C660 0.950 . S
H655 C661 0.950 . S
H656 C662 0.949 . S
C657 H652 0.950 . S
C657 C659 1.327 . S
C657 C663 1.429 . S
C658 C650 1.574 . S
C658 H653 0.949 . S
C658 C664 1.368 . S
C659 C643 1.349 . S
C659 H651 0.950 . S
C659 C657 1.327 . S
C660 C648 1.349 . S
C660 H654 0.950 . S
C660 C661 1.327 . S
C661 H655 0.950 . S
C661 C660 1.327 . S
C661 C665 1.429 . S
C662 C645 1.574 . S
C662 H656 0.949 . S
C662 C666 1.368 . S
C663 C644 1.429 . S
C663 C657 1.429 . S
C663 C664 1.523 . S
C664 C645 1.368 . S
C664 C658 1.368 . S
C664 C663 1.523 . S
C665 C649 1.429 . S
C665 C661 1.429 . S
C665 C666 1.523 . S
C666 C650 1.368 . S
C666 C662 1.368 . S
C666 C665 1.523 . S
H667 C642 0.950 . S
H668 C644 0.950 . S
H669 C645 0.949 . S
H670 C647 0.950 1_554 S
H671 C649 0.950 . S
C672 C673 1.344 . S
C672 C674 1.328 1_556 S
C672 H697 0.954 1_556 S
C673 C672 1.344 . S
C673 C689 1.349 . S
C674 C672 1.328 1_554 S
C674 C693 1.429 1_554 S
C674 H698 0.950 . S
C675 C692 1.574 . S
C675 C694 1.368 . S
C675 H699 0.949 . S
H676 C680 0.949 . S
C677 C678 1.349 1_556 S
C677 C679 1.327 . S
C677 H700 0.950 . S
C678 C677 1.349 1_554 S
C678 C690 1.349 . S
C679 C677 1.327 . S
C679 C695 1.417 1_556 S
C679 H701 0.950 . S
C680 H676 0.949 . S
C680 C688 1.574 . S
C680 C696 1.368 1_554 S
H681 C689 0.950 . S
H682 C687 0.950 . S
H683 C688 0.949 . S
H684 C690 0.950 . S
H685 C691 0.950 . S
H686 C692 0.949 . S
C687 H682 0.950 . S
C687 C689 1.327 . S
C687 C693 1.429 . S
C688 C680 1.574 . S
C688 H683 0.949 . S
C688 C694 1.368 1_554 S
C689 C673 1.349 . S
C689 H681 0.950 . S
C689 C687 1.327 . S
C690 C678 1.349 . S
C690 H684 0.950 . S
C690 C691 1.327 . S
C691 H685 0.950 . S
C691 C690 1.327 . S
C691 C695 1.443 . S
C692 C675 1.574 . S
C692 H686 0.949 . S
C692 C696 1.368 . S
C693 C674 1.429 1_556 S
C693 C687 1.429 . S
C693 C694 1.523 . S
C694 C675 1.368 . S
C694 C688 1.368 1_556 S
C694 C693 1.523 . S
C695 C679 1.417 1_554 S
C695 C691 1.443 . S
C695 C696 1.520 1_554 S
C696 C680 1.368 1_556 S
C696 C692 1.368 . S
C696 C695 1.520 1_556 S
H697 C672 0.954 1_554 S
H698 C674 0.950 . S
H699 C675 0.949 . S
H700 C677 0.950 . S
H701 C679 0.950 . S
C702 C703 1.349 . S
C702 C704 1.327 . S
C702 H727 0.950 . S
C703 C702 1.349 . S
C703 C719 1.349 . S
C704 C702 1.327 . S
C704 C723 1.429 . S
C704 H728 0.950 . S
C705 C722 1.574 . S
C705 C724 1.368 . S
C705 H729 0.947 1_556 S
H706 C710 0.949 . S
C707 C708 1.349 1_554 S
C707 C709 1.327 . S
C707 H730 0.950 . S
C708 C707 1.349 1_556 S
C708 C720 1.349 . S
C709 C707 1.327 . S
C709 C725 1.429 1_554 S
C709 H731 0.950 . S
C710 H706 0.949 . S
C710 C718 1.574 . S
C710 C726 1.368 . S
H711 C719 0.950 . S
H712 C717 0.950 . S
H713 C718 0.949 . S
H714 C720 0.950 . S
H715 C721 0.950 . S
H716 C722 0.949 1_554 S
C717 H712 0.950 . S
C717 C719 1.327 . S
C717 C723 1.429 . S
C718 C710 1.574 . S
C718 H713 0.949 . S
C718 C724 1.368 . S
C719 C703 1.349 . S
C719 H711 0.950 . S
C719 C717 1.327 . S
C720 C708 1.349 . S
C720 H714 0.950 . S
C720 C721 1.327 . S
C721 H715 0.950 . S
C721 C720 1.327 . S
C721 C725 1.429 . S
C722 C705 1.574 . S
C722 H716 0.949 1_556 S
C722 C726 1.368 . S
C723 C704 1.429 . S
C723 C717 1.429 . S
C723 C724 1.523 . S
C724 C705 1.368 . S
C724 C718 1.368 . S
C724 C723 1.523 . S
C725 C709 1.429 1_556 S
C725 C721 1.429 . S
C725 C726 1.523 . S
C726 C710 1.368 . S
C726 C722 1.368 . S
C726 C725 1.523 . S
H727 C702 0.950 . S
H728 C704 0.950 . S
H729 C705 0.947 1_554 S
H730 C707 0.950 . S
H731 C709 0.950 . S
C732 C733 1.349 . S
C732 C734 1.327 . S
C732 H757 0.950 . S
C733 C732 1.349 . S
C733 C749 1.349 . S
C734 C732 1.327 . S
C734 C753 1.429 . S
C734 H758 0.950 . S
C735 C752 1.574 . S
C735 C754 1.368 . S
C735 H759 0.949 . S
H736 C740 0.949 1_554 S
C737 C738 1.349 . S
C737 C739 1.327 . S
C737 H760 0.950 . S
C738 C737 1.349 . S
C738 C750 1.328 1_556 S
C739 C737 1.327 . S
C739 C755 1.429 . S
C739 H761 0.950 . S
C740 H736 0.949 1_556 S
C740 C748 1.574 . S
C740 C756 1.368 . S
H741 C749 0.950 . S
H742 C747 0.950 . S
H743 C748 0.949 . S
H744 C750 0.974 . S
H745 C751 0.950 1_554 S
H746 C752 0.949 . S
C747 H742 0.950 . S
C747 C749 1.327 . S
C747 C753 1.429 . S
C748 C740 1.574 . S
C748 H743 0.949 . S
C748 C754 1.368 . S
C749 C733 1.349 . S
C749 H741 0.950 . S
C749 C747 1.327 . S
C750 C738 1.328 1_554 S
C750 H744 0.974 . S
C750 C751 1.324 1_554 S
C751 H745 0.950 1_556 S
C751 C750 1.324 1_556 S
C751 C755 1.429 . S
C752 C735 1.574 . S
C752 H746 0.949 . S
C752 C756 1.368 . S
C753 C734 1.429 . S
C753 C747 1.429 . S
C753 C754 1.523 . S
C754 C735 1.368 . S
C754 C748 1.368 . S
C754 C753 1.523 . S
C755 C739 1.429 . S
C755 C751 1.429 . S
C755 C756 1.523 . S
C756 C740 1.368 . S
C756 C752 1.368 . S
C756 C755 1.523 . S
H757 C732 0.950 . S
H758 C734 0.950 . S
H759 C735 0.949 . S
H760 C737 0.950 . S
H761 C739 0.950 . S
C762 C763 1.376 . S
C762 C764 1.327 . S
C762 H787 0.950 . S
C763 C762 1.376 . S
C763 C779 1.323 1_556 S
C764 C762 1.327 . S
C764 C783 1.429 1_556 S
C764 H788 0.950 . S
C765 C782 1.574 . S
C765 C784 1.368 . S
C765 H789 0.949 . S
H766 C770 0.949 . S
C767 C768 1.349 . S
C767 C769 1.327 . S
C767 H790 0.950 . S
C768 C767 1.349 . S
C768 C780 1.349 1_554 S
C769 C767 1.327 . S
C769 C785 1.429 . S
C769 H791 0.950 . S
C770 H766 0.949 . S
C770 C778 1.574 . S
C770 C786 1.368 1_556 S
H771 C779 0.950 . S
H772 C777 0.950 . S
H773 C778 0.949 . S
H774 C780 0.950 . S
H775 C781 0.950 . S
H776 C782 0.949 . S
C777 H772 0.950 . S
C777 C779 1.327 . S
C777 C783 1.429 . S
C778 C770 1.574 . S
C778 H773 0.949 . S
C778 C784 1.368 1_556 S
C779 C763 1.323 1_554 S
C779 H771 0.950 . S
C779 C777 1.327 . S
C780 C768 1.349 1_556 S
C780 H774 0.950 . S
C780 C781 1.327 . S
C781 H775 0.950 . S
C781 C780 1.327 . S
C781 C785 1.429 1_556 S
C782 C765 1.574 . S
C782 H776 0.949 . S
C782 C786 1.368 . S
C783 C764 1.429 1_554 S
C783 C777 1.429 . S
C783 C784 1.523 . S
C784 C765 1.368 . S
C784 C778 1.368 1_554 S
C784 C783 1.523 . S
C785 C769 1.429 . S
C785 C781 1.429 1_554 S
C785 C786 1.523 . S
C786 C770 1.368 1_554 S
C786 C782 1.368 . S
C786 C785 1.523 . S
H787 C762 0.950 . S
H788 C764 0.950 . S
H789 C765 0.949 . S
H790 C767 0.950 . S
H791 C769 0.950 . S
C792 C793 1.349 . S
C792 C794 1.327 . S
C792 H817 0.950 . S
C793 C792 1.349 . S
C793 C809 1.349 . S
C794 C792 1.327 . S
C794 C813 1.429 . S
C794 H818 0.950 . S
C795 C812 1.574 . S
C795 C814 1.368 . S
C795 H819 0.949 . S
H796 C800 0.931 1_556 S
C797 C798 1.349 . S
C797 C799 1.327 . S
C797 H820 0.950 . S
C798 C797 1.349 . S
C798 C810 1.349 . S
C799 C797 1.327 . S
C799 C815 1.429 . S
C799 H821 0.950 . S
C800 H796 0.931 1_554 S
C800 C808 1.574 . S
C800 C816 1.368 . S
H801 C809 0.950 . S
H802 C807 0.950 . S
H803 C808 0.949 . S
H804 C810 0.950 1_556 S
H805 C811 0.950 1_556 S
H806 C812 0.949 . S
C807 H802 0.950 . S
C807 C809 1.327 . S
C807 C813 1.429 . S
C808 C800 1.574 . S
C808 H803 0.949 . S
C808 C814 1.368 . S
C809 C793 1.349 . S
C809 H801 0.950 . S
C809 C807 1.327 . S
C810 C798 1.349 . S
C810 H804 0.950 1_554 S
C810 C811 1.327 . S
C811 H805 0.950 1_554 S
C811 C810 1.327 . S
C811 C815 1.429 . S
C812 C795 1.574 . S
C812 H806 0.949 . S
C812 C816 1.368 . S
C813 C794 1.429 . S
C813 C807 1.429 . S
C813 C814 1.523 . S
C814 C795 1.368 . S
C814 C808 1.368 . S
C814 C813 1.523 . S
C815 C799 1.429 . S
C815 C811 1.429 . S
C815 C816 1.523 . S
C816 C800 1.368 . S
C816 C812 1.368 . S
C816 C815 1.523 . S
H817 C792 0.950 . S
H818 C794 0.950 . S
H819 C795 0.949 . S
H820 C797 0.950 . S
H821 C799 0.950 . S
C822 C823 1.349 . S
C822 C824 1.327 . S
C822 H847 0.950 . S
C823 C822 1.349 . S
C823 C839 1.349 . S
C824 C822 1.327 . S
C824 C843 1.429 . S
C824 H848 0.950 . S
C825 C842 1.574 . S
C825 C844 1.368 . S
C825 H849 0.949 . S
H826 C830 0.949 . S
C827 C828 1.349 . S
C827 C829 1.327 . S
C827 H850 0.950 . S
C828 C827 1.349 . S
C828 C840 1.349 . S
C829 C827 1.327 . S
C829 C845 1.429 . S
C829 H851 0.950 . S
C830 H826 0.949 . S
C830 C838 1.574 . S
C830 C846 1.368 . S
H831 C839 0.950 . S
H832 C837 0.950 . S
H833 C838 0.949 . S
H834 C840 0.950 . S
H835 C841 0.950 . S
H836 C842 0.949 . S
C837 H832 0.950 . S
C837 C839 1.327 . S
C837 C843 1.429 . S
C838 C830 1.574 . S
C838 H833 0.949 . S
C838 C844 1.368 . S
C839 C823 1.349 . S
C839 H831 0.950 . S
C839 C837 1.327 . S
C840 C828 1.349 . S
C840 H834 0.950 . S
C840 C841 1.327 . S
C841 H835 0.950 . S
C841 C840 1.327 . S
C841 C845 1.429 . S
C842 C825 1.574 . S
C842 H836 0.949 . S
C842 C846 1.368 . S
C843 C824 1.429 . S
C843 C837 1.429 . S
C843 C844 1.523 . S
C844 C825 1.368 . S
C844 C838 1.368 . S
C844 C843 1.523 . S
C845 C829 1.429 . S
C845 C841 1.429 . S
C845 C846 1.523 . S
C846 C830 1.368 . S
C846 C842 1.368 . S
C846 C845 1.523 . S
H847 C822 0.950 . S
H848 C824 0.950 . S
H849 C825 0.949 . S
H850 C827 0.950 . S
H851 C829 0.950 . S
C852 C853 1.349 . S
C852 C854 1.327 . S
C852 H877 0.950 . S
C853 C852 1.349 . S
C853 C869 1.349 . S
C854 C852 1.327 . S
C854 C873 1.429 . S
C854 H878 0.950 . S
C855 C872 1.574 . S
C855 C874 1.368 . S
C855 H879 0.949 . S
H856 C860 0.949 1_556 S
C857 C858 1.349 . S
C857 C859 1.327 . S
C857 H880 0.950 . S
C858 C857 1.349 . S
C858 C870 1.349 . S
C859 C857 1.327 . S
C859 C875 1.429 . S
C859 H881 0.950 . S
C860 H856 0.949 1_554 S
C860 C868 1.574 . S
C860 C876 1.368 . S
H861 C869 0.950 . S
H862 C867 0.950 . S
H863 C868 0.956 . S
H864 C870 0.950 1_556 S
H865 C871 0.950 1_556 S
H866 C872 0.949 . S
C867 H862 0.950 . S
C867 C869 1.327 . S
C867 C873 1.429 . S
C868 C860 1.574 . S
C868 H863 0.956 . S
C868 C874 1.368 . S
C869 C853 1.349 . S
C869 H861 0.950 . S
C869 C867 1.327 . S
C870 C858 1.349 . S
C870 H864 0.950 1_554 S
C870 C871 1.327 . S
C871 H865 0.950 1_554 S
C871 C870 1.327 . S
C871 C875 1.429 . S
C872 C855 1.574 . S
C872 H866 0.949 . S
C872 C876 1.368 . S
C873 C854 1.429 . S
C873 C867 1.429 . S
C873 C874 1.523 . S
C874 C855 1.368 . S
C874 C868 1.368 . S
C874 C873 1.523 . S
C875 C859 1.429 . S
C875 C871 1.429 . S
C875 C876 1.523 . S
C876 C860 1.368 . S
C876 C872 1.368 . S
C876 C875 1.523 . S
H877 C852 0.950 . S
H878 C854 0.950 . S
H879 C855 0.949 . S
H880 C857 0.950 . S
H881 C859 0.950 . S
C882 C883 1.349 . S
C882 C884 1.327 . S
C882 H907 0.950 . S
C883 C882 1.349 . S
C883 C899 1.349 . S
C884 C882 1.327 . S
C884 C903 1.429 . S
C884 H908 0.950 . S
C885 C902 1.574 1_655 S
C885 C904 1.368 . S
C885 H909 0.949 . S
H886 C890 0.949 . S
C887 C888 1.349 . S
C887 C889 1.327 . S
C887 H910 0.950 . S
C888 C887 1.349 . S
C888 C900 1.349 . S
C889 C887 1.327 . S
C889 C905 1.429 . S
C889 H911 0.950 . S
C890 H886 0.949 . S
C890 C898 1.574 . S
C890 C906 1.368 1_655 S
H891 C899 0.950 . S
H892 C897 0.950 . S
H893 C898 0.949 . S
H894 C900 0.950 . S
H895 C901 0.950 . S
H896 C902 0.949 . S
C897 H892 0.950 . S
C897 C899 1.327 . S
C897 C903 1.429 . S
C898 C890 1.574 . S
C898 H893 0.949 . S
C898 C904 1.368 . S
C899 C883 1.349 . S
C899 H891 0.950 . S
C899 C897 1.327 . S
C900 C888 1.349 . S
C900 H894 0.950 . S
C900 C901 1.327 . S
C901 H895 0.950 . S
C901 C900 1.327 . S
C901 C905 1.429 . S
C902 C885 1.574 1_455 S
C902 H896 0.949 . S
C902 C906 1.368 . S
C903 C884 1.429 . S
C903 C897 1.429 . S
C903 C904 1.523 . S
C904 C885 1.368 . S
C904 C898 1.368 . S
C904 C903 1.523 . S
C905 C889 1.429 . S
C905 C901 1.429 . S
C905 C906 1.523 . S
C906 C890 1.368 1_455 S
C906 C902 1.368 . S
C906 C905 1.523 . S
H907 C882 0.950 . S
H908 C884 0.950 . S
H909 C885 0.949 . S
H910 C887 0.950 . S
H911 C889 0.950 . S
C912 C913 1.349 . S
C912 C914 1.327 . S
C912 H937 0.950 . S
C913 C912 1.349 . S
C913 C929 1.349 . S
C914 C912 1.327 . S
C914 C933 1.429 . S
C914 H938 0.950 . S
C915 C932 1.574 . S
C915 C934 1.368 . S
C915 H939 0.949 . S
H916 C920 0.949 . S
C917 C918 1.349 . S
C917 C919 1.327 . S
C917 H940 0.950 . S
C918 C917 1.349 . S
C918 C930 1.349 . S
C919 C917 1.327 . S
C919 C935 1.429 . S
C919 H941 0.950 . S
C920 H916 0.949 . S
C920 C928 1.574 . S
C920 C936 1.368 . S
H921 C929 0.950 . S
H922 C927 0.950 . S
H923 C928 0.949 . S
H924 C930 0.950 . S
H925 C931 0.950 . S
H926 C932 0.949 . S
C927 H922 0.950 . S
C927 C929 1.327 . S
C927 C933 1.429 . S
C928 C920 1.574 . S
C928 H923 0.949 . S
C928 C934 1.368 . S
C929 C913 1.349 . S
C929 H921 0.950 . S
C929 C927 1.327 . S
C930 C918 1.349 . S
C930 H924 0.950 . S
C930 C931 1.327 . S
C931 H925 0.950 . S
C931 C930 1.327 . S
C931 C935 1.429 . S
C932 C915 1.574 . S
C932 H926 0.949 . S
C932 C936 1.368 . S
C933 C914 1.429 . S
C933 C927 1.429 . S
C933 C934 1.523 . S
C934 C915 1.368 . S
C934 C928 1.368 . S
C934 C933 1.523 . S
C935 C919 1.429 . S
C935 C931 1.429 . S
C935 C936 1.523 . S
C936 C920 1.368 . S
C936 C932 1.368 . S
C936 C935 1.523 . S
H937 C912 0.950 . S
H938 C914 0.950 . S
H939 C915 0.949 . S
H940 C917 0.950 . S
H941 C919 0.950 . S
C942 C943 1.349 . S
C942 C944 1.327 . S
C942 H967 0.950 . S
C943 C942 1.349 . S
C943 C959 1.349 . S
C944 C942 1.327 . S
C944 C963 1.429 . S
C944 H968 0.950 . S
C945 C962 1.574 1_545 S
C945 C964 1.368 . S
C945 H969 0.949 . S
H946 C950 0.949 . S
C947 C948 1.349 . S
C947 C949 1.327 . S
C947 H970 0.950 . S
C948 C947 1.349 . S
C948 C960 1.349 . S
C949 C947 1.327 . S
C949 C965 1.429 . S
C949 H971 0.950 . S
C950 H946 0.949 . S
C950 C958 1.574 1_565 S
C950 C966 1.368 . S
H951 C959 0.950 . S
H952 C957 0.950 . S
H953 C958 0.949 . S
H954 C960 0.950 . S
H955 C961 0.950 . S
H956 C962 0.949 . S
C957 H952 0.950 . S
C957 C959 1.327 . S
C957 C963 1.429 . S
C958 C950 1.574 1_545 S
C958 H953 0.949 . S
C958 C964 1.368 . S
C959 C943 1.349 . S
C959 H951 0.950 . S
C959 C957 1.327 . S
C960 C948 1.349 . S
C960 H954 0.950 . S
C960 C961 1.327 . S
C961 H955 0.950 . S
C961 C960 1.327 . S
C961 C965 1.429 . S
C962 C945 1.574 1_565 S
C962 H956 0.949 . S
C962 C966 1.368 . S
C963 C944 1.429 . S
C963 C957 1.429 . S
C963 C964 1.523 . S
C964 C945 1.368 . S
C964 C958 1.368 . S
C964 C963 1.523 . S
C965 C949 1.429 . S
C965 C961 1.429 . S
C965 C966 1.523 . S
C966 C950 1.368 . S
C966 C962 1.368 . S
C966 C965 1.523 . S
H967 C942 0.950 . S
H968 C944 0.950 . S
H969 C945 0.949 . S
H970 C947 0.950 . S
H971 C949 0.950 . S
C972 C973 1.349 . S
C972 C974 1.327 . S
C972 H997 0.950 . S
C973 C972 1.349 . S
C973 C989 1.349 . S
C974 C972 1.327 . S
C974 C993 1.429 . S
C974 H998 0.950 . S
C975 C992 1.574 . S
C975 C994 1.368 . S
C975 H999 0.949 . S
H976 C980 0.949 . S
C977 C978 1.349 . S
C977 C979 1.327 . S
C977 H1000 0.950 . S
C978 C977 1.349 . S
C978 C990 1.349 . S
C979 C977 1.327 . S
C979 C995 1.429 . S
C979 H1001 0.950 . S
C980 H976 0.949 . S
C980 C988 1.574 . S
C980 C996 1.368 . S
H981 C989 0.950 . S
H982 C987 0.950 . S
H983 C988 0.949 . S
H984 C990 0.950 . S
H985 C991 0.950 . S
H986 C992 0.949 . S
C987 H982 0.950 . S
C987 C989 1.327 . S
C987 C993 1.429 . S
C988 C980 1.574 . S
C988 H983 0.949 . S
C988 C994 1.368 . S
C989 C973 1.349 . S
C989 H981 0.950 . S
C989 C987 1.327 . S
C990 C978 1.349 . S
C990 H984 0.950 . S
C990 C991 1.327 . S
C991 H985 0.950 . S
C991 C990 1.327 . S
C991 C995 1.429 . S
C992 C975 1.574 . S
C992 H986 0.949 . S
C992 C996 1.368 . S
C993 C974 1.429 . S
C993 C987 1.429 . S
C993 C994 1.523 . S
C994 C975 1.368 . S
C994 C988 1.368 . S
C994 C993 1.523 . S
C995 C979 1.429 . S
C995 C991 1.429 . S
C995 C996 1.523 . S
C996 C980 1.368 . S
C996 C992 1.368 . S
C996 C995 1.523 . S
H997 C972 0.950 . S
H998 C974 0.950 . S
H999 C975 0.949 . S
H1000 C977 0.950 . S
H1001 C979 0.950 . S
C1002 C1003 1.349 . S
C1002 C1004 1.327 . S
C1002 H1027 0.950 . S
C1003 C1002 1.349 . S
C1003 C1019 1.349 . S
C1004 C1002 1.327 . S
C1004 C1023 1.429 . S
C1004 H1028 0.950 . S
C1005 C1022 1.574 . S
C1005 C1024 1.368 . S
C1005 H1029 0.949 . S
H1006 C1010 0.949 . S
C1007 C1008 1.349 . S
C1007 C1009 1.327 . S
C1007 H1030 0.950 . S
C1008 C1007 1.349 . S
C1008 C1020 1.349 . S
C1009 C1007 1.327 . S
C1009 C1025 1.429 . S
C1009 H1031 0.950 . S
C1010 H1006 0.949 . S
C1010 C1018 1.574 . S
C1010 C1026 1.368 . S
H1011 C1019 0.950 . S
H1012 C1017 0.950 . S
H1013 C1018 0.949 . S
H1014 C1020 0.950 . S
H1015 C1021 0.950 . S
H1016 C1022 0.949 . S
C1017 H1012 0.950 . S
C1017 C1019 1.327 . S
C1017 C1023 1.429 . S
C1018 C1010 1.574 . S
C1018 H1013 0.949 . S
C1018 C1024 1.368 . S
C1019 C1003 1.349 . S
C1019 H1011 0.950 . S
C1019 C1017 1.327 . S
C1020 C1008 1.349 . S
C1020 H1014 0.950 . S
C1020 C1021 1.327 . S
C1021 H1015 0.950 . S
C1021 C1020 1.327 . S
C1021 C1025 1.429 . S
C1022 C1005 1.574 . S
C1022 H1016 0.949 . S
C1022 C1026 1.368 . S
C1023 C1004 1.429 . S
C1023 C1017 1.429 . S
C1023 C1024 1.523 . S
C1024 C1005 1.368 . S
C1024 C1018 1.368 . S
C1024 C1023 1.523 . S
C1025 C1009 1.429 . S
C1025 C1021 1.429 . S
C1025 C1026 1.523 . S
C1026 C1010 1.368 . S
C1026 C1022 1.368 . S
C1026 C1025 1.523 . S
H1027 C1002 0.950 . S
H1028 C1004 0.950 . S
H1029 C1005 0.949 . S
H1030 C1007 0.950 . S
H1031 C1009 0.950 . S
C1032 C1033 1.349 . S
C1032 C1034 1.327 . S
C1032 H1057 0.950 . S
C1033 C1032 1.349 . S
C1033 C1049 1.349 . S
C1034 C1032 1.327 . S
C1034 C1053 1.429 . S
C1034 H1058 0.950 . S
C1035 C1052 1.574 . S
C1035 C1054 1.368 . S
C1035 H1059 0.949 . S
H1036 C1040 0.949 . S
C1037 C1038 1.349 . S
C1037 C1039 1.327 . S
C1037 H1060 0.950 . S
C1038 C1037 1.349 . S
C1038 C1050 1.349 . S
C1039 C1037 1.327 . S
C1039 C1055 1.429 . S
C1039 H1061 0.950 . S
C1040 H1036 0.949 . S
C1040 C1048 1.574 . S
C1040 C1056 1.368 . S
H1041 C1049 0.950 . S
H1042 C1047 0.950 . S
H1043 C1048 0.949 . S
H1044 C1050 0.950 . S
H1045 C1051 0.950 . S
H1046 C1052 0.949 . S
C1047 H1042 0.950 . S
C1047 C1049 1.327 . S
C1047 C1053 1.429 . S
C1048 C1040 1.574 . S
C1048 H1043 0.949 . S
C1048 C1054 1.368 . S
C1049 C1033 1.349 . S
C1049 H1041 0.950 . S
C1049 C1047 1.327 . S
C1050 C1038 1.349 . S
C1050 H1044 0.950 . S
C1050 C1051 1.327 . S
C1051 H1045 0.950 . S
C1051 C1050 1.327 . S
C1051 C1055 1.429 . S
C1052 C1035 1.574 . S
C1052 H1046 0.949 . S
C1052 C1056 1.368 . S
C1053 C1034 1.429 . S
C1053 C1047 1.429 . S
C1053 C1054 1.523 . S
C1054 C1035 1.368 . S
C1054 C1048 1.368 . S
C1054 C1053 1.523 . S
C1055 C1039 1.429 . S
C1055 C1051 1.429 . S
C1055 C1056 1.523 . S
C1056 C1040 1.368 . S
C1056 C1052 1.368 . S
C1056 C1055 1.523 . S
H1057 C1032 0.950 . S
H1058 C1034 0.950 . S
H1059 C1035 0.949 . S
H1060 C1037 0.950 . S
H1061 C1039 0.950 . S
C1062 C1063 1.349 . S
C1062 C1064 1.327 . S
C1062 H1087 0.950 . S
C1063 C1062 1.349 . S
C1063 C1079 1.349 . S
C1064 C1062 1.327 . S
C1064 C1083 1.429 . S
C1064 H1088 0.950 . S
C1065 C1082 1.574 . S
C1065 C1084 1.368 . S
C1065 H1089 0.949 . S
H1066 C1070 0.949 . S
C1067 C1068 1.349 . S
C1067 C1069 1.327 . S
C1067 H1090 0.950 . S
C1068 C1067 1.349 . S
C1068 C1080 1.349 . S
C1069 C1067 1.327 . S
C1069 C1085 1.429 . S
C1069 H1091 0.950 . S
C1070 H1066 0.949 . S
C1070 C1078 1.574 . S
C1070 C1086 1.368 . S
H1071 C1079 0.950 . S
H1072 C1077 0.950 . S
H1073 C1078 0.949 . S
H1074 C1080 0.950 . S
H1075 C1081 0.950 . S
H1076 C1082 0.949 . S
C1077 H1072 0.950 . S
C1077 C1079 1.327 . S
C1077 C1083 1.429 . S
C1078 C1070 1.574 . S
C1078 H1073 0.949 . S
C1078 C1084 1.368 . S
C1079 C1063 1.349 . S
C1079 H1071 0.950 . S
C1079 C1077 1.327 . S
C1080 C1068 1.349 . S
C1080 H1074 0.950 . S
C1080 C1081 1.327 . S
C1081 H1075 0.950 . S
C1081 C1080 1.327 . S
C1081 C1085 1.429 . S
C1082 C1065 1.574 . S
C1082 H1076 0.949 . S
C1082 C1086 1.368 . S
C1083 C1064 1.429 . S
C1083 C1077 1.429 . S
C1083 C1084 1.523 . S
C1084 C1065 1.368 . S
C1084 C1078 1.368 . S
C1084 C1083 1.523 . S
C1085 C1069 1.429 . S
C1085 C1081 1.429 . S
C1085 C1086 1.523 . S
C1086 C1070 1.368 . S
C1086 C1082 1.368 . S
C1086 C1085 1.523 . S
H1087 C1062 0.950 . S
H1088 C1064 0.950 . S
H1089 C1065 0.949 . S
H1090 C1067 0.950 . S
H1091 C1069 0.950 . S
C1092 C1093 1.349 . S
C1092 C1094 1.327 . S
C1092 H1117 0.950 . S
C1093 C1092 1.349 . S
C1093 C1109 1.349 . S
C1094 C1092 1.327 . S
C1094 C1113 1.429 . S
C1094 H1118 0.950 . S
C1095 C1112 1.574 . S
C1095 C1114 1.368 . S
C1095 H1119 0.949 . S
H1096 C1100 0.949 . S
C1097 C1098 1.349 . S
C1097 C1099 1.327 . S
C1097 H1120 0.950 . S
C1098 C1097 1.349 . S
C1098 C1110 1.349 . S
C1099 C1097 1.327 . S
C1099 C1115 1.429 . S
C1099 H1121 0.950 . S
C1100 H1096 0.949 . S
C1100 C1108 1.574 . S
C1100 C1116 1.368 . S
H1101 C1109 0.950 . S
H1102 C1107 0.950 . S
H1103 C1108 0.949 . S
H1104 C1110 0.950 . S
H1105 C1111 0.950 . S
H1106 C1112 0.949 . S
C1107 H1102 0.950 . S
C1107 C1109 1.327 . S
C1107 C1113 1.429 . S
C1108 C1100 1.574 . S
C1108 H1103 0.949 . S
C1108 C1114 1.368 . S
C1109 C1093 1.349 . S
C1109 H1101 0.950 . S
C1109 C1107 1.327 . S
C1110 C1098 1.349 . S
C1110 H1104 0.950 . S
C1110 C1111 1.327 . S
C1111 H1105 0.950 . S
C1111 C1110 1.327 . S
C1111 C1115 1.429 . S
C1112 C1095 1.574 . S
C1112 H1106 0.949 . S
C1112 C1116 1.368 . S
C1113 C1094 1.429 . S
C1113 C1107 1.429 . S
C1113 C1114 1.523 . S
C1114 C1095 1.368 . S
C1114 C1108 1.368 . S
C1114 C1113 1.523 . S
C1115 C1099 1.429 . S
C1115 C1111 1.429 . S
C1115 C1116 1.523 . S
C1116 C1100 1.368 . S
C1116 C1112 1.368 . S
C1116 C1115 1.523 . S
H1117 C1092 0.950 . S
H1118 C1094 0.950 . S
H1119 C1095 0.949 . S
H1120 C1097 0.950 . S
H1121 C1099 0.950 . S
C1122 C1123 1.349 . S
C1122 C1124 1.327 . S
C1122 H1147 0.950 . S
C1123 C1122 1.349 . S
C1123 C1139 1.349 . S
C1124 C1122 1.327 . S
C1124 C1143 1.429 . S
C1124 H1148 0.950 . S
C1125 C1142 1.574 . S
C1125 C1144 1.368 . S
C1125 H1149 0.949 . S
H1126 C1130 0.949 . S
C1127 C1128 1.349 . S
C1127 C1129 1.327 . S
C1127 H1150 0.950 . S
C1128 C1127 1.349 . S
C1128 C1140 1.349 . S
C1129 C1127 1.327 . S
C1129 C1145 1.429 . S
C1129 H1151 0.950 . S
C1130 H1126 0.949 . S
C1130 C1138 1.574 . S
C1130 C1146 1.368 . S
H1131 C1139 0.950 . S
H1132 C1137 0.950 . S
H1133 C1138 0.949 . S
H1134 C1140 0.950 . S
H1135 C1141 0.950 . S
H1136 C1142 0.949 . S
C1137 H1132 0.950 . S
C1137 C1139 1.327 . S
C1137 C1143 1.429 . S
C1138 C1130 1.574 . S
C1138 H1133 0.949 . S
C1138 C1144 1.368 . S
C1139 C1123 1.349 . S
C1139 H1131 0.950 . S
C1139 C1137 1.327 . S
C1140 C1128 1.349 . S
C1140 H1134 0.950 . S
C1140 C1141 1.327 . S
C1141 H1135 0.950 . S
C1141 C1140 1.327 . S
C1141 C1145 1.429 . S
C1142 C1125 1.574 . S
C1142 H1136 0.949 . S
C1142 C1146 1.368 . S
C1143 C1124 1.429 . S
C1143 C1137 1.429 . S
C1143 C1144 1.523 . S
C1144 C1125 1.368 . S
C1144 C1138 1.368 . S
C1144 C1143 1.523 . S
C1145 C1129 1.429 . S
C1145 C1141 1.429 . S
C1145 C1146 1.523 . S
C1146 C1130 1.368 . S
C1146 C1142 1.368 . S
C1146 C1145 1.523 . S
H1147 C1122 0.950 . S
H1148 C1124 0.950 . S
H1149 C1125 0.949 . S
H1150 C1127 0.950 . S
H1151 C1129 0.950 . S
C1152 C1153 1.349 . S
C1152 C1154 1.327 1_545 S
C1152 H1177 0.950 . S
C1153 C1152 1.349 . S
C1153 C1169 1.349 . S
C1154 C1152 1.327 1_565 S
C1154 C1173 1.429 . S
C1154 H1178 0.950 . S
C1155 C1172 1.574 . S
C1155 C1174 1.368 . S
C1155 H1179 0.949 . S
H1156 C1160 0.949 . S
C1157 C1158 1.349 . S
C1157 C1159 1.327 . S
C1157 H1180 0.950 . S
C1158 C1157 1.349 . S
C1158 C1170 1.349 . S
C1159 C1157 1.327 . S
C1159 C1175 1.429 . S
C1159 H1181 0.950 . S
C1160 H1156 0.949 . S
C1160 C1168 1.574 . S
C1160 C1176 1.368 . S
H1161 C1169 0.950 . S
H1162 C1167 0.946 1_565 S
H1163 C1168 0.949 . S
H1164 C1170 0.950 . S
H1165 C1171 0.950 . S
H1166 C1172 0.949 . S
C1167 H1162 0.946 1_545 S
C1167 C1169 1.356 . S
C1167 C1173 1.404 1_545 S
C1168 C1160 1.574 . S
C1168 H1163 0.949 . S
C1168 C1174 1.368 . S
C1169 C1153 1.349 . S
C1169 H1161 0.950 . S
C1169 C1167 1.356 . S
C1170 C1158 1.349 . S
C1170 H1164 0.950 . S
C1170 C1171 1.327 . S
C1171 H1165 0.950 . S
C1171 C1170 1.327 . S
C1171 C1175 1.429 . S
C1172 C1155 1.574 . S
C1172 H1166 0.949 . S
C1172 C1176 1.368 . S
C1173 C1154 1.429 . S
C1173 C1167 1.404 1_565 S
C1173 C1174 1.523 . S
C1174 C1155 1.368 . S
C1174 C1168 1.368 . S
C1174 C1173 1.523 . S
C1175 C1159 1.429 . S
C1175 C1171 1.429 . S
C1175 C1176 1.523 . S
C1176 C1160 1.368 . S
C1176 C1172 1.368 . S
C1176 C1175 1.523 . S
H1177 C1152 0.950 . S
H1178 C1154 0.950 . S
H1179 C1155 0.949 . S
H1180 C1157 0.950 . S
H1181 C1159 0.950 . S
C1182 C1183 1.349 . S
C1182 C1184 1.327 . S
C1182 H1207 0.950 . S
C1183 C1182 1.349 . S
C1183 C1199 1.349 . S
C1184 C1182 1.327 . S
C1184 C1203 1.429 1_655 S
C1184 H1208 0.950 1_655 S
C1185 C1202 1.574 . S
C1185 C1204 1.368 . S
C1185 H1209 0.949 . S
H1186 C1190 0.949 . S
C1187 C1188 1.349 . S
C1187 C1189 1.327 . S
C1187 H1210 0.950 . S
C1188 C1187 1.349 . S
C1188 C1200 1.349 . S
C1189 C1187 1.327 . S
C1189 C1205 1.429 . S
C1189 H1211 0.950 . S
C1190 H1186 0.949 . S
C1190 C1198 1.574 . S
C1190 C1206 1.368 . S
H1191 C1199 0.950 . S
H1192 C1197 0.950 . S
H1193 C1198 0.949 . S
H1194 C1200 0.950 . S
H1195 C1201 0.950 . S
H1196 C1202 0.949 . S
C1197 H1192 0.950 . S
C1197 C1199 1.327 1_455 S
C1197 C1203 1.429 . S
C1198 C1190 1.574 . S
C1198 H1193 0.949 . S
C1198 C1204 1.368 . S
C1199 C1183 1.349 . S
C1199 H1191 0.950 . S
C1199 C1197 1.327 1_655 S
C1200 C1188 1.349 . S
C1200 H1194 0.950 . S
C1200 C1201 1.327 . S
C1201 H1195 0.950 . S
C1201 C1200 1.327 . S
C1201 C1205 1.429 . S
C1202 C1185 1.574 . S
C1202 H1196 0.949 . S
C1202 C1206 1.368 . S
C1203 C1184 1.429 1_455 S
C1203 C1197 1.429 . S
C1203 C1204 1.523 . S
C1204 C1185 1.368 . S
C1204 C1198 1.368 . S
C1204 C1203 1.523 . S
C1205 C1189 1.429 . S
C1205 C1201 1.429 . S
C1205 C1206 1.523 . S
C1206 C1190 1.368 . S
C1206 C1202 1.368 . S
C1206 C1205 1.523 . S
H1207 C1182 0.950 . S
H1208 C1184 0.950 1_455 S
H1209 C1185 0.949 . S
H1210 C1187 0.950 . S
H1211 C1189 0.950 . S
C1212 C1213 1.349 . S
C1212 C1214 1.327 . S
C1212 H1237 0.950 . S
C1213 C1212 1.349 . S
C1213 C1229 1.349 . S
C1214 C1212 1.327 . S
C1214 C1233 1.429 . S
C1214 H1238 0.950 . S
C1215 C1232 1.574 . S
C1215 C1234 1.368 . S
C1215 H1239 0.949 . S
H1216 C1220 0.949 . S
C1217 C1218 1.349 . S
C1217 C1219 1.327 . S
C1217 H1240 0.950 . S
C1218 C1217 1.349 . S
C1218 C1230 1.349 . S
C1219 C1217 1.327 . S
C1219 C1235 1.429 . S
C1219 H1241 0.950 . S
C1220 H1216 0.949 . S
C1220 C1228 1.574 . S
C1220 C1236 1.368 . S
H1221 C1229 0.950 . S
H1222 C1227 0.950 . S
H1223 C1228 0.949 . S
H1224 C1230 0.950 . S
H1225 C1231 0.950 . S
H1226 C1232 0.949 . S
C1227 H1222 0.950 . S
C1227 C1229 1.327 . S
C1227 C1233 1.429 . S
C1228 C1220 1.574 . S
C1228 H1223 0.949 . S
C1228 C1234 1.368 . S
C1229 C1213 1.349 . S
C1229 H1221 0.950 . S
C1229 C1227 1.327 . S
C1230 C1218 1.349 . S
C1230 H1224 0.950 . S
C1230 C1231 1.327 . S
C1231 H1225 0.950 . S
C1231 C1230 1.327 . S
C1231 C1235 1.429 . S
C1232 C1215 1.574 . S
C1232 H1226 0.949 . S
C1232 C1236 1.368 . S
C1233 C1214 1.429 . S
C1233 C1227 1.429 . S
C1233 C1234 1.523 . S
C1234 C1215 1.368 . S
C1234 C1228 1.368 . S
C1234 C1233 1.523 . S
C1235 C1219 1.429 . S
C1235 C1231 1.429 . S
C1235 C1236 1.523 . S
C1236 C1220 1.368 . S
C1236 C1232 1.368 . S
C1236 C1235 1.523 . S
H1237 C1212 0.950 . S
H1238 C1214 0.950 . S
H1239 C1215 0.949 . S
H1240 C1217 0.950 . S
H1241 C1219 0.950 . S
C1242 C1243 1.349 . S
C1242 C1244 1.327 . S
C1242 H1267 0.950 . S
C1243 C1242 1.349 . S
C1243 C1259 1.349 . S
C1244 C1242 1.327 . S
C1244 C1263 1.429 . S
C1244 H1268 0.950 . S
C1245 C1262 1.574 . S
C1245 C1264 1.368 . S
C1245 H1269 0.949 . S
H1246 C1250 0.949 . S
C1247 C1248 1.349 . S
C1247 C1249 1.327 . S
C1247 H1270 0.950 . S
C1248 C1247 1.349 . S
C1248 C1260 1.349 . S
C1249 C1247 1.327 . S
C1249 C1265 1.429 . S
C1249 H1271 0.950 . S
C1250 H1246 0.949 . S
C1250 C1258 1.574 . S
C1250 C1266 1.368 . S
H1251 C1259 0.950 . S
H1252 C1257 0.950 . S
H1253 C1258 0.949 . S
H1254 C1260 0.950 . S
H1255 C1261 0.950 . S
H1256 C1262 0.949 . S
C1257 H1252 0.950 . S
C1257 C1259 1.327 . S
C1257 C1263 1.429 . S
C1258 C1250 1.574 . S
C1258 H1253 0.949 . S
C1258 C1264 1.368 . S
C1259 C1243 1.349 . S
C1259 H1251 0.950 . S
C1259 C1257 1.327 . S
C1260 C1248 1.349 . S
C1260 H1254 0.950 . S
C1260 C1261 1.327 . S
C1261 H1255 0.950 . S
C1261 C1260 1.327 . S
C1261 C1265 1.429 . S
C1262 C1245 1.574 . S
C1262 H1256 0.949 . S
C1262 C1266 1.368 . S
C1263 C1244 1.429 . S
C1263 C1257 1.429 . S
C1263 C1264 1.523 . S
C1264 C1245 1.368 . S
C1264 C1258 1.368 . S
C1264 C1263 1.523 . S
C1265 C1249 1.429 . S
C1265 C1261 1.429 . S
C1265 C1266 1.523 . S
C1266 C1250 1.368 . S
C1266 C1262 1.368 . S
C1266 C1265 1.523 . S
H1267 C1242 0.950 . S
H1268 C1244 0.950 . S
H1269 C1245 0.949 . S
H1270 C1247 0.950 . S
H1271 C1249 0.950 . S
C1272 C1273 1.349 . S
C1272 C1274 1.327 . S
C1272 H1297 0.950 . S
C1273 C1272 1.349 . S
C1273 C1289 1.349 . S
C1274 C1272 1.327 . S
C1274 C1293 1.429 . S
C1274 H1298 0.950 . S
C1275 C1292 1.574 . S
C1275 C1294 1.368 . S
C1275 H1299 0.949 . S
H1276 C1280 0.949 . S
C1277 C1278 1.349 . S
C1277 C1279 1.327 . S
C1277 H1300 0.950 . S
C1278 C1277 1.349 . S
C1278 C1290 1.349 . S
C1279 C1277 1.327 . S
C1279 C1295 1.429 . S
C1279 H1301 0.950 . S
C1280 H1276 0.949 . S
C1280 C1288 1.574 . S
C1280 C1296 1.368 . S
H1281 C1289 0.950 . S
H1282 C1287 0.950 . S
H1283 C1288 0.949 . S
H1284 C1290 0.950 . S
H1285 C1291 0.950 . S
H1286 C1292 0.949 . S
C1287 H1282 0.950 . S
C1287 C1289 1.327 . S
C1287 C1293 1.429 . S
C1288 C1280 1.574 . S
C1288 H1283 0.949 . S
C1288 C1294 1.368 . S
C1289 C1273 1.349 . S
C1289 H1281 0.950 . S
C1289 C1287 1.327 . S
C1290 C1278 1.349 . S
C1290 H1284 0.950 . S
C1290 C1291 1.327 . S
C1291 H1285 0.950 . S
C1291 C1290 1.327 . S
C1291 C1295 1.429 . S
C1292 C1275 1.574 . S
C1292 H1286 0.949 . S
C1292 C1296 1.368 . S
C1293 C1274 1.429 . S
C1293 C1287 1.429 . S
C1293 C1294 1.523 . S
C1294 C1275 1.368 . S
C1294 C1288 1.368 . S
C1294 C1293 1.523 . S
C1295 C1279 1.429 . S
C1295 C1291 1.429 . S
C1295 C1296 1.523 . S
C1296 C1280 1.368 . S
C1296 C1292 1.368 . S
C1296 C1295 1.523 . S
H1297 C1272 0.950 . S
H1298 C1274 0.950 . S
H1299 C1275 0.949 . S
H1300 C1277 0.950 . S
H1301 C1279 0.950 . S
C1302 C1303 1.349 . S
C1302 C1304 1.327 . S
C1302 H1327 0.950 . S
C1303 C1302 1.349 . S
C1303 C1319 1.349 . S
C1304 C1302 1.327 . S
C1304 C1323 1.429 . S
C1304 H1328 0.950 . S
C1305 C1322 1.574 . S
C1305 C1324 1.368 . S
C1305 H1329 0.949 . S
H1306 C1310 0.949 . S
C1307 C1308 1.349 . S
C1307 C1309 1.327 . S
C1307 H1330 0.950 . S
C1308 C1307 1.349 . S
C1308 C1320 1.349 . S
C1309 C1307 1.327 . S
C1309 C1325 1.429 . S
C1309 H1331 0.950 . S
C1310 H1306 0.949 . S
C1310 C1318 1.574 . S
C1310 C1326 1.368 . S
H1311 C1319 0.950 . S
H1312 C1317 0.950 . S
H1313 C1318 0.949 . S
H1314 C1320 0.950 . S
H1315 C1321 0.950 . S
H1316 C1322 0.949 . S
C1317 H1312 0.950 . S
C1317 C1319 1.327 . S
C1317 C1323 1.429 . S
C1318 C1310 1.574 . S
C1318 H1313 0.949 . S
C1318 C1324 1.368 . S
C1319 C1303 1.349 . S
C1319 H1311 0.950 . S
C1319 C1317 1.327 . S
C1320 C1308 1.349 . S
C1320 H1314 0.950 . S
C1320 C1321 1.327 . S
C1321 H1315 0.950 . S
C1321 C1320 1.327 . S
C1321 C1325 1.429 . S
C1322 C1305 1.574 . S
C1322 H1316 0.949 . S
C1322 C1326 1.368 . S
C1323 C1304 1.429 . S
C1323 C1317 1.429 . S
C1323 C1324 1.523 . S
C1324 C1305 1.368 . S
C1324 C1318 1.368 . S
C1324 C1323 1.523 . S
C1325 C1309 1.429 . S
C1325 C1321 1.429 . S
C1325 C1326 1.523 . S
C1326 C1310 1.368 . S
C1326 C1322 1.368 . S
C1326 C1325 1.523 . S
H1327 C1302 0.950 . S
H1328 C1304 0.950 . S
H1329 C1305 0.949 . S
H1330 C1307 0.950 . S
H1331 C1309 0.950 . S
C1332 C1333 1.349 . S
C1332 C1334 1.327 . S
C1332 H1357 0.950 . S
C1333 C1332 1.349 . S
C1333 C1349 1.349 . S
C1334 C1332 1.327 . S
C1334 C1353 1.429 . S
C1334 H1358 0.950 . S
C1335 C1352 1.574 1_565 S
C1335 C1354 1.368 . S
C1335 H1359 0.949 . S
H1336 C1340 0.949 . S
C1337 C1338 1.349 . S
C1337 C1339 1.327 . S
C1337 H1360 0.950 . S
C1338 C1337 1.349 . S
C1338 C1350 1.349 . S
C1339 C1337 1.327 . S
C1339 C1355 1.429 . S
C1339 H1361 0.950 . S
C1340 H1336 0.949 . S
C1340 C1348 1.574 1_545 S
C1340 C1356 1.368 . S
H1341 C1349 0.950 . S
H1342 C1347 0.950 . S
H1343 C1348 0.949 . S
H1344 C1350 0.950 . S
H1345 C1351 0.950 . S
H1346 C1352 0.949 . S
C1347 H1342 0.950 . S
C1347 C1349 1.327 . S
C1347 C1353 1.429 . S
C1348 C1340 1.574 1_565 S
C1348 H1343 0.949 . S
C1348 C1354 1.368 . S
C1349 C1333 1.349 . S
C1349 H1341 0.950 . S
C1349 C1347 1.327 . S
C1350 C1338 1.349 . S
C1350 H1344 0.950 . S
C1350 C1351 1.327 . S
C1351 H1345 0.950 . S
C1351 C1350 1.327 . S
C1351 C1355 1.429 . S
C1352 C1335 1.574 1_545 S
C1352 H1346 0.949 . S
C1352 C1356 1.368 . S
C1353 C1334 1.429 . S
C1353 C1347 1.429 . S
C1353 C1354 1.523 . S
C1354 C1335 1.368 . S
C1354 C1348 1.368 . S
C1354 C1353 1.523 . S
C1355 C1339 1.429 . S
C1355 C1351 1.429 . S
C1355 C1356 1.523 . S
C1356 C1340 1.368 . S
C1356 C1352 1.368 . S
C1356 C1355 1.523 . S
H1357 C1332 0.950 . S
H1358 C1334 0.950 . S
H1359 C1335 0.949 . S
H1360 C1337 0.950 . S
H1361 C1339 0.950 . S
C1362 C1363 1.349 . S
C1362 C1364 1.327 . S
C1362 H1387 0.950 . S
C1363 C1362 1.349 . S
C1363 C1379 1.349 . S
C1364 C1362 1.327 . S
C1364 C1383 1.429 . S
C1364 H1388 0.950 . S
C1365 C1382 1.574 1_455 S
C1365 C1384 1.368 . S
C1365 H1389 0.949 . S
H1366 C1370 1.000 . S
C1367 C1368 1.349 . S
C1367 C1369 1.327 . S
C1367 H1390 0.950 . S
C1368 C1367 1.349 . S
C1368 C1380 1.349 . S
C1369 C1367 1.327 . S
C1369 C1385 1.429 . S
C1369 H1391 0.950 . S
C1370 H1366 1.000 . S
C1370 C1378 1.508 1_655 S
C1370 C1386 1.381 . S
H1371 C1379 0.950 . S
H1372 C1377 0.950 . S
H1373 C1378 0.949 . S
H1374 C1380 0.950 . S
H1375 C1381 0.950 . S
H1376 C1382 0.949 . S
C1377 H1372 0.950 . S
C1377 C1379 1.327 . S
C1377 C1383 1.429 . S
C1378 C1370 1.508 1_455 S
C1378 H1373 0.949 . S
C1378 C1384 1.368 . S
C1379 C1363 1.349 . S
C1379 H1371 0.950 . S
C1379 C1377 1.327 . S
C1380 C1368 1.349 . S
C1380 H1374 0.950 . S
C1380 C1381 1.327 . S
C1381 H1375 0.950 . S
C1381 C1380 1.327 . S
C1381 C1385 1.429 . S
C1382 C1365 1.574 1_655 S
C1382 H1376 0.949 . S
C1382 C1386 1.368 . S
C1383 C1364 1.429 . S
C1383 C1377 1.429 . S
C1383 C1384 1.523 . S
C1384 C1365 1.368 . S
C1384 C1378 1.368 . S
C1384 C1383 1.523 . S
C1385 C1369 1.429 . S
C1385 C1381 1.429 . S
C1385 C1386 1.523 . S
C1386 C1370 1.381 . S
C1386 C1382 1.368 . S
C1386 C1385 1.523 . S
H1387 C1362 0.950 . S
H1388 C1364 0.950 . S
H1389 C1365 0.949 . S
H1390 C1367 0.950 . S
H1391 C1369 0.950 . S
C1392 C1393 1.349 . S
C1392 C1394 1.327 . S
C1392 H1417 0.950 . S
C1393 C1392 1.349 . S
C1393 C1409 1.349 . S
C1394 C1392 1.327 . S
C1394 C1413 1.429 . S
C1394 H1418 0.950 . S
C1395 C1412 1.574 . S
C1395 C1414 1.368 . S
C1395 H1419 0.949 . S
H1396 C1400 0.949 . S
C1397 C1398 1.349 . S
C1397 C1399 1.327 . S
C1397 H1420 0.950 . S
C1398 C1397 1.349 . S
C1398 C1410 1.349 . S
C1399 C1397 1.327 . S
C1399 C1415 1.429 . S
C1399 H1421 0.950 . S
C1400 H1396 0.949 . S
C1400 C1408 1.574 . S
C1400 C1416 1.368 . S
H1401 C1409 0.950 . S
H1402 C1407 0.950 . S
H1403 C1408 0.949 . S
H1404 C1410 0.950 . S
H1405 C1411 0.950 . S
H1406 C1412 0.949 . S
C1407 H1402 0.950 . S
C1407 C1409 1.327 . S
C1407 C1413 1.429 . S
C1408 C1400 1.574 . S
C1408 H1403 0.949 . S
C1408 C1414 1.368 . S
C1409 C1393 1.349 . S
C1409 H1401 0.950 . S
C1409 C1407 1.327 . S
C1410 C1398 1.349 . S
C1410 H1404 0.950 . S
C1410 C1411 1.327 . S
C1411 H1405 0.950 . S
C1411 C1410 1.327 . S
C1411 C1415 1.429 . S
C1412 C1395 1.574 . S
C1412 H1406 0.949 . S
C1412 C1416 1.368 . S
C1413 C1394 1.429 . S
C1413 C1407 1.429 . S
C1413 C1414 1.523 . S
C1414 C1395 1.368 . S
C1414 C1408 1.368 . S
C1414 C1413 1.523 . S
C1415 C1399 1.429 . S
C1415 C1411 1.429 . S
C1415 C1416 1.523 . S
C1416 C1400 1.368 . S
C1416 C1412 1.368 . S
C1416 C1415 1.523 . S
H1417 C1392 0.950 . S
H1418 C1394 0.950 . S
H1419 C1395 0.949 . S
H1420 C1397 0.950 . S
H1421 C1399 0.950 . S
C1422 C1423 1.349 . S
C1422 C1424 1.327 . S
C1422 H1447 0.950 . S
C1423 C1422 1.349 . S
C1423 C1439 1.349 . S
C1424 C1422 1.327 . S
C1424 C1443 1.429 . S
C1424 H1448 0.950 . S
C1425 C1442 1.574 . S
C1425 C1444 1.368 . S
C1425 H1449 0.949 . S
H1426 C1430 0.949 . S
C1427 C1428 1.349 . S
C1427 C1429 1.327 . S
C1427 H1450 0.950 . S
C1428 C1427 1.349 . S
C1428 C1440 1.349 . S
C1429 C1427 1.327 . S
C1429 C1445 1.429 . S
C1429 H1451 0.950 . S
C1430 H1426 0.949 . S
C1430 C1438 1.574 . S
C1430 C1446 1.368 . S
H1431 C1439 0.950 . S
H1432 C1437 0.950 . S
H1433 C1438 0.949 . S
H1434 C1440 0.950 . S
H1435 C1441 0.950 . S
H1436 C1442 0.949 . S
C1437 H1432 0.950 . S
C1437 C1439 1.327 . S
C1437 C1443 1.429 . S
C1438 C1430 1.574 . S
C1438 H1433 0.949 . S
C1438 C1444 1.368 . S
C1439 C1423 1.349 . S
C1439 H1431 0.950 . S
C1439 C1437 1.327 . S
C1440 C1428 1.349 . S
C1440 H1434 0.950 . S
C1440 C1441 1.327 . S
C1441 H1435 0.950 . S
C1441 C1440 1.327 . S
C1441 C1445 1.429 . S
C1442 C1425 1.574 . S
C1442 H1436 0.949 . S
C1442 C1446 1.368 . S
C1443 C1424 1.429 . S
C1443 C1437 1.429 . S
C1443 C1444 1.523 1_455 S
C1444 C1425 1.368 . S
C1444 C1438 1.368 . S
C1444 C1443 1.523 1_655 S
C1445 C1429 1.429 . S
C1445 C1441 1.429 . S
C1445 C1446 1.523 . S
C1446 C1430 1.368 . S
C1446 C1442 1.368 . S
C1446 C1445 1.523 . S
H1447 C1422 0.950 . S
H1448 C1424 0.950 . S
H1449 C1425 0.949 . S
H1450 C1427 0.950 . S
H1451 C1429 0.950 . S
C1452 C1453 1.349 . S
C1452 C1454 1.327 . S
C1452 H1477 0.950 . S
C1453 C1452 1.349 . S
C1453 C1469 1.349 . S
C1454 C1452 1.327 . S
C1454 C1473 1.429 . S
C1454 H1478 0.950 . S
C1455 C1472 1.574 . S
C1455 C1474 1.368 . S
C1455 H1479 0.949 . S
H1456 C1460 0.949 . S
C1457 C1458 1.349 . S
C1457 C1459 1.327 . S
C1457 H1480 0.950 . S
C1458 C1457 1.349 . S
C1458 C1470 1.349 . S
C1459 C1457 1.327 . S
C1459 C1475 1.429 . S
C1459 H1481 0.950 . S
C1460 H1456 0.949 . S
C1460 C1468 1.574 . S
C1460 C1476 1.368 . S
H1461 C1469 0.950 . S
H1462 C1467 0.950 . S
H1463 C1468 0.949 . S
H1464 C1470 0.950 . S
H1465 C1471 0.950 . S
H1466 C1472 0.949 . S
C1467 H1462 0.950 . S
C1467 C1469 1.327 . S
C1467 C1473 1.429 . S
C1468 C1460 1.574 . S
C1468 H1463 0.949 . S
C1468 C1474 1.368 . S
C1469 C1453 1.349 . S
C1469 H1461 0.950 . S
C1469 C1467 1.327 . S
C1470 C1458 1.349 . S
C1470 H1464 0.950 . S
C1470 C1471 1.327 . S
C1471 H1465 0.950 . S
C1471 C1470 1.327 . S
C1471 C1475 1.429 . S
C1472 C1455 1.574 . S
C1472 H1466 0.949 . S
C1472 C1476 1.368 . S
C1473 C1454 1.429 . S
C1473 C1467 1.429 . S
C1473 C1474 1.523 . S
C1474 C1455 1.368 . S
C1474 C1468 1.368 . S
C1474 C1473 1.523 . S
C1475 C1459 1.429 . S
C1475 C1471 1.429 . S
C1475 C1476 1.523 . S
C1476 C1460 1.368 . S
C1476 C1472 1.368 . S
C1476 C1475 1.523 . S
H1477 C1452 0.950 . S
H1478 C1454 0.950 . S
H1479 C1455 0.949 . S
H1480 C1457 0.950 . S
H1481 C1459 0.950 . S
C1482 C1483 1.349 . S
C1482 C1484 1.327 1_565 S
C1482 H1507 0.950 . S
C1483 C1482 1.349 . S
C1483 C1499 1.349 . S
C1484 C1482 1.327 1_545 S
C1484 C1503 1.429 . S
C1484 H1508 0.950 . S
C1485 C1502 1.574 . S
C1485 C1504 1.368 . S
C1485 H1509 0.949 . S
H1486 C1490 0.949 . S
C1487 C1488 1.349 . S
C1487 C1489 1.327 . S
C1487 H1510 0.950 . S
C1488 C1487 1.349 . S
C1488 C1500 1.349 . S
C1489 C1487 1.327 . S
C1489 C1505 1.429 . S
C1489 H1511 0.950 . S
C1490 H1486 0.949 . S
C1490 C1498 1.574 . S
C1490 C1506 1.368 . S
H1491 C1499 0.950 . S
H1492 C1497 0.950 1_545 S
H1493 C1498 0.949 . S
H1494 C1500 0.950 . S
H1495 C1501 0.950 . S
H1496 C1502 0.949 . S
C1497 H1492 0.950 1_565 S
C1497 C1499 1.327 . S
C1497 C1503 1.429 1_565 S
C1498 C1490 1.574 . S
C1498 H1493 0.949 . S
C1498 C1504 1.368 . S
C1499 C1483 1.349 . S
C1499 H1491 0.950 . S
C1499 C1497 1.327 . S
C1500 C1488 1.349 . S
C1500 H1494 0.950 . S
C1500 C1501 1.327 . S
C1501 H1495 0.950 . S
C1501 C1500 1.327 . S
C1501 C1505 1.429 . S
C1502 C1485 1.574 . S
C1502 H1496 0.949 . S
C1502 C1506 1.368 . S
C1503 C1484 1.429 . S
C1503 C1497 1.429 1_545 S
C1503 C1504 1.523 . S
C1504 C1485 1.368 . S
C1504 C1498 1.368 . S
C1504 C1503 1.523 . S
C1505 C1489 1.429 . S
C1505 C1501 1.429 . S
C1505 C1506 1.523 . S
C1506 C1490 1.368 . S
C1506 C1502 1.368 . S
C1506 C1505 1.523 . S
H1507 C1482 0.950 . S
H1508 C1484 0.950 . S
H1509 C1485 0.949 . S
H1510 C1487 0.950 . S
H1511 C1489 0.950 . S
C1512 C1513 1.349 . S
C1512 C1514 1.327 . S
C1512 H1537 0.950 . S
C1513 C1512 1.349 . S
C1513 C1529 1.349 . S
C1514 C1512 1.327 . S
C1514 C1533 1.429 . S
C1514 H1538 0.950 . S
C1515 C1532 1.574 . S
C1515 C1534 1.368 . S
C1515 H1539 0.949 . S
H1516 C1520 0.949 . S
C1517 C1518 1.349 . S
C1517 C1519 1.327 . S
C1517 H1540 0.950 . S
C1518 C1517 1.349 . S
C1518 C1530 1.349 . S
C1519 C1517 1.327 . S
C1519 C1535 1.429 . S
C1519 H1541 0.950 . S
C1520 H1516 0.949 . S
C1520 C1528 1.574 . S
C1520 C1536 1.368 . S
H1521 C1529 0.950 . S
H1522 C1527 0.950 . S
H1523 C1528 0.949 . S
H1524 C1530 0.950 . S
H1525 C1531 0.950 . S
H1526 C1532 0.949 . S
C1527 H1522 0.950 . S
C1527 C1529 1.327 . S
C1527 C1533 1.429 . S
C1528 C1520 1.574 . S
C1528 H1523 0.949 . S
C1528 C1534 1.368 . S
C1529 C1513 1.349 . S
C1529 H1521 0.950 . S
C1529 C1527 1.327 . S
C1530 C1518 1.349 . S
C1530 H1524 0.950 . S
C1530 C1531 1.327 . S
C1531 H1525 0.950 . S
C1531 C1530 1.327 . S
C1531 C1535 1.429 . S
C1532 C1515 1.574 . S
C1532 H1526 0.949 . S
C1532 C1536 1.368 . S
C1533 C1514 1.429 . S
C1533 C1527 1.429 . S
C1533 C1534 1.523 . S
C1534 C1515 1.368 . S
C1534 C1528 1.368 . S
C1534 C1533 1.523 . S
C1535 C1519 1.429 . S
C1535 C1531 1.429 . S
C1535 C1536 1.523 . S
C1536 C1520 1.368 . S
C1536 C1532 1.368 . S
C1536 C1535 1.523 . S
H1537 C1512 0.950 . S
H1538 C1514 0.950 . S
H1539 C1515 0.949 . S
H1540 C1517 0.950 . S
H1541 C1519 0.950 . S
C1542 C1543 1.349 . S
C1542 C1544 1.327 . S
C1542 H1567 0.950 . S
C1543 C1542 1.349 . S
C1543 C1559 1.349 . S
C1544 C1542 1.327 . S
C1544 C1563 1.429 . S
C1544 H1568 0.950 . S
C1545 C1562 1.574 . S
C1545 C1564 1.368 . S
C1545 H1569 0.949 . S
H1546 C1550 0.949 . S
C1547 C1548 1.349 . S
C1547 C1549 1.327 . S
C1547 H1570 0.950 . S
C1548 C1547 1.349 . S
C1548 C1560 1.349 . S
C1549 C1547 1.327 . S
C1549 C1565 1.429 . S
C1549 H1571 0.950 . S
C1550 H1546 0.949 . S
C1550 C1558 1.574 . S
C1550 C1566 1.368 . S
H1551 C1559 0.950 . S
H1552 C1557 0.950 . S
H1553 C1558 0.949 . S
H1554 C1560 0.950 . S
H1555 C1561 0.950 . S
H1556 C1562 0.949 . S
C1557 H1552 0.950 . S
C1557 C1559 1.327 . S
C1557 C1563 1.429 . S
C1558 C1550 1.574 . S
C1558 H1553 0.949 . S
C1558 C1564 1.368 . S
C1559 C1543 1.349 . S
C1559 H1551 0.950 . S
C1559 C1557 1.327 . S
C1560 C1548 1.349 . S
C1560 H1554 0.950 . S
C1560 C1561 1.327 . S
C1561 H1555 0.950 . S
C1561 C1560 1.327 . S
C1561 C1565 1.429 . S
C1562 C1545 1.574 . S
C1562 H1556 0.949 . S
C1562 C1566 1.368 . S
C1563 C1544 1.429 . S
C1563 C1557 1.429 . S
C1563 C1564 1.523 . S
C1564 C1545 1.368 . S
C1564 C1558 1.368 . S
C1564 C1563 1.523 . S
C1565 C1549 1.429 . S
C1565 C1561 1.429 . S
C1565 C1566 1.523 . S
C1566 C1550 1.368 . S
C1566 C1562 1.368 . S
C1566 C1565 1.523 . S
H1567 C1542 0.950 . S
H1568 C1544 0.950 . S
H1569 C1545 0.949 . S
H1570 C1547 0.950 . S
H1571 C1549 0.950 . S
C1572 C1573 1.349 . S
C1572 C1574 1.327 . S
C1572 H1597 0.950 . S
C1573 C1572 1.349 . S
C1573 C1589 1.349 . S
C1574 C1572 1.327 . S
C1574 C1593 1.429 . S
C1574 H1598 0.950 . S
C1575 C1592 1.574 . S
C1575 C1594 1.368 . S
C1575 H1599 0.949 . S
H1576 C1580 0.949 . S
C1577 C1578 1.349 . S
C1577 C1579 1.327 . S
C1577 H1600 0.950 . S
C1578 C1577 1.349 . S
C1578 C1590 1.349 . S
C1579 C1577 1.327 . S
C1579 C1595 1.429 . S
C1579 H1601 0.950 . S
C1580 H1576 0.949 . S
C1580 C1588 1.574 . S
C1580 C1596 1.368 . S
H1581 C1589 0.950 . S
H1582 C1587 0.950 . S
H1583 C1588 0.949 . S
H1584 C1590 0.950 . S
H1585 C1591 0.950 . S
H1586 C1592 0.949 . S
C1587 H1582 0.950 . S
C1587 C1589 1.327 . S
C1587 C1593 1.429 . S
C1588 C1580 1.574 . S
C1588 H1583 0.949 . S
C1588 C1594 1.368 . S
C1589 C1573 1.349 . S
C1589 H1581 0.950 . S
C1589 C1587 1.327 . S
C1590 C1578 1.349 . S
C1590 H1584 0.950 . S
C1590 C1591 1.327 . S
C1591 H1585 0.950 . S
C1591 C1590 1.327 . S
C1591 C1595 1.429 . S
C1592 C1575 1.574 . S
C1592 H1586 0.949 . S
C1592 C1596 1.368 . S
C1593 C1574 1.429 . S
C1593 C1587 1.429 . S
C1593 C1594 1.523 . S
C1594 C1575 1.368 . S
C1594 C1588 1.368 . S
C1594 C1593 1.523 . S
C1595 C1579 1.429 . S
C1595 C1591 1.429 . S
C1595 C1596 1.523 . S
C1596 C1580 1.368 . S
C1596 C1592 1.368 . S
C1596 C1595 1.523 . S
H1597 C1572 0.950 . S
H1598 C1574 0.950 . S
H1599 C1575 0.949 . S
H1600 C1577 0.950 . S
H1601 C1579 0.950 . S
C1602 C1603 1.349 . S
C1602 C1604 1.327 . S
C1602 H1627 0.950 . S
C1603 C1602 1.349 . S
C1603 C1619 1.349 . S
C1604 C1602 1.327 . S
C1604 C1623 1.429 . S
C1604 H1628 0.950 . S
C1605 C1622 1.574 . S
C1605 C1624 1.368 . S
C1605 H1629 0.949 . S
H1606 C1610 0.949 . S
C1607 C1608 1.349 . S
C1607 C1609 1.327 . S
C1607 H1630 0.950 1_565 S
C1608 C1607 1.349 . S
C1608 C1620 1.349 . S
C1609 C1607 1.327 . S
C1609 C1625 1.429 . S
C1609 H1631 0.950 . S
C1610 H1606 0.949 . S
C1610 C1618 1.574 . S
C1610 C1626 1.368 . S
H1611 C1619 0.950 . S
H1612 C1617 0.950 . S
H1613 C1618 0.949 . S
H1614 C1620 0.950 . S
H1615 C1621 0.950 . S
H1616 C1622 0.949 . S
C1617 H1612 0.950 . S
C1617 C1619 1.327 . S
C1617 C1623 1.429 . S
C1618 C1610 1.574 . S
C1618 H1613 0.949 . S
C1618 C1624 1.368 . S
C1619 C1603 1.349 . S
C1619 H1611 0.950 . S
C1619 C1617 1.327 . S
C1620 C1608 1.349 . S
C1620 H1614 0.950 . S
C1620 C1621 1.327 . S
C1621 H1615 0.950 . S
C1621 C1620 1.327 . S
C1621 C1625 1.429 . S
C1622 C1605 1.574 . S
C1622 H1616 0.949 . S
C1622 C1626 1.368 . S
C1623 C1604 1.429 . S
C1623 C1617 1.429 . S
C1623 C1624 1.523 . S
C1624 C1605 1.368 . S
C1624 C1618 1.368 . S
C1624 C1623 1.523 . S
C1625 C1609 1.429 . S
C1625 C1621 1.429 . S
C1625 C1626 1.523 . S
C1626 C1610 1.368 . S
C1626 C1622 1.368 . S
C1626 C1625 1.523 . S
H1627 C1602 0.950 . S
H1628 C1604 0.950 . S
H1629 C1605 0.949 . S
H1630 C1607 0.950 1_545 S
H1631 C1609 0.950 . S
C1632 C1633 1.349 . S
C1632 C1634 1.327 . S
C1632 H1657 0.950 . S
C1633 C1632 1.349 . S
C1633 C1649 1.349 . S
C1634 C1632 1.327 . S
C1634 C1653 1.429 . S
C1634 H1658 0.950 . S
C1635 C1652 1.574 . S
C1635 C1654 1.368 . S
C1635 H1659 0.949 . S
H1636 C1640 0.949 . S
C1637 C1638 1.349 . S
C1637 C1639 1.327 . S
C1637 H1660 0.950 . S
C1638 C1637 1.349 . S
C1638 C1650 1.349 . S
C1639 C1637 1.327 . S
C1639 C1655 1.429 . S
C1639 H1661 0.950 . S
C1640 H1636 0.949 . S
C1640 C1648 1.574 . S
C1640 C1656 1.368 . S
H1641 C1649 0.950 . S
H1642 C1647 0.950 . S
H1643 C1648 0.949 . S
H1644 C1650 0.950 . S
H1645 C1651 0.950 . S
H1646 C1652 0.949 . S
C1647 H1642 0.950 . S
C1647 C1649 1.327 . S
C1647 C1653 1.429 . S
C1648 C1640 1.574 . S
C1648 H1643 0.949 . S
C1648 C1654 1.368 . S
C1649 C1633 1.349 . S
C1649 H1641 0.950 . S
C1649 C1647 1.327 . S
C1650 C1638 1.349 . S
C1650 H1644 0.950 . S
C1650 C1651 1.327 . S
C1651 H1645 0.950 . S
C1651 C1650 1.327 . S
C1651 C1655 1.429 . S
C1652 C1635 1.574 . S
C1652 H1646 0.949 . S
C1652 C1656 1.368 . S
C1653 C1634 1.429 . S
C1653 C1647 1.429 . S
C1653 C1654 1.523 . S
C1654 C1635 1.368 . S
C1654 C1648 1.368 . S
C1654 C1653 1.523 . S
C1655 C1639 1.429 . S
C1655 C1651 1.429 . S
C1655 C1656 1.523 . S
C1656 C1640 1.368 . S
C1656 C1652 1.368 . S
C1656 C1655 1.523 . S
H1657 C1632 0.950 . S
H1658 C1634 0.950 . S
H1659 C1635 0.949 . S
H1660 C1637 0.950 . S
H1661 C1639 0.950 . S
C1662 C1663 1.349 . S
C1662 C1664 1.327 . S
C1662 H1687 0.950 . S
C1663 C1662 1.349 . S
C1663 C1679 1.349 . S
C1664 C1662 1.327 . S
C1664 C1683 1.429 . S
C1664 H1688 0.950 . S
C1665 C1682 1.574 . S
C1665 C1684 1.368 . S
C1665 H1689 0.949 . S
H1666 C1670 0.949 . S
C1667 C1668 1.349 . S
C1667 C1669 1.327 . S
C1667 H1690 0.950 . S
C1668 C1667 1.349 . S
C1668 C1680 1.349 . S
C1669 C1667 1.327 . S
C1669 C1685 1.429 . S
C1669 H1691 0.950 . S
C1670 H1666 0.949 . S
C1670 C1678 1.574 . S
C1670 C1686 1.368 . S
H1671 C1679 0.950 . S
H1672 C1677 0.950 . S
H1673 C1678 0.949 . S
H1674 C1680 0.950 . S
H1675 C1681 0.950 . S
H1676 C1682 0.949 . S
C1677 H1672 0.950 . S
C1677 C1679 1.327 . S
C1677 C1683 1.429 . S
C1678 C1670 1.574 . S
C1678 H1673 0.949 . S
C1678 C1684 1.368 . S
C1679 C1663 1.349 . S
C1679 H1671 0.950 . S
C1679 C1677 1.327 . S
C1680 C1668 1.349 . S
C1680 H1674 0.950 . S
C1680 C1681 1.327 . S
C1681 H1675 0.950 . S
C1681 C1680 1.327 . S
C1681 C1685 1.429 . S
C1682 C1665 1.574 . S
C1682 H1676 0.949 . S
C1682 C1686 1.368 . S
C1683 C1664 1.429 . S
C1683 C1677 1.429 . S
C1683 C1684 1.523 . S
C1684 C1665 1.368 . S
C1684 C1678 1.368 . S
C1684 C1683 1.523 . S
C1685 C1669 1.429 . S
C1685 C1681 1.429 . S
C1685 C1686 1.523 . S
C1686 C1670 1.368 . S
C1686 C1682 1.368 . S
C1686 C1685 1.523 . S
H1687 C1662 0.950 . S
H1688 C1664 0.950 . S
H1689 C1665 0.949 . S
H1690 C1667 0.950 . S
H1691 C1669 0.950 . S
C1692 C1693 1.349 . S
C1692 C1694 1.327 . S
C1692 H1717 0.950 . S
C1693 C1692 1.349 . S
C1693 C1709 1.349 . S
C1694 C1692 1.327 . S
C1694 C1713 1.429 . S
C1694 H1718 0.950 . S
C1695 C1712 1.574 . S
C1695 C1714 1.368 . S
C1695 H1719 0.949 . S
H1696 C1700 0.949 . S
C1697 C1698 1.349 . S
C1697 C1699 1.327 . S
C1697 H1720 0.950 . S
C1698 C1697 1.349 . S
C1698 C1710 1.349 . S
C1699 C1697 1.327 . S
C1699 C1715 1.429 . S
C1699 H1721 0.950 . S
C1700 H1696 0.949 . S
C1700 C1708 1.574 . S
C1700 C1716 1.368 . S
H1701 C1709 0.950 . S
H1702 C1707 0.950 . S
H1703 C1708 0.949 . S
H1704 C1710 0.950 . S
H1705 C1711 0.950 . S
H1706 C1712 0.949 . S
C1707 H1702 0.950 . S
C1707 C1709 1.327 . S
C1707 C1713 1.429 . S
C1708 C1700 1.574 . S
C1708 H1703 0.949 . S
C1708 C1714 1.368 . S
C1709 C1693 1.349 . S
C1709 H1701 0.950 . S
C1709 C1707 1.327 . S
C1710 C1698 1.349 . S
C1710 H1704 0.950 . S
C1710 C1711 1.327 . S
C1711 H1705 0.950 . S
C1711 C1710 1.327 . S
C1711 C1715 1.429 . S
C1712 C1695 1.574 . S
C1712 H1706 0.949 . S
C1712 C1716 1.368 . S
C1713 C1694 1.429 . S
C1713 C1707 1.429 . S
C1713 C1714 1.523 . S
C1714 C1695 1.368 . S
C1714 C1708 1.368 . S
C1714 C1713 1.523 . S
C1715 C1699 1.429 . S
C1715 C1711 1.429 . S
C1715 C1716 1.523 . S
C1716 C1700 1.368 . S
C1716 C1712 1.368 . S
C1716 C1715 1.523 . S
H1717 C1692 0.950 . S
H1718 C1694 0.950 . S
H1719 C1695 0.949 . S
H1720 C1697 0.950 . S
H1721 C1699 0.950 . S
C1722 C1723 1.349 . S
C1722 C1724 1.327 . S
C1722 H1747 0.950 . S
C1723 C1722 1.349 . S
C1723 C1739 1.349 . S
C1724 C1722 1.327 . S
C1724 C1743 1.429 . S
C1724 H1748 0.950 . S
C1725 C1742 1.574 . S
C1725 C1744 1.368 . S
C1725 H1749 0.949 . S
H1726 C1730 0.949 . S
C1727 C1728 1.349 . S
C1727 C1729 1.327 . S
C1727 H1750 0.950 . S
C1728 C1727 1.349 . S
C1728 C1740 1.349 . S
C1729 C1727 1.327 . S
C1729 C1745 1.429 . S
C1729 H1751 0.950 . S
C1730 H1726 0.949 . S
C1730 C1738 1.574 . S
C1730 C1746 1.368 . S
H1731 C1739 0.950 . S
H1732 C1737 0.950 . S
H1733 C1738 0.949 . S
H1734 C1740 0.950 . S
H1735 C1741 0.950 . S
H1736 C1742 0.949 . S
C1737 H1732 0.950 . S
C1737 C1739 1.327 . S
C1737 C1743 1.429 . S
C1738 C1730 1.574 . S
C1738 H1733 0.949 . S
C1738 C1744 1.368 . S
C1739 C1723 1.349 . S
C1739 H1731 0.950 . S
C1739 C1737 1.327 . S
C1740 C1728 1.349 . S
C1740 H1734 0.950 . S
C1740 C1741 1.327 . S
C1741 H1735 0.950 . S
C1741 C1740 1.327 . S
C1741 C1745 1.429 . S
C1742 C1725 1.574 . S
C1742 H1736 0.949 . S
C1742 C1746 1.368 . S
C1743 C1724 1.429 . S
C1743 C1737 1.429 . S
C1743 C1744 1.523 . S
C1744 C1725 1.368 . S
C1744 C1738 1.368 . S
C1744 C1743 1.523 . S
C1745 C1729 1.429 . S
C1745 C1741 1.429 . S
C1745 C1746 1.523 . S
C1746 C1730 1.368 . S
C1746 C1742 1.368 . S
C1746 C1745 1.523 . S
H1747 C1722 0.950 . S
H1748 C1724 0.950 . S
H1749 C1725 0.949 . S
H1750 C1727 0.950 . S
H1751 C1729 0.950 . S
C1752 C1753 1.349 . S
C1752 C1754 1.327 . S
C1752 H1777 0.950 . S
C1753 C1752 1.349 . S
C1753 C1769 1.349 . S
C1754 C1752 1.327 . S
C1754 C1773 1.429 . S
C1754 H1778 0.950 . S
C1755 C1772 1.574 . S
C1755 C1774 1.368 . S
C1755 H1779 0.949 . S
H1756 C1760 0.949 . S
C1757 C1758 1.349 . S
C1757 C1759 1.327 . S
C1757 H1780 0.950 . S
C1758 C1757 1.349 . S
C1758 C1770 1.349 . S
C1759 C1757 1.327 . S
C1759 C1775 1.429 . S
C1759 H1781 0.950 . S
C1760 H1756 0.949 . S
C1760 C1768 1.574 . S
C1760 C1776 1.368 . S
H1761 C1769 0.950 . S
H1762 C1767 0.950 . S
H1763 C1768 0.949 . S
H1764 C1770 0.950 . S
H1765 C1771 0.950 . S
H1766 C1772 0.949 . S
C1767 H1762 0.950 . S
C1767 C1769 1.327 . S
C1767 C1773 1.429 . S
C1768 C1760 1.574 . S
C1768 H1763 0.949 . S
C1768 C1774 1.368 . S
C1769 C1753 1.349 . S
C1769 H1761 0.950 . S
C1769 C1767 1.327 . S
C1770 C1758 1.349 . S
C1770 H1764 0.950 . S
C1770 C1771 1.327 . S
C1771 H1765 0.950 . S
C1771 C1770 1.327 . S
C1771 C1775 1.429 . S
C1772 C1755 1.574 . S
C1772 H1766 0.949 . S
C1772 C1776 1.368 . S
C1773 C1754 1.429 . S
C1773 C1767 1.429 . S
C1773 C1774 1.523 . S
C1774 C1755 1.368 . S
C1774 C1768 1.368 . S
C1774 C1773 1.523 . S
C1775 C1759 1.429 . S
C1775 C1771 1.429 . S
C1775 C1776 1.523 . S
C1776 C1760 1.368 . S
C1776 C1772 1.368 . S
C1776 C1775 1.523 . S
H1777 C1752 0.950 . S
H1778 C1754 0.950 . S
H1779 C1755 0.949 . S
H1780 C1757 0.950 . S
H1781 C1759 0.950 . S
C1782 C1783 1.349 . S
C1782 C1784 1.327 . S
C1782 H1807 0.950 . S
C1783 C1782 1.349 . S
C1783 C1799 1.349 . S
C1784 C1782 1.327 . S
C1784 C1803 1.429 . S
C1784 H1808 0.950 . S
C1785 C1802 1.574 . S
C1785 C1804 1.368 . S
C1785 H1809 0.949 . S
H1786 C1790 0.949 . S
C1787 C1788 1.349 . S
C1787 C1789 1.327 . S
C1787 H1810 0.950 . S
C1788 C1787 1.349 . S
C1788 C1800 1.349 . S
C1789 C1787 1.327 . S
C1789 C1805 1.429 . S
C1789 H1811 0.950 . S
C1790 H1786 0.949 . S
C1790 C1798 1.574 . S
C1790 C1806 1.368 . S
H1791 C1799 0.950 . S
H1792 C1797 0.950 . S
H1793 C1798 0.949 . S
H1794 C1800 0.950 . S
H1795 C1801 0.950 . S
H1796 C1802 0.949 . S
C1797 H1792 0.950 . S
C1797 C1799 1.327 . S
C1797 C1803 1.429 . S
C1798 C1790 1.574 . S
C1798 H1793 0.949 . S
C1798 C1804 1.368 . S
C1799 C1783 1.349 . S
C1799 H1791 0.950 . S
C1799 C1797 1.327 . S
C1800 C1788 1.349 . S
C1800 H1794 0.950 . S
C1800 C1801 1.327 . S
C1801 H1795 0.950 . S
C1801 C1800 1.327 . S
C1801 C1805 1.429 . S
C1802 C1785 1.574 . S
C1802 H1796 0.949 . S
C1802 C1806 1.368 . S
C1803 C1784 1.429 . S
C1803 C1797 1.429 . S
C1803 C1804 1.523 . S
C1804 C1785 1.368 . S
C1804 C1798 1.368 . S
C1804 C1803 1.523 . S
C1805 C1789 1.429 . S
C1805 C1801 1.429 . S
C1805 C1806 1.523 . S
C1806 C1790 1.368 . S
C1806 C1802 1.368 . S
C1806 C1805 1.523 . S
H1807 C1782 0.950 . S
H1808 C1784 0.950 . S
H1809 C1785 0.949 . S
H1810 C1787 0.950 . S
H1811 C1789 0.950 . S
C1812 C1813 1.349 . S
C1812 C1814 1.327 . S
C1812 H1837 0.950 . S
C1813 C1812 1.349 . S
C1813 C1829 1.349 . S
C1814 C1812 1.327 . S
C1814 C1833 1.429 . S
C1814 H1838 0.950 . S
C1815 C1832 1.574 . S
C1815 C1834 1.368 . S
C1815 H1839 0.949 . S
H1816 C1820 0.949 . S
C1817 C1818 1.349 . S
C1817 C1819 1.327 . S
C1817 H1840 0.950 . S
C1818 C1817 1.349 . S
C1818 C1830 1.349 . S
C1819 C1817 1.327 . S
C1819 C1835 1.429 . S
C1819 H1841 0.950 . S
C1820 H1816 0.949 . S
C1820 C1828 1.574 . S
C1820 C1836 1.368 . S
H1821 C1829 0.950 . S
H1822 C1827 0.950 . S
H1823 C1828 0.949 . S
H1824 C1830 0.950 . S
H1825 C1831 0.950 . S
H1826 C1832 0.949 . S
C1827 H1822 0.950 . S
C1827 C1829 1.327 . S
C1827 C1833 1.429 . S
C1828 C1820 1.574 . S
C1828 H1823 0.949 . S
C1828 C1834 1.368 . S
C1829 C1813 1.349 . S
C1829 H1821 0.950 . S
C1829 C1827 1.327 . S
C1830 C1818 1.349 . S
C1830 H1824 0.950 . S
C1830 C1831 1.327 . S
C1831 H1825 0.950 . S
C1831 C1830 1.327 . S
C1831 C1835 1.429 . S
C1832 C1815 1.574 . S
C1832 H1826 0.949 . S
C1832 C1836 1.368 . S
C1833 C1814 1.429 . S
C1833 C1827 1.429 . S
C1833 C1834 1.523 . S
C1834 C1815 1.368 . S
C1834 C1828 1.368 . S
C1834 C1833 1.523 . S
C1835 C1819 1.429 . S
C1835 C1831 1.429 . S
C1835 C1836 1.523 . S
C1836 C1820 1.368 . S
C1836 C1832 1.368 . S
C1836 C1835 1.523 . S
H1837 C1812 0.950 . S
H1838 C1814 0.950 . S
H1839 C1815 0.949 . S
H1840 C1817 0.950 . S
H1841 C1819 0.950 . S
C1842 C1843 1.349 . S
C1842 C1844 1.327 . S
C1842 H1867 0.950 . S
C1843 C1842 1.349 . S
C1843 C1859 1.349 . S
C1844 C1842 1.327 . S
C1844 C1863 1.429 . S
C1844 H1868 0.950 . S
C1845 C1862 1.574 . S
C1845 C1864 1.368 . S
C1845 H1869 0.949 . S
H1846 C1850 0.949 . S
C1847 C1848 1.349 . S
C1847 C1849 1.327 . S
C1847 H1870 0.950 . S
C1848 C1847 1.349 . S
C1848 C1860 1.349 . S
C1849 C1847 1.327 . S
C1849 C1865 1.429 . S
C1849 H1871 0.950 . S
C1850 H1846 0.949 . S
C1850 C1858 1.574 . S
C1850 C1866 1.368 . S
H1851 C1859 0.950 . S
H1852 C1857 0.950 . S
H1853 C1858 0.949 . S
H1854 C1860 0.950 . S
H1855 C1861 0.950 . S
H1856 C1862 0.949 . S
C1857 H1852 0.950 . S
C1857 C1859 1.327 . S
C1857 C1863 1.429 . S
C1858 C1850 1.574 . S
C1858 H1853 0.949 . S
C1858 C1864 1.368 . S
C1859 C1843 1.349 . S
C1859 H1851 0.950 . S
C1859 C1857 1.327 . S
C1860 C1848 1.349 . S
C1860 H1854 0.950 . S
C1860 C1861 1.327 . S
C1861 H1855 0.950 . S
C1861 C1860 1.327 . S
C1861 C1865 1.429 . S
C1862 C1845 1.574 . S
C1862 H1856 0.949 . S
C1862 C1866 1.368 . S
C1863 C1844 1.429 . S
C1863 C1857 1.429 . S
C1863 C1864 1.523 . S
C1864 C1845 1.368 . S
C1864 C1858 1.368 . S
C1864 C1863 1.523 . S
C1865 C1849 1.429 . S
C1865 C1861 1.429 . S
C1865 C1866 1.523 . S
C1866 C1850 1.368 . S
C1866 C1862 1.368 . S
C1866 C1865 1.523 . S
H1867 C1842 0.950 . S
H1868 C1844 0.950 . S
H1869 C1845 0.949 . S
H1870 C1847 0.950 . S
H1871 C1849 0.950 . S
C1872 C1873 1.349 . S
C1872 C1874 1.327 . S
C1872 H1897 0.950 . S
C1873 C1872 1.349 . S
C1873 C1889 1.349 . S
C1874 C1872 1.327 . S
C1874 C1893 1.429 . S
C1874 H1898 0.950 . S
C1875 C1892 1.574 . S
C1875 C1894 1.368 . S
C1875 H1899 0.949 . S
H1876 C1880 0.949 . S
C1877 C1878 1.349 . S
C1877 C1879 1.327 . S
C1877 H1900 0.950 . S
C1878 C1877 1.349 . S
C1878 C1890 1.349 . S
C1879 C1877 1.327 . S
C1879 C1895 1.429 . S
C1879 H1901 0.950 . S
C1880 H1876 0.949 . S
C1880 C1888 1.574 . S
C1880 C1896 1.368 . S
H1881 C1889 0.950 . S
H1882 C1887 0.950 . S
H1883 C1888 0.949 . S
H1884 C1890 0.950 . S
H1885 C1891 0.950 . S
H1886 C1892 0.949 . S
C1887 H1882 0.950 . S
C1887 C1889 1.327 . S
C1887 C1893 1.429 . S
C1888 C1880 1.574 . S
C1888 H1883 0.949 . S
C1888 C1894 1.368 . S
C1889 C1873 1.349 . S
C1889 H1881 0.950 . S
C1889 C1887 1.327 . S
C1890 C1878 1.349 . S
C1890 H1884 0.950 . S
C1890 C1891 1.327 . S
C1891 H1885 0.950 . S
C1891 C1890 1.327 . S
C1891 C1895 1.429 . S
C1892 C1875 1.574 . S
C1892 H1886 0.949 . S
C1892 C1896 1.368 . S
C1893 C1874 1.429 . S
C1893 C1887 1.429 . S
C1893 C1894 1.523 . S
C1894 C1875 1.368 . S
C1894 C1888 1.368 . S
C1894 C1893 1.523 . S
C1895 C1879 1.429 . S
C1895 C1891 1.429 . S
C1895 C1896 1.523 . S
C1896 C1880 1.368 . S
C1896 C1892 1.368 . S
C1896 C1895 1.523 . S
H1897 C1872 0.950 . S
H1898 C1874 0.950 . S
H1899 C1875 0.949 . S
H1900 C1877 0.950 . S
H1901 C1879 0.950 . S
C1902 C1903 1.349 . S
C1902 C1904 1.327 . S
C1902 H1927 0.950 . S
C1903 C1902 1.349 . S
C1903 C1919 1.349 . S
C1904 C1902 1.327 . S
C1904 C1923 1.429 . S
C1904 H1928 0.950 . S
C1905 C1922 1.574 . S
C1905 C1924 1.368 . S
C1905 H1929 0.949 . S
H1906 C1910 0.949 . S
C1907 C1908 1.349 . S
C1907 C1909 1.327 . S
C1907 H1930 0.950 . S
C1908 C1907 1.349 . S
C1908 C1920 1.349 . S
C1909 C1907 1.327 . S
C1909 C1925 1.429 . S
C1909 H1931 0.950 . S
C1910 H1906 0.949 . S
C1910 C1918 1.574 . S
C1910 C1926 1.368 . S
H1911 C1919 0.950 . S
H1912 C1917 0.950 . S
H1913 C1918 0.949 . S
H1914 C1920 0.950 . S
H1915 C1921 0.950 . S
H1916 C1922 0.949 . S
C1917 H1912 0.950 . S
C1917 C1919 1.327 . S
C1917 C1923 1.429 . S
C1918 C1910 1.574 . S
C1918 H1913 0.949 . S
C1918 C1924 1.368 . S
C1919 C1903 1.349 . S
C1919 H1911 0.950 . S
C1919 C1917 1.327 . S
C1920 C1908 1.349 . S
C1920 H1914 0.950 . S
C1920 C1921 1.327 . S
C1921 H1915 0.950 . S
C1921 C1920 1.327 . S
C1921 C1925 1.429 . S
C1922 C1905 1.574 . S
C1922 H1916 0.949 . S
C1922 C1926 1.368 . S
C1923 C1904 1.429 . S
C1923 C1917 1.429 . S
C1923 C1924 1.523 . S
C1924 C1905 1.368 . S
C1924 C1918 1.368 . S
C1924 C1923 1.523 . S
C1925 C1909 1.429 . S
C1925 C1921 1.429 . S
C1925 C1926 1.523 . S
C1926 C1910 1.368 . S
C1926 C1922 1.368 . S
C1926 C1925 1.523 . S
H1927 C1902 0.950 . S
H1928 C1904 0.950 . S
H1929 C1905 0.949 . S
H1930 C1907 0.950 . S
H1931 C1909 0.950 . S
C1932 C1933 1.349 . S
C1932 C1934 1.327 . S
C1932 H1957 0.950 . S
C1933 C1932 1.349 . S
C1933 C1949 1.349 . S
C1934 C1932 1.327 . S
C1934 C1953 1.429 . S
C1934 H1958 0.950 . S
C1935 C1952 1.574 . S
C1935 C1954 1.368 . S
C1935 H1959 0.949 . S
H1936 C1940 0.949 . S
C1937 C1938 1.349 . S
C1937 C1939 1.327 . S
C1937 H1960 0.950 . S
C1938 C1937 1.349 . S
C1938 C1950 1.349 . S
C1939 C1937 1.327 . S
C1939 C1955 1.429 . S
C1939 H1961 0.950 . S
C1940 H1936 0.949 . S
C1940 C1948 1.574 . S
C1940 C1956 1.368 . S
H1941 C1949 0.950 . S
H1942 C1947 0.950 . S
H1943 C1948 0.949 . S
H1944 C1950 0.950 . S
H1945 C1951 0.950 . S
H1946 C1952 0.949 . S
C1947 H1942 0.950 . S
C1947 C1949 1.327 . S
C1947 C1953 1.429 . S
C1948 C1940 1.574 . S
C1948 H1943 0.949 . S
C1948 C1954 1.368 . S
C1949 C1933 1.349 . S
C1949 H1941 0.950 . S
C1949 C1947 1.327 . S
C1950 C1938 1.349 . S
C1950 H1944 0.950 . S
C1950 C1951 1.327 . S
C1951 H1945 0.950 . S
C1951 C1950 1.327 . S
C1951 C1955 1.429 . S
C1952 C1935 1.574 . S
C1952 H1946 0.949 . S
C1952 C1956 1.368 . S
C1953 C1934 1.429 . S
C1953 C1947 1.429 . S
C1953 C1954 1.523 . S
C1954 C1935 1.368 . S
C1954 C1948 1.368 . S
C1954 C1953 1.523 . S
C1955 C1939 1.429 . S
C1955 C1951 1.429 . S
C1955 C1956 1.523 . S
C1956 C1940 1.368 . S
C1956 C1952 1.368 . S
C1956 C1955 1.523 . S
H1957 C1932 0.950 . S
H1958 C1934 0.950 . S
H1959 C1935 0.949 . S
H1960 C1937 0.950 . S
H1961 C1939 0.950 . S
C1962 C1963 1.349 . S
C1962 C1964 1.327 . S
C1962 H1987 0.950 . S
C1963 C1962 1.349 . S
C1963 C1979 1.349 . S
C1964 C1962 1.327 . S
C1964 C1983 1.429 . S
C1964 H1988 0.950 . S
C1965 C1982 1.574 . S
C1965 C1984 1.368 . S
C1965 H1989 0.949 . S
H1966 C1970 0.949 . S
C1967 C1968 1.349 . S
C1967 C1969 1.327 . S
C1967 H1990 0.950 . S
C1968 C1967 1.349 . S
C1968 C1980 1.349 . S
C1969 C1967 1.327 . S
C1969 C1985 1.429 . S
C1969 H1991 0.950 . S
C1970 H1966 0.949 . S
C1970 C1978 1.574 . S
C1970 C1986 1.368 . S
H1971 C1979 0.950 . S
H1972 C1977 0.950 . S
H1973 C1978 0.949 . S
H1974 C1980 0.950 . S
H1975 C1981 0.950 . S
H1976 C1982 0.949 . S
C1977 H1972 0.950 . S
C1977 C1979 1.327 . S
C1977 C1983 1.429 . S
C1978 C1970 1.574 . S
C1978 H1973 0.949 . S
C1978 C1984 1.368 . S
C1979 C1963 1.349 . S
C1979 H1971 0.950 . S
C1979 C1977 1.327 . S
C1980 C1968 1.349 . S
C1980 H1974 0.950 . S
C1980 C1981 1.327 . S
C1981 H1975 0.950 . S
C1981 C1980 1.327 . S
C1981 C1985 1.429 . S
C1982 C1965 1.574 . S
C1982 H1976 0.949 . S
C1982 C1986 1.368 . S
C1983 C1964 1.429 . S
C1983 C1977 1.429 . S
C1983 C1984 1.523 . S
C1984 C1965 1.368 . S
C1984 C1978 1.368 . S
C1984 C1983 1.523 . S
C1985 C1969 1.429 . S
C1985 C1981 1.429 . S
C1985 C1986 1.523 . S
C1986 C1970 1.368 . S
C1986 C1982 1.368 . S
C1986 C1985 1.523 . S
H1987 C1962 0.950 . S
H1988 C1964 0.950 . S
H1989 C1965 0.949 . S
H1990 C1967 0.950 . S
H1991 C1969 0.950 . S
C1992 C1993 1.349 . S
C1992 C1994 1.327 . S
C1992 H2017 0.950 . S
C1993 C1992 1.349 . S
C1993 C2009 1.349 . S
C1994 C1992 1.327 . S
C1994 C2013 1.429 . S
C1994 H2018 0.950 . S
C1995 C2012 1.574 . S
C1995 C2014 1.368 . S
C1995 H2019 0.949 . S
H1996 C2000 0.949 . S
C1997 C1998 1.349 . S
C1997 C1999 1.327 . S
C1997 H2020 0.950 . S
C1998 C1997 1.349 . S
C1998 C2010 1.349 . S
C1999 C1997 1.327 . S
C1999 C2015 1.429 . S
C1999 H2021 0.950 . S
C2000 H1996 0.949 . S
C2000 C2008 1.574 . S
C2000 C2016 1.368 . S
H2001 C2009 0.950 . S
H2002 C2007 0.950 . S
H2003 C2008 0.949 . S
H2004 C2010 0.950 . S
H2005 C2011 0.950 . S
H2006 C2012 0.949 . S
C2007 H2002 0.950 . S
C2007 C2009 1.327 . S
C2007 C2013 1.429 . S
C2008 C2000 1.574 . S
C2008 H2003 0.949 . S
C2008 C2014 1.368 . S
C2009 C1993 1.349 . S
C2009 H2001 0.950 . S
C2009 C2007 1.327 . S
C2010 C1998 1.349 . S
C2010 H2004 0.950 . S
C2010 C2011 1.327 . S
C2011 H2005 0.950 . S
C2011 C2010 1.327 . S
C2011 C2015 1.429 . S
C2012 C1995 1.574 . S
C2012 H2006 0.949 . S
C2012 C2016 1.368 . S
C2013 C1994 1.429 . S
C2013 C2007 1.429 . S
C2013 C2014 1.523 . S
C2014 C1995 1.368 . S
C2014 C2008 1.368 . S
C2014 C2013 1.523 . S
C2015 C1999 1.429 . S
C2015 C2011 1.429 . S
C2015 C2016 1.523 . S
C2016 C2000 1.368 . S
C2016 C2012 1.368 . S
C2016 C2015 1.523 . S
H2017 C1992 0.950 . S
H2018 C1994 0.950 . S
H2019 C1995 0.949 . S
H2020 C1997 0.950 . S
H2021 C1999 0.950 . S
C2022 C2023 1.349 . S
C2022 C2024 1.327 . S
C2022 H2047 0.950 . S
C2023 C2022 1.349 . S
C2023 C2039 1.349 . S
C2024 C2022 1.327 . S
C2024 C2043 1.429 . S
C2024 H2048 0.950 . S
C2025 C2042 1.574 . S
C2025 C2044 1.368 . S
C2025 H2049 0.949 . S
H2026 C2030 0.949 . S
C2027 C2028 1.349 . S
C2027 C2029 1.327 . S
C2027 H2050 0.950 . S
C2028 C2027 1.349 . S
C2028 C2040 1.349 . S
C2029 C2027 1.327 . S
C2029 C2045 1.429 . S
C2029 H2051 0.950 . S
C2030 H2026 0.949 . S
C2030 C2038 1.574 . S
C2030 C2046 1.368 . S
H2031 C2039 0.950 . S
H2032 C2037 0.950 . S
H2033 C2038 0.949 . S
H2034 C2040 0.950 . S
H2035 C2041 0.950 . S
H2036 C2042 0.949 . S
C2037 H2032 0.950 . S
C2037 C2039 1.327 . S
C2037 C2043 1.429 . S
C2038 C2030 1.574 . S
C2038 H2033 0.949 . S
C2038 C2044 1.368 . S
C2039 C2023 1.349 . S
C2039 H2031 0.950 . S
C2039 C2037 1.327 . S
C2040 C2028 1.349 . S
C2040 H2034 0.950 . S
C2040 C2041 1.327 . S
C2041 H2035 0.950 . S
C2041 C2040 1.327 . S
C2041 C2045 1.429 . S
C2042 C2025 1.574 . S
C2042 H2036 0.949 . S
C2042 C2046 1.368 . S
C2043 C2024 1.429 . S
C2043 C2037 1.429 . S
C2043 C2044 1.523 . S
C2044 C2025 1.368 . S
C2044 C2038 1.368 . S
C2044 C2043 1.523 . S
C2045 C2029 1.429 . S
C2045 C2041 1.429 . S
C2045 C2046 1.523 . S
C2046 C2030 1.368 . S
C2046 C2042 1.368 . S
C2046 C2045 1.523 . S
H2047 C2022 0.950 . S
H2048 C2024 0.950 . S
H2049 C2025 0.949 . S
H2050 C2027 0.950 . S
H2051 C2029 0.950 . S
C2052 C2053 1.349 . S
C2052 C2054 1.327 . S
C2052 H2077 0.950 . S
C2053 C2052 1.349 . S
C2053 C2069 1.349 . S
C2054 C2052 1.327 . S
C2054 C2073 1.429 . S
C2054 H2078 0.950 . S
C2055 C2072 1.574 . S
C2055 C2074 1.368 . S
C2055 H2079 0.949 . S
H2056 C2060 0.949 . S
C2057 C2058 1.349 . S
C2057 C2059 1.327 . S
C2057 H2080 0.950 . S
C2058 C2057 1.349 . S
C2058 C2070 1.349 . S
C2059 C2057 1.327 . S
C2059 C2075 1.429 . S
C2059 H2081 0.950 . S
C2060 H2056 0.949 . S
C2060 C2068 1.574 . S
C2060 C2076 1.368 . S
H2061 C2069 0.950 . S
H2062 C2067 0.950 . S
H2063 C2068 0.949 . S
H2064 C2070 0.950 . S
H2065 C2071 0.950 . S
H2066 C2072 0.949 . S
C2067 H2062 0.950 . S
C2067 C2069 1.327 . S
C2067 C2073 1.429 . S
C2068 C2060 1.574 . S
C2068 H2063 0.949 . S
C2068 C2074 1.368 . S
C2069 C2053 1.349 . S
C2069 H2061 0.950 . S
C2069 C2067 1.327 . S
C2070 C2058 1.349 . S
C2070 H2064 0.950 . S
C2070 C2071 1.327 . S
C2071 H2065 0.950 . S
C2071 C2070 1.327 . S
C2071 C2075 1.429 . S
C2072 C2055 1.574 . S
C2072 H2066 0.949 . S
C2072 C2076 1.368 . S
C2073 C2054 1.429 . S
C2073 C2067 1.429 . S
C2073 C2074 1.523 . S
C2074 C2055 1.368 . S
C2074 C2068 1.368 . S
C2074 C2073 1.523 . S
C2075 C2059 1.429 . S
C2075 C2071 1.429 . S
C2075 C2076 1.523 . S
C2076 C2060 1.368 . S
C2076 C2072 1.368 . S
C2076 C2075 1.523 . S
H2077 C2052 0.950 . S
H2078 C2054 0.950 . S
H2079 C2055 0.949 . S
H2080 C2057 0.950 . S
H2081 C2059 0.950 . S
C2082 C2083 1.349 . S
C2082 C2084 1.327 . S
C2082 H2107 0.950 . S
C2083 C2082 1.349 . S
C2083 C2099 1.349 . S
C2084 C2082 1.327 . S
C2084 C2103 1.429 . S
C2084 H2108 0.950 . S
C2085 C2102 1.574 . S
C2085 C2104 1.368 . S
C2085 H2109 0.949 . S
H2086 C2090 0.949 . S
C2087 C2088 1.349 . S
C2087 C2089 1.327 . S
C2087 H2110 0.950 . S
C2088 C2087 1.349 . S
C2088 C2100 1.349 . S
C2089 C2087 1.327 . S
C2089 C2105 1.429 . S
C2089 H2111 0.950 . S
C2090 H2086 0.949 . S
C2090 C2098 1.574 . S
C2090 C2106 1.368 . S
H2091 C2099 0.950 . S
H2092 C2097 0.950 . S
H2093 C2098 0.949 . S
H2094 C2100 0.950 . S
H2095 C2101 0.950 . S
H2096 C2102 0.949 . S
C2097 H2092 0.950 . S
C2097 C2099 1.327 . S
C2097 C2103 1.429 . S
C2098 C2090 1.574 . S
C2098 H2093 0.949 . S
C2098 C2104 1.368 . S
C2099 C2083 1.349 . S
C2099 H2091 0.950 . S
C2099 C2097 1.327 . S
C2100 C2088 1.349 . S
C2100 H2094 0.950 . S
C2100 C2101 1.327 . S
C2101 H2095 0.950 . S
C2101 C2100 1.327 . S
C2101 C2105 1.429 . S
C2102 C2085 1.574 . S
C2102 H2096 0.949 . S
C2102 C2106 1.368 . S
C2103 C2084 1.429 . S
C2103 C2097 1.429 . S
C2103 C2104 1.523 . S
C2104 C2085 1.368 . S
C2104 C2098 1.368 . S
C2104 C2103 1.523 . S
C2105 C2089 1.429 . S
C2105 C2101 1.429 . S
C2105 C2106 1.523 . S
C2106 C2090 1.368 . S
C2106 C2102 1.368 . S
C2106 C2105 1.523 . S
H2107 C2082 0.950 . S
H2108 C2084 0.950 . S
H2109 C2085 0.949 . S
H2110 C2087 0.950 . S
H2111 C2089 0.950 . S
C2112 C2113 1.349 . S
C2112 C2114 1.327 . S
C2112 H2137 0.950 . S
C2113 C2112 1.349 . S
C2113 C2129 1.349 . S
C2114 C2112 1.327 . S
C2114 C2133 1.429 . S
C2114 H2138 0.950 . S
C2115 C2132 1.574 . S
C2115 C2134 1.368 . S
C2115 H2139 0.949 . S
H2116 C2120 0.949 . S
C2117 C2118 1.349 . S
C2117 C2119 1.327 . S
C2117 H2140 0.950 . S
C2118 C2117 1.349 . S
C2118 C2130 1.349 . S
C2119 C2117 1.327 . S
C2119 C2135 1.429 . S
C2119 H2141 0.950 . S
C2120 H2116 0.949 . S
C2120 C2128 1.574 . S
C2120 C2136 1.368 . S
H2121 C2129 0.950 . S
H2122 C2127 0.950 . S
H2123 C2128 0.949 . S
H2124 C2130 0.950 . S
H2125 C2131 0.950 . S
H2126 C2132 0.949 . S
C2127 H2122 0.950 . S
C2127 C2129 1.327 . S
C2127 C2133 1.429 . S
C2128 C2120 1.574 . S
C2128 H2123 0.949 . S
C2128 C2134 1.368 . S
C2129 C2113 1.349 . S
C2129 H2121 0.950 . S
C2129 C2127 1.327 . S
C2130 C2118 1.349 . S
C2130 H2124 0.950 . S
C2130 C2131 1.327 . S
C2131 H2125 0.950 . S
C2131 C2130 1.327 . S
C2131 C2135 1.429 . S
C2132 C2115 1.574 . S
C2132 H2126 0.949 . S
C2132 C2136 1.368 . S
C2133 C2114 1.429 . S
C2133 C2127 1.429 . S
C2133 C2134 1.523 . S
C2134 C2115 1.368 . S
C2134 C2128 1.368 . S
C2134 C2133 1.523 . S
C2135 C2119 1.429 . S
C2135 C2131 1.429 . S
C2135 C2136 1.523 . S
C2136 C2120 1.368 . S
C2136 C2132 1.368 . S
C2136 C2135 1.523 . S
H2137 C2112 0.950 . S
H2138 C2114 0.950 . S
H2139 C2115 0.949 . S
H2140 C2117 0.950 . S
H2141 C2119 0.950 . S
C523 C253 1.606 . S
C528 C348 1.591 . S
C553 C272 1.573 . S
C558 C368 1.550 . S
C583 C234 1.531 . S
C588 C391 1.544 . S
C613 C215 1.401 . S
C618 C371 1.409 1_556 S
C648 C388 1.440 1_556 S
C643 C177 1.457 . S
C673 C196 1.455 . S
C678 C351 1.464 . S
C708 C358 1.591 1_556 S
C703 C220 1.500 . S
C738 C378 1.449 . S
C733 C182 1.398 . S
C763 C201 1.550 . S
C768 C383 1.643 . S
C793 C258 1.402 . S
C798 C363 1.488 . S
C823 C277 1.337 . S
C828 C398 1.413 . S
C858 C343 1.591 . S
C853 C239 1.486 . S
C888 C408 1.591 . S
C883 C25 1.606 . S
C913 C44 1.573 . S
C918 C428 1.550 . S
C943 C6 1.531 . S
C948 C451 1.544 . S
C973 C329 1.401 . S
C978 C431 1.408 . S
C1003 C291 1.457 . S
C1008 C448 1.440 . S
C1033 C310 1.455 . S
C1038 C411 1.464 . S
C1063 C334 1.500 . S
C1068 C418 1.591 . S
C1093 C296 1.398 . S
C1098 C438 1.450 . S
C1128 C443 1.643 . S
C1123 C315 1.550 . S
C1153 C30 1.402 . S
C1158 C423 1.489 . S
C1188 C458 1.413 . S
C1183 C49 1.337 . S
C1213 C11 1.486 . S
C1218 C403 1.591 . S
C1248 C468 1.591 . S
C1243 C139 1.606 . S
C1273 C158 1.573 . S
C1278 C488 1.550 . S
C1308 C511 1.544 . S
C1303 C120 1.531 . S
C1338 C491 1.408 . S
C1333 C101 1.401 . S
C1368 C508 1.440 . S
C1363 C63 1.457 . S
C1393 C82 1.455 . S
C1398 C471 1.464 . S
C1423 C106 1.500 . S
C1428 C478 1.591 . S
C1453 C68 1.398 . S
C1458 C498 1.449 . S
C1488 C503 1.643 . S
C1483 C87 1.550 . S
C1513 C144 1.402 . S
C1518 C483 1.489 . S
C1543 C163 1.337 . S
C1548 C518 1.413 . S
C1573 C125 1.486 . S
C1578 C463 1.591 . S
C1603 C287 1.360 . S
C1608 C361 1.305 . S
C1638 C381 1.776 . S
C1633 C306 1.867 . S
C1663 C325 1.566 . S
C1668 C390 1.545 . S
C1693 C116 1.789 . S
C1698 C370 1.751 . S
C1723 C135 1.697 . S
C1728 C401 1.622 . S
C1758 C350 1.295 . S
C1753 C154 1.307 . S
C1783 C59 1.360 . S
C1788 C421 1.305 . S
C1813 C78 1.867 . S
C1818 C441 1.777 . S
C1843 C97 1.566 . S
C1848 C450 1.545 . S
C1873 C230 1.790 . S
C1878 C430 1.752 . S
C1908 C461 1.622 . S
C1903 C249 1.697 . S
C1933 C268 1.307 . S
C1938 C410 1.295 . S
C1963 C173 1.360 . S
C1968 C481 1.305 . S
C1993 C192 1.867 . S
C1998 C501 1.776 . S
C2028 C510 1.545 . S
C2023 C211 1.566 . S
C2053 C2 1.789 . S
C2058 C490 1.751 . S
C2083 C21 1.697 . S
C2088 C521 1.622 . S
C2113 C40 1.307 . S
C2118 C470 1.295 . S
