# Generated by pormake.
# Topology zzz, (3,6)-cn, num edge types: 1
# Building blocks:
#     Node 0, Type 0, BuildingBlock: BETDIP_clean_linker_0, # of connection points: 3
#     Node 1, Type 0, BuildingBlock: BETDIP_clean_linker_0, # of connection points: 3
#     Node 2, Type 0, BuildingBlock: BETDIP_clean_linker_0, # of connection points: 3
#     Node 3, Type 0, BuildingBlock: BETDIP_clean_linker_0, # of connection points: 3
#     Node 4, Type 0, BuildingBlock: BETDIP_clean_linker_0, # of connection points: 3
#     Node 5, Type 0, BuildingBlock: BETDIP_clean_linker_0, # of connection points: 3
#     Node 6, Type 0, BuildingBlock: BETDIP_clean_linker_0, # of connection points: 3
#     Node 7, Type 0, BuildingBlock: BETDIP_clean_linker_0, # of connection points: 3
#     Node 8, Type 1, BuildingBlock: JUFBIX_clean_sbu_0, # of connection points: 6
#     Node 9, Type 1, BuildingBlock: JUFBIX_clean_sbu_0, # of connection points: 6
#     Node 10, Type 1, BuildingBlock: JUFBIX_clean_sbu_0, # of connection points: 6
#     Node 11, Type 1, BuildingBlock: JUFBIX_clean_sbu_0, # of connection points: 6
#     Edge 12, Type (0, 1), BuildingBlock: EYOCIG_clean_linker_4, # of connection points: 2
#     Edge 13, Type (0, 1), BuildingBlock: EYOCIG_clean_linker_4, # of connection points: 2
#     Edge 14, Type (0, 1), BuildingBlock: EYOCIG_clean_linker_4, # of connection points: 2
#     Edge 15, Type (0, 1), BuildingBlock: EYOCIG_clean_linker_4, # of connection points: 2
#     Edge 16, Type (0, 1), BuildingBlock: EYOCIG_clean_linker_4, # of connection points: 2
#     Edge 17, Type (0, 1), BuildingBlock: EYOCIG_clean_linker_4, # of connection points: 2
#     Edge 18, Type (0, 1), BuildingBlock: EYOCIG_clean_linker_4, # of connection points: 2
#     Edge 19, Type (0, 1), BuildingBlock: EYOCIG_clean_linker_4, # of connection points: 2
#     Edge 20, Type (0, 1), BuildingBlock: EYOCIG_clean_linker_4, # of connection points: 2
#     Edge 21, Type (0, 1), BuildingBlock: EYOCIG_clean_linker_4, # of connection points: 2
#     Edge 22, Type (0, 1), BuildingBlock: EYOCIG_clean_linker_4, # of connection points: 2
#     Edge 23, Type (0, 1), BuildingBlock: EYOCIG_clean_linker_4, # of connection points: 2
#     Edge 24, Type (0, 1), BuildingBlock: EYOCIG_clean_linker_4, # of connection points: 2
#     Edge 25, Type (0, 1), BuildingBlock: EYOCIG_clean_linker_4, # of connection points: 2
#     Edge 26, Type (0, 1), BuildingBlock: EYOCIG_clean_linker_4, # of connection points: 2
#     Edge 27, Type (0, 1), BuildingBlock: EYOCIG_clean_linker_4, # of connection points: 2
#     Edge 28, Type (0, 1), BuildingBlock: EYOCIG_clean_linker_4, # of connection points: 2
#     Edge 29, Type (0, 1), BuildingBlock: EYOCIG_clean_linker_4, # of connection points: 2
#     Edge 30, Type (0, 1), BuildingBlock: EYOCIG_clean_linker_4, # of connection points: 2
#     Edge 31, Type (0, 1), BuildingBlock: EYOCIG_clean_linker_4, # of connection points: 2
#     Edge 32, Type (0, 1), BuildingBlock: EYOCIG_clean_linker_4, # of connection points: 2
#     Edge 33, Type (0, 1), BuildingBlock: EYOCIG_clean_linker_4, # of connection points: 2
#     Edge 34, Type (0, 1), BuildingBlock: EYOCIG_clean_linker_4, # of connection points: 2
#     Edge 35, Type (0, 1), BuildingBlock: EYOCIG_clean_linker_4, # of connection points: 2
# Relax obj value: 0.114
# Max RMSD: 0.173
# Mean RMSD: 0.084
data_MOF--net-zzz--node1-JUFBIX_clean_sbu_0--node2-BETDIP_clean_linker_0--edge1-EYOCIG_clean_linker_4
_symmetry_space_group_name_H-M    P1
_symmetry_Int_Tables_number       1
_symmetry_cell_setting            triclinic
loop_
_symmetry_equiv_pos_as_xyz
'x, y, z'
_cell_length_a     41.880593
_cell_length_b     41.31131
_cell_length_c     13.972051
_cell_angle_alpha  79.078159
_cell_angle_beta   90.002304
_cell_angle_gamma 91.195512
loop_
_atom_site_label
_atom_site_type_symbol
_atom_site_fract_x
_atom_site_fract_y
_atom_site_fract_z
_atom_type_partial_charge
H0 H 0.81987 0.5471 0.41175 0.0
H1 H 0.82874 0.50725 0.14875 0.0
H2 H 0.90973 0.50987 0.3347 0.0
H3 H 0.7937 0.55246 0.09761 0.0
C4 C 0.77675 0.54468 0.15673 0.0
C5 C 0.83407 0.53578 0.36275 0.0
C6 C 0.86649 0.52917 0.38321 0.0
C7 C 0.82029 0.52851 0.27688 0.0
C8 C 0.83898 0.51354 0.21423 0.0
C9 C 0.87102 0.50676 0.23576 0.0
C10 C 0.88465 0.51469 0.31953 0.0
N11 N 0.78774 0.53599 0.25447 0.0
H12 H 0.95426 0.76768 0.42424 0.0
H13 H 0.99266 0.77655 0.13304 0.0
H14 H 0.99743 0.8592 0.27743 0.0
H15 H 0.93906 0.74281 0.1366 0.0
C16 C 0.95132 0.72503 0.19067 0.0
C17 C 0.96602 0.78221 0.36084 0.0
C18 C 0.97506 0.81532 0.36003 0.0
C19 C 0.97173 0.76818 0.27784 0.0
C20 C 0.98747 0.78715 0.19645 0.0
C21 C 0.99694 0.81963 0.19752 0.0
C22 C 0.99038 0.83368 0.27821 0.0
N23 N 0.96268 0.73484 0.27702 0.0
H24 H 0.77653 0.99784 0.30672 0.0
H25 H 0.75778 0.02767 0.99789 0.0
H26 H 0.68073 0.01668 0.20315 0.0
H27 H 0.80269 1.00081 0.98165 0.0
C28 C 0.81806 1.00623 0.0393 0.0
C29 C 0.76008 1.00491 0.24694 0.0
C30 C 0.72715 1.0067 0.26591 0.0
C31 C 0.77165 0.01179 0.14976 0.0
C32 C 0.74979 0.02136 0.07286 0.0
C33 C 0.71719 0.02297 0.09303 0.0
C34 C 0.70616 0.01559 0.18866 0.0
N35 N 0.80505 1.00936 0.13143 0.0
H36 H 0.55259 0.73224 0.34089 0.0
H37 H 0.52905 0.72637 0.04282 0.0
H38 H 0.53841 0.63808 0.25667 0.0
H39 H 0.55333 0.77612 0.00843 0.0
C40 C 0.54661 0.788 0.06807 0.0
C41 C 0.54737 0.71788 0.28522 0.0
C42 C 0.54619 0.68315 0.30968 0.0
C43 C 0.5419 0.73409 0.18813 0.0
C44 C 0.53445 0.71488 0.11707 0.0
C45 C 0.53332 0.68041 0.14251 0.0
C46 C 0.53934 0.66485 0.23789 0.0
N47 N 0.54306 0.76936 0.16465 0.0
H48 H 0.23245 0.47369 0.2195 0.0
H49 H 0.22322 0.51607 0.47789 0.0
H50 H 0.14217 0.51054 0.29454 0.0
H51 H 0.27529 0.53342 0.43022 0.0
C52 C 0.28385 0.50952 0.42152 0.0
C53 C 0.21814 0.48526 0.26764 0.0
C54 C 0.18562 0.49122 0.24739 0.0
C55 C 0.2323 0.49502 0.34961 0.0
C56 C 0.21327 0.50973 0.41211 0.0
C57 C 0.18099 0.51532 0.39167 0.0
C58 C 0.16734 0.50623 0.30956 0.0
N59 N 0.26528 0.4893 0.36988 0.0
H60 H 0.10455 0.25302 0.20294 0.0
H61 H 0.06113 0.24451 0.48733 0.0
H62 H 0.06395 0.16022 0.3504 0.0
H63 H 0.0396 0.29806 0.36779 0.0
C64 C 0.06427 0.30632 0.37208 0.0
C65 C 0.09293 0.23821 0.26613 0.0
C66 C 0.08541 0.20466 0.26784 0.0
C67 C 0.08371 0.25289 0.34513 0.0
C68 C 0.06803 0.23361 0.42588 0.0
C69 C 0.06101 0.20044 0.42705 0.0
C70 C 0.06987 0.18605 0.34894 0.0
N71 N 0.08898 0.28714 0.34286 0.0
H72 H 0.27638 0.02728 0.31806 0.0
H73 H 0.29563 0.99879 0.62696 0.0
H74 H 0.37186 1.00553 0.42033 0.0
H75 H 0.24447 0.98326 0.63715 0.0
C76 C 0.2325 1.0012 0.58308 0.0
C77 C 0.2928 0.01969 0.37762 0.0
C78 C 0.3256 0.01709 0.35824 0.0
C79 C 0.28125 0.01234 0.47477 0.0
C80 C 0.30323 1.00313 0.55155 0.0
C81 C 0.33566 1.00055 0.53095 0.0
C82 C 0.34654 1.00736 0.43514 0.0
N83 N 0.24796 0.01538 0.49346 0.0
H84 H 0.49864 0.28972 0.29072 0.0
H85 H 0.52041 0.29626 0.58959 0.0
H86 H 0.51561 0.38398 0.37177 0.0
H87 H 0.5352 0.24473 0.60322 0.0
C88 C 0.52015 0.23358 0.55476 0.0
C89 C 0.5043 0.30415 0.34587 0.0
C90 C 0.50636 0.33883 0.32041 0.0
C91 C 0.51 0.28807 0.44294 0.0
C92 C 0.51705 0.30745 0.51391 0.0
C93 C 0.51921 0.34186 0.48736 0.0
C94 C 0.51391 0.35725 0.39139 0.0
N95 N 0.50798 0.25282 0.46716 0.0
Co96 Co 0.03613 0.02174 0.8758 0.0
C97 C 0.96993 1.00981 0.88273 0.0
Co98 Co 0.01704 1.00017 0.75194 0.0
C99 C 0.06456 0.0725 0.969 0.0
C100 C 0.04567 0.03178 0.07309 0.0
N101 N 0.05067 0.04219 0.97656 0.0
N102 N 0.068 0.08131 0.05649 0.0
C103 C 0.0563 0.05586 0.12238 0.0
H104 H 0.07064 0.08848 0.90042 0.0
H105 H 0.03366 1.00886 0.10518 0.0
C106 C 0.08318 0.01222 0.74481 0.0
N107 N 1.0026 0.97972 0.65088 0.0
C108 C 0.9902 0.94879 0.6579 0.0
C109 C 1.00675 0.99078 0.55423 0.0
N110 N 0.98694 0.94022 0.57004 0.0
C111 C 0.99714 0.96648 0.50439 0.0
C112 C 0.01773 0.06735 0.71366 0.0
O113 O 0.07854 0.02253 0.82387 0.0
O114 O 0.05971 1.0013 0.70162 0.0
O115 O 0.01017 0.04258 0.67617 0.0
O116 O 0.02911 0.0634 0.79884 0.0
O117 O 0.97461 0.99935 0.80391 0.0
H118 H 0.01768 0.0143 0.5223 0.0
H119 H 0.98523 0.93217 0.72623 0.0
O120 O 0.9934 0.02071 0.92601 0.0
O121 O 0.04302 0.97927 0.95176 0.0
O122 O 0.0242 0.95851 0.82884 0.0
C123 C 0.03566 0.95452 0.9139 0.0
H124 H 0.05427 0.05535 0.19993 0.0
H125 H 0.99902 0.9674 0.42661 0.0
Co126 Co 0.51386 0.0154 0.87967 0.0
C127 C 0.53316 0.95015 0.89222 0.0
Co128 Co 0.53876 1.00602 0.74646 0.0
C129 C 0.45873 0.02865 0.9914 0.0
C130 C 0.49908 0.01453 0.08282 0.0
N131 N 0.49011 0.02138 0.98842 0.0
N132 N 0.44794 0.02611 0.08336 0.0
C133 C 0.47314 0.01743 0.14135 0.0
H134 H 0.44364 0.03414 0.92775 0.0
H135 H 0.52252 1.00631 0.10777 0.0
C136 C 0.51939 0.07123 0.73395 0.0
N137 N 0.56252 1.00012 0.63753 0.0
C138 C 0.59402 0.99337 0.63404 0.0
C139 C 0.55338 1.00674 0.54325 0.0
N140 N 0.6047 0.996 0.54191 0.0
C141 C 0.57931 1.00422 0.48432 0.0
C142 C 0.47443 0.99572 0.73874 0.0
O143 O 0.50872 0.06074 0.81982 0.0
O144 O 0.53327 0.05151 0.68852 0.0
O145 O 0.49974 0.99466 0.68933 0.0
O146 O 0.47584 1.00402 0.82124 0.0
O147 O 0.54389 0.96065 0.80639 0.0
H148 H 0.5298 0.0146 0.51861 0.0
H149 H 0.60927 0.98821 0.69741 0.0
O150 O 0.51932 0.96989 0.93766 0.0
O151 O 0.5529 0.02679 0.93681 0.0
O152 O 0.57678 0.01743 0.80488 0.0
C153 C 0.57821 0.02578 0.88731 0.0
H154 H 0.4725 0.01214 0.22027 0.0
H155 H 0.57981 1.00947 0.4054 0.0
Co156 Co 0.55252 0.50878 0.83808 0.0
C157 C 0.50998 0.46369 0.95208 0.0
Co158 Co 0.50143 0.51312 0.79294 0.0
C159 C 0.61428 0.52302 0.92208 0.0
C160 C 0.61076 0.47437 0.89031 0.0
N161 N 0.59465 0.50279 0.88196 0.0
N162 N 0.64158 0.50809 0.95488 0.0
C163 C 0.63963 0.47764 0.93474 0.0
H164 H 0.60831 0.54774 0.93002 0.0
H165 H 0.60166 0.45209 0.86907 0.0
C166 C 0.54389 0.55824 0.67872 0.0
N167 N 0.45925 0.51898 0.74944 0.0
C168 C 0.44011 0.49918 0.70614 0.0
C169 C 0.44254 0.54689 0.74489 0.0
N170 N 0.41256 0.51389 0.67506 0.0
C171 C 0.41385 0.54374 0.6995 0.0
C172 C 0.51978 0.55421 0.91921 0.0
O173 O 0.56551 0.54378 0.7341 0.0
O174 O 0.51504 0.54797 0.68992 0.0
O175 O 0.49621 0.54483 0.8737 0.0
O176 O 0.54657 0.5406 0.91738 0.0
O177 O 0.48842 0.47815 0.89659 0.0
H178 H 0.45115 0.56886 0.76898 0.0
H179 H 0.44667 0.47506 0.69409 0.0
O180 O 0.53883 0.47395 0.94117 0.0
O181 O 0.55776 0.47702 0.7574 0.0
O182 O 0.50742 0.48138 0.71358 0.0
C183 C 0.53418 0.46772 0.71172 0.0
H184 H 0.65739 0.45883 0.95354 0.0
H185 H 0.39587 0.5624 0.68222 0.0
Co186 Co 0.02651 0.5357 0.83627 0.0
C187 C 0.07287 0.49231 0.92763 0.0
Co188 Co 0.02636 0.48634 0.79331 0.0
C189 C 1.0051 0.58882 0.9305 0.0
C190 C 0.05294 0.59673 0.87575 0.0
N191 N 0.02752 0.57578 0.88003 0.0
N192 N 0.01577 0.61669 0.95783 0.0
C193 C 0.04571 0.62196 0.92334 0.0
H194 H 0.98177 0.57766 0.94935 0.0
H195 H 0.07573 0.59335 0.84304 0.0
C196 C 0.9799 0.52958 0.7019 0.0
N197 N 0.0256 0.4462 0.74988 0.0
C198 C 0.04784 0.43369 0.69737 0.0
C199 C 1.00064 0.42461 0.75666 0.0
N200 N 0.03746 0.40554 0.67117 0.0
C201 C 0.00792 0.39958 0.70838 0.0
C202 C 0.98602 0.48872 0.94604 0.0
O203 O 0.99186 0.5499 0.75071 0.0
O204 O 0.99178 0.50116 0.7083 0.0
O205 O 0.99641 0.46942 0.89326 0.0
O206 O 0.99667 0.51816 0.93476 0.0
O207 O 0.06087 0.4721 0.87867 0.0
H208 H 0.97801 0.4275 0.79101 0.0
H209 H 0.07065 0.44558 0.67541 0.0
O210 O 0.06112 0.52078 0.92129 0.0
O211 O 0.0564 0.55267 0.73629 0.0
O212 O 0.05619 0.50394 0.69484 0.0
C213 C 0.06675 0.5334 0.68338 0.0
H214 H 0.06145 0.64208 0.93413 0.0
H215 H 0.99228 0.37934 0.69795 0.0
C216 C 0.17259 1.01116 0.63007 0.0
C217 C 0.19964 1.00805 0.60288 0.0
C218 C 0.14138 0.01261 0.6689 0.0
C219 C 0.11496 0.01257 0.70428 0.0
C220 C 0.51424 0.16856 0.60852 0.0
C221 C 0.51561 0.19809 0.57852 0.0
C222 C 0.51479 0.13439 0.65056 0.0
C223 C 0.51679 0.10563 0.68912 0.0
C224 C 0.33827 0.49519 0.51306 0.0
C225 C 0.31366 0.49894 0.46756 0.0
C226 C 0.36604 0.49655 0.57011 0.0
C227 C 0.38844 0.5027 0.61866 0.0
C228 C 0.06949 0.34983 0.48725 0.0
C229 C 0.07039 0.33058 0.43213 0.0
C230 C 0.06252 0.37102 0.55293 0.0
C231 C 0.05221 0.38793 0.60714 0.0
C232 C 0.87983 1.00843 0.99491 0.0
C233 C 0.85216 1.00767 0.02095 0.0
C234 C 0.91147 1.00898 0.95747 0.0
C235 C 0.93811 1.00934 0.92329 0.0
C236 C 0.54102 0.85296 0.01723 0.0
C237 C 0.54334 0.82352 0.04637 0.0
C238 C 0.53847 0.88705 0.97571 0.0
C239 C 0.53607 0.91581 0.93753 0.0
C240 C 0.71783 0.53528 0.09792 0.0
C241 C 0.7438 0.53992 0.13123 0.0
C242 C 0.68931 0.52841 0.05011 0.0
C243 C 0.66661 0.52033 0.0059 0.0
C244 C 0.9746 0.67537 0.11967 0.0
C245 C 0.96388 0.6966 0.15846 0.0
C246 C 0.98771 0.65301 0.06564 0.0
C247 C 0.99996 0.63567 0.01599 0.0
C248 C 0.03091 0.15853 0.56183 0.0
C249 C 0.04413 0.18048 0.50663 0.0
C250 C 0.02072 0.12788 0.61521 0.0
C251 C 0.01856 0.09965 0.65594 0.0
C252 C 0.38419 0.98747 0.64776 0.0
C253 C 0.35922 0.99258 0.60574 0.0
C254 C 0.41618 0.98651 0.67863 0.0
C255 C 0.4436 0.99017 0.70047 0.0
C256 C 0.53181 0.38479 0.59921 0.0
C257 C 0.52644 0.36255 0.55661 0.0
C258 C 0.53557 0.41361 0.63839 0.0
C259 C 0.53608 0.43822 0.6727 0.0
C260 C 0.14122 0.53893 0.50564 0.0
C261 C 0.16087 0.52846 0.4574 0.0
C262 C 0.11558 0.54473 0.56452 0.0
C263 C 0.09342 0.54288 0.61998 0.0
C264 C 0.02548 0.86224 0.06129 0.0
C265 C 0.01282 0.83978 0.1161 0.0
C266 C 0.03458 0.89353 0.00951 0.0
C267 C 0.03589 0.92199 0.9703 0.0
C268 C 0.66854 0.0354 0.97646 0.0
C269 C 0.69364 0.03074 0.01807 0.0
C270 C 0.63647 0.03575 0.94632 0.0
C271 C 0.60904 0.03174 0.925 0.0
C272 C 0.52115 0.63747 0.03042 0.0
C273 C 0.52619 0.6598 0.07291 0.0
C274 C 0.51793 0.6085 0.9917 0.0
C275 C 0.51779 0.58379 0.95787 0.0
C276 C 0.91081 0.48339 0.1213 0.0
C277 C 0.89108 0.49381 0.1694 0.0
C278 C 0.9367 0.47762 0.06322 0.0
C279 C 0.95908 0.4794 0.00855 0.0
C280 C 0.09075 0.16712 0.13748 0.0
C281 C 0.09087 0.18825 0.18681 0.0
C282 C 0.08534 0.13831 0.09773 0.0
C283 C 0.07756 0.1124 0.07505 0.0
C284 C 0.36024 0.02771 0.19936 0.0
C285 C 0.33979 0.02437 0.26194 0.0
C286 C 0.38937 0.0289 0.14653 0.0
C287 C 0.41606 0.02789 0.11387 0.0
C288 C 0.49936 0.37905 0.1522 0.0
C289 C 0.50156 0.35711 0.22267 0.0
C290 C 0.49975 0.40824 0.07973 0.0
C291 C 0.50278 0.43359 0.02041 0.0
C292 C 0.15045 0.4795 0.10166 0.0
C293 C 0.16981 0.48297 0.16317 0.0
C294 C 0.12418 0.48006 0.03765 0.0
C295 C 0.10083 0.48399 0.98628 0.0
C296 C 0.96922 0.85327 0.48932 0.0
C297 C 0.96952 0.83206 0.44031 0.0
C298 C 0.97312 0.8824 0.52845 0.0
C299 C 0.97932 0.9087 0.55099 0.0
C300 C 0.69242 0.99586 0.42471 0.0
C301 C 0.7129 0.99946 0.36215 0.0
C302 C 0.6633 0.99422 0.4778 0.0
C303 C 0.6366 0.99478 0.51086 0.0
C304 C 0.55367 0.64275 0.47757 0.0
C305 C 0.55113 0.66471 0.40722 0.0
C306 C 0.55371 0.61361 0.5503 0.0
C307 C 0.55099 0.5883 0.61 0.0
C308 C 0.90194 0.54066 0.52899 0.0
C309 C 0.88254 0.53715 0.46752 0.0
C310 C 0.92829 0.54081 0.59257 0.0
C311 C 0.95174 0.53754 0.64369 0.0
loop_
_geom_bond_atom_site_label_1
_geom_bond_atom_site_label_2
_geom_bond_distance
_geom_bond_site_symmetry_2
_ccdc_geom_bond_type
H0 C5 0.930 . S
H1 C8 0.930 . S
H2 C10 0.930 . S
H3 C4 1.016 . S
C4 H3 1.016 . S
C4 N11 1.286 . S
C5 H0 0.930 . S
C5 C6 1.397 . S
C5 C7 1.361 . S
C6 C5 1.397 . S
C6 C10 1.390 . S
C7 C5 1.361 . S
C7 C8 1.393 . S
C7 N11 1.413 . S
C8 H1 0.930 . S
C8 C7 1.393 . S
C8 C9 1.399 . S
C9 C8 1.399 . S
C9 C10 1.381 . S
C10 H2 0.930 . S
C10 C6 1.390 . S
C10 C9 1.381 . S
N11 C4 1.286 . S
N11 C7 1.413 . S
H12 C17 0.930 . S
H13 C20 0.930 1_556 S
H14 C22 0.930 . S
H15 C16 1.016 1_556 S
C16 H15 1.016 1_554 S
C16 N23 1.286 . S
C17 H12 0.930 . S
C17 C18 1.397 . S
C17 C19 1.361 . S
C18 C17 1.397 . S
C18 C22 1.390 . S
C19 C17 1.361 . S
C19 C20 1.393 . S
C19 N23 1.413 . S
C20 H13 0.930 1_554 S
C20 C19 1.393 . S
C20 C21 1.399 . S
C21 C20 1.399 . S
C21 C22 1.381 . S
C22 H14 0.930 . S
C22 C18 1.390 . S
C22 C21 1.381 . S
N23 C16 1.286 . S
N23 C19 1.413 . S
H24 C29 0.930 . S
H25 C32 0.930 . S
H26 C34 0.930 . S
H27 C28 1.016 . S
C28 H27 1.016 . S
C28 N35 1.286 1_566 S
C29 H24 0.930 . S
C29 C30 1.397 . S
C29 C31 1.361 . S
C30 C29 1.397 . S
C30 C34 1.390 1_545 S
C31 C29 1.361 . S
C31 C32 1.393 1_554 S
C31 N35 1.413 . S
C32 H25 0.930 . S
C32 C31 1.393 1_556 S
C32 C33 1.401 1_556 S
C33 C32 1.401 1_554 S
C33 C34 1.383 1_545 S
C34 H26 0.930 . S
C34 C30 1.390 1_565 S
C34 C33 1.383 1_565 S
N35 C28 1.286 1_544 S
N35 C31 1.413 . S
H36 C41 0.930 . S
H37 C44 0.930 . S
H38 C46 0.930 . S
H39 C40 1.016 1_556 S
C40 H39 1.016 1_554 S
C40 N47 1.286 . S
C41 H36 0.930 . S
C41 C42 1.397 . S
C41 C43 1.361 . S
C42 C41 1.397 . S
C42 C46 1.390 . S
C43 C41 1.361 . S
C43 C44 1.393 . S
C43 N47 1.413 . S
C44 H37 0.930 . S
C44 C43 1.393 . S
C44 C45 1.399 . S
C45 C44 1.399 . S
C45 C46 1.381 . S
C46 H38 0.930 . S
C46 C42 1.390 . S
C46 C45 1.381 . S
N47 C40 1.286 . S
N47 C43 1.413 . S
H48 C53 0.930 . S
H49 C56 0.930 . S
H50 C58 0.930 . S
H51 C52 1.016 . S
C52 H51 1.016 . S
C52 N59 1.286 . S
C53 H48 0.930 . S
C53 C54 1.397 . S
C53 C55 1.361 . S
C54 C53 1.397 . S
C54 C58 1.390 . S
C55 C53 1.361 . S
C55 C56 1.393 . S
C55 N59 1.413 . S
C56 H49 0.930 . S
C56 C55 1.393 . S
C56 C57 1.399 . S
C57 C56 1.399 . S
C57 C58 1.381 . S
C58 H50 0.930 . S
C58 C54 1.390 . S
C58 C57 1.381 . S
N59 C52 1.286 . S
N59 C55 1.413 . S
H60 C65 0.930 . S
H61 C68 0.930 . S
H62 C70 0.930 . S
H63 C64 1.016 . S
C64 H63 1.016 . S
C64 N71 1.286 . S
C65 H60 0.930 . S
C65 C66 1.397 . S
C65 C67 1.361 . S
C66 C65 1.397 . S
C66 C70 1.390 . S
C67 C65 1.361 . S
C67 C68 1.393 . S
C67 N71 1.413 . S
C68 H61 0.930 . S
C68 C67 1.393 . S
C68 C69 1.399 . S
C69 C68 1.399 . S
C69 C70 1.381 . S
C70 H62 0.930 . S
C70 C66 1.390 . S
C70 C69 1.381 . S
N71 C64 1.286 . S
N71 C67 1.413 . S
H72 C77 0.930 . S
H73 C80 0.930 . S
H74 C82 0.930 . S
H75 C76 1.022 . S
C76 H75 1.022 . S
C76 N83 1.277 1_565 S
C77 H72 0.930 . S
C77 C78 1.397 . S
C77 C79 1.361 . S
C78 C77 1.397 . S
C78 C82 1.390 1_545 S
C79 C77 1.361 . S
C79 C80 1.393 . S
C79 N83 1.413 . S
C80 H73 0.930 . S
C80 C79 1.393 . S
C80 C81 1.406 . S
C81 C80 1.406 . S
C81 C82 1.372 1_545 S
C82 H74 0.930 . S
C82 C78 1.390 1_565 S
C82 C81 1.372 1_565 S
N83 C76 1.277 1_545 S
N83 C79 1.413 . S
H84 C89 0.930 . S
H85 C92 0.930 . S
H86 C94 0.930 . S
H87 C88 1.016 . S
C88 H87 1.016 . S
C88 N95 1.286 . S
C89 H84 0.930 . S
C89 C90 1.397 . S
C89 C91 1.361 . S
C90 C89 1.397 . S
C90 C94 1.390 . S
C91 C89 1.361 . S
C91 C92 1.393 . S
C91 N95 1.413 . S
C92 H85 0.930 . S
C92 C91 1.393 . S
C92 C93 1.399 . S
C93 C92 1.399 . S
C93 C94 1.381 . S
C94 H86 0.930 . S
C94 C90 1.390 . S
C94 C93 1.381 . S
N95 C88 1.286 . S
N95 C91 1.413 . S
Co96 N101 2.057 1_556 S
Co96 O113 2.021 . S
Co96 O116 2.062 . S
Co96 O120 2.117 1_455 S
Co96 O121 2.020 1_545 S
C97 O117 1.259 1_545 S
C97 O120 1.258 . S
Co98 N107 2.057 . S
Co98 O114 2.117 . S
Co98 O115 2.020 1_565 S
Co98 O117 2.021 1_455 S
Co98 O122 2.062 . S
C99 N101 1.316 . S
C99 N102 1.347 . S
C99 H104 0.931 . S
C100 N101 1.375 . S
C100 C103 1.350 . S
C100 H105 0.930 1_455 S
N101 Co96 2.057 1_554 S
N101 C99 1.316 . S
N101 C100 1.375 . S
N102 C99 1.347 . S
N102 C103 1.373 . S
C103 C100 1.350 . S
C103 N102 1.373 . S
C103 H124 0.931 . S
H104 C99 0.931 . S
H105 C100 0.930 1_655 S
C106 O113 1.259 1_565 S
C106 O114 1.258 . S
N107 Co98 2.057 . S
N107 C108 1.316 1_455 S
N107 C109 1.375 . S
C108 N107 1.316 1_655 S
C108 N110 1.347 . S
C108 H119 0.931 . S
C109 N107 1.375 . S
C109 C111 1.350 . S
C109 H118 0.930 . S
N110 C108 1.347 . S
N110 C111 1.373 1_655 S
C111 C109 1.350 . S
C111 N110 1.373 1_455 S
C111 H125 0.931 . S
C112 O115 1.256 . S
C112 O116 1.255 . S
O113 Co96 2.021 . S
O113 C106 1.259 1_545 S
O114 Co98 2.117 . S
O114 C106 1.258 . S
O115 Co98 2.020 1_545 S
O115 C112 1.256 . S
O116 Co96 2.062 . S
O116 C112 1.255 . S
O117 C97 1.259 1_565 S
O117 Co98 2.021 1_655 S
H118 C109 0.930 . S
H119 C108 0.931 . S
O120 Co96 2.117 1_655 S
O120 C97 1.258 . S
O121 Co96 2.020 1_565 S
O121 C123 1.256 . S
O122 Co98 2.062 . S
O122 C123 1.255 . S
C123 O121 1.256 . S
C123 O122 1.255 . S
H124 C103 0.931 . S
H125 C111 0.931 . S
Co126 N131 2.057 1_546 S
Co126 O143 2.021 . S
Co126 O146 2.062 . S
Co126 O150 2.117 1_545 S
Co126 O151 2.020 . S
C127 O147 1.259 . S
C127 O150 1.258 . S
Co128 N137 2.057 1_565 S
Co128 O144 2.117 1_565 S
Co128 O145 2.020 . S
Co128 O147 2.021 . S
Co128 O152 2.069 . S
C129 N131 1.316 1_545 S
C129 N132 1.347 . S
C129 H134 0.931 . S
C130 N131 1.375 . S
C130 C133 1.350 . S
C130 H135 0.930 . S
N131 Co126 2.057 1_564 S
N131 C129 1.316 1_565 S
N131 C130 1.375 . S
N132 C129 1.347 . S
N132 C133 1.373 1_545 S
C133 C130 1.350 . S
C133 N132 1.373 1_565 S
C133 H154 0.931 . S
H134 C129 0.931 . S
H135 C130 0.930 . S
C136 O143 1.259 . S
C136 O144 1.258 . S
N137 Co128 2.057 1_545 S
N137 C138 1.316 1_545 S
N137 C139 1.375 . S
C138 N137 1.316 1_565 S
C138 N140 1.347 . S
C138 H149 0.931 . S
C139 N137 1.375 . S
C139 C141 1.350 . S
C139 H148 0.930 . S
N140 C138 1.347 . S
N140 C141 1.373 1_565 S
C141 C139 1.350 . S
C141 N140 1.373 1_545 S
C141 H155 0.931 . S
C142 O145 1.256 . S
C142 O146 1.255 1_565 S
O143 Co126 2.021 . S
O143 C136 1.259 . S
O144 Co128 2.117 1_545 S
O144 C136 1.258 . S
O145 Co128 2.020 . S
O145 C142 1.256 . S
O146 Co126 2.062 . S
O146 C142 1.255 1_545 S
O147 C127 1.259 . S
O147 Co128 2.021 . S
H148 C139 0.930 . S
H149 C138 0.931 . S
O150 Co126 2.117 1_565 S
O150 C127 1.258 . S
O151 Co126 2.020 . S
O151 C153 1.256 . S
O152 Co128 2.069 . S
O152 C153 1.242 1_565 S
C153 O151 1.256 . S
C153 O152 1.242 1_545 S
H154 C133 0.931 . S
H155 C141 0.931 . S
Co156 N161 2.057 . S
Co156 O173 2.021 . S
Co156 O176 2.062 . S
Co156 O180 2.117 . S
Co156 O181 2.020 . S
C157 O177 1.259 . S
C157 O180 1.258 . S
Co158 N167 2.057 . S
Co158 O174 2.117 . S
Co158 O175 2.020 . S
Co158 O177 2.021 . S
Co158 O182 2.062 . S
C159 N161 1.316 . S
C159 N162 1.347 . S
C159 H164 0.931 . S
C160 N161 1.375 . S
C160 C163 1.350 . S
C160 H165 0.930 . S
N161 Co156 2.057 . S
N161 C159 1.316 . S
N161 C160 1.375 . S
N162 C159 1.347 . S
N162 C163 1.373 . S
C163 C160 1.350 . S
C163 N162 1.373 . S
C163 H184 0.931 1_556 S
H164 C159 0.931 . S
H165 C160 0.930 . S
C166 O173 1.259 . S
C166 O174 1.258 . S
N167 Co158 2.057 . S
N167 C168 1.316 . S
N167 C169 1.375 . S
C168 N167 1.316 . S
C168 N170 1.347 . S
C168 H179 0.931 . S
C169 N167 1.375 . S
C169 C171 1.350 . S
C169 H178 0.930 . S
N170 C168 1.347 . S
N170 C171 1.373 . S
C171 C169 1.350 . S
C171 N170 1.373 . S
C171 H185 0.931 . S
C172 O175 1.256 . S
C172 O176 1.255 . S
O173 Co156 2.021 . S
O173 C166 1.259 . S
O174 Co158 2.117 . S
O174 C166 1.258 . S
O175 Co158 2.020 . S
O175 C172 1.256 . S
O176 Co156 2.062 . S
O176 C172 1.255 . S
O177 C157 1.259 . S
O177 Co158 2.021 . S
H178 C169 0.930 . S
H179 C168 0.931 . S
O180 Co156 2.117 . S
O180 C157 1.258 . S
O181 Co156 2.020 . S
O181 C183 1.256 . S
O182 Co158 2.062 . S
O182 C183 1.255 . S
C183 O181 1.256 . S
C183 O182 1.255 . S
H184 C163 0.931 1_554 S
H185 C171 0.931 . S
Co186 N191 2.057 . S
Co186 O203 2.021 1_455 S
Co186 O206 2.062 1_455 S
Co186 O210 2.117 . S
Co186 O211 2.020 . S
C187 O207 1.259 . S
C187 O210 1.258 . S
Co188 N197 2.057 . S
Co188 O204 2.117 1_455 S
Co188 O205 2.020 1_455 S
Co188 O207 2.021 . S
Co188 O212 2.062 . S
C189 N191 1.316 . S
C189 N192 1.347 . S
C189 H194 0.931 1_455 S
C190 N191 1.375 . S
C190 C193 1.350 . S
C190 H195 0.930 . S
N191 Co186 2.057 . S
N191 C189 1.316 . S
N191 C190 1.375 . S
N192 C189 1.347 . S
N192 C193 1.373 . S
C193 C190 1.350 . S
C193 N192 1.373 . S
C193 H214 0.931 . S
H194 C189 0.931 1_655 S
H195 C190 0.930 . S
C196 O203 1.259 . S
C196 O204 1.258 . S
N197 Co188 2.057 . S
N197 C198 1.316 . S
N197 C199 1.375 1_455 S
C198 N197 1.316 . S
C198 N200 1.347 . S
C198 H209 0.931 . S
C199 N197 1.375 1_655 S
C199 C201 1.350 1_655 S
C199 H208 0.930 . S
N200 C198 1.347 . S
N200 C201 1.373 . S
C201 C199 1.350 1_455 S
C201 N200 1.373 . S
C201 H215 0.931 1_455 S
C202 O205 1.256 . S
C202 O206 1.255 . S
O203 Co186 2.021 1_655 S
O203 C196 1.259 . S
O204 Co188 2.117 1_655 S
O204 C196 1.258 . S
O205 Co188 2.020 1_655 S
O205 C202 1.256 . S
O206 Co186 2.062 1_655 S
O206 C202 1.255 . S
O207 C187 1.259 . S
O207 Co188 2.021 . S
H208 C199 0.930 . S
H209 C198 0.931 . S
O210 Co186 2.117 . S
O210 C187 1.258 . S
O211 Co186 2.020 . S
O211 C213 1.256 . S
O212 Co188 2.062 . S
O212 C213 1.255 . S
C213 O211 1.256 . S
C213 O212 1.255 . S
H214 C193 0.931 . S
H215 C201 0.931 1_655 S
C216 C217 1.173 1_565 S
C216 C218 1.380 . S
C217 C216 1.173 1_545 S
C218 C216 1.380 . S
C218 C219 1.170 . S
C219 C218 1.170 . S
C220 C221 1.170 . S
C220 C222 1.380 . S
C221 C220 1.170 . S
C222 C220 1.380 . S
C222 C223 1.170 . S
C223 C222 1.170 . S
C224 C225 1.170 . S
C224 C226 1.380 . S
C225 C224 1.170 . S
C226 C224 1.380 . S
C226 C227 1.170 . S
C227 C226 1.170 . S
C228 C229 1.170 . S
C228 C230 1.380 . S
C229 C228 1.170 . S
C230 C228 1.380 . S
C230 C231 1.170 . S
C231 C230 1.170 . S
C232 C233 1.170 . S
C232 C234 1.380 . S
C233 C232 1.170 . S
C234 C232 1.380 . S
C234 C235 1.170 . S
C235 C234 1.170 . S
C236 C237 1.170 1_556 S
C236 C238 1.380 . S
C237 C236 1.170 1_554 S
C238 C236 1.380 . S
C238 C239 1.170 . S
C239 C238 1.170 . S
C240 C241 1.170 . S
C240 C242 1.380 1_554 S
C241 C240 1.170 . S
C242 C240 1.380 1_556 S
C242 C243 1.170 . S
C243 C242 1.170 . S
C244 C245 1.170 1_556 S
C244 C246 1.380 . S
C245 C244 1.170 1_554 S
C246 C244 1.380 . S
C246 C247 1.170 . S
C247 C246 1.170 . S
C248 C249 1.170 . S
C248 C250 1.380 . S
C249 C248 1.170 . S
C250 C248 1.380 . S
C250 C251 1.170 . S
C251 C250 1.170 . S
C252 C253 1.172 . S
C252 C254 1.380 . S
C253 C252 1.172 . S
C254 C252 1.380 . S
C254 C255 1.170 . S
C255 C254 1.170 . S
C256 C257 1.170 . S
C256 C258 1.380 . S
C257 C256 1.170 . S
C258 C256 1.380 . S
C258 C259 1.170 . S
C259 C258 1.170 . S
C260 C261 1.170 . S
C260 C262 1.380 . S
C261 C260 1.170 . S
C262 C260 1.380 . S
C262 C263 1.170 . S
C263 C262 1.170 . S
C264 C265 1.170 . S
C264 C266 1.380 . S
C265 C264 1.170 . S
C266 C264 1.380 . S
C266 C267 1.170 1_655 S
C267 C266 1.170 1_455 S
C268 C269 1.170 . S
C268 C270 1.381 1_565 S
C269 C268 1.170 . S
C270 C268 1.381 1_545 S
C270 C271 1.170 . S
C271 C270 1.170 . S
C272 C273 1.169 1_556 S
C272 C274 1.381 . S
C273 C272 1.169 1_554 S
C274 C272 1.381 . S
C274 C275 1.170 . S
C275 C274 1.170 . S
C276 C277 1.170 . S
C276 C278 1.380 . S
C277 C276 1.170 . S
C278 C276 1.380 . S
C278 C279 1.170 1_554 S
C279 C278 1.170 1_556 S
C280 C281 1.170 . S
C280 C282 1.380 . S
C281 C280 1.170 . S
C282 C280 1.380 . S
C282 C283 1.170 . S
C283 C282 1.170 . S
C284 C285 1.170 . S
C284 C286 1.380 . S
C285 C284 1.170 . S
C286 C284 1.380 . S
C286 C287 1.170 . S
C287 C286 1.170 . S
C288 C289 1.170 . S
C288 C290 1.380 . S
C289 C288 1.170 . S
C290 C288 1.380 . S
C290 C291 1.170 . S
C291 C290 1.170 . S
C292 C293 1.170 . S
C292 C294 1.380 . S
C293 C292 1.170 . S
C294 C292 1.380 . S
C294 C295 1.170 . S
C295 C294 1.170 . S
C296 C297 1.170 . S
C296 C298 1.380 . S
C297 C296 1.170 . S
C298 C296 1.380 . S
C298 C299 1.170 . S
C299 C298 1.170 . S
C300 C301 1.170 . S
C300 C302 1.380 . S
C301 C300 1.170 . S
C302 C300 1.380 . S
C302 C303 1.170 . S
C303 C302 1.170 . S
C304 C305 1.170 . S
C304 C306 1.380 . S
C305 C304 1.170 . S
C306 C304 1.380 . S
C306 C307 1.170 . S
C307 C306 1.170 . S
C308 C309 1.170 . S
C308 C310 1.380 . S
C309 C308 1.170 . S
C310 C308 1.380 . S
C310 C311 1.170 . S
C311 C310 1.170 . S
C217 C76 1.689 1_545 S
C219 C106 1.707 . S
C223 C136 1.799 . S
C221 C88 1.776 . S
C227 N170 1.391 . S
C225 C52 1.364 . S
C231 N200 1.445 . S
C229 C64 1.409 . S
C235 C97 1.713 . S
C233 C28 1.692 1_545 S
C237 C40 1.778 . S
C239 C127 1.802 . S
C241 C4 1.400 . S
C243 N162 1.362 . S
C245 C16 1.426 . S
C247 N192 1.476 1_655 S
C251 C112 0.695 . S
C249 C69 0.606 . S
C255 C142 1.039 . S
C253 C81 0.935 1_565 S
C259 C183 1.299 . S
C257 C93 1.237 . S
C261 C57 0.792 . S
C263 C213 0.771 . S
C265 C21 0.701 1_556 S
C267 C123 0.683 . S
C271 C153 1.001 . S
C269 C33 0.986 1_566 S
C275 C172 1.290 . S
C273 C45 1.267 . S
C277 C9 0.754 . S
C279 C202 0.787 . S
C281 C66 1.488 . S
C283 N102 1.471 . S
C285 C78 1.424 . S
C287 N132 1.431 . S
C291 C157 1.668 1_554 S
C289 C90 1.623 . S
C295 C187 1.594 1_554 S
C293 C54 1.567 . S
C297 C18 1.453 . S
C299 N110 1.475 . S
C303 N140 1.452 . S
C301 C30 1.435 1_565 S
C307 C166 1.663 . S
C305 C42 1.643 . S
C309 C6 1.548 . S
C311 C196 1.596 . S
