# Generated by pormake.
# Topology zzz, (3,6)-cn, num edge types: 1
# Building blocks:
#     Node 0, Type 0, BuildingBlock: INOVEN_clean_linker_0, # of connection points: 3
#     Node 1, Type 0, BuildingBlock: INOVEN_clean_linker_0, # of connection points: 3
#     Node 2, Type 0, BuildingBlock: INOVEN_clean_linker_0, # of connection points: 3
#     Node 3, Type 0, BuildingBlock: INOVEN_clean_linker_0, # of connection points: 3
#     Node 4, Type 0, BuildingBlock: INOVEN_clean_linker_0, # of connection points: 3
#     Node 5, Type 0, BuildingBlock: INOVEN_clean_linker_0, # of connection points: 3
#     Node 6, Type 0, BuildingBlock: INOVEN_clean_linker_0, # of connection points: 3
#     Node 7, Type 0, BuildingBlock: INOVEN_clean_linker_0, # of connection points: 3
#     Node 8, Type 1, BuildingBlock: FUNLAD_clean_sbu_0, # of connection points: 6
#     Node 9, Type 1, BuildingBlock: FUNLAD_clean_sbu_0, # of connection points: 6
#     Node 10, Type 1, BuildingBlock: FUNLAD_clean_sbu_0, # of connection points: 6
#     Node 11, Type 1, BuildingBlock: FUNLAD_clean_sbu_0, # of connection points: 6
#     Edge 12, Type (0, 1), BuildingBlock: EZIPEK_clean_linker_0, # of connection points: 2
#     Edge 13, Type (0, 1), BuildingBlock: EZIPEK_clean_linker_0, # of connection points: 2
#     Edge 14, Type (0, 1), BuildingBlock: EZIPEK_clean_linker_0, # of connection points: 2
#     Edge 15, Type (0, 1), BuildingBlock: EZIPEK_clean_linker_0, # of connection points: 2
#     Edge 16, Type (0, 1), BuildingBlock: EZIPEK_clean_linker_0, # of connection points: 2
#     Edge 17, Type (0, 1), BuildingBlock: EZIPEK_clean_linker_0, # of connection points: 2
#     Edge 18, Type (0, 1), BuildingBlock: EZIPEK_clean_linker_0, # of connection points: 2
#     Edge 19, Type (0, 1), BuildingBlock: EZIPEK_clean_linker_0, # of connection points: 2
#     Edge 20, Type (0, 1), BuildingBlock: EZIPEK_clean_linker_0, # of connection points: 2
#     Edge 21, Type (0, 1), BuildingBlock: EZIPEK_clean_linker_0, # of connection points: 2
#     Edge 22, Type (0, 1), BuildingBlock: EZIPEK_clean_linker_0, # of connection points: 2
#     Edge 23, Type (0, 1), BuildingBlock: EZIPEK_clean_linker_0, # of connection points: 2
#     Edge 24, Type (0, 1), BuildingBlock: EZIPEK_clean_linker_0, # of connection points: 2
#     Edge 25, Type (0, 1), BuildingBlock: EZIPEK_clean_linker_0, # of connection points: 2
#     Edge 26, Type (0, 1), BuildingBlock: EZIPEK_clean_linker_0, # of connection points: 2
#     Edge 27, Type (0, 1), BuildingBlock: EZIPEK_clean_linker_0, # of connection points: 2
#     Edge 28, Type (0, 1), BuildingBlock: EZIPEK_clean_linker_0, # of connection points: 2
#     Edge 29, Type (0, 1), BuildingBlock: EZIPEK_clean_linker_0, # of connection points: 2
#     Edge 30, Type (0, 1), BuildingBlock: EZIPEK_clean_linker_0, # of connection points: 2
#     Edge 31, Type (0, 1), BuildingBlock: EZIPEK_clean_linker_0, # of connection points: 2
#     Edge 32, Type (0, 1), BuildingBlock: EZIPEK_clean_linker_0, # of connection points: 2
#     Edge 33, Type (0, 1), BuildingBlock: EZIPEK_clean_linker_0, # of connection points: 2
#     Edge 34, Type (0, 1), BuildingBlock: EZIPEK_clean_linker_0, # of connection points: 2
#     Edge 35, Type (0, 1), BuildingBlock: EZIPEK_clean_linker_0, # of connection points: 2
# Relax obj value: 0.113
# Max RMSD: 0.176
# Mean RMSD: 0.095
data_MOF--net-zzz--node1-FUNLAD_clean_sbu_0--node2-INOVEN_clean_linker_0--edge1-EZIPEK_clean_linker_0
_symmetry_space_group_name_H-M    P1
_symmetry_Int_Tables_number       1
_symmetry_cell_setting            triclinic
loop_
_symmetry_equiv_pos_as_xyz
'x, y, z'
_cell_length_a     37.912444
_cell_length_b     43.391363
_cell_length_c     12.995125
_cell_angle_alpha  83.351993
_cell_angle_beta   82.85084
_cell_angle_gamma 89.64501
loop_
_atom_site_label
_atom_site_type_symbol
_atom_site_fract_x
_atom_site_fract_y
_atom_site_fract_z
_atom_type_partial_charge
H0 H 0.80497 0.49982 0.47857 0.0
H1 H 0.91635 0.48242 0.39729 0.0
H2 H 0.84322 0.46627 0.18505 0.0
N3 N 0.7845 0.4851 0.29833 0.0
N4 N 0.77934 0.47859 0.21009 0.0
C5 C 0.82617 0.49086 0.42672 0.0
C6 C 0.86141 0.4905 0.45161 0.0
C7 C 0.81901 0.48129 0.33106 0.0
C8 C 0.84748 0.47155 0.26208 0.0
C9 C 0.88242 0.47279 0.28519 0.0
C10 C 0.889 0.48058 0.38162 0.0
H11 H 1.00567 0.76385 0.29895 0.0
H12 H 0.02535 0.86159 0.28403 0.0
H13 H 0.02679 0.82005 -0.00011 0.0
N14 N 0.01438 0.76073 0.09553 0.0
N15 N 0.02198 0.75999 -0.00042 0.0
C16 C 0.01126 0.78617 0.2532 0.0
C17 C 0.01434 0.81267 0.30346 0.0
C18 C 0.01617 0.78843 0.1434 0.0
C19 C 0.02343 0.81779 0.08443 0.0
C20 C 0.02667 0.84427 0.13598 0.0
C21 C 0.02249 0.84119 0.24445 0.0
H22 H 0.76725 0.99869 0.33562 0.0
H23 H 0.6619 0.0091 0.2457 0.0
H24 H 0.75148 0.01841 0.00981 0.0
N25 N 0.80242 0.00797 0.13795 0.0
N26 N 0.81464 0.00699 0.0441 0.0
C27 C 0.74993 1.00353 0.27556 0.0
C28 C 0.71245 1.00379 0.30346 0.0
C29 C 0.76468 0.0089 0.16859 0.0
C30 C 0.7413 0.01456 0.09194 0.0
C31 C 0.70443 0.01416 0.12049 0.0
C32 C 0.69059 0.00944 0.22506 0.0
H33 H 0.55342 0.69826 0.32574 0.0
H34 H 0.51469 0.60678 0.30464 0.0
H35 H 0.51612 0.67672 0.04146 0.0
N36 N 0.53631 0.72421 0.14228 0.0
N37 N 0.52349 0.73525 0.06192 0.0
C38 C 0.54164 0.68208 0.28206 0.0
C39 C 0.53574 0.65103 0.32535 0.0
C40 C 0.53246 0.69213 0.18171 0.0
C41 C 0.5203 0.66999 0.12191 0.0
C42 C 0.51447 0.63889 0.16555 0.0
C43 C 0.51959 0.6306 0.2699 0.0
H44 H 0.26036 0.50072 0.04772 0.0
H45 H 0.15232 0.53254 0.0972 0.0
H46 H 0.21631 0.52781 0.34632 0.0
N47 N 0.27724 0.51139 0.23704 0.0
N48 N 0.28148 0.51883 0.32484 0.0
C49 C 0.23888 0.51032 0.09691 0.0
C50 C 0.20559 0.51607 0.06057 0.0
C51 C 0.24365 0.51614 0.19909 0.0
C52 C 0.21419 0.52556 0.26513 0.0
C53 C 0.18133 0.53092 0.22851 0.0
C54 C 0.17809 0.52853 0.1245 0.0
H55 H 0.06717 0.25088 0.23264 0.0
H56 H 0.05431 0.15217 0.2511 0.0
H57 H 0.04385 0.19586 0.533 0.0
N58 N 0.05605 0.25507 0.43439 0.0
N59 N 0.04631 0.25673 0.5289 0.0
C60 C 0.0626 0.22857 0.27924 0.0
C61 C 0.062 0.20161 0.23011 0.0
C62 C 0.05609 0.22686 0.38864 0.0
C63 C 0.04908 0.19762 0.44867 0.0
C64 C 0.04859 0.17057 0.39814 0.0
C65 C 0.05527 0.17298 0.2899 0.0
H66 H 0.29991 0.00491 0.1981 0.0
H67 H 0.40533 1.00348 0.28827 0.0
H68 H 0.3161 0.00791 0.52155 0.0
N69 N 0.26493 0.00686 0.39319 0.0
N70 N 0.252 0.0091 0.48567 0.0
C71 C 0.31737 0.00554 0.25774 0.0
C72 C 0.35479 1.00473 0.23025 0.0
C73 C 0.30276 0.00684 0.36369 0.0
C74 C 0.32624 0.00704 0.44026 0.0
C75 C 0.36306 0.00531 0.41247 0.0
C76 C 0.37669 1.00459 0.30857 0.0
H77 H 0.50481 0.30723 0.21226 0.0
H78 H 0.54602 0.3979 0.2323 0.0
H79 H 0.54443 0.32741 0.49445 0.0
N80 N 0.52232 0.28081 0.39401 0.0
N81 N 0.54141 0.26773 0.45745 0.0
C82 C 0.51729 0.32313 0.25543 0.0
C83 C 0.52395 0.35402 0.21193 0.0
C84 C 0.52696 0.31277 0.35483 0.0
C85 C 0.54009 0.33447 0.41431 0.0
C86 C 0.54611 0.36562 0.37111 0.0
C87 C 0.5408 0.37412 0.26695 0.0
C88 C 0.04741 0.96714 0.93908 0.0
N89 N 0.02076 0.95018 0.65097 0.0
C90 C 0.04049 0.92566 0.68635 0.0
C91 C 0.03618 0.89639 0.65656 0.0
C92 C 0.01453 0.89255 0.57963 0.0
C93 C 0.99523 0.91824 0.54051 0.0
C94 C 0.99813 0.94689 0.57935 0.0
Zn95 Zn 0.02702 0.9907 0.71752 0.0
C96 C 0.96236 0.00814 0.85513 0.0
N97 N 0.04952 0.06458 0.88694 0.0
C98 C 0.07268 0.06775 0.95712 0.0
C99 C 0.03013 0.08923 0.85093 0.0
C100 C 0.03528 0.11858 0.87908 0.0
C101 C 0.05752 0.12232 0.95468 0.0
C102 C 0.0765 0.09649 0.99413 0.0
Zn103 Zn 0.04231 0.0242 0.82282 0.0
O104 O 0.03837 0.9626 0.8517 0.0
C105 C 0.10658 0.00696 0.68375 0.0
O106 O 0.05134 0.99472 0.95988 0.0
H107 H 0.01023 0.08648 0.80012 0.0
H108 H 0.06018 0.92837 0.73759 0.0
H109 H 0.08784 0.04802 0.98509 0.0
O110 O 0.08225 0.99205 0.65081 0.0
O111 O 0.09824 0.02227 0.76143 0.0
H112 H 0.9827 0.96646 0.5515 0.0
O113 O 0.03462 0.05204 0.6866 0.0
O114 O 0.01548 0.02094 0.58372 0.0
O115 O 0.98589 0.02563 0.881 0.0
O116 O 0.9718 0.99008 0.78586 0.0
C117 C 0.02368 0.04808 0.60137 0.0
H118 H 0.05136 0.8772 0.68897 0.0
H119 H 0.97814 0.91612 0.48077 0.0
H120 H 0.02035 0.13793 0.84658 0.0
H121 H 0.09402 0.09859 0.05279 0.0
C122 C 0.48481 0.99526 0.63539 0.0
N123 N 0.5329 0.07527 0.70327 0.0
C124 C 0.54219 0.0848 0.59979 0.0
C125 C 0.54271 0.11631 0.56184 0.0
C126 C 0.53244 0.13851 0.62987 0.0
C127 C 0.5219 0.12813 0.7358 0.0
C128 C 0.52278 0.09631 0.77125 0.0
Zn129 Zn 0.53395 0.0277 0.75169 0.0
C130 C 0.47429 0.00563 0.91547 0.0
N131 N 0.53431 0.92816 0.83056 0.0
C132 C 0.5361 0.9069 0.76066 0.0
C133 C 0.53236 0.91879 0.93496 0.0
C134 C 0.53156 0.88723 0.97275 0.0
C135 C 0.53305 0.86493 0.9026 0.0
C136 C 0.53554 0.87499 0.79522 0.0
Zn137 Zn 0.5342 0.97569 0.78273 0.0
O138 O 0.49571 0.02104 0.65675 0.0
C139 C 0.59356 0.99625 0.61933 0.0
O140 O 0.49923 0.97018 0.6698 0.0
H141 H 0.53133 0.93586 0.98945 0.0
H142 H 0.54924 0.06799 0.54575 0.0
H143 H 0.53781 0.91467 0.67803 0.0
O144 O 0.57794 0.02205 0.6299 0.0
O145 O 0.58029 0.9718 0.6735 0.0
H146 H 0.51532 0.0885 0.8531 0.0
O147 O 0.56952 0.9834 0.89381 0.0
O148 O 0.57219 0.03386 0.84773 0.0
O149 O 0.48766 0.98021 0.89 0.0
O150 O 0.49027 0.03093 0.87628 0.0
C151 C 0.58343 0.00981 0.89837 0.0
H152 H 0.55085 0.1233 0.47958 0.0
H153 H 0.51361 0.14453 0.79068 0.0
H154 H 0.52962 0.88026 0.05605 0.0
H155 H 0.53667 0.85832 0.73898 0.0
C156 C 0.55839 0.46492 0.62159 0.0
N157 N 0.45757 0.50394 0.67259 0.0
C158 C 0.46355 0.51132 0.56699 0.0
C159 C 0.43561 0.51246 0.50642 0.0
C160 C 0.40102 0.50598 0.55468 0.0
C161 C 0.39521 0.49825 0.6635 0.0
C162 C 0.42414 0.49734 0.72153 0.0
Zn163 Zn 0.50226 0.50258 0.74917 0.0
C164 C 0.50901 0.44806 0.89346 0.0
N165 N 0.60298 0.50033 0.86436 0.0
C166 C 0.63665 0.50622 0.81616 0.0
C167 C 0.59669 0.49263 0.9698 0.0
C168 C 0.62452 0.49025 0.03086 0.0
C169 C 0.65935 0.49589 0.98335 0.0
C170 C 0.66548 0.50412 0.87476 0.0
Zn171 Zn 0.55836 0.50212 0.78706 0.0
O172 O 0.52658 0.47429 0.63949 0.0
C173 C 0.55148 0.55675 0.64265 0.0
O174 O 0.58183 0.4743 0.67292 0.0
H175 H 0.56993 0.48797 0.00714 0.0
H176 H 0.49015 0.5165 0.52911 0.0
H177 H 0.64118 0.51229 0.73244 0.0
O178 O 0.52079 0.54425 0.65399 0.0
O179 O 0.57586 0.54368 0.69067 0.0
H180 H 0.41989 0.49145 0.80535 0.0
O181 O 0.53402 0.53029 0.89711 0.0
O182 O 0.47882 0.53045 0.86309 0.0
O183 O 0.53978 0.4604 0.88176 0.0
O184 O 0.48468 0.46123 0.84569 0.0
C185 C 0.50222 0.53969 0.91488 0.0
H186 H 0.44089 0.51866 0.42273 0.0
H187 H 0.36863 0.49332 0.70293 0.0
H188 H 0.61898 0.4837 0.11433 0.0
H189 H 0.69225 0.50843 0.83588 0.0
C190 C 0.06947 0.52938 0.56154 0.0
N191 N 0.03722 0.43992 0.70282 0.0
C192 C 0.02967 0.43337 0.60784 0.0
C193 C 0.03125 0.40286 0.58278 0.0
C194 C 0.04092 0.37898 0.65588 0.0
C195 C 0.04872 0.38624 0.75298 0.0
C196 C 0.04653 0.41704 0.77518 0.0
Zn197 Zn 0.03444 0.48505 0.73772 0.0
C198 C 0.09792 0.50306 0.82892 0.0
N199 N 0.02886 0.57983 0.80253 0.0
C200 C 0.01591 0.60264 0.73663 0.0
C201 C 0.03996 0.58618 0.89364 0.0
C202 C 0.03837 0.61638 0.92134 0.0
C203 C 0.02498 0.64017 0.85506 0.0
C204 C 0.01358 0.63316 0.7618 0.0
Zn205 Zn 0.03146 0.53481 0.76658 0.0
O206 O 0.06403 0.50078 0.59406 0.0
C207 C 0.96818 0.51568 0.67458 0.0
O208 O 0.05642 0.54979 0.617 0.0
H209 H 0.04996 0.56775 0.94531 0.0
H210 H 0.02241 0.45185 0.55132 0.0
H211 H 1.00728 0.59717 0.66457 0.0
O212 O 0.98613 0.49088 0.6728 0.0
O213 O 0.9806 0.53886 0.7105 0.0
H214 H 0.05231 0.42268 0.85028 0.0
O215 O 1.00595 0.51949 0.91559 0.0
O216 O 1.00396 0.47097 0.88299 0.0
O217 O 0.08244 0.52923 0.82139 0.0
O218 O 0.08304 0.47963 0.80201 0.0
C219 C 0.99507 0.49177 0.94238 0.0
H220 H 0.0252 0.39793 0.50701 0.0
H221 H 0.0563 0.36826 0.8109 0.0
H222 H 0.04723 0.62112 0.99407 0.0
H223 H 1.00307 0.6511 0.70917 0.0
C224 C 0.19541 0.03614 0.52475 0.0
C225 C 0.21456 0.00811 0.52049 0.0
C226 C 0.16262 0.97905 0.61682 0.0
C227 C 0.14399 0.0074 0.62795 0.0
N228 N 0.14268 0.06328 0.59242 0.0
N229 N 0.21877 0.95348 0.56956 0.0
C230 C 0.16046 0.03608 0.58178 0.0
C231 C 0.19861 0.97972 0.56775 0.0
N232 N 0.21087 0.06277 0.47255 0.0
N233 N 0.14602 0.95137 0.65361 0.0
H234 H 0.24467 0.95328 0.53144 0.0
H235 H 0.21087 0.93246 0.61295 0.0
H236 H 0.12106 0.94967 0.69737 0.0
H237 H 0.15615 0.92992 0.63683 0.0
H238 H 0.19808 0.084 0.46353 0.0
H239 H 0.23644 0.06312 0.43196 0.0
H240 H 0.15412 0.08517 0.57155 0.0
H241 H 0.11625 0.06425 0.62524 0.0
C242 C 0.52078 0.21303 0.45028 0.0
C243 C 0.53858 0.23544 0.49772 0.0
C244 C 0.55556 0.19356 0.62653 0.0
C245 C 0.53314 0.17237 0.58897 0.0
N246 N 0.48751 0.16477 0.48 0.0
N247 N 0.56961 0.24738 0.63871 0.0
C248 C 0.51349 0.18305 0.50575 0.0
C249 C 0.55484 0.2257 0.58846 0.0
N250 N 0.51358 0.21889 0.34954 0.0
N251 N 0.579 0.18294 0.69406 0.0
H252 H 0.57045 0.27098 0.61122 0.0
H253 H 0.57848 0.24226 0.71147 0.0
H254 H 0.58154 0.15953 0.72062 0.0
H255 H 0.5984 0.19697 0.71553 0.0
H256 H 0.50287 0.20216 0.31066 0.0
H257 H 0.52331 0.23824 0.29945 0.0
H258 H 0.47039 0.17269 0.42594 0.0
H259 H 0.48058 0.14307 0.52073 0.0
C260 C 0.32658 0.48514 0.4012 0.0
C261 C 0.31392 0.51509 0.3692 0.0
C262 C 0.35691 0.53877 0.4634 0.0
C263 C 0.37092 0.50895 0.4909 0.0
N264 N 0.37352 0.45432 0.4721 0.0
N265 N 0.31906 0.57039 0.35626 0.0
C266 C 0.35712 0.48227 0.45534 0.0
C267 C 0.32984 0.54188 0.39638 0.0
N268 N 0.30813 0.45953 0.38544 0.0
N269 N 0.36871 0.56393 0.50415 0.0
H270 H 0.29904 0.57308 0.30762 0.0
H271 H 0.33159 0.59113 0.36386 0.0
H272 H 0.38875 0.56262 0.55265 0.0
H273 H 0.35712 0.58574 0.49617 0.0
H274 H 0.31363 0.4371 0.41692 0.0
H275 H 0.28544 0.46092 0.34739 0.0
H276 H 0.36713 0.43474 0.43861 0.0
H277 H 0.39544 0.45127 0.51336 0.0
C278 C 0.0773 0.30495 0.55083 0.0
C279 C 0.04651 0.28581 0.57004 0.0
C280 C 0.0139 0.32582 0.66113 0.0
C281 C 0.0433 0.34641 0.62999 0.0
N282 N 0.10245 0.35664 0.54053 0.0
N283 N 0.98576 0.27679 0.64257 0.0
C284 C 0.07492 0.33624 0.57364 0.0
C285 C 0.01501 0.29579 0.62644 0.0
N286 N 0.10917 0.29254 0.51606 0.0
N287 N 0.98506 0.33502 0.72402 0.0
H288 H 0.98644 0.25444 0.62005 0.0
H289 H 0.96057 0.28343 0.67323 0.0
H290 H 0.98284 0.3572 0.74761 0.0
H291 H 0.9642 0.32032 0.75803 0.0
H292 H 0.13336 0.30428 0.50912 0.0
H293 H 0.11185 0.26919 0.50468 0.0
H294 H 0.12446 0.35173 0.48887 0.0
H295 H 0.10235 0.37935 0.55959 0.0
C296 C 0.8794 0.99665 0.06142 0.0
C297 C 0.85168 0.00685 0.00177 0.0
C298 C 0.89606 0.01518 0.84408 0.0
C299 C 0.92422 0.00863 0.90604 0.0
N300 N 0.94195 0.99915 0.07948 0.0
N301 N 0.834 0.02875 0.83797 0.0
C302 C 0.91564 1.0015 0.01647 0.0
C303 C 0.86029 0.0168 0.89348 0.0
N304 N 0.87166 0.97988 0.15714 0.0
N305 N 0.9033 0.02001 0.73772 0.0
H306 H 0.80748 0.02962 0.87067 0.0
H307 H 0.83869 0.03992 0.76216 0.0
H308 H 0.92899 0.02142 0.6983 0.0
H309 H 0.88378 0.02086 0.68781 0.0
H310 H 0.89109 0.9695 0.19934 0.0
H311 H 0.84608 0.97242 0.18793 0.0
H312 H 0.9369 0.99756 0.16064 0.0
H313 H 0.96874 1.0016 0.05106 0.0
C314 C 0.49505 0.78468 0.0136 0.0
C315 C 0.52654 0.76747 0.02339 0.0
C316 C 0.56251 0.81417 0.95673 0.0
C317 C 0.53093 0.83113 0.94238 0.0
N318 N 0.46723 0.83215 0.94585 0.0
N319 N 0.58994 0.76359 0.98551 0.0
C320 C 0.49717 0.81623 0.96761 0.0
C321 C 0.56027 0.78164 0.99029 0.0
N322 N 0.46306 0.77082 0.05167 0.0
N323 N 0.59459 0.82929 0.93969 0.0
H324 H 0.58888 0.73964 0.00636 0.0
H325 H 0.61506 0.77173 0.95238 0.0
H326 H 0.59735 0.8528 0.91191 0.0
H327 H 0.61814 0.81914 0.95956 0.0
H328 H 0.43899 0.78252 0.05772 0.0
H329 H 0.46092 0.74763 0.08402 0.0
H330 H 0.44216 0.82197 0.95213 0.0
H331 H 0.46769 0.85544 0.91486 0.0
C332 C 0.73158 0.45711 0.13156 0.0
C333 C 0.74648 0.48293 0.16815 0.0
C334 C 0.70192 0.51689 0.09292 0.0
C335 C 0.68928 0.49151 0.04754 0.0
N336 N 0.69324 0.43781 0.0165 0.0
N337 N 0.75022 0.53827 0.16929 0.0
C338 C 0.70435 0.46163 0.06529 0.0
C339 C 0.73262 0.51309 0.1461 0.0
N340 N 0.74354 0.42811 0.16195 0.0
N341 N 0.68442 0.54454 0.08578 0.0
H342 H 0.77326 0.53645 0.20564 0.0
H343 H 0.74375 0.56108 0.14483 0.0
H344 H 0.66252 0.54842 0.0448 0.0
H345 H 0.68989 0.56281 0.1269 0.0
H346 H 0.73194 0.40769 0.14692 0.0
H347 H 0.76364 0.42443 0.21003 0.0
H348 H 0.70559 0.41632 0.017 0.0
H349 H 0.6728 0.44006 0.96937 0.0
C350 C 0.99054 0.71168 0.98025 0.0
C351 C 0.02056 0.73163 0.95462 0.0
C352 C 0.05053 0.69394 0.84708 0.0
C353 C 0.02256 0.67233 0.88457 0.0
N354 N 0.96656 0.65957 0.99059 0.0
N355 N 0.07874 0.74308 0.86377 0.0
C356 C 0.99265 0.68094 0.95209 0.0
C357 C 0.05024 0.72327 0.88659 0.0
N358 N 0.95944 0.72284 0.02617 0.0
N359 N 0.07723 0.68637 0.77369 0.0
H360 H 0.07857 0.76497 0.8898 0.0
H361 H 0.10302 0.73752 0.82384 0.0
H362 H 0.07887 0.66474 0.74582 0.0
H363 H 0.09663 0.70195 0.73547 0.0
H364 H 0.93555 0.71048 0.0388 0.0
H365 H 0.95664 0.74589 0.04117 0.0
H366 H 0.94629 0.66327 0.04957 0.0
H367 H 0.96633 0.63727 0.96809 0.0
C368 C 1.00553 0.13006 0.49595 0.0
C369 C 0.04085 0.13888 0.45338 0.0
C370 C 0.05809 0.08407 0.46763 0.0
C371 C 0.02462 0.07587 0.52438 0.0
N372 N 0.96689 0.09083 0.6003 0.0
N373 N 0.10217 0.12469 0.41173 0.0
C374 C 0.9983 0.09881 0.53988 0.0
C375 C 0.06754 0.1159 0.44265 0.0
N376 N 0.97871 0.15117 0.49147 0.0
N377 N 0.08103 0.06122 0.43966 0.0
H378 H 0.11019 0.14791 0.39633 0.0
H379 H 0.1233 0.10925 0.41072 0.0
H380 H 0.07439 0.03773 0.45769 0.0
H381 H 0.10487 0.06543 0.3909 0.0
H382 H 0.95195 0.1452 0.51103 0.0
H383 H 0.9829 0.17433 0.46087 0.0
H384 H 0.94839 0.10697 0.62611 0.0
H385 H 0.96031 0.06784 0.62858 0.0
C386 C 0.41629 0.0277 0.46854 0.0
C387 C 0.38937 1.00459 0.48812 0.0
C388 C 0.42346 0.97565 0.61484 0.0
C389 C 0.45316 0.99572 0.57889 0.0
N390 N 0.47946 0.0368 0.45109 0.0
N391 N 0.36986 0.95358 0.56938 0.0
C392 C 0.45001 0.02067 0.49984 0.0
C393 C 0.39351 0.97769 0.55863 0.0
N394 N 0.40978 0.05606 0.41734 0.0
N395 N 0.42262 0.95589 0.705 0.0
H396 H 0.34742 0.95411 0.5304 0.0
H397 H 0.37414 0.93217 0.61116 0.0
H398 H 0.44276 0.9546 0.75285 0.0
H399 H 0.39998 0.94317 0.73827 0.0
H400 H 0.4278 0.07453 0.40787 0.0
H401 H 0.3849 0.06185 0.39446 0.0
H402 H 0.47864 0.05366 0.38743 0.0
H403 H 0.50518 0.03073 0.46591 0.0
C404 C 0.58194 0.39038 0.49531 0.0
C405 C 0.55296 0.39101 0.43527 0.0
C406 C 0.54335 0.44509 0.46293 0.0
C407 C 0.56545 0.44234 0.54314 0.0
N408 N 0.60607 0.41028 0.63886 0.0
N409 N 0.49921 0.41754 0.39245 0.0
C410 C 0.58527 0.41451 0.56002 0.0
C411 C 0.53166 0.41802 0.42763 0.0
N412 N 0.60678 0.36756 0.48845 0.0
N413 N 0.53281 0.47357 0.42235 0.0
H414 H 0.48752 0.39714 0.37716 0.0
H415 H 0.48225 0.43658 0.39202 0.0
H416 H 0.54275 0.494 0.44372 0.0
H417 H 0.51785 0.47655 0.35977 0.0
H418 H 0.63008 0.3677 0.5233 0.0
H419 H 0.60581 0.35027 0.43945 0.0
H420 H 0.61726 0.38895 0.66143 0.0
H421 H 0.6107 0.42733 0.68564 0.0
C422 C 0.14672 0.56053 0.36142 0.0
C423 C 0.1491 0.53503 0.30216 0.0
C424 C 0.0901 0.51782 0.38323 0.0
C425 C 0.09207 0.53776 0.4609 0.0
N426 N 0.12327 0.57959 0.52289 0.0
N427 N 0.12452 0.48605 0.26931 0.0
C428 C 0.12022 0.56008 0.44907 0.0
C429 C 0.12097 0.51291 0.3151 0.0
N430 N 0.16955 0.58516 0.33349 0.0
N431 N 0.05887 0.50313 0.37632 0.0
H432 H 0.14788 0.47983 0.22579 0.0
H433 H 0.10557 0.46827 0.28471 0.0
H434 H 0.03545 0.50724 0.42402 0.0
H435 H 0.05551 0.48995 0.31598 0.0
H436 H 0.16683 0.60574 0.36776 0.0
H437 H 0.189 0.5862 0.26884 0.0
H438 H 0.1461 0.59274 0.524 0.0
H439 H 0.10433 0.5818 0.58644 0.0
C440 C 0.00956 0.89993 0.10855 0.0
C441 C 0.03386 0.87617 0.0818 0.0
C442 C 0.0745 0.91582 0.98287 0.0
C443 C 0.05045 0.93918 0.01366 0.0
N444 N 1.00358 0.95375 0.139 0.0
N445 N 0.0934 0.86239 0.01357 0.0
C446 C 0.02073 0.93128 0.08768 0.0
C447 C 0.06761 0.8843 0.02463 0.0
N448 N 0.97555 0.89255 0.15204 0.0
N449 N 0.10358 0.92394 0.91215 0.0
H450 H 0.08947 0.83916 0.0434 0.0
H451 H 0.11953 0.86767 0.98162 0.0
H452 H 0.11042 0.94714 0.88751 0.0
H453 H 0.11986 0.90792 0.87586 0.0
H454 H 0.95615 0.90925 0.16534 0.0
H455 H 0.96588 0.86978 0.16454 0.0
H456 H 0.98295 0.94898 0.1997 0.0
H457 H 0.01339 0.97645 0.12927 0.0
C458 C 0.6535 0.04072 0.04602 0.0
C459 C 0.67861 0.0164 0.04356 0.0
C460 C 0.64465 0.9913 0.92881 0.0
C461 C 0.61607 0.01209 0.94902 0.0
N462 N 0.59187 0.05454 0.04007 0.0
N463 N 0.69517 0.96563 -0.00513 0.0
C464 C 0.62018 0.03652 0.01043 0.0
C465 C 0.6736 0.99095 0.98776 0.0
N466 N 0.66144 0.06752 0.08422 0.0
N467 N 0.64522 0.97282 0.85036 0.0
H468 H 0.71683 0.96406 0.03719 0.0
H469 H 0.68968 0.94507 0.9654 0.0
H470 H 0.62578 0.97337 0.80057 0.0
H471 H 0.66725 0.95969 0.82676 0.0
H472 H 0.64539 0.08709 0.08011 0.0
H473 H 0.6859 0.07109 0.11024 0.0
H474 H 0.59277 0.07076 0.09288 0.0
H475 H 0.56641 0.05107 0.02092 0.0
C476 C 0.47854 0.61404 0.04201 0.0
C477 C 0.50759 0.61342 0.1018 0.0
C478 C 0.5172 0.55936 0.0739 0.0
C479 C 0.49511 0.56217 0.99364 0.0
N480 N 0.45426 0.59419 0.89865 0.0
N481 N 0.56124 0.58682 0.14519 0.0
C482 C 0.4752 0.58996 0.97717 0.0
C483 C 0.52887 0.5864 0.10954 0.0
N484 N 0.45363 0.63678 0.04934 0.0
N485 N 0.5277 0.53085 0.11433 0.0
H486 H 0.57289 0.60718 0.16102 0.0
H487 H 0.57819 0.56778 0.14563 0.0
H488 H 0.51772 0.51046 0.09281 0.0
H489 H 0.54263 0.52781 0.17696 0.0
H490 H 0.43028 0.63661 0.01472 0.0
H491 H 0.45456 0.65402 0.09858 0.0
H492 H 0.44303 0.61552 0.8763 0.0
H493 H 0.44952 0.57715 0.85198 0.0
C494 C 0.93819 0.45344 0.18645 0.0
C495 C 0.91179 0.47644 0.19886 0.0
C496 C 0.93766 0.50661 0.03877 0.0
C497 C 0.96664 0.48567 0.03117 0.0
N498 N 0.99744 0.44157 0.10754 0.0
N499 N 0.89321 0.52931 0.15453 0.0
C500 C 0.96775 0.45958 0.10759 0.0
C501 C 0.91367 0.50439 0.13069 0.0
N502 N 0.93478 0.42582 0.24906 0.0
N503 N 0.93148 0.52757 0.95623 0.0
H504 H 0.8755 0.5293 0.22265 0.0
H505 H 0.89673 0.55117 0.11176 0.0
H506 H 0.94654 0.52885 0.88361 0.0
H507 H 0.90854 0.54095 0.95586 0.0
H508 H 0.95133 0.40698 0.23733 0.0
H509 H 0.91365 0.42107 0.30835 0.0
H510 H 1.00105 0.42402 0.16698 0.0
H511 H 0.0199 0.44597 0.05277 0.0
C512 C 0.09578 0.18982 0.06607 0.0
C513 C 0.06428 0.20164 0.11603 0.0
C514 C 0.0281 0.16751 0.03797 0.0
C515 C 0.05955 0.15279 -0.0041 0.0
N516 N 0.12242 0.15798 0.93588 0.0
N517 N 1.00332 0.21388 0.10604 0.0
C518 C 0.09325 0.16682 -0.00218 0.0
C519 C 0.03165 0.19546 0.08197 0.0
N520 N 0.12764 0.1986 0.09223 0.0
N521 N 0.99556 0.15335 0.04804 0.0
H522 H 1.00607 0.23346 0.14435 0.0
H523 H 0.97881 0.21131 0.07926 0.0
H524 H 0.99178 0.13097 0.02982 0.0
H525 H 0.97272 0.16243 0.0863 0.0
H526 H 0.15168 0.18822 0.06862 0.0
H527 H 0.12919 0.21584 0.1414 0.0
H528 H 0.14714 0.16883 0.92964 0.0
H529 H 0.12087 0.14174 0.88325 0.0
C530 C 0.38297 0.02881 0.05237 0.0
C531 C 0.37414 1.00192 0.12374 0.0
C532 C 0.43068 0.97877 0.06241 0.0
C533 C 0.43944 0.00492 0.98659 0.0
N534 N 0.41607 0.04971 0.88773 0.0
N535 N 0.38354 0.94752 0.16689 0.0
C536 C 0.41323 0.02849 0.97458 0.0
C537 C 0.3956 0.97535 0.11537 0.0
N538 N 0.36336 0.05503 0.06116 0.0
N539 N 0.45642 0.95876 0.09245 0.0
H540 H 0.35811 0.94506 0.20858 0.0
H541 H 0.39728 0.92686 0.15891 0.0
H542 H 0.48339 0.96305 0.06925 0.0
H543 H 0.45147 0.9406 0.15241 0.0
H544 H 0.37099 0.07641 0.01937 0.0
H545 H 0.34038 0.05547 0.11427 0.0
H546 H 0.39623 0.06574 0.87268 0.0
H547 H 0.4358 0.04889 0.82479 0.0
C548 C 0.4807 0.38787 0.12556 0.0
C549 C 0.51039 0.36798 0.1146 0.0
C550 C 0.52704 0.39322 0.93727 0.0
C551 C 0.5033 0.41772 0.95928 0.0
N552 N 0.45631 0.43828 0.07431 0.0
N553 N 0.56066 0.34967 0.00801 0.0
C554 C 0.47899 0.41467 0.05218 0.0
C555 C 0.53276 0.36957 0.01866 0.0
N556 N 0.45496 0.38146 0.20848 0.0
N557 N 0.54402 0.39277 0.83845 0.0
H558 H 0.56437 0.33143 0.06536 0.0
H559 H 0.58063 0.35196 0.94483 0.0
H560 H 0.53932 0.4095 0.77735 0.0
H561 H 0.55963 0.37439 0.81504 0.0
H562 H 0.43124 0.39365 0.21761 0.0
H563 H 0.45614 0.3619 0.26285 0.0
H564 H 0.44113 0.43895 0.14652 0.0
H565 H 0.45414 0.45821 0.02256 0.0
C566 C 0.18951 0.52676 0.88096 0.0
C567 C 0.19483 0.50459 0.96589 0.0
C568 C 0.14098 0.47666 0.9452 0.0
C569 C 0.13363 0.50041 0.86576 0.0
N570 N 0.15771 0.54056 0.73164 0.0
N571 N 0.18542 0.45247 0.04719 0.0
C572 C 0.16027 0.52302 0.82458 0.0
C573 C 0.17427 0.47706 0.98454 0.0
N574 N 0.21102 0.55236 0.85971 0.0
N575 N 0.11536 0.45559 0.99038 0.0
H576 H 0.20945 0.45322 0.07834 0.0
H577 H 0.17283 0.43085 0.05903 0.0
H578 H 0.08976 0.45534 0.96942 0.0
H579 H 0.11845 0.44004 0.05591 0.0
H580 H 0.20619 0.57143 0.80701 0.0
H581 H 0.23315 0.55458 0.89894 0.0
H582 H 0.1775 0.55595 0.69432 0.0
H583 H 0.13742 0.53712 0.68673 0.0
C584 C 0.97888 0.82418 0.46524 0.0
C585 C 0.011 0.81263 0.41788 0.0
C586 C 0.0455 0.84764 0.49792 0.0
C587 C 0.01346 0.8621 0.53724 0.0
N588 N 0.95039 0.85604 0.59276 0.0
N589 N 0.07186 0.80137 0.4329 0.0
C590 C 0.98023 0.84752 0.53303 0.0
C591 C 0.043 0.81942 0.45455 0.0
N592 N 0.94757 0.81484 0.437 0.0
N593 N 0.07771 0.8623 0.48965 0.0
H594 H 0.06989 0.78169 0.39448 0.0
H595 H 0.09597 0.80438 0.46149 0.0
H596 H 0.08077 0.88489 0.50691 0.0
H597 H 0.10103 0.85338 0.45358 0.0
H598 H 0.9232 0.82501 0.45829 0.0
H599 H 0.9468 0.79731 0.3885 0.0
H600 H 0.92596 0.84477 0.59752 0.0
H601 H 0.95102 0.87244 0.64528 0.0
C602 C 0.68555 0.02074 0.47502 0.0
C603 C 0.69297 0.99658 0.41126 0.0
C604 C 0.63666 0.9708 0.48812 0.0
C605 C 0.62878 0.99515 0.55184 0.0
N606 N 0.65294 0.03664 0.63228 0.0
N607 N 0.68205 0.94402 0.38362 0.0
C608 C 0.65547 0.01811 0.5536 0.0
C609 C 0.67088 0.96978 0.42901 0.0
N610 N 0.70623 0.04689 0.45729 0.0
N611 N 0.61082 0.95008 0.47668 0.0
H612 H 0.70684 0.94334 0.33871 0.0
H613 H 0.66858 0.92281 0.39928 0.0
H614 H 0.58463 0.95122 0.51135 0.0
H615 H 0.61436 0.93376 0.42355 0.0
H616 H 0.69958 0.06696 0.49211 0.0
H617 H 0.72922 0.04882 0.40364 0.0
H618 H 0.6731 0.05187 0.64185 0.0
H619 H 0.63275 0.03418 0.69492 0.0
C620 C 0.52696 0.63525 0.51861 0.0
C621 C 0.54944 0.63721 0.42279 0.0
C622 C 0.58135 0.5907 0.48468 0.0
C623 C 0.55695 0.58726 0.57737 0.0
N624 N 0.51579 0.6117 0.69846 0.0
N625 N 0.60512 0.62434 0.32902 0.0
C626 C 0.53288 0.61153 0.59966 0.0
C627 C 0.57939 0.61761 0.41174 0.0
N628 N 0.49878 0.65483 0.52946 0.0
N629 N 0.60439 0.56737 0.46229 0.0
H630 H 0.60373 0.64394 0.27494 0.0
H631 H 0.62901 0.61239 0.31976 0.0
H632 H 0.60674 0.54741 0.51377 0.0
H633 H 0.61971 0.56695 0.39018 0.0
H634 H 0.47875 0.65223 0.59246 0.0
H635 H 0.4949 0.6731 0.47241 0.0
H636 H 0.49996 0.62992 0.72212 0.0
H637 H 0.52063 0.59495 0.75934 0.0
C638 C 0.87972 0.48401 0.62937 0.0
C639 C 0.87267 0.50433 0.54163 0.0
C640 C 0.92214 0.53817 0.56189 0.0
C641 C 0.93187 0.5159 0.6423 0.0
N642 N 0.91316 0.47413 0.77706 0.0
N643 N 0.87724 0.55551 0.44987 0.0
C644 C 0.90817 0.49103 0.68466 0.0
C645 C 0.8902 0.53343 0.51857 0.0
N646 N 0.86084 0.45692 0.65418 0.0
N647 N 0.94465 0.56216 0.52062 0.0
H648 H 0.85419 0.55165 0.41661 0.0
H649 H 0.88711 0.57813 0.43403 0.0
H650 H 0.96856 0.56625 0.54857 0.0
H651 H 0.94076 0.577 0.45417 0.0
H652 H 0.86732 0.43898 0.70884 0.0
H653 H 0.83907 0.45225 0.6163 0.0
H654 H 0.89529 0.45732 0.81618 0.0
H655 H 0.93365 0.47895 0.8195 0.0
loop_
_geom_bond_atom_site_label_1
_geom_bond_atom_site_label_2
_geom_bond_distance
_geom_bond_site_symmetry_2
_ccdc_geom_bond_type
H0 C5 0.929 . S
H1 C10 0.931 . S
H2 C8 0.930 . S
N3 N4 1.234 . S
N3 C7 1.453 . S
N4 N3 1.234 . S
C5 H0 0.929 . S
C5 C6 1.373 . S
C5 C7 1.368 . S
C6 C5 1.373 . S
C6 C10 1.397 . S
C7 N3 1.453 . S
C7 C5 1.368 . S
C7 C8 1.373 . S
C8 H2 0.930 . S
C8 C7 1.373 . S
C8 C9 1.371 . S
C9 C8 1.371 . S
C9 C10 1.383 . S
C10 H1 0.931 . S
C10 C6 1.397 . S
C10 C9 1.383 . S
H11 C16 0.929 . S
H12 C21 0.931 . S
H13 C19 0.930 . S
N14 N15 1.234 1_554 S
N14 C18 1.453 . S
N15 N14 1.234 1_556 S
C16 H11 0.929 . S
C16 C17 1.373 . S
C16 C18 1.368 . S
C17 C16 1.373 . S
C17 C21 1.397 . S
C18 N14 1.453 . S
C18 C16 1.368 . S
C18 C19 1.373 1_554 S
C19 H13 0.930 . S
C19 C18 1.373 1_556 S
C19 C20 1.371 . S
C20 C19 1.371 . S
C20 C21 1.383 1_556 S
C21 H12 0.931 . S
C21 C17 1.397 . S
C21 C20 1.383 1_554 S
H22 C27 0.929 . S
H23 C32 0.931 . S
H24 C30 0.930 1_556 S
N25 N26 1.221 1_545 S
N25 C29 1.453 . S
N26 N25 1.221 1_565 S
C27 H22 0.929 . S
C27 C28 1.373 . S
C27 C29 1.368 . S
C28 C27 1.373 . S
C28 C32 1.397 1_545 S
C29 N25 1.453 . S
C29 C27 1.368 . S
C29 C30 1.373 . S
C30 H24 0.930 1_554 S
C30 C29 1.373 . S
C30 C31 1.374 . S
C31 C30 1.374 . S
C31 C32 1.384 1_545 S
C32 H23 0.931 . S
C32 C28 1.397 1_565 S
C32 C31 1.384 1_565 S
H33 C38 0.929 . S
H34 C43 0.931 . S
H35 C41 0.930 1_556 S
N36 N37 1.234 . S
N36 C40 1.453 . S
N37 N36 1.234 . S
C38 H33 0.929 . S
C38 C39 1.373 . S
C38 C40 1.368 . S
C39 C38 1.373 . S
C39 C43 1.397 . S
C40 N36 1.453 . S
C40 C38 1.368 . S
C40 C41 1.373 . S
C41 H35 0.930 1_554 S
C41 C40 1.373 . S
C41 C42 1.371 . S
C42 C41 1.371 . S
C42 C43 1.383 . S
C43 H34 0.931 . S
C43 C39 1.397 . S
C43 C42 1.383 . S
H44 C49 0.929 . S
H45 C54 0.931 . S
H46 C52 0.930 . S
N47 N48 1.234 . S
N47 C51 1.453 . S
N48 N47 1.234 . S
C49 H44 0.929 . S
C49 C50 1.373 . S
C49 C51 1.368 . S
C50 C49 1.373 . S
C50 C54 1.397 . S
C51 N47 1.453 . S
C51 C49 1.368 . S
C51 C52 1.373 . S
C52 H46 0.930 . S
C52 C51 1.373 . S
C52 C53 1.371 . S
C53 C52 1.371 . S
C53 C54 1.383 . S
C54 H45 0.931 . S
C54 C50 1.397 . S
C54 C53 1.383 . S
H55 C60 0.929 . S
H56 C65 0.931 . S
H57 C63 0.930 . S
N58 N59 1.234 . S
N58 C62 1.453 . S
N59 N58 1.234 . S
C60 H55 0.929 . S
C60 C61 1.373 . S
C60 C62 1.368 . S
C61 C60 1.373 . S
C61 C65 1.397 . S
C62 N58 1.453 . S
C62 C60 1.368 . S
C62 C63 1.373 . S
C63 H57 0.930 . S
C63 C62 1.373 . S
C63 C64 1.371 . S
C64 C63 1.371 . S
C64 C65 1.383 . S
C65 H56 0.931 . S
C65 C61 1.397 . S
C65 C64 1.383 . S
H66 C71 0.929 . S
H67 C76 0.931 . S
H68 C74 0.930 . S
N69 N70 1.229 1_545 S
N69 C73 1.453 . S
N70 N69 1.229 1_565 S
C71 H66 0.929 . S
C71 C72 1.373 . S
C71 C73 1.368 . S
C72 C71 1.373 . S
C72 C76 1.397 1_545 S
C73 N69 1.453 . S
C73 C71 1.368 . S
C73 C74 1.373 . S
C74 H68 0.930 . S
C74 C73 1.373 . S
C74 C75 1.375 . S
C75 C74 1.375 . S
C75 C76 1.378 1_545 S
C76 H67 0.931 . S
C76 C72 1.397 1_565 S
C76 C75 1.378 1_565 S
H77 C82 0.929 . S
H78 C87 0.931 . S
H79 C85 0.930 . S
N80 N81 1.234 . S
N80 C84 1.453 . S
N81 N80 1.234 . S
C82 H77 0.929 . S
C82 C83 1.373 . S
C82 C84 1.368 . S
C83 C82 1.373 . S
C83 C87 1.397 . S
C84 N80 1.453 . S
C84 C82 1.368 . S
C84 C85 1.373 . S
C85 H79 0.930 . S
C85 C84 1.373 . S
C85 C86 1.371 . S
C86 C85 1.371 . S
C86 C87 1.383 . S
C87 H78 0.931 . S
C87 C83 1.397 . S
C87 C86 1.383 . S
C88 O104 1.251 . S
C88 O106 1.254 . S
N89 C90 1.333 . S
N89 C94 1.307 1_455 S
N89 Zn95 2.020 . S
C90 N89 1.333 . S
C90 C91 1.379 . S
C90 H108 0.952 . S
C91 C90 1.379 . S
C91 C92 1.390 1_455 S
C91 H118 0.949 . S
C92 C91 1.390 1_655 S
C92 C93 1.357 . S
C93 C92 1.357 . S
C93 C94 1.370 . S
C93 H119 0.950 . S
C94 N89 1.307 1_655 S
C94 C93 1.370 . S
C94 H112 0.948 1_565 S
Zn95 N89 2.020 . S
Zn95 O104 2.039 . S
Zn95 O110 2.034 . S
Zn95 O114 2.025 1_565 S
Zn95 O116 2.024 1_455 S
C96 O115 1.246 . S
C96 O116 1.249 1_545 S
N97 C98 1.305 1_556 S
N97 C99 1.332 1_556 S
N97 Zn103 2.022 . S
C98 N97 1.305 1_554 S
C98 C102 1.370 . S
C98 H109 0.948 1_545 S
C99 N97 1.332 1_554 S
C99 C100 1.379 . S
C99 H107 0.952 1_554 S
C100 C99 1.379 . S
C100 C101 1.390 . S
C100 H120 0.949 . S
C101 C100 1.390 . S
C101 C102 1.357 . S
C102 C98 1.370 . S
C102 C101 1.357 . S
C102 H121 0.950 . S
Zn103 N97 2.022 . S
Zn103 O106 2.025 1_545 S
Zn103 O111 2.024 . S
Zn103 O113 2.039 . S
Zn103 O115 2.034 1_455 S
O104 C88 1.251 . S
O104 Zn95 2.039 . S
C105 O110 1.246 . S
C105 O111 1.249 1_565 S
O106 C88 1.254 . S
O106 Zn103 2.025 1_565 S
H107 C99 0.952 1_556 S
H108 C90 0.952 . S
H109 C98 0.948 1_565 S
O110 Zn95 2.034 . S
O110 C105 1.246 . S
O111 Zn103 2.024 . S
O111 C105 1.249 1_545 S
H112 C94 0.948 1_545 S
O113 Zn103 2.039 . S
O113 C117 1.251 . S
O114 Zn95 2.025 1_545 S
O114 C117 1.254 . S
O115 C96 1.246 . S
O115 Zn103 2.034 1_655 S
O116 Zn95 2.024 1_655 S
O116 C96 1.249 1_565 S
C117 O113 1.251 . S
C117 O114 1.254 . S
H118 C91 0.949 . S
H119 C93 0.950 . S
H120 C100 0.949 . S
H121 C102 0.950 . S
C122 O138 1.251 1_565 S
C122 O140 1.254 . S
N123 C124 1.333 . S
N123 C128 1.307 . S
N123 Zn129 2.020 . S
C124 N123 1.333 . S
C124 C125 1.379 . S
C124 H142 0.952 . S
C125 C124 1.379 . S
C125 C126 1.390 . S
C125 H152 0.949 . S
C126 C125 1.390 . S
C126 C127 1.357 . S
C127 C126 1.357 . S
C127 C128 1.370 . S
C127 H153 0.950 . S
C128 N123 1.307 . S
C128 C127 1.370 . S
C128 H146 0.948 . S
Zn129 N123 2.020 . S
Zn129 O138 2.039 . S
Zn129 O144 2.034 . S
Zn129 O148 2.025 . S
Zn129 O150 2.024 . S
C130 O149 1.246 1_545 S
C130 O150 1.249 . S
N131 C132 1.307 . S
N131 C133 1.333 . S
N131 Zn137 2.020 . S
C132 N131 1.307 . S
C132 C136 1.370 . S
C132 H143 0.948 . S
C133 N131 1.333 . S
C133 C134 1.379 . S
C133 H141 0.952 . S
C134 C133 1.379 . S
C134 C135 1.390 . S
C134 H154 0.949 1_556 S
C135 C134 1.390 . S
C135 C136 1.357 . S
C136 C132 1.370 . S
C136 C135 1.357 . S
C136 H155 0.950 . S
Zn137 N131 2.020 . S
Zn137 O140 2.025 . S
Zn137 O145 2.024 . S
Zn137 O147 2.039 . S
Zn137 O149 2.034 . S
O138 C122 1.251 1_545 S
O138 Zn129 2.039 . S
C139 O144 1.246 1_565 S
C139 O145 1.249 . S
O140 C122 1.254 . S
O140 Zn137 2.025 . S
H141 C133 0.952 . S
H142 C124 0.952 . S
H143 C132 0.948 . S
O144 Zn129 2.034 . S
O144 C139 1.246 1_545 S
O145 Zn137 2.024 . S
O145 C139 1.249 . S
H146 C128 0.948 . S
O147 Zn137 2.039 . S
O147 C151 1.251 1_565 S
O148 Zn129 2.025 . S
O148 C151 1.254 . S
O149 C130 1.246 1_565 S
O149 Zn137 2.034 . S
O150 Zn129 2.024 . S
O150 C130 1.249 . S
C151 O147 1.251 1_545 S
C151 O148 1.254 . S
H152 C125 0.949 . S
H153 C127 0.950 . S
H154 C134 0.949 1_554 S
H155 C136 0.950 . S
C156 O172 1.251 . S
C156 O174 1.254 . S
N157 C158 1.333 . S
N157 C162 1.307 . S
N157 Zn163 2.020 . S
C158 N157 1.333 . S
C158 C159 1.379 . S
C158 H176 0.952 . S
C159 C158 1.379 . S
C159 C160 1.390 . S
C159 H186 0.949 . S
C160 C159 1.390 . S
C160 C161 1.357 . S
C161 C160 1.357 . S
C161 C162 1.370 . S
C161 H187 0.950 . S
C162 N157 1.307 . S
C162 C161 1.370 . S
C162 H180 0.948 . S
Zn163 N157 2.020 . S
Zn163 O172 2.039 . S
Zn163 O178 2.034 . S
Zn163 O182 2.025 . S
Zn163 O184 2.024 . S
C164 O183 1.246 . S
C164 O184 1.249 . S
N165 C166 1.307 . S
N165 C167 1.333 . S
N165 Zn171 2.020 . S
C166 N165 1.307 . S
C166 C170 1.370 . S
C166 H177 0.948 . S
C167 N165 1.333 . S
C167 C168 1.379 . S
C167 H175 0.952 . S
C168 C167 1.379 . S
C168 C169 1.390 . S
C168 H188 0.949 . S
C169 C168 1.390 . S
C169 C170 1.357 . S
C170 C166 1.370 . S
C170 C169 1.357 . S
C170 H189 0.950 . S
Zn171 N165 2.020 . S
Zn171 O174 2.025 . S
Zn171 O179 2.024 . S
Zn171 O181 2.039 . S
Zn171 O183 2.034 . S
O172 C156 1.251 . S
O172 Zn163 2.039 . S
C173 O178 1.246 . S
C173 O179 1.249 . S
O174 C156 1.254 . S
O174 Zn171 2.025 . S
H175 C167 0.952 . S
H176 C158 0.952 . S
H177 C166 0.948 . S
O178 Zn163 2.034 . S
O178 C173 1.246 . S
O179 Zn171 2.024 . S
O179 C173 1.249 . S
H180 C162 0.948 . S
O181 Zn171 2.039 . S
O181 C185 1.251 . S
O182 Zn163 2.025 . S
O182 C185 1.254 . S
O183 C164 1.246 . S
O183 Zn171 2.034 . S
O184 Zn163 2.024 . S
O184 C164 1.249 . S
C185 O181 1.251 . S
C185 O182 1.254 . S
H186 C159 0.949 . S
H187 C161 0.950 . S
H188 C168 0.949 . S
H189 C170 0.950 . S
C190 O206 1.251 . S
C190 O208 1.254 . S
N191 C192 1.333 . S
N191 C196 1.307 . S
N191 Zn197 2.020 . S
C192 N191 1.333 . S
C192 C193 1.379 . S
C192 H210 0.952 . S
C193 C192 1.379 . S
C193 C194 1.390 . S
C193 H220 0.949 . S
C194 C193 1.390 . S
C194 C195 1.357 . S
C195 C194 1.357 . S
C195 C196 1.370 . S
C195 H221 0.950 . S
C196 N191 1.307 . S
C196 C195 1.370 . S
C196 H214 0.948 . S
Zn197 N191 2.020 . S
Zn197 O206 2.039 . S
Zn197 O212 2.034 1_455 S
Zn197 O216 2.025 1_455 S
Zn197 O218 2.024 . S
C198 O217 1.246 . S
C198 O218 1.249 . S
N199 C200 1.307 . S
N199 C201 1.333 . S
N199 Zn205 2.020 . S
C200 N199 1.307 . S
C200 C204 1.370 . S
C200 H211 0.948 . S
C201 N199 1.333 . S
C201 C202 1.379 1_455 S
C201 H209 0.952 1_455 S
C202 C201 1.379 1_655 S
C202 C203 1.390 1_655 S
C202 H222 0.949 . S
C203 C202 1.390 1_455 S
C203 C204 1.357 . S
C204 C200 1.370 . S
C204 C203 1.357 . S
C204 H223 0.950 . S
Zn205 N199 2.020 . S
Zn205 O208 2.025 . S
Zn205 O213 2.024 1_455 S
Zn205 O215 2.039 1_455 S
Zn205 O217 2.034 . S
O206 C190 1.251 . S
O206 Zn197 2.039 . S
C207 O212 1.246 . S
C207 O213 1.249 . S
O208 C190 1.254 . S
O208 Zn205 2.025 . S
H209 C201 0.952 1_655 S
H210 C192 0.952 . S
H211 C200 0.948 . S
O212 Zn197 2.034 1_655 S
O212 C207 1.246 . S
O213 Zn205 2.024 1_655 S
O213 C207 1.249 . S
H214 C196 0.948 . S
O215 Zn205 2.039 1_655 S
O215 C219 1.251 . S
O216 Zn197 2.025 1_655 S
O216 C219 1.254 . S
O217 C198 1.246 . S
O217 Zn205 2.034 . S
O218 Zn197 2.024 . S
O218 C198 1.249 . S
C219 O215 1.251 . S
C219 O216 1.254 . S
H220 C193 0.949 . S
H221 C195 0.950 . S
H222 C202 0.949 . S
H223 C204 0.950 . S
C224 C225 1.363 1_545 S
C224 C230 1.379 . S
C224 N232 1.356 . S
C225 C224 1.363 1_565 S
C225 C231 1.363 . S
C226 C227 1.363 . S
C226 C231 1.379 . S
C226 N233 1.356 . S
C227 C226 1.363 . S
C227 C230 1.363 1_565 S
N228 C230 1.356 . S
N228 H240 0.984 . S
N228 H241 0.985 . S
N229 C231 1.356 . S
N229 H234 0.984 . S
N229 H235 0.985 . S
C230 C224 1.379 . S
C230 C227 1.363 1_545 S
C230 N228 1.356 . S
C231 C225 1.363 . S
C231 C226 1.379 . S
C231 N229 1.356 . S
N232 C224 1.356 . S
N232 H238 0.984 . S
N232 H239 0.984 . S
N233 C226 1.356 . S
N233 H236 0.984 . S
N233 H237 0.985 . S
H234 N229 0.984 . S
H235 N229 0.985 . S
H236 N233 0.984 . S
H237 N233 0.985 . S
H238 N232 0.984 . S
H239 N232 0.984 . S
H240 N228 0.984 . S
H241 N228 0.985 . S
C242 C243 1.363 . S
C242 C248 1.379 . S
C242 N250 1.356 . S
C243 C242 1.363 . S
C243 C249 1.363 . S
C244 C245 1.363 . S
C244 C249 1.379 . S
C244 N251 1.356 . S
C245 C244 1.363 . S
C245 C248 1.363 . S
N246 C248 1.356 . S
N246 H258 0.984 . S
N246 H259 0.985 . S
N247 C249 1.356 . S
N247 H252 0.984 . S
N247 H253 0.985 . S
C248 C242 1.379 . S
C248 C245 1.363 . S
C248 N246 1.356 . S
C249 C243 1.363 . S
C249 C244 1.379 . S
C249 N247 1.356 . S
N250 C242 1.356 . S
N250 H256 0.984 . S
N250 H257 0.984 . S
N251 C244 1.356 . S
N251 H254 0.984 . S
N251 H255 0.985 . S
H252 N247 0.984 . S
H253 N247 0.985 . S
H254 N251 0.984 . S
H255 N251 0.985 . S
H256 N250 0.984 . S
H257 N250 0.984 . S
H258 N246 0.984 . S
H259 N246 0.985 . S
C260 C261 1.363 . S
C260 C266 1.379 . S
C260 N268 1.356 . S
C261 C260 1.363 . S
C261 C267 1.363 . S
C262 C263 1.363 . S
C262 C267 1.379 . S
C262 N269 1.356 . S
C263 C262 1.363 . S
C263 C266 1.363 . S
N264 C266 1.356 . S
N264 H276 0.984 . S
N264 H277 0.985 . S
N265 C267 1.356 . S
N265 H270 0.984 . S
N265 H271 0.985 . S
C266 C260 1.379 . S
C266 C263 1.363 . S
C266 N264 1.356 . S
C267 C261 1.363 . S
C267 C262 1.379 . S
C267 N265 1.356 . S
N268 C260 1.356 . S
N268 H274 0.984 . S
N268 H275 0.984 . S
N269 C262 1.356 . S
N269 H272 0.984 . S
N269 H273 0.985 . S
H270 N265 0.984 . S
H271 N265 0.985 . S
H272 N269 0.984 . S
H273 N269 0.985 . S
H274 N268 0.984 . S
H275 N268 0.984 . S
H276 N264 0.984 . S
H277 N264 0.985 . S
C278 C279 1.363 . S
C278 C284 1.379 . S
C278 N286 1.356 . S
C279 C278 1.363 . S
C279 C285 1.363 . S
C280 C281 1.363 . S
C280 C285 1.379 . S
C280 N287 1.356 . S
C281 C280 1.363 . S
C281 C284 1.363 . S
N282 C284 1.356 . S
N282 H294 0.984 . S
N282 H295 0.985 . S
N283 C285 1.356 . S
N283 H288 0.984 . S
N283 H289 0.985 . S
C284 C278 1.379 . S
C284 C281 1.363 . S
C284 N282 1.356 . S
C285 C279 1.363 . S
C285 C280 1.379 . S
C285 N283 1.356 . S
N286 C278 1.356 . S
N286 H292 0.984 . S
N286 H293 0.984 . S
N287 C280 1.356 . S
N287 H290 0.984 . S
N287 H291 0.985 1_455 S
H288 N283 0.984 . S
H289 N283 0.985 . S
H290 N287 0.984 . S
H291 N287 0.985 1_655 S
H292 N286 0.984 . S
H293 N286 0.984 . S
H294 N282 0.984 . S
H295 N282 0.985 . S
C296 C297 1.363 1_564 S
C296 C302 1.379 1_554 S
C296 N304 1.356 . S
C297 C296 1.363 1_546 S
C297 C303 1.363 . S
C298 C299 1.363 . S
C298 C303 1.379 . S
C298 N305 1.356 . S
C299 C298 1.363 . S
C299 C302 1.363 1_545 S
N300 C302 1.356 . S
N300 H312 0.984 1_556 S
N300 H313 0.985 . S
N301 C303 1.356 . S
N301 H306 0.984 . S
N301 H307 0.985 . S
C302 C296 1.379 1_556 S
C302 C299 1.363 1_565 S
C302 N300 1.356 . S
C303 C297 1.363 . S
C303 C298 1.379 . S
C303 N301 1.356 . S
N304 C296 1.356 . S
N304 H310 0.984 . S
N304 H311 0.984 . S
N305 C298 1.356 . S
N305 H308 0.984 . S
N305 H309 0.985 . S
H306 N301 0.984 . S
H307 N301 0.985 . S
H308 N305 0.984 . S
H309 N305 0.985 . S
H310 N304 0.984 . S
H311 N304 0.984 . S
H312 N300 0.984 1_554 S
H313 N300 0.985 . S
C314 C315 1.363 . S
C314 C320 1.379 . S
C314 N322 1.356 . S
C315 C314 1.363 . S
C315 C321 1.363 1_554 S
C316 C317 1.363 . S
C316 C321 1.379 . S
C316 N323 1.356 . S
C317 C316 1.363 . S
C317 C320 1.363 1_556 S
N318 C320 1.356 . S
N318 H330 0.984 . S
N318 H331 0.985 1_554 S
N319 C321 1.356 . S
N319 H324 0.984 . S
N319 H325 0.985 . S
C320 C314 1.379 . S
C320 C317 1.363 1_554 S
C320 N318 1.356 . S
C321 C315 1.363 1_556 S
C321 C316 1.379 . S
C321 N319 1.356 . S
N322 C314 1.356 . S
N322 H328 0.984 . S
N322 H329 0.984 . S
N323 C316 1.356 . S
N323 H326 0.984 . S
N323 H327 0.985 . S
H324 N319 0.984 . S
H325 N319 0.985 . S
H326 N323 0.984 . S
H327 N323 0.985 . S
H328 N322 0.984 . S
H329 N322 0.984 . S
H330 N318 0.984 . S
H331 N318 0.985 1_556 S
C332 C333 1.363 . S
C332 C338 1.379 1_554 S
C332 N340 1.356 . S
C333 C332 1.363 . S
C333 C339 1.363 . S
C334 C335 1.363 . S
C334 C339 1.379 1_556 S
C334 N341 1.356 . S
C335 C334 1.363 . S
C335 C338 1.363 . S
N336 C338 1.356 . S
N336 H348 0.984 . S
N336 H349 0.985 . S
N337 C339 1.356 . S
N337 H342 0.984 . S
N337 H343 0.985 . S
C338 C332 1.379 1_556 S
C338 C335 1.363 . S
C338 N336 1.356 . S
C339 C333 1.363 . S
C339 C334 1.379 1_554 S
C339 N337 1.356 . S
N340 C332 1.356 . S
N340 H346 0.984 . S
N340 H347 0.984 . S
N341 C334 1.356 . S
N341 H344 0.984 . S
N341 H345 0.985 . S
H342 N337 0.984 . S
H343 N337 0.985 . S
H344 N341 0.984 . S
H345 N341 0.985 . S
H346 N340 0.984 . S
H347 N340 0.984 . S
H348 N336 0.984 . S
H349 N336 0.985 . S
C350 C351 1.363 . S
C350 C356 1.379 . S
C350 N358 1.356 . S
C351 C350 1.363 . S
C351 C357 1.363 1_655 S
C352 C353 1.363 . S
C352 C357 1.379 . S
C352 N359 1.356 . S
C353 C352 1.363 . S
C353 C356 1.363 1_455 S
N354 C356 1.356 . S
N354 H366 0.984 . S
N354 H367 0.985 . S
N355 C357 1.356 1_554 S
N355 H360 0.984 . S
N355 H361 0.985 . S
C356 C350 1.379 . S
C356 C353 1.363 1_655 S
C356 N354 1.356 . S
C357 C351 1.363 1_455 S
C357 C352 1.379 . S
C357 N355 1.356 1_556 S
N358 C350 1.356 . S
N358 H364 0.984 . S
N358 H365 0.984 . S
N359 C352 1.356 . S
N359 H362 0.984 . S
N359 H363 0.985 . S
H360 N355 0.984 . S
H361 N355 0.985 . S
H362 N359 0.984 . S
H363 N359 0.985 . S
H364 N358 0.984 . S
H365 N358 0.984 . S
H366 N354 0.984 . S
H367 N354 0.985 . S
C368 C369 1.363 . S
C368 C374 1.379 . S
C368 N376 1.356 . S
C369 C368 1.363 . S
C369 C375 1.363 . S
C370 C371 1.363 . S
C370 C375 1.379 . S
C370 N377 1.356 . S
C371 C370 1.363 . S
C371 C374 1.363 . S
N372 C374 1.356 . S
N372 H384 0.984 . S
N372 H385 0.985 . S
N373 C375 1.356 . S
N373 H378 0.984 . S
N373 H379 0.985 . S
C374 C368 1.379 . S
C374 C371 1.363 . S
C374 N372 1.356 . S
C375 C369 1.363 . S
C375 C370 1.379 . S
C375 N373 1.356 . S
N376 C368 1.356 . S
N376 H382 0.984 . S
N376 H383 0.984 . S
N377 C370 1.356 . S
N377 H380 0.984 . S
N377 H381 0.985 . S
H378 N373 0.984 . S
H379 N373 0.985 . S
H380 N377 0.984 . S
H381 N377 0.985 . S
H382 N376 0.984 . S
H383 N376 0.984 . S
H384 N372 0.984 . S
H385 N372 0.985 . S
C386 C387 1.350 1_545 S
C386 C392 1.379 . S
C386 N394 1.356 . S
C387 C386 1.350 1_565 S
C387 C393 1.377 . S
C388 C389 1.363 . S
C388 C393 1.379 . S
C388 N395 1.356 . S
C389 C388 1.363 . S
C389 C392 1.363 1_565 S
N390 C392 1.356 . S
N390 H402 0.984 . S
N390 H403 0.985 . S
N391 C393 1.356 . S
N391 H396 0.984 . S
N391 H397 0.985 . S
C392 C386 1.379 . S
C392 C389 1.363 1_545 S
C392 N390 1.356 . S
C393 C387 1.377 . S
C393 C388 1.379 . S
C393 N391 1.356 . S
N394 C386 1.356 . S
N394 H400 0.984 . S
N394 H401 0.984 . S
N395 C388 1.356 . S
N395 H398 0.984 . S
N395 H399 0.985 . S
H396 N391 0.984 . S
H397 N391 0.985 . S
H398 N395 0.984 . S
H399 N395 0.985 . S
H400 N394 0.984 . S
H401 N394 0.984 . S
H402 N390 0.984 . S
H403 N390 0.985 . S
C404 C405 1.363 . S
C404 C410 1.379 . S
C404 N412 1.356 . S
C405 C404 1.363 . S
C405 C411 1.363 . S
C406 C407 1.363 . S
C406 C411 1.379 . S
C406 N413 1.356 . S
C407 C406 1.363 . S
C407 C410 1.363 . S
N408 C410 1.356 . S
N408 H420 0.984 . S
N408 H421 0.985 . S
N409 C411 1.356 . S
N409 H414 0.984 . S
N409 H415 0.985 . S
C410 C404 1.379 . S
C410 C407 1.363 . S
C410 N408 1.356 . S
C411 C405 1.363 . S
C411 C406 1.379 . S
C411 N409 1.356 . S
N412 C404 1.356 . S
N412 H418 0.984 . S
N412 H419 0.984 . S
N413 C406 1.356 . S
N413 H416 0.984 . S
N413 H417 0.985 . S
H414 N409 0.984 . S
H415 N409 0.985 . S
H416 N413 0.984 . S
H417 N413 0.985 . S
H418 N412 0.984 . S
H419 N412 0.984 . S
H420 N408 0.984 . S
H421 N408 0.985 . S
C422 C423 1.363 . S
C422 C428 1.379 . S
C422 N430 1.356 . S
C423 C422 1.363 . S
C423 C429 1.363 . S
C424 C425 1.363 . S
C424 C429 1.379 . S
C424 N431 1.356 . S
C425 C424 1.363 . S
C425 C428 1.363 . S
N426 C428 1.356 . S
N426 H438 0.984 . S
N426 H439 0.985 . S
N427 C429 1.356 . S
N427 H432 0.984 . S
N427 H433 0.985 . S
C428 C422 1.379 . S
C428 C425 1.363 . S
C428 N426 1.356 . S
C429 C423 1.363 . S
C429 C424 1.379 . S
C429 N427 1.356 . S
N430 C422 1.356 . S
N430 H436 0.984 . S
N430 H437 0.984 . S
N431 C424 1.356 . S
N431 H434 0.984 . S
N431 H435 0.985 . S
H432 N427 0.984 . S
H433 N427 0.985 . S
H434 N431 0.984 . S
H435 N431 0.985 . S
H436 N430 0.984 . S
H437 N430 0.984 . S
H438 N426 0.984 . S
H439 N426 0.985 . S
C440 C441 1.363 . S
C440 C446 1.379 . S
C440 N448 1.356 1_556 S
C441 C440 1.363 . S
C441 C447 1.363 1_655 S
C442 C443 1.363 . S
C442 C447 1.379 . S
C442 N449 1.356 . S
C443 C442 1.363 . S
C443 C446 1.363 1_455 S
N444 C446 1.356 1_554 S
N444 H456 0.984 . S
N444 H457 0.985 1_655 S
N445 C447 1.356 . S
N445 H450 0.984 1_455 S
N445 H451 0.985 . S
C446 C440 1.379 . S
C446 C443 1.363 1_655 S
C446 N444 1.356 1_556 S
C447 C441 1.363 1_455 S
C447 C442 1.379 . S
C447 N445 1.356 . S
N448 C440 1.356 1_554 S
N448 H454 0.984 . S
N448 H455 0.984 1_554 S
N449 C442 1.356 . S
N449 H452 0.984 . S
N449 H453 0.985 . S
H450 N445 0.984 1_655 S
H451 N445 0.985 . S
H452 N449 0.984 . S
H453 N449 0.985 . S
H454 N448 0.984 . S
H455 N448 0.984 1_556 S
H456 N444 0.984 . S
H457 N444 0.985 1_455 S
C458 C459 1.384 . S
C458 C464 1.379 1_554 S
C458 N466 1.356 . S
C459 C458 1.384 . S
C459 C465 1.343 1_544 S
C460 C461 1.363 1_565 S
C460 C465 1.379 . S
C460 N467 1.356 . S
C461 C460 1.363 1_545 S
C461 C464 1.363 . S
N462 C464 1.356 . S
N462 H474 0.984 1_556 S
N462 H475 0.985 . S
N463 C465 1.356 . S
N463 H468 0.984 . S
N463 H469 0.985 . S
C464 C458 1.379 1_556 S
C464 C461 1.363 . S
C464 N462 1.356 . S
C465 C459 1.343 1_566 S
C465 C460 1.379 . S
C465 N463 1.356 . S
N466 C458 1.356 . S
N466 H472 0.984 . S
N466 H473 0.984 . S
N467 C460 1.356 . S
N467 H470 0.984 . S
N467 H471 0.985 . S
H468 N463 0.984 . S
H469 N463 0.985 . S
H470 N467 0.984 . S
H471 N467 0.985 . S
H472 N466 0.984 . S
H473 N466 0.984 . S
H474 N462 0.984 1_554 S
H475 N462 0.985 . S
C476 C477 1.363 1_556 S
C476 C482 1.379 . S
C476 N484 1.356 . S
C477 C476 1.363 1_554 S
C477 C483 1.363 . S
C478 C479 1.363 . S
C478 C483 1.379 1_556 S
C478 N485 1.356 . S
C479 C478 1.363 . S
C479 C482 1.363 . S
N480 C482 1.356 . S
N480 H492 0.984 . S
N480 H493 0.985 . S
N481 C483 1.356 . S
N481 H486 0.984 . S
N481 H487 0.985 . S
C482 C476 1.379 . S
C482 C479 1.363 . S
C482 N480 1.356 . S
C483 C477 1.363 . S
C483 C478 1.379 1_554 S
C483 N481 1.356 . S
N484 C476 1.356 . S
N484 H490 0.984 . S
N484 H491 0.984 1_556 S
N485 C478 1.356 . S
N485 H488 0.984 . S
N485 H489 0.985 . S
H486 N481 0.984 . S
H487 N481 0.985 . S
H488 N485 0.984 . S
H489 N485 0.985 . S
H490 N484 0.984 . S
H491 N484 0.984 1_554 S
H492 N480 0.984 . S
H493 N480 0.985 . S
C494 C495 1.363 . S
C494 C500 1.379 . S
C494 N502 1.356 . S
C495 C494 1.363 . S
C495 C501 1.363 . S
C496 C497 1.363 . S
C496 C501 1.379 1_556 S
C496 N503 1.356 . S
C497 C496 1.363 . S
C497 C500 1.363 1_556 S
N498 C500 1.358 . S
N498 H510 0.991 . S
N498 H511 0.977 1_554 S
N499 C501 1.356 . S
N499 H504 0.984 . S
N499 H505 0.985 1_554 S
C500 C494 1.379 . S
C500 C497 1.363 1_554 S
C500 N498 1.358 . S
C501 C495 1.363 . S
C501 C496 1.379 1_554 S
C501 N499 1.356 . S
N502 C494 1.356 . S
N502 H508 0.984 . S
N502 H509 0.984 . S
N503 C496 1.356 . S
N503 H506 0.984 . S
N503 H507 0.985 . S
H504 N499 0.984 . S
H505 N499 0.985 1_556 S
H506 N503 0.984 . S
H507 N503 0.985 . S
H508 N502 0.984 . S
H509 N502 0.984 . S
H510 N498 0.991 . S
H511 N498 0.977 1_556 S
C512 C513 1.363 . S
C512 C518 1.379 . S
C512 N520 1.356 . S
C513 C512 1.363 . S
C513 C519 1.363 . S
C514 C515 1.363 . S
C514 C519 1.379 . S
C514 N521 1.356 . S
C515 C514 1.363 . S
C515 C518 1.363 . S
N516 C518 1.356 . S
N516 H528 0.984 . S
N516 H529 0.985 . S
N517 C519 1.356 . S
N517 H522 0.984 . S
N517 H523 0.985 1_455 S
C518 C512 1.379 . S
C518 C515 1.363 . S
C518 N516 1.356 . S
C519 C513 1.363 . S
C519 C514 1.379 . S
C519 N517 1.356 . S
N520 C512 1.356 . S
N520 H526 0.984 . S
N520 H527 0.984 . S
N521 C514 1.356 . S
N521 H524 0.984 . S
N521 H525 0.985 1_455 S
H522 N517 0.984 . S
H523 N517 0.985 1_655 S
H524 N521 0.984 . S
H525 N521 0.985 1_655 S
H526 N520 0.984 . S
H527 N520 0.984 . S
H528 N516 0.984 . S
H529 N516 0.985 . S
C530 C531 1.387 . S
C530 C536 1.379 . S
C530 N538 1.356 . S
C531 C530 1.387 . S
C531 C537 1.338 1_545 S
C532 C533 1.363 1_565 S
C532 C537 1.379 . S
C532 N539 1.356 . S
C533 C532 1.363 1_545 S
C533 C536 1.363 . S
N534 C536 1.356 1_556 S
N534 H546 0.984 . S
N534 H547 0.985 . S
N535 C537 1.356 . S
N535 H540 0.984 . S
N535 H541 0.985 . S
C536 C530 1.379 . S
C536 C533 1.363 . S
C536 N534 1.356 1_554 S
C537 C531 1.338 1_565 S
C537 C532 1.379 . S
C537 N535 1.356 . S
N538 C530 1.356 . S
N538 H544 0.984 . S
N538 H545 0.984 . S
N539 C532 1.356 . S
N539 H542 0.984 . S
N539 H543 0.985 . S
H540 N535 0.984 . S
H541 N535 0.985 . S
H542 N539 0.984 . S
H543 N539 0.985 . S
H544 N538 0.984 . S
H545 N538 0.984 . S
H546 N534 0.984 . S
H547 N534 0.985 . S
C548 C549 1.363 . S
C548 C554 1.379 . S
C548 N556 1.356 . S
C549 C548 1.363 . S
C549 C555 1.363 . S
C550 C551 1.363 1_556 S
C550 C555 1.379 1_556 S
C550 N557 1.356 . S
C551 C550 1.363 1_554 S
C551 C554 1.363 . S
N552 C554 1.356 . S
N552 H564 0.984 . S
N552 H565 0.985 . S
N553 C555 1.356 . S
N553 H558 0.984 . S
N553 H559 0.985 . S
C554 C548 1.379 . S
C554 C551 1.363 . S
C554 N552 1.356 . S
C555 C549 1.363 . S
C555 C550 1.379 1_554 S
C555 N553 1.356 . S
N556 C548 1.356 . S
N556 H562 0.984 . S
N556 H563 0.984 . S
N557 C550 1.356 . S
N557 H560 0.984 . S
N557 H561 0.985 . S
H558 N553 0.984 . S
H559 N553 0.985 . S
H560 N557 0.984 . S
H561 N557 0.985 . S
H562 N556 0.984 . S
H563 N556 0.984 . S
H564 N552 0.984 . S
H565 N552 0.985 . S
C566 C567 1.363 . S
C566 C572 1.379 . S
C566 N574 1.356 . S
C567 C566 1.363 . S
C567 C573 1.363 . S
C568 C569 1.363 1_554 S
C568 C573 1.379 . S
C568 N575 1.356 1_554 S
C569 C568 1.363 1_556 S
C569 C572 1.363 1_556 S
N570 C572 1.356 1_556 S
N570 H582 0.984 . S
N570 H583 0.985 . S
N571 C573 1.356 . S
N571 H576 0.984 . S
N571 H577 0.985 . S
C572 C566 1.379 . S
C572 C569 1.363 1_554 S
C572 N570 1.356 1_554 S
C573 C567 1.363 . S
C573 C568 1.379 . S
C573 N571 1.356 . S
N574 C566 1.356 . S
N574 H580 0.984 . S
N574 H581 0.984 . S
N575 C568 1.356 1_556 S
N575 H578 0.984 . S
N575 H579 0.985 1_556 S
H576 N571 0.984 . S
H577 N571 0.985 . S
H578 N575 0.984 . S
H579 N575 0.985 1_554 S
H580 N574 0.984 . S
H581 N574 0.984 . S
H582 N570 0.984 . S
H583 N570 0.985 . S
C584 C585 1.363 . S
C584 C590 1.379 . S
C584 N592 1.356 . S
C585 C584 1.363 . S
C585 C591 1.363 1_655 S
C586 C587 1.363 1_455 S
C586 C591 1.379 . S
C586 N593 1.356 . S
C587 C586 1.363 1_655 S
C587 C590 1.363 . S
N588 C590 1.356 . S
N588 H600 0.984 . S
N588 H601 0.985 . S
N589 C591 1.356 . S
N589 H594 0.984 . S
N589 H595 0.985 . S
C590 C584 1.379 . S
C590 C587 1.363 . S
C590 N588 1.356 . S
C591 C585 1.363 1_455 S
C591 C586 1.379 . S
C591 N589 1.356 . S
N592 C584 1.356 . S
N592 H598 0.984 . S
N592 H599 0.984 . S
N593 C586 1.356 . S
N593 H596 0.984 . S
N593 H597 0.985 . S
H594 N589 0.984 . S
H595 N589 0.985 . S
H596 N593 0.984 . S
H597 N593 0.985 . S
H598 N592 0.984 . S
H599 N592 0.984 . S
H600 N588 0.984 . S
H601 N588 0.985 . S
C602 C603 1.344 1_545 S
C602 C608 1.379 . S
C602 N610 1.356 . S
C603 C602 1.344 1_565 S
C603 C609 1.381 . S
C604 C605 1.363 . S
C604 C609 1.379 . S
C604 N611 1.356 . S
C605 C604 1.363 . S
C605 C608 1.363 1_565 S
N606 C608 1.356 . S
N606 H618 0.984 . S
N606 H619 0.985 . S
N607 C609 1.356 . S
N607 H612 0.984 . S
N607 H613 0.985 . S
C608 C602 1.379 . S
C608 C605 1.363 1_545 S
C608 N606 1.356 . S
C609 C603 1.381 . S
C609 C604 1.379 . S
C609 N607 1.356 . S
N610 C602 1.356 . S
N610 H616 0.984 . S
N610 H617 0.984 . S
N611 C604 1.356 . S
N611 H614 0.984 . S
N611 H615 0.985 . S
H612 N607 0.984 . S
H613 N607 0.985 . S
H614 N611 0.984 . S
H615 N611 0.985 . S
H616 N610 0.984 . S
H617 N610 0.984 . S
H618 N606 0.984 . S
H619 N606 0.985 . S
C620 C621 1.363 . S
C620 C626 1.379 . S
C620 N628 1.356 . S
C621 C620 1.363 . S
C621 C627 1.363 . S
C622 C623 1.363 . S
C622 C627 1.379 . S
C622 N629 1.356 . S
C623 C622 1.363 . S
C623 C626 1.363 . S
N624 C626 1.356 . S
N624 H636 0.984 . S
N624 H637 0.985 . S
N625 C627 1.356 . S
N625 H630 0.984 . S
N625 H631 0.985 . S
C626 C620 1.379 . S
C626 C623 1.363 . S
C626 N624 1.356 . S
C627 C621 1.363 . S
C627 C622 1.379 . S
C627 N625 1.356 . S
N628 C620 1.356 . S
N628 H634 0.984 . S
N628 H635 0.984 . S
N629 C622 1.356 . S
N629 H632 0.984 . S
N629 H633 0.985 . S
H630 N625 0.984 . S
H631 N625 0.985 . S
H632 N629 0.984 . S
H633 N629 0.985 . S
H634 N628 0.984 . S
H635 N628 0.984 . S
H636 N624 0.984 . S
H637 N624 0.985 . S
C638 C639 1.363 . S
C638 C644 1.379 . S
C638 N646 1.356 . S
C639 C638 1.363 . S
C639 C645 1.363 . S
C640 C641 1.363 . S
C640 C645 1.379 . S
C640 N647 1.356 . S
C641 C640 1.363 . S
C641 C644 1.363 . S
N642 C644 1.356 . S
N642 H654 0.984 . S
N642 H655 0.985 . S
N643 C645 1.356 . S
N643 H648 0.984 . S
N643 H649 0.985 . S
C644 C638 1.379 . S
C644 C641 1.363 . S
C644 N642 1.356 . S
C645 C639 1.363 . S
C645 C640 1.379 . S
C645 N643 1.356 . S
N646 C638 1.356 . S
N646 H652 0.984 . S
N646 H653 0.984 . S
N647 C640 1.356 . S
N647 H650 0.984 . S
N647 H651 0.985 . S
H648 N643 0.984 . S
H649 N643 0.985 . S
H650 N647 0.984 . S
H651 N647 0.985 . S
H652 N646 0.984 . S
H653 N646 0.984 . S
H654 N642 0.984 . S
H655 N642 0.985 . S
C225 N70 1.839 . S
C227 C105 1.872 . S
C245 C126 1.531 . S
C243 N81 1.499 . S
C263 C160 1.470 . S
C261 N48 1.412 . S
C281 C194 1.555 . S
C279 N59 1.527 . S
C299 C96 1.872 . S
C297 N26 1.841 1_546 S
C315 N37 1.508 . S
C317 C135 1.535 . S
C333 N4 1.413 . S
C335 C169 1.470 . S
C351 N15 1.536 . S
C353 C203 1.555 . S
C371 C117 0.882 . S
C369 C64 0.829 . S
C389 C122 1.281 . S
C387 C75 1.246 1_565 S
C407 C156 1.192 . S
C405 C86 1.174 . S
C423 C53 0.629 . S
C425 C190 0.629 . S
C441 C20 0.826 . S
C443 C88 0.886 . S
C461 C151 1.281 . S
C459 C31 1.242 . S
C479 C185 1.192 . S
C477 C42 1.167 . S
C495 C9 0.630 . S
C497 C219 0.629 . S
C513 C61 1.348 . S
C515 C101 1.382 . S
C531 C72 1.721 . S
C533 C130 1.764 1_554 S
C551 C164 1.543 1_554 S
C549 C83 1.517 . S
C569 C198 1.605 . S
C567 C50 1.560 . S
C585 C17 1.341 . S
C587 C92 1.387 . S
C605 C139 1.764 . S
C603 C28 1.721 1_565 S
C623 C173 1.543 . S
C621 C39 1.515 . S
C639 C6 1.565 . S
C641 C207 1.605 . S
