# Generated by pormake.
# Topology tsx, (6,3)-cn, num edge types: 1
# Building blocks:
#     Node 0, Type 0, BuildingBlock: FUNLAD_clean_sbu_0, # of connection points: 6
#     Node 1, Type 0, BuildingBlock: FUNLAD_clean_sbu_0, # of connection points: 6
#     Node 2, Type 1, BuildingBlock: INOVEN_clean_linker_0, # of connection points: 3
#     Node 3, Type 1, BuildingBlock: INOVEN_clean_linker_0, # of connection points: 3
#     Node 4, Type 1, BuildingBlock: INOVEN_clean_linker_0, # of connection points: 3
#     Node 5, Type 1, BuildingBlock: INOVEN_clean_linker_0, # of connection points: 3
#     Edge 6, Type (0, 1), BuildingBlock: CIFDUS_clean_linker_0, # of connection points: 2
#     Edge 7, Type (0, 1), BuildingBlock: CIFDUS_clean_linker_0, # of connection points: 2
#     Edge 8, Type (0, 1), BuildingBlock: CIFDUS_clean_linker_0, # of connection points: 2
#     Edge 9, Type (0, 1), BuildingBlock: CIFDUS_clean_linker_0, # of connection points: 2
#     Edge 10, Type (0, 1), BuildingBlock: CIFDUS_clean_linker_0, # of connection points: 2
#     Edge 11, Type (0, 1), BuildingBlock: CIFDUS_clean_linker_0, # of connection points: 2
#     Edge 12, Type (0, 1), BuildingBlock: CIFDUS_clean_linker_0, # of connection points: 2
#     Edge 13, Type (0, 1), BuildingBlock: CIFDUS_clean_linker_0, # of connection points: 2
#     Edge 14, Type (0, 1), BuildingBlock: CIFDUS_clean_linker_0, # of connection points: 2
#     Edge 15, Type (0, 1), BuildingBlock: CIFDUS_clean_linker_0, # of connection points: 2
#     Edge 16, Type (0, 1), BuildingBlock: CIFDUS_clean_linker_0, # of connection points: 2
#     Edge 17, Type (0, 1), BuildingBlock: CIFDUS_clean_linker_0, # of connection points: 2
# Relax obj value: 0.105
# Max RMSD: 0.111
# Mean RMSD: 0.107
data_MOF--net-tsx--node1-FUNLAD_clean_sbu_0--node2-INOVEN_clean_linker_0--edge1-CIFDUS_clean_linker_0
_symmetry_space_group_name_H-M    P1
_symmetry_Int_Tables_number       1
_symmetry_cell_setting            triclinic
loop_
_symmetry_equiv_pos_as_xyz
'x, y, z'
_cell_length_a     16.977172
_cell_length_b     18.482921
_cell_length_c     35.714743
_cell_angle_alpha  90.017967
_cell_angle_beta   101.83291
_cell_angle_gamma 90.378819
loop_
_atom_site_label
_atom_site_type_symbol
_atom_site_fract_x
_atom_site_fract_y
_atom_site_fract_z
_atom_type_partial_charge
C0 C 0.85833 0.92046 0.97275 0.0
N1 N -0.00368 0.99192 0.07667 0.0
C2 C 0.93055 0.97525 0.09133 0.0
C3 C 0.93886 0.95958 0.13019 0.0
C4 C 0.01546 0.96251 0.15439 0.0
C5 C 0.08194 0.9809 0.13835 0.0
C6 C 0.07114 0.99439 0.0993 0.0
Zn7 Zn 0.98518 0.01278 0.01983 0.0
C8 C 0.09468 0.92147 0.98463 0.0
N9 N 0.9623 0.05742 0.90114 0.0
C10 C 0.89083 0.07229 0.87734 0.0
C11 C 0.03248 0.05938 0.88845 0.0
C12 C 0.03263 0.0752 0.85041 0.0
C13 C 0.96 0.09083 0.82497 0.0
C14 C 0.88834 0.08965 0.83899 0.0
Zn15 Zn 0.97014 0.03539 0.9577 0.0
O16 O 0.8966 0.93263 0.00657 0.0
C17 C 0.86005 0.12541 -0.00851 0.0
O18 O 0.87591 0.9557 0.94493 0.0
H19 H 0.08885 0.04841 0.90786 0.0
H20 H 0.87152 0.97367 0.07284 0.0
H21 H 0.83575 0.07097 0.88809 0.0
O22 O 0.89296 0.09285 0.0221 0.0
O23 O 0.88276 0.11207 0.96055 0.0
H24 H 0.12282 0.00708 0.08711 0.0
O25 O 0.06189 0.11723 0.97141 0.0
O26 O 0.07369 0.09323 0.03236 0.0
O27 O 0.05862 0.95596 0.95541 0.0
O28 O 0.07607 0.9337 0.01676 0.0
C29 C 0.09515 0.12963 0.00606 0.0
H30 H 0.88586 0.94468 0.14094 0.0
H31 H 0.14198 0.98573 0.15572 0.0
H32 H 0.08928 0.07348 0.841 0.0
H33 H 0.83096 0.10201 0.82065 0.0
C34 C 0.42764 0.4062 0.50006 0.0
N35 N 0.57982 0.51482 0.58902 0.0
C36 C 0.50974 0.52224 0.60141 0.0
C37 C 0.5104 0.53625 0.63966 0.0
C38 C 0.58391 0.54585 0.66569 0.0
C39 C 0.6557 0.5382 0.65215 0.0
C40 C 0.65223 0.52194 0.61356 0.0
Zn41 Zn 0.57004 0.49921 0.53165 0.0
C42 C 0.65753 0.37028 0.51173 0.0
N43 N 0.54037 0.47256 0.41128 0.0
C44 C 0.46617 0.48486 0.38936 0.0
C45 C 0.60523 0.46062 0.39525 0.0
C46 C 0.59712 0.46286 0.35556 0.0
C47 C 0.52185 0.47855 0.33249 0.0
C48 C 0.45562 0.48857 0.34971 0.0
Zn49 Zn 0.55428 0.48312 0.46888 0.0
O50 O 0.46778 0.43515 0.53018 0.0
C51 C 0.46754 0.61257 0.48717 0.0
O52 O 0.44989 0.41508 0.46846 0.0
H53 H 0.66373 0.45152 0.41329 0.0
H54 H 0.45261 0.51817 0.58154 0.0
H55 H 0.41541 0.49405 0.40271 0.0
O56 O 0.49561 0.5938 0.52149 0.0
O57 O 0.48261 0.57467 0.46001 0.0
H58 H 0.70734 0.51638 0.60311 0.0
O59 O 0.65734 0.55187 0.47006 0.0
O60 O 0.67196 0.56355 0.53225 0.0
O61 O 0.62735 0.39215 0.47823 0.0
O62 O 0.64409 0.40426 0.5408 0.0
C63 C 0.69537 0.57827 0.50156 0.0
H64 H 0.45327 0.53928 0.64853 0.0
H65 H 0.71394 0.54582 0.67085 0.0
H66 H 0.64953 0.45495 0.34314 0.0
H67 H 0.39645 0.49974 0.33269 0.0
H68 H 0.12613 0.9726 0.48839 0.0
H69 H 0.11182 0.8535 0.38417 0.0
H70 H 0.96255 0.04033 0.38696 0.0
N71 N 0.00819 0.06435 0.46121 0.0
N72 N 0.9347 0.07056 0.46009 0.0
C73 C 0.09886 0.96385 0.45862 0.0
C74 C 0.12595 0.90747 0.43845 0.0
C75 C 0.03678 0.00885 0.44038 0.0
C76 C 0.00602 1.00132 0.40102 0.0
C77 C 0.03545 0.94741 0.37982 0.0
C78 C 0.09215 0.89833 0.39944 0.0
H79 H 0.03696 0.93271 0.52444 0.0
H80 H 0.89768 0.91829 0.6114 0.0
H81 H 0.02092 0.11674 0.59652 0.0
N82 N 0.09097 0.06721 0.5403 0.0
N83 N 0.10464 0.1331 0.54604 0.0
C84 C 0.01354 0.95807 0.54708 0.0
C85 C 0.96321 0.91823 0.56605 0.0
C86 C 0.03533 0.02955 0.55814 0.0
C87 C 0.0045 0.06159 0.5879 0.0
C88 C 0.95491 0.02184 0.60751 0.0
C89 C 0.93444 0.95036 0.5961 0.0
H90 H 0.53605 0.51232 0.98758 0.0
H91 H 0.66939 0.44591 0.90428 0.0
H92 H 0.53086 0.64131 0.88678 0.0
N93 N 0.46446 0.62712 0.94826 0.0
N94 N 0.43353 0.67644 0.92629 0.0
C95 C 0.5555 0.52288 0.96116 0.0
C96 C 0.60974 0.47531 0.94933 0.0
C97 C 0.52471 0.58202 0.93804 0.0
C98 C 0.5515 0.59407 0.90373 0.0
C99 C 0.60235 0.54474 0.89054 0.0
C100 C 0.63131 0.48568 0.91388 0.0
H101 H 0.40273 0.51704 0.00214 0.0
H102 H 0.32727 0.47205 0.10771 0.0
H103 H 0.50096 0.63965 0.1034 0.0
N104 N 0.51091 0.61647 0.0309 0.0
N105 N 0.52736 0.6823 0.03269 0.0
C106 C 0.40294 0.53022 0.03171 0.0
C107 C 0.35647 0.48904 0.05225 0.0
C108 C 0.45358 0.5857 0.04987 0.0
C109 C 0.45761 0.60046 0.08874 0.0
C110 C 0.41306 0.55838 0.10961 0.0
C111 C 0.36107 0.50454 0.09111 0.0
H112 H 0.11619 0.25151 0.96581 0.0
H113 H 0.21153 0.13602 0.07015 0.0
H114 H 0.30538 0.23481 0.09181 0.0
H115 H 0.35413 0.35636 0.08342 0.0
H116 H 0.25512 0.47775 0.98177 0.0
H117 H 0.17018 0.37375 0.95625 0.0
C118 C 0.15832 0.24781 -0.00698 0.0
C119 C 0.1567 0.18685 0.01647 0.0
C120 C 0.21106 0.30587 0.00583 0.0
C121 C 0.21118 0.1827 0.05176 0.0
C122 C 0.26488 0.23911 0.06419 0.0
C123 C 0.31354 0.36037 0.05577 0.0
C124 C 0.30954 0.42509 0.03487 0.0
C125 C 0.26405 0.30145 0.04187 0.0
C126 C 0.25887 0.42853 -0.00152 0.0
C127 C 0.21012 0.36925 0.98401 0.0
H128 H 0.16725 0.90692 0.92445 0.0
H129 H 0.1673 0.81936 0.03639 0.0
H130 H 0.27286 0.7337 0.02881 0.0
H131 H 0.36486 0.68305 -0.01059 0.0
H132 H 0.36573 0.77603 0.87896 0.0
H133 H 0.2597 0.86008 0.88673 0.0
C134 C 0.18999 0.86903 0.94725 0.0
C135 C 0.15889 0.86933 0.98082 0.0
C136 C 0.25097 0.82085 0.94288 0.0
C137 C 0.19003 0.82027 0.01018 0.0
C138 C 0.25038 0.77123 0.00585 0.0
C139 C 0.34204 0.72198 0.96729 0.0
C140 C 0.37275 0.72381 0.93348 0.0
C141 C 0.28138 0.77092 0.97224 0.0
C142 C 0.34248 0.77419 0.90502 0.0
C143 C 0.28205 0.82205 0.90948 0.0
H144 H 0.85076 0.78057 -0.0074 0.0
H145 H 0.7049 0.96145 0.94561 0.0
H146 H 0.58463 0.90086 0.95878 0.0
H147 H 0.52598 0.80394 -0.00705 0.0
H148 H 0.67082 0.61998 0.03587 0.0
H149 H 0.78673 0.67343 0.01492 0.0
C150 C 0.79199 0.80518 0.9839 0.0
C151 C 0.786 0.87481 0.96806 0.0
C152 C 0.72359 0.77016 -0.0083 0.0
C153 C 0.71019 0.90714 0.95725 0.0
C154 C 0.6418 0.87304 0.96534 0.0
C155 C 0.58286 0.77564 -0.00289 0.0
C156 C 0.59103 0.70931 0.01643 0.0
C157 C 0.6485 0.80592 0.98407 0.0
C158 C 0.66396 0.67158 0.02123 0.0
C159 C 0.73002 0.70207 0.00929 0.0
H160 H 0.85452 0.24903 0.03299 0.0
H161 H 0.71569 0.1142 0.94473 0.0
H162 H 0.61411 0.20813 0.92899 0.0
H163 H 0.5786 0.33551 0.93208 0.0
H164 H 0.72051 0.47543 0.01643 0.0
H165 H 0.80599 0.37316 0.04265 0.0
C166 C 0.80058 0.23975 0.01127 0.0
C167 C 0.7922 0.17522 -0.01008 0.0
C168 C 0.74357 0.29538 0.0014 0.0
C169 C 0.72301 0.16373 0.96139 0.0
C170 C 0.66517 0.21747 0.95228 0.0
C171 C 0.62652 0.34273 0.95709 0.0
C172 C 0.6436 0.41227 0.97243 0.0
C173 C 0.67669 0.28455 0.97088 0.0
C174 C 0.70613 0.42189 0.00452 0.0
C175 C 0.75546 0.36362 0.01915 0.0
H176 H 0.81592 0.60854 0.56132 0.0
H177 H 0.71856 0.6704 0.44473 0.0
H178 H 0.80513 0.77827 0.4525 0.0
H179 H 0.89077 0.86488 0.49631 0.0
H180 H 0.98344 0.80237 0.61325 0.0
H181 H 0.91763 0.68443 0.60143 0.0
C182 C 0.81497 0.64484 0.53735 0.0
C183 C 0.76015 0.63241 0.50276 0.0
C184 C 0.86355 0.70705 0.54228 0.0
C185 C 0.76023 0.67907 0.47171 0.0
C186 C 0.80924 0.74103 0.47625 0.0
C187 C 0.89828 0.82443 0.51874 0.0
C188 C 0.94047 0.84231 0.55574 0.0
C189 C 0.85861 0.75713 0.51193 0.0
C190 C 0.95012 0.78981 0.58471 0.0
C191 C 0.91237 0.72257 0.57801 0.0
H192 H 0.81663 0.36292 0.51459 0.0
H193 H 0.60512 0.23268 0.51369 0.0
H194 H 0.6773 0.12398 0.50095 0.0
H195 H 0.79451 0.07013 0.48068 0.0
H196 H 0.00398 0.20159 0.47915 0.0
H197 H 0.94013 0.30552 0.50277 0.0
C198 C 0.78773 0.31014 0.513 0.0
C199 C 0.70659 0.30486 0.51559 0.0
C200 C 0.829 0.24855 0.50464 0.0
C201 C 0.66825 0.2371 0.51249 0.0
C202 C 0.70917 0.17532 0.50477 0.0
C203 C 0.82622 0.12139 0.48629 0.0
C204 C 0.90332 0.1285 0.47842 0.0
C205 C 0.78851 0.18096 0.49932 0.0
C206 C 0.94478 0.19478 0.48556 0.0
C207 C 0.90804 0.25429 0.49877 0.0
H208 H 0.38507 0.26746 0.47792 0.0
H209 H 0.30722 0.45675 0.53043 0.0
H210 H 0.19525 0.38868 0.5467 0.0
H211 H 0.1276 0.27273 0.55183 0.0
H212 H 0.20842 0.08081 0.5033 0.0
H213 H 0.3105 0.15148 0.47955 0.0
C214 C 0.34219 0.29378 0.49205 0.0
C215 C 0.3535 0.36685 0.50278 0.0
C216 C 0.27934 0.25346 0.50256 0.0
C217 C 0.299 0.40049 0.52181 0.0
C218 C 0.23537 0.36159 0.5313 0.0
C219 C 0.16736 0.24693 0.53573 0.0
C220 C 0.16099 0.17231 0.52945 0.0
C221 C 0.22636 0.28769 0.5228 0.0
C222 C 0.21216 0.13849 0.50847 0.0
C223 C 0.27066 0.1789 0.49496 0.0
H224 H 0.36073 0.67109 0.52634 0.0
H225 H 0.46391 0.69926 0.42642 0.0
H226 H 0.37228 0.79842 0.40478 0.0
H227 H 0.25586 0.86953 0.41095 0.0
H228 H 0.14411 0.83861 0.50784 0.0
H229 H 0.24673 0.74927 0.53445 0.0
C230 C 0.36369 0.69993 0.50022 0.0
C231 C 0.41831 0.67781 0.47781 0.0
C232 C 0.30903 0.75592 0.48729 0.0
C233 C 0.42162 0.71501 0.44388 0.0
C234 C 0.36935 0.77166 0.43148 0.0
C235 C 0.25399 0.84322 0.43792 0.0
C236 C 0.19197 0.85949 0.45709 0.0
C237 C 0.31152 0.79117 0.45238 0.0
C238 C 0.19136 0.82667 0.49253 0.0
C239 C 0.24969 0.77538 0.5076 0.0
H240 H 0.91183 0.99197 0.20212 0.0
H241 H 0.14397 0.89789 0.20106 0.0
H242 H 0.16954 0.88522 0.27012 0.0
H243 H 0.13067 0.90793 0.33058 0.0
H244 H 0.89202 0.98638 0.33225 0.0
H245 H 0.86474 0.99795 0.26275 0.0
C246 C 0.96734 0.96718 0.21671 0.0
C247 C 0.02658 0.94767 0.19613 0.0
C248 C 0.98094 0.95773 0.25653 0.0
C249 C 0.09829 0.91606 0.216 0.0
C250 C 0.11281 0.90803 0.25557 0.0
C251 C 0.07145 0.92534 0.31605 0.0
C252 C 0.01384 0.94654 0.33715 0.0
C253 C 0.05513 0.92975 0.27612 0.0
C254 C 0.93853 0.9711 0.31716 0.0
C255 C 0.92254 0.97727 0.27728 0.0
H256 H 0.84517 0.04952 0.76312 0.0
H257 H 0.0739 0.16105 0.79358 0.0
H258 H 0.08813 0.15736 0.72717 0.0
H259 H 0.04574 0.10544 0.66316 0.0
H260 H 0.81237 1.00261 0.63135 0.0
H261 H 0.7893 0.02178 0.69578 0.0
C262 C 0.89705 0.07514 0.75526 0.0
C263 C 0.95967 0.10315 0.78374 0.0
C264 C 0.90456 0.07377 0.71687 0.0
C265 C 0.02619 0.13629 0.77261 0.0
C266 C 0.03423 0.13474 0.73454 0.0
C267 C 0.98854 0.08939 0.66972 0.0
C268 C 0.93203 0.05053 0.64269 0.0
C269 C 0.97535 0.1009 0.70675 0.0
C270 C 0.85826 0.03037 0.652 0.0
C271 C 0.84483 0.04148 0.68882 0.0
H272 H 0.69514 0.5061 0.72955 0.0
H273 H 0.47429 0.62585 0.69445 0.0
H274 H 0.4617 0.63685 0.76059 0.0
H275 H 0.50543 0.60234 0.82698 0.0
H276 H 0.73726 0.50109 0.86436 0.0
H277 H 0.7529 0.4933 0.79824 0.0
C278 C 0.64518 0.5362 0.7362 0.0
C279 C 0.5842 0.5625 0.70655 0.0
C280 C 0.63951 0.54497 0.77463 0.0
C281 C 0.52031 0.60169 0.71626 0.0
C282 C 0.51333 0.60886 0.75423 0.0
C283 C 0.56103 0.58077 0.82136 0.0
C284 C 0.61903 0.5509 0.85115 0.0
C285 C 0.57145 0.57903 0.78351 0.0
C286 C 0.6897 0.52212 0.84222 0.0
C287 C 0.69928 0.51823 0.80433 0.0
H288 H 0.45161 0.5886 0.28803 0.0
H289 H 0.57134 0.38457 0.28364 0.0
H290 H 0.55045 0.3934 0.21397 0.0
H291 H 0.49319 0.4566 0.15438 0.0
H292 H 0.37594 0.66162 0.15794 0.0
H293 H 0.4008 0.65556 0.22821 0.0
C294 C 0.47296 0.54618 0.27168 0.0
C295 C 0.51228 0.48569 0.29065 0.0
C296 C 0.46117 0.55195 0.23177 0.0
C297 C 0.54108 0.43158 0.26949 0.0
C298 C 0.52893 0.43652 0.22977 0.0
C299 C 0.47369 0.50003 0.17076 0.0
C300 C 0.43255 0.5592 0.15162 0.0
C301 C 0.48846 0.49605 0.21067 0.0
C302 C 0.40773 0.61572 0.17253 0.0
C303 C 0.42171 0.61202 0.21248 0.0
loop_
_geom_bond_atom_site_label_1
_geom_bond_atom_site_label_2
_geom_bond_distance
_geom_bond_site_symmetry_2
_ccdc_geom_bond_type
C0 O16 1.251 . S
C0 O18 1.254 1_554 S
N1 C2 1.333 1_445 S
N1 C6 1.307 . S
N1 Zn7 2.020 . S
C2 N1 1.333 1_665 S
C2 C3 1.379 . S
C2 H20 0.952 . S
C3 C2 1.379 . S
C3 C4 1.390 1_665 S
C3 H30 0.949 . S
C4 C3 1.390 1_445 S
C4 C5 1.357 . S
C5 C4 1.357 . S
C5 C6 1.370 . S
C5 H31 0.950 . S
C6 N1 1.307 . S
C6 C5 1.370 . S
C6 H24 0.948 . S
Zn7 N1 2.020 . S
Zn7 O16 2.039 1_445 S
Zn7 O22 2.034 1_455 S
Zn7 O26 2.025 . S
Zn7 O28 2.024 1_545 S
C8 O27 1.246 1_554 S
C8 O28 1.249 . S
N9 C10 1.307 1_545 S
N9 C11 1.333 1_655 S
N9 Zn15 2.020 1_655 S
C10 N9 1.307 1_565 S
C10 C14 1.370 . S
C10 H21 0.948 . S
C11 N9 1.333 1_455 S
C11 C12 1.379 . S
C11 H19 0.952 . S
C12 C11 1.379 . S
C12 C13 1.390 1_455 S
C12 H32 0.949 . S
C13 C12 1.390 1_655 S
C13 C14 1.357 1_545 S
C14 C10 1.370 . S
C14 C13 1.357 1_565 S
C14 H33 0.950 . S
Zn15 N9 2.020 1_455 S
Zn15 O18 2.025 1_445 S
Zn15 O23 2.024 1_455 S
Zn15 O25 2.039 . S
Zn15 O27 2.034 1_545 S
O16 C0 1.251 . S
O16 Zn7 2.039 1_665 S
C17 O22 1.246 . S
C17 O23 1.249 1_554 S
O18 C0 1.254 1_556 S
O18 Zn15 2.025 1_665 S
H19 C11 0.952 . S
H20 C2 0.952 . S
H21 C10 0.948 . S
O22 Zn7 2.034 1_655 S
O22 C17 1.246 . S
O23 Zn15 2.024 1_655 S
O23 C17 1.249 1_556 S
H24 C6 0.948 . S
O25 Zn15 2.039 . S
O25 C29 1.251 1_556 S
O26 Zn7 2.025 . S
O26 C29 1.254 . S
O27 C8 1.246 1_556 S
O27 Zn15 2.034 1_565 S
O28 Zn7 2.024 1_565 S
O28 C8 1.249 . S
C29 O25 1.251 1_554 S
C29 O26 1.254 . S
H30 C3 0.949 . S
H31 C5 0.950 . S
H32 C12 0.949 . S
H33 C14 0.950 . S
C34 O50 1.251 . S
C34 O52 1.254 . S
N35 C36 1.333 . S
N35 C40 1.307 . S
N35 Zn41 2.020 . S
C36 N35 1.333 . S
C36 C37 1.379 . S
C36 H54 0.952 . S
C37 C36 1.379 . S
C37 C38 1.390 . S
C37 H64 0.949 . S
C38 C37 1.390 . S
C38 C39 1.357 . S
C39 C38 1.357 . S
C39 C40 1.370 . S
C39 H65 0.950 . S
C40 N35 1.307 . S
C40 C39 1.370 . S
C40 H58 0.948 . S
Zn41 N35 2.020 . S
Zn41 O50 2.039 . S
Zn41 O56 2.034 . S
Zn41 O60 2.025 . S
Zn41 O62 2.024 . S
C42 O61 1.246 . S
C42 O62 1.249 . S
N43 C44 1.307 . S
N43 C45 1.333 . S
N43 Zn49 2.020 . S
C44 N43 1.307 . S
C44 C48 1.370 . S
C44 H55 0.948 . S
C45 N43 1.333 . S
C45 C46 1.379 . S
C45 H53 0.952 . S
C46 C45 1.379 . S
C46 C47 1.390 . S
C46 H66 0.949 . S
C47 C46 1.390 . S
C47 C48 1.357 . S
C48 C44 1.370 . S
C48 C47 1.357 . S
C48 H67 0.950 . S
Zn49 N43 2.020 . S
Zn49 O52 2.025 . S
Zn49 O57 2.024 . S
Zn49 O59 2.039 . S
Zn49 O61 2.034 . S
O50 C34 1.251 . S
O50 Zn41 2.039 . S
C51 O56 1.246 . S
C51 O57 1.249 . S
O52 C34 1.254 . S
O52 Zn49 2.025 . S
H53 C45 0.952 . S
H54 C36 0.952 . S
H55 C44 0.948 . S
O56 Zn41 2.034 . S
O56 C51 1.246 . S
O57 Zn49 2.024 . S
O57 C51 1.249 . S
H58 C40 0.948 . S
O59 Zn49 2.039 . S
O59 C63 1.251 . S
O60 Zn41 2.025 . S
O60 C63 1.254 . S
O61 C42 1.246 . S
O61 Zn49 2.034 . S
O62 Zn41 2.024 . S
O62 C42 1.249 . S
C63 O59 1.251 . S
C63 O60 1.254 . S
H64 C37 0.949 . S
H65 C39 0.950 . S
H66 C46 0.949 . S
H67 C48 0.950 . S
H68 C73 0.929 . S
H69 C78 0.931 . S
H70 C76 0.930 1_655 S
N71 N72 1.234 . S
N71 C75 1.453 1_655 S
N72 N71 1.234 . S
C73 H68 0.929 . S
C73 C74 1.373 . S
C73 C75 1.368 1_565 S
C74 C73 1.373 . S
C74 C78 1.397 . S
C75 N71 1.453 1_455 S
C75 C73 1.368 1_545 S
C75 C76 1.373 . S
C76 H70 0.930 1_455 S
C76 C75 1.373 . S
C76 C77 1.377 . S
C77 C76 1.377 . S
C77 C78 1.374 1_545 S
C78 H69 0.931 . S
C78 C74 1.397 . S
C78 C77 1.374 1_565 S
H79 C84 0.929 . S
H80 C89 0.931 . S
H81 C87 0.930 . S
N82 N83 1.234 . S
N82 C86 1.453 . S
N83 N82 1.234 . S
C84 H79 0.929 . S
C84 C85 1.373 . S
C84 C86 1.368 1_665 S
C85 C84 1.373 . S
C85 C89 1.397 . S
C86 N82 1.453 . S
C86 C84 1.368 1_445 S
C86 C87 1.373 . S
C87 H81 0.930 . S
C87 C86 1.373 . S
C87 C88 1.371 1_455 S
C88 C87 1.371 1_655 S
C88 C89 1.383 1_545 S
C89 H80 0.931 . S
C89 C85 1.397 . S
C89 C88 1.383 1_565 S
H90 C95 0.929 1_554 S
H91 C100 0.931 . S
H92 C98 0.930 . S
N93 N94 1.234 1_554 S
N93 C97 1.453 1_554 S
N94 N93 1.234 1_556 S
C95 H90 0.929 1_556 S
C95 C96 1.373 . S
C95 C97 1.368 . S
C96 C95 1.373 . S
C96 C100 1.397 . S
C97 N93 1.453 1_556 S
C97 C95 1.368 . S
C97 C98 1.373 . S
C98 H92 0.930 . S
C98 C97 1.373 . S
C98 C99 1.371 . S
C99 C98 1.371 . S
C99 C100 1.383 . S
C100 H91 0.931 . S
C100 C96 1.397 . S
C100 C99 1.383 . S
H101 C106 0.929 1_556 S
H102 C111 0.931 . S
H103 C109 0.930 . S
N104 N105 1.234 . S
N104 C108 1.453 . S
N105 N104 1.234 . S
C106 H101 0.929 1_554 S
C106 C107 1.373 . S
C106 C108 1.368 . S
C107 C106 1.373 . S
C107 C111 1.397 . S
C108 N104 1.453 . S
C108 C106 1.368 . S
C108 C109 1.373 . S
C109 H103 0.930 . S
C109 C108 1.373 . S
C109 C110 1.371 . S
C110 C109 1.371 . S
C110 C111 1.383 . S
C111 H102 0.931 . S
C111 C107 1.397 . S
C111 C110 1.383 . S
H112 C118 0.930 . S
H113 C121 0.930 . S
H114 C122 0.930 . S
H115 C123 0.930 . S
H116 C126 0.930 . S
H117 C127 0.930 . S
C118 H112 0.930 . S
C118 C119 1.355 1_556 S
C118 C120 1.415 1_556 S
C119 C118 1.355 1_554 S
C119 C121 1.419 . S
C120 C118 1.415 1_554 S
C120 C125 1.425 . S
C120 C127 1.409 1_554 S
C121 H113 0.930 . S
C121 C119 1.419 . S
C121 C122 1.362 . S
C122 H114 0.930 . S
C122 C121 1.362 . S
C122 C125 1.409 . S
C123 H115 0.930 . S
C123 C124 1.355 . S
C123 C125 1.415 . S
C124 C123 1.355 . S
C124 C126 1.419 1_554 S
C125 C120 1.425 . S
C125 C122 1.409 . S
C125 C123 1.415 . S
C126 H116 0.930 . S
C126 C124 1.419 1_556 S
C126 C127 1.362 . S
C127 H117 0.930 . S
C127 C120 1.409 1_556 S
C127 C126 1.362 . S
H128 C134 0.930 . S
H129 C137 0.930 . S
H130 C138 0.930 . S
H131 C139 0.930 . S
H132 C142 0.930 . S
H133 C143 0.930 . S
C134 H128 0.930 . S
C134 C135 1.355 1_556 S
C134 C136 1.415 . S
C135 C134 1.355 1_554 S
C135 C137 1.419 . S
C136 C134 1.415 . S
C136 C141 1.425 1_556 S
C136 C143 1.409 . S
C137 H129 0.930 . S
C137 C135 1.419 . S
C137 C138 1.362 . S
C138 H130 0.930 . S
C138 C137 1.362 . S
C138 C141 1.409 . S
C139 H131 0.930 . S
C139 C140 1.355 . S
C139 C141 1.415 . S
C140 C139 1.355 . S
C140 C142 1.419 1_554 S
C141 C136 1.425 1_554 S
C141 C138 1.409 . S
C141 C139 1.415 . S
C142 H132 0.930 . S
C142 C140 1.419 1_556 S
C142 C143 1.362 . S
C143 H133 0.930 . S
C143 C136 1.409 . S
C143 C142 1.362 . S
H144 C150 0.930 . S
H145 C153 0.930 . S
H146 C154 0.930 . S
H147 C155 0.930 . S
H148 C158 0.930 . S
H149 C159 0.930 . S
C150 H144 0.930 . S
C150 C151 1.355 . S
C150 C152 1.415 . S
C151 C150 1.355 . S
C151 C153 1.419 . S
C152 C150 1.415 . S
C152 C157 1.425 . S
C152 C159 1.409 . S
C153 H145 0.930 . S
C153 C151 1.419 . S
C153 C154 1.362 . S
C154 H146 0.930 . S
C154 C153 1.362 . S
C154 C157 1.409 . S
C155 H147 0.930 . S
C155 C156 1.355 . S
C155 C157 1.415 . S
C156 C155 1.355 . S
C156 C158 1.419 . S
C157 C152 1.425 . S
C157 C154 1.409 . S
C157 C155 1.415 . S
C158 H148 0.930 . S
C158 C156 1.419 . S
C158 C159 1.362 . S
C159 H149 0.930 . S
C159 C152 1.409 . S
C159 C158 1.362 . S
H160 C166 0.930 . S
H161 C169 0.930 . S
H162 C170 0.930 . S
H163 C171 0.933 . S
H164 C174 0.930 . S
H165 C175 0.930 . S
C166 H160 0.930 . S
C166 C167 1.355 1_556 S
C166 C168 1.415 . S
C167 C166 1.355 1_554 S
C167 C169 1.419 . S
C168 C166 1.415 . S
C168 C173 1.425 1_556 S
C168 C175 1.409 . S
C169 H161 0.930 . S
C169 C167 1.419 . S
C169 C170 1.362 . S
C170 H162 0.930 . S
C170 C169 1.362 . S
C170 C173 1.409 . S
C171 H163 0.933 . S
C171 C172 1.352 1_554 S
C171 C173 1.414 . S
C172 C171 1.352 1_556 S
C172 C174 1.419 . S
C173 C168 1.425 1_554 S
C173 C170 1.409 . S
C173 C171 1.414 . S
C174 H164 0.930 . S
C174 C172 1.419 . S
C174 C175 1.362 . S
C175 H165 0.930 . S
C175 C168 1.409 . S
C175 C174 1.362 . S
H176 C182 0.930 . S
H177 C185 0.930 . S
H178 C186 0.930 . S
H179 C187 0.930 . S
H180 C190 0.930 . S
H181 C191 0.930 . S
C182 H176 0.930 . S
C182 C183 1.355 . S
C182 C184 1.415 . S
C183 C182 1.355 . S
C183 C185 1.419 . S
C184 C182 1.415 . S
C184 C189 1.425 . S
C184 C191 1.409 . S
C185 H177 0.930 . S
C185 C183 1.419 . S
C185 C186 1.362 . S
C186 H178 0.930 . S
C186 C185 1.362 . S
C186 C189 1.409 . S
C187 H179 0.930 . S
C187 C188 1.355 . S
C187 C189 1.415 . S
C188 C187 1.355 . S
C188 C190 1.419 . S
C189 C184 1.425 . S
C189 C186 1.409 . S
C189 C187 1.415 . S
C190 H180 0.930 . S
C190 C188 1.419 . S
C190 C191 1.362 . S
C191 H181 0.930 . S
C191 C184 1.409 . S
C191 C190 1.362 . S
H192 C198 0.930 . S
H193 C201 0.930 . S
H194 C202 0.930 . S
H195 C203 0.930 . S
H196 C206 0.930 . S
H197 C207 0.930 . S
C198 H192 0.930 . S
C198 C199 1.355 . S
C198 C200 1.415 . S
C199 C198 1.355 . S
C199 C201 1.419 . S
C200 C198 1.415 . S
C200 C205 1.425 . S
C200 C207 1.409 . S
C201 H193 0.930 . S
C201 C199 1.419 . S
C201 C202 1.362 . S
C202 H194 0.930 . S
C202 C201 1.362 . S
C202 C205 1.409 . S
C203 H195 0.930 . S
C203 C204 1.355 . S
C203 C205 1.415 . S
C204 C203 1.355 . S
C204 C206 1.419 . S
C205 C200 1.425 . S
C205 C202 1.409 . S
C205 C203 1.415 . S
C206 H196 0.930 . S
C206 C204 1.419 . S
C206 C207 1.362 . S
C207 H197 0.930 . S
C207 C200 1.409 . S
C207 C206 1.362 . S
H208 C214 0.930 . S
H209 C217 0.930 . S
H210 C218 0.930 . S
H211 C219 0.930 . S
H212 C222 0.930 . S
H213 C223 0.930 . S
C214 H208 0.930 . S
C214 C215 1.355 . S
C214 C216 1.415 . S
C215 C214 1.355 . S
C215 C217 1.419 . S
C216 C214 1.415 . S
C216 C221 1.425 . S
C216 C223 1.409 . S
C217 H209 0.930 . S
C217 C215 1.419 . S
C217 C218 1.362 . S
C218 H210 0.930 . S
C218 C217 1.362 . S
C218 C221 1.409 . S
C219 H211 0.930 . S
C219 C220 1.355 . S
C219 C221 1.415 . S
C220 C219 1.355 . S
C220 C222 1.419 . S
C221 C216 1.425 . S
C221 C218 1.409 . S
C221 C219 1.415 . S
C222 H212 0.930 . S
C222 C220 1.419 . S
C222 C223 1.362 . S
C223 H213 0.930 . S
C223 C216 1.409 . S
C223 C222 1.362 . S
H224 C230 0.930 . S
H225 C233 0.930 . S
H226 C234 0.930 . S
H227 C235 0.930 . S
H228 C238 0.930 . S
H229 C239 0.930 . S
C230 H224 0.930 . S
C230 C231 1.355 . S
C230 C232 1.415 . S
C231 C230 1.355 . S
C231 C233 1.419 . S
C232 C230 1.415 . S
C232 C237 1.425 . S
C232 C239 1.409 . S
C233 H225 0.930 . S
C233 C231 1.419 . S
C233 C234 1.362 . S
C234 H226 0.930 . S
C234 C233 1.362 . S
C234 C237 1.409 . S
C235 H227 0.930 . S
C235 C236 1.355 . S
C235 C237 1.415 . S
C236 C235 1.355 . S
C236 C238 1.419 . S
C237 C232 1.425 . S
C237 C234 1.409 . S
C237 C235 1.415 . S
C238 H228 0.930 . S
C238 C236 1.419 . S
C238 C239 1.362 . S
C239 H229 0.930 . S
C239 C232 1.409 . S
C239 C238 1.362 . S
H240 C246 0.930 . S
H241 C249 0.930 . S
H242 C250 0.930 . S
H243 C251 0.930 . S
H244 C254 0.930 . S
H245 C255 0.930 . S
C246 H240 0.930 . S
C246 C247 1.355 1_655 S
C246 C248 1.415 1_655 S
C247 C246 1.355 1_455 S
C247 C249 1.419 1_545 S
C248 C246 1.415 1_455 S
C248 C253 1.425 . S
C248 C255 1.409 1_455 S
C249 H241 0.930 . S
C249 C247 1.419 1_565 S
C249 C250 1.362 . S
C250 H242 0.930 . S
C250 C249 1.362 . S
C250 C253 1.409 1_565 S
C251 H243 0.930 . S
C251 C252 1.355 1_565 S
C251 C253 1.415 1_565 S
C252 C251 1.355 1_545 S
C252 C254 1.419 1_455 S
C253 C248 1.425 . S
C253 C250 1.409 1_545 S
C253 C251 1.415 1_545 S
C254 H244 0.930 . S
C254 C252 1.419 1_655 S
C254 C255 1.362 . S
C255 H245 0.930 . S
C255 C248 1.409 1_655 S
C255 C254 1.362 . S
H256 C262 0.930 . S
H257 C265 0.930 . S
H258 C266 0.930 . S
H259 C267 0.930 . S
H260 C270 0.930 . S
H261 C271 0.930 . S
C262 H256 0.930 . S
C262 C263 1.355 1_565 S
C262 C264 1.415 . S
C263 C262 1.355 1_545 S
C263 C265 1.419 1_655 S
C264 C262 1.415 . S
C264 C269 1.425 1_665 S
C264 C271 1.409 . S
C265 H257 0.930 . S
C265 C263 1.419 1_455 S
C265 C266 1.362 . S
C266 H258 0.930 . S
C266 C265 1.362 . S
C266 C269 1.409 . S
C267 H259 0.930 . S
C267 C268 1.355 1_455 S
C267 C269 1.415 . S
C268 C267 1.355 1_655 S
C268 C270 1.419 1_545 S
C269 C264 1.425 1_445 S
C269 C266 1.409 . S
C269 C267 1.415 . S
C270 H260 0.930 . S
C270 C268 1.419 1_565 S
C270 C271 1.362 . S
C271 H261 0.930 . S
C271 C264 1.409 . S
C271 C270 1.362 . S
H272 C278 0.930 . S
H273 C281 0.930 . S
H274 C282 0.930 . S
H275 C283 0.930 . S
H276 C286 0.930 . S
H277 C287 0.930 . S
C278 H272 0.930 . S
C278 C279 1.355 . S
C278 C280 1.415 . S
C279 C278 1.355 . S
C279 C281 1.419 . S
C280 C278 1.415 . S
C280 C285 1.425 . S
C280 C287 1.409 . S
C281 H273 0.930 . S
C281 C279 1.419 . S
C281 C282 1.362 . S
C282 H274 0.930 . S
C282 C281 1.362 . S
C282 C285 1.409 . S
C283 H275 0.930 . S
C283 C284 1.355 . S
C283 C285 1.415 . S
C284 C283 1.355 . S
C284 C286 1.419 . S
C285 C280 1.425 . S
C285 C282 1.409 . S
C285 C283 1.415 . S
C286 H276 0.930 . S
C286 C284 1.419 . S
C286 C287 1.362 . S
C287 H277 0.930 . S
C287 C280 1.409 . S
C287 C286 1.362 . S
H288 C294 0.930 . S
H289 C297 0.930 . S
H290 C298 0.930 . S
H291 C299 0.930 . S
H292 C302 0.930 . S
H293 C303 0.930 . S
C294 H288 0.930 . S
C294 C295 1.355 . S
C294 C296 1.415 . S
C295 C294 1.355 . S
C295 C297 1.419 . S
C296 C294 1.415 . S
C296 C301 1.425 . S
C296 C303 1.409 . S
C297 H289 0.930 . S
C297 C295 1.419 . S
C297 C298 1.362 . S
C298 H290 0.930 . S
C298 C297 1.362 . S
C298 C301 1.409 . S
C299 H291 0.930 . S
C299 C300 1.355 . S
C299 C301 1.415 . S
C300 C299 1.355 . S
C300 C302 1.419 . S
C301 C296 1.425 . S
C301 C298 1.409 . S
C301 C299 1.415 . S
C302 H292 0.930 . S
C302 C300 1.419 . S
C302 C303 1.362 . S
C303 H293 0.930 . S
C303 C296 1.409 . S
C303 C302 1.362 . S
C124 C107 1.471 . S
C119 C29 1.492 . S
C135 C8 1.434 . S
C140 N94 1.343 1_554 S
C151 C0 1.425 . S
C156 N105 1.368 . S
C167 C17 1.491 . S
C172 C96 1.446 . S
C183 C63 1.489 . S
C188 C85 1.433 . S
C199 C42 1.430 . S
C204 N72 1.393 . S
C220 N83 1.352 . S
C215 C34 1.428 . S
C236 C74 1.479 . S
C231 C51 1.488 . S
C247 C4 1.511 . S
C252 C77 1.512 . S
C263 C13 1.505 . S
C268 C88 1.487 . S
C284 C99 1.501 . S
C279 C38 1.511 . S
C295 C47 1.503 . S
C300 C110 1.493 . S
