# Generated by pormake.
# Topology ptr, (4,4)-cn, num edge types: 1
# Building blocks:
#     Node 0, Type 0, BuildingBlock: TATPOV_clean_sbu_0, # of connection points: 4
#     Node 1, Type 0, BuildingBlock: TATPOV_clean_sbu_0, # of connection points: 4
#     Node 2, Type 0, BuildingBlock: TATPOV_clean_sbu_0, # of connection points: 4
#     Node 3, Type 0, BuildingBlock: TATPOV_clean_sbu_0, # of connection points: 4
#     Node 4, Type 0, BuildingBlock: TATPOV_clean_sbu_0, # of connection points: 4
#     Node 5, Type 0, BuildingBlock: TATPOV_clean_sbu_0, # of connection points: 4
#     Node 6, Type 0, BuildingBlock: TATPOV_clean_sbu_0, # of connection points: 4
#     Node 7, Type 0, BuildingBlock: TATPOV_clean_sbu_0, # of connection points: 4
#     Node 8, Type 0, BuildingBlock: TATPOV_clean_sbu_0, # of connection points: 4
#     Node 9, Type 0, BuildingBlock: TATPOV_clean_sbu_0, # of connection points: 4
#     Node 10, Type 0, BuildingBlock: TATPOV_clean_sbu_0, # of connection points: 4
#     Node 11, Type 0, BuildingBlock: TATPOV_clean_sbu_0, # of connection points: 4
#     Node 12, Type 0, BuildingBlock: TATPOV_clean_sbu_0, # of connection points: 4
#     Node 13, Type 0, BuildingBlock: TATPOV_clean_sbu_0, # of connection points: 4
#     Node 14, Type 0, BuildingBlock: TATPOV_clean_sbu_0, # of connection points: 4
#     Node 15, Type 0, BuildingBlock: TATPOV_clean_sbu_0, # of connection points: 4
#     Node 16, Type 0, BuildingBlock: TATPOV_clean_sbu_0, # of connection points: 4
#     Node 17, Type 0, BuildingBlock: TATPOV_clean_sbu_0, # of connection points: 4
#     Node 18, Type 1, BuildingBlock: MUDLON_clean_linker_0, # of connection points: 4
#     Node 19, Type 1, BuildingBlock: MUDLON_clean_linker_0, # of connection points: 4
#     Node 20, Type 1, BuildingBlock: MUDLON_clean_linker_0, # of connection points: 4
#     Node 21, Type 1, BuildingBlock: MUDLON_clean_linker_0, # of connection points: 4
#     Node 22, Type 1, BuildingBlock: MUDLON_clean_linker_0, # of connection points: 4
#     Node 23, Type 1, BuildingBlock: MUDLON_clean_linker_0, # of connection points: 4
#     Node 24, Type 1, BuildingBlock: MUDLON_clean_linker_0, # of connection points: 4
#     Node 25, Type 1, BuildingBlock: MUDLON_clean_linker_0, # of connection points: 4
#     Node 26, Type 1, BuildingBlock: MUDLON_clean_linker_0, # of connection points: 4
#     Node 27, Type 1, BuildingBlock: MUDLON_clean_linker_0, # of connection points: 4
#     Node 28, Type 1, BuildingBlock: MUDLON_clean_linker_0, # of connection points: 4
#     Node 29, Type 1, BuildingBlock: MUDLON_clean_linker_0, # of connection points: 4
#     Node 30, Type 1, BuildingBlock: MUDLON_clean_linker_0, # of connection points: 4
#     Node 31, Type 1, BuildingBlock: MUDLON_clean_linker_0, # of connection points: 4
#     Node 32, Type 1, BuildingBlock: MUDLON_clean_linker_0, # of connection points: 4
#     Node 33, Type 1, BuildingBlock: MUDLON_clean_linker_0, # of connection points: 4
#     Node 34, Type 1, BuildingBlock: MUDLON_clean_linker_0, # of connection points: 4
#     Node 35, Type 1, BuildingBlock: MUDLON_clean_linker_0, # of connection points: 4
#     Edge 36, Type (0, 1), BuildingBlock: XUDNAN_clean_linker_2, # of connection points: 2
#     Edge 37, Type (0, 1), BuildingBlock: XUDNAN_clean_linker_2, # of connection points: 2
#     Edge 38, Type (0, 1), BuildingBlock: XUDNAN_clean_linker_2, # of connection points: 2
#     Edge 39, Type (0, 1), BuildingBlock: XUDNAN_clean_linker_2, # of connection points: 2
#     Edge 40, Type (0, 1), BuildingBlock: XUDNAN_clean_linker_2, # of connection points: 2
#     Edge 41, Type (0, 1), BuildingBlock: XUDNAN_clean_linker_2, # of connection points: 2
#     Edge 42, Type (0, 1), BuildingBlock: XUDNAN_clean_linker_2, # of connection points: 2
#     Edge 43, Type (0, 1), BuildingBlock: XUDNAN_clean_linker_2, # of connection points: 2
#     Edge 44, Type (0, 1), BuildingBlock: XUDNAN_clean_linker_2, # of connection points: 2
#     Edge 45, Type (0, 1), BuildingBlock: XUDNAN_clean_linker_2, # of connection points: 2
#     Edge 46, Type (0, 1), BuildingBlock: XUDNAN_clean_linker_2, # of connection points: 2
#     Edge 47, Type (0, 1), BuildingBlock: XUDNAN_clean_linker_2, # of connection points: 2
#     Edge 48, Type (0, 1), BuildingBlock: XUDNAN_clean_linker_2, # of connection points: 2
#     Edge 49, Type (0, 1), BuildingBlock: XUDNAN_clean_linker_2, # of connection points: 2
#     Edge 50, Type (0, 1), BuildingBlock: XUDNAN_clean_linker_2, # of connection points: 2
#     Edge 51, Type (0, 1), BuildingBlock: XUDNAN_clean_linker_2, # of connection points: 2
#     Edge 52, Type (0, 1), BuildingBlock: XUDNAN_clean_linker_2, # of connection points: 2
#     Edge 53, Type (0, 1), BuildingBlock: XUDNAN_clean_linker_2, # of connection points: 2
#     Edge 54, Type (0, 1), BuildingBlock: XUDNAN_clean_linker_2, # of connection points: 2
#     Edge 55, Type (0, 1), BuildingBlock: XUDNAN_clean_linker_2, # of connection points: 2
#     Edge 56, Type (0, 1), BuildingBlock: XUDNAN_clean_linker_2, # of connection points: 2
#     Edge 57, Type (0, 1), BuildingBlock: XUDNAN_clean_linker_2, # of connection points: 2
#     Edge 58, Type (0, 1), BuildingBlock: XUDNAN_clean_linker_2, # of connection points: 2
#     Edge 59, Type (0, 1), BuildingBlock: XUDNAN_clean_linker_2, # of connection points: 2
#     Edge 60, Type (0, 1), BuildingBlock: XUDNAN_clean_linker_2, # of connection points: 2
#     Edge 61, Type (0, 1), BuildingBlock: XUDNAN_clean_linker_2, # of connection points: 2
#     Edge 62, Type (0, 1), BuildingBlock: XUDNAN_clean_linker_2, # of connection points: 2
#     Edge 63, Type (0, 1), BuildingBlock: XUDNAN_clean_linker_2, # of connection points: 2
#     Edge 64, Type (0, 1), BuildingBlock: XUDNAN_clean_linker_2, # of connection points: 2
#     Edge 65, Type (0, 1), BuildingBlock: XUDNAN_clean_linker_2, # of connection points: 2
#     Edge 66, Type (0, 1), BuildingBlock: XUDNAN_clean_linker_2, # of connection points: 2
#     Edge 67, Type (0, 1), BuildingBlock: XUDNAN_clean_linker_2, # of connection points: 2
#     Edge 68, Type (0, 1), BuildingBlock: XUDNAN_clean_linker_2, # of connection points: 2
#     Edge 69, Type (0, 1), BuildingBlock: XUDNAN_clean_linker_2, # of connection points: 2
#     Edge 70, Type (0, 1), BuildingBlock: XUDNAN_clean_linker_2, # of connection points: 2
#     Edge 71, Type (0, 1), BuildingBlock: XUDNAN_clean_linker_2, # of connection points: 2
#     Edge 72, Type (0, 1), BuildingBlock: XUDNAN_clean_linker_2, # of connection points: 2
#     Edge 73, Type (0, 1), BuildingBlock: XUDNAN_clean_linker_2, # of connection points: 2
#     Edge 74, Type (0, 1), BuildingBlock: XUDNAN_clean_linker_2, # of connection points: 2
#     Edge 75, Type (0, 1), BuildingBlock: XUDNAN_clean_linker_2, # of connection points: 2
#     Edge 76, Type (0, 1), BuildingBlock: XUDNAN_clean_linker_2, # of connection points: 2
#     Edge 77, Type (0, 1), BuildingBlock: XUDNAN_clean_linker_2, # of connection points: 2
#     Edge 78, Type (0, 1), BuildingBlock: XUDNAN_clean_linker_2, # of connection points: 2
#     Edge 79, Type (0, 1), BuildingBlock: XUDNAN_clean_linker_2, # of connection points: 2
#     Edge 80, Type (0, 1), BuildingBlock: XUDNAN_clean_linker_2, # of connection points: 2
#     Edge 81, Type (0, 1), BuildingBlock: XUDNAN_clean_linker_2, # of connection points: 2
#     Edge 82, Type (0, 1), BuildingBlock: XUDNAN_clean_linker_2, # of connection points: 2
#     Edge 83, Type (0, 1), BuildingBlock: XUDNAN_clean_linker_2, # of connection points: 2
#     Edge 84, Type (0, 1), BuildingBlock: XUDNAN_clean_linker_2, # of connection points: 2
#     Edge 85, Type (0, 1), BuildingBlock: XUDNAN_clean_linker_2, # of connection points: 2
#     Edge 86, Type (0, 1), BuildingBlock: XUDNAN_clean_linker_2, # of connection points: 2
#     Edge 87, Type (0, 1), BuildingBlock: XUDNAN_clean_linker_2, # of connection points: 2
#     Edge 88, Type (0, 1), BuildingBlock: XUDNAN_clean_linker_2, # of connection points: 2
#     Edge 89, Type (0, 1), BuildingBlock: XUDNAN_clean_linker_2, # of connection points: 2
#     Edge 90, Type (0, 1), BuildingBlock: XUDNAN_clean_linker_2, # of connection points: 2
#     Edge 91, Type (0, 1), BuildingBlock: XUDNAN_clean_linker_2, # of connection points: 2
#     Edge 92, Type (0, 1), BuildingBlock: XUDNAN_clean_linker_2, # of connection points: 2
#     Edge 93, Type (0, 1), BuildingBlock: XUDNAN_clean_linker_2, # of connection points: 2
#     Edge 94, Type (0, 1), BuildingBlock: XUDNAN_clean_linker_2, # of connection points: 2
#     Edge 95, Type (0, 1), BuildingBlock: XUDNAN_clean_linker_2, # of connection points: 2
#     Edge 96, Type (0, 1), BuildingBlock: XUDNAN_clean_linker_2, # of connection points: 2
#     Edge 97, Type (0, 1), BuildingBlock: XUDNAN_clean_linker_2, # of connection points: 2
#     Edge 98, Type (0, 1), BuildingBlock: XUDNAN_clean_linker_2, # of connection points: 2
#     Edge 99, Type (0, 1), BuildingBlock: XUDNAN_clean_linker_2, # of connection points: 2
#     Edge 100, Type (0, 1), BuildingBlock: XUDNAN_clean_linker_2, # of connection points: 2
#     Edge 101, Type (0, 1), BuildingBlock: XUDNAN_clean_linker_2, # of connection points: 2
#     Edge 102, Type (0, 1), BuildingBlock: XUDNAN_clean_linker_2, # of connection points: 2
#     Edge 103, Type (0, 1), BuildingBlock: XUDNAN_clean_linker_2, # of connection points: 2
#     Edge 104, Type (0, 1), BuildingBlock: XUDNAN_clean_linker_2, # of connection points: 2
#     Edge 105, Type (0, 1), BuildingBlock: XUDNAN_clean_linker_2, # of connection points: 2
#     Edge 106, Type (0, 1), BuildingBlock: XUDNAN_clean_linker_2, # of connection points: 2
#     Edge 107, Type (0, 1), BuildingBlock: XUDNAN_clean_linker_2, # of connection points: 2
# Relax obj value: 0.058
# Max RMSD: 0.186
# Mean RMSD: 0.100
data_MOF--net-ptr--node1-TATPOV_clean_sbu_0--node2-MUDLON_clean_linker_0--edge1-XUDNAN_clean_linker_2
_symmetry_space_group_name_H-M    P1
_symmetry_Int_Tables_number       1
_symmetry_cell_setting            triclinic
loop_
_symmetry_equiv_pos_as_xyz
'x, y, z'
_cell_length_a     104.93007
_cell_length_b     106.44877
_cell_length_c     61.392588
_cell_angle_alpha  89.534705
_cell_angle_beta   90.891056
_cell_angle_gamma 121.35868
loop_
_atom_site_label
_atom_site_type_symbol
_atom_site_fract_x
_atom_site_fract_y
_atom_site_fract_z
_atom_type_partial_charge
Zn0 Zn 0.96454 0.37043 0.01479 0.0
Zn1 Zn 0.99218 0.3748 0.01554 0.0
O2 O 0.97774 0.35236 0.01223 0.0
O3 O 0.95501 0.34847 0.01206 0.0
O4 O 0.01195 0.37565 0.01547 0.0
O5 O 0.96849 0.37973 0.04438 0.0
O6 O 0.99141 0.38401 0.04489 0.0
C7 C 0.96365 0.34353 0.01113 0.0
C8 C 0.98304 0.38896 0.97966 0.0
O9 O 0.99283 0.38676 0.98841 0.0
O10 O 0.97018 0.3832 0.98787 0.0
C11 C 0.02092 0.37896 0.03159 0.0
O12 O 0.0181 0.38331 0.04988 0.0
C13 C 0.98103 0.38493 0.05389 0.0
Zn14 Zn 0.64231 0.61899 0.00697 0.0
Zn15 Zn 0.64272 0.64453 0.0126 0.0
O16 O 0.66456 0.65085 0.00706 0.0
O17 O 0.66476 0.63045 0.00275 0.0
O18 O 0.64433 0.66401 0.01796 0.0
O19 O 0.63364 0.61254 0.03717 0.0
O20 O 0.63347 0.63302 0.04083 0.0
C21 C 0.67168 0.64437 0.00348 0.0
C22 C 0.62408 0.62378 0.97548 0.0
O23 O 0.62879 0.63573 0.98596 0.0
O24 O 0.62824 0.61496 0.98115 0.0
C25 C 0.65095 0.67453 0.00444 0.0
O26 O 0.65618 0.67232 0.98649 0.0
C27 C 0.63061 0.62061 0.04829 0.0
Zn28 Zn 0.35474 0.96603 0.00758 0.0
Zn29 Zn 0.36085 0.99391 0.01243 0.0
O30 O 0.33848 0.98071 0.01892 0.0
O31 O 0.3331 0.9579 0.01532 0.0
O32 O 0.36348 0.01411 0.01212 0.0
O33 O 0.36169 0.97007 0.97638 0.0
O34 O 0.36752 0.9929 0.9815 0.0
C35 C 0.32905 0.96692 0.01961 0.0
C36 C 0.37723 0.98341 0.04126 0.0
O37 O 0.37475 0.99363 0.03636 0.0
O38 O 0.37025 0.97116 0.03139 0.0
C39 C 0.37329 0.02576 0.02181 0.0
O40 O 0.38328 0.02539 0.0345 0.0
C41 C 0.36722 0.98309 0.96937 0.0
Zn42 Zn 0.0306 0.63052 0.01739 0.0
Zn43 Zn 0.0041 0.62721 0.00842 0.0
O44 O 0.01802 0.64952 0.01446 0.0
O45 O 0.04012 0.65242 0.02037 0.0
O46 O 0.98466 0.62559 0.9991 0.0
O47 O 0.03078 0.62155 0.98902 0.0
O48 O 0.00896 0.61889 0.98132 0.0
C49 C 0.03191 0.65785 0.01874 0.0
C50 C 0.00773 0.61162 0.048 0.0
O51 O 0.9993 0.6143 0.03618 0.0
O52 O 0.02137 0.61732 0.04333 0.0
C53 C 0.97962 0.63289 0.00794 0.0
O54 O 0.98682 0.64134 0.02473 0.0
C55 C 0.01976 0.61727 0.97614 0.0
Zn56 Zn 0.36692 0.39192 0.02957 0.0
Zn57 Zn 0.36665 0.3679 0.01779 0.0
O58 O 0.34417 0.36074 0.02165 0.0
O59 O 0.34461 0.38097 0.03053 0.0
O60 O 0.36605 0.34924 0.00894 0.0
O61 O 0.37739 0.40216 0.0025 0.0
O62 O 0.3776 0.38252 0.99211 0.0
C63 C 0.33731 0.36732 0.02651 0.0
C64 C 0.38325 0.38486 0.05957 0.0
O65 O 0.37896 0.374 0.04668 0.0
O66 O 0.37946 0.3942 0.05596 0.0
C67 C 0.37702 0.34753 0.01261 0.0
O68 O 0.38916 0.35824 0.02192 0.0
C69 C 0.38104 0.3958 0.98883 0.0
Zn70 Zn 0.62311 0.02222 0.00498 0.0
Zn71 Zn 0.6286 1.00017 0.00734 0.0
O72 O 0.64948 0.01934 0.00414 0.0
O73 O 0.64485 0.03723 0.00218 0.0
O74 O 0.63363 0.98417 0.01029 0.0
O75 O 0.61403 0.01687 0.03481 0.0
O76 O 0.61755 0.99818 0.03593 0.0
C77 C 0.6541 0.033 0.00227 0.0
C78 C 0.60866 1.00066 0.97063 0.0
O79 O 0.61476 0.99439 0.9802 0.0
O80 O 0.61063 0.01266 0.9779 0.0
C81 C 0.64479 0.98521 0.00065 0.0
O82 O 0.65274 0.99651 0.98781 0.0
C83 C 0.61271 0.00574 0.04457 0.0
Zn84 Zn 0.64211 0.7032 0.35769 0.0
Zn85 Zn 0.66925 0.70743 0.34608 0.0
O86 O 0.65432 0.68512 0.34706 0.0
O87 O 0.63208 0.68096 0.35492 0.0
O88 O 0.6892 0.70883 0.34221 0.0
O89 O 0.65109 0.71377 0.38645 0.0
O90 O 0.67294 0.71878 0.37459 0.0
C91 C 0.64048 0.67615 0.35022 0.0
C92 C 0.6554 0.72047 0.31735 0.0
O93 O 0.66589 0.71789 0.32032 0.0
O94 O 0.64475 0.71566 0.33075 0.0
C95 C 0.69002 0.69808 0.33509 0.0
O96 O 0.67792 0.68643 0.32742 0.0
C97 C 0.66513 0.72021 0.38891 0.0
Zn98 Zn 0.30339 0.94528 0.34708 0.0
Zn99 Zn 0.30313 0.97021 0.35486 0.0
O100 O 0.32431 0.97762 0.34393 0.0
O101 O 0.32555 0.9577 0.34057 0.0
O102 O 0.30355 0.9891 0.36068 0.0
O103 O 0.2963 0.93862 0.37793 0.0
O104 O 0.2982 0.95985 0.38465 0.0
C105 C 0.33171 0.97156 0.33949 0.0
C106 C 0.28236 0.94831 0.31994 0.0
O107 O 0.28666 0.95976 0.3315 0.0
O108 O 0.28815 0.94052 0.32283 0.0
C109 C 0.30515 0.99762 0.34494 0.0
O110 O 0.30625 0.99379 0.32509 0.0
C111 C 0.29542 0.94726 0.39105 0.0
Zn112 Zn 0.02318 0.30614 0.33991 0.0
Zn113 Zn 0.03013 0.33358 0.34893 0.0
O114 O 0.00723 0.32059 0.35246 0.0
O115 O 1.00141 0.29793 0.3457 0.0
O116 O 0.03357 0.35411 0.35074 0.0
O117 O 0.0315 0.31163 0.3096 0.0
O118 O 0.03912 0.33439 0.31897 0.0
C119 C 0.99749 0.30689 0.35102 0.0
C120 C 0.04379 0.32019 0.37722 0.0
O121 O 0.04208 0.33108 0.37386 0.0
O122 O 0.03719 0.30895 0.36502 0.0
C123 C 0.04636 0.36572 0.35281 0.0
O124 O 0.05813 0.36454 0.35571 0.0
C125 C 0.03871 0.32524 0.30529 0.0
Zn126 Zn 0.70041 0.96839 0.35121 0.0
Zn127 Zn 0.67456 0.96865 0.35047 0.0
O128 O 0.69095 0.99058 0.35397 0.0
O129 O 0.71192 0.99065 0.35107 0.0
O130 O 0.65511 0.96835 0.34768 0.0
O131 O 0.69481 0.95759 0.32239 0.0
O132 O 0.67457 0.95893 0.32162 0.0
C133 C 0.70515 0.99753 0.35311 0.0
C134 C 0.68045 0.95247 0.387 0.0
O135 O 0.67185 0.95588 0.37725 0.0
O136 O 0.69335 0.95689 0.37968 0.0
C137 C 0.65345 0.97918 0.35116 0.0
O138 O 0.66491 0.99171 0.358 0.0
C139 C 0.68292 0.95506 0.31281 0.0
Zn140 Zn 0.033 0.72232 0.37495 0.0
Zn141 Zn 0.034 0.69929 0.35927 0.0
O142 O 0.01174 0.69059 0.36699 0.0
O143 O 0.01125 0.70916 0.38158 0.0
O144 O 0.03401 0.68133 0.34824 0.0
O145 O 0.03935 0.73198 0.34545 0.0
O146 O 0.04117 0.71359 0.33314 0.0
C147 C 0.00455 0.69577 0.37598 0.0
C148 C 0.05367 0.71746 0.39873 0.0
O149 O 0.04904 0.70683 0.38528 0.0
O150 O 0.04849 0.72587 0.39777 0.0
C151 C 0.04494 0.67945 0.35115 0.0
O152 O 0.05702 0.68968 0.36122 0.0
C153 C 0.04247 0.72609 0.33023 0.0
Zn154 Zn 0.303 0.36776 0.34856 0.0
Zn155 Zn 0.30701 0.34477 0.34744 0.0
O156 O 0.32792 0.36324 0.34229 0.0
O157 O 0.32469 0.38208 0.34274 0.0
O158 O 0.31201 0.32878 0.34792 0.0
O159 O 0.29647 0.36306 0.37962 0.0
O160 O 0.29785 0.3431 0.37778 0.0
C161 C 0.33321 0.37705 0.34083 0.0
C162 C 0.28557 0.34625 0.31481 0.0
O163 O 0.2922 0.33977 0.32181 0.0
O164 O 0.28811 0.35805 0.32372 0.0
C165 C 0.30377 0.31577 0.35518 0.0
O166 O 0.29041 0.31163 0.36233 0.0
C167 C 0.29475 0.35145 0.38825 0.0
Zn168 Zn 0.30045 0.04025 0.67561 0.0
Zn169 Zn 0.32442 0.03856 0.68389 0.0
O170 O 0.307 0.01678 0.68052 0.0
O171 O 0.28701 0.01829 0.67584 0.0
O172 O 0.34224 0.03631 0.68929 0.0
O173 O 0.30436 0.05174 0.70324 0.0
O174 O 0.32376 0.04974 0.71113 0.0
C175 C 0.2929 0.01055 0.67779 0.0
C176 C 0.32264 0.05455 0.64287 0.0
O177 O 0.32994 0.05091 0.65554 0.0
O178 O 0.30941 0.05087 0.64746 0.0
C179 C 0.34595 0.0308 0.67414 0.0
O180 O 0.33823 0.02706 0.65579 0.0
C181 C 0.31507 0.05431 0.71597 0.0
Zn182 Zn 0.97212 0.28068 0.68123 0.0
Zn183 Zn 0.97651 0.30809 0.68692 0.0
O184 O 0.99744 0.31162 0.68135 0.0
O185 O 0.99429 0.28969 0.67649 0.0
O186 O 0.981 0.32868 0.69284 0.0
O187 O 0.96305 0.27504 0.71153 0.0
O188 O 0.96637 0.29713 0.71493 0.0
C189 C 0.0028 0.30355 0.67738 0.0
C190 C 0.9562 0.28854 0.64993 0.0
O191 O 0.96214 0.30058 0.66055 0.0
O192 O 0.95887 0.2786 0.65532 0.0
C193 C 0.97198 0.33313 0.68967 0.0
O194 O 0.95863 0.32401 0.68149 0.0
C195 C 0.96165 0.28428 0.7225 0.0
Zn196 Zn 0.69501 0.62949 0.68067 0.0
Zn197 Zn 0.69793 0.65639 0.68151 0.0
O198 O 0.67549 0.6409 0.68315 0.0
O199 O 0.67256 0.61888 0.68272 0.0
O200 O 0.69652 0.67445 0.67734 0.0
O201 O 0.70528 0.63436 0.65139 0.0
O202 O 0.70845 0.65644 0.6536 0.0
C203 C 0.66703 0.62695 0.6836 0.0
C204 C 0.71205 0.64851 0.71812 0.0
O205 O 0.70981 0.65824 0.70975 0.0
O206 O 0.70704 0.6362 0.70877 0.0
C207 C 0.70346 0.68777 0.68362 0.0
O208 O 0.71507 0.69266 0.69679 0.0
C209 C 0.71033 0.64711 0.64354 0.0
Zn210 Zn 0.3627 0.29309 0.69716 0.0
Zn211 Zn 0.33745 0.29028 0.6828 0.0
O212 O 0.35131 0.31293 0.68729 0.0
O213 O 0.37251 0.31493 0.69735 0.0
O214 O 0.31793 0.28752 0.67158 0.0
O215 O 0.36393 0.28287 0.67066 0.0
O216 O 0.34358 0.28156 0.65782 0.0
C217 C 0.36504 0.3209 0.69288 0.0
C218 C 0.33871 0.27607 0.72603 0.0
O219 O 0.33117 0.27786 0.71116 0.0
O220 O 0.35266 0.28188 0.72425 0.0
C221 C 0.31283 0.29566 0.67648 0.0
O222 O 0.32059 0.3069 0.6896 0.0
C223 C 0.35424 0.27921 0.65562 0.0
Zn224 Zn 0.69437 0.05369 0.68807 0.0
Zn225 Zn 0.69285 0.02722 0.68576 0.0
O226 O 0.67093 0.02147 0.6873 0.0
O227 O 0.67167 0.04246 0.69003 0.0
O228 O 0.69188 0.00792 0.68205 0.0
O229 O 0.70474 0.05947 0.65861 0.0
O230 O 0.70465 0.03874 0.65914 0.0
C231 C 0.66423 0.02852 0.68922 0.0
C232 C 0.70987 0.04807 0.7234 0.0
O233 O 0.70478 0.03576 0.71385 0.0
O234 O 0.70711 0.05752 0.71571 0.0
C235 C 0.70392 0.00778 0.6833 0.0
O236 O 0.71648 0.0201 0.68769 0.0
C237 C 0.70842 0.051 0.65019 0.0
Zn238 Zn 0.98434 0.71668 0.67031 0.0
Zn239 Zn 0.9741 0.68832 0.67722 0.0
O240 O 0.99691 0.69778 0.67252 0.0
O241 O 0.00539 0.72135 0.668 0.0
O242 O 0.96726 0.66711 0.68444 0.0
O243 O 0.97656 0.71844 0.69901 0.0
O244 O 0.96822 0.69503 0.70501 0.0
C245 C 0.00777 0.71087 0.66926 0.0
C246 C 0.96253 0.69775 0.63803 0.0
O247 O 0.96204 0.68743 0.64946 0.0
O248 O 0.97128 0.71104 0.6435 0.0
C249 C 0.97292 0.66028 0.67595 0.0
O250 O 0.98314 0.66688 0.66096 0.0
C251 C 0.9699 0.70724 0.71115 0.0
H252 H 0.22749 0.36449 0.15716 0.0
N253 N 0.21293 0.34617 0.12454 0.0
H254 H 0.2365 0.35921 0.19083 0.0
H255 H 0.20555 0.31884 0.13888 0.0
H256 H 0.21387 0.31323 0.17296 0.0
H257 H 0.20591 0.32247 0.09894 0.0
H258 H 0.22278 0.32074 0.07352 0.0
H259 H 0.2392 0.3678 0.11157 0.0
H260 H 0.25625 0.3662 0.08694 0.0
H261 H 0.2077 0.36727 0.11392 0.0
H262 H 0.1857 0.32054 0.1245 0.0
H263 H 0.18353 0.36506 0.10775 0.0
H264 H 0.16146 0.31823 0.11947 0.0
H265 H 0.11537 0.35934 0.13005 0.0
H266 H 0.10504 0.36094 0.16399 0.0
H267 H 0.08896 0.31504 0.17666 0.0
H268 H 0.09849 0.3133 0.14138 0.0
H269 H 0.08712 0.31829 0.08879 0.0
H270 H 0.07503 0.32729 0.06403 0.0
H271 H 0.11299 0.37142 0.07068 0.0
H272 H 0.12538 0.36227 0.09453 0.0
H273 H 0.13826 0.3584 0.12632 0.0
H274 H 0.16271 0.36101 0.12762 0.0
H275 H 0.14448 0.31921 0.09473 0.0
N276 N 0.11215 0.33434 0.11158 0.0
H277 H 0.11981 0.31643 0.09444 0.0
C278 C 0.21576 0.3421 0.14566 0.0
C279 C 0.22424 0.35324 0.16081 0.0
C280 C 0.22933 0.35015 0.18008 0.0
C281 C 0.22595 0.33576 0.18469 0.0
C282 C 0.21687 0.32446 0.16984 0.0
C283 C 0.21189 0.32761 0.15044 0.0
C284 C 0.22137 0.34533 0.10699 0.0
C285 C 0.21676 0.33211 0.09592 0.0
C286 C 0.22646 0.33112 0.08155 0.0
C287 C 0.24092 0.34332 0.07811 0.0
C288 C 0.24515 0.35665 0.08869 0.0
C289 C 0.23545 0.35761 0.10288 0.0
C290 C 0.1985 0.34415 0.11989 0.0
C291 C 0.19761 0.35653 0.11492 0.0
C292 C 0.18377 0.35524 0.11159 0.0
C293 C 0.17045 0.34148 0.11334 0.0
C294 C 0.17143 0.32899 0.11776 0.0
C295 C 0.18533 0.33029 0.12087 0.0
C296 C 0.10746 0.33604 0.13282 0.0
C297 C 0.10956 0.34954 0.13989 0.0
C298 C 0.10377 0.35051 0.15967 0.0
C299 C 0.09605 0.33812 0.17323 0.0
C300 C 0.09451 0.32476 0.1665 0.0
C301 C 0.10009 0.32375 0.14646 0.0
C302 C 0.10703 0.33957 0.09372 0.0
C303 C 0.09305 0.32981 0.08428 0.0
C304 C 0.08616 0.33496 0.07023 0.0
C305 C 0.09307 0.35004 0.06569 0.0
C306 C 0.10745 0.35974 0.07407 0.0
C307 C 0.11451 0.35451 0.08768 0.0
C308 C 0.12711 0.33709 0.11044 0.0
C309 C 0.13949 0.34983 0.11927 0.0
C310 C 0.15357 0.35135 0.11986 0.0
C311 C 0.15564 0.34027 0.11141 0.0
C312 C 0.1433 0.32783 0.10181 0.0
C313 C 0.12922 0.32627 0.10141 0.0
H314 H 0.69774 0.79444 0.14729 0.0
N315 N 0.67972 0.79811 0.12071 0.0
H316 H 0.69204 0.78276 0.18318 0.0
H317 H 0.6534 0.7871 0.14215 0.0
H318 H 0.64719 0.77459 0.17733 0.0
H319 H 0.65213 0.77466 0.10942 0.0
H320 H 0.64697 0.75585 0.08237 0.0
H321 H 0.6986 0.79833 0.09218 0.0
H322 H 0.69349 0.77954 0.06487 0.0
H323 H 0.69921 0.82516 0.13387 0.0
H324 H 0.6568 0.79956 0.10074 0.0
H325 H 0.69763 0.84709 0.13015 0.0
H326 H 0.65551 0.82164 0.09556 0.0
H327 H 0.69695 0.91406 0.1311 0.0
H328 H 0.69542 0.92385 0.16637 0.0
H329 H 0.65124 0.88585 0.17514 0.0
H330 H 0.65281 0.87632 0.13993 0.0
H331 H 0.6515 0.89335 0.11055 0.0
H332 H 0.64715 0.90799 0.08481 0.0
H333 H 0.68225 0.91147 0.04422 0.0
H334 H 0.68764 0.89818 0.07168 0.0
H335 H 0.69918 0.88722 0.10618 0.0
H336 H 0.69982 0.86465 0.10586 0.0
H337 H 0.65177 0.83918 0.11211 0.0
N338 N 0.67568 0.88989 0.11115 0.0
H339 H 0.65132 0.86195 0.11053 0.0
C340 C 0.67602 0.79157 0.14208 0.0
C341 C 0.68674 0.79021 0.15395 0.0
C342 C 0.68338 0.78339 0.17434 0.0
C343 C 0.6691 0.77759 0.18322 0.0
C344 C 0.65837 0.77907 0.17125 0.0
C345 C 0.66183 0.7861 0.15098 0.0
C346 C 0.67585 0.7879 0.10294 0.0
C347 C 0.66121 0.77593 0.09966 0.0
C348 C 0.65827 0.76513 0.08422 0.0
C349 C 0.66984 0.76615 0.0716 0.0
C350 C 0.68432 0.77849 0.07421 0.0
C351 C 0.68727 0.78922 0.08979 0.0
C352 C 0.67831 0.81077 0.11737 0.0
C353 C 0.68966 0.82436 0.12546 0.0
C354 C 0.68877 0.83693 0.12308 0.0
C355 C 0.67655 0.83632 0.11217 0.0
C356 C 0.66506 0.8226 0.10416 0.0
C357 C 0.66585 0.80992 0.10692 0.0
C358 C 0.67507 0.89448 0.13293 0.0
C359 C 0.68706 0.90777 0.14086 0.0
C360 C 0.68616 0.91331 0.16098 0.0
C361 C 0.67316 0.90565 0.17346 0.0
C362 C 0.66133 0.89208 0.16578 0.0
C363 C 0.66229 0.88652 0.14573 0.0
C364 C 0.67028 0.895 0.09347 0.0
C365 C 0.65827 0.89719 0.09613 0.0
C366 C 0.65565 0.90553 0.08103 0.0
C367 C 0.6646 0.91145 0.06242 0.0
C368 C 0.67551 0.90778 0.05871 0.0
C369 C 0.67847 0.89989 0.07422 0.0
C370 C 0.67529 0.87625 0.10882 0.0
C371 C 0.6888 0.87672 0.10713 0.0
C372 C 0.68911 0.86377 0.10726 0.0
C373 C 0.67588 0.84997 0.10958 0.0
C374 C 0.66221 0.84952 0.11031 0.0
C375 C 0.66191 0.86255 0.10969 0.0
H376 H 0.12391 0.77559 0.17075 0.0
N377 N 0.11768 0.78522 0.13455 0.0
H378 H 0.10953 0.76758 0.20442 0.0
H379 H 0.09253 0.78591 0.14276 0.0
H380 H 0.07799 0.77779 0.17613 0.0
H381 H 0.09947 0.78754 0.10411 0.0
H382 H 0.08402 0.76921 0.07674 0.0
H383 H 0.11788 0.76129 0.12422 0.0
H384 H 0.10206 0.74258 0.09752 0.0
H385 H 0.14705 0.79785 0.13609 0.0
H386 H 0.11223 0.8074 0.12623 0.0
H387 H 0.16582 0.82403 0.13399 0.0
H388 H 0.1308 0.83342 0.12244 0.0
H389 H 0.20195 0.87918 0.16219 0.0
H390 H 0.21314 0.88898 0.19784 0.0
H391 H 0.21209 0.92834 0.18403 0.0
H392 H 0.20014 0.91804 0.14884 0.0
H393 H 0.19535 0.9083 0.09594 0.0
H394 H 0.21618 0.92198 0.07088 0.0
H395 H 0.24126 0.90629 0.10591 0.0
H396 H 0.2204 0.8925 0.13036 0.0
H397 H 0.19764 0.87058 0.11424 0.0
H398 H 0.17859 0.84475 0.11242 0.0
H399 H 0.14737 0.85389 0.14284 0.0
N400 N 0.19456 0.893 0.13096 0.0
H401 H 0.16635 0.88004 0.14324 0.0
C402 C 0.10936 0.7814 0.15439 0.0
C403 C 0.11395 0.77618 0.17198 0.0
C404 C 0.10566 0.77151 0.19107 0.0
C405 C 0.09258 0.77198 0.1929 0.0
C406 C 0.0881 0.77743 0.17531 0.0
C407 C 0.0964 0.78208 0.1562 0.0
C408 C 0.10999 0.77584 0.11616 0.0
C409 C 0.10042 0.77798 0.10245 0.0
C410 C 0.09142 0.76736 0.08689 0.0
C411 C 0.09171 0.75434 0.08489 0.0
C412 C 0.10169 0.75254 0.09819 0.0
C413 C 0.11073 0.7632 0.11356 0.0
C414 C 0.12829 0.8006 0.13098 0.0
C415 C 0.1435 0.8056 0.1329 0.0
C416 C 0.15421 0.8206 0.13154 0.0
C417 C 0.14992 0.83098 0.12794 0.0
C418 C 0.13459 0.82586 0.12554 0.0
C419 C 0.12388 0.81085 0.1273 0.0
C420 C 0.20004 0.89785 0.15289 0.0
C421 C 0.20382 0.88977 0.16702 0.0
C422 C 0.21042 0.8955 0.18735 0.0
C423 C 0.21363 0.90952 0.19387 0.0
C424 C 0.20958 0.91742 0.17982 0.0
C425 C 0.20281 0.9116 0.15963 0.0
C426 C 0.20627 0.8994 0.11499 0.0
C427 C 0.20525 0.90763 0.09788 0.0
C428 C 0.2172 0.91552 0.08373 0.0
C429 C 0.23042 0.9153 0.08646 0.0
C430 C 0.2312 0.90658 0.10316 0.0
C431 C 0.21928 0.89874 0.11728 0.0
C432 C 0.18346 0.87748 0.12878 0.0
C433 C 0.1867 0.86721 0.12026 0.0
C434 C 0.17574 0.85225 0.11943 0.0
C435 C 0.16135 0.84707 0.12755 0.0
C436 C 0.15816 0.85738 0.136 0.0
C437 C 0.16904 0.87237 0.13642 0.0
H438 H 0.35501 0.23176 0.89593 0.0
N439 N 0.33456 0.21097 0.92372 0.0
H440 H 0.34997 0.23925 0.86128 0.0
H441 H 0.30813 0.20003 0.90363 0.0
H442 H 0.30272 0.20836 0.86923 0.0
H443 H 0.31974 0.21899 0.94898 0.0
H444 H 0.32986 0.24178 0.96984 0.0
H445 H 0.36426 0.23063 0.93197 0.0
H446 H 0.37449 0.25371 0.95204 0.0
H447 H 0.35635 0.21103 0.89863 0.0
H448 H 0.32561 0.18839 0.95087 0.0
H449 H 0.36309 0.19263 0.89846 0.0
H450 H 0.33323 0.17024 0.95198 0.0
H451 H 0.37723 0.13468 0.87842 0.0
H452 H 0.36733 0.12137 0.84386 0.0
H453 H 0.32254 0.10191 0.86829 0.0
H454 H 0.3324 0.11525 0.90223 0.0
H455 H 0.33979 0.11102 0.936 0.0
H456 H 0.34318 0.09566 0.96231 0.0
H457 H 0.39099 0.12311 0.95557 0.0
H458 H 0.38747 0.13849 0.92924 0.0
H459 H 0.38054 0.16282 0.90868 0.0
H460 H 0.3755 0.18248 0.91448 0.0
H461 H 0.33053 0.15008 0.93377 0.0
N462 N 0.36192 0.1341 0.91295 0.0
H463 H 0.3362 0.13084 0.92974 0.0
C464 C 0.33194 0.21507 0.90235 0.0
C465 C 0.34358 0.22629 0.89014 0.0
C466 C 0.34062 0.23081 0.87035 0.0
C467 C 0.32588 0.22463 0.86249 0.0
C468 C 0.31422 0.21329 0.87461 0.0
C469 C 0.31726 0.20854 0.8943 0.0
C470 C 0.34117 0.22309 0.9389 0.0
C471 C 0.33173 0.22637 0.95009 0.0
C472 C 0.33753 0.2395 0.96174 0.0
C473 C 0.35299 0.24974 0.96233 0.0
C474 C 0.36254 0.24607 0.95206 0.0
C475 C 0.3567 0.23286 0.9405 0.0
C476 C 0.3401 0.20102 0.92452 0.0
C477 C 0.35109 0.20223 0.91031 0.0
C478 C 0.35517 0.19165 0.91044 0.0
C479 C 0.34871 0.17975 0.92514 0.0
C480 C 0.33823 0.17897 0.94003 0.0
C481 C 0.33395 0.18944 0.93959 0.0
C482 C 0.35564 0.12616 0.89287 0.0
C483 C 0.36528 0.12756 0.8762 0.0
C484 C 0.35962 0.11987 0.85658 0.0
C485 C 0.34413 0.11064 0.85328 0.0
C486 C 0.33451 0.10912 0.87015 0.0
C487 C 0.34018 0.11677 0.88971 0.0
C488 C 0.36344 0.12592 0.93055 0.0
C489 C 0.351 0.1139 0.94035 0.0
C490 C 0.35295 0.10505 0.95536 0.0
C491 C 0.36735 0.1081 0.96094 0.0
C492 C 0.37976 0.12053 0.95182 0.0
C493 C 0.37778 0.1293 0.93674 0.0
C494 C 0.35873 0.14534 0.91829 0.0
C495 C 0.36968 0.16005 0.91446 0.0
C496 C 0.36667 0.17126 0.91756 0.0
C497 C 0.35245 0.16797 0.92418 0.0
C498 C 0.34164 0.15318 0.92879 0.0
C499 C 0.3448 0.14202 0.92613 0.0
H500 H 0.77152 0.10715 0.89585 0.0
N501 N 0.79548 0.10726 0.91449 0.0
H502 H 0.75929 0.09587 0.86143 0.0
H503 H 0.80437 0.09519 0.88504 0.0
H504 H 0.79219 0.08392 0.85012 0.0
H505 H 0.77564 0.07908 0.92327 0.0
H506 H 0.75348 0.06931 0.94523 0.0
H507 H 0.78997 0.12301 0.94534 0.0
H508 H 0.76866 0.11317 0.96879 0.0
H509 H 0.7928 0.13048 0.9009 0.0
H510 H 0.8236 0.11927 0.92866 0.0
H511 H 0.81239 0.15618 0.89984 0.0
H512 H 0.84334 0.14537 0.92872 0.0
H513 H 0.86571 0.22593 0.87411 0.0
H514 H 0.88018 0.23904 0.84189 0.0
H515 H 0.91304 0.2278 0.85951 0.0
H516 H 0.89855 0.21482 0.89174 0.0
H517 H 0.89383 0.21219 0.932 0.0
H518 H 0.91075 0.23055 0.95881 0.0
H519 H 0.88984 0.25582 0.94603 0.0
H520 H 0.87284 0.23723 0.92013 0.0
H521 H 0.84578 0.20278 0.91798 0.0
H522 H 0.82684 0.17676 0.92229 0.0
H523 H 0.85932 0.16526 0.90501 0.0
N524 N 0.8738 0.2144 0.9059 0.0
H525 H 0.87832 0.1914 0.90185 0.0
C526 C 0.78896 0.10205 0.89304 0.0
C527 C 0.77634 0.10241 0.88579 0.0
C528 C 0.76933 0.09593 0.86605 0.0
C529 C 0.77474 0.08896 0.85303 0.0
C530 C 0.78764 0.08904 0.85992 0.0
C531 C 0.79468 0.09556 0.87973 0.0
C532 C 0.78427 0.10187 0.93146 0.0
C533 C 0.77422 0.08662 0.93322 0.0
C534 C 0.76153 0.081 0.94608 0.0
C535 C 0.75885 0.09045 0.95845 0.0
C536 C 0.76984 0.10556 0.95869 0.0
C537 C 0.78227 0.11125 0.94521 0.0
C538 C 0.80674 0.1228 0.91465 0.0
C539 C 0.80378 0.13351 0.9068 0.0
C540 C 0.81503 0.14834 0.9065 0.0
C541 C 0.8295 0.15294 0.91427 0.0
C542 C 0.8324 0.14224 0.92234 0.0
C543 C 0.82112 0.12734 0.92249 0.0
C544 C 0.88097 0.21933 0.88517 0.0
C545 C 0.87582 0.22597 0.87065 0.0
C546 C 0.88416 0.23354 0.85242 0.0
C547 C 0.8978 0.23455 0.84835 0.0
C548 C 0.90252 0.22711 0.86219 0.0
C549 C 0.89421 0.21964 0.88057 0.0
C550 C 0.88209 0.22342 0.92423 0.0
C551 C 0.89271 0.22152 0.93551 0.0
C552 C 0.90244 0.23209 0.95066 0.0
C553 C 0.90174 0.24475 0.95461 0.0
C554 C 0.89059 0.24615 0.94388 0.0
C555 C 0.88087 0.23557 0.92895 0.0
C556 C 0.86333 0.199 0.9093 0.0
C557 C 0.84879 0.1946 0.91532 0.0
C558 C 0.83797 0.17972 0.91759 0.0
C559 C 0.84144 0.16883 0.91363 0.0
C560 C 0.85623 0.17331 0.90828 0.0
C561 C 0.86711 0.18828 0.90626 0.0
H562 H 0.79567 0.70642 0.88066 0.0
N563 N 0.80625 0.69233 0.90342 0.0
H564 H 0.77924 0.69746 0.84848 0.0
H565 H 0.79986 0.66824 0.87875 0.0
H566 H 0.7841 0.65959 0.8463 0.0
H567 H 0.78174 0.66515 0.91172 0.0
H568 H 0.76162 0.66014 0.93598 0.0
H569 H 0.80737 0.70976 0.93516 0.0
H570 H 0.78773 0.70458 0.961 0.0
H571 H 0.83419 0.71296 0.89537 0.0
H572 H 0.80728 0.66851 0.91888 0.0
H573 H 0.85647 0.71126 0.89843 0.0
H574 H 0.82953 0.66654 0.92155 0.0
H575 H 0.92626 0.71315 0.90357 0.0
H576 H 0.93999 0.71876 0.86951 0.0
H577 H 0.90555 0.67695 0.84309 0.0
H578 H 0.8921 0.67135 0.87747 0.0
H579 H 0.88488 0.65914 0.91257 0.0
H580 H 0.89267 0.6437 0.93103 0.0
H581 H 0.92935 0.68249 0.96149 0.0
H582 H 0.92102 0.69754 0.94377 0.0
H583 H 0.88957 0.69932 0.88062 0.0
H584 H 0.86637 0.69871 0.8793 0.0
H585 H 0.85397 0.67613 0.94109 0.0
N586 N 0.90021 0.68933 0.9131 0.0
H587 H 0.87726 0.67622 0.94231 0.0
C588 C 0.79905 0.68809 0.88222 0.0
C589 C 0.79342 0.69634 0.87291 0.0
C590 C 0.78406 0.69122 0.85449 0.0
C591 C 0.78017 0.67769 0.84498 0.0
C592 C 0.7866 0.6699 0.85351 0.0
C593 C 0.79582 0.67495 0.87201 0.0
C594 C 0.79596 0.688 0.92124 0.0
C595 C 0.78324 0.67377 0.9226 0.0
C596 C 0.77171 0.67088 0.93674 0.0
C597 C 0.77279 0.68204 0.95027 0.0
C598 C 0.78621 0.69583 0.95035 0.0
C599 C 0.79758 0.69879 0.93583 0.0
C600 C 0.81911 0.69093 0.90679 0.0
C601 C 0.83313 0.70284 0.90125 0.0
C602 C 0.84581 0.70178 0.90286 0.0
C603 C 0.84477 0.68867 0.90994 0.0
C604 C 0.83074 0.6768 0.91612 0.0
C605 C 0.81799 0.6779 0.91453 0.0
C606 C 0.90819 0.69195 0.89298 0.0
C607 C 0.92177 0.7052 0.89044 0.0
C608 C 0.92952 0.70838 0.87094 0.0
C609 C 0.92379 0.69836 0.85347 0.0
C610 C 0.91034 0.68485 0.85627 0.0
C611 C 0.90262 0.68164 0.87587 0.0
C612 C 0.90238 0.67952 0.9269 0.0
C613 C 0.89433 0.6642 0.92371 0.0
C614 C 0.89893 0.65542 0.93413 0.0
C615 C 0.91179 0.6618 0.94764 0.0
C616 C 0.91928 0.67704 0.95158 0.0
C617 C 0.91457 0.68573 0.94141 0.0
C618 C 0.88526 0.68707 0.91103 0.0
C619 C 0.88181 0.69366 0.89368 0.0
C620 C 0.86851 0.69361 0.89307 0.0
C621 C 0.85829 0.68743 0.91012 0.0
C622 C 0.8615 0.68078 0.9275 0.0
C623 C 0.87488 0.68077 0.9281 0.0
H624 H 0.74601 0.63272 0.45791 0.0
N625 N 0.77272 0.65052 0.44091 0.0
H626 H 0.73684 0.63502 0.4933 0.0
H627 H 0.78899 0.6711 0.47248 0.0
H628 H 0.77998 0.67343 0.50765 0.0
H629 H 0.78223 0.67995 0.44058 0.0
H630 H 0.77347 0.69188 0.41598 0.0
H631 H 0.75781 0.63979 0.40365 0.0
H632 H 0.74975 0.65196 0.37779 0.0
H633 H 0.77368 0.62616 0.44102 0.0
H634 H 0.80184 0.67337 0.43893 0.0
H635 H 0.79572 0.62397 0.44309 0.0
H636 H 0.82396 0.67139 0.44202 0.0
H637 H 0.87364 0.63059 0.48661 0.0
H638 H 0.88988 0.64197 0.5184 0.0
H639 H 0.88503 0.67971 0.51089 0.0
H640 H 0.86949 0.66856 0.47854 0.0
H641 H 0.88487 0.67036 0.445 0.0
H642 H 0.90609 0.67625 0.42258 0.0
H643 H 0.88993 0.62987 0.4161 0.0
H644 H 0.86797 0.62407 0.43728 0.0
H645 H 0.83638 0.62598 0.4749 0.0
H646 H 0.81439 0.62786 0.46894 0.0
H647 H 0.83943 0.66424 0.42489 0.0
N648 N 0.86352 0.64292 0.45909 0.0
H649 H 0.86135 0.66266 0.43142 0.0
C650 C 0.76812 0.65168 0.46247 0.0
C651 C 0.75349 0.64153 0.46883 0.0
C652 C 0.74831 0.64284 0.48903 0.0
C653 C 0.75769 0.65446 0.50318 0.0
C654 C 0.77245 0.66448 0.49696 0.0
C655 C 0.77764 0.66309 0.47685 0.0
C656 C 0.77039 0.6588 0.42424 0.0
C657 C 0.77527 0.67376 0.42685 0.0
C658 C 0.77031 0.68066 0.41251 0.0
C659 C 0.76062 0.67286 0.39496 0.0
C660 C 0.75681 0.65823 0.39144 0.0
C661 C 0.76156 0.65128 0.40603 0.0
C662 C 0.78607 0.64986 0.43992 0.0
C663 C 0.78466 0.63605 0.44089 0.0
C664 C 0.79728 0.63485 0.44232 0.0
C665 C 0.81168 0.6475 0.44304 0.0
C666 C 0.81309 0.66139 0.44134 0.0
C667 C 0.80042 0.66256 0.43971 0.0
C668 C 0.87034 0.64866 0.48016 0.0
C669 C 0.87584 0.64117 0.49217 0.0
C670 C 0.8851 0.64771 0.51039 0.0
C671 C 0.88897 0.66188 0.5171 0.0
C672 C 0.88259 0.66894 0.5059 0.0
C673 C 0.87351 0.66248 0.48751 0.0
C674 C 0.87456 0.64668 0.44249 0.0
C675 C 0.88549 0.66141 0.43798 0.0
C676 C 0.89786 0.66477 0.42549 0.0
C677 C 0.89997 0.65356 0.41785 0.0
C678 C 0.88868 0.63882 0.42148 0.0
C679 C 0.87609 0.63546 0.4336 0.0
C680 C 0.85064 0.64406 0.45375 0.0
C681 C 0.83709 0.63431 0.46386 0.0
C682 C 0.82449 0.63537 0.46031 0.0
C683 C 0.82507 0.6462 0.44635 0.0
C684 C 0.8386 0.65589 0.43599 0.0
C685 C 0.85125 0.6549 0.43968 0.0
H686 H 0.36498 0.12213 0.45857 0.0
N687 N 0.34489 0.12849 0.44458 0.0
H688 H 0.36573 0.11141 0.49359 0.0
H689 H 0.32693 0.12387 0.47963 0.0
H690 H 0.32808 0.11403 0.51485 0.0
H691 H 0.31678 0.10424 0.44715 0.0
H692 H 0.30624 0.08259 0.42332 0.0
H693 H 0.35582 0.12632 0.40708 0.0
H694 H 0.34525 0.10491 0.38292 0.0
H695 H 0.36699 0.15501 0.43379 0.0
H696 H 0.32012 0.13073 0.44804 0.0
H697 H 0.36653 0.17756 0.43045 0.0
H698 H 0.31974 0.15349 0.44725 0.0
H699 H 0.36916 0.24634 0.46307 0.0
H700 H 0.37272 0.25535 0.50065 0.0
H701 H 0.32845 0.21962 0.51626 0.0
H702 H 0.32513 0.21053 0.47858 0.0
H703 H 0.32047 0.22464 0.44955 0.0
H704 H 0.31421 0.23933 0.42655 0.0
H705 H 0.34912 0.24668 0.38216 0.0
H706 H 0.35619 0.23308 0.40669 0.0
H707 H 0.36747 0.218 0.4529 0.0
H708 H 0.36663 0.19484 0.45138 0.0
H709 H 0.32043 0.17303 0.42992 0.0
N710 N 0.34536 0.22274 0.44615 0.0
H711 H 0.32122 0.19637 0.43348 0.0
C712 C 0.34604 0.12396 0.46639 0.0
C713 C 0.35702 0.12054 0.47095 0.0
C714 C 0.35746 0.11446 0.49103 0.0
C715 C 0.34691 0.11175 0.50711 0.0
C716 C 0.33621 0.11566 0.50275 0.0
C717 C 0.33567 0.12155 0.48257 0.0
C718 C 0.33718 0.11682 0.42892 0.0
C719 C 0.32293 0.10455 0.43297 0.0
C720 C 0.31696 0.09218 0.41942 0.0
C721 C 0.32498 0.09204 0.40136 0.0
C722 C 0.33876 0.10473 0.39661 0.0
C723 C 0.34482 0.11696 0.41035 0.0
C724 C 0.34378 0.14134 0.4419 0.0
C725 C 0.35663 0.15465 0.43655 0.0
C726 C 0.35634 0.16758 0.43493 0.0
C727 C 0.34321 0.16763 0.43931 0.0
C728 C 0.3301 0.15405 0.44379 0.0
C729 C 0.33033 0.141 0.44468 0.0
C730 C 0.34692 0.22787 0.46818 0.0
C731 C 0.36026 0.2405 0.47464 0.0
C732 C 0.36226 0.24557 0.49604 0.0
C733 C 0.35085 0.23815 0.5113 0.0
C734 C 0.33736 0.22558 0.50473 0.0
C735 C 0.33546 0.22038 0.48334 0.0
C736 C 0.33911 0.2281 0.43014 0.0
C737 C 0.32672 0.22931 0.43481 0.0
C738 C 0.32304 0.23768 0.42137 0.0
C739 C 0.33138 0.24465 0.40258 0.0
C740 C 0.34278 0.24205 0.39688 0.0
C741 C 0.34672 0.23405 0.41068 0.0
C742 C 0.3445 0.20893 0.44312 0.0
C743 C 0.35719 0.2082 0.44777 0.0
C744 C 0.35669 0.19489 0.44663 0.0
C745 C 0.34351 0.18187 0.44016 0.0
C746 C 0.33076 0.18268 0.43519 0.0
C747 C 0.3312 0.19606 0.43694 0.0
H748 H 0.79126 0.09633 0.48067 0.0
N749 N 0.79499 0.12132 0.46541 0.0
H750 H 0.77774 0.08277 0.51279 0.0
H751 H 0.78192 0.13027 0.49498 0.0
H752 H 0.76948 0.11751 0.52841 0.0
H753 H 0.7669 0.11475 0.45416 0.0
H754 H 0.75143 0.09836 0.42444 0.0
H755 H 0.8039 0.11113 0.43362 0.0
H756 H 0.7886 0.09461 0.40421 0.0
H757 H 0.82345 0.13662 0.47742 0.0
H758 H 0.7876 0.14155 0.45302 0.0
H759 H 0.8403 0.16329 0.47711 0.0
H760 H 0.8045 0.16828 0.45169 0.0
H761 H 0.87288 0.21806 0.49701 0.0
H762 H 0.88529 0.22934 0.53126 0.0
H763 H 0.88444 0.2684 0.51405 0.0
H764 H 0.871 0.25651 0.48043 0.0
H765 H 0.86391 0.24474 0.42888 0.0
H766 H 0.88406 0.2589 0.40286 0.0
H767 H 0.91184 0.24641 0.43778 0.0
H768 H 0.89186 0.23246 0.46352 0.0
H769 H 0.87078 0.20921 0.45301 0.0
H770 H 0.85325 0.18297 0.45246 0.0
H771 H 0.8183 0.18991 0.4737 0.0
N772 N 0.86494 0.23081 0.46452 0.0
H773 H 0.83597 0.21653 0.47328 0.0
C774 C 0.78782 0.11438 0.48557 0.0
C775 C 0.78656 0.10101 0.49112 0.0
C776 C 0.77891 0.09334 0.50969 0.0
C777 C 0.77261 0.09906 0.52362 0.0
C778 C 0.77398 0.1126 0.51807 0.0
C779 C 0.78132 0.12007 0.49905 0.0
C780 C 0.78655 0.1141 0.44599 0.0
C781 C 0.77178 0.1107 0.44289 0.0
C782 C 0.76293 0.10124 0.42604 0.0
C783 C 0.76873 0.09508 0.41199 0.0
C784 C 0.7838 0.09927 0.41446 0.0
C785 C 0.79258 0.10869 0.43128 0.0
C786 C 0.80439 0.13712 0.46504 0.0
C787 C 0.81929 0.14352 0.47183 0.0
C788 C 0.8289 0.15876 0.47146 0.0
C789 C 0.82384 0.16799 0.46409 0.0
C790 C 0.80877 0.16154 0.45758 0.0
C791 C 0.79911 0.14624 0.45814 0.0
C792 C 0.87079 0.23639 0.48611 0.0
C793 C 0.87496 0.22888 0.50079 0.0
C794 C 0.88233 0.23549 0.52035 0.0
C795 C 0.8861 0.24992 0.52547 0.0
C796 C 0.88158 0.25723 0.51098 0.0
C797 C 0.87393 0.25047 0.49165 0.0
C798 C 0.87626 0.23743 0.448 0.0
C799 C 0.87426 0.24486 0.4306 0.0
C800 C 0.88579 0.25301 0.41589 0.0
C801 C 0.89952 0.25374 0.41827 0.0
C802 C 0.90133 0.24588 0.4353 0.0
C803 C 0.88989 0.2379 0.45008 0.0
C804 C 0.85471 0.21505 0.46301 0.0
C805 C 0.85937 0.20528 0.45727 0.0
C806 C 0.84928 0.19011 0.45721 0.0
C807 C 0.83433 0.18424 0.46319 0.0
C808 C 0.82966 0.19401 0.46873 0.0
C809 C 0.83975 0.20923 0.4686 0.0
H810 H 0.02479 0.56914 0.22283 0.0
N811 N 0.00398 0.54671 0.24832 0.0
H812 H 0.02042 0.577 0.18782 0.0
H813 H 0.97866 0.53407 0.22499 0.0
H814 H 0.9742 0.54173 0.18923 0.0
H815 H 0.9883 0.55439 0.27232 0.0
H816 H 0.99772 0.57631 0.29511 0.0
H817 H 0.0334 0.56619 0.25895 0.0
H818 H 0.04293 0.58834 0.28091 0.0
H819 H 0.02808 0.5487 0.22754 0.0
H820 H 0.99256 0.52234 0.27216 0.0
H821 H 0.03572 0.53075 0.22862 0.0
H822 H 1.00058 0.50448 0.27416 0.0
H823 H 0.04545 0.47715 0.20188 0.0
H824 H 0.03347 0.46104 0.17022 0.0
H825 H 0.99721 0.43028 0.21102 0.0
H826 H 0.00899 0.44641 0.24214 0.0
H827 H 0.01781 0.45771 0.27732 0.0
H828 H 0.02252 0.44337 0.30414 0.0
H829 H 0.06542 0.45842 0.2753 0.0
H830 H 0.06054 0.47256 0.24847 0.0
H831 H 0.05375 0.50174 0.24553 0.0
H832 H 0.04697 0.52037 0.24957 0.0
H833 H 1.00047 0.48593 0.25304 0.0
N834 N 0.03562 0.47279 0.2426 0.0
H835 H 0.00745 0.46751 0.25003 0.0
C836 C 0.00201 0.55092 0.22665 0.0
C837 C 0.01373 0.56296 0.21568 0.0
C838 C 0.01122 0.56742 0.19547 0.0
C839 C 0.99696 0.55997 0.18561 0.0
C840 C 0.98529 0.5478 0.19644 0.0
C841 C 0.98782 0.54334 0.21676 0.0
C842 C 0.01006 0.55859 0.26394 0.0
C843 C 1.00023 0.56163 0.27455 0.0
C844 C 0.00566 0.57426 0.28734 0.0
C845 C 0.02111 0.58423 0.28967 0.0
C846 C 0.03097 0.58087 0.27969 0.0
C847 C 0.02552 0.56817 0.26702 0.0
C848 C 0.00953 0.5368 0.2496 0.0
C849 C 0.02195 0.53912 0.23775 0.0
C850 C 0.02645 0.52884 0.23858 0.0
C851 C 0.01877 0.51606 0.25145 0.0
C852 C 0.00662 0.51401 0.26376 0.0
C853 C 0.00207 0.52426 0.26278 0.0
C854 C 0.02815 0.4631 0.22434 0.0
C855 C 0.03489 0.46694 0.20387 0.0
C856 C 0.0281 0.45768 0.18589 0.0
C857 C 0.01436 0.44439 0.18809 0.0
C858 C 0.00767 0.44053 0.20868 0.0
C859 C 0.01446 0.44977 0.22659 0.0
C860 C 0.03885 0.46618 0.26078 0.0
C861 C 0.02831 0.4581 0.27695 0.0
C862 C 0.03099 0.44985 0.29223 0.0
C863 C 0.04432 0.44971 0.2918 0.0
C864 C 0.05511 0.4584 0.27627 0.0
C865 C 0.05236 0.46649 0.26091 0.0
C866 C 0.03119 0.48325 0.24727 0.0
C867 C 0.04213 0.49825 0.24752 0.0
C868 C 0.03819 0.50888 0.2496 0.0
C869 C 0.02312 0.50473 0.25133 0.0
C870 C 0.01219 0.48961 0.25193 0.0
C871 C 0.01617 0.47898 0.25004 0.0
H872 H 0.5927 0.55239 0.22227 0.0
N873 N 0.56726 0.54389 0.24237 0.0
H874 H 0.60175 0.56679 0.18866 0.0
H875 H 0.55138 0.55164 0.21556 0.0
H876 H 0.56033 0.56609 0.18197 0.0
H877 H 0.56154 0.56593 0.24926 0.0
H878 H 0.57411 0.58558 0.27577 0.0
H879 H 0.58306 0.54422 0.27685 0.0
H880 H 0.59492 0.56334 0.30474 0.0
H881 H 0.56254 0.51772 0.23207 0.0
H882 H 0.54 0.53937 0.25413 0.0
H883 H 0.53893 0.49405 0.23227 0.0
H884 H 0.51629 0.51565 0.25464 0.0
H885 H 0.47063 0.42085 0.22922 0.0
H886 H 0.45722 0.40764 0.19612 0.0
H887 H 0.44469 0.44 0.18448 0.0
H888 H 0.45922 0.45365 0.21619 0.0
H889 H 0.45744 0.45906 0.25187 0.0
H890 H 0.43551 0.45058 0.27432 0.0
H891 H 0.4401 0.4148 0.29815 0.0
H892 H 0.46187 0.42314 0.27491 0.0
H893 H 0.49246 0.45769 0.21268 0.0
H894 H 0.51457 0.48211 0.2116 0.0
H895 H 0.50522 0.49106 0.27584 0.0
N896 N 0.47277 0.44491 0.24594 0.0
H897 H 0.48311 0.46657 0.27733 0.0
C898 C 0.57144 0.55098 0.2214 0.0
C899 C 0.58552 0.55517 0.21332 0.0
C900 C 0.59064 0.56336 0.19415 0.0
C901 C 0.58177 0.56762 0.18275 0.0
C902 C 0.56747 0.5631 0.19056 0.0
C903 C 0.56231 0.55478 0.20966 0.0
C904 C 0.57169 0.55376 0.26071 0.0
C905 C 0.56869 0.56518 0.2614 0.0
C906 C 0.57582 0.57641 0.27685 0.0
C907 C 0.58586 0.57631 0.29226 0.0
C908 C 0.58768 0.5641 0.29273 0.0
C909 C 0.58077 0.55303 0.27699 0.0
C910 C 0.55309 0.53025 0.24325 0.0
C911 C 0.55248 0.51732 0.23702 0.0
C912 C 0.53898 0.50385 0.23702 0.0
C913 C 0.52576 0.50301 0.24342 0.0
C914 C 0.52634 0.51597 0.24978 0.0
C915 C 0.53988 0.52953 0.2495 0.0
C916 C 0.46578 0.43809 0.22536 0.0
C917 C 0.46518 0.42515 0.21921 0.0
C918 C 0.45733 0.41753 0.20042 0.0
C919 C 0.44964 0.42257 0.18755 0.0
C920 C 0.45058 0.43579 0.19359 0.0
C921 C 0.45872 0.44355 0.21206 0.0
C922 C 0.46132 0.44169 0.26167 0.0
C923 C 0.45383 0.44946 0.26202 0.0
C924 C 0.44133 0.44466 0.27506 0.0
C925 C 0.43599 0.43196 0.28799 0.0
C926 C 0.44381 0.42451 0.28818 0.0
C927 C 0.45632 0.42933 0.27512 0.0
C928 C 0.48514 0.46017 0.2445 0.0
C929 C 0.4947 0.46491 0.22639 0.0
C930 C 0.50757 0.47891 0.22583 0.0
C931 C 0.51151 0.48857 0.2435 0.0
C932 C 0.50223 0.48397 0.26173 0.0
C933 C 0.48942 0.46988 0.26244 0.0
H934 H 0.55329 0.98344 0.23401 0.0
N935 N 0.55496 0.00896 0.24681 0.0
H936 H 0.5607 0.97892 0.19917 0.0
H937 H 0.56188 0.02552 0.21116 0.0
H938 H 0.56794 0.02051 0.17531 0.0
H939 H 0.58322 0.024 0.25978 0.0
H940 H 0.59598 0.01575 0.28405 0.0
H941 H 0.54117 0.98457 0.27326 0.0
H942 H 0.55368 0.97647 0.29849 0.0
H943 H 0.52748 0.98471 0.23798 0.0
H944 H 0.54991 0.02924 0.26188 0.0
H945 H 0.50364 0.98378 0.23786 0.0
H946 H 0.52619 0.02846 0.26181 0.0
H947 H 0.44529 0.9873 0.21527 0.0
H948 H 0.43231 0.98132 0.18025 0.0
H949 H 0.45355 0.02762 0.16527 0.0
H950 H 0.46635 0.03357 0.20094 0.0
H951 H 0.46172 0.03594 0.25071 0.0
H952 H 0.44215 0.03302 0.27487 0.0
H953 H 0.42256 0.98577 0.2733 0.0
H954 H 0.44323 0.98915 0.25151 0.0
H955 H 0.4739 1.00009 0.20639 0.0
H956 H 0.49422 0.99642 0.21449 0.0
H957 H 0.50093 0.01736 0.27698 0.0
N958 N 0.46411 0.01487 0.23197 0.0
H959 H 0.48026 0.02106 0.26907 0.0
C960 C 0.55749 0.0051 0.22545 0.0
C961 C 0.5566 0.99167 0.22139 0.0
C962 C 0.56067 0.98899 0.20117 0.0
C963 C 0.56521 0.99942 0.18425 0.0
C964 C 0.56507 0.0124 0.18803 0.0
C965 C 0.56143 0.01525 0.20845 0.0
C966 C 0.5613 0.005 0.26468 0.0
C967 C 0.57669 0.01379 0.26862 0.0
C968 C 0.58394 0.00903 0.28261 0.0
C969 C 0.57591 0.99534 0.29322 0.0
C970 C 0.56028 0.98694 0.29031 0.0
C971 C 0.55305 0.99166 0.27608 0.0
C972 C 0.54049 0.00714 0.2498 0.0
C973 C 0.52722 0.99419 0.24358 0.0
C974 C 0.51362 0.9937 0.24343 0.0
C975 C 0.51302 0.00608 0.24968 0.0
C976 C 0.5262 0.01868 0.25711 0.0
C977 C 0.53978 0.01918 0.25711 0.0
C978 C 0.4569 0.01095 0.21075 0.0
C979 C 0.44709 0.9962 0.20464 0.0
C980 C 0.4398 0.99279 0.18444 0.0
C981 C 0.44199 0.00401 0.16993 0.0
C982 C 0.45161 0.01875 0.17614 0.0
C983 C 0.459 0.02216 0.19637 0.0
C984 C 0.4537 0.01279 0.24878 0.0
C985 C 0.45336 0.02501 0.25611 0.0
C986 C 0.44196 0.02325 0.26964 0.0
C987 C 0.43028 0.00909 0.2756 0.0
C988 C 0.43121 0.99688 0.26925 0.0
C989 C 0.44294 0.99874 0.25633 0.0
C990 C 0.47478 0.01044 0.23747 0.0
C991 C 0.4791 0.00345 0.2223 0.0
C992 C 0.49095 0.00135 0.22688 0.0
C993 C 0.49915 0.00648 0.24644 0.0
C994 C 0.49482 0.01325 0.26175 0.0
C995 C 0.48286 0.01524 0.25728 0.0
H996 H 0.41475 0.97135 0.79121 0.0
N997 N 0.43946 0.99314 0.77353 0.0
H998 H 0.40289 0.97222 0.82477 0.0
H999 H 0.4513 0.01553 0.803 0.0
H1000 H 0.43985 0.01641 0.83675 0.0
H1001 H 0.44795 0.0217 0.76635 0.0
H1002 H 0.43558 0.03021 0.74117 0.0
H1003 H 0.42052 0.97764 0.74152 0.0
H1004 H 0.4084 0.98607 0.71589 0.0
H1005 H 0.43979 0.96948 0.76132 0.0
H1006 H 0.46851 0.01448 0.78148 0.0
H1007 H 0.46111 0.96618 0.76075 0.0
H1008 H 0.48984 0.01108 0.78271 0.0
H1009 H 0.53158 0.95697 0.79258 0.0
H1010 H 0.54365 0.95697 0.8268 0.0
H1011 H 0.54272 0.99519 0.84782 0.0
H1012 H 0.53158 0.99561 0.81283 0.0
H1013 H 0.55183 0.00315 0.78017 0.0
H1014 H 0.57329 0.01022 0.75729 0.0
H1015 H 0.54627 0.9719 0.71697 0.0
H1016 H 0.52511 0.96446 0.74097 0.0
H1017 H 0.49672 0.95831 0.78647 0.0
H1018 H 0.47632 0.96294 0.78465 0.0
H1019 H 0.50727 0.00774 0.76453 0.0
N1020 N 0.52532 0.97683 0.77856 0.0
H1021 H 0.52775 0.00318 0.76787 0.0
C1022 C 0.4339 0.99329 0.7947 0.0
C1023 C 0.42036 0.9811 0.80134 0.0
C1024 C 0.41363 0.98163 0.82051 0.0
C1025 C 0.42038 0.99443 0.83339 0.0
C1026 C 0.43424 0.00647 0.82703 0.0
C1027 C 0.44092 0.00593 0.80784 0.0
C1028 C 0.43503 0.999 0.75582 0.0
C1029 C 0.43954 0.01394 0.7551 0.0
C1030 C 0.43242 0.01877 0.7408 0.0
C1031 C 0.42095 0.00877 0.72671 0.0
C1032 C 0.41727 0.99405 0.72644 0.0
C1033 C 0.42419 0.98921 0.74098 0.0
C1034 C 0.45252 0.99208 0.7718 0.0
C1035 C 0.45076 0.97863 0.76572 0.0
C1036 C 0.46297 0.97675 0.7657 0.0
C1037 C 0.47727 0.98824 0.77221 0.0
C1038 C 0.47908 0.00195 0.77756 0.0
C1039 C 0.46684 0.00389 0.77714 0.0
C1040 C 0.53054 0.97615 0.8002 0.0
C1041 C 0.53383 0.96521 0.80475 0.0
C1042 C 0.54067 0.96521 0.82443 0.0
C1043 C 0.54423 0.97609 0.84027 0.0
C1044 C 0.54044 0.98679 0.83594 0.0
C1045 C 0.53383 0.98693 0.81602 0.0
C1046 C 0.53693 0.98308 0.76248 0.0
C1047 C 0.55046 0.9964 0.7662 0.0
C1048 C 0.56274 1.00049 0.75294 0.0
C1049 C 0.56167 0.99148 0.73544 0.0
C1050 C 0.54768 0.97888 0.73065 0.0
C1051 C 0.53549 0.9747 0.74415 0.0
C1052 C 0.5137 0.98025 0.77703 0.0
C1053 C 0.49907 0.96913 0.7817 0.0
C1054 C 0.48739 0.9718 0.78041 0.0
C1055 C 0.48999 0.98568 0.77403 0.0
C1056 C 0.50477 0.99693 0.76961 0.0
C1057 C 0.51654 0.9943 0.77129 0.0
H1058 H 0.97308 0.55203 0.79913 0.0
N1059 N 0.99182 0.55208 0.76851 0.0
H1060 H 0.97997 0.56214 0.83584 0.0
H1061 H 0.01889 0.56603 0.78655 0.0
H1062 H 0.02611 0.57697 0.82287 0.0
H1063 H 0.0078 0.57602 0.7449 0.0
H1064 H 0.99929 0.59074 0.72646 0.0
H1065 H 0.96243 0.54351 0.76095 0.0
H1066 H 0.95368 0.55784 0.74181 0.0
H1067 H 0.96617 0.52896 0.78568 0.0
H1068 H 0.00518 0.54008 0.74851 0.0
H1069 H 0.95958 0.50344 0.78734 0.0
H1070 H 0.9988 0.51444 0.75048 0.0
H1071 H 0.94912 0.42683 0.81189 0.0
H1072 H 0.95625 0.41971 0.8457 0.0
H1073 H 0.00168 0.45586 0.83804 0.0
H1074 H 0.99443 0.46261 0.80383 0.0
H1075 H 0.99357 0.45592 0.76578 0.0
H1076 H 0.99873 0.44013 0.74374 0.0
H1077 H 0.95199 0.40602 0.74584 0.0
H1078 H 0.94694 0.42228 0.76665 0.0
H1079 H 0.96462 0.46588 0.81268 0.0
H1080 H 0.96964 0.49058 0.80663 0.0
H1081 H 0.98092 0.48876 0.7399 0.0
N1082 N 0.96676 0.44793 0.78429 0.0
H1083 H 0.97608 0.46409 0.74585 0.0
C1084 C 0.9955 0.55807 0.79022 0.0
C1085 C 0.98464 0.55725 0.80429 0.0
C1086 C 0.98864 0.56324 0.82524 0.0
C1087 C 0.0036 0.57034 0.83245 0.0
C1088 C 0.01444 0.57132 0.81812 0.0
C1089 C 0.01038 0.56517 0.79731 0.0
C1090 C 0.98585 0.55867 0.75428 0.0
C1091 C 0.99594 0.57184 0.74381 0.0
C1092 C 0.99101 0.58022 0.7332 0.0
C1093 C 0.97576 0.57557 0.73269 0.0
C1094 C 0.96553 0.56191 0.74219 0.0
C1095 C 0.97052 0.55358 0.75299 0.0
C1096 C 0.98622 0.53653 0.76684 0.0
C1097 C 0.9732 0.52593 0.77749 0.0
C1098 C 0.96952 0.51128 0.77866 0.0
C1099 C 0.97877 0.5069 0.76931 0.0
C1100 C 0.99137 0.51739 0.75775 0.0
C1101 C 0.99504 0.53204 0.75659 0.0
C1102 C 0.97117 0.44522 0.80541 0.0
C1103 C 0.96056 0.43331 0.8177 0.0
C1104 C 0.96468 0.42931 0.83707 0.0
C1105 C 0.97957 0.43722 0.84467 0.0
C1106 C 0.99017 0.44941 0.83254 0.0
C1107 C 0.98603 0.45335 0.81306 0.0
C1108 C 0.96979 0.4403 0.76769 0.0
C1109 C 0.98439 0.44521 0.76088 0.0
C1110 C 0.98734 0.43605 0.7485 0.0
C1111 C 0.97584 0.42162 0.74318 0.0
C1112 C 0.96115 0.41707 0.7492 0.0
C1113 C 0.9582 0.42635 0.76119 0.0
C1114 C 0.97079 0.46309 0.7803 0.0
C1115 C 0.96853 0.47082 0.79682 0.0
C1116 C 0.97115 0.48494 0.79324 0.0
C1117 C 0.97578 0.49173 0.7728 0.0
C1118 C 0.97768 0.48397 0.75599 0.0
C1119 C 0.975 0.46978 0.75955 0.0
H1120 H 0.45657 0.43241 0.81836 0.0
N1121 N 0.45655 0.45198 0.79107 0.0
H1122 H 0.44489 0.42497 0.85428 0.0
H1123 H 0.44051 0.46216 0.81111 0.0
H1124 H 0.42866 0.45467 0.84633 0.0
H1125 H 0.42801 0.44513 0.78076 0.0
H1126 H 0.41129 0.42652 0.75473 0.0
H1127 H 0.4643 0.44049 0.75954 0.0
H1128 H 0.44797 0.42272 0.73201 0.0
H1129 H 0.48579 0.46467 0.79609 0.0
H1130 H 0.45154 0.47379 0.77842 0.0
H1131 H 0.50463 0.49082 0.79407 0.0
H1132 H 0.47004 0.50015 0.77814 0.0
H1133 H 0.55747 0.56088 0.80732 0.0
H1134 H 0.57122 0.5737 0.84015 0.0
H1135 H 0.53872 0.58598 0.85284 0.0
H1136 H 0.52522 0.57344 0.81927 0.0
H1137 H 0.54379 0.58595 0.77061 0.0
H1138 H 0.56385 0.59718 0.74424 0.0
H1139 H 0.56452 0.55691 0.74201 0.0
H1140 H 0.54524 0.54622 0.76949 0.0
H1141 H 0.53207 0.5379 0.81514 0.0
H1142 H 0.51334 0.51206 0.81378 0.0
H1143 H 0.49027 0.52025 0.7618 0.0
N1144 N 0.53277 0.56006 0.79014 0.0
H1145 H 0.5087 0.54657 0.7644 0.0
C1146 C 0.44961 0.44795 0.81213 0.0
C1147 C 0.45053 0.43732 0.82452 0.0
C1148 C 0.44377 0.43302 0.8449 0.0
C1149 C 0.43594 0.43931 0.85323 0.0
C1150 C 0.43487 0.44982 0.84062 0.0
C1151 C 0.44165 0.45412 0.82035 0.0
C1152 C 0.44733 0.44378 0.77267 0.0
C1153 C 0.43251 0.44038 0.77015 0.0
C1154 C 0.42294 0.42979 0.75495 0.0
C1155 C 0.42812 0.42272 0.74161 0.0
C1156 C 0.44341 0.42747 0.74256 0.0
C1157 C 0.45283 0.43776 0.75811 0.0
C1158 C 0.46731 0.46735 0.78782 0.0
C1159 C 0.48238 0.4724 0.79186 0.0
C1160 C 0.49308 0.4874 0.79098 0.0
C1161 C 0.48891 0.49778 0.78647 0.0
C1162 C 0.47377 0.49258 0.78161 0.0
C1163 C 0.4631 0.47749 0.78202 0.0
C1164 C 0.54029 0.56626 0.81073 0.0
C1165 C 0.55323 0.56626 0.81716 0.0
C1166 C 0.56105 0.57352 0.83611 0.0
C1167 C 0.55611 0.58092 0.84916 0.0
C1168 C 0.54295 0.58058 0.84301 0.0
C1169 C 0.53514 0.57332 0.82397 0.0
C1170 C 0.54292 0.56528 0.77201 0.0
C1171 C 0.54814 0.57951 0.76413 0.0
C1172 C 0.55957 0.58586 0.74892 0.0
C1173 C 0.56594 0.57801 0.74094 0.0
C1174 C 0.56015 0.56343 0.74806 0.0
C1175 C 0.54891 0.55719 0.76361 0.0
C1176 C 0.52177 0.54443 0.79001 0.0
C1177 C 0.52296 0.53434 0.80358 0.0
C1178 C 0.51224 0.51934 0.80256 0.0
C1179 C 0.50023 0.51388 0.78755 0.0
C1180 C 0.49916 0.52397 0.77383 0.0
C1181 C 0.50974 0.53904 0.77519 0.0
H1182 H 0.68949 0.88546 0.54651 0.0
N1183 N 0.6711 0.87859 0.58167 0.0
H1184 H 0.68676 0.89463 0.51133 0.0
H1185 H 0.64888 0.88189 0.56822 0.0
H1186 H 0.64648 0.89191 0.5336 0.0
H1187 H 0.65879 0.88028 0.61822 0.0
H1188 H 0.66775 0.90181 0.64201 0.0
H1189 H 0.69786 0.9046 0.57863 0.0
H1190 H 0.70693 0.92593 0.60235 0.0
H1191 H 0.69972 0.88396 0.58698 0.0
H1192 H 0.65357 0.84957 0.57913 0.0
H1193 H 0.70695 0.86573 0.58891 0.0
H1194 H 0.66082 0.83114 0.58001 0.0
H1195 H 0.72152 0.80026 0.5602 0.0
H1196 H 0.71847 0.78806 0.52543 0.0
H1197 H 0.67401 0.78082 0.51865 0.0
H1198 H 0.67698 0.79235 0.55417 0.0
H1199 H 0.67417 0.77913 0.59056 0.0
H1200 H 0.66964 0.75865 0.6136 0.0
H1201 H 0.71687 0.78088 0.62911 0.0
H1202 H 0.72085 0.80207 0.60801 0.0
H1203 H 0.71652 0.83062 0.56643 0.0
H1204 H 0.70947 0.84914 0.56691 0.0
H1205 H 0.66978 0.81918 0.60265 0.0
N1206 N 0.70143 0.8033 0.58127 0.0
H1207 H 0.67655 0.80067 0.60143 0.0
C1208 C 0.66922 0.88277 0.55996 0.0
C1209 C 0.67989 0.8865 0.54365 0.0
C1210 C 0.67841 0.89197 0.52357 0.0
C1211 C 0.66642 0.89412 0.51951 0.0
C1212 C 0.6557 0.89017 0.53582 0.0
C1213 C 0.65707 0.88449 0.55571 0.0
C1214 C 0.67769 0.89071 0.59686 0.0
C1215 C 0.66944 0.89014 0.61498 0.0
C1216 C 0.67451 0.90244 0.62841 0.0
C1217 C 0.68805 0.91553 0.62404 0.0
C1218 C 0.69657 0.91594 0.60631 0.0
C1219 C 0.6914 0.90371 0.59275 0.0
C1220 C 0.67596 0.86815 0.58316 0.0
C1221 C 0.69108 0.8725 0.58571 0.0
C1222 C 0.69526 0.86199 0.58659 0.0
C1223 C 0.6845 0.84689 0.58463 0.0
C1224 C 0.66941 0.84261 0.582 0.0
C1225 C 0.66523 0.85312 0.58133 0.0
C1226 C 0.69961 0.79736 0.55964 0.0
C1227 C 0.7112 0.79615 0.55105 0.0
C1228 C 0.70942 0.78923 0.53108 0.0
C1229 C 0.696 0.78348 0.51903 0.0
C1230 C 0.68443 0.78492 0.52755 0.0
C1231 C 0.68616 0.79168 0.54775 0.0
C1232 C 0.69784 0.79241 0.59804 0.0
C1233 C 0.68341 0.77997 0.59991 0.0
C1234 C 0.68092 0.768 0.61268 0.0
C1235 C 0.69292 0.76777 0.62294 0.0
C1236 C 0.70724 0.78054 0.62183 0.0
C1237 C 0.70959 0.79274 0.60969 0.0
C1238 C 0.69719 0.81416 0.58376 0.0
C1239 C 0.70634 0.8281 0.57449 0.0
C1240 C 0.70231 0.83871 0.57489 0.0
C1241 C 0.68901 0.8357 0.5848 0.0
C1242 C 0.67996 0.82182 0.5945 0.0
C1243 C 0.68393 0.81114 0.59391 0.0
H1244 H 0.26608 0.88899 0.5809 0.0
N1245 N 0.2371 0.8735 0.58903 0.0
H1246 H 0.27826 0.90382 0.54846 0.0
H1247 H 0.22302 0.87342 0.55055 0.0
H1248 H 0.23518 0.88776 0.51804 0.0
H1249 H 0.22424 0.89014 0.58481 0.0
H1250 H 0.22914 0.91075 0.60789 0.0
H1251 H 0.25218 0.88145 0.62658 0.0
H1252 H 0.25751 0.90248 0.64956 0.0
H1253 H 0.23657 0.84859 0.59555 0.0
H1254 H 0.20773 0.86542 0.58236 0.0
H1255 H 0.21498 0.82349 0.59481 0.0
H1256 H 0.18632 0.84054 0.58025 0.0
H1257 H 0.14063 0.74445 0.56288 0.0
H1258 H 0.12774 0.73418 0.52819 0.0
H1259 H 0.13124 0.77553 0.51258 0.0
H1260 H 0.14362 0.78549 0.54763 0.0
H1261 H 0.12524 0.77545 0.5787 0.0
H1262 H 0.10285 0.76329 0.60053 0.0
H1263 H 0.12076 0.74086 0.6369 0.0
H1264 H 0.14322 0.75298 0.61441 0.0
H1265 H 0.17631 0.78013 0.56926 0.0
H1266 H 0.19777 0.80519 0.57148 0.0
H1267 H 0.1698 0.81948 0.59939 0.0
N1268 N 0.14825 0.77032 0.57999 0.0
H1269 H 0.14841 0.7948 0.59591 0.0
C1270 C 0.24366 0.87995 0.56828 0.0
C1271 C 0.25927 0.88845 0.56707 0.0
C1272 C 0.2662 0.89696 0.54866 0.0
C1273 C 0.25761 0.89688 0.53089 0.0
C1274 C 0.24201 0.88788 0.53155 0.0
C1275 C 0.23505 0.87962 0.55019 0.0
C1276 C 0.23759 0.88399 0.60428 0.0
C1277 C 0.23097 0.89229 0.5994 0.0
C1278 C 0.2339 0.90419 0.61252 0.0
C1279 C 0.24372 0.90822 0.6305 0.0
C1280 C 0.24994 0.89964 0.63576 0.0
C1281 C 0.24681 0.88758 0.62281 0.0
C1282 C 0.2239 0.85893 0.58891 0.0
C1283 C 0.22558 0.84685 0.59237 0.0
C1284 C 0.21321 0.83249 0.59172 0.0
C1285 C 0.1988 0.82985 0.58727 0.0
C1286 C 0.19714 0.84204 0.58404 0.0
C1287 C 0.2095 0.8564 0.58506 0.0
C1288 C 0.14312 0.76569 0.55787 0.0
C1289 C 0.13888 0.75136 0.55172 0.0
C1290 C 0.13154 0.74554 0.53185 0.0
C1291 C 0.12832 0.75398 0.51761 0.0
C1292 C 0.13328 0.76863 0.52331 0.0
C1293 C 0.14054 0.77441 0.54327 0.0
C1294 C 0.13601 0.76518 0.59498 0.0
C1295 C 0.12453 0.76814 0.59159 0.0
C1296 C 0.1117 0.7612 0.60422 0.0
C1297 C 0.10998 0.75107 0.62049 0.0
C1298 C 0.12168 0.74849 0.62437 0.0
C1299 C 0.13457 0.7555 0.61171 0.0
C1300 C 0.16066 0.78534 0.58241 0.0
C1301 C 0.17483 0.7887 0.57583 0.0
C1302 C 0.18714 0.80306 0.57731 0.0
C1303 C 0.18564 0.81448 0.58574 0.0
C1304 C 0.17142 0.8111 0.59247 0.0
C1305 C 0.15907 0.79677 0.59065 0.0
H1306 H 0.20673 0.28752 0.54073 0.0
N1307 N 0.20017 0.3025 0.56813 0.0
H1308 H 0.22552 0.29741 0.51218 0.0
H1309 H 0.21568 0.33113 0.55386 0.0
H1310 H 0.23381 0.34097 0.52482 0.0
H1311 H 0.22613 0.32365 0.58789 0.0
H1312 H 0.24177 0.31882 0.61187 0.0
H1313 H 0.19133 0.27793 0.59056 0.0
H1314 H 0.20656 0.27308 0.61572 0.0
H1315 H 0.17305 0.29011 0.55087 0.0
H1316 H 0.20403 0.326 0.59216 0.0
H1317 H 0.15576 0.299 0.55189 0.0
H1318 H 0.18692 0.33515 0.59298 0.0
H1319 H 0.10932 0.31483 0.55118 0.0
H1320 H 0.09453 0.30957 0.51779 0.0
H1321 H 0.11902 0.35582 0.50155 0.0
H1322 H 0.13361 0.36105 0.53553 0.0
H1323 H 0.12691 0.36199 0.58249 0.0
H1324 H 0.10812 0.35824 0.60892 0.0
H1325 H 0.09622 0.31301 0.61694 0.0
H1326 H 0.11454 0.31673 0.5897 0.0
H1327 H 0.14031 0.33032 0.53283 0.0
H1328 H 0.15625 0.32039 0.5361 0.0
H1329 H 0.16223 0.33021 0.60484 0.0
N1330 N 0.13153 0.34182 0.56561 0.0
H1331 H 0.14613 0.34039 0.60177 0.0
C1332 C 0.20966 0.30847 0.54937 0.0
C1333 C 0.21247 0.29916 0.53705 0.0
C1334 C 0.2232 0.30485 0.52072 0.0
C1335 C 0.23132 0.32003 0.5163 0.0
C1336 C 0.22803 0.32927 0.52808 0.0
C1337 C 0.21744 0.3236 0.54456 0.0
C1338 C 0.20762 0.30103 0.58707 0.0
C1339 C 0.22161 0.31266 0.59432 0.0
C1340 C 0.23057 0.30986 0.60817 0.0
C1341 C 0.22562 0.29545 0.61533 0.0
C1342 C 0.21094 0.28422 0.60998 0.0
C1343 C 0.2021 0.28699 0.59586 0.0
C1344 C 0.18979 0.30733 0.57136 0.0
C1345 C 0.17602 0.29982 0.56037 0.0
C1346 C 0.16623 0.30499 0.56084 0.0
C1347 C 0.17004 0.31789 0.57231 0.0
C1348 C 0.18362 0.32513 0.5841 0.0
C1349 C 0.19344 0.31992 0.58361 0.0
C1350 C 0.12265 0.33838 0.54581 0.0
C1351 C 0.11143 0.32386 0.54058 0.0
C1352 C 0.10307 0.32086 0.52136 0.0
C1353 C 0.10568 0.33227 0.50692 0.0
C1354 C 0.11668 0.34681 0.51239 0.0
C1355 C 0.12509 0.34981 0.53166 0.0
C1356 C 0.12222 0.33974 0.58411 0.0
C1357 C 0.12043 0.35136 0.5903 0.0
C1358 C 0.10969 0.34918 0.60551 0.0
C1359 C 0.10052 0.33527 0.61506 0.0
C1360 C 0.10284 0.32378 0.60963 0.0
C1361 C 0.11345 0.32593 0.59417 0.0
C1362 C 0.14077 0.33524 0.56743 0.0
C1363 C 0.14446 0.33001 0.54893 0.0
C1364 C 0.15379 0.32433 0.55071 0.0
C1365 C 0.16018 0.32408 0.57084 0.0
C1366 C 0.1573 0.33002 0.58913 0.0
C1367 C 0.14788 0.33568 0.58739 0.0
H1368 H 0.00747 0.40165 0.07716 0.0
H1369 H 0.95989 0.38504 0.07888 0.0
H1370 H 0.96339 0.39815 0.11325 0.0
H1371 H 0.01259 0.39976 0.13586 0.0
H1372 H 0.03058 0.41656 0.13659 0.0
H1373 H 0.0244 0.4054 0.11233 0.0
H1374 H 0.02851 0.42785 0.08977 0.0
H1375 H 0.03462 0.43906 0.11397 0.0
H1376 H 0.01939 0.43749 0.09774 0.0
H1377 H 0.97176 0.41351 0.14649 0.0
H1378 H 0.98467 0.43005 0.17755 0.0
H1379 H 0.02691 0.43685 0.15531 0.0
C1380 C 0.99778 0.40067 0.08489 0.0
C1381 C 0.9834 0.3923 0.07524 0.0
C1382 C 0.97103 0.39139 0.08583 0.0
C1383 C 0.97288 0.3988 0.10542 0.0
C1384 C 0.98717 0.40709 0.11433 0.0
C1385 C 0.99943 0.40806 0.10454 0.0
C1386 C 0.01358 0.41802 0.11754 0.0
C1387 C 0.0207 0.40942 0.12609 0.0
C1388 C 0.02468 0.4314 0.10394 0.0
C1389 C 0.00732 0.42253 0.13598 0.0
C1390 C 0.99205 0.41604 0.13377 0.0
C1391 C 0.9837 0.41857 0.14854 0.0
C1392 C 0.99114 0.42793 0.1662 0.0
C1393 C 0.00679 0.43467 0.169 0.0
C1394 C 0.01496 0.43194 0.15356 0.0
H1395 H 0.62578 0.59625 0.07101 0.0
H1396 H 0.61842 0.63276 0.0736 0.0
H1397 H 0.60481 0.62301 0.10804 0.0
H1398 H 0.59039 0.56873 0.0915 0.0
H1399 H 0.59772 0.55943 0.10713 0.0
H1400 H 0.60707 0.56938 0.08286 0.0
H1401 H 0.63166 0.58486 0.10496 0.0
H1402 H 0.62242 0.5749 0.12928 0.0
H1403 H 0.63177 0.59468 0.12882 0.0
H1404 H 0.59127 0.60876 0.14169 0.0
H1405 H 0.5803 0.592 0.17315 0.0
H1406 H 0.59685 0.56509 0.14859 0.0
C1407 C 0.62137 0.60225 0.07883 0.0
C1408 C 0.62315 0.61527 0.06955 0.0
C1409 C 0.61724 0.62279 0.0804 0.0
C1410 C 0.60944 0.61731 0.09994 0.0
C1411 C 0.60774 0.60436 0.10848 0.0
C1412 C 0.61365 0.59701 0.09837 0.0
C1413 C 0.61039 0.58338 0.11098 0.0
C1414 C 0.60082 0.56941 0.0973 0.0
C1415 C 0.62493 0.58453 0.11898 0.0
C1416 C 0.60166 0.58418 0.12974 0.0
C1417 C 0.60017 0.59631 0.12796 0.0
C1418 C 0.59239 0.59924 0.14327 0.0
C1419 C 0.58611 0.58962 0.16099 0.0
C1420 C 0.58772 0.57725 0.1633 0.0
C1421 C 0.59555 0.57452 0.14736 0.0
H1422 H 0.38949 0.00438 0.07396 0.0
H1423 H 0.39026 0.96723 0.04679 0.0
H1424 H 0.40815 0.96972 0.07525 0.0
H1425 H 0.42901 0.02561 0.09104 0.0
H1426 H 0.42523 0.03188 0.11593 0.0
H1427 H 0.41328 0.02805 0.09239 0.0
H1428 H 0.39031 0.00989 0.11515 0.0
H1429 H 0.40218 0.01367 0.13874 0.0
H1430 H 0.39033 0.99501 0.12936 0.0
H1431 H 0.42481 0.97515 0.10716 0.0
H1432 H 0.43904 0.98295 0.14177 0.0
H1433 H 0.42743 0.0163 0.14949 0.0
C1434 C 0.39359 0.99692 0.07388 0.0
C1435 C 0.38847 0.98562 0.05811 0.0
C1436 C 0.39394 0.97593 0.05872 0.0
C1437 C 0.40418 0.97729 0.07477 0.0
C1438 C 0.40887 0.98838 0.09019 0.0
C1439 C 0.40378 0.99803 0.08999 0.0
C1440 C 0.41006 0.00843 0.10932 0.0
C1441 C 0.41999 0.02444 0.10171 0.0
C1442 C 0.39747 0.00663 0.12401 0.0
C1443 C 0.41923 0.00291 0.1205 0.0
C1444 C 0.41847 0.99143 0.10901 0.0
C1445 C 0.42556 0.98416 0.1163 0.0
C1446 C 0.43353 0.98861 0.13603 0.0
C1447 C 0.4343 1.00018 0.14836 0.0
C1448 C 0.4272 0.00754 0.14029 0.0
H1449 H 0.37277 0.96618 0.94226 0.0
H1450 H 0.37804 0.00929 0.94774 0.0
H1451 H 0.39165 0.01667 0.91302 0.0
H1452 H 0.40869 0.97857 0.92185 0.0
H1453 H 0.40271 0.96323 0.90365 0.0
H1454 H 0.39245 0.96094 0.92809 0.0
H1455 H 0.36819 0.9516 0.90522 0.0
H1456 H 0.37836 0.95377 0.8807 0.0
H1457 H 0.36788 0.96276 0.8832 0.0
H1458 H 0.40562 0.01969 0.87856 0.0
H1459 H 0.41852 0.01799 0.84646 0.0
H1460 H 0.40471 0.97313 0.86421 0.0
C1461 C 0.37657 0.9771 0.93603 0.0
C1462 C 0.37427 0.98714 0.9477 0.0
C1463 C 0.37963 0.0014 0.93908 0.0
C1464 C 0.38737 0.00569 0.91937 0.0
C1465 C 0.38967 0.99561 0.9085 0.0
C1466 C 0.38438 0.98159 0.91648 0.0
C1467 C 0.38883 0.97305 0.90209 0.0
C1468 C 0.39876 0.9687 0.91467 0.0
C1469 C 0.37499 0.95949 0.89222 0.0
C1470 C 0.39757 0.98449 0.88487 0.0
C1471 C 0.39788 0.99741 0.88881 0.0
C1472 C 0.40545 0.00963 0.87529 0.0
C1473 C 0.41285 0.00859 0.85721 0.0
C1474 C 0.4127 0.99545 0.85284 0.0
C1475 C 0.40491 0.98327 0.86693 0.0
H1476 H 0.96548 0.39782 0.95996 0.0
H1477 H 0.008 0.40049 0.95397 0.0
H1478 H 0.0126 0.41454 0.91966 0.0
H1479 H 0.95533 0.39216 0.9045 0.0
H1480 H 0.94673 0.40305 0.90447 0.0
H1481 H 0.94734 0.39409 0.9291 0.0
H1482 H 0.96058 0.41912 0.94934 0.0
H1483 H 0.95998 0.42817 0.92476 0.0
H1484 H 0.97756 0.43431 0.93853 0.0
H1485 H 0.01161 0.42699 0.88458 0.0
H1486 H 0.00523 0.4367 0.85223 0.0
H1487 H 0.96375 0.42641 0.88246 0.0
C1488 C 0.97584 0.40144 0.95159 0.0
C1489 C 0.98638 0.39803 0.95968 0.0
C1490 C 0.99977 0.403 0.94814 0.0
C1491 C 0.00248 0.41099 0.92864 0.0
C1492 C 0.99175 0.41401 0.92104 0.0
C1493 C 0.97874 0.40944 0.93227 0.0
C1494 C 0.96874 0.41365 0.92046 0.0
C1495 C 0.95365 0.39992 0.91426 0.0
C1496 C 0.96659 0.42446 0.93409 0.0
C1497 C 0.97799 0.42107 0.90054 0.0
C1498 C 0.99126 0.42126 0.90117 0.0
C1499 C 1.00133 0.42705 0.88407 0.0
C1500 C 0.99764 0.43263 0.8658 0.0
C1501 C 0.98399 0.43237 0.86474 0.0
C1502 C 0.9742 0.42668 0.88259 0.0
H1503 H 0.61081 0.59847 0.95122 0.0
H1504 H 0.61336 0.64033 0.95758 0.0
H1505 H 0.59559 0.63365 0.92667 0.0
H1506 H 0.60914 0.59689 0.89315 0.0
H1507 H 0.59623 0.5773 0.89213 0.0
H1508 H 0.60892 0.58533 0.91494 0.0
H1509 H 0.58661 0.5734 0.9414 0.0
H1510 H 0.57384 0.56535 0.91866 0.0
H1511 H 0.5716 0.57683 0.93772 0.0
H1512 H 0.57782 0.62244 0.89442 0.0
H1513 H 0.56194 0.60789 0.86325 0.0
H1514 H 0.57067 0.5732 0.879 0.0
C1515 C 0.60766 0.60627 0.94617 0.0
C1516 C 0.61351 0.61995 0.95686 0.0
C1517 C 0.60904 0.62979 0.94968 0.0
C1518 C 0.59894 0.62608 0.93215 0.0
C1519 C 0.59337 0.61249 0.92203 0.0
C1520 C 0.59759 0.60275 0.92881 0.0
C1521 C 0.59014 0.5889 0.91511 0.0
C1522 C 0.6018 0.587 0.90312 0.0
C1523 C 0.57994 0.57532 0.92906 0.0
C1524 C 0.58116 0.5924 0.89942 0.0
C1525 C 0.58312 0.60603 0.90369 0.0
C1526 C 0.57613 0.61171 0.89104 0.0
C1527 C 0.56704 0.60331 0.87345 0.0
C1528 C 0.565 0.58936 0.86865 0.0
C1529 C 0.57209 0.58386 0.88204 0.0
H1530 H 1.00122 0.6112 0.94022 0.0
H1531 H 0.0375 0.60664 0.96556 0.0
H1532 H 0.03701 0.59399 0.93194 0.0
H1533 H 0.98109 0.57624 0.91267 0.0
H1534 H 0.97591 0.58319 0.88948 0.0
H1535 H 0.97886 0.59181 0.91572 0.0
H1536 H 0.99844 0.61693 0.89911 0.0
H1537 H 0.99551 0.6084 0.87281 0.0
H1538 H 0.01402 0.61851 0.8846 0.0
H1539 H 0.03234 0.58132 0.89634 0.0
H1540 H 0.02459 0.57043 0.85976 0.0
H1541 H 0.99231 0.58431 0.85611 0.0
C1542 C 0.00904 0.60752 0.93869 0.0
C1543 C 0.01938 0.60991 0.95558 0.0
C1544 C 0.0295 0.605 0.95286 0.0
C1545 C 0.02929 0.59775 0.93383 0.0
C1546 C 0.01898 0.59556 0.91755 0.0
C1547 C 0.00911 0.60038 0.91963 0.0
C1548 C 0.99941 0.59686 0.89933 0.0
C1549 C 0.98284 0.5864 0.90463 0.0
C1550 C 0.00201 0.61102 0.88831 0.0
C1551 C 0.00535 0.58926 0.88565 0.0
C1552 C 0.01658 0.58858 0.89656 0.0
C1553 C 0.02367 0.58191 0.88749 0.0
C1554 C 0.01925 0.57585 0.8666 0.0
C1555 C 0.00793 0.57661 0.85483 0.0
C1556 C 1.0009 0.5834 0.86465 0.0
H1557 H 0.3881 0.386 0.95166 0.0
H1558 H 0.39435 0.42529 0.98318 0.0
H1559 H 0.40953 0.44033 0.95269 0.0
H1560 H 0.42513 0.40302 0.9285 0.0
H1561 H 0.41876 0.39299 0.90322 0.0
H1562 H 0.40852 0.38495 0.92786 0.0
H1563 H 0.38449 0.3813 0.90923 0.0
H1564 H 0.39465 0.38927 0.88452 0.0
H1565 H 0.3847 0.39687 0.89704 0.0
H1566 H 0.42399 0.45138 0.91958 0.0
H1567 H 0.43624 0.45781 0.88397 0.0
H1568 H 0.42035 0.41173 0.87218 0.0
C1569 C 0.3927 0.39776 0.95212 0.0
C1570 C 0.38999 0.40441 0.96988 0.0
C1571 C 0.39616 0.41986 0.96979 0.0
C1572 C 0.40488 0.42856 0.95256 0.0
C1573 C 0.40734 0.42172 0.93537 0.0
C1574 C 0.4014 0.4067 0.93483 0.0
C1575 C 0.40554 0.40227 0.91387 0.0
C1576 C 0.41505 0.3954 0.91866 0.0
C1577 C 0.39151 0.39181 0.90037 0.0
C1578 C 0.41465 0.41715 0.90286 0.0
C1579 C 0.41558 0.42819 0.91571 0.0
C1580 C 0.42329 0.44285 0.90926 0.0
C1581 C 0.43013 0.44638 0.88893 0.0
C1582 C 0.42914 0.43528 0.87516 0.0
C1583 C 0.4214 0.42047 0.88239 0.0
H1584 H 0.60246 0.0147 0.93865 0.0
H1585 H 0.59274 0.97149 0.95899 0.0
H1586 H 0.57488 0.9603 0.92803 0.0
H1587 H 0.56597 0.00468 0.92168 0.0
H1588 H 0.57195 0.0168 0.89843 0.0
H1589 H 0.58408 0.02136 0.92189 0.0
H1590 H 0.60497 0.02318 0.89761 0.0
H1591 H 0.59297 0.0188 0.87403 0.0
H1592 H 0.60106 0.00786 0.8805 0.0
H1593 H 0.55677 0.95388 0.89616 0.0
H1594 H 0.54193 0.95282 0.86394 0.0
H1595 H 0.56531 1.00058 0.86311 0.0
C1596 C 0.59663 0.00288 0.93655 0.0
C1597 C 0.59889 0.99393 0.95127 0.0
C1598 C 0.59118 0.97854 0.94784 0.0
C1599 C 0.58098 0.9721 0.93039 0.0
C1600 C 0.57883 0.98125 0.91638 0.0
C1601 C 0.58664 0.99633 0.91908 0.0
C1602 C 0.58258 0.00379 0.90156 0.0
C1603 C 0.57574 0.01214 0.91149 0.0
C1604 C 0.59621 0.01401 0.8876 0.0
C1605 C 0.57107 0.99052 0.88873 0.0
C1606 C 0.56896 0.97762 0.89759 0.0
C1607 C 0.55852 0.96394 0.88888 0.0
C1608 C 0.55019 0.96347 0.87045 0.0
C1609 C 0.55246 0.97661 0.86066 0.0
C1610 C 0.56305 0.99028 0.87016 0.0
H1611 H 0.61355 0.02406 0.07591 0.0
H1612 H 0.59491 0.97794 0.06091 0.0
H1613 H 0.5805 0.97105 0.09512 0.0
H1614 H 0.61753 0.02031 0.13447 0.0
H1615 H 0.61321 0.03413 0.14116 0.0
H1616 H 0.62205 0.03515 0.11575 0.0
H1617 H 0.60074 0.03583 0.0949 0.0
H1618 H 0.59173 0.0346 0.12022 0.0
H1619 H 0.58167 0.02127 0.09902 0.0
H1620 H 0.56644 0.96948 0.12944 0.0
H1621 H 0.5563 0.97314 0.16311 0.0
H1622 H 0.58656 0.02041 0.15716 0.0
C1623 C 0.60651 0.01251 0.07993 0.0
C1624 C 0.60522 0.0015 0.0658 0.0
C1625 C 0.59605 0.98651 0.07163 0.0
C1626 C 0.5878 0.98252 0.09093 0.0
C1627 C 0.58912 0.99367 0.10434 0.0
C1628 C 0.59851 0.00836 0.09929 0.0
C1629 C 0.59826 0.01825 0.11661 0.0
C1630 C 0.61368 0.0275 0.12765 0.0
C1631 C 0.59277 0.02806 0.10711 0.0
C1632 C 0.587 0.00685 0.132 0.0
C1633 C 0.58174 0.99275 0.12459 0.0
C1634 C 0.57072 0.98048 0.13562 0.0
C1635 C 0.56509 0.9827 0.15488 0.0
C1636 C 0.57065 0.99708 0.16318 0.0
C1637 C 0.58179 0.00925 0.15138 0.0
H1638 H 0.02186 0.6005 0.07149 0.0
H1639 H 0.98078 0.60102 0.06866 0.0
H1640 H 0.97245 0.58617 0.10256 0.0
H1641 H 0.00574 0.5632 0.09259 0.0
H1642 H 0.02193 0.56812 0.10936 0.0
H1643 H 0.02393 0.5778 0.08423 0.0
H1644 H 0.03697 0.60257 0.10519 0.0
H1645 H 0.03498 0.59298 0.13036 0.0
H1646 H 0.02763 0.60492 0.12778 0.0
H1647 H 0.96973 0.57269 0.13863 0.0
H1648 H 0.9728 0.56202 0.17283 0.0
H1649 H 0.01544 0.57006 0.15043 0.0
C1650 C 0.01103 0.59742 0.07781 0.0
C1651 C 0.00198 0.60197 0.06743 0.0
C1652 C 0.98788 0.59762 0.0763 0.0
C1653 C 0.98307 0.58919 0.09553 0.0
C1654 C 0.99243 0.58509 0.10549 0.0
C1655 C 0.00607 0.589 0.09677 0.0
C1656 C 0.01439 0.58379 0.11079 0.0
C1657 C 0.01662 0.57256 0.09851 0.0
C1658 C 0.02937 0.59684 0.11902 0.0
C1659 C 0.00348 0.57659 0.12914 0.0
C1660 C 0.99082 0.57732 0.12582 0.0
C1661 C 0.97952 0.57191 0.14121 0.0
C1662 C 0.98133 0.5658 0.16056 0.0
C1663 C 0.99437 0.56519 0.16437 0.0
C1664 C 0.00541 0.57046 0.14818 0.0
H1665 H 0.40423 0.41102 0.07705 0.0
H1666 H 0.38476 0.36397 0.08424 0.0
H1667 H 0.40066 0.36835 0.11709 0.0
H1668 H 0.44206 0.42121 0.09372 0.0
H1669 H 0.44556 0.43774 0.10712 0.0
H1670 H 0.43302 0.43071 0.08398 0.0
H1671 H 0.41218 0.43013 0.10694 0.0
H1672 H 0.42462 0.43708 0.13016 0.0
H1673 H 0.40689 0.4201 0.13228 0.0
H1674 H 0.41703 0.3782 0.15132 0.0
H1675 H 0.43352 0.39236 0.1821 0.0
H1676 H 0.44405 0.43302 0.14953 0.0
C1677 C 0.40336 0.40163 0.08547 0.0
C1678 C 0.39318 0.38715 0.07834 0.0
C1679 C 0.39249 0.37514 0.08954 0.0
C1680 C 0.40146 0.37754 0.10817 0.0
C1681 C 0.41125 0.39201 0.11496 0.0
C1682 C 0.41241 0.40384 0.10368 0.0
C1683 C 0.42374 0.4183 0.11415 0.0
C1684 C 0.43688 0.42753 0.09883 0.0
C1685 C 0.41642 0.4269 0.12131 0.0
C1686 C 0.4285 0.41281 0.13354 0.0
C1687 C 0.42118 0.39763 0.13381 0.0
C1688 C 0.42306 0.3901 0.151 0.0
C1689 C 0.43259 0.3983 0.16839 0.0
C1690 C 0.44028 0.41392 0.1684 0.0
C1691 C 0.4383 0.42115 0.15041 0.0
H1692 H 0.65244 0.72248 0.42647 0.0
H1693 H 0.69477 0.74098 0.3933 0.0
H1694 H 0.7071 0.75923 0.42271 0.0
H1695 H 0.65743 0.75612 0.44609 0.0
H1696 H 0.64893 0.74881 0.47208 0.0
H1697 H 0.64332 0.7369 0.44869 0.0
H1698 H 0.64964 0.71949 0.46948 0.0
H1699 H 0.65511 0.73127 0.49302 0.0
H1700 H 0.66798 0.72685 0.48141 0.0
H1701 H 0.71453 0.77647 0.45428 0.0
H1702 H 0.71718 0.79009 0.4879 0.0
H1703 H 0.67045 0.75936 0.50211 0.0
C1704 C 0.66432 0.7303 0.42547 0.0
C1705 C 0.67262 0.73032 0.40753 0.0
C1706 C 0.68817 0.7407 0.4069 0.0
C1707 C 0.69528 0.75116 0.42348 0.0
C1708 C 0.68674 0.751 0.44073 0.0
C1709 C 0.67165 0.74071 0.44205 0.0
C1710 C 0.66513 0.74284 0.46256 0.0
C1711 C 0.65298 0.74638 0.45701 0.0
C1712 C 0.65911 0.72931 0.4775 0.0
C1713 C 0.67888 0.75605 0.47239 0.0
C1714 C 0.69118 0.76062 0.45945 0.0
C1715 C 0.70504 0.77284 0.46475 0.0
C1716 C 0.70644 0.78047 0.48401 0.0
C1717 C 0.69409 0.77575 0.49797 0.0
C1718 C 0.68011 0.7634 0.49185 0.0
H1719 H 0.27847 0.91915 0.40638 0.0
H1720 H 0.30244 0.9648 0.42702 0.0
H1721 H 0.2957 0.95683 0.46527 0.0
H1722 H 0.24792 0.90716 0.44354 0.0
H1723 H 0.24577 0.88941 0.44813 0.0
H1724 H 0.25285 0.89874 0.42257 0.0
H1725 H 0.2764 0.89692 0.42772 0.0
H1726 H 0.26942 0.88763 0.45333 0.0
H1727 H 0.28761 0.90416 0.45216 0.0
H1728 H 0.28726 0.94377 0.50136 0.0
H1729 H 0.27568 0.92664 0.53237 0.0
H1730 H 0.25576 0.88968 0.48778 0.0
C1731 C 0.28234 0.92747 0.41896 0.0
C1732 C 0.29109 0.94259 0.41383 0.0
C1733 C 0.29573 0.95316 0.43066 0.0
C1734 C 0.292 0.94874 0.4524 0.0
C1735 C 0.28342 0.93372 0.45692 0.0
C1736 C 0.27847 0.92326 0.44064 0.0
C1737 C 0.26893 0.90786 0.44972 0.0
C1738 C 0.25292 0.90035 0.44044 0.0
C1739 C 0.27602 0.8986 0.44548 0.0
C1740 C 0.26941 0.91127 0.4737 0.0
C1741 C 0.27797 0.92625 0.47755 0.0
C1742 C 0.28045 0.93204 0.49853 0.0
C1743 C 0.27391 0.92226 0.516 0.0
C1744 C 0.26485 0.90693 0.51233 0.0
C1745 C 0.26257 0.90139 0.49092 0.0
H1746 H 0.05711 0.34011 0.41126 0.0
H1747 H 0.05273 0.3006 0.38349 0.0
H1748 H 0.0686 0.30008 0.41281 0.0
H1749 H 0.09583 0.35662 0.42946 0.0
H1750 H 0.09315 0.36374 0.45439 0.0
H1751 H 0.08178 0.3615 0.43073 0.0
H1752 H 0.0579 0.34529 0.45311 0.0
H1753 H 0.0692 0.34749 0.47682 0.0
H1754 H 0.05562 0.32931 0.46714 0.0
H1755 H 0.08436 0.30322 0.44496 0.0
H1756 H 0.09907 0.30978 0.47908 0.0
H1757 H 0.09328 0.34699 0.48729 0.0
C1758 C 0.05957 0.33142 0.41131 0.0
C1759 C 0.05363 0.3204 0.39501 0.0
C1760 C 0.05706 0.30915 0.39576 0.0
C1761 C 0.06613 0.30876 0.41234 0.0
C1762 C 0.07171 0.31968 0.42817 0.0
C1763 C 0.0686 0.3308 0.42791 0.0
C1764 C 0.0758 0.34091 0.4474 0.0
C1765 C 0.08732 0.35662 0.44005 0.0
C1766 C 0.06392 0.34073 0.46198 0.0
C1767 C 0.08331 0.33362 0.45861 0.0
C1768 C 0.08082 0.32143 0.44711 0.0
C1769 C 0.08638 0.31273 0.45418 0.0
C1770 C 0.09464 0.31649 0.47366 0.0
C1771 C 0.09724 0.32883 0.48597 0.0
C1772 C 0.09158 0.33757 0.47817 0.0
H1773 H 0.03639 0.30933 0.26892 0.0
H1774 H 0.06196 0.35307 0.29708 0.0
H1775 H 0.07925 0.36122 0.26614 0.0
H1776 H 0.06654 0.30735 0.24943 0.0
H1777 H 0.05746 0.29797 0.22443 0.0
H1778 H 0.0465 0.2957 0.24805 0.0
H1779 H 0.03115 0.30433 0.226 0.0
H1780 H 0.04192 0.3064 0.2022 0.0
H1781 H 0.04073 0.3217 0.21186 0.0
H1782 H 0.09518 0.36382 0.23428 0.0
H1783 H 0.107 0.36167 0.20137 0.0
H1784 H 0.06991 0.31678 0.19237 0.0
C1785 C 0.0455 0.32069 0.26842 0.0
C1786 C 0.04785 0.33056 0.28544 0.0
C1787 C 0.05989 0.34533 0.28418 0.0
C1788 C 0.06982 0.35005 0.26673 0.0
C1789 C 0.06741 0.33992 0.25052 0.0
C1790 C 0.05538 0.32563 0.25097 0.0
C1791 C 0.05535 0.31694 0.23154 0.0
C1792 C 0.05654 0.30371 0.23881 0.0
C1793 C 0.04147 0.31206 0.21704 0.0
C1794 C 0.06943 0.32849 0.22035 0.0
C1795 C 0.07625 0.34163 0.23162 0.0
C1796 C 0.08976 0.35368 0.22503 0.0
C1797 C 0.09635 0.35235 0.2062 0.0
C1798 C 0.08935 0.33912 0.19391 0.0
C1799 C 0.0757 0.32704 0.20131 0.0
H1800 H 0.67156 0.72728 0.2794 0.0
H1801 H 0.63984 0.73438 0.31338 0.0
H1802 H 0.64022 0.74992 0.28319 0.0
H1803 H 0.69329 0.76357 0.2561 0.0
H1804 H 0.69594 0.75718 0.23044 0.0
H1805 H 0.69348 0.74675 0.25493 0.0
H1806 H 0.6712 0.72366 0.2369 0.0
H1807 H 0.67363 0.73401 0.21234 0.0
H1808 H 0.65582 0.72472 0.22565 0.0
H1809 H 0.64442 0.76519 0.25002 0.0
H1810 H 0.65111 0.77816 0.21482 0.0
H1811 H 0.6788 0.75995 0.20087 0.0
C1812 C 0.66474 0.73214 0.28048 0.0
C1813 C 0.6557 0.72962 0.2988 0.0
C1814 C 0.64681 0.73608 0.2995 0.0
C1815 C 0.64699 0.74498 0.28246 0.0
C1816 C 0.65599 0.74725 0.26467 0.0
C1817 C 0.66461 0.74093 0.26342 0.0
C1818 C 0.67295 0.74485 0.24209 0.0
C1819 C 0.68992 0.75361 0.24614 0.0
C1820 C 0.6681 0.73098 0.22844 0.0
C1821 C 0.66771 0.7544 0.23169 0.0
C1822 C 0.65802 0.7557 0.24508 0.0
C1823 C 0.65188 0.76413 0.23925 0.0
C1824 C 0.65567 0.77138 0.2191 0.0
C1825 C 0.66539 0.77003 0.20481 0.0
C1826 C 0.67147 0.7614 0.21137 0.0
H1827 H 0.27567 0.92921 0.28611 0.0
H1828 H 0.26268 0.95786 0.31522 0.0
H1829 H 0.24301 0.95042 0.28689 0.0
H1830 H 0.27098 0.937 0.23078 0.0
H1831 H 0.26418 0.91852 0.22148 0.0
H1832 H 0.27677 0.92572 0.24453 0.0
H1833 H 0.25772 0.90366 0.26793 0.0
H1834 H 0.24503 0.89643 0.24496 0.0
H1835 H 0.23895 0.89993 0.27028 0.0
H1836 H 0.22451 0.93949 0.2554 0.0
H1837 H 0.2098 0.92726 0.22218 0.0
H1838 H 0.23617 0.90706 0.21281 0.0
C1839 C 0.26864 0.93387 0.28664 0.0
C1840 C 0.27063 0.94404 0.30297 0.0
C1841 C 0.26134 0.95004 0.30287 0.0
C1842 C 0.25011 0.94585 0.2869 0.0
C1843 C 0.24843 0.93575 0.27106 0.0
C1844 C 0.25753 0.92996 0.27072 0.0
C1845 C 0.25385 0.91976 0.2515 0.0
C1846 C 0.26724 0.9256 0.23617 0.0
C1847 C 0.24857 0.90401 0.25913 0.0
C1848 C 0.24121 0.92068 0.24106 0.0
C1849 C 0.23816 0.92986 0.25265 0.0
C1850 C 0.22688 0.93236 0.24612 0.0
C1851 C 0.21864 0.92542 0.22713 0.0
C1852 C 0.2218 0.91619 0.21471 0.0
C1853 C 0.23323 0.91381 0.22199 0.0
H1854 H 0.69962 0.94808 0.28729 0.0
H1855 H 0.65658 0.94465 0.29014 0.0
H1856 H 0.64932 0.9314 0.25502 0.0
H1857 H 0.70448 0.95432 0.2295 0.0
H1858 H 0.71327 0.94374 0.22636 0.0
H1859 H 0.71502 0.95286 0.25179 0.0
H1860 H 0.70438 0.92805 0.27224 0.0
H1861 H 0.70256 0.91884 0.24686 0.0
H1862 H 0.68654 0.91257 0.26396 0.0
H1863 H 0.64661 0.9182 0.21988 0.0
H1864 H 0.64904 0.9069 0.18645 0.0
H1865 H 0.69393 0.91918 0.20641 0.0
C1866 C 0.68866 0.94455 0.28056 0.0
C1867 C 0.67865 0.94739 0.29152 0.0
C1868 C 0.66445 0.94263 0.28206 0.0
C1869 C 0.6602 0.93507 0.26213 0.0
C1870 C 0.67032 0.93241 0.25184 0.0
C1871 C 0.68428 0.93708 0.26066 0.0
C1872 C 0.69312 0.93298 0.24618 0.0
C1873 C 0.70731 0.9468 0.23797 0.0
C1874 C 0.69687 0.92248 0.25802 0.0
C1875 C 0.68194 0.92524 0.22785 0.0
C1876 C 0.66883 0.92497 0.23147 0.0
C1877 C 0.65681 0.91833 0.21687 0.0
C1878 C 0.65826 0.91186 0.19801 0.0
C1879 C 0.67165 0.91212 0.19387 0.0
C1880 C 0.6836 0.91891 0.20906 0.0
H1881 H 0.05591 0.72029 0.29682 0.0
H1882 H 0.04178 0.75021 0.31666 0.0
H1883 H 0.05218 0.76458 0.28306 0.0
H1884 H 0.09053 0.74753 0.27483 0.0
H1885 H 0.08996 0.73641 0.25242 0.0
H1886 H 0.0805 0.72777 0.27731 0.0
H1887 H 0.0557 0.71207 0.25578 0.0
H1888 H 0.06511 0.72061 0.23078 0.0
H1889 H 0.04884 0.72108 0.23841 0.0
H1890 H 0.06498 0.77636 0.24823 0.0
H1891 H 0.07955 0.78482 0.21439 0.0
H1892 H 0.08544 0.74737 0.21706 0.0
C1893 C 0.05483 0.72974 0.29396 0.0
C1894 C 0.04799 0.73409 0.30937 0.0
C1895 C 0.04698 0.74666 0.30513 0.0
C1896 C 0.05282 0.75489 0.28606 0.0
C1897 C 0.05967 0.75044 0.27137 0.0
C1898 C 0.06069 0.73816 0.27503 0.0
C1899 C 0.06916 0.73614 0.25699 0.0
C1900 C 0.08338 0.73702 0.26593 0.0
C1901 C 0.0591 0.72161 0.24476 0.0
C1902 C 0.07287 0.7493 0.24279 0.0
C1903 C 0.0672 0.75734 0.25131 0.0
C1904 C 0.06939 0.7701 0.24129 0.0
C1905 C 0.07762 0.77478 0.22204 0.0
C1906 C 0.08362 0.76676 0.21306 0.0
C1907 C 0.08113 0.75382 0.22362 0.0
H1908 H 0.26666 0.35501 0.3003 0.0
H1909 H 0.28126 0.3246 0.28607 0.0
H1910 H 0.26554 0.31672 0.2526 0.0
H1911 H 0.22808 0.33169 0.27944 0.0
H1912 H 0.22764 0.3473 0.26882 0.0
H1913 H 0.23885 0.34935 0.29261 0.0
H1914 H 0.26219 0.37038 0.27352 0.0
H1915 H 0.25109 0.36836 0.24969 0.0
H1916 H 0.26745 0.36702 0.24738 0.0
H1917 H 0.2503 0.31427 0.21869 0.0
H1918 H 0.23668 0.31708 0.18779 0.0
H1919 H 0.23122 0.3483 0.22542 0.0
C1920 C 0.26641 0.34653 0.29035 0.0
C1921 C 0.27522 0.34044 0.2958 0.0
C1922 C 0.27457 0.32939 0.28228 0.0
C1923 C 0.26566 0.32484 0.26325 0.0
C1924 C 0.25734 0.33131 0.25817 0.0
C1925 C 0.25754 0.34181 0.27148 0.0
C1926 C 0.24823 0.34764 0.26193 0.0
C1927 C 0.23491 0.34376 0.27657 0.0
C1928 C 0.25782 0.36433 0.25789 0.0
C1929 C 0.24314 0.33915 0.24077 0.0
C1930 C 0.24838 0.32969 0.23894 0.0
C1931 C 0.2459 0.32143 0.22014 0.0
C1932 C 0.23805 0.32304 0.20269 0.0
C1933 C 0.23276 0.33286 0.20411 0.0
C1934 C 0.23514 0.34076 0.22366 0.0
H1935 H 0.27067 0.32583 0.40283 0.0
H1936 H 0.30547 0.36948 0.42317 0.0
H1937 H 0.29414 0.36515 0.45954 0.0
H1938 H 0.2418 0.32747 0.42704 0.0
H1939 H 0.23109 0.30842 0.43511 0.0
H1940 H 0.2432 0.31376 0.41202 0.0
H1941 H 0.25695 0.30178 0.42953 0.0
H1942 H 0.24478 0.29627 0.45263 0.0
H1943 H 0.26473 0.30709 0.45665 0.0
H1944 H 0.2782 0.35704 0.49227 0.0
H1945 H 0.2582 0.34601 0.51931 0.0
H1946 H 0.23237 0.3083 0.47684 0.0
C1947 C 0.27612 0.33423 0.41526 0.0
C1948 C 0.28908 0.34786 0.41056 0.0
C1949 C 0.29564 0.3589 0.42674 0.0
C1950 C 0.2893 0.35653 0.44739 0.0
C1951 C 0.27628 0.34313 0.45143 0.0
C1952 C 0.26971 0.33215 0.43585 0.0
C1953 C 0.25488 0.31945 0.44364 0.0
C1954 C 0.24199 0.31715 0.42855 0.0
C1955 C 0.25537 0.30531 0.44574 0.0
C1956 C 0.25404 0.32516 0.46579 0.0
C1957 C 0.26662 0.33872 0.47005 0.0
C1958 C 0.26829 0.34641 0.48915 0.0
C1959 C 0.25676 0.34011 0.50431 0.0
C1960 C 0.24358 0.32634 0.50018 0.0
C1961 C 0.24233 0.31875 0.48066 0.0
H1962 H 0.69756 0.94946 0.41831 0.0
H1963 H 0.6516 0.93378 0.39965 0.0
H1964 H 0.64294 0.91677 0.4311 0.0
H1965 H 0.69233 0.9152 0.43651 0.0
H1966 H 0.70518 0.92302 0.45922 0.0
H1967 H 0.70778 0.93395 0.43527 0.0
H1968 H 0.70746 0.95386 0.45887 0.0
H1969 H 0.70501 0.94306 0.48292 0.0
H1970 H 0.69188 0.94868 0.47647 0.0
H1971 H 0.63937 0.90061 0.4636 0.0
H1972 H 0.64106 0.88811 0.49651 0.0
H1973 H 0.68943 0.91579 0.49531 0.0
C1974 C 0.68567 0.94246 0.42085 0.0
C1975 C 0.67525 0.94288 0.40647 0.0
C1976 C 0.65979 0.93367 0.41049 0.0
C1977 C 0.65476 0.92393 0.42824 0.0
C1978 C 0.66534 0.92369 0.44196 0.0
C1979 C 0.68047 0.93286 0.43865 0.0
C1980 C 0.68954 0.93074 0.4561 0.0
C1981 C 0.69928 0.92541 0.44617 0.0
C1982 C 0.69903 0.94493 0.46938 0.0
C1983 C 0.67715 0.91881 0.46964 0.0
C1984 C 0.66328 0.91481 0.46113 0.0
C1985 C 0.65017 0.90379 0.47057 0.0
C1986 C 0.65127 0.89681 0.48938 0.0
C1987 C 0.66538 0.90099 0.49878 0.0
C1988 C 0.67845 0.91213 0.48855 0.0
H1989 H 0.06286 0.73664 0.43294 0.0
H1990 H 0.07115 0.70518 0.40165 0.0
H1991 H 0.09161 0.71138 0.42819 0.0
H1992 H 0.10075 0.76397 0.44443 0.0
H1993 H 0.09682 0.76886 0.47045 0.0
H1994 H 0.08279 0.76179 0.44918 0.0
H1995 H 0.06419 0.74108 0.47488 0.0
H1996 H 0.07811 0.74816 0.4963 0.0
H1997 H 0.06952 0.72923 0.48794 0.0
H1998 H 0.11172 0.72172 0.45792 0.0
H1999 H 0.1287 0.73419 0.48927 0.0
H2000 H 0.10631 0.75811 0.50122 0.0
C2001 C 0.06893 0.731 0.43163 0.0
C2002 C 0.06542 0.72045 0.41514 0.0
C2003 C 0.07361 0.71328 0.41416 0.0
C2004 C 0.08528 0.71677 0.42911 0.0
C2005 C 0.08854 0.72737 0.44499 0.0
C2006 C 0.08049 0.73427 0.44642 0.0
C2007 C 0.08601 0.74512 0.46509 0.0
C2008 C 0.09195 0.76086 0.45678 0.0
C2009 C 0.07373 0.74062 0.48206 0.0
C2010 C 0.09852 0.74335 0.47393 0.0
C2011 C 0.09987 0.73311 0.46212 0.0
C2012 C 0.1107 0.7297 0.46733 0.0
C2013 C 0.12026 0.73681 0.48522 0.0
C2014 C 0.1189 0.74718 0.49776 0.0
C2015 C 0.10788 0.75047 0.49182 0.0
H2016 H 0.33712 0.063 0.7479 0.0
H2017 H 0.29808 0.06513 0.72973 0.0
H2018 H 0.30157 0.07977 0.76239 0.0
H2019 H 0.33059 0.05974 0.80605 0.0
H2020 H 0.35006 0.07107 0.81339 0.0
H2021 H 0.34463 0.06063 0.78845 0.0
H2022 H 0.3615 0.08448 0.76668 0.0
H2023 H 0.36694 0.095 0.79155 0.0
H2024 H 0.35894 0.09989 0.76929 0.0
H2025 H 0.30906 0.09428 0.79641 0.0
H2026 H 0.32007 0.10763 0.83075 0.0
H2027 H 0.35416 0.09619 0.82803 0.0
C2028 C 0.3293 0.06652 0.75083 0.0
C2029 C 0.31733 0.06287 0.73614 0.0
C2030 C 0.30735 0.06773 0.74063 0.0
C2031 C 0.30923 0.07609 0.75917 0.0
C2032 C 0.32113 0.07955 0.77321 0.0
C2033 C 0.331 0.07492 0.7694 0.0
C2034 C 0.34281 0.08021 0.78733 0.0
C2035 C 0.34196 0.06713 0.79953 0.0
C2036 C 0.35847 0.09051 0.77816 0.0
C2037 C 0.33799 0.08852 0.80169 0.0
C2038 C 0.32546 0.08797 0.79316 0.0
C2039 C 0.31884 0.09474 0.80335 0.0
C2040 C 0.32513 0.10223 0.82293 0.0
C2041 C 0.33791 0.10288 0.8322 0.0
C2042 C 0.34446 0.09599 0.82129 0.0
H2043 H 0.95031 0.25787 0.74416 0.0
H2044 H 0.95441 0.30057 0.748 0.0
H2045 H 0.93908 0.29259 0.78101 0.0
H2046 H 0.9127 0.23663 0.76027 0.0
H2047 H 0.915 0.22361 0.7762 0.0
H2048 H 0.92706 0.23287 0.75355 0.0
H2049 H 0.95026 0.24246 0.77891 0.0
H2050 H 0.93826 0.23314 0.80163 0.0
H2051 H 0.95168 0.25261 0.80312 0.0
H2052 H 0.92193 0.27956 0.81189 0.0
H2053 H 0.9053 0.26275 0.84034 0.0
H2054 H 0.91262 0.22861 0.81725 0.0
C2055 C 0.94816 0.26562 0.75209 0.0
C2056 C 0.95359 0.27987 0.74343 0.0
C2057 C 0.95043 0.28962 0.7543 0.0
C2058 C 0.9417 0.28519 0.77306 0.0
C2059 C 0.9363 0.271 0.7809 0.0
C2060 C 0.93952 0.2614 0.77094 0.0
C2061 C 0.93207 0.24666 0.78252 0.0
C2062 C 0.92106 0.23421 0.76722 0.0
C2063 C 0.94377 0.24354 0.79211 0.0
C2064 C 0.92396 0.24941 0.80032 0.0
C2065 C 0.92655 0.26353 0.79903 0.0
C2066 C 0.91989 0.26852 0.81317 0.0
C2067 C 0.91038 0.25886 0.82915 0.0
C2068 C 0.90765 0.24438 0.83092 0.0
C2069 C 0.9146 0.23965 0.81635 0.0
H2070 H 0.73476 0.67464 0.73616 0.0
H2071 H 0.70736 0.62759 0.74755 0.0
H2072 H 0.72126 0.63031 0.7815 0.0
H2073 H 0.76885 0.67824 0.75453 0.0
H2074 H 0.77611 0.69588 0.76743 0.0
H2075 H 0.76327 0.69071 0.74472 0.0
H2076 H 0.74565 0.69522 0.76797 0.0
H2077 H 0.75848 0.70049 0.79073 0.0
H2078 H 0.73928 0.68596 0.79378 0.0
H2079 H 0.73831 0.63748 0.81304 0.0
H2080 H 0.75793 0.64892 0.84122 0.0
H2081 H 0.77557 0.6914 0.80967 0.0
C2082 C 0.73157 0.66499 0.74604 0.0
C2083 C 0.71995 0.6509 0.73924 0.0
C2084 C 0.71625 0.63848 0.75238 0.0
C2085 C 0.72405 0.6399 0.77175 0.0
C2086 C 0.73562 0.65383 0.77779 0.0
C2087 C 0.73942 0.66619 0.76545 0.0
C2088 C 0.75289 0.67971 0.77538 0.0
C2089 C 0.76606 0.68653 0.75957 0.0
C2090 C 0.74883 0.69101 0.78238 0.0
C2091 C 0.75605 0.67291 0.79501 0.0
C2092 C 0.74585 0.65798 0.79605 0.0
C2093 C 0.74642 0.64916 0.81241 0.0
C2094 C 0.75773 0.65576 0.82824 0.0
C2095 C 0.76847 0.67104 0.82757 0.0
C2096 C 0.76752 0.67971 0.81072 0.0
H2097 H 0.71324 0.62903 0.61505 0.0
H2098 H 0.72579 0.67445 0.6248 0.0
H2099 H 0.73948 0.68129 0.59017 0.0
H2100 H 0.74768 0.6366 0.59141 0.0
H2101 H 0.73873 0.62166 0.57216 0.0
H2102 H 0.73004 0.62035 0.59783 0.0
H2103 H 0.70604 0.61546 0.57751 0.0
H2104 H 0.71465 0.61675 0.55177 0.0
H2105 H 0.70727 0.62835 0.5572 0.0
H2106 H 0.752 0.68324 0.55466 0.0
H2107 H 0.76172 0.67998 0.52013 0.0
H2108 H 0.74071 0.63326 0.53334 0.0
C2109 C 0.71889 0.64043 0.60995 0.0
C2110 C 0.71847 0.65121 0.62269 0.0
C2111 C 0.72594 0.66598 0.61533 0.0
C2112 C 0.73377 0.66999 0.59569 0.0
C2113 C 0.73396 0.65909 0.58356 0.0
C2114 C 0.72667 0.6446 0.59035 0.0
C2115 C 0.72842 0.63497 0.57412 0.0
C2116 C 0.73671 0.62799 0.5845 0.0
C2117 C 0.71319 0.62319 0.56459 0.0
C2118 C 0.73785 0.64632 0.55715 0.0
C2119 C 0.74098 0.66017 0.56296 0.0
C2120 C 0.74962 0.67245 0.54995 0.0
C2121 C 0.75516 0.6705 0.53044 0.0
C2122 C 0.75198 0.65637 0.52408 0.0
C2123 C 0.7432 0.64416 0.53768 0.0
H2124 H 0.30835 0.05861 0.6085 0.0
H2125 H 0.3524 0.07044 0.63228 0.0
H2126 H 0.36364 0.0863 0.59988 0.0
H2127 H 0.3156 0.05713 0.55127 0.0
H2128 H 0.30425 0.06444 0.54253 0.0
H2129 H 0.29989 0.05386 0.56728 0.0
H2130 H 0.30124 0.07543 0.58866 0.0
H2131 H 0.30573 0.08613 0.56403 0.0
H2132 H 0.31795 0.09341 0.58751 0.0
H2133 H 0.36997 0.10201 0.56554 0.0
H2134 H 0.37077 0.11495 0.53152 0.0
H2135 H 0.32232 0.09146 0.52996 0.0
C2136 C 0.32037 0.06447 0.60691 0.0
C2137 C 0.32951 0.06335 0.62298 0.0
C2138 C 0.34518 0.07112 0.62014 0.0
C2139 C 0.35165 0.08018 0.60184 0.0
C2140 C 0.34229 0.08118 0.58645 0.0
C2141 C 0.32697 0.07338 0.58872 0.0
C2142 C 0.3193 0.07626 0.56997 0.0
C2143 C 0.30917 0.06208 0.557 0.0
C2144 C 0.31054 0.08322 0.57803 0.0
C2145 C 0.3327 0.08709 0.5569 0.0
C2146 C 0.34588 0.08984 0.56662 0.0
C2147 C 0.3597 0.0998 0.55768 0.0
C2148 C 0.36003 0.10705 0.53827 0.0
C2149 C 0.34662 0.10428 0.52793 0.0
C2150 C 0.33282 0.09409 0.5375 0.0
H2151 H 0.94894 0.26928 0.61628 0.0
H2152 H 0.9396 0.30133 0.64257 0.0
H2153 H 0.92048 0.29499 0.61362 0.0
H2154 H 0.94491 0.27642 0.55928 0.0
H2155 H 0.93672 0.25741 0.55161 0.0
H2156 H 0.94974 0.26478 0.57417 0.0
H2157 H 0.93012 0.24427 0.59915 0.0
H2158 H 0.91698 0.23695 0.57674 0.0
H2159 H 0.91197 0.24208 0.60164 0.0
H2160 H 0.90109 0.28366 0.58315 0.0
H2161 H 0.88481 0.27019 0.55175 0.0
H2162 H 0.90855 0.2471 0.54409 0.0
C2163 C 0.94294 0.27504 0.61589 0.0
C2164 C 0.94567 0.28574 0.63171 0.0
C2165 C 0.93769 0.29313 0.63054 0.0
C2166 C 0.92678 0.28955 0.61423 0.0
C2167 C 0.92419 0.27874 0.59908 0.0
C2168 C 0.93223 0.27178 0.59958 0.0
C2169 C 0.92751 0.26073 0.58128 0.0
C2170 C 0.94049 0.2651 0.56566 0.0
C2171 C 0.92127 0.24508 0.59025 0.0
C2172 C 0.91536 0.26235 0.57059 0.0
C2173 C 0.91353 0.27271 0.58113 0.0
C2174 C 0.9026 0.27569 0.57457 0.0
C2175 C 0.89344 0.26802 0.5566 0.0
C2176 C 0.89536 0.25757 0.54519 0.0
C2177 C 0.90652 0.25479 0.55247 0.0
H2178 H 0.33481 0.26809 0.62032 0.0
H2179 H 0.37705 0.27518 0.64525 0.0
H2180 H 0.38017 0.26469 0.61168 0.0
H2181 H 0.323 0.23326 0.59327 0.0
H2182 H 0.31462 0.2371 0.57035 0.0
H2183 H 0.31536 0.24486 0.59666 0.0
H2184 H 0.32897 0.271 0.57986 0.0
H2185 H 0.32826 0.26334 0.55351 0.0
H2186 H 0.34593 0.27729 0.56498 0.0
H2187 H 0.37952 0.25462 0.5751 0.0
H2188 H 0.37466 0.24484 0.53759 0.0
H2189 H 0.33263 0.24352 0.53618 0.0
C2190 C 0.34467 0.26737 0.61876 0.0
C2191 C 0.35568 0.27248 0.63548 0.0
C2192 C 0.36843 0.27133 0.63275 0.0
C2193 C 0.37033 0.26538 0.61372 0.0
C2194 C 0.35934 0.26051 0.59756 0.0
C2195 C 0.34672 0.26135 0.59985 0.0
C2196 C 0.33673 0.25546 0.57976 0.0
C2197 C 0.32153 0.24186 0.58535 0.0
C2198 C 0.33487 0.26749 0.56889 0.0
C2199 C 0.34583 0.25137 0.56578 0.0
C2200 C 0.35883 0.2544 0.57642 0.0
C2201 C 0.36933 0.2521 0.56664 0.0
C2202 C 0.36651 0.24661 0.54534 0.0
C2203 C 0.35328 0.24341 0.5341 0.0
C2204 C 0.34275 0.2457 0.54455 0.0
H2205 H 0.71149 0.07055 0.61801 0.0
H2206 H 0.72807 0.0427 0.63988 0.0
H2207 H 0.74645 0.05228 0.61034 0.0
H2208 H 0.71491 0.06564 0.55986 0.0
H2209 H 0.72022 0.08423 0.55302 0.0
H2210 H 0.70834 0.07519 0.57595 0.0
H2211 H 0.72697 0.09666 0.60096 0.0
H2212 H 0.73899 0.10568 0.57816 0.0
H2213 H 0.74622 0.10161 0.60226 0.0
H2214 H 0.76435 0.06635 0.58078 0.0
H2215 H 0.77854 0.0814 0.54955 0.0
H2216 H 0.74858 0.09809 0.54375 0.0
C2217 C 0.71894 0.06642 0.61645 0.0
C2218 C 0.71841 0.05593 0.63126 0.0
C2219 C 0.72824 0.05068 0.62864 0.0
C2220 C 0.73877 0.05611 0.612 0.0
C2221 C 0.73915 0.06659 0.59786 0.0
C2222 C 0.72931 0.07147 0.59957 0.0
C2223 C 0.73184 0.08244 0.58171 0.0
C2224 C 0.71801 0.07652 0.56675 0.0
C2225 C 0.73627 0.09749 0.59136 0.0
C2226 C 0.7448 0.08311 0.56998 0.0
C2227 C 0.74892 0.07401 0.57977 0.0
C2228 C 0.76101 0.07325 0.57261 0.0
C2229 C 0.76893 0.0818 0.55466 0.0
C2230 C 0.76458 0.09078 0.54361 0.0
C2231 C 0.75236 0.09146 0.55166 0.0
H2232 H 0.93791 0.67121 0.62466 0.0
H2233 H 0.9655 0.71731 0.60682 0.0
H2234 H 0.9495 0.71304 0.57473 0.0
H2235 H 0.93033 0.65675 0.56951 0.0
H2236 H 0.91128 0.64263 0.57484 0.0
H2237 H 0.92505 0.64908 0.59648 0.0
H2238 H 0.90865 0.6553 0.61973 0.0
H2239 H 0.89486 0.64892 0.59812 0.0
H2240 H 0.90281 0.66729 0.60872 0.0
H2241 H 0.93096 0.70421 0.54469 0.0
H2242 H 0.91079 0.69104 0.51771 0.0
H2243 H 0.89411 0.65067 0.55497 0.0
C2244 C 0.94062 0.68036 0.61391 0.0
C2245 C 0.95299 0.6946 0.61833 0.0
C2246 C 0.95609 0.70631 0.60391 0.0
C2247 C 0.94707 0.70402 0.58558 0.0
C2248 C 0.93491 0.68996 0.58182 0.0
C2249 C 0.93162 0.67829 0.59547 0.0
C2250 C 0.91771 0.66433 0.58758 0.0
C2251 C 0.92131 0.6525 0.58175 0.0
C2252 C 0.90527 0.65863 0.60455 0.0
C2253 C 0.91379 0.67004 0.56739 0.0
C2254 C 0.9239 0.68485 0.56445 0.0
C2255 C 0.92287 0.69262 0.54688 0.0
C2256 C 0.91124 0.68504 0.53174 0.0
C2257 C 0.90066 0.66982 0.53425 0.0
C2258 C 0.90199 0.66228 0.55246 0.0
H2259 H 0.95484 0.68572 0.74231 0.0
H2260 H 0.97159 0.73174 0.72781 0.0
H2261 H 0.96169 0.73426 0.76242 0.0
H2262 H 0.92076 0.67817 0.76738 0.0
H2263 H 0.92111 0.66623 0.78805 0.0
H2264 H 0.92962 0.66787 0.76209 0.0
H2265 H 0.95465 0.67525 0.78157 0.0
H2266 H 0.9462 0.6736 0.80758 0.0
H2267 H 0.96287 0.69057 0.80023 0.0
H2268 H 0.94984 0.732 0.79797 0.0
H2269 H 0.93684 0.72504 0.83304 0.0
H2270 H 0.92802 0.68065 0.82554 0.0
C2271 C 0.95644 0.69633 0.74644 0.0
C2272 C 0.96401 0.70852 0.73227 0.0
C2273 C 0.96586 0.72221 0.73832 0.0
C2274 C 0.96026 0.72378 0.75797 0.0
C2275 C 0.95285 0.71158 0.7715 0.0
C2276 C 0.95093 0.69812 0.7661 0.0
C2277 C 0.94249 0.68681 0.78371 0.0
C2278 C 0.92761 0.67402 0.77477 0.0
C2279 C 0.95213 0.68123 0.79387 0.0
C2280 C 0.93996 0.69605 0.79975 0.0
C2281 C 0.94605 0.7103 0.79232 0.0
C2282 C 0.94511 0.7209 0.80408 0.0
C2283 C 0.93779 0.71686 0.82407 0.0
C2284 C 0.93152 0.70234 0.8322 0.0
C2285 C 0.93262 0.69181 0.81975 0.0
H2286 H 0.34892 0.28273 0.76748 0.0
H2287 H 0.31271 0.2492 0.72813 0.0
H2288 H 0.30345 0.23264 0.76031 0.0
H2289 H 0.35729 0.2606 0.79652 0.0
H2290 H 0.36112 0.27016 0.82213 0.0
H2291 H 0.3635 0.2799 0.79703 0.0
H2292 H 0.34542 0.28795 0.81002 0.0
H2293 H 0.34313 0.27839 0.83538 0.0
H2294 H 0.32701 0.27423 0.81896 0.0
H2295 H 0.30109 0.21857 0.79544 0.0
H2296 H 0.3044 0.20913 0.83066 0.0
H2297 H 0.34075 0.25304 0.84744 0.0
C2298 C 0.3388 0.27204 0.76583 0.0
C2299 C 0.33148 0.26716 0.7455 0.0
C2300 C 0.31834 0.25312 0.74374 0.0
C2301 C 0.31305 0.24367 0.76188 0.0
C2302 C 0.32085 0.24866 0.78166 0.0
C2303 C 0.33323 0.26269 0.78379 0.0
C2304 C 0.34013 0.26527 0.80633 0.0
C2305 C 0.35647 0.26921 0.80543 0.0
C2306 C 0.33884 0.27716 0.81838 0.0
C2307 C 0.33019 0.25028 0.81628 0.0
C2308 C 0.31908 0.24082 0.80194 0.0
C2309 C 0.30951 0.226 0.80699 0.0
C2310 C 0.31145 0.22074 0.8271 0.0
C2311 C 0.32288 0.23029 0.84194 0.0
C2312 C 0.33204 0.24532 0.83648 0.0
H2313 H 0.7228 0.07331 0.748 0.0
H2314 H 0.71906 0.03083 0.74302 0.0
H2315 H 0.73598 0.03703 0.7748 0.0
H2316 H 0.76164 0.09404 0.76339 0.0
H2317 H 0.75948 0.10576 0.78205 0.0
H2318 H 0.74709 0.09803 0.75885 0.0
H2319 H 0.72426 0.08655 0.78434 0.0
H2320 H 0.73657 0.09432 0.8076 0.0
H2321 H 0.72327 0.07481 0.80641 0.0
H2322 H 0.75328 0.04784 0.80722 0.0
H2323 H 0.76877 0.06203 0.83889 0.0
H2324 H 0.76149 0.09756 0.82224 0.0
C2325 C 0.72549 0.06528 0.75359 0.0
C2326 C 0.71957 0.05157 0.74299 0.0
C2327 C 0.72341 0.04139 0.75087 0.0
C2328 C 0.73306 0.04483 0.76888 0.0
C2329 C 0.73877 0.05848 0.77883 0.0
C2330 C 0.73509 0.06852 0.77153 0.0
C2331 C 0.74261 0.08235 0.78528 0.0
C2332 C 0.75334 0.09584 0.77157 0.0
C2333 C 0.73098 0.08463 0.79658 0.0
C2334 C 0.75103 0.07848 0.80153 0.0
C2335 C 0.74874 0.0647 0.79747 0.0
C2336 C 0.75522 0.05868 0.8105 0.0
C2337 C 0.7641 0.06687 0.82835 0.0
C2338 C 0.7664 0.08093 0.83303 0.0
C2339 C 0.75987 0.08681 0.81922 0.0
H2340 H 0.04268 0.38536 0.06254 0.0
H2341 H 0.02699 0.36575 0.99856 0.0
H2342 H 0.0457 0.35837 0.99865 0.0
H2343 H 0.08275 0.39861 0.05387 0.0
H2344 H 0.08535 0.39448 0.08153 0.0
H2345 H 0.07184 0.39966 0.07538 0.0
H2346 H 0.05122 0.37567 0.09349 0.0
H2347 H 0.06462 0.37041 0.09962 0.0
H2348 H 0.04795 0.35819 0.08419 0.0
H2349 H 0.06363 0.35008 0.00789 0.0
H2350 H 0.08054 0.34292 0.02487 0.0
H2351 H 0.0855 0.36896 0.08177 0.0
C2352 C 0.04338 0.37979 0.04834 0.0
C2353 C 0.03335 0.37616 0.03054 0.0
C2354 C 0.03457 0.36873 0.01236 0.0
C2355 C 0.04518 0.36448 0.01225 0.0
C2356 C 0.05465 0.36792 0.03028 0.0
C2357 C 0.05399 0.37558 0.04787 0.0
C2358 C 0.06488 0.37719 0.06573 0.0
C2359 C 0.07692 0.39345 0.06933 0.0
C2360 C 0.05667 0.36993 0.087 0.0
C2361 C 0.07141 0.36883 0.05574 0.0
C2362 C 0.0654 0.3636 0.03525 0.0
C2363 C 0.06869 0.35442 0.02368 0.0
C2364 C 0.07826 0.35039 0.0334 0.0
C2365 C 0.08452 0.35568 0.05432 0.0
C2366 C 0.08121 0.36517 0.06545 0.0
H2367 H 0.64287 0.68321 0.04114 0.0
H2368 H 0.66548 0.69944 0.97947 0.0
H2369 H 0.67151 0.72446 0.98896 0.0
H2370 H 0.62734 0.70704 0.04347 0.0
H2371 H 0.63016 0.70957 0.07252 0.0
H2372 H 0.62675 0.69276 0.06022 0.0
H2373 H 0.65122 0.69671 0.0777 0.0
H2374 H 0.6547 0.71352 0.09001 0.0
H2375 H 0.66855 0.71368 0.07281 0.0
H2376 H 0.67661 0.74806 0.00629 0.0
H2377 H 0.6799 0.76829 0.02994 0.0
H2378 H 0.65384 0.73657 0.08004 0.0
C2379 C 0.64892 0.69197 0.02948 0.0
C2380 C 0.65367 0.68933 0.00952 0.0
C2381 C 0.66168 0.70116 0.99484 0.0
C2382 C 0.66515 0.71543 7e-05 0.0
C2383 C 0.66047 0.71768 0.01999 0.0
C2384 C 0.65246 0.70626 0.03442 0.0
C2385 C 0.64925 0.71171 0.05513 0.0
C2386 C 0.63237 0.70486 0.05799 0.0
C2387 C 0.65636 0.70873 0.07508 0.0
C2388 C 0.65693 0.72801 0.05026 0.0
C2389 C 0.66329 0.73124 0.02988 0.0
C2390 C 0.67155 0.74565 0.0222 0.0
C2391 C 0.67342 0.75706 0.03576 0.0
C2392 C 0.66704 0.754 0.05674 0.0
C2393 C 0.65859 0.73924 0.06391 0.0
H2394 H 0.30766 0.93866 0.0305 0.0
H2395 H 0.31542 0.98278 0.0246 0.0
H2396 H 0.29005 0.97383 0.03813 0.0
H2397 H 0.26783 0.91864 0.01533 0.0
H2398 H 0.26326 0.90425 0.03494 0.0
H2399 H 0.28145 0.91383 0.02278 0.0
H2400 H 0.2938 0.92059 0.06119 0.0
H2401 H 0.27568 0.91108 0.07345 0.0
H2402 H 0.28868 0.93013 0.07995 0.0
H2403 H 0.26451 0.96043 0.05464 0.0
H2404 H 0.24114 0.94383 0.07399 0.0
H2405 H 0.2501 0.90848 0.06908 0.0
C2406 C 0.30395 0.94641 0.03168 0.0
C2407 C 0.31351 0.96141 0.02636 0.0
C2408 C 0.30829 0.97123 0.02851 0.0
C2409 C 0.29388 0.96624 0.03612 0.0
C2410 C 0.28482 0.95141 0.04149 0.0
C2411 C 0.28966 0.94164 0.03936 0.0
C2412 C 0.27814 0.92649 0.0476 0.0
C2413 C 0.27233 0.91513 0.02905 0.0
C2414 C 0.28445 0.92181 0.06668 0.0
C2415 C 0.2662 0.92934 0.05511 0.0
C2416 C 0.27018 0.94373 0.05121 0.0
C2417 C 0.26119 0.94908 0.05754 0.0
C2418 C 0.24788 0.93954 0.06841 0.0
C2419 C 0.24373 0.92482 0.07298 0.0
C2420 C 0.25297 0.91967 0.06591 0.0
H2421 H 0.3552 0.03026 0.99439 0.0
H2422 H 0.39273 0.05303 0.03937 0.0
H2423 H 0.39432 0.07653 0.03057 0.0
H2424 H 0.36917 0.0576 0.95384 0.0
H2425 H 0.35124 0.05497 0.94643 0.0
H2426 H 0.35241 0.03991 0.95757 0.0
H2427 H 0.33408 0.03663 0.98803 0.0
H2428 H 0.33286 0.05171 0.97698 0.0
H2429 H 0.33828 0.05206 0.00508 0.0
H2430 H 0.39271 0.09781 0.01493 0.0
H2431 H 0.38802 0.11496 0.99387 0.0
H2432 H 0.35168 0.07801 0.95918 0.0
C2433 C 0.36366 0.04014 0.00263 0.0
C2434 C 0.37383 0.03978 0.01763 0.0
C2435 C 0.38479 0.05301 0.02787 0.0
C2436 C 0.38577 0.06641 0.02299 0.0
C2437 C 0.37566 0.06637 0.00792 0.0
C2438 C 0.36479 0.05355 0.99796 0.0
C2439 C 0.3557 0.05651 0.98162 0.0
C2440 C 0.35723 0.05198 0.9585 0.0
C2441 C 0.33926 0.04877 0.98834 0.0
C2442 C 0.36328 0.07303 0.98368 0.0
C2443 C 0.37472 0.07854 0.999 0.0
C2444 C 0.3837 0.09359 0.00303 0.0
C2445 C 0.381 0.10325 0.99092 0.0
C2446 C 0.36943 0.09783 0.97498 0.0
C2447 C 0.3604 0.08249 0.97157 0.0
H2448 H 0.93431 0.32146 0.01276 0.0
H2449 H 0.9786 0.32967 0.00021 0.0
H2450 H 0.96756 0.30368 0.98938 0.0
H2451 H 0.91797 0.28277 0.03284 0.0
H2452 H 0.90021 0.27708 0.01999 0.0
H2453 H 0.91178 0.29564 0.02994 0.0
H2454 H 0.91098 0.30569 0.99166 0.0
H2455 H 0.89951 0.28723 0.98159 0.0
H2456 H 0.91683 0.2998 0.96839 0.0
H2457 H 0.95143 0.27803 0.97446 0.0
H2458 H 0.93181 0.25504 0.95727 0.0
H2459 H 0.89808 0.26309 0.98167 0.0
C2460 C 0.94174 0.31774 0.00824 0.0
C2461 C 0.95733 0.32761 0.00733 0.0
C2462 C 0.96663 0.3223 0.00114 0.0
C2463 C 0.96046 0.30754 0.995 0.0
C2464 C 0.94499 0.29819 0.99551 0.0
C2465 C 0.93578 0.30305 0.00226 0.0
C2466 C 0.91948 0.29119 -0.00034 0.0
C2467 C 0.91192 0.28638 0.02194 0.0
C2468 C 0.91123 0.29628 0.98442 0.0
C2469 C 0.92093 0.27914 0.98936 0.0
C2470 C 0.93572 0.28328 0.98737 0.0
C2471 C 0.93981 0.27451 0.97643 0.0
C2472 C 0.92854 0.26139 0.9668 0.0
C2473 C 0.91332 0.25715 0.96811 0.0
C2474 C 0.90956 0.26598 0.98023 0.0
H2475 H 0.69075 0.63423 0.99797 0.0
H2476 H 0.68933 0.67428 0.99879 0.0
H2477 H 0.7159 0.68863 0.98876 0.0
H2478 H 0.72937 0.65087 0.01951 0.0
H2479 H 0.73329 0.63966 0.00233 0.0
H2480 H 0.71456 0.63272 0.01161 0.0
H2481 H 0.70491 0.62786 0.97162 0.0
H2482 H 0.72358 0.63481 0.96223 0.0
H2483 H 0.71306 0.64274 0.95222 0.0
H2484 H 0.74162 0.69816 0.97468 0.0
H2485 H 0.76471 0.70236 0.95834 0.0
H2486 H 0.75013 0.65637 0.9689 0.0
C2487 C 0.69607 0.64605 0.99638 0.0
C2488 C 0.68792 0.65312 0.99919 0.0
C2489 C 0.69532 0.6686 0.99682 0.0
C2490 C 0.71042 0.67686 0.99114 0.0
C2491 C 0.71804 0.66951 0.98816 0.0
C2492 C 0.71116 0.65447 0.99089 0.0
C2493 C 0.72166 0.64917 0.98565 0.0
C2494 C 0.72491 0.64272 0.00599 0.0
C2495 C 0.71543 0.63799 0.96681 0.0
C2496 C 0.73536 0.66351 0.97885 0.0
C2497 C 0.73307 0.67511 0.98057 0.0
C2498 C 0.74368 0.68923 0.97373 0.0
C2499 C 0.75689 0.69151 0.9646 0.0
C2500 C 0.7595 0.67976 0.96243 0.0
C2501 C 0.74861 0.66564 0.97014 0.0
H2502 H 0.96735 0.64896 0.0208 0.0
H2503 H 0.96276 0.6173 0.97241 0.0
H2504 H 0.9428 0.61923 0.95393 0.0
H2505 H 0.92723 0.63709 0.02238 0.0
H2506 H 0.93142 0.6557 0.02543 0.0
H2507 H 0.94412 0.65055 0.03627 0.0
H2508 H 0.96562 0.67149 0.01415 0.0
H2509 H 0.953 0.67666 0.0032 0.0
H2510 H 0.96347 0.67226 0.98507 0.0
H2511 H 0.92543 0.62672 0.93839 0.0
H2512 H 0.91205 0.63905 0.92708 0.0
H2513 H 0.92695 0.66503 0.98649 0.0
C2514 C 0.96195 0.6422 0.00658 0.0
C2515 C 0.96662 0.63294 0.99812 0.0
C2516 C 0.95937 0.62443 0.97928 0.0
C2517 C 0.94798 0.62543 0.96868 0.0
C2518 C 0.94385 0.63489 0.9772 0.0
C2519 C 0.95053 0.64304 0.99582 0.0
C2520 C 0.94473 0.65309 0.00081 0.0
C2521 C 0.93638 0.64885 0.02251 0.0
C2522 C 0.95747 0.66933 0.0008 0.0
C2523 C 0.93411 0.64968 0.98169 0.0
C2524 C 0.93365 0.63904 0.96838 0.0
C2525 C 0.92546 0.63484 0.94893 0.0
C2526 C 0.91777 0.64186 0.94272 0.0
C2527 C 0.91827 0.65301 0.95589 0.0
C2528 C 0.92633 0.65664 0.9759 0.0
H2529 H 0.35461 0.32389 0.99 0.0
H2530 H 0.39726 0.33941 0.02263 0.0
H2531 H 0.39562 0.316 0.01397 0.0
H2532 H 0.33707 0.28613 0.00702 0.0
H2533 H 0.32738 0.27884 0.98145 0.0
H2534 H 0.33184 0.29679 0.99032 0.0
H2535 H 0.34579 0.30816 0.95427 0.0
H2536 H 0.3413 0.29024 0.94525 0.0
H2537 H 0.36047 0.30519 0.94626 0.0
H2538 H 0.38922 0.29072 0.00195 0.0
H2539 H 0.37887 0.26582 0.98655 0.0
H2540 H 0.34082 0.26722 0.96089 0.0
C2541 C 0.36361 0.32238 0.99535 0.0
C2542 C 0.37606 0.33351 0.00705 0.0
C2543 C 0.38761 0.33108 0.01364 0.0
C2544 C 0.38677 0.31779 0.00884 0.0
C2545 C 0.37433 0.30704 0.99735 0.0
C2546 C 0.36299 0.30921 0.9906 0.0
C2547 C 0.35094 0.29599 0.97819 0.0
C2548 C 0.33592 0.28903 0.98996 0.0
C2549 C 0.34955 0.30015 0.9546 0.0
C2550 C 0.35727 0.28603 0.97908 0.0
C2551 C 0.37074 0.29258 0.99024 0.0
C2552 C 0.37869 0.2855 0.99311 0.0
C2553 C 0.37275 0.27138 0.9842 0.0
C2554 C 0.359 0.26448 0.97251 0.0
C2555 C 0.35121 0.272 0.97004 0.0
H2556 H 0.67774 0.02851 0.9989 0.0
H2557 H 0.66683 0.0627 0.99871 0.0
H2558 H 0.69296 0.08125 0.99111 0.0
H2559 H 0.71558 0.05141 0.02389 0.0
H2560 H 0.72342 0.04324 0.00736 0.0
H2561 H 0.70406 0.03261 0.01489 0.0
H2562 H 0.69635 0.02716 0.9742 0.0
H2563 H 0.71565 0.03779 0.96653 0.0
H2564 H 0.7025 0.04226 0.95535 0.0
H2565 H 0.71913 0.09562 0.97931 0.0
H2566 H 0.74416 0.10524 0.96502 0.0
H2567 H 0.73947 0.06253 0.97546 0.0
C2568 C 0.68091 0.03993 0.99763 0.0
C2569 C 0.67017 0.0441 0.9994 0.0
C2570 C 0.67478 0.05916 0.99742 0.0
C2571 C 0.68964 0.06984 0.99317 0.0
C2572 C 0.69987 0.06536 0.99114 0.0
C2573 C 0.6958 0.05081 0.99349 0.0
C2574 C 0.70896 0.04897 0.98939 0.0
C2575 C 0.71326 0.04375 0.01012 0.0
C2576 C 0.70566 0.03842 0.97023 0.0
C2577 C 0.72086 0.06466 0.98367 0.0
C2578 C 0.71535 0.0739 0.98494 0.0
C2579 C 0.72374 0.0886 0.97879 0.0
C2580 C 0.73811 0.09401 0.97085 0.0
C2581 C 0.74415 0.08482 0.96927 0.0
C2582 C 0.73537 0.06997 0.97625 0.0
H2583 H 0.62893 0.95812 0.02069 0.0
H2584 H 0.67167 0.98839 0.99137 0.0
H2585 H 0.68065 0.97181 0.00141 0.0
H2586 H 0.64261 0.94804 0.06572 0.0
H2587 H 0.62793 0.92893 0.06578 0.0
H2588 H 0.62437 0.94259 0.05492 0.0
H2589 H 0.6156 0.92847 0.0183 0.0
H2590 H 0.61908 0.91471 0.02909 0.0
H2591 H 0.62777 0.92414 0.00415 0.0
H2592 H 0.68598 0.95359 0.0183 0.0
H2593 H 0.687 0.93438 0.03896 0.0
H2594 H 0.63994 0.91425 0.05423 0.0
C2595 C 0.6401 0.96116 0.01613 0.0
C2596 C 0.6496 0.97458 0.00525 0.0
C2597 C 0.66416 0.97815 -0.0004 0.0
C2598 C 0.66937 0.9688 0.00525 0.0
C2599 C 0.65982 0.95578 0.01622 0.0
C2600 C 0.64543 0.95183 0.02135 0.0
C2601 C 0.63761 0.93737 0.0337 0.0
C2602 C 0.63286 0.93936 0.05637 0.0
C2603 C 0.62422 0.92547 0.02052 0.0
C2604 C 0.65004 0.93409 0.03532 0.0
C2605 C 0.66273 0.94484 0.0251 0.0
C2606 C 0.67599 0.94487 0.02587 0.0
C2607 C 0.67638 0.93371 0.03757 0.0
C2608 C 0.6635 0.92242 0.04821 0.0
C2609 C 0.65009 0.9226 0.04658 0.0
H2610 H 0.06145 0.67888 0.02326 0.0
H2611 H 0.01714 0.67251 0.02568 0.0
H2612 H 0.02814 0.69811 0.03856 0.0
H2613 H 0.07484 0.69812 0.07085 0.0
H2614 H 0.09356 0.71056 0.06164 0.0
H2615 H 0.08252 0.69269 0.04938 0.0
H2616 H 0.0863 0.70466 0.01124 0.0
H2617 H 0.09749 0.72263 0.02338 0.0
H2618 H 0.08146 0.71844 0.00671 0.0
H2619 H 0.04368 0.72305 0.05633 0.0
H2620 H 0.06227 0.74514 0.07657 0.0
H2621 H 0.09652 0.73552 0.06088 0.0
C2622 C 0.05406 0.68295 0.02599 0.0
C2623 C 0.03843 0.67368 0.02345 0.0
C2624 C 0.02916 0.67943 0.02737 0.0
C2625 C 0.03531 0.69396 0.03468 0.0
C2626 C 0.05075 0.70266 0.03764 0.0
C2627 C 0.06 0.6974 0.03313 0.0
C2628 C 0.07606 0.70846 0.03924 0.0
C2629 C 0.08209 0.70207 0.05629 0.0
C2630 C 0.08591 0.71387 0.01893 0.0
C2631 C 0.07434 0.72053 0.04883 0.0
C2632 C 0.0597 0.71709 0.04752 0.0
C2633 C 0.05523 0.72602 0.05698 0.0
C2634 C 0.06592 0.73862 0.06837 0.0
C2635 C 0.08094 0.74218 0.07029 0.0
C2636 C 0.08517 0.73313 0.05984 0.0
H2637 H 0.31928 0.3785 0.02275 0.0
H2638 H 0.31841 0.338 0.03601 0.0
H2639 H 0.29168 0.32585 0.04555 0.0
H2640 H 0.29878 0.37716 0.06568 0.0
H2641 H 0.28878 0.38451 0.05186 0.0
H2642 H 0.30681 0.38908 0.04243 0.0
H2643 H 0.2957 0.37928 0.00394 0.0
H2644 H 0.27758 0.37477 0.01323 0.0
H2645 H 0.27993 0.36081 0.00087 0.0
H2646 H 0.26652 0.31975 0.05989 0.0
H2647 H 0.24533 0.32 0.07632 0.0
H2648 H 0.26233 0.3641 0.05127 0.0
C2649 C 0.31337 0.36695 0.0271 0.0
C2650 C 0.32089 0.35917 0.02867 0.0
C2651 C 0.31281 0.34411 0.03452 0.0
C2652 C 0.29764 0.33714 0.03997 0.0
C2653 C 0.29068 0.34531 0.03898 0.0
C2654 C 0.29826 0.35983 0.03228 0.0
C2655 C 0.28877 0.36664 0.03428 0.0
C2656 C 0.29623 0.38013 0.04947 0.0
C2657 C 0.28529 0.3706 0.01173 0.0
C2658 C 0.27493 0.35396 0.0443 0.0
C2659 C 0.2761 0.34167 0.04665 0.0
C2660 C 0.26531 0.32917 0.0576 0.0
C2661 C 0.25325 0.32939 0.06681 0.0
C2662 C 0.25209 0.34206 0.0651 0.0
C2663 C 0.26286 0.35425 0.053 0.0
H2664 H 0.6916 0.67355 0.34094 0.0
H2665 H 0.7189 0.72118 0.34007 0.0
H2666 H 0.74095 0.71983 0.35129 0.0
H2667 H 0.70684 0.66933 0.38889 0.0
H2668 H 0.70565 0.65247 0.38101 0.0
H2669 H 0.69281 0.65716 0.36947 0.0
H2670 H 0.70078 0.65496 0.33061 0.0
H2671 H 0.71367 0.65024 0.34206 0.0
H2672 H 0.72022 0.66553 0.3235 0.0
H2673 H 0.75959 0.71311 0.36514 0.0
H2674 H 0.77266 0.70196 0.38276 0.0
H2675 H 0.73217 0.65891 0.37748 0.0
C2676 C 0.70231 0.6837 0.34245 0.0
C2677 C 0.70362 0.69748 0.33924 0.0
C2678 C 0.71771 0.71051 0.34221 0.0
C2679 C 0.73028 0.70984 0.34851 0.0
C2680 C 0.72852 0.69604 0.35199 0.0
C2681 C 0.71484 0.68322 0.34915 0.0
C2682 C 0.71543 0.66988 0.3563 0.0
C2683 C 0.70455 0.66174 0.37503 0.0
C2684 C 0.71235 0.65955 0.33696 0.0
C2685 C 0.73151 0.67719 0.36398 0.0
C2686 C 0.73898 0.69225 0.36099 0.0
C2687 C 0.75383 0.70132 0.36752 0.0
C2688 C 0.76113 0.69487 0.37771 0.0
C2689 C 0.75352 0.6795 0.3817 0.0
C2690 C 0.73854 0.67062 0.37436 0.0
H2691 H 0.30434 0.00945 0.38422 0.0
H2692 H 0.3091 0.01837 0.31473 0.0
H2693 H 0.31261 0.04281 0.32138 0.0
H2694 H 0.28451 0.02865 0.39584 0.0
H2695 H 0.29399 0.03556 0.42165 0.0
H2696 H 0.29072 0.01831 0.41132 0.0
H2697 H 0.31901 0.02797 0.41453 0.0
H2698 H 0.32235 0.0452 0.42489 0.0
H2699 H 0.33215 0.04493 0.40121 0.0
H2700 H 0.31763 0.06702 0.33576 0.0
H2701 H 0.32363 0.08916 0.35696 0.0
H2702 H 0.31519 0.06437 0.41691 0.0
C2703 C 0.30592 0.01645 0.37036 0.0
C2704 C 0.30642 0.01195 0.34893 0.0
C2705 C 0.30865 0.02153 0.33129 0.0
C2706 C 0.31062 0.03544 0.33489 0.0
C2707 C 0.31024 0.03959 0.35621 0.0
C2708 C 0.30788 0.03036 0.37365 0.0
C2709 C 0.30866 0.03775 0.39504 0.0
C2710 C 0.29357 0.02958 0.40664 0.0
C2711 C 0.3213 0.03904 0.40978 0.0
C2712 C 0.31215 0.05268 0.38694 0.0
C2713 C 0.31293 0.05349 0.36448 0.0
C2714 C 0.31686 0.06646 0.35333 0.0
C2715 C 0.32028 0.07897 0.36548 0.0
C2716 C 0.31971 0.07842 0.38852 0.0
C2717 C 0.31537 0.06502 0.39929 0.0
H2718 H 0.97602 0.27843 0.35996 0.0
H2719 H 0.98366 0.32257 0.3566 0.0
H2720 H 0.95807 0.31315 0.36977 0.0
H2721 H 0.93604 0.25829 0.3447 0.0
H2722 H 0.93173 0.24367 0.36375 0.0
H2723 H 0.94984 0.25357 0.35136 0.0
H2724 H 0.96241 0.25988 0.38964 0.0
H2725 H 0.94438 0.25005 0.40212 0.0
H2726 H 0.95728 0.26904 0.40909 0.0
H2727 H 0.93233 0.29914 0.3861 0.0
H2728 H 0.90928 0.2821 0.40594 0.0
H2729 H 0.91894 0.24735 0.39924 0.0
C2730 C 0.97223 0.28609 0.36149 0.0
C2731 C 0.9818 0.30123 0.35705 0.0
C2732 C 0.9765 0.31092 0.3598 0.0
C2733 C 0.96196 0.30565 0.3672 0.0
C2734 C 0.95291 0.29069 0.37179 0.0
C2735 C 0.95786 0.28105 0.36906 0.0
C2736 C 0.94652 0.26576 0.37697 0.0
C2737 C 0.94069 0.25467 0.35806 0.0
C2738 C 0.95304 0.26091 0.39555 0.0
C2739 C 0.93453 0.26834 0.38508 0.0
C2740 C 0.93829 0.28271 0.38163 0.0
C2741 C 0.9292 0.28782 0.38864 0.0
C2742 C 0.9161 0.27804 0.3998 0.0
C2743 C 0.9123 0.2634 0.40406 0.0
C2744 C 0.92156 0.25849 0.39623 0.0
H2745 H 0.02546 0.3717 0.33696 0.0
H2746 H 0.07142 0.39284 0.35981 0.0
H2747 H 0.07512 0.4171 0.35021 0.0
H2748 H 0.03263 0.39363 0.29108 0.0
H2749 H 0.01582 0.39424 0.29234 0.0
H2750 H 0.01619 0.3788 0.30366 0.0
H2751 H 0.00784 0.38314 0.34092 0.0
H2752 H 0.00741 0.39862 0.32968 0.0
H2753 H 0.01848 0.40094 0.35375 0.0
H2754 H 0.07452 0.43877 0.33479 0.0
H2755 H 0.06975 0.45609 0.31444 0.0
H2756 H 0.02431 0.42073 0.30118 0.0
C2757 C 0.03621 0.38144 0.34045 0.0
C2758 C 0.04813 0.38036 0.3493 0.0
C2759 C 0.06211 0.39338 0.35314 0.0
C2760 C 0.0643 0.40722 0.34779 0.0
C2761 C 0.05241 0.40787 0.33865 0.0
C2762 C 0.03861 0.39532 0.33508 0.0
C2763 C 0.02803 0.39888 0.32342 0.0
C2764 C 0.02287 0.39092 0.30132 0.0
C2765 C 0.01465 0.39518 0.33781 0.0
C2766 C 0.03812 0.41535 0.32052 0.0
C2767 C 0.05209 0.42035 0.32962 0.0
C2768 C 0.06358 0.43501 0.32783 0.0
C2769 C 0.06079 0.44474 0.31616 0.0
C2770 C 0.04664 0.43979 0.30633 0.0
C2771 C 0.03513 0.42494 0.30892 0.0
H2772 H 0.6111 0.65458 0.34335 0.0
H2773 H 0.65571 0.66175 0.3488 0.0
H2774 H 0.64584 0.63589 0.33878 0.0
H2775 H 0.59074 0.61563 0.36317 0.0
H2776 H 0.57558 0.6103 0.34402 0.0
H2777 H 0.58575 0.62878 0.35465 0.0
H2778 H 0.59142 0.63907 0.3153 0.0
H2779 H 0.58138 0.62066 0.30456 0.0
H2780 H 0.6005 0.63309 0.29699 0.0
H2781 H 0.63194 0.61052 0.32369 0.0
H2782 H 0.61504 0.58734 0.30473 0.0
H2783 H 0.57893 0.59583 0.31026 0.0
C2784 C 0.61872 0.6506 0.34301 0.0
C2785 C 0.63419 0.6602 0.34689 0.0
C2786 C 0.64384 0.65464 0.34583 0.0
C2787 C 0.63832 0.63993 0.34026 0.0
C2788 C 0.6231 0.63086 0.33594 0.0
C2789 C 0.61339 0.63592 0.3374 0.0
C2790 C 0.59776 0.62423 0.33013 0.0
C2791 C 0.58681 0.61945 0.34913 0.0
C2792 C 0.59246 0.62959 0.31059 0.0
C2793 C 0.60033 0.61203 0.32361 0.0
C2794 C 0.61498 0.61603 0.32737 0.0
C2795 C 0.62034 0.6071 0.32114 0.0
C2796 C 0.61056 0.59383 0.31048 0.0
C2797 C 0.59549 0.58951 0.30611 0.0
C2798 C 0.59033 0.5987 0.31324 0.0
H2799 H 0.35303 0.96399 0.3386 0.0
H2800 H 0.3455 0.99948 0.32297 0.0
H2801 H 0.37069 0.01375 0.3073 0.0
H2802 H 0.39307 0.98802 0.35302 0.0
H2803 H 0.39785 0.97549 0.34156 0.0
H2804 H 0.37963 0.96852 0.35292 0.0
H2805 H 0.36739 0.9554 0.31642 0.0
H2806 H 0.38554 0.96239 0.30492 0.0
H2807 H 0.37232 0.96598 0.29159 0.0
H2808 H 0.3952 0.02266 0.28933 0.0
H2809 H 0.41808 0.02662 0.27275 0.0
H2810 H 0.41108 0.98654 0.30345 0.0
C2811 C 0.35676 0.97485 0.33214 0.0
C2812 C 0.34729 0.98061 0.33194 0.0
C2813 C 0.35258 0.99487 0.32338 0.0
C2814 C 0.36687 0.00305 0.31442 0.0
C2815 C 0.37582 0.99694 0.31453 0.0
C2816 C 0.37108 0.98327 0.32348 0.0
C2817 C 0.38278 0.9791 0.32107 0.0
C2818 C 0.38868 0.97771 0.34348 0.0
C2819 C 0.37664 0.96488 0.3077 0.0
C2820 C 0.39462 0.99234 0.3087 0.0
C2821 C 0.39037 0.00248 0.30511 0.0
C2822 C 0.39886 0.01501 0.29256 0.0
C2823 C 0.41201 0.01722 0.28335 0.0
C2824 C 0.41678 0.00707 0.28692 0.0
C2825 C 0.40793 0.99456 0.30013 0.0
H2826 H 0.64715 0.00121 0.35126 0.0
H2827 H 0.62731 0.95462 0.33802 0.0
H2828 H 0.6041 0.95316 0.32561 0.0
H2829 H 0.61247 0.99913 0.36926 0.0
H2830 H 0.61745 0.01633 0.35631 0.0
H2831 H 0.63184 0.01334 0.36666 0.0
H2832 H 0.64401 0.01936 0.32861 0.0
H2833 H 0.62966 0.02231 0.31815 0.0
H2834 H 0.63298 0.00914 0.30521 0.0
H2835 H 0.5842 0.9573 0.31084 0.0
H2836 H 0.56919 0.96672 0.29465 0.0
H2837 H 0.60148 0.01047 0.31866 0.0
C2838 C 0.63782 0.99062 0.34619 0.0
C2839 C 0.63906 0.97802 0.3457 0.0
C2840 C 0.62664 0.96443 0.33862 0.0
C2841 C 0.61338 0.96347 0.33159 0.0
C2842 C 0.61265 0.97617 0.33187 0.0
C2843 C 0.6245 0.98947 0.33911 0.0
C2844 C 0.62123 0.00169 0.33627 0.0
C2845 C 0.62071 0.00799 0.35845 0.0
C2846 C 0.63265 0.01383 0.32116 0.0
C2847 C 0.60588 0.99326 0.32567 0.0
C2848 C 0.60106 0.97853 0.3235 0.0
C2849 C 0.58771 0.96876 0.31284 0.0
C2850 C 0.57918 0.97422 0.30381 0.0
C2851 C 0.58401 0.98936 0.30544 0.0
C2852 C 0.59742 0.99887 0.31699 0.0
H2853 H 0.02313 0.65739 0.32554 0.0
H2854 H 0.06446 0.67033 0.36051 0.0
H2855 H 0.06264 0.64723 0.34928 0.0
H2856 H 0.00437 0.61877 0.3379 0.0
H2857 H 0.99559 0.61304 0.31141 0.0
H2858 H 1.00005 0.63055 0.32233 0.0
H2859 H 0.01542 0.64371 0.28798 0.0
H2860 H 0.01094 0.62624 0.2769 0.0
H2861 H 0.03016 0.64083 0.27997 0.0
H2862 H 0.05613 0.6225 0.33462 0.0
H2863 H 0.04597 0.5985 0.31638 0.0
H2864 H 0.00944 0.60218 0.28984 0.0
C2865 C 0.0318 0.65537 0.33087 0.0
C2866 C 0.04393 0.66568 0.34397 0.0
C2867 C 0.05507 0.66263 0.35045 0.0
C2868 C 0.05412 0.64951 0.3442 0.0
C2869 C 0.04199 0.63957 0.33137 0.0
C2870 C 0.03108 0.64238 0.32465 0.0
C2871 C 0.01936 0.62999 0.31056 0.0
C2872 C 0.00393 0.62266 0.32119 0.0
C2873 C 0.01895 0.63552 0.28749 0.0
C2874 C 0.02537 0.61977 0.31047 0.0
C2875 C 0.03839 0.62546 0.32263 0.0
C2876 C 0.04598 0.61797 0.32495 0.0
C2877 C 0.04015 0.60437 0.31442 0.0
C2878 C 0.0269 0.59838 0.3016 0.0
C2879 C 0.01945 0.60626 0.29976 0.0
H2880 H 0.35339 0.37092 0.32342 0.0
H2881 H 0.34924 0.40657 0.34876 0.0
H2882 H 0.37569 0.42417 0.34066 0.0
H2883 H 0.39197 0.38497 0.34192 0.0
H2884 H 0.39681 0.37917 0.31751 0.0
H2885 H 0.37789 0.36908 0.32712 0.0
H2886 H 0.3684 0.37259 0.28968 0.0
H2887 H 0.38725 0.38265 0.27997 0.0
H2888 H 0.37599 0.3909 0.27889 0.0
H2889 H 0.40214 0.43811 0.32829 0.0
H2890 H 0.42657 0.44759 0.31099 0.0
H2891 H 0.41332 0.40312 0.29226 0.0
C2892 C 0.35813 0.38239 0.32757 0.0
C2893 C 0.34928 0.38736 0.33683 0.0
C2894 C 0.3558 0.40251 0.34165 0.0
C2895 C 0.37084 0.41259 0.33721 0.0
C2896 C 0.37921 0.40738 0.32785 0.0
C2897 C 0.3731 0.39266 0.323 0.0
C2898 C 0.38429 0.39013 0.3116 0.0
C2899 C 0.38796 0.38025 0.32537 0.0
C2900 C 0.37864 0.38369 0.28868 0.0
C2901 C 0.39754 0.40575 0.31056 0.0
C2902 C 0.39443 0.4155 0.32025 0.0
C2903 C 0.40474 0.43058 0.32071 0.0
C2904 C 0.41855 0.43587 0.31072 0.0
C2905 C 0.42189 0.42613 0.30024 0.0
C2906 C 0.41125 0.41085 0.30046 0.0
H2907 H 0.28956 0.28729 0.37067 0.0
H2908 H 0.33176 0.32202 0.34488 0.0
H2909 H 0.34264 0.30663 0.35125 0.0
H2910 H 0.30449 0.27653 0.41304 0.0
H2911 H 0.29105 0.2571 0.41082 0.0
H2912 H 0.28601 0.27019 0.40236 0.0
H2913 H 0.2786 0.25821 0.36408 0.0
H2914 H 0.28356 0.24502 0.37247 0.0
H2915 H 0.29194 0.25622 0.34868 0.0
H2916 H 0.3498 0.28886 0.36414 0.0
H2917 H 0.35263 0.26963 0.38146 0.0
H2918 H 0.30534 0.24528 0.39666 0.0
C2919 C 0.30102 0.29157 0.36602 0.0
C2920 C 0.30979 0.3059 0.35726 0.0
C2921 C 0.32478 0.31109 0.35156 0.0
C2922 C 0.33107 0.30242 0.35509 0.0
C2923 C 0.32222 0.28848 0.3641 0.0
C2924 C 0.30747 0.28299 0.36929 0.0
C2925 C 0.30064 0.2679 0.3797 0.0
C2926 C 0.29523 0.26794 0.40285 0.0
C2927 C 0.28793 0.25614 0.36537 0.0
C2928 C 0.31399 0.26598 0.38016 0.0
C2929 C 0.32628 0.27795 0.37097 0.0
C2930 C 0.34017 0.27925 0.3709 0.0
C2931 C 0.34161 0.2681 0.38067 0.0
C2932 C 0.32919 0.25563 0.3903 0.0
C2933 C 0.31514 0.25457 0.38961 0.0
H2934 H 0.70223 0.01462 0.38315 0.0
H2935 H 0.72851 0.01649 0.32813 0.0
H2936 H 0.74541 0.04323 0.33374 0.0
H2937 H 0.7082 0.05257 0.37779 0.0
H2938 H 0.70997 0.0553 0.40687 0.0
H2939 H 0.69811 0.03709 0.3958 0.0
H2940 H 0.71252 0.02773 0.4186 0.0
H2941 H 0.72436 0.04585 0.4297 0.0
H2942 H 0.7325 0.0368 0.41606 0.0
H2943 H 0.76094 0.06885 0.3476 0.0
H2944 H 0.77533 0.09093 0.37053 0.0
H2945 H 0.74012 0.07203 0.41842 0.0
C2946 C 0.71125 0.02082 0.37188 0.0
C2947 C 0.71397 0.01367 0.35495 0.0
C2948 C 0.7262 0.0219 0.34102 0.0
C2949 C 0.73579 0.03707 0.34401 0.0
C2950 C 0.73307 0.04381 0.3612 0.0
C2951 C 0.72115 0.03594 0.37501 0.0
C2952 C 0.72202 0.04532 0.3941 0.0
C2953 C 0.70878 0.04771 0.3936 0.0
C2954 C 0.72291 0.03852 0.41589 0.0
C2955 C 0.73654 0.05948 0.38926 0.0
C2956 C 0.74251 0.0585 0.3699 0.0
C2957 C 0.75631 0.06981 0.36269 0.0
C2958 C 0.76445 0.08227 0.3759 0.0
C2959 C 0.7589 0.08324 0.39632 0.0
C2960 C 0.74456 0.07182 0.40271 0.0
H2961 H 0.98817 0.70075 0.4047 0.0
H2962 H 0.98425 0.66974 0.35569 0.0
H2963 H 0.95682 0.65529 0.3607 0.0
H2964 H 0.95979 0.67374 0.44032 0.0
H2965 H 0.95346 0.68588 0.44803 0.0
H2966 H 0.97262 0.69337 0.44057 0.0
H2967 H 0.96996 0.70953 0.41118 0.0
H2968 H 0.95075 0.70197 0.41838 0.0
H2969 H 0.95547 0.70091 0.39063 0.0
H2970 H 0.92938 0.64509 0.37013 0.0
H2971 H 0.90502 0.63916 0.38479 0.0
H2972 H 0.92794 0.67636 0.42893 0.0
C2973 C 0.98158 0.69089 0.39504 0.0
C2974 C 0.98831 0.6864 0.37971 0.0
C2975 C 0.9793 0.67335 0.36757 0.0
C2976 C 0.96372 0.66512 0.37025 0.0
C2977 C 0.95743 0.67002 0.38532 0.0
C2978 C 0.96615 0.68251 0.39769 0.0
C2979 C 0.95684 0.68544 0.41298 0.0
C2980 C 0.96092 0.68455 0.43689 0.0
C2981 C 0.95835 0.70034 0.40798 0.0
C2982 C 0.94144 0.67278 0.40711 0.0
C2983 C 0.94192 0.664 0.39109 0.0
C2984 C 0.92892 0.65183 0.38283 0.0
C2985 C 0.91513 0.64852 0.39133 0.0
C2986 C 0.91445 0.6573 0.408 0.0
C2987 C 0.92789 0.66955 0.4159 0.0
H2988 H 0.36368 0.03612 0.71067 0.0
H2989 H 0.35624 0.01915 0.64464 0.0
H2990 H 0.37607 0.01351 0.64996 0.0
H2991 H 0.40433 0.05249 0.71183 0.0
H2992 H 0.40463 0.04744 0.73984 0.0
H2993 H 0.39053 0.05112 0.73042 0.0
H2994 H 0.36985 0.02546 0.744 0.0
H2995 H 0.38387 0.02173 0.7535 0.0
H2996 H 0.36954 0.00928 0.73469 0.0
H2997 H 0.39536 0.00798 0.66323 0.0
H2998 H 0.41281 0.00304 0.68366 0.0
H2999 H 0.4081 0.02392 0.74078 0.0
C3000 C 0.36634 0.03138 0.69724 0.0
C3001 C 0.35839 0.02811 0.67721 0.0
C3002 C 0.36216 0.02179 0.66012 0.0
C3003 C 0.37344 0.01857 0.66296 0.0
C3004 C 0.38096 0.0218 0.68294 0.0
C3005 C 0.37761 0.02811 0.69977 0.0
C3006 C 0.38693 0.02988 0.71994 0.0
C3007 C 0.39722 0.04621 0.72585 0.0
C3008 C 0.37695 0.02106 0.73916 0.0
C3009 C 0.39582 0.02331 0.71193 0.0
C3010 C 0.39226 0.01878 0.6905 0.0
C3011 C 0.39838 0.01163 0.67992 0.0
C3012 C 0.40824 0.00885 0.69165 0.0
C3013 C 0.41192 0.01325 0.71368 0.0
C3014 C 0.40577 0.02076 0.72379 0.0
H3015 H 0.95554 0.34644 0.68521 0.0
H3016 H 0.99799 0.35386 0.70964 0.0
H3017 H 0.00451 0.3783 0.72304 0.0
H3018 H 0.96952 0.38485 0.66846 0.0
H3019 H 0.95273 0.38409 0.67672 0.0
H3020 H 0.95189 0.36766 0.66737 0.0
H3021 H 0.93919 0.35443 0.70331 0.0
H3022 H 0.94002 0.3708 0.71277 0.0
H3023 H 0.94821 0.36254 0.72899 0.0
H3024 H 0.0054 0.40075 0.73695 0.0
H3025 H 1.00078 0.41976 0.75002 0.0
H3026 H 0.95839 0.39865 0.71474 0.0
C3027 C 0.9663 0.35328 0.6931 0.0
C3028 C 0.97625 0.3482 0.69635 0.0
C3029 C 0.99018 0.35749 0.70689 0.0
C3030 C 0.99401 0.37142 0.71454 0.0
C3031 C 0.98387 0.376 0.71134 0.0
C3032 C 0.97035 0.36727 0.70073 0.0
C3033 C 0.96119 0.37455 0.70031 0.0
C3034 C 0.95869 0.37799 0.67681 0.0
C3035 C 0.94627 0.36501 0.71205 0.0
C3036 C 0.97149 0.38852 0.7129 0.0
C3037 C 0.98455 0.38917 0.71897 0.0
C3038 C 0.99535 0.40052 0.73191 0.0
C3039 C 0.99265 0.41138 0.73912 0.0
C3040 C 0.97926 0.41093 0.73331 0.0
C3041 C 0.96871 0.3994 0.71965 0.0
H3042 H 0.6483 0.60186 0.70582 0.0
H3043 H 0.64952 0.63739 0.66899 0.0
H3044 H 0.62271 0.62702 0.67631 0.0
H3045 H 0.60977 0.57266 0.69201 0.0
H3046 H 0.6063 0.56515 0.71918 0.0
H3047 H 0.6249 0.57413 0.70841 0.0
H3048 H 0.63481 0.59185 0.74152 0.0
H3049 H 0.61629 0.58291 0.75239 0.0
H3050 H 0.62645 0.60248 0.74772 0.0
H3051 H 0.59608 0.61334 0.68916 0.0
H3052 H 0.57255 0.59901 0.70919 0.0
H3053 H 0.58987 0.57405 0.74053 0.0
C3054 C 0.64281 0.60724 0.69885 0.0
C3055 C 0.65084 0.62026 0.68654 0.0
C3056 C 0.64347 0.62731 0.67831 0.0
C3057 C 0.62826 0.62147 0.6823 0.0
C3058 C 0.62068 0.6087 0.69478 0.0
C3059 C 0.62776 0.60175 0.70311 0.0
C3060 C 0.61761 0.58917 0.71801 0.0
C3061 C 0.61446 0.57441 0.70885 0.0
C3062 C 0.62418 0.59177 0.74128 0.0
C3063 C 0.60379 0.59024 0.71701 0.0
C3064 C 0.60566 0.60136 0.70319 0.0
C3065 C 0.59451 0.60461 0.70005 0.0
C3066 C 0.58121 0.59647 0.71168 0.0
C3067 C 0.57927 0.5854 0.72665 0.0
C3068 C 0.59072 0.58218 0.72898 0.0
H3069 H 0.71592 0.71765 0.69101 0.0
H3070 H 0.67997 0.68032 0.65611 0.0
H3071 H 0.67239 0.69647 0.63935 0.0
H3072 H 0.69507 0.73647 0.70052 0.0
H3073 H 0.71126 0.75454 0.69657 0.0
H3074 H 0.7134 0.73992 0.70735 0.0
H3075 H 0.73176 0.74413 0.67646 0.0
H3076 H 0.72965 0.75871 0.66558 0.0
H3077 H 0.72594 0.74344 0.64849 0.0
H3078 H 0.67015 0.71653 0.6234 0.0
H3079 H 0.67272 0.73939 0.60998 0.0
H3080 H 0.70877 0.76418 0.65687 0.0
C3081 C 0.70633 0.71286 0.68008 0.0
C3082 C 0.69858 0.69768 0.6749 0.0
C3083 C 0.68614 0.69188 0.66038 0.0
C3084 C 0.68169 0.70096 0.65077 0.0
C3085 C 0.68966 0.71585 0.65594 0.0
C3086 C 0.70163 0.7218 0.67036 0.0
C3087 C 0.70853 0.73832 0.67232 0.0
C3088 C 0.70697 0.74256 0.69558 0.0
C3089 C 0.72494 0.74664 0.66529 0.0
C3090 C 0.69881 0.7407 0.65627 0.0
C3091 C 0.68798 0.72754 0.64714 0.0
C3092 C 0.67833 0.72689 0.63082 0.0
C3093 C 0.67981 0.74005 0.62345 0.0
C3094 C 0.69077 0.75381 0.63253 0.0
C3095 C 0.70026 0.75399 0.64943 0.0
H3096 H 0.30119 0.99047 0.66867 0.0
H3097 H 0.26268 0.99406 0.68189 0.0
H3098 H 0.24605 0.96755 0.67498 0.0
H3099 H 0.28531 0.96655 0.62465 0.0
H3100 H 0.29368 0.95579 0.63066 0.0
H3101 H 0.30279 0.97463 0.63948 0.0
H3102 H 0.30309 0.96653 0.67929 0.0
H3103 H 0.29399 0.94762 0.67058 0.0
H3104 H 0.28586 0.95284 0.69165 0.0
H3105 H 0.23341 0.94149 0.66277 0.0
H3106 H 0.22567 0.91738 0.64629 0.0
H3107 H 0.27212 0.93035 0.64097 0.0
C3108 C 0.28929 0.98559 0.67064 0.0
C3109 C 0.28325 0.99434 0.67591 0.0
C3110 C 0.26758 0.9876 0.67786 0.0
C3111 C 0.25802 0.97252 0.67406 0.0
C3112 C 0.26427 0.96427 0.66837 0.0
C3113 C 0.27954 0.97051 0.66676 0.0
C3114 C 0.28325 0.95937 0.6587 0.0
C3115 C 0.29175 0.96439 0.63709 0.0
C3116 C 0.29207 0.95641 0.6761 0.0
C3117 C 0.26769 0.94605 0.65545 0.0
C3118 C 0.25692 0.94909 0.66134 0.0
C3119 C 0.24173 0.93888 0.65842 0.0
C3120 C 0.23744 0.92526 0.64898 0.0
C3121 C 0.24828 0.92197 0.64259 0.0
C3122 C 0.26358 0.93245 0.6462 0.0
H3123 H 0.01604 0.29169 0.65419 0.0
H3124 H 0.02576 0.33096 0.68937 0.0
H3125 H 0.05241 0.34268 0.67987 0.0
H3126 H 0.05087 0.29292 0.66679 0.0
H3127 H 0.05199 0.28687 0.63993 0.0
H3128 H 0.03404 0.28107 0.65141 0.0
H3129 H 0.02732 0.29147 0.61775 0.0
H3130 H 0.04519 0.29725 0.60618 0.0
H3131 H 0.03958 0.31044 0.61013 0.0
H3132 H 0.0779 0.35036 0.66532 0.0
H3133 H 0.09969 0.35408 0.64491 0.0
H3134 H 0.07257 0.31032 0.6172 0.0
C3135 C 0.02382 0.30266 0.66025 0.0
C3136 C 0.01888 0.31036 0.67274 0.0
C3137 C 0.02933 0.32484 0.67987 0.0
C3138 C 0.04449 0.33155 0.67462 0.0
C3139 C 0.04897 0.32369 0.66209 0.0
C3140 C 0.0389 0.30959 0.65487 0.0
C3141 C 0.04629 0.30394 0.64016 0.0
C3142 C 0.04576 0.2904 0.65018 0.0
C3143 C 0.03917 0.30059 0.6172 0.0
C3144 C 0.06205 0.31712 0.64004 0.0
C3145 C 0.06345 0.32831 0.65302 0.0
C3146 C 0.07692 0.34167 0.65508 0.0
C3147 C 0.08922 0.34371 0.64328 0.0
C3148 C 0.08793 0.33253 0.6293 0.0
C3149 C 0.07413 0.31902 0.62799 0.0
H3150 H 0.30005 0.31257 0.67921 0.0
H3151 H 0.29268 0.27149 0.65296 0.0
H3152 H 0.26867 0.26621 0.63707 0.0
H3153 H 0.26105 0.2993 0.69196 0.0
H3154 H 0.26239 0.31626 0.68392 0.0
H3155 H 0.2786 0.31647 0.69455 0.0
H3156 H 0.29322 0.32992 0.65982 0.0
H3157 H 0.27708 0.32978 0.64913 0.0
H3158 H 0.28564 0.32194 0.63347 0.0
H3159 H 0.24628 0.26592 0.62237 0.0
H3160 H 0.22731 0.27097 0.60858 0.0
H3161 H 0.24862 0.31205 0.64481 0.0
C3162 C 0.29332 0.30239 0.67032 0.0
C3163 C 0.29825 0.29242 0.66741 0.0
C3164 C 0.28917 0.2793 0.65543 0.0
C3165 C 0.27547 0.27617 0.6464 0.0
C3166 C 0.27097 0.28624 0.64948 0.0
C3167 C 0.27961 0.29909 0.6611 0.0
C3168 C 0.27249 0.30837 0.66105 0.0
C3169 C 0.26839 0.3102 0.68425 0.0
C3170 C 0.28272 0.32339 0.65022 0.0
C3171 C 0.25864 0.29882 0.64727 0.0
C3172 C 0.25794 0.28605 0.64097 0.0
C3173 C 0.24657 0.27577 0.62745 0.0
C3174 C 0.23573 0.27871 0.61986 0.0
C3175 C 0.23626 0.29184 0.62577 0.0
C3176 C 0.24783 0.30191 0.63994 0.0
H3177 H 0.68035 0.98101 0.66978 0.0
H3178 H 0.72774 0.00393 0.68534 0.0
H3179 H 0.72839 0.98198 0.67466 0.0
H3180 H 0.67149 0.94426 0.68786 0.0
H3181 H 0.65825 0.93509 0.66592 0.0
H3182 H 0.66121 0.95213 0.67664 0.0
H3183 H 0.66734 0.96351 0.63793 0.0
H3184 H 0.66442 0.94653 0.62711 0.0
H3185 H 0.68188 0.96346 0.62272 0.0
H3186 H 0.7244 0.9584 0.65932 0.0
H3187 H 0.71589 0.93471 0.64082 0.0
H3188 H 0.67114 0.92709 0.63556 0.0
C3189 C 0.69082 0.98135 0.67129 0.0
C3190 C 0.70399 0.9942 0.67845 0.0
C3191 C 0.71749 0.99422 0.67994 0.0
C3192 C 0.71797 0.98179 0.67395 0.0
C3193 C 0.70485 0.96938 0.66663 0.0
C3194 C 0.6915 0.96903 0.66539 0.0
C3195 C 0.67917 0.95462 0.65587 0.0
C3196 C 0.6668 0.94602 0.67257 0.0
C3197 C 0.67284 0.95719 0.63465 0.0
C3198 C 0.68774 0.94705 0.6515 0.0
C3199 C 0.70252 0.95572 0.65796 0.0
C3200 C 0.71282 0.95144 0.65445 0.0
C3201 C 0.70791 0.93801 0.64386 0.0
C3202 C 0.69285 0.92903 0.63695 0.0
C3203 C 0.68264 0.93357 0.64111 0.0
H3204 H 0.03304 0.73771 0.66338 0.0
H3205 H 0.01722 0.6911 0.66719 0.0
H3206 H 0.04261 0.69657 0.65871 0.0
H3207 H 0.0556 0.74543 0.61845 0.0
H3208 H 0.07009 0.76337 0.62769 0.0
H3209 H 0.05122 0.75591 0.63648 0.0
H3210 H 0.06007 0.7593 0.67682 0.0
H3211 H 0.07903 0.76683 0.66814 0.0
H3212 H 0.07061 0.75126 0.68632 0.0
H3213 H 0.06932 0.70715 0.64637 0.0
H3214 H 0.09456 0.72166 0.63086 0.0
H3215 H 0.09262 0.76127 0.63598 0.0
C3216 C 0.0349 0.72863 0.6628 0.0
C3217 C 0.02311 0.71397 0.666 0.0
C3218 C 0.02608 0.70243 0.6649 0.0
C3219 C 0.04047 0.70544 0.66013 0.0
C3220 C 0.05177 0.72003 0.65669 0.0
C3221 C 0.04913 0.73143 0.65811 0.0
C3222 C 0.06282 0.74604 0.65238 0.0
C3223 C 0.05974 0.75309 0.63257 0.0
C3224 C 0.06846 0.75647 0.6721 0.0
C3225 C 0.07351 0.74108 0.64687 0.0
C3226 C 0.06704 0.72608 0.64969 0.0
C3227 C 0.07456 0.71893 0.64444 0.0
C3228 C 0.08894 0.72729 0.63574 0.0
C3229 C 0.09562 0.74263 0.63225 0.0
C3230 C 0.08783 0.74957 0.63836 0.0
H3231 H 0.98564 0.64425 0.66513 0.0
H3232 H 0.95183 0.6433 0.7062 0.0
H3233 H 0.94706 0.62 0.72257 0.0
H3234 H 0.96685 0.60398 0.65682 0.0
H3235 H 0.98423 0.60438 0.65794 0.0
H3236 H 0.98379 0.62007 0.64772 0.0
H3237 H 0.00411 0.63674 0.67604 0.0
H3238 H 0.00458 0.62113 0.68638 0.0
H3239 H 1.00099 0.63212 0.70456 0.0
H3240 H 0.94778 0.59823 0.73707 0.0
H3241 H 0.95399 0.57983 0.74874 0.0
H3242 H 0.9868 0.59444 0.69746 0.0
C3243 C 0.97701 0.63901 0.67725 0.0
C3244 C 0.96907 0.6456 0.6843 0.0
C3245 C 0.95804 0.63846 0.70046 0.0
C3246 C 0.95522 0.62519 0.70983 0.0
C3247 C 0.96345 0.61914 0.70279 0.0
C3248 C 0.97407 0.62577 0.68678 0.0
C3249 C 0.98208 0.61754 0.68318 0.0
C3250 C 0.97905 0.61111 0.66004 0.0
C3251 C 0.99893 0.62747 0.68783 0.0
C3252 C 0.97461 0.6055 0.7001 0.0
C3253 C 0.96379 0.60651 0.71108 0.0
C3254 C 0.95603 0.59716 0.72832 0.0
C3255 C 0.95958 0.58664 0.73473 0.0
C3256 C 0.97083 0.58553 0.72397 0.0
C3257 C 0.97819 0.59497 0.70614 0.0
H3258 H 0.39347 0.33973 0.70688 0.0
H3259 H 0.35337 0.33866 0.68503 0.0
H3260 H 0.36595 0.36553 0.69181 0.0
H3261 H 0.40153 0.3635 0.75046 0.0
H3262 H 0.42149 0.37268 0.74758 0.0
H3263 H 0.40977 0.35396 0.73866 0.0
H3264 H 0.42117 0.36133 0.70009 0.0
H3265 H 0.43289 0.38013 0.7089 0.0
H3266 H 0.42068 0.37586 0.68555 0.0
H3267 H 0.383 0.39262 0.70352 0.0
H3268 H 0.40196 0.41639 0.72004 0.0
H3269 H 0.42964 0.39815 0.73539 0.0
C3270 C 0.38731 0.3451 0.70315 0.0
C3271 C 0.37243 0.33707 0.6953 0.0
C3272 C 0.36481 0.3446 0.69095 0.0
C3273 C 0.37188 0.35985 0.69471 0.0
C3274 C 0.38654 0.36735 0.70277 0.0
C3275 C 0.3941 0.36014 0.70691 0.0
C3276 C 0.40931 0.37022 0.71699 0.0
C3277 C 0.41059 0.36476 0.73977 0.0
C3278 C 0.42174 0.37199 0.70198 0.0
C3279 C 0.40913 0.38427 0.71827 0.0
C3280 C 0.39604 0.38255 0.70979 0.0
C3281 C 0.3933 0.39405 0.7101 0.0
C3282 C 0.40411 0.4075 0.71964 0.0
C3283 C 0.41743 0.40929 0.72897 0.0
C3284 C 0.41989 0.39746 0.72792 0.0
H3285 H 0.64661 0.03982 0.69881 0.0
H3286 H 0.64464 0.99879 0.68582 0.0
H3287 H 0.6176 0.98507 0.69286 0.0
H3288 H 0.6223 0.02702 0.74278 0.0
H3289 H 0.61348 0.03731 0.73632 0.0
H3290 H 0.63233 0.04409 0.72794 0.0
H3291 H 0.6248 0.04514 0.68787 0.0
H3292 H 0.60591 0.03841 0.69615 0.0
H3293 H 0.60955 0.02885 0.67537 0.0
H3294 H 0.59146 0.97567 0.70468 0.0
H3295 H 0.56809 0.97117 0.72054 0.0
H3296 H 0.58662 0.01832 0.72481 0.0
C3297 C 0.64046 0.02797 0.69703 0.0
C3298 C 0.64778 0.0204 0.69167 0.0
C3299 C 0.63931 0.00486 0.68985 0.0
C3300 C 0.62393 0.99696 0.69376 0.0
C3301 C 0.61713 0.00474 0.69937 0.0
C3302 C 0.62509 0.0199 0.7009 0.0
C3303 C 0.61528 0.02553 0.70856 0.0
C3304 C 0.6212 0.03398 0.73018 0.0
C3305 C 0.6138 0.03504 0.69093 0.0
C3306 C 0.60066 0.01113 0.71165 0.0
C3307 C 0.60194 0.9993 0.70604 0.0
C3308 C 0.59022 0.98486 0.70872 0.0
C3309 C 0.57691 0.98243 0.71762 0.0
C3310 C 0.57532 0.99437 0.72377 0.0
C3311 C 0.58738 0.00891 0.72036 0.0
loop_
_geom_bond_atom_site_label_1
_geom_bond_atom_site_label_2
_geom_bond_distance
_geom_bond_site_symmetry_2
_ccdc_geom_bond_type
Zn0 O3 2.031 1_554 S
Zn0 O5 2.049 . S
Zn0 O10 2.067 1_554 S
Zn1 O2 1.962 1_455 S
Zn1 O4 1.986 . S
Zn1 O6 1.996 1_455 S
Zn1 O9 1.943 1_554 S
O2 Zn1 1.962 1_655 S
O2 C7 1.254 . S
O3 Zn0 2.031 1_556 S
O3 C7 1.269 1_556 S
O4 Zn1 1.986 . S
O4 C11 1.262 . S
O5 Zn0 2.049 . S
O5 C13 1.260 . S
O6 Zn1 1.996 1_655 S
O6 C13 1.257 . S
C7 O2 1.254 . S
C7 O3 1.269 1_554 S
C8 O9 1.249 . S
C8 O10 1.270 1_455 S
O9 Zn1 1.943 1_556 S
O9 C8 1.249 . S
O10 Zn0 2.067 1_556 S
O10 C8 1.270 1_655 S
C11 O4 1.262 . S
C11 O12 1.232 . S
O12 C11 1.232 . S
C13 O5 1.260 . S
C13 O6 1.257 . S
Zn14 O17 2.031 1_554 S
Zn14 O19 2.049 . S
Zn14 O24 2.067 1_554 S
Zn15 O16 1.962 . S
Zn15 O18 1.986 . S
Zn15 O20 1.996 . S
Zn15 O23 1.943 1_554 S
O16 Zn15 1.962 . S
O16 C21 1.254 . S
O17 Zn14 2.031 1_556 S
O17 C21 1.269 1_556 S
O18 Zn15 1.986 . S
O18 C25 1.262 . S
O19 Zn14 2.049 . S
O19 C27 1.260 . S
O20 Zn15 1.996 . S
O20 C27 1.257 . S
C21 O16 1.254 . S
C21 O17 1.269 1_554 S
C22 O23 1.249 . S
C22 O24 1.270 . S
O23 Zn15 1.943 1_556 S
O23 C22 1.249 . S
O24 Zn14 2.067 1_556 S
O24 C22 1.270 . S
C25 O18 1.262 . S
C25 O26 1.232 . S
O26 C25 1.232 . S
C27 O19 1.260 . S
C27 O20 1.257 . S
Zn28 O31 2.031 . S
Zn28 O33 2.049 1_554 S
Zn28 O38 2.067 . S
Zn29 O30 1.962 1_545 S
Zn29 O32 1.986 1_554 S
Zn29 O34 1.996 1_544 S
Zn29 O37 1.943 . S
O30 Zn29 1.962 1_565 S
O30 C35 1.254 . S
O31 Zn28 2.031 . S
O31 C35 1.269 . S
O32 Zn29 1.986 1_556 S
O32 C39 1.262 1_556 S
O33 Zn28 2.049 1_556 S
O33 C41 1.260 . S
O34 Zn29 1.996 1_566 S
O34 C41 1.257 . S
C35 O30 1.254 . S
C35 O31 1.269 . S
C36 O37 1.249 . S
C36 O38 1.270 1_545 S
O37 Zn29 1.943 . S
O37 C36 1.249 . S
O38 Zn28 2.067 . S
O38 C36 1.270 1_565 S
C39 O32 1.262 1_554 S
C39 O40 1.232 . S
O40 C39 1.232 . S
C41 O33 1.260 . S
C41 O34 1.257 . S
Zn42 O45 2.031 . S
Zn42 O47 2.049 1_554 S
Zn42 O52 2.067 . S
Zn43 O44 1.962 1_655 S
Zn43 O46 1.986 1_554 S
Zn43 O48 1.996 1_654 S
Zn43 O51 1.943 . S
O44 Zn43 1.962 1_455 S
O44 C49 1.254 . S
O45 Zn42 2.031 . S
O45 C49 1.269 . S
O46 Zn43 1.986 1_556 S
O46 C53 1.262 1_556 S
O47 Zn42 2.049 1_556 S
O47 C55 1.260 . S
O48 Zn43 1.996 1_456 S
O48 C55 1.257 . S
C49 O44 1.254 . S
C49 O45 1.269 . S
C50 O51 1.249 . S
C50 O52 1.270 1_655 S
O51 Zn43 1.943 . S
O51 C50 1.249 . S
O52 Zn42 2.067 . S
O52 C50 1.270 1_455 S
C53 O46 1.262 1_554 S
C53 O54 1.232 . S
O54 C53 1.232 . S
C55 O47 1.260 . S
C55 O48 1.257 . S
Zn56 O59 2.031 . S
Zn56 O61 2.049 1_554 S
Zn56 O66 2.067 . S
Zn57 O58 1.962 . S
Zn57 O60 1.986 1_554 S
Zn57 O62 1.996 1_554 S
Zn57 O65 1.943 . S
O58 Zn57 1.962 . S
O58 C63 1.254 . S
O59 Zn56 2.031 . S
O59 C63 1.269 . S
O60 Zn57 1.986 1_556 S
O60 C67 1.262 1_556 S
O61 Zn56 2.049 1_556 S
O61 C69 1.260 . S
O62 Zn57 1.996 1_556 S
O62 C69 1.257 . S
C63 O58 1.254 . S
C63 O59 1.269 . S
C64 O65 1.249 . S
C64 O66 1.270 . S
O65 Zn57 1.943 . S
O65 C64 1.249 . S
O66 Zn56 2.067 . S
O66 C64 1.270 . S
C67 O60 1.262 1_554 S
C67 O68 1.232 . S
O68 C67 1.232 . S
C69 O61 1.260 . S
C69 O62 1.257 . S
Zn70 O73 2.060 . S
Zn70 O75 2.049 . S
Zn70 O80 2.067 1_554 S
Zn71 O72 1.962 1_565 S
Zn71 O74 1.986 . S
Zn71 O76 1.996 1_565 S
Zn71 O79 1.981 . S
O72 Zn71 1.962 1_545 S
O72 C77 1.254 . S
O73 Zn70 2.060 . S
O73 C77 1.287 . S
O74 Zn71 1.986 . S
O74 C81 1.262 . S
O75 Zn70 2.049 . S
O75 C83 1.260 . S
O76 Zn71 1.996 1_545 S
O76 C83 1.257 . S
C77 O72 1.254 . S
C77 O73 1.287 . S
C78 O79 1.227 1_556 S
C78 O80 1.270 1_565 S
O79 Zn71 1.981 . S
O79 C78 1.227 1_554 S
O80 Zn70 2.067 1_556 S
O80 C78 1.270 1_545 S
C81 O74 1.262 . S
C81 O82 1.232 . S
O82 C81 1.232 . S
C83 O75 1.260 . S
C83 O76 1.257 . S
Zn84 O87 2.031 . S
Zn84 O89 2.049 . S
Zn84 O94 2.067 . S
Zn85 O86 1.962 . S
Zn85 O88 1.986 . S
Zn85 O90 1.996 . S
Zn85 O93 1.943 . S
O86 Zn85 1.962 . S
O86 C91 1.254 . S
O87 Zn84 2.031 . S
O87 C91 1.269 . S
O88 Zn85 1.986 . S
O88 C95 1.262 . S
O89 Zn84 2.049 . S
O89 C97 1.260 . S
O90 Zn85 1.996 . S
O90 C97 1.257 . S
C91 O86 1.254 . S
C91 O87 1.269 . S
C92 O93 1.249 . S
C92 O94 1.270 . S
O93 Zn85 1.943 . S
O93 C92 1.249 . S
O94 Zn84 2.067 . S
O94 C92 1.270 . S
C95 O88 1.262 . S
C95 O96 1.232 . S
O96 C95 1.232 . S
C97 O89 1.260 . S
C97 O90 1.257 . S
Zn98 O101 2.031 . S
Zn98 O103 2.049 . S
Zn98 O108 2.067 . S
Zn99 O100 1.962 . S
Zn99 O102 1.986 . S
Zn99 O104 1.996 . S
Zn99 O107 1.943 . S
O100 Zn99 1.962 . S
O100 C105 1.254 . S
O101 Zn98 2.031 . S
O101 C105 1.269 . S
O102 Zn99 1.986 . S
O102 C109 1.262 1_565 S
O103 Zn98 2.049 . S
O103 C111 1.260 . S
O104 Zn99 1.996 . S
O104 C111 1.257 . S
C105 O100 1.254 . S
C105 O101 1.269 . S
C106 O107 1.249 . S
C106 O108 1.270 . S
O107 Zn99 1.943 . S
O107 C106 1.249 . S
O108 Zn98 2.067 . S
O108 C106 1.270 . S
C109 O102 1.262 1_545 S
C109 O110 1.232 . S
O110 C109 1.232 . S
C111 O103 1.260 . S
C111 O104 1.257 . S
Zn112 O115 2.031 . S
Zn112 O117 2.049 . S
Zn112 O122 2.067 . S
Zn113 O114 1.962 . S
Zn113 O116 1.986 . S
Zn113 O118 1.996 . S
Zn113 O121 1.943 . S
O114 Zn113 1.962 . S
O114 C119 1.254 . S
O115 Zn112 2.031 . S
O115 C119 1.269 . S
O116 Zn113 1.986 . S
O116 C123 1.262 . S
O117 Zn112 2.049 . S
O117 C125 1.260 . S
O118 Zn113 1.996 . S
O118 C125 1.257 . S
C119 O114 1.254 . S
C119 O115 1.269 . S
C120 O121 1.249 . S
C120 O122 1.270 . S
O121 Zn113 1.943 . S
O121 C120 1.249 . S
O122 Zn112 2.067 . S
O122 C120 1.270 . S
C123 O116 1.262 . S
C123 O124 1.232 . S
O124 C123 1.232 . S
C125 O117 1.260 . S
C125 O118 1.257 . S
Zn126 O129 2.031 . S
Zn126 O131 2.049 . S
Zn126 O136 2.067 . S
Zn127 O128 1.962 . S
Zn127 O130 1.986 . S
Zn127 O132 1.996 . S
Zn127 O135 1.943 . S
O128 Zn127 1.962 . S
O128 C133 1.254 . S
O129 Zn126 2.031 . S
O129 C133 1.269 . S
O130 Zn127 1.986 . S
O130 C137 1.262 . S
O131 Zn126 2.049 . S
O131 C139 1.260 . S
O132 Zn127 1.996 . S
O132 C139 1.257 . S
C133 O128 1.254 . S
C133 O129 1.269 . S
C134 O135 1.249 . S
C134 O136 1.270 . S
O135 Zn127 1.943 . S
O135 C134 1.249 . S
O136 Zn126 2.067 . S
O136 C134 1.270 . S
C137 O130 1.262 . S
C137 O138 1.232 . S
O138 C137 1.232 . S
C139 O131 1.260 . S
C139 O132 1.257 . S
Zn140 O143 2.031 . S
Zn140 O145 2.049 . S
Zn140 O150 2.067 . S
Zn141 O142 1.962 . S
Zn141 O144 1.986 . S
Zn141 O146 1.996 . S
Zn141 O149 1.943 . S
O142 Zn141 1.962 . S
O142 C147 1.254 . S
O143 Zn140 2.031 . S
O143 C147 1.269 . S
O144 Zn141 1.986 . S
O144 C151 1.262 . S
O145 Zn140 2.049 . S
O145 C153 1.260 . S
O146 Zn141 1.996 . S
O146 C153 1.257 . S
C147 O142 1.254 . S
C147 O143 1.269 . S
C148 O149 1.249 . S
C148 O150 1.270 . S
O149 Zn141 1.943 . S
O149 C148 1.249 . S
O150 Zn140 2.067 . S
O150 C148 1.270 . S
C151 O144 1.262 . S
C151 O152 1.232 . S
O152 C151 1.232 . S
C153 O145 1.260 . S
C153 O146 1.257 . S
Zn154 O157 2.031 . S
Zn154 O159 2.049 . S
Zn154 O164 2.067 . S
Zn155 O156 1.962 . S
Zn155 O158 1.986 . S
Zn155 O160 1.996 . S
Zn155 O163 1.943 . S
O156 Zn155 1.962 . S
O156 C161 1.254 . S
O157 Zn154 2.031 . S
O157 C161 1.269 . S
O158 Zn155 1.986 . S
O158 C165 1.262 . S
O159 Zn154 2.049 . S
O159 C167 1.260 . S
O160 Zn155 1.996 . S
O160 C167 1.257 . S
C161 O156 1.254 . S
C161 O157 1.269 . S
C162 O163 1.249 . S
C162 O164 1.270 . S
O163 Zn155 1.943 . S
O163 C162 1.249 . S
O164 Zn154 2.067 . S
O164 C162 1.270 . S
C165 O158 1.262 . S
C165 O166 1.232 . S
O166 C165 1.232 . S
C167 O159 1.260 . S
C167 O160 1.257 . S
Zn168 O171 2.031 . S
Zn168 O173 2.049 . S
Zn168 O178 2.067 . S
Zn169 O170 1.962 . S
Zn169 O172 1.986 . S
Zn169 O174 1.996 . S
Zn169 O177 1.943 . S
O170 Zn169 1.962 . S
O170 C175 1.254 . S
O171 Zn168 2.031 . S
O171 C175 1.269 . S
O172 Zn169 1.986 . S
O172 C179 1.262 . S
O173 Zn168 2.049 . S
O173 C181 1.260 . S
O174 Zn169 1.996 . S
O174 C181 1.257 . S
C175 O170 1.254 . S
C175 O171 1.269 . S
C176 O177 1.249 . S
C176 O178 1.270 . S
O177 Zn169 1.943 . S
O177 C176 1.249 . S
O178 Zn168 2.067 . S
O178 C176 1.270 . S
C179 O172 1.262 . S
C179 O180 1.232 . S
O180 C179 1.232 . S
C181 O173 1.260 . S
C181 O174 1.257 . S
Zn182 O185 2.031 . S
Zn182 O187 2.049 . S
Zn182 O192 2.067 . S
Zn183 O184 1.962 . S
Zn183 O186 1.986 . S
Zn183 O188 1.996 . S
Zn183 O191 1.943 . S
O184 Zn183 1.962 . S
O184 C189 1.254 . S
O185 Zn182 2.031 . S
O185 C189 1.269 . S
O186 Zn183 1.986 . S
O186 C193 1.262 . S
O187 Zn182 2.049 . S
O187 C195 1.260 . S
O188 Zn183 1.996 . S
O188 C195 1.257 . S
C189 O184 1.254 . S
C189 O185 1.269 . S
C190 O191 1.249 . S
C190 O192 1.270 . S
O191 Zn183 1.943 . S
O191 C190 1.249 . S
O192 Zn182 2.067 . S
O192 C190 1.270 . S
C193 O186 1.262 . S
C193 O194 1.232 . S
O194 C193 1.232 . S
C195 O187 1.260 . S
C195 O188 1.257 . S
Zn196 O199 2.031 . S
Zn196 O201 2.049 . S
Zn196 O206 2.067 . S
Zn197 O198 1.962 . S
Zn197 O200 1.986 . S
Zn197 O202 1.996 . S
Zn197 O205 1.943 . S
O198 Zn197 1.962 . S
O198 C203 1.254 . S
O199 Zn196 2.031 . S
O199 C203 1.269 . S
O200 Zn197 1.986 . S
O200 C207 1.262 . S
O201 Zn196 2.049 . S
O201 C209 1.260 . S
O202 Zn197 1.996 . S
O202 C209 1.257 . S
C203 O198 1.254 . S
C203 O199 1.269 . S
C204 O205 1.249 . S
C204 O206 1.270 . S
O205 Zn197 1.943 . S
O205 C204 1.249 . S
O206 Zn196 2.067 . S
O206 C204 1.270 . S
C207 O200 1.262 . S
C207 O208 1.232 . S
O208 C207 1.232 . S
C209 O201 1.260 . S
C209 O202 1.257 . S
Zn210 O213 2.031 . S
Zn210 O215 2.049 . S
Zn210 O220 2.067 . S
Zn211 O212 1.962 . S
Zn211 O214 1.986 . S
Zn211 O216 1.996 . S
Zn211 O219 1.943 . S
O212 Zn211 1.962 . S
O212 C217 1.254 . S
O213 Zn210 2.031 . S
O213 C217 1.269 . S
O214 Zn211 1.986 . S
O214 C221 1.262 . S
O215 Zn210 2.049 . S
O215 C223 1.260 . S
O216 Zn211 1.996 . S
O216 C223 1.257 . S
C217 O212 1.254 . S
C217 O213 1.269 . S
C218 O219 1.249 . S
C218 O220 1.270 . S
O219 Zn211 1.943 . S
O219 C218 1.249 . S
O220 Zn210 2.067 . S
O220 C218 1.270 . S
C221 O214 1.262 . S
C221 O222 1.232 . S
O222 C221 1.232 . S
C223 O215 1.260 . S
C223 O216 1.257 . S
Zn224 O227 2.031 . S
Zn224 O229 2.049 . S
Zn224 O234 2.067 . S
Zn225 O226 1.962 . S
Zn225 O228 1.986 . S
Zn225 O230 1.996 . S
Zn225 O233 1.943 . S
O226 Zn225 1.962 . S
O226 C231 1.254 . S
O227 Zn224 2.031 . S
O227 C231 1.269 . S
O228 Zn225 1.986 . S
O228 C235 1.262 1_545 S
O229 Zn224 2.049 . S
O229 C237 1.260 . S
O230 Zn225 1.996 . S
O230 C237 1.257 . S
C231 O226 1.254 . S
C231 O227 1.269 . S
C232 O233 1.249 . S
C232 O234 1.270 . S
O233 Zn225 1.943 . S
O233 C232 1.249 . S
O234 Zn224 2.067 . S
O234 C232 1.270 . S
C235 O228 1.262 1_565 S
C235 O236 1.232 . S
O236 C235 1.232 . S
C237 O229 1.260 . S
C237 O230 1.257 . S
Zn238 O241 2.031 . S
Zn238 O243 2.049 . S
Zn238 O248 2.067 . S
Zn239 O240 1.962 . S
Zn239 O242 1.986 . S
Zn239 O244 1.996 . S
Zn239 O247 1.943 . S
O240 Zn239 1.962 . S
O240 C245 1.254 . S
O241 Zn238 2.031 . S
O241 C245 1.269 . S
O242 Zn239 1.986 . S
O242 C249 1.262 . S
O243 Zn238 2.049 . S
O243 C251 1.260 . S
O244 Zn239 1.996 . S
O244 C251 1.257 . S
C245 O240 1.254 . S
C245 O241 1.269 . S
C246 O247 1.249 . S
C246 O248 1.270 . S
O247 Zn239 1.943 . S
O247 C246 1.249 . S
O248 Zn238 2.067 . S
O248 C246 1.270 . S
C249 O242 1.262 . S
C249 O250 1.232 . S
O250 C249 1.232 . S
C251 O243 1.260 . S
C251 O244 1.257 . S
H252 C279 0.929 . S
N253 C278 1.433 . S
N253 C284 1.435 . S
N253 C290 1.423 . S
H254 C280 0.930 . S
H255 C283 0.931 . S
H256 C282 0.929 . S
H257 C285 0.930 . S
H258 C286 0.932 . S
H259 C289 0.929 . S
H260 C288 0.931 . S
H261 C291 0.929 . S
H262 C295 0.932 . S
H263 C292 0.931 . S
H264 C294 0.929 . S
H265 C297 0.929 . S
H266 C298 0.930 . S
H267 C300 0.929 . S
H268 C301 0.931 . S
H269 C303 0.930 . S
H270 C304 0.932 . S
H271 C306 0.931 . S
H272 C307 0.929 . S
H273 C309 0.929 . S
H274 C310 0.931 . S
H275 C312 0.929 . S
N276 C296 1.433 . S
N276 C302 1.435 . S
N276 C308 1.423 . S
H277 C313 0.932 . S
C278 N253 1.433 . S
C278 C279 1.363 . S
C278 C283 1.370 . S
C279 H252 0.929 . S
C279 C278 1.363 . S
C279 C280 1.385 . S
C280 H254 0.930 . S
C280 C279 1.385 . S
C280 C281 1.357 . S
C281 C280 1.357 . S
C281 C282 1.406 . S
C282 H256 0.929 . S
C282 C281 1.406 . S
C282 C283 1.391 . S
C283 H255 0.931 . S
C283 C278 1.370 . S
C283 C282 1.391 . S
C284 N253 1.435 . S
C284 C285 1.358 . S
C284 C289 1.371 . S
C285 H257 0.930 . S
C285 C284 1.358 . S
C285 C286 1.405 . S
C286 H258 0.932 . S
C286 C285 1.405 . S
C286 C287 1.383 . S
C287 C286 1.383 . S
C287 C288 1.393 . S
C288 H260 0.931 . S
C288 C287 1.393 . S
C288 C289 1.382 . S
C289 H259 0.929 . S
C289 C284 1.371 . S
C289 C288 1.382 . S
C290 N253 1.423 . S
C290 C291 1.362 . S
C290 C295 1.388 . S
C291 H261 0.929 . S
C291 C290 1.362 . S
C291 C292 1.376 . S
C292 H263 0.931 . S
C292 C291 1.376 . S
C292 C293 1.396 . S
C293 C292 1.396 . S
C293 C294 1.348 . S
C293 C311 1.472 . S
C294 H264 0.929 . S
C294 C293 1.348 . S
C294 C295 1.443 . S
C295 H262 0.932 . S
C295 C290 1.388 . S
C295 C294 1.443 . S
C296 N276 1.433 . S
C296 C297 1.363 . S
C296 C301 1.370 . S
C297 H265 0.929 . S
C297 C296 1.363 . S
C297 C298 1.385 . S
C298 H266 0.930 . S
C298 C297 1.385 . S
C298 C299 1.357 . S
C299 C298 1.357 . S
C299 C300 1.406 . S
C300 H267 0.929 . S
C300 C299 1.406 . S
C300 C301 1.391 . S
C301 H268 0.931 . S
C301 C296 1.370 . S
C301 C300 1.391 . S
C302 N276 1.435 . S
C302 C303 1.358 . S
C302 C307 1.371 . S
C303 H269 0.930 . S
C303 C302 1.358 . S
C303 C304 1.405 . S
C304 H270 0.932 . S
C304 C303 1.405 . S
C304 C305 1.383 . S
C305 C304 1.383 . S
C305 C306 1.393 . S
C306 H271 0.931 . S
C306 C305 1.393 . S
C306 C307 1.382 . S
C307 H272 0.929 . S
C307 C302 1.371 . S
C307 C306 1.382 . S
C308 N276 1.423 . S
C308 C309 1.362 . S
C308 C313 1.388 . S
C309 H273 0.929 . S
C309 C308 1.362 . S
C309 C310 1.376 . S
C310 H274 0.931 . S
C310 C309 1.376 . S
C310 C311 1.396 . S
C311 C293 1.472 . S
C311 C310 1.396 . S
C311 C312 1.348 . S
C312 H275 0.929 . S
C312 C311 1.348 . S
C312 C313 1.443 . S
C313 H277 0.932 . S
C313 C308 1.388 . S
C313 C312 1.443 . S
H314 C341 0.929 . S
N315 C340 1.433 . S
N315 C346 1.435 . S
N315 C352 1.423 . S
H316 C342 0.930 . S
H317 C345 0.931 . S
H318 C344 0.929 . S
H319 C347 0.930 . S
H320 C348 0.932 . S
H321 C351 0.929 . S
H322 C350 0.931 . S
H323 C353 0.929 . S
H324 C357 0.932 . S
H325 C354 0.931 . S
H326 C356 0.929 . S
H327 C359 0.929 . S
H328 C360 0.930 . S
H329 C362 0.929 . S
H330 C363 0.931 . S
H331 C365 0.930 . S
H332 C366 0.932 . S
H333 C368 0.931 . S
H334 C369 0.929 . S
H335 C371 0.929 . S
H336 C372 0.931 . S
H337 C374 0.929 . S
N338 C358 1.433 . S
N338 C364 1.435 . S
N338 C370 1.423 . S
H339 C375 0.932 . S
C340 N315 1.433 . S
C340 C341 1.363 . S
C340 C345 1.370 . S
C341 H314 0.929 . S
C341 C340 1.363 . S
C341 C342 1.385 . S
C342 H316 0.930 . S
C342 C341 1.385 . S
C342 C343 1.357 . S
C343 C342 1.357 . S
C343 C344 1.406 . S
C344 H318 0.929 . S
C344 C343 1.406 . S
C344 C345 1.391 . S
C345 H317 0.931 . S
C345 C340 1.370 . S
C345 C344 1.391 . S
C346 N315 1.435 . S
C346 C347 1.358 . S
C346 C351 1.371 . S
C347 H319 0.930 . S
C347 C346 1.358 . S
C347 C348 1.405 . S
C348 H320 0.932 . S
C348 C347 1.405 . S
C348 C349 1.383 . S
C349 C348 1.383 . S
C349 C350 1.393 . S
C350 H322 0.931 . S
C350 C349 1.393 . S
C350 C351 1.382 . S
C351 H321 0.929 . S
C351 C346 1.371 . S
C351 C350 1.382 . S
C352 N315 1.423 . S
C352 C353 1.362 . S
C352 C357 1.388 . S
C353 H323 0.929 . S
C353 C352 1.362 . S
C353 C354 1.376 . S
C354 H325 0.931 . S
C354 C353 1.376 . S
C354 C355 1.396 . S
C355 C354 1.396 . S
C355 C356 1.348 . S
C355 C373 1.472 . S
C356 H326 0.929 . S
C356 C355 1.348 . S
C356 C357 1.443 . S
C357 H324 0.932 . S
C357 C352 1.388 . S
C357 C356 1.443 . S
C358 N338 1.433 . S
C358 C359 1.363 . S
C358 C363 1.370 . S
C359 H327 0.929 . S
C359 C358 1.363 . S
C359 C360 1.385 . S
C360 H328 0.930 . S
C360 C359 1.385 . S
C360 C361 1.357 . S
C361 C360 1.357 . S
C361 C362 1.406 . S
C362 H329 0.929 . S
C362 C361 1.406 . S
C362 C363 1.391 . S
C363 H330 0.931 . S
C363 C358 1.370 . S
C363 C362 1.391 . S
C364 N338 1.435 . S
C364 C365 1.358 . S
C364 C369 1.371 . S
C365 H331 0.930 . S
C365 C364 1.358 . S
C365 C366 1.405 . S
C366 H332 0.932 . S
C366 C365 1.405 . S
C366 C367 1.383 . S
C367 C366 1.383 . S
C367 C368 1.393 . S
C368 H333 0.931 . S
C368 C367 1.393 . S
C368 C369 1.382 . S
C369 H334 0.929 . S
C369 C364 1.371 . S
C369 C368 1.382 . S
C370 N338 1.423 . S
C370 C371 1.362 . S
C370 C375 1.388 . S
C371 H335 0.929 . S
C371 C370 1.362 . S
C371 C372 1.376 . S
C372 H336 0.931 . S
C372 C371 1.376 . S
C372 C373 1.396 . S
C373 C355 1.472 . S
C373 C372 1.396 . S
C373 C374 1.348 . S
C374 H337 0.929 . S
C374 C373 1.348 . S
C374 C375 1.443 . S
C375 H339 0.932 . S
C375 C370 1.388 . S
C375 C374 1.443 . S
H376 C403 0.929 . S
N377 C402 1.433 . S
N377 C408 1.435 . S
N377 C414 1.423 . S
H378 C404 0.930 . S
H379 C407 0.931 . S
H380 C406 0.929 . S
H381 C409 0.930 . S
H382 C410 0.932 . S
H383 C413 0.929 . S
H384 C412 0.931 . S
H385 C415 0.929 . S
H386 C419 0.932 . S
H387 C416 0.931 . S
H388 C418 0.929 . S
H389 C421 0.929 . S
H390 C422 0.930 . S
H391 C424 0.929 . S
H392 C425 0.931 . S
H393 C427 0.930 . S
H394 C428 0.932 . S
H395 C430 0.931 . S
H396 C431 0.929 . S
H397 C433 0.929 . S
H398 C434 0.931 . S
H399 C436 0.929 . S
N400 C420 1.433 . S
N400 C426 1.435 . S
N400 C432 1.423 . S
H401 C437 0.932 . S
C402 N377 1.433 . S
C402 C403 1.363 . S
C402 C407 1.370 . S
C403 H376 0.929 . S
C403 C402 1.363 . S
C403 C404 1.385 . S
C404 H378 0.930 . S
C404 C403 1.385 . S
C404 C405 1.357 . S
C405 C404 1.357 . S
C405 C406 1.406 . S
C406 H380 0.929 . S
C406 C405 1.406 . S
C406 C407 1.391 . S
C407 H379 0.931 . S
C407 C402 1.370 . S
C407 C406 1.391 . S
C408 N377 1.435 . S
C408 C409 1.358 . S
C408 C413 1.371 . S
C409 H381 0.930 . S
C409 C408 1.358 . S
C409 C410 1.405 . S
C410 H382 0.932 . S
C410 C409 1.405 . S
C410 C411 1.383 . S
C411 C410 1.383 . S
C411 C412 1.393 . S
C412 H384 0.931 . S
C412 C411 1.393 . S
C412 C413 1.382 . S
C413 H383 0.929 . S
C413 C408 1.371 . S
C413 C412 1.382 . S
C414 N377 1.423 . S
C414 C415 1.362 . S
C414 C419 1.388 . S
C415 H385 0.929 . S
C415 C414 1.362 . S
C415 C416 1.376 . S
C416 H387 0.931 . S
C416 C415 1.376 . S
C416 C417 1.396 . S
C417 C416 1.396 . S
C417 C418 1.348 . S
C417 C435 1.472 . S
C418 H388 0.929 . S
C418 C417 1.348 . S
C418 C419 1.443 . S
C419 H386 0.932 . S
C419 C414 1.388 . S
C419 C418 1.443 . S
C420 N400 1.433 . S
C420 C421 1.363 . S
C420 C425 1.370 . S
C421 H389 0.929 . S
C421 C420 1.363 . S
C421 C422 1.385 . S
C422 H390 0.930 . S
C422 C421 1.385 . S
C422 C423 1.357 . S
C423 C422 1.357 . S
C423 C424 1.406 . S
C424 H391 0.929 . S
C424 C423 1.406 . S
C424 C425 1.391 . S
C425 H392 0.931 . S
C425 C420 1.370 . S
C425 C424 1.391 . S
C426 N400 1.435 . S
C426 C427 1.358 . S
C426 C431 1.371 . S
C427 H393 0.930 . S
C427 C426 1.358 . S
C427 C428 1.405 . S
C428 H394 0.932 . S
C428 C427 1.405 . S
C428 C429 1.383 . S
C429 C428 1.383 . S
C429 C430 1.393 . S
C430 H395 0.931 . S
C430 C429 1.393 . S
C430 C431 1.382 . S
C431 H396 0.929 . S
C431 C426 1.371 . S
C431 C430 1.382 . S
C432 N400 1.423 . S
C432 C433 1.362 . S
C432 C437 1.388 . S
C433 H397 0.929 . S
C433 C432 1.362 . S
C433 C434 1.376 . S
C434 H398 0.931 . S
C434 C433 1.376 . S
C434 C435 1.396 . S
C435 C417 1.472 . S
C435 C434 1.396 . S
C435 C436 1.348 . S
C436 H399 0.929 . S
C436 C435 1.348 . S
C436 C437 1.443 . S
C437 H401 0.932 . S
C437 C432 1.388 . S
C437 C436 1.443 . S
H438 C465 0.929 . S
N439 C464 1.433 . S
N439 C470 1.435 . S
N439 C476 1.423 . S
H440 C466 0.930 . S
H441 C469 0.931 . S
H442 C468 0.929 . S
H443 C471 0.930 . S
H444 C472 0.932 . S
H445 C475 0.929 . S
H446 C474 0.931 . S
H447 C477 0.929 . S
H448 C481 0.932 . S
H449 C478 0.931 . S
H450 C480 0.929 . S
H451 C483 0.929 . S
H452 C484 0.930 . S
H453 C486 0.929 . S
H454 C487 0.931 . S
H455 C489 0.930 . S
H456 C490 0.932 . S
H457 C492 0.931 . S
H458 C493 0.929 . S
H459 C495 0.929 . S
H460 C496 0.931 . S
H461 C498 0.929 . S
N462 C482 1.433 . S
N462 C488 1.435 . S
N462 C494 1.423 . S
H463 C499 0.932 . S
C464 N439 1.433 . S
C464 C465 1.363 . S
C464 C469 1.370 . S
C465 H438 0.929 . S
C465 C464 1.363 . S
C465 C466 1.385 . S
C466 H440 0.930 . S
C466 C465 1.385 . S
C466 C467 1.357 . S
C467 C466 1.357 . S
C467 C468 1.406 . S
C468 H442 0.929 . S
C468 C467 1.406 . S
C468 C469 1.391 . S
C469 H441 0.931 . S
C469 C464 1.370 . S
C469 C468 1.391 . S
C470 N439 1.435 . S
C470 C471 1.358 . S
C470 C475 1.371 . S
C471 H443 0.930 . S
C471 C470 1.358 . S
C471 C472 1.405 . S
C472 H444 0.932 . S
C472 C471 1.405 . S
C472 C473 1.383 . S
C473 C472 1.383 . S
C473 C474 1.393 . S
C474 H446 0.931 . S
C474 C473 1.393 . S
C474 C475 1.382 . S
C475 H445 0.929 . S
C475 C470 1.371 . S
C475 C474 1.382 . S
C476 N439 1.423 . S
C476 C477 1.362 . S
C476 C481 1.388 . S
C477 H447 0.929 . S
C477 C476 1.362 . S
C477 C478 1.376 . S
C478 H449 0.931 . S
C478 C477 1.376 . S
C478 C479 1.396 . S
C479 C478 1.396 . S
C479 C480 1.348 . S
C479 C497 1.472 . S
C480 H450 0.929 . S
C480 C479 1.348 . S
C480 C481 1.443 . S
C481 H448 0.932 . S
C481 C476 1.388 . S
C481 C480 1.443 . S
C482 N462 1.433 . S
C482 C483 1.363 . S
C482 C487 1.370 . S
C483 H451 0.929 . S
C483 C482 1.363 . S
C483 C484 1.385 . S
C484 H452 0.930 . S
C484 C483 1.385 . S
C484 C485 1.357 . S
C485 C484 1.357 . S
C485 C486 1.406 . S
C486 H453 0.929 . S
C486 C485 1.406 . S
C486 C487 1.391 . S
C487 H454 0.931 . S
C487 C482 1.370 . S
C487 C486 1.391 . S
C488 N462 1.435 . S
C488 C489 1.358 . S
C488 C493 1.371 . S
C489 H455 0.930 . S
C489 C488 1.358 . S
C489 C490 1.405 . S
C490 H456 0.932 . S
C490 C489 1.405 . S
C490 C491 1.383 . S
C491 C490 1.383 . S
C491 C492 1.393 . S
C492 H457 0.931 . S
C492 C491 1.393 . S
C492 C493 1.382 . S
C493 H458 0.929 . S
C493 C488 1.371 . S
C493 C492 1.382 . S
C494 N462 1.423 . S
C494 C495 1.362 . S
C494 C499 1.388 . S
C495 H459 0.929 . S
C495 C494 1.362 . S
C495 C496 1.376 . S
C496 H460 0.931 . S
C496 C495 1.376 . S
C496 C497 1.396 . S
C497 C479 1.472 . S
C497 C496 1.396 . S
C497 C498 1.348 . S
C498 H461 0.929 . S
C498 C497 1.348 . S
C498 C499 1.443 . S
C499 H463 0.932 . S
C499 C494 1.388 . S
C499 C498 1.443 . S
H500 C527 0.929 . S
N501 C526 1.433 . S
N501 C532 1.435 . S
N501 C538 1.423 . S
H502 C528 0.930 . S
H503 C531 0.931 . S
H504 C530 0.929 . S
H505 C533 0.930 . S
H506 C534 0.932 . S
H507 C537 0.929 . S
H508 C536 0.931 . S
H509 C539 0.929 . S
H510 C543 0.932 . S
H511 C540 0.931 . S
H512 C542 0.929 . S
H513 C545 0.929 . S
H514 C546 0.930 . S
H515 C548 0.929 . S
H516 C549 0.931 . S
H517 C551 0.930 . S
H518 C552 0.932 . S
H519 C554 0.931 . S
H520 C555 0.929 . S
H521 C557 0.929 . S
H522 C558 0.931 . S
H523 C560 0.929 . S
N524 C544 1.433 . S
N524 C550 1.435 . S
N524 C556 1.423 . S
H525 C561 0.932 . S
C526 N501 1.433 . S
C526 C527 1.363 . S
C526 C531 1.370 . S
C527 H500 0.929 . S
C527 C526 1.363 . S
C527 C528 1.385 . S
C528 H502 0.930 . S
C528 C527 1.385 . S
C528 C529 1.357 . S
C529 C528 1.357 . S
C529 C530 1.406 . S
C530 H504 0.929 . S
C530 C529 1.406 . S
C530 C531 1.391 . S
C531 H503 0.931 . S
C531 C526 1.370 . S
C531 C530 1.391 . S
C532 N501 1.435 . S
C532 C533 1.358 . S
C532 C537 1.371 . S
C533 H505 0.930 . S
C533 C532 1.358 . S
C533 C534 1.405 . S
C534 H506 0.932 . S
C534 C533 1.405 . S
C534 C535 1.383 . S
C535 C534 1.383 . S
C535 C536 1.393 . S
C536 H508 0.931 . S
C536 C535 1.393 . S
C536 C537 1.382 . S
C537 H507 0.929 . S
C537 C532 1.371 . S
C537 C536 1.382 . S
C538 N501 1.423 . S
C538 C539 1.362 . S
C538 C543 1.388 . S
C539 H509 0.929 . S
C539 C538 1.362 . S
C539 C540 1.376 . S
C540 H511 0.931 . S
C540 C539 1.376 . S
C540 C541 1.396 . S
C541 C540 1.396 . S
C541 C542 1.348 . S
C541 C559 1.472 . S
C542 H512 0.929 . S
C542 C541 1.348 . S
C542 C543 1.443 . S
C543 H510 0.932 . S
C543 C538 1.388 . S
C543 C542 1.443 . S
C544 N524 1.433 . S
C544 C545 1.363 . S
C544 C549 1.370 . S
C545 H513 0.929 . S
C545 C544 1.363 . S
C545 C546 1.385 . S
C546 H514 0.930 . S
C546 C545 1.385 . S
C546 C547 1.357 . S
C547 C546 1.357 . S
C547 C548 1.406 . S
C548 H515 0.929 . S
C548 C547 1.406 . S
C548 C549 1.391 . S
C549 H516 0.931 . S
C549 C544 1.370 . S
C549 C548 1.391 . S
C550 N524 1.435 . S
C550 C551 1.358 . S
C550 C555 1.371 . S
C551 H517 0.930 . S
C551 C550 1.358 . S
C551 C552 1.405 . S
C552 H518 0.932 . S
C552 C551 1.405 . S
C552 C553 1.383 . S
C553 C552 1.383 . S
C553 C554 1.393 . S
C554 H519 0.931 . S
C554 C553 1.393 . S
C554 C555 1.382 . S
C555 H520 0.929 . S
C555 C550 1.371 . S
C555 C554 1.382 . S
C556 N524 1.423 . S
C556 C557 1.362 . S
C556 C561 1.388 . S
C557 H521 0.929 . S
C557 C556 1.362 . S
C557 C558 1.376 . S
C558 H522 0.931 . S
C558 C557 1.376 . S
C558 C559 1.396 . S
C559 C541 1.472 . S
C559 C558 1.396 . S
C559 C560 1.348 . S
C560 H523 0.929 . S
C560 C559 1.348 . S
C560 C561 1.443 . S
C561 H525 0.932 . S
C561 C556 1.388 . S
C561 C560 1.443 . S
H562 C589 0.929 . S
N563 C588 1.433 . S
N563 C594 1.435 . S
N563 C600 1.423 . S
H564 C590 0.930 . S
H565 C593 0.931 . S
H566 C592 0.929 . S
H567 C595 0.930 . S
H568 C596 0.932 . S
H569 C599 0.929 . S
H570 C598 0.931 . S
H571 C601 0.929 . S
H572 C605 0.932 . S
H573 C602 0.931 . S
H574 C604 0.929 . S
H575 C607 0.929 . S
H576 C608 0.930 . S
H577 C610 0.929 . S
H578 C611 0.931 . S
H579 C613 0.930 . S
H580 C614 0.932 . S
H581 C616 0.931 . S
H582 C617 0.929 . S
H583 C619 0.929 . S
H584 C620 0.931 . S
H585 C622 0.929 . S
N586 C606 1.433 . S
N586 C612 1.435 . S
N586 C618 1.423 . S
H587 C623 0.932 . S
C588 N563 1.433 . S
C588 C589 1.363 . S
C588 C593 1.370 . S
C589 H562 0.929 . S
C589 C588 1.363 . S
C589 C590 1.385 . S
C590 H564 0.930 . S
C590 C589 1.385 . S
C590 C591 1.357 . S
C591 C590 1.357 . S
C591 C592 1.406 . S
C592 H566 0.929 . S
C592 C591 1.406 . S
C592 C593 1.391 . S
C593 H565 0.931 . S
C593 C588 1.370 . S
C593 C592 1.391 . S
C594 N563 1.435 . S
C594 C595 1.358 . S
C594 C599 1.371 . S
C595 H567 0.930 . S
C595 C594 1.358 . S
C595 C596 1.405 . S
C596 H568 0.932 . S
C596 C595 1.405 . S
C596 C597 1.383 . S
C597 C596 1.383 . S
C597 C598 1.393 . S
C598 H570 0.931 . S
C598 C597 1.393 . S
C598 C599 1.382 . S
C599 H569 0.929 . S
C599 C594 1.371 . S
C599 C598 1.382 . S
C600 N563 1.423 . S
C600 C601 1.362 . S
C600 C605 1.388 . S
C601 H571 0.929 . S
C601 C600 1.362 . S
C601 C602 1.376 . S
C602 H573 0.931 . S
C602 C601 1.376 . S
C602 C603 1.396 . S
C603 C602 1.396 . S
C603 C604 1.348 . S
C603 C621 1.472 . S
C604 H574 0.929 . S
C604 C603 1.348 . S
C604 C605 1.443 . S
C605 H572 0.932 . S
C605 C600 1.388 . S
C605 C604 1.443 . S
C606 N586 1.433 . S
C606 C607 1.363 . S
C606 C611 1.370 . S
C607 H575 0.929 . S
C607 C606 1.363 . S
C607 C608 1.385 . S
C608 H576 0.930 . S
C608 C607 1.385 . S
C608 C609 1.357 . S
C609 C608 1.357 . S
C609 C610 1.406 . S
C610 H577 0.929 . S
C610 C609 1.406 . S
C610 C611 1.391 . S
C611 H578 0.931 . S
C611 C606 1.370 . S
C611 C610 1.391 . S
C612 N586 1.435 . S
C612 C613 1.358 . S
C612 C617 1.371 . S
C613 H579 0.930 . S
C613 C612 1.358 . S
C613 C614 1.405 . S
C614 H580 0.932 . S
C614 C613 1.405 . S
C614 C615 1.383 . S
C615 C614 1.383 . S
C615 C616 1.393 . S
C616 H581 0.931 . S
C616 C615 1.393 . S
C616 C617 1.382 . S
C617 H582 0.929 . S
C617 C612 1.371 . S
C617 C616 1.382 . S
C618 N586 1.423 . S
C618 C619 1.362 . S
C618 C623 1.388 . S
C619 H583 0.929 . S
C619 C618 1.362 . S
C619 C620 1.376 . S
C620 H584 0.931 . S
C620 C619 1.376 . S
C620 C621 1.396 . S
C621 C603 1.472 . S
C621 C620 1.396 . S
C621 C622 1.348 . S
C622 H585 0.929 . S
C622 C621 1.348 . S
C622 C623 1.443 . S
C623 H587 0.932 . S
C623 C618 1.388 . S
C623 C622 1.443 . S
H624 C651 0.929 . S
N625 C650 1.433 . S
N625 C656 1.435 . S
N625 C662 1.423 . S
H626 C652 0.930 . S
H627 C655 0.931 . S
H628 C654 0.929 . S
H629 C657 0.930 . S
H630 C658 0.932 . S
H631 C661 0.929 . S
H632 C660 0.931 . S
H633 C663 0.929 . S
H634 C667 0.932 . S
H635 C664 0.931 . S
H636 C666 0.929 . S
H637 C669 0.929 . S
H638 C670 0.930 . S
H639 C672 0.929 . S
H640 C673 0.931 . S
H641 C675 0.930 . S
H642 C676 0.932 . S
H643 C678 0.931 . S
H644 C679 0.929 . S
H645 C681 0.929 . S
H646 C682 0.931 . S
H647 C684 0.929 . S
N648 C668 1.433 . S
N648 C674 1.435 . S
N648 C680 1.423 . S
H649 C685 0.932 . S
C650 N625 1.433 . S
C650 C651 1.363 . S
C650 C655 1.370 . S
C651 H624 0.929 . S
C651 C650 1.363 . S
C651 C652 1.385 . S
C652 H626 0.930 . S
C652 C651 1.385 . S
C652 C653 1.357 . S
C653 C652 1.357 . S
C653 C654 1.406 . S
C654 H628 0.929 . S
C654 C653 1.406 . S
C654 C655 1.391 . S
C655 H627 0.931 . S
C655 C650 1.370 . S
C655 C654 1.391 . S
C656 N625 1.435 . S
C656 C657 1.358 . S
C656 C661 1.371 . S
C657 H629 0.930 . S
C657 C656 1.358 . S
C657 C658 1.405 . S
C658 H630 0.932 . S
C658 C657 1.405 . S
C658 C659 1.383 . S
C659 C658 1.383 . S
C659 C660 1.393 . S
C660 H632 0.931 . S
C660 C659 1.393 . S
C660 C661 1.382 . S
C661 H631 0.929 . S
C661 C656 1.371 . S
C661 C660 1.382 . S
C662 N625 1.423 . S
C662 C663 1.362 . S
C662 C667 1.388 . S
C663 H633 0.929 . S
C663 C662 1.362 . S
C663 C664 1.376 . S
C664 H635 0.931 . S
C664 C663 1.376 . S
C664 C665 1.396 . S
C665 C664 1.396 . S
C665 C666 1.348 . S
C665 C683 1.472 . S
C666 H636 0.929 . S
C666 C665 1.348 . S
C666 C667 1.443 . S
C667 H634 0.932 . S
C667 C662 1.388 . S
C667 C666 1.443 . S
C668 N648 1.433 . S
C668 C669 1.363 . S
C668 C673 1.370 . S
C669 H637 0.929 . S
C669 C668 1.363 . S
C669 C670 1.385 . S
C670 H638 0.930 . S
C670 C669 1.385 . S
C670 C671 1.357 . S
C671 C670 1.357 . S
C671 C672 1.406 . S
C672 H639 0.929 . S
C672 C671 1.406 . S
C672 C673 1.391 . S
C673 H640 0.931 . S
C673 C668 1.370 . S
C673 C672 1.391 . S
C674 N648 1.435 . S
C674 C675 1.358 . S
C674 C679 1.371 . S
C675 H641 0.930 . S
C675 C674 1.358 . S
C675 C676 1.405 . S
C676 H642 0.932 . S
C676 C675 1.405 . S
C676 C677 1.383 . S
C677 C676 1.383 . S
C677 C678 1.393 . S
C678 H643 0.931 . S
C678 C677 1.393 . S
C678 C679 1.382 . S
C679 H644 0.929 . S
C679 C674 1.371 . S
C679 C678 1.382 . S
C680 N648 1.423 . S
C680 C681 1.362 . S
C680 C685 1.388 . S
C681 H645 0.929 . S
C681 C680 1.362 . S
C681 C682 1.376 . S
C682 H646 0.931 . S
C682 C681 1.376 . S
C682 C683 1.396 . S
C683 C665 1.472 . S
C683 C682 1.396 . S
C683 C684 1.348 . S
C684 H647 0.929 . S
C684 C683 1.348 . S
C684 C685 1.443 . S
C685 H649 0.932 . S
C685 C680 1.388 . S
C685 C684 1.443 . S
H686 C713 0.929 . S
N687 C712 1.433 . S
N687 C718 1.435 . S
N687 C724 1.423 . S
H688 C714 0.930 . S
H689 C717 0.931 . S
H690 C716 0.929 . S
H691 C719 0.930 . S
H692 C720 0.932 . S
H693 C723 0.929 . S
H694 C722 0.931 . S
H695 C725 0.929 . S
H696 C729 0.932 . S
H697 C726 0.931 . S
H698 C728 0.929 . S
H699 C731 0.929 . S
H700 C732 0.930 . S
H701 C734 0.929 . S
H702 C735 0.931 . S
H703 C737 0.930 . S
H704 C738 0.932 . S
H705 C740 0.931 . S
H706 C741 0.929 . S
H707 C743 0.929 . S
H708 C744 0.931 . S
H709 C746 0.929 . S
N710 C730 1.433 . S
N710 C736 1.435 . S
N710 C742 1.423 . S
H711 C747 0.932 . S
C712 N687 1.433 . S
C712 C713 1.363 . S
C712 C717 1.370 . S
C713 H686 0.929 . S
C713 C712 1.363 . S
C713 C714 1.385 . S
C714 H688 0.930 . S
C714 C713 1.385 . S
C714 C715 1.357 . S
C715 C714 1.357 . S
C715 C716 1.406 . S
C716 H690 0.929 . S
C716 C715 1.406 . S
C716 C717 1.391 . S
C717 H689 0.931 . S
C717 C712 1.370 . S
C717 C716 1.391 . S
C718 N687 1.435 . S
C718 C719 1.358 . S
C718 C723 1.371 . S
C719 H691 0.930 . S
C719 C718 1.358 . S
C719 C720 1.405 . S
C720 H692 0.932 . S
C720 C719 1.405 . S
C720 C721 1.383 . S
C721 C720 1.383 . S
C721 C722 1.393 . S
C722 H694 0.931 . S
C722 C721 1.393 . S
C722 C723 1.382 . S
C723 H693 0.929 . S
C723 C718 1.371 . S
C723 C722 1.382 . S
C724 N687 1.423 . S
C724 C725 1.362 . S
C724 C729 1.388 . S
C725 H695 0.929 . S
C725 C724 1.362 . S
C725 C726 1.376 . S
C726 H697 0.931 . S
C726 C725 1.376 . S
C726 C727 1.396 . S
C727 C726 1.396 . S
C727 C728 1.348 . S
C727 C745 1.472 . S
C728 H698 0.929 . S
C728 C727 1.348 . S
C728 C729 1.443 . S
C729 H696 0.932 . S
C729 C724 1.388 . S
C729 C728 1.443 . S
C730 N710 1.433 . S
C730 C731 1.363 . S
C730 C735 1.370 . S
C731 H699 0.929 . S
C731 C730 1.363 . S
C731 C732 1.385 . S
C732 H700 0.930 . S
C732 C731 1.385 . S
C732 C733 1.357 . S
C733 C732 1.357 . S
C733 C734 1.406 . S
C734 H701 0.929 . S
C734 C733 1.406 . S
C734 C735 1.391 . S
C735 H702 0.931 . S
C735 C730 1.370 . S
C735 C734 1.391 . S
C736 N710 1.435 . S
C736 C737 1.358 . S
C736 C741 1.371 . S
C737 H703 0.930 . S
C737 C736 1.358 . S
C737 C738 1.405 . S
C738 H704 0.932 . S
C738 C737 1.405 . S
C738 C739 1.383 . S
C739 C738 1.383 . S
C739 C740 1.393 . S
C740 H705 0.931 . S
C740 C739 1.393 . S
C740 C741 1.382 . S
C741 H706 0.929 . S
C741 C736 1.371 . S
C741 C740 1.382 . S
C742 N710 1.423 . S
C742 C743 1.362 . S
C742 C747 1.388 . S
C743 H707 0.929 . S
C743 C742 1.362 . S
C743 C744 1.376 . S
C744 H708 0.931 . S
C744 C743 1.376 . S
C744 C745 1.396 . S
C745 C727 1.472 . S
C745 C744 1.396 . S
C745 C746 1.348 . S
C746 H709 0.929 . S
C746 C745 1.348 . S
C746 C747 1.443 . S
C747 H711 0.932 . S
C747 C742 1.388 . S
C747 C746 1.443 . S
H748 C775 0.929 . S
N749 C774 1.433 . S
N749 C780 1.435 . S
N749 C786 1.423 . S
H750 C776 0.930 . S
H751 C779 0.931 . S
H752 C778 0.929 . S
H753 C781 0.930 . S
H754 C782 0.932 . S
H755 C785 0.929 . S
H756 C784 0.931 . S
H757 C787 0.929 . S
H758 C791 0.932 . S
H759 C788 0.931 . S
H760 C790 0.929 . S
H761 C793 0.929 . S
H762 C794 0.930 . S
H763 C796 0.929 . S
H764 C797 0.931 . S
H765 C799 0.930 . S
H766 C800 0.932 . S
H767 C802 0.931 . S
H768 C803 0.929 . S
H769 C805 0.929 . S
H770 C806 0.931 . S
H771 C808 0.929 . S
N772 C792 1.433 . S
N772 C798 1.435 . S
N772 C804 1.423 . S
H773 C809 0.932 . S
C774 N749 1.433 . S
C774 C775 1.363 . S
C774 C779 1.370 . S
C775 H748 0.929 . S
C775 C774 1.363 . S
C775 C776 1.385 . S
C776 H750 0.930 . S
C776 C775 1.385 . S
C776 C777 1.357 . S
C777 C776 1.357 . S
C777 C778 1.406 . S
C778 H752 0.929 . S
C778 C777 1.406 . S
C778 C779 1.391 . S
C779 H751 0.931 . S
C779 C774 1.370 . S
C779 C778 1.391 . S
C780 N749 1.435 . S
C780 C781 1.358 . S
C780 C785 1.371 . S
C781 H753 0.930 . S
C781 C780 1.358 . S
C781 C782 1.405 . S
C782 H754 0.932 . S
C782 C781 1.405 . S
C782 C783 1.383 . S
C783 C782 1.383 . S
C783 C784 1.393 . S
C784 H756 0.931 . S
C784 C783 1.393 . S
C784 C785 1.382 . S
C785 H755 0.929 . S
C785 C780 1.371 . S
C785 C784 1.382 . S
C786 N749 1.423 . S
C786 C787 1.362 . S
C786 C791 1.388 . S
C787 H757 0.929 . S
C787 C786 1.362 . S
C787 C788 1.376 . S
C788 H759 0.931 . S
C788 C787 1.376 . S
C788 C789 1.396 . S
C789 C788 1.396 . S
C789 C790 1.348 . S
C789 C807 1.472 . S
C790 H760 0.929 . S
C790 C789 1.348 . S
C790 C791 1.443 . S
C791 H758 0.932 . S
C791 C786 1.388 . S
C791 C790 1.443 . S
C792 N772 1.433 . S
C792 C793 1.363 . S
C792 C797 1.370 . S
C793 H761 0.929 . S
C793 C792 1.363 . S
C793 C794 1.385 . S
C794 H762 0.930 . S
C794 C793 1.385 . S
C794 C795 1.357 . S
C795 C794 1.357 . S
C795 C796 1.406 . S
C796 H763 0.929 . S
C796 C795 1.406 . S
C796 C797 1.391 . S
C797 H764 0.931 . S
C797 C792 1.370 . S
C797 C796 1.391 . S
C798 N772 1.435 . S
C798 C799 1.358 . S
C798 C803 1.371 . S
C799 H765 0.930 . S
C799 C798 1.358 . S
C799 C800 1.405 . S
C800 H766 0.932 . S
C800 C799 1.405 . S
C800 C801 1.383 . S
C801 C800 1.383 . S
C801 C802 1.393 . S
C802 H767 0.931 . S
C802 C801 1.393 . S
C802 C803 1.382 . S
C803 H768 0.929 . S
C803 C798 1.371 . S
C803 C802 1.382 . S
C804 N772 1.423 . S
C804 C805 1.362 . S
C804 C809 1.388 . S
C805 H769 0.929 . S
C805 C804 1.362 . S
C805 C806 1.376 . S
C806 H770 0.931 . S
C806 C805 1.376 . S
C806 C807 1.396 . S
C807 C789 1.472 . S
C807 C806 1.396 . S
C807 C808 1.348 . S
C808 H771 0.929 . S
C808 C807 1.348 . S
C808 C809 1.443 . S
C809 H773 0.932 . S
C809 C804 1.388 . S
C809 C808 1.443 . S
H810 C837 0.929 . S
N811 C836 1.433 . S
N811 C842 1.435 . S
N811 C848 1.423 . S
H812 C838 0.930 . S
H813 C841 0.931 . S
H814 C840 0.929 . S
H815 C843 0.930 . S
H816 C844 0.932 . S
H817 C847 0.929 . S
H818 C846 0.931 . S
H819 C849 0.929 . S
H820 C853 0.932 1_655 S
H821 C850 0.931 . S
H822 C852 0.929 . S
H823 C855 0.929 . S
H824 C856 0.930 . S
H825 C858 0.929 . S
H826 C859 0.931 . S
H827 C861 0.930 . S
H828 C862 0.932 . S
H829 C864 0.931 . S
H830 C865 0.929 . S
H831 C867 0.929 . S
H832 C868 0.931 . S
H833 C870 0.929 . S
N834 C854 1.433 . S
N834 C860 1.435 . S
N834 C866 1.423 . S
H835 C871 0.932 1_655 S
C836 N811 1.433 . S
C836 C837 1.363 . S
C836 C841 1.370 1_455 S
C837 H810 0.929 . S
C837 C836 1.363 . S
C837 C838 1.385 . S
C838 H812 0.930 . S
C838 C837 1.385 . S
C838 C839 1.357 1_455 S
C839 C838 1.357 1_655 S
C839 C840 1.406 . S
C840 H814 0.929 . S
C840 C839 1.406 . S
C840 C841 1.391 . S
C841 H813 0.931 . S
C841 C836 1.370 1_655 S
C841 C840 1.391 . S
C842 N811 1.435 . S
C842 C843 1.358 1_455 S
C842 C847 1.371 . S
C843 H815 0.930 . S
C843 C842 1.358 1_655 S
C843 C844 1.405 . S
C844 H816 0.932 . S
C844 C843 1.405 . S
C844 C845 1.383 1_655 S
C845 C844 1.383 1_455 S
C845 C846 1.393 . S
C846 H818 0.931 . S
C846 C845 1.393 . S
C846 C847 1.382 . S
C847 H817 0.929 . S
C847 C842 1.371 . S
C847 C846 1.382 . S
C848 N811 1.423 . S
C848 C849 1.362 . S
C848 C853 1.388 . S
C849 H819 0.929 . S
C849 C848 1.362 . S
C849 C850 1.376 . S
C850 H821 0.931 . S
C850 C849 1.376 . S
C850 C851 1.396 . S
C851 C850 1.396 . S
C851 C852 1.348 . S
C851 C869 1.472 . S
C852 H822 0.929 . S
C852 C851 1.348 . S
C852 C853 1.443 . S
C853 H820 0.932 1_455 S
C853 C848 1.388 . S
C853 C852 1.443 . S
C854 N834 1.433 . S
C854 C855 1.363 . S
C854 C859 1.370 1_455 S
C855 H823 0.929 . S
C855 C854 1.363 . S
C855 C856 1.385 . S
C856 H824 0.930 . S
C856 C855 1.385 . S
C856 C857 1.357 1_455 S
C857 C856 1.357 1_655 S
C857 C858 1.406 . S
C858 H825 0.929 . S
C858 C857 1.406 . S
C858 C859 1.391 . S
C859 H826 0.931 . S
C859 C854 1.370 1_655 S
C859 C858 1.391 . S
C860 N834 1.435 . S
C860 C861 1.358 1_455 S
C860 C865 1.371 . S
C861 H827 0.930 . S
C861 C860 1.358 1_655 S
C861 C862 1.405 . S
C862 H828 0.932 . S
C862 C861 1.405 . S
C862 C863 1.383 1_655 S
C863 C862 1.383 1_455 S
C863 C864 1.393 . S
C864 H829 0.931 . S
C864 C863 1.393 . S
C864 C865 1.382 . S
C865 H830 0.929 . S
C865 C860 1.371 . S
C865 C864 1.382 . S
C866 N834 1.423 . S
C866 C867 1.362 . S
C866 C871 1.388 . S
C867 H831 0.929 . S
C867 C866 1.362 . S
C867 C868 1.376 . S
C868 H832 0.931 . S
C868 C867 1.376 . S
C868 C869 1.396 . S
C869 C851 1.472 . S
C869 C868 1.396 . S
C869 C870 1.348 . S
C870 H833 0.929 . S
C870 C869 1.348 . S
C870 C871 1.443 . S
C871 H835 0.932 1_455 S
C871 C866 1.388 . S
C871 C870 1.443 . S
H872 C899 0.929 . S
N873 C898 1.433 . S
N873 C904 1.435 . S
N873 C910 1.423 . S
H874 C900 0.930 . S
H875 C903 0.931 . S
H876 C902 0.929 . S
H877 C905 0.930 . S
H878 C906 0.932 . S
H879 C909 0.929 . S
H880 C908 0.931 . S
H881 C911 0.929 . S
H882 C915 0.932 . S
H883 C912 0.931 . S
H884 C914 0.929 . S
H885 C917 0.929 . S
H886 C918 0.930 . S
H887 C920 0.929 . S
H888 C921 0.931 . S
H889 C923 0.930 . S
H890 C924 0.932 . S
H891 C926 0.931 . S
H892 C927 0.929 . S
H893 C929 0.929 . S
H894 C930 0.931 . S
H895 C932 0.929 . S
N896 C916 1.433 . S
N896 C922 1.435 . S
N896 C928 1.423 . S
H897 C933 0.932 . S
C898 N873 1.433 . S
C898 C899 1.363 . S
C898 C903 1.370 . S
C899 H872 0.929 . S
C899 C898 1.363 . S
C899 C900 1.385 . S
C900 H874 0.930 . S
C900 C899 1.385 . S
C900 C901 1.357 . S
C901 C900 1.357 . S
C901 C902 1.406 . S
C902 H876 0.929 . S
C902 C901 1.406 . S
C902 C903 1.391 . S
C903 H875 0.931 . S
C903 C898 1.370 . S
C903 C902 1.391 . S
C904 N873 1.435 . S
C904 C905 1.358 . S
C904 C909 1.371 . S
C905 H877 0.930 . S
C905 C904 1.358 . S
C905 C906 1.405 . S
C906 H878 0.932 . S
C906 C905 1.405 . S
C906 C907 1.383 . S
C907 C906 1.383 . S
C907 C908 1.393 . S
C908 H880 0.931 . S
C908 C907 1.393 . S
C908 C909 1.382 . S
C909 H879 0.929 . S
C909 C904 1.371 . S
C909 C908 1.382 . S
C910 N873 1.423 . S
C910 C911 1.362 . S
C910 C915 1.388 . S
C911 H881 0.929 . S
C911 C910 1.362 . S
C911 C912 1.376 . S
C912 H883 0.931 . S
C912 C911 1.376 . S
C912 C913 1.396 . S
C913 C912 1.396 . S
C913 C914 1.348 . S
C913 C931 1.472 . S
C914 H884 0.929 . S
C914 C913 1.348 . S
C914 C915 1.443 . S
C915 H882 0.932 . S
C915 C910 1.388 . S
C915 C914 1.443 . S
C916 N896 1.433 . S
C916 C917 1.363 . S
C916 C921 1.370 . S
C917 H885 0.929 . S
C917 C916 1.363 . S
C917 C918 1.385 . S
C918 H886 0.930 . S
C918 C917 1.385 . S
C918 C919 1.357 . S
C919 C918 1.357 . S
C919 C920 1.406 . S
C920 H887 0.929 . S
C920 C919 1.406 . S
C920 C921 1.391 . S
C921 H888 0.931 . S
C921 C916 1.370 . S
C921 C920 1.391 . S
C922 N896 1.435 . S
C922 C923 1.358 . S
C922 C927 1.371 . S
C923 H889 0.930 . S
C923 C922 1.358 . S
C923 C924 1.405 . S
C924 H890 0.932 . S
C924 C923 1.405 . S
C924 C925 1.383 . S
C925 C924 1.383 . S
C925 C926 1.393 . S
C926 H891 0.931 . S
C926 C925 1.393 . S
C926 C927 1.382 . S
C927 H892 0.929 . S
C927 C922 1.371 . S
C927 C926 1.382 . S
C928 N896 1.423 . S
C928 C929 1.362 . S
C928 C933 1.388 . S
C929 H893 0.929 . S
C929 C928 1.362 . S
C929 C930 1.376 . S
C930 H894 0.931 . S
C930 C929 1.376 . S
C930 C931 1.396 . S
C931 C913 1.472 . S
C931 C930 1.396 . S
C931 C932 1.348 . S
C932 H895 0.929 . S
C932 C931 1.348 . S
C932 C933 1.443 . S
C933 H897 0.932 . S
C933 C928 1.388 . S
C933 C932 1.443 . S
H934 C961 0.929 . S
N935 C960 1.433 . S
N935 C966 1.435 . S
N935 C972 1.423 . S
H936 C962 0.930 . S
H937 C965 0.931 . S
H938 C964 0.929 . S
H939 C967 0.930 . S
H940 C968 0.932 . S
H941 C971 0.929 . S
H942 C970 0.931 . S
H943 C973 0.929 . S
H944 C977 0.932 1_545 S
H945 C974 0.931 . S
H946 C976 0.929 . S
H947 C979 0.929 . S
H948 C980 0.930 . S
H949 C982 0.929 . S
H950 C983 0.931 . S
H951 C985 0.930 . S
H952 C986 0.932 . S
H953 C988 0.931 . S
H954 C989 0.929 . S
H955 C991 0.929 . S
H956 C992 0.931 . S
H957 C994 0.929 . S
N958 C978 1.433 . S
N958 C984 1.435 . S
N958 C990 1.423 . S
H959 C995 0.932 1_545 S
C960 N935 1.433 . S
C960 C961 1.363 . S
C960 C965 1.370 1_565 S
C961 H934 0.929 . S
C961 C960 1.363 . S
C961 C962 1.385 . S
C962 H936 0.930 . S
C962 C961 1.385 . S
C962 C963 1.357 1_565 S
C963 C962 1.357 1_545 S
C963 C964 1.406 . S
C964 H938 0.929 . S
C964 C963 1.406 . S
C964 C965 1.391 . S
C965 H937 0.931 . S
C965 C960 1.370 1_545 S
C965 C964 1.391 . S
C966 N935 1.435 . S
C966 C967 1.358 1_565 S
C966 C971 1.371 . S
C967 H939 0.930 . S
C967 C966 1.358 1_545 S
C967 C968 1.405 . S
C968 H940 0.932 . S
C968 C967 1.405 . S
C968 C969 1.383 1_545 S
C969 C968 1.383 1_565 S
C969 C970 1.393 . S
C970 H942 0.931 . S
C970 C969 1.393 . S
C970 C971 1.382 . S
C971 H941 0.929 . S
C971 C966 1.371 . S
C971 C970 1.382 . S
C972 N935 1.423 . S
C972 C973 1.362 . S
C972 C977 1.388 . S
C973 H943 0.929 . S
C973 C972 1.362 . S
C973 C974 1.376 . S
C974 H945 0.931 . S
C974 C973 1.376 . S
C974 C975 1.396 . S
C975 C974 1.396 . S
C975 C976 1.348 . S
C975 C993 1.472 . S
C976 H946 0.929 . S
C976 C975 1.348 . S
C976 C977 1.443 . S
C977 H944 0.932 1_565 S
C977 C972 1.388 . S
C977 C976 1.443 . S
C978 N958 1.433 . S
C978 C979 1.363 . S
C978 C983 1.370 1_565 S
C979 H947 0.929 . S
C979 C978 1.363 . S
C979 C980 1.385 . S
C980 H948 0.930 . S
C980 C979 1.385 . S
C980 C981 1.357 1_565 S
C981 C980 1.357 1_545 S
C981 C982 1.406 . S
C982 H949 0.929 . S
C982 C981 1.406 . S
C982 C983 1.391 . S
C983 H950 0.931 . S
C983 C978 1.370 1_545 S
C983 C982 1.391 . S
C984 N958 1.435 . S
C984 C985 1.358 1_565 S
C984 C989 1.371 . S
C985 H951 0.930 . S
C985 C984 1.358 1_545 S
C985 C986 1.405 . S
C986 H952 0.932 . S
C986 C985 1.405 . S
C986 C987 1.383 1_545 S
C987 C986 1.383 1_565 S
C987 C988 1.393 . S
C988 H953 0.931 . S
C988 C987 1.393 . S
C988 C989 1.382 . S
C989 H954 0.929 . S
C989 C984 1.371 . S
C989 C988 1.382 . S
C990 N958 1.423 . S
C990 C991 1.362 . S
C990 C995 1.388 . S
C991 H955 0.929 . S
C991 C990 1.362 . S
C991 C992 1.376 . S
C992 H956 0.931 . S
C992 C991 1.376 . S
C992 C993 1.396 . S
C993 C975 1.472 . S
C993 C992 1.396 . S
C993 C994 1.348 . S
C994 H957 0.929 . S
C994 C993 1.348 . S
C994 C995 1.443 . S
C995 H959 0.932 1_565 S
C995 C990 1.388 . S
C995 C994 1.443 . S
H996 C1023 0.929 . S
N997 C1022 1.433 . S
N997 C1028 1.435 . S
N997 C1034 1.423 . S
H998 C1024 0.930 . S
H999 C1027 0.931 . S
H1000 C1026 0.929 . S
H1001 C1029 0.930 . S
H1002 C1030 0.932 . S
H1003 C1033 0.929 . S
H1004 C1032 0.931 . S
H1005 C1035 0.929 . S
H1006 C1039 0.932 . S
H1007 C1036 0.931 . S
H1008 C1038 0.923 1_545 S
H1009 C1041 0.929 . S
H1010 C1042 0.930 . S
H1011 C1044 0.959 . S
H1012 C1045 0.943 . S
H1013 C1047 0.930 . S
H1014 C1048 0.932 . S
H1015 C1050 0.931 . S
H1016 C1051 0.929 . S
H1017 C1053 0.929 . S
H1018 C1054 0.931 . S
H1019 C1056 0.877 1_545 S
N1020 C1040 1.433 . S
N1020 C1046 1.435 . S
N1020 C1052 1.423 . S
H1021 C1057 0.951 . S
C1022 N997 1.433 . S
C1022 C1023 1.363 . S
C1022 C1027 1.370 1_565 S
C1023 H996 0.929 . S
C1023 C1022 1.363 . S
C1023 C1024 1.385 . S
C1024 H998 0.930 . S
C1024 C1023 1.385 . S
C1024 C1025 1.357 . S
C1025 C1024 1.357 . S
C1025 C1026 1.406 1_565 S
C1026 H1000 0.929 . S
C1026 C1025 1.406 1_545 S
C1026 C1027 1.391 . S
C1027 H999 0.931 . S
C1027 C1022 1.370 1_545 S
C1027 C1026 1.391 . S
C1028 N997 1.435 . S
C1028 C1029 1.358 1_565 S
C1028 C1033 1.371 . S
C1029 H1001 0.930 . S
C1029 C1028 1.358 1_545 S
C1029 C1030 1.405 . S
C1030 H1002 0.932 . S
C1030 C1029 1.405 . S
C1030 C1031 1.383 . S
C1031 C1030 1.383 . S
C1031 C1032 1.393 1_545 S
C1032 H1004 0.931 . S
C1032 C1031 1.393 1_565 S
C1032 C1033 1.382 . S
C1033 H1003 0.929 . S
C1033 C1028 1.371 . S
C1033 C1032 1.382 . S
C1034 N997 1.423 . S
C1034 C1035 1.362 . S
C1034 C1039 1.388 1_565 S
C1035 H1005 0.929 . S
C1035 C1034 1.362 . S
C1035 C1036 1.376 . S
C1036 H1007 0.931 . S
C1036 C1035 1.376 . S
C1036 C1037 1.396 . S
C1037 C1036 1.396 . S
C1037 C1038 1.376 . S
C1037 C1055 1.472 . S
C1038 H1008 0.923 1_565 S
C1038 C1037 1.376 . S
C1038 C1039 1.421 1_565 S
C1039 H1006 0.932 . S
C1039 C1034 1.388 1_545 S
C1039 C1038 1.421 1_545 S
C1040 N1020 1.433 . S
C1040 C1041 1.363 . S
C1040 C1045 1.361 1_565 S
C1041 H1009 0.929 . S
C1041 C1040 1.363 . S
C1041 C1042 1.385 . S
C1042 H1010 0.930 . S
C1042 C1041 1.385 . S
C1042 C1043 1.357 . S
C1043 C1042 1.357 . S
C1043 C1044 1.371 1_565 S
C1044 H1011 0.959 . S
C1044 C1043 1.371 1_545 S
C1044 C1045 1.396 . S
C1045 H1012 0.943 . S
C1045 C1040 1.361 1_545 S
C1045 C1044 1.396 . S
C1046 N1020 1.435 . S
C1046 C1047 1.358 1_565 S
C1046 C1051 1.371 . S
C1047 H1013 0.930 . S
C1047 C1046 1.358 1_545 S
C1047 C1048 1.405 . S
C1048 H1014 0.932 . S
C1048 C1047 1.405 . S
C1048 C1049 1.383 . S
C1049 C1048 1.383 . S
C1049 C1050 1.393 1_545 S
C1050 H1015 0.931 . S
C1050 C1049 1.393 1_565 S
C1050 C1051 1.382 . S
C1051 H1016 0.929 . S
C1051 C1046 1.371 . S
C1051 C1050 1.382 . S
C1052 N1020 1.423 . S
C1052 C1053 1.362 . S
C1052 C1057 1.346 1_565 S
C1053 H1017 0.929 . S
C1053 C1052 1.362 . S
C1053 C1054 1.376 . S
C1054 H1018 0.931 . S
C1054 C1053 1.376 . S
C1054 C1055 1.396 . S
C1055 C1037 1.472 . S
C1055 C1054 1.396 . S
C1055 C1056 1.368 . S
C1056 H1019 0.877 1_565 S
C1056 C1055 1.368 . S
C1056 C1057 1.505 1_565 S
C1057 H1021 0.951 . S
C1057 C1052 1.346 1_545 S
C1057 C1056 1.505 1_545 S
H1058 C1085 0.929 . S
N1059 C1084 1.433 . S
N1059 C1090 1.435 . S
N1059 C1096 1.423 . S
H1060 C1086 0.930 . S
H1061 C1089 0.931 . S
H1062 C1088 0.929 . S
H1063 C1091 0.930 . S
H1064 C1092 0.932 . S
H1065 C1095 0.929 . S
H1066 C1094 0.931 . S
H1067 C1097 0.929 . S
H1068 C1101 0.932 1_455 S
H1069 C1098 0.931 . S
H1070 C1100 0.929 . S
H1071 C1103 0.929 . S
H1072 C1104 0.930 . S
H1073 C1106 0.929 . S
H1074 C1107 0.931 . S
H1075 C1109 0.930 . S
H1076 C1110 0.932 . S
H1077 C1112 0.931 . S
H1078 C1113 0.929 . S
H1079 C1115 0.929 . S
H1080 C1116 0.931 . S
H1081 C1118 0.929 . S
N1082 C1102 1.433 . S
N1082 C1108 1.435 . S
N1082 C1114 1.423 . S
H1083 C1119 0.932 1_455 S
C1084 N1059 1.433 . S
C1084 C1085 1.363 . S
C1084 C1089 1.370 1_655 S
C1085 H1058 0.929 . S
C1085 C1084 1.363 . S
C1085 C1086 1.385 . S
C1086 H1060 0.930 . S
C1086 C1085 1.385 . S
C1086 C1087 1.357 1_655 S
C1087 C1086 1.357 1_455 S
C1087 C1088 1.406 . S
C1088 H1062 0.929 . S
C1088 C1087 1.406 . S
C1088 C1089 1.391 . S
C1089 H1061 0.931 . S
C1089 C1084 1.370 1_455 S
C1089 C1088 1.391 . S
C1090 N1059 1.435 . S
C1090 C1091 1.358 1_655 S
C1090 C1095 1.371 . S
C1091 H1063 0.930 . S
C1091 C1090 1.358 1_455 S
C1091 C1092 1.405 . S
C1092 H1064 0.932 . S
C1092 C1091 1.405 . S
C1092 C1093 1.383 1_455 S
C1093 C1092 1.383 1_655 S
C1093 C1094 1.393 . S
C1094 H1066 0.931 . S
C1094 C1093 1.393 . S
C1094 C1095 1.382 . S
C1095 H1065 0.929 . S
C1095 C1090 1.371 . S
C1095 C1094 1.382 . S
C1096 N1059 1.423 . S
C1096 C1097 1.362 . S
C1096 C1101 1.388 . S
C1097 H1067 0.929 . S
C1097 C1096 1.362 . S
C1097 C1098 1.376 . S
C1098 H1069 0.931 . S
C1098 C1097 1.376 . S
C1098 C1099 1.396 . S
C1099 C1098 1.396 . S
C1099 C1100 1.348 . S
C1099 C1117 1.472 . S
C1100 H1070 0.929 . S
C1100 C1099 1.348 . S
C1100 C1101 1.443 . S
C1101 H1068 0.932 1_655 S
C1101 C1096 1.388 . S
C1101 C1100 1.443 . S
C1102 N1082 1.433 . S
C1102 C1103 1.363 . S
C1102 C1107 1.370 1_655 S
C1103 H1071 0.929 . S
C1103 C1102 1.363 . S
C1103 C1104 1.385 . S
C1104 H1072 0.930 . S
C1104 C1103 1.385 . S
C1104 C1105 1.357 1_655 S
C1105 C1104 1.357 1_455 S
C1105 C1106 1.406 . S
C1106 H1073 0.929 . S
C1106 C1105 1.406 . S
C1106 C1107 1.391 . S
C1107 H1074 0.931 . S
C1107 C1102 1.370 1_455 S
C1107 C1106 1.391 . S
C1108 N1082 1.435 . S
C1108 C1109 1.358 1_655 S
C1108 C1113 1.371 . S
C1109 H1075 0.930 . S
C1109 C1108 1.358 1_455 S
C1109 C1110 1.405 . S
C1110 H1076 0.932 . S
C1110 C1109 1.405 . S
C1110 C1111 1.383 1_455 S
C1111 C1110 1.383 1_655 S
C1111 C1112 1.393 . S
C1112 H1077 0.931 . S
C1112 C1111 1.393 . S
C1112 C1113 1.382 . S
C1113 H1078 0.929 . S
C1113 C1108 1.371 . S
C1113 C1112 1.382 . S
C1114 N1082 1.423 . S
C1114 C1115 1.362 . S
C1114 C1119 1.388 . S
C1115 H1079 0.929 . S
C1115 C1114 1.362 . S
C1115 C1116 1.376 . S
C1116 H1080 0.931 . S
C1116 C1115 1.376 . S
C1116 C1117 1.396 . S
C1117 C1099 1.472 . S
C1117 C1116 1.396 . S
C1117 C1118 1.348 . S
C1118 H1081 0.929 . S
C1118 C1117 1.348 . S
C1118 C1119 1.443 . S
C1119 H1083 0.932 1_655 S
C1119 C1114 1.388 . S
C1119 C1118 1.443 . S
H1120 C1147 0.929 . S
N1121 C1146 1.433 . S
N1121 C1152 1.435 . S
N1121 C1158 1.423 . S
H1122 C1148 0.930 . S
H1123 C1151 0.931 . S
H1124 C1150 0.929 . S
H1125 C1153 0.930 . S
H1126 C1154 0.932 . S
H1127 C1157 0.929 . S
H1128 C1156 0.931 . S
H1129 C1159 0.929 . S
H1130 C1163 0.932 . S
H1131 C1160 0.931 . S
H1132 C1162 0.929 . S
H1133 C1165 0.929 . S
H1134 C1166 0.930 . S
H1135 C1168 0.929 . S
H1136 C1169 0.931 . S
H1137 C1171 0.930 . S
H1138 C1172 0.932 . S
H1139 C1174 0.931 . S
H1140 C1175 0.929 . S
H1141 C1177 0.929 . S
H1142 C1178 0.931 . S
H1143 C1180 0.929 . S
N1144 C1164 1.433 . S
N1144 C1170 1.435 . S
N1144 C1176 1.423 . S
H1145 C1181 0.932 . S
C1146 N1121 1.433 . S
C1146 C1147 1.363 . S
C1146 C1151 1.370 . S
C1147 H1120 0.929 . S
C1147 C1146 1.363 . S
C1147 C1148 1.385 . S
C1148 H1122 0.930 . S
C1148 C1147 1.385 . S
C1148 C1149 1.357 . S
C1149 C1148 1.357 . S
C1149 C1150 1.406 . S
C1150 H1124 0.929 . S
C1150 C1149 1.406 . S
C1150 C1151 1.391 . S
C1151 H1123 0.931 . S
C1151 C1146 1.370 . S
C1151 C1150 1.391 . S
C1152 N1121 1.435 . S
C1152 C1153 1.358 . S
C1152 C1157 1.371 . S
C1153 H1125 0.930 . S
C1153 C1152 1.358 . S
C1153 C1154 1.405 . S
C1154 H1126 0.932 . S
C1154 C1153 1.405 . S
C1154 C1155 1.383 . S
C1155 C1154 1.383 . S
C1155 C1156 1.393 . S
C1156 H1128 0.931 . S
C1156 C1155 1.393 . S
C1156 C1157 1.382 . S
C1157 H1127 0.929 . S
C1157 C1152 1.371 . S
C1157 C1156 1.382 . S
C1158 N1121 1.423 . S
C1158 C1159 1.362 . S
C1158 C1163 1.388 . S
C1159 H1129 0.929 . S
C1159 C1158 1.362 . S
C1159 C1160 1.376 . S
C1160 H1131 0.931 . S
C1160 C1159 1.376 . S
C1160 C1161 1.396 . S
C1161 C1160 1.396 . S
C1161 C1162 1.348 . S
C1161 C1179 1.472 . S
C1162 H1132 0.929 . S
C1162 C1161 1.348 . S
C1162 C1163 1.443 . S
C1163 H1130 0.932 . S
C1163 C1158 1.388 . S
C1163 C1162 1.443 . S
C1164 N1144 1.433 . S
C1164 C1165 1.363 . S
C1164 C1169 1.370 . S
C1165 H1133 0.929 . S
C1165 C1164 1.363 . S
C1165 C1166 1.385 . S
C1166 H1134 0.930 . S
C1166 C1165 1.385 . S
C1166 C1167 1.357 . S
C1167 C1166 1.357 . S
C1167 C1168 1.406 . S
C1168 H1135 0.929 . S
C1168 C1167 1.406 . S
C1168 C1169 1.391 . S
C1169 H1136 0.931 . S
C1169 C1164 1.370 . S
C1169 C1168 1.391 . S
C1170 N1144 1.435 . S
C1170 C1171 1.358 . S
C1170 C1175 1.371 . S
C1171 H1137 0.930 . S
C1171 C1170 1.358 . S
C1171 C1172 1.405 . S
C1172 H1138 0.932 . S
C1172 C1171 1.405 . S
C1172 C1173 1.383 . S
C1173 C1172 1.383 . S
C1173 C1174 1.393 . S
C1174 H1139 0.931 . S
C1174 C1173 1.393 . S
C1174 C1175 1.382 . S
C1175 H1140 0.929 . S
C1175 C1170 1.371 . S
C1175 C1174 1.382 . S
C1176 N1144 1.423 . S
C1176 C1177 1.362 . S
C1176 C1181 1.388 . S
C1177 H1141 0.929 . S
C1177 C1176 1.362 . S
C1177 C1178 1.376 . S
C1178 H1142 0.931 . S
C1178 C1177 1.376 . S
C1178 C1179 1.396 . S
C1179 C1161 1.472 . S
C1179 C1178 1.396 . S
C1179 C1180 1.348 . S
C1180 H1143 0.929 . S
C1180 C1179 1.348 . S
C1180 C1181 1.443 . S
C1181 H1145 0.932 . S
C1181 C1176 1.388 . S
C1181 C1180 1.443 . S
H1182 C1209 0.929 . S
N1183 C1208 1.433 . S
N1183 C1214 1.435 . S
N1183 C1220 1.423 . S
H1184 C1210 0.930 . S
H1185 C1213 0.931 . S
H1186 C1212 0.929 . S
H1187 C1215 0.930 . S
H1188 C1216 0.932 . S
H1189 C1219 0.929 . S
H1190 C1218 0.931 . S
H1191 C1221 0.929 . S
H1192 C1225 0.932 . S
H1193 C1222 0.931 . S
H1194 C1224 0.929 . S
H1195 C1227 0.929 . S
H1196 C1228 0.930 . S
H1197 C1230 0.929 . S
H1198 C1231 0.931 . S
H1199 C1233 0.930 . S
H1200 C1234 0.932 . S
H1201 C1236 0.931 . S
H1202 C1237 0.929 . S
H1203 C1239 0.929 . S
H1204 C1240 0.931 . S
H1205 C1242 0.929 . S
N1206 C1226 1.433 . S
N1206 C1232 1.435 . S
N1206 C1238 1.423 . S
H1207 C1243 0.932 . S
C1208 N1183 1.433 . S
C1208 C1209 1.363 . S
C1208 C1213 1.370 . S
C1209 H1182 0.929 . S
C1209 C1208 1.363 . S
C1209 C1210 1.385 . S
C1210 H1184 0.930 . S
C1210 C1209 1.385 . S
C1210 C1211 1.357 . S
C1211 C1210 1.357 . S
C1211 C1212 1.406 . S
C1212 H1186 0.929 . S
C1212 C1211 1.406 . S
C1212 C1213 1.391 . S
C1213 H1185 0.931 . S
C1213 C1208 1.370 . S
C1213 C1212 1.391 . S
C1214 N1183 1.435 . S
C1214 C1215 1.358 . S
C1214 C1219 1.371 . S
C1215 H1187 0.930 . S
C1215 C1214 1.358 . S
C1215 C1216 1.405 . S
C1216 H1188 0.932 . S
C1216 C1215 1.405 . S
C1216 C1217 1.383 . S
C1217 C1216 1.383 . S
C1217 C1218 1.393 . S
C1218 H1190 0.931 . S
C1218 C1217 1.393 . S
C1218 C1219 1.382 . S
C1219 H1189 0.929 . S
C1219 C1214 1.371 . S
C1219 C1218 1.382 . S
C1220 N1183 1.423 . S
C1220 C1221 1.362 . S
C1220 C1225 1.388 . S
C1221 H1191 0.929 . S
C1221 C1220 1.362 . S
C1221 C1222 1.376 . S
C1222 H1193 0.931 . S
C1222 C1221 1.376 . S
C1222 C1223 1.396 . S
C1223 C1222 1.396 . S
C1223 C1224 1.348 . S
C1223 C1241 1.472 . S
C1224 H1194 0.929 . S
C1224 C1223 1.348 . S
C1224 C1225 1.443 . S
C1225 H1192 0.932 . S
C1225 C1220 1.388 . S
C1225 C1224 1.443 . S
C1226 N1206 1.433 . S
C1226 C1227 1.363 . S
C1226 C1231 1.370 . S
C1227 H1195 0.929 . S
C1227 C1226 1.363 . S
C1227 C1228 1.385 . S
C1228 H1196 0.930 . S
C1228 C1227 1.385 . S
C1228 C1229 1.357 . S
C1229 C1228 1.357 . S
C1229 C1230 1.406 . S
C1230 H1197 0.929 . S
C1230 C1229 1.406 . S
C1230 C1231 1.391 . S
C1231 H1198 0.931 . S
C1231 C1226 1.370 . S
C1231 C1230 1.391 . S
C1232 N1206 1.435 . S
C1232 C1233 1.358 . S
C1232 C1237 1.371 . S
C1233 H1199 0.930 . S
C1233 C1232 1.358 . S
C1233 C1234 1.405 . S
C1234 H1200 0.932 . S
C1234 C1233 1.405 . S
C1234 C1235 1.383 . S
C1235 C1234 1.383 . S
C1235 C1236 1.393 . S
C1236 H1201 0.931 . S
C1236 C1235 1.393 . S
C1236 C1237 1.382 . S
C1237 H1202 0.929 . S
C1237 C1232 1.371 . S
C1237 C1236 1.382 . S
C1238 N1206 1.423 . S
C1238 C1239 1.362 . S
C1238 C1243 1.388 . S
C1239 H1203 0.929 . S
C1239 C1238 1.362 . S
C1239 C1240 1.376 . S
C1240 H1204 0.931 . S
C1240 C1239 1.376 . S
C1240 C1241 1.396 . S
C1241 C1223 1.472 . S
C1241 C1240 1.396 . S
C1241 C1242 1.348 . S
C1242 H1205 0.929 . S
C1242 C1241 1.348 . S
C1242 C1243 1.443 . S
C1243 H1207 0.932 . S
C1243 C1238 1.388 . S
C1243 C1242 1.443 . S
H1244 C1271 0.929 . S
N1245 C1270 1.433 . S
N1245 C1276 1.435 . S
N1245 C1282 1.423 . S
H1246 C1272 0.930 . S
H1247 C1275 0.931 . S
H1248 C1274 0.929 . S
H1249 C1277 0.930 . S
H1250 C1278 0.932 . S
H1251 C1281 0.929 . S
H1252 C1280 0.931 . S
H1253 C1283 0.929 . S
H1254 C1287 0.932 . S
H1255 C1284 0.931 . S
H1256 C1286 0.929 . S
H1257 C1289 0.929 . S
H1258 C1290 0.930 . S
H1259 C1292 0.929 . S
H1260 C1293 0.931 . S
H1261 C1295 0.930 . S
H1262 C1296 0.932 . S
H1263 C1298 0.931 . S
H1264 C1299 0.929 . S
H1265 C1301 0.929 . S
H1266 C1302 0.931 . S
H1267 C1304 0.929 . S
N1268 C1288 1.433 . S
N1268 C1294 1.435 . S
N1268 C1300 1.423 . S
H1269 C1305 0.932 . S
C1270 N1245 1.433 . S
C1270 C1271 1.363 . S
C1270 C1275 1.370 . S
C1271 H1244 0.929 . S
C1271 C1270 1.363 . S
C1271 C1272 1.385 . S
C1272 H1246 0.930 . S
C1272 C1271 1.385 . S
C1272 C1273 1.357 . S
C1273 C1272 1.357 . S
C1273 C1274 1.406 . S
C1274 H1248 0.929 . S
C1274 C1273 1.406 . S
C1274 C1275 1.391 . S
C1275 H1247 0.931 . S
C1275 C1270 1.370 . S
C1275 C1274 1.391 . S
C1276 N1245 1.435 . S
C1276 C1277 1.358 . S
C1276 C1281 1.371 . S
C1277 H1249 0.930 . S
C1277 C1276 1.358 . S
C1277 C1278 1.405 . S
C1278 H1250 0.932 . S
C1278 C1277 1.405 . S
C1278 C1279 1.383 . S
C1279 C1278 1.383 . S
C1279 C1280 1.393 . S
C1280 H1252 0.931 . S
C1280 C1279 1.393 . S
C1280 C1281 1.382 . S
C1281 H1251 0.929 . S
C1281 C1276 1.371 . S
C1281 C1280 1.382 . S
C1282 N1245 1.423 . S
C1282 C1283 1.362 . S
C1282 C1287 1.388 . S
C1283 H1253 0.929 . S
C1283 C1282 1.362 . S
C1283 C1284 1.376 . S
C1284 H1255 0.931 . S
C1284 C1283 1.376 . S
C1284 C1285 1.396 . S
C1285 C1284 1.396 . S
C1285 C1286 1.348 . S
C1285 C1303 1.472 . S
C1286 H1256 0.929 . S
C1286 C1285 1.348 . S
C1286 C1287 1.443 . S
C1287 H1254 0.932 . S
C1287 C1282 1.388 . S
C1287 C1286 1.443 . S
C1288 N1268 1.433 . S
C1288 C1289 1.363 . S
C1288 C1293 1.370 . S
C1289 H1257 0.929 . S
C1289 C1288 1.363 . S
C1289 C1290 1.385 . S
C1290 H1258 0.930 . S
C1290 C1289 1.385 . S
C1290 C1291 1.357 . S
C1291 C1290 1.357 . S
C1291 C1292 1.406 . S
C1292 H1259 0.929 . S
C1292 C1291 1.406 . S
C1292 C1293 1.391 . S
C1293 H1260 0.931 . S
C1293 C1288 1.370 . S
C1293 C1292 1.391 . S
C1294 N1268 1.435 . S
C1294 C1295 1.358 . S
C1294 C1299 1.371 . S
C1295 H1261 0.930 . S
C1295 C1294 1.358 . S
C1295 C1296 1.405 . S
C1296 H1262 0.932 . S
C1296 C1295 1.405 . S
C1296 C1297 1.383 . S
C1297 C1296 1.383 . S
C1297 C1298 1.393 . S
C1298 H1263 0.931 . S
C1298 C1297 1.393 . S
C1298 C1299 1.382 . S
C1299 H1264 0.929 . S
C1299 C1294 1.371 . S
C1299 C1298 1.382 . S
C1300 N1268 1.423 . S
C1300 C1301 1.362 . S
C1300 C1305 1.388 . S
C1301 H1265 0.929 . S
C1301 C1300 1.362 . S
C1301 C1302 1.376 . S
C1302 H1266 0.931 . S
C1302 C1301 1.376 . S
C1302 C1303 1.396 . S
C1303 C1285 1.472 . S
C1303 C1302 1.396 . S
C1303 C1304 1.348 . S
C1304 H1267 0.929 . S
C1304 C1303 1.348 . S
C1304 C1305 1.443 . S
C1305 H1269 0.932 . S
C1305 C1300 1.388 . S
C1305 C1304 1.443 . S
H1306 C1333 0.929 . S
N1307 C1332 1.433 . S
N1307 C1338 1.435 . S
N1307 C1344 1.423 . S
H1308 C1334 0.930 . S
H1309 C1337 0.931 . S
H1310 C1336 0.929 . S
H1311 C1339 0.930 . S
H1312 C1340 0.932 . S
H1313 C1343 0.929 . S
H1314 C1342 0.931 . S
H1315 C1345 0.929 . S
H1316 C1349 0.932 . S
H1317 C1346 0.931 . S
H1318 C1348 0.929 . S
H1319 C1351 0.929 . S
H1320 C1352 0.930 . S
H1321 C1354 0.929 . S
H1322 C1355 0.931 . S
H1323 C1357 0.930 . S
H1324 C1358 0.932 . S
H1325 C1360 0.931 . S
H1326 C1361 0.929 . S
H1327 C1363 0.929 . S
H1328 C1364 0.931 . S
H1329 C1366 0.929 . S
N1330 C1350 1.433 . S
N1330 C1356 1.435 . S
N1330 C1362 1.423 . S
H1331 C1367 0.932 . S
C1332 N1307 1.433 . S
C1332 C1333 1.363 . S
C1332 C1337 1.370 . S
C1333 H1306 0.929 . S
C1333 C1332 1.363 . S
C1333 C1334 1.385 . S
C1334 H1308 0.930 . S
C1334 C1333 1.385 . S
C1334 C1335 1.357 . S
C1335 C1334 1.357 . S
C1335 C1336 1.406 . S
C1336 H1310 0.929 . S
C1336 C1335 1.406 . S
C1336 C1337 1.391 . S
C1337 H1309 0.931 . S
C1337 C1332 1.370 . S
C1337 C1336 1.391 . S
C1338 N1307 1.435 . S
C1338 C1339 1.358 . S
C1338 C1343 1.371 . S
C1339 H1311 0.930 . S
C1339 C1338 1.358 . S
C1339 C1340 1.405 . S
C1340 H1312 0.932 . S
C1340 C1339 1.405 . S
C1340 C1341 1.383 . S
C1341 C1340 1.383 . S
C1341 C1342 1.393 . S
C1342 H1314 0.931 . S
C1342 C1341 1.393 . S
C1342 C1343 1.382 . S
C1343 H1313 0.929 . S
C1343 C1338 1.371 . S
C1343 C1342 1.382 . S
C1344 N1307 1.423 . S
C1344 C1345 1.362 . S
C1344 C1349 1.388 . S
C1345 H1315 0.929 . S
C1345 C1344 1.362 . S
C1345 C1346 1.376 . S
C1346 H1317 0.931 . S
C1346 C1345 1.376 . S
C1346 C1347 1.396 . S
C1347 C1346 1.396 . S
C1347 C1348 1.348 . S
C1347 C1365 1.472 . S
C1348 H1318 0.929 . S
C1348 C1347 1.348 . S
C1348 C1349 1.443 . S
C1349 H1316 0.932 . S
C1349 C1344 1.388 . S
C1349 C1348 1.443 . S
C1350 N1330 1.433 . S
C1350 C1351 1.363 . S
C1350 C1355 1.370 . S
C1351 H1319 0.929 . S
C1351 C1350 1.363 . S
C1351 C1352 1.385 . S
C1352 H1320 0.930 . S
C1352 C1351 1.385 . S
C1352 C1353 1.357 . S
C1353 C1352 1.357 . S
C1353 C1354 1.406 . S
C1354 H1321 0.929 . S
C1354 C1353 1.406 . S
C1354 C1355 1.391 . S
C1355 H1322 0.931 . S
C1355 C1350 1.370 . S
C1355 C1354 1.391 . S
C1356 N1330 1.435 . S
C1356 C1357 1.358 . S
C1356 C1361 1.371 . S
C1357 H1323 0.930 . S
C1357 C1356 1.358 . S
C1357 C1358 1.405 . S
C1358 H1324 0.932 . S
C1358 C1357 1.405 . S
C1358 C1359 1.383 . S
C1359 C1358 1.383 . S
C1359 C1360 1.393 . S
C1360 H1325 0.931 . S
C1360 C1359 1.393 . S
C1360 C1361 1.382 . S
C1361 H1326 0.929 . S
C1361 C1356 1.371 . S
C1361 C1360 1.382 . S
C1362 N1330 1.423 . S
C1362 C1363 1.362 . S
C1362 C1367 1.388 . S
C1363 H1327 0.929 . S
C1363 C1362 1.362 . S
C1363 C1364 1.376 . S
C1364 H1328 0.931 . S
C1364 C1363 1.376 . S
C1364 C1365 1.396 . S
C1365 C1347 1.472 . S
C1365 C1364 1.396 . S
C1365 C1366 1.348 . S
C1366 H1329 0.929 . S
C1366 C1365 1.348 . S
C1366 C1367 1.443 . S
C1367 H1331 0.932 . S
C1367 C1362 1.388 . S
C1367 C1366 1.443 . S
H1368 C1380 0.930 . S
H1369 C1382 0.930 . S
H1370 C1383 0.930 . S
H1371 C1387 0.959 . S
H1372 C1387 0.959 . S
H1373 C1387 0.961 . S
H1374 C1388 0.960 . S
H1375 C1388 0.961 . S
H1376 C1388 0.959 . S
H1377 C1391 0.929 . S
H1378 C1392 0.942 1_455 S
H1379 C1394 0.930 . S
C1380 H1368 0.930 . S
C1380 C1381 1.399 . S
C1380 C1385 1.399 . S
C1381 C1380 1.399 . S
C1381 C1382 1.376 1_655 S
C1382 H1369 0.930 . S
C1382 C1381 1.376 1_455 S
C1382 C1383 1.388 . S
C1383 H1370 0.930 . S
C1383 C1382 1.388 . S
C1383 C1384 1.380 1_455 S
C1384 C1383 1.380 1_655 S
C1384 C1385 1.380 . S
C1384 C1390 1.495 . S
C1385 C1380 1.399 . S
C1385 C1384 1.380 . S
C1385 C1386 1.516 . S
C1386 C1385 1.516 . S
C1386 C1387 1.502 . S
C1386 C1388 1.561 1_655 S
C1386 C1389 1.526 . S
C1387 H1371 0.959 . S
C1387 H1372 0.959 . S
C1387 H1373 0.961 . S
C1387 C1386 1.502 . S
C1388 H1374 0.960 . S
C1388 H1375 0.961 . S
C1388 H1376 0.959 . S
C1388 C1386 1.561 1_455 S
C1389 C1386 1.526 . S
C1389 C1390 1.396 . S
C1389 C1394 1.390 . S
C1390 C1384 1.495 . S
C1390 C1389 1.396 . S
C1390 C1391 1.399 1_655 S
C1391 H1377 0.929 . S
C1391 C1390 1.399 1_455 S
C1391 C1392 1.373 1_455 S
C1392 H1378 0.942 1_655 S
C1392 C1391 1.373 1_655 S
C1392 C1393 1.391 . S
C1393 C1392 1.391 . S
C1393 C1394 1.387 . S
C1394 H1379 0.930 . S
C1394 C1389 1.390 . S
C1394 C1393 1.387 . S
H1395 C1407 0.930 . S
H1396 C1409 0.930 . S
H1397 C1410 0.930 . S
H1398 C1414 0.959 . S
H1399 C1414 0.959 . S
H1400 C1414 0.961 . S
H1401 C1415 0.960 . S
H1402 C1415 0.961 . S
H1403 C1415 0.959 . S
H1404 C1418 0.929 . S
H1405 C1419 0.931 . S
H1406 C1421 0.930 . S
C1407 H1395 0.930 . S
C1407 C1408 1.399 . S
C1407 C1412 1.399 . S
C1408 C1407 1.399 . S
C1408 C1409 1.376 . S
C1409 H1396 0.930 . S
C1409 C1408 1.376 . S
C1409 C1410 1.388 . S
C1410 H1397 0.930 . S
C1410 C1409 1.388 . S
C1410 C1411 1.390 . S
C1411 C1410 1.390 . S
C1411 C1412 1.394 . S
C1411 C1417 1.465 . S
C1412 C1407 1.399 . S
C1412 C1411 1.394 . S
C1412 C1413 1.516 . S
C1413 C1412 1.516 . S
C1413 C1414 1.502 . S
C1413 C1415 1.561 . S
C1413 C1416 1.526 . S
C1414 H1398 0.959 . S
C1414 H1399 0.959 . S
C1414 H1400 0.961 . S
C1414 C1413 1.502 . S
C1415 H1401 0.960 . S
C1415 H1402 0.961 . S
C1415 H1403 0.959 . S
C1415 C1413 1.561 . S
C1416 C1413 1.526 . S
C1416 C1417 1.396 . S
C1416 C1421 1.390 . S
C1417 C1411 1.465 . S
C1417 C1416 1.396 . S
C1417 C1418 1.399 . S
C1418 H1404 0.929 . S
C1418 C1417 1.399 . S
C1418 C1419 1.385 . S
C1419 H1405 0.931 . S
C1419 C1418 1.385 . S
C1419 C1420 1.389 . S
C1420 C1419 1.389 . S
C1420 C1421 1.387 . S
C1421 H1406 0.930 . S
C1421 C1416 1.390 . S
C1421 C1420 1.387 . S
H1422 C1434 0.930 . S
H1423 C1436 0.930 . S
H1424 C1437 0.930 . S
H1425 C1441 0.959 . S
H1426 C1441 0.959 . S
H1427 C1441 0.961 . S
H1428 C1442 0.960 . S
H1429 C1442 0.961 . S
H1430 C1442 0.959 . S
H1431 C1445 0.929 . S
H1432 C1446 0.931 . S
H1433 C1448 0.930 . S
C1434 H1422 0.930 . S
C1434 C1435 1.399 . S
C1434 C1439 1.399 . S
C1435 C1434 1.399 . S
C1435 C1436 1.376 1_545 S
C1436 H1423 0.930 . S
C1436 C1435 1.376 1_565 S
C1436 C1437 1.388 . S
C1437 H1424 0.930 . S
C1437 C1436 1.388 . S
C1437 C1438 1.391 1_565 S
C1438 C1437 1.391 1_545 S
C1438 C1439 1.391 . S
C1438 C1444 1.457 1_545 S
C1439 C1434 1.399 . S
C1439 C1438 1.391 . S
C1439 C1440 1.516 . S
C1440 C1439 1.516 . S
C1440 C1441 1.502 . S
C1440 C1442 1.561 . S
C1440 C1443 1.526 . S
C1441 H1425 0.959 . S
C1441 H1426 0.959 . S
C1441 H1427 0.961 . S
C1441 C1440 1.502 . S
C1442 H1428 0.960 . S
C1442 H1429 0.961 . S
C1442 H1430 0.959 . S
C1442 C1440 1.561 . S
C1443 C1440 1.526 . S
C1443 C1444 1.380 1_545 S
C1443 C1448 1.390 . S
C1444 C1438 1.457 1_565 S
C1444 C1443 1.380 1_565 S
C1444 C1445 1.420 . S
C1445 H1431 0.929 . S
C1445 C1444 1.420 . S
C1445 C1446 1.385 . S
C1446 H1432 0.931 . S
C1446 C1445 1.385 . S
C1446 C1447 1.389 1_565 S
C1447 C1446 1.389 1_545 S
C1447 C1448 1.387 . S
C1448 H1433 0.930 . S
C1448 C1443 1.390 . S
C1448 C1447 1.387 . S
H1449 C1461 0.930 . S
H1450 C1463 0.930 . S
H1451 C1464 0.930 . S
H1452 C1468 0.959 . S
H1453 C1468 0.959 . S
H1454 C1468 0.961 . S
H1455 C1469 0.960 . S
H1456 C1469 0.961 . S
H1457 C1469 0.959 1_545 S
H1458 C1472 0.929 . S
H1459 C1473 0.931 . S
H1460 C1475 0.930 . S
C1461 H1449 0.930 . S
C1461 C1462 1.388 1_565 S
C1461 C1466 1.399 . S
C1462 C1461 1.388 1_545 S
C1462 C1463 1.381 . S
C1463 H1450 0.930 . S
C1463 C1462 1.381 . S
C1463 C1464 1.388 . S
C1464 H1451 0.930 . S
C1464 C1463 1.388 . S
C1464 C1465 1.390 . S
C1465 C1464 1.390 . S
C1465 C1466 1.394 1_545 S
C1465 C1471 1.465 . S
C1466 C1461 1.399 . S
C1466 C1465 1.394 1_565 S
C1466 C1467 1.516 . S
C1467 C1466 1.516 . S
C1467 C1468 1.502 . S
C1467 C1469 1.561 . S
C1467 C1470 1.526 . S
C1468 H1452 0.959 . S
C1468 H1453 0.959 . S
C1468 H1454 0.961 . S
C1468 C1467 1.502 . S
C1469 H1455 0.960 . S
C1469 H1456 0.961 . S
C1469 H1457 0.959 1_565 S
C1469 C1467 1.561 . S
C1470 C1467 1.526 . S
C1470 C1471 1.396 1_565 S
C1470 C1475 1.390 . S
C1471 C1465 1.465 . S
C1471 C1470 1.396 1_545 S
C1471 C1472 1.399 . S
C1472 H1458 0.929 . S
C1472 C1471 1.399 . S
C1472 C1473 1.385 . S
C1473 H1459 0.931 . S
C1473 C1472 1.385 . S
C1473 C1474 1.389 1_545 S
C1474 C1473 1.389 1_565 S
C1474 C1475 1.387 . S
C1475 H1460 0.930 . S
C1475 C1470 1.390 . S
C1475 C1474 1.387 . S
H1476 C1488 0.930 . S
H1477 C1490 0.930 . S
H1478 C1491 0.930 . S
H1479 C1495 0.959 1_455 S
H1480 C1495 0.959 . S
H1481 C1495 0.961 . S
H1482 C1496 0.960 . S
H1483 C1496 0.961 . S
H1484 C1496 0.959 . S
H1485 C1499 0.929 . S
H1486 C1500 0.931 . S
H1487 C1502 0.952 . S
C1488 H1476 0.930 . S
C1488 C1489 1.399 1_655 S
C1488 C1493 1.413 1_655 S
C1489 C1488 1.399 1_455 S
C1489 C1490 1.376 . S
C1490 H1477 0.930 . S
C1490 C1489 1.376 . S
C1490 C1491 1.388 . S
C1491 H1478 0.930 . S
C1491 C1490 1.388 . S
C1491 C1492 1.390 . S
C1492 C1491 1.390 . S
C1492 C1493 1.398 . S
C1492 C1498 1.465 . S
C1493 C1488 1.413 1_455 S
C1493 C1492 1.398 . S
C1493 C1494 1.498 1_455 S
C1494 C1493 1.498 1_655 S
C1494 C1495 1.502 . S
C1494 C1496 1.561 . S
C1494 C1497 1.532 1_655 S
C1495 H1479 0.959 1_655 S
C1495 H1480 0.959 . S
C1495 H1481 0.961 . S
C1495 C1494 1.502 . S
C1496 H1482 0.960 . S
C1496 H1483 0.961 . S
C1496 H1484 0.959 . S
C1496 C1494 1.561 . S
C1497 C1494 1.532 1_455 S
C1497 C1498 1.420 . S
C1497 C1502 1.349 1_455 S
C1498 C1492 1.465 . S
C1498 C1497 1.420 . S
C1498 C1499 1.399 . S
C1499 H1485 0.929 . S
C1499 C1498 1.399 . S
C1499 C1500 1.385 . S
C1500 H1486 0.931 . S
C1500 C1499 1.385 . S
C1500 C1501 1.389 . S
C1501 C1500 1.389 . S
C1501 C1502 1.389 1_455 S
C1502 H1487 0.952 . S
C1502 C1497 1.349 1_655 S
C1502 C1501 1.389 1_655 S
H1503 C1515 0.930 . S
H1504 C1517 0.930 . S
H1505 C1518 0.930 . S
H1506 C1522 0.959 . S
H1507 C1522 0.959 . S
H1508 C1522 0.961 . S
H1509 C1523 0.960 . S
H1510 C1523 0.961 . S
H1511 C1523 0.959 . S
H1512 C1526 0.929 . S
H1513 C1527 0.931 . S
H1514 C1529 0.930 . S
C1515 H1503 0.930 . S
C1515 C1516 1.399 . S
C1515 C1520 1.399 . S
C1516 C1515 1.399 . S
C1516 C1517 1.376 . S
C1517 H1504 0.930 . S
C1517 C1516 1.376 . S
C1517 C1518 1.388 . S
C1518 H1505 0.930 . S
C1518 C1517 1.388 . S
C1518 C1519 1.390 . S
C1519 C1518 1.390 . S
C1519 C1520 1.394 . S
C1519 C1525 1.465 . S
C1520 C1515 1.399 . S
C1520 C1519 1.394 . S
C1520 C1521 1.516 . S
C1521 C1520 1.516 . S
C1521 C1522 1.502 . S
C1521 C1523 1.561 . S
C1521 C1524 1.526 . S
C1522 H1506 0.959 . S
C1522 H1507 0.959 . S
C1522 H1508 0.961 . S
C1522 C1521 1.502 . S
C1523 H1509 0.960 . S
C1523 H1510 0.961 . S
C1523 H1511 0.959 . S
C1523 C1521 1.561 . S
C1524 C1521 1.526 . S
C1524 C1525 1.396 . S
C1524 C1529 1.390 . S
C1525 C1519 1.465 . S
C1525 C1524 1.396 . S
C1525 C1526 1.399 . S
C1526 H1512 0.929 . S
C1526 C1525 1.399 . S
C1526 C1527 1.385 . S
C1527 H1513 0.931 . S
C1527 C1526 1.385 . S
C1527 C1528 1.389 . S
C1528 C1527 1.389 . S
C1528 C1529 1.387 . S
C1529 H1514 0.930 . S
C1529 C1524 1.390 . S
C1529 C1528 1.387 . S
H1530 C1542 0.930 . S
H1531 C1544 0.930 . S
H1532 C1545 0.930 . S
H1533 C1549 0.959 . S
H1534 C1549 0.959 . S
H1535 C1549 0.961 . S
H1536 C1550 0.960 . S
H1537 C1550 0.961 . S
H1538 C1550 0.959 . S
H1539 C1553 0.929 . S
H1540 C1554 0.931 . S
H1541 C1556 0.930 . S
C1542 H1530 0.930 . S
C1542 C1543 1.399 . S
C1542 C1547 1.399 . S
C1543 C1542 1.399 . S
C1543 C1544 1.376 . S
C1544 H1531 0.930 . S
C1544 C1543 1.376 . S
C1544 C1545 1.388 . S
C1545 H1532 0.930 . S
C1545 C1544 1.388 . S
C1545 C1546 1.390 . S
C1546 C1545 1.390 . S
C1546 C1547 1.394 . S
C1546 C1552 1.465 . S
C1547 C1542 1.399 . S
C1547 C1546 1.394 . S
C1547 C1548 1.516 . S
C1548 C1547 1.516 . S
C1548 C1549 1.502 1_455 S
C1548 C1550 1.561 . S
C1548 C1551 1.526 . S
C1549 H1533 0.959 . S
C1549 H1534 0.959 . S
C1549 H1535 0.961 . S
C1549 C1548 1.502 1_655 S
C1550 H1536 0.960 . S
C1550 H1537 0.961 . S
C1550 H1538 0.959 . S
C1550 C1548 1.561 . S
C1551 C1548 1.526 . S
C1551 C1552 1.396 . S
C1551 C1556 1.390 . S
C1552 C1546 1.465 . S
C1552 C1551 1.396 . S
C1552 C1553 1.399 . S
C1553 H1539 0.929 . S
C1553 C1552 1.399 . S
C1553 C1554 1.385 . S
C1554 H1540 0.931 . S
C1554 C1553 1.385 . S
C1554 C1555 1.389 . S
C1555 C1554 1.389 . S
C1555 C1556 1.387 . S
C1556 H1541 0.930 . S
C1556 C1551 1.390 . S
C1556 C1555 1.387 . S
H1557 C1569 0.930 . S
H1558 C1571 0.930 . S
H1559 C1572 0.930 . S
H1560 C1576 0.959 . S
H1561 C1576 0.959 . S
H1562 C1576 0.961 . S
H1563 C1577 0.960 . S
H1564 C1577 0.961 . S
H1565 C1577 0.959 . S
H1566 C1580 0.929 . S
H1567 C1581 0.931 . S
H1568 C1583 0.930 . S
C1569 H1557 0.930 . S
C1569 C1570 1.399 . S
C1569 C1574 1.399 . S
C1570 C1569 1.399 . S
C1570 C1571 1.376 . S
C1571 H1558 0.930 . S
C1571 C1570 1.376 . S
C1571 C1572 1.388 . S
C1572 H1559 0.930 . S
C1572 C1571 1.388 . S
C1572 C1573 1.390 . S
C1573 C1572 1.390 . S
C1573 C1574 1.394 . S
C1573 C1579 1.465 . S
C1574 C1569 1.399 . S
C1574 C1573 1.394 . S
C1574 C1575 1.516 . S
C1575 C1574 1.516 . S
C1575 C1576 1.502 . S
C1575 C1577 1.561 . S
C1575 C1578 1.526 . S
C1576 H1560 0.959 . S
C1576 H1561 0.959 . S
C1576 H1562 0.961 . S
C1576 C1575 1.502 . S
C1577 H1563 0.960 . S
C1577 H1564 0.961 . S
C1577 H1565 0.959 . S
C1577 C1575 1.561 . S
C1578 C1575 1.526 . S
C1578 C1579 1.396 . S
C1578 C1583 1.390 . S
C1579 C1573 1.465 . S
C1579 C1578 1.396 . S
C1579 C1580 1.399 . S
C1580 H1566 0.929 . S
C1580 C1579 1.399 . S
C1580 C1581 1.385 . S
C1581 H1567 0.931 . S
C1581 C1580 1.385 . S
C1581 C1582 1.389 . S
C1582 C1581 1.389 . S
C1582 C1583 1.387 . S
C1583 H1568 0.930 . S
C1583 C1578 1.390 . S
C1583 C1582 1.387 . S
H1584 C1596 0.930 . S
H1585 C1598 0.930 . S
H1586 C1599 0.930 . S
H1587 C1603 0.959 1_565 S
H1588 C1603 0.959 . S
H1589 C1603 0.961 . S
H1590 C1604 0.960 . S
H1591 C1604 0.961 . S
H1592 C1604 0.959 . S
H1593 C1607 0.929 . S
H1594 C1608 0.931 . S
H1595 C1610 0.930 . S
C1596 H1584 0.930 . S
C1596 C1597 1.399 1_545 S
C1596 C1601 1.399 . S
C1597 C1596 1.399 1_565 S
C1597 C1598 1.376 . S
C1598 H1585 0.930 . S
C1598 C1597 1.376 . S
C1598 C1599 1.388 . S
C1599 H1586 0.930 . S
C1599 C1598 1.388 . S
C1599 C1600 1.390 . S
C1600 C1599 1.390 . S
C1600 C1601 1.394 1_565 S
C1600 C1606 1.465 . S
C1601 C1596 1.399 . S
C1601 C1600 1.394 1_545 S
C1601 C1602 1.516 . S
C1602 C1601 1.516 . S
C1602 C1603 1.502 . S
C1602 C1604 1.561 . S
C1602 C1605 1.538 . S
C1603 H1587 0.959 1_545 S
C1603 H1588 0.959 . S
C1603 H1589 0.961 . S
C1603 C1602 1.502 . S
C1604 H1590 0.960 . S
C1604 H1591 0.961 . S
C1604 H1592 0.959 . S
C1604 C1602 1.561 . S
C1605 C1602 1.538 . S
C1605 C1606 1.361 1_545 S
C1605 C1610 1.408 . S
C1606 C1600 1.465 . S
C1606 C1605 1.361 1_565 S
C1606 C1607 1.399 . S
C1607 H1593 0.929 . S
C1607 C1606 1.399 . S
C1607 C1608 1.385 . S
C1608 H1594 0.931 . S
C1608 C1607 1.385 . S
C1608 C1609 1.389 . S
C1609 C1608 1.389 . S
C1609 C1610 1.387 1_565 S
C1610 H1595 0.930 . S
C1610 C1605 1.408 . S
C1610 C1609 1.387 1_545 S
H1611 C1623 0.930 . S
H1612 C1625 0.930 . S
H1613 C1626 0.930 . S
H1614 C1630 0.959 . S
H1615 C1630 0.959 . S
H1616 C1630 0.961 . S
H1617 C1631 0.960 . S
H1618 C1631 0.961 . S
H1619 C1631 0.959 . S
H1620 C1634 0.929 . S
H1621 C1635 0.931 . S
H1622 C1637 0.930 . S
C1623 H1611 0.930 . S
C1623 C1624 1.399 . S
C1623 C1628 1.399 . S
C1624 C1623 1.399 . S
C1624 C1625 1.376 1_545 S
C1625 H1612 0.930 . S
C1625 C1624 1.376 1_565 S
C1625 C1626 1.388 . S
C1626 H1613 0.930 . S
C1626 C1625 1.388 . S
C1626 C1627 1.390 . S
C1627 C1626 1.390 . S
C1627 C1628 1.394 1_565 S
C1627 C1633 1.465 . S
C1628 C1623 1.399 . S
C1628 C1627 1.394 1_545 S
C1628 C1629 1.516 . S
C1629 C1628 1.516 . S
C1629 C1630 1.502 . S
C1629 C1631 1.561 . S
C1629 C1632 1.526 . S
C1630 H1614 0.959 . S
C1630 H1615 0.959 . S
C1630 H1616 0.961 . S
C1630 C1629 1.502 . S
C1631 H1617 0.960 . S
C1631 H1618 0.961 . S
C1631 H1619 0.959 . S
C1631 C1629 1.561 . S
C1632 C1629 1.526 . S
C1632 C1633 1.396 1_545 S
C1632 C1637 1.390 . S
C1633 C1627 1.465 . S
C1633 C1632 1.396 1_565 S
C1633 C1634 1.399 . S
C1634 H1620 0.929 . S
C1634 C1633 1.399 . S
C1634 C1635 1.385 . S
C1635 H1621 0.931 . S
C1635 C1634 1.385 . S
C1635 C1636 1.389 1_565 S
C1636 C1635 1.389 1_545 S
C1636 C1637 1.387 . S
C1637 H1622 0.930 . S
C1637 C1632 1.390 . S
C1637 C1636 1.387 . S
H1638 C1650 0.930 . S
H1639 C1652 0.930 . S
H1640 C1653 0.930 . S
H1641 C1657 0.959 . S
H1642 C1657 0.959 . S
H1643 C1657 0.961 . S
H1644 C1658 0.960 . S
H1645 C1658 0.961 . S
H1646 C1658 0.959 . S
H1647 C1661 0.929 . S
H1648 C1662 0.931 . S
H1649 C1664 0.930 . S
C1650 H1638 0.930 . S
C1650 C1651 1.399 1_455 S
C1650 C1655 1.399 . S
C1651 C1650 1.399 1_655 S
C1651 C1652 1.376 . S
C1652 H1639 0.930 . S
C1652 C1651 1.376 . S
C1652 C1653 1.388 . S
C1653 H1640 0.930 . S
C1653 C1652 1.388 . S
C1653 C1654 1.390 . S
C1654 C1653 1.390 . S
C1654 C1655 1.394 1_655 S
C1654 C1660 1.465 . S
C1655 C1650 1.399 . S
C1655 C1654 1.394 1_455 S
C1655 C1656 1.516 . S
C1656 C1655 1.516 . S
C1656 C1657 1.502 . S
C1656 C1658 1.561 . S
C1656 C1659 1.526 . S
C1657 H1641 0.959 . S
C1657 H1642 0.959 . S
C1657 H1643 0.961 . S
C1657 C1656 1.502 . S
C1658 H1644 0.960 . S
C1658 H1645 0.961 . S
C1658 H1646 0.959 . S
C1658 C1656 1.561 . S
C1659 C1656 1.526 . S
C1659 C1660 1.396 1_455 S
C1659 C1664 1.390 . S
C1660 C1654 1.465 . S
C1660 C1659 1.396 1_655 S
C1660 C1661 1.399 . S
C1661 H1647 0.929 . S
C1661 C1660 1.399 . S
C1661 C1662 1.385 . S
C1662 H1648 0.931 . S
C1662 C1661 1.385 . S
C1662 C1663 1.389 . S
C1663 C1662 1.389 . S
C1663 C1664 1.387 1_655 S
C1664 H1649 0.930 . S
C1664 C1659 1.390 . S
C1664 C1663 1.387 1_455 S
H1665 C1677 0.930 . S
H1666 C1679 0.930 . S
H1667 C1680 0.930 . S
H1668 C1684 0.959 . S
H1669 C1684 0.959 . S
H1670 C1684 0.961 . S
H1671 C1685 0.960 . S
H1672 C1685 0.961 . S
H1673 C1685 0.959 . S
H1674 C1688 0.929 . S
H1675 C1689 0.931 . S
H1676 C1691 0.930 . S
C1677 H1665 0.930 . S
C1677 C1678 1.399 . S
C1677 C1682 1.399 . S
C1678 C1677 1.399 . S
C1678 C1679 1.376 . S
C1679 H1666 0.930 . S
C1679 C1678 1.376 . S
C1679 C1680 1.388 . S
C1680 H1667 0.930 . S
C1680 C1679 1.388 . S
C1680 C1681 1.390 . S
C1681 C1680 1.390 . S
C1681 C1682 1.394 . S
C1681 C1687 1.465 . S
C1682 C1677 1.399 . S
C1682 C1681 1.394 . S
C1682 C1683 1.516 . S
C1683 C1682 1.516 . S
C1683 C1684 1.502 . S
C1683 C1685 1.561 . S
C1683 C1686 1.526 . S
C1684 H1668 0.959 . S
C1684 H1669 0.959 . S
C1684 H1670 0.961 . S
C1684 C1683 1.502 . S
C1685 H1671 0.960 . S
C1685 H1672 0.961 . S
C1685 H1673 0.959 . S
C1685 C1683 1.561 . S
C1686 C1683 1.526 . S
C1686 C1687 1.396 . S
C1686 C1691 1.390 . S
C1687 C1681 1.465 . S
C1687 C1686 1.396 . S
C1687 C1688 1.399 . S
C1688 H1674 0.929 . S
C1688 C1687 1.399 . S
C1688 C1689 1.385 . S
C1689 H1675 0.931 . S
C1689 C1688 1.385 . S
C1689 C1690 1.389 . S
C1690 C1689 1.389 . S
C1690 C1691 1.387 . S
C1691 H1676 0.930 . S
C1691 C1686 1.390 . S
C1691 C1690 1.387 . S
H1692 C1704 0.930 . S
H1693 C1706 0.930 . S
H1694 C1707 0.930 . S
H1695 C1711 0.959 . S
H1696 C1711 0.959 . S
H1697 C1711 0.961 . S
H1698 C1712 0.960 . S
H1699 C1712 0.961 . S
H1700 C1712 0.959 . S
H1701 C1715 0.929 . S
H1702 C1716 0.931 . S
H1703 C1718 0.930 . S
C1704 H1692 0.930 . S
C1704 C1705 1.399 . S
C1704 C1709 1.399 . S
C1705 C1704 1.399 . S
C1705 C1706 1.376 . S
C1706 H1693 0.930 . S
C1706 C1705 1.376 . S
C1706 C1707 1.388 . S
C1707 H1694 0.930 . S
C1707 C1706 1.388 . S
C1707 C1708 1.390 . S
C1708 C1707 1.390 . S
C1708 C1709 1.394 . S
C1708 C1714 1.465 . S
C1709 C1704 1.399 . S
C1709 C1708 1.394 . S
C1709 C1710 1.516 . S
C1710 C1709 1.516 . S
C1710 C1711 1.502 . S
C1710 C1712 1.561 . S
C1710 C1713 1.526 . S
C1711 H1695 0.959 . S
C1711 H1696 0.959 . S
C1711 H1697 0.961 . S
C1711 C1710 1.502 . S
C1712 H1698 0.960 . S
C1712 H1699 0.961 . S
C1712 H1700 0.959 . S
C1712 C1710 1.561 . S
C1713 C1710 1.526 . S
C1713 C1714 1.396 . S
C1713 C1718 1.390 . S
C1714 C1708 1.465 . S
C1714 C1713 1.396 . S
C1714 C1715 1.399 . S
C1715 H1701 0.929 . S
C1715 C1714 1.399 . S
C1715 C1716 1.385 . S
C1716 H1702 0.931 . S
C1716 C1715 1.385 . S
C1716 C1717 1.389 . S
C1717 C1716 1.389 . S
C1717 C1718 1.387 . S
C1718 H1703 0.930 . S
C1718 C1713 1.390 . S
C1718 C1717 1.387 . S
H1719 C1731 0.930 . S
H1720 C1733 0.930 . S
H1721 C1734 0.930 . S
H1722 C1738 0.959 . S
H1723 C1738 0.959 . S
H1724 C1738 0.961 . S
H1725 C1739 0.960 . S
H1726 C1739 0.961 . S
H1727 C1739 0.959 . S
H1728 C1742 0.929 . S
H1729 C1743 0.931 . S
H1730 C1745 0.930 . S
C1731 H1719 0.930 . S
C1731 C1732 1.399 . S
C1731 C1736 1.399 . S
C1732 C1731 1.399 . S
C1732 C1733 1.376 . S
C1733 H1720 0.930 . S
C1733 C1732 1.376 . S
C1733 C1734 1.388 . S
C1734 H1721 0.930 . S
C1734 C1733 1.388 . S
C1734 C1735 1.390 . S
C1735 C1734 1.390 . S
C1735 C1736 1.394 . S
C1735 C1741 1.465 . S
C1736 C1731 1.399 . S
C1736 C1735 1.394 . S
C1736 C1737 1.516 . S
C1737 C1736 1.516 . S
C1737 C1738 1.502 . S
C1737 C1739 1.561 . S
C1737 C1740 1.526 . S
C1738 H1722 0.959 . S
C1738 H1723 0.959 . S
C1738 H1724 0.961 . S
C1738 C1737 1.502 . S
C1739 H1725 0.960 . S
C1739 H1726 0.961 . S
C1739 H1727 0.959 . S
C1739 C1737 1.561 . S
C1740 C1737 1.526 . S
C1740 C1741 1.396 . S
C1740 C1745 1.390 . S
C1741 C1735 1.465 . S
C1741 C1740 1.396 . S
C1741 C1742 1.399 . S
C1742 H1728 0.929 . S
C1742 C1741 1.399 . S
C1742 C1743 1.385 . S
C1743 H1729 0.931 . S
C1743 C1742 1.385 . S
C1743 C1744 1.389 . S
C1744 C1743 1.389 . S
C1744 C1745 1.387 . S
C1745 H1730 0.930 . S
C1745 C1740 1.390 . S
C1745 C1744 1.387 . S
H1746 C1758 0.930 . S
H1747 C1760 0.930 . S
H1748 C1761 0.930 . S
H1749 C1765 0.959 . S
H1750 C1765 0.959 . S
H1751 C1765 0.961 . S
H1752 C1766 0.960 . S
H1753 C1766 0.961 . S
H1754 C1766 0.959 . S
H1755 C1769 0.929 . S
H1756 C1770 0.931 . S
H1757 C1772 0.930 . S
C1758 H1746 0.930 . S
C1758 C1759 1.399 . S
C1758 C1763 1.399 . S
C1759 C1758 1.399 . S
C1759 C1760 1.376 . S
C1760 H1747 0.930 . S
C1760 C1759 1.376 . S
C1760 C1761 1.388 . S
C1761 H1748 0.930 . S
C1761 C1760 1.388 . S
C1761 C1762 1.390 . S
C1762 C1761 1.390 . S
C1762 C1763 1.394 . S
C1762 C1768 1.465 . S
C1763 C1758 1.399 . S
C1763 C1762 1.394 . S
C1763 C1764 1.516 . S
C1764 C1763 1.516 . S
C1764 C1765 1.502 . S
C1764 C1766 1.561 . S
C1764 C1767 1.526 . S
C1765 H1749 0.959 . S
C1765 H1750 0.959 . S
C1765 H1751 0.961 . S
C1765 C1764 1.502 . S
C1766 H1752 0.960 . S
C1766 H1753 0.961 . S
C1766 H1754 0.959 . S
C1766 C1764 1.561 . S
C1767 C1764 1.526 . S
C1767 C1768 1.396 . S
C1767 C1772 1.390 . S
C1768 C1762 1.465 . S
C1768 C1767 1.396 . S
C1768 C1769 1.399 . S
C1769 H1755 0.929 . S
C1769 C1768 1.399 . S
C1769 C1770 1.385 . S
C1770 H1756 0.931 . S
C1770 C1769 1.385 . S
C1770 C1771 1.389 . S
C1771 C1770 1.389 . S
C1771 C1772 1.387 . S
C1772 H1757 0.930 . S
C1772 C1767 1.390 . S
C1772 C1771 1.387 . S
H1773 C1785 0.930 . S
H1774 C1787 0.930 . S
H1775 C1788 0.930 . S
H1776 C1792 0.959 . S
H1777 C1792 0.959 . S
H1778 C1792 0.961 . S
H1779 C1793 0.960 . S
H1780 C1793 0.961 . S
H1781 C1793 0.959 . S
H1782 C1796 0.929 . S
H1783 C1797 0.931 . S
H1784 C1799 0.930 . S
C1785 H1773 0.930 . S
C1785 C1786 1.399 . S
C1785 C1790 1.399 . S
C1786 C1785 1.399 . S
C1786 C1787 1.376 . S
C1787 H1774 0.930 . S
C1787 C1786 1.376 . S
C1787 C1788 1.388 . S
C1788 H1775 0.930 . S
C1788 C1787 1.388 . S
C1788 C1789 1.390 . S
C1789 C1788 1.390 . S
C1789 C1790 1.394 . S
C1789 C1795 1.465 . S
C1790 C1785 1.399 . S
C1790 C1789 1.394 . S
C1790 C1791 1.516 . S
C1791 C1790 1.516 . S
C1791 C1792 1.502 . S
C1791 C1793 1.561 . S
C1791 C1794 1.526 . S
C1792 H1776 0.959 . S
C1792 H1777 0.959 . S
C1792 H1778 0.961 . S
C1792 C1791 1.502 . S
C1793 H1779 0.960 . S
C1793 H1780 0.961 . S
C1793 H1781 0.959 . S
C1793 C1791 1.561 . S
C1794 C1791 1.526 . S
C1794 C1795 1.396 . S
C1794 C1799 1.390 . S
C1795 C1789 1.465 . S
C1795 C1794 1.396 . S
C1795 C1796 1.399 . S
C1796 H1782 0.929 . S
C1796 C1795 1.399 . S
C1796 C1797 1.385 . S
C1797 H1783 0.931 . S
C1797 C1796 1.385 . S
C1797 C1798 1.389 . S
C1798 C1797 1.389 . S
C1798 C1799 1.387 . S
C1799 H1784 0.930 . S
C1799 C1794 1.390 . S
C1799 C1798 1.387 . S
H1800 C1812 0.930 . S
H1801 C1814 0.930 . S
H1802 C1815 0.930 . S
H1803 C1819 0.959 . S
H1804 C1819 0.959 . S
H1805 C1819 0.961 . S
H1806 C1820 0.960 . S
H1807 C1820 0.961 . S
H1808 C1820 0.959 . S
H1809 C1823 0.929 . S
H1810 C1824 0.931 . S
H1811 C1826 0.930 . S
C1812 H1800 0.930 . S
C1812 C1813 1.399 . S
C1812 C1817 1.399 . S
C1813 C1812 1.399 . S
C1813 C1814 1.376 . S
C1814 H1801 0.930 . S
C1814 C1813 1.376 . S
C1814 C1815 1.388 . S
C1815 H1802 0.930 . S
C1815 C1814 1.388 . S
C1815 C1816 1.390 . S
C1816 C1815 1.390 . S
C1816 C1817 1.394 . S
C1816 C1822 1.465 . S
C1817 C1812 1.399 . S
C1817 C1816 1.394 . S
C1817 C1818 1.516 . S
C1818 C1817 1.516 . S
C1818 C1819 1.502 . S
C1818 C1820 1.561 . S
C1818 C1821 1.526 . S
C1819 H1803 0.959 . S
C1819 H1804 0.959 . S
C1819 H1805 0.961 . S
C1819 C1818 1.502 . S
C1820 H1806 0.960 . S
C1820 H1807 0.961 . S
C1820 H1808 0.959 . S
C1820 C1818 1.561 . S
C1821 C1818 1.526 . S
C1821 C1822 1.396 . S
C1821 C1826 1.390 . S
C1822 C1816 1.465 . S
C1822 C1821 1.396 . S
C1822 C1823 1.399 . S
C1823 H1809 0.929 . S
C1823 C1822 1.399 . S
C1823 C1824 1.385 . S
C1824 H1810 0.931 . S
C1824 C1823 1.385 . S
C1824 C1825 1.389 . S
C1825 C1824 1.389 . S
C1825 C1826 1.387 . S
C1826 H1811 0.930 . S
C1826 C1821 1.390 . S
C1826 C1825 1.387 . S
H1827 C1839 0.930 . S
H1828 C1841 0.930 . S
H1829 C1842 0.930 . S
H1830 C1846 0.959 . S
H1831 C1846 0.959 . S
H1832 C1846 0.961 . S
H1833 C1847 0.960 . S
H1834 C1847 0.961 . S
H1835 C1847 0.959 . S
H1836 C1850 0.929 . S
H1837 C1851 0.931 . S
H1838 C1853 0.930 . S
C1839 H1827 0.930 . S
C1839 C1840 1.399 . S
C1839 C1844 1.399 . S
C1840 C1839 1.399 . S
C1840 C1841 1.376 . S
C1841 H1828 0.930 . S
C1841 C1840 1.376 . S
C1841 C1842 1.388 . S
C1842 H1829 0.930 . S
C1842 C1841 1.388 . S
C1842 C1843 1.390 . S
C1843 C1842 1.390 . S
C1843 C1844 1.394 . S
C1843 C1849 1.465 . S
C1844 C1839 1.399 . S
C1844 C1843 1.394 . S
C1844 C1845 1.516 . S
C1845 C1844 1.516 . S
C1845 C1846 1.502 . S
C1845 C1847 1.561 . S
C1845 C1848 1.526 . S
C1846 H1830 0.959 . S
C1846 H1831 0.959 . S
C1846 H1832 0.961 . S
C1846 C1845 1.502 . S
C1847 H1833 0.960 . S
C1847 H1834 0.961 . S
C1847 H1835 0.959 . S
C1847 C1845 1.561 . S
C1848 C1845 1.526 . S
C1848 C1849 1.396 . S
C1848 C1853 1.390 . S
C1849 C1843 1.465 . S
C1849 C1848 1.396 . S
C1849 C1850 1.399 . S
C1850 H1836 0.929 . S
C1850 C1849 1.399 . S
C1850 C1851 1.385 . S
C1851 H1837 0.931 . S
C1851 C1850 1.385 . S
C1851 C1852 1.389 . S
C1852 C1851 1.389 . S
C1852 C1853 1.387 . S
C1853 H1838 0.930 . S
C1853 C1848 1.390 . S
C1853 C1852 1.387 . S
H1854 C1866 0.930 . S
H1855 C1868 0.930 . S
H1856 C1869 0.930 . S
H1857 C1873 0.959 . S
H1858 C1873 0.959 . S
H1859 C1873 0.961 . S
H1860 C1874 0.960 . S
H1861 C1874 0.961 . S
H1862 C1874 0.959 . S
H1863 C1877 0.929 . S
H1864 C1878 0.931 . S
H1865 C1880 0.930 . S
C1866 H1854 0.930 . S
C1866 C1867 1.399 . S
C1866 C1871 1.399 . S
C1867 C1866 1.399 . S
C1867 C1868 1.376 . S
C1868 H1855 0.930 . S
C1868 C1867 1.376 . S
C1868 C1869 1.388 . S
C1869 H1856 0.930 . S
C1869 C1868 1.388 . S
C1869 C1870 1.390 . S
C1870 C1869 1.390 . S
C1870 C1871 1.394 . S
C1870 C1876 1.465 . S
C1871 C1866 1.399 . S
C1871 C1870 1.394 . S
C1871 C1872 1.516 . S
C1872 C1871 1.516 . S
C1872 C1873 1.502 . S
C1872 C1874 1.561 . S
C1872 C1875 1.526 . S
C1873 H1857 0.959 . S
C1873 H1858 0.959 . S
C1873 H1859 0.961 . S
C1873 C1872 1.502 . S
C1874 H1860 0.960 . S
C1874 H1861 0.961 . S
C1874 H1862 0.959 . S
C1874 C1872 1.561 . S
C1875 C1872 1.526 . S
C1875 C1876 1.396 . S
C1875 C1880 1.390 . S
C1876 C1870 1.465 . S
C1876 C1875 1.396 . S
C1876 C1877 1.399 . S
C1877 H1863 0.929 . S
C1877 C1876 1.399 . S
C1877 C1878 1.385 . S
C1878 H1864 0.931 . S
C1878 C1877 1.385 . S
C1878 C1879 1.389 . S
C1879 C1878 1.389 . S
C1879 C1880 1.387 . S
C1880 H1865 0.930 . S
C1880 C1875 1.390 . S
C1880 C1879 1.387 . S
H1881 C1893 0.930 . S
H1882 C1895 0.930 . S
H1883 C1896 0.930 . S
H1884 C1900 0.959 . S
H1885 C1900 0.959 . S
H1886 C1900 0.961 . S
H1887 C1901 0.960 . S
H1888 C1901 0.961 . S
H1889 C1901 0.959 . S
H1890 C1904 0.929 . S
H1891 C1905 0.931 . S
H1892 C1907 0.930 . S
C1893 H1881 0.930 . S
C1893 C1894 1.399 . S
C1893 C1898 1.399 . S
C1894 C1893 1.399 . S
C1894 C1895 1.376 . S
C1895 H1882 0.930 . S
C1895 C1894 1.376 . S
C1895 C1896 1.388 . S
C1896 H1883 0.930 . S
C1896 C1895 1.388 . S
C1896 C1897 1.390 . S
C1897 C1896 1.390 . S
C1897 C1898 1.394 . S
C1897 C1903 1.465 . S
C1898 C1893 1.399 . S
C1898 C1897 1.394 . S
C1898 C1899 1.516 . S
C1899 C1898 1.516 . S
C1899 C1900 1.502 . S
C1899 C1901 1.561 . S
C1899 C1902 1.526 . S
C1900 H1884 0.959 . S
C1900 H1885 0.959 . S
C1900 H1886 0.961 . S
C1900 C1899 1.502 . S
C1901 H1887 0.960 . S
C1901 H1888 0.961 . S
C1901 H1889 0.959 . S
C1901 C1899 1.561 . S
C1902 C1899 1.526 . S
C1902 C1903 1.396 . S
C1902 C1907 1.390 . S
C1903 C1897 1.465 . S
C1903 C1902 1.396 . S
C1903 C1904 1.399 . S
C1904 H1890 0.929 . S
C1904 C1903 1.399 . S
C1904 C1905 1.385 . S
C1905 H1891 0.931 . S
C1905 C1904 1.385 . S
C1905 C1906 1.389 . S
C1906 C1905 1.389 . S
C1906 C1907 1.387 . S
C1907 H1892 0.930 . S
C1907 C1902 1.390 . S
C1907 C1906 1.387 . S
H1908 C1920 0.930 . S
H1909 C1922 0.930 . S
H1910 C1923 0.930 . S
H1911 C1927 0.959 . S
H1912 C1927 0.959 . S
H1913 C1927 0.961 . S
H1914 C1928 0.960 . S
H1915 C1928 0.961 . S
H1916 C1928 0.959 . S
H1917 C1931 0.929 . S
H1918 C1932 0.931 . S
H1919 C1934 0.930 . S
C1920 H1908 0.930 . S
C1920 C1921 1.399 . S
C1920 C1925 1.399 . S
C1921 C1920 1.399 . S
C1921 C1922 1.376 . S
C1922 H1909 0.930 . S
C1922 C1921 1.376 . S
C1922 C1923 1.388 . S
C1923 H1910 0.930 . S
C1923 C1922 1.388 . S
C1923 C1924 1.390 . S
C1924 C1923 1.390 . S
C1924 C1925 1.394 . S
C1924 C1930 1.465 . S
C1925 C1920 1.399 . S
C1925 C1924 1.394 . S
C1925 C1926 1.516 . S
C1926 C1925 1.516 . S
C1926 C1927 1.502 . S
C1926 C1928 1.561 . S
C1926 C1929 1.526 . S
C1927 H1911 0.959 . S
C1927 H1912 0.959 . S
C1927 H1913 0.961 . S
C1927 C1926 1.502 . S
C1928 H1914 0.960 . S
C1928 H1915 0.961 . S
C1928 H1916 0.959 . S
C1928 C1926 1.561 . S
C1929 C1926 1.526 . S
C1929 C1930 1.396 . S
C1929 C1934 1.390 . S
C1930 C1924 1.465 . S
C1930 C1929 1.396 . S
C1930 C1931 1.399 . S
C1931 H1917 0.929 . S
C1931 C1930 1.399 . S
C1931 C1932 1.385 . S
C1932 H1918 0.931 . S
C1932 C1931 1.385 . S
C1932 C1933 1.389 . S
C1933 C1932 1.389 . S
C1933 C1934 1.387 . S
C1934 H1919 0.930 . S
C1934 C1929 1.390 . S
C1934 C1933 1.387 . S
H1935 C1947 0.930 . S
H1936 C1949 0.930 . S
H1937 C1950 0.930 . S
H1938 C1954 0.959 . S
H1939 C1954 0.959 . S
H1940 C1954 0.961 . S
H1941 C1955 0.960 . S
H1942 C1955 0.961 . S
H1943 C1955 0.959 . S
H1944 C1958 0.929 . S
H1945 C1959 0.931 . S
H1946 C1961 0.930 . S
C1947 H1935 0.930 . S
C1947 C1948 1.399 . S
C1947 C1952 1.399 . S
C1948 C1947 1.399 . S
C1948 C1949 1.376 . S
C1949 H1936 0.930 . S
C1949 C1948 1.376 . S
C1949 C1950 1.388 . S
C1950 H1937 0.930 . S
C1950 C1949 1.388 . S
C1950 C1951 1.390 . S
C1951 C1950 1.390 . S
C1951 C1952 1.394 . S
C1951 C1957 1.465 . S
C1952 C1947 1.399 . S
C1952 C1951 1.394 . S
C1952 C1953 1.516 . S
C1953 C1952 1.516 . S
C1953 C1954 1.502 . S
C1953 C1955 1.561 . S
C1953 C1956 1.526 . S
C1954 H1938 0.959 . S
C1954 H1939 0.959 . S
C1954 H1940 0.961 . S
C1954 C1953 1.502 . S
C1955 H1941 0.960 . S
C1955 H1942 0.961 . S
C1955 H1943 0.959 . S
C1955 C1953 1.561 . S
C1956 C1953 1.526 . S
C1956 C1957 1.396 . S
C1956 C1961 1.390 . S
C1957 C1951 1.465 . S
C1957 C1956 1.396 . S
C1957 C1958 1.399 . S
C1958 H1944 0.929 . S
C1958 C1957 1.399 . S
C1958 C1959 1.385 . S
C1959 H1945 0.931 . S
C1959 C1958 1.385 . S
C1959 C1960 1.389 . S
C1960 C1959 1.389 . S
C1960 C1961 1.387 . S
C1961 H1946 0.930 . S
C1961 C1956 1.390 . S
C1961 C1960 1.387 . S
H1962 C1974 0.930 . S
H1963 C1976 0.930 . S
H1964 C1977 0.930 . S
H1965 C1981 0.959 . S
H1966 C1981 0.959 . S
H1967 C1981 0.961 . S
H1968 C1982 0.960 . S
H1969 C1982 0.961 . S
H1970 C1982 0.959 . S
H1971 C1985 0.929 . S
H1972 C1986 0.931 . S
H1973 C1988 0.930 . S
C1974 H1962 0.930 . S
C1974 C1975 1.399 . S
C1974 C1979 1.399 . S
C1975 C1974 1.399 . S
C1975 C1976 1.376 . S
C1976 H1963 0.930 . S
C1976 C1975 1.376 . S
C1976 C1977 1.388 . S
C1977 H1964 0.930 . S
C1977 C1976 1.388 . S
C1977 C1978 1.390 . S
C1978 C1977 1.390 . S
C1978 C1979 1.394 . S
C1978 C1984 1.465 . S
C1979 C1974 1.399 . S
C1979 C1978 1.394 . S
C1979 C1980 1.516 . S
C1980 C1979 1.516 . S
C1980 C1981 1.502 . S
C1980 C1982 1.561 . S
C1980 C1983 1.526 . S
C1981 H1965 0.959 . S
C1981 H1966 0.959 . S
C1981 H1967 0.961 . S
C1981 C1980 1.502 . S
C1982 H1968 0.960 . S
C1982 H1969 0.961 . S
C1982 H1970 0.959 . S
C1982 C1980 1.561 . S
C1983 C1980 1.526 . S
C1983 C1984 1.396 . S
C1983 C1988 1.390 . S
C1984 C1978 1.465 . S
C1984 C1983 1.396 . S
C1984 C1985 1.399 . S
C1985 H1971 0.929 . S
C1985 C1984 1.399 . S
C1985 C1986 1.385 . S
C1986 H1972 0.931 . S
C1986 C1985 1.385 . S
C1986 C1987 1.389 . S
C1987 C1986 1.389 . S
C1987 C1988 1.387 . S
C1988 H1973 0.930 . S
C1988 C1983 1.390 . S
C1988 C1987 1.387 . S
H1989 C2001 0.930 . S
H1990 C2003 0.930 . S
H1991 C2004 0.930 . S
H1992 C2008 0.959 . S
H1993 C2008 0.959 . S
H1994 C2008 0.961 . S
H1995 C2009 0.960 . S
H1996 C2009 0.961 . S
H1997 C2009 0.959 . S
H1998 C2012 0.929 . S
H1999 C2013 0.931 . S
H2000 C2015 0.930 . S
C2001 H1989 0.930 . S
C2001 C2002 1.399 . S
C2001 C2006 1.399 . S
C2002 C2001 1.399 . S
C2002 C2003 1.376 . S
C2003 H1990 0.930 . S
C2003 C2002 1.376 . S
C2003 C2004 1.388 . S
C2004 H1991 0.930 . S
C2004 C2003 1.388 . S
C2004 C2005 1.390 . S
C2005 C2004 1.390 . S
C2005 C2006 1.394 . S
C2005 C2011 1.465 . S
C2006 C2001 1.399 . S
C2006 C2005 1.394 . S
C2006 C2007 1.516 . S
C2007 C2006 1.516 . S
C2007 C2008 1.502 . S
C2007 C2009 1.561 . S
C2007 C2010 1.526 . S
C2008 H1992 0.959 . S
C2008 H1993 0.959 . S
C2008 H1994 0.961 . S
C2008 C2007 1.502 . S
C2009 H1995 0.960 . S
C2009 H1996 0.961 . S
C2009 H1997 0.959 . S
C2009 C2007 1.561 . S
C2010 C2007 1.526 . S
C2010 C2011 1.396 . S
C2010 C2015 1.390 . S
C2011 C2005 1.465 . S
C2011 C2010 1.396 . S
C2011 C2012 1.399 . S
C2012 H1998 0.929 . S
C2012 C2011 1.399 . S
C2012 C2013 1.385 . S
C2013 H1999 0.931 . S
C2013 C2012 1.385 . S
C2013 C2014 1.389 . S
C2014 C2013 1.389 . S
C2014 C2015 1.387 . S
C2015 H2000 0.930 . S
C2015 C2010 1.390 . S
C2015 C2014 1.387 . S
H2016 C2028 0.930 . S
H2017 C2030 0.930 . S
H2018 C2031 0.930 . S
H2019 C2035 0.959 . S
H2020 C2035 0.959 . S
H2021 C2035 0.961 . S
H2022 C2036 0.960 . S
H2023 C2036 0.961 . S
H2024 C2036 0.959 . S
H2025 C2039 0.929 . S
H2026 C2040 0.931 . S
H2027 C2042 0.930 . S
C2028 H2016 0.930 . S
C2028 C2029 1.399 . S
C2028 C2033 1.399 . S
C2029 C2028 1.399 . S
C2029 C2030 1.376 . S
C2030 H2017 0.930 . S
C2030 C2029 1.376 . S
C2030 C2031 1.388 . S
C2031 H2018 0.930 . S
C2031 C2030 1.388 . S
C2031 C2032 1.390 . S
C2032 C2031 1.390 . S
C2032 C2033 1.394 . S
C2032 C2038 1.465 . S
C2033 C2028 1.399 . S
C2033 C2032 1.394 . S
C2033 C2034 1.516 . S
C2034 C2033 1.516 . S
C2034 C2035 1.502 . S
C2034 C2036 1.561 . S
C2034 C2037 1.526 . S
C2035 H2019 0.959 . S
C2035 H2020 0.959 . S
C2035 H2021 0.961 . S
C2035 C2034 1.502 . S
C2036 H2022 0.960 . S
C2036 H2023 0.961 . S
C2036 H2024 0.959 . S
C2036 C2034 1.561 . S
C2037 C2034 1.526 . S
C2037 C2038 1.396 . S
C2037 C2042 1.390 . S
C2038 C2032 1.465 . S
C2038 C2037 1.396 . S
C2038 C2039 1.399 . S
C2039 H2025 0.929 . S
C2039 C2038 1.399 . S
C2039 C2040 1.385 . S
C2040 H2026 0.931 . S
C2040 C2039 1.385 . S
C2040 C2041 1.389 . S
C2041 C2040 1.389 . S
C2041 C2042 1.387 . S
C2042 H2027 0.930 . S
C2042 C2037 1.390 . S
C2042 C2041 1.387 . S
H2043 C2055 0.930 . S
H2044 C2057 0.930 . S
H2045 C2058 0.930 . S
H2046 C2062 0.959 . S
H2047 C2062 0.959 . S
H2048 C2062 0.961 . S
H2049 C2063 0.960 . S
H2050 C2063 0.961 . S
H2051 C2063 0.959 . S
H2052 C2066 0.929 . S
H2053 C2067 0.931 . S
H2054 C2069 0.930 . S
C2055 H2043 0.930 . S
C2055 C2056 1.399 . S
C2055 C2060 1.399 . S
C2056 C2055 1.399 . S
C2056 C2057 1.376 . S
C2057 H2044 0.930 . S
C2057 C2056 1.376 . S
C2057 C2058 1.388 . S
C2058 H2045 0.930 . S
C2058 C2057 1.388 . S
C2058 C2059 1.390 . S
C2059 C2058 1.390 . S
C2059 C2060 1.394 . S
C2059 C2065 1.465 . S
C2060 C2055 1.399 . S
C2060 C2059 1.394 . S
C2060 C2061 1.516 . S
C2061 C2060 1.516 . S
C2061 C2062 1.502 . S
C2061 C2063 1.561 . S
C2061 C2064 1.526 . S
C2062 H2046 0.959 . S
C2062 H2047 0.959 . S
C2062 H2048 0.961 . S
C2062 C2061 1.502 . S
C2063 H2049 0.960 . S
C2063 H2050 0.961 . S
C2063 H2051 0.959 . S
C2063 C2061 1.561 . S
C2064 C2061 1.526 . S
C2064 C2065 1.396 . S
C2064 C2069 1.390 . S
C2065 C2059 1.465 . S
C2065 C2064 1.396 . S
C2065 C2066 1.399 . S
C2066 H2052 0.929 . S
C2066 C2065 1.399 . S
C2066 C2067 1.385 . S
C2067 H2053 0.931 . S
C2067 C2066 1.385 . S
C2067 C2068 1.389 . S
C2068 C2067 1.389 . S
C2068 C2069 1.387 . S
C2069 H2054 0.930 . S
C2069 C2064 1.390 . S
C2069 C2068 1.387 . S
H2070 C2082 0.930 . S
H2071 C2084 0.930 . S
H2072 C2085 0.930 . S
H2073 C2089 0.959 . S
H2074 C2089 0.959 . S
H2075 C2089 0.961 . S
H2076 C2090 0.960 . S
H2077 C2090 0.961 . S
H2078 C2090 0.959 . S
H2079 C2093 0.929 . S
H2080 C2094 0.931 . S
H2081 C2096 0.930 . S
C2082 H2070 0.930 . S
C2082 C2083 1.399 . S
C2082 C2087 1.399 . S
C2083 C2082 1.399 . S
C2083 C2084 1.376 . S
C2084 H2071 0.930 . S
C2084 C2083 1.376 . S
C2084 C2085 1.388 . S
C2085 H2072 0.930 . S
C2085 C2084 1.388 . S
C2085 C2086 1.390 . S
C2086 C2085 1.390 . S
C2086 C2087 1.394 . S
C2086 C2092 1.465 . S
C2087 C2082 1.399 . S
C2087 C2086 1.394 . S
C2087 C2088 1.516 . S
C2088 C2087 1.516 . S
C2088 C2089 1.502 . S
C2088 C2090 1.561 . S
C2088 C2091 1.526 . S
C2089 H2073 0.959 . S
C2089 H2074 0.959 . S
C2089 H2075 0.961 . S
C2089 C2088 1.502 . S
C2090 H2076 0.960 . S
C2090 H2077 0.961 . S
C2090 H2078 0.959 . S
C2090 C2088 1.561 . S
C2091 C2088 1.526 . S
C2091 C2092 1.396 . S
C2091 C2096 1.390 . S
C2092 C2086 1.465 . S
C2092 C2091 1.396 . S
C2092 C2093 1.399 . S
C2093 H2079 0.929 . S
C2093 C2092 1.399 . S
C2093 C2094 1.385 . S
C2094 H2080 0.931 . S
C2094 C2093 1.385 . S
C2094 C2095 1.389 . S
C2095 C2094 1.389 . S
C2095 C2096 1.387 . S
C2096 H2081 0.930 . S
C2096 C2091 1.390 . S
C2096 C2095 1.387 . S
H2097 C2109 0.930 . S
H2098 C2111 0.930 . S
H2099 C2112 0.930 . S
H2100 C2116 0.959 . S
H2101 C2116 0.959 . S
H2102 C2116 0.961 . S
H2103 C2117 0.960 . S
H2104 C2117 0.961 . S
H2105 C2117 0.959 . S
H2106 C2120 0.929 . S
H2107 C2121 0.931 . S
H2108 C2123 0.930 . S
C2109 H2097 0.930 . S
C2109 C2110 1.399 . S
C2109 C2114 1.399 . S
C2110 C2109 1.399 . S
C2110 C2111 1.376 . S
C2111 H2098 0.930 . S
C2111 C2110 1.376 . S
C2111 C2112 1.388 . S
C2112 H2099 0.930 . S
C2112 C2111 1.388 . S
C2112 C2113 1.390 . S
C2113 C2112 1.390 . S
C2113 C2114 1.394 . S
C2113 C2119 1.465 . S
C2114 C2109 1.399 . S
C2114 C2113 1.394 . S
C2114 C2115 1.516 . S
C2115 C2114 1.516 . S
C2115 C2116 1.502 . S
C2115 C2117 1.561 . S
C2115 C2118 1.526 . S
C2116 H2100 0.959 . S
C2116 H2101 0.959 . S
C2116 H2102 0.961 . S
C2116 C2115 1.502 . S
C2117 H2103 0.960 . S
C2117 H2104 0.961 . S
C2117 H2105 0.959 . S
C2117 C2115 1.561 . S
C2118 C2115 1.526 . S
C2118 C2119 1.396 . S
C2118 C2123 1.390 . S
C2119 C2113 1.465 . S
C2119 C2118 1.396 . S
C2119 C2120 1.399 . S
C2120 H2106 0.929 . S
C2120 C2119 1.399 . S
C2120 C2121 1.385 . S
C2121 H2107 0.931 . S
C2121 C2120 1.385 . S
C2121 C2122 1.389 . S
C2122 C2121 1.389 . S
C2122 C2123 1.387 . S
C2123 H2108 0.930 . S
C2123 C2118 1.390 . S
C2123 C2122 1.387 . S
H2124 C2136 0.930 . S
H2125 C2138 0.930 . S
H2126 C2139 0.930 . S
H2127 C2143 0.959 . S
H2128 C2143 0.959 . S
H2129 C2143 0.961 . S
H2130 C2144 0.960 . S
H2131 C2144 0.961 . S
H2132 C2144 0.959 . S
H2133 C2147 0.929 . S
H2134 C2148 0.931 . S
H2135 C2150 0.930 . S
C2136 H2124 0.930 . S
C2136 C2137 1.399 . S
C2136 C2141 1.399 . S
C2137 C2136 1.399 . S
C2137 C2138 1.376 . S
C2138 H2125 0.930 . S
C2138 C2137 1.376 . S
C2138 C2139 1.388 . S
C2139 H2126 0.930 . S
C2139 C2138 1.388 . S
C2139 C2140 1.390 . S
C2140 C2139 1.390 . S
C2140 C2141 1.394 . S
C2140 C2146 1.465 . S
C2141 C2136 1.399 . S
C2141 C2140 1.394 . S
C2141 C2142 1.516 . S
C2142 C2141 1.516 . S
C2142 C2143 1.502 . S
C2142 C2144 1.561 . S
C2142 C2145 1.526 . S
C2143 H2127 0.959 . S
C2143 H2128 0.959 . S
C2143 H2129 0.961 . S
C2143 C2142 1.502 . S
C2144 H2130 0.960 . S
C2144 H2131 0.961 . S
C2144 H2132 0.959 . S
C2144 C2142 1.561 . S
C2145 C2142 1.526 . S
C2145 C2146 1.396 . S
C2145 C2150 1.390 . S
C2146 C2140 1.465 . S
C2146 C2145 1.396 . S
C2146 C2147 1.399 . S
C2147 H2133 0.929 . S
C2147 C2146 1.399 . S
C2147 C2148 1.385 . S
C2148 H2134 0.931 . S
C2148 C2147 1.385 . S
C2148 C2149 1.389 . S
C2149 C2148 1.389 . S
C2149 C2150 1.387 . S
C2150 H2135 0.930 . S
C2150 C2145 1.390 . S
C2150 C2149 1.387 . S
H2151 C2163 0.930 . S
H2152 C2165 0.930 . S
H2153 C2166 0.930 . S
H2154 C2170 0.959 . S
H2155 C2170 0.959 . S
H2156 C2170 0.961 . S
H2157 C2171 0.960 . S
H2158 C2171 0.961 . S
H2159 C2171 0.959 . S
H2160 C2174 0.929 . S
H2161 C2175 0.931 . S
H2162 C2177 0.930 . S
C2163 H2151 0.930 . S
C2163 C2164 1.399 . S
C2163 C2168 1.399 . S
C2164 C2163 1.399 . S
C2164 C2165 1.376 . S
C2165 H2152 0.930 . S
C2165 C2164 1.376 . S
C2165 C2166 1.388 . S
C2166 H2153 0.930 . S
C2166 C2165 1.388 . S
C2166 C2167 1.390 . S
C2167 C2166 1.390 . S
C2167 C2168 1.394 . S
C2167 C2173 1.465 . S
C2168 C2163 1.399 . S
C2168 C2167 1.394 . S
C2168 C2169 1.516 . S
C2169 C2168 1.516 . S
C2169 C2170 1.502 . S
C2169 C2171 1.561 . S
C2169 C2172 1.526 . S
C2170 H2154 0.959 . S
C2170 H2155 0.959 . S
C2170 H2156 0.961 . S
C2170 C2169 1.502 . S
C2171 H2157 0.960 . S
C2171 H2158 0.961 . S
C2171 H2159 0.959 . S
C2171 C2169 1.561 . S
C2172 C2169 1.526 . S
C2172 C2173 1.396 . S
C2172 C2177 1.390 . S
C2173 C2167 1.465 . S
C2173 C2172 1.396 . S
C2173 C2174 1.399 . S
C2174 H2160 0.929 . S
C2174 C2173 1.399 . S
C2174 C2175 1.385 . S
C2175 H2161 0.931 . S
C2175 C2174 1.385 . S
C2175 C2176 1.389 . S
C2176 C2175 1.389 . S
C2176 C2177 1.387 . S
C2177 H2162 0.930 . S
C2177 C2172 1.390 . S
C2177 C2176 1.387 . S
H2178 C2190 0.930 . S
H2179 C2192 0.930 . S
H2180 C2193 0.930 . S
H2181 C2197 0.959 . S
H2182 C2197 0.959 . S
H2183 C2197 0.961 . S
H2184 C2198 0.960 . S
H2185 C2198 0.961 . S
H2186 C2198 0.959 . S
H2187 C2201 0.929 . S
H2188 C2202 0.931 . S
H2189 C2204 0.930 . S
C2190 H2178 0.930 . S
C2190 C2191 1.399 . S
C2190 C2195 1.399 . S
C2191 C2190 1.399 . S
C2191 C2192 1.376 . S
C2192 H2179 0.930 . S
C2192 C2191 1.376 . S
C2192 C2193 1.388 . S
C2193 H2180 0.930 . S
C2193 C2192 1.388 . S
C2193 C2194 1.390 . S
C2194 C2193 1.390 . S
C2194 C2195 1.394 . S
C2194 C2200 1.465 . S
C2195 C2190 1.399 . S
C2195 C2194 1.394 . S
C2195 C2196 1.516 . S
C2196 C2195 1.516 . S
C2196 C2197 1.502 . S
C2196 C2198 1.561 . S
C2196 C2199 1.526 . S
C2197 H2181 0.959 . S
C2197 H2182 0.959 . S
C2197 H2183 0.961 . S
C2197 C2196 1.502 . S
C2198 H2184 0.960 . S
C2198 H2185 0.961 . S
C2198 H2186 0.959 . S
C2198 C2196 1.561 . S
C2199 C2196 1.526 . S
C2199 C2200 1.396 . S
C2199 C2204 1.390 . S
C2200 C2194 1.465 . S
C2200 C2199 1.396 . S
C2200 C2201 1.399 . S
C2201 H2187 0.929 . S
C2201 C2200 1.399 . S
C2201 C2202 1.385 . S
C2202 H2188 0.931 . S
C2202 C2201 1.385 . S
C2202 C2203 1.389 . S
C2203 C2202 1.389 . S
C2203 C2204 1.387 . S
C2204 H2189 0.930 . S
C2204 C2199 1.390 . S
C2204 C2203 1.387 . S
H2205 C2217 0.930 . S
H2206 C2219 0.930 . S
H2207 C2220 0.930 . S
H2208 C2224 0.959 . S
H2209 C2224 0.959 . S
H2210 C2224 0.961 . S
H2211 C2225 0.960 . S
H2212 C2225 0.961 . S
H2213 C2225 0.959 . S
H2214 C2228 0.929 . S
H2215 C2229 0.931 . S
H2216 C2231 0.930 . S
C2217 H2205 0.930 . S
C2217 C2218 1.399 . S
C2217 C2222 1.399 . S
C2218 C2217 1.399 . S
C2218 C2219 1.376 . S
C2219 H2206 0.930 . S
C2219 C2218 1.376 . S
C2219 C2220 1.388 . S
C2220 H2207 0.930 . S
C2220 C2219 1.388 . S
C2220 C2221 1.390 . S
C2221 C2220 1.390 . S
C2221 C2222 1.394 . S
C2221 C2227 1.465 . S
C2222 C2217 1.399 . S
C2222 C2221 1.394 . S
C2222 C2223 1.516 . S
C2223 C2222 1.516 . S
C2223 C2224 1.502 . S
C2223 C2225 1.561 . S
C2223 C2226 1.526 . S
C2224 H2208 0.959 . S
C2224 H2209 0.959 . S
C2224 H2210 0.961 . S
C2224 C2223 1.502 . S
C2225 H2211 0.960 . S
C2225 H2212 0.961 . S
C2225 H2213 0.959 . S
C2225 C2223 1.561 . S
C2226 C2223 1.526 . S
C2226 C2227 1.396 . S
C2226 C2231 1.390 . S
C2227 C2221 1.465 . S
C2227 C2226 1.396 . S
C2227 C2228 1.399 . S
C2228 H2214 0.929 . S
C2228 C2227 1.399 . S
C2228 C2229 1.385 . S
C2229 H2215 0.931 . S
C2229 C2228 1.385 . S
C2229 C2230 1.389 . S
C2230 C2229 1.389 . S
C2230 C2231 1.387 . S
C2231 H2216 0.930 . S
C2231 C2226 1.390 . S
C2231 C2230 1.387 . S
H2232 C2244 0.930 . S
H2233 C2246 0.930 . S
H2234 C2247 0.930 . S
H2235 C2251 0.959 . S
H2236 C2251 0.959 . S
H2237 C2251 0.961 . S
H2238 C2252 0.960 . S
H2239 C2252 0.961 . S
H2240 C2252 0.959 . S
H2241 C2255 0.929 . S
H2242 C2256 0.931 . S
H2243 C2258 0.930 . S
C2244 H2232 0.930 . S
C2244 C2245 1.399 . S
C2244 C2249 1.399 . S
C2245 C2244 1.399 . S
C2245 C2246 1.376 . S
C2246 H2233 0.930 . S
C2246 C2245 1.376 . S
C2246 C2247 1.388 . S
C2247 H2234 0.930 . S
C2247 C2246 1.388 . S
C2247 C2248 1.390 . S
C2248 C2247 1.390 . S
C2248 C2249 1.394 . S
C2248 C2254 1.465 . S
C2249 C2244 1.399 . S
C2249 C2248 1.394 . S
C2249 C2250 1.516 . S
C2250 C2249 1.516 . S
C2250 C2251 1.502 . S
C2250 C2252 1.561 . S
C2250 C2253 1.526 . S
C2251 H2235 0.959 . S
C2251 H2236 0.959 . S
C2251 H2237 0.961 . S
C2251 C2250 1.502 . S
C2252 H2238 0.960 . S
C2252 H2239 0.961 . S
C2252 H2240 0.959 . S
C2252 C2250 1.561 . S
C2253 C2250 1.526 . S
C2253 C2254 1.396 . S
C2253 C2258 1.390 . S
C2254 C2248 1.465 . S
C2254 C2253 1.396 . S
C2254 C2255 1.399 . S
C2255 H2241 0.929 . S
C2255 C2254 1.399 . S
C2255 C2256 1.385 . S
C2256 H2242 0.931 . S
C2256 C2255 1.385 . S
C2256 C2257 1.389 . S
C2257 C2256 1.389 . S
C2257 C2258 1.387 . S
C2258 H2243 0.930 . S
C2258 C2253 1.390 . S
C2258 C2257 1.387 . S
H2259 C2271 0.930 . S
H2260 C2273 0.930 . S
H2261 C2274 0.930 . S
H2262 C2278 0.959 . S
H2263 C2278 0.959 . S
H2264 C2278 0.961 . S
H2265 C2279 0.960 . S
H2266 C2279 0.961 . S
H2267 C2279 0.959 . S
H2268 C2282 0.929 . S
H2269 C2283 0.931 . S
H2270 C2285 0.930 . S
C2271 H2259 0.930 . S
C2271 C2272 1.399 . S
C2271 C2276 1.399 . S
C2272 C2271 1.399 . S
C2272 C2273 1.376 . S
C2273 H2260 0.930 . S
C2273 C2272 1.376 . S
C2273 C2274 1.388 . S
C2274 H2261 0.930 . S
C2274 C2273 1.388 . S
C2274 C2275 1.390 . S
C2275 C2274 1.390 . S
C2275 C2276 1.394 . S
C2275 C2281 1.465 . S
C2276 C2271 1.399 . S
C2276 C2275 1.394 . S
C2276 C2277 1.516 . S
C2277 C2276 1.516 . S
C2277 C2278 1.502 . S
C2277 C2279 1.561 . S
C2277 C2280 1.526 . S
C2278 H2262 0.959 . S
C2278 H2263 0.959 . S
C2278 H2264 0.961 . S
C2278 C2277 1.502 . S
C2279 H2265 0.960 . S
C2279 H2266 0.961 . S
C2279 H2267 0.959 . S
C2279 C2277 1.561 . S
C2280 C2277 1.526 . S
C2280 C2281 1.396 . S
C2280 C2285 1.390 . S
C2281 C2275 1.465 . S
C2281 C2280 1.396 . S
C2281 C2282 1.399 . S
C2282 H2268 0.929 . S
C2282 C2281 1.399 . S
C2282 C2283 1.385 . S
C2283 H2269 0.931 . S
C2283 C2282 1.385 . S
C2283 C2284 1.389 . S
C2284 C2283 1.389 . S
C2284 C2285 1.387 . S
C2285 H2270 0.930 . S
C2285 C2280 1.390 . S
C2285 C2284 1.387 . S
H2286 C2298 0.930 . S
H2287 C2300 0.930 . S
H2288 C2301 0.930 . S
H2289 C2305 0.959 . S
H2290 C2305 0.959 . S
H2291 C2305 0.961 . S
H2292 C2306 0.960 . S
H2293 C2306 0.961 . S
H2294 C2306 0.959 . S
H2295 C2309 0.929 . S
H2296 C2310 0.931 . S
H2297 C2312 0.930 . S
C2298 H2286 0.930 . S
C2298 C2299 1.399 . S
C2298 C2303 1.399 . S
C2299 C2298 1.399 . S
C2299 C2300 1.376 . S
C2300 H2287 0.930 . S
C2300 C2299 1.376 . S
C2300 C2301 1.388 . S
C2301 H2288 0.930 . S
C2301 C2300 1.388 . S
C2301 C2302 1.390 . S
C2302 C2301 1.390 . S
C2302 C2303 1.394 . S
C2302 C2308 1.465 . S
C2303 C2298 1.399 . S
C2303 C2302 1.394 . S
C2303 C2304 1.516 . S
C2304 C2303 1.516 . S
C2304 C2305 1.502 . S
C2304 C2306 1.561 . S
C2304 C2307 1.526 . S
C2305 H2289 0.959 . S
C2305 H2290 0.959 . S
C2305 H2291 0.961 . S
C2305 C2304 1.502 . S
C2306 H2292 0.960 . S
C2306 H2293 0.961 . S
C2306 H2294 0.959 . S
C2306 C2304 1.561 . S
C2307 C2304 1.526 . S
C2307 C2308 1.396 . S
C2307 C2312 1.390 . S
C2308 C2302 1.465 . S
C2308 C2307 1.396 . S
C2308 C2309 1.399 . S
C2309 H2295 0.929 . S
C2309 C2308 1.399 . S
C2309 C2310 1.385 . S
C2310 H2296 0.931 . S
C2310 C2309 1.385 . S
C2310 C2311 1.389 . S
C2311 C2310 1.389 . S
C2311 C2312 1.387 . S
C2312 H2297 0.930 . S
C2312 C2307 1.390 . S
C2312 C2311 1.387 . S
H2313 C2325 0.930 . S
H2314 C2327 0.930 . S
H2315 C2328 0.930 . S
H2316 C2332 0.959 . S
H2317 C2332 0.959 . S
H2318 C2332 0.961 . S
H2319 C2333 0.960 . S
H2320 C2333 0.961 . S
H2321 C2333 0.959 . S
H2322 C2336 0.929 . S
H2323 C2337 0.931 . S
H2324 C2339 0.930 . S
C2325 H2313 0.930 . S
C2325 C2326 1.399 . S
C2325 C2330 1.399 . S
C2326 C2325 1.399 . S
C2326 C2327 1.376 . S
C2327 H2314 0.930 . S
C2327 C2326 1.376 . S
C2327 C2328 1.388 . S
C2328 H2315 0.930 . S
C2328 C2327 1.388 . S
C2328 C2329 1.390 . S
C2329 C2328 1.390 . S
C2329 C2330 1.394 . S
C2329 C2335 1.465 . S
C2330 C2325 1.399 . S
C2330 C2329 1.394 . S
C2330 C2331 1.516 . S
C2331 C2330 1.516 . S
C2331 C2332 1.502 . S
C2331 C2333 1.561 . S
C2331 C2334 1.526 . S
C2332 H2316 0.959 . S
C2332 H2317 0.959 . S
C2332 H2318 0.961 . S
C2332 C2331 1.502 . S
C2333 H2319 0.960 . S
C2333 H2320 0.961 . S
C2333 H2321 0.959 . S
C2333 C2331 1.561 . S
C2334 C2331 1.526 . S
C2334 C2335 1.396 . S
C2334 C2339 1.390 . S
C2335 C2329 1.465 . S
C2335 C2334 1.396 . S
C2335 C2336 1.399 . S
C2336 H2322 0.929 . S
C2336 C2335 1.399 . S
C2336 C2337 1.385 . S
C2337 H2323 0.931 . S
C2337 C2336 1.385 . S
C2337 C2338 1.389 . S
C2338 C2337 1.389 . S
C2338 C2339 1.387 . S
C2339 H2324 0.930 . S
C2339 C2334 1.390 . S
C2339 C2338 1.387 . S
H2340 C2352 0.930 . S
H2341 C2354 0.930 . S
H2342 C2355 0.930 . S
H2343 C2359 0.959 . S
H2344 C2359 0.959 . S
H2345 C2359 0.961 . S
H2346 C2360 0.960 . S
H2347 C2360 0.961 . S
H2348 C2360 0.959 . S
H2349 C2363 0.929 . S
H2350 C2364 0.931 . S
H2351 C2366 0.930 . S
C2352 H2340 0.930 . S
C2352 C2353 1.399 . S
C2352 C2357 1.399 . S
C2353 C2352 1.399 . S
C2353 C2354 1.376 . S
C2354 H2341 0.930 . S
C2354 C2353 1.376 . S
C2354 C2355 1.388 . S
C2355 H2342 0.930 . S
C2355 C2354 1.388 . S
C2355 C2356 1.390 . S
C2356 C2355 1.390 . S
C2356 C2357 1.394 . S
C2356 C2362 1.465 . S
C2357 C2352 1.399 . S
C2357 C2356 1.394 . S
C2357 C2358 1.516 . S
C2358 C2357 1.516 . S
C2358 C2359 1.502 . S
C2358 C2360 1.561 . S
C2358 C2361 1.526 . S
C2359 H2343 0.959 . S
C2359 H2344 0.959 . S
C2359 H2345 0.961 . S
C2359 C2358 1.502 . S
C2360 H2346 0.960 . S
C2360 H2347 0.961 . S
C2360 H2348 0.959 . S
C2360 C2358 1.561 . S
C2361 C2358 1.526 . S
C2361 C2362 1.396 . S
C2361 C2366 1.390 . S
C2362 C2356 1.465 . S
C2362 C2361 1.396 . S
C2362 C2363 1.399 . S
C2363 H2349 0.929 . S
C2363 C2362 1.399 . S
C2363 C2364 1.385 . S
C2364 H2350 0.931 . S
C2364 C2363 1.385 . S
C2364 C2365 1.389 . S
C2365 C2364 1.389 . S
C2365 C2366 1.387 . S
C2366 H2351 0.930 . S
C2366 C2361 1.390 . S
C2366 C2365 1.387 . S
H2367 C2379 0.930 . S
H2368 C2381 0.930 . S
H2369 C2382 0.930 . S
H2370 C2386 0.959 . S
H2371 C2386 0.959 . S
H2372 C2386 0.961 . S
H2373 C2387 0.960 . S
H2374 C2387 0.961 . S
H2375 C2387 0.959 . S
H2376 C2390 0.929 . S
H2377 C2391 0.931 . S
H2378 C2393 0.930 . S
C2379 H2367 0.930 . S
C2379 C2380 1.399 . S
C2379 C2384 1.399 . S
C2380 C2379 1.399 . S
C2380 C2381 1.376 . S
C2381 H2368 0.930 . S
C2381 C2380 1.376 . S
C2381 C2382 1.388 . S
C2382 H2369 0.930 . S
C2382 C2381 1.388 . S
C2382 C2383 1.390 . S
C2383 C2382 1.390 . S
C2383 C2384 1.394 . S
C2383 C2389 1.465 . S
C2384 C2379 1.399 . S
C2384 C2383 1.394 . S
C2384 C2385 1.516 . S
C2385 C2384 1.516 . S
C2385 C2386 1.502 . S
C2385 C2387 1.561 . S
C2385 C2388 1.526 . S
C2386 H2370 0.959 . S
C2386 H2371 0.959 . S
C2386 H2372 0.961 . S
C2386 C2385 1.502 . S
C2387 H2373 0.960 . S
C2387 H2374 0.961 . S
C2387 H2375 0.959 . S
C2387 C2385 1.561 . S
C2388 C2385 1.526 . S
C2388 C2389 1.396 . S
C2388 C2393 1.390 . S
C2389 C2383 1.465 . S
C2389 C2388 1.396 . S
C2389 C2390 1.399 . S
C2390 H2376 0.929 . S
C2390 C2389 1.399 . S
C2390 C2391 1.385 . S
C2391 H2377 0.931 . S
C2391 C2390 1.385 . S
C2391 C2392 1.389 . S
C2392 C2391 1.389 . S
C2392 C2393 1.387 . S
C2393 H2378 0.930 . S
C2393 C2388 1.390 . S
C2393 C2392 1.387 . S
H2394 C2406 0.930 . S
H2395 C2408 0.930 . S
H2396 C2409 0.930 . S
H2397 C2413 0.959 . S
H2398 C2413 0.959 . S
H2399 C2413 0.961 . S
H2400 C2414 0.960 1_556 S
H2401 C2414 0.961 . S
H2402 C2414 0.959 . S
H2403 C2417 0.929 . S
H2404 C2418 0.931 . S
H2405 C2420 0.930 . S
C2406 H2394 0.930 . S
C2406 C2407 1.399 . S
C2406 C2411 1.399 . S
C2407 C2406 1.399 . S
C2407 C2408 1.376 . S
C2408 H2395 0.930 . S
C2408 C2407 1.376 . S
C2408 C2409 1.388 . S
C2409 H2396 0.930 . S
C2409 C2408 1.388 . S
C2409 C2410 1.390 . S
C2410 C2409 1.390 . S
C2410 C2411 1.394 . S
C2410 C2416 1.465 . S
C2411 C2406 1.399 . S
C2411 C2410 1.394 . S
C2411 C2412 1.516 . S
C2412 C2411 1.516 . S
C2412 C2413 1.502 . S
C2412 C2414 1.561 . S
C2412 C2415 1.526 . S
C2413 H2397 0.959 . S
C2413 H2398 0.959 . S
C2413 H2399 0.961 . S
C2413 C2412 1.502 . S
C2414 H2400 0.960 1_554 S
C2414 H2401 0.961 . S
C2414 H2402 0.959 . S
C2414 C2412 1.561 . S
C2415 C2412 1.526 . S
C2415 C2416 1.396 . S
C2415 C2420 1.390 . S
C2416 C2410 1.465 . S
C2416 C2415 1.396 . S
C2416 C2417 1.399 . S
C2417 H2403 0.929 . S
C2417 C2416 1.399 . S
C2417 C2418 1.385 . S
C2418 H2404 0.931 . S
C2418 C2417 1.385 . S
C2418 C2419 1.389 . S
C2419 C2418 1.389 . S
C2419 C2420 1.387 . S
C2420 H2405 0.930 . S
C2420 C2415 1.390 . S
C2420 C2419 1.387 . S
H2421 C2433 0.930 . S
H2422 C2435 0.930 . S
H2423 C2436 0.930 . S
H2424 C2440 0.959 . S
H2425 C2440 0.959 . S
H2426 C2440 0.961 . S
H2427 C2441 0.960 . S
H2428 C2441 0.961 . S
H2429 C2441 0.959 . S
H2430 C2444 0.929 1_554 S
H2431 C2445 0.931 . S
H2432 C2447 0.930 . S
C2433 H2421 0.930 . S
C2433 C2434 1.399 . S
C2433 C2438 1.399 . S
C2434 C2433 1.399 . S
C2434 C2435 1.376 1_556 S
C2435 H2422 0.930 . S
C2435 C2434 1.376 1_554 S
C2435 C2436 1.388 . S
C2436 H2423 0.930 . S
C2436 C2435 1.388 . S
C2436 C2437 1.390 1_554 S
C2437 C2436 1.390 1_556 S
C2437 C2438 1.394 . S
C2437 C2443 1.465 . S
C2438 C2433 1.399 . S
C2438 C2437 1.394 . S
C2438 C2439 1.516 . S
C2439 C2438 1.516 . S
C2439 C2440 1.502 . S
C2439 C2441 1.561 . S
C2439 C2442 1.526 . S
C2440 H2424 0.959 . S
C2440 H2425 0.959 . S
C2440 H2426 0.961 . S
C2440 C2439 1.502 . S
C2441 H2427 0.960 . S
C2441 H2428 0.961 . S
C2441 H2429 0.959 . S
C2441 C2439 1.561 . S
C2442 C2439 1.526 . S
C2442 C2443 1.396 . S
C2442 C2447 1.390 . S
C2443 C2437 1.465 . S
C2443 C2442 1.396 . S
C2443 C2444 1.399 . S
C2444 H2430 0.929 1_556 S
C2444 C2443 1.399 . S
C2444 C2445 1.385 . S
C2445 H2431 0.931 . S
C2445 C2444 1.385 . S
C2445 C2446 1.389 . S
C2446 C2445 1.389 . S
C2446 C2447 1.387 . S
C2447 H2432 0.930 . S
C2447 C2442 1.390 . S
C2447 C2446 1.387 . S
H2448 C2460 0.930 . S
H2449 C2462 0.930 . S
H2450 C2463 0.930 . S
H2451 C2467 0.959 1_556 S
H2452 C2467 0.959 . S
H2453 C2467 0.961 . S
H2454 C2468 0.960 . S
H2455 C2468 0.961 . S
H2456 C2468 0.959 . S
H2457 C2471 0.929 . S
H2458 C2472 0.931 . S
H2459 C2474 0.930 . S
C2460 H2448 0.930 . S
C2460 C2461 1.399 1_554 S
C2460 C2465 1.399 1_554 S
C2461 C2460 1.399 1_556 S
C2461 C2462 1.376 . S
C2462 H2449 0.930 . S
C2462 C2461 1.376 . S
C2462 C2463 1.388 . S
C2463 H2450 0.930 . S
C2463 C2462 1.388 . S
C2463 C2464 1.390 . S
C2464 C2463 1.390 . S
C2464 C2465 1.394 . S
C2464 C2470 1.465 . S
C2465 C2460 1.399 1_556 S
C2465 C2464 1.394 . S
C2465 C2466 1.516 1_556 S
C2466 C2465 1.516 1_554 S
C2466 C2467 1.502 . S
C2466 C2468 1.561 . S
C2466 C2469 1.526 1_554 S
C2467 H2451 0.959 1_554 S
C2467 H2452 0.959 . S
C2467 H2453 0.961 . S
C2467 C2466 1.502 . S
C2468 H2454 0.960 . S
C2468 H2455 0.961 . S
C2468 H2456 0.959 . S
C2468 C2466 1.561 . S
C2469 C2466 1.526 1_556 S
C2469 C2470 1.396 . S
C2469 C2474 1.390 . S
C2470 C2464 1.465 . S
C2470 C2469 1.396 . S
C2470 C2471 1.399 . S
C2471 H2457 0.929 . S
C2471 C2470 1.399 . S
C2471 C2472 1.385 . S
C2472 H2458 0.931 . S
C2472 C2471 1.385 . S
C2472 C2473 1.389 . S
C2473 C2472 1.389 . S
C2473 C2474 1.387 . S
C2474 H2459 0.930 . S
C2474 C2469 1.390 . S
C2474 C2473 1.387 . S
H2475 C2487 0.930 . S
H2476 C2489 0.930 . S
H2477 C2490 0.930 1_554 S
H2478 C2494 0.959 . S
H2479 C2494 0.959 . S
H2480 C2494 0.961 . S
H2481 C2495 0.960 . S
H2482 C2495 0.961 . S
H2483 C2495 0.959 . S
H2484 C2498 0.929 . S
H2485 C2499 0.931 . S
H2486 C2501 0.930 . S
C2487 H2475 0.930 . S
C2487 C2488 1.399 . S
C2487 C2492 1.399 . S
C2488 C2487 1.399 . S
C2488 C2489 1.376 1_556 S
C2489 H2476 0.930 . S
C2489 C2488 1.376 1_554 S
C2489 C2490 1.388 1_554 S
C2490 H2477 0.930 1_556 S
C2490 C2489 1.388 1_556 S
C2490 C2491 1.390 . S
C2491 C2490 1.390 . S
C2491 C2492 1.394 . S
C2491 C2497 1.465 . S
C2492 C2487 1.399 . S
C2492 C2491 1.394 . S
C2492 C2493 1.516 . S
C2493 C2492 1.516 . S
C2493 C2494 1.502 . S
C2493 C2495 1.561 . S
C2493 C2496 1.526 . S
C2494 H2478 0.959 . S
C2494 H2479 0.959 . S
C2494 H2480 0.961 . S
C2494 C2493 1.502 . S
C2495 H2481 0.960 . S
C2495 H2482 0.961 . S
C2495 H2483 0.959 . S
C2495 C2493 1.561 . S
C2496 C2493 1.526 . S
C2496 C2497 1.396 . S
C2496 C2501 1.390 . S
C2497 C2491 1.465 . S
C2497 C2496 1.396 . S
C2497 C2498 1.399 . S
C2498 H2484 0.929 . S
C2498 C2497 1.399 . S
C2498 C2499 1.385 . S
C2499 H2485 0.931 . S
C2499 C2498 1.385 . S
C2499 C2500 1.389 . S
C2500 C2499 1.389 . S
C2500 C2501 1.387 . S
C2501 H2486 0.930 . S
C2501 C2496 1.390 . S
C2501 C2500 1.387 . S
H2502 C2514 0.930 . S
H2503 C2516 0.930 . S
H2504 C2517 0.930 . S
H2505 C2521 0.959 . S
H2506 C2521 0.959 . S
H2507 C2521 0.961 . S
H2508 C2522 0.960 . S
H2509 C2522 0.961 . S
H2510 C2522 0.959 1_556 S
H2511 C2525 0.929 . S
H2512 C2526 0.931 . S
H2513 C2528 0.930 . S
C2514 H2502 0.930 . S
C2514 C2515 1.399 1_554 S
C2514 C2519 1.399 1_554 S
C2515 C2514 1.399 1_556 S
C2515 C2516 1.376 . S
C2516 H2503 0.930 . S
C2516 C2515 1.376 . S
C2516 C2517 1.388 . S
C2517 H2504 0.930 . S
C2517 C2516 1.388 . S
C2517 C2518 1.390 . S
C2518 C2517 1.390 . S
C2518 C2519 1.394 . S
C2518 C2524 1.465 . S
C2519 C2514 1.399 1_556 S
C2519 C2518 1.394 . S
C2519 C2520 1.516 1_556 S
C2520 C2519 1.516 1_554 S
C2520 C2521 1.502 . S
C2520 C2522 1.561 . S
C2520 C2523 1.526 1_554 S
C2521 H2505 0.959 . S
C2521 H2506 0.959 . S
C2521 H2507 0.961 . S
C2521 C2520 1.502 . S
C2522 H2508 0.960 . S
C2522 H2509 0.961 . S
C2522 H2510 0.959 1_554 S
C2522 C2520 1.561 . S
C2523 C2520 1.526 1_556 S
C2523 C2524 1.396 . S
C2523 C2528 1.390 . S
C2524 C2518 1.465 . S
C2524 C2523 1.396 . S
C2524 C2525 1.399 . S
C2525 H2511 0.929 . S
C2525 C2524 1.399 . S
C2525 C2526 1.385 . S
C2526 H2512 0.931 . S
C2526 C2525 1.385 . S
C2526 C2527 1.389 . S
C2527 C2526 1.389 . S
C2527 C2528 1.387 . S
C2528 H2513 0.930 . S
C2528 C2523 1.390 . S
C2528 C2527 1.387 . S
H2529 C2541 0.930 . S
H2530 C2543 0.930 . S
H2531 C2544 0.930 . S
H2532 C2548 0.959 . S
H2533 C2548 0.959 . S
H2534 C2548 0.961 . S
H2535 C2549 0.960 . S
H2536 C2549 0.961 . S
H2537 C2549 0.959 . S
H2538 C2552 0.929 . S
H2539 C2553 0.931 . S
H2540 C2555 0.930 . S
C2541 H2529 0.930 . S
C2541 C2542 1.399 . S
C2541 C2546 1.399 . S
C2542 C2541 1.399 . S
C2542 C2543 1.376 1_556 S
C2543 H2530 0.930 . S
C2543 C2542 1.376 1_554 S
C2543 C2544 1.388 . S
C2544 H2531 0.930 . S
C2544 C2543 1.388 . S
C2544 C2545 1.390 1_554 S
C2545 C2544 1.390 1_556 S
C2545 C2546 1.394 . S
C2545 C2551 1.465 . S
C2546 C2541 1.399 . S
C2546 C2545 1.394 . S
C2546 C2547 1.516 . S
C2547 C2546 1.516 . S
C2547 C2548 1.502 . S
C2547 C2549 1.561 . S
C2547 C2550 1.526 . S
C2548 H2532 0.959 . S
C2548 H2533 0.959 . S
C2548 H2534 0.961 . S
C2548 C2547 1.502 . S
C2549 H2535 0.960 . S
C2549 H2536 0.961 . S
C2549 H2537 0.959 . S
C2549 C2547 1.561 . S
C2550 C2547 1.526 . S
C2550 C2551 1.396 . S
C2550 C2555 1.390 . S
C2551 C2545 1.465 . S
C2551 C2550 1.396 . S
C2551 C2552 1.399 . S
C2552 H2538 0.929 . S
C2552 C2551 1.399 . S
C2552 C2553 1.385 . S
C2553 H2539 0.931 . S
C2553 C2552 1.385 . S
C2553 C2554 1.389 . S
C2554 C2553 1.389 . S
C2554 C2555 1.387 . S
C2555 H2540 0.930 . S
C2555 C2550 1.390 . S
C2555 C2554 1.387 . S
H2556 C2568 0.930 . S
H2557 C2570 0.930 . S
H2558 C2571 0.930 . S
H2559 C2575 0.959 . S
H2560 C2575 0.959 . S
H2561 C2575 0.961 . S
H2562 C2576 0.960 . S
H2563 C2576 0.961 . S
H2564 C2576 0.959 . S
H2565 C2579 0.929 . S
H2566 C2580 0.931 . S
H2567 C2582 0.930 . S
C2568 H2556 0.930 . S
C2568 C2569 1.399 1_554 S
C2568 C2573 1.399 1_554 S
C2569 C2568 1.399 1_556 S
C2569 C2570 1.376 . S
C2570 H2557 0.930 . S
C2570 C2569 1.376 . S
C2570 C2571 1.388 . S
C2571 H2558 0.930 . S
C2571 C2570 1.388 . S
C2571 C2572 1.390 . S
C2572 C2571 1.390 . S
C2572 C2573 1.394 . S
C2572 C2578 1.465 . S
C2573 C2568 1.399 1_556 S
C2573 C2572 1.394 . S
C2573 C2574 1.516 . S
C2574 C2573 1.516 . S
C2574 C2575 1.502 1_556 S
C2574 C2576 1.561 . S
C2574 C2577 1.526 . S
C2575 H2559 0.959 . S
C2575 H2560 0.959 . S
C2575 H2561 0.961 . S
C2575 C2574 1.502 1_554 S
C2576 H2562 0.960 . S
C2576 H2563 0.961 . S
C2576 H2564 0.959 . S
C2576 C2574 1.561 . S
C2577 C2574 1.526 . S
C2577 C2578 1.396 . S
C2577 C2582 1.390 . S
C2578 C2572 1.465 . S
C2578 C2577 1.396 . S
C2578 C2579 1.399 . S
C2579 H2565 0.929 . S
C2579 C2578 1.399 . S
C2579 C2580 1.385 . S
C2580 H2566 0.931 . S
C2580 C2579 1.385 . S
C2580 C2581 1.389 . S
C2581 C2580 1.389 . S
C2581 C2582 1.387 . S
C2582 H2567 0.930 . S
C2582 C2577 1.390 . S
C2582 C2581 1.387 . S
H2583 C2595 0.930 . S
H2584 C2597 0.930 . S
H2585 C2598 0.930 . S
H2586 C2602 0.959 . S
H2587 C2602 0.959 . S
H2588 C2602 0.961 . S
H2589 C2603 0.960 . S
H2590 C2603 0.961 . S
H2591 C2603 0.959 . S
H2592 C2606 0.929 . S
H2593 C2607 0.931 . S
H2594 C2609 0.930 . S
C2595 H2583 0.930 . S
C2595 C2596 1.399 . S
C2595 C2600 1.399 . S
C2596 C2595 1.399 . S
C2596 C2597 1.376 . S
C2597 H2584 0.930 . S
C2597 C2596 1.376 . S
C2597 C2598 1.388 . S
C2598 H2585 0.930 . S
C2598 C2597 1.388 . S
C2598 C2599 1.390 . S
C2599 C2598 1.390 . S
C2599 C2600 1.394 . S
C2599 C2605 1.465 . S
C2600 C2595 1.399 . S
C2600 C2599 1.394 . S
C2600 C2601 1.516 . S
C2601 C2600 1.516 . S
C2601 C2602 1.502 . S
C2601 C2603 1.561 . S
C2601 C2604 1.526 . S
C2602 H2586 0.959 . S
C2602 H2587 0.959 . S
C2602 H2588 0.961 . S
C2602 C2601 1.502 . S
C2603 H2589 0.960 . S
C2603 H2590 0.961 . S
C2603 H2591 0.959 . S
C2603 C2601 1.561 . S
C2604 C2601 1.526 . S
C2604 C2605 1.396 . S
C2604 C2609 1.390 . S
C2605 C2599 1.465 . S
C2605 C2604 1.396 . S
C2605 C2606 1.399 . S
C2606 H2592 0.929 . S
C2606 C2605 1.399 . S
C2606 C2607 1.385 . S
C2607 H2593 0.931 . S
C2607 C2606 1.385 . S
C2607 C2608 1.389 . S
C2608 C2607 1.389 . S
C2608 C2609 1.387 . S
C2609 H2594 0.930 . S
C2609 C2604 1.390 . S
C2609 C2608 1.387 . S
H2610 C2622 0.930 . S
H2611 C2624 0.930 . S
H2612 C2625 0.930 . S
H2613 C2629 0.959 . S
H2614 C2629 0.959 . S
H2615 C2629 0.935 1_556 S
H2616 C2630 0.960 . S
H2617 C2630 0.961 . S
H2618 C2630 0.959 . S
H2619 C2633 0.929 . S
H2620 C2634 0.931 . S
H2621 C2636 0.930 . S
C2622 H2610 0.930 . S
C2622 C2623 1.399 . S
C2622 C2627 1.399 . S
C2623 C2622 1.399 . S
C2623 C2624 1.376 . S
C2624 H2611 0.930 . S
C2624 C2623 1.376 . S
C2624 C2625 1.388 . S
C2625 H2612 0.930 . S
C2625 C2624 1.388 . S
C2625 C2626 1.390 . S
C2626 C2625 1.390 . S
C2626 C2627 1.394 . S
C2626 C2632 1.465 . S
C2627 C2622 1.399 . S
C2627 C2626 1.394 . S
C2627 C2628 1.516 . S
C2628 C2627 1.516 . S
C2628 C2629 1.502 . S
C2628 C2630 1.561 . S
C2628 C2631 1.526 . S
C2629 H2613 0.959 . S
C2629 H2614 0.959 . S
C2629 H2615 0.935 1_554 S
C2629 C2628 1.502 . S
C2630 H2616 0.960 . S
C2630 H2617 0.961 . S
C2630 H2618 0.959 . S
C2630 C2628 1.561 . S
C2631 C2628 1.526 . S
C2631 C2632 1.396 . S
C2631 C2636 1.390 . S
C2632 C2626 1.465 . S
C2632 C2631 1.396 . S
C2632 C2633 1.399 . S
C2633 H2619 0.929 . S
C2633 C2632 1.399 . S
C2633 C2634 1.385 . S
C2634 H2620 0.931 . S
C2634 C2633 1.385 . S
C2634 C2635 1.389 . S
C2635 C2634 1.389 . S
C2635 C2636 1.387 . S
C2636 H2621 0.930 . S
C2636 C2631 1.390 . S
C2636 C2635 1.387 . S
H2637 C2649 0.930 . S
H2638 C2651 0.930 . S
H2639 C2652 0.930 . S
H2640 C2656 0.959 . S
H2641 C2656 0.959 . S
H2642 C2656 0.961 1_556 S
H2643 C2657 0.960 . S
H2644 C2657 0.961 . S
H2645 C2657 0.959 . S
H2646 C2660 0.929 . S
H2647 C2661 0.931 . S
H2648 C2663 0.930 . S
C2649 H2637 0.930 . S
C2649 C2650 1.399 . S
C2649 C2654 1.399 . S
C2650 C2649 1.399 . S
C2650 C2651 1.376 . S
C2651 H2638 0.930 . S
C2651 C2650 1.376 . S
C2651 C2652 1.388 . S
C2652 H2639 0.930 . S
C2652 C2651 1.388 . S
C2652 C2653 1.390 . S
C2653 C2652 1.390 . S
C2653 C2654 1.394 . S
C2653 C2659 1.465 . S
C2654 C2649 1.399 . S
C2654 C2653 1.394 . S
C2654 C2655 1.516 . S
C2655 C2654 1.516 . S
C2655 C2656 1.502 . S
C2655 C2657 1.561 . S
C2655 C2658 1.526 . S
C2656 H2640 0.959 . S
C2656 H2641 0.959 . S
C2656 H2642 0.961 1_554 S
C2656 C2655 1.502 . S
C2657 H2643 0.960 . S
C2657 H2644 0.961 . S
C2657 H2645 0.959 . S
C2657 C2655 1.561 . S
C2658 C2655 1.526 . S
C2658 C2659 1.396 . S
C2658 C2663 1.390 . S
C2659 C2653 1.465 . S
C2659 C2658 1.396 . S
C2659 C2660 1.399 . S
C2660 H2646 0.929 . S
C2660 C2659 1.399 . S
C2660 C2661 1.385 . S
C2661 H2647 0.931 . S
C2661 C2660 1.385 . S
C2661 C2662 1.389 . S
C2662 C2661 1.389 . S
C2662 C2663 1.387 . S
C2663 H2648 0.930 . S
C2663 C2658 1.390 . S
C2663 C2662 1.387 . S
H2664 C2676 0.930 . S
H2665 C2678 0.930 . S
H2666 C2679 0.930 . S
H2667 C2683 0.959 . S
H2668 C2683 0.959 . S
H2669 C2683 0.961 . S
H2670 C2684 0.960 . S
H2671 C2684 0.961 . S
H2672 C2684 0.959 . S
H2673 C2687 0.929 . S
H2674 C2688 0.931 . S
H2675 C2690 0.930 . S
C2676 H2664 0.930 . S
C2676 C2677 1.399 . S
C2676 C2681 1.399 . S
C2677 C2676 1.399 . S
C2677 C2678 1.376 . S
C2678 H2665 0.930 . S
C2678 C2677 1.376 . S
C2678 C2679 1.388 . S
C2679 H2666 0.930 . S
C2679 C2678 1.388 . S
C2679 C2680 1.390 . S
C2680 C2679 1.390 . S
C2680 C2681 1.394 . S
C2680 C2686 1.465 . S
C2681 C2676 1.399 . S
C2681 C2680 1.394 . S
C2681 C2682 1.516 . S
C2682 C2681 1.516 . S
C2682 C2683 1.502 . S
C2682 C2684 1.561 . S
C2682 C2685 1.526 . S
C2683 H2667 0.959 . S
C2683 H2668 0.959 . S
C2683 H2669 0.961 . S
C2683 C2682 1.502 . S
C2684 H2670 0.960 . S
C2684 H2671 0.961 . S
C2684 H2672 0.959 . S
C2684 C2682 1.561 . S
C2685 C2682 1.526 . S
C2685 C2686 1.396 . S
C2685 C2690 1.390 . S
C2686 C2680 1.465 . S
C2686 C2685 1.396 . S
C2686 C2687 1.399 . S
C2687 H2673 0.929 . S
C2687 C2686 1.399 . S
C2687 C2688 1.385 . S
C2688 H2674 0.931 . S
C2688 C2687 1.385 . S
C2688 C2689 1.389 . S
C2689 C2688 1.389 . S
C2689 C2690 1.387 . S
C2690 H2675 0.930 . S
C2690 C2685 1.390 . S
C2690 C2689 1.387 . S
H2691 C2703 0.930 . S
H2692 C2705 0.930 . S
H2693 C2706 0.930 . S
H2694 C2710 0.959 . S
H2695 C2710 0.959 . S
H2696 C2710 0.961 . S
H2697 C2711 0.960 . S
H2698 C2711 0.961 . S
H2699 C2711 0.959 . S
H2700 C2714 0.929 . S
H2701 C2715 0.931 . S
H2702 C2717 0.930 . S
C2703 H2691 0.930 . S
C2703 C2704 1.399 . S
C2703 C2708 1.399 . S
C2704 C2703 1.399 . S
C2704 C2705 1.376 . S
C2705 H2692 0.930 . S
C2705 C2704 1.376 . S
C2705 C2706 1.388 . S
C2706 H2693 0.930 . S
C2706 C2705 1.388 . S
C2706 C2707 1.390 . S
C2707 C2706 1.390 . S
C2707 C2708 1.394 . S
C2707 C2713 1.465 . S
C2708 C2703 1.399 . S
C2708 C2707 1.394 . S
C2708 C2709 1.516 . S
C2709 C2708 1.516 . S
C2709 C2710 1.502 . S
C2709 C2711 1.561 . S
C2709 C2712 1.526 . S
C2710 H2694 0.959 . S
C2710 H2695 0.959 . S
C2710 H2696 0.961 . S
C2710 C2709 1.502 . S
C2711 H2697 0.960 . S
C2711 H2698 0.961 . S
C2711 H2699 0.959 . S
C2711 C2709 1.561 . S
C2712 C2709 1.526 . S
C2712 C2713 1.396 . S
C2712 C2717 1.390 . S
C2713 C2707 1.465 . S
C2713 C2712 1.396 . S
C2713 C2714 1.399 . S
C2714 H2700 0.929 . S
C2714 C2713 1.399 . S
C2714 C2715 1.385 . S
C2715 H2701 0.931 . S
C2715 C2714 1.385 . S
C2715 C2716 1.389 . S
C2716 C2715 1.389 . S
C2716 C2717 1.387 . S
C2717 H2702 0.930 . S
C2717 C2712 1.390 . S
C2717 C2716 1.387 . S
H2718 C2730 0.930 . S
H2719 C2732 0.930 1_455 S
H2720 C2733 0.930 . S
H2721 C2737 0.959 . S
H2722 C2737 0.959 . S
H2723 C2737 0.961 . S
H2724 C2738 0.960 . S
H2725 C2738 0.961 . S
H2726 C2738 0.959 . S
H2727 C2741 0.929 . S
H2728 C2742 0.931 . S
H2729 C2744 0.930 . S
C2730 H2718 0.930 . S
C2730 C2731 1.399 . S
C2730 C2735 1.399 . S
C2731 C2730 1.399 . S
C2731 C2732 1.376 . S
C2732 H2719 0.930 1_655 S
C2732 C2731 1.376 . S
C2732 C2733 1.388 . S
C2733 H2720 0.930 . S
C2733 C2732 1.388 . S
C2733 C2734 1.390 . S
C2734 C2733 1.390 . S
C2734 C2735 1.394 . S
C2734 C2740 1.465 . S
C2735 C2730 1.399 . S
C2735 C2734 1.394 . S
C2735 C2736 1.516 . S
C2736 C2735 1.516 . S
C2736 C2737 1.502 . S
C2736 C2738 1.561 . S
C2736 C2739 1.526 . S
C2737 H2721 0.959 . S
C2737 H2722 0.959 . S
C2737 H2723 0.961 . S
C2737 C2736 1.502 . S
C2738 H2724 0.960 . S
C2738 H2725 0.961 . S
C2738 H2726 0.959 . S
C2738 C2736 1.561 . S
C2739 C2736 1.526 . S
C2739 C2740 1.396 . S
C2739 C2744 1.390 . S
C2740 C2734 1.465 . S
C2740 C2739 1.396 . S
C2740 C2741 1.399 . S
C2741 H2727 0.929 . S
C2741 C2740 1.399 . S
C2741 C2742 1.385 . S
C2742 H2728 0.931 . S
C2742 C2741 1.385 . S
C2742 C2743 1.389 . S
C2743 C2742 1.389 . S
C2743 C2744 1.387 . S
C2744 H2729 0.930 . S
C2744 C2739 1.390 . S
C2744 C2743 1.387 . S
H2745 C2757 0.930 . S
H2746 C2759 0.930 . S
H2747 C2760 0.930 . S
H2748 C2764 0.959 . S
H2749 C2764 0.959 . S
H2750 C2764 0.961 . S
H2751 C2765 0.960 . S
H2752 C2765 0.961 . S
H2753 C2765 0.959 1_655 S
H2754 C2768 0.929 . S
H2755 C2769 0.979 . S
H2756 C2771 0.930 . S
C2757 H2745 0.930 . S
C2757 C2758 1.399 . S
C2757 C2762 1.399 . S
C2758 C2757 1.399 . S
C2758 C2759 1.376 . S
C2759 H2746 0.930 . S
C2759 C2758 1.376 . S
C2759 C2760 1.388 . S
C2760 H2747 0.930 . S
C2760 C2759 1.388 . S
C2760 C2761 1.390 . S
C2761 C2760 1.390 . S
C2761 C2762 1.394 . S
C2761 C2767 1.465 . S
C2762 C2757 1.399 . S
C2762 C2761 1.394 . S
C2762 C2763 1.516 . S
C2763 C2762 1.516 . S
C2763 C2764 1.502 . S
C2763 C2765 1.561 . S
C2763 C2766 1.526 . S
C2764 H2748 0.959 . S
C2764 H2749 0.959 . S
C2764 H2750 0.961 . S
C2764 C2763 1.502 . S
C2765 H2751 0.960 . S
C2765 H2752 0.961 . S
C2765 H2753 0.959 1_455 S
C2765 C2763 1.561 . S
C2766 C2763 1.526 . S
C2766 C2767 1.396 . S
C2766 C2771 1.390 . S
C2767 C2761 1.465 . S
C2767 C2766 1.396 . S
C2767 C2768 1.399 . S
C2768 H2754 0.929 . S
C2768 C2767 1.399 . S
C2768 C2769 1.385 . S
C2769 H2755 0.979 . S
C2769 C2768 1.385 . S
C2769 C2770 1.389 . S
C2770 C2769 1.389 . S
C2770 C2771 1.387 . S
C2771 H2756 0.930 . S
C2771 C2766 1.390 . S
C2771 C2770 1.387 . S
H2772 C2784 0.930 . S
H2773 C2786 0.930 . S
H2774 C2787 0.930 . S
H2775 C2791 0.959 . S
H2776 C2791 0.959 . S
H2777 C2791 0.961 . S
H2778 C2792 0.960 . S
H2779 C2792 0.961 . S
H2780 C2792 0.959 . S
H2781 C2795 0.929 . S
H2782 C2796 0.931 . S
H2783 C2798 0.930 . S
C2784 H2772 0.930 . S
C2784 C2785 1.399 . S
C2784 C2789 1.399 . S
C2785 C2784 1.399 . S
C2785 C2786 1.376 . S
C2786 H2773 0.930 . S
C2786 C2785 1.376 . S
C2786 C2787 1.388 . S
C2787 H2774 0.930 . S
C2787 C2786 1.388 . S
C2787 C2788 1.390 . S
C2788 C2787 1.390 . S
C2788 C2789 1.394 . S
C2788 C2794 1.465 . S
C2789 C2784 1.399 . S
C2789 C2788 1.394 . S
C2789 C2790 1.516 . S
C2790 C2789 1.516 . S
C2790 C2791 1.502 . S
C2790 C2792 1.561 . S
C2790 C2793 1.526 . S
C2791 H2775 0.959 . S
C2791 H2776 0.959 . S
C2791 H2777 0.961 . S
C2791 C2790 1.502 . S
C2792 H2778 0.960 . S
C2792 H2779 0.961 . S
C2792 H2780 0.959 . S
C2792 C2790 1.561 . S
C2793 C2790 1.526 . S
C2793 C2794 1.396 . S
C2793 C2798 1.390 . S
C2794 C2788 1.465 . S
C2794 C2793 1.396 . S
C2794 C2795 1.399 . S
C2795 H2781 0.929 . S
C2795 C2794 1.399 . S
C2795 C2796 1.385 . S
C2796 H2782 0.931 . S
C2796 C2795 1.385 . S
C2796 C2797 1.389 . S
C2797 C2796 1.389 . S
C2797 C2798 1.387 . S
C2798 H2783 0.930 . S
C2798 C2793 1.390 . S
C2798 C2797 1.387 . S
H2799 C2811 0.930 . S
H2800 C2813 0.930 . S
H2801 C2814 0.930 . S
H2802 C2818 0.959 1_545 S
H2803 C2818 0.959 . S
H2804 C2818 0.961 . S
H2805 C2819 0.960 . S
H2806 C2819 0.961 . S
H2807 C2819 0.959 . S
H2808 C2822 0.929 . S
H2809 C2823 0.931 . S
H2810 C2825 0.930 . S
C2811 H2799 0.930 . S
C2811 C2812 1.399 . S
C2811 C2816 1.399 . S
C2812 C2811 1.399 . S
C2812 C2813 1.376 . S
C2813 H2800 0.930 . S
C2813 C2812 1.376 . S
C2813 C2814 1.388 . S
C2814 H2801 0.930 . S
C2814 C2813 1.388 . S
C2814 C2815 1.390 . S
C2815 C2814 1.390 . S
C2815 C2816 1.394 . S
C2815 C2821 1.465 . S
C2816 C2811 1.399 . S
C2816 C2815 1.394 . S
C2816 C2817 1.516 . S
C2817 C2816 1.516 . S
C2817 C2818 1.502 . S
C2817 C2819 1.561 . S
C2817 C2820 1.526 . S
C2818 H2802 0.959 1_565 S
C2818 H2803 0.959 . S
C2818 H2804 0.961 . S
C2818 C2817 1.502 . S
C2819 H2805 0.960 . S
C2819 H2806 0.961 . S
C2819 H2807 0.959 . S
C2819 C2817 1.561 . S
C2820 C2817 1.526 . S
C2820 C2821 1.396 . S
C2820 C2825 1.390 . S
C2821 C2815 1.465 . S
C2821 C2820 1.396 . S
C2821 C2822 1.399 . S
C2822 H2808 0.929 . S
C2822 C2821 1.399 . S
C2822 C2823 1.385 . S
C2823 H2809 0.931 . S
C2823 C2822 1.385 . S
C2823 C2824 1.389 . S
C2824 C2823 1.389 . S
C2824 C2825 1.387 . S
C2825 H2810 0.930 . S
C2825 C2820 1.390 . S
C2825 C2824 1.387 . S
H2826 C2838 0.930 . S
H2827 C2840 0.930 . S
H2828 C2841 0.930 . S
H2829 C2845 0.959 . S
H2830 C2845 0.959 1_545 S
H2831 C2845 0.961 . S
H2832 C2846 0.960 . S
H2833 C2846 0.961 . S
H2834 C2846 0.959 . S
H2835 C2849 0.929 . S
H2836 C2850 0.931 . S
H2837 C2852 0.930 1_545 S
C2838 H2826 0.930 . S
C2838 C2839 1.399 . S
C2838 C2843 1.399 . S
C2839 C2838 1.399 . S
C2839 C2840 1.376 . S
C2840 H2827 0.930 . S
C2840 C2839 1.376 . S
C2840 C2841 1.388 . S
C2841 H2828 0.930 . S
C2841 C2840 1.388 . S
C2841 C2842 1.390 . S
C2842 C2841 1.390 . S
C2842 C2843 1.394 . S
C2842 C2848 1.465 . S
C2843 C2838 1.399 . S
C2843 C2842 1.394 . S
C2843 C2844 1.516 . S
C2844 C2843 1.516 . S
C2844 C2845 1.502 . S
C2844 C2846 1.561 1_565 S
C2844 C2847 1.526 . S
C2845 H2829 0.959 . S
C2845 H2830 0.959 1_565 S
C2845 H2831 0.961 . S
C2845 C2844 1.502 . S
C2846 H2832 0.960 . S
C2846 H2833 0.961 . S
C2846 H2834 0.959 . S
C2846 C2844 1.561 1_545 S
C2847 C2844 1.526 . S
C2847 C2848 1.396 . S
C2847 C2852 1.390 . S
C2848 C2842 1.465 . S
C2848 C2847 1.396 . S
C2848 C2849 1.399 . S
C2849 H2835 0.929 . S
C2849 C2848 1.399 . S
C2849 C2850 1.385 . S
C2850 H2836 0.931 . S
C2850 C2849 1.385 . S
C2850 C2851 1.389 . S
C2851 C2850 1.389 . S
C2851 C2852 1.387 . S
C2852 H2837 0.930 1_565 S
C2852 C2847 1.390 . S
C2852 C2851 1.387 . S
H2853 C2865 0.930 . S
H2854 C2867 0.930 . S
H2855 C2868 0.930 . S
H2856 C2872 0.959 . S
H2857 C2872 0.959 . S
H2858 C2872 0.961 . S
H2859 C2873 0.960 . S
H2860 C2873 0.961 . S
H2861 C2873 0.959 . S
H2862 C2876 0.929 . S
H2863 C2877 0.931 . S
H2864 C2879 0.930 1_655 S
C2865 H2853 0.930 . S
C2865 C2866 1.399 . S
C2865 C2870 1.399 . S
C2866 C2865 1.399 . S
C2866 C2867 1.376 . S
C2867 H2854 0.930 . S
C2867 C2866 1.376 . S
C2867 C2868 1.388 . S
C2868 H2855 0.930 . S
C2868 C2867 1.388 . S
C2868 C2869 1.390 . S
C2869 C2868 1.390 . S
C2869 C2870 1.394 . S
C2869 C2875 1.465 . S
C2870 C2865 1.399 . S
C2870 C2869 1.394 . S
C2870 C2871 1.516 . S
C2871 C2870 1.516 . S
C2871 C2872 1.502 1_455 S
C2871 C2873 1.561 . S
C2871 C2874 1.526 . S
C2872 H2856 0.959 . S
C2872 H2857 0.959 . S
C2872 H2858 0.961 . S
C2872 C2871 1.502 1_655 S
C2873 H2859 0.960 . S
C2873 H2860 0.961 . S
C2873 H2861 0.959 . S
C2873 C2871 1.561 . S
C2874 C2871 1.526 . S
C2874 C2875 1.396 . S
C2874 C2879 1.390 . S
C2875 C2869 1.465 . S
C2875 C2874 1.396 . S
C2875 C2876 1.399 . S
C2876 H2862 0.929 . S
C2876 C2875 1.399 . S
C2876 C2877 1.385 . S
C2877 H2863 0.931 . S
C2877 C2876 1.385 . S
C2877 C2878 1.389 . S
C2878 C2877 1.389 . S
C2878 C2879 1.387 . S
C2879 H2864 0.930 1_455 S
C2879 C2874 1.390 . S
C2879 C2878 1.387 . S
H2880 C2892 0.930 . S
H2881 C2894 0.930 . S
H2882 C2895 0.930 . S
H2883 C2899 0.959 . S
H2884 C2899 0.959 . S
H2885 C2899 0.961 . S
H2886 C2900 0.960 . S
H2887 C2900 0.961 . S
H2888 C2900 0.959 . S
H2889 C2903 0.929 . S
H2890 C2904 0.931 . S
H2891 C2906 0.930 . S
C2892 H2880 0.930 . S
C2892 C2893 1.399 . S
C2892 C2897 1.399 . S
C2893 C2892 1.399 . S
C2893 C2894 1.376 . S
C2894 H2881 0.930 . S
C2894 C2893 1.376 . S
C2894 C2895 1.388 . S
C2895 H2882 0.930 . S
C2895 C2894 1.388 . S
C2895 C2896 1.390 . S
C2896 C2895 1.390 . S
C2896 C2897 1.394 . S
C2896 C2902 1.465 . S
C2897 C2892 1.399 . S
C2897 C2896 1.394 . S
C2897 C2898 1.516 . S
C2898 C2897 1.516 . S
C2898 C2899 1.502 . S
C2898 C2900 1.561 . S
C2898 C2901 1.526 . S
C2899 H2883 0.959 . S
C2899 H2884 0.959 . S
C2899 H2885 0.961 . S
C2899 C2898 1.502 . S
C2900 H2886 0.960 . S
C2900 H2887 0.961 . S
C2900 H2888 0.959 . S
C2900 C2898 1.561 . S
C2901 C2898 1.526 . S
C2901 C2902 1.396 . S
C2901 C2906 1.390 . S
C2902 C2896 1.465 . S
C2902 C2901 1.396 . S
C2902 C2903 1.399 . S
C2903 H2889 0.929 . S
C2903 C2902 1.399 . S
C2903 C2904 1.385 . S
C2904 H2890 0.931 . S
C2904 C2903 1.385 . S
C2904 C2905 1.389 . S
C2905 C2904 1.389 . S
C2905 C2906 1.387 . S
C2906 H2891 0.930 . S
C2906 C2901 1.390 . S
C2906 C2905 1.387 . S
H2907 C2919 0.930 . S
H2908 C2921 0.930 . S
H2909 C2922 0.930 . S
H2910 C2926 0.959 . S
H2911 C2926 0.959 . S
H2912 C2926 0.961 . S
H2913 C2927 0.960 . S
H2914 C2927 0.961 . S
H2915 C2927 0.959 . S
H2916 C2930 0.929 . S
H2917 C2931 0.931 . S
H2918 C2933 0.930 . S
C2919 H2907 0.930 . S
C2919 C2920 1.399 . S
C2919 C2924 1.399 . S
C2920 C2919 1.399 . S
C2920 C2921 1.376 . S
C2921 H2908 0.930 . S
C2921 C2920 1.376 . S
C2921 C2922 1.388 . S
C2922 H2909 0.930 . S
C2922 C2921 1.388 . S
C2922 C2923 1.390 . S
C2923 C2922 1.390 . S
C2923 C2924 1.394 . S
C2923 C2929 1.465 . S
C2924 C2919 1.399 . S
C2924 C2923 1.394 . S
C2924 C2925 1.516 . S
C2925 C2924 1.516 . S
C2925 C2926 1.502 . S
C2925 C2927 1.561 . S
C2925 C2928 1.526 . S
C2926 H2910 0.959 . S
C2926 H2911 0.959 . S
C2926 H2912 0.961 . S
C2926 C2925 1.502 . S
C2927 H2913 0.960 . S
C2927 H2914 0.961 . S
C2927 H2915 0.959 . S
C2927 C2925 1.561 . S
C2928 C2925 1.526 . S
C2928 C2929 1.396 . S
C2928 C2933 1.390 . S
C2929 C2923 1.465 . S
C2929 C2928 1.396 . S
C2929 C2930 1.399 . S
C2930 H2916 0.929 . S
C2930 C2929 1.399 . S
C2930 C2931 1.385 . S
C2931 H2917 0.931 . S
C2931 C2930 1.385 . S
C2931 C2932 1.389 . S
C2932 C2931 1.389 . S
C2932 C2933 1.387 . S
C2933 H2918 0.930 . S
C2933 C2928 1.390 . S
C2933 C2932 1.387 . S
H2934 C2946 0.930 . S
H2935 C2948 0.930 . S
H2936 C2949 0.930 . S
H2937 C2953 0.959 . S
H2938 C2953 0.959 . S
H2939 C2953 0.961 . S
H2940 C2954 0.960 . S
H2941 C2954 0.961 . S
H2942 C2954 0.959 . S
H2943 C2957 0.929 . S
H2944 C2958 0.931 . S
H2945 C2960 0.930 . S
C2946 H2934 0.930 . S
C2946 C2947 1.399 . S
C2946 C2951 1.399 . S
C2947 C2946 1.399 . S
C2947 C2948 1.376 . S
C2948 H2935 0.930 . S
C2948 C2947 1.376 . S
C2948 C2949 1.388 . S
C2949 H2936 0.930 . S
C2949 C2948 1.388 . S
C2949 C2950 1.390 . S
C2950 C2949 1.390 . S
C2950 C2951 1.394 . S
C2950 C2956 1.465 . S
C2951 C2946 1.399 . S
C2951 C2950 1.394 . S
C2951 C2952 1.516 . S
C2952 C2951 1.516 . S
C2952 C2953 1.502 . S
C2952 C2954 1.561 . S
C2952 C2955 1.526 . S
C2953 H2937 0.959 . S
C2953 H2938 0.959 . S
C2953 H2939 0.961 . S
C2953 C2952 1.502 . S
C2954 H2940 0.960 . S
C2954 H2941 0.961 . S
C2954 H2942 0.959 . S
C2954 C2952 1.561 . S
C2955 C2952 1.526 . S
C2955 C2956 1.396 . S
C2955 C2960 1.390 . S
C2956 C2950 1.465 . S
C2956 C2955 1.396 . S
C2956 C2957 1.399 . S
C2957 H2943 0.929 . S
C2957 C2956 1.399 . S
C2957 C2958 1.385 . S
C2958 H2944 0.931 . S
C2958 C2957 1.385 . S
C2958 C2959 1.389 . S
C2959 C2958 1.389 . S
C2959 C2960 1.387 . S
C2960 H2945 0.930 . S
C2960 C2955 1.390 . S
C2960 C2959 1.387 . S
H2961 C2973 0.930 . S
H2962 C2975 0.930 . S
H2963 C2976 0.930 . S
H2964 C2980 0.959 . S
H2965 C2980 0.959 . S
H2966 C2980 0.961 . S
H2967 C2981 0.960 . S
H2968 C2981 0.961 . S
H2969 C2981 0.959 . S
H2970 C2984 0.929 . S
H2971 C2985 0.931 . S
H2972 C2987 0.930 . S
C2973 H2961 0.930 . S
C2973 C2974 1.399 . S
C2973 C2978 1.399 . S
C2974 C2973 1.399 . S
C2974 C2975 1.376 . S
C2975 H2962 0.930 . S
C2975 C2974 1.376 . S
C2975 C2976 1.388 . S
C2976 H2963 0.930 . S
C2976 C2975 1.388 . S
C2976 C2977 1.390 . S
C2977 C2976 1.390 . S
C2977 C2978 1.394 . S
C2977 C2983 1.465 . S
C2978 C2973 1.399 . S
C2978 C2977 1.394 . S
C2978 C2979 1.516 . S
C2979 C2978 1.516 . S
C2979 C2980 1.502 . S
C2979 C2981 1.561 . S
C2979 C2982 1.526 . S
C2980 H2964 0.959 . S
C2980 H2965 0.959 . S
C2980 H2966 0.961 . S
C2980 C2979 1.502 . S
C2981 H2967 0.960 . S
C2981 H2968 0.961 . S
C2981 H2969 0.959 . S
C2981 C2979 1.561 . S
C2982 C2979 1.526 . S
C2982 C2983 1.396 . S
C2982 C2987 1.390 . S
C2983 C2977 1.465 . S
C2983 C2982 1.396 . S
C2983 C2984 1.399 . S
C2984 H2970 0.929 . S
C2984 C2983 1.399 . S
C2984 C2985 1.385 . S
C2985 H2971 0.931 . S
C2985 C2984 1.385 . S
C2985 C2986 1.389 . S
C2986 C2985 1.389 . S
C2986 C2987 1.387 . S
C2987 H2972 0.930 . S
C2987 C2982 1.390 . S
C2987 C2986 1.387 . S
H2988 C3000 0.930 . S
H2989 C3002 0.930 . S
H2990 C3003 0.930 . S
H2991 C3007 0.959 . S
H2992 C3007 0.959 . S
H2993 C3007 0.961 . S
H2994 C3008 0.960 . S
H2995 C3008 0.961 . S
H2996 C3008 0.959 1_565 S
H2997 C3011 0.929 . S
H2998 C3012 0.931 . S
H2999 C3014 0.930 . S
C3000 H2988 0.930 . S
C3000 C3001 1.399 . S
C3000 C3005 1.399 . S
C3001 C3000 1.399 . S
C3001 C3002 1.376 . S
C3002 H2989 0.930 . S
C3002 C3001 1.376 . S
C3002 C3003 1.388 . S
C3003 H2990 0.930 . S
C3003 C3002 1.388 . S
C3003 C3004 1.390 . S
C3004 C3003 1.390 . S
C3004 C3005 1.394 . S
C3004 C3010 1.465 . S
C3005 C3000 1.399 . S
C3005 C3004 1.394 . S
C3005 C3006 1.516 . S
C3006 C3005 1.516 . S
C3006 C3007 1.502 . S
C3006 C3008 1.561 . S
C3006 C3009 1.526 . S
C3007 H2991 0.959 . S
C3007 H2992 0.959 . S
C3007 H2993 0.961 . S
C3007 C3006 1.502 . S
C3008 H2994 0.960 . S
C3008 H2995 0.961 . S
C3008 H2996 0.959 1_545 S
C3008 C3006 1.561 . S
C3009 C3006 1.526 . S
C3009 C3010 1.396 . S
C3009 C3014 1.390 . S
C3010 C3004 1.465 . S
C3010 C3009 1.396 . S
C3010 C3011 1.399 . S
C3011 H2997 0.929 . S
C3011 C3010 1.399 . S
C3011 C3012 1.385 . S
C3012 H2998 0.931 . S
C3012 C3011 1.385 . S
C3012 C3013 1.389 . S
C3013 C3012 1.389 . S
C3013 C3014 1.387 . S
C3014 H2999 0.930 . S
C3014 C3009 1.390 . S
C3014 C3013 1.387 . S
H3015 C3027 0.930 . S
H3016 C3029 0.930 . S
H3017 C3030 0.930 . S
H3018 C3034 1.035 . S
H3019 C3034 0.929 . S
H3020 C3034 0.990 . S
H3021 C3035 0.960 . S
H3022 C3035 0.961 . S
H3023 C3035 0.959 . S
H3024 C3038 0.929 . S
H3025 C3039 0.931 . S
H3026 C3041 0.930 . S
C3027 H3015 0.930 . S
C3027 C3028 1.399 . S
C3027 C3032 1.399 . S
C3028 C3027 1.399 . S
C3028 C3029 1.376 . S
C3029 H3016 0.930 . S
C3029 C3028 1.376 . S
C3029 C3030 1.388 . S
C3030 H3017 0.930 . S
C3030 C3029 1.388 . S
C3030 C3031 1.390 . S
C3031 C3030 1.390 . S
C3031 C3032 1.394 . S
C3031 C3037 1.465 . S
C3032 C3027 1.399 . S
C3032 C3031 1.394 . S
C3032 C3033 1.516 . S
C3033 C3032 1.516 . S
C3033 C3034 1.441 1_655 S
C3033 C3035 1.561 . S
C3033 C3036 1.526 . S
C3034 H3018 1.035 . S
C3034 H3019 0.929 . S
C3034 H3020 0.990 . S
C3034 C3033 1.441 1_455 S
C3035 H3021 0.960 . S
C3035 H3022 0.961 . S
C3035 H3023 0.959 . S
C3035 C3033 1.561 . S
C3036 C3033 1.526 . S
C3036 C3037 1.396 . S
C3036 C3041 1.390 . S
C3037 C3031 1.465 . S
C3037 C3036 1.396 . S
C3037 C3038 1.399 . S
C3038 H3024 0.929 . S
C3038 C3037 1.399 . S
C3038 C3039 1.385 . S
C3039 H3025 0.931 . S
C3039 C3038 1.385 . S
C3039 C3040 1.389 . S
C3040 C3039 1.389 . S
C3040 C3041 1.387 . S
C3041 H3026 0.930 . S
C3041 C3036 1.390 . S
C3041 C3040 1.387 . S
H3042 C3054 0.930 . S
H3043 C3056 0.930 . S
H3044 C3057 0.930 . S
H3045 C3061 0.959 . S
H3046 C3061 0.959 . S
H3047 C3061 0.961 . S
H3048 C3062 0.960 . S
H3049 C3062 0.961 . S
H3050 C3062 0.959 . S
H3051 C3065 0.929 . S
H3052 C3066 0.931 . S
H3053 C3068 0.930 . S
C3054 H3042 0.930 . S
C3054 C3055 1.399 . S
C3054 C3059 1.399 . S
C3055 C3054 1.399 . S
C3055 C3056 1.376 . S
C3056 H3043 0.930 . S
C3056 C3055 1.376 . S
C3056 C3057 1.388 . S
C3057 H3044 0.930 . S
C3057 C3056 1.388 . S
C3057 C3058 1.390 . S
C3058 C3057 1.390 . S
C3058 C3059 1.394 . S
C3058 C3064 1.465 . S
C3059 C3054 1.399 . S
C3059 C3058 1.394 . S
C3059 C3060 1.516 . S
C3060 C3059 1.516 . S
C3060 C3061 1.502 . S
C3060 C3062 1.561 . S
C3060 C3063 1.526 . S
C3061 H3045 0.959 . S
C3061 H3046 0.959 . S
C3061 H3047 0.961 . S
C3061 C3060 1.502 . S
C3062 H3048 0.960 . S
C3062 H3049 0.961 . S
C3062 H3050 0.959 . S
C3062 C3060 1.561 . S
C3063 C3060 1.526 . S
C3063 C3064 1.396 . S
C3063 C3068 1.390 . S
C3064 C3058 1.465 . S
C3064 C3063 1.396 . S
C3064 C3065 1.399 . S
C3065 H3051 0.929 . S
C3065 C3064 1.399 . S
C3065 C3066 1.385 . S
C3066 H3052 0.931 . S
C3066 C3065 1.385 . S
C3066 C3067 1.389 . S
C3067 C3066 1.389 . S
C3067 C3068 1.387 . S
C3068 H3053 0.930 . S
C3068 C3063 1.390 . S
C3068 C3067 1.387 . S
H3069 C3081 0.930 . S
H3070 C3083 0.930 . S
H3071 C3084 0.930 . S
H3072 C3088 0.959 . S
H3073 C3088 0.959 . S
H3074 C3088 0.961 . S
H3075 C3089 0.960 . S
H3076 C3089 0.961 . S
H3077 C3089 0.959 . S
H3078 C3092 0.929 . S
H3079 C3093 0.931 . S
H3080 C3095 0.930 . S
C3081 H3069 0.930 . S
C3081 C3082 1.399 . S
C3081 C3086 1.399 . S
C3082 C3081 1.399 . S
C3082 C3083 1.376 . S
C3083 H3070 0.930 . S
C3083 C3082 1.376 . S
C3083 C3084 1.388 . S
C3084 H3071 0.930 . S
C3084 C3083 1.388 . S
C3084 C3085 1.390 . S
C3085 C3084 1.390 . S
C3085 C3086 1.394 . S
C3085 C3091 1.465 . S
C3086 C3081 1.399 . S
C3086 C3085 1.394 . S
C3086 C3087 1.516 . S
C3087 C3086 1.516 . S
C3087 C3088 1.502 . S
C3087 C3089 1.561 . S
C3087 C3090 1.526 . S
C3088 H3072 0.959 . S
C3088 H3073 0.959 . S
C3088 H3074 0.961 . S
C3088 C3087 1.502 . S
C3089 H3075 0.960 . S
C3089 H3076 0.961 . S
C3089 H3077 0.959 . S
C3089 C3087 1.561 . S
C3090 C3087 1.526 . S
C3090 C3091 1.396 . S
C3090 C3095 1.390 . S
C3091 C3085 1.465 . S
C3091 C3090 1.396 . S
C3091 C3092 1.399 . S
C3092 H3078 0.929 . S
C3092 C3091 1.399 . S
C3092 C3093 1.385 . S
C3093 H3079 0.931 . S
C3093 C3092 1.385 . S
C3093 C3094 1.389 . S
C3094 C3093 1.389 . S
C3094 C3095 1.387 . S
C3095 H3080 0.930 . S
C3095 C3090 1.390 . S
C3095 C3094 1.387 . S
H3096 C3108 0.930 . S
H3097 C3110 0.930 1_545 S
H3098 C3111 0.930 . S
H3099 C3115 0.959 . S
H3100 C3115 0.959 . S
H3101 C3115 0.961 . S
H3102 C3116 0.960 . S
H3103 C3116 0.961 . S
H3104 C3116 0.959 . S
H3105 C3119 0.929 . S
H3106 C3120 0.931 . S
H3107 C3122 0.930 . S
C3108 H3096 0.930 . S
C3108 C3109 1.399 . S
C3108 C3113 1.399 . S
C3109 C3108 1.399 . S
C3109 C3110 1.376 . S
C3110 H3097 0.930 1_565 S
C3110 C3109 1.376 . S
C3110 C3111 1.388 . S
C3111 H3098 0.930 . S
C3111 C3110 1.388 . S
C3111 C3112 1.390 . S
C3112 C3111 1.390 . S
C3112 C3113 1.394 . S
C3112 C3118 1.465 . S
C3113 C3108 1.399 . S
C3113 C3112 1.394 . S
C3113 C3114 1.516 . S
C3114 C3113 1.516 . S
C3114 C3115 1.502 . S
C3114 C3116 1.561 . S
C3114 C3117 1.526 . S
C3115 H3099 0.959 . S
C3115 H3100 0.959 . S
C3115 H3101 0.961 . S
C3115 C3114 1.502 . S
C3116 H3102 0.960 . S
C3116 H3103 0.961 . S
C3116 H3104 0.959 . S
C3116 C3114 1.561 . S
C3117 C3114 1.526 . S
C3117 C3118 1.396 . S
C3117 C3122 1.390 . S
C3118 C3112 1.465 . S
C3118 C3117 1.396 . S
C3118 C3119 1.399 . S
C3119 H3105 0.929 . S
C3119 C3118 1.399 . S
C3119 C3120 1.385 . S
C3120 H3106 0.931 . S
C3120 C3119 1.385 . S
C3120 C3121 1.389 . S
C3121 C3120 1.389 . S
C3121 C3122 1.387 . S
C3122 H3107 0.930 . S
C3122 C3117 1.390 . S
C3122 C3121 1.387 . S
H3123 C3135 0.930 . S
H3124 C3137 0.930 . S
H3125 C3138 0.930 . S
H3126 C3142 0.959 . S
H3127 C3142 0.959 . S
H3128 C3142 0.961 . S
H3129 C3143 0.960 . S
H3130 C3143 0.961 . S
H3131 C3143 0.959 . S
H3132 C3146 0.929 . S
H3133 C3147 0.931 . S
H3134 C3149 0.930 . S
C3135 H3123 0.930 . S
C3135 C3136 1.399 . S
C3135 C3140 1.399 . S
C3136 C3135 1.399 . S
C3136 C3137 1.376 . S
C3137 H3124 0.930 . S
C3137 C3136 1.376 . S
C3137 C3138 1.388 . S
C3138 H3125 0.930 . S
C3138 C3137 1.388 . S
C3138 C3139 1.390 . S
C3139 C3138 1.390 . S
C3139 C3140 1.394 . S
C3139 C3145 1.465 . S
C3140 C3135 1.399 . S
C3140 C3139 1.394 . S
C3140 C3141 1.516 . S
C3141 C3140 1.516 . S
C3141 C3142 1.502 . S
C3141 C3143 1.561 . S
C3141 C3144 1.526 . S
C3142 H3126 0.959 . S
C3142 H3127 0.959 . S
C3142 H3128 0.961 . S
C3142 C3141 1.502 . S
C3143 H3129 0.960 . S
C3143 H3130 0.961 . S
C3143 H3131 0.959 . S
C3143 C3141 1.561 . S
C3144 C3141 1.526 . S
C3144 C3145 1.396 . S
C3144 C3149 1.390 . S
C3145 C3139 1.465 . S
C3145 C3144 1.396 . S
C3145 C3146 1.399 . S
C3146 H3132 0.929 . S
C3146 C3145 1.399 . S
C3146 C3147 1.385 . S
C3147 H3133 0.931 . S
C3147 C3146 1.385 . S
C3147 C3148 1.389 . S
C3148 C3147 1.389 . S
C3148 C3149 1.387 . S
C3149 H3134 0.930 . S
C3149 C3144 1.390 . S
C3149 C3148 1.387 . S
H3150 C3162 0.930 . S
H3151 C3164 0.930 . S
H3152 C3165 0.930 . S
H3153 C3169 0.959 . S
H3154 C3169 0.959 . S
H3155 C3169 0.961 . S
H3156 C3170 0.960 . S
H3157 C3170 0.961 . S
H3158 C3170 0.959 . S
H3159 C3173 0.929 . S
H3160 C3174 0.931 . S
H3161 C3176 0.930 . S
C3162 H3150 0.930 . S
C3162 C3163 1.399 . S
C3162 C3167 1.399 . S
C3163 C3162 1.399 . S
C3163 C3164 1.376 . S
C3164 H3151 0.930 . S
C3164 C3163 1.376 . S
C3164 C3165 1.388 . S
C3165 H3152 0.930 . S
C3165 C3164 1.388 . S
C3165 C3166 1.390 . S
C3166 C3165 1.390 . S
C3166 C3167 1.394 . S
C3166 C3172 1.465 . S
C3167 C3162 1.399 . S
C3167 C3166 1.394 . S
C3167 C3168 1.516 . S
C3168 C3167 1.516 . S
C3168 C3169 1.502 . S
C3168 C3170 1.561 . S
C3168 C3171 1.526 . S
C3169 H3153 0.959 . S
C3169 H3154 0.959 . S
C3169 H3155 0.961 . S
C3169 C3168 1.502 . S
C3170 H3156 0.960 . S
C3170 H3157 0.961 . S
C3170 H3158 0.959 . S
C3170 C3168 1.561 . S
C3171 C3168 1.526 . S
C3171 C3172 1.396 . S
C3171 C3176 1.390 . S
C3172 C3166 1.465 . S
C3172 C3171 1.396 . S
C3172 C3173 1.399 . S
C3173 H3159 0.929 . S
C3173 C3172 1.399 . S
C3173 C3174 1.385 . S
C3174 H3160 0.931 . S
C3174 C3173 1.385 . S
C3174 C3175 1.389 . S
C3175 C3174 1.389 . S
C3175 C3176 1.387 . S
C3176 H3161 0.930 . S
C3176 C3171 1.390 . S
C3176 C3175 1.387 . S
H3177 C3189 0.930 . S
H3178 C3191 0.930 . S
H3179 C3192 0.930 . S
H3180 C3196 0.959 . S
H3181 C3196 0.959 . S
H3182 C3196 0.961 . S
H3183 C3197 0.960 . S
H3184 C3197 0.961 . S
H3185 C3197 0.959 . S
H3186 C3200 0.929 . S
H3187 C3201 0.931 . S
H3188 C3203 0.930 . S
C3189 H3177 0.930 . S
C3189 C3190 1.399 . S
C3189 C3194 1.399 . S
C3190 C3189 1.399 . S
C3190 C3191 1.376 . S
C3191 H3178 0.930 . S
C3191 C3190 1.376 . S
C3191 C3192 1.388 . S
C3192 H3179 0.930 . S
C3192 C3191 1.388 . S
C3192 C3193 1.390 . S
C3193 C3192 1.390 . S
C3193 C3194 1.394 . S
C3193 C3199 1.465 . S
C3194 C3189 1.399 . S
C3194 C3193 1.394 . S
C3194 C3195 1.516 . S
C3195 C3194 1.516 . S
C3195 C3196 1.502 . S
C3195 C3197 1.561 . S
C3195 C3198 1.526 . S
C3196 H3180 0.959 . S
C3196 H3181 0.959 . S
C3196 H3182 0.961 . S
C3196 C3195 1.502 . S
C3197 H3183 0.960 . S
C3197 H3184 0.961 . S
C3197 H3185 0.959 . S
C3197 C3195 1.561 . S
C3198 C3195 1.526 . S
C3198 C3199 1.396 . S
C3198 C3203 1.390 . S
C3199 C3193 1.465 . S
C3199 C3198 1.396 . S
C3199 C3200 1.399 . S
C3200 H3186 0.929 . S
C3200 C3199 1.399 . S
C3200 C3201 1.385 . S
C3201 H3187 0.931 . S
C3201 C3200 1.385 . S
C3201 C3202 1.389 . S
C3202 C3201 1.389 . S
C3202 C3203 1.387 . S
C3203 H3188 0.930 . S
C3203 C3198 1.390 . S
C3203 C3202 1.387 . S
H3204 C3216 0.930 . S
H3205 C3218 0.930 . S
H3206 C3219 0.930 . S
H3207 C3223 0.959 . S
H3208 C3223 0.959 . S
H3209 C3223 0.961 . S
H3210 C3224 0.960 . S
H3211 C3224 0.961 . S
H3212 C3224 0.959 . S
H3213 C3227 0.929 . S
H3214 C3228 0.931 . S
H3215 C3230 0.930 . S
C3216 H3204 0.930 . S
C3216 C3217 1.399 . S
C3216 C3221 1.399 . S
C3217 C3216 1.399 . S
C3217 C3218 1.376 . S
C3218 H3205 0.930 . S
C3218 C3217 1.376 . S
C3218 C3219 1.388 . S
C3219 H3206 0.930 . S
C3219 C3218 1.388 . S
C3219 C3220 1.390 . S
C3220 C3219 1.390 . S
C3220 C3221 1.394 . S
C3220 C3226 1.465 . S
C3221 C3216 1.399 . S
C3221 C3220 1.394 . S
C3221 C3222 1.516 . S
C3222 C3221 1.516 . S
C3222 C3223 1.502 . S
C3222 C3224 1.561 . S
C3222 C3225 1.526 . S
C3223 H3207 0.959 . S
C3223 H3208 0.959 . S
C3223 H3209 0.961 . S
C3223 C3222 1.502 . S
C3224 H3210 0.960 . S
C3224 H3211 0.961 . S
C3224 H3212 0.959 . S
C3224 C3222 1.561 . S
C3225 C3222 1.526 . S
C3225 C3226 1.396 . S
C3225 C3230 1.390 . S
C3226 C3220 1.465 . S
C3226 C3225 1.396 . S
C3226 C3227 1.399 . S
C3227 H3213 0.929 . S
C3227 C3226 1.399 . S
C3227 C3228 1.385 . S
C3228 H3214 0.931 . S
C3228 C3227 1.385 . S
C3228 C3229 1.389 . S
C3229 C3228 1.389 . S
C3229 C3230 1.387 . S
C3230 H3215 0.930 . S
C3230 C3225 1.390 . S
C3230 C3229 1.387 . S
H3231 C3243 0.930 . S
H3232 C3245 0.930 . S
H3233 C3246 0.930 . S
H3234 C3250 0.959 . S
H3235 C3250 0.959 . S
H3236 C3250 0.961 . S
H3237 C3251 0.960 . S
H3238 C3251 0.961 . S
H3239 C3251 0.959 . S
H3240 C3254 0.929 . S
H3241 C3255 0.931 . S
H3242 C3257 0.926 . S
C3243 H3231 0.930 . S
C3243 C3244 1.399 . S
C3243 C3248 1.399 . S
C3244 C3243 1.399 . S
C3244 C3245 1.376 . S
C3245 H3232 0.930 . S
C3245 C3244 1.376 . S
C3245 C3246 1.388 . S
C3246 H3233 0.930 . S
C3246 C3245 1.388 . S
C3246 C3247 1.390 . S
C3247 C3246 1.390 . S
C3247 C3248 1.394 . S
C3247 C3253 1.465 . S
C3248 C3243 1.399 . S
C3248 C3247 1.394 . S
C3248 C3249 1.516 1_655 S
C3249 C3248 1.516 1_455 S
C3249 C3250 1.502 . S
C3249 C3251 1.561 . S
C3249 C3252 1.526 1_455 S
C3250 H3234 0.959 . S
C3250 H3235 0.959 . S
C3250 H3236 0.961 . S
C3250 C3249 1.502 . S
C3251 H3237 0.960 . S
C3251 H3238 0.961 . S
C3251 H3239 0.959 . S
C3251 C3249 1.561 . S
C3252 C3249 1.526 1_655 S
C3252 C3253 1.396 . S
C3252 C3257 1.393 1_655 S
C3253 C3247 1.465 . S
C3253 C3252 1.396 . S
C3253 C3254 1.399 . S
C3254 H3240 0.929 . S
C3254 C3253 1.399 . S
C3254 C3255 1.385 . S
C3255 H3241 0.931 . S
C3255 C3254 1.385 . S
C3255 C3256 1.389 . S
C3256 C3255 1.389 . S
C3256 C3257 1.387 1_655 S
C3257 H3242 0.926 . S
C3257 C3252 1.393 1_455 S
C3257 C3256 1.387 1_455 S
H3258 C3270 0.930 . S
H3259 C3272 0.930 . S
H3260 C3273 0.930 . S
H3261 C3277 0.959 . S
H3262 C3277 0.959 . S
H3263 C3277 0.961 . S
H3264 C3278 0.960 . S
H3265 C3278 0.961 . S
H3266 C3278 0.959 . S
H3267 C3281 0.929 . S
H3268 C3282 0.931 . S
H3269 C3284 0.930 . S
C3270 H3258 0.930 . S
C3270 C3271 1.399 . S
C3270 C3275 1.399 . S
C3271 C3270 1.399 . S
C3271 C3272 1.376 . S
C3272 H3259 0.930 . S
C3272 C3271 1.376 . S
C3272 C3273 1.388 . S
C3273 H3260 0.930 . S
C3273 C3272 1.388 . S
C3273 C3274 1.390 . S
C3274 C3273 1.390 . S
C3274 C3275 1.394 . S
C3274 C3280 1.465 . S
C3275 C3270 1.399 . S
C3275 C3274 1.394 . S
C3275 C3276 1.516 . S
C3276 C3275 1.516 . S
C3276 C3277 1.502 . S
C3276 C3278 1.561 . S
C3276 C3279 1.526 . S
C3277 H3261 0.959 . S
C3277 H3262 0.959 . S
C3277 H3263 0.961 . S
C3277 C3276 1.502 . S
C3278 H3264 0.960 . S
C3278 H3265 0.961 . S
C3278 H3266 0.959 . S
C3278 C3276 1.561 . S
C3279 C3276 1.526 . S
C3279 C3280 1.396 . S
C3279 C3284 1.390 . S
C3280 C3274 1.465 . S
C3280 C3279 1.396 . S
C3280 C3281 1.399 . S
C3281 H3267 0.929 . S
C3281 C3280 1.399 . S
C3281 C3282 1.385 . S
C3282 H3268 0.931 . S
C3282 C3281 1.385 . S
C3282 C3283 1.389 . S
C3283 C3282 1.389 . S
C3283 C3284 1.387 . S
C3284 H3269 0.930 . S
C3284 C3279 1.390 . S
C3284 C3283 1.387 . S
H3285 C3297 0.930 . S
H3286 C3299 0.930 . S
H3287 C3300 0.930 . S
H3288 C3304 0.959 . S
H3289 C3304 0.959 . S
H3290 C3304 0.961 . S
H3291 C3305 0.960 . S
H3292 C3305 0.930 . S
H3293 C3305 0.959 1_565 S
H3294 C3308 0.929 . S
H3295 C3309 0.938 . S
H3296 C3311 0.930 . S
C3297 H3285 0.930 . S
C3297 C3298 1.399 . S
C3297 C3302 1.399 . S
C3298 C3297 1.399 . S
C3298 C3299 1.376 . S
C3299 H3286 0.930 . S
C3299 C3298 1.376 . S
C3299 C3300 1.388 . S
C3300 H3287 0.930 . S
C3300 C3299 1.388 . S
C3300 C3301 1.390 . S
C3301 C3300 1.390 . S
C3301 C3302 1.394 . S
C3301 C3307 1.465 . S
C3302 C3297 1.399 . S
C3302 C3301 1.394 . S
C3302 C3303 1.516 . S
C3303 C3302 1.516 . S
C3303 C3304 1.502 . S
C3303 C3305 1.561 . S
C3303 C3306 1.526 . S
C3304 H3288 0.959 . S
C3304 H3289 0.959 . S
C3304 H3290 0.961 . S
C3304 C3303 1.502 . S
C3305 H3291 0.960 . S
C3305 H3292 0.930 . S
C3305 H3293 0.959 1_545 S
C3305 C3303 1.561 . S
C3306 C3303 1.526 . S
C3306 C3307 1.396 . S
C3306 C3311 1.390 . S
C3307 C3301 1.465 . S
C3307 C3306 1.396 . S
C3307 C3308 1.399 . S
C3308 H3294 0.929 . S
C3308 C3307 1.399 . S
C3308 C3309 1.385 . S
C3309 H3295 0.938 . S
C3309 C3308 1.385 . S
C3309 C3310 1.389 . S
C3310 C3309 1.389 . S
C3310 C3311 1.387 . S
C3311 H3296 0.930 . S
C3311 C3306 1.390 . S
C3311 C3310 1.387 . S
C1381 C13 1.517 . S
C1393 C857 1.564 . S
C1408 C27 1.406 . S
C1420 C901 1.384 . S
C1447 C981 1.525 . S
C1435 C36 1.501 . S
C1462 C41 1.506 1_545 S
C1474 C1025 1.547 . S
C1489 C8 1.594 . S
C1501 C1105 1.682 . S
C1516 C22 1.506 . S
C1528 C1167 1.528 . S
C1543 C55 1.468 . S
C1555 C1087 1.572 . S
C1582 C1149 1.451 . S
C1570 C69 1.338 . S
C1609 C1043 1.550 . S
C1597 C78 1.583 . S
C1624 C83 1.475 . S
C1636 C963 1.490 . S
C1663 C839 1.668 . S
C1651 C50 1.672 . S
C1678 C64 1.522 . S
C1690 C919 1.488 . S
C1705 C97 1.574 . S
C1717 C1229 1.596 . S
C1732 C111 1.428 . S
C1744 C1273 1.412 . S
C1771 C1353 1.545 . S
C1759 C120 1.566 . S
C1786 C125 1.553 . S
C1798 C299 1.497 . S
C1813 C92 1.671 . S
C1825 C343 1.755 . S
C1840 C106 1.473 . S
C1852 C423 1.553 . S
C1867 C139 1.578 . S
C1879 C361 1.566 . S
C1894 C153 1.358 . S
C1906 C405 1.467 . S
C1933 C281 1.614 . S
C1921 C162 1.582 . S
C1960 C1335 1.576 . S
C1948 C167 1.500 . S
C1987 C1211 1.693 . S
C1975 C134 1.665 . S
C2014 C1291 1.579 . S
C2002 C148 1.495 . S
C2029 C181 1.556 . S
C2041 C485 1.589 . S
C2056 C195 1.418 . S
C2068 C547 1.385 . S
C2083 C204 1.580 . S
C2095 C591 1.587 . S
C2110 C209 1.566 . S
C2122 C653 1.558 . S
C2149 C715 1.764 . S
C2137 C176 1.678 . S
C2176 C795 1.539 . S
C2164 C190 1.483 . S
C2203 C733 1.646 . S
C2191 C223 1.520 . S
C2230 C777 1.408 . S
C2218 C237 1.456 . S
C2245 C246 1.549 . S
C2257 C671 1.575 . S
C2284 C609 1.540 . S
C2272 C251 1.486 . S
C2299 C218 1.693 . S
C2311 C467 1.729 . S
C2338 C529 1.508 . S
C2326 C232 1.544 . S
C2365 C305 1.345 . S
C2353 C11 1.387 . S
C2380 C25 1.287 . S
C2392 C349 1.313 . S
C2419 C429 1.257 . S
C2407 C35 1.373 . S
C2446 C491 1.375 . S
C2434 C39 1.423 1_556 S
C2473 C553 1.368 . S
C2461 C7 1.491 1_556 S
C2500 C597 1.341 . S
C2488 C21 1.391 1_556 S
C2515 C53 1.422 1_556 S
C2527 C615 1.332 . S
C2542 C67 1.329 1_556 S
C2554 C473 1.253 . S
C2569 C77 1.349 1_556 S
C2581 C535 1.239 . S
C2596 C81 1.429 . S
C2608 C367 1.434 . S
C2635 C411 1.358 . S
C2623 C49 1.487 . S
C2650 C63 1.393 . S
C2662 C287 1.261 . S
C2689 C659 1.321 . S
C2677 C95 1.425 . S
C2704 C109 1.335 . S
C2716 C721 1.332 . S
C2731 C119 1.425 1_655 S
C2743 C801 1.311 . S
C2770 C863 1.321 . S
C2758 C123 1.311 . S
C2785 C91 1.483 . S
C2797 C907 1.368 . S
C2812 C105 1.322 . S
C2824 C987 1.213 . S
C2839 C137 1.360 . S
C2851 C969 1.231 . S
C2866 C151 1.237 . S
C2878 C845 1.197 . S
C2905 C925 1.358 . S
C2893 C161 1.367 . S
C2920 C165 1.401 . S
C2932 C739 1.379 . S
C2947 C133 1.499 1_545 S
C2959 C783 1.470 . S
C2986 C677 1.409 . S
C2974 C147 1.424 1_655 S
C3013 C1031 1.365 . S
C3001 C179 1.352 . S
C3028 C193 1.216 . S
C3040 C1111 1.103 . S
C3055 C203 1.374 . S
C3067 C1173 1.347 . S
C3094 C1235 1.298 . S
C3082 C207 1.415 . S
C3121 C1279 1.411 . S
C3109 C175 1.512 1_565 S
C3136 C189 1.435 1_455 S
C3148 C1359 1.381 . S
C3163 C221 1.429 . S
C3175 C1341 1.303 . S
C3190 C235 1.342 . S
C3202 C1217 1.312 . S
C3229 C1297 1.392 . S
C3217 C245 1.412 1_455 S
C3256 C1093 1.232 . S
C3244 C249 1.333 . S
C3283 C1155 1.408 . S
C3271 C217 1.487 . S
C3298 C231 1.353 . S
C3310 C1049 1.251 . S
