# Generated by pormake.
# Topology ctn, (3,4)-cn, num edge types: 1
# Building blocks:
#     Node 0, Type 0, BuildingBlock: VETTIZ_charged_linker_0, # of connection points: 3
#     Node 1, Type 0, BuildingBlock: VETTIZ_charged_linker_0, # of connection points: 3
#     Node 2, Type 0, BuildingBlock: VETTIZ_charged_linker_0, # of connection points: 3
#     Node 3, Type 0, BuildingBlock: VETTIZ_charged_linker_0, # of connection points: 3
#     Node 4, Type 0, BuildingBlock: VETTIZ_charged_linker_0, # of connection points: 3
#     Node 5, Type 0, BuildingBlock: VETTIZ_charged_linker_0, # of connection points: 3
#     Node 6, Type 0, BuildingBlock: VETTIZ_charged_linker_0, # of connection points: 3
#     Node 7, Type 0, BuildingBlock: VETTIZ_charged_linker_0, # of connection points: 3
#     Node 8, Type 0, BuildingBlock: VETTIZ_charged_linker_0, # of connection points: 3
#     Node 9, Type 0, BuildingBlock: VETTIZ_charged_linker_0, # of connection points: 3
#     Node 10, Type 0, BuildingBlock: VETTIZ_charged_linker_0, # of connection points: 3
#     Node 11, Type 0, BuildingBlock: VETTIZ_charged_linker_0, # of connection points: 3
#     Node 12, Type 0, BuildingBlock: VETTIZ_charged_linker_0, # of connection points: 3
#     Node 13, Type 0, BuildingBlock: VETTIZ_charged_linker_0, # of connection points: 3
#     Node 14, Type 0, BuildingBlock: VETTIZ_charged_linker_0, # of connection points: 3
#     Node 15, Type 0, BuildingBlock: VETTIZ_charged_linker_0, # of connection points: 3
#     Node 16, Type 1, BuildingBlock: TATPOV_clean_sbu_0, # of connection points: 4
#     Node 17, Type 1, BuildingBlock: TATPOV_clean_sbu_0, # of connection points: 4
#     Node 18, Type 1, BuildingBlock: TATPOV_clean_sbu_0, # of connection points: 4
#     Node 19, Type 1, BuildingBlock: TATPOV_clean_sbu_0, # of connection points: 4
#     Node 20, Type 1, BuildingBlock: TATPOV_clean_sbu_0, # of connection points: 4
#     Node 21, Type 1, BuildingBlock: TATPOV_clean_sbu_0, # of connection points: 4
#     Node 22, Type 1, BuildingBlock: TATPOV_clean_sbu_0, # of connection points: 4
#     Node 23, Type 1, BuildingBlock: TATPOV_clean_sbu_0, # of connection points: 4
#     Node 24, Type 1, BuildingBlock: TATPOV_clean_sbu_0, # of connection points: 4
#     Node 25, Type 1, BuildingBlock: TATPOV_clean_sbu_0, # of connection points: 4
#     Node 26, Type 1, BuildingBlock: TATPOV_clean_sbu_0, # of connection points: 4
#     Node 27, Type 1, BuildingBlock: TATPOV_clean_sbu_0, # of connection points: 4
#     Edge 28, Type (0, 1), None
#     Edge 29, Type (0, 1), None
#     Edge 30, Type (0, 1), None
#     Edge 31, Type (0, 1), None
#     Edge 32, Type (0, 1), None
#     Edge 33, Type (0, 1), None
#     Edge 34, Type (0, 1), None
#     Edge 35, Type (0, 1), None
#     Edge 36, Type (0, 1), None
#     Edge 37, Type (0, 1), None
#     Edge 38, Type (0, 1), None
#     Edge 39, Type (0, 1), None
#     Edge 40, Type (0, 1), None
#     Edge 41, Type (0, 1), None
#     Edge 42, Type (0, 1), None
#     Edge 43, Type (0, 1), None
#     Edge 44, Type (0, 1), None
#     Edge 45, Type (0, 1), None
#     Edge 46, Type (0, 1), None
#     Edge 47, Type (0, 1), None
#     Edge 48, Type (0, 1), None
#     Edge 49, Type (0, 1), None
#     Edge 50, Type (0, 1), None
#     Edge 51, Type (0, 1), None
#     Edge 52, Type (0, 1), None
#     Edge 53, Type (0, 1), None
#     Edge 54, Type (0, 1), None
#     Edge 55, Type (0, 1), None
#     Edge 56, Type (0, 1), None
#     Edge 57, Type (0, 1), None
#     Edge 58, Type (0, 1), None
#     Edge 59, Type (0, 1), None
#     Edge 60, Type (0, 1), None
#     Edge 61, Type (0, 1), None
#     Edge 62, Type (0, 1), None
#     Edge 63, Type (0, 1), None
#     Edge 64, Type (0, 1), None
#     Edge 65, Type (0, 1), None
#     Edge 66, Type (0, 1), None
#     Edge 67, Type (0, 1), None
#     Edge 68, Type (0, 1), None
#     Edge 69, Type (0, 1), None
#     Edge 70, Type (0, 1), None
#     Edge 71, Type (0, 1), None
#     Edge 72, Type (0, 1), None
#     Edge 73, Type (0, 1), None
#     Edge 74, Type (0, 1), None
#     Edge 75, Type (0, 1), None
# Relax obj value: 0.004
# Max RMSD: 0.045
# Mean RMSD: 0.021
data_MOF--net-ctn--node1-TATPOV_clean_sbu_0--node2-VETTIZ_charged_linker_0--edge1-none
_symmetry_space_group_name_H-M    P1
_symmetry_Int_Tables_number       1
_symmetry_cell_setting            triclinic
loop_
_symmetry_equiv_pos_as_xyz
'x, y, z'
_cell_length_a     36.063893
_cell_length_b     36.119554
_cell_length_c     36.05844
_cell_angle_alpha  91.548647
_cell_angle_beta   91.50797
_cell_angle_gamma 91.565678
loop_
_atom_site_label
_atom_site_type_symbol
_atom_site_fract_x
_atom_site_fract_y
_atom_site_fract_z
_atom_type_partial_charge
C0 C 0.00813 0.08652 0.90748 0.0
C1 C 0.98409 0.1162 0.9114 0.0
C2 C 0.95512 0.1138 0.93675 0.0
C3 C 0.97649 0.05429 0.95626 0.0
C4 C 0.00411 0.05611 0.93046 0.0
C5 C 0.03009 0.0244 0.93322 0.0
H6 H 0.0943 0.8825 0.03165 0.0
C7 C 0.98228 0.02111 0.97844 0.0
C8 C 0.01366 0.00348 0.96515 0.0
H9 H 0.14105 0.93231 0.93499 0.0
H10 H 0.08748 0.97005 0.92802 0.0
H11 H 0.07112 0.95485 0.06876 0.0
H12 H 0.00622 0.87824 0.9984 0.0
H13 H 0.97781 0.89275 0.0346 0.0
H14 H 0.01953 0.86818 0.04529 0.0
H15 H 0.0546 0.91086 0.08459 0.0
H16 H 0.02691 0.95152 0.08758 0.0
C17 C 0.06961 0.04065 0.94288 0.0
C18 C 0.02689 0.00135 0.89637 0.0
C19 C 0.90396 0.00015 0.09109 0.0
C20 C 0.90688 0.97553 0.12043 0.0
C21 C 0.93191 0.94631 0.11791 0.0
C22 C 0.95504 0.94281 0.08749 0.0
C23 C 0.95366 0.96921 0.05964 0.0
C24 C 0.92779 0.99672 0.06126 0.0
C25 C 0.93151 0.02337 0.03021 0.0
C26 C 0.964 0.00744 0.00984 0.0
C27 C 0.97697 0.97583 0.02727 0.0
C28 C 0.94077 0.06256 0.04743 0.0
C29 C 0.89533 0.02066 0.00611 0.0
C30 C 0.09264 0.90108 0.00862 0.0
C31 C 0.12211 0.90481 0.98412 0.0
C32 C 0.11895 0.92935 0.95455 0.0
C33 C 0.08783 0.9513 0.95058 0.0
C34 C 0.05982 0.94923 0.9768 0.0
C35 C 0.06193 0.92372 0.0046 0.0
C36 C 0.03006 0.92636 0.03057 0.0
C37 C 0.00899 0.95817 0.01416 0.0
C38 C 0.02678 0.97157 0.98286 0.0
C39 C 0.04618 0.93615 0.07006 0.0
C40 C 0.00716 0.88947 0.02746 0.0
H41 H 0.9287 0.0829 0.97804 0.0
H42 H 0.03086 0.08778 0.88845 0.0
H43 H 0.99767 -0.00022 0.8856 0.0
H44 H 0.03472 0.97224 0.89964 0.0
H45 H 0.04411 0.01401 0.87471 0.0
H46 H 0.0684 0.06704 0.95941 0.0
H47 H 0.08508 0.0466 0.91738 0.0
H48 H 0.08626 0.02257 0.96056 0.0
H49 H 0.88522 0.02306 0.09235 0.0
H50 H 0.93436 0.92674 0.14003 0.0
H51 H 0.97408 0.92051 0.08758 0.0
H52 H 0.95498 0.06097 0.07509 0.0
H53 H 0.91525 0.07861 0.05124 0.0
H54 H 0.96044 0.0788 0.0309 0.0
H55 H 0.88536 0.99131 0.00253 0.0
H56 H 0.89908 0.03049 0.97767 0.0
H57 H 0.87293 0.03644 0.01928 0.0
H58 H 0.93598 0.13621 0.93988 0.0
C59 C 0.95095 0.08283 0.95889 0.0
C60 C 0.19568 0.62424 0.24582 0.0
C61 C 0.16217 0.61562 0.22637 0.0
C62 C 0.14948 0.64 0.19917 0.0
C63 C 0.20359 0.68041 0.21115 0.0
C64 C 0.21565 0.65659 0.23799 0.0
C65 C 0.2515 0.66958 0.25669 0.0
H66 H 0.39412 0.79422 0.27038 0.0
C67 C 0.23072 0.7118 0.21041 0.0
C68 C 0.25852 0.70574 0.23747 0.0
H69 H 0.38042 0.69261 0.32999 0.0
H70 H 0.32058 0.68113 0.29975 0.0
H71 H 0.31749 0.82336 0.27958 0.0
H72 H 0.3617 0.7587 0.19037 0.0
H73 H 0.33878 0.7966 0.17166 0.0
H74 H 0.37683 0.80504 0.20384 0.0
H75 H 0.34031 0.84517 0.24204 0.0
H76 H 0.29093 0.83487 0.24022 0.0
C77 C 0.24472 0.67586 0.29863 0.0
C78 C 0.2813 0.64069 0.24775 0.0
C79 C 0.22778 0.80498 0.10708 0.0
C80 C 0.25225 0.83476 0.09987 0.0
C81 C 0.27656 0.84893 0.1282 0.0
C82 C 0.2796 0.83125 0.16195 0.0
C83 C 0.25886 0.79851 0.16695 0.0
C84 C 0.23149 0.78724 0.14121 0.0
C85 C 0.21075 0.75291 0.15329 0.0
C86 C 0.23306 0.74363 0.18815 0.0
C87 C 0.26171 0.77015 0.19527 0.0
C88 C 0.1706 0.7636 0.16224 0.0
C89 C 0.21313 0.72238 0.12258 0.0
C90 C 0.37836 0.76939 0.27688 0.0
C91 C 0.39223 0.74415 0.30239 0.0
C92 C 0.37055 0.71238 0.31021 0.0
C93 C 0.33574 0.7058 0.29266 0.0
C94 C 0.32251 0.73114 0.26685 0.0
C95 C 0.3437 0.76235 0.25953 0.0
C96 C 0.32584 0.7859 0.23081 0.0
C97 C 0.29017 0.76366 0.22205 0.0
C98 C 0.28855 0.73158 0.24303 0.0
C99 C 0.31838 0.82443 0.2488 0.0
C100 C 0.35196 0.78695 0.19734 0.0
H101 H 0.15921 0.68979 0.17035 0.0
H102 H 0.20625 0.60628 0.267 0.0
H103 H 0.27587 0.62717 0.21996 0.0
H104 H 0.3095 0.65315 0.24611 0.0
H105 H 0.2816 0.61851 0.26849 0.0
H106 H 0.21693 0.68763 0.30301 0.0
H107 H 0.24582 0.64941 0.31358 0.0
H108 H 0.26459 0.69611 0.31213 0.0
H109 H 0.20872 0.79387 0.08562 0.0
H110 H 0.29526 0.87216 0.12314 0.0
H111 H 0.29985 0.84232 0.1818 0.0
H112 H 0.1694 0.79311 0.17173 0.0
H113 H 0.1518 0.75977 0.13745 0.0
H114 H 0.15923 0.74771 0.18536 0.0
H115 H 0.2421 0.72044 0.113 0.0
H116 H 0.20517 0.69459 0.13206 0.0
H117 H 0.19506 0.72854 0.09822 0.0
H118 H 0.12373 0.63401 0.18377 0.0
C119 C 0.17003 0.67238 0.19148 0.0
C120 C 0.99736 0.33129 0.98775 0.0
C121 C 0.97359 0.32373 0.95671 0.0
C122 C 0.93985 0.34198 0.95345 0.0
C123 C 0.95688 0.38038 0.00711 0.0
C124 C 0.98808 0.35975 0.01308 0.0
C125 C 0.00965 0.37337 0.04755 0.0
H126 H 0.03834 0.50801 0.18143 0.0
C127 C 0.95811 0.41201 0.03359 0.0
C128 C 0.98831 0.40791 0.05813 0.0
H129 H 0.08666 0.39997 0.17507 0.0
H130 H 0.05214 0.38568 0.11772 0.0
H131 H 0.95743 0.47858 0.16437 0.0
H132 H 0.03606 0.52369 0.08796 0.0
H133 H 0.99259 0.54388 0.08085 0.0
H134 H 0.01697 0.55104 0.12478 0.0
H135 H 0.97003 0.52705 0.16492 0.0
H136 H 0.93396 0.5078 0.13401 0.0
C137 C 0.00679 0.34318 0.07726 0.0
C138 C 0.04992 0.38326 0.03701 0.0
C139 C 0.87572 0.5188 0.0057 0.0
C140 C 0.87157 0.55415 0.02162 0.0
C141 C 0.89298 0.56477 0.05366 0.0
C142 C 0.91892 0.5405 0.06885 0.0
C143 C 0.92296 0.50519 0.05204 0.0
C144 C 0.90105 0.49497 0.0213 0.0
C145 C 0.90785 0.45661 0.00699 0.0
C146 C 0.93821 0.44526 0.03378 0.0
C147 C 0.94727 0.47373 0.06002 0.0
C148 C 0.87161 0.43284 0.01076 0.0
C149 C 0.92151 0.45983 0.96669 0.0
C150 C 0.04201 0.48165 0.16713 0.0
C151 C 0.06546 0.45521 0.18226 0.0
C152 C 0.06876 0.42069 0.1637 0.0
C153 C 0.04862 0.41237 0.13065 0.0
C154 C 0.02436 0.43852 0.11644 0.0
C155 C 0.02115 0.47245 0.13465 0.0
C156 C 0.99129 0.49523 0.11728 0.0
C157 C 0.97661 0.46896 0.08639 0.0
C158 C 0.99674 0.43611 0.08557 0.0
C159 C 0.96159 0.50294 0.14655 0.0
C160 C 0.00991 0.53053 0.102 0.0
H161 H 0.90581 0.38384 0.97367 0.0
H162 H 0.02321 0.31702 0.99096 0.0
H163 H 0.05006 0.40159 0.01272 0.0
H164 H 0.06573 0.3982 0.05966 0.0
H165 H 0.06513 0.35789 0.0296 0.0
H166 H 0.98436 0.32219 0.07031 0.0
H167 H 0.03306 0.32803 0.08016 0.0
H168 H -0.00035 0.355 0.10478 0.0
H169 H 0.85908 0.50941 0.98161 0.0
H170 H 0.88996 0.59188 0.06663 0.0
H171 H 0.93477 0.55008 0.09302 0.0
H172 H 0.85267 0.44529 0.03123 0.0
H173 H 0.85595 0.42982 0.98386 0.0
H174 H 0.87709 0.40495 0.02143 0.0
H175 H 0.94191 0.48335 0.9648 0.0
H176 H 0.93607 0.43541 0.95639 0.0
H177 H 0.89801 0.46487 0.94711 0.0
H178 H 0.92108 0.33602 0.92992 0.0
C179 C 0.9312 0.36998 0.97868 0.0
C180 C 0.62102 0.76684 0.32728 0.0
C181 C 0.59268 0.73995 0.32146 0.0
C182 C 0.59839 0.70924 0.29764 0.0
C183 C 0.65814 0.73609 0.28129 0.0
C184 C 0.65334 0.76442 0.30711 0.0
C185 C 0.68419 0.79308 0.30767 0.0
H186 H 0.8294 0.87137 0.2236 0.0
C187 C 0.69234 0.74508 0.26108 0.0
C188 C 0.70775 0.77826 0.27681 0.0
H189 H 0.77697 0.90762 0.32441 0.0
H190 H 0.73809 0.8526 0.32251 0.0
H191 H 0.75479 0.84092 0.18025 0.0
H192 H 0.83774 0.7891 0.24702 0.0
H193 H 0.82224 0.75489 0.21432 0.0
H194 H 0.84432 0.79701 0.19874 0.0
H195 H 0.80169 0.8346 0.16635 0.0
H196 H 0.76615 0.79938 0.15729 0.0
C197 C 0.66722 0.83086 0.29822 0.0
C198 C 0.70472 0.79245 0.34601 0.0
C199 C 0.72513 0.6705 0.14497 0.0
C200 C 0.75299 0.67557 0.1188 0.0
C201 C 0.77975 0.70443 0.12478 0.0
C202 C 0.77833 0.72846 0.15563 0.0
C203 C 0.74961 0.72405 0.18072 0.0
C204 C 0.72395 0.69512 0.17569 0.0
C205 C 0.69534 0.69525 0.20544 0.0
C206 C 0.70831 0.72893 0.22904 0.0
C207 C 0.73986 0.74582 0.21396 0.0
C208 C 0.65691 0.70067 0.18651 0.0
C209 C 0.69825 0.65898 0.22706 0.0
C210 C 0.80942 0.86748 0.24516 0.0
C211 C 0.80585 0.89424 0.27381 0.0
C212 C 0.78012 0.88766 0.30182 0.0
C213 C 0.7575 0.85561 0.30072 0.0
C214 C 0.76035 0.82982 0.27121 0.0
C215 C 0.78661 0.83544 0.24461 0.0
C216 C 0.78655 0.80415 0.21625 0.0
C217 C 0.75528 0.77934 0.22987 0.0
C218 C 0.73972 0.79494 0.2616 0.0
C219 C 0.77705 0.82032 0.17787 0.0
C220 C 0.82466 0.7853 0.21883 0.0
H221 H 0.63367 0.6839 0.25856 0.0
H222 H 0.61716 0.79057 0.34568 0.0
H223 H 0.70199 0.76479 0.35869 0.0
H224 H 0.73502 0.79746 0.344 0.0
H225 H 0.69343 0.81308 0.3658 0.0
H226 H 0.64505 0.82715 0.27627 0.0
H227 H 0.65465 0.84387 0.32298 0.0
H228 H 0.68726 0.85086 0.2869 0.0
H229 H 0.70424 0.64851 0.14122 0.0
H230 H 0.80179 0.70872 0.10539 0.0
H231 H 0.79933 0.74999 0.15831 0.0
H232 H 0.65893 0.72163 0.16455 0.0
H233 H 0.64596 0.67435 0.17322 0.0
H234 H 0.63612 0.71121 0.20565 0.0
H235 H 0.72771 0.65106 0.23049 0.0
H236 H 0.68795 0.66169 0.25555 0.0
H237 H 0.68295 0.63572 0.21215 0.0
H238 H 0.57661 0.68827 0.29285 0.0
C239 C 0.6312 0.70712 0.27746 0.0
C240 C 0.05009 0.88348 0.5428 0.0
C241 C 0.02172 0.85612 0.53685 0.0
C242 C 0.00588 0.85034 0.50104 0.0
C243 C 0.04191 0.90183 0.47882 0.0
C244 C 0.05971 0.90622 0.51312 0.0
C245 C 0.08764 0.93829 0.51361 0.0
H246 H 0.17017 0.07672 0.41769 0.0
C247 C 0.05425 0.93198 0.45513 0.0
C248 C 0.08141 0.9535 0.47487 0.0
H249 H 0.19848 0.04197 0.52827 0.0
H250 H 0.1465 0.99789 0.5258 0.0
H251 H 0.08489 0.08072 0.43337 0.0
H252 H 0.14733 0.99724 0.37771 0.0
H253 H 0.10766 0.00848 0.3505 0.0
H254 H 0.14194 0.04393 0.3627 0.0
H255 H 0.0922 0.08203 0.3845 0.0
H256 H 0.05302 0.05704 0.40293 0.0
C257 C 0.07735 0.96651 0.54441 0.0
C258 C 0.12676 0.92237 0.51873 0.0
C259 C 0.9785 0.95336 0.33898 0.0
C260 C 0.9749 0.98448 0.31716 0.0
C261 C 0.00272 0.01261 0.3191 0.0
C262 C 0.03265 0.01067 0.34481 0.0
C263 C 0.03387 0.98082 0.36916 0.0
C264 C 0.00739 0.95249 0.36532 0.0
C265 C 0.00947 0.92555 0.39609 0.0
C266 C 0.0408 0.94291 0.41996 0.0
C267 C 0.05555 0.97474 0.40384 0.0
C268 C 0.97171 0.92538 0.41619 0.0
C269 C 0.02027 0.88758 0.379 0.0
C270 C 0.16497 0.05964 0.44134 0.0
C271 C 0.18854 0.06222 0.47294 0.0
C272 C 0.18057 0.04033 0.50364 0.0
C273 C 0.15075 0.01446 0.50196 0.0
C274 C 0.1284 0.01094 0.46944 0.0
C275 C 0.13491 0.03427 0.44034 0.0
C276 C 0.10665 0.02865 0.40914 0.0
C277 C 0.08456 0.99558 0.42263 0.0
C278 C 0.09727 0.98528 0.45808 0.0
C279 C 0.083 0.06385 0.40706 0.0
C280 C 0.12681 0.01918 0.37291 0.0
H281 H 0.00214 0.86716 0.44583 0.0
H282 H 0.06312 0.88809 0.57 0.0
H283 H 0.12898 0.89592 0.50248 0.0
H284 H 0.14895 0.94072 0.50849 0.0
H285 H 0.13282 0.91656 0.54834 0.0
H286 H 0.04678 0.96985 0.5447 0.0
H287 H 0.08648 0.95715 0.5722 0.0
H288 H 0.08921 0.99453 0.54026 0.0
H289 H 0.95681 0.93194 0.33848 0.0
H290 H -5e-05 0.0371 0.30268 0.0
H291 H 0.05259 0.03329 0.3461 0.0
H292 H 0.95739 0.95207 0.41311 0.0
H293 H 0.95258 0.90302 0.40482 0.0
H294 H 0.97462 0.92269 0.44653 0.0
H295 H 0.03869 0.89122 0.35501 0.0
H296 H 0.03649 0.87091 0.39859 0.0
H297 H 0.99534 0.87123 0.36884 0.0
H298 H 0.98478 0.82879 0.49553 0.0
C299 C 0.01607 0.87266 0.47205 0.0
C300 C 0.32812 0.61778 0.77136 0.0
C301 C 0.32301 0.58864 0.74529 0.0
C302 C 0.29742 0.59219 0.71548 0.0
C303 C 0.27842 0.65121 0.74207 0.0
C304 C 0.30542 0.64821 0.76966 0.0
C305 C 0.30405 0.67795 0.79917 0.0
H306 H 0.21641 0.81918 0.87983 0.0
C307 C 0.25634 0.68401 0.75184 0.0
C308 C 0.27136 0.69939 0.78535 0.0
H309 H 0.31588 0.76503 0.91694 0.0
H310 H 0.31406 0.72666 0.86193 0.0
H311 H 0.17212 0.74335 0.84649 0.0
H312 H 0.24028 0.82781 0.79826 0.0
H313 H 0.20819 0.81287 0.7632 0.0
H314 H 0.19184 0.83423 0.80541 0.0
H315 H 0.15917 0.79078 0.84253 0.0
H316 H 0.15001 0.75744 0.80527 0.0
C317 C 0.2964 0.65925 0.83673 0.0
C318 C 0.34077 0.70129 0.79842 0.0
C319 C 0.14316 0.71809 0.67348 0.0
C320 C 0.11713 0.74622 0.67749 0.0
C321 C 0.12162 0.77202 0.70744 0.0
C322 C 0.15084 0.76949 0.73338 0.0
C323 C 0.17597 0.74077 0.72964 0.0
C324 C 0.17238 0.71597 0.69979 0.0
C325 C 0.20214 0.68744 0.70055 0.0
C326 C 0.22425 0.69962 0.73545 0.0
C327 C 0.20829 0.73059 0.75261 0.0
C328 C 0.18317 0.64881 0.70435 0.0
C329 C 0.22532 0.69122 0.66534 0.0
C330 C 0.2375 0.79872 0.87618 0.0
C331 C 0.26609 0.79491 0.90308 0.0
C332 C 0.29343 0.7685 0.89687 0.0
C333 C 0.2924 0.74617 0.86472 0.0
C334 C 0.26357 0.74988 0.83831 0.0
C335 C 0.23693 0.77601 0.84394 0.0
C336 C 0.20918 0.77644 0.81195 0.0
C337 C 0.22323 0.74555 0.78685 0.0
C338 C 0.25483 0.73014 0.80274 0.0
C339 C 0.17042 0.76673 0.82709 0.0
C340 C 0.21214 0.8148 0.79374 0.0
H341 H 0.25499 0.62442 0.69119 0.0
H342 H 0.34764 0.61568 0.79456 0.0
H343 H 0.35095 0.7032 0.76964 0.0
H344 H 0.33752 0.73039 0.80782 0.0
H345 H 0.36294 0.68874 0.81551 0.0
H346 H 0.28079 0.6324 0.83245 0.0
H347 H 0.32267 0.65352 0.85202 0.0
H348 H 0.27858 0.67564 0.85501 0.0
H349 H 0.1406 0.69787 0.65076 0.0
H350 H 0.10223 0.79411 0.71118 0.0
H351 H 0.15246 0.7898 0.75563 0.0
H352 H 0.15934 0.6504 0.72327 0.0
H353 H 0.17241 0.63769 0.67701 0.0
H354 H 0.20169 0.62846 0.71676 0.0
H355 H 0.23105 0.72092 0.65964 0.0
H356 H 0.25276 0.67865 0.66808 0.0
H357 H 0.21027 0.6785 0.64069 0.0
H358 H 0.29305 0.56979 0.69512 0.0
C359 C 0.27506 0.62359 0.71365 0.0
C360 C 0.83435 0.49411 0.49785 0.0
C361 C 0.82338 0.46598 0.47187 0.0
C362 C 0.83746 0.4663 0.43595 0.0
C363 C 0.87914 0.51721 0.45454 0.0
C364 C 0.86198 0.52001 0.48825 0.0
C365 C 0.87849 0.55149 0.51215 0.0
H366 H 0.01284 0.68512 0.53945 0.0
C367 C 0.91164 0.54276 0.45569 0.0
C368 C 0.91099 0.56383 0.48878 0.0
H369 H 0.91111 0.66951 0.59847 0.0
H370 H 0.89603 0.61419 0.56169 0.0
H371 H 0.97862 0.67058 0.45951 0.0
H372 H 0.03037 0.59065 0.53011 0.0
H373 H 0.04674 0.58601 0.4847 0.0
H374 H 0.05623 0.62848 0.511 0.0
H375 H 0.02742 0.67306 0.47115 0.0
H376 H 0.00926 0.64352 0.4336 0.0
C377 C 0.84895 0.5818 0.51578 0.0
C378 C 0.89187 0.53605 0.54968 0.0
C379 C 0.01262 0.51811 0.36496 0.0
C380 C 0.04886 0.53202 0.36115 0.0
C381 C 0.06138 0.56275 0.3835 0.0
C382 C 0.03839 0.57794 0.41076 0.0
C383 C 0.00258 0.56234 0.41532 0.0
C384 C 0.99017 0.53346 0.39187 0.0
C385 C 0.95177 0.51979 0.39996 0.0
C386 C 0.94322 0.54436 0.43317 0.0
C387 C 0.97299 0.56919 0.44239 0.0
C388 C 0.92604 0.52713 0.36588 0.0
C389 C 0.95413 0.47837 0.40998 0.0
C390 C 0.98787 0.66906 0.54494 0.0
C391 C 0.96317 0.68131 0.57196 0.0
C392 C 0.93045 0.66044 0.57782 0.0
C393 C 0.92151 0.62864 0.55615 0.0
C394 C 0.94517 0.61788 0.5278 0.0
C395 C 0.97805 0.6375 0.52277 0.0
C396 C 0.99851 0.6226 0.48977 0.0
C397 C 0.97121 0.59266 0.47465 0.0
C398 C 0.94039 0.58976 0.49762 0.0
C399 C 0.00408 0.654 0.46196 0.0
C400 C 0.03507 0.60619 0.50435 0.0
H401 H 0.87617 0.48977 0.39982 0.0
H402 H 0.82351 0.49436 0.52558 0.0
H403 H 0.90805 0.51063 0.54505 0.0
H404 H 0.91035 0.55572 0.56579 0.0
H405 H 0.86796 0.52875 0.56711 0.0
H406 H 0.82581 0.57773 0.49492 0.0
H407 H 0.83641 0.5819 0.54359 0.0
H408 H 0.86069 0.60985 0.51068 0.0
H409 H 0.00195 0.49509 0.34756 0.0
H410 H 0.08923 0.57415 0.38074 0.0
H411 H 0.04947 0.60087 0.4275 0.0
H412 H 0.93825 0.54833 0.34758 0.0
H413 H 0.92072 0.50152 0.3486 0.0
H414 H 0.89915 0.53857 0.37413 0.0
H415 H 0.97779 0.47431 0.42976 0.0
H416 H 0.92948 0.46732 0.42366 0.0
H417 H 0.95844 0.46075 0.38482 0.0
H418 H 0.8292 0.44471 0.4157 0.0
C419 C 0.8651 0.49206 0.42701 0.0
C420 C 0.83584 0.72137 0.89806 0.0
C421 C 0.8093 0.7167 0.92555 0.0
C422 C 0.78626 0.74628 0.93457 0.0
C423 C 0.81275 0.7823 0.88542 0.0
C424 C 0.8374 0.75446 0.87874 0.0
C425 C 0.86368 0.76381 0.84841 0.0
H426 H 0.89678 0.86103 0.6963 0.0
C427 C 0.819 0.81127 0.85789 0.0
C428 C 0.84947 0.80113 0.83675 0.0
H429 H 0.96024 0.77165 0.74034 0.0
H430 H 0.92496 0.77376 0.79649 0.0
H431 H 0.89815 0.90887 0.77297 0.0
H432 H 0.81605 0.83347 0.7222 0.0
H433 H 0.79492 0.87499 0.73583 0.0
H434 H 0.83086 0.87648 0.70261 0.0
H435 H 0.86602 0.92374 0.73799 0.0
H436 H 0.85479 0.92469 0.78659 0.0
C437 C 0.90366 0.76711 0.86535 0.0
C438 C 0.85841 0.73376 0.81712 0.0
C439 C 0.71957 0.90569 0.83641 0.0
C440 C 0.71478 0.93304 0.80982 0.0
C441 C 0.74422 0.94155 0.78628 0.0
C442 C 0.77683 0.92119 0.78741 0.0
C443 C 0.77995 0.89198 0.81224 0.0
C444 C 0.75231 0.88574 0.83729 0.0
C445 C 0.76093 0.85453 0.86264 0.0
C446 C 0.79778 0.84217 0.84776 0.0
C447 C 0.80835 0.86368 0.8177 0.0
C448 C 0.76504 0.87038 0.90297 0.0
C449 C 0.72986 0.82429 0.85679 0.0
C450 C 0.90323 0.84213 0.71823 0.0
C451 C 0.93069 0.81559 0.71365 0.0
C452 C 0.93906 0.79216 0.74314 0.0
C453 C 0.91831 0.79316 0.77552 0.0
C454 C 0.88894 0.81781 0.77838 0.0
C455 C 0.88304 0.84303 0.75089 0.0
C456 C 0.85198 0.86859 0.75971 0.0
C457 C 0.83922 0.85347 0.79635 0.0
C458 C 0.86034 0.82305 0.80654 0.0
C459 C 0.86829 0.90865 0.76436 0.0
C460 C 0.82177 0.86344 0.72852 0.0
H461 H 0.76887 0.80026 0.92189 0.0
H462 H 0.85462 0.69942 0.89133 0.0
H463 H 0.82842 0.72904 0.80999 0.0
H464 H 0.87171 0.7412 0.79113 0.0
H465 H 0.86978 0.70701 0.82594 0.0
H466 H 0.90367 0.77291 0.89582 0.0
H467 H 0.91889 0.74114 0.86072 0.0
H468 H 0.91978 0.7906 0.85406 0.0
H469 H 0.69773 0.89909 0.85541 0.0
H470 H 0.74132 0.96268 0.76573 0.0
H471 H 0.79779 0.92802 0.76799 0.0
H472 H 0.77288 0.90041 0.90365 0.0
H473 H 0.73869 0.86719 0.91798 0.0
H474 H 0.78758 0.85727 0.91892 0.0
H475 H 0.72409 0.81872 0.82666 0.0
H476 H 0.73692 0.79744 0.86838 0.0
H477 H 0.70369 0.83323 0.86943 0.0
H478 H 0.76588 0.74342 0.95592 0.0
C479 C 0.78786 0.7791 0.91462 0.0
C480 C 0.33584 0.22137 0.39806 0.0
C481 C 0.3093 0.2167 0.42555 0.0
C482 C 0.28626 0.24628 0.43457 0.0
C483 C 0.31275 0.2823 0.38542 0.0
C484 C 0.3374 0.25446 0.37874 0.0
C485 C 0.36368 0.26381 0.34841 0.0
H486 H 0.39678 0.36103 0.1963 0.0
C487 C 0.319 0.31127 0.35789 0.0
C488 C 0.34947 0.30113 0.33675 0.0
H489 H 0.46025 0.27165 0.24034 0.0
H490 H 0.42496 0.27376 0.29649 0.0
H491 H 0.39815 0.40887 0.27297 0.0
H492 H 0.31605 0.33347 0.2222 0.0
H493 H 0.29492 0.37499 0.23583 0.0
H494 H 0.33086 0.37648 0.20261 0.0
H495 H 0.36602 0.42374 0.23799 0.0
H496 H 0.35479 0.42469 0.28659 0.0
C497 C 0.40366 0.26711 0.36535 0.0
C498 C 0.35841 0.23376 0.31712 0.0
C499 C 0.21957 0.40569 0.33641 0.0
C500 C 0.21478 0.43304 0.30982 0.0
C501 C 0.24422 0.44155 0.28628 0.0
C502 C 0.27683 0.42118 0.28741 0.0
C503 C 0.27995 0.39198 0.31224 0.0
C504 C 0.25231 0.38574 0.33729 0.0
C505 C 0.26093 0.35453 0.36264 0.0
C506 C 0.29778 0.34217 0.34776 0.0
C507 C 0.30835 0.36368 0.3177 0.0
C508 C 0.26504 0.37038 0.40297 0.0
C509 C 0.22986 0.32429 0.35679 0.0
C510 C 0.40323 0.34213 0.21823 0.0
C511 C 0.43069 0.31559 0.21365 0.0
C512 C 0.43906 0.29216 0.24314 0.0
C513 C 0.41831 0.29317 0.27552 0.0
C514 C 0.38894 0.31781 0.27838 0.0
C515 C 0.38304 0.34303 0.25089 0.0
C516 C 0.35198 0.36859 0.25971 0.0
C517 C 0.33922 0.35347 0.29635 0.0
C518 C 0.36034 0.32305 0.30654 0.0
C519 C 0.36829 0.40865 0.26436 0.0
C520 C 0.32177 0.36344 0.22852 0.0
H521 H 0.26887 0.30026 0.42189 0.0
H522 H 0.35462 0.19942 0.39133 0.0
H523 H 0.32842 0.22904 0.30999 0.0
H524 H 0.37171 0.2412 0.29113 0.0
H525 H 0.36978 0.20701 0.32594 0.0
H526 H 0.40367 0.27291 0.39582 0.0
H527 H 0.41889 0.24114 0.36072 0.0
H528 H 0.41978 0.2906 0.35406 0.0
H529 H 0.19773 0.39908 0.35541 0.0
H530 H 0.24132 0.46268 0.26573 0.0
H531 H 0.29779 0.42802 0.26799 0.0
H532 H 0.27288 0.40041 0.40365 0.0
H533 H 0.23869 0.36719 0.41798 0.0
H534 H 0.28758 0.35727 0.41892 0.0
H535 H 0.22409 0.31872 0.32666 0.0
H536 H 0.23692 0.29744 0.36838 0.0
H537 H 0.20369 0.33323 0.36943 0.0
H538 H 0.26588 0.24342 0.45592 0.0
C539 C 0.28786 0.2791 0.41462 0.0
C540 C 0.49736 0.83129 0.48775 0.0
C541 C 0.47359 0.82373 0.45671 0.0
C542 C 0.43986 0.84198 0.45345 0.0
C543 C 0.45688 0.88038 0.50711 0.0
C544 C 0.48808 0.85975 0.51307 0.0
C545 C 0.50965 0.87337 0.54755 0.0
H546 H 0.53835 0.00801 0.68143 0.0
C547 C 0.45812 0.91201 0.53358 0.0
C548 C 0.48831 0.90791 0.55813 0.0
H549 H 0.58666 0.89997 0.67507 0.0
H550 H 0.55214 0.88568 0.61772 0.0
H551 H 0.45744 0.97858 0.66437 0.0
H552 H 0.53606 0.02369 0.58796 0.0
H553 H 0.49259 0.04388 0.58085 0.0
H554 H 0.51697 0.05104 0.62478 0.0
H555 H 0.47003 0.02705 0.66492 0.0
H556 H 0.43396 0.0078 0.63401 0.0
C557 C 0.50679 0.84318 0.57726 0.0
C558 C 0.54992 0.88326 0.53701 0.0
C559 C 0.37572 0.0188 0.5057 0.0
C560 C 0.37157 0.05415 0.52162 0.0
C561 C 0.39298 0.06477 0.55366 0.0
C562 C 0.41892 0.0405 0.56885 0.0
C563 C 0.42296 0.00519 0.55204 0.0
C564 C 0.40105 0.99497 0.5213 0.0
C565 C 0.40785 0.95661 0.50699 0.0
C566 C 0.43821 0.94526 0.53378 0.0
C567 C 0.44727 0.97373 0.56002 0.0
C568 C 0.37161 0.93284 0.51076 0.0
C569 C 0.42151 0.95983 0.46669 0.0
C570 C 0.54201 0.98165 0.66713 0.0
C571 C 0.56547 0.95521 0.68226 0.0
C572 C 0.56876 0.92069 0.6637 0.0
C573 C 0.54862 0.91237 0.63064 0.0
C574 C 0.52436 0.93852 0.61644 0.0
C575 C 0.52115 0.97245 0.63465 0.0
C576 C 0.49129 0.99523 0.61728 0.0
C577 C 0.47661 0.96896 0.58639 0.0
C578 C 0.49674 0.93611 0.58557 0.0
C579 C 0.46159 0.00294 0.64655 0.0
C580 C 0.50991 0.03053 0.602 0.0
H581 H 0.40581 0.88384 0.47367 0.0
H582 H 0.52321 0.81702 0.49096 0.0
H583 H 0.55007 0.90159 0.51271 0.0
H584 H 0.56574 0.8982 0.55966 0.0
H585 H 0.56513 0.85789 0.5296 0.0
H586 H 0.48436 0.82219 0.57031 0.0
H587 H 0.53307 0.82803 0.58016 0.0
H588 H 0.49965 0.85501 0.60478 0.0
H589 H 0.35908 0.00942 0.48161 0.0
H590 H 0.38996 0.09188 0.56663 0.0
H591 H 0.43477 0.05008 0.59302 0.0
H592 H 0.35267 0.94529 0.53123 0.0
H593 H 0.35595 0.92982 0.48386 0.0
H594 H 0.3771 0.90495 0.52143 0.0
H595 H 0.44191 0.98335 0.4648 0.0
H596 H 0.43607 0.93541 0.45639 0.0
H597 H 0.39801 0.96487 0.44711 0.0
H598 H 0.42109 0.83602 0.42992 0.0
C599 C 0.4312 0.86998 0.47868 0.0
C600 C 0.12102 0.26684 0.82727 0.0
C601 C 0.09268 0.23995 0.82146 0.0
C602 C 0.09839 0.20925 0.79764 0.0
C603 C 0.15814 0.23609 0.78129 0.0
C604 C 0.15334 0.26443 0.8071 0.0
C605 C 0.18419 0.29309 0.80767 0.0
H606 H 0.3294 0.37138 0.72359 0.0
C607 C 0.19234 0.24508 0.76108 0.0
C608 C 0.20775 0.27827 0.77681 0.0
H609 H 0.27697 0.40763 0.8244 0.0
H610 H 0.23809 0.35261 0.82251 0.0
H611 H 0.25479 0.34093 0.68025 0.0
H612 H 0.33774 0.28911 0.74702 0.0
H613 H 0.32223 0.25489 0.71431 0.0
H614 H 0.34432 0.29702 0.69874 0.0
H615 H 0.30169 0.3346 0.66634 0.0
H616 H 0.26615 0.29939 0.65728 0.0
C617 C 0.16722 0.33087 0.79821 0.0
C618 C 0.20472 0.29246 0.846 0.0
C619 C 0.22513 0.1705 0.64497 0.0
C620 C 0.25299 0.17557 0.6188 0.0
C621 C 0.27975 0.20444 0.62478 0.0
C622 C 0.27833 0.22847 0.65563 0.0
C623 C 0.24961 0.22406 0.68072 0.0
C624 C 0.22395 0.19513 0.67569 0.0
C625 C 0.19534 0.19525 0.70544 0.0
C626 C 0.20831 0.22894 0.72904 0.0
C627 C 0.23986 0.24583 0.71396 0.0
C628 C 0.15691 0.20067 0.6865 0.0
C629 C 0.19825 0.15899 0.72706 0.0
C630 C 0.30942 0.36749 0.74516 0.0
C631 C 0.30584 0.39425 0.7738 0.0
C632 C 0.28012 0.38767 0.80182 0.0
C633 C 0.25749 0.35562 0.80072 0.0
C634 C 0.26034 0.32983 0.7712 0.0
C635 C 0.28661 0.33545 0.74461 0.0
C636 C 0.28655 0.30415 0.71625 0.0
C637 C 0.25528 0.27934 0.72987 0.0
C638 C 0.23972 0.29495 0.76159 0.0
C639 C 0.27705 0.32032 0.67786 0.0
C640 C 0.32466 0.28531 0.71883 0.0
H641 H 0.13367 0.18391 0.75856 0.0
H642 H 0.11716 0.29057 0.84568 0.0
H643 H 0.20199 0.2648 0.85869 0.0
H644 H 0.23502 0.29747 0.844 0.0
H645 H 0.19343 0.31309 0.8658 0.0
H646 H 0.14505 0.32715 0.77627 0.0
H647 H 0.15465 0.34388 0.82297 0.0
H648 H 0.18725 0.35086 0.7869 0.0
H649 H 0.20424 0.14851 0.64122 0.0
H650 H 0.30179 0.20873 0.60538 0.0
H651 H 0.29933 0.25 0.6583 0.0
H652 H 0.15893 0.22164 0.66455 0.0
H653 H 0.14596 0.17435 0.67322 0.0
H654 H 0.13612 0.21121 0.70564 0.0
H655 H 0.22772 0.15107 0.73049 0.0
H656 H 0.18795 0.16169 0.75555 0.0
H657 H 0.18295 0.13573 0.71215 0.0
H658 H 0.07662 0.18828 0.79285 0.0
C659 C 0.1312 0.20712 0.77746 0.0
C660 C 0.69567 0.12424 0.74582 0.0
C661 C 0.66216 0.11562 0.72637 0.0
C662 C 0.64947 0.14 0.69917 0.0
C663 C 0.70359 0.18041 0.71115 0.0
C664 C 0.71565 0.1566 0.73799 0.0
C665 C 0.7515 0.16958 0.75669 0.0
H666 H 0.89412 0.29422 0.77038 0.0
C667 C 0.73072 0.2118 0.71041 0.0
C668 C 0.75852 0.20574 0.73747 0.0
H669 H 0.88042 0.19261 0.82999 0.0
H670 H 0.82058 0.18113 0.79975 0.0
H671 H 0.81749 0.32336 0.77959 0.0
H672 H 0.8617 0.2587 0.69037 0.0
H673 H 0.83878 0.2966 0.67166 0.0
H674 H 0.87682 0.30504 0.70384 0.0
H675 H 0.84031 0.34517 0.74205 0.0
H676 H 0.79093 0.33487 0.74022 0.0
C677 C 0.74472 0.17586 0.79863 0.0
C678 C 0.7813 0.14069 0.74775 0.0
C679 C 0.72778 0.30498 0.60709 0.0
C680 C 0.75225 0.33477 0.59988 0.0
C681 C 0.77656 0.34894 0.6282 0.0
C682 C 0.7796 0.33125 0.66196 0.0
C683 C 0.75885 0.29851 0.66696 0.0
C684 C 0.73148 0.28725 0.64121 0.0
C685 C 0.71074 0.25291 0.65329 0.0
C686 C 0.73306 0.24364 0.68815 0.0
C687 C 0.7617 0.27015 0.69527 0.0
C688 C 0.67059 0.2636 0.66225 0.0
C689 C 0.71312 0.22238 0.62258 0.0
C690 C 0.87836 0.26939 0.77688 0.0
C691 C 0.89223 0.24416 0.80239 0.0
C692 C 0.87055 0.21238 0.81021 0.0
C693 C 0.83574 0.2058 0.79266 0.0
C694 C 0.8225 0.23115 0.76685 0.0
C695 C 0.8437 0.26235 0.75953 0.0
C696 C 0.82584 0.2859 0.73082 0.0
C697 C 0.79017 0.26366 0.72205 0.0
C698 C 0.78855 0.23158 0.74303 0.0
C699 C 0.81838 0.32443 0.74881 0.0
C700 C 0.85196 0.28696 0.69734 0.0
H701 H 0.65921 0.18979 0.67036 0.0
H702 H 0.70625 0.10628 0.767 0.0
H703 H 0.77587 0.12717 0.71996 0.0
H704 H 0.8095 0.15315 0.74611 0.0
H705 H 0.7816 0.11851 0.76849 0.0
H706 H 0.71693 0.18763 0.80301 0.0
H707 H 0.74582 0.14941 0.81358 0.0
H708 H 0.76459 0.19611 0.81213 0.0
H709 H 0.70871 0.29387 0.58563 0.0
H710 H 0.79525 0.37217 0.62315 0.0
H711 H 0.79985 0.34232 0.68181 0.0
H712 H 0.6694 0.29311 0.67173 0.0
H713 H 0.6518 0.25978 0.63745 0.0
H714 H 0.65923 0.24772 0.68536 0.0
H715 H 0.74209 0.22044 0.613 0.0
H716 H 0.70516 0.19459 0.63206 0.0
H717 H 0.69506 0.22855 0.59822 0.0
H718 H 0.62372 0.13401 0.68377 0.0
C719 C 0.67003 0.17238 0.69148 0.0
C720 C 0.50813 0.58652 0.40748 0.0
C721 C 0.48409 0.6162 0.4114 0.0
C722 C 0.45511 0.6138 0.43674 0.0
C723 C 0.47649 0.55429 0.45625 0.0
C724 C 0.50411 0.55611 0.43045 0.0
C725 C 0.53008 0.5244 0.43322 0.0
H726 H 0.59429 0.3825 0.53165 0.0
C727 C 0.48228 0.52111 0.47843 0.0
C728 C 0.51365 0.50347 0.46514 0.0
H729 H 0.64105 0.43231 0.43499 0.0
H730 H 0.58748 0.47005 0.42802 0.0
H731 H 0.57112 0.45485 0.56875 0.0
H732 H 0.50622 0.37824 0.49839 0.0
H733 H 0.4778 0.39275 0.5346 0.0
H734 H 0.51953 0.36817 0.54529 0.0
H735 H 0.55459 0.41086 0.58459 0.0
H736 H 0.52691 0.45152 0.58758 0.0
C737 C 0.56961 0.54065 0.44287 0.0
C738 C 0.52689 0.50135 0.39637 0.0
C739 C 0.40395 0.50014 0.59109 0.0
C740 C 0.40688 0.47553 0.62042 0.0
C741 C 0.43191 0.44631 0.61791 0.0
C742 C 0.45503 0.4428 0.58749 0.0
C743 C 0.45366 0.4692 0.55963 0.0
C744 C 0.42779 0.49671 0.56125 0.0
C745 C 0.43151 0.52337 0.5302 0.0
C746 C 0.46399 0.50743 0.50983 0.0
C747 C 0.47696 0.47582 0.52727 0.0
C748 C 0.44077 0.56256 0.54743 0.0
C749 C 0.39532 0.52065 0.5061 0.0
C750 C 0.59264 0.40108 0.50862 0.0
C751 C 0.62211 0.40481 0.48412 0.0
C752 C 0.61895 0.42935 0.45455 0.0
C753 C 0.58783 0.4513 0.45057 0.0
C754 C 0.55981 0.44923 0.4768 0.0
C755 C 0.56193 0.42372 0.5046 0.0
C756 C 0.53006 0.42636 0.53057 0.0
C757 C 0.50899 0.45817 0.51415 0.0
C758 C 0.52677 0.47157 0.48285 0.0
C759 C 0.54617 0.43615 0.57006 0.0
C760 C 0.50716 0.38946 0.52746 0.0
H761 H 0.4287 0.5829 0.47804 0.0
H762 H 0.53086 0.58778 0.38845 0.0
H763 H 0.49767 0.49978 0.3856 0.0
H764 H 0.53472 0.47223 0.39963 0.0
H765 H 0.5441 0.51401 0.37471 0.0
H766 H 0.56839 0.56703 0.45941 0.0
H767 H 0.58508 0.5466 0.41738 0.0
H768 H 0.58626 0.52256 0.46056 0.0
H769 H 0.38522 0.52306 0.59235 0.0
H770 H 0.43436 0.42674 0.64003 0.0
H771 H 0.47408 0.42051 0.58757 0.0
H772 H 0.45497 0.56096 0.57509 0.0
H773 H 0.41524 0.57861 0.55124 0.0
H774 H 0.46044 0.5788 0.53089 0.0
H775 H 0.38535 0.49131 0.50252 0.0
H776 H 0.39907 0.53048 0.47767 0.0
H777 H 0.37292 0.53644 0.51927 0.0
H778 H 0.43598 0.63621 0.43988 0.0
C779 C 0.45094 0.58283 0.45889 0.0
C780 C 0.55009 0.38348 0.0428 0.0
C781 C 0.52172 0.35612 0.03685 0.0
C782 C 0.50588 0.35034 0.00104 0.0
C783 C 0.54191 0.40183 0.97882 0.0
C784 C 0.55971 0.40622 0.01312 0.0
C785 C 0.58764 0.43829 0.01361 0.0
H786 H 0.67017 0.57672 0.91768 0.0
C787 C 0.55425 0.43198 0.95513 0.0
C788 C 0.58141 0.4535 0.97487 0.0
H789 H 0.69848 0.54197 0.02827 0.0
H790 H 0.6465 0.49789 0.0258 0.0
H791 H 0.58489 0.58072 0.93336 0.0
H792 H 0.64733 0.49724 0.87771 0.0
H793 H 0.60766 0.50848 0.85049 0.0
H794 H 0.64194 0.54392 0.86269 0.0
H795 H 0.5922 0.58203 0.8845 0.0
H796 H 0.55302 0.55704 0.90292 0.0
C797 C 0.57735 0.46652 0.04441 0.0
C798 C 0.62676 0.42237 0.01873 0.0
C799 C 0.4785 0.45336 0.83898 0.0
C800 C 0.4749 0.48448 0.81716 0.0
C801 C 0.50271 0.51261 0.8191 0.0
C802 C 0.53265 0.51067 0.84481 0.0
C803 C 0.53387 0.48082 0.86916 0.0
C804 C 0.50739 0.45249 0.86532 0.0
C805 C 0.50947 0.42555 0.89609 0.0
C806 C 0.5408 0.44291 0.91996 0.0
C807 C 0.55555 0.47474 0.90384 0.0
C808 C 0.47171 0.42539 0.91619 0.0
C809 C 0.52026 0.38758 0.879 0.0
C810 C 0.66497 0.55964 0.94133 0.0
C811 C 0.68854 0.56222 0.97294 0.0
C812 C 0.68057 0.54033 0.00364 0.0
C813 C 0.65075 0.51446 0.00195 0.0
C814 C 0.6284 0.51094 0.96944 0.0
C815 C 0.63491 0.53427 0.94033 0.0
C816 C 0.60665 0.52865 0.90914 0.0
C817 C 0.58456 0.49559 0.92263 0.0
C818 C 0.59726 0.48528 0.95808 0.0
C819 C 0.583 0.56385 0.90706 0.0
C820 C 0.62681 0.51918 0.87291 0.0
H821 H 0.50214 0.36716 0.94584 0.0
H822 H 0.56312 0.38809 0.06999 0.0
H823 H 0.62898 0.39592 0.00248 0.0
H824 H 0.64895 0.44072 0.00849 0.0
H825 H 0.63281 0.41655 0.04834 0.0
H826 H 0.54678 0.46985 0.0447 0.0
H827 H 0.58648 0.45715 0.0722 0.0
H828 H 0.58921 0.49453 0.04026 0.0
H829 H 0.4568 0.43194 0.83849 0.0
H830 H 0.49995 0.5371 0.80268 0.0
H831 H 0.55259 0.53329 0.8461 0.0
H832 H 0.45739 0.45208 0.91311 0.0
H833 H 0.45258 0.40303 0.90482 0.0
H834 H 0.47462 0.4227 0.94653 0.0
H835 H 0.53868 0.39122 0.85501 0.0
H836 H 0.53649 0.37091 0.89859 0.0
H837 H 0.49533 0.37123 0.86884 0.0
H838 H 0.48478 0.32879 0.99554 0.0
C839 C 0.51607 0.37266 0.97206 0.0
C840 C 0.82811 0.11778 0.27137 0.0
C841 C 0.82301 0.08863 0.2453 0.0
C842 C 0.79742 0.09219 0.21549 0.0
C843 C 0.77842 0.1512 0.24208 0.0
C844 C 0.80542 0.1482 0.26967 0.0
C845 C 0.80404 0.17794 0.29918 0.0
H846 H 0.7164 0.31918 0.37983 0.0
C847 C 0.75633 0.184 0.25185 0.0
C848 C 0.77136 0.19939 0.28536 0.0
H849 H 0.81587 0.26502 0.41694 0.0
H850 H 0.81405 0.22665 0.36194 0.0
H851 H 0.67212 0.24335 0.34649 0.0
H852 H 0.74028 0.3278 0.29826 0.0
H853 H 0.70819 0.31286 0.26321 0.0
H854 H 0.69184 0.33423 0.30541 0.0
H855 H 0.65917 0.29078 0.34253 0.0
H856 H 0.65 0.25744 0.30528 0.0
C857 C 0.79639 0.15924 0.33674 0.0
C858 C 0.84076 0.20128 0.29843 0.0
C859 C 0.64316 0.21809 0.17348 0.0
C860 C 0.61713 0.24622 0.17749 0.0
C861 C 0.62162 0.27202 0.20745 0.0
C862 C 0.65084 0.26949 0.23339 0.0
C863 C 0.67597 0.24077 0.22964 0.0
C864 C 0.67238 0.21596 0.1998 0.0
C865 C 0.70214 0.18743 0.20056 0.0
C866 C 0.72425 0.19962 0.23546 0.0
C867 C 0.70828 0.23058 0.25262 0.0
C868 C 0.68317 0.14881 0.20436 0.0
C869 C 0.72532 0.19121 0.16534 0.0
C870 C 0.7375 0.29872 0.37619 0.0
C871 C 0.76609 0.2949 0.40309 0.0
C872 C 0.79343 0.26849 0.39688 0.0
C873 C 0.79239 0.24616 0.36472 0.0
C874 C 0.76357 0.24987 0.33831 0.0
C875 C 0.73693 0.27601 0.34395 0.0
C876 C 0.70917 0.27644 0.31196 0.0
C877 C 0.72323 0.24555 0.28686 0.0
C878 C 0.75483 0.23014 0.30275 0.0
C879 C 0.67042 0.26673 0.32709 0.0
C880 C 0.71214 0.31479 0.29375 0.0
H881 H 0.75498 0.12442 0.19119 0.0
H882 H 0.84763 0.11567 0.29457 0.0
H883 H 0.85095 0.20319 0.26965 0.0
H884 H 0.83751 0.23038 0.30783 0.0
H885 H 0.86293 0.18873 0.31552 0.0
H886 H 0.78077 0.13239 0.33246 0.0
H887 H 0.82266 0.15351 0.35203 0.0
H888 H 0.77857 0.17563 0.35502 0.0
H889 H 0.64059 0.19787 0.15077 0.0
H890 H 0.60223 0.29411 0.21118 0.0
H891 H 0.65245 0.2898 0.25563 0.0
H892 H 0.65934 0.15039 0.22327 0.0
H893 H 0.6724 0.13768 0.17702 0.0
H894 H 0.70169 0.12845 0.21676 0.0
H895 H 0.73105 0.22092 0.15965 0.0
H896 H 0.75276 0.17864 0.16809 0.0
H897 H 0.71027 0.1785 0.14069 0.0
H898 H 0.79305 0.06978 0.19513 0.0
C899 C 0.77506 0.12358 0.21366 0.0
C900 C 0.33435 0.99411 0.99786 0.0
C901 C 0.32338 0.96598 0.97187 0.0
C902 C 0.33746 0.9663 0.93595 0.0
C903 C 0.37914 0.01721 0.95454 0.0
C904 C 0.36198 0.02001 0.98825 0.0
C905 C 0.37849 0.05149 0.01215 0.0
H906 H 0.51284 0.18512 0.03945 0.0
C907 C 0.41164 0.04277 0.95569 0.0
C908 C 0.41099 0.06383 0.98878 0.0
H909 H 0.41111 0.16951 0.09847 0.0
H910 H 0.39604 0.11419 0.06169 0.0
H911 H 0.47862 0.17058 0.95951 0.0
H912 H 0.53037 0.09065 0.03011 0.0
H913 H 0.54675 0.08601 0.9847 0.0
H914 H 0.55624 0.12848 0.011 0.0
H915 H 0.52742 0.17306 0.97116 0.0
H916 H 0.50926 0.14352 0.9336 0.0
C917 C 0.34895 0.0818 0.01578 0.0
C918 C 0.39187 0.03605 0.04968 0.0
C919 C 0.51262 0.01811 0.86496 0.0
C920 C 0.54886 0.03202 0.86115 0.0
C921 C 0.56138 0.06275 0.8835 0.0
C922 C 0.53839 0.07794 0.91076 0.0
C923 C 0.50258 0.06234 0.91532 0.0
C924 C 0.49017 0.03346 0.89187 0.0
C925 C 0.45177 0.01979 0.89996 0.0
C926 C 0.44322 0.04436 0.93317 0.0
C927 C 0.47299 0.06919 0.94239 0.0
C928 C 0.42604 0.02714 0.86587 0.0
C929 C 0.45413 0.97838 0.90998 0.0
C930 C 0.48788 0.16906 0.04494 0.0
C931 C 0.46317 0.18131 0.07196 0.0
C932 C 0.43046 0.16043 0.07783 0.0
C933 C 0.42151 0.12864 0.05615 0.0
C934 C 0.44517 0.11788 0.02781 0.0
C935 C 0.47805 0.1375 0.02277 0.0
C936 C 0.49851 0.1226 0.98977 0.0
C937 C 0.47121 0.09266 0.97465 0.0
C938 C 0.44039 0.08976 0.99762 0.0
C939 C 0.50408 0.154 0.96196 0.0
C940 C 0.53507 0.10619 0.00435 0.0
H941 H 0.37617 0.98978 0.89982 0.0
H942 H 0.32351 0.99436 0.02558 0.0
H943 H 0.40805 0.01063 0.04505 0.0
H944 H 0.41036 0.05572 0.06579 0.0
H945 H 0.36796 0.02875 0.06711 0.0
H946 H 0.32581 0.07773 0.99492 0.0
H947 H 0.33641 0.0819 0.04359 0.0
H948 H 0.36069 0.10985 0.01068 0.0
H949 H 0.50195 0.9951 0.84756 0.0
H950 H 0.58923 0.07415 0.88074 0.0
H951 H 0.54947 0.10087 0.9275 0.0
H952 H 0.43825 0.04833 0.84758 0.0
H953 H 0.42072 0.00152 0.8486 0.0
H954 H 0.39915 0.03857 0.87413 0.0
H955 H 0.47779 0.97431 0.92976 0.0
H956 H 0.42947 0.96732 0.92366 0.0
H957 H 0.45845 0.96075 0.88482 0.0
H958 H 0.3292 0.94471 0.9157 0.0
C959 C 0.3651 0.99207 0.92701 0.0
Zn960 Zn 0.30534 0.8552 -0.00032 0.0
Zn961 Zn 0.23756 0.87919 0.98743 0.0
O962 O 0.23487 0.8587 0.04072 0.0
O963 O 0.29239 0.84149 0.05072 0.0
O964 O 0.18687 0.89853 0.97724 0.0
O965 O 0.32719 0.90533 0.9914 0.0
O966 O 0.27098 0.92601 0.98114 0.0
C967 C 0.25974 0.84532 0.0618 0.0
C968 C 0.26901 0.81913 0.93673 0.0
O969 O 0.24292 0.84063 0.94511 0.0
O970 O 0.29848 0.81925 0.95659 0.0
C971 C 0.1572 0.88576 0.99091 0.0
O972 O 0.15868 0.85784 0.01345 0.0
C973 C 0.30599 0.93151 0.98384 0.0
Zn974 Zn 0.10014 0.44897 0.29509 0.0
Zn975 Zn 0.12949 0.51194 0.27391 0.0
O976 O 0.09782 0.53011 0.31739 0.0
O977 O 0.0675 0.47818 0.32895 0.0
O978 O 0.15437 0.55901 0.25787 0.0
O979 O 0.1494 0.43119 0.31355 0.0
O980 O 0.17451 0.47978 0.28738 0.0
C981 C 0.073 0.51265 0.33494 0.0
C982 C 0.08366 0.46196 0.21893 0.0
O983 O 0.09875 0.49343 0.22759 0.0
O984 O 0.08284 0.43647 0.24232 0.0
C985 C 0.14088 0.58145 0.23487 0.0
O986 O 0.10803 0.57424 0.21934 0.0
C987 C 0.17797 0.44937 0.30417 0.0
Zn988 Zn 0.79538 0.6029 0.94577 0.0
Zn989 Zn 0.78343 0.63421 0.01088 0.0
O990 O 0.82865 0.6034 0.02387 0.0
O991 O 0.83391 0.57231 0.97106 0.0
O992 O 0.77552 0.66134 0.05903 0.0
O993 O 0.81021 0.65127 0.9235 0.0
O994 O 0.79204 0.67774 0.97535 0.0
C995 C 0.84409 0.57849 0.00461 0.0
C996 C 0.72339 0.58439 0.97217 0.0
O997 O 0.7362 0.60149 0.00133 0.0
O998 O 0.7421 0.58357 0.94293 0.0
C999 C 0.75422 0.65187 0.08486 0.0
O1000 O 0.73353 0.62144 0.08097 0.0
C1001 C 0.80406 0.68026 0.94253 0.0
Zn1002 Zn 0.85994 0.9964 0.30432 0.0
Zn1003 Zn 0.88144 0.98292 0.23587 0.0
O1004 O 0.85405 0.03242 0.22989 0.0
O1005 O 0.83937 0.04385 0.28794 0.0
O1006 O 0.89983 0.97012 0.18522 0.0
O1007 O 0.91203 0.99537 0.32359 0.0
O1008 O 0.93092 0.98574 0.26662 0.0
C1009 C 0.8395 0.05311 0.25436 0.0
C1010 C 0.82844 0.92896 0.27476 0.0
O1011 O 0.84762 0.93793 0.24702 0.0
O1012 O 0.82824 0.95006 0.30332 0.0
C1013 C 0.88695 0.98246 0.15502 0.0
O1014 O 0.85889 0.00489 0.15564 0.0
C1015 C 0.93798 0.99078 0.3012 0.0
Zn1016 Zn 0.29538 0.1029 0.44577 0.0
Zn1017 Zn 0.28343 0.13422 0.51089 0.0
O1018 O 0.32865 0.1034 0.52387 0.0
O1019 O 0.33391 0.07231 0.47106 0.0
O1020 O 0.27552 0.16134 0.55903 0.0
O1021 O 0.31021 0.15127 0.4235 0.0
O1022 O 0.29204 0.17774 0.47535 0.0
C1023 C 0.34409 0.07849 0.50461 0.0
C1024 C 0.2234 0.08439 0.47217 0.0
O1025 O 0.2362 0.10149 0.50133 0.0
O1026 O 0.2421 0.08357 0.44294 0.0
C1027 C 0.25422 0.15187 0.58486 0.0
O1028 O 0.23353 0.12145 0.58097 0.0
C1029 C 0.30406 0.18026 0.44253 0.0
Zn1030 Zn 0.35994 0.49641 0.80431 0.0
Zn1031 Zn 0.38144 0.48292 0.73586 0.0
O1032 O 0.35406 0.53242 0.72988 0.0
O1033 O 0.33937 0.54386 0.78793 0.0
O1034 O 0.39983 0.47012 0.68522 0.0
O1035 O 0.41203 0.49537 0.82359 0.0
O1036 O 0.43092 0.48575 0.76662 0.0
C1037 C 0.33951 0.55311 0.75435 0.0
C1038 C 0.32843 0.42897 0.77476 0.0
O1039 O 0.34762 0.43793 0.74702 0.0
O1040 O 0.32824 0.45007 0.80332 0.0
C1041 C 0.38695 0.48246 0.65501 0.0
O1042 O 0.35889 0.50488 0.65564 0.0
C1043 C 0.43798 0.49078 0.80119 0.0
Zn1044 Zn 0.80534 0.3552 0.49968 0.0
Zn1045 Zn 0.73756 0.37919 0.48744 0.0
O1046 O 0.73487 0.35871 0.54072 0.0
O1047 O 0.79239 0.3415 0.55072 0.0
O1048 O 0.68687 0.39853 0.47724 0.0
O1049 O 0.82719 0.40533 0.4914 0.0
O1050 O 0.77098 0.42601 0.48115 0.0
C1051 C 0.75974 0.34532 0.5618 0.0
C1052 C 0.76901 0.31913 0.43673 0.0
O1053 O 0.74292 0.34063 0.44511 0.0
O1054 O 0.79848 0.31924 0.4566 0.0
C1055 C 0.6572 0.38576 0.4909 0.0
O1056 O 0.65868 0.35784 0.51345 0.0
C1057 C 0.80599 0.43151 0.48384 0.0
Zn1058 Zn 0.60014 0.94897 0.79509 0.0
Zn1059 Zn 0.62949 0.01194 0.77391 0.0
O1060 O 0.59782 0.03011 0.81739 0.0
O1061 O 0.5675 0.97819 0.82895 0.0
O1062 O 0.65437 0.05901 0.75787 0.0
O1063 O 0.6494 0.93119 0.81355 0.0
O1064 O 0.67451 0.97978 0.78738 0.0
C1065 C 0.573 0.01265 0.83494 0.0
C1066 C 0.58366 0.96196 0.71893 0.0
O1067 O 0.59875 0.99343 0.72759 0.0
O1068 O 0.58284 0.93647 0.74232 0.0
C1069 C 0.64088 0.08145 0.73487 0.0
O1070 O 0.60803 0.07424 0.71934 0.0
C1071 C 0.67797 0.94937 0.80417 0.0
Zn1072 Zn 0.99303 0.29346 0.84548 0.0
Zn1073 Zn 0.98693 0.22941 0.87976 0.0
O1074 O 0.03743 0.22516 0.85399 0.0
O1075 O 0.04305 0.27971 0.82836 0.0
O1076 O 0.9795 0.181 0.90448 0.0
O1077 O 0.98812 0.32 0.89426 0.0
O1078 O 0.9846 0.26732 0.92359 0.0
C1079 C 0.0558 0.24825 0.83512 0.0
C1080 C 0.9285 0.2518 0.82144 0.0
O1081 O 0.9408 0.22965 0.8454 0.0
O1082 O 0.94666 0.28128 0.81489 0.0
C1083 C 0.99041 0.15046 0.89102 0.0
O1084 O 0.00867 0.15001 0.85998 0.0
C1085 C 0.98513 0.30258 0.92403 0.0
Zn1086 Zn 0.49303 0.79346 0.34548 0.0
Zn1087 Zn 0.48693 0.72941 0.37976 0.0
O1088 O 0.53743 0.72515 0.35399 0.0
O1089 O 0.54305 0.7797 0.32836 0.0
O1090 O 0.4795 0.681 0.40448 0.0
O1091 O 0.48812 0.82 0.39426 0.0
O1092 O 0.4846 0.76732 0.42359 0.0
C1093 C 0.5558 0.74825 0.33512 0.0
C1094 C 0.4285 0.7518 0.32144 0.0
O1095 O 0.4408 0.72965 0.3454 0.0
O1096 O 0.44666 0.78128 0.31489 0.0
C1097 C 0.49041 0.65046 0.39102 0.0
O1098 O 0.50866 0.65001 0.35997 0.0
C1099 C 0.48513 0.80258 0.42403 0.0
Zn1100 Zn 0.94794 0.79358 0.602 0.0
Zn1101 Zn 0.01261 0.78065 0.62967 0.0
O1102 O 0.0265 0.82134 0.59254 0.0
O1103 O 0.97186 0.82546 0.56459 0.0
O1104 O 0.06063 0.77279 0.65763 0.0
O1105 O 0.92755 0.81578 0.64818 0.0
O1106 O 0.97847 0.7946 0.67366 0.0
C1107 C 0.00607 0.83423 0.56688 0.0
C1108 C 0.96772 0.71846 0.58956 0.0
O1109 O -0.00083 0.73064 0.60232 0.0
O1110 O 0.93999 0.7392 0.58957 0.0
C1111 C 0.08474 0.74847 0.65161 0.0
O1112 O 0.07981 0.72476 0.62353 0.0
C1113 C 0.94692 0.80941 0.67687 0.0
Zn1114 Zn 0.44794 0.29358 0.102 0.0
Zn1115 Zn 0.51261 0.28065 0.12967 0.0
O1116 O 0.5265 0.32134 0.09254 0.0
O1117 O 0.47186 0.32546 0.06459 0.0
O1118 O 0.56063 0.27279 0.15763 0.0
O1119 O 0.42755 0.31578 0.14818 0.0
O1120 O 0.47847 0.2946 0.17366 0.0
C1121 C 0.50607 0.33423 0.06688 0.0
C1122 C 0.46773 0.21846 0.08956 0.0
O1123 O 0.49917 0.23064 0.10232 0.0
O1124 O 0.43999 0.2392 0.08957 0.0
C1125 C 0.58474 0.24847 0.15161 0.0
O1126 O 0.57981 0.22476 0.12354 0.0
C1127 C 0.44692 0.30941 0.17687 0.0
loop_
_geom_bond_atom_site_label_1
_geom_bond_atom_site_label_2
_geom_bond_distance
_geom_bond_site_symmetry_2
_ccdc_geom_bond_type
C0 C1 1.391 . S
C0 C4 1.391 . S
C0 H42 0.948 . S
C1 C0 1.391 . S
C1 C2 1.391 1_455 S
C2 C1 1.391 1_655 S
C2 H58 0.947 . S
C2 C59 1.392 1_556 S
C3 C4 1.391 1_554 S
C3 C7 1.397 . S
C3 C59 1.419 1_455 S
C4 C0 1.391 . S
C4 C3 1.391 1_556 S
C4 C5 1.399 . S
C5 C4 1.399 . S
C5 C8 1.396 1_556 S
C5 C17 1.453 . S
C5 C18 1.684 . S
H6 C30 0.948 . S
C7 C3 1.397 . S
C7 C8 1.394 . S
C7 C26 1.723 . S
C8 C5 1.396 1_554 S
C8 C7 1.394 . S
C8 C38 1.723 . S
H9 C32 0.947 . S
H10 C33 0.948 . S
H11 C39 0.982 . S
H12 C40 0.979 . S
H13 C40 0.980 . S
H14 C40 0.983 . S
H15 C39 0.979 . S
H16 C39 0.977 . S
C17 C5 1.453 . S
C17 H46 0.982 . S
C17 H47 0.979 . S
C17 H48 0.977 . S
C18 C5 1.684 . S
C18 H43 0.979 . S
C18 H44 0.980 . S
C18 H45 0.983 . S
C19 C20 1.391 . S
C19 C24 1.391 . S
C19 H49 0.948 . S
C20 C19 1.391 . S
C20 C21 1.391 1_545 S
C21 C20 1.391 1_565 S
C21 C22 1.392 1_655 S
C21 H50 0.947 . S
C22 C21 1.392 1_455 S
C22 C23 1.419 1_565 S
C22 H51 0.948 . S
C23 C22 1.419 1_545 S
C23 C24 1.391 1_455 S
C23 C27 1.397 . S
C24 C19 1.391 . S
C24 C23 1.391 1_655 S
C24 C25 1.399 . S
C25 C24 1.399 . S
C25 C26 1.396 1_655 S
C25 C28 1.453 . S
C25 C29 1.684 . S
C26 C7 1.723 . S
C26 C25 1.396 1_455 S
C26 C27 1.394 . S
C27 C23 1.397 . S
C27 C26 1.394 . S
C27 C37 1.723 . S
C28 C25 1.453 . S
C28 H52 0.982 . S
C28 H53 0.979 . S
C28 H54 0.977 . S
C29 C25 1.684 . S
C29 H55 0.979 . S
C29 H56 0.980 . S
C29 H57 0.983 . S
C30 H6 0.948 . S
C30 C31 1.391 . S
C30 C35 1.391 . S
C31 C30 1.391 . S
C31 C32 1.391 1_554 S
C32 H9 0.947 . S
C32 C31 1.391 1_556 S
C32 C33 1.392 1_565 S
C33 H10 0.948 . S
C33 C32 1.392 1_545 S
C33 C34 1.419 1_556 S
C34 C33 1.419 1_554 S
C34 C35 1.391 1_545 S
C34 C38 1.397 . S
C35 C30 1.391 . S
C35 C34 1.391 1_565 S
C35 C36 1.399 . S
C36 C35 1.399 . S
C36 C37 1.396 1_565 S
C36 C39 1.453 . S
C36 C40 1.684 . S
C37 C27 1.723 . S
C37 C36 1.396 1_545 S
C37 C38 1.394 . S
C38 C8 1.723 . S
C38 C34 1.397 . S
C38 C37 1.394 . S
C39 H11 0.982 . S
C39 H15 0.979 . S
C39 H16 0.977 . S
C39 C36 1.453 . S
C40 H12 0.979 . S
C40 H13 0.980 . S
C40 H14 0.983 . S
C40 C36 1.684 . S
H41 C59 0.948 . S
H42 C0 0.948 . S
H43 C18 0.979 . S
H44 C18 0.980 . S
H45 C18 0.983 . S
H46 C17 0.982 . S
H47 C17 0.979 . S
H48 C17 0.977 . S
H49 C19 0.948 . S
H50 C21 0.947 . S
H51 C22 0.948 . S
H52 C28 0.982 . S
H53 C28 0.979 . S
H54 C28 0.977 . S
H55 C29 0.979 . S
H56 C29 0.980 . S
H57 C29 0.983 . S
H58 C2 0.947 . S
C59 C2 1.392 1_554 S
C59 C3 1.419 1_655 S
C59 H41 0.948 . S
C60 C61 1.391 . S
C60 C64 1.391 . S
C60 H102 0.948 . S
C61 C60 1.391 . S
C61 C62 1.391 . S
C62 C61 1.391 . S
C62 H118 0.947 . S
C62 C119 1.392 . S
C63 C64 1.391 . S
C63 C67 1.397 . S
C63 C119 1.419 . S
C64 C60 1.391 . S
C64 C63 1.391 . S
C64 C65 1.399 . S
C65 C64 1.399 . S
C65 C68 1.396 . S
C65 C77 1.453 . S
C65 C78 1.684 . S
H66 C90 0.948 . S
C67 C63 1.397 . S
C67 C68 1.394 . S
C67 C86 1.723 . S
C68 C65 1.396 . S
C68 C67 1.394 . S
C68 C98 1.723 . S
H69 C92 0.947 . S
H70 C93 0.948 . S
H71 C99 0.982 . S
H72 C100 0.979 . S
H73 C100 0.980 . S
H74 C100 0.983 . S
H75 C99 0.979 . S
H76 C99 0.977 . S
C77 C65 1.453 . S
C77 H106 0.982 . S
C77 H107 0.979 . S
C77 H108 0.977 . S
C78 C65 1.684 . S
C78 H103 0.979 . S
C78 H104 0.980 . S
C78 H105 0.983 . S
C79 C80 1.391 . S
C79 C84 1.391 . S
C79 H109 0.948 . S
C80 C79 1.391 . S
C80 C81 1.391 . S
C81 C80 1.391 . S
C81 C82 1.392 . S
C81 H110 0.947 . S
C82 C81 1.392 . S
C82 C83 1.419 . S
C82 H111 0.948 . S
C83 C82 1.419 . S
C83 C84 1.391 . S
C83 C87 1.397 . S
C84 C79 1.391 . S
C84 C83 1.391 . S
C84 C85 1.399 . S
C85 C84 1.399 . S
C85 C86 1.396 . S
C85 C88 1.453 . S
C85 C89 1.684 . S
C86 C67 1.723 . S
C86 C85 1.396 . S
C86 C87 1.394 . S
C87 C83 1.397 . S
C87 C86 1.394 . S
C87 C97 1.723 . S
C88 C85 1.453 . S
C88 H112 0.982 . S
C88 H113 0.979 . S
C88 H114 0.977 . S
C89 C85 1.684 . S
C89 H115 0.979 . S
C89 H116 0.980 . S
C89 H117 0.983 . S
C90 H66 0.948 . S
C90 C91 1.391 . S
C90 C95 1.391 . S
C91 C90 1.391 . S
C91 C92 1.391 . S
C92 H69 0.947 . S
C92 C91 1.391 . S
C92 C93 1.392 . S
C93 H70 0.948 . S
C93 C92 1.392 . S
C93 C94 1.419 . S
C94 C93 1.419 . S
C94 C95 1.391 . S
C94 C98 1.397 . S
C95 C90 1.391 . S
C95 C94 1.391 . S
C95 C96 1.399 . S
C96 C95 1.399 . S
C96 C97 1.396 . S
C96 C99 1.453 . S
C96 C100 1.684 . S
C97 C87 1.723 . S
C97 C96 1.396 . S
C97 C98 1.394 . S
C98 C68 1.723 . S
C98 C94 1.397 . S
C98 C97 1.394 . S
C99 H71 0.982 . S
C99 H75 0.979 . S
C99 H76 0.977 . S
C99 C96 1.453 . S
C100 H72 0.979 . S
C100 H73 0.980 . S
C100 H74 0.983 . S
C100 C96 1.684 . S
H101 C119 0.948 . S
H102 C60 0.948 . S
H103 C78 0.979 . S
H104 C78 0.980 . S
H105 C78 0.983 . S
H106 C77 0.982 . S
H107 C77 0.979 . S
H108 C77 0.977 . S
H109 C79 0.948 . S
H110 C81 0.947 . S
H111 C82 0.948 . S
H112 C88 0.982 . S
H113 C88 0.979 . S
H114 C88 0.977 . S
H115 C89 0.979 . S
H116 C89 0.980 . S
H117 C89 0.983 . S
H118 C62 0.947 . S
C119 C62 1.392 . S
C119 C63 1.419 . S
C119 H101 0.948 . S
C120 C121 1.391 . S
C120 C124 1.391 1_556 S
C120 H162 0.948 1_655 S
C121 C120 1.391 . S
C121 C122 1.391 . S
C122 C121 1.391 . S
C122 H178 0.947 . S
C122 C179 1.392 . S
C123 C124 1.391 . S
C123 C127 1.396 . S
C123 C179 1.420 1_554 S
C124 C120 1.391 1_554 S
C124 C123 1.391 . S
C124 C125 1.399 1_655 S
C125 C124 1.399 1_455 S
C125 C128 1.396 1_455 S
C125 C137 1.453 . S
C125 C138 1.684 . S
H126 C150 0.948 . S
C127 C123 1.396 . S
C127 C128 1.394 . S
C127 C146 1.723 . S
C128 C125 1.396 1_655 S
C128 C127 1.394 . S
C128 C158 1.723 . S
H129 C152 0.947 . S
H130 C153 0.948 . S
H131 C159 0.982 . S
H132 C160 0.979 . S
H133 C160 0.980 . S
H134 C160 0.983 . S
H135 C159 0.979 . S
H136 C159 0.977 . S
C137 C125 1.453 . S
C137 H166 0.982 1_455 S
C137 H167 0.979 . S
C137 H168 0.977 . S
C138 C125 1.684 . S
C138 H163 0.979 . S
C138 H164 0.980 . S
C138 H165 0.983 . S
C139 C140 1.391 . S
C139 C144 1.391 . S
C139 H169 0.948 1_554 S
C140 C139 1.391 . S
C140 C141 1.391 . S
C141 C140 1.391 . S
C141 C142 1.392 . S
C141 H170 0.947 . S
C142 C141 1.392 . S
C142 C143 1.419 . S
C142 H171 0.948 . S
C143 C142 1.419 . S
C143 C144 1.391 . S
C143 C147 1.397 . S
C144 C139 1.391 . S
C144 C143 1.391 . S
C144 C145 1.399 . S
C145 C144 1.399 . S
C145 C146 1.396 . S
C145 C148 1.453 1_554 S
C145 C149 1.684 1_554 S
C146 C127 1.723 . S
C146 C145 1.396 . S
C146 C147 1.394 . S
C147 C143 1.397 . S
C147 C146 1.394 . S
C147 C157 1.723 . S
C148 C145 1.453 1_556 S
C148 H172 0.982 1_556 S
C148 H173 0.979 . S
C148 H174 0.977 . S
C149 C145 1.684 1_556 S
C149 H175 0.979 . S
C149 H176 0.980 . S
C149 H177 0.983 . S
C150 H126 0.948 . S
C150 C151 1.391 . S
C150 C155 1.391 . S
C151 C150 1.391 . S
C151 C152 1.391 . S
C152 H129 0.947 . S
C152 C151 1.391 . S
C152 C153 1.392 . S
C153 H130 0.948 . S
C153 C152 1.392 . S
C153 C154 1.419 . S
C154 C153 1.419 . S
C154 C155 1.391 . S
C154 C158 1.397 1_455 S
C155 C150 1.391 . S
C155 C154 1.391 . S
C155 C156 1.399 1_455 S
C156 C155 1.399 1_655 S
C156 C157 1.396 . S
C156 C159 1.453 . S
C156 C160 1.684 . S
C157 C147 1.723 . S
C157 C156 1.396 . S
C157 C158 1.394 . S
C158 C128 1.723 . S
C158 C154 1.397 1_655 S
C158 C157 1.394 . S
C159 H131 0.982 . S
C159 H135 0.979 . S
C159 H136 0.977 . S
C159 C156 1.453 . S
C160 H132 0.979 . S
C160 H133 0.980 . S
C160 H134 0.983 . S
C160 C156 1.684 . S
H161 C179 0.948 . S
H162 C120 0.948 1_455 S
H163 C138 0.979 . S
H164 C138 0.980 . S
H165 C138 0.983 . S
H166 C137 0.982 1_655 S
H167 C137 0.979 . S
H168 C137 0.977 . S
H169 C139 0.948 1_556 S
H170 C141 0.947 . S
H171 C142 0.948 . S
H172 C148 0.982 1_554 S
H173 C148 0.979 . S
H174 C148 0.977 . S
H175 C149 0.979 . S
H176 C149 0.980 . S
H177 C149 0.983 . S
H178 C122 0.947 . S
C179 C122 1.392 . S
C179 C123 1.420 1_556 S
C179 H161 0.948 . S
C180 C181 1.391 . S
C180 C184 1.391 . S
C180 H222 0.948 . S
C181 C180 1.391 . S
C181 C182 1.391 . S
C182 C181 1.391 . S
C182 H238 0.947 . S
C182 C239 1.392 . S
C183 C184 1.391 . S
C183 C187 1.397 . S
C183 C239 1.419 . S
C184 C180 1.391 . S
C184 C183 1.391 . S
C184 C185 1.399 . S
C185 C184 1.399 . S
C185 C188 1.396 . S
C185 C197 1.453 . S
C185 C198 1.684 . S
H186 C210 0.948 . S
C187 C183 1.397 . S
C187 C188 1.394 . S
C187 C206 1.723 . S
C188 C185 1.396 . S
C188 C187 1.394 . S
C188 C218 1.723 . S
H189 C212 0.947 . S
H190 C213 0.948 . S
H191 C219 0.982 . S
H192 C220 0.979 . S
H193 C220 0.980 . S
H194 C220 0.983 . S
H195 C219 0.979 . S
H196 C219 0.977 . S
C197 C185 1.453 . S
C197 H226 0.982 . S
C197 H227 0.979 . S
C197 H228 0.977 . S
C198 C185 1.684 . S
C198 H223 0.979 . S
C198 H224 0.980 . S
C198 H225 0.983 . S
C199 C200 1.391 . S
C199 C204 1.391 . S
C199 H229 0.948 . S
C200 C199 1.391 . S
C200 C201 1.391 . S
C201 C200 1.391 . S
C201 C202 1.392 . S
C201 H230 0.947 . S
C202 C201 1.392 . S
C202 C203 1.419 . S
C202 H231 0.948 . S
C203 C202 1.419 . S
C203 C204 1.391 . S
C203 C207 1.397 . S
C204 C199 1.391 . S
C204 C203 1.391 . S
C204 C205 1.399 . S
C205 C204 1.399 . S
C205 C206 1.396 . S
C205 C208 1.453 . S
C205 C209 1.684 . S
C206 C187 1.723 . S
C206 C205 1.396 . S
C206 C207 1.394 . S
C207 C203 1.397 . S
C207 C206 1.394 . S
C207 C217 1.723 . S
C208 C205 1.453 . S
C208 H232 0.982 . S
C208 H233 0.979 . S
C208 H234 0.977 . S
C209 C205 1.684 . S
C209 H235 0.979 . S
C209 H236 0.980 . S
C209 H237 0.983 . S
C210 H186 0.948 . S
C210 C211 1.391 . S
C210 C215 1.391 . S
C211 C210 1.391 . S
C211 C212 1.391 . S
C212 H189 0.947 . S
C212 C211 1.391 . S
C212 C213 1.392 . S
C213 H190 0.948 . S
C213 C212 1.392 . S
C213 C214 1.419 . S
C214 C213 1.419 . S
C214 C215 1.391 . S
C214 C218 1.397 . S
C215 C210 1.391 . S
C215 C214 1.391 . S
C215 C216 1.399 . S
C216 C215 1.399 . S
C216 C217 1.396 . S
C216 C219 1.453 . S
C216 C220 1.684 . S
C217 C207 1.723 . S
C217 C216 1.396 . S
C217 C218 1.394 . S
C218 C188 1.723 . S
C218 C214 1.397 . S
C218 C217 1.394 . S
C219 H191 0.982 . S
C219 H195 0.979 . S
C219 H196 0.977 . S
C219 C216 1.453 . S
C220 H192 0.979 . S
C220 H193 0.980 . S
C220 H194 0.983 . S
C220 C216 1.684 . S
H221 C239 0.948 . S
H222 C180 0.948 . S
H223 C198 0.979 . S
H224 C198 0.980 . S
H225 C198 0.983 . S
H226 C197 0.982 . S
H227 C197 0.979 . S
H228 C197 0.977 . S
H229 C199 0.948 . S
H230 C201 0.947 . S
H231 C202 0.948 . S
H232 C208 0.982 . S
H233 C208 0.979 . S
H234 C208 0.977 . S
H235 C209 0.979 . S
H236 C209 0.980 . S
H237 C209 0.983 . S
H238 C182 0.947 . S
C239 C182 1.392 . S
C239 C183 1.419 . S
C239 H221 0.948 . S
C240 C241 1.391 . S
C240 C244 1.391 . S
C240 H282 0.948 . S
C241 C240 1.391 . S
C241 C242 1.391 . S
C242 C241 1.391 . S
C242 H298 0.947 1_455 S
C242 C299 1.392 . S
C243 C244 1.391 . S
C243 C247 1.397 . S
C243 C299 1.419 . S
C244 C240 1.391 . S
C244 C243 1.391 . S
C244 C245 1.399 . S
C245 C244 1.399 . S
C245 C248 1.396 . S
C245 C257 1.453 . S
C245 C258 1.684 . S
H246 C270 0.948 . S
C247 C243 1.397 . S
C247 C248 1.394 . S
C247 C266 1.723 . S
C248 C245 1.396 . S
C248 C247 1.394 . S
C248 C278 1.723 . S
H249 C272 0.947 . S
H250 C273 0.948 . S
H251 C279 0.982 . S
H252 C280 0.979 . S
H253 C280 0.980 . S
H254 C280 0.983 . S
H255 C279 0.979 . S
H256 C279 0.977 . S
C257 C245 1.453 . S
C257 H286 0.982 . S
C257 H287 0.979 . S
C257 H288 0.977 . S
C258 C245 1.684 . S
C258 H283 0.979 . S
C258 H284 0.980 . S
C258 H285 0.983 . S
C259 C260 1.391 . S
C259 C264 1.391 . S
C259 H289 0.948 . S
C260 C259 1.391 . S
C260 C261 1.391 1_565 S
C261 C260 1.391 1_545 S
C261 C262 1.389 1_645 S
C261 H290 0.947 . S
C262 C261 1.389 1_465 S
C262 C263 1.436 . S
C262 H291 0.934 1_565 S
C263 C262 1.436 . S
C263 C264 1.391 1_455 S
C263 C267 1.397 . S
C264 C259 1.391 . S
C264 C263 1.391 1_655 S
C264 C265 1.399 . S
C265 C264 1.399 . S
C265 C266 1.396 1_655 S
C265 C268 1.453 . S
C265 C269 1.684 . S
C266 C247 1.723 . S
C266 C265 1.396 1_455 S
C266 C267 1.394 . S
C267 C263 1.397 . S
C267 C266 1.394 . S
C267 C277 1.723 . S
C268 C265 1.453 . S
C268 H292 0.982 . S
C268 H293 0.979 . S
C268 H294 0.977 . S
C269 C265 1.684 . S
C269 H295 0.979 1_655 S
C269 H296 0.980 . S
C269 H297 0.983 . S
C270 H246 0.948 . S
C270 C271 1.391 . S
C270 C275 1.391 . S
C271 C270 1.391 . S
C271 C272 1.391 . S
C272 H249 0.947 . S
C272 C271 1.391 . S
C272 C273 1.392 1_545 S
C273 H250 0.948 . S
C273 C272 1.392 1_565 S
C273 C274 1.419 . S
C274 C273 1.419 . S
C274 C275 1.391 1_565 S
C274 C278 1.397 . S
C275 C270 1.391 . S
C275 C274 1.391 1_545 S
C275 C276 1.399 . S
C276 C275 1.399 . S
C276 C277 1.396 1_545 S
C276 C279 1.453 . S
C276 C280 1.684 . S
C277 C267 1.723 . S
C277 C276 1.396 1_565 S
C277 C278 1.394 . S
C278 C248 1.723 . S
C278 C274 1.397 . S
C278 C277 1.394 . S
C279 H251 0.982 . S
C279 H255 0.979 . S
C279 H256 0.977 . S
C279 C276 1.453 . S
C280 H252 0.979 . S
C280 H253 0.980 . S
C280 H254 0.983 . S
C280 C276 1.684 . S
H281 C299 0.948 1_655 S
H282 C240 0.948 . S
H283 C258 0.979 . S
H284 C258 0.980 . S
H285 C258 0.983 . S
H286 C257 0.982 . S
H287 C257 0.979 . S
H288 C257 0.977 . S
H289 C259 0.948 . S
H290 C261 0.947 . S
H291 C262 0.934 1_545 S
H292 C268 0.982 . S
H293 C268 0.979 . S
H294 C268 0.977 . S
H295 C269 0.979 1_455 S
H296 C269 0.980 . S
H297 C269 0.983 . S
H298 C242 0.947 1_655 S
C299 C242 1.392 . S
C299 C243 1.419 . S
C299 H281 0.948 1_455 S
C300 C301 1.391 . S
C300 C304 1.391 . S
C300 H342 0.948 . S
C301 C300 1.391 . S
C301 C302 1.391 . S
C302 C301 1.391 . S
C302 H358 0.947 . S
C302 C359 1.392 . S
C303 C304 1.391 . S
C303 C307 1.397 . S
C303 C359 1.419 . S
C304 C300 1.391 . S
C304 C303 1.391 . S
C304 C305 1.399 . S
C305 C304 1.399 . S
C305 C308 1.396 . S
C305 C317 1.453 . S
C305 C318 1.684 . S
H306 C330 0.948 . S
C307 C303 1.397 . S
C307 C308 1.394 . S
C307 C326 1.723 . S
C308 C305 1.396 . S
C308 C307 1.394 . S
C308 C338 1.723 . S
H309 C332 0.947 . S
H310 C333 0.948 . S
H311 C339 0.982 . S
H312 C340 0.979 . S
H313 C340 0.980 . S
H314 C340 0.983 . S
H315 C339 0.979 . S
H316 C339 0.977 . S
C317 C305 1.453 . S
C317 H346 0.982 . S
C317 H347 0.979 . S
C317 H348 0.977 . S
C318 C305 1.684 . S
C318 H343 0.979 . S
C318 H344 0.980 . S
C318 H345 0.983 . S
C319 C320 1.391 . S
C319 C324 1.391 . S
C319 H349 0.948 . S
C320 C319 1.391 . S
C320 C321 1.391 . S
C321 C320 1.391 . S
C321 C322 1.392 . S
C321 H350 0.947 . S
C322 C321 1.392 . S
C322 C323 1.419 . S
C322 H351 0.948 . S
C323 C322 1.419 . S
C323 C324 1.391 . S
C323 C327 1.397 . S
C324 C319 1.391 . S
C324 C323 1.391 . S
C324 C325 1.399 . S
C325 C324 1.399 . S
C325 C326 1.396 . S
C325 C328 1.453 . S
C325 C329 1.684 . S
C326 C307 1.723 . S
C326 C325 1.396 . S
C326 C327 1.394 . S
C327 C323 1.397 . S
C327 C326 1.394 . S
C327 C337 1.723 . S
C328 C325 1.453 . S
C328 H352 0.982 . S
C328 H353 0.979 . S
C328 H354 0.977 . S
C329 C325 1.684 . S
C329 H355 0.979 . S
C329 H356 0.980 . S
C329 H357 0.983 . S
C330 H306 0.948 . S
C330 C331 1.391 . S
C330 C335 1.391 . S
C331 C330 1.391 . S
C331 C332 1.391 . S
C332 H309 0.947 . S
C332 C331 1.391 . S
C332 C333 1.392 . S
C333 H310 0.948 . S
C333 C332 1.392 . S
C333 C334 1.419 . S
C334 C333 1.419 . S
C334 C335 1.391 . S
C334 C338 1.397 . S
C335 C330 1.391 . S
C335 C334 1.391 . S
C335 C336 1.399 . S
C336 C335 1.399 . S
C336 C337 1.396 . S
C336 C339 1.453 . S
C336 C340 1.684 . S
C337 C327 1.723 . S
C337 C336 1.396 . S
C337 C338 1.394 . S
C338 C308 1.723 . S
C338 C334 1.397 . S
C338 C337 1.394 . S
C339 H311 0.982 . S
C339 H315 0.979 . S
C339 H316 0.977 . S
C339 C336 1.453 . S
C340 H312 0.979 . S
C340 H313 0.980 . S
C340 H314 0.983 . S
C340 C336 1.684 . S
H341 C359 0.948 . S
H342 C300 0.948 . S
H343 C318 0.979 . S
H344 C318 0.980 . S
H345 C318 0.983 . S
H346 C317 0.982 . S
H347 C317 0.979 . S
H348 C317 0.977 . S
H349 C319 0.948 . S
H350 C321 0.947 . S
H351 C322 0.948 . S
H352 C328 0.982 . S
H353 C328 0.979 . S
H354 C328 0.977 . S
H355 C329 0.979 . S
H356 C329 0.980 . S
H357 C329 0.983 . S
H358 C302 0.947 . S
C359 C302 1.392 . S
C359 C303 1.419 . S
C359 H341 0.948 . S
C360 C361 1.391 . S
C360 C364 1.391 . S
C360 H402 0.948 . S
C361 C360 1.391 . S
C361 C362 1.391 . S
C362 C361 1.391 . S
C362 H418 0.947 . S
C362 C419 1.392 . S
C363 C364 1.391 . S
C363 C367 1.397 . S
C363 C419 1.419 . S
C364 C360 1.391 . S
C364 C363 1.391 . S
C364 C365 1.399 . S
C365 C364 1.399 . S
C365 C368 1.396 . S
C365 C377 1.453 . S
C365 C378 1.684 . S
H366 C390 0.948 . S
C367 C363 1.397 . S
C367 C368 1.394 . S
C367 C386 1.723 . S
C368 C365 1.396 . S
C368 C367 1.394 . S
C368 C398 1.723 . S
H369 C392 0.947 . S
H370 C393 0.948 . S
H371 C399 0.982 1_655 S
H372 C400 0.979 . S
H373 C400 0.980 . S
H374 C400 0.983 . S
H375 C399 0.979 . S
H376 C399 0.977 . S
C377 C365 1.453 . S
C377 H406 0.982 . S
C377 H407 0.979 . S
C377 H408 0.977 . S
C378 C365 1.684 . S
C378 H403 0.979 . S
C378 H404 0.980 . S
C378 H405 0.983 . S
C379 C380 1.391 . S
C379 C384 1.391 . S
C379 H409 0.948 . S
C380 C379 1.391 . S
C380 C381 1.391 . S
C381 C380 1.391 . S
C381 C382 1.392 . S
C381 H410 0.947 . S
C382 C381 1.392 . S
C382 C383 1.419 . S
C382 H411 0.948 . S
C383 C382 1.419 . S
C383 C384 1.391 . S
C383 C387 1.397 1_455 S
C384 C379 1.391 . S
C384 C383 1.391 . S
C384 C385 1.399 1_455 S
C385 C384 1.399 1_655 S
C385 C386 1.396 . S
C385 C388 1.453 . S
C385 C389 1.684 . S
C386 C367 1.723 . S
C386 C385 1.396 . S
C386 C387 1.394 . S
C387 C383 1.397 1_655 S
C387 C386 1.394 . S
C387 C397 1.723 . S
C388 C385 1.453 . S
C388 H412 0.982 . S
C388 H413 0.979 . S
C388 H414 0.977 . S
C389 C385 1.684 . S
C389 H415 0.979 . S
C389 H416 0.980 . S
C389 H417 0.983 . S
C390 H366 0.948 . S
C390 C391 1.391 1_455 S
C390 C395 1.391 1_455 S
C391 C390 1.391 1_655 S
C391 C392 1.391 . S
C392 H369 0.947 . S
C392 C391 1.391 . S
C392 C393 1.392 . S
C393 H370 0.948 . S
C393 C392 1.392 . S
C393 C394 1.419 . S
C394 C393 1.419 . S
C394 C395 1.391 . S
C394 C398 1.397 . S
C395 C390 1.391 1_655 S
C395 C394 1.391 . S
C395 C396 1.399 1_655 S
C396 C395 1.399 1_455 S
C396 C397 1.396 1_455 S
C396 C399 1.453 . S
C396 C400 1.684 . S
C397 C387 1.723 . S
C397 C396 1.396 1_655 S
C397 C398 1.394 . S
C398 C368 1.723 . S
C398 C394 1.397 . S
C398 C397 1.394 . S
C399 H371 0.982 1_455 S
C399 H375 0.979 . S
C399 H376 0.977 . S
C399 C396 1.453 . S
C400 H372 0.979 . S
C400 H373 0.980 . S
C400 H374 0.983 . S
C400 C396 1.684 . S
H401 C419 0.948 . S
H402 C360 0.948 . S
H403 C378 0.979 . S
H404 C378 0.980 . S
H405 C378 0.983 . S
H406 C377 0.982 . S
H407 C377 0.979 . S
H408 C377 0.977 . S
H409 C379 0.948 . S
H410 C381 0.947 . S
H411 C382 0.948 . S
H412 C388 0.982 . S
H413 C388 0.979 . S
H414 C388 0.977 . S
H415 C389 0.979 . S
H416 C389 0.980 . S
H417 C389 0.983 . S
H418 C362 0.947 . S
C419 C362 1.392 . S
C419 C363 1.419 . S
C419 H401 0.948 . S
C420 C421 1.391 . S
C420 C424 1.391 . S
C420 H462 0.948 . S
C421 C420 1.391 . S
C421 C422 1.391 . S
C422 C421 1.391 . S
C422 H478 0.947 . S
C422 C479 1.392 . S
C423 C424 1.391 . S
C423 C427 1.397 . S
C423 C479 1.419 . S
C424 C420 1.391 . S
C424 C423 1.391 . S
C424 C425 1.399 . S
C425 C424 1.399 . S
C425 C428 1.396 . S
C425 C437 1.453 . S
C425 C438 1.684 . S
H426 C450 0.948 . S
C427 C423 1.397 . S
C427 C428 1.394 . S
C427 C446 1.723 . S
C428 C425 1.396 . S
C428 C427 1.394 . S
C428 C458 1.723 . S
H429 C452 0.947 . S
H430 C453 0.948 . S
H431 C459 0.982 . S
H432 C460 0.979 . S
H433 C460 0.980 . S
H434 C460 0.983 . S
H435 C459 0.979 . S
H436 C459 0.977 . S
C437 C425 1.453 . S
C437 H466 0.982 . S
C437 H467 0.979 . S
C437 H468 0.977 . S
C438 C425 1.684 . S
C438 H463 0.979 . S
C438 H464 0.980 . S
C438 H465 0.983 . S
C439 C440 1.391 . S
C439 C444 1.391 . S
C439 H469 0.948 . S
C440 C439 1.391 . S
C440 C441 1.391 . S
C441 C440 1.391 . S
C441 C442 1.392 . S
C441 H470 0.947 . S
C442 C441 1.392 . S
C442 C443 1.419 . S
C442 H471 0.948 . S
C443 C442 1.419 . S
C443 C444 1.391 . S
C443 C447 1.397 . S
C444 C439 1.391 . S
C444 C443 1.391 . S
C444 C445 1.399 . S
C445 C444 1.399 . S
C445 C446 1.396 . S
C445 C448 1.453 . S
C445 C449 1.684 . S
C446 C427 1.723 . S
C446 C445 1.396 . S
C446 C447 1.394 . S
C447 C443 1.397 . S
C447 C446 1.394 . S
C447 C457 1.723 . S
C448 C445 1.453 . S
C448 H472 0.982 . S
C448 H473 0.979 . S
C448 H474 0.977 . S
C449 C445 1.684 . S
C449 H475 0.979 . S
C449 H476 0.980 . S
C449 H477 0.983 . S
C450 H426 0.948 . S
C450 C451 1.391 . S
C450 C455 1.391 . S
C451 C450 1.391 . S
C451 C452 1.391 . S
C452 H429 0.947 . S
C452 C451 1.391 . S
C452 C453 1.392 . S
C453 H430 0.948 . S
C453 C452 1.392 . S
C453 C454 1.419 . S
C454 C453 1.419 . S
C454 C455 1.391 . S
C454 C458 1.397 . S
C455 C450 1.391 . S
C455 C454 1.391 . S
C455 C456 1.399 . S
C456 C455 1.399 . S
C456 C457 1.396 . S
C456 C459 1.453 . S
C456 C460 1.684 . S
C457 C447 1.723 . S
C457 C456 1.396 . S
C457 C458 1.394 . S
C458 C428 1.723 . S
C458 C454 1.397 . S
C458 C457 1.394 . S
C459 H431 0.982 . S
C459 H435 0.979 . S
C459 H436 0.977 . S
C459 C456 1.453 . S
C460 H432 0.979 . S
C460 H433 0.980 . S
C460 H434 0.983 . S
C460 C456 1.684 . S
H461 C479 0.948 . S
H462 C420 0.948 . S
H463 C438 0.979 . S
H464 C438 0.980 . S
H465 C438 0.983 . S
H466 C437 0.982 . S
H467 C437 0.979 . S
H468 C437 0.977 . S
H469 C439 0.948 . S
H470 C441 0.947 . S
H471 C442 0.948 . S
H472 C448 0.982 . S
H473 C448 0.979 . S
H474 C448 0.977 . S
H475 C449 0.979 . S
H476 C449 0.980 . S
H477 C449 0.983 . S
H478 C422 0.947 . S
C479 C422 1.392 . S
C479 C423 1.419 . S
C479 H461 0.948 . S
C480 C481 1.391 . S
C480 C484 1.391 . S
C480 H522 0.948 . S
C481 C480 1.391 . S
C481 C482 1.391 . S
C482 C481 1.391 . S
C482 H538 0.947 . S
C482 C539 1.392 . S
C483 C484 1.391 . S
C483 C487 1.397 . S
C483 C539 1.419 . S
C484 C480 1.391 . S
C484 C483 1.391 . S
C484 C485 1.399 . S
C485 C484 1.399 . S
C485 C488 1.396 . S
C485 C497 1.453 . S
C485 C498 1.684 . S
H486 C510 0.948 . S
C487 C483 1.397 . S
C487 C488 1.394 . S
C487 C506 1.723 . S
C488 C485 1.396 . S
C488 C487 1.394 . S
C488 C518 1.723 . S
H489 C512 0.947 . S
H490 C513 0.948 . S
H491 C519 0.982 . S
H492 C520 0.979 . S
H493 C520 0.980 . S
H494 C520 0.983 . S
H495 C519 0.979 . S
H496 C519 0.977 . S
C497 C485 1.453 . S
C497 H526 0.982 . S
C497 H527 0.979 . S
C497 H528 0.977 . S
C498 C485 1.684 . S
C498 H523 0.979 . S
C498 H524 0.980 . S
C498 H525 0.983 . S
C499 C500 1.391 . S
C499 C504 1.391 . S
C499 H529 0.948 . S
C500 C499 1.391 . S
C500 C501 1.391 . S
C501 C500 1.391 . S
C501 C502 1.392 . S
C501 H530 0.947 . S
C502 C501 1.392 . S
C502 C503 1.419 . S
C502 H531 0.948 . S
C503 C502 1.419 . S
C503 C504 1.391 . S
C503 C507 1.397 . S
C504 C499 1.391 . S
C504 C503 1.391 . S
C504 C505 1.399 . S
C505 C504 1.399 . S
C505 C506 1.396 . S
C505 C508 1.453 . S
C505 C509 1.684 . S
C506 C487 1.723 . S
C506 C505 1.396 . S
C506 C507 1.394 . S
C507 C503 1.397 . S
C507 C506 1.394 . S
C507 C517 1.723 . S
C508 C505 1.453 . S
C508 H532 0.982 . S
C508 H533 0.979 . S
C508 H534 0.977 . S
C509 C505 1.684 . S
C509 H535 0.979 . S
C509 H536 0.980 . S
C509 H537 0.983 . S
C510 H486 0.948 . S
C510 C511 1.391 . S
C510 C515 1.391 . S
C511 C510 1.391 . S
C511 C512 1.391 . S
C512 H489 0.947 . S
C512 C511 1.391 . S
C512 C513 1.392 . S
C513 H490 0.948 . S
C513 C512 1.392 . S
C513 C514 1.419 . S
C514 C513 1.419 . S
C514 C515 1.391 . S
C514 C518 1.397 . S
C515 C510 1.391 . S
C515 C514 1.391 . S
C515 C516 1.399 . S
C516 C515 1.399 . S
C516 C517 1.396 . S
C516 C519 1.453 . S
C516 C520 1.684 . S
C517 C507 1.723 . S
C517 C516 1.396 . S
C517 C518 1.394 . S
C518 C488 1.723 . S
C518 C514 1.397 . S
C518 C517 1.394 . S
C519 H491 0.982 . S
C519 H495 0.979 . S
C519 H496 0.977 . S
C519 C516 1.453 . S
C520 H492 0.979 . S
C520 H493 0.980 . S
C520 H494 0.983 . S
C520 C516 1.684 . S
H521 C539 0.948 . S
H522 C480 0.948 . S
H523 C498 0.979 . S
H524 C498 0.980 . S
H525 C498 0.983 . S
H526 C497 0.982 . S
H527 C497 0.979 . S
H528 C497 0.977 . S
H529 C499 0.948 . S
H530 C501 0.947 . S
H531 C502 0.948 . S
H532 C508 0.982 . S
H533 C508 0.979 . S
H534 C508 0.977 . S
H535 C509 0.979 . S
H536 C509 0.980 . S
H537 C509 0.983 . S
H538 C482 0.947 . S
C539 C482 1.392 . S
C539 C483 1.419 . S
C539 H521 0.948 . S
C540 C541 1.391 . S
C540 C544 1.391 . S
C540 H582 0.948 . S
C541 C540 1.391 . S
C541 C542 1.391 . S
C542 C541 1.391 . S
C542 H598 0.947 . S
C542 C599 1.392 . S
C543 C544 1.391 . S
C543 C547 1.397 . S
C543 C599 1.419 . S
C544 C540 1.391 . S
C544 C543 1.391 . S
C544 C545 1.399 . S
C545 C544 1.399 . S
C545 C548 1.396 . S
C545 C557 1.453 . S
C545 C558 1.684 . S
H546 C570 0.948 . S
C547 C543 1.397 . S
C547 C548 1.394 . S
C547 C566 1.723 . S
C548 C545 1.396 . S
C548 C547 1.394 . S
C548 C578 1.723 . S
H549 C572 0.947 . S
H550 C573 0.948 . S
H551 C579 0.982 1_565 S
H552 C580 0.979 . S
H553 C580 0.980 . S
H554 C580 0.983 . S
H555 C579 0.979 . S
H556 C579 0.977 . S
C557 C545 1.453 . S
C557 H586 0.982 . S
C557 H587 0.979 . S
C557 H588 0.977 . S
C558 C545 1.684 . S
C558 H583 0.979 . S
C558 H584 0.980 . S
C558 H585 0.983 . S
C559 C560 1.391 . S
C559 C564 1.391 . S
C559 H589 0.948 . S
C560 C559 1.391 . S
C560 C561 1.391 . S
C561 C560 1.391 . S
C561 C562 1.392 . S
C561 H590 0.947 . S
C562 C561 1.392 . S
C562 C563 1.419 . S
C562 H591 0.948 . S
C563 C562 1.419 . S
C563 C564 1.391 . S
C563 C567 1.397 1_545 S
C564 C559 1.391 . S
C564 C563 1.391 . S
C564 C565 1.399 1_545 S
C565 C564 1.399 1_565 S
C565 C566 1.396 . S
C565 C568 1.453 . S
C565 C569 1.684 . S
C566 C547 1.723 . S
C566 C565 1.396 . S
C566 C567 1.394 . S
C567 C563 1.397 1_565 S
C567 C566 1.394 . S
C567 C577 1.723 . S
C568 C565 1.453 . S
C568 H592 0.982 . S
C568 H593 0.979 . S
C568 H594 0.977 . S
C569 C565 1.684 . S
C569 H595 0.979 . S
C569 H596 0.980 . S
C569 H597 0.983 . S
C570 H546 0.948 . S
C570 C571 1.391 1_545 S
C570 C575 1.391 1_545 S
C571 C570 1.391 1_565 S
C571 C572 1.391 . S
C572 H549 0.947 . S
C572 C571 1.391 . S
C572 C573 1.392 . S
C573 H550 0.948 . S
C573 C572 1.392 . S
C573 C574 1.419 . S
C574 C573 1.419 . S
C574 C575 1.391 . S
C574 C578 1.397 . S
C575 C570 1.391 1_565 S
C575 C574 1.391 . S
C575 C576 1.399 1_565 S
C576 C575 1.399 1_545 S
C576 C577 1.396 1_545 S
C576 C579 1.453 . S
C576 C580 1.684 . S
C577 C567 1.723 . S
C577 C576 1.396 1_565 S
C577 C578 1.394 . S
C578 C548 1.723 . S
C578 C574 1.397 . S
C578 C577 1.394 . S
C579 H551 0.982 1_545 S
C579 H555 0.979 . S
C579 H556 0.977 . S
C579 C576 1.453 . S
C580 H552 0.979 . S
C580 H553 0.980 . S
C580 H554 0.983 . S
C580 C576 1.684 . S
H581 C599 0.948 . S
H582 C540 0.948 . S
H583 C558 0.979 . S
H584 C558 0.980 . S
H585 C558 0.983 . S
H586 C557 0.982 . S
H587 C557 0.979 . S
H588 C557 0.977 . S
H589 C559 0.948 . S
H590 C561 0.947 . S
H591 C562 0.948 . S
H592 C568 0.982 . S
H593 C568 0.979 . S
H594 C568 0.977 . S
H595 C569 0.979 . S
H596 C569 0.980 . S
H597 C569 0.983 . S
H598 C542 0.947 . S
C599 C542 1.392 . S
C599 C543 1.419 . S
C599 H581 0.948 . S
C600 C601 1.391 . S
C600 C604 1.391 . S
C600 H642 0.948 . S
C601 C600 1.391 . S
C601 C602 1.391 . S
C602 C601 1.391 . S
C602 H658 0.947 . S
C602 C659 1.392 . S
C603 C604 1.391 . S
C603 C607 1.397 . S
C603 C659 1.419 . S
C604 C600 1.391 . S
C604 C603 1.391 . S
C604 C605 1.399 . S
C605 C604 1.399 . S
C605 C608 1.396 . S
C605 C617 1.453 . S
C605 C618 1.684 . S
H606 C630 0.948 . S
C607 C603 1.397 . S
C607 C608 1.394 . S
C607 C626 1.723 . S
C608 C605 1.396 . S
C608 C607 1.394 . S
C608 C638 1.723 . S
H609 C632 0.947 . S
H610 C633 0.948 . S
H611 C639 0.982 . S
H612 C640 0.979 . S
H613 C640 0.980 . S
H614 C640 0.983 . S
H615 C639 0.979 . S
H616 C639 0.977 . S
C617 C605 1.453 . S
C617 H646 0.982 . S
C617 H647 0.979 . S
C617 H648 0.977 . S
C618 C605 1.684 . S
C618 H643 0.979 . S
C618 H644 0.980 . S
C618 H645 0.983 . S
C619 C620 1.391 . S
C619 C624 1.391 . S
C619 H649 0.948 . S
C620 C619 1.391 . S
C620 C621 1.391 . S
C621 C620 1.391 . S
C621 C622 1.392 . S
C621 H650 0.947 . S
C622 C621 1.392 . S
C622 C623 1.419 . S
C622 H651 0.948 . S
C623 C622 1.419 . S
C623 C624 1.391 . S
C623 C627 1.397 . S
C624 C619 1.391 . S
C624 C623 1.391 . S
C624 C625 1.399 . S
C625 C624 1.399 . S
C625 C626 1.396 . S
C625 C628 1.453 . S
C625 C629 1.684 . S
C626 C607 1.723 . S
C626 C625 1.396 . S
C626 C627 1.394 . S
C627 C623 1.397 . S
C627 C626 1.394 . S
C627 C637 1.723 . S
C628 C625 1.453 . S
C628 H652 0.982 . S
C628 H653 0.979 . S
C628 H654 0.977 . S
C629 C625 1.684 . S
C629 H655 0.979 . S
C629 H656 0.980 . S
C629 H657 0.983 . S
C630 H606 0.948 . S
C630 C631 1.391 . S
C630 C635 1.391 . S
C631 C630 1.391 . S
C631 C632 1.391 . S
C632 H609 0.947 . S
C632 C631 1.391 . S
C632 C633 1.392 . S
C633 H610 0.948 . S
C633 C632 1.392 . S
C633 C634 1.419 . S
C634 C633 1.419 . S
C634 C635 1.391 . S
C634 C638 1.397 . S
C635 C630 1.391 . S
C635 C634 1.391 . S
C635 C636 1.399 . S
C636 C635 1.399 . S
C636 C637 1.396 . S
C636 C639 1.453 . S
C636 C640 1.684 . S
C637 C627 1.723 . S
C637 C636 1.396 . S
C637 C638 1.394 . S
C638 C608 1.723 . S
C638 C634 1.397 . S
C638 C637 1.394 . S
C639 H611 0.982 . S
C639 H615 0.979 . S
C639 H616 0.977 . S
C639 C636 1.453 . S
C640 H612 0.979 . S
C640 H613 0.980 . S
C640 H614 0.983 . S
C640 C636 1.684 . S
H641 C659 0.948 . S
H642 C600 0.948 . S
H643 C618 0.979 . S
H644 C618 0.980 . S
H645 C618 0.983 . S
H646 C617 0.982 . S
H647 C617 0.979 . S
H648 C617 0.977 . S
H649 C619 0.948 . S
H650 C621 0.947 . S
H651 C622 0.948 . S
H652 C628 0.982 . S
H653 C628 0.979 . S
H654 C628 0.977 . S
H655 C629 0.979 . S
H656 C629 0.980 . S
H657 C629 0.983 . S
H658 C602 0.947 . S
C659 C602 1.392 . S
C659 C603 1.419 . S
C659 H641 0.948 . S
C660 C661 1.391 . S
C660 C664 1.391 . S
C660 H702 0.948 . S
C661 C660 1.391 . S
C661 C662 1.391 . S
C662 C661 1.391 . S
C662 H718 0.947 . S
C662 C719 1.392 . S
C663 C664 1.391 . S
C663 C667 1.397 . S
C663 C719 1.419 . S
C664 C660 1.391 . S
C664 C663 1.391 . S
C664 C665 1.399 . S
C665 C664 1.399 . S
C665 C668 1.396 . S
C665 C677 1.453 . S
C665 C678 1.684 . S
H666 C690 0.948 . S
C667 C663 1.397 . S
C667 C668 1.394 . S
C667 C686 1.723 . S
C668 C665 1.396 . S
C668 C667 1.394 . S
C668 C698 1.723 . S
H669 C692 0.947 . S
H670 C693 0.948 . S
H671 C699 0.982 . S
H672 C700 0.979 . S
H673 C700 0.980 . S
H674 C700 0.983 . S
H675 C699 0.979 . S
H676 C699 0.977 . S
C677 C665 1.453 . S
C677 H706 0.982 . S
C677 H707 0.979 . S
C677 H708 0.977 . S
C678 C665 1.684 . S
C678 H703 0.979 . S
C678 H704 0.980 . S
C678 H705 0.983 . S
C679 C680 1.391 . S
C679 C684 1.391 . S
C679 H709 0.948 . S
C680 C679 1.391 . S
C680 C681 1.391 . S
C681 C680 1.391 . S
C681 C682 1.392 . S
C681 H710 0.947 . S
C682 C681 1.392 . S
C682 C683 1.419 . S
C682 H711 0.948 . S
C683 C682 1.419 . S
C683 C684 1.391 . S
C683 C687 1.397 . S
C684 C679 1.391 . S
C684 C683 1.391 . S
C684 C685 1.399 . S
C685 C684 1.399 . S
C685 C686 1.396 . S
C685 C688 1.453 . S
C685 C689 1.684 . S
C686 C667 1.723 . S
C686 C685 1.396 . S
C686 C687 1.394 . S
C687 C683 1.397 . S
C687 C686 1.394 . S
C687 C697 1.723 . S
C688 C685 1.453 . S
C688 H712 0.982 . S
C688 H713 0.979 . S
C688 H714 0.977 . S
C689 C685 1.684 . S
C689 H715 0.979 . S
C689 H716 0.980 . S
C689 H717 0.983 . S
C690 H666 0.948 . S
C690 C691 1.391 . S
C690 C695 1.391 . S
C691 C690 1.391 . S
C691 C692 1.391 . S
C692 H669 0.947 . S
C692 C691 1.391 . S
C692 C693 1.392 . S
C693 H670 0.948 . S
C693 C692 1.392 . S
C693 C694 1.419 . S
C694 C693 1.419 . S
C694 C695 1.391 . S
C694 C698 1.397 . S
C695 C690 1.391 . S
C695 C694 1.391 . S
C695 C696 1.399 . S
C696 C695 1.399 . S
C696 C697 1.396 . S
C696 C699 1.453 . S
C696 C700 1.684 . S
C697 C687 1.723 . S
C697 C696 1.396 . S
C697 C698 1.394 . S
C698 C668 1.723 . S
C698 C694 1.397 . S
C698 C697 1.394 . S
C699 H671 0.982 . S
C699 H675 0.979 . S
C699 H676 0.977 . S
C699 C696 1.453 . S
C700 H672 0.979 . S
C700 H673 0.980 . S
C700 H674 0.983 . S
C700 C696 1.684 . S
H701 C719 0.948 . S
H702 C660 0.948 . S
H703 C678 0.979 . S
H704 C678 0.980 . S
H705 C678 0.983 . S
H706 C677 0.982 . S
H707 C677 0.979 . S
H708 C677 0.977 . S
H709 C679 0.948 . S
H710 C681 0.947 . S
H711 C682 0.948 . S
H712 C688 0.982 . S
H713 C688 0.979 . S
H714 C688 0.977 . S
H715 C689 0.979 . S
H716 C689 0.980 . S
H717 C689 0.983 . S
H718 C662 0.947 . S
C719 C662 1.392 . S
C719 C663 1.419 . S
C719 H701 0.948 . S
C720 C721 1.391 . S
C720 C724 1.391 . S
C720 H762 0.948 . S
C721 C720 1.391 . S
C721 C722 1.391 . S
C722 C721 1.391 . S
C722 H778 0.947 . S
C722 C779 1.392 . S
C723 C724 1.391 . S
C723 C727 1.397 . S
C723 C779 1.419 . S
C724 C720 1.391 . S
C724 C723 1.391 . S
C724 C725 1.399 . S
C725 C724 1.399 . S
C725 C728 1.396 . S
C725 C737 1.453 . S
C725 C738 1.684 . S
H726 C750 0.948 . S
C727 C723 1.397 . S
C727 C728 1.394 . S
C727 C746 1.723 . S
C728 C725 1.396 . S
C728 C727 1.394 . S
C728 C758 1.723 . S
H729 C752 0.947 . S
H730 C753 0.948 . S
H731 C759 0.982 . S
H732 C760 0.979 . S
H733 C760 0.980 . S
H734 C760 0.983 . S
H735 C759 0.979 . S
H736 C759 0.977 . S
C737 C725 1.453 . S
C737 H766 0.982 . S
C737 H767 0.979 . S
C737 H768 0.977 . S
C738 C725 1.684 . S
C738 H763 0.979 . S
C738 H764 0.980 . S
C738 H765 0.983 . S
C739 C740 1.391 . S
C739 C744 1.391 . S
C739 H769 0.948 . S
C740 C739 1.391 . S
C740 C741 1.391 . S
C741 C740 1.391 . S
C741 C742 1.392 . S
C741 H770 0.947 . S
C742 C741 1.392 . S
C742 C743 1.419 . S
C742 H771 0.948 . S
C743 C742 1.419 . S
C743 C744 1.391 . S
C743 C747 1.397 . S
C744 C739 1.391 . S
C744 C743 1.391 . S
C744 C745 1.399 . S
C745 C744 1.399 . S
C745 C746 1.396 . S
C745 C748 1.453 . S
C745 C749 1.684 . S
C746 C727 1.723 . S
C746 C745 1.396 . S
C746 C747 1.394 . S
C747 C743 1.397 . S
C747 C746 1.394 . S
C747 C757 1.723 . S
C748 C745 1.453 . S
C748 H772 0.982 . S
C748 H773 0.979 . S
C748 H774 0.977 . S
C749 C745 1.684 . S
C749 H775 0.979 . S
C749 H776 0.980 . S
C749 H777 0.983 . S
C750 H726 0.948 . S
C750 C751 1.391 . S
C750 C755 1.391 . S
C751 C750 1.391 . S
C751 C752 1.391 . S
C752 H729 0.947 . S
C752 C751 1.391 . S
C752 C753 1.392 . S
C753 H730 0.948 . S
C753 C752 1.392 . S
C753 C754 1.419 . S
C754 C753 1.419 . S
C754 C755 1.391 . S
C754 C758 1.397 . S
C755 C750 1.391 . S
C755 C754 1.391 . S
C755 C756 1.399 . S
C756 C755 1.399 . S
C756 C757 1.396 . S
C756 C759 1.453 . S
C756 C760 1.684 . S
C757 C747 1.723 . S
C757 C756 1.396 . S
C757 C758 1.394 . S
C758 C728 1.723 . S
C758 C754 1.397 . S
C758 C757 1.394 . S
C759 H731 0.982 . S
C759 H735 0.979 . S
C759 H736 0.977 . S
C759 C756 1.453 . S
C760 H732 0.979 . S
C760 H733 0.980 . S
C760 H734 0.983 . S
C760 C756 1.684 . S
H761 C779 0.948 . S
H762 C720 0.948 . S
H763 C738 0.979 . S
H764 C738 0.980 . S
H765 C738 0.983 . S
H766 C737 0.982 . S
H767 C737 0.979 . S
H768 C737 0.977 . S
H769 C739 0.948 . S
H770 C741 0.947 . S
H771 C742 0.948 . S
H772 C748 0.982 . S
H773 C748 0.979 . S
H774 C748 0.977 . S
H775 C749 0.979 . S
H776 C749 0.980 . S
H777 C749 0.983 . S
H778 C722 0.947 . S
C779 C722 1.392 . S
C779 C723 1.419 . S
C779 H761 0.948 . S
C780 C781 1.391 . S
C780 C784 1.391 . S
C780 H822 0.948 . S
C781 C780 1.391 . S
C781 C782 1.391 . S
C782 C781 1.391 . S
C782 H838 0.947 . S
C782 C839 1.392 1_554 S
C783 C784 1.391 1_556 S
C783 C787 1.397 . S
C783 C839 1.419 . S
C784 C780 1.391 . S
C784 C783 1.391 1_554 S
C784 C785 1.399 . S
C785 C784 1.399 . S
C785 C788 1.396 1_554 S
C785 C797 1.453 . S
C785 C798 1.684 . S
H786 C810 0.948 . S
C787 C783 1.397 . S
C787 C788 1.394 . S
C787 C806 1.723 . S
C788 C785 1.396 1_556 S
C788 C787 1.394 . S
C788 C818 1.723 . S
H789 C812 0.947 . S
H790 C813 0.948 . S
H791 C819 0.982 . S
H792 C820 0.979 . S
H793 C820 0.980 . S
H794 C820 0.983 . S
H795 C819 0.979 . S
H796 C819 0.977 . S
C797 C785 1.453 . S
C797 H826 0.982 . S
C797 H827 0.979 . S
C797 H828 0.977 . S
C798 C785 1.684 . S
C798 H823 0.979 . S
C798 H824 0.980 . S
C798 H825 0.983 . S
C799 C800 1.391 . S
C799 C804 1.391 . S
C799 H829 0.948 . S
C800 C799 1.391 . S
C800 C801 1.391 . S
C801 C800 1.391 . S
C801 C802 1.392 . S
C801 H830 0.947 . S
C802 C801 1.392 . S
C802 C803 1.419 . S
C802 H831 0.948 . S
C803 C802 1.419 . S
C803 C804 1.391 . S
C803 C807 1.397 . S
C804 C799 1.391 . S
C804 C803 1.391 . S
C804 C805 1.399 . S
C805 C804 1.399 . S
C805 C806 1.396 . S
C805 C808 1.453 . S
C805 C809 1.684 . S
C806 C787 1.723 . S
C806 C805 1.396 . S
C806 C807 1.394 . S
C807 C803 1.397 . S
C807 C806 1.394 . S
C807 C817 1.723 . S
C808 C805 1.453 . S
C808 H832 0.982 . S
C808 H833 0.979 . S
C808 H834 0.977 . S
C809 C805 1.684 . S
C809 H835 0.979 . S
C809 H836 0.980 . S
C809 H837 0.983 . S
C810 H786 0.948 . S
C810 C811 1.391 . S
C810 C815 1.391 . S
C811 C810 1.391 . S
C811 C812 1.391 1_556 S
C812 H789 0.947 . S
C812 C811 1.391 1_554 S
C812 C813 1.392 . S
C813 H790 0.948 . S
C813 C812 1.392 . S
C813 C814 1.419 1_554 S
C814 C813 1.419 1_556 S
C814 C815 1.391 . S
C814 C818 1.397 . S
C815 C810 1.391 . S
C815 C814 1.391 . S
C815 C816 1.399 . S
C816 C815 1.399 . S
C816 C817 1.396 . S
C816 C819 1.453 . S
C816 C820 1.684 . S
C817 C807 1.723 . S
C817 C816 1.396 . S
C817 C818 1.394 . S
C818 C788 1.723 . S
C818 C814 1.397 . S
C818 C817 1.394 . S
C819 H791 0.982 . S
C819 H795 0.979 . S
C819 H796 0.977 . S
C819 C816 1.453 . S
C820 H792 0.979 . S
C820 H793 0.980 . S
C820 H794 0.983 . S
C820 C816 1.684 . S
H821 C839 0.948 . S
H822 C780 0.948 . S
H823 C798 0.979 . S
H824 C798 0.980 . S
H825 C798 0.983 . S
H826 C797 0.982 . S
H827 C797 0.979 . S
H828 C797 0.977 . S
H829 C799 0.948 . S
H830 C801 0.947 . S
H831 C802 0.948 . S
H832 C808 0.982 . S
H833 C808 0.979 . S
H834 C808 0.977 . S
H835 C809 0.979 . S
H836 C809 0.980 . S
H837 C809 0.983 . S
H838 C782 0.947 . S
C839 C782 1.392 1_556 S
C839 C783 1.419 . S
C839 H821 0.948 . S
C840 C841 1.391 . S
C840 C844 1.391 . S
C840 H882 0.948 . S
C841 C840 1.391 . S
C841 C842 1.391 . S
C842 C841 1.391 . S
C842 H898 0.947 . S
C842 C899 1.392 . S
C843 C844 1.391 . S
C843 C847 1.397 . S
C843 C899 1.419 . S
C844 C840 1.391 . S
C844 C843 1.391 . S
C844 C845 1.399 . S
C845 C844 1.399 . S
C845 C848 1.396 . S
C845 C857 1.453 . S
C845 C858 1.684 . S
H846 C870 0.948 . S
C847 C843 1.397 . S
C847 C848 1.394 . S
C847 C866 1.723 . S
C848 C845 1.396 . S
C848 C847 1.394 . S
C848 C878 1.723 . S
H849 C872 0.947 . S
H850 C873 0.948 . S
H851 C879 0.982 . S
H852 C880 0.979 . S
H853 C880 0.980 . S
H854 C880 0.983 . S
H855 C879 0.979 . S
H856 C879 0.977 . S
C857 C845 1.453 . S
C857 H886 0.982 . S
C857 H887 0.979 . S
C857 H888 0.977 . S
C858 C845 1.684 . S
C858 H883 0.979 . S
C858 H884 0.980 . S
C858 H885 0.983 . S
C859 C860 1.391 . S
C859 C864 1.391 . S
C859 H889 0.948 . S
C860 C859 1.391 . S
C860 C861 1.391 . S
C861 C860 1.391 . S
C861 C862 1.392 . S
C861 H890 0.947 . S
C862 C861 1.392 . S
C862 C863 1.419 . S
C862 H891 0.948 . S
C863 C862 1.419 . S
C863 C864 1.391 . S
C863 C867 1.397 . S
C864 C859 1.391 . S
C864 C863 1.391 . S
C864 C865 1.399 . S
C865 C864 1.399 . S
C865 C866 1.396 . S
C865 C868 1.453 . S
C865 C869 1.684 . S
C866 C847 1.723 . S
C866 C865 1.396 . S
C866 C867 1.394 . S
C867 C863 1.397 . S
C867 C866 1.394 . S
C867 C877 1.723 . S
C868 C865 1.453 . S
C868 H892 0.982 . S
C868 H893 0.979 . S
C868 H894 0.977 . S
C869 C865 1.684 . S
C869 H895 0.979 . S
C869 H896 0.980 . S
C869 H897 0.983 . S
C870 H846 0.948 . S
C870 C871 1.391 . S
C870 C875 1.391 . S
C871 C870 1.391 . S
C871 C872 1.391 . S
C872 H849 0.947 . S
C872 C871 1.391 . S
C872 C873 1.392 . S
C873 H850 0.948 . S
C873 C872 1.392 . S
C873 C874 1.419 . S
C874 C873 1.419 . S
C874 C875 1.391 . S
C874 C878 1.397 . S
C875 C870 1.391 . S
C875 C874 1.391 . S
C875 C876 1.399 . S
C876 C875 1.399 . S
C876 C877 1.396 . S
C876 C879 1.453 . S
C876 C880 1.684 . S
C877 C867 1.723 . S
C877 C876 1.396 . S
C877 C878 1.394 . S
C878 C848 1.723 . S
C878 C874 1.397 . S
C878 C877 1.394 . S
C879 H851 0.982 . S
C879 H855 0.979 . S
C879 H856 0.977 . S
C879 C876 1.453 . S
C880 H852 0.979 . S
C880 H853 0.980 . S
C880 H854 0.983 . S
C880 C876 1.684 . S
H881 C899 0.948 . S
H882 C840 0.948 . S
H883 C858 0.979 . S
H884 C858 0.980 . S
H885 C858 0.983 . S
H886 C857 0.982 . S
H887 C857 0.979 . S
H888 C857 0.977 . S
H889 C859 0.948 . S
H890 C861 0.947 . S
H891 C862 0.948 . S
H892 C868 0.982 . S
H893 C868 0.979 . S
H894 C868 0.977 . S
H895 C869 0.979 . S
H896 C869 0.980 . S
H897 C869 0.983 . S
H898 C842 0.947 . S
C899 C842 1.392 . S
C899 C843 1.419 . S
C899 H881 0.948 . S
C900 C901 1.391 . S
C900 C904 1.391 1_565 S
C900 H942 0.948 1_556 S
C901 C900 1.391 . S
C901 C902 1.391 . S
C902 C901 1.391 . S
C902 H958 0.947 . S
C902 C959 1.392 . S
C903 C904 1.391 . S
C903 C907 1.396 . S
C903 C959 1.420 1_545 S
C904 C900 1.391 1_545 S
C904 C903 1.391 . S
C904 C905 1.399 1_556 S
C905 C904 1.399 1_554 S
C905 C908 1.396 1_554 S
C905 C917 1.453 . S
C905 C918 1.684 . S
H906 C930 0.948 . S
C907 C903 1.396 . S
C907 C908 1.394 . S
C907 C926 1.723 . S
C908 C905 1.396 1_556 S
C908 C907 1.394 . S
C908 C938 1.723 . S
H909 C932 0.947 . S
H910 C933 0.948 . S
H911 C939 0.982 . S
H912 C940 0.979 . S
H913 C940 0.980 . S
H914 C940 0.983 . S
H915 C939 0.979 . S
H916 C939 0.977 . S
C917 C905 1.453 . S
C917 H946 0.982 1_554 S
C917 H947 0.979 . S
C917 H948 0.977 . S
C918 C905 1.684 . S
C918 H943 0.979 . S
C918 H944 0.980 . S
C918 H945 0.983 . S
C919 C920 1.391 . S
C919 C924 1.391 . S
C919 H949 0.948 1_545 S
C920 C919 1.391 . S
C920 C921 1.391 . S
C921 C920 1.391 . S
C921 C922 1.392 . S
C921 H950 0.947 . S
C922 C921 1.392 . S
C922 C923 1.419 . S
C922 H951 0.948 . S
C923 C922 1.419 . S
C923 C924 1.391 . S
C923 C927 1.397 . S
C924 C919 1.391 . S
C924 C923 1.391 . S
C924 C925 1.399 . S
C925 C924 1.399 . S
C925 C926 1.396 . S
C925 C928 1.453 1_545 S
C925 C929 1.684 1_545 S
C926 C907 1.723 . S
C926 C925 1.396 . S
C926 C927 1.394 . S
C927 C923 1.397 . S
C927 C926 1.394 . S
C927 C937 1.723 . S
C928 C925 1.453 1_565 S
C928 H952 0.982 1_565 S
C928 H953 0.979 . S
C928 H954 0.977 . S
C929 C925 1.684 1_565 S
C929 H955 0.979 . S
C929 H956 0.980 . S
C929 H957 0.983 . S
C930 H906 0.948 . S
C930 C931 1.391 . S
C930 C935 1.391 . S
C931 C930 1.391 . S
C931 C932 1.391 . S
C932 H909 0.947 . S
C932 C931 1.391 . S
C932 C933 1.392 . S
C933 H910 0.948 . S
C933 C932 1.392 . S
C933 C934 1.419 . S
C934 C933 1.419 . S
C934 C935 1.391 . S
C934 C938 1.397 1_554 S
C935 C930 1.391 . S
C935 C934 1.391 . S
C935 C936 1.399 1_554 S
C936 C935 1.399 1_556 S
C936 C937 1.396 . S
C936 C939 1.453 . S
C936 C940 1.684 . S
C937 C927 1.723 . S
C937 C936 1.396 . S
C937 C938 1.394 . S
C938 C908 1.723 . S
C938 C934 1.397 1_556 S
C938 C937 1.394 . S
C939 H911 0.982 . S
C939 H915 0.979 . S
C939 H916 0.977 . S
C939 C936 1.453 . S
C940 H912 0.979 . S
C940 H913 0.980 . S
C940 H914 0.983 . S
C940 C936 1.684 . S
H941 C959 0.948 . S
H942 C900 0.948 1_554 S
H943 C918 0.979 . S
H944 C918 0.980 . S
H945 C918 0.983 . S
H946 C917 0.982 1_556 S
H947 C917 0.979 . S
H948 C917 0.977 . S
H949 C919 0.948 1_565 S
H950 C921 0.947 . S
H951 C922 0.948 . S
H952 C928 0.982 1_545 S
H953 C928 0.979 . S
H954 C928 0.977 . S
H955 C929 0.979 . S
H956 C929 0.980 . S
H957 C929 0.983 . S
H958 C902 0.947 . S
C959 C902 1.392 . S
C959 C903 1.420 1_565 S
C959 H941 0.948 . S
Zn960 O963 2.021 1_556 S
Zn960 O965 2.057 . S
Zn960 O970 2.081 . S
Zn961 O962 1.962 . S
Zn961 O964 1.986 . S
Zn961 O966 1.996 . S
Zn961 O969 1.943 1_554 S
O962 Zn961 1.962 . S
O962 C967 1.254 . S
O963 Zn960 2.021 1_554 S
O963 C967 1.269 . S
O964 Zn961 1.986 . S
O964 C971 1.262 . S
O965 Zn960 2.057 . S
O965 C973 1.260 . S
O966 Zn961 1.996 . S
O966 C973 1.257 1_554 S
C967 O962 1.254 . S
C967 O963 1.269 . S
C968 O969 1.249 . S
C968 O970 1.270 . S
O969 Zn961 1.943 1_556 S
O969 C968 1.249 . S
O970 Zn960 2.081 . S
O970 C968 1.270 . S
C971 O964 1.262 . S
C971 O972 1.232 . S
O972 C971 1.232 . S
C973 O965 1.260 . S
C973 O966 1.257 1_556 S
Zn974 O977 2.031 . S
Zn974 O979 2.049 . S
Zn974 O984 2.067 . S
Zn975 O976 1.962 . S
Zn975 O978 1.986 . S
Zn975 O980 1.996 . S
Zn975 O983 1.943 . S
O976 Zn975 1.962 . S
O976 C981 1.254 . S
O977 Zn974 2.031 . S
O977 C981 1.269 . S
O978 Zn975 1.986 . S
O978 C985 1.262 . S
O979 Zn974 2.049 . S
O979 C987 1.260 . S
O980 Zn975 1.996 . S
O980 C987 1.257 . S
C981 O976 1.254 . S
C981 O977 1.269 . S
C982 O983 1.249 . S
C982 O984 1.270 . S
O983 Zn975 1.943 . S
O983 C982 1.249 . S
O984 Zn974 2.067 . S
O984 C982 1.270 . S
C985 O978 1.262 . S
C985 O986 1.232 . S
O986 C985 1.232 . S
C987 O979 1.260 . S
C987 O980 1.257 . S
Zn988 O991 2.031 . S
Zn988 O993 2.049 . S
Zn988 O998 2.067 . S
Zn989 O990 1.962 . S
Zn989 O992 1.986 . S
Zn989 O994 1.996 1_554 S
Zn989 O997 1.943 . S
O990 Zn989 1.962 . S
O990 C995 1.254 . S
O991 Zn988 2.031 . S
O991 C995 1.269 1_556 S
O992 Zn989 1.986 . S
O992 C999 1.262 . S
O993 Zn988 2.049 . S
O993 C1001 1.260 . S
O994 Zn989 1.996 1_556 S
O994 C1001 1.257 . S
C995 O990 1.254 . S
C995 O991 1.269 1_554 S
C996 O997 1.249 1_556 S
C996 O998 1.270 . S
O997 Zn989 1.943 . S
O997 C996 1.249 1_554 S
O998 Zn988 2.067 . S
O998 C996 1.270 . S
C999 O992 1.262 . S
C999 O1000 1.232 . S
O1000 C999 1.232 . S
C1001 O993 1.260 . S
C1001 O994 1.257 . S
Zn1002 O1005 2.021 1_565 S
Zn1002 O1007 2.057 . S
Zn1002 O1012 2.082 . S
Zn1003 O1004 1.962 . S
Zn1003 O1006 1.986 . S
Zn1003 O1008 1.996 . S
Zn1003 O1011 1.943 1_545 S
O1004 Zn1003 1.962 . S
O1004 C1009 1.254 . S
O1005 Zn1002 2.021 1_545 S
O1005 C1009 1.269 . S
O1006 Zn1003 1.986 . S
O1006 C1013 1.262 . S
O1007 Zn1002 2.057 . S
O1007 C1015 1.260 . S
O1008 Zn1003 1.996 . S
O1008 C1015 1.257 1_545 S
C1009 O1004 1.254 . S
C1009 O1005 1.269 . S
C1010 O1011 1.249 . S
C1010 O1012 1.270 . S
O1011 Zn1003 1.943 1_565 S
O1011 C1010 1.249 . S
O1012 Zn1002 2.082 . S
O1012 C1010 1.270 . S
C1013 O1006 1.262 . S
C1013 O1014 1.232 . S
O1014 C1013 1.232 . S
C1015 O1007 1.260 . S
C1015 O1008 1.257 1_565 S
Zn1016 O1019 2.031 . S
Zn1016 O1021 2.049 . S
Zn1016 O1026 2.067 . S
Zn1017 O1018 1.962 . S
Zn1017 O1020 1.986 . S
Zn1017 O1022 1.996 . S
Zn1017 O1025 1.943 . S
O1018 Zn1017 1.962 . S
O1018 C1023 1.254 . S
O1019 Zn1016 2.031 . S
O1019 C1023 1.269 . S
O1020 Zn1017 1.986 . S
O1020 C1027 1.262 . S
O1021 Zn1016 2.049 . S
O1021 C1029 1.260 . S
O1022 Zn1017 1.996 . S
O1022 C1029 1.257 . S
C1023 O1018 1.254 . S
C1023 O1019 1.269 . S
C1024 O1025 1.249 . S
C1024 O1026 1.270 . S
O1025 Zn1017 1.943 . S
O1025 C1024 1.249 . S
O1026 Zn1016 2.067 . S
O1026 C1024 1.270 . S
C1027 O1020 1.262 . S
C1027 O1028 1.232 . S
O1028 C1027 1.232 . S
C1029 O1021 1.260 . S
C1029 O1022 1.257 . S
Zn1030 O1033 2.031 . S
Zn1030 O1035 2.049 . S
Zn1030 O1040 2.067 . S
Zn1031 O1032 1.962 . S
Zn1031 O1034 1.986 . S
Zn1031 O1036 1.996 . S
Zn1031 O1039 1.943 . S
O1032 Zn1031 1.962 . S
O1032 C1037 1.254 . S
O1033 Zn1030 2.031 . S
O1033 C1037 1.269 . S
O1034 Zn1031 1.986 . S
O1034 C1041 1.262 . S
O1035 Zn1030 2.049 . S
O1035 C1043 1.260 . S
O1036 Zn1031 1.996 . S
O1036 C1043 1.257 . S
C1037 O1032 1.254 . S
C1037 O1033 1.269 . S
C1038 O1039 1.249 . S
C1038 O1040 1.270 . S
O1039 Zn1031 1.943 . S
O1039 C1038 1.249 . S
O1040 Zn1030 2.067 . S
O1040 C1038 1.270 . S
C1041 O1034 1.262 . S
C1041 O1042 1.232 . S
O1042 C1041 1.232 . S
C1043 O1035 1.260 . S
C1043 O1036 1.257 . S
Zn1044 O1047 2.031 . S
Zn1044 O1049 2.049 . S
Zn1044 O1054 2.067 . S
Zn1045 O1046 1.962 . S
Zn1045 O1048 1.986 . S
Zn1045 O1050 1.996 . S
Zn1045 O1053 1.943 . S
O1046 Zn1045 1.962 . S
O1046 C1051 1.254 . S
O1047 Zn1044 2.031 . S
O1047 C1051 1.269 . S
O1048 Zn1045 1.986 . S
O1048 C1055 1.262 . S
O1049 Zn1044 2.049 . S
O1049 C1057 1.260 . S
O1050 Zn1045 1.996 . S
O1050 C1057 1.257 . S
C1051 O1046 1.254 . S
C1051 O1047 1.269 . S
C1052 O1053 1.249 . S
C1052 O1054 1.270 . S
O1053 Zn1045 1.943 . S
O1053 C1052 1.249 . S
O1054 Zn1044 2.067 . S
O1054 C1052 1.270 . S
C1055 O1048 1.262 . S
C1055 O1056 1.232 . S
O1056 C1055 1.232 . S
C1057 O1049 1.260 . S
C1057 O1050 1.257 . S
Zn1058 O1061 2.031 . S
Zn1058 O1063 2.049 . S
Zn1058 O1068 2.067 . S
Zn1059 O1060 1.962 . S
Zn1059 O1062 1.986 . S
Zn1059 O1064 1.996 1_545 S
Zn1059 O1067 1.943 . S
O1060 Zn1059 1.962 . S
O1060 C1065 1.254 . S
O1061 Zn1058 2.031 . S
O1061 C1065 1.269 1_565 S
O1062 Zn1059 1.986 . S
O1062 C1069 1.262 . S
O1063 Zn1058 2.049 . S
O1063 C1071 1.260 . S
O1064 Zn1059 1.996 1_565 S
O1064 C1071 1.257 . S
C1065 O1060 1.254 . S
C1065 O1061 1.269 1_545 S
C1066 O1067 1.249 1_565 S
C1066 O1068 1.270 . S
O1067 Zn1059 1.943 . S
O1067 C1066 1.249 1_545 S
O1068 Zn1058 2.067 . S
O1068 C1066 1.270 . S
C1069 O1062 1.262 . S
C1069 O1070 1.232 . S
O1070 C1069 1.232 . S
C1071 O1063 1.260 . S
C1071 O1064 1.257 . S
Zn1072 O1075 2.021 1_655 S
Zn1072 O1077 2.057 . S
Zn1072 O1082 2.081 . S
Zn1073 O1074 1.962 . S
Zn1073 O1076 1.986 . S
Zn1073 O1078 1.996 . S
Zn1073 O1081 1.943 1_455 S
O1074 Zn1073 1.962 . S
O1074 C1079 1.254 . S
O1075 Zn1072 2.021 1_455 S
O1075 C1079 1.269 . S
O1076 Zn1073 1.986 . S
O1076 C1083 1.262 . S
O1077 Zn1072 2.057 . S
O1077 C1085 1.260 . S
O1078 Zn1073 1.996 . S
O1078 C1085 1.257 1_455 S
C1079 O1074 1.254 . S
C1079 O1075 1.269 . S
C1080 O1081 1.249 . S
C1080 O1082 1.270 . S
O1081 Zn1073 1.943 1_655 S
O1081 C1080 1.249 . S
O1082 Zn1072 2.081 . S
O1082 C1080 1.270 . S
C1083 O1076 1.262 . S
C1083 O1084 1.232 . S
O1084 C1083 1.232 . S
C1085 O1077 1.260 . S
C1085 O1078 1.257 1_655 S
Zn1086 O1089 2.031 . S
Zn1086 O1091 2.049 . S
Zn1086 O1096 2.067 . S
Zn1087 O1088 1.962 . S
Zn1087 O1090 1.986 . S
Zn1087 O1092 1.996 . S
Zn1087 O1095 1.943 . S
O1088 Zn1087 1.962 . S
O1088 C1093 1.254 . S
O1089 Zn1086 2.031 . S
O1089 C1093 1.269 . S
O1090 Zn1087 1.986 . S
O1090 C1097 1.262 . S
O1091 Zn1086 2.049 . S
O1091 C1099 1.260 . S
O1092 Zn1087 1.996 . S
O1092 C1099 1.257 . S
C1093 O1088 1.254 . S
C1093 O1089 1.269 . S
C1094 O1095 1.249 . S
C1094 O1096 1.270 . S
O1095 Zn1087 1.943 . S
O1095 C1094 1.249 . S
O1096 Zn1086 2.067 . S
O1096 C1094 1.270 . S
C1097 O1090 1.262 . S
C1097 O1098 1.232 . S
O1098 C1097 1.232 . S
C1099 O1091 1.260 . S
C1099 O1092 1.257 . S
Zn1100 O1103 2.031 . S
Zn1100 O1105 2.049 . S
Zn1100 O1110 2.067 . S
Zn1101 O1102 1.962 . S
Zn1101 O1104 1.986 . S
Zn1101 O1106 1.996 1_455 S
Zn1101 O1109 1.943 . S
O1102 Zn1101 1.962 . S
O1102 C1107 1.254 . S
O1103 Zn1100 2.031 . S
O1103 C1107 1.269 1_655 S
O1104 Zn1101 1.986 . S
O1104 C1111 1.262 . S
O1105 Zn1100 2.049 . S
O1105 C1113 1.260 . S
O1106 Zn1101 1.996 1_655 S
O1106 C1113 1.257 . S
C1107 O1102 1.254 . S
C1107 O1103 1.269 1_455 S
C1108 O1109 1.249 1_655 S
C1108 O1110 1.270 . S
O1109 Zn1101 1.943 . S
O1109 C1108 1.249 1_455 S
O1110 Zn1100 2.067 . S
O1110 C1108 1.270 . S
C1111 O1104 1.262 . S
C1111 O1112 1.232 . S
O1112 C1111 1.232 . S
C1113 O1105 1.260 . S
C1113 O1106 1.257 . S
Zn1114 O1117 2.031 . S
Zn1114 O1119 2.049 . S
Zn1114 O1124 2.067 . S
Zn1115 O1116 1.962 . S
Zn1115 O1118 1.986 . S
Zn1115 O1120 1.996 . S
Zn1115 O1123 1.943 . S
O1116 Zn1115 1.962 . S
O1116 C1121 1.254 . S
O1117 Zn1114 2.031 . S
O1117 C1121 1.269 . S
O1118 Zn1115 1.986 . S
O1118 C1125 1.262 . S
O1119 Zn1114 2.049 . S
O1119 C1127 1.260 . S
O1120 Zn1115 1.996 . S
O1120 C1127 1.257 . S
C1121 O1116 1.254 . S
C1121 O1117 1.269 . S
C1122 O1123 1.249 . S
C1122 O1124 1.270 . S
O1123 Zn1115 1.943 . S
O1123 C1122 1.249 . S
O1124 Zn1114 2.067 . S
O1124 C1122 1.270 . S
C1125 O1118 1.262 . S
C1125 O1126 1.232 . S
O1126 C1125 1.232 . S
C1127 O1119 1.260 . S
C1127 O1120 1.257 . S
C968 C331 1.446 . S
C981 C380 1.510 . S
C421 C1001 1.691 . S
C1015 C260 1.610 . S
C1027 C620 1.453 . S
C1041 C740 1.485 . S
C680 C1051 1.450 . S
C1066 C571 1.472 . S
C691 C1080 1.550 . S
C1099 C541 1.384 . S
C601 C1079 1.440 . S
C1097 C721 1.485 . S
C451 C1113 1.691 . S
C241 C1107 1.531 . S
C320 C1111 1.453 . S
C391 C1108 1.472 . S
C211 C1010 1.446 . S
C841 C1009 1.440 . S
C973 C901 1.384 . S
C987 C500 1.691 . S
C271 C1024 1.656 . S
C1069 C661 1.535 . S
C1023 C560 1.510 . S
C1055 C751 1.485 . S
C1052 C871 1.446 . S
C920 C1065 1.510 . S
C481 C1029 1.691 . S
C1043 C800 1.610 . S
C200 C999 1.453 . S
C1013 C20 1.485 . S
C967 C80 1.450 . S
C982 C151 1.472 . S
C91 C1094 1.550 . S
C121 C1085 1.384 . S
C181 C1093 1.440 . S
C1 C1083 1.485 . S
C1127 C511 1.691 . S
C1121 C781 1.530 . S
C1125 C860 1.453 . S
C931 C1122 1.472 . S
C631 C1038 1.446 . S
C1037 C301 1.440 . S
C1057 C361 1.384 . S
C1071 C440 1.691 . S
C811 C996 1.656 . S
C985 C61 1.536 . S
C140 C995 1.510 . S
C971 C31 1.485 . S
