# Generated by pormake.
# Topology ftw, (4,12)-cn, num edge types: 1
# Building blocks:
#     Node 0, Type 0, BuildingBlock: MUDLON_clean_linker_0, # of connection points: 4
#     Node 1, Type 0, BuildingBlock: MUDLON_clean_linker_0, # of connection points: 4
#     Node 2, Type 0, BuildingBlock: MUDLON_clean_linker_0, # of connection points: 4
#     Node 3, Type 1, BuildingBlock: EZIPEK_clean_sbu_0, # of connection points: 12
#     Edge 4, Type (0, 1), BuildingBlock: AJUNOK_clean_linker_0, # of connection points: 2
#     Edge 5, Type (0, 1), BuildingBlock: AJUNOK_clean_linker_0, # of connection points: 2
#     Edge 6, Type (0, 1), BuildingBlock: AJUNOK_clean_linker_0, # of connection points: 2
#     Edge 7, Type (0, 1), BuildingBlock: AJUNOK_clean_linker_0, # of connection points: 2
#     Edge 8, Type (0, 1), BuildingBlock: AJUNOK_clean_linker_0, # of connection points: 2
#     Edge 9, Type (0, 1), BuildingBlock: AJUNOK_clean_linker_0, # of connection points: 2
#     Edge 10, Type (0, 1), BuildingBlock: AJUNOK_clean_linker_0, # of connection points: 2
#     Edge 11, Type (0, 1), BuildingBlock: AJUNOK_clean_linker_0, # of connection points: 2
#     Edge 12, Type (0, 1), BuildingBlock: AJUNOK_clean_linker_0, # of connection points: 2
#     Edge 13, Type (0, 1), BuildingBlock: AJUNOK_clean_linker_0, # of connection points: 2
#     Edge 14, Type (0, 1), BuildingBlock: AJUNOK_clean_linker_0, # of connection points: 2
#     Edge 15, Type (0, 1), BuildingBlock: AJUNOK_clean_linker_0, # of connection points: 2
# Relax obj value: 0.081
# Max RMSD: 0.225
# Mean RMSD: 0.171
data_MOF--net-ftw--node1-EZIPEK_clean_sbu_0--node2-MUDLON_clean_linker_0--edge1-AJUNOK_clean_linker_0
_symmetry_space_group_name_H-M    P1
_symmetry_Int_Tables_number       1
_symmetry_cell_setting            triclinic
loop_
_symmetry_equiv_pos_as_xyz
'x, y, z'
_cell_length_a     23.783702
_cell_length_b     26.574301
_cell_length_c     24.09462
_cell_angle_alpha  89.995827
_cell_angle_beta   89.859413
_cell_angle_gamma 90.014378
loop_
_atom_site_label
_atom_site_type_symbol
_atom_site_fract_x
_atom_site_fract_y
_atom_site_fract_z
_atom_type_partial_charge
H0 H 0.96768 0.72603 0.59392 0.0
N1 N 0.06597 0.68844 0.55147 0.0
H2 H 0.95386 0.76343 0.68588 0.0
H3 H 0.14383 0.70698 0.6283 0.0
H4 H 0.13124 0.74669 0.71929 0.0
H5 H 0.14943 0.73075 0.49446 0.0
H6 H 0.14467 0.773 0.40421 0.0
H7 H 0.97039 0.70764 0.49186 0.0
H8 H 0.96482 0.75091 0.40174 0.0
H9 H 0.96672 0.63894 0.56834 0.0
H10 H 0.14144 0.61752 0.52788 0.0
H11 H 0.9518 0.54817 0.56624 0.0
H12 H 0.12666 0.52651 0.52259 0.0
H13 H 0.04223 0.21983 0.56501 0.0
H14 H 0.04923 0.17724 0.65446 0.0
H15 H 0.98271 0.30828 0.73682 0.0
H16 H 0.97374 0.35076 0.64751 0.0
H17 H 0.09916 0.30013 0.49372 0.0
H18 H 0.11477 0.26252 0.40195 0.0
H19 H 0.93687 0.23259 0.3882 0.0
H20 H 0.92162 0.27207 0.47906 0.0
H21 H 0.92795 0.38676 0.51096 0.0
H22 H 0.94432 0.47758 0.50912 0.0
H23 H 0.11115 0.45374 0.57526 0.0
N24 N 0.99768 0.3148 0.54528 0.0
H25 H 0.09488 0.36282 0.5742 0.0
C26 C 0.05691 0.71352 0.60411 0.0
C27 C 1.00347 0.72999 0.62117 0.0
C28 C 0.99572 0.75151 0.67396 0.0
C29 C 0.04123 0.75749 0.71094 0.0
C30 C 0.09476 0.74138 0.69317 0.0
C31 C 0.10229 0.71942 0.64067 0.0
C32 C 0.06041 0.71651 0.5003 0.0
C33 C 0.10896 0.73535 0.4746 0.0
C34 C 0.1061 0.75932 0.42286 0.0
C35 C 0.05442 0.76503 0.39511 0.0
C36 C 0.0055 0.74632 0.42116 0.0
C37 C 0.00846 0.72223 0.47317 0.0
C38 C 0.0555 0.635 0.54897 0.0
C39 C 1.0019 0.61467 0.55876 0.0
C40 C 0.99336 0.5625 0.5569 0.0
C41 C 0.038 0.52942 0.54427 0.0
C42 C 0.09141 0.5503 0.53355 0.0
C43 C 0.09996 0.6024 0.5361 0.0
C44 C 0.00865 0.28982 0.59833 0.0
C45 C 0.0299 0.24029 0.60188 0.0
C46 C 0.03386 0.2156 0.65338 0.0
C47 C 0.0173 0.23963 0.7029 0.0
C48 C 0.99698 0.28909 0.69971 0.0
C49 C 0.99194 0.31342 0.64829 0.0
C50 C 0.00911 0.28858 0.4936 0.0
C51 C 0.06363 0.28523 0.47107 0.0
C52 C 0.07245 0.26346 0.41855 0.0
C53 C 0.0271 0.24406 0.38747 0.0
C54 C 0.97274 0.24742 0.41046 0.0
C55 C 0.96397 0.26942 0.46274 0.0
C56 C 0.0099 0.36813 0.54296 0.0
C57 C 0.96815 0.40132 0.52459 0.0
C58 C 0.97751 0.45332 0.52415 0.0
C59 C 0.02893 0.47357 0.54262 0.0
C60 C 0.07124 0.4399 0.5601 0.0
C61 C 0.06199 0.38777 0.55986 0.0
H62 H 0.5122 0.03378 0.30177 0.0
N63 N 0.54082 0.12846 0.34077 0.0
H64 H 0.42111 1.00927 0.26444 0.0
H65 H 0.45639 0.18799 0.31253 0.0
H66 H 0.36478 0.16332 0.27486 0.0
H67 H 0.61714 0.17374 0.2773 0.0
H68 H 0.71211 0.14438 0.25489 0.0
H69 H 0.58642 0.03652 0.36814 0.0
H70 H 0.68101 1.00762 0.34694 0.0
H71 H 0.49131 0.05553 0.40518 0.0
H72 H 0.57404 0.20008 0.41066 0.0
H73 H 0.48743 0.05349 0.50548 0.0
H74 H 0.5712 0.1976 0.51263 0.0
H75 H 0.46712 1.01501 0.71986 0.0
H76 H 0.37126 0.98979 0.74232 0.0
H77 H 0.34853 0.12714 0.83533 0.0
H78 H 0.44564 0.15145 0.81449 0.0
H79 H 0.60395 0.15507 0.79415 0.0
H80 H 0.69199 0.12307 0.8331 0.0
H81 H 0.6331 0.97084 0.80978 0.0
H82 H 0.54498 1.00273 0.77322 0.0
H83 H 0.55686 0.03308 0.67667 0.0
H84 H 0.56127 0.04367 0.57683 0.0
H85 H 0.50238 0.19672 0.59365 0.0
N86 N 0.51963 0.10267 0.7522 0.0
H87 H 0.49883 0.18604 0.69492 0.0
C88 C 0.49153 0.11319 0.31003 0.0
C89 C 0.48096 0.06266 0.29551 0.0
C90 C 0.42839 0.04837 0.27494 0.0
C91 C 0.3856 0.08421 0.26812 0.0
C92 C 0.39694 0.13487 0.28027 0.0
C93 C 0.44928 0.14907 0.3012 0.0
C94 C 0.5942 0.10747 0.32379 0.0
C95 C 0.63074 0.13724 0.2921 0.0
C96 C 0.6853 0.12077 0.28028 0.0
C97 C 0.70446 0.07399 0.30006 0.0
C98 C 0.66757 0.04387 0.33124 0.0
C99 C 0.61314 0.06035 0.34308 0.0
C100 C 0.53297 0.1283 0.40011 0.0
C101 C 0.5081 0.08725 0.42775 0.0
C102 C 0.50638 0.0858 0.48535 0.0
C103 C 0.52972 0.12505 0.51666 0.0
C104 C 0.55279 0.16692 0.48929 0.0
C105 C 0.55449 0.16838 0.43135 0.0
C106 C 0.46444 0.08465 0.76721 0.0
C107 C 0.4423 0.03932 0.74617 0.0
C108 C 0.38705 1.02519 0.75826 0.0
C109 C 0.35237 0.05656 0.79033 0.0
C110 C 0.37411 0.10231 0.81019 0.0
C111 C 0.42971 0.11596 0.799 0.0
C112 C 0.56739 0.08178 0.78107 0.0
C113 C 0.60967 0.11483 0.79854 0.0
C114 C 0.66012 0.09649 0.82003 0.0
C115 C 0.66949 0.04443 0.82432 0.0
C116 C 0.62681 1.01115 0.80775 0.0
C117 C 0.57611 0.02957 0.78665 0.0
C118 C 0.5274 0.10899 0.6934 0.0
C119 C 0.54549 0.06916 0.6594 0.0
C120 C 0.54762 0.07512 0.60212 0.0
C121 C 0.53148 0.12081 0.57764 0.0
C122 C 0.51521 0.16118 0.61162 0.0
C123 C 0.51306 0.15515 0.66916 0.0
H124 H 0.44303 0.29691 0.1552 0.0
N125 N 0.52463 0.31768 0.08299 0.0
H126 H 0.35298 0.25488 0.13726 0.0
H127 H 0.48891 0.27994 0.98321 0.0
H128 H 0.39775 0.2418 0.96395 0.0
H129 H 0.58816 0.29928 0.99006 0.0
H130 H 0.67884 0.25484 0.98679 0.0
H131 H 0.58014 0.27666 0.16687 0.0
H132 H 0.67107 0.23343 0.16426 0.0
H133 H 0.54517 0.39049 0.15554 0.0
H134 H 0.51087 0.3644 0.98247 0.0
H135 H 0.55006 0.481 0.13818 0.0
H136 H 0.51196 0.45447 0.96513 0.0
H137 H 0.49529 0.73088 0.10549 0.0
H138 H 0.40482 0.77156 0.12126 0.0
H139 H 0.36332 0.75207 0.94815 0.0
H140 H 0.45294 0.70829 0.93356 0.0
H141 H 0.5976 0.73755 0.9353 0.0
H142 H 0.68951 0.77697 0.9521 0.0
H143 H 0.67898 0.73418 0.12459 0.0
H144 H 0.58738 0.69498 0.10757 0.0
H145 H 0.49716 0.64134 0.10285 0.0
H146 H 0.49495 0.55134 0.11936 0.0
H147 H 0.56866 0.52581 0.95747 0.0
N148 N 0.53269 0.68905 1.00773 0.0
H149 H 0.56725 0.61644 0.94004 0.0
C150 C 0.47282 0.29158 0.07079 0.0
C151 C 0.43347 0.28437 0.1135 0.0
C152 C 0.38179 0.26093 0.10301 0.0
C153 C 0.36801 0.24455 0.0492 0.0
C154 C 0.40728 0.25271 1.00618 0.0
C155 C 0.45943 0.27518 1.017 0.0
C156 C 0.57685 0.29033 0.07876 0.0
C157 C 0.60568 0.28449 1.02809 0.0
C158 C 0.65783 0.25969 1.02636 0.0
C159 C 0.68191 0.24027 0.07518 0.0
C160 C 0.65327 0.24716 0.12579 0.0
C161 C 0.60132 0.27171 0.1274 0.0
C162 C 0.52689 0.37069 0.07074 0.0
C163 C 0.53807 0.40445 0.11391 0.0
C164 C 0.54036 0.45621 0.10387 0.0
C165 C 0.53084 0.47547 0.05024 0.0
C166 C 0.52017 0.44128 1.00683 0.0
C167 C 0.51878 0.38945 1.01684 0.0
C168 C 0.48121 0.71655 1.01803 0.0
C169 C 0.46692 0.73519 0.07085 0.0
C170 C 0.41508 0.75894 0.07974 0.0
C171 C 0.37687 0.76587 1.03578 0.0
C172 C 0.3914 0.74715 0.98305 0.0
C173 C 0.44284 0.72264 0.97445 0.0
C174 C 0.5851 0.7141 1.02014 0.0
C175 C 0.61503 0.73706 0.97677 0.0
C176 C 0.66769 0.75899 0.98629 0.0
C177 C 0.69139 0.75864 1.03964 0.0
C178 C 0.66149 0.73544 0.08315 0.0
C179 C 0.60892 0.71328 0.07353 0.0
C180 C 0.53145 0.6358 1.0195 0.0
C181 C 0.51218 0.61661 0.0705 0.0
C182 C 0.51167 0.56476 0.08024 0.0
C183 C 0.53155 0.53085 1.03979 0.0
C184 C 0.55184 0.55041 0.98923 0.0
C185 C 0.55149 0.60224 0.97924 0.0
C186 C 0.01487 0.12047 0.90804 0.0
C187 C 0.04012 0.12736 0.18251 0.0
C188 C 0.02367 0.87819 0.9144 0.0
C189 C 0.04365 0.88463 0.19009 0.0
C190 C 0.17082 0.88471 0.04859 0.0
C191 C 0.16307 0.12491 1.03043 0.0
C192 C 0.8951 0.87767 0.06215 0.0
C193 C 0.88692 0.11874 0.06159 0.0
C194 C 0.90679 1.00964 0.19411 0.0
C195 C 0.17777 1.02181 0.16466 0.0
C196 C 0.8791 0.99669 0.93171 0.0
C197 C 0.1506 1.00352 0.90364 0.0
Eu198 Eu 0.02559 0.10116 0.04619 0.0
O199 O 0.08001 0.05017 0.09082 0.0
O200 O 0.97352 0.04624 1.00384 0.0
Eu201 Eu 0.13094 1.00389 1.03827 0.0
Eu202 Eu 0.92667 0.99907 0.05972 0.0
O203 O 0.07027 0.048 0.99422 0.0
O204 O 0.98465 0.04798 0.10111 0.0
Eu205 Eu 0.01778 1.0001 0.94473 0.0
Eu206 Eu 0.03997 1.00532 0.15349 0.0
O207 O 0.0733 0.95565 0.9958 0.0
O208 O 0.08395 0.95805 0.09492 0.0
O209 O 0.98736 0.95582 0.10493 0.0
O210 O 0.97735 0.95354 1.0062 0.0
Eu211 Eu 0.03218 0.90336 0.05178 0.0
O212 O 0.02037 0.13926 0.95972 0.0
O213 O 0.03169 0.14353 0.13018 0.0
O214 O 0.03092 0.86181 0.96692 0.0
O215 O 0.03708 0.86571 0.13856 0.0
O216 O 0.18283 0.93345 0.04405 0.0
O217 O 0.17702 0.07657 1.02731 0.0
O218 O 0.87998 0.92574 0.06621 0.0
O219 O 0.87552 0.06977 0.06286 0.0
O220 O 0.96119 1.01315 0.20718 0.0
O221 O 0.12807 1.01565 0.18979 0.0
O222 O 0.92964 0.99938 0.90756 0.0
O223 O 0.09621 1.0062 0.89046 0.0
O224 O 0.94788 0.86093 0.05511 0.0
O225 O 0.11886 0.86504 0.0501 0.0
O226 O 0.93838 0.13875 0.05449 0.0
O227 O 0.11079 0.1425 1.03925 0.0
O228 O 0.04444 0.07945 0.19824 0.0
O229 O 0.04658 0.93346 0.20281 0.0
O230 O 0.01171 0.07174 0.89535 0.0
O231 O 0.01714 0.92613 0.89932 0.0
O232 O 0.17127 0.99934 0.9545 0.0
O233 O 0.18725 1.01802 0.11059 0.0
O234 O 0.86971 0.99556 0.98602 0.0
O235 O 0.88631 1.0016 0.1437 0.0
C236 C 0.99973 0.22911 0.28694 0.0
C237 C 0.03602 0.21911 0.33206 0.0
C238 C 0.00382 0.20229 0.23644 0.0
C239 C 0.04406 0.16406 0.22925 0.0
H240 H 0.96685 0.25704 0.2912 0.0
H241 H 0.97317 0.20947 0.20421 0.0
S242 S 0.15206 0.12551 0.33193 0.0
N243 N 0.11564 0.16968 0.3641 0.0
N244 N 0.12374 0.12032 0.26974 0.0
C245 C 0.08236 0.15554 0.27283 0.0
C246 C 0.0783 0.18273 0.32398 0.0
C247 C 0.76618 1.00561 0.26324 0.0
C248 C 0.76102 0.05474 0.28442 0.0
C249 C 0.81659 0.989 0.23952 0.0
C250 C 0.86373 1.02062 0.23626 0.0
H251 H 0.73001 0.98089 0.26147 0.0
H252 H 0.81768 0.95226 0.2203 0.0
S253 S 0.87513 0.14964 0.29312 0.0
N254 N 0.8098 0.13259 0.30703 0.0
N255 N 0.90439 0.10129 0.26107 0.0
C256 C 0.86083 0.06821 0.26128 0.0
C257 C 0.80937 0.08535 0.28547 0.0
C258 C 0.08153 0.83846 0.33494 0.0
C259 C 0.05208 0.79282 0.34078 0.0
C260 C 0.07976 0.86637 0.28555 0.0
C261 C 0.04868 0.85013 0.23903 0.0
H262 H 0.10535 0.85352 0.36942 0.0
H263 H 0.10272 0.90158 0.28418 0.0
S264 S 0.96618 0.73188 0.23103 0.0
N265 N 0.99248 0.73144 0.29446 0.0
N266 N 0.98896 0.78427 0.20162 0.0
C267 C 0.02011 0.8039 0.24351 0.0
C268 C 0.02161 0.77539 0.29432 0.0
C269 C 0.30846 0.09483 0.19957 0.0
C270 C 0.32994 0.06939 0.24595 0.0
C271 C 0.25789 0.07995 0.17526 0.0
C272 C 0.22643 0.03951 0.19678 0.0
H273 H 0.33182 0.12547 0.18078 0.0
H274 H 0.24378 0.09974 0.1385 0.0
S275 S 0.26196 0.96297 0.32001 0.0
N276 N 0.31448 1.00346 0.31447 0.0
N277 N 0.21853 0.97582 0.26848 0.0
C278 C 0.24596 1.015 0.24442 0.0
C279 C 0.29811 0.02976 0.26896 0.0
C280 C 1.00011 0.82748 0.76848 0.0
C281 C 0.03345 0.78382 0.76581 0.0
C282 C 0.99526 0.85567 0.81748 0.0
C283 C 0.02352 0.84195 0.8667 0.0
H284 H 0.97903 0.84131 0.73173 0.0
H285 H 0.96999 0.88957 0.81613 0.0
S286 S 0.11212 0.72825 0.88418 0.0
N287 N 0.09181 0.72581 0.81869 0.0
N288 N 0.08351 0.77966 0.91046 0.0
C289 C 0.05509 0.79719 0.86564 0.0
C290 C 0.06007 0.76818 0.81537 0.0
C291 C 0.28987 0.99196 0.83289 0.0
C292 C 0.29565 0.03941 0.80767 0.0
C293 C 0.23976 0.97811 0.85925 0.0
C294 C 0.19339 1.01081 0.86045 0.0
H295 H 0.32557 0.96679 0.83581 0.0
H296 H 0.23853 0.94301 0.88215 0.0
S297 S 0.18435 0.13655 0.79487 0.0
N298 N 0.24887 0.11713 0.78087 0.0
N299 N 0.15436 0.09069 0.83057 0.0
C300 C 0.19693 0.0566 0.83173 0.0
C301 C 0.24827 0.07109 0.8054 0.0
C302 C 0.98775 0.16551 0.76035 0.0
C303 C 0.01645 0.2116 0.75685 0.0
C304 C 0.98573 0.13797 0.81001 0.0
C305 C 0.01266 0.15487 0.85879 0.0
H306 H 0.96636 0.15057 0.72427 0.0
H307 H 0.96313 0.10257 0.80981 0.0
S308 S 0.09509 0.27284 0.87135 0.0
N309 N 0.07282 0.27314 0.80642 0.0
N310 N 0.0698 0.2209 0.89972 0.0
C311 C 0.04108 0.2013 0.85615 0.0
C312 C 0.04284 0.22966 0.8053 0.0
C313 C 0.77487 0.04612 0.82728 0.0
C314 C 0.72376 0.02547 0.8464 0.0
C315 C 0.82626 0.03336 0.85204 0.0
C316 C 0.82815 0.99981 0.89704 0.0
H317 H 0.77493 0.07358 0.79405 0.0
H318 H 0.86412 0.0523 0.83817 0.0
S319 S 0.7074 0.93099 0.95878 0.0
N320 N 0.67909 0.96675 0.91025 0.0
N321 N 0.77561 0.9422 0.95608 0.0
C322 C 0.7779 0.97641 0.91412 0.0
C323 C 0.72569 0.98935 0.88898 0.0
C324 C 0.26297 0.23338 0.06276 0.0
C325 C 0.31408 0.217 1.03878 0.0
C326 C 0.21285 0.20547 0.05695 0.0
C327 C 0.21193 0.16006 1.02694 0.0
H328 H 0.26193 0.26756 0.08721 0.0
H329 H 0.17538 0.21831 0.07831 0.0
S330 S 0.33362 0.10146 0.95423 0.0
N331 N 0.35987 0.1524 0.9834 0.0
N332 N 0.26608 0.10192 0.96967 0.0
C333 C 0.2622 0.14469 1.0005 0.0
C334 C 0.31308 0.17253 1.00716 0.0
C335 C 0.27226 0.77647 1.02046 0.0
C336 C 0.32295 0.794 0.04409 0.0
C337 C 0.222 0.80439 1.02446 0.0
C338 C 0.22071 0.85108 0.05187 0.0
H339 H 0.27158 0.74119 0.99797 0.0
H340 H 0.18465 0.79035 1.00399 0.0
S341 S 0.3405 0.9126 0.12388 0.0
N342 N 0.36751 0.86063 0.09749 0.0
N343 N 0.27347 0.91188 0.1065 0.0
C344 C 0.27047 0.86797 0.0776 0.0
C345 C 0.32141 0.8398 0.07337 0.0
C346 C 0.78386 0.22882 0.0468 0.0
C347 C 0.73508 0.21041 0.0734 0.0
C348 C 0.8339 0.20022 0.04482 0.0
C349 C 0.83668 0.15194 0.06881 0.0
H350 H 0.7833 0.26556 1.02736 0.0
H351 H 0.86998 0.2154 1.02301 0.0
S352 S 0.71998 0.08661 0.14296 0.0
N353 N 0.69264 0.14077 0.12339 0.0
N354 N 0.78584 0.08796 0.12159 0.0
C355 C 0.78815 0.13375 0.09638 0.0
C356 C 0.73764 0.16263 0.09811 0.0
C357 C 0.79363 0.77485 1.0172 0.0
C358 C 0.7458 0.78477 0.05019 0.0
C359 C 0.84382 0.80243 1.0239 0.0
C360 C 0.84749 0.84145 0.06319 0.0
H361 H 0.79182 0.74624 0.98523 0.0
H362 H 0.87876 0.79502 0.99617 0.0
S363 S 0.73483 0.88126 0.16075 0.0
N364 N 0.70618 0.83527 0.12452 0.0
N365 N 0.79967 0.88697 0.13697 0.0
C366 C 0.80049 0.85048 0.09747 0.0
C367 C 0.7499 0.82223 0.09103 0.0
loop_
_geom_bond_atom_site_label_1
_geom_bond_atom_site_label_2
_geom_bond_distance
_geom_bond_site_symmetry_2
_ccdc_geom_bond_type
H0 C27 0.929 . S
N1 C26 1.433 . S
N1 C32 1.435 . S
N1 C38 1.423 1_455 S
H2 C28 0.930 . S
H3 C31 0.931 . S
H4 C30 0.929 . S
H5 C33 0.930 . S
H6 C34 0.932 . S
H7 C37 0.929 . S
H8 C36 0.931 . S
H9 C39 0.929 . S
H10 C43 0.932 . S
H11 C40 0.931 . S
H12 C42 0.929 . S
H13 C45 0.929 . S
H14 C46 0.930 . S
H15 C48 0.929 . S
H16 C49 0.931 . S
H17 C51 0.930 . S
H18 C52 0.932 . S
H19 C54 0.931 . S
H20 C55 0.929 . S
H21 C57 0.929 . S
H22 C58 0.931 . S
H23 C60 0.929 . S
N24 C44 1.433 . S
N24 C50 1.435 . S
N24 C56 1.423 1_455 S
H25 C61 0.932 . S
C26 N1 1.433 . S
C26 C27 1.363 1_455 S
C26 C31 1.370 . S
C27 H0 0.929 . S
C27 C26 1.363 1_655 S
C27 C28 1.385 . S
C28 H2 0.930 . S
C28 C27 1.385 . S
C28 C29 1.357 1_655 S
C29 C28 1.357 1_455 S
C29 C30 1.406 . S
C30 H4 0.929 . S
C30 C29 1.406 . S
C30 C31 1.391 . S
C31 H3 0.931 . S
C31 C26 1.370 . S
C31 C30 1.391 . S
C32 N1 1.435 . S
C32 C33 1.358 . S
C32 C37 1.371 1_455 S
C33 H5 0.930 . S
C33 C32 1.358 . S
C33 C34 1.405 . S
C34 H6 0.932 . S
C34 C33 1.405 . S
C34 C35 1.383 . S
C35 C34 1.383 . S
C35 C36 1.393 1_455 S
C36 H8 0.931 . S
C36 C35 1.393 1_655 S
C36 C37 1.382 . S
C37 H7 0.929 . S
C37 C32 1.371 1_655 S
C37 C36 1.382 . S
C38 N1 1.423 1_655 S
C38 C39 1.362 . S
C38 C43 1.388 1_655 S
C39 H9 0.929 . S
C39 C38 1.362 . S
C39 C40 1.376 . S
C40 H11 0.931 . S
C40 C39 1.376 . S
C40 C41 1.396 . S
C41 C40 1.396 . S
C41 C42 1.348 1_655 S
C41 C59 1.472 . S
C42 H12 0.929 . S
C42 C41 1.348 1_455 S
C42 C43 1.443 . S
C43 H10 0.932 . S
C43 C38 1.388 1_455 S
C43 C42 1.443 . S
C44 N24 1.433 . S
C44 C45 1.363 1_455 S
C44 C49 1.370 . S
C45 H13 0.929 . S
C45 C44 1.363 1_655 S
C45 C46 1.385 . S
C46 H14 0.930 . S
C46 C45 1.385 . S
C46 C47 1.357 1_655 S
C47 C46 1.357 1_455 S
C47 C48 1.406 . S
C48 H15 0.929 . S
C48 C47 1.406 . S
C48 C49 1.391 . S
C49 H16 0.931 . S
C49 C44 1.370 . S
C49 C48 1.391 . S
C50 N24 1.435 . S
C50 C51 1.358 . S
C50 C55 1.371 1_455 S
C51 H17 0.930 . S
C51 C50 1.358 . S
C51 C52 1.405 . S
C52 H18 0.932 . S
C52 C51 1.405 . S
C52 C53 1.383 . S
C53 C52 1.383 . S
C53 C54 1.393 1_455 S
C54 H19 0.931 . S
C54 C53 1.393 1_655 S
C54 C55 1.382 . S
C55 H20 0.929 . S
C55 C50 1.371 1_655 S
C55 C54 1.382 . S
C56 N24 1.423 1_655 S
C56 C57 1.362 . S
C56 C61 1.388 1_655 S
C57 H21 0.929 . S
C57 C56 1.362 . S
C57 C58 1.376 . S
C58 H22 0.931 . S
C58 C57 1.376 . S
C58 C59 1.396 . S
C59 C41 1.472 . S
C59 C58 1.396 . S
C59 C60 1.348 1_655 S
C60 H23 0.929 . S
C60 C59 1.348 1_455 S
C60 C61 1.443 . S
C61 H25 0.932 . S
C61 C56 1.388 1_455 S
C61 C60 1.443 . S
H62 C89 0.929 . S
N63 C88 1.433 . S
N63 C94 1.435 . S
N63 C100 1.423 . S
H64 C90 0.930 . S
H65 C93 0.931 . S
H66 C92 0.929 . S
H67 C95 0.930 . S
H68 C96 0.932 . S
H69 C99 0.929 . S
H70 C98 0.931 . S
H71 C101 0.929 . S
H72 C105 0.932 1_545 S
H73 C102 0.931 . S
H74 C104 0.929 1_545 S
H75 C107 0.929 . S
H76 C108 0.930 . S
H77 C110 0.929 . S
H78 C111 0.931 . S
H79 C113 0.930 . S
H80 C114 0.932 . S
H81 C116 0.931 . S
H82 C117 0.929 . S
H83 C119 0.929 . S
H84 C120 0.931 . S
H85 C122 0.929 1_545 S
N86 C106 1.433 . S
N86 C112 1.435 . S
N86 C118 1.423 . S
H87 C123 0.932 1_545 S
C88 N63 1.433 . S
C88 C89 1.363 . S
C88 C93 1.370 1_565 S
C89 H62 0.929 . S
C89 C88 1.363 . S
C89 C90 1.385 . S
C90 H64 0.930 . S
C90 C89 1.385 . S
C90 C91 1.357 . S
C91 C90 1.357 . S
C91 C92 1.406 1_565 S
C92 H66 0.929 . S
C92 C91 1.406 1_545 S
C92 C93 1.391 . S
C93 H65 0.931 . S
C93 C88 1.370 1_545 S
C93 C92 1.391 . S
C94 N63 1.435 . S
C94 C95 1.358 1_565 S
C94 C99 1.371 . S
C95 H67 0.930 . S
C95 C94 1.358 1_545 S
C95 C96 1.405 . S
C96 H68 0.932 . S
C96 C95 1.405 . S
C96 C97 1.383 1_545 S
C97 C96 1.383 1_565 S
C97 C98 1.393 . S
C98 H70 0.931 . S
C98 C97 1.393 . S
C98 C99 1.382 . S
C99 H69 0.929 . S
C99 C94 1.371 . S
C99 C98 1.382 . S
C100 N63 1.423 . S
C100 C101 1.362 . S
C100 C105 1.388 . S
C101 H71 0.929 . S
C101 C100 1.362 . S
C101 C102 1.376 . S
C102 H73 0.931 . S
C102 C101 1.376 . S
C102 C103 1.396 . S
C103 C102 1.396 . S
C103 C104 1.348 . S
C103 C121 1.472 . S
C104 H74 0.929 1_565 S
C104 C103 1.348 . S
C104 C105 1.443 . S
C105 H72 0.932 1_565 S
C105 C100 1.388 . S
C105 C104 1.443 . S
C106 N86 1.433 . S
C106 C107 1.363 . S
C106 C111 1.370 1_565 S
C107 H75 0.929 . S
C107 C106 1.363 . S
C107 C108 1.385 . S
C108 H76 0.930 . S
C108 C107 1.385 . S
C108 C109 1.357 . S
C109 C108 1.357 . S
C109 C110 1.406 1_565 S
C110 H77 0.929 . S
C110 C109 1.406 1_545 S
C110 C111 1.391 . S
C111 H78 0.931 . S
C111 C106 1.370 1_545 S
C111 C110 1.391 . S
C112 N86 1.435 . S
C112 C113 1.358 1_565 S
C112 C117 1.371 . S
C113 H79 0.930 . S
C113 C112 1.358 1_545 S
C113 C114 1.405 . S
C114 H80 0.932 . S
C114 C113 1.405 . S
C114 C115 1.383 1_545 S
C115 C114 1.383 1_565 S
C115 C116 1.393 . S
C116 H81 0.931 . S
C116 C115 1.393 . S
C116 C117 1.382 . S
C117 H82 0.929 . S
C117 C112 1.371 . S
C117 C116 1.382 . S
C118 N86 1.423 . S
C118 C119 1.362 . S
C118 C123 1.388 . S
C119 H83 0.929 . S
C119 C118 1.362 . S
C119 C120 1.376 . S
C120 H84 0.931 . S
C120 C119 1.376 . S
C120 C121 1.396 . S
C121 C103 1.472 . S
C121 C120 1.396 . S
C121 C122 1.348 . S
C122 H85 0.929 1_565 S
C122 C121 1.348 . S
C122 C123 1.443 . S
C123 H87 0.932 1_565 S
C123 C118 1.388 . S
C123 C122 1.443 . S
H124 C151 0.929 . S
N125 C150 1.433 . S
N125 C156 1.435 . S
N125 C162 1.423 . S
H126 C152 0.930 . S
H127 C155 0.931 . S
H128 C154 0.929 . S
H129 C157 0.930 . S
H130 C158 0.932 . S
H131 C161 0.929 . S
H132 C160 0.931 . S
H133 C163 0.929 . S
H134 C167 0.932 1_556 S
H135 C164 0.931 . S
H136 C166 0.940 . S
H137 C169 0.929 . S
H138 C170 0.930 . S
H139 C172 0.929 . S
H140 C173 0.931 . S
H141 C175 0.930 . S
H142 C176 0.932 . S
H143 C178 0.931 . S
H144 C179 0.929 . S
H145 C181 0.929 . S
H146 C182 0.931 . S
H147 C184 0.940 . S
N148 C168 1.433 . S
N148 C174 1.435 . S
N148 C180 1.423 . S
H149 C185 0.932 1_556 S
C150 N125 1.433 . S
C150 C151 1.363 . S
C150 C155 1.370 1_554 S
C151 H124 0.929 . S
C151 C150 1.363 . S
C151 C152 1.385 . S
C152 H126 0.930 . S
C152 C151 1.385 . S
C152 C153 1.357 . S
C153 C152 1.357 . S
C153 C154 1.406 1_554 S
C154 H128 0.929 . S
C154 C153 1.406 1_556 S
C154 C155 1.391 . S
C155 H127 0.931 . S
C155 C150 1.370 1_556 S
C155 C154 1.391 . S
C156 N125 1.435 . S
C156 C157 1.358 1_554 S
C156 C161 1.371 . S
C157 H129 0.930 . S
C157 C156 1.358 1_556 S
C157 C158 1.405 . S
C158 H130 0.932 . S
C158 C157 1.405 . S
C158 C159 1.383 1_556 S
C159 C158 1.383 1_554 S
C159 C160 1.393 . S
C160 H132 0.931 . S
C160 C159 1.393 . S
C160 C161 1.382 . S
C161 H131 0.929 . S
C161 C156 1.371 . S
C161 C160 1.382 . S
C162 N125 1.423 . S
C162 C163 1.362 . S
C162 C167 1.388 . S
C163 H133 0.929 . S
C163 C162 1.362 . S
C163 C164 1.376 . S
C164 H135 0.931 . S
C164 C163 1.376 . S
C164 C165 1.396 . S
C165 C164 1.396 . S
C165 C166 1.348 . S
C165 C183 1.472 . S
C166 H136 0.940 . S
C166 C165 1.348 . S
C166 C167 1.443 . S
C167 H134 0.932 1_554 S
C167 C162 1.388 . S
C167 C166 1.443 . S
C168 N148 1.433 . S
C168 C169 1.363 . S
C168 C173 1.370 1_554 S
C169 H137 0.929 . S
C169 C168 1.363 . S
C169 C170 1.385 . S
C170 H138 0.930 . S
C170 C169 1.385 . S
C170 C171 1.357 . S
C171 C170 1.357 . S
C171 C172 1.406 1_554 S
C172 H139 0.929 . S
C172 C171 1.406 1_556 S
C172 C173 1.391 . S
C173 H140 0.931 . S
C173 C168 1.370 1_556 S
C173 C172 1.391 . S
C174 N148 1.435 . S
C174 C175 1.358 1_554 S
C174 C179 1.371 . S
C175 H141 0.930 . S
C175 C174 1.358 1_556 S
C175 C176 1.405 . S
C176 H142 0.932 . S
C176 C175 1.405 . S
C176 C177 1.383 1_556 S
C177 C176 1.383 1_554 S
C177 C178 1.393 . S
C178 H143 0.931 . S
C178 C177 1.393 . S
C178 C179 1.382 . S
C179 H144 0.929 . S
C179 C174 1.371 . S
C179 C178 1.382 . S
C180 N148 1.423 . S
C180 C181 1.362 . S
C180 C185 1.388 . S
C181 H145 0.929 . S
C181 C180 1.362 . S
C181 C182 1.376 . S
C182 H146 0.931 . S
C182 C181 1.376 . S
C182 C183 1.396 . S
C183 C165 1.472 . S
C183 C182 1.396 . S
C183 C184 1.348 . S
C184 H147 0.940 . S
C184 C183 1.348 . S
C184 C185 1.443 . S
C185 H149 0.932 1_554 S
C185 C180 1.388 . S
C185 C184 1.443 . S
C186 O212 1.283 . S
C186 O230 1.283 . S
C187 O213 1.283 . S
C187 O228 1.283 . S
C188 O214 1.283 . S
C188 O231 1.283 . S
C189 O215 1.283 . S
C189 O229 1.283 . S
C190 O216 1.283 . S
C190 O225 1.283 . S
C191 O217 1.283 . S
C191 O227 1.283 . S
C192 O218 1.283 . S
C192 O224 1.283 . S
C193 O219 1.283 . S
C193 O226 1.283 . S
C194 O220 1.283 . S
C194 O235 1.283 . S
C195 O221 1.283 . S
C195 O233 1.283 . S
C196 O222 1.283 . S
C196 O234 1.283 . S
C197 O223 1.283 . S
C197 O232 1.283 . S
Eu198 O199 2.370 . S
Eu198 O200 2.370 1_454 S
Eu198 O203 2.370 1_554 S
Eu198 O204 2.370 1_455 S
Eu198 O212 2.363 1_554 S
Eu198 O213 2.363 . S
Eu198 O226 2.363 1_455 S
Eu198 O227 2.363 . S
O199 Eu198 2.370 . S
O199 Eu201 2.370 . S
O199 Eu206 2.370 . S
O200 Eu198 2.370 1_656 S
O200 Eu202 2.370 1_556 S
O200 Eu205 2.370 1_655 S
Eu201 O199 2.370 . S
Eu201 O203 2.370 1_554 S
Eu201 O207 2.370 1_544 S
Eu201 O208 2.370 1_545 S
Eu201 O216 2.363 1_545 S
Eu201 O217 2.363 . S
Eu201 O232 2.363 1_554 S
Eu201 O233 2.363 . S
Eu202 O200 2.370 1_554 S
Eu202 O204 2.370 . S
Eu202 O209 2.370 1_545 S
Eu202 O210 2.370 1_544 S
Eu202 O218 2.363 1_545 S
Eu202 O219 2.363 . S
Eu202 O234 2.363 1_554 S
Eu202 O235 2.363 . S
O203 Eu198 2.370 1_556 S
O203 Eu201 2.370 1_556 S
O203 Eu205 2.370 . S
O204 Eu198 2.370 1_655 S
O204 Eu202 2.370 . S
O204 Eu206 2.370 1_655 S
Eu205 O200 2.370 1_455 S
Eu205 O203 2.370 . S
Eu205 O207 2.370 1_545 S
Eu205 O210 2.370 1_445 S
Eu205 O222 2.363 1_455 S
Eu205 O223 2.363 . S
Eu205 O230 2.363 . S
Eu205 O231 2.363 1_545 S
Eu206 O199 2.370 . S
Eu206 O204 2.370 1_455 S
Eu206 O208 2.370 1_545 S
Eu206 O209 2.370 1_445 S
Eu206 O220 2.363 1_455 S
Eu206 O221 2.363 . S
Eu206 O228 2.363 . S
Eu206 O229 2.363 1_545 S
O207 Eu201 2.370 1_566 S
O207 Eu205 2.370 1_565 S
O207 Eu211 2.370 1_556 S
O208 Eu201 2.370 1_565 S
O208 Eu206 2.370 1_565 S
O208 Eu211 2.370 . S
O209 Eu202 2.370 1_565 S
O209 Eu206 2.370 1_665 S
O209 Eu211 2.370 1_655 S
O210 Eu202 2.370 1_566 S
O210 Eu205 2.370 1_665 S
O210 Eu211 2.370 1_656 S
Eu211 O207 2.370 1_554 S
Eu211 O208 2.370 . S
Eu211 O209 2.370 1_455 S
Eu211 O210 2.370 1_454 S
Eu211 O214 2.363 1_554 S
Eu211 O215 2.363 . S
Eu211 O224 2.363 1_455 S
Eu211 O225 2.363 . S
O212 C186 1.283 . S
O212 Eu198 2.363 1_556 S
O213 C187 1.283 . S
O213 Eu198 2.363 . S
O214 C188 1.283 . S
O214 Eu211 2.363 1_556 S
O215 C189 1.283 . S
O215 Eu211 2.363 . S
O216 C190 1.283 . S
O216 Eu201 2.363 1_565 S
O217 C191 1.283 . S
O217 Eu201 2.363 . S
O218 C192 1.283 . S
O218 Eu202 2.363 1_565 S
O219 C193 1.283 . S
O219 Eu202 2.363 . S
O220 C194 1.283 . S
O220 Eu206 2.363 1_655 S
O221 C195 1.283 . S
O221 Eu206 2.363 . S
O222 C196 1.283 . S
O222 Eu205 2.363 1_655 S
O223 C197 1.283 . S
O223 Eu205 2.363 . S
O224 C192 1.283 . S
O224 Eu211 2.363 1_655 S
O225 C190 1.283 . S
O225 Eu211 2.363 . S
O226 C193 1.283 . S
O226 Eu198 2.363 1_655 S
O227 C191 1.283 . S
O227 Eu198 2.363 . S
O228 C187 1.283 . S
O228 Eu206 2.363 . S
O229 C189 1.283 . S
O229 Eu206 2.363 1_565 S
O230 C186 1.283 . S
O230 Eu205 2.363 . S
O231 C188 1.283 . S
O231 Eu205 2.363 1_565 S
O232 C197 1.283 . S
O232 Eu201 2.363 1_556 S
O233 C195 1.283 . S
O233 Eu201 2.363 . S
O234 C196 1.283 . S
O234 Eu202 2.363 1_556 S
O235 C194 1.283 . S
O235 Eu202 2.363 . S
C236 C237 1.369 . S
C236 C238 1.419 . S
C236 H240 0.930 . S
C237 C236 1.369 . S
C237 C246 1.429 . S
C238 C236 1.419 . S
C238 C239 1.363 . S
C238 H241 0.929 . S
C239 C238 1.363 . S
C239 C245 1.428 . S
H240 C236 0.930 . S
H241 C238 0.929 . S
S242 N243 1.613 1_655 S
S242 N244 1.610 1_655 S
N243 S242 1.613 1_455 S
N243 C246 1.350 . S
N244 S242 1.610 1_455 S
N244 C245 1.351 . S
C245 C239 1.428 . S
C245 N244 1.351 . S
C245 C246 1.434 . S
C246 C237 1.429 . S
C246 N243 1.350 . S
C246 C245 1.434 . S
C247 C248 1.356 1_565 S
C247 C249 1.419 . S
C247 H251 0.930 . S
C248 C247 1.356 1_545 S
C248 C257 1.442 . S
C249 C247 1.419 . S
C249 C250 1.352 1_565 S
C249 H252 0.929 . S
C250 C249 1.352 1_545 S
C250 C256 1.439 . S
H251 C247 0.930 . S
H252 C249 0.929 . S
S253 N254 1.613 . S
S253 N255 1.610 . S
N254 S253 1.613 . S
N254 C257 1.350 . S
N255 S253 1.610 . S
N255 C256 1.351 . S
C256 C250 1.439 . S
C256 N255 1.351 . S
C256 C257 1.434 . S
C257 C248 1.442 . S
C257 N254 1.350 . S
C257 C256 1.434 . S
C258 C259 1.369 . S
C258 C260 1.419 . S
C258 H262 0.930 . S
C259 C258 1.369 . S
C259 C268 1.429 . S
C260 C258 1.419 . S
C260 C261 1.363 . S
C260 H263 0.929 . S
C261 C260 1.363 . S
C261 C267 1.428 . S
H262 C258 0.930 . S
H263 C260 0.929 . S
S264 N265 1.613 . S
S264 N266 1.610 . S
N265 S264 1.613 . S
N265 C268 1.350 . S
N266 S264 1.610 . S
N266 C267 1.351 . S
C267 C261 1.428 . S
C267 N266 1.351 . S
C267 C268 1.434 . S
C268 C259 1.429 . S
C268 N265 1.350 . S
C268 C267 1.434 . S
C269 C270 1.369 1_545 S
C269 C271 1.419 . S
C269 H273 0.930 . S
C270 C269 1.369 1_565 S
C270 C279 1.428 . S
C271 C269 1.419 . S
C271 C272 1.364 1_545 S
C271 H274 0.929 . S
C272 C271 1.364 1_565 S
C272 C278 1.428 . S
H273 C269 0.930 . S
H274 C271 0.929 . S
S275 N276 1.613 . S
S275 N277 1.610 . S
N276 S275 1.613 . S
N276 C279 1.350 . S
N277 S275 1.610 . S
N277 C278 1.351 . S
C278 C272 1.428 . S
C278 N277 1.351 . S
C278 C279 1.434 . S
C279 C270 1.428 . S
C279 N276 1.350 . S
C279 C278 1.434 . S
C280 C281 1.369 . S
C280 C282 1.419 . S
C280 H284 0.930 . S
C281 C280 1.369 . S
C281 C290 1.429 . S
C282 C280 1.419 . S
C282 C283 1.363 . S
C282 H285 0.929 . S
C283 C282 1.363 . S
C283 C289 1.428 . S
H284 C280 0.930 . S
H285 C282 0.929 . S
S286 N287 1.613 . S
S286 N288 1.610 . S
N287 S286 1.613 . S
N287 C290 1.350 . S
N288 S286 1.610 . S
N288 C289 1.351 . S
C289 C283 1.428 . S
C289 N288 1.351 . S
C289 C290 1.434 . S
C290 C281 1.429 . S
C290 N287 1.350 . S
C290 C289 1.434 . S
C291 C292 1.368 1_565 S
C291 C293 1.419 . S
C291 H295 0.930 . S
C292 C291 1.368 1_545 S
C292 C301 1.430 . S
C293 C291 1.419 . S
C293 C294 1.362 1_565 S
C293 H296 0.929 . S
C294 C293 1.362 1_545 S
C294 C300 1.429 . S
H295 C291 0.930 . S
H296 C293 0.929 . S
S297 N298 1.613 . S
S297 N299 1.610 . S
N298 S297 1.613 . S
N298 C301 1.350 . S
N299 S297 1.610 . S
N299 C300 1.351 . S
C300 C294 1.429 . S
C300 N299 1.351 . S
C300 C301 1.434 . S
C301 C292 1.430 . S
C301 N298 1.350 . S
C301 C300 1.434 . S
C302 C303 1.369 1_655 S
C302 C304 1.419 . S
C302 H306 0.930 . S
C303 C302 1.369 1_455 S
C303 C312 1.429 . S
C304 C302 1.419 . S
C304 C305 1.363 1_655 S
C304 H307 0.929 . S
C305 C304 1.363 1_455 S
C305 C311 1.428 . S
H306 C302 0.930 . S
H307 C304 0.929 . S
S308 N309 1.613 . S
S308 N310 1.610 . S
N309 S308 1.613 . S
N309 C312 1.350 . S
N310 S308 1.610 . S
N310 C311 1.351 . S
C311 C305 1.428 . S
C311 N310 1.351 . S
C311 C312 1.434 . S
C312 C303 1.429 . S
C312 N309 1.350 . S
C312 C311 1.434 . S
C313 C314 1.363 1_545 S
C313 C315 1.419 . S
C313 H317 0.930 . S
C314 C313 1.363 1_565 S
C314 C323 1.435 . S
C315 C313 1.419 . S
C315 C316 1.359 1_545 S
C315 H318 0.929 . S
C316 C315 1.359 1_565 S
C316 C322 1.433 . S
H317 C313 0.930 . S
H318 C315 0.929 . S
S319 N320 1.613 . S
S319 N321 1.610 . S
N320 S319 1.613 . S
N320 C323 1.350 . S
N321 S319 1.610 . S
N321 C322 1.351 . S
C322 C316 1.433 . S
C322 N321 1.351 . S
C322 C323 1.434 . S
C323 C314 1.435 . S
C323 N320 1.350 . S
C323 C322 1.434 . S
C324 C325 1.369 . S
C324 C326 1.419 . S
C324 H328 0.930 . S
C325 C324 1.369 . S
C325 C334 1.429 1_554 S
C326 C324 1.419 . S
C326 C327 1.363 . S
C326 H329 0.929 . S
C327 C326 1.363 . S
C327 C333 1.428 1_554 S
H328 C324 0.930 . S
H329 C326 0.929 . S
S330 N331 1.613 . S
S330 N332 1.610 . S
N331 S330 1.613 . S
N331 C334 1.350 . S
N332 S330 1.610 . S
N332 C333 1.351 . S
C333 C327 1.428 1_556 S
C333 N332 1.351 . S
C333 C334 1.434 . S
C334 C325 1.429 1_556 S
C334 N331 1.350 . S
C334 C333 1.434 . S
C335 C336 1.369 1_556 S
C335 C337 1.419 . S
C335 H339 0.930 . S
C336 C335 1.369 1_554 S
C336 C345 1.429 . S
C337 C335 1.419 . S
C337 C338 1.363 1_556 S
C337 H340 0.929 . S
C338 C337 1.363 1_554 S
C338 C344 1.428 . S
H339 C335 0.930 . S
H340 C337 0.929 . S
S341 N342 1.613 . S
S341 N343 1.610 . S
N342 S341 1.613 . S
N342 C345 1.350 . S
N343 S341 1.610 . S
N343 C344 1.351 . S
C344 C338 1.428 . S
C344 N343 1.351 . S
C344 C345 1.434 . S
C345 C336 1.429 . S
C345 N342 1.350 . S
C345 C344 1.434 . S
C346 C347 1.369 1_556 S
C346 C348 1.419 . S
C346 H350 0.930 . S
C347 C346 1.369 1_554 S
C347 C356 1.429 . S
C348 C346 1.419 . S
C348 C349 1.363 1_556 S
C348 H351 0.929 . S
C349 C348 1.363 1_554 S
C349 C355 1.428 . S
H350 C346 0.930 . S
H351 C348 0.929 . S
S352 N353 1.613 . S
S352 N354 1.610 . S
N353 S352 1.613 . S
N353 C356 1.350 . S
N354 S352 1.610 . S
N354 C355 1.351 . S
C355 C349 1.428 . S
C355 N354 1.351 . S
C355 C356 1.434 . S
C356 C347 1.429 . S
C356 N353 1.350 . S
C356 C355 1.434 . S
C357 C358 1.369 . S
C357 C359 1.419 . S
C357 H361 0.930 . S
C358 C357 1.369 . S
C358 C367 1.429 1_554 S
C359 C357 1.419 . S
C359 C360 1.363 . S
C359 H362 0.929 . S
C360 C359 1.363 . S
C360 C366 1.428 1_554 S
H361 C357 0.930 . S
H362 C359 0.929 . S
S363 N364 1.613 . S
S363 N365 1.610 . S
N364 S363 1.613 . S
N364 C367 1.350 . S
N365 S363 1.610 . S
N365 C366 1.351 . S
C366 C360 1.428 1_556 S
C366 N365 1.351 . S
C366 C367 1.434 . S
C367 C358 1.429 1_556 S
C367 N364 1.350 . S
C367 C366 1.434 . S
C239 C187 2.052 . S
C237 C53 2.077 . S
C250 C194 1.424 . S
C248 C97 1.450 1_545 S
C261 C189 2.056 . S
C259 C35 2.076 . S
C272 C195 1.403 1_565 S
C270 C91 1.384 . S
C281 C29 2.089 . S
C283 C188 2.120 . S
C294 C197 1.405 . S
C292 C109 1.389 1_545 S
C303 C47 2.087 . S
C305 C186 2.115 . S
C314 C115 1.451 . S
C316 C196 1.423 1_565 S
C325 C153 1.667 . S
C327 C191 1.716 . S
C336 C171 1.662 . S
C338 C190 1.720 . S
C349 C193 1.617 . S
C347 C159 1.632 . S
C360 C192 1.617 . S
C358 C177 1.635 . S
