# Generated by pormake.
# Topology pth, (4,4)-cn, num edge types: 1
# Building blocks:
#     Node 0, Type 0, BuildingBlock: UXUYUI_clean_sbu_0, # of connection points: 4
#     Node 1, Type 0, BuildingBlock: UXUYUI_clean_sbu_0, # of connection points: 4
#     Node 2, Type 0, BuildingBlock: UXUYUI_clean_sbu_0, # of connection points: 4
#     Node 3, Type 1, BuildingBlock: AZAVOO_clean_linker_0, # of connection points: 4
#     Node 4, Type 1, BuildingBlock: AZAVOO_clean_linker_0, # of connection points: 4
#     Node 5, Type 1, BuildingBlock: AZAVOO_clean_linker_0, # of connection points: 4
#     Edge 6, Type (0, 1), BuildingBlock: CIFDUS_clean_linker_0, # of connection points: 2
#     Edge 7, Type (0, 1), BuildingBlock: CIFDUS_clean_linker_0, # of connection points: 2
#     Edge 8, Type (0, 1), BuildingBlock: CIFDUS_clean_linker_0, # of connection points: 2
#     Edge 9, Type (0, 1), BuildingBlock: CIFDUS_clean_linker_0, # of connection points: 2
#     Edge 10, Type (0, 1), BuildingBlock: CIFDUS_clean_linker_0, # of connection points: 2
#     Edge 11, Type (0, 1), BuildingBlock: CIFDUS_clean_linker_0, # of connection points: 2
#     Edge 12, Type (0, 1), BuildingBlock: CIFDUS_clean_linker_0, # of connection points: 2
#     Edge 13, Type (0, 1), BuildingBlock: CIFDUS_clean_linker_0, # of connection points: 2
#     Edge 14, Type (0, 1), BuildingBlock: CIFDUS_clean_linker_0, # of connection points: 2
#     Edge 15, Type (0, 1), BuildingBlock: CIFDUS_clean_linker_0, # of connection points: 2
#     Edge 16, Type (0, 1), BuildingBlock: CIFDUS_clean_linker_0, # of connection points: 2
#     Edge 17, Type (0, 1), BuildingBlock: CIFDUS_clean_linker_0, # of connection points: 2
# Relax obj value: 0.178
# Max RMSD: 0.232
# Mean RMSD: 0.228
data_MOF--net-pth--node1-UXUYUI_clean_sbu_0--node2-AZAVOO_clean_linker_0--edge1-CIFDUS_clean_linker_0
_symmetry_space_group_name_H-M    P1
_symmetry_Int_Tables_number       1
_symmetry_cell_setting            triclinic
loop_
_symmetry_equiv_pos_as_xyz
'x, y, z'
_cell_length_a     28.687093
_cell_length_b     28.661293
_cell_length_c     77.329424
_cell_angle_alpha  91.405727
_cell_angle_beta   88.91951
_cell_angle_gamma 120.00458
loop_
_atom_site_label
_atom_site_type_symbol
_atom_site_fract_x
_atom_site_fract_y
_atom_site_fract_z
_atom_type_partial_charge
Li0 Li 0.13838 0.09441 0.05405 0.0
Li1 Li 0.06465 0.08036 0.07369 0.0
Li2 Li 0.09232 0.01154 0.06939 0.0
Li3 Li 0.04323 0.02617 0.04667 0.0
C4 C 0.18292 0.12509 0.08508 0.0
N5 N 0.28215 0.20663 0.0961 0.0
C6 C 0.18736 0.17083 0.09351 0.0
C7 C 0.22881 0.12054 0.08242 0.0
C8 C 0.23793 0.21168 0.09895 0.0
C9 C 0.27866 0.1623 0.08802 0.0
C10 C 0.05782 0.13897 0.04522 0.0
C11 C 0.98516 0.15257 0.03658 0.0
N12 N 0.01985 0.20661 0.03618 0.0
C13 C 0.09287 0.19458 0.0445 0.0
C14 C 0.00363 0.11771 0.04104 0.0
C15 C 0.07285 0.22813 0.03999 0.0
C16 C 0.221 0.12977 0.02957 0.0
N17 N 0.20367 0.14643 0.0436 0.0
C18 C 0.27237 0.23771 0.03926 0.0
C19 C 0.22872 0.19908 0.04872 0.0
C20 C 0.28974 0.22201 0.02424 0.0
C21 C 0.26418 0.167 0.01966 0.0
H22 H 0.19973 0.08781 0.0256 0.0
H23 H 0.21359 0.21147 0.05974 0.0
C24 C 0.0225 0.08141 0.10587 0.0
N25 N 0.04046 0.11076 0.09123 0.0
C26 C 0.00893 0.10186 0.12044 0.0
C27 C 0.03157 0.18206 0.10447 0.0
C28 C 0.04475 0.16002 0.0902 0.0
C29 C 0.01421 0.1532 0.11994 0.0
H30 H 0.02007 0.04256 0.10634 0.0
H31 H 0.06026 0.18314 0.07859 0.0
C32 C 0.12004 0.97986 0.04084 0.0
N33 N 0.14101 0.89685 0.03446 0.0
C34 C 0.08161 0.93235 0.03266 0.0
C35 C 0.16935 0.98545 0.0456 0.0
C36 C 0.09294 0.89078 0.02958 0.0
C37 C 0.17911 0.94293 0.04232 0.0
C38 C 0.9641 0.97473 0.07298 0.0
C39 C 0.93625 0.91982 0.0767 0.0
C40 C 0.93601 0.00276 0.0721 0.0
C41 C 0.88051 0.89364 0.07917 0.0
C42 C 0.88029 0.97518 0.07467 0.0
N43 N 0.85391 0.92162 0.0781 0.0
C44 C 0.13049 0.97427 0.09558 0.0
C45 C 0.06641 0.90524 0.07724 0.0
C46 C 0.13034 0.93613 0.10644 0.0
N47 N 0.09827 0.95824 0.08147 0.0
C48 C 0.06546 0.86567 0.08765 0.0
C49 C 0.09675 0.88111 0.10268 0.0
H50 H 0.15462 0.01663 0.09881 0.0
H51 H 0.0401 0.89367 0.0662 0.0
C52 C 0.0123 0.02336 0.01276 0.0
N53 N 0.99618 0.99527 0.02768 0.0
C54 C 0.98268 0.00181 0.99764 0.0
C55 C 0.92004 0.92303 0.01363 0.0
C56 C 0.95104 0.94602 0.02841 0.0
C57 C 0.9361 0.95081 0.99795 0.0
H58 H 0.04882 0.06219 0.01256 0.0
H59 H 0.93994 0.92379 0.04027 0.0
O60 O 0.13381 0.08473 0.07962 0.0
O61 O 0.07695 0.10555 0.04944 0.0
O62 O 0.1095 0.02078 0.04414 0.0
O63 O 0.01869 0.00084 0.07055 0.0
H64 H 0.15226 0.17492 0.09575 0.0
H65 H 0.22598 0.08525 0.07602 0.0
H66 H 0.24202 0.24742 0.10542 0.0
H67 H 0.31457 0.15946 0.08596 0.0
H68 H 0.94328 0.13664 0.03337 0.0
H69 H 0.135 0.21174 0.04753 0.0
H70 H 0.97613 0.07473 0.04107 0.0
H71 H 0.09947 0.27127 0.03951 0.0
H72 H 0.29122 0.27958 0.04337 0.0
H73 H 0.27542 0.15306 0.00804 0.0
H74 H 0.99526 0.0781 0.13205 0.0
H75 H 0.03706 0.22217 0.10362 0.0
H76 H 0.04332 0.92744 0.02884 0.0
H77 H 0.19963 0.02214 0.05183 0.0
H78 H 0.06346 0.85364 0.02335 0.0
H79 H 0.21698 0.94655 0.04603 0.0
H80 H 0.95743 0.89759 0.07757 0.0
H81 H 0.95698 0.04545 0.06966 0.0
H82 H 0.8584 0.85109 0.08196 0.0
H83 H 0.85806 0.99639 0.07399 0.0
H84 H 0.15508 0.94944 0.11792 0.0
H85 H 0.0385 0.82357 0.08449 0.0
H86 H 0.99622 0.02462 0.98584 0.0
H87 H 0.88492 0.88317 0.01432 0.0
Li88 Li 0.04132 0.97764 0.38716 0.0
Li89 Li 0.09927 0.05184 0.40519 0.0
Li90 Li 0.0054 0.01543 0.40862 0.0
Li91 Li 0.05346 0.06954 0.383 0.0
C92 C 0.01223 0.92818 0.41865 0.0
N93 N 0.94334 0.82633 0.43102 0.0
C94 C 0.02831 0.90778 0.4321 0.0
C95 C 0.96103 0.89676 0.41151 0.0
C96 C 0.99292 0.8562 0.43817 0.0
C97 C 0.92683 0.84539 0.41794 0.0
C98 C 0.15755 0.05938 0.37561 0.0
C99 C 0.24282 0.1212 0.36249 0.0
N100 N 0.26249 0.08883 0.36705 0.0
C101 C 0.17844 0.02653 0.38007 0.0
C102 C 0.18979 0.10696 0.36668 0.0
C103 C 0.23168 0.04222 0.37567 0.0
C104 C 0.01047 0.89881 0.36018 0.0
N105 N 0.03378 0.91461 0.37597 0.0
C106 C 0.05327 0.84273 0.37589 0.0
C107 C 0.05487 0.88759 0.3839 0.0
C108 C 0.03042 0.82585 0.35941 0.0
C109 C 0.00839 0.8543 0.3516 0.0
H110 H 0.99456 0.92149 0.35411 0.0
H111 H 0.07385 0.90142 0.39637 0.0
C112 C 0.14809 0.05966 0.43564 0.0
N113 N 0.16161 0.07872 0.41933 0.0
C114 C 0.18772 0.07005 0.44762 0.0
C115 C 0.25523 0.12223 0.42618 0.0
C116 C 0.21393 0.11121 0.41458 0.0
C117 C 0.24214 0.10007 0.44278 0.0
H118 H 0.10621 0.03529 0.43924 0.0
H119 H 0.22387 0.1276 0.40176 0.0
C120 C 0.94196 0.00385 0.37919 0.0
N121 N 0.85747 0.01799 0.36978 0.0
C122 C 0.93775 0.04725 0.38599 0.0
C123 C 0.90327 0.9677 0.36759 0.0
C124 C 0.89473 0.05371 0.38107 0.0
C125 C 0.86081 0.9755 0.36301 0.0
C126 C 0.10036 0.13915 0.41475 0.0
C127 C 0.09846 0.15041 0.43235 0.0
C128 C 0.14417 0.17504 0.40467 0.0
C129 C 0.14075 0.1973 0.43962 0.0
C130 C 0.18562 0.22152 0.41242 0.0
N131 N 0.1831 0.23157 0.42959 0.0
C132 C 0.97455 0.01285 0.4422 0.0
C133 C 0.8996 0.98198 0.42365 0.0
C134 C 0.94309 0.00947 0.45655 0.0
N135 N 0.95293 0.00078 0.42613 0.0
C136 C 0.86655 0.97838 0.43768 0.0
C137 C 0.88867 0.99358 0.45435 0.0
H138 H 0.01675 0.02621 0.4438 0.0
H139 H 0.88281 0.97089 0.41083 0.0
C140 C 0.05837 0.11191 0.34965 0.0
N141 N 0.05502 0.11938 0.36696 0.0
C142 C 0.05765 0.1482 0.33803 0.0
C143 C 0.05011 0.19885 0.36232 0.0
C144 C 0.05088 0.16169 0.37341 0.0
C145 C 0.05355 0.19244 0.34436 0.0
H146 H 0.06136 0.07767 0.34491 0.0
H147 H 0.04748 0.16624 0.38722 0.0
O148 O 0.04668 0.97878 0.41268 0.0
O149 O 0.10552 0.04472 0.37968 0.0
O150 O 0.98419 0.9971 0.38353 0.0
O151 O 0.0601 0.09282 0.40743 0.0
H152 H 0.0678 0.93155 0.43776 0.0
H153 H 0.94768 0.91166 0.40112 0.0
H154 H 0.00488 0.83992 0.44856 0.0
H155 H 0.88713 0.82065 0.41253 0.0
H156 H 0.26833 0.15799 0.35563 0.0
H157 H 0.15405 0.98974 0.38705 0.0
H158 H 0.17402 0.13262 0.36304 0.0
H159 H 0.24853 0.0174 0.37914 0.0
H160 H 0.0701 0.82175 0.38252 0.0
H161 H 0.99115 0.84335 0.33879 0.0
H162 H 0.17578 0.05362 0.46046 0.0
H163 H 0.29673 0.14595 0.42197 0.0
H164 H 0.96701 0.07535 0.3951 0.0
H165 H 0.9061 0.934 0.36217 0.0
H166 H 0.89092 0.08705 0.38626 0.0
H167 H 0.83054 0.94781 0.35405 0.0
H168 H 0.0648 0.12329 0.44033 0.0
H169 H 0.14646 0.16672 0.39106 0.0
H170 H 0.1399 0.20645 0.45324 0.0
H171 H 0.21991 0.24947 0.4048 0.0
H172 H 0.96148 0.02009 0.46921 0.0
H173 H 0.82474 0.96578 0.43539 0.0
H174 H 0.06076 0.142 0.32428 0.0
H175 H 0.04591 0.23176 0.36775 0.0
Li176 Li 0.12687 0.05889 0.7195 0.0
Li177 Li 0.12762 0.13285 0.7359 0.0
Li178 Li 0.0554 0.0396 0.74005 0.0
Li179 Li 0.06148 0.08784 0.71375 0.0
C180 C 0.17344 0.06272 0.749 0.0
N181 N 0.25748 0.04523 0.75605 0.0
C182 C 0.22619 0.10601 0.74968 0.0
C183 C 0.16338 0.01061 0.75203 0.0
C184 C 0.26814 0.09631 0.75323 0.0
C185 C 0.20642 0.00258 0.75554 0.0
C186 C 0.14654 0.15218 0.6954 0.0
C187 C 0.14472 0.21893 0.67748 0.0
N188 N 0.15357 0.19543 0.66327 0.0
C189 C 0.15579 0.12877 0.68063 0.0
C190 C 0.14117 0.19774 0.69385 0.0
C191 C 0.15919 0.15124 0.6645 0.0
C192 C 0.15612 0.9875 0.70229 0.0
N193 N 0.17369 0.03783 0.70895 0.0
C194 C 0.26202 0.06835 0.69761 0.0
C195 C 0.22554 0.07781 0.70697 0.0
C196 C 0.24486 0.01726 0.69009 0.0
C197 C 0.19135 0.9762 0.6928 0.0
H198 H 0.11445 0.95671 0.70383 0.0
H199 H 0.23795 0.11775 0.71209 0.0
C200 C 0.17402 0.20081 0.76487 0.0
N201 N 0.17559 0.19848 0.74731 0.0
C202 C 0.21369 0.24545 0.77385 0.0
C203 C 0.2561 0.28427 0.74651 0.0
C204 C 0.21513 0.23917 0.73804 0.0
C205 C 0.25598 0.28736 0.76465 0.0
H206 H 0.14325 0.16698 0.77192 0.0
H207 H 0.21618 0.23554 0.72411 0.0
C208 C 0.00901 0.96141 0.71584 0.0
N209 N 0.92632 0.85577 0.71727 0.0
C210 C 0.95941 0.94625 0.70831 0.0
C211 C 0.0167 0.92282 0.72399 0.0
C212 C 0.91808 0.89262 0.70918 0.0
C213 C 0.97434 0.86964 0.72463 0.0
C214 C 0.04664 0.14093 0.7488 0.0
C215 C 0.03072 0.12695 0.76598 0.0
C216 C 0.06193 0.19281 0.74333 0.0
C217 C 0.03089 0.16542 0.77747 0.0
C218 C 0.06165 0.23014 0.75523 0.0
N219 N 0.04629 0.2158 0.77191 0.0
C220 C 0.02448 0.98154 0.77126 0.0
C221 C 0.95253 0.96807 0.75329 0.0
C222 C 0.98817 0.94827 0.78382 0.0
N223 N 0.00609 0.99062 0.75637 0.0
C224 C 0.91487 0.93375 0.76532 0.0
C225 C 0.93263 0.92392 0.78087 0.0
H226 H 0.06731 0.00097 0.77352 0.0
H227 H 0.9391 0.97746 0.74159 0.0
C228 C 0.01834 0.07428 0.68033 0.0
N229 N 0.01957 0.09483 0.69645 0.0
C230 C 0.98582 0.07674 0.66761 0.0
C231 C 0.95563 0.12046 0.68846 0.0
C232 C 0.98926 0.11776 0.70071 0.0
C233 C 0.95353 0.09957 0.6717 0.0
H234 H 0.04193 0.05511 0.67746 0.0
H235 H 0.99048 0.13308 0.7137 0.0
O236 O 0.1319 0.07126 0.74529 0.0
O237 O 0.14211 0.13026 0.71127 0.0
O238 O 0.04984 0.01375 0.71519 0.0
O239 O 0.04745 0.1041 0.73741 0.0
H240 H 0.23479 0.14658 0.74731 0.0
H241 H 0.12278 0.97671 0.75165 0.0
H242 H 0.30919 0.12938 0.7537 0.0
H243 H 0.19924 0.96243 0.75787 0.0
H244 H 0.14036 0.25401 0.67608 0.0
H245 H 0.15961 0.09324 0.68156 0.0
H246 H 0.13391 0.21627 0.70515 0.0
H247 H 0.16606 0.13339 0.65295 0.0
H248 H 0.30249 0.1015 0.69556 0.0
H249 H 0.17655 0.93619 0.68728 0.0
H250 H 0.2128 0.24591 0.78786 0.0
H251 H 0.28816 0.31579 0.73901 0.0
H252 H 0.9528 0.97565 0.70195 0.0
H253 H 0.05481 0.93393 0.72989 0.0
H254 H 0.87941 0.88032 0.70346 0.0
H255 H 0.97963 0.83942 0.73099 0.0
H256 H 0.01871 0.08698 0.77043 0.0
H257 H 0.07437 0.20424 0.73009 0.0
H258 H 0.0189 0.15526 0.79082 0.0
H259 H 0.07372 0.27055 0.75121 0.0
H260 H 0.00326 0.9416 0.79569 0.0
H261 H 0.87233 0.91633 0.76273 0.0
H262 H 0.98466 0.05954 0.65489 0.0
H263 H 0.93141 0.13851 0.69205 0.0
H264 H 0.93289 0.44193 0.1165 0.0
H265 H 0.11228 0.85238 0.26836 0.0
H266 H 0.90524 0.39113 0.20922 0.0
H267 H 0.89218 0.31623 0.19015 0.0
H268 H 0.0567 0.35676 0.19895 0.0
H269 H 0.06903 0.43109 0.21816 0.0
H270 H 0.92493 0.49621 0.18951 0.0
H271 H 0.91422 0.47379 0.15856 0.0
H272 H 0.0651 0.47397 0.15799 0.0
H273 H 0.0757 0.49725 0.18887 0.0
H274 H 0.95464 0.60624 0.21147 0.0
H275 H 0.97104 0.67711 0.19104 0.0
H276 H 0.11675 0.68088 0.17354 0.0
H277 H 0.10087 0.61106 0.19428 0.0
H278 H 0.94707 0.59101 0.25147 0.0
H279 H 0.96251 0.67603 0.26461 0.0
H280 H 0.12692 0.75463 0.24582 0.0
H281 H 0.11121 0.66902 0.23304 0.0
H282 H 0.93094 0.48575 0.2689 0.0
H283 H 0.92374 0.52639 0.29622 0.0
H284 H 0.09241 0.64694 0.29226 0.0
H285 H 0.09965 0.6039 0.26566 0.0
H286 H 0.92221 0.3831 0.24915 0.0
H287 H 0.92499 0.31747 0.26824 0.0
H288 H 0.09524 0.42579 0.27599 0.0
H289 H 0.09159 0.49131 0.25729 0.0
O290 O 0.93819 0.45134 0.12869 0.0
O291 O 0.01547 0.45092 0.12918 0.0
O292 O 0.02032 0.77581 0.27275 0.0
O293 O 0.10485 0.81846 0.26307 0.0
C294 C 0.00014 0.46984 0.222 0.0
C295 C 0.00626 0.50985 0.21035 0.0
C296 C 0.01703 0.56081 0.21666 0.0
C297 C 0.0197 0.57117 0.23464 0.0
C298 C 0.01476 0.53149 0.2463 0.0
C299 C 0.00609 0.48119 0.23995 0.0
C300 C 0.98813 0.41653 0.21495 0.0
C301 C 0.93775 0.38247 0.20751 0.0
C302 C 0.93058 0.34017 0.1965 0.0
C303 C 0.9737 0.33127 0.19281 0.0
C304 C 0.02263 0.36242 0.2016 0.0
C305 C 0.02977 0.40481 0.21262 0.0
C306 C 0.00092 0.49806 0.19143 0.0
C307 C 0.95575 0.49171 0.18264 0.0
C308 C 0.94968 0.47875 0.16498 0.0
C309 C 0.98871 0.47187 0.15581 0.0
C310 C 0.03422 0.47882 0.16467 0.0
C311 C 0.04033 0.49201 0.1823 0.0
C312 C 0.02661 0.60364 0.20435 0.0
C313 C 0.99029 0.62272 0.20332 0.0
C314 C -0.00032 0.66306 0.19169 0.0
C315 C 0.04509 0.68422 0.18074 0.0
C316 C 0.08121 0.66481 0.18174 0.0
C317 C 0.07223 0.6251 0.19355 0.0
C318 C 0.02806 0.62386 0.24135 0.0
C319 C 0.98632 0.62669 0.25016 0.0
C320 C 0.99526 0.6753 0.25765 0.0
C321 C 0.04604 0.72213 0.2563 0.0
C322 C 0.08741 0.71933 0.24712 0.0
C323 C 0.07849 0.67058 0.23973 0.0
C324 C 0.01556 0.5426 0.26516 0.0
C325 C 0.96688 0.51924 0.27443 0.0
C326 C 0.96268 0.54316 0.28989 0.0
C327 C 0.00699 0.59114 0.29616 0.0
C328 C 0.05732 0.61017 0.28791 0.0
C329 C 0.06165 0.58562 0.27263 0.0
C330 C 0.00666 0.44194 0.25192 0.0
C331 C 0.95995 0.39257 0.25507 0.0
C332 C 0.96174 0.35506 0.26587 0.0
C333 C 0.01036 0.36635 0.27366 0.0
C334 C 0.05696 0.4161 0.27045 0.0
C335 C 0.05505 0.45354 0.25973 0.0
C336 C 0.98181 0.45744 0.1371 0.0
C337 C 0.05605 0.77362 0.26454 0.0
H338 H 0.66248 0.05971 0.45195 0.0
H339 H 0.28526 0.07371 0.60773 0.0
H340 H 0.63807 0.99179 0.55786 0.0
H341 H 0.70748 0.98176 0.54213 0.0
H342 H 0.78289 0.1482 0.5269 0.0
H343 H 0.71398 0.1581 0.54297 0.0
H344 H 0.59042 0.00299 0.52351 0.0
H345 H 0.61788 0.01138 0.49308 0.0
H346 H 0.64581 0.17434 0.49355 0.0
H347 H 0.61906 0.16567 0.52409 0.0
H348 H 0.48276 0.99747 0.52597 0.0
H349 H 0.42099 0.99557 0.50428 0.0
H350 H 0.44929 0.15104 0.5229 0.0
H351 H 0.51264 0.15331 0.54423 0.0
H352 H 0.42441 0.98252 0.5623 0.0
H353 H 0.33803 0.96916 0.57327 0.0
H354 H 0.41948 0.12941 0.59614 0.0
H355 H 0.50541 0.14245 0.58488 0.0
H356 H 0.48566 0.97121 0.59334 0.0
H357 H 0.43653 0.9564 0.62069 0.0
H358 H 0.5356 0.12537 0.63395 0.0
H359 H 0.5853 0.13946 0.60664 0.0
H360 H 0.5928 0.99081 0.59609 0.0
H361 H 0.65492 0.99329 0.61792 0.0
H362 H 0.76919 0.15748 0.60445 0.0
H363 H 0.70644 0.15515 0.58293 0.0
O364 O 0.6516 0.05722 0.46397 0.0
O365 O 0.6644 0.14045 0.46479 0.0
O366 O 0.27827 0.99731 0.59017 0.0
O367 O 0.31859 0.07852 0.60279 0.0
C368 C 0.62225 0.07721 0.5572 0.0
C369 C 0.58806 0.07922 0.54465 0.0
C370 C 0.53907 0.0759 0.54979 0.0
C371 C 0.5238 0.06964 0.56738 0.0
C372 C 0.55776 0.06709 0.57989 0.0
C373 C 0.60755 0.07204 0.57487 0.0
C374 C 0.67092 0.07554 0.55142 0.0
C375 C 0.67067 0.02653 0.55162 0.0
C376 C 0.70993 0.02073 0.5425 0.0
C377 C 0.75005 0.06395 0.53308 0.0
C378 C 0.75265 0.11426 0.5341 0.0
C379 C 0.71335 0.12001 0.54323 0.0
C380 C 0.60312 0.08385 0.52601 0.0
C381 C 0.60267 0.04052 0.51702 0.0
C382 C 0.61826 0.04539 0.49964 0.0
C383 C 0.63414 0.09358 0.49089 0.0
C384 C 0.63389 0.1367 0.49991 0.0
C385 C 0.61852 0.13185 0.51733 0.0
C386 C 0.50213 0.07555 0.5366 0.0
C387 C 0.47594 0.0313 0.52524 0.0
C388 C 0.44042 0.03014 0.51297 0.0
C389 C 0.43011 0.07307 0.51194 0.0
C390 C 0.45687 0.11766 0.52326 0.0
C391 C 0.49264 0.11885 0.53552 0.0
C392 C 0.47104 0.06345 0.57279 0.0
C393 C 0.42334 0.01492 0.56948 0.0
C394 C 0.37415 0.00731 0.57584 0.0
C395 C 0.37189 0.04814 0.58567 0.0
C396 C 0.41977 0.0971 0.58867 0.0
C397 C 0.46889 0.10471 0.58223 0.0
C398 C 0.53874 0.05641 0.59805 0.0
C399 C 0.49793 0.00457 0.60245 0.0
C400 C 0.46966 0.99632 0.61798 0.0
C401 C 0.48163 0.0399 0.62931 0.0
C402 C 0.52566 0.09096 0.62552 0.0
C403 C 0.55411 0.09914 0.60996 0.0
C404 C 0.6449 0.07299 0.58806 0.0
C405 C 0.63095 0.0275 0.59801 0.0
C406 C 0.66643 0.02894 0.61042 0.0
C407 C 0.71675 0.07561 0.61286 0.0
C408 C 0.73082 0.12088 0.60273 0.0
C409 C 0.69505 0.11964 0.5905 0.0
C410 C 0.65096 0.0987 0.47244 0.0
C411 C 0.32001 0.03962 0.59295 0.0
H412 H 0.64743 0.73237 0.00135 0.0
H413 H 0.31443 0.2348 0.8805 0.0
H414 H 0.6037 0.71682 0.90746 0.0
H415 H 0.66731 0.79527 0.92449 0.0
H416 H 0.78421 0.7425 0.91955 0.0
H417 H 0.7206 0.66479 0.90213 0.0
H418 H 0.53908 0.63597 0.93591 0.0
H419 H 0.57094 0.67762 0.96448 0.0
H420 H 0.70214 0.64439 0.96015 0.0
H421 H 0.66958 0.60258 0.93165 0.0
H422 H 0.43999 0.51516 0.92146 0.0
H423 H 0.39055 0.45918 0.946 0.0
H424 H 0.52848 0.44365 0.95852 0.0
H425 H 0.57637 0.49723 0.9333 0.0
H426 H 0.42436 0.50235 0.88289 0.0
H427 H 0.34694 0.41311 0.87694 0.0
H428 H 0.44009 0.33992 0.89182 0.0
H429 H 0.51749 0.42948 0.89745 0.0
H430 H 0.50269 0.60226 0.86118 0.0
H431 H 0.44544 0.56122 0.83584 0.0
H432 H 0.49122 0.4387 0.83363 0.0
H433 H 0.54865 0.48019 0.85893 0.0
H434 H 0.61729 0.71142 0.87292 0.0
H435 H 0.67786 0.7674 0.84982 0.0
H436 H 0.71014 0.63979 0.83534 0.0
H437 H 0.65143 0.58488 0.85888 0.0
O438 O 0.63444 0.71408 0.99032 0.0
O439 O 0.70037 0.69486 0.98764 0.0
O440 O 0.29839 0.31019 0.87508 0.0
O441 O 0.34437 0.27054 0.88276 0.0
C442 C 0.61355 0.6299 0.89971 0.0
C443 C 0.58572 0.5961 0.91375 0.0
C444 C 0.54144 0.54431 0.91072 0.0
C445 C 0.52409 0.52657 0.89363 0.0
C446 C 0.55191 0.56046 0.87956 0.0
C447 C 0.59762 0.61166 0.88256 0.0
C448 C 0.65761 0.68519 0.90364 0.0
C449 C 0.64406 0.72377 0.90929 0.0
C450 C 0.68014 0.76809 0.91922 0.0
C451 C 0.73017 0.77424 0.9237 0.0
C452 C 0.74599 0.73891 0.91628 0.0
C453 C 0.70983 0.6946 0.90626 0.0
C454 C 0.60208 0.61638 0.93176 0.0
C455 C 0.57425 0.63712 0.94128 0.0
C456 C 0.59272 0.66111 0.95754 0.0
C457 C 0.63927 0.66459 0.96456 0.0
C458 C 0.66624 0.64249 0.95511 0.0
C459 C 0.64769 0.61848 0.93887 0.0
C460 C 0.51157 0.50994 0.92557 0.0
C461 C 0.45923 0.49915 0.92942 0.0
C462 C 0.43136 0.46775 0.94359 0.0
C463 C 0.45565 0.44714 0.95433 0.0
C464 C 0.50831 0.45829 0.95043 0.0
C465 C 0.5359 0.4892 0.93611 0.0
C466 C 0.47659 0.47233 0.89049 0.0
C467 C 0.428 0.46699 0.88479 0.0
C468 C 0.38382 0.41598 0.88144 0.0
C469 C 0.38736 0.36935 0.88389 0.0
C470 C 0.43601 0.37495 0.88979 0.0
C471 C 0.48024 0.42602 0.89305 0.0
C472 C 0.52942 0.54391 0.86192 0.0
C473 C 0.50179 0.56767 0.85485 0.0
C474 C 0.4688 0.54396 0.84051 0.0
C475 C 0.46343 0.49645 0.83294 0.0
C476 C 0.49484 0.47546 0.83915 0.0
C477 C 0.52759 0.49902 0.85358 0.0
C478 C 0.63057 0.64437 0.86778 0.0
C479 C 0.63776 0.69572 0.86487 0.0
C480 C 0.67208 0.72749 0.85166 0.0
C481 C 0.69866 0.70783 0.8409 0.0
C482 C 0.68984 0.65568 0.84342 0.0
C483 C 0.65638 0.62438 0.85683 0.0
C484 C 0.65995 0.6919 0.98154 0.0
C485 C 0.3406 0.31505 0.8803 0.0
H486 H 0.96243 0.21081 0.12243 0.0
H487 H 0.04566 0.15144 0.1529 0.0
H488 H 0.03641 0.19753 0.17856 0.0
H489 H 0.01004 0.2597 0.19192 0.0
H490 H 0.93054 0.32223 0.16103 0.0
H491 H 0.9326 0.26969 0.13606 0.0
C492 C 0.97852 0.20798 0.13469 0.0
C493 C 0.00487 0.17795 0.13572 0.0
C494 C 0.9737 0.23514 0.14935 0.0
C495 C 0.02471 0.17387 0.15178 0.0
C496 C 0.01978 0.20051 0.16644 0.0
C497 C 0.99292 0.26151 0.17974 0.0
C498 C 0.97002 0.29463 0.17837 0.0
C499 C 0.99511 0.23195 0.16532 0.0
C500 C 0.94756 0.2963 0.16254 0.0
C501 C 0.94919 0.26669 0.14819 0.0
H502 H 0.92109 0.07103 0.47948 0.0
H503 H 0.78331 0.92203 0.46241 0.0
H504 H 0.72915 0.92942 0.48594 0.0
H505 H 0.72008 0.98045 0.51044 0.0
H506 H 0.85818 0.12881 0.52764 0.0
H507 H 0.91357 0.11892 0.50504 0.0
C508 C 0.8795 0.03955 0.48108 0.0
C509 C 0.85631 0.99601 0.46918 0.0
C510 C 0.84875 0.04398 0.49463 0.0
C511 C 0.80199 0.95629 0.47125 0.0
C512 C 0.77109 0.96034 0.48475 0.0
C513 C 0.76259 0.01001 0.50949 0.0
C514 C 0.78513 0.05521 0.52072 0.0
C515 C 0.79395 0.00428 0.4964 0.0
C516 C 0.83993 0.09384 0.51908 0.0
C517 C 0.87155 0.08819 0.50618 0.0
H518 H 0.84645 0.82386 0.77635 0.0
H519 H 0.93085 0.94782 0.81505 0.0
H520 H 0.86463 0.8926 0.83696 0.0
H521 H 0.78286 0.8088 0.8451 0.0
H522 H 0.70073 0.68304 0.80677 0.0
H523 H 0.76571 0.73913 0.78465 0.0
C524 C 0.8501 0.83867 0.78959 0.0
C525 C 0.89324 0.8897 0.79413 0.0
C526 C 0.8123 0.80646 0.80212 0.0
C527 C 0.89812 0.9084 0.81133 0.0
C528 C 0.86019 0.87701 0.82381 0.0
C529 C 0.77909 0.79402 0.83186 0.0
C530 C 0.73705 0.74225 0.82746 0.0
C531 C 0.81711 0.82601 0.81935 0.0
C532 C 0.73292 0.72288 0.81038 0.0
C533 C 0.76996 0.75489 0.79777 0.0
H534 H 0.07844 0.88134 0.137 0.0
H535 H 0.10045 0.78892 0.09614 0.0
H536 H 0.08746 0.71997 0.11686 0.0
H537 H 0.06828 0.68561 0.14656 0.0
H538 H 0.04322 0.77701 0.18709 0.0
H539 H 0.05898 0.84703 0.16653 0.0
C540 C 0.08102 0.84637 0.1327 0.0
C541 C 0.09087 0.84025 0.11516 0.0
C542 C 0.07268 0.80678 0.14459 0.0
C543 C 0.09291 0.79429 0.10961 0.0
C544 C 0.08555 0.75502 0.12144 0.0
C545 C 0.06667 0.7211 0.15086 0.0
C546 C 0.05475 0.72642 0.16826 0.0
C547 C 0.07519 0.76078 0.13894 0.0
C548 C 0.05195 0.77205 0.1737 0.0
C549 C 0.06116 0.81208 0.16199 0.0
H550 H 0.23824 0.02153 0.46234 0.0
H551 H 0.34075 0.18891 0.44979 0.0
H552 H 0.40867 0.19537 0.46998 0.0
H553 H 0.43795 0.15313 0.49151 0.0
H554 H 0.3323 0.98647 0.50447 0.0
H555 H 0.26622 0.98023 0.48385 0.0
C556 C 0.27511 0.05972 0.46417 0.0
C557 C 0.28416 0.10484 0.45474 0.0
C558 C 0.31338 0.0632 0.47585 0.0
C559 C 0.3329 0.15353 0.45687 0.0
C560 C 0.37157 0.15729 0.46847 0.0
C561 C 0.40027 0.11562 0.4899 0.0
C562 C 0.3902 0.07025 0.49944 0.0
C563 C 0.36208 0.11238 0.47809 0.0
C564 C 0.34146 0.02172 0.49708 0.0
C565 C 0.30349 0.01817 0.48537 0.0
H566 H 0.25124 0.34731 0.79156 0.0
H567 H 0.36301 0.32592 0.75898 0.0
H568 H 0.43821 0.39191 0.77656 0.0
H569 H 0.47127 0.45053 0.80257 0.0
H570 H 0.35888 0.47111 0.83513 0.0
H571 H 0.28499 0.41107 0.81616 0.0
C572 C 0.29215 0.3575 0.78827 0.0
C573 C 0.30165 0.33171 0.7741 0.0
C574 C 0.33504 0.39521 0.79845 0.0
C575 C 0.35481 0.3456 0.76979 0.0
C576 C 0.39775 0.38302 0.77989 0.0
C577 C 0.43064 0.44217 0.80537 0.0
C578 C 0.4205 0.46518 0.82018 0.0
C579 C 0.38823 0.40731 0.79445 0.0
C580 C 0.36778 0.45441 0.82366 0.0
C581 C 0.32544 0.41975 0.8129 0.0
H582 H 0.84798 0.06755 0.67617 0.0
H583 H 0.97583 0.13122 0.63814 0.0
H584 H 0.91388 0.13004 0.61656 0.0
H585 H 0.82307 0.11009 0.60851 0.0
H586 H 0.69482 0.04424 0.6464 0.0
H587 H 0.75716 0.04698 0.66808 0.0
C588 C 0.86229 0.0816 0.66319 0.0
C589 C 0.91632 0.09973 0.65873 0.0
C590 C 0.82637 0.08019 0.65085 0.0
C591 C 0.93427 0.1169 0.64181 0.0
C592 C 0.89895 0.11635 0.62951 0.0
C593 C 0.80898 0.09669 0.62156 0.0
C594 C 0.75459 0.07712 0.62591 0.0
C595 C 0.8449 0.09798 0.63388 0.0
C596 C 0.73649 0.05909 0.64275 0.0
C597 C 0.77211 0.06086 0.65515 0.0
H598 H 0.82773 0.89743 0.99401 0.0
H599 H 0.97613 0.94753 0.96589 0.0
H600 H 0.92563 0.90069 0.93989 0.0
H601 H 0.83903 0.84072 0.92568 0.0
H602 H 0.69113 0.7889 0.95435 0.0
H603 H 0.74158 0.8412 0.97952 0.0
C604 C 0.84897 0.89806 0.98218 0.0
C605 C 0.90549 0.92558 0.9819 0.0
C606 C 0.81975 0.87076 0.96736 0.0
C607 C 0.93257 0.92692 0.9664 0.0
C608 C 0.90374 0.8999 0.95156 0.0
C609 C 0.81797 0.84134 0.9374 0.0
C610 C 0.76147 0.81127 0.93808 0.0
C611 C 0.84731 0.87105 0.95196 0.0
C612 C 0.73458 0.81253 0.95334 0.0
C613 C 0.7634 0.84203 0.96782 0.0
H614 H 0.95239 0.74771 0.3391 0.0
H615 H 0.11144 0.80158 0.35888 0.0
H616 H 0.11531 0.72939 0.34282 0.0
H617 H 0.07623 0.65469 0.32165 0.0
H618 H 0.92089 0.60693 0.29977 0.0
H619 H 0.9127 0.6721 0.31835 0.0
C620 C 0.98803 0.74388 0.33985 0.0
C621 C 0.03153 0.78026 0.35018 0.0
C622 C 0.99061 0.703 0.33025 0.0
C623 C 0.07696 0.77385 0.35123 0.0
C624 C 0.07943 0.73273 0.34195 0.0
C625 C 0.0405 0.65838 0.32096 0.0
C626 C -0.00073 0.62555 0.30931 0.0
C627 C 0.03682 0.69756 0.33122 0.0
C628 C 0.9529 0.63056 0.30884 0.0
C629 C 0.94841 0.66848 0.31931 0.0
H630 H 0.35193 0.05346 0.69415 0.0
H631 H 0.21984 0.96317 0.65909 0.0
H632 H 0.28125 0.9585 0.63784 0.0
H633 H 0.37303 0.98727 0.62814 0.0
H634 H 0.50626 0.08018 0.6625 0.0
H635 H 0.44384 0.07752 0.68502 0.0
C636 C 0.33658 0.03252 0.68189 0.0
C637 C 0.28136 0.00883 0.67822 0.0
C638 C 0.37233 0.03097 0.66955 0.0
C639 C 0.26197 0.98116 0.66237 0.0
C640 C 0.29714 0.97889 0.65013 0.0
C641 C 0.38838 0.00581 0.64071 0.0
C642 C 0.44416 0.03365 0.6437 0.0
C643 C 0.35245 0.00452 0.65346 0.0
C644 C 0.46349 0.05872 0.65988 0.0
C645 C 0.42784 0.05713 0.67275 0.0
H646 H 0.30037 0.31834 0.0158 0.0
H647 H 0.36986 0.21692 0.00586 0.0
H648 H 0.42855 0.27859 0.98368 0.0
H649 H 0.45532 0.35772 0.96578 0.0
H650 H 0.38852 0.46105 0.97677 0.0
H651 H 0.3336 0.402 -4e-05 0.0
C652 C 0.32923 0.31026 0.00911 0.0
C653 C 0.33039 0.26281 0.01245 0.0
C654 C 0.36287 0.34585 0.99642 0.0
C655 C 0.36748 0.25269 0.00337 0.0
C656 C 0.40117 0.288 0.99072 0.0
C657 C 0.42956 0.36798 0.97345 0.0
C658 C 0.42563 0.41347 0.96935 0.0
C659 C 0.39845 0.33416 0.98691 0.0
C660 C 0.39145 0.42563 0.97934 0.0
C661 C 0.36028 0.3921 0.9927 0.0
H662 H -0.00134 0.17137 0.3141 0.0
H663 H 0.10583 0.30192 0.34797 0.0
H664 H 0.101 0.36674 0.32932 0.0
H665 H 0.06538 0.38637 0.30373 0.0
H666 H 0.96066 0.25669 0.26917 0.0
H667 H 0.96513 0.19152 0.28784 0.0
C668 C 0.02146 0.21406 0.31727 0.0
C669 C 0.05239 0.23171 0.33245 0.0
C670 C 0.01861 0.25125 0.30646 0.0
C671 C 0.08111 0.28715 0.3365 0.0
C672 C 0.07856 0.3243 0.32581 0.0
C673 C 0.04401 0.34393 0.30015 0.0
C674 C 0.01275 0.32656 0.28505 0.0
C675 C 0.04725 0.30678 0.31082 0.0
C676 C 0.98445 0.27119 0.28083 0.0
C677 C 0.9873 0.2339 0.29144 0.0
loop_
_geom_bond_atom_site_label_1
_geom_bond_atom_site_label_2
_geom_bond_distance
_geom_bond_site_symmetry_2
_ccdc_geom_bond_type
Li0 N17 1.990 . S
Li0 O60 1.956 . S
Li0 O61 1.970 . S
Li0 O62 1.961 . S
Li1 N25 1.990 . S
Li1 O60 1.970 . S
Li1 O61 1.956 . S
Li1 O63 1.961 . S
Li2 N47 1.990 1_545 S
Li2 O60 1.961 . S
Li2 O62 1.956 . S
Li2 O63 1.970 . S
Li3 N53 1.990 1_445 S
Li3 O61 1.961 . S
Li3 O62 1.970 . S
Li3 O63 1.956 . S
C4 C6 1.348 . S
C4 C7 1.356 . S
C4 O60 1.325 . S
N5 C8 1.314 . S
N5 C9 1.279 . S
C6 C4 1.348 . S
C6 C8 1.353 . S
C6 H64 0.929 . S
C7 C4 1.356 . S
C7 C9 1.358 . S
C7 H65 0.930 . S
C8 N5 1.314 . S
C8 C6 1.353 . S
C8 H66 0.930 . S
C9 N5 1.279 . S
C9 C7 1.358 . S
C9 H67 0.930 . S
C10 C13 1.348 . S
C10 C14 1.356 1_455 S
C10 O61 1.325 . S
C11 N12 1.279 1_655 S
C11 C14 1.358 . S
C11 H68 0.930 . S
N12 C11 1.279 1_455 S
N12 C15 1.314 . S
C13 C10 1.348 . S
C13 C15 1.353 . S
C13 H69 0.929 . S
C14 C10 1.356 1_655 S
C14 C11 1.358 . S
C14 H70 0.930 . S
C15 N12 1.314 . S
C15 C13 1.353 . S
C15 H71 0.930 . S
C16 N17 1.314 . S
C16 C21 1.353 . S
C16 H22 0.930 . S
N17 Li0 1.990 . S
N17 C16 1.314 . S
N17 C19 1.279 . S
C18 C19 1.358 . S
C18 C20 1.356 . S
C18 H72 0.930 . S
C19 N17 1.279 . S
C19 C18 1.358 . S
C19 H23 0.930 . S
C20 C18 1.356 . S
C20 C21 1.348 . S
C21 C16 1.353 . S
C21 C20 1.348 . S
C21 H73 0.929 . S
H22 C16 0.930 . S
H23 C19 0.930 . S
C24 N25 1.314 . S
C24 C26 1.353 1_455 S
C24 H30 0.930 . S
N25 Li1 1.990 . S
N25 C24 1.314 . S
N25 C28 1.279 . S
C26 C24 1.353 1_655 S
C26 C29 1.342 . S
C26 H74 0.929 . S
C27 C28 1.358 . S
C27 C29 1.355 1_455 S
C27 H75 0.930 . S
C28 N25 1.279 . S
C28 C27 1.358 . S
C28 H31 0.930 . S
C29 C26 1.342 . S
C29 C27 1.355 1_655 S
H30 C24 0.930 . S
H31 C28 0.930 . S
C32 C34 1.348 . S
C32 C35 1.356 . S
C32 O62 1.325 1_565 S
N33 C36 1.314 . S
N33 C37 1.279 . S
C34 C32 1.348 . S
C34 C36 1.353 . S
C34 H76 0.929 . S
C35 C32 1.356 . S
C35 C37 1.358 . S
C35 H77 0.930 1_565 S
C36 N33 1.314 . S
C36 C34 1.353 . S
C36 H78 0.930 . S
C37 N33 1.279 . S
C37 C35 1.358 . S
C37 H79 0.930 . S
C38 C39 1.348 . S
C38 C40 1.356 . S
C38 O63 1.325 1_665 S
C39 C38 1.348 . S
C39 C41 1.353 . S
C39 H80 0.929 . S
C40 C38 1.356 . S
C40 C42 1.358 . S
C40 H81 0.930 1_565 S
C41 C39 1.353 . S
C41 N43 1.314 . S
C41 H82 0.930 . S
C42 C40 1.358 . S
C42 N43 1.279 . S
C42 H83 0.930 . S
N43 C41 1.314 . S
N43 C42 1.279 . S
C44 C46 1.353 . S
C44 N47 1.314 . S
C44 H50 0.930 1_565 S
C45 N47 1.279 . S
C45 C48 1.358 . S
C45 H51 0.930 . S
C46 C44 1.353 . S
C46 C49 1.348 . S
C46 H84 0.929 . S
N47 Li2 1.990 1_565 S
N47 C44 1.314 . S
N47 C45 1.279 . S
C48 C45 1.358 . S
C48 C49 1.356 . S
C48 H85 0.930 . S
C49 C46 1.348 . S
C49 C48 1.356 . S
H50 C44 0.930 1_545 S
H51 C45 0.930 . S
C52 N53 1.314 . S
C52 C54 1.353 . S
C52 H58 0.930 1_565 S
N53 Li3 1.990 1_665 S
N53 C52 1.314 . S
N53 C56 1.279 . S
C54 C52 1.353 . S
C54 C57 1.348 . S
C54 H86 0.936 1_554 S
C55 C56 1.358 . S
C55 C57 1.356 . S
C55 H87 0.930 . S
C56 N53 1.279 . S
C56 C55 1.358 . S
C56 H59 0.930 . S
C57 C54 1.348 . S
C57 C55 1.356 . S
H58 C52 0.930 1_545 S
H59 C56 0.930 . S
O60 Li0 1.956 . S
O60 Li1 1.970 . S
O60 Li2 1.961 . S
O60 C4 1.325 . S
O61 Li0 1.970 . S
O61 Li1 1.956 . S
O61 Li3 1.961 . S
O61 C10 1.325 . S
O62 Li0 1.961 . S
O62 Li2 1.956 . S
O62 Li3 1.970 . S
O62 C32 1.325 1_545 S
O63 Li1 1.961 . S
O63 Li2 1.970 . S
O63 Li3 1.956 . S
O63 C38 1.325 1_445 S
H64 C6 0.929 . S
H65 C7 0.930 . S
H66 C8 0.930 . S
H67 C9 0.930 . S
H68 C11 0.930 . S
H69 C13 0.929 . S
H70 C14 0.930 . S
H71 C15 0.930 . S
H72 C18 0.930 . S
H73 C21 0.929 . S
H74 C26 0.929 . S
H75 C27 0.930 . S
H76 C34 0.929 . S
H77 C35 0.930 1_545 S
H78 C36 0.930 . S
H79 C37 0.930 . S
H80 C39 0.929 . S
H81 C40 0.930 1_545 S
H82 C41 0.930 . S
H83 C42 0.930 . S
H84 C46 0.929 . S
H85 C48 0.930 . S
H86 C54 0.936 1_556 S
H87 C55 0.930 . S
Li88 N105 1.990 . S
Li88 O148 1.956 . S
Li88 O149 1.970 1_565 S
Li88 O150 1.961 1_465 S
Li89 N113 1.990 . S
Li89 O148 1.970 1_545 S
Li89 O149 1.956 . S
Li89 O151 1.961 . S
Li90 N135 1.990 1_545 S
Li90 O148 1.961 1_645 S
Li90 O150 1.956 . S
Li90 O151 1.970 1_655 S
Li91 N141 1.990 . S
Li91 O149 1.961 . S
Li91 O150 1.970 1_455 S
Li91 O151 1.956 . S
C92 C94 1.348 . S
C92 C95 1.356 1_455 S
C92 O148 1.325 . S
N93 C96 1.314 1_655 S
N93 C97 1.279 . S
C94 C92 1.348 . S
C94 C96 1.353 . S
C94 H152 0.929 . S
C95 C92 1.356 1_655 S
C95 C97 1.358 . S
C95 H153 0.930 . S
C96 N93 1.314 1_455 S
C96 C94 1.353 . S
C96 H154 0.930 . S
C97 N93 1.279 . S
C97 C95 1.358 . S
C97 H155 0.930 . S
C98 C101 1.348 . S
C98 C102 1.356 . S
C98 O149 1.325 . S
C99 N100 1.279 . S
C99 C102 1.358 . S
C99 H156 0.930 . S
N100 C99 1.279 . S
N100 C103 1.314 . S
C101 C98 1.348 . S
C101 C103 1.353 . S
C101 H157 0.929 1_545 S
C102 C98 1.356 . S
C102 C99 1.358 . S
C102 H158 0.930 . S
C103 N100 1.314 . S
C103 C101 1.353 . S
C103 H159 0.930 1_545 S
C104 N105 1.314 1_655 S
C104 C109 1.353 . S
C104 H110 0.930 . S
N105 Li88 1.990 . S
N105 C104 1.314 1_455 S
N105 C107 1.279 . S
C106 C107 1.364 1_655 S
C106 C108 1.361 . S
C106 H160 0.919 . S
C107 N105 1.279 . S
C107 C106 1.364 1_455 S
C107 H111 0.930 . S
C108 C106 1.361 . S
C108 C109 1.348 . S
C109 C104 1.353 . S
C109 C108 1.348 . S
C109 H161 0.929 . S
H110 C104 0.930 . S
H111 C107 0.930 . S
C112 N113 1.314 . S
C112 C114 1.353 . S
C112 H118 0.930 . S
N113 Li89 1.990 . S
N113 C112 1.314 . S
N113 C116 1.279 . S
C114 C112 1.353 . S
C114 C117 1.348 . S
C114 H162 0.929 . S
C115 C116 1.358 . S
C115 C117 1.356 . S
C115 H163 0.930 . S
C116 N113 1.279 . S
C116 C115 1.358 . S
C116 H119 0.930 . S
C117 C114 1.348 . S
C117 C115 1.356 . S
H118 C112 0.930 . S
H119 C116 0.930 . S
C120 C122 1.348 1_565 S
C120 C123 1.356 . S
C120 O150 1.325 1_565 S
N121 C124 1.314 1_565 S
N121 C125 1.279 . S
C122 C120 1.348 1_545 S
C122 C124 1.353 . S
C122 H164 0.929 . S
C123 C120 1.356 . S
C123 C125 1.358 . S
C123 H165 0.930 . S
C124 N121 1.314 1_545 S
C124 C122 1.353 . S
C124 H166 0.930 . S
C125 N121 1.279 . S
C125 C123 1.358 . S
C125 H167 0.930 . S
C126 C127 1.348 . S
C126 C128 1.356 . S
C126 O151 1.325 . S
C127 C126 1.348 . S
C127 C129 1.353 . S
C127 H168 0.929 . S
C128 C126 1.356 . S
C128 C130 1.358 . S
C128 H169 0.930 . S
C129 C127 1.353 . S
C129 N131 1.314 . S
C129 H170 0.930 . S
C130 C128 1.358 . S
C130 N131 1.279 . S
C130 H171 0.930 . S
N131 C129 1.314 . S
N131 C130 1.279 . S
C132 C134 1.353 . S
C132 N135 1.314 . S
C132 H138 0.930 . S
C133 N135 1.279 . S
C133 C136 1.358 . S
C133 H139 0.930 . S
C134 C132 1.353 . S
C134 C137 1.348 . S
C134 H172 0.929 . S
N135 Li90 1.990 1_565 S
N135 C132 1.314 . S
N135 C133 1.279 . S
C136 C133 1.358 . S
C136 C137 1.356 . S
C136 H173 0.930 . S
C137 C134 1.348 . S
C137 C136 1.356 . S
H138 C132 0.930 . S
H139 C133 0.930 . S
C140 N141 1.314 . S
C140 C142 1.353 . S
C140 H146 0.930 . S
N141 Li91 1.990 . S
N141 C140 1.314 . S
N141 C144 1.279 . S
C142 C140 1.353 . S
C142 C145 1.348 . S
C142 H174 0.929 . S
C143 C144 1.358 . S
C143 C145 1.356 . S
C143 H175 0.930 . S
C144 N141 1.279 . S
C144 C143 1.358 . S
C144 H147 0.930 . S
C145 C142 1.348 . S
C145 C143 1.356 . S
H146 C140 0.930 . S
H147 C144 0.930 . S
O148 Li88 1.956 . S
O148 Li89 1.970 1_565 S
O148 Li90 1.961 1_465 S
O148 C92 1.325 . S
O149 Li88 1.970 1_545 S
O149 Li89 1.956 . S
O149 Li91 1.961 . S
O149 C98 1.325 . S
O150 Li88 1.961 1_645 S
O150 Li90 1.956 . S
O150 Li91 1.970 1_655 S
O150 C120 1.325 1_545 S
O151 Li89 1.961 . S
O151 Li90 1.970 1_455 S
O151 Li91 1.956 . S
O151 C126 1.325 . S
H152 C94 0.929 . S
H153 C95 0.930 . S
H154 C96 0.930 . S
H155 C97 0.930 . S
H156 C99 0.930 . S
H157 C101 0.929 1_565 S
H158 C102 0.930 . S
H159 C103 0.930 1_565 S
H160 C106 0.919 . S
H161 C109 0.929 . S
H162 C114 0.929 . S
H163 C115 0.930 . S
H164 C122 0.929 . S
H165 C123 0.930 . S
H166 C124 0.930 . S
H167 C125 0.930 . S
H168 C127 0.929 . S
H169 C128 0.930 . S
H170 C129 0.930 . S
H171 C130 0.930 . S
H172 C134 0.929 . S
H173 C136 0.930 . S
H174 C142 0.929 . S
H175 C143 0.930 . S
Li176 N193 1.990 . S
Li176 O236 1.956 . S
Li176 O237 1.970 . S
Li176 O238 1.961 . S
Li177 N201 1.990 . S
Li177 O236 1.970 . S
Li177 O237 1.956 . S
Li177 O239 1.961 . S
Li178 N223 1.990 1_545 S
Li178 O236 1.961 . S
Li178 O238 1.956 . S
Li178 O239 1.970 . S
Li179 N229 1.990 . S
Li179 O237 1.961 . S
Li179 O238 1.970 . S
Li179 O239 1.956 . S
C180 C182 1.348 . S
C180 C183 1.356 . S
C180 O236 1.325 . S
N181 C184 1.314 . S
N181 C185 1.278 1_545 S
C182 C180 1.348 . S
C182 C184 1.353 . S
C182 H240 0.929 . S
C183 C180 1.356 . S
C183 C185 1.355 1_545 S
C183 H241 0.930 1_545 S
C184 N181 1.314 . S
C184 C182 1.353 . S
C184 H242 0.930 . S
C185 N181 1.278 1_565 S
C185 C183 1.355 1_565 S
C185 H243 0.935 . S
C186 C189 1.348 . S
C186 C190 1.356 . S
C186 O237 1.325 . S
C187 N188 1.279 . S
C187 C190 1.358 . S
C187 H244 0.930 . S
N188 C187 1.279 . S
N188 C191 1.314 . S
C189 C186 1.348 . S
C189 C191 1.353 . S
C189 H245 0.929 . S
C190 C186 1.356 . S
C190 C187 1.358 . S
C190 H246 0.930 . S
C191 N188 1.314 . S
C191 C189 1.353 . S
C191 H247 0.930 . S
C192 N193 1.314 . S
C192 C197 1.353 . S
C192 H198 0.930 . S
N193 Li176 1.990 . S
N193 C192 1.314 . S
N193 C195 1.279 . S
C194 C195 1.358 . S
C194 C196 1.356 . S
C194 H248 0.930 . S
C195 N193 1.279 . S
C195 C194 1.358 . S
C195 H199 0.930 . S
C196 C194 1.356 . S
C196 C197 1.348 . S
C197 C192 1.353 . S
C197 C196 1.348 . S
C197 H249 0.929 . S
H198 C192 0.930 . S
H199 C195 0.930 . S
C200 N201 1.314 . S
C200 C202 1.353 . S
C200 H206 0.930 . S
N201 Li177 1.990 . S
N201 C200 1.314 . S
N201 C204 1.279 . S
C202 C200 1.353 . S
C202 C205 1.348 . S
C202 H250 0.929 . S
C203 C204 1.358 . S
C203 C205 1.356 . S
C203 H251 0.930 . S
C204 N201 1.279 . S
C204 C203 1.358 . S
C204 H207 0.930 . S
C205 C202 1.348 . S
C205 C203 1.356 . S
H206 C200 0.930 . S
H207 C204 0.930 . S
C208 C210 1.348 1_455 S
C208 C211 1.356 . S
C208 O238 1.325 1_565 S
N209 C212 1.314 . S
N209 C213 1.279 1_655 S
C210 C208 1.348 1_655 S
C210 C212 1.353 . S
C210 H252 0.929 1_565 S
C211 C208 1.356 . S
C211 C213 1.358 . S
C211 H253 0.930 . S
C212 N209 1.314 . S
C212 C210 1.353 . S
C212 H254 0.930 . S
C213 N209 1.279 1_455 S
C213 C211 1.358 . S
C213 H255 0.930 . S
C214 C215 1.348 1_455 S
C214 C216 1.356 . S
C214 O239 1.325 . S
C215 C214 1.348 1_655 S
C215 C217 1.353 . S
C215 H256 0.929 . S
C216 C214 1.356 . S
C216 C218 1.358 . S
C216 H257 0.930 . S
C217 C215 1.353 . S
C217 N219 1.314 . S
C217 H258 0.930 . S
C218 C216 1.358 . S
C218 N219 1.279 1_455 S
C218 H259 0.930 . S
N219 C217 1.314 . S
N219 C218 1.279 1_655 S
C220 C222 1.353 . S
C220 N223 1.314 . S
C220 H226 0.930 . S
C221 N223 1.279 1_655 S
C221 C224 1.358 . S
C221 H227 0.930 . S
C222 C220 1.353 . S
C222 C225 1.348 1_455 S
C222 H260 0.929 . S
N223 Li178 1.990 1_565 S
N223 C220 1.314 . S
N223 C221 1.279 1_455 S
C224 C221 1.358 . S
C224 C225 1.356 . S
C224 H261 0.930 . S
C225 C222 1.348 1_655 S
C225 C224 1.356 . S
H226 C220 0.930 . S
H227 C221 0.930 . S
C228 N229 1.314 . S
C228 C230 1.353 . S
C228 H234 0.930 . S
N229 Li179 1.990 . S
N229 C228 1.314 . S
N229 C232 1.279 1_455 S
C230 C228 1.353 . S
C230 C233 1.348 1_455 S
C230 H262 0.929 . S
C231 C232 1.358 . S
C231 C233 1.356 . S
C231 H263 0.930 . S
C232 N229 1.279 1_655 S
C232 C231 1.358 . S
C232 H235 0.930 . S
C233 C230 1.348 1_655 S
C233 C231 1.356 . S
H234 C228 0.930 . S
H235 C232 0.930 . S
O236 Li176 1.956 . S
O236 Li177 1.970 . S
O236 Li178 1.961 . S
O236 C180 1.325 . S
O237 Li176 1.970 . S
O237 Li177 1.956 . S
O237 Li179 1.961 . S
O237 C186 1.325 . S
O238 Li176 1.961 . S
O238 Li178 1.956 . S
O238 Li179 1.970 . S
O238 C208 1.325 1_545 S
O239 Li177 1.961 . S
O239 Li178 1.970 . S
O239 Li179 1.956 . S
O239 C214 1.325 . S
H240 C182 0.929 . S
H241 C183 0.930 1_565 S
H242 C184 0.930 . S
H243 C185 0.935 . S
H244 C187 0.930 . S
H245 C189 0.929 . S
H246 C190 0.930 . S
H247 C191 0.930 . S
H248 C194 0.930 . S
H249 C197 0.929 . S
H250 C202 0.929 . S
H251 C203 0.930 . S
H252 C210 0.929 1_545 S
H253 C211 0.930 . S
H254 C212 0.930 . S
H255 C213 0.930 . S
H256 C215 0.929 . S
H257 C216 0.930 . S
H258 C217 0.930 . S
H259 C218 0.930 . S
H260 C222 0.929 . S
H261 C224 0.930 . S
H262 C230 0.929 . S
H263 C231 0.930 . S
H264 O290 0.856 . S
H265 O293 0.854 . S
H266 C301 0.930 1_655 S
H267 C302 0.930 . S
H268 C304 0.930 . S
H269 C305 0.930 . S
H270 C307 0.931 1_655 S
H271 C308 0.930 1_655 S
H272 C310 0.930 . S
H273 C311 0.929 . S
H274 C313 0.930 1_655 S
H275 C314 0.931 . S
H276 C316 0.930 . S
H277 C317 0.929 . S
H278 C319 0.931 1_655 S
H279 C320 0.930 1_655 S
H280 C322 0.930 . S
H281 C323 0.932 . S
H282 C325 0.931 . S
H283 C326 0.929 . S
H284 C328 0.931 . S
H285 C329 0.930 . S
H286 C331 0.929 1_655 S
H287 C332 0.931 1_655 S
H288 C334 0.930 . S
H289 C335 0.929 . S
O290 H264 0.856 . S
O290 C336 1.300 . S
O291 C336 1.209 . S
O292 C337 1.199 . S
O293 H265 0.854 . S
O293 C337 1.297 . S
C294 C295 1.404 . S
C294 C299 1.397 . S
C294 C300 1.492 . S
C295 C294 1.404 . S
C295 C296 1.396 . S
C295 C306 1.492 . S
C296 C295 1.396 . S
C296 C297 1.397 . S
C296 C312 1.509 . S
C297 C296 1.397 . S
C297 C298 1.412 . S
C297 C318 1.485 . S
C298 C297 1.412 . S
C298 C299 1.388 . S
C298 C324 1.490 . S
C299 C294 1.397 . S
C299 C298 1.388 . S
C299 C330 1.519 . S
C300 C294 1.492 . S
C300 C301 1.363 . S
C300 C305 1.390 . S
C301 H266 0.930 1_455 S
C301 C300 1.363 . S
C301 C302 1.372 1_455 S
C302 H267 0.930 . S
C302 C301 1.372 1_655 S
C302 C303 1.383 1_655 S
C303 C302 1.383 1_455 S
C303 C304 1.395 . S
C304 H268 0.930 . S
C304 C303 1.395 . S
C304 C305 1.362 . S
C305 H269 0.930 . S
C305 C300 1.390 . S
C305 C304 1.362 . S
C306 C295 1.492 . S
C306 C307 1.377 . S
C306 C311 1.397 . S
C307 H270 0.931 1_455 S
C307 C306 1.377 . S
C307 C308 1.376 . S
C308 H271 0.930 1_455 S
C308 C307 1.376 . S
C308 C309 1.376 . S
C309 C308 1.376 . S
C309 C310 1.378 . S
C309 C336 1.486 . S
C310 H272 0.930 . S
C310 C309 1.378 . S
C310 C311 1.376 . S
C311 H273 0.929 . S
C311 C306 1.397 . S
C311 C310 1.376 . S
C312 C296 1.509 . S
C312 C313 1.391 . S
C312 C317 1.386 . S
C313 H274 0.930 1_455 S
C313 C312 1.391 . S
C313 C314 1.375 . S
C314 H275 0.931 . S
C314 C313 1.375 . S
C314 C315 1.375 . S
C315 C314 1.375 . S
C315 C316 1.361 . S
C316 H276 0.930 . S
C316 C315 1.361 . S
C316 C317 1.399 . S
C317 H277 0.929 . S
C317 C312 1.386 . S
C317 C316 1.399 . S
C318 C297 1.485 . S
C318 C319 1.394 . S
C318 C323 1.360 . S
C319 H278 0.931 1_455 S
C319 C318 1.394 . S
C319 C320 1.372 . S
C320 H279 0.930 1_455 S
C320 C319 1.372 . S
C320 C321 1.397 . S
C321 C320 1.397 . S
C321 C322 1.390 . S
C321 C337 1.476 . S
C322 H280 0.930 . S
C322 C321 1.390 . S
C322 C323 1.366 . S
C323 H281 0.932 . S
C323 C318 1.360 . S
C323 C322 1.366 . S
C324 C298 1.490 . S
C324 C325 1.379 1_455 S
C324 C329 1.386 . S
C325 H282 0.931 . S
C325 C324 1.379 1_655 S
C325 C326 1.381 . S
C326 H283 0.929 . S
C326 C325 1.381 . S
C326 C327 1.371 1_655 S
C327 C326 1.371 1_455 S
C327 C328 1.380 . S
C328 H284 0.931 . S
C328 C327 1.380 . S
C328 C329 1.387 . S
C329 H285 0.930 . S
C329 C324 1.386 . S
C329 C328 1.387 . S
C330 C299 1.519 . S
C330 C331 1.377 . S
C330 C335 1.361 . S
C331 H286 0.929 1_455 S
C331 C330 1.377 . S
C331 C332 1.386 . S
C332 H287 0.931 1_455 S
C332 C331 1.386 . S
C332 C333 1.363 . S
C333 C332 1.363 . S
C333 C334 1.385 . S
C334 H288 0.930 . S
C334 C333 1.385 . S
C334 C335 1.396 . S
C335 H289 0.929 . S
C335 C330 1.361 . S
C335 C334 1.396 . S
C336 O290 1.300 . S
C336 O291 1.209 . S
C336 C309 1.486 . S
C337 O292 1.199 . S
C337 O293 1.297 . S
C337 C321 1.476 . S
H338 O364 0.856 . S
H339 O367 0.854 . S
H340 C375 0.930 1_565 S
H341 C376 0.930 1_565 S
H342 C378 0.930 . S
H343 C379 0.930 . S
H344 C381 0.923 1_565 S
H345 C382 0.930 1_565 S
H346 C384 0.930 . S
H347 C385 0.929 . S
H348 C387 0.934 . S
H349 C388 0.931 . S
H350 C390 0.930 . S
H351 C391 0.929 . S
H352 C393 0.931 . S
H353 C394 0.930 . S
H354 C396 0.930 . S
H355 C397 0.932 . S
H356 C399 0.930 1_565 S
H357 C400 0.929 1_565 S
H358 C402 0.931 . S
H359 C403 0.930 . S
H360 C405 0.934 . S
H361 C406 0.931 . S
H362 C408 0.930 . S
H363 C409 0.929 . S
O364 H338 0.856 . S
O364 C410 1.300 . S
O365 C410 1.209 . S
O366 C411 1.199 . S
O367 H339 0.854 . S
O367 C411 1.297 . S
C368 C369 1.404 . S
C368 C373 1.397 . S
C368 C374 1.492 . S
C369 C368 1.404 . S
C369 C370 1.396 . S
C369 C380 1.492 . S
C370 C369 1.396 . S
C370 C371 1.397 . S
C370 C386 1.509 . S
C371 C370 1.397 . S
C371 C372 1.412 . S
C371 C392 1.485 . S
C372 C371 1.412 . S
C372 C373 1.388 . S
C372 C398 1.490 . S
C373 C368 1.397 . S
C373 C372 1.388 . S
C373 C404 1.519 . S
C374 C368 1.492 . S
C374 C375 1.363 . S
C374 C379 1.390 . S
C375 H340 0.930 1_545 S
C375 C374 1.363 . S
C375 C376 1.372 . S
C376 H341 0.930 1_545 S
C376 C375 1.372 . S
C376 C377 1.383 . S
C377 C376 1.383 . S
C377 C378 1.395 . S
C378 H342 0.930 . S
C378 C377 1.395 . S
C378 C379 1.362 . S
C379 H343 0.930 . S
C379 C374 1.390 . S
C379 C378 1.362 . S
C380 C369 1.492 . S
C380 C381 1.377 . S
C380 C385 1.397 . S
C381 H344 0.923 1_545 S
C381 C380 1.377 . S
C381 C382 1.376 . S
C382 H345 0.930 1_545 S
C382 C381 1.376 . S
C382 C383 1.376 . S
C383 C382 1.376 . S
C383 C384 1.378 . S
C383 C410 1.486 . S
C384 H346 0.930 . S
C384 C383 1.378 . S
C384 C385 1.376 . S
C385 H347 0.929 . S
C385 C380 1.397 . S
C385 C384 1.376 . S
C386 C370 1.509 . S
C386 C387 1.391 . S
C386 C391 1.386 . S
C387 H348 0.934 . S
C387 C386 1.391 . S
C387 C388 1.375 . S
C388 H349 0.931 . S
C388 C387 1.375 . S
C388 C389 1.375 . S
C389 C388 1.375 . S
C389 C390 1.361 . S
C390 H350 0.930 . S
C390 C389 1.361 . S
C390 C391 1.399 . S
C391 H351 0.929 . S
C391 C386 1.386 . S
C391 C390 1.399 . S
C392 C371 1.485 . S
C392 C393 1.394 . S
C392 C397 1.360 . S
C393 H352 0.931 . S
C393 C392 1.394 . S
C393 C394 1.372 . S
C394 H353 0.930 . S
C394 C393 1.372 . S
C394 C395 1.397 . S
C395 C394 1.397 . S
C395 C396 1.390 . S
C395 C411 1.476 . S
C396 H354 0.930 . S
C396 C395 1.390 . S
C396 C397 1.366 . S
C397 H355 0.932 . S
C397 C392 1.360 . S
C397 C396 1.366 . S
C398 C372 1.490 . S
C398 C399 1.380 . S
C398 C403 1.386 . S
C399 H356 0.930 1_545 S
C399 C398 1.380 . S
C399 C400 1.381 . S
C400 H357 0.929 1_545 S
C400 C399 1.381 . S
C400 C401 1.371 . S
C401 C400 1.371 . S
C401 C402 1.380 . S
C402 H358 0.931 . S
C402 C401 1.380 . S
C402 C403 1.387 . S
C403 H359 0.930 . S
C403 C398 1.386 . S
C403 C402 1.387 . S
C404 C373 1.519 . S
C404 C405 1.377 . S
C404 C409 1.361 . S
C405 H360 0.934 . S
C405 C404 1.377 . S
C405 C406 1.386 . S
C406 H361 0.931 . S
C406 C405 1.386 . S
C406 C407 1.363 . S
C407 C406 1.363 . S
C407 C408 1.385 . S
C408 H362 0.930 . S
C408 C407 1.385 . S
C408 C409 1.396 . S
C409 H363 0.929 . S
C409 C404 1.361 . S
C409 C408 1.396 . S
C410 O364 1.300 . S
C410 O365 1.209 . S
C410 C383 1.486 . S
C411 O366 1.199 . S
C411 O367 1.297 . S
C411 C395 1.476 . S
H412 O438 0.856 . S
H413 O441 0.854 . S
H414 C449 0.930 . S
H415 C450 0.930 . S
H416 C452 0.930 . S
H417 C453 0.930 . S
H418 C455 0.931 . S
H419 C456 0.930 . S
H420 C458 0.930 . S
H421 C459 0.929 . S
H422 C461 0.930 . S
H423 C462 0.931 . S
H424 C464 0.930 . S
H425 C465 0.929 . S
H426 C467 0.931 . S
H427 C468 0.930 . S
H428 C470 0.930 . S
H429 C471 0.932 . S
H430 C473 0.930 . S
H431 C474 0.929 . S
H432 C476 0.931 . S
H433 C477 0.930 . S
H434 C479 0.929 . S
H435 C480 0.931 . S
H436 C482 0.930 . S
H437 C483 0.929 . S
O438 H412 0.856 . S
O438 C484 1.300 . S
O439 C484 1.209 . S
O440 C485 1.199 . S
O441 H413 0.854 . S
O441 C485 1.297 . S
C442 C443 1.404 . S
C442 C447 1.397 . S
C442 C448 1.492 . S
C443 C442 1.404 . S
C443 C444 1.396 . S
C443 C454 1.492 . S
C444 C443 1.396 . S
C444 C445 1.397 . S
C444 C460 1.509 . S
C445 C444 1.397 . S
C445 C446 1.412 . S
C445 C466 1.485 . S
C446 C445 1.412 . S
C446 C447 1.388 . S
C446 C472 1.490 . S
C447 C442 1.397 . S
C447 C446 1.388 . S
C447 C478 1.519 . S
C448 C442 1.492 . S
C448 C449 1.363 . S
C448 C453 1.390 . S
C449 H414 0.930 . S
C449 C448 1.363 . S
C449 C450 1.372 . S
C450 H415 0.930 . S
C450 C449 1.372 . S
C450 C451 1.383 . S
C451 C450 1.383 . S
C451 C452 1.395 . S
C452 H416 0.930 . S
C452 C451 1.395 . S
C452 C453 1.362 . S
C453 H417 0.930 . S
C453 C448 1.390 . S
C453 C452 1.362 . S
C454 C443 1.492 . S
C454 C455 1.377 . S
C454 C459 1.397 . S
C455 H418 0.931 . S
C455 C454 1.377 . S
C455 C456 1.376 . S
C456 H419 0.930 . S
C456 C455 1.376 . S
C456 C457 1.376 . S
C457 C456 1.376 . S
C457 C458 1.378 . S
C457 C484 1.486 1_556 S
C458 H420 0.930 . S
C458 C457 1.378 . S
C458 C459 1.376 . S
C459 H421 0.929 . S
C459 C454 1.397 . S
C459 C458 1.376 . S
C460 C444 1.509 . S
C460 C461 1.391 . S
C460 C465 1.386 . S
C461 H422 0.930 . S
C461 C460 1.391 . S
C461 C462 1.375 . S
C462 H423 0.931 . S
C462 C461 1.375 . S
C462 C463 1.375 . S
C463 C462 1.375 . S
C463 C464 1.361 . S
C464 H424 0.930 . S
C464 C463 1.361 . S
C464 C465 1.399 . S
C465 H425 0.929 . S
C465 C460 1.386 . S
C465 C464 1.399 . S
C466 C445 1.485 . S
C466 C467 1.394 . S
C466 C471 1.360 . S
C467 H426 0.931 . S
C467 C466 1.394 . S
C467 C468 1.372 . S
C468 H427 0.930 . S
C468 C467 1.372 . S
C468 C469 1.397 . S
C469 C468 1.397 . S
C469 C470 1.390 . S
C469 C485 1.476 . S
C470 H428 0.930 . S
C470 C469 1.390 . S
C470 C471 1.366 . S
C471 H429 0.932 . S
C471 C466 1.360 . S
C471 C470 1.366 . S
C472 C446 1.490 . S
C472 C473 1.380 . S
C472 C477 1.386 . S
C473 H430 0.930 . S
C473 C472 1.380 . S
C473 C474 1.381 . S
C474 H431 0.929 . S
C474 C473 1.381 . S
C474 C475 1.371 . S
C475 C474 1.371 . S
C475 C476 1.380 . S
C476 H432 0.931 . S
C476 C475 1.380 . S
C476 C477 1.387 . S
C477 H433 0.930 . S
C477 C472 1.386 . S
C477 C476 1.387 . S
C478 C447 1.519 . S
C478 C479 1.377 . S
C478 C483 1.361 . S
C479 H434 0.929 . S
C479 C478 1.377 . S
C479 C480 1.386 . S
C480 H435 0.931 . S
C480 C479 1.386 . S
C480 C481 1.363 . S
C481 C480 1.363 . S
C481 C482 1.385 . S
C482 H436 0.930 . S
C482 C481 1.385 . S
C482 C483 1.396 . S
C483 H437 0.929 . S
C483 C478 1.361 . S
C483 C482 1.396 . S
C484 O438 1.300 . S
C484 O439 1.209 . S
C484 C457 1.486 1_554 S
C485 O440 1.199 . S
C485 O441 1.297 . S
C485 C469 1.476 . S
H486 C492 0.930 . S
H487 C495 0.930 . S
H488 C496 0.930 . S
H489 C497 0.930 . S
H490 C500 0.930 . S
H491 C501 0.930 . S
C492 H486 0.930 . S
C492 C493 1.355 1_655 S
C492 C494 1.415 . S
C493 C492 1.355 1_455 S
C493 C495 1.419 . S
C494 C492 1.415 . S
C494 C499 1.425 1_655 S
C494 C501 1.409 . S
C495 H487 0.930 . S
C495 C493 1.419 . S
C495 C496 1.362 . S
C496 H488 0.930 . S
C496 C495 1.362 . S
C496 C499 1.409 . S
C497 H489 0.930 . S
C497 C498 1.355 . S
C497 C499 1.415 . S
C498 C497 1.355 . S
C498 C500 1.419 1_455 S
C499 C494 1.425 1_455 S
C499 C496 1.409 . S
C499 C497 1.415 . S
C500 H490 0.930 . S
C500 C498 1.419 1_655 S
C500 C501 1.362 . S
C501 H491 0.930 . S
C501 C494 1.409 . S
C501 C500 1.362 . S
H502 C508 0.930 . S
H503 C511 0.930 . S
H504 C512 0.930 . S
H505 C513 0.930 . S
H506 C516 0.930 . S
H507 C517 0.930 . S
C508 H502 0.930 . S
C508 C509 1.355 1_545 S
C508 C510 1.415 . S
C509 C508 1.355 1_565 S
C509 C511 1.419 . S
C510 C508 1.415 . S
C510 C515 1.425 1_545 S
C510 C517 1.409 . S
C511 H503 0.930 . S
C511 C509 1.419 . S
C511 C512 1.362 . S
C512 H504 0.930 . S
C512 C511 1.362 . S
C512 C515 1.409 . S
C513 H505 0.930 . S
C513 C514 1.355 1_565 S
C513 C515 1.415 . S
C514 C513 1.355 1_545 S
C514 C516 1.419 . S
C515 C510 1.425 1_565 S
C515 C512 1.409 . S
C515 C513 1.415 . S
C516 H506 0.930 . S
C516 C514 1.419 . S
C516 C517 1.362 . S
C517 H507 0.930 . S
C517 C510 1.409 . S
C517 C516 1.362 . S
H518 C524 0.930 . S
H519 C527 0.930 . S
H520 C528 0.930 . S
H521 C529 0.930 . S
H522 C532 0.930 . S
H523 C533 0.930 . S
C524 H518 0.930 . S
C524 C525 1.355 . S
C524 C526 1.415 . S
C525 C524 1.355 . S
C525 C527 1.419 . S
C526 C524 1.415 . S
C526 C531 1.425 . S
C526 C533 1.409 . S
C527 H519 0.930 . S
C527 C525 1.419 . S
C527 C528 1.362 . S
C528 H520 0.930 . S
C528 C527 1.362 . S
C528 C531 1.409 . S
C529 H521 0.930 . S
C529 C530 1.355 . S
C529 C531 1.415 . S
C530 C529 1.355 . S
C530 C532 1.419 . S
C531 C526 1.425 . S
C531 C528 1.409 . S
C531 C529 1.415 . S
C532 H522 0.930 . S
C532 C530 1.419 . S
C532 C533 1.362 . S
C533 H523 0.930 . S
C533 C526 1.409 . S
C533 C532 1.362 . S
H534 C540 0.930 . S
H535 C543 0.930 . S
H536 C544 0.930 . S
H537 C545 0.930 . S
H538 C548 0.930 . S
H539 C549 0.930 . S
C540 H534 0.930 . S
C540 C541 1.355 . S
C540 C542 1.415 . S
C541 C540 1.355 . S
C541 C543 1.419 . S
C542 C540 1.415 . S
C542 C547 1.425 . S
C542 C549 1.409 . S
C543 H535 0.930 . S
C543 C541 1.419 . S
C543 C544 1.362 . S
C544 H536 0.930 . S
C544 C543 1.362 . S
C544 C547 1.409 . S
C545 H537 0.930 . S
C545 C546 1.355 . S
C545 C547 1.415 . S
C546 C545 1.355 . S
C546 C548 1.419 . S
C547 C542 1.425 . S
C547 C544 1.409 . S
C547 C545 1.415 . S
C548 H538 0.930 . S
C548 C546 1.419 . S
C548 C549 1.362 . S
C549 H539 0.930 . S
C549 C542 1.409 . S
C549 C548 1.362 . S
H550 C556 0.930 . S
H551 C559 0.930 . S
H552 C560 0.930 . S
H553 C561 0.930 . S
H554 C564 0.930 . S
H555 C565 0.930 1_565 S
C556 H550 0.930 . S
C556 C557 1.355 . S
C556 C558 1.415 . S
C557 C556 1.355 . S
C557 C559 1.419 . S
C558 C556 1.415 . S
C558 C563 1.425 . S
C558 C565 1.409 . S
C559 H551 0.930 . S
C559 C557 1.419 . S
C559 C560 1.362 . S
C560 H552 0.930 . S
C560 C559 1.362 . S
C560 C563 1.409 . S
C561 H553 0.930 . S
C561 C562 1.355 . S
C561 C563 1.415 . S
C562 C561 1.355 . S
C562 C564 1.419 . S
C563 C558 1.425 . S
C563 C560 1.409 . S
C563 C561 1.415 . S
C564 H554 0.930 . S
C564 C562 1.419 . S
C564 C565 1.362 . S
C565 H555 0.930 1_545 S
C565 C558 1.409 . S
C565 C564 1.362 . S
H566 C572 0.930 . S
H567 C575 0.930 . S
H568 C576 0.930 . S
H569 C577 0.930 . S
H570 C580 0.930 . S
H571 C581 0.930 . S
C572 H566 0.930 . S
C572 C573 1.355 . S
C572 C574 1.415 . S
C573 C572 1.355 . S
C573 C575 1.419 . S
C574 C572 1.415 . S
C574 C579 1.425 . S
C574 C581 1.409 . S
C575 H567 0.930 . S
C575 C573 1.419 . S
C575 C576 1.362 . S
C576 H568 0.930 . S
C576 C575 1.362 . S
C576 C579 1.409 . S
C577 H569 0.930 . S
C577 C578 1.355 . S
C577 C579 1.415 . S
C578 C577 1.355 . S
C578 C580 1.419 . S
C579 C574 1.425 . S
C579 C576 1.409 . S
C579 C577 1.415 . S
C580 H570 0.930 . S
C580 C578 1.419 . S
C580 C581 1.362 . S
C581 H571 0.930 . S
C581 C574 1.409 . S
C581 C580 1.362 . S
H582 C588 0.930 . S
H583 C591 0.930 . S
H584 C592 0.930 . S
H585 C593 0.930 . S
H586 C596 0.930 . S
H587 C597 0.930 . S
C588 H582 0.930 . S
C588 C589 1.355 . S
C588 C590 1.415 . S
C589 C588 1.355 . S
C589 C591 1.419 . S
C590 C588 1.415 . S
C590 C595 1.425 . S
C590 C597 1.409 . S
C591 H583 0.930 . S
C591 C589 1.419 . S
C591 C592 1.362 . S
C592 H584 0.930 . S
C592 C591 1.362 . S
C592 C595 1.409 . S
C593 H585 0.930 . S
C593 C594 1.355 . S
C593 C595 1.415 . S
C594 C593 1.355 . S
C594 C596 1.419 . S
C595 C590 1.425 . S
C595 C592 1.409 . S
C595 C593 1.415 . S
C596 H586 0.930 . S
C596 C594 1.419 . S
C596 C597 1.362 . S
C597 H587 0.930 . S
C597 C590 1.409 . S
C597 C596 1.362 . S
H598 C604 0.930 1_554 S
H599 C607 0.930 . S
H600 C608 0.930 . S
H601 C609 0.930 . S
H602 C612 0.930 . S
H603 C613 0.930 . S
C604 H598 0.930 1_556 S
C604 C605 1.346 1_556 S
C604 C606 1.415 . S
C605 C604 1.346 1_554 S
C605 C607 1.388 1_554 S
C606 C604 1.415 . S
C606 C611 1.425 . S
C606 C613 1.409 . S
C607 H599 0.930 . S
C607 C605 1.388 1_556 S
C607 C608 1.362 . S
C608 H600 0.930 . S
C608 C607 1.362 . S
C608 C611 1.409 . S
C609 H601 0.930 . S
C609 C610 1.355 . S
C609 C611 1.415 . S
C610 C609 1.355 . S
C610 C612 1.419 . S
C611 C606 1.425 . S
C611 C608 1.409 . S
C611 C609 1.415 . S
C612 H602 0.930 . S
C612 C610 1.419 . S
C612 C613 1.362 . S
C613 H603 0.930 . S
C613 C606 1.409 . S
C613 C612 1.362 . S
H614 C620 0.930 . S
H615 C623 0.930 . S
H616 C624 0.930 . S
H617 C625 0.930 . S
H618 C628 0.930 . S
H619 C629 0.930 . S
C620 H614 0.930 . S
C620 C621 1.355 . S
C620 C622 1.415 . S
C621 C620 1.355 . S
C621 C623 1.419 1_655 S
C622 C620 1.415 . S
C622 C627 1.425 1_655 S
C622 C629 1.409 . S
C623 H615 0.930 . S
C623 C621 1.419 1_455 S
C623 C624 1.362 . S
C624 H616 0.930 . S
C624 C623 1.362 . S
C624 C627 1.409 . S
C625 H617 0.930 . S
C625 C626 1.355 . S
C625 C627 1.415 . S
C626 C625 1.355 . S
C626 C628 1.419 1_455 S
C627 C622 1.425 1_455 S
C627 C624 1.409 . S
C627 C625 1.415 . S
C628 H618 0.930 . S
C628 C626 1.419 1_655 S
C628 C629 1.362 . S
C629 H619 0.930 . S
C629 C622 1.409 . S
C629 C628 1.362 . S
H630 C636 0.930 . S
H631 C639 0.930 . S
H632 C640 0.930 . S
H633 C641 0.930 . S
H634 C644 0.930 . S
H635 C645 0.930 . S
C636 H630 0.930 . S
C636 C637 1.355 . S
C636 C638 1.415 . S
C637 C636 1.355 . S
C637 C639 1.419 . S
C638 C636 1.415 . S
C638 C643 1.425 . S
C638 C645 1.409 . S
C639 H631 0.930 . S
C639 C637 1.419 . S
C639 C640 1.362 . S
C640 H632 0.930 . S
C640 C639 1.362 . S
C640 C643 1.409 . S
C641 H633 0.930 . S
C641 C642 1.355 . S
C641 C643 1.415 . S
C642 C641 1.355 . S
C642 C644 1.419 . S
C643 C638 1.425 . S
C643 C640 1.409 . S
C643 C641 1.415 . S
C644 H634 0.930 . S
C644 C642 1.419 . S
C644 C645 1.362 . S
C645 H635 0.930 . S
C645 C638 1.409 . S
C645 C644 1.362 . S
H646 C652 0.930 . S
H647 C655 0.930 . S
H648 C656 0.930 . S
H649 C657 0.930 . S
H650 C660 0.930 . S
H651 C661 0.930 . S
C652 H646 0.930 . S
C652 C653 1.355 . S
C652 C654 1.417 . S
C653 C652 1.355 . S
C653 C655 1.419 1_554 S
C654 C652 1.417 . S
C654 C659 1.422 1_554 S
C654 C661 1.409 . S
C655 H647 0.930 . S
C655 C653 1.419 1_556 S
C655 C656 1.362 . S
C656 H648 0.930 . S
C656 C655 1.362 . S
C656 C659 1.409 . S
C657 H649 0.930 . S
C657 C658 1.355 . S
C657 C659 1.415 . S
C658 C657 1.355 . S
C658 C660 1.419 . S
C659 C654 1.422 1_556 S
C659 C656 1.409 . S
C659 C657 1.415 . S
C660 H650 0.930 . S
C660 C658 1.419 . S
C660 C661 1.362 1_556 S
C661 H651 0.930 . S
C661 C654 1.409 . S
C661 C660 1.362 1_554 S
H662 C668 0.930 . S
H663 C671 0.930 . S
H664 C672 0.930 . S
H665 C673 0.930 . S
H666 C676 0.930 . S
H667 C677 0.930 . S
C668 H662 0.930 . S
C668 C669 1.355 . S
C668 C670 1.415 . S
C669 C668 1.355 . S
C669 C671 1.419 . S
C670 C668 1.415 . S
C670 C675 1.425 . S
C670 C677 1.409 . S
C671 H663 0.930 . S
C671 C669 1.419 . S
C671 C672 1.362 . S
C672 H664 0.930 . S
C672 C671 1.362 . S
C672 C675 1.409 . S
C673 H665 0.930 . S
C673 C674 1.355 . S
C673 C675 1.415 . S
C674 C673 1.355 . S
C674 C676 1.419 . S
C675 C670 1.425 . S
C675 C672 1.409 . S
C675 C673 1.415 . S
C676 H666 0.930 . S
C676 C674 1.419 . S
C676 C677 1.362 . S
C677 H667 0.930 . S
C677 C670 1.409 . S
C677 C676 1.362 . S
C498 C303 1.382 . S
C493 C29 1.447 1_455 S
C509 C137 1.522 . S
C514 C377 1.445 . S
C525 C225 2.118 . S
C530 C481 2.153 . S
C541 C49 0.778 . S
C546 C315 0.735 . S
C562 C389 0.681 . S
C557 C117 0.723 . S
C573 C205 1.397 . S
C578 C475 1.324 . S
C594 C407 2.159 . S
C589 C233 2.128 . S
C605 C57 1.487 . S
C610 C451 1.369 . S
C626 C327 1.378 . S
C621 C108 1.428 . S
C642 C401 1.396 . S
C637 C196 1.423 . S
C658 C463 0.743 . S
C653 C20 0.719 . S
C669 C145 2.141 . S
C674 C333 2.154 . S
