# Generated by pormake.
# Topology rtl, (3,6)-cn, num edge types: 1
# Building blocks:
#     Node 0, Type 0, BuildingBlock: MIDCAF_clean_linker_0, # of connection points: 3
#     Node 1, Type 0, BuildingBlock: MIDCAF_clean_linker_0, # of connection points: 3
#     Node 2, Type 0, BuildingBlock: MIDCAF_clean_linker_0, # of connection points: 3
#     Node 3, Type 0, BuildingBlock: MIDCAF_clean_linker_0, # of connection points: 3
#     Node 4, Type 1, BuildingBlock: FUNLAD_clean_sbu_0, # of connection points: 6
#     Node 5, Type 1, BuildingBlock: FUNLAD_clean_sbu_0, # of connection points: 6
#     Edge 6, Type (0, 1), BuildingBlock: TEMPAE_clean_linker_10, # of connection points: 2
#     Edge 7, Type (0, 1), BuildingBlock: TEMPAE_clean_linker_10, # of connection points: 2
#     Edge 8, Type (0, 1), BuildingBlock: TEMPAE_clean_linker_10, # of connection points: 2
#     Edge 9, Type (0, 1), BuildingBlock: TEMPAE_clean_linker_10, # of connection points: 2
#     Edge 10, Type (0, 1), BuildingBlock: TEMPAE_clean_linker_10, # of connection points: 2
#     Edge 11, Type (0, 1), BuildingBlock: TEMPAE_clean_linker_10, # of connection points: 2
#     Edge 12, Type (0, 1), BuildingBlock: TEMPAE_clean_linker_10, # of connection points: 2
#     Edge 13, Type (0, 1), BuildingBlock: TEMPAE_clean_linker_10, # of connection points: 2
#     Edge 14, Type (0, 1), BuildingBlock: TEMPAE_clean_linker_10, # of connection points: 2
#     Edge 15, Type (0, 1), BuildingBlock: TEMPAE_clean_linker_10, # of connection points: 2
#     Edge 16, Type (0, 1), BuildingBlock: TEMPAE_clean_linker_10, # of connection points: 2
#     Edge 17, Type (0, 1), BuildingBlock: TEMPAE_clean_linker_10, # of connection points: 2
# Relax obj value: 0.028
# Max RMSD: 0.094
# Mean RMSD: 0.080
data_MOF--net-rtl--node1-FUNLAD_clean_sbu_0--node2-MIDCAF_clean_linker_0--edge1-TEMPAE_clean_linker_10
_symmetry_space_group_name_H-M    P1
_symmetry_Int_Tables_number       1
_symmetry_cell_setting            triclinic
loop_
_symmetry_equiv_pos_as_xyz
'x, y, z'
_cell_length_a     49.18139
_cell_length_b     39.959449
_cell_length_c     28.539395
_cell_angle_alpha  89.701737
_cell_angle_beta   90.889378
_cell_angle_gamma 90.579581
loop_
_atom_site_label
_atom_site_type_symbol
_atom_site_fract_x
_atom_site_fract_y
_atom_site_fract_z
_atom_type_partial_charge
C0 C 0.05894 0.80322 0.14923 0.0
C1 C 0.07492 0.80296 0.1904 0.0
C2 C 0.09923 0.78469 0.19129 0.0
C3 C 0.10808 0.76858 0.15087 0.0
H4 H 0.16338 0.69976 0.09613 0.0
H5 H 0.20453 0.66644 0.09409 0.0
H6 H 0.20146 0.66818 0.94279 0.0
H7 H 0.1606 0.70193 0.94455 0.0
H8 H 0.10621 0.73803 0.89115 0.0
H9 H 0.08904 0.76553 0.82002 0.0
H10 H 0.06214 0.8487 0.9033 0.0
H11 H 0.07783 0.82064 0.9737 0.0
H12 H 0.05522 0.78892 0.07756 0.0
H13 H 0.0398 0.8164 0.14779 0.0
H14 H 0.11198 0.7841 0.22256 0.0
H15 H 0.12743 0.75587 0.15197 0.0
N16 N 0.12452 0.73625 0.0632 0.0
N17 N 0.12426 0.73892 0.98084 0.0
N18 N 0.0933 0.77033 0.0233 0.0
C19 C 0.13489 0.72636 0.02155 0.0
C20 C 0.10348 0.76102 0.98158 0.0
C21 C 0.10349 0.75803 0.06419 0.0
C22 C 0.1587 0.70385 0.02051 0.0
C23 C 0.17131 0.69288 0.06236 0.0
C24 C 0.19485 0.6736 0.06124 0.0
C25 C 0.20635 0.66485 0.01828 0.0
C26 C 0.19333 0.67497 0.97646 0.0
C27 C 0.1698 0.69421 0.97754 0.0
C28 C 0.09318 0.777 0.93805 0.0
C29 C 0.09643 0.76208 0.89406 0.0
C30 C 0.08671 0.77795 0.85332 0.0
C31 C 0.07396 0.8093 0.85578 0.0
C32 C 0.07108 0.82419 0.89992 0.0
C33 C 0.0803 0.80814 0.94046 0.0
C34 C 0.09279 0.77061 0.10892 0.0
C35 C 0.06778 0.78733 0.109 0.0
C36 C 0.55386 0.69826 0.38235 0.0
C37 C 0.57019 0.699 0.34242 0.0
C38 C 0.5939 0.71895 0.34279 0.0
C39 C 0.60183 0.73643 0.3832 0.0
H40 H 0.65489 0.80832 0.43718 0.0
H41 H 0.69734 0.84003 0.43837 0.0
H42 H 0.69943 0.8355 0.58959 0.0
H43 H 0.65665 0.80419 0.58872 0.0
H44 H 0.59931 0.77297 0.64133 0.0
H45 H 0.58196 0.74686 0.71279 0.0
H46 H 0.55111 0.66357 0.63089 0.0
H47 H 0.56696 0.69022 0.56026 0.0
H48 H 0.54904 0.71362 0.45317 0.0
H49 H 0.53514 0.68375 0.38276 0.0
H50 H 0.60694 0.71992 0.31256 0.0
H51 H 0.62075 0.75053 0.38301 0.0
N52 N 0.61758 0.77027 0.47017 0.0
N53 N 0.61659 0.77041 0.5525 0.0
N54 N 0.58528 0.73782 0.50956 0.0
C55 C 0.62781 0.78151 0.51186 0.0
C56 C 0.59526 0.74852 0.55147 0.0
C57 C 0.59616 0.7486 0.4688 0.0
C58 C 0.65238 0.80336 0.51286 0.0
C59 C 0.6642 0.81425 0.4708 0.0
C60 C 0.68864 0.83231 0.4714 0.0
C61 C 0.70188 0.83996 0.51403 0.0
C62 C 0.68963 0.83018 0.55617 0.0
C63 C 0.66514 0.81208 0.55561 0.0
C64 C 0.58438 0.73381 0.59509 0.0
C65 C 0.58856 0.74924 0.63878 0.0
C66 C 0.57874 0.73417 0.67971 0.0
C67 C 0.56491 0.70314 0.67777 0.0
C68 C 0.56089 0.68787 0.6339 0.0
C69 C 0.57023 0.70312 0.59319 0.0
C70 C 0.58622 0.73414 0.42398 0.0
C71 C 0.5618 0.71555 0.42266 0.0
C72 C 0.93468 0.18262 0.88769 0.0
C73 C 0.93087 0.19785 0.8436 0.0
C74 C 0.91727 0.22869 0.84113 0.0
C75 C 0.90767 0.24376 0.88185 0.0
H76 H 0.84224 0.30114 0.93244 0.0
H77 H 0.80078 0.33397 0.93157 0.0
H78 H 0.80272 0.33684 0.08283 0.0
H79 H 0.84387 0.30358 0.08401 0.0
H80 H 0.87829 0.24543 0.1386 0.0
H81 H 0.89352 0.21585 0.20931 0.0
H82 H 0.96529 0.18363 0.1375 0.0
H83 H 0.94995 0.21239 0.06692 0.0
H84 H 0.92875 0.18505 0.96132 0.0
H85 H 0.94427 0.15844 0.89106 0.0
H86 H 0.91418 0.24131 0.80784 0.0
H87 H 0.89723 0.26743 0.87894 0.0
N88 N 0.88075 0.26549 0.96847 0.0
N89 N 0.88095 0.26626 0.05087 0.0
N90 N 0.91207 0.23329 0.01122 0.0
C91 C 0.87031 0.27707 0.00919 0.0
C92 C 0.90201 0.24456 0.05206 0.0
C93 C 0.90166 0.2435 0.96937 0.0
C94 C 0.84636 0.29938 0.00831 0.0
C95 C 0.83399 0.30892 0.96557 0.0
C96 C 0.81027 0.32792 0.96501 0.0
C97 C 0.79837 0.33781 0.00714 0.0
C98 C 0.81116 0.32914 0.04979 0.0
C99 C 0.83487 0.31019 0.0504 0.0
C100 C 0.91269 0.23085 0.0969 0.0
C101 C 0.89749 0.23242 0.13814 0.0
C102 C 0.90624 0.21553 0.17868 0.0
C103 C 0.93038 0.19696 0.1787 0.0
C104 C 0.94626 0.19704 0.13824 0.0
C105 C 0.9375 0.21368 0.09782 0.0
C106 C 0.91184 0.22849 0.92581 0.0
C107 C 0.92554 0.19784 0.92817 0.0
C108 C 0.45132 0.30279 0.63145 0.0
C109 C 0.43503 0.30263 0.67145 0.0
C110 C 0.41106 0.28315 0.67132 0.0
C111 C 0.40295 0.26546 0.63125 0.0
H112 H 0.34593 0.199 0.57945 0.0
H113 H 0.30314 0.16806 0.57869 0.0
H114 H 0.30512 0.16296 0.42765 0.0
H115 H 0.34775 0.19455 0.42808 0.0
H116 H 0.38645 0.2486 0.37534 0.0
H117 H 0.40266 0.27743 0.30543 0.0
H118 H 0.47518 0.30876 0.38119 0.0
H119 H 0.45882 0.28071 0.45123 0.0
H120 H 0.45595 0.28669 0.56085 0.0
H121 H 0.47021 0.31696 0.63082 0.0
H122 H 0.39799 0.28266 0.70152 0.0
H123 H 0.38388 0.25167 0.63177 0.0
N124 N 0.38608 0.23182 0.54538 0.0
N125 N 0.3872 0.22977 0.46324 0.0
N126 N 0.42004 0.26089 0.50496 0.0
C127 C 0.37545 0.22034 0.50415 0.0
C128 C 0.40963 0.24992 0.46344 0.0
C129 C 0.40844 0.25202 0.54606 0.0
C130 C 0.3503 0.19953 0.50379 0.0
C131 C 0.33741 0.19118 0.546 0.0
C132 C 0.31291 0.17323 0.54564 0.0
C133 C 0.3007 0.16313 0.50311 0.0
C134 C 0.31385 0.17079 0.46096 0.0
C135 C 0.33837 0.18877 0.46127 0.0
C136 C 0.42113 0.26277 0.41912 0.0
C137 C 0.40605 0.26119 0.3769 0.0
C138 C 0.41537 0.27764 0.33676 0.0
C139 C 0.44001 0.29581 0.338 0.0
C140 C 0.45581 0.29563 0.37943 0.0
C141 C 0.44646 0.27941 0.41953 0.0
C142 C 0.41859 0.26702 0.59043 0.0
C143 C 0.44319 0.28527 0.5914 0.0
C144 C 0.01702 0.95496 0.45028 0.0
N145 N 0.06065 0.03249 0.51599 0.0
C146 C 0.08227 0.01152 0.51816 0.0
C147 C 0.10875 0.02432 0.51704 0.0
C148 C 0.11306 0.05904 0.51371 0.0
C149 C 0.09036 0.0801 0.5118 0.0
C150 C 0.06422 0.06623 0.51296 0.0
Zn151 Zn 0.02224 0.0127 0.5162 0.0
C152 C 0.98617 0.04497 0.44565 0.0
N153 N 0.94249 0.96996 0.5158 0.0
C154 C 0.93877 0.93618 0.51596 0.0
C155 C 0.92097 0.99109 0.51609 0.0
C156 C 0.89443 0.97842 0.51667 0.0
C157 C 0.88996 0.94365 0.51693 0.0
C158 C 0.91257 0.92243 0.51652 0.0
Zn159 Zn 0.98094 0.98969 0.51564 0.0
O160 O 0.03389 0.97611 0.46725 0.0
C161 C 0.01697 0.95747 0.58616 0.0
O162 O 0.99246 0.95539 0.46346 0.0
H163 H 0.92438 0.01786 0.51608 0.0
H164 H 0.07897 0.98478 0.52063 0.0
H165 H 0.95617 0.91985 0.51562 0.0
O166 O 0.03326 0.98017 0.57218 0.0
O167 O 0.99332 0.95521 0.56785 0.0
H168 H 0.04674 0.08243 0.5111 0.0
O169 O 0.97008 0.02424 0.5683 0.0
O170 O 0.01004 0.04905 0.56472 0.0
O171 O 0.96914 0.02443 0.46298 0.0
O172 O 0.01062 0.04494 0.46069 0.0
C173 C 0.98632 0.04737 0.58159 0.0
H174 H 0.12568 0.00723 0.51916 0.0
H175 H 0.09277 0.10699 0.50866 0.0
H176 H 0.87761 0.99568 0.51753 0.0
H177 H 0.91004 0.89548 0.51608 0.0
C178 C 0.48621 0.45642 0.93834 0.0
N179 N 0.56163 0.47216 0.00492 0.0
C180 C 0.56506 0.43843 0.0042 0.0
C181 C 0.59111 0.42499 0.00289 0.0
C182 C 0.61392 0.44644 0.00229 0.0
C183 C 0.60977 0.48117 0.00309 0.0
C184 C 0.58333 0.49355 0.00438 0.0
Zn185 Zn 0.52308 0.49065 0.00679 0.0
C186 C 0.5154 0.54771 0.94114 0.0
N187 N 0.44239 0.52891 0.01084 0.0
C188 C 0.42063 0.5076 0.01031 0.0
C189 C 0.43905 0.56261 0.01305 0.0
C190 C 0.41304 0.57611 0.01495 0.0
C191 C 0.39017 0.55475 0.01462 0.0
C192 C 0.39422 0.52005 0.01215 0.0
Zn193 Zn 0.48095 0.51039 0.00879 0.0
O194 O 0.51046 0.45668 0.95433 0.0
C195 C 0.48867 0.45334 0.07469 0.0
O196 O 0.46917 0.47694 0.95449 0.0
H197 H 0.45661 0.57912 0.01332 0.0
H198 H 0.54755 0.42186 0.00478 0.0
H199 H 0.42375 0.48089 0.00866 0.0
O200 O 0.5127 0.45519 0.05909 0.0
O201 O 0.47085 0.47363 0.05938 0.0
H202 H 0.58013 0.52028 0.00488 0.0
O203 O 0.49334 0.54335 0.06278 0.0
O204 O 0.53518 0.52513 0.0594 0.0
O205 O 0.49176 0.54709 0.95846 0.0
O206 O 0.5328 0.52621 0.95439 0.0
C207 C 0.51792 0.54467 0.07706 0.0
H208 H 0.59337 0.39806 0.00301 0.0
H209 H 0.62676 0.49861 0.00219 0.0
H210 H 0.41087 0.60303 0.01611 0.0
H211 H 0.37718 0.50267 0.01228 0.0
C212 C 0.25356 0.15511 0.47036 0.0
C213 C 0.27385 0.14577 0.5028 0.0
C214 C 0.22764 0.14018 0.47113 0.0
C215 C 0.22185 0.11537 0.50521 0.0
C216 C 0.24237 0.1054 0.53754 0.0
C217 C 0.26814 0.12071 0.53593 0.0
C218 C 0.20626 0.15149 0.4361 0.0
C219 C 0.23697 0.07891 0.57425 0.0
C220 C 0.14801 0.1019 0.53773 0.0
C221 C 0.14105 0.0732 0.51195 0.0
C222 C 0.17429 0.11576 0.53604 0.0
C223 C 0.19408 0.10056 0.50787 0.0
C224 C 0.18725 0.0715 0.48194 0.0
C225 C 0.1608 0.05816 0.48429 0.0
C226 C 0.18087 0.14671 0.56435 0.0
C227 C 0.2078 0.05468 0.45139 0.0
H228 H 0.25772 0.17477 0.44508 0.0
H229 H 0.28385 0.11308 0.56068 0.0
H230 H 0.19801 0.12969 0.41637 0.0
H231 H 0.18904 0.16286 0.45476 0.0
H232 H 0.21434 0.1701 0.41069 0.0
H233 H 0.25533 0.07335 0.59598 0.0
H234 H 0.2206 0.08725 0.59767 0.0
H235 H 0.2298 0.05543 0.55731 0.0
H236 H 0.13294 0.11336 0.55967 0.0
H237 H 0.15544 0.03622 0.46383 0.0
H238 H 0.18748 0.1673 0.54077 0.0
H239 H 0.19798 0.14164 0.58907 0.0
H240 H 0.16321 0.15536 0.58469 0.0
H241 H 0.2148 0.07237 0.42391 0.0
H242 H 0.19937 0.03191 0.4341 0.0
H243 H 0.22592 0.04756 0.47266 0.0
C244 C 0.23732 0.61948 0.04762 0.0
C245 C 0.23244 0.64645 0.01707 0.0
C246 C 0.26233 0.6028 0.04783 0.0
C247 C 0.28293 0.61344 0.01684 0.0
C248 C 0.278 0.64037 0.98554 0.0
C249 C 0.25284 0.65654 0.98605 0.0
C250 C 0.26681 0.57407 0.08153 0.0
C251 C 0.29951 0.65254 0.95212 0.0
C252 C 0.35687 0.5955 0.04656 0.0
C253 C 0.36233 0.56874 0.01661 0.0
C254 C 0.33098 0.60987 0.04756 0.0
C255 C 0.31 0.59714 0.01798 0.0
C256 C 0.31519 0.56972 0.98834 0.0
C257 C 0.34131 0.55585 0.98798 0.0
C258 C 0.32621 0.63903 0.07978 0.0
C259 C 0.29332 0.55549 0.95628 0.0
H260 H 0.22153 0.61134 0.0713 0.0
H261 H 0.24936 0.67768 0.96284 0.0
H262 H 0.27255 0.55131 0.06206 0.0
H263 H 0.2839 0.58016 0.10596 0.0
H264 H 0.24846 0.56827 0.10241 0.0
H265 H 0.29214 0.67309 0.929 0.0
H266 H 0.31758 0.66168 0.97217 0.0
H267 H 0.30626 0.63162 0.92985 0.0
H268 H 0.37288 0.60522 0.06935 0.0
H269 H 0.34544 0.53541 0.96441 0.0
H270 H 0.30906 0.63326 0.10337 0.0
H271 H 0.3205 0.66143 0.05885 0.0
H272 H 0.34446 0.64533 0.10154 0.0
H273 H 0.27511 0.54848 0.97673 0.0
H274 H 0.30026 0.5331 0.93707 0.0
H275 H 0.28695 0.57476 0.93033 0.0
C276 C 0.74893 0.84657 0.48304 0.0
C277 C 0.72896 0.85673 0.51437 0.0
C278 C 0.77489 0.86138 0.48353 0.0
C279 C 0.78107 0.88698 0.51619 0.0
C280 C 0.76097 0.89755 0.54773 0.0
C281 C 0.73515 0.88225 0.54649 0.0
C282 C 0.79582 0.84933 0.44948 0.0
C283 C 0.76681 0.9249 0.58289 0.0
C284 C 0.85567 0.90193 0.54598 0.0
C285 C 0.86188 0.92961 0.51754 0.0
C286 C 0.82935 0.88809 0.54636 0.0
C287 C 0.80873 0.9023 0.51765 0.0
C288 C 0.81476 0.93047 0.48926 0.0
C289 C 0.84128 0.94377 0.48951 0.0
C290 C 0.82366 0.85806 0.57718 0.0
C291 C 0.79331 0.94625 0.45809 0.0
H292 H 0.74443 0.82648 0.45865 0.0
H293 H 0.7197 0.89041 0.57046 0.0
H294 H 0.8033 0.87058 0.42789 0.0
H295 H 0.8136 0.83911 0.469 0.0
H296 H 0.7876 0.82963 0.42571 0.0
H297 H 0.74887 0.93049 0.60458 0.0
H298 H 0.78387 0.91747 0.60647 0.0
H299 H 0.7732 0.94814 0.5645 0.0
H300 H 0.87139 0.89119 0.56827 0.0
H301 H 0.84601 0.96491 0.46702 0.0
H302 H 0.81688 0.83659 0.55528 0.0
H303 H 0.80694 0.86365 0.60148 0.0
H304 H 0.84181 0.85042 0.59813 0.0
H305 H 0.78596 0.92786 0.43167 0.0
H306 H 0.80105 0.96881 0.43947 0.0
H307 H 0.77554 0.95345 0.47915 0.0
C308 C 0.75156 0.34636 0.03778 0.0
C309 C 0.7721 0.35584 0.00669 0.0
C310 C 0.72627 0.36225 0.03692 0.0
C311 C 0.72136 0.38828 0.00414 0.0
C312 C 0.74209 0.39827 0.97299 0.0
C313 C 0.76721 0.38189 0.97459 0.0
C314 C 0.70464 0.35078 0.07056 0.0
C315 C 0.73762 0.42605 0.93773 0.0
C316 C 0.64747 0.40508 0.9727 0.0
C317 C 0.64181 0.43255 0.00124 0.0
C318 C 0.67342 0.39082 0.97269 0.0
C319 C 0.69425 0.4044 0.00184 0.0
C320 C 0.68885 0.43253 0.03004 0.0
C321 C 0.66269 0.44626 0.02943 0.0
C322 C 0.67841 0.36088 0.94201 0.0
C323 C 0.71056 0.44767 0.06161 0.0
H324 H 0.75505 0.32592 0.06218 0.0
H325 H 0.78311 0.38955 0.95082 0.0
H326 H 0.69772 0.37219 0.09173 0.0
H327 H 0.68668 0.34109 0.05069 0.0
H328 H 0.71196 0.33082 0.09473 0.0
H329 H 0.75601 0.43134 0.91673 0.0
H330 H 0.72061 0.41925 0.91351 0.0
H331 H 0.73177 0.44931 0.95592 0.0
H332 H 0.63156 0.3947 0.95026 0.0
H333 H 0.65839 0.46726 0.05194 0.0
H334 H 0.6841 0.33905 0.96411 0.0
H335 H 0.69566 0.36612 0.91838 0.0
H336 H 0.66027 0.35397 0.92035 0.0
H337 H 0.7169 0.4291 0.08857 0.0
H338 H 0.70347 0.4705 0.07959 0.0
H339 H 0.72883 0.45424 0.04104 0.0
C340 C 0.06853 0.81098 0.27685 0.0
C341 C 0.06691 0.82356 0.23094 0.0
C342 C 0.0607 0.83058 0.31502 0.0
C343 C 0.0512 0.86349 0.30694 0.0
C344 C 0.04976 0.87635 0.26071 0.0
C345 C 0.05766 0.85627 0.22335 0.0
C346 C 0.06248 0.81608 0.3639 0.0
C347 C 0.03993 0.9114 0.25065 0.0
C348 C 0.00722 0.90793 0.3947 0.0
C349 C 0.02597 0.93025 0.41543 0.0
C350 C 0.01535 0.88524 0.36038 0.0
C351 C 0.04286 0.88484 0.34658 0.0
C352 C 0.06203 0.90664 0.36831 0.0
C353 C 0.05335 0.92911 0.40242 0.0
C354 C 0.99432 0.86239 0.33791 0.0
C355 C 0.09156 0.90691 0.35455 0.0
H356 H 0.07554 0.78566 0.28282 0.0
H357 H 0.05688 0.86637 0.18803 0.0
H358 H 0.07595 0.83196 0.38625 0.0
H359 H 0.04208 0.81591 0.37996 0.0
H360 H 0.07041 0.79015 0.36428 0.0
H361 H 0.03989 0.91752 0.21263 0.0
H362 H 0.01899 0.91438 0.26383 0.0
H363 H 0.0531 0.92987 0.26928 0.0
H364 H 0.98606 0.90853 0.40471 0.0
H365 H 0.06802 0.9461 0.41851 0.0
H366 H 0.00113 0.83603 0.33985 0.0
H367 H 0.99187 0.86893 0.30025 0.0
H368 H 0.97419 0.86418 0.35478 0.0
H369 H 0.09994 0.88128 0.35689 0.0
H370 H 0.1042 0.92376 0.37701 0.0
H371 H 0.09335 0.91531 0.3176 0.0
C372 C 0.53172 0.6661 0.7199 0.0
C373 C 0.5556 0.68568 0.721 0.0
C374 C 0.52463 0.6456 0.75784 0.0
C375 C 0.54128 0.64553 0.79868 0.0
C376 C 0.56433 0.66696 0.80146 0.0
C377 C 0.57144 0.68647 0.76236 0.0
C378 C 0.50006 0.62277 0.75323 0.0
C379 C 0.58211 0.66828 0.84502 0.0
C380 C 0.5103 0.60464 0.90602 0.0
C381 C 0.52258 0.57314 0.90576 0.0
C382 C 0.51695 0.62901 0.8724 0.0
C383 C 0.5356 0.62118 0.83689 0.0
C384 C 0.54803 0.58935 0.83655 0.0
C385 C 0.54167 0.56589 0.87148 0.0
C386 C 0.50398 0.66303 0.87473 0.0
C387 C 0.56748 0.57974 0.79856 0.0
H388 H 0.51884 0.66606 0.68875 0.0
H389 H 0.59 0.70128 0.76369 0.0
H390 H 0.5066 0.59628 0.75511 0.0
H391 H 0.486 0.62683 0.7826 0.0
H392 H 0.48873 0.62667 0.7197 0.0
H393 H 0.59702 0.68933 0.84393 0.0
H394 H 0.56949 0.67091 0.87665 0.0
H395 H 0.59348 0.64456 0.84878 0.0
H396 H 0.49575 0.61036 0.93292 0.0
H397 H 0.55106 0.54146 0.87119 0.0
H398 H 0.49084 0.66712 0.84334 0.0
H399 H 0.5199 0.68291 0.87471 0.0
H400 H 0.49143 0.66589 0.90647 0.0
H401 H 0.55711 0.58143 0.76382 0.0
H402 H 0.5753 0.55394 0.80331 0.0
H403 H 0.58501 0.5974 0.79809 0.0
C404 C 0.93625 0.1879 0.26547 0.0
C405 C 0.93833 0.17591 0.21959 0.0
C406 C 0.9437 0.16785 0.30407 0.0
C407 C 0.95339 0.1351 0.29646 0.0
C408 C 0.95542 0.12286 0.25025 0.0
C409 C 0.94781 0.14336 0.21244 0.0
C410 C 0.94129 0.1817 0.35293 0.0
C411 C 0.96557 0.08802 0.24071 0.0
C412 C 0.99649 0.09109 0.38884 0.0
C413 C 0.97759 0.06878 0.40853 0.0
C414 C 0.98874 0.1134 0.35307 0.0
C415 C 0.96143 0.1134 0.33665 0.0
C416 C 0.94215 0.09139 0.35693 0.0
C417 C 0.95046 0.06931 0.39261 0.0
C418 C 0.00988 0.13647 0.33219 0.0
C419 C 0.91284 0.09071 0.34031 0.0
H420 H 0.9291 0.21311 0.27116 0.0
H421 H 0.94895 0.13369 0.17712 0.0
H422 H 0.92764 0.16545 0.37392 0.0
H423 H 0.9615 0.1818 0.37076 0.0
H424 H 0.93323 0.20757 0.35288 0.0
H425 H 0.9661 0.0824 0.20265 0.0
H426 H 0.98635 0.08503 0.25572 0.0
H427 H 0.95228 0.06921 0.25798 0.0
H428 H 0.01747 0.09095 0.40107 0.0
H429 H 0.9357 0.05228 0.4078 0.0
H430 H 0.00305 0.16281 0.3339 0.0
H431 H 0.01253 0.1304 0.29465 0.0
H432 H 0.02993 0.1345 0.35042 0.0
H433 H 0.90409 0.11613 0.34228 0.0
H434 H 0.90012 0.07325 0.36126 0.0
H435 H 0.9117 0.08292 0.30307 0.0
C436 C 0.45176 0.35696 0.70463 0.0
C437 C 0.44235 0.32413 0.71209 0.0
C438 C 0.45851 0.37793 0.74232 0.0
C439 C 0.45567 0.36586 0.78868 0.0
C440 C 0.44607 0.33281 0.79658 0.0
C441 C 0.43952 0.31231 0.75814 0.0
C442 C 0.46866 0.41305 0.73249 0.0
C443 C 0.44283 0.31912 0.8456 0.0
C444 C 0.49726 0.41072 0.88252 0.0
C445 C 0.47806 0.43251 0.90115 0.0
C446 C 0.4901 0.38842 0.84653 0.0
C447 C 0.46308 0.38786 0.82878 0.0
C448 C 0.44347 0.40936 0.84793 0.0
C449 C 0.45121 0.43148 0.88388 0.0
C450 C 0.51158 0.36592 0.82689 0.0
C451 C 0.41444 0.40938 0.8299 0.0
H452 H 0.45349 0.36649 0.66915 0.0
H453 H 0.43245 0.28689 0.7641 0.0
H454 H 0.45504 0.4315 0.74877 0.0
H455 H 0.48921 0.41671 0.74835 0.0
H456 H 0.46974 0.41856 0.69437 0.0
H457 H 0.43474 0.29306 0.84577 0.0
H458 H 0.46274 0.31955 0.86441 0.0
H459 H 0.42885 0.33514 0.86554 0.0
H460 H 0.51804 0.41127 0.89574 0.0
H461 H 0.43623 0.44812 0.89822 0.0
H462 H 0.5147 0.372 0.78936 0.0
H463 H 0.50479 0.3394 0.82882 0.0
H464 H 0.53138 0.36849 0.84584 0.0
H465 H 0.41391 0.41706 0.79248 0.0
H466 H 0.40142 0.4266 0.8499 0.0
H467 H 0.40561 0.38376 0.83193 0.0
C468 C 0.55446 0.64435 0.30916 0.0
C469 C 0.56314 0.67748 0.30172 0.0
C470 C 0.5476 0.62343 0.27151 0.0
C471 C 0.54957 0.63587 0.22518 0.0
C472 C 0.55855 0.66918 0.21729 0.0
C473 C 0.56527 0.68962 0.25573 0.0
C474 C 0.5382 0.588 0.28134 0.0
C475 C 0.56086 0.68324 0.1683 0.0
C476 C 0.55342 0.57059 0.12953 0.0
C477 C 0.52628 0.5688 0.11381 0.0
C478 C 0.56145 0.59294 0.165 0.0
C479 C 0.54186 0.61394 0.1852 0.0
C480 C 0.51455 0.61268 0.16892 0.0
C481 C 0.50709 0.59014 0.1334 0.0
C482 C 0.59078 0.59362 0.18149 0.0
C483 C 0.49309 0.63466 0.18971 0.0
H484 H 0.5533 0.63461 0.34461 0.0
H485 H 0.57182 0.71526 0.24983 0.0
H486 H 0.51743 0.58397 0.26657 0.0
H487 H 0.55178 0.57001 0.26402 0.0
H488 H 0.53792 0.58218 0.31943 0.0
H489 H 0.56864 0.70944 0.16811 0.0
H490 H 0.57468 0.66761 0.14746 0.0
H491 H 0.54066 0.68258 0.15045 0.0
H492 H 0.56841 0.5543 0.11441 0.0
H493 H 0.48609 0.58904 0.12132 0.0
H494 H 0.5921 0.58569 0.21877 0.0
H495 H 0.59912 0.61947 0.17938 0.0
H496 H 0.60375 0.5769 0.16057 0.0
H497 H 0.49058 0.62833 0.22731 0.0
H498 H 0.47305 0.63179 0.17158 0.0
H499 H 0.4995 0.66132 0.18775 0.0
C500 C 0.96451 0.16207 0.80243 0.0
C501 C 0.94047 0.18074 0.80074 0.0
C502 C 0.97214 0.14222 0.76463 0.0
C503 C 0.95585 0.14183 0.72337 0.0
C504 C 0.93252 0.16223 0.72014 0.0
C505 C 0.92491 0.18115 0.75907 0.0
C506 C 0.99702 0.12052 0.7697 0.0
C507 C 0.91507 0.16315 0.67617 0.0
C508 C 0.98911 0.10432 0.61689 0.0
C509 C 0.97774 0.07201 0.61651 0.0
C510 C 0.98133 0.12786 0.65032 0.0
C511 C 0.9624 0.11843 0.68496 0.0
C512 C 0.95078 0.08585 0.68453 0.0
C513 C 0.9583 0.06318 0.64983 0.0
C514 C 0.99352 0.16267 0.64883 0.0
C515 C 0.93104 0.07458 0.72158 0.0
H516 H 0.97716 0.16234 0.83386 0.0
H517 H 0.90623 0.19528 0.75733 0.0
H518 H 0.99096 0.09376 0.7669 0.0
H519 H 0.01139 0.1259 0.74102 0.0
H520 H 0.00784 0.1243 0.80374 0.0
H521 H 0.89964 0.18324 0.6772 0.0
H522 H 0.9279 0.1671 0.64494 0.0
H523 H 0.90435 0.1388 0.6717 0.0
H524 H 0.00392 0.11128 0.59073 0.0
H525 H 0.94958 0.03815 0.64964 0.0
H526 H 0.00639 0.16697 0.68053 0.0
H527 H 0.97717 0.1816 0.64893 0.0
H528 H 0.00619 0.16682 0.6174 0.0
H529 H 0.941 0.07606 0.75669 0.0
H530 H 0.92366 0.04852 0.71597 0.0
H531 H 0.91324 0.09139 0.72188 0.0
C532 C 0.4584 0.34939 0.30522 0.0
C533 C 0.44829 0.31689 0.29754 0.0
C534 C 0.46537 0.37036 0.26771 0.0
C535 C 0.46203 0.35864 0.22127 0.0
C536 C 0.45207 0.32578 0.21315 0.0
C537 C 0.44529 0.30526 0.25144 0.0
C538 C 0.47586 0.4053 0.27781 0.0
C539 C 0.44832 0.31245 0.16405 0.0
C540 C 0.45502 0.42594 0.12779 0.0
C541 C 0.48157 0.42802 0.11063 0.0
C542 C 0.44821 0.40281 0.16293 0.0
C543 C 0.46843 0.38126 0.18138 0.0
C544 C 0.4951 0.38271 0.16353 0.0
C545 C 0.50136 0.40608 0.12835 0.0
C546 C 0.41953 0.40197 0.18108 0.0
C547 C 0.5172 0.36014 0.18239 0.0
H548 H 0.46029 0.3588 0.34069 0.0
H549 H 0.43769 0.28008 0.24532 0.0
H550 H 0.49595 0.40922 0.26141 0.0
H551 H 0.46179 0.42399 0.26227 0.0
H552 H 0.478 0.41022 0.31597 0.0
H553 H 0.44095 0.28608 0.16373 0.0
H554 H 0.4335 0.32807 0.14432 0.0
H555 H 0.46784 0.31394 0.14514 0.0
H556 H 0.43957 0.44268 0.11414 0.0
H557 H 0.52189 0.40741 0.11515 0.0
H558 H 0.41963 0.40917 0.21858 0.0
H559 H 0.41099 0.37621 0.1788 0.0
H560 H 0.40587 0.41917 0.16136 0.0
H561 H 0.52131 0.36586 0.21985 0.0
H562 H 0.53647 0.36307 0.16292 0.0
H563 H 0.51048 0.33359 0.18047 0.0
C564 C 0.04067 0.84668 0.81412 0.0
C565 C 0.06421 0.82712 0.81281 0.0
C566 C 0.03275 0.86657 0.77582 0.0
C567 C 0.04822 0.86613 0.73449 0.0
C568 C 0.07114 0.84511 0.73183 0.0
C569 C 0.07906 0.82615 0.77121 0.0
C570 C 0.00835 0.88896 0.78024 0.0
C571 C 0.08773 0.84338 0.68786 0.0
C572 C 0.01362 0.90179 0.62568 0.0
C573 C 0.02547 0.93379 0.62324 0.0
C574 C 0.0215 0.87902 0.66081 0.0
C575 C 0.04108 0.88892 0.69499 0.0
C576 C 0.05309 0.92125 0.69265 0.0
C577 C 0.0454 0.94315 0.65636 0.0
C578 C 0.00881 0.84445 0.66146 0.0
C579 C 0.07356 0.93301 0.72913 0.0
H580 H 0.02856 0.84693 0.84552 0.0
H581 H 0.09739 0.8114 0.76977 0.0
H582 H 0.01473 0.91551 0.77599 0.0
H583 H 0.99321 0.88339 0.75208 0.0
H584 H 0.9983 0.88605 0.81463 0.0
H585 H 0.10322 0.82335 0.68981 0.0
H586 H 0.07426 0.83878 0.65695 0.0
H587 H 0.09829 0.86766 0.68201 0.0
H588 H 0.99841 0.8944 0.59973 0.0
H589 H 0.05448 0.96795 0.6546 0.0
H590 H 0.99682 0.84098 0.69375 0.0
H591 H 0.02492 0.82521 0.66201 0.0
H592 H 0.9952 0.83998 0.63065 0.0
H593 H 0.06422 0.93232 0.76429 0.0
H594 H 0.08102 0.95887 0.72216 0.0
H595 H 0.09124 0.91601 0.73033 0.0
loop_
_geom_bond_atom_site_label_1
_geom_bond_atom_site_label_2
_geom_bond_distance
_geom_bond_site_symmetry_2
_ccdc_geom_bond_type
C0 C1 1.384 . S
C0 H13 0.947 . S
C0 C35 1.382 . S
C1 C0 1.384 . S
C1 C2 1.378 . S
C2 C1 1.378 . S
C2 C3 1.378 . S
C2 H14 0.952 . S
C3 C2 1.378 . S
C3 H15 0.950 . S
C3 C34 1.383 . S
H4 C23 0.947 . S
H5 C24 0.946 . S
H6 C26 0.953 . S
H7 C27 0.945 . S
H8 C29 0.952 . S
H9 C30 0.949 . S
H10 C32 0.950 . S
H11 C33 0.948 . S
H12 C35 0.951 . S
H13 C0 0.947 . S
H14 C2 0.952 . S
H15 C3 0.950 . S
N16 C19 1.382 . S
N16 C21 1.363 . S
N17 C19 1.371 1_556 S
N17 C20 1.372 . S
N18 C20 1.361 1_554 S
N18 C21 1.377 . S
C19 N16 1.382 . S
C19 N17 1.371 1_554 S
C19 C22 1.480 . S
C20 N17 1.372 . S
C20 N18 1.361 1_556 S
C20 C28 1.457 . S
C21 N16 1.363 . S
C21 N18 1.377 . S
C21 C34 1.479 . S
C22 C19 1.480 . S
C22 C23 1.383 . S
C22 C27 1.385 1_554 S
C23 H4 0.947 . S
C23 C22 1.383 . S
C23 C24 1.388 . S
C24 H5 0.946 . S
C24 C23 1.388 . S
C24 C25 1.384 . S
C25 C24 1.384 . S
C25 C26 1.377 1_554 S
C26 H6 0.953 . S
C26 C25 1.377 1_556 S
C26 C27 1.369 . S
C27 H7 0.945 . S
C27 C22 1.385 1_556 S
C27 C26 1.369 . S
C28 C20 1.457 . S
C28 C29 1.372 . S
C28 C33 1.364 . S
C29 H8 0.952 . S
C29 C28 1.372 . S
C29 C30 1.389 . S
C30 H9 0.949 . S
C30 C29 1.389 . S
C30 C31 1.387 . S
C31 C30 1.387 . S
C31 C32 1.372 . S
C32 H10 0.950 . S
C32 C31 1.372 . S
C32 C33 1.379 . S
C33 H11 0.948 . S
C33 C28 1.364 . S
C33 C32 1.379 . S
C34 C3 1.383 . S
C34 C21 1.479 . S
C34 C35 1.398 . S
C35 C0 1.382 . S
C35 H12 0.951 . S
C35 C34 1.398 . S
C36 C37 1.384 . S
C36 H49 0.947 . S
C36 C71 1.382 . S
C37 C36 1.384 . S
C37 C38 1.378 . S
C38 C37 1.378 . S
C38 C39 1.378 . S
C38 H50 0.952 . S
C39 C38 1.378 . S
C39 H51 0.950 . S
C39 C70 1.383 . S
H40 C59 0.947 . S
H41 C60 0.946 . S
H42 C62 0.953 . S
H43 C63 0.945 . S
H44 C65 0.952 . S
H45 C66 0.949 . S
H46 C68 0.950 . S
H47 C69 0.948 . S
H48 C71 0.951 . S
H49 C36 0.947 . S
H50 C38 0.952 . S
H51 C39 0.950 . S
N52 C55 1.382 . S
N52 C57 1.363 . S
N53 C55 1.371 . S
N53 C56 1.372 . S
N54 C56 1.361 . S
N54 C57 1.377 . S
C55 N52 1.382 . S
C55 N53 1.371 . S
C55 C58 1.480 . S
C56 N53 1.372 . S
C56 N54 1.361 . S
C56 C64 1.457 . S
C57 N52 1.363 . S
C57 N54 1.377 . S
C57 C70 1.479 . S
C58 C55 1.480 . S
C58 C59 1.383 . S
C58 C63 1.385 . S
C59 H40 0.947 . S
C59 C58 1.383 . S
C59 C60 1.388 . S
C60 H41 0.946 . S
C60 C59 1.388 . S
C60 C61 1.384 . S
C61 C60 1.384 . S
C61 C62 1.377 . S
C62 H42 0.953 . S
C62 C61 1.377 . S
C62 C63 1.369 . S
C63 H43 0.945 . S
C63 C58 1.385 . S
C63 C62 1.369 . S
C64 C56 1.457 . S
C64 C65 1.372 . S
C64 C69 1.364 . S
C65 H44 0.952 . S
C65 C64 1.372 . S
C65 C66 1.389 . S
C66 H45 0.949 . S
C66 C65 1.389 . S
C66 C67 1.387 . S
C67 C66 1.387 . S
C67 C68 1.372 . S
C68 H46 0.950 . S
C68 C67 1.372 . S
C68 C69 1.379 . S
C69 H47 0.948 . S
C69 C64 1.364 . S
C69 C68 1.379 . S
C70 C39 1.383 . S
C70 C57 1.479 . S
C70 C71 1.398 . S
C71 C36 1.382 . S
C71 H48 0.951 . S
C71 C70 1.398 . S
C72 C73 1.384 . S
C72 H85 0.947 . S
C72 C107 1.382 . S
C73 C72 1.384 . S
C73 C74 1.378 . S
C74 C73 1.378 . S
C74 C75 1.378 . S
C74 H86 0.952 . S
C75 C74 1.378 . S
C75 H87 0.950 . S
C75 C106 1.383 . S
H76 C95 0.947 . S
H77 C96 0.946 . S
H78 C98 0.953 . S
H79 C99 0.945 . S
H80 C101 0.952 . S
H81 C102 0.949 . S
H82 C104 0.950 . S
H83 C105 0.948 . S
H84 C107 0.951 . S
H85 C72 0.947 . S
H86 C74 0.952 . S
H87 C75 0.950 . S
N88 C91 1.382 1_556 S
N88 C93 1.363 . S
N89 C91 1.371 . S
N89 C92 1.372 . S
N90 C92 1.361 . S
N90 C93 1.377 1_554 S
C91 N88 1.382 1_554 S
C91 N89 1.371 . S
C91 C94 1.480 . S
C92 N89 1.372 . S
C92 N90 1.361 . S
C92 C100 1.457 . S
C93 N88 1.363 . S
C93 N90 1.377 1_556 S
C93 C106 1.479 . S
C94 C91 1.480 . S
C94 C95 1.383 1_554 S
C94 C99 1.385 . S
C95 H76 0.947 . S
C95 C94 1.383 1_556 S
C95 C96 1.388 . S
C96 H77 0.946 . S
C96 C95 1.388 . S
C96 C97 1.384 1_556 S
C97 C96 1.384 1_554 S
C97 C98 1.377 . S
C98 H78 0.953 . S
C98 C97 1.377 . S
C98 C99 1.369 . S
C99 H79 0.945 . S
C99 C94 1.385 . S
C99 C98 1.369 . S
C100 C92 1.457 . S
C100 C101 1.372 . S
C100 C105 1.364 . S
C101 H80 0.952 . S
C101 C100 1.372 . S
C101 C102 1.389 . S
C102 H81 0.949 . S
C102 C101 1.389 . S
C102 C103 1.387 . S
C103 C102 1.387 . S
C103 C104 1.372 . S
C104 H82 0.950 . S
C104 C103 1.372 . S
C104 C105 1.379 . S
C105 H83 0.948 . S
C105 C100 1.364 . S
C105 C104 1.379 . S
C106 C75 1.383 . S
C106 C93 1.479 . S
C106 C107 1.398 . S
C107 C72 1.382 . S
C107 H84 0.951 . S
C107 C106 1.398 . S
C108 C109 1.384 . S
C108 H121 0.947 . S
C108 C143 1.382 . S
C109 C108 1.384 . S
C109 C110 1.378 . S
C110 C109 1.378 . S
C110 C111 1.378 . S
C110 H122 0.952 . S
C111 C110 1.378 . S
C111 H123 0.950 . S
C111 C142 1.383 . S
H112 C131 0.947 . S
H113 C132 0.946 . S
H114 C134 0.953 . S
H115 C135 0.945 . S
H116 C137 0.952 . S
H117 C138 0.949 . S
H118 C140 0.950 . S
H119 C141 0.948 . S
H120 C143 0.951 . S
H121 C108 0.947 . S
H122 C110 0.952 . S
H123 C111 0.950 . S
N124 C127 1.382 . S
N124 C129 1.363 . S
N125 C127 1.371 . S
N125 C128 1.372 . S
N126 C128 1.361 . S
N126 C129 1.377 . S
C127 N124 1.382 . S
C127 N125 1.371 . S
C127 C130 1.480 . S
C128 N125 1.372 . S
C128 N126 1.361 . S
C128 C136 1.457 . S
C129 N124 1.363 . S
C129 N126 1.377 . S
C129 C142 1.479 . S
C130 C127 1.480 . S
C130 C131 1.383 . S
C130 C135 1.385 . S
C131 H112 0.947 . S
C131 C130 1.383 . S
C131 C132 1.388 . S
C132 H113 0.946 . S
C132 C131 1.388 . S
C132 C133 1.384 . S
C133 C132 1.384 . S
C133 C134 1.377 . S
C134 H114 0.953 . S
C134 C133 1.377 . S
C134 C135 1.369 . S
C135 H115 0.945 . S
C135 C130 1.385 . S
C135 C134 1.369 . S
C136 C128 1.457 . S
C136 C137 1.372 . S
C136 C141 1.364 . S
C137 H116 0.952 . S
C137 C136 1.372 . S
C137 C138 1.389 . S
C138 H117 0.949 . S
C138 C137 1.389 . S
C138 C139 1.387 . S
C139 C138 1.387 . S
C139 C140 1.372 . S
C140 H118 0.950 . S
C140 C139 1.372 . S
C140 C141 1.379 . S
C141 H119 0.948 . S
C141 C136 1.364 . S
C141 C140 1.379 . S
C142 C111 1.383 . S
C142 C129 1.479 . S
C142 C143 1.398 . S
C143 C108 1.382 . S
C143 H120 0.951 . S
C143 C142 1.398 . S
C144 O160 1.251 . S
C144 O162 1.254 1_455 S
N145 C146 1.333 . S
N145 C150 1.307 . S
N145 Zn151 2.020 . S
C146 N145 1.333 . S
C146 C147 1.379 . S
C146 H164 0.952 . S
C147 C146 1.379 . S
C147 C148 1.390 . S
C147 H174 0.949 . S
C148 C147 1.390 . S
C148 C149 1.357 . S
C149 C148 1.357 . S
C149 C150 1.370 . S
C149 H175 0.950 . S
C150 N145 1.307 . S
C150 C149 1.370 . S
C150 H168 0.948 . S
Zn151 N145 2.020 . S
Zn151 O160 2.039 1_545 S
Zn151 O166 2.034 1_545 S
Zn151 O170 2.025 . S
Zn151 O172 2.024 . S
C152 O171 1.246 . S
C152 O172 1.249 1_655 S
N153 C154 1.307 . S
N153 C155 1.333 . S
N153 Zn159 2.020 . S
C154 N153 1.307 . S
C154 C158 1.370 . S
C154 H165 0.948 . S
C155 N153 1.333 . S
C155 C156 1.379 . S
C155 H163 0.978 . S
C156 C155 1.379 . S
C156 C157 1.390 . S
C156 H176 0.949 . S
C157 C156 1.390 . S
C157 C158 1.357 . S
C158 C154 1.370 . S
C158 C157 1.357 . S
C158 H177 0.950 . S
Zn159 N153 2.020 . S
Zn159 O162 2.025 . S
Zn159 O167 2.024 . S
Zn159 O169 2.039 1_565 S
Zn159 O171 2.034 1_565 S
O160 C144 1.251 . S
O160 Zn151 2.039 1_565 S
C161 O166 1.246 . S
C161 O167 1.249 1_455 S
O162 C144 1.254 1_655 S
O162 Zn159 2.025 . S
H163 C155 0.978 . S
H164 C146 0.952 . S
H165 C154 0.948 . S
O166 Zn151 2.034 1_565 S
O166 C161 1.246 . S
O167 Zn159 2.024 . S
O167 C161 1.249 1_655 S
H168 C150 0.948 . S
O169 Zn159 2.039 1_545 S
O169 C173 1.251 . S
O170 Zn151 2.025 . S
O170 C173 1.254 1_455 S
O171 C152 1.246 . S
O171 Zn159 2.034 1_545 S
O172 Zn151 2.024 . S
O172 C152 1.249 1_455 S
C173 O169 1.251 . S
C173 O170 1.254 1_655 S
H174 C147 0.949 . S
H175 C149 0.950 . S
H176 C156 0.949 . S
H177 C158 0.950 . S
C178 O194 1.251 . S
C178 O196 1.254 . S
N179 C180 1.340 . S
N179 C184 1.307 . S
N179 Zn185 2.020 . S
C180 N179 1.340 . S
C180 C181 1.379 1_554 S
C180 H198 0.945 1_554 S
C181 C180 1.379 1_556 S
C181 C182 1.387 1_556 S
C181 H208 0.952 . S
C182 C181 1.387 1_554 S
C182 C183 1.357 . S
C183 C182 1.357 . S
C183 C184 1.370 . S
C183 H209 0.950 . S
C184 N179 1.307 . S
C184 C183 1.370 . S
C184 H202 0.948 . S
Zn185 N179 2.020 . S
Zn185 O194 2.039 1_554 S
Zn185 O200 2.034 . S
Zn185 O204 2.025 . S
Zn185 O206 2.024 1_554 S
C186 O205 1.246 . S
C186 O206 1.249 . S
N187 C188 1.307 . S
N187 C189 1.333 . S
N187 Zn193 2.020 . S
C188 N187 1.307 . S
C188 C192 1.370 . S
C188 H199 0.948 1_554 S
C189 N187 1.333 . S
C189 C190 1.379 . S
C189 H197 0.952 . S
C190 C189 1.379 . S
C190 C191 1.390 . S
C190 H210 0.949 . S
C191 C190 1.390 . S
C191 C192 1.357 . S
C192 C188 1.370 . S
C192 C191 1.357 . S
C192 H211 0.950 1_554 S
Zn193 N187 2.020 . S
Zn193 O196 2.025 1_554 S
Zn193 O201 2.024 . S
Zn193 O203 2.039 . S
Zn193 O205 2.034 1_554 S
O194 C178 1.251 . S
O194 Zn185 2.039 1_556 S
C195 O200 1.246 . S
C195 O201 1.249 . S
O196 C178 1.254 . S
O196 Zn193 2.025 1_556 S
H197 C189 0.952 . S
H198 C180 0.945 1_556 S
H199 C188 0.948 1_556 S
O200 Zn185 2.034 . S
O200 C195 1.246 . S
O201 Zn193 2.024 . S
O201 C195 1.249 . S
H202 C184 0.948 . S
O203 Zn193 2.039 . S
O203 C207 1.251 . S
O204 Zn185 2.025 . S
O204 C207 1.254 . S
O205 C186 1.246 . S
O205 Zn193 2.034 1_556 S
O206 Zn185 2.024 1_556 S
O206 C186 1.249 . S
C207 O203 1.251 . S
C207 O204 1.254 . S
H208 C181 0.952 . S
H209 C183 0.950 . S
H210 C190 0.949 . S
H211 C192 0.950 1_556 S
C212 C213 1.391 . S
C212 C214 1.394 . S
C212 H228 0.931 . S
C213 C212 1.391 . S
C213 C217 1.376 . S
C214 C212 1.394 . S
C214 C215 1.369 . S
C214 C218 1.531 . S
C215 C214 1.369 . S
C215 C216 1.410 . S
C215 C223 1.503 . S
C216 C215 1.410 . S
C216 C217 1.392 . S
C216 C219 1.511 . S
C217 C213 1.376 . S
C217 C216 1.392 . S
C217 H229 0.929 . S
C218 C214 1.531 . S
C218 H230 0.960 . S
C218 H231 0.962 . S
C218 H232 0.960 . S
C219 C216 1.511 . S
C219 H233 0.961 . S
C219 H234 0.961 . S
C219 H235 0.961 . S
C220 C221 1.370 . S
C220 C222 1.363 . S
C220 H236 0.931 . S
C221 C220 1.370 . S
C221 C225 1.408 . S
C222 C220 1.363 . S
C222 C223 1.370 . S
C222 C226 1.524 . S
C223 C215 1.503 . S
C223 C222 1.370 . S
C223 C224 1.403 . S
C224 C223 1.403 . S
C224 C225 1.404 . S
C224 C227 1.539 . S
C225 C221 1.408 . S
C225 C224 1.404 . S
C225 H237 0.930 . S
C226 C222 1.524 . S
C226 H238 0.956 . S
C226 H239 0.961 . S
C226 H240 0.961 . S
C227 C224 1.539 . S
C227 H241 0.958 . S
C227 H242 0.961 . S
C227 H243 0.960 . S
H228 C212 0.931 . S
H229 C217 0.929 . S
H230 C218 0.960 . S
H231 C218 0.962 . S
H232 C218 0.960 . S
H233 C219 0.961 . S
H234 C219 0.961 . S
H235 C219 0.961 . S
H236 C220 0.931 . S
H237 C225 0.930 . S
H238 C226 0.956 . S
H239 C226 0.961 . S
H240 C226 0.961 . S
H241 C227 0.958 . S
H242 C227 0.961 . S
H243 C227 0.960 . S
C244 C245 1.391 . S
C244 C246 1.394 . S
C244 H260 0.931 . S
C245 C244 1.391 . S
C245 C249 1.376 1_554 S
C246 C244 1.394 . S
C246 C247 1.369 . S
C246 C250 1.531 . S
C247 C246 1.369 . S
C247 C248 1.410 1_554 S
C247 C255 1.503 . S
C248 C247 1.410 1_556 S
C248 C249 1.392 . S
C248 C251 1.511 . S
C249 C245 1.376 1_556 S
C249 C248 1.392 . S
C249 H261 0.929 . S
C250 C246 1.531 . S
C250 H262 0.960 . S
C250 H263 0.962 . S
C250 H264 0.960 . S
C251 C248 1.511 . S
C251 H265 0.961 . S
C251 H266 0.961 . S
C251 H267 0.961 . S
C252 C253 1.370 . S
C252 C254 1.363 . S
C252 H268 0.931 . S
C253 C252 1.370 . S
C253 C257 1.408 1_554 S
C254 C252 1.363 . S
C254 C255 1.370 . S
C254 C258 1.524 . S
C255 C247 1.503 . S
C255 C254 1.370 . S
C255 C256 1.403 1_554 S
C256 C255 1.403 1_556 S
C256 C257 1.404 . S
C256 C259 1.539 . S
C257 C253 1.408 1_556 S
C257 C256 1.404 . S
C257 H269 0.930 . S
C258 C254 1.524 . S
C258 H270 0.956 . S
C258 H271 0.961 . S
C258 H272 0.961 . S
C259 C256 1.539 . S
C259 H273 0.958 . S
C259 H274 0.961 . S
C259 H275 0.960 . S
H260 C244 0.931 . S
H261 C249 0.929 . S
H262 C250 0.960 . S
H263 C250 0.962 . S
H264 C250 0.960 . S
H265 C251 0.961 . S
H266 C251 0.961 . S
H267 C251 0.961 . S
H268 C252 0.931 . S
H269 C257 0.930 . S
H270 C258 0.956 . S
H271 C258 0.961 . S
H272 C258 0.961 . S
H273 C259 0.958 . S
H274 C259 0.961 . S
H275 C259 0.960 . S
C276 C277 1.391 . S
C276 C278 1.394 . S
C276 H292 0.931 . S
C277 C276 1.391 . S
C277 C281 1.376 . S
C278 C276 1.394 . S
C278 C279 1.369 . S
C278 C282 1.531 . S
C279 C278 1.369 . S
C279 C280 1.410 . S
C279 C287 1.503 . S
C280 C279 1.410 . S
C280 C281 1.392 . S
C280 C283 1.511 . S
C281 C277 1.376 . S
C281 C280 1.392 . S
C281 H293 0.929 . S
C282 C278 1.531 . S
C282 H294 0.960 . S
C282 H295 0.962 . S
C282 H296 0.960 . S
C283 C280 1.511 . S
C283 H297 0.961 . S
C283 H298 0.961 . S
C283 H299 0.961 . S
C284 C285 1.370 . S
C284 C286 1.363 . S
C284 H300 0.931 . S
C285 C284 1.370 . S
C285 C289 1.408 . S
C286 C284 1.363 . S
C286 C287 1.370 . S
C286 C290 1.524 . S
C287 C279 1.503 . S
C287 C286 1.370 . S
C287 C288 1.403 . S
C288 C287 1.403 . S
C288 C289 1.404 . S
C288 C291 1.539 . S
C289 C285 1.408 . S
C289 C288 1.404 . S
C289 H301 0.930 . S
C290 C286 1.524 . S
C290 H302 0.956 . S
C290 H303 0.961 . S
C290 H304 0.961 . S
C291 C288 1.539 . S
C291 H305 0.958 . S
C291 H306 0.961 . S
C291 H307 0.960 . S
H292 C276 0.931 . S
H293 C281 0.929 . S
H294 C282 0.960 . S
H295 C282 0.962 . S
H296 C282 0.960 . S
H297 C283 0.961 . S
H298 C283 0.961 . S
H299 C283 0.961 . S
H300 C284 0.931 . S
H301 C289 0.930 . S
H302 C290 0.956 . S
H303 C290 0.961 . S
H304 C290 0.961 . S
H305 C291 0.958 . S
H306 C291 0.961 . S
H307 C291 0.960 . S
C308 C309 1.391 . S
C308 C310 1.394 . S
C308 H324 0.931 . S
C309 C308 1.391 . S
C309 C313 1.376 . S
C310 C308 1.394 . S
C310 C311 1.369 . S
C310 C314 1.531 . S
C311 C310 1.369 . S
C311 C312 1.410 . S
C311 C319 1.503 . S
C312 C311 1.410 . S
C312 C313 1.392 . S
C312 C315 1.511 . S
C313 C309 1.376 . S
C313 C312 1.392 . S
C313 H325 0.932 . S
C314 C310 1.531 . S
C314 H326 0.960 . S
C314 H327 0.962 . S
C314 H328 0.960 . S
C315 C312 1.511 . S
C315 H329 0.961 1_554 S
C315 H330 0.961 1_554 S
C315 H331 0.961 . S
C316 C317 1.370 1_556 S
C316 C318 1.363 . S
C316 H332 0.931 . S
C317 C316 1.370 1_554 S
C317 C321 1.408 . S
C318 C316 1.363 . S
C318 C319 1.370 1_556 S
C318 C322 1.524 . S
C319 C311 1.503 . S
C319 C318 1.370 1_554 S
C319 C320 1.403 . S
C320 C319 1.403 . S
C320 C321 1.404 . S
C320 C323 1.539 . S
C321 C317 1.408 . S
C321 C320 1.404 . S
C321 H333 0.930 . S
C322 C318 1.524 . S
C322 H334 0.956 . S
C322 H335 0.961 . S
C322 H336 0.961 . S
C323 C320 1.539 . S
C323 H337 0.958 . S
C323 H338 0.961 . S
C323 H339 0.960 . S
H324 C308 0.931 . S
H325 C313 0.932 . S
H326 C314 0.960 . S
H327 C314 0.962 . S
H328 C314 0.960 . S
H329 C315 0.961 1_556 S
H330 C315 0.961 1_556 S
H331 C315 0.961 . S
H332 C316 0.931 . S
H333 C321 0.930 . S
H334 C322 0.956 . S
H335 C322 0.961 . S
H336 C322 0.961 . S
H337 C323 0.958 . S
H338 C323 0.961 . S
H339 C323 0.960 . S
C340 C341 1.391 . S
C340 C342 1.394 . S
C340 H356 0.931 . S
C341 C340 1.391 . S
C341 C345 1.376 . S
C342 C340 1.394 . S
C342 C343 1.369 . S
C342 C346 1.531 . S
C343 C342 1.369 . S
C343 C344 1.410 . S
C343 C351 1.503 . S
C344 C343 1.410 . S
C344 C345 1.392 . S
C344 C347 1.511 . S
C345 C341 1.376 . S
C345 C344 1.392 . S
C345 H357 0.929 . S
C346 C342 1.531 . S
C346 H358 0.960 . S
C346 H359 0.962 1_455 S
C346 H360 0.963 . S
C347 C344 1.511 . S
C347 H361 0.961 . S
C347 H362 0.961 . S
C347 H363 0.961 . S
C348 C349 1.370 . S
C348 C350 1.363 . S
C348 H364 0.931 . S
C349 C348 1.370 . S
C349 C353 1.408 . S
C350 C348 1.363 . S
C350 C351 1.370 . S
C350 C354 1.524 . S
C351 C343 1.503 . S
C351 C350 1.370 . S
C351 C352 1.403 . S
C352 C351 1.403 . S
C352 C353 1.404 . S
C352 C355 1.539 . S
C353 C349 1.408 . S
C353 C352 1.404 . S
C353 H365 0.930 . S
C354 C350 1.524 . S
C354 H366 0.956 . S
C354 H367 0.961 . S
C354 H368 0.961 . S
C355 C352 1.539 . S
C355 H369 0.958 . S
C355 H370 0.961 . S
C355 H371 0.960 . S
H356 C340 0.931 . S
H357 C345 0.929 . S
H358 C346 0.960 . S
H359 C346 0.962 1_655 S
H360 C346 0.963 . S
H361 C347 0.961 . S
H362 C347 0.961 . S
H363 C347 0.961 . S
H364 C348 0.931 . S
H365 C353 0.930 . S
H366 C354 0.956 . S
H367 C354 0.961 . S
H368 C354 0.961 . S
H369 C355 0.958 . S
H370 C355 0.961 . S
H371 C355 0.960 . S
C372 C373 1.391 . S
C372 C374 1.394 . S
C372 H388 0.931 . S
C373 C372 1.391 . S
C373 C377 1.376 . S
C374 C372 1.394 . S
C374 C375 1.369 . S
C374 C378 1.531 . S
C375 C374 1.369 . S
C375 C376 1.410 . S
C375 C383 1.503 . S
C376 C375 1.410 . S
C376 C377 1.392 . S
C376 C379 1.511 . S
C377 C373 1.376 . S
C377 C376 1.392 . S
C377 H389 0.929 . S
C378 C374 1.531 . S
C378 H390 0.960 . S
C378 H391 0.962 . S
C378 H392 0.960 . S
C379 C376 1.511 . S
C379 H393 0.961 . S
C379 H394 0.961 . S
C379 H395 0.961 . S
C380 C381 1.370 . S
C380 C382 1.363 . S
C380 H396 0.931 . S
C381 C380 1.370 . S
C381 C385 1.408 . S
C382 C380 1.363 . S
C382 C383 1.370 . S
C382 C386 1.524 . S
C383 C375 1.503 . S
C383 C382 1.370 . S
C383 C384 1.403 . S
C384 C383 1.403 . S
C384 C385 1.404 . S
C384 C387 1.539 . S
C385 C381 1.408 . S
C385 C384 1.404 . S
C385 H397 0.930 . S
C386 C382 1.524 . S
C386 H398 0.956 . S
C386 H399 0.961 . S
C386 H400 0.961 . S
C387 C384 1.539 . S
C387 H401 0.958 . S
C387 H402 0.961 . S
C387 H403 0.960 . S
H388 C372 0.931 . S
H389 C377 0.929 . S
H390 C378 0.960 . S
H391 C378 0.962 . S
H392 C378 0.960 . S
H393 C379 0.961 . S
H394 C379 0.961 . S
H395 C379 0.961 . S
H396 C380 0.931 . S
H397 C385 0.930 . S
H398 C386 0.956 . S
H399 C386 0.961 . S
H400 C386 0.961 . S
H401 C387 0.958 . S
H402 C387 0.961 . S
H403 C387 0.960 . S
C404 C405 1.391 . S
C404 C406 1.394 . S
C404 H420 0.931 . S
C405 C404 1.391 . S
C405 C409 1.376 . S
C406 C404 1.394 . S
C406 C407 1.369 . S
C406 C410 1.531 . S
C407 C406 1.369 . S
C407 C408 1.410 . S
C407 C415 1.503 . S
C408 C407 1.410 . S
C408 C409 1.392 . S
C408 C411 1.511 . S
C409 C405 1.376 . S
C409 C408 1.392 . S
C409 H421 0.929 . S
C410 C406 1.531 . S
C410 H422 0.960 . S
C410 H423 0.962 . S
C410 H424 0.960 . S
C411 C408 1.511 . S
C411 H425 0.961 . S
C411 H426 0.961 . S
C411 H427 0.961 . S
C412 C413 1.370 . S
C412 C414 1.363 . S
C412 H428 0.931 1_655 S
C413 C412 1.370 . S
C413 C417 1.408 . S
C414 C412 1.363 . S
C414 C415 1.370 . S
C414 C418 1.524 1_655 S
C415 C407 1.503 . S
C415 C414 1.370 . S
C415 C416 1.403 . S
C416 C415 1.403 . S
C416 C417 1.404 . S
C416 C419 1.539 . S
C417 C413 1.408 . S
C417 C416 1.404 . S
C417 H429 0.930 . S
C418 C414 1.524 1_455 S
C418 H430 0.956 . S
C418 H431 0.961 1_455 S
C418 H432 0.961 . S
C419 C416 1.539 . S
C419 H433 0.958 . S
C419 H434 0.961 . S
C419 H435 0.960 . S
H420 C404 0.931 . S
H421 C409 0.929 . S
H422 C410 0.960 . S
H423 C410 0.962 . S
H424 C410 0.960 . S
H425 C411 0.961 . S
H426 C411 0.961 . S
H427 C411 0.961 . S
H428 C412 0.931 1_455 S
H429 C417 0.930 . S
H430 C418 0.956 . S
H431 C418 0.961 1_655 S
H432 C418 0.961 . S
H433 C419 0.958 . S
H434 C419 0.961 . S
H435 C419 0.960 . S
C436 C437 1.391 . S
C436 C438 1.394 . S
C436 H452 0.931 . S
C437 C436 1.391 . S
C437 C441 1.376 . S
C438 C436 1.394 . S
C438 C439 1.369 . S
C438 C442 1.531 . S
C439 C438 1.369 . S
C439 C440 1.410 . S
C439 C447 1.503 . S
C440 C439 1.410 . S
C440 C441 1.392 . S
C440 C443 1.511 . S
C441 C437 1.376 . S
C441 C440 1.392 . S
C441 H453 0.929 . S
C442 C438 1.531 . S
C442 H454 0.960 . S
C442 H455 0.962 . S
C442 H456 0.960 . S
C443 C440 1.511 . S
C443 H457 0.961 . S
C443 H458 0.961 . S
C443 H459 0.961 . S
C444 C445 1.370 . S
C444 C446 1.363 . S
C444 H460 0.931 . S
C445 C444 1.370 . S
C445 C449 1.408 . S
C446 C444 1.363 . S
C446 C447 1.370 . S
C446 C450 1.524 . S
C447 C439 1.503 . S
C447 C446 1.370 . S
C447 C448 1.403 . S
C448 C447 1.403 . S
C448 C449 1.404 . S
C448 C451 1.539 . S
C449 C445 1.408 . S
C449 C448 1.404 . S
C449 H461 0.930 . S
C450 C446 1.524 . S
C450 H462 0.956 . S
C450 H463 0.961 . S
C450 H464 0.961 . S
C451 C448 1.539 . S
C451 H465 0.958 . S
C451 H466 0.961 . S
C451 H467 0.960 . S
H452 C436 0.931 . S
H453 C441 0.929 . S
H454 C442 0.960 . S
H455 C442 0.962 . S
H456 C442 0.960 . S
H457 C443 0.961 . S
H458 C443 0.961 . S
H459 C443 0.961 . S
H460 C444 0.931 . S
H461 C449 0.930 . S
H462 C450 0.956 . S
H463 C450 0.961 . S
H464 C450 0.961 . S
H465 C451 0.958 . S
H466 C451 0.961 . S
H467 C451 0.960 . S
C468 C469 1.391 . S
C468 C470 1.394 . S
C468 H484 0.931 . S
C469 C468 1.391 . S
C469 C473 1.376 . S
C470 C468 1.394 . S
C470 C471 1.369 . S
C470 C474 1.531 . S
C471 C470 1.369 . S
C471 C472 1.410 . S
C471 C479 1.503 . S
C472 C471 1.410 . S
C472 C473 1.392 . S
C472 C475 1.511 . S
C473 C469 1.376 . S
C473 C472 1.392 . S
C473 H485 0.929 . S
C474 C470 1.531 . S
C474 H486 0.960 . S
C474 H487 0.962 . S
C474 H488 0.960 . S
C475 C472 1.511 . S
C475 H489 0.961 . S
C475 H490 0.961 . S
C475 H491 0.961 . S
C476 C477 1.370 . S
C476 C478 1.363 . S
C476 H492 0.931 . S
C477 C476 1.370 . S
C477 C481 1.408 . S
C478 C476 1.363 . S
C478 C479 1.370 . S
C478 C482 1.524 . S
C479 C471 1.503 . S
C479 C478 1.370 . S
C479 C480 1.403 . S
C480 C479 1.403 . S
C480 C481 1.404 . S
C480 C483 1.539 . S
C481 C477 1.408 . S
C481 C480 1.404 . S
C481 H493 0.930 . S
C482 C478 1.524 . S
C482 H494 0.956 . S
C482 H495 0.961 . S
C482 H496 0.961 . S
C483 C480 1.539 . S
C483 H497 0.958 . S
C483 H498 0.961 . S
C483 H499 0.960 . S
H484 C468 0.931 . S
H485 C473 0.929 . S
H486 C474 0.960 . S
H487 C474 0.962 . S
H488 C474 0.960 . S
H489 C475 0.961 . S
H490 C475 0.961 . S
H491 C475 0.961 . S
H492 C476 0.931 . S
H493 C481 0.930 . S
H494 C482 0.956 . S
H495 C482 0.961 . S
H496 C482 0.961 . S
H497 C483 0.958 . S
H498 C483 0.961 . S
H499 C483 0.960 . S
C500 C501 1.391 . S
C500 C502 1.394 . S
C500 H516 0.931 . S
C501 C500 1.391 . S
C501 C505 1.376 . S
C502 C500 1.394 . S
C502 C503 1.369 . S
C502 C506 1.531 1_655 S
C503 C502 1.369 . S
C503 C504 1.410 . S
C503 C511 1.503 . S
C504 C503 1.410 . S
C504 C505 1.392 . S
C504 C507 1.511 . S
C505 C501 1.376 . S
C505 C504 1.392 . S
C505 H517 0.929 . S
C506 C502 1.531 1_455 S
C506 H518 0.960 . S
C506 H519 0.962 . S
C506 H520 0.960 . S
C507 C504 1.511 . S
C507 H521 0.961 . S
C507 H522 0.961 . S
C507 H523 0.961 . S
C508 C509 1.370 . S
C508 C510 1.363 . S
C508 H524 0.931 . S
C509 C508 1.370 . S
C509 C513 1.408 . S
C510 C508 1.363 . S
C510 C511 1.370 . S
C510 C514 1.524 . S
C511 C503 1.503 . S
C511 C510 1.370 . S
C511 C512 1.403 . S
C512 C511 1.403 . S
C512 C513 1.404 . S
C512 C515 1.539 . S
C513 C509 1.408 . S
C513 C512 1.404 . S
C513 H525 0.930 . S
C514 C510 1.524 . S
C514 H526 0.956 . S
C514 H527 0.961 . S
C514 H528 0.961 . S
C515 C512 1.539 . S
C515 H529 0.958 . S
C515 H530 0.961 . S
C515 H531 0.960 . S
H516 C500 0.931 . S
H517 C505 0.929 . S
H518 C506 0.960 . S
H519 C506 0.962 . S
H520 C506 0.960 . S
H521 C507 0.961 . S
H522 C507 0.961 . S
H523 C507 0.961 . S
H524 C508 0.931 . S
H525 C513 0.930 . S
H526 C514 0.956 . S
H527 C514 0.961 . S
H528 C514 0.961 . S
H529 C515 0.958 . S
H530 C515 0.961 . S
H531 C515 0.960 . S
C532 C533 1.391 . S
C532 C534 1.394 . S
C532 H548 0.931 . S
C533 C532 1.391 . S
C533 C537 1.376 . S
C534 C532 1.394 . S
C534 C535 1.369 . S
C534 C538 1.531 . S
C535 C534 1.369 . S
C535 C536 1.410 . S
C535 C543 1.503 . S
C536 C535 1.410 . S
C536 C537 1.392 . S
C536 C539 1.511 . S
C537 C533 1.376 . S
C537 C536 1.392 . S
C537 H549 0.929 . S
C538 C534 1.531 . S
C538 H550 0.960 . S
C538 H551 0.962 . S
C538 H552 0.960 . S
C539 C536 1.511 . S
C539 H553 0.961 . S
C539 H554 0.961 . S
C539 H555 0.961 . S
C540 C541 1.370 . S
C540 C542 1.363 . S
C540 H556 0.931 . S
C541 C540 1.370 . S
C541 C545 1.408 . S
C542 C540 1.363 . S
C542 C543 1.370 . S
C542 C546 1.524 . S
C543 C535 1.503 . S
C543 C542 1.370 . S
C543 C544 1.403 . S
C544 C543 1.403 . S
C544 C545 1.404 . S
C544 C547 1.539 . S
C545 C541 1.408 . S
C545 C544 1.404 . S
C545 H557 0.930 . S
C546 C542 1.524 . S
C546 H558 0.956 . S
C546 H559 0.961 . S
C546 H560 0.961 . S
C547 C544 1.539 . S
C547 H561 0.958 . S
C547 H562 0.961 . S
C547 H563 0.960 . S
H548 C532 0.931 . S
H549 C537 0.929 . S
H550 C538 0.960 . S
H551 C538 0.962 . S
H552 C538 0.960 . S
H553 C539 0.961 . S
H554 C539 0.961 . S
H555 C539 0.961 . S
H556 C540 0.931 . S
H557 C545 0.930 . S
H558 C546 0.956 . S
H559 C546 0.961 . S
H560 C546 0.961 . S
H561 C547 0.958 . S
H562 C547 0.961 . S
H563 C547 0.960 . S
C564 C565 1.391 . S
C564 C566 1.394 . S
C564 H580 0.931 . S
C565 C564 1.391 . S
C565 C569 1.376 . S
C566 C564 1.394 . S
C566 C567 1.369 . S
C566 C570 1.531 . S
C567 C566 1.369 . S
C567 C568 1.410 . S
C567 C575 1.503 . S
C568 C567 1.410 . S
C568 C569 1.392 . S
C568 C571 1.511 . S
C569 C565 1.376 . S
C569 C568 1.392 . S
C569 H581 0.929 . S
C570 C566 1.531 . S
C570 H582 0.960 . S
C570 H583 0.962 . S
C570 H584 0.960 . S
C571 C568 1.511 . S
C571 H585 0.961 . S
C571 H586 0.961 . S
C571 H587 0.961 . S
C572 C573 1.370 . S
C572 C574 1.363 . S
C572 H588 0.931 1_455 S
C573 C572 1.370 . S
C573 C577 1.408 . S
C574 C572 1.363 . S
C574 C575 1.370 . S
C574 C578 1.524 . S
C575 C567 1.503 . S
C575 C574 1.370 . S
C575 C576 1.403 . S
C576 C575 1.403 . S
C576 C577 1.404 . S
C576 C579 1.539 . S
C577 C573 1.408 . S
C577 C576 1.404 . S
C577 H589 0.930 . S
C578 C574 1.524 . S
C578 H590 0.956 1_455 S
C578 H591 0.961 . S
C578 H592 0.961 1_455 S
C579 C576 1.539 . S
C579 H593 0.958 . S
C579 H594 0.961 . S
C579 H595 0.960 . S
H580 C564 0.931 . S
H581 C569 0.929 . S
H582 C570 0.960 . S
H583 C570 0.962 . S
H584 C570 0.960 . S
H585 C571 0.961 . S
H586 C571 0.961 . S
H587 C571 0.961 . S
H588 C572 0.931 1_655 S
H589 C577 0.930 . S
H590 C578 0.956 1_655 S
H591 C578 0.961 . S
H592 C578 0.961 1_655 S
H593 C579 0.958 . S
H594 C579 0.961 . S
H595 C579 0.960 . S
C221 C148 1.647 . S
C213 C133 1.647 . S
C245 C25 1.546 . S
C253 C191 1.567 . S
C277 C61 1.610 . S
C285 C157 1.646 . S
C309 C97 1.566 . S
C317 C182 1.567 . S
C349 C144 1.635 . S
C341 C1 1.597 . S
C381 C186 1.733 . S
C373 C67 1.619 . S
C405 C103 1.613 . S
C413 C152 1.625 . S
C437 C109 1.680 . S
C445 C178 1.727 . S
C477 C207 1.723 . S
C469 C37 1.656 . S
C509 C173 1.638 . S
C501 C73 1.608 . S
C541 C195 1.728 . S
C533 C139 1.707 . S
C565 C31 1.542 . S
C573 C161 1.628 . S
