# Generated by pormake.
# Topology rtl, (3,6)-cn, num edge types: 1
# Building blocks:
#     Node 0, Type 0, BuildingBlock: CUQRIR_clean_linker_1, # of connection points: 3
#     Node 1, Type 0, BuildingBlock: CUQRIR_clean_linker_1, # of connection points: 3
#     Node 2, Type 0, BuildingBlock: CUQRIR_clean_linker_1, # of connection points: 3
#     Node 3, Type 0, BuildingBlock: CUQRIR_clean_linker_1, # of connection points: 3
#     Node 4, Type 1, BuildingBlock: CIFDUS_clean_sbu_1, # of connection points: 6
#     Node 5, Type 1, BuildingBlock: CIFDUS_clean_sbu_1, # of connection points: 6
#     Edge 6, Type (0, 1), BuildingBlock: CIFDUS_clean_linker_0, # of connection points: 2
#     Edge 7, Type (0, 1), BuildingBlock: CIFDUS_clean_linker_0, # of connection points: 2
#     Edge 8, Type (0, 1), BuildingBlock: CIFDUS_clean_linker_0, # of connection points: 2
#     Edge 9, Type (0, 1), BuildingBlock: CIFDUS_clean_linker_0, # of connection points: 2
#     Edge 10, Type (0, 1), BuildingBlock: CIFDUS_clean_linker_0, # of connection points: 2
#     Edge 11, Type (0, 1), BuildingBlock: CIFDUS_clean_linker_0, # of connection points: 2
#     Edge 12, Type (0, 1), BuildingBlock: CIFDUS_clean_linker_0, # of connection points: 2
#     Edge 13, Type (0, 1), BuildingBlock: CIFDUS_clean_linker_0, # of connection points: 2
#     Edge 14, Type (0, 1), BuildingBlock: CIFDUS_clean_linker_0, # of connection points: 2
#     Edge 15, Type (0, 1), BuildingBlock: CIFDUS_clean_linker_0, # of connection points: 2
#     Edge 16, Type (0, 1), BuildingBlock: CIFDUS_clean_linker_0, # of connection points: 2
#     Edge 17, Type (0, 1), BuildingBlock: CIFDUS_clean_linker_0, # of connection points: 2
# Relax obj value: 0.023
# Max RMSD: 0.120
# Mean RMSD: 0.100
data_MOF--net-rtl--node1-CIFDUS_clean_sbu_1--node2-CUQRIR_clean_linker_1--edge1-CIFDUS_clean_linker_0
_symmetry_space_group_name_H-M    P1
_symmetry_Int_Tables_number       1
_symmetry_cell_setting            triclinic
loop_
_symmetry_equiv_pos_as_xyz
'x, y, z'
_cell_length_a     28.733576
_cell_length_b     28.881683
_cell_length_c     17.216232
_cell_angle_alpha  89.911118
_cell_angle_beta   97.502674
_cell_angle_gamma 90.45104
loop_
_atom_site_label
_atom_site_type_symbol
_atom_site_fract_x
_atom_site_fract_y
_atom_site_fract_z
_atom_type_partial_charge
C0 C 0.2512 0.81047 0.04276 0.0
N1 N 0.21873 0.84145 0.05958 0.0
N2 N 0.26867 0.78647 0.10756 0.0
C3 C 0.26755 0.80445 0.96391 0.0
C4 C 0.24595 0.8041 0.16483 0.0
N5 N 0.21619 0.83808 0.13614 0.0
C6 C 0.24891 0.78475 0.24646 0.0
H7 H 0.24535 0.77788 0.93017 0.0
H8 H 0.30443 0.79235 0.97068 0.0
H9 H 0.26495 0.83741 0.93047 0.0
H10 H 0.26922 0.8092 0.28771 0.0
H11 H 0.2665 0.75063 0.25138 0.0
H12 H 0.21325 0.78121 0.26408 0.0
C13 C 0.7267 0.73434 0.66332 0.0
N14 N 0.69542 0.70285 0.62777 0.0
N15 N 0.74767 0.75824 0.60965 0.0
C16 C 0.7326 0.74602 0.74925 0.0
C17 C 0.72763 0.741 0.54022 0.0
N18 N 0.69508 0.70809 0.55052 0.0
C19 C 0.74153 0.75565 0.46242 0.0
H20 H 0.69881 0.74217 0.77338 0.0
H21 H 0.746 0.78187 0.75995 0.0
H22 H 0.7584 0.72203 0.78104 0.0
H23 H 0.77878 0.7672 0.46934 0.0
H24 H 0.71954 0.78524 0.43925 0.0
H25 H 0.73664 0.72684 0.41949 0.0
C26 C 0.81212 0.23224 0.07258 0.0
N27 N 0.83929 0.19723 0.05253 0.0
N28 N 0.78437 0.24883 1.00936 0.0
C29 C 0.81061 0.24865 0.15511 0.0
C30 C 0.79552 0.22256 0.94965 0.0
N31 N 0.8282 0.19016 0.97557 0.0
C32 C 0.77472 0.23006 0.86575 0.0
H33 H 0.78714 0.22541 0.18395 0.0
H34 H 0.79683 0.28443 0.15551 0.0
H35 H 0.84613 0.24748 0.18927 0.0
H36 H 0.76589 0.26705 0.85531 0.0
H37 H 0.74168 0.20972 0.85337 0.0
H38 H 0.79944 0.21959 0.82473 0.0
C39 C 0.28724 0.30075 0.43896 0.0
N40 N 0.32071 0.3309 0.47101 0.0
N41 N 0.26417 0.28192 0.49501 0.0
C42 C 0.27717 0.28922 0.35325 0.0
C43 C 0.28478 0.30152 0.56246 0.0
N44 N 0.31979 0.33075 0.54817 0.0
C45 C 0.26928 0.29388 0.64169 0.0
H46 H 0.25379 0.31604 0.32352 0.0
H47 H 0.25926 0.25514 0.34404 0.0
H48 H 0.31011 0.28889 0.32605 0.0
H49 H 0.29532 0.27173 0.67723 0.0
H50 H 0.23449 0.27654 0.63742 0.0
H51 H 0.26794 0.32741 0.6727 0.0
O52 O 0.97271 0.04846 0.46984 0.0
Mn53 Mn 0.01323 0.00787 0.55501 0.0
O54 O 0.94504 0.99825 0.37664 0.0
Mn55 Mn 0.96065 0.94543 0.43384 0.0
O56 O 0.05404 0.9698 0.64282 0.0
O57 O 0.06117 0.06249 0.56732 0.0
Mn58 Mn 0.05912 0.07502 0.66709 0.0
O59 O 0.97156 0.03086 0.6424 0.0
O60 O 0.07891 0.02505 0.72999 0.0
O61 O 0.05477 0.98113 0.47054 0.0
O62 O 0.01543 0.91992 0.4136 0.0
O63 O 0.102 0.11566 0.64394 0.0
O64 O 1.00184 0.09914 0.67639 0.0
C65 C 0.92576 0.936 0.53328 0.0
C66 C 0.95055 0.03917 0.40203 0.0
C67 C 0.07547 0.98264 0.70986 0.0
C68 C 0.09152 0.09707 0.57527 0.0
C69 C 0.97 0.06938 0.67943 0.0
C70 C 0.05231 0.94488 0.4257 0.0
O71 O 0.9688 0.95166 0.53793 0.0
O72 O 0.90894 0.91958 0.46528 0.0
O73 O 0.5459 0.55037 0.15658 0.0
Mn74 Mn 0.51524 0.51165 0.05487 0.0
O75 O 0.60884 0.51076 0.19887 0.0
Mn76 Mn 0.57389 0.46054 0.16584 0.0
O77 O 0.48155 0.47339 0.95549 0.0
O78 O 0.463 0.56186 0.04443 0.0
Mn79 Mn 0.45656 0.56421 0.93955 0.0
O80 O 0.55984 0.54732 0.98583 0.0
O81 O 0.42009 0.51517 0.90475 0.0
O82 O 0.47143 0.47617 0.12383 0.0
O83 O 0.52324 0.44715 0.21753 0.0
O84 O 0.43911 0.62041 0.96617 0.0
O85 O 0.50796 0.56998 0.88751 0.0
C86 C 0.595 0.42308 0.08016 0.0
C87 C 0.58472 0.54638 0.20276 0.0
C88 C 0.44263 0.47754 0.90873 0.0
C89 C 0.45109 0.60567 0.03705 0.0
C90 C 0.55 0.56512 0.91743 0.0
C91 C 0.48115 0.45462 0.18896 0.0
O92 O 0.56468 0.45715 0.06164 0.0
O93 O 0.60824 0.41237 0.15291 0.0
H94 H 0.26296 0.1899 0.47482 0.0
H95 H 0.17507 0.30815 0.49255 0.0
H96 H 0.1061 0.25753 0.4923 0.0
H97 H 0.075 0.17999 0.51198 0.0
H98 H 0.16414 0.06132 0.50867 0.0
H99 H 0.22785 0.11079 0.4734 0.0
C100 C 0.22835 0.20417 0.47685 0.0
C101 C 0.22351 0.25224 0.48446 0.0
C102 C 0.18921 0.17465 0.47805 0.0
C103 C 0.179 0.27108 0.48715 0.0
C104 C 0.13982 0.24218 0.48682 0.0
C105 C 0.10752 0.16474 0.49893 0.0
C106 C 0.11487 0.11717 0.51216 0.0
C107 C 0.14484 0.19389 0.48508 0.0
C108 C 0.15739 0.09772 0.49718 0.0
C109 C 0.19423 0.12626 0.47917 0.0
H110 H 0.35837 0.77353 0.17104 0.0
H111 H 0.23756 0.70555 0.0461 0.0
H112 H 0.28314 0.63512 0.03476 0.0
H113 H 0.35957 0.59795 0.0426 0.0
H114 H 0.48354 0.66957 0.14869 0.0
H115 H 0.43494 0.73217 0.19016 0.0
C116 C 0.34223 0.74279 0.14288 0.0
C117 C 0.29497 0.7442 0.10919 0.0
C118 C 0.36925 0.70291 0.13465 0.0
C119 C 0.27397 0.70473 0.07207 0.0
C120 C 0.29998 0.66463 0.06588 0.0
C121 C 0.37567 0.62621 0.07831 0.0
C122 C 0.42495 0.62883 0.09388 0.0
C123 C 0.34792 0.66377 0.09505 0.0
C124 C 0.44566 0.6663 0.13766 0.0
C125 C 0.41787 0.70259 0.15962 0.0
H126 H 0.83923 0.76809 0.66617 0.0
H127 H 0.71526 0.84292 0.57472 0.0
H128 H 0.76152 0.91402 0.56842 0.0
H129 H 0.83841 0.94944 0.56307 0.0
H130 H 0.96385 0.87336 0.64149 0.0
H131 H 0.9166 0.80932 0.68348 0.0
C132 C 0.82258 0.80045 0.64716 0.0
C133 C 0.77421 0.80074 0.62035 0.0
C134 C 0.84982 0.84098 0.64209 0.0
C135 C 0.75253 0.8424 0.59518 0.0
C136 C 0.77897 0.88287 0.59167 0.0
C137 C 0.85539 0.91998 0.59378 0.0
C138 C 0.90443 0.91606 0.59906 0.0
C139 C 0.82785 0.88208 0.6119 0.0
C140 C 0.92617 0.8775 0.63776 0.0
C141 C 0.899 0.84026 0.65969 0.0
H142 H 0.7636 0.33491 0.95381 0.0
H143 H 0.70875 0.21757 0.06766 0.0
H144 H 0.63599 0.25913 0.07821 0.0
H145 H 0.5931 0.33156 0.07077 0.0
H146 H 0.65016 0.45278 0.97129 0.0
H147 H 0.71526 0.40672 0.93382 0.0
C148 C 0.73522 0.31859 0.97971 0.0
C149 C 0.74116 0.27355 1.01058 0.0
C150 C 0.69359 0.34312 0.98624 0.0
C151 C 0.70461 0.25237 0.04434 0.0
C152 C 0.66309 0.27599 0.0498 0.0
C153 C 0.61863 0.34736 0.03743 0.0
C154 C 0.61668 0.3953 0.02308 0.0
C155 C 0.65762 0.32163 0.02247 0.0
C156 C 0.65035 0.41574 0.98141 0.0
C157 C 0.68826 0.38959 0.96201 0.0
H158 H 0.23161 0.89046 0.26675 0.0
H159 H 0.12299 0.83285 0.09775 0.0
H160 H 0.06279 0.86385 0.17097 0.0
H161 H 0.04142 0.903 0.28552 0.0
H162 H 0.14805 0.9614 0.45799 0.0
H163 H 0.20913 0.9348 0.38077 0.0
C164 C 0.19467 0.88509 0.24632 0.0
C165 C 0.18138 0.85953 0.17717 0.0
C166 C 0.16029 0.90286 0.28933 0.0
C167 C 0.13367 0.85279 0.15036 0.0
C168 C 0.09943 0.87028 0.19241 0.0
C169 C 0.07804 0.90999 0.30668 0.0
C170 C 0.09026 0.93339 0.3783 0.0
C171 C 0.11239 0.89469 0.26239 0.0
C172 C 0.13778 0.9432 0.4034 0.0
C173 C 0.17259 0.92784 0.35936 0.0
H174 H 0.719 0.64774 0.7541 0.0
H175 H 0.60153 0.69365 0.59122 0.0
H176 H 0.54794 0.6499 0.66237 0.0
H177 H 0.53353 0.60546 0.7753 0.0
H178 H 0.64768 0.56655 0.95142 0.0
H179 H 0.70373 0.60204 0.87174 0.0
C180 C 0.68161 0.64821 0.73457 0.0
C181 C 0.66436 0.67366 0.66669 0.0
C182 C 0.65055 0.62509 0.77889 0.0
C183 C 0.61594 0.67347 0.64153 0.0
C184 C 0.58521 0.64899 0.68303 0.0
C185 C 0.57065 0.6043 0.7971 0.0
C186 C 0.58615 0.58339 0.87014 0.0
C187 C 0.60205 0.62563 0.75246 0.0
C188 C 0.6346 0.58242 0.89589 0.0
C189 C 0.66658 0.60277 0.85025 0.0
H190 H 0.80803 0.13612 0.14947 0.0
H191 H 0.93347 0.20147 0.09058 0.0
H192 H 0.98071 0.16073 0.1984 0.0
H193 H 0.9856 0.10511 0.31042 0.0
H194 H 0.85748 0.04881 0.37782 0.0
H195 H 0.81161 0.08894 0.26903 0.0
C196 C 0.84587 0.14041 0.15958 0.0
C197 C 0.86783 0.16874 0.10869 0.0
C198 C 0.87195 0.11992 0.22536 0.0
C199 C 0.9164 0.17689 0.12531 0.0
C200 C 0.94315 0.15458 0.18823 0.0
C201 C 0.94756 0.10307 0.3026 0.0
C202 C 0.92474 0.07478 0.35276 0.0
C203 C 0.92127 0.12605 0.23905 0.0
C204 C 0.87557 0.07124 0.34083 0.0
C205 C 0.84941 0.09353 0.2779 0.0
H206 H 0.37418 0.30942 0.68377 0.0
H207 H 0.32161 0.42309 0.53653 0.0
H208 H 0.35741 0.47841 0.63445 0.0
H209 H 0.39868 0.49427 0.76419 0.0
H210 H 0.45291 0.38232 0.91468 0.0
H211 H 0.42141 0.32609 0.81339 0.0
C212 C 0.37085 0.34634 0.67357 0.0
C213 C 0.34507 0.36244 0.60351 0.0
C214 C 0.39135 0.37793 0.73075 0.0
C215 C 0.34149 0.41019 0.58983 0.0
C216 C 0.36167 0.44167 0.64597 0.0
C217 C 0.40362 0.45753 0.77527 0.0
C218 C 0.42723 0.4424 0.84766 0.0
C219 C 0.38583 0.42591 0.71706 0.0
C220 C 0.4345 0.39478 0.85981 0.0
C221 C 0.41641 0.36273 0.80195 0.0
H222 H 0.67711 0.61684 0.53194 0.0
H223 H 0.6418 0.74994 0.42963 0.0
H224 H 0.60052 0.71298 0.31216 0.0
H225 H 0.58162 0.6414 0.23209 0.0
H226 H 0.61165 0.50905 0.34367 0.0
H227 H 0.64586 0.54671 0.46326 0.0
C228 C 0.65949 0.63763 0.48464 0.0
C229 C 0.66393 0.68591 0.48826 0.0
C230 C 0.63478 0.61614 0.41812 0.0
C231 C 0.64038 0.71253 0.4268 0.0
C232 C 0.61647 0.69142 0.35976 0.0
C233 C 0.59481 0.62102 0.28307 0.0
C234 C 0.59546 0.57248 0.27754 0.0
C235 C 0.61459 0.64304 0.35347 0.0
C236 C 0.61204 0.54657 0.34505 0.0
C237 C 0.63167 0.56799 0.41401 0.0
H238 H 0.91746 0.16031 0.97648 0.0
H239 H 0.77608 0.13544 0.86772 0.0
H240 H 0.80565 0.09121 0.76369 0.0
H241 H 0.87442 0.0699 0.69434 0.0
H242 H 0.01292 0.07959 0.82492 0.0
H243 H 0.98141 0.11624 0.93325 0.0
C244 C 0.89263 0.14331 0.9334 0.0
C245 C 0.8447 0.15335 0.92871 0.0
C246 C 0.90953 0.11486 0.87727 0.0
C247 C 0.81355 0.1308 0.87035 0.0
C248 C 0.83037 0.10491 0.81116 0.0
C249 C 0.89727 0.07827 0.74774 0.0
C250 C 0.94613 0.07352 0.75038 0.0
C251 C 0.87872 0.09832 0.81213 0.0
C252 C 0.97522 0.08395 0.8207 0.0
C253 C 0.95737 0.10525 0.88271 0.0
H254 H 0.30389 0.38689 0.34464 0.0
H255 H 0.41393 0.32791 0.50781 0.0
H256 H 0.47326 0.36268 0.43568 0.0
H257 H 0.49345 0.40582 0.32391 0.0
H258 H 0.38482 0.46398 0.15575 0.0
H259 H 0.3249 0.43292 0.2316 0.0
C260 C 0.34091 0.38172 0.36384 0.0
C261 C 0.35486 0.35469 0.43093 0.0
C262 C 0.37474 0.40119 0.32101 0.0
C263 C 0.40273 0.34883 0.45663 0.0
C264 C 0.43647 0.3684 0.41512 0.0
C265 C 0.45672 0.41198 0.30334 0.0
C266 C 0.44376 0.43703 0.23363 0.0
C267 C 0.42284 0.39403 0.34677 0.0
C268 C 0.39585 0.44459 0.20878 0.0
C269 C 0.36161 0.42689 0.25223 0.0
H270 H 0.17084 0.81896 0.91845 0.0
H271 H 0.20384 0.93236 0.07905 0.0
H272 H 0.15919 0.98507 0.98673 0.0
H273 H 0.11516 0.99968 0.85873 0.0
H274 H 0.0861 0.88832 0.69185 0.0
H275 H 0.12608 0.83402 0.78765 0.0
C276 C 0.16882 0.85536 0.93253 0.0
C277 C 0.19114 0.87194 1.00517 0.0
C278 C 0.14431 0.88573 0.87789 0.0
C279 C 0.18687 0.91884 0.02381 0.0
C280 C 0.16162 0.94896 0.97082 0.0
C281 C 0.11742 0.96355 0.84266 0.0
C282 C 0.0978 0.9483 0.76749 0.0
C283 C 0.14084 0.9329 0.89736 0.0
C284 C 0.10087 0.90114 0.74894 0.0
C285 C 0.12379 0.87011 0.80374 0.0
loop_
_geom_bond_atom_site_label_1
_geom_bond_atom_site_label_2
_geom_bond_distance
_geom_bond_site_symmetry_2
_ccdc_geom_bond_type
C0 N1 1.317 . S
C0 N2 1.348 . S
C0 C3 1.485 1_554 S
N1 C0 1.317 . S
N1 N5 1.370 . S
N2 C0 1.348 . S
N2 C4 1.346 . S
C3 C0 1.485 1_556 S
C3 H7 0.960 . S
C3 H8 0.961 . S
C3 H9 0.960 . S
C4 N2 1.346 . S
C4 N5 1.307 . S
C4 C6 1.486 . S
N5 N1 1.370 . S
N5 C4 1.307 . S
C6 C4 1.486 . S
C6 H10 0.960 . S
C6 H11 0.960 . S
C6 H12 0.959 . S
H7 C3 0.960 . S
H8 C3 0.961 . S
H9 C3 0.960 . S
H10 C6 0.960 . S
H11 C6 0.960 . S
H12 C6 0.959 . S
C13 N14 1.317 . S
C13 N15 1.348 . S
C13 C16 1.485 . S
N14 C13 1.317 . S
N14 N18 1.370 . S
N15 C13 1.348 . S
N15 C17 1.346 . S
C16 C13 1.485 . S
C16 H20 0.960 . S
C16 H21 0.961 . S
C16 H22 0.960 . S
C17 N15 1.346 . S
C17 N18 1.307 . S
C17 C19 1.486 . S
N18 N14 1.370 . S
N18 C17 1.307 . S
C19 C17 1.486 . S
C19 H23 0.960 . S
C19 H24 0.960 . S
C19 H25 0.959 . S
H20 C16 0.960 . S
H21 C16 0.961 . S
H22 C16 0.960 . S
H23 C19 0.960 . S
H24 C19 0.960 . S
H25 C19 0.959 . S
C26 N27 1.317 . S
C26 N28 1.345 1_554 S
C26 C29 1.485 . S
N27 C26 1.317 . S
N27 N31 1.370 1_554 S
N28 C26 1.345 1_556 S
N28 C30 1.350 . S
C29 C26 1.485 . S
C29 H33 0.960 . S
C29 H34 0.961 . S
C29 H35 0.960 . S
C30 N28 1.350 . S
C30 N31 1.307 . S
C30 C32 1.486 . S
N31 N27 1.370 1_556 S
N31 C30 1.307 . S
C32 C30 1.486 . S
C32 H36 0.960 . S
C32 H37 0.960 . S
C32 H38 0.959 . S
H33 C29 0.960 . S
H34 C29 0.961 . S
H35 C29 0.960 . S
H36 C32 0.960 . S
H37 C32 0.960 . S
H38 C32 0.959 . S
C39 N40 1.317 . S
C39 N41 1.348 . S
C39 C42 1.485 . S
N40 C39 1.317 . S
N40 N44 1.370 . S
N41 C39 1.348 . S
N41 C43 1.346 . S
C42 C39 1.485 . S
C42 H46 0.960 . S
C42 H47 0.961 . S
C42 H48 0.960 . S
C43 N41 1.346 . S
C43 N44 1.307 . S
C43 C45 1.486 . S
N44 N40 1.370 . S
N44 C43 1.307 . S
C45 C43 1.486 . S
C45 H49 0.960 . S
C45 H50 0.960 . S
C45 H51 0.959 . S
H46 C42 0.960 . S
H47 C42 0.961 . S
H48 C42 0.960 . S
H49 C45 0.960 . S
H50 C45 0.960 . S
H51 C45 0.959 . S
O52 Mn53 2.163 1_655 S
O52 C66 1.244 . S
Mn53 O52 2.163 1_455 S
Mn53 O56 2.160 1_545 S
Mn53 O57 2.221 . S
Mn53 O59 2.163 1_455 S
Mn53 O61 2.160 1_545 S
Mn53 O71 2.221 1_445 S
O54 Mn55 2.087 1_545 S
O54 C66 1.256 . S
Mn55 O54 2.087 1_565 S
Mn55 O62 2.089 1_655 S
Mn55 O71 2.290 . S
Mn55 O72 2.251 . S
O56 Mn53 2.160 1_565 S
O56 C67 1.239 . S
O57 Mn53 2.221 . S
O57 Mn58 2.290 . S
O57 C68 1.278 . S
Mn58 O57 2.290 . S
Mn58 O60 2.089 . S
Mn58 O63 2.251 . S
Mn58 O64 2.087 . S
O59 Mn53 2.163 1_655 S
O59 C69 1.244 . S
O60 Mn58 2.089 . S
O60 C67 1.256 1_545 S
O61 Mn53 2.160 1_565 S
O61 C70 1.239 . S
O62 Mn55 2.089 1_455 S
O62 C70 1.256 . S
O63 Mn58 2.251 . S
O63 C68 1.241 . S
O64 Mn58 2.087 . S
O64 C69 1.256 1_455 S
C65 O71 1.278 . S
C65 O72 1.241 . S
C66 O52 1.244 . S
C66 O54 1.256 . S
C67 O56 1.239 . S
C67 O60 1.256 1_565 S
C68 O57 1.278 . S
C68 O63 1.241 . S
C69 O59 1.244 . S
C69 O64 1.256 1_655 S
C70 O61 1.239 . S
C70 O62 1.256 . S
O71 Mn53 2.221 1_665 S
O71 Mn55 2.290 . S
O71 C65 1.278 . S
O72 Mn55 2.251 . S
O72 C65 1.241 . S
O73 Mn74 2.163 . S
O73 C87 1.244 . S
Mn74 O73 2.163 . S
Mn74 O77 2.160 1_554 S
Mn74 O78 2.221 . S
Mn74 O80 2.163 1_554 S
Mn74 O82 2.160 . S
Mn74 O92 2.221 . S
O75 Mn76 2.087 . S
O75 C87 1.256 . S
Mn76 O75 2.087 . S
Mn76 O83 2.089 . S
Mn76 O92 2.290 . S
Mn76 O93 2.251 . S
O77 Mn74 2.160 1_556 S
O77 C88 1.239 . S
O78 Mn74 2.221 . S
O78 Mn79 2.290 1_554 S
O78 C89 1.278 . S
Mn79 O78 2.290 1_556 S
Mn79 O81 2.089 . S
Mn79 O84 2.251 . S
Mn79 O85 2.087 . S
O80 Mn74 2.163 1_556 S
O80 C90 1.244 . S
O81 Mn79 2.089 . S
O81 C88 1.256 . S
O82 Mn74 2.160 . S
O82 C91 1.239 . S
O83 Mn76 2.089 . S
O83 C91 1.256 . S
O84 Mn79 2.251 . S
O84 C89 1.241 1_556 S
O85 Mn79 2.087 . S
O85 C90 1.256 . S
C86 O92 1.278 . S
C86 O93 1.241 . S
C87 O73 1.244 . S
C87 O75 1.256 . S
C88 O77 1.239 . S
C88 O81 1.256 . S
C89 O78 1.278 . S
C89 O84 1.241 1_554 S
C90 O80 1.244 . S
C90 O85 1.256 . S
C91 O82 1.239 . S
C91 O83 1.256 . S
O92 Mn74 2.221 . S
O92 Mn76 2.290 . S
O92 C86 1.278 . S
O93 Mn76 2.251 . S
O93 C86 1.241 . S
H94 C100 0.930 . S
H95 C103 0.930 . S
H96 C104 0.930 . S
H97 C105 0.930 . S
H98 C108 0.930 . S
H99 C109 0.930 . S
C100 H94 0.930 . S
C100 C101 1.355 . S
C100 C102 1.415 . S
C101 C100 1.355 . S
C101 C103 1.419 . S
C102 C100 1.415 . S
C102 C107 1.425 . S
C102 C109 1.409 . S
C103 H95 0.930 . S
C103 C101 1.419 . S
C103 C104 1.362 . S
C104 H96 0.930 . S
C104 C103 1.362 . S
C104 C107 1.409 . S
C105 H97 0.930 . S
C105 C106 1.355 . S
C105 C107 1.415 . S
C106 C105 1.355 . S
C106 C108 1.419 . S
C107 C102 1.425 . S
C107 C104 1.409 . S
C107 C105 1.415 . S
C108 H98 0.930 . S
C108 C106 1.419 . S
C108 C109 1.362 . S
C109 H99 0.930 . S
C109 C102 1.409 . S
C109 C108 1.362 . S
H110 C116 0.930 . S
H111 C119 0.930 . S
H112 C120 0.930 . S
H113 C121 0.930 1_556 S
H114 C124 0.930 . S
H115 C125 0.930 . S
C116 H110 0.930 . S
C116 C117 1.355 . S
C116 C118 1.415 . S
C117 C116 1.355 . S
C117 C119 1.419 1_554 S
C118 C116 1.415 . S
C118 C123 1.425 . S
C118 C125 1.409 . S
C119 H111 0.930 . S
C119 C117 1.419 1_556 S
C119 C120 1.362 . S
C120 H112 0.930 . S
C120 C119 1.362 . S
C120 C123 1.409 1_556 S
C121 H113 0.930 1_554 S
C121 C122 1.355 . S
C121 C123 1.415 . S
C122 C121 1.355 . S
C122 C124 1.419 . S
C123 C118 1.425 . S
C123 C120 1.409 1_554 S
C123 C121 1.415 . S
C124 H114 0.930 . S
C124 C122 1.419 . S
C124 C125 1.362 . S
C125 H115 0.930 . S
C125 C118 1.409 . S
C125 C124 1.362 . S
H126 C132 0.930 . S
H127 C135 0.930 . S
H128 C136 0.930 . S
H129 C137 0.930 . S
H130 C140 0.930 . S
H131 C141 0.930 . S
C132 H126 0.930 . S
C132 C133 1.355 . S
C132 C134 1.415 . S
C133 C132 1.355 . S
C133 C135 1.419 . S
C134 C132 1.415 . S
C134 C139 1.425 . S
C134 C141 1.409 . S
C135 H127 0.930 . S
C135 C133 1.419 . S
C135 C136 1.362 . S
C136 H128 0.930 . S
C136 C135 1.362 . S
C136 C139 1.409 . S
C137 H129 0.930 . S
C137 C138 1.355 . S
C137 C139 1.415 . S
C138 C137 1.355 . S
C138 C140 1.419 . S
C139 C134 1.425 . S
C139 C136 1.409 . S
C139 C137 1.415 . S
C140 H130 0.930 . S
C140 C138 1.419 . S
C140 C141 1.362 . S
C141 H131 0.930 . S
C141 C134 1.409 . S
C141 C140 1.362 . S
H142 C148 0.930 . S
H143 C151 0.930 . S
H144 C152 0.930 . S
H145 C153 0.930 . S
H146 C156 0.930 . S
H147 C157 0.930 . S
C148 H142 0.930 . S
C148 C149 1.355 1_556 S
C148 C150 1.415 . S
C149 C148 1.355 1_554 S
C149 C151 1.419 . S
C150 C148 1.415 . S
C150 C155 1.425 1_556 S
C150 C157 1.409 . S
C151 H143 0.930 . S
C151 C149 1.419 . S
C151 C152 1.362 . S
C152 H144 0.930 . S
C152 C151 1.362 . S
C152 C155 1.409 . S
C153 H145 0.930 . S
C153 C154 1.355 . S
C153 C155 1.415 . S
C154 C153 1.355 . S
C154 C156 1.419 1_554 S
C155 C150 1.425 1_554 S
C155 C152 1.409 . S
C155 C153 1.415 . S
C156 H146 0.930 . S
C156 C154 1.419 1_556 S
C156 C157 1.362 . S
C157 H147 0.930 . S
C157 C150 1.409 . S
C157 C156 1.362 . S
H158 C164 0.930 . S
H159 C167 0.930 . S
H160 C168 0.930 . S
H161 C169 0.930 . S
H162 C172 0.930 . S
H163 C173 0.930 . S
C164 H158 0.930 . S
C164 C165 1.355 . S
C164 C166 1.415 . S
C165 C164 1.355 . S
C165 C167 1.419 . S
C166 C164 1.415 . S
C166 C171 1.425 . S
C166 C173 1.409 . S
C167 H159 0.930 . S
C167 C165 1.419 . S
C167 C168 1.362 . S
C168 H160 0.930 . S
C168 C167 1.362 . S
C168 C171 1.409 . S
C169 H161 0.930 . S
C169 C170 1.355 . S
C169 C171 1.415 . S
C170 C169 1.355 . S
C170 C172 1.419 . S
C171 C166 1.425 . S
C171 C168 1.409 . S
C171 C169 1.415 . S
C172 H162 0.930 . S
C172 C170 1.419 . S
C172 C173 1.362 . S
C173 H163 0.930 . S
C173 C166 1.409 . S
C173 C172 1.362 . S
H174 C180 0.930 . S
H175 C183 0.930 . S
H176 C184 0.930 . S
H177 C185 0.930 . S
H178 C188 0.930 . S
H179 C189 0.930 . S
C180 H174 0.930 . S
C180 C181 1.355 . S
C180 C182 1.415 . S
C181 C180 1.355 . S
C181 C183 1.419 . S
C182 C180 1.415 . S
C182 C187 1.425 . S
C182 C189 1.409 . S
C183 H175 0.930 . S
C183 C181 1.419 . S
C183 C184 1.362 . S
C184 H176 0.930 . S
C184 C183 1.362 . S
C184 C187 1.409 . S
C185 H177 0.930 . S
C185 C186 1.355 . S
C185 C187 1.415 . S
C186 C185 1.355 . S
C186 C188 1.419 . S
C187 C182 1.425 . S
C187 C184 1.409 . S
C187 C185 1.415 . S
C188 H178 0.930 . S
C188 C186 1.419 . S
C188 C189 1.362 . S
C189 H179 0.930 . S
C189 C182 1.409 . S
C189 C188 1.362 . S
H190 C196 0.930 . S
H191 C199 0.930 . S
H192 C200 0.930 . S
H193 C201 0.930 . S
H194 C204 0.930 . S
H195 C205 0.930 . S
C196 H190 0.930 . S
C196 C197 1.355 . S
C196 C198 1.415 . S
C197 C196 1.355 . S
C197 C199 1.419 . S
C198 C196 1.415 . S
C198 C203 1.425 . S
C198 C205 1.409 . S
C199 H191 0.930 . S
C199 C197 1.419 . S
C199 C200 1.362 . S
C200 H192 0.930 . S
C200 C199 1.362 . S
C200 C203 1.409 . S
C201 H193 0.930 . S
C201 C202 1.355 . S
C201 C203 1.415 . S
C202 C201 1.355 . S
C202 C204 1.419 . S
C203 C198 1.425 . S
C203 C200 1.409 . S
C203 C201 1.415 . S
C204 H194 0.930 . S
C204 C202 1.419 . S
C204 C205 1.362 . S
C205 H195 0.930 . S
C205 C198 1.409 . S
C205 C204 1.362 . S
H206 C212 0.930 . S
H207 C215 0.930 . S
H208 C216 0.930 . S
H209 C217 0.930 . S
H210 C220 0.930 . S
H211 C221 0.930 . S
C212 H206 0.930 . S
C212 C213 1.355 . S
C212 C214 1.415 . S
C213 C212 1.355 . S
C213 C215 1.419 . S
C214 C212 1.415 . S
C214 C219 1.425 . S
C214 C221 1.409 . S
C215 H207 0.930 . S
C215 C213 1.419 . S
C215 C216 1.362 . S
C216 H208 0.930 . S
C216 C215 1.362 . S
C216 C219 1.409 . S
C217 H209 0.930 . S
C217 C218 1.355 . S
C217 C219 1.415 . S
C218 C217 1.355 . S
C218 C220 1.419 . S
C219 C214 1.425 . S
C219 C216 1.409 . S
C219 C217 1.415 . S
C220 H210 0.930 . S
C220 C218 1.419 . S
C220 C221 1.362 . S
C221 H211 0.930 . S
C221 C214 1.409 . S
C221 C220 1.362 . S
H222 C228 0.930 . S
H223 C231 0.930 . S
H224 C232 0.930 . S
H225 C233 0.930 . S
H226 C236 0.930 . S
H227 C237 0.930 . S
C228 H222 0.930 . S
C228 C229 1.355 . S
C228 C230 1.415 . S
C229 C228 1.355 . S
C229 C231 1.419 . S
C230 C228 1.415 . S
C230 C235 1.425 . S
C230 C237 1.409 . S
C231 H223 0.930 . S
C231 C229 1.419 . S
C231 C232 1.362 . S
C232 H224 0.930 . S
C232 C231 1.362 . S
C232 C235 1.409 . S
C233 H225 0.930 . S
C233 C234 1.355 . S
C233 C235 1.415 . S
C234 C233 1.355 . S
C234 C236 1.419 . S
C235 C230 1.425 . S
C235 C232 1.409 . S
C235 C233 1.415 . S
C236 H226 0.930 . S
C236 C234 1.419 . S
C236 C237 1.362 . S
C237 H227 0.930 . S
C237 C230 1.409 . S
C237 C236 1.362 . S
H238 C244 0.930 . S
H239 C247 0.930 . S
H240 C248 0.930 . S
H241 C249 0.930 . S
H242 C252 0.930 1_455 S
H243 C253 0.930 . S
C244 H238 0.930 . S
C244 C245 1.355 . S
C244 C246 1.415 . S
C245 C244 1.355 . S
C245 C247 1.419 . S
C246 C244 1.415 . S
C246 C251 1.425 . S
C246 C253 1.409 . S
C247 H239 0.930 . S
C247 C245 1.419 . S
C247 C248 1.362 . S
C248 H240 0.930 . S
C248 C247 1.362 . S
C248 C251 1.409 . S
C249 H241 0.930 . S
C249 C250 1.355 . S
C249 C251 1.415 . S
C250 C249 1.355 . S
C250 C252 1.419 . S
C251 C246 1.425 . S
C251 C248 1.409 . S
C251 C249 1.415 . S
C252 H242 0.930 1_655 S
C252 C250 1.419 . S
C252 C253 1.362 . S
C253 H243 0.930 . S
C253 C246 1.409 . S
C253 C252 1.362 . S
H254 C260 0.930 . S
H255 C263 0.930 . S
H256 C264 0.930 . S
H257 C265 0.930 . S
H258 C268 0.930 . S
H259 C269 0.930 . S
C260 H254 0.930 . S
C260 C261 1.355 . S
C260 C262 1.415 . S
C261 C260 1.355 . S
C261 C263 1.419 . S
C262 C260 1.415 . S
C262 C267 1.425 . S
C262 C269 1.409 . S
C263 H255 0.930 . S
C263 C261 1.419 . S
C263 C264 1.362 . S
C264 H256 0.930 . S
C264 C263 1.362 . S
C264 C267 1.409 . S
C265 H257 0.930 . S
C265 C266 1.355 . S
C265 C267 1.415 . S
C266 C265 1.355 . S
C266 C268 1.419 . S
C267 C262 1.425 . S
C267 C264 1.409 . S
C267 C265 1.415 . S
C268 H258 0.930 . S
C268 C266 1.419 . S
C268 C269 1.362 . S
C269 H259 0.930 . S
C269 C262 1.409 . S
C269 C268 1.362 . S
H270 C276 0.930 . S
H271 C279 0.930 . S
H272 C280 0.930 . S
H273 C281 0.930 . S
H274 C284 0.930 . S
H275 C285 0.930 . S
C276 H270 0.930 . S
C276 C277 1.355 . S
C276 C278 1.415 . S
C277 C276 1.355 . S
C277 C279 1.419 1_556 S
C278 C276 1.415 . S
C278 C283 1.425 . S
C278 C285 1.409 . S
C279 H271 0.930 . S
C279 C277 1.419 1_554 S
C279 C280 1.362 1_554 S
C280 H272 0.930 . S
C280 C279 1.362 1_556 S
C280 C283 1.409 . S
C281 H273 0.930 . S
C281 C282 1.355 . S
C281 C283 1.415 . S
C282 C281 1.355 . S
C282 C284 1.419 . S
C283 C278 1.425 . S
C283 C280 1.409 . S
C283 C281 1.415 . S
C284 H274 0.930 . S
C284 C282 1.419 . S
C284 C285 1.362 . S
C285 H275 0.930 . S
C285 C278 1.409 . S
C285 C284 1.362 . S
C106 C68 1.261 . S
C101 N41 1.469 . S
C117 N2 1.452 . S
C122 C89 1.340 . S
C133 N15 1.598 . S
C138 C65 1.377 . S
C149 N28 1.583 1_554 S
C154 C86 1.441 . S
C170 C70 1.481 . S
C165 N5 1.490 . S
C186 C90 1.503 . S
C181 N14 1.571 . S
C197 N27 1.534 . S
C202 C66 1.472 . S
C213 N44 1.492 . S
C218 C88 1.475 . S
C234 C87 1.478 . S
C229 N18 1.523 . S
C250 C69 1.489 . S
C245 N31 1.559 . S
C266 C91 1.477 . S
C261 N40 1.469 . S
C277 N1 1.501 1_556 S
C282 C67 1.456 . S
