# Generated by pormake.
# Topology rtl, (3,6)-cn, num edge types: 1
# Building blocks:
#     Node 0, Type 0, BuildingBlock: BETDAH_clean_linker_0, # of connection points: 3
#     Node 1, Type 0, BuildingBlock: BETDAH_clean_linker_0, # of connection points: 3
#     Node 2, Type 0, BuildingBlock: BETDAH_clean_linker_0, # of connection points: 3
#     Node 3, Type 0, BuildingBlock: BETDAH_clean_linker_0, # of connection points: 3
#     Node 4, Type 1, BuildingBlock: LEVNOQ01_clean_sbu_1, # of connection points: 6
#     Node 5, Type 1, BuildingBlock: LEVNOQ01_clean_sbu_1, # of connection points: 6
#     Edge 6, Type (0, 1), BuildingBlock: UVAHIK_clean_linker_0, # of connection points: 2
#     Edge 7, Type (0, 1), BuildingBlock: UVAHIK_clean_linker_0, # of connection points: 2
#     Edge 8, Type (0, 1), BuildingBlock: UVAHIK_clean_linker_0, # of connection points: 2
#     Edge 9, Type (0, 1), BuildingBlock: UVAHIK_clean_linker_0, # of connection points: 2
#     Edge 10, Type (0, 1), BuildingBlock: UVAHIK_clean_linker_0, # of connection points: 2
#     Edge 11, Type (0, 1), BuildingBlock: UVAHIK_clean_linker_0, # of connection points: 2
#     Edge 12, Type (0, 1), BuildingBlock: UVAHIK_clean_linker_0, # of connection points: 2
#     Edge 13, Type (0, 1), BuildingBlock: UVAHIK_clean_linker_0, # of connection points: 2
#     Edge 14, Type (0, 1), BuildingBlock: UVAHIK_clean_linker_0, # of connection points: 2
#     Edge 15, Type (0, 1), BuildingBlock: UVAHIK_clean_linker_0, # of connection points: 2
#     Edge 16, Type (0, 1), BuildingBlock: UVAHIK_clean_linker_0, # of connection points: 2
#     Edge 17, Type (0, 1), BuildingBlock: UVAHIK_clean_linker_0, # of connection points: 2
# Relax obj value: 0.016
# Max RMSD: 0.118
# Mean RMSD: 0.088
data_MOF--net-rtl--node1-LEVNOQ01_clean_sbu_1--node2-BETDAH_clean_linker_0--edge1-UVAHIK_clean_linker_0
_symmetry_space_group_name_H-M    P1
_symmetry_Int_Tables_number       1
_symmetry_cell_setting            triclinic
loop_
_symmetry_equiv_pos_as_xyz
'x, y, z'
_cell_length_a     45.927642
_cell_length_b     45.737144
_cell_length_c     28.961517
_cell_angle_alpha  91.186921
_cell_angle_beta   98.743792
_cell_angle_gamma 89.606334
loop_
_atom_site_label
_atom_site_type_symbol
_atom_site_fract_x
_atom_site_fract_y
_atom_site_fract_z
_atom_type_partial_charge
H0 H 0.17076 0.88064 0.0708 0.0
H1 H 0.21944 0.80848 0.13872 0.0
H2 H 0.19674 0.80807 0.98946 0.0
C3 C 0.18258 0.86017 0.06884 0.0
C4 C 0.18297 0.84656 0.02501 0.0
C5 C 0.19539 0.8466 0.11026 0.0
C6 C 0.20967 0.8194 0.10723 0.0
C7 C 0.20999 0.80559 0.06349 0.0
C8 C 0.1964 0.81906 0.0229 0.0
N9 N 0.22187 0.77719 0.05912 0.0
C10 C 0.24724 0.76691 0.08627 0.0
H11 H 0.65039 0.65783 0.57432 0.0
H12 H 0.68575 0.73775 0.52891 0.0
H13 H 0.68358 0.72476 0.6744 0.0
C14 C 0.66121 0.67872 0.58215 0.0
C15 C 0.66698 0.68867 0.62881 0.0
C16 C 0.66761 0.69626 0.54549 0.0
C17 C 0.68069 0.72384 0.55644 0.0
C18 C 0.68623 0.73397 0.60306 0.0
C19 C 0.67912 0.71654 0.63866 0.0
N20 N 0.69695 0.76246 0.61512 0.0
C21 C 0.72112 0.77428 0.59892 0.0
H22 H 0.851 0.158 0.00723 0.0
H23 H 0.81886 0.24051 0.05446 0.0
H24 H 0.82437 0.22593 0.9092 0.0
C25 C 0.8418 0.17959 -0.00018 0.0
C26 C 0.83766 0.18938 0.95366 0.0
C27 C 0.83508 0.19778 0.03662 0.0
C28 C 0.82374 0.22601 0.02655 0.0
C29 C 0.81963 0.23589 0.98041 0.0
C30 C 0.82671 0.21767 0.9444 0.0
N31 N 0.81125 0.26509 0.97009 0.0
C32 C 0.78406 0.27643 0.97658 0.0
H33 H 0.34644 0.37661 0.50881 0.0
H34 H 0.27437 0.33838 0.56581 0.0
H35 H 0.26583 0.35502 0.41907 0.0
C36 C 0.32427 0.36789 0.50427 0.0
C37 C 0.30769 0.36689 0.45942 0.0
C38 C 0.31254 0.35796 0.54322 0.0
C39 C 0.28416 0.34569 0.53631 0.0
C40 C 0.26751 0.34453 0.49144 0.0
C41 C 0.27919 0.3553 0.45332 0.0
N42 N 0.23809 0.33466 0.48463 0.0
C43 C 0.23124 0.30579 0.49165 0.0
O44 O 0.98048 0.07833 0.57415 0.0
Mg45 Mg 0.02097 0.05655 0.57761 0.0
O46 O 0.97088 0.03186 0.56948 0.0
Mg47 Mg 0.0035 0.01198 0.51989 0.0
O48 O 0.03847 0.05021 0.51775 0.0
O49 O 0.05244 0.08565 0.57183 0.0
O50 O 0.03621 0.98945 0.47315 0.0
O51 O 0.97562 0.03672 0.45757 0.0
Mg52 Mg 0.97432 0.97003 0.45008 0.0
O53 O 0.96994 0.97318 0.51952 0.0
O54 O 0.01344 0.95182 0.43531 0.0
O55 O 0.95384 0.0035 0.40811 0.0
O56 O 0.9468 0.93996 0.46852 0.0
C57 C 0.03945 0.00033 0.6242 0.0
C58 C 0.96361 0.05775 0.58036 0.0
C59 C 0.05461 0.07285 0.53245 0.0
C60 C 0.03656 0.96656 0.44715 0.0
C61 C 0.95856 0.03005 0.41984 0.0
C62 C 0.95204 0.95112 0.51019 0.0
O63 O 0.03566 0.02734 0.6322 0.0
O64 O 0.03093 0.98937 0.58358 0.0
O65 O 0.55202 0.52163 0.15464 0.0
Mg66 Mg 0.53579 0.48069 0.12771 0.0
O67 O 0.52291 0.54665 0.10099 0.0
Mg68 Mg 0.5003 0.51438 0.04248 0.0
O69 O 0.53583 0.47838 0.05723 0.0
O70 O 0.56444 0.45027 0.10772 0.0
O71 O 0.47714 0.48243 0.98381 0.0
O72 O 0.53055 0.5342 0.99268 0.0
Mg73 Mg 0.46197 0.54962 0.95732 0.0
O74 O 0.46504 0.54983 0.02787 0.0
O75 O 0.44622 0.50803 0.93313 0.0
O76 O 0.50328 0.56294 0.94186 0.0
O77 O 0.4341 0.57908 0.98399 0.0
C78 C 0.47085 0.47696 0.12475 0.0
C79 C 0.54189 0.54568 0.13804 0.0
C80 C 0.55579 0.45815 0.06534 0.0
C81 C 0.45696 0.4838 0.94825 0.0
C82 C 0.52806 0.55244 0.95943 0.0
C83 C 0.44506 0.57004 0.02485 0.0
O84 O 0.49515 0.46641 0.1439 0.0
O85 O 0.46942 0.49491 0.09132 0.0
C86 C 0.20724 0.26711 0.52986 0.0
C87 C 0.22209 0.27593 0.49379 0.0
C88 C 0.1953 0.23903 0.52875 0.0
C89 C 0.16415 0.18324 0.44503 0.0
H90 H 0.16376 0.13675 0.55535 0.0
C91 C 0.10578 0.07539 0.51655 0.0
C92 C 0.07634 0.0844 0.50567 0.0
C93 C 0.12839 0.09302 0.50551 0.0
C94 C 0.16411 0.14914 0.52396 0.0
H95 H 0.23717 0.26293 0.42918 0.0
H96 H 0.21617 0.21365 0.427 0.0
H97 H 0.19594 0.17928 0.55911 0.0
H98 H 0.04699 0.11757 0.47273 0.0
H99 H 0.08635 0.14815 0.45236 0.0
H100 H 0.13115 0.15394 0.41061 0.0
C101 C 0.21369 0.22828 0.45604 0.0
C102 C 0.18229 0.17364 0.52629 0.0
C103 C 0.22577 0.2563 0.45736 0.0
C104 C 0.06956 0.10991 0.48025 0.0
C105 C 0.09211 0.12742 0.46884 0.0
C106 C 0.14569 0.15893 0.44286 0.0
C107 C 0.19788 0.21956 0.49129 0.0
C108 C 0.18195 0.19134 0.48718 0.0
C109 C 0.12176 0.11986 0.48345 0.0
C110 C 0.14499 0.14206 0.48262 0.0
H111 H 0.20403 0.2822 0.55801 0.0
H112 H 0.18289 0.23305 0.55606 0.0
H113 H 0.16329 0.19661 0.41441 0.0
H114 H 0.11139 0.05606 0.5371 0.0
H115 H 0.15106 0.08666 0.51695 0.0
C116 C 0.27682 0.7369 0.14641 0.0
C117 C 0.27445 0.75282 0.10521 0.0
C118 C 0.30151 0.71908 0.15969 0.0
C119 C 0.37575 0.69915 0.12857 0.0
H120 H 0.35436 0.62105 0.16011 0.0
C121 C 0.44979 0.60351 0.09425 0.0
C122 C 0.43354 0.58246 0.0655 0.0
C123 C 0.43536 0.62324 0.1209 0.0
C124 C 0.36086 0.6428 0.15175 0.0
H125 H 0.29566 0.76372 0.04619 0.0
H126 H 0.33829 0.73244 0.06834 0.0
H127 H 0.31959 0.66106 0.16332 0.0
H128 H 0.39047 0.5635 0.04473 0.0
H129 H 0.36535 0.59726 0.09107 0.0
H130 H 0.41585 0.68041 0.11269 0.0
C131 C 0.32189 0.73399 0.09147 0.0
C132 C 0.34098 0.6659 0.15407 0.0
C133 C 0.29738 0.75184 0.0785 0.0
C134 C 0.40343 0.57938 0.06726 0.0
C135 C 0.38907 0.59883 0.09395 0.0
C136 C 0.39548 0.67601 0.12576 0.0
C137 C 0.32398 0.71675 0.1316 0.0
C138 C 0.3476 0.6941 0.14026 0.0
C139 C 0.40453 0.62205 0.119 0.0
C140 C 0.38766 0.64727 0.13507 0.0
H141 H 0.25912 0.7373 0.16725 0.0
H142 H 0.30251 0.70638 0.19104 0.0
H143 H 0.38192 0.72073 0.11887 0.0
H144 H 0.47302 0.60646 0.09281 0.0
H145 H 0.44799 0.6406 0.14033 0.0
C146 C 0.74418 0.81352 0.56079 0.0
C147 C 0.74701 0.78916 0.58952 0.0
C148 C 0.76878 0.83059 0.557 0.0
C149 C 0.84293 0.849 0.62049 0.0
H150 H 0.85032 0.88704 0.50448 0.0
C151 C 0.94295 0.91266 0.56489 0.0
C152 C 0.93497 0.93971 0.54454 0.0
C153 C 0.92167 0.89517 0.58052 0.0
C154 C 0.84835 0.87669 0.53719 0.0
H155 H 0.77713 0.7628 0.63624 0.0
H156 H 0.82055 0.79215 0.6288 0.0
H157 H 0.81078 0.8521 0.50637 0.0
H158 H 0.89943 0.97069 0.52716 0.0
H159 H 0.86217 0.94009 0.55415 0.0
H160 H 0.88143 0.87327 0.65052 0.0
C161 C 0.79941 0.79847 0.60966 0.0
C162 C 0.82569 0.85673 0.53834 0.0
C163 C 0.77472 0.78147 0.61351 0.0
C164 C 0.90618 0.95022 0.54382 0.0
C165 C 0.88485 0.93261 0.55873 0.0
C166 C 0.86598 0.86874 0.61908 0.0
C167 C 0.79665 0.82355 0.58194 0.0
C168 C 0.82232 0.84299 0.58016 0.0
C169 C 0.89215 0.90439 0.57495 0.0
C170 C 0.86845 0.88311 0.57758 0.0
H171 H 0.72279 0.81996 0.54258 0.0
H172 H 0.76567 0.84994 0.53588 0.0
H173 H 0.84086 0.83906 0.65343 0.0
H174 H 0.96489 0.90388 0.56459 0.0
H175 H 0.92769 0.87338 0.59265 0.0
C176 C 0.74049 0.30188 0.93678 0.0
C177 C 0.7563 0.29092 0.97804 0.0
C178 C 0.71516 0.31878 0.9382 0.0
C179 C 0.68382 0.36844 0.01749 0.0
H180 H 0.61187 0.36282 0.92815 0.0
C181 C 0.5626 0.41497 0.01579 0.0
C182 C 0.56972 0.44412 0.02842 0.0
C183 C 0.5829 0.39692 0.99744 0.0
C184 C 0.63194 0.36468 0.95303 0.0
H185 H 0.75812 0.28769 0.05278 0.0
H186 H 0.7136 0.31729 0.05556 0.0
H187 H 0.65182 0.32726 0.92419 0.0
H188 H 0.60222 0.47811 0.02878 0.0
H189 H 0.63779 0.44665 0.99648 0.0
H190 H 0.66416 0.40561 0.04653 0.0
C191 C 0.72082 0.31307 0.02214 0.0
C192 C 0.65473 0.3444 0.95084 0.0
C193 C 0.74611 0.29608 0.02062 0.0
C194 C 0.5961 0.45582 0.01835 0.0
C195 C 0.61654 0.43774 0.00048 0.0
C196 C 0.66132 0.38885 0.01925 0.0
C197 C 0.70544 0.3251 0.98104 0.0
C198 C 0.68082 0.34599 0.98333 0.0
C199 C 0.61076 0.40776 0.99239 0.0
C200 C 0.63516 0.38721 0.98713 0.0
H201 H 0.74825 0.29816 0.90362 0.0
H202 H 0.70396 0.32796 0.90609 0.0
H203 H 0.70377 0.37045 0.04263 0.0
H204 H 0.54259 0.40543 0.02432 0.0
H205 H 0.57795 0.37389 0.99169 0.0
C206 C 0.18091 0.84157 0.18969 0.0
C207 C 0.1905 0.85942 0.15612 0.0
C208 C 0.17081 0.85399 0.22881 0.0
C209 C 0.16559 0.92185 0.29967 0.0
H210 H 0.08991 0.88938 0.31444 0.0
C211 C 0.08072 0.97602 0.40798 0.0
C212 C 0.06339 0.95666 0.42912 0.0
C213 C 0.10148 0.96507 0.38097 0.0
C214 C 0.11127 0.89844 0.31155 0.0
H215 H 0.19936 0.90418 0.1394 0.0
H216 H 0.18137 0.9259 0.20767 0.0
H217 H 0.11714 0.8682 0.25663 0.0
H218 H 0.05601 0.91117 0.44281 0.0
H219 H 0.09275 0.89221 0.39779 0.0
H220 H 0.15919 0.95247 0.35464 0.0
C221 C 0.18165 0.90231 0.20363 0.0
C222 C 0.12691 0.88625 0.27828 0.0
C223 C 0.19173 0.88987 0.16436 0.0
C224 C 0.06889 0.92653 0.42639 0.0
C225 C 0.08976 0.91568 0.40023 0.0
C226 C 0.14988 0.93408 0.33339 0.0
C227 C 0.17004 0.88453 0.23533 0.0
C228 C 0.15433 0.89761 0.27206 0.0
C229 C 0.10525 0.93466 0.37523 0.0
C230 C 0.12261 0.9223 0.33993 0.0
H231 H 0.17947 0.81809 0.18436 0.0
H232 H 0.16244 0.83968 0.25305 0.0
H233 H 0.18665 0.93114 0.29552 0.0
H234 H 0.07673 -0.00063 0.40945 0.0
H235 H 0.11312 0.98028 0.36225 0.0
C236 C 0.66565 0.64036 0.66867 0.0
C237 C 0.65951 0.67053 0.66732 0.0
C238 C 0.65926 0.62368 0.70586 0.0
C239 C 0.6435 0.63137 0.82744 0.0
H240 H 0.60031 0.55891 0.80085 0.0
C241 C 0.55709 0.59209 0.93215 0.0
C242 C 0.55413 0.56224 0.94029 0.0
C243 C 0.57841 0.60168 0.90659 0.0
C244 C 0.61303 0.5787 0.80907 0.0
H245 H 0.64086 0.70659 0.70309 0.0
H246 H 0.62975 0.67768 0.76756 0.0
H247 H 0.62089 0.58283 0.73844 0.0
H248 H 0.57162 0.51893 0.92992 0.0
H249 H 0.60876 0.53574 0.88344 0.0
H250 H 0.63415 0.62813 0.89735 0.0
C251 C 0.64022 0.66697 0.74065 0.0
C252 C 0.62474 0.59246 0.7733 0.0
C253 C 0.64652 0.68355 0.70358 0.0
C254 C 0.57375 0.54211 0.9243 0.0
C255 C 0.59479 0.55168 0.8976 0.0
C256 C 0.63172 0.61771 0.86304 0.0
C257 C 0.64668 0.63689 0.74245 0.0
C258 C 0.63904 0.61956 0.78172 0.0
C259 C 0.59684 0.58154 0.88776 0.0
C260 C 0.61537 0.59187 0.85376 0.0
H261 H 0.67586 0.62975 0.64138 0.0
H262 H 0.66449 0.60055 0.7063 0.0
H263 H 0.65507 0.65186 0.83528 0.0
H264 H 0.54212 0.60796 0.9441 0.0
H265 H 0.5792 0.62476 0.89914 0.0
C266 C 0.83433 0.15893 0.09602 0.0
C267 C 0.84172 0.1875 0.08544 0.0
C268 C 0.84372 0.14772 0.14026 0.0
C269 C 0.90324 0.15539 0.23914 0.0
H270 H 0.85635 0.09924 0.2939 0.0
C271 C 0.95011 0.08293 0.39753 0.0
C272 C 0.94365 0.05306 0.38929 0.0
C273 C 0.9359 0.10411 0.36753 0.0
C274 C 0.8697 0.11497 0.27917 0.0
H275 H 0.86391 0.22714 0.11353 0.0
H276 H 0.88027 0.20751 0.19134 0.0
H277 H 0.83343 0.12847 0.2287 0.0
H278 H 0.91699 0.02219 0.34325 0.0
H279 H 0.89255 0.05877 0.29164 0.0
H280 H 0.93977 0.14102 0.28882 0.0
C281 C 0.86732 0.19377 0.16514 0.0
C282 C 0.85659 0.13168 0.24179 0.0
C283 C 0.85772 0.20508 0.12078 0.0
C284 C 0.92255 0.04494 0.35084 0.0
C285 C 0.90829 0.06597 0.32136 0.0
C286 C 0.91638 0.13866 0.27674 0.0
C287 C 0.86082 0.16477 0.17512 0.0
C288 C 0.87343 0.15127 0.22015 0.0
C289 C 0.91474 0.09578 0.32923 0.0
C290 C 0.89997 0.11748 0.29591 0.0
H291 H 0.82187 0.14494 0.0696 0.0
H292 H 0.83861 0.12519 0.14646 0.0
H293 H 0.91688 0.17021 0.22317 0.0
H294 H 0.96625 0.08992 0.42684 0.0
H295 H 0.94131 0.12696 0.3744 0.0
C296 C 0.34537 0.38827 0.60216 0.0
C297 C 0.32945 0.36229 0.5909 0.0
C298 C 0.36206 0.39251 0.64608 0.0
C299 C 0.36828 0.37241 0.76776 0.0
H300 H 0.44441 0.40988 0.77484 0.0
C301 C 0.41484 0.45445 0.90967 0.0
C302 C 0.44537 0.45712 0.923 0.0
C303 C 0.40334 0.43306 0.87716 0.0
C304 C 0.42356 0.39877 0.77377 0.0
H305 H 0.31804 0.32064 0.61772 0.0
H306 H 0.34698 0.32844 0.69546 0.0
H307 H 0.41922 0.39168 0.6998 0.0
H308 H 0.48791 0.43862 0.91543 0.0
H309 H 0.46778 0.40124 0.85726 0.0
H310 H 0.37208 0.38079 0.84155 0.0
C311 C 0.34665 0.3453 0.66967 0.0
C312 C 0.40896 0.38868 0.73066 0.0
C313 C 0.33002 0.34091 0.6253 0.0
C314 C 0.46425 0.43677 0.90578 0.0
C315 C 0.45274 0.41558 0.8724 0.0
C316 C 0.38284 0.38268 0.81097 0.0
C317 C 0.36312 0.37102 0.68021 0.0
C318 C 0.38069 0.37644 0.72693 0.0
C319 C 0.4222 0.41421 0.85661 0.0
C320 C 0.41014 0.39695 0.81409 0.0
H321 H 0.34472 0.40562 0.57712 0.0
H322 H 0.3738 0.41294 0.6536 0.0
H323 H 0.34653 0.36304 0.76593 0.0
H324 H 0.3999 0.46996 0.92261 0.0
H325 H 0.37979 0.43285 0.86548 0.0
C326 C 0.64516 0.70581 0.46213 0.0
C327 C 0.65852 0.68631 0.4961 0.0
C328 C 0.63285 0.69551 0.41758 0.0
C329 C 0.59707 0.63074 0.36296 0.0
H330 H 0.61105 0.66051 0.24383 0.0
C331 C 0.5325 0.58612 0.19225 0.0
C332 C 0.55136 0.57251 0.16456 0.0
C333 C 0.54374 0.6062 0.22746 0.0
C334 C 0.60677 0.65228 0.27694 0.0
H335 H 0.6714 0.64106 0.50841 0.0
H336 H 0.64924 0.62312 0.43127 0.0
H337 H 0.63659 0.68263 0.317 0.0
H338 H 0.59595 0.57029 0.14912 0.0
H339 H 0.61547 0.6063 0.20956 0.0
H340 H 0.56749 0.60035 0.32345 0.0
C341 C 0.64807 0.64629 0.43938 0.0
C342 C 0.62133 0.66486 0.31862 0.0
C343 C 0.66066 0.65658 0.48357 0.0
C344 C 0.58102 0.58088 0.16986 0.0
C345 C 0.59213 0.60143 0.20436 0.0
C346 C 0.58215 0.6186 0.32154 0.0
C347 C 0.63341 0.66552 0.40639 0.0
C348 C 0.61701 0.65376 0.36195 0.0
C349 C 0.57388 0.61324 0.23484 0.0
C350 C 0.58714 0.62894 0.27812 0.0
H351 H 0.64288 0.7288 0.47063 0.0
H352 H 0.62161 0.71074 0.39271 0.0
H353 H 0.59316 0.62197 0.39594 0.0
H354 H 0.50963 0.57958 0.18906 0.0
H355 H 0.52924 0.61504 0.25054 0.0
C356 C 0.8749 0.15819 0.92117 0.0
C357 C 0.84677 0.17104 0.91554 0.0
C358 C 0.88464 0.14303 0.88405 0.0
C359 C 0.86119 0.10559 0.7709 0.0
H360 H 0.93965 0.12598 0.74876 0.0
C361 C 0.91555 0.07122 0.60654 0.0
C362 C 0.9451 0.06245 0.61691 0.0
C363 C 0.90051 0.08146 0.64248 0.0
C364 C 0.9178 0.11984 0.75474 0.0
H365 H 0.80631 0.17716 0.86744 0.0
H366 H 0.82333 0.15031 0.80233 0.0
H367 H 0.91924 0.14972 0.81272 0.0
H368 H 0.98197 0.0564 0.67201 0.0
H369 H 0.95598 0.07427 0.73444 0.0
H370 H 0.85998 0.07565 0.71238 0.0
C371 C 0.83782 0.15209 0.83545 0.0
C372 C 0.90614 0.13341 0.7914 0.0
C373 C 0.82818 0.16758 0.87252 0.0
C374 C 0.95903 0.06279 0.66346 0.0
C375 C 0.94426 0.07325 0.69902 0.0
C376 C 0.87293 0.09193 0.73397 0.0
C377 C 0.86638 0.14018 0.8406 0.0
C378 C 0.87791 0.12617 0.80035 0.0
C379 C 0.91518 0.08356 0.68881 0.0
C380 C 0.90156 0.09865 0.72606 0.0
H381 H 0.88976 0.16072 0.95382 0.0
H382 H 0.90666 0.13382 0.88917 0.0
H383 H 0.83936 0.09958 0.77709 0.0
H384 H 0.9046 0.07141 0.57068 0.0
H385 H 0.87808 0.08929 0.63373 0.0
C386 C 0.3189 0.36345 0.37728 0.0
C387 C 0.31983 0.37926 0.41957 0.0
C388 C 0.33159 0.37492 0.34059 0.0
C389 C 0.38617 0.43054 0.31903 0.0
H390 H 0.35306 0.41803 0.18877 0.0
C391 C 0.43317 0.48885 0.17486 0.0
C392 C 0.44437 0.46923 0.14413 0.0
C393 C 0.41332 0.47915 0.20322 0.0
C394 C 0.36239 0.4217 0.22506 0.0
H395 H 0.33339 0.41988 0.45605 0.0
H396 H 0.35471 0.44026 0.39198 0.0
H397 H 0.32797 0.3981 0.25006 0.0
H398 H 0.44272 0.42491 0.11633 0.0
H399 H 0.40701 0.4081 0.16487 0.0
H400 H 0.4203 0.45441 0.29409 0.0
C401 C 0.34518 0.41861 0.38738 0.0
C402 C 0.34824 0.41013 0.26014 0.0
C403 C 0.33286 0.40702 0.42409 0.0
C404 C 0.43394 0.44041 0.13951 0.0
C405 C 0.41362 0.43084 0.1672 0.0
C406 C 0.39997 0.44242 0.28414 0.0
C407 C 0.34515 0.40256 0.34541 0.0
C408 C 0.35995 0.4145 0.30761 0.0
C409 C 0.40415 0.44982 0.20067 0.0
C410 C 0.38821 0.43819 0.23691 0.0
H411 H 0.30906 0.34191 0.37307 0.0
H412 H 0.33142 0.36181 0.309 0.0
H413 H 0.39637 0.43363 0.35503 0.0
H414 H 0.44138 0.51105 0.17935 0.0
H415 H 0.40624 0.49416 0.22879 0.0
C416 C 0.15119 0.84413 0.94622 0.0
C417 C 0.16843 0.86064 0.98167 0.0
C418 C 0.13698 0.85759 0.90599 0.0
C419 C 0.10902 0.92917 0.86412 0.0
H420 H 0.10965 0.89564 0.74014 0.0
C421 C 0.07102 0.9959 0.70158 0.0
C422 C 0.05437 0.98219 0.6625 0.0
C423 C 0.08453 0.97954 0.73891 0.0
C424 C 0.10892 0.90507 0.77456 0.0
H425 H 0.18493 0.90405 0.00201 0.0
H426 H 0.16001 0.92756 0.932 0.0
H427 H 0.13424 0.8699 0.80858 0.0
H428 H 0.03921 0.94041 0.63156 0.0
H429 H 0.0624 0.9116 0.69779 0.0
H430 H 0.08361 0.96414 0.83069 0.0
C431 C 0.15715 0.90427 0.93563 0.0
C432 C 0.12306 0.89037 0.81371 0.0
C433 C 0.17141 0.89082 0.97573 0.0
C434 C 0.05194 0.95156 0.66123 0.0
C435 C 0.0653 0.93509 0.69906 0.0
C436 C 0.09478 0.94372 0.82519 0.0
C437 C 0.1396 0.88785 0.90049 0.0
C438 C 0.12362 0.90253 0.85884 0.0
C439 C 0.08148 0.94899 0.73858 0.0
C440 C 0.09497 0.93215 0.77985 0.0
H441 H 0.14813 0.82089 0.95 0.0
H442 H 0.12335 0.84444 0.87973 0.0
H443 H 0.10849 0.93876 0.8985 0.0
H444 H 0.07375 0.01943 0.70338 0.0
H445 H 0.09749 0.99093 0.7681 0.0
loop_
_geom_bond_atom_site_label_1
_geom_bond_atom_site_label_2
_geom_bond_distance
_geom_bond_site_symmetry_2
_ccdc_geom_bond_type
H0 C3 0.929 . S
H1 C6 0.929 . S
H2 C8 0.930 1_556 S
C3 H0 0.929 . S
C3 C4 1.398 . S
C3 C5 1.396 . S
C4 C3 1.398 . S
C4 C8 1.407 . S
C5 C3 1.396 . S
C5 C6 1.394 . S
C6 H1 0.929 . S
C6 C5 1.394 . S
C6 C7 1.382 . S
C7 C6 1.382 . S
C7 C8 1.392 . S
C7 N9 1.420 . S
C8 H2 0.930 1_554 S
C8 C4 1.407 . S
C8 C7 1.392 . S
N9 C7 1.420 . S
N9 C10 1.244 . S
C10 N9 1.244 . S
H11 C14 0.929 . S
H12 C17 0.929 . S
H13 C19 0.930 . S
C14 H11 0.929 . S
C14 C15 1.398 . S
C14 C16 1.396 . S
C15 C14 1.398 . S
C15 C19 1.407 . S
C16 C14 1.396 . S
C16 C17 1.394 . S
C17 H12 0.929 . S
C17 C16 1.394 . S
C17 C18 1.382 . S
C18 C17 1.382 . S
C18 C19 1.392 . S
C18 N20 1.420 . S
C19 H13 0.930 . S
C19 C15 1.407 . S
C19 C18 1.392 . S
N20 C18 1.420 . S
N20 C21 1.244 . S
C21 N20 1.244 . S
H22 C25 0.929 . S
H23 C28 0.929 . S
H24 C30 0.930 . S
C25 H22 0.929 . S
C25 C26 1.398 1_554 S
C25 C27 1.396 . S
C26 C25 1.398 1_556 S
C26 C30 1.407 . S
C27 C25 1.396 . S
C27 C28 1.394 . S
C28 H23 0.929 . S
C28 C27 1.394 . S
C28 C29 1.382 1_554 S
C29 C28 1.382 1_556 S
C29 C30 1.392 . S
C29 N31 1.420 . S
C30 H24 0.930 . S
C30 C26 1.407 . S
C30 C29 1.392 . S
N31 C29 1.420 . S
N31 C32 1.244 1_556 S
C32 N31 1.244 1_554 S
H33 C36 0.929 . S
H34 C39 0.929 . S
H35 C41 0.930 . S
C36 H33 0.929 . S
C36 C37 1.398 . S
C36 C38 1.396 . S
C37 C36 1.398 . S
C37 C41 1.407 . S
C38 C36 1.396 . S
C38 C39 1.394 . S
C39 H34 0.929 . S
C39 C38 1.394 . S
C39 C40 1.382 . S
C40 C39 1.382 . S
C40 C41 1.392 . S
C40 N42 1.420 . S
C41 H35 0.930 . S
C41 C37 1.407 . S
C41 C40 1.392 . S
N42 C40 1.420 . S
N42 C43 1.244 . S
C43 N42 1.244 . S
O44 Mg45 1.990 . S
O44 C58 1.253 1_455 S
Mg45 O44 1.990 . S
Mg45 O48 2.180 . S
Mg45 O49 2.117 . S
Mg45 O63 2.030 . S
O46 Mg47 2.072 1_655 S
O46 C58 1.260 . S
Mg47 O46 2.072 1_455 S
Mg47 O48 2.099 . S
Mg47 O50 2.079 1_545 S
Mg47 O51 2.072 1_455 S
Mg47 O53 2.099 1_445 S
Mg47 O64 2.079 1_545 S
O48 Mg45 2.180 . S
O48 Mg47 2.099 . S
O48 C59 1.279 . S
O49 Mg45 2.117 . S
O49 C59 1.250 . S
O50 Mg47 2.079 1_565 S
O50 C60 1.264 . S
O51 Mg47 2.072 1_655 S
O51 C61 1.260 . S
Mg52 O53 2.180 . S
Mg52 O54 2.030 1_655 S
Mg52 O55 1.990 1_565 S
Mg52 O56 2.117 . S
O53 Mg47 2.099 1_665 S
O53 Mg52 2.180 . S
O53 C62 1.279 . S
O54 Mg52 2.030 1_455 S
O54 C60 1.248 . S
O55 Mg52 1.990 1_545 S
O55 C61 1.253 . S
O56 Mg52 2.117 . S
O56 C62 1.250 . S
C57 O63 1.248 1_565 S
C57 O64 1.264 . S
C58 O44 1.253 1_655 S
C58 O46 1.260 . S
C59 O48 1.279 . S
C59 O49 1.250 . S
C60 O50 1.264 . S
C60 O54 1.248 . S
C61 O51 1.260 . S
C61 O55 1.253 . S
C62 O53 1.279 . S
C62 O56 1.250 . S
O63 Mg45 2.030 . S
O63 C57 1.248 1_545 S
O64 Mg47 2.079 1_565 S
O64 C57 1.264 . S
O65 Mg66 1.990 . S
O65 C79 1.253 . S
Mg66 O65 1.990 . S
Mg66 O69 2.180 . S
Mg66 O70 2.117 . S
Mg66 O84 2.030 . S
O67 Mg68 2.072 . S
O67 C79 1.260 . S
Mg68 O67 2.072 . S
Mg68 O69 2.099 . S
Mg68 O71 2.079 1_554 S
Mg68 O72 2.072 . S
Mg68 O74 2.099 . S
Mg68 O85 2.079 . S
O69 Mg66 2.180 . S
O69 Mg68 2.099 . S
O69 C80 1.279 . S
O70 Mg66 2.117 . S
O70 C80 1.250 . S
O71 Mg68 2.079 1_556 S
O71 C81 1.264 . S
O72 Mg68 2.072 . S
O72 C82 1.260 1_554 S
Mg73 O74 2.180 1_556 S
Mg73 O75 2.030 . S
Mg73 O76 1.990 . S
Mg73 O77 2.117 1_556 S
O74 Mg68 2.099 . S
O74 Mg73 2.180 1_554 S
O74 C83 1.279 . S
O75 Mg73 2.030 . S
O75 C81 1.248 . S
O76 Mg73 1.990 . S
O76 C82 1.253 . S
O77 Mg73 2.117 1_554 S
O77 C83 1.250 . S
C78 O84 1.248 . S
C78 O85 1.264 . S
C79 O65 1.253 . S
C79 O67 1.260 . S
C80 O69 1.279 . S
C80 O70 1.250 . S
C81 O71 1.264 . S
C81 O75 1.248 . S
C82 O72 1.260 1_556 S
C82 O76 1.253 . S
C83 O74 1.279 . S
C83 O77 1.250 . S
O84 Mg66 2.030 . S
O84 C78 1.248 . S
O85 Mg68 2.079 . S
O85 C78 1.264 . S
C86 C87 1.349 . S
C86 C88 1.327 . S
C86 H111 0.950 . S
C87 C86 1.349 . S
C87 C103 1.349 . S
C88 C86 1.327 . S
C88 C107 1.429 . S
C88 H112 0.950 . S
C89 C106 1.574 . S
C89 C108 1.368 . S
C89 H113 0.949 . S
H90 C94 0.949 . S
C91 C92 1.349 . S
C91 C93 1.327 . S
C91 H114 0.950 . S
C92 C91 1.349 . S
C92 C104 1.349 . S
C93 C91 1.327 . S
C93 C109 1.429 . S
C93 H115 0.950 . S
C94 H90 0.949 . S
C94 C102 1.574 . S
C94 C110 1.368 . S
H95 C103 0.950 . S
H96 C101 0.950 . S
H97 C102 0.949 . S
H98 C104 0.950 . S
H99 C105 0.950 . S
H100 C106 0.949 . S
C101 H96 0.950 . S
C101 C103 1.327 . S
C101 C107 1.429 . S
C102 C94 1.574 . S
C102 H97 0.949 . S
C102 C108 1.368 . S
C103 C87 1.349 . S
C103 H95 0.950 . S
C103 C101 1.327 . S
C104 C92 1.349 . S
C104 H98 0.950 . S
C104 C105 1.327 . S
C105 H99 0.950 . S
C105 C104 1.327 . S
C105 C109 1.429 . S
C106 C89 1.574 . S
C106 H100 0.949 . S
C106 C110 1.368 . S
C107 C88 1.429 . S
C107 C101 1.429 . S
C107 C108 1.523 . S
C108 C89 1.368 . S
C108 C102 1.368 . S
C108 C107 1.523 . S
C109 C93 1.429 . S
C109 C105 1.429 . S
C109 C110 1.523 . S
C110 C94 1.368 . S
C110 C106 1.368 . S
C110 C109 1.523 . S
H111 C86 0.950 . S
H112 C88 0.950 . S
H113 C89 0.949 . S
H114 C91 0.950 . S
H115 C93 0.950 . S
C116 C117 1.349 . S
C116 C118 1.327 . S
C116 H141 0.950 . S
C117 C116 1.349 . S
C117 C133 1.349 . S
C118 C116 1.327 . S
C118 C137 1.429 . S
C118 H142 0.950 . S
C119 C136 1.574 . S
C119 C138 1.368 . S
C119 H143 0.949 . S
H120 C124 0.949 . S
C121 C122 1.349 . S
C121 C123 1.327 . S
C121 H144 0.950 . S
C122 C121 1.349 . S
C122 C134 1.349 . S
C123 C121 1.327 . S
C123 C139 1.429 . S
C123 H145 0.950 . S
C124 H120 0.949 . S
C124 C132 1.574 . S
C124 C140 1.368 . S
H125 C133 0.950 . S
H126 C131 0.950 . S
H127 C132 0.949 . S
H128 C134 0.950 . S
H129 C135 0.950 . S
H130 C136 0.949 . S
C131 H126 0.950 . S
C131 C133 1.327 . S
C131 C137 1.429 . S
C132 C124 1.574 . S
C132 H127 0.949 . S
C132 C138 1.368 . S
C133 C117 1.349 . S
C133 H125 0.950 . S
C133 C131 1.327 . S
C134 C122 1.349 . S
C134 H128 0.950 . S
C134 C135 1.327 . S
C135 H129 0.950 . S
C135 C134 1.327 . S
C135 C139 1.429 . S
C136 C119 1.574 . S
C136 H130 0.949 . S
C136 C140 1.368 . S
C137 C118 1.429 . S
C137 C131 1.429 . S
C137 C138 1.523 . S
C138 C119 1.368 . S
C138 C132 1.368 . S
C138 C137 1.523 . S
C139 C123 1.429 . S
C139 C135 1.429 . S
C139 C140 1.523 . S
C140 C124 1.368 . S
C140 C136 1.368 . S
C140 C139 1.523 . S
H141 C116 0.950 . S
H142 C118 0.950 . S
H143 C119 0.949 . S
H144 C121 0.950 . S
H145 C123 0.950 . S
C146 C147 1.349 . S
C146 C148 1.327 . S
C146 H171 0.950 . S
C147 C146 1.349 . S
C147 C163 1.349 . S
C148 C146 1.327 . S
C148 C167 1.429 . S
C148 H172 0.950 . S
C149 C166 1.574 . S
C149 C168 1.368 . S
C149 H173 0.949 . S
H150 C154 0.949 . S
C151 C152 1.349 . S
C151 C153 1.327 . S
C151 H174 0.950 . S
C152 C151 1.349 . S
C152 C164 1.349 . S
C153 C151 1.327 . S
C153 C169 1.429 . S
C153 H175 0.950 . S
C154 H150 0.949 . S
C154 C162 1.574 . S
C154 C170 1.368 . S
H155 C163 0.950 . S
H156 C161 0.950 . S
H157 C162 0.949 . S
H158 C164 0.950 . S
H159 C165 0.950 . S
H160 C166 0.949 . S
C161 H156 0.950 . S
C161 C163 1.327 . S
C161 C167 1.429 . S
C162 C154 1.574 . S
C162 H157 0.949 . S
C162 C168 1.368 . S
C163 C147 1.349 . S
C163 H155 0.950 . S
C163 C161 1.327 . S
C164 C152 1.349 . S
C164 H158 0.950 . S
C164 C165 1.327 . S
C165 H159 0.950 . S
C165 C164 1.327 . S
C165 C169 1.429 . S
C166 C149 1.574 . S
C166 H160 0.949 . S
C166 C170 1.368 . S
C167 C148 1.429 . S
C167 C161 1.429 . S
C167 C168 1.523 . S
C168 C149 1.368 . S
C168 C162 1.368 . S
C168 C167 1.523 . S
C169 C153 1.429 . S
C169 C165 1.429 . S
C169 C170 1.523 . S
C170 C154 1.368 . S
C170 C166 1.368 . S
C170 C169 1.523 . S
H171 C146 0.950 . S
H172 C148 0.950 . S
H173 C149 0.949 . S
H174 C151 0.950 . S
H175 C153 0.950 . S
C176 C177 1.349 1_556 S
C176 C178 1.327 . S
C176 H201 0.950 . S
C177 C176 1.349 1_554 S
C177 C193 1.349 . S
C178 C176 1.327 . S
C178 C197 1.429 1_556 S
C178 H202 0.950 . S
C179 C196 1.574 . S
C179 C198 1.368 . S
C179 H203 0.949 . S
H180 C184 0.949 . S
C181 C182 1.349 . S
C181 C183 1.327 . S
C181 H204 0.950 . S
C182 C181 1.349 . S
C182 C194 1.349 1_554 S
C183 C181 1.327 . S
C183 C199 1.429 . S
C183 H205 0.950 . S
C184 H180 0.949 . S
C184 C192 1.574 . S
C184 C200 1.368 1_556 S
H185 C193 0.950 . S
H186 C191 0.950 . S
H187 C192 0.949 . S
H188 C194 0.950 . S
H189 C195 0.950 . S
H190 C196 0.949 . S
C191 H186 0.950 . S
C191 C193 1.327 . S
C191 C197 1.429 . S
C192 C184 1.574 . S
C192 H187 0.949 . S
C192 C198 1.368 1_556 S
C193 C177 1.349 . S
C193 H185 0.950 . S
C193 C191 1.327 . S
C194 C182 1.349 1_556 S
C194 H188 0.950 . S
C194 C195 1.327 . S
C195 H189 0.950 . S
C195 C194 1.327 . S
C195 C199 1.429 1_556 S
C196 C179 1.574 . S
C196 H190 0.949 . S
C196 C200 1.368 . S
C197 C178 1.429 1_554 S
C197 C191 1.429 . S
C197 C198 1.523 . S
C198 C179 1.368 . S
C198 C192 1.368 1_554 S
C198 C197 1.523 . S
C199 C183 1.429 . S
C199 C195 1.429 1_554 S
C199 C200 1.523 . S
C200 C184 1.368 1_554 S
C200 C196 1.368 . S
C200 C199 1.523 . S
H201 C176 0.950 . S
H202 C178 0.950 . S
H203 C179 0.949 . S
H204 C181 0.950 . S
H205 C183 0.950 . S
C206 C207 1.349 . S
C206 C208 1.327 . S
C206 H231 0.950 . S
C207 C206 1.349 . S
C207 C223 1.349 . S
C208 C206 1.327 . S
C208 C227 1.429 . S
C208 H232 0.950 . S
C209 C226 1.574 . S
C209 C228 1.368 . S
C209 H233 0.949 . S
H210 C214 0.949 . S
C211 C212 1.349 . S
C211 C213 1.327 . S
C211 H234 0.930 1_565 S
C212 C211 1.349 . S
C212 C224 1.349 . S
C213 C211 1.327 . S
C213 C229 1.429 . S
C213 H235 0.950 . S
C214 H210 0.949 . S
C214 C222 1.574 . S
C214 C230 1.368 . S
H215 C223 0.950 . S
H216 C221 0.950 . S
H217 C222 0.949 . S
H218 C224 0.950 . S
H219 C225 0.950 . S
H220 C226 0.949 . S
C221 H216 0.950 . S
C221 C223 1.327 . S
C221 C227 1.429 . S
C222 C214 1.574 . S
C222 H217 0.949 . S
C222 C228 1.368 . S
C223 C207 1.349 . S
C223 H215 0.950 . S
C223 C221 1.327 . S
C224 C212 1.349 . S
C224 H218 0.950 . S
C224 C225 1.327 . S
C225 H219 0.950 . S
C225 C224 1.327 . S
C225 C229 1.429 . S
C226 C209 1.574 . S
C226 H220 0.949 . S
C226 C230 1.368 . S
C227 C208 1.429 . S
C227 C221 1.429 . S
C227 C228 1.523 . S
C228 C209 1.368 . S
C228 C222 1.368 . S
C228 C227 1.523 . S
C229 C213 1.429 . S
C229 C225 1.429 . S
C229 C230 1.523 . S
C230 C214 1.368 . S
C230 C226 1.368 . S
C230 C229 1.523 . S
H231 C206 0.950 . S
H232 C208 0.950 . S
H233 C209 0.949 . S
H234 C211 0.930 1_545 S
H235 C213 0.950 . S
C236 C237 1.349 . S
C236 C238 1.327 . S
C236 H261 0.950 . S
C237 C236 1.349 . S
C237 C253 1.349 . S
C238 C236 1.327 . S
C238 C257 1.429 . S
C238 H262 0.950 . S
C239 C256 1.574 . S
C239 C258 1.368 . S
C239 H263 0.949 . S
H240 C244 0.949 . S
C241 C242 1.349 . S
C241 C243 1.327 . S
C241 H264 0.950 . S
C242 C241 1.349 . S
C242 C254 1.349 . S
C243 C241 1.327 . S
C243 C259 1.429 . S
C243 H265 0.950 . S
C244 H240 0.949 . S
C244 C252 1.574 . S
C244 C260 1.368 . S
H245 C253 0.950 . S
H246 C251 0.950 . S
H247 C252 0.949 . S
H248 C254 0.950 . S
H249 C255 0.950 . S
H250 C256 0.949 . S
C251 H246 0.950 . S
C251 C253 1.327 . S
C251 C257 1.429 . S
C252 C244 1.574 . S
C252 H247 0.949 . S
C252 C258 1.368 . S
C253 C237 1.349 . S
C253 H245 0.950 . S
C253 C251 1.327 . S
C254 C242 1.349 . S
C254 H248 0.950 . S
C254 C255 1.327 . S
C255 H249 0.950 . S
C255 C254 1.327 . S
C255 C259 1.429 . S
C256 C239 1.574 . S
C256 H250 0.949 . S
C256 C260 1.368 . S
C257 C238 1.429 . S
C257 C251 1.429 . S
C257 C258 1.523 . S
C258 C239 1.368 . S
C258 C252 1.368 . S
C258 C257 1.523 . S
C259 C243 1.429 . S
C259 C255 1.429 . S
C259 C260 1.523 . S
C260 C244 1.368 . S
C260 C256 1.368 . S
C260 C259 1.523 . S
H261 C236 0.950 . S
H262 C238 0.950 . S
H263 C239 0.949 . S
H264 C241 0.950 . S
H265 C243 0.950 . S
C266 C267 1.349 . S
C266 C268 1.327 . S
C266 H291 0.950 . S
C267 C266 1.349 . S
C267 C283 1.349 . S
C268 C266 1.327 . S
C268 C287 1.429 . S
C268 H292 0.950 . S
C269 C286 1.574 . S
C269 C288 1.368 . S
C269 H293 0.949 . S
H270 C274 0.949 . S
C271 C272 1.349 . S
C271 C273 1.327 . S
C271 H294 0.950 . S
C272 C271 1.349 . S
C272 C284 1.349 . S
C273 C271 1.327 . S
C273 C289 1.429 . S
C273 H295 0.950 . S
C274 H270 0.949 . S
C274 C282 1.574 . S
C274 C290 1.368 . S
H275 C283 0.950 . S
H276 C281 0.950 . S
H277 C282 0.949 . S
H278 C284 0.950 . S
H279 C285 0.950 . S
H280 C286 0.949 . S
C281 H276 0.950 . S
C281 C283 1.327 . S
C281 C287 1.429 . S
C282 C274 1.574 . S
C282 H277 0.949 . S
C282 C288 1.368 . S
C283 C267 1.349 . S
C283 H275 0.950 . S
C283 C281 1.327 . S
C284 C272 1.349 . S
C284 H278 0.950 . S
C284 C285 1.327 . S
C285 H279 0.950 . S
C285 C284 1.327 . S
C285 C289 1.429 . S
C286 C269 1.574 . S
C286 H280 0.949 . S
C286 C290 1.368 . S
C287 C268 1.429 . S
C287 C281 1.429 . S
C287 C288 1.523 . S
C288 C269 1.368 . S
C288 C282 1.368 . S
C288 C287 1.523 . S
C289 C273 1.429 . S
C289 C285 1.429 . S
C289 C290 1.523 . S
C290 C274 1.368 . S
C290 C286 1.368 . S
C290 C289 1.523 . S
H291 C266 0.950 . S
H292 C268 0.950 . S
H293 C269 0.949 . S
H294 C271 0.950 . S
H295 C273 0.950 . S
C296 C297 1.349 . S
C296 C298 1.327 . S
C296 H321 0.950 . S
C297 C296 1.349 . S
C297 C313 1.349 . S
C298 C296 1.327 . S
C298 C317 1.429 . S
C298 H322 0.950 . S
C299 C316 1.574 . S
C299 C318 1.368 . S
C299 H323 0.949 . S
H300 C304 0.949 . S
C301 C302 1.349 . S
C301 C303 1.327 . S
C301 H324 0.950 . S
C302 C301 1.349 . S
C302 C314 1.349 . S
C303 C301 1.327 . S
C303 C319 1.429 . S
C303 H325 0.950 . S
C304 H300 0.949 . S
C304 C312 1.574 . S
C304 C320 1.368 . S
H305 C313 0.950 . S
H306 C311 0.950 . S
H307 C312 0.949 . S
H308 C314 0.950 . S
H309 C315 0.950 . S
H310 C316 0.949 . S
C311 H306 0.950 . S
C311 C313 1.327 . S
C311 C317 1.429 . S
C312 C304 1.574 . S
C312 H307 0.949 . S
C312 C318 1.368 . S
C313 C297 1.349 . S
C313 H305 0.950 . S
C313 C311 1.327 . S
C314 C302 1.349 . S
C314 H308 0.950 . S
C314 C315 1.327 . S
C315 H309 0.950 . S
C315 C314 1.327 . S
C315 C319 1.429 . S
C316 C299 1.574 . S
C316 H310 0.949 . S
C316 C320 1.368 . S
C317 C298 1.429 . S
C317 C311 1.429 . S
C317 C318 1.523 . S
C318 C299 1.368 . S
C318 C312 1.368 . S
C318 C317 1.523 . S
C319 C303 1.429 . S
C319 C315 1.429 . S
C319 C320 1.523 . S
C320 C304 1.368 . S
C320 C316 1.368 . S
C320 C319 1.523 . S
H321 C296 0.950 . S
H322 C298 0.950 . S
H323 C299 0.949 . S
H324 C301 0.950 . S
H325 C303 0.950 . S
C326 C327 1.349 . S
C326 C328 1.327 . S
C326 H351 0.950 . S
C327 C326 1.349 . S
C327 C343 1.349 . S
C328 C326 1.327 . S
C328 C347 1.429 . S
C328 H352 0.950 . S
C329 C346 1.574 . S
C329 C348 1.368 . S
C329 H353 0.949 . S
H330 C334 0.949 . S
C331 C332 1.349 . S
C331 C333 1.327 . S
C331 H354 0.950 . S
C332 C331 1.349 . S
C332 C344 1.349 . S
C333 C331 1.327 . S
C333 C349 1.429 . S
C333 H355 0.950 . S
C334 H330 0.949 . S
C334 C342 1.574 . S
C334 C350 1.368 . S
H335 C343 0.950 . S
H336 C341 0.950 . S
H337 C342 0.949 . S
H338 C344 0.950 . S
H339 C345 0.950 . S
H340 C346 0.949 . S
C341 H336 0.950 . S
C341 C343 1.327 . S
C341 C347 1.429 . S
C342 C334 1.574 . S
C342 H337 0.949 . S
C342 C348 1.368 . S
C343 C327 1.349 . S
C343 H335 0.950 . S
C343 C341 1.327 . S
C344 C332 1.349 . S
C344 H338 0.950 . S
C344 C345 1.327 . S
C345 H339 0.950 . S
C345 C344 1.327 . S
C345 C349 1.429 . S
C346 C329 1.574 . S
C346 H340 0.949 . S
C346 C350 1.368 . S
C347 C328 1.429 . S
C347 C341 1.429 . S
C347 C348 1.523 . S
C348 C329 1.368 . S
C348 C342 1.368 . S
C348 C347 1.523 . S
C349 C333 1.429 . S
C349 C345 1.429 . S
C349 C350 1.523 . S
C350 C334 1.368 . S
C350 C346 1.368 . S
C350 C349 1.523 . S
H351 C326 0.950 . S
H352 C328 0.950 . S
H353 C329 0.949 . S
H354 C331 0.950 . S
H355 C333 0.950 . S
C356 C357 1.349 . S
C356 C358 1.327 . S
C356 H381 0.950 . S
C357 C356 1.349 . S
C357 C373 1.349 . S
C358 C356 1.327 . S
C358 C377 1.429 . S
C358 H382 0.950 . S
C359 C376 1.574 . S
C359 C378 1.368 . S
C359 H383 0.949 . S
H360 C364 0.949 . S
C361 C362 1.349 . S
C361 C363 1.327 . S
C361 H384 0.950 . S
C362 C361 1.349 . S
C362 C374 1.349 . S
C363 C361 1.327 . S
C363 C379 1.429 . S
C363 H385 0.950 . S
C364 H360 0.949 . S
C364 C372 1.574 . S
C364 C380 1.368 . S
H365 C373 0.950 . S
H366 C371 0.950 . S
H367 C372 0.949 . S
H368 C374 0.950 . S
H369 C375 0.950 . S
H370 C376 0.949 . S
C371 H366 0.950 . S
C371 C373 1.327 . S
C371 C377 1.429 . S
C372 C364 1.574 . S
C372 H367 0.949 . S
C372 C378 1.368 . S
C373 C357 1.349 . S
C373 H365 0.950 . S
C373 C371 1.327 . S
C374 C362 1.349 . S
C374 H368 0.950 . S
C374 C375 1.327 . S
C375 H369 0.950 . S
C375 C374 1.327 . S
C375 C379 1.429 . S
C376 C359 1.574 . S
C376 H370 0.949 . S
C376 C380 1.368 . S
C377 C358 1.429 . S
C377 C371 1.429 . S
C377 C378 1.523 . S
C378 C359 1.368 . S
C378 C372 1.368 . S
C378 C377 1.523 . S
C379 C363 1.429 . S
C379 C375 1.429 . S
C379 C380 1.523 . S
C380 C364 1.368 . S
C380 C376 1.368 . S
C380 C379 1.523 . S
H381 C356 0.950 . S
H382 C358 0.950 . S
H383 C359 0.949 . S
H384 C361 0.950 . S
H385 C363 0.950 . S
C386 C387 1.349 . S
C386 C388 1.327 . S
C386 H411 0.950 . S
C387 C386 1.349 . S
C387 C403 1.349 . S
C388 C386 1.327 . S
C388 C407 1.429 . S
C388 H412 0.950 . S
C389 C406 1.574 . S
C389 C408 1.368 . S
C389 H413 0.949 . S
H390 C394 0.949 . S
C391 C392 1.349 . S
C391 C393 1.327 . S
C391 H414 0.950 . S
C392 C391 1.349 . S
C392 C404 1.349 . S
C393 C391 1.327 . S
C393 C409 1.429 . S
C393 H415 0.950 . S
C394 H390 0.949 . S
C394 C402 1.574 . S
C394 C410 1.368 . S
H395 C403 0.950 . S
H396 C401 0.950 . S
H397 C402 0.949 . S
H398 C404 0.950 . S
H399 C405 0.950 . S
H400 C406 0.949 . S
C401 H396 0.950 . S
C401 C403 1.327 . S
C401 C407 1.429 . S
C402 C394 1.574 . S
C402 H397 0.949 . S
C402 C408 1.368 . S
C403 C387 1.349 . S
C403 H395 0.950 . S
C403 C401 1.327 . S
C404 C392 1.349 . S
C404 H398 0.950 . S
C404 C405 1.327 . S
C405 H399 0.950 . S
C405 C404 1.327 . S
C405 C409 1.429 . S
C406 C389 1.574 . S
C406 H400 0.949 . S
C406 C410 1.368 . S
C407 C388 1.429 . S
C407 C401 1.429 . S
C407 C408 1.523 . S
C408 C389 1.368 . S
C408 C402 1.368 . S
C408 C407 1.523 . S
C409 C393 1.429 . S
C409 C405 1.429 . S
C409 C410 1.523 . S
C410 C394 1.368 . S
C410 C406 1.368 . S
C410 C409 1.523 . S
H411 C386 0.950 . S
H412 C388 0.950 . S
H413 C389 0.949 . S
H414 C391 0.950 . S
H415 C393 0.950 . S
C416 C417 1.349 . S
C416 C418 1.327 . S
C416 H441 0.950 . S
C417 C416 1.349 . S
C417 C433 1.349 . S
C418 C416 1.327 . S
C418 C437 1.429 . S
C418 H442 0.950 . S
C419 C436 1.574 . S
C419 C438 1.368 . S
C419 H443 0.949 . S
H420 C424 0.949 . S
C421 C422 1.349 . S
C421 C423 1.327 . S
C421 H444 0.950 1_565 S
C422 C421 1.349 . S
C422 C434 1.349 . S
C423 C421 1.327 . S
C423 C439 1.429 . S
C423 H445 0.950 . S
C424 H420 0.949 . S
C424 C432 1.574 . S
C424 C440 1.368 . S
H425 C433 0.950 . S
H426 C431 0.950 . S
H427 C432 0.949 . S
H428 C434 0.950 . S
H429 C435 0.950 . S
H430 C436 0.949 . S
C431 H426 0.950 . S
C431 C433 1.327 . S
C431 C437 1.429 . S
C432 C424 1.574 . S
C432 H427 0.949 . S
C432 C438 1.368 . S
C433 C417 1.349 . S
C433 H425 0.950 . S
C433 C431 1.327 . S
C434 C422 1.349 . S
C434 H428 0.950 . S
C434 C435 1.327 . S
C435 H429 0.950 . S
C435 C434 1.327 . S
C435 C439 1.429 . S
C436 C419 1.574 . S
C436 H430 0.949 . S
C436 C440 1.368 . S
C437 C418 1.429 . S
C437 C431 1.429 . S
C437 C438 1.523 . S
C438 C419 1.368 . S
C438 C432 1.368 . S
C438 C437 1.523 . S
C439 C423 1.429 . S
C439 C435 1.429 . S
C439 C440 1.523 . S
C440 C424 1.368 . S
C440 C436 1.368 . S
C440 C439 1.523 . S
H441 C416 0.950 . S
H442 C418 0.950 . S
H443 C419 0.949 . S
H444 C421 0.950 1_545 S
H445 C423 0.950 . S
C92 C59 1.251 . S
C87 C43 1.439 . S
C117 C10 1.467 . S
C122 C83 1.270 . S
C147 C21 1.621 . S
C152 C62 1.422 . S
C177 C32 1.619 . S
C182 C80 1.408 . S
C212 C60 1.500 . S
C207 C5 1.515 . S
C242 C82 1.560 . S
C237 C15 1.626 . S
C267 C27 1.603 . S
C272 C61 1.560 . S
C297 C38 1.518 . S
C302 C81 1.471 . S
C332 C79 1.478 . S
C327 C16 1.522 . S
C362 C58 1.481 . S
C357 C26 1.541 . S
C392 C78 1.415 . S
C387 C37 1.451 . S
C417 C4 1.451 1_556 S
C422 C57 1.400 . S
