# Generated by pormake.
# Topology nom, (4,4)-cn, num edge types: 1
# Building blocks:
#     Node 0, Type 0, BuildingBlock: MIFKUJ_clean_linker_1, # of connection points: 4
#     Node 1, Type 0, BuildingBlock: MIFKUJ_clean_linker_1, # of connection points: 4
#     Node 2, Type 0, BuildingBlock: MIFKUJ_clean_linker_1, # of connection points: 4
#     Node 3, Type 0, BuildingBlock: MIFKUJ_clean_linker_1, # of connection points: 4
#     Node 4, Type 0, BuildingBlock: MIFKUJ_clean_linker_1, # of connection points: 4
#     Node 5, Type 0, BuildingBlock: MIFKUJ_clean_linker_1, # of connection points: 4
#     Node 6, Type 1, BuildingBlock: QUQFOY_clean_sbu_1, # of connection points: 4
#     Node 7, Type 1, BuildingBlock: QUQFOY_clean_sbu_1, # of connection points: 4
#     Node 8, Type 1, BuildingBlock: QUQFOY_clean_sbu_1, # of connection points: 4
#     Node 9, Type 1, BuildingBlock: QUQFOY_clean_sbu_1, # of connection points: 4
#     Node 10, Type 1, BuildingBlock: QUQFOY_clean_sbu_1, # of connection points: 4
#     Node 11, Type 1, BuildingBlock: QUQFOY_clean_sbu_1, # of connection points: 4
#     Edge 12, Type (0, 1), BuildingBlock: UVAHIK_clean_linker_0, # of connection points: 2
#     Edge 13, Type (0, 1), BuildingBlock: UVAHIK_clean_linker_0, # of connection points: 2
#     Edge 14, Type (0, 1), BuildingBlock: UVAHIK_clean_linker_0, # of connection points: 2
#     Edge 15, Type (0, 1), BuildingBlock: UVAHIK_clean_linker_0, # of connection points: 2
#     Edge 16, Type (0, 1), BuildingBlock: UVAHIK_clean_linker_0, # of connection points: 2
#     Edge 17, Type (0, 1), BuildingBlock: UVAHIK_clean_linker_0, # of connection points: 2
#     Edge 18, Type (0, 1), BuildingBlock: UVAHIK_clean_linker_0, # of connection points: 2
#     Edge 19, Type (0, 1), BuildingBlock: UVAHIK_clean_linker_0, # of connection points: 2
#     Edge 20, Type (0, 1), BuildingBlock: UVAHIK_clean_linker_0, # of connection points: 2
#     Edge 21, Type (0, 1), BuildingBlock: UVAHIK_clean_linker_0, # of connection points: 2
#     Edge 22, Type (0, 1), BuildingBlock: UVAHIK_clean_linker_0, # of connection points: 2
#     Edge 23, Type (0, 1), BuildingBlock: UVAHIK_clean_linker_0, # of connection points: 2
#     Edge 24, Type (0, 1), BuildingBlock: UVAHIK_clean_linker_0, # of connection points: 2
#     Edge 25, Type (0, 1), BuildingBlock: UVAHIK_clean_linker_0, # of connection points: 2
#     Edge 26, Type (0, 1), BuildingBlock: UVAHIK_clean_linker_0, # of connection points: 2
#     Edge 27, Type (0, 1), BuildingBlock: UVAHIK_clean_linker_0, # of connection points: 2
#     Edge 28, Type (0, 1), BuildingBlock: UVAHIK_clean_linker_0, # of connection points: 2
#     Edge 29, Type (0, 1), BuildingBlock: UVAHIK_clean_linker_0, # of connection points: 2
#     Edge 30, Type (0, 1), BuildingBlock: UVAHIK_clean_linker_0, # of connection points: 2
#     Edge 31, Type (0, 1), BuildingBlock: UVAHIK_clean_linker_0, # of connection points: 2
#     Edge 32, Type (0, 1), BuildingBlock: UVAHIK_clean_linker_0, # of connection points: 2
#     Edge 33, Type (0, 1), BuildingBlock: UVAHIK_clean_linker_0, # of connection points: 2
#     Edge 34, Type (0, 1), BuildingBlock: UVAHIK_clean_linker_0, # of connection points: 2
#     Edge 35, Type (0, 1), BuildingBlock: UVAHIK_clean_linker_0, # of connection points: 2
# Relax obj value: 0.014
# Max RMSD: 0.112
# Mean RMSD: 0.111
data_MOF--net-nom--node1-QUQFOY_clean_sbu_1--node2-MIFKUJ_clean_linker_1--edge1-UVAHIK_clean_linker_0
_symmetry_space_group_name_H-M    P1
_symmetry_Int_Tables_number       1
_symmetry_cell_setting            triclinic
loop_
_symmetry_equiv_pos_as_xyz
'x, y, z'
_cell_length_a     68.991305
_cell_length_b     68.970887
_cell_length_c     66.643134
_cell_angle_alpha  89.985113
_cell_angle_beta   90.017316
_cell_angle_gamma 120.01338
loop_
_atom_site_label
_atom_site_type_symbol
_atom_site_fract_x
_atom_site_fract_y
_atom_site_fract_z
_atom_type_partial_charge
H0 H 0.98582 0.48419 0.28403 0.0
H1 H 0.95605 0.46892 0.25886 0.0
H2 H 0.92861 0.50774 0.28414 0.0
H3 H 0.95856 0.52313 0.30919 0.0
H4 H 0.01809 0.52691 0.29097 0.0
H5 H 0.95564 0.46828 0.33032 0.0
H6 H 0.91737 0.4501 0.34338 0.0
H7 H 0.93065 0.51309 0.36931 0.0
H8 H 0.969 0.53075 0.35689 0.0
H9 H 0.03514 0.55845 0.37384 0.0
H10 H 0.06488 0.57123 0.39885 0.0
H11 H 0.09276 0.53583 0.36758 0.0
H12 H 0.06222 0.52207 0.34333 0.0
H13 H 0.00265 0.51913 0.3641 0.0
H14 H 0.06603 0.57631 0.3311 0.0
H15 H 0.10449 0.59673 0.31855 0.0
H16 H 0.08991 0.54266 0.27765 0.0
H17 H 0.05173 0.52153 0.29102 0.0
C18 C 0.97429 0.50461 0.29863 0.0
C19 C 0.97342 0.48944 0.28413 0.0
C20 C 0.95643 0.48077 0.26974 0.0
C21 C 0.93997 0.48711 0.26955 0.0
C22 C 0.94086 0.5023 0.28409 0.0
C23 C 0.95796 0.51109 0.29841 0.0
C24 C 0.99255 0.51384 0.31372 0.0
C25 C 0.01481 0.52494 0.30697 0.0
C26 C 0.98818 0.51209 0.33456 0.0
C27 C 0.96509 0.50085 0.34263 0.0
C28 C 0.95024 0.47807 0.33891 0.0
C29 C 0.92834 0.46776 0.34629 0.0
C30 C 0.92082 0.48008 0.35744 0.0
C31 C 0.93589 0.50291 0.36116 0.0
C32 C 0.95781 0.51311 0.35397 0.0
C33 C 0.04654 0.53947 0.35658 0.0
C34 C 0.04756 0.5533 0.37247 0.0
C35 C 0.06476 0.56082 0.38664 0.0
C36 C 0.08136 0.55471 0.38518 0.0
C37 C 0.08016 0.5407 0.36931 0.0
C38 C 0.06283 0.533 0.35528 0.0
C39 C 0.02839 0.53176 0.34141 0.0
C40 C 0.00612 0.52106 0.34812 0.0
C41 C 0.03285 0.53425 0.3205 0.0
C42 C 0.05602 0.5471 0.31236 0.0
C43 C 0.07115 0.56858 0.31972 0.0
C44 C 0.09307 0.58031 0.3125 0.0
C45 C 0.10006 0.57112 0.29729 0.0
C46 C 0.08483 0.55001 0.28942 0.0
C47 C 0.06304 0.53802 0.29701 0.0
H48 H 0.41426 0.95826 0.4944 0.0
H49 H 0.39349 0.92018 0.50786 0.0
H50 H 0.45061 0.93317 0.54422 0.0
H51 H 0.4714 0.9712 0.53051 0.0
H52 H 0.46249 0.00624 0.53146 0.0
H53 H 0.43513 0.9852 0.44879 0.0
H54 H 0.4229 0.95432 0.42499 0.0
H55 H 0.45809 0.92828 0.45926 0.0
H56 H 0.471 0.95973 0.48253 0.0
H57 H 0.5193 0.05296 0.46454 0.0
H58 H 0.53886 0.09063 0.44996 0.0
H59 H 0.48916 0.10411 0.47533 0.0
H60 H 0.46951 0.06636 0.4895 0.0
H61 H 0.47629 0.01822 0.45818 0.0
H62 H 0.5211 0.05985 0.516 0.0
H63 H 0.53636 0.09063 0.54006 0.0
H64 H 0.46911 0.07541 0.55495 0.0
H65 H 0.4541 0.0439 0.53156 0.0
C66 C 0.4444 0.96748 0.51137 0.0
C67 C 0.42228 0.9529 0.50528 0.0
C68 C 0.4104 0.93121 0.51307 0.0
C69 C 0.42045 0.92369 0.52708 0.0
C70 C 0.44252 0.93843 0.53331 0.0
C71 C 0.45434 0.96018 0.52561 0.0
C72 C 0.45731 0.99023 0.50262 0.0
C73 C 0.46545 0.00882 0.51543 0.0
C74 C 0.4614 0.99364 0.48174 0.0
C75 C 0.45382 0.97467 0.46752 0.0
C76 C 0.44026 0.97287 0.45113 0.0
C77 C 0.4331 0.95507 0.43765 0.0
C78 C 0.43942 0.93875 0.44028 0.0
C79 C 0.45307 0.94065 0.4567 0.0
C80 C 0.46029 0.9585 0.47014 0.0
C81 C 0.49306 0.05694 0.47821 0.0
C82 C 0.51262 0.06405 0.4669 0.0
C83 C 0.52385 0.0856 0.45871 0.0
C84 C 0.51556 0.10034 0.46151 0.0
C85 C 0.49585 0.09308 0.47274 0.0
C86 C 0.48471 0.07159 0.481 0.0
C87 C 0.48123 0.03414 0.48699 0.0
C88 C 0.47324 0.01557 0.47419 0.0
C89 C 0.47741 0.03069 0.50785 0.0
C90 C 0.48652 0.04965 0.5221 0.0
C91 C 0.50971 0.0632 0.52449 0.0
C92 C 0.51838 0.08094 0.53814 0.0
C93 C 0.50401 0.08565 0.5495 0.0
C94 C 0.48072 0.0721 0.54679 0.0
C95 C 0.47207 0.05414 0.53335 0.0
H96 H 0.5186 0.542 0.69898 0.0
H97 H 0.50572 0.55926 0.72376 0.0
H98 H 0.4379 0.51841 0.7024 0.0
H99 H 0.45081 0.50109 0.67782 0.0
H100 H 0.50853 0.49943 0.69466 0.0
H101 H 0.50361 0.55362 0.65174 0.0
H102 H 0.48488 0.57309 0.63868 0.0
H103 H 0.42943 0.50972 0.61903 0.0
H104 H 0.44882 0.49062 0.63137 0.0
H105 H 0.48212 0.45117 0.62065 0.0
H106 H 0.49571 0.43389 0.59662 0.0
H107 H 0.56394 0.48319 0.61182 0.0
H108 H 0.5501 0.49953 0.6364 0.0
H109 H 0.49184 0.49698 0.62193 0.0
H110 H 0.49717 0.44311 0.66336 0.0
H111 H 0.51482 0.42294 0.67735 0.0
H112 H 0.56829 0.48494 0.70132 0.0
H113 H 0.55064 0.50512 0.68702 0.0
C114 C 0.48572 0.52045 0.68639 0.0
C115 C 0.50096 0.53678 0.69964 0.0
C116 C 0.49358 0.54659 0.7138 0.0
C117 C 0.47081 0.54024 0.71497 0.0
C118 C 0.4556 0.52392 0.70164 0.0
C119 C 0.46296 0.51402 0.68758 0.0
C120 C 0.49352 0.50969 0.67168 0.0
C121 C 0.5052 0.49923 0.67873 0.0
C122 C 0.48866 0.50887 0.65096 0.0
C123 C 0.47754 0.5207 0.64256 0.0
C124 C 0.48746 0.54399 0.64451 0.0
C125 C 0.47663 0.55507 0.63715 0.0
C126 C 0.45554 0.54302 0.62783 0.0
C127 C 0.44579 0.51965 0.62577 0.0
C128 C 0.45679 0.50864 0.63291 0.0
C129 C 0.51512 0.47652 0.63031 0.0
C130 C 0.49999 0.45813 0.61879 0.0
C131 C 0.50782 0.44837 0.60499 0.0
C132 C 0.53097 0.4571 0.60221 0.0
C133 C 0.54603 0.47566 0.61379 0.0
C134 C 0.53817 0.48518 0.62776 0.0
C135 C 0.50695 0.48691 0.64494 0.0
C136 C 0.49523 0.49729 0.63786 0.0
C137 C 0.51181 0.48771 0.66563 0.0
C138 C 0.5227 0.47563 0.67403 0.0
C139 C 0.51278 0.45238 0.6715 0.0
C140 C 0.52277 0.44086 0.67964 0.0
C141 C 0.54291 0.45237 0.69046 0.0
C142 C 0.55288 0.47567 0.69291 0.0
C143 C 0.54276 0.48718 0.68487 0.0
H144 H 0.03235 0.50539 0.7771 0.0
H145 H 0.06263 0.52021 0.75251 0.0
H146 H 0.09328 0.48736 0.7835 0.0
H147 H 0.06267 0.47223 0.80799 0.0
H148 H 0.00159 0.46433 0.78708 0.0
H149 H 0.06429 0.52598 0.81991 0.0
H150 H 0.103 0.54643 0.83192 0.0
H151 H 0.08929 0.49175 0.87192 0.0
H152 H 0.05077 0.47109 0.8595 0.0
H153 H 0.98405 0.43853 0.87061 0.0
H154 H 0.95427 0.42726 0.89544 0.0
H155 H 0.92771 0.46257 0.86207 0.0
H156 H 0.95813 0.4746 0.83779 0.0
H157 H 0.01695 0.479 0.85985 0.0
H158 H 0.9524 0.41887 0.82853 0.0
H159 H 0.91386 0.39929 0.816 0.0
H160 H 0.93098 0.4516 0.77235 0.0
H161 H 0.96921 0.47187 0.78557 0.0
C162 C 0.04533 0.48787 0.79449 0.0
C163 C 0.04546 0.50118 0.77851 0.0
C164 C 0.06276 0.50962 0.76445 0.0
C165 C 0.08033 0.50496 0.76611 0.0
C166 C 0.08009 0.49143 0.782 0.0
C167 C 0.06262 0.48278 0.79597 0.0
C168 C 0.02717 0.47967 0.80967 0.0
C169 C 0.0049 0.46773 0.80298 0.0
C170 C 0.03159 0.48369 0.83046 0.0
C171 C 0.05472 0.49679 0.83852 0.0
C172 C 0.06964 0.51831 0.83116 0.0
C173 C 0.09172 0.53001 0.83806 0.0
C174 C 0.09914 0.52063 0.85279 0.0
C175 C 0.08397 0.49945 0.86067 0.0
C176 C 0.06198 0.48763 0.85356 0.0
C177 C 0.97319 0.45722 0.85225 0.0
C178 C 0.97187 0.44394 0.86872 0.0
C179 C 0.95469 0.43731 0.88279 0.0
C180 C 0.93849 0.44388 0.88068 0.0
C181 C 0.94 0.45737 0.86425 0.0
C182 C 0.95726 0.46409 0.85025 0.0
C183 C 0.99132 0.46395 0.83724 0.0
C184 C 0.01359 0.47554 0.84396 0.0
C185 C 0.98687 0.45976 0.81644 0.0
C186 C 0.96369 0.44713 0.8083 0.0
C187 C 0.94784 0.42636 0.81648 0.0
C188 C 0.92587 0.41511 0.80927 0.0
C189 C 0.91956 0.42406 0.79331 0.0
C190 C 0.93553 0.44439 0.78465 0.0
C191 C 0.95735 0.45591 0.79218 0.0
H192 H 0.57392 0.05379 0.02249 0.0
H193 H 0.59386 0.09212 0.03495 0.0
H194 H 0.54621 0.10559 0.00491 0.0
H195 H 0.52695 0.06731 0.99177 0.0
H196 H 0.52865 0.02058 0.02791 0.0
H197 H 0.57922 0.06555 0.97561 0.0
H198 H 0.59517 0.09505 0.95008 0.0
H199 H 0.53255 0.06293 0.91789 0.0
H200 H 0.51609 0.0342 0.94399 0.0
H201 H 0.4846 0.97109 0.95473 0.0
H202 H 0.46698 0.9327 0.9418 0.0
H203 H 0.50412 0.91714 0.98462 0.0
H204 H 0.52272 0.9558 0.9968 0.0
H205 H 0.5246 0.00381 0.95518 0.0
H206 H 0.47279 0.96089 0.00725 0.0
H207 H 0.4555 0.93068 0.03184 0.0
H208 H 0.51832 0.95871 0.06391 0.0
H209 H 0.53575 0.98815 0.03868 0.0
C210 C 0.54905 0.05778 0.00616 0.0
C211 C 0.56776 0.06502 0.01865 0.0
C212 C 0.57905 0.08695 0.02588 0.0
C213 C 0.57162 0.10205 0.02107 0.0
C214 C 0.55263 0.09459 0.00871 0.0
C215 C 0.5415 0.07267 0.00127 0.0
C216 C 0.53762 0.0346 0.99825 0.0
C217 C 0.52786 0.01687 0.01201 0.0
C218 C 0.53618 0.02989 0.97745 0.0
C219 C 0.54625 0.04783 0.96202 0.0
C220 C 0.5687 0.0651 0.96337 0.0
C221 C 0.57788 0.08183 0.94872 0.0
C222 C 0.565 0.08114 0.93216 0.0
C223 C 0.54276 0.06371 0.93056 0.0
C224 C 0.53341 0.04731 0.94543 0.0
C225 C 0.50475 0.96633 0.97701 0.0
C226 C 0.48914 0.95951 0.96125 0.0
C227 C 0.47902 0.93761 0.9539 0.0
C228 C 0.48408 0.92204 0.96241 0.0
C229 C 0.49975 0.92882 0.97806 0.0
C230 C 0.51027 0.95086 0.98507 0.0
C231 C 0.51538 0.98966 0.98482 0.0
C232 C 0.52511 0.00746 0.97107 0.0
C233 C 0.5165 0.99448 0.0056 0.0
C234 C 0.50565 0.97662 0.02096 0.0
C235 C 0.48287 0.96039 0.01949 0.0
C236 C 0.47295 0.94325 0.03368 0.0
C237 C 0.48553 0.94218 0.04984 0.0
C238 C 0.50823 0.95875 0.05147 0.0
C239 C 0.51817 0.97576 0.03718 0.0
H240 H 0.53653 0.51431 0.20135 0.0
H241 H 0.54967 0.49631 0.22496 0.0
H242 H 0.61673 0.53562 0.20145 0.0
H243 H 0.60348 0.55389 0.17793 0.0
H244 H 0.54869 0.55848 0.19623 0.0
H245 H 0.55298 0.50018 0.15964 0.0
H246 H 0.57222 0.48141 0.1463 0.0
H247 H 0.61408 0.53974 0.11014 0.0
H248 H 0.59576 0.5589 0.12459 0.0
H249 H 0.55965 0.5896 0.11346 0.0
H250 H 0.54083 0.60079 0.08885 0.0
H251 H 0.47858 0.56284 0.12118 0.0
H252 H 0.49729 0.55092 0.14518 0.0
H253 H 0.55357 0.54971 0.12285 0.0
H254 H 0.54695 0.60678 0.15633 0.0
H255 H 0.52753 0.62575 0.16918 0.0
H256 H 0.49113 0.5717 0.21096 0.0
H257 H 0.50947 0.55195 0.19732 0.0
C258 C 0.56899 0.5353 0.18782 0.0
C259 C 0.5541 0.51918 0.20138 0.0
C260 C 0.56159 0.50876 0.21472 0.0
C261 C 0.58418 0.51439 0.21489 0.0
C262 C 0.59924 0.53099 0.20166 0.0
C263 C 0.59169 0.54135 0.18819 0.0
C264 C 0.56039 0.54519 0.17302 0.0
C265 C 0.54956 0.55646 0.18017 0.0
C266 C 0.56222 0.54307 0.15208 0.0
C267 C 0.57325 0.53116 0.14348 0.0
C268 C 0.56655 0.50905 0.14908 0.0
C269 C 0.57737 0.4982 0.14118 0.0
C270 C 0.59484 0.50906 0.12718 0.0
C271 C 0.60106 0.53099 0.1212 0.0
C272 C 0.59043 0.54192 0.1293 0.0
C273 C 0.52994 0.5696 0.13127 0.0
C274 C 0.54192 0.58363 0.11518 0.0
C275 C 0.53118 0.59019 0.10124 0.0
C276 C 0.50821 0.58281 0.10309 0.0
C277 C 0.49623 0.56866 0.11919 0.0
C278 C 0.50696 0.56201 0.13305 0.0
C279 C 0.54139 0.56264 0.14604 0.0
C280 C 0.5528 0.55196 0.13889 0.0
C281 C 0.54016 0.5654 0.16699 0.0
C282 C 0.52937 0.57764 0.17552 0.0
C283 C 0.53453 0.59876 0.16801 0.0
C284 C 0.52357 0.60967 0.17541 0.0
C285 C 0.50783 0.60004 0.19092 0.0
C286 C 0.50323 0.57938 0.19898 0.0
C287 C 0.51378 0.56818 0.19123 0.0
O288 O 0.60799 0.3762 0.42644 0.0
Cd289 Cd 0.61776 0.36596 0.40126 0.0
Cd290 Cd 0.65727 0.40207 0.40929 0.0
O291 O 0.64195 0.40133 0.43617 0.0
O292 O 0.59411 0.33423 0.39726 0.0
O293 O 0.62921 0.34446 0.40467 0.0
C294 C 0.60894 0.32864 0.40129 0.0
C295 C 0.69282 0.406 0.40927 0.0
C296 C 0.62098 0.39027 0.43932 0.0
C297 C 0.63407 0.40305 0.37152 0.0
O298 O 0.64943 0.41443 0.38416 0.0
O299 O 0.62032 0.38246 0.37478 0.0
O300 O 0.6898 0.42243 0.41396 0.0
O301 O 0.67543 0.38693 0.40505 0.0
O302 O 0.25071 0.60625 0.60106 0.0
Cd303 Cd 0.26993 0.61838 0.57553 0.0
Cd304 Cd 0.26331 0.65337 0.582 0.0
O305 O 0.24891 0.63648 0.60838 0.0
O306 O 0.28382 0.59939 0.57179 0.0
O307 O 0.30345 0.63562 0.57867 0.0
C308 C 0.30292 0.61688 0.57544 0.0
C309 C 0.28872 0.69177 0.5824 0.0
C310 C 0.2445 0.61672 0.61268 0.0
C311 C 0.24369 0.62652 0.54435 0.0
O312 O 0.2449 0.64172 0.55592 0.0
O313 O 0.25354 0.61574 0.54892 0.0
O314 O 0.26762 0.68393 0.58532 0.0
O315 O 0.29563 0.67764 0.57994 0.0
O316 O 0.64312 0.24178 0.75763 0.0
Cd317 Cd 0.65278 0.2642 0.73409 0.0
Cd318 Cd 0.61859 0.26794 0.74633 0.0
O319 O 0.62168 0.253 0.77204 0.0
O320 O 0.68449 0.27357 0.72789 0.0
O321 O 0.67384 0.29646 0.74064 0.0
C322 C 0.68976 0.29308 0.73479 0.0
C323 C 0.61527 0.29992 0.74782 0.0
C324 C 0.63133 0.24141 0.77244 0.0
C325 C 0.61394 0.24536 0.70684 0.0
O326 O 0.6037 0.24776 0.72163 0.0
O327 O 0.63495 0.25317 0.7077 0.0
O328 O 0.599 0.28055 0.75299 0.0
O329 O 0.63394 0.3013 0.74252 0.0
O330 O 0.41309 0.65065 0.93163 0.0
Cd331 Cd 0.40278 0.65961 0.90591 0.0
Cd332 Cd 0.36627 0.61885 0.91111 0.0
O333 O 0.38151 0.61943 0.93791 0.0
O334 O 0.42346 0.69233 0.90273 0.0
O335 O 0.38732 0.67761 0.90928 0.0
C336 C 0.40669 0.69514 0.90634 0.0
C337 C 0.3285 0.60837 0.91001 0.0
C338 C 0.40143 0.63382 0.94282 0.0
C339 C 0.39384 0.62547 0.8742 0.0
O340 O 0.3782 0.61167 0.88552 0.0
O341 O 0.40508 0.64603 0.879 0.0
O342 O 0.33482 0.5939 0.91297 0.0
O343 O 0.34378 0.6292 0.90846 0.0
O344 O 0.77515 0.37389 0.05224 0.0
Cd345 Cd 0.75536 0.36484 0.07762 0.0
Cd346 Cd 0.75846 0.40502 0.07178 0.0
O347 O 0.77408 0.40465 0.04552 0.0
O348 O 0.74323 0.33211 0.08087 0.0
O349 O 0.72197 0.34685 0.0737 0.0
C350 C 0.72372 0.3293 0.07682 0.0
C351 C 0.73106 0.41541 0.07124 0.0
C352 C 0.78017 0.39061 0.04094 0.0
C353 C 0.77905 0.3993 0.10945 0.0
O354 O 0.77678 0.41269 0.09792 0.0
O355 O 0.77061 0.3788 0.10468 0.0
O356 O 0.75196 0.42988 0.06883 0.0
O357 O 0.72552 0.39463 0.07333 0.0
O358 O 0.40955 0.78054 0.22226 0.0
Cd359 Cd 0.40184 0.76135 0.24791 0.0
Cd360 Cd 0.36115 0.75714 0.24283 0.0
O361 O 0.37523 0.77359 0.21628 0.0
O362 O 0.4258 0.75357 0.2512 0.0
O363 O 0.39052 0.72846 0.24439 0.0
C364 C 0.4109 0.73309 0.24742 0.0
C365 C 0.32595 0.72505 0.24261 0.0
C366 C 0.39569 0.78266 0.21122 0.0
C367 C 0.38627 0.78106 0.27987 0.0
O368 O 0.36942 0.77591 0.26875 0.0
O369 O 0.40076 0.77575 0.27474 0.0
O370 O 0.32839 0.74453 0.23917 0.0
O371 O 0.34367 0.7236 0.24575 0.0
C372 C 0.14143 0.59049 0.30257 0.0
C373 C 0.12318 0.58374 0.28953 0.0
C374 C 0.16332 0.60313 0.29539 0.0
C375 C 0.19612 0.64564 0.26004 0.0
H376 H 0.24095 0.6277 0.26498 0.0
C377 C 0.28571 0.70445 0.23286 0.0
C378 C 0.30331 0.70536 0.24414 0.0
C379 C 0.26372 0.68731 0.23601 0.0
C380 C 0.22878 0.63317 0.26372 0.0
H381 H 0.11324 0.58472 0.2589 0.0
H382 H 0.15171 0.60769 0.24644 0.0
H383 H 0.20255 0.60223 0.27584 0.0
H384 H 0.31196 0.6889 0.26719 0.0
H385 H 0.27351 0.65968 0.27361 0.0
H386 H 0.22214 0.67699 0.24925 0.0
C387 C 0.149 0.60279 0.26209 0.0
C388 C 0.20677 0.61846 0.2698 0.0
C389 C 0.12711 0.5897 0.26918 0.0
C390 C 0.29866 0.68844 0.25818 0.0
C391 C 0.27655 0.67161 0.26177 0.0
C392 C 0.21818 0.66054 0.25442 0.0
C393 C 0.16725 0.60964 0.27516 0.0
C394 C 0.19031 0.62462 0.26801 0.0
C395 C 0.25868 0.67106 0.25101 0.0
C396 C 0.23491 0.65458 0.25618 0.0
H397 H 0.13871 0.58602 0.31832 0.0
H398 H 0.17718 0.6084 0.30573 0.0
H399 H 0.18371 0.65082 0.25877 0.0
H400 H 0.28893 0.71721 0.22177 0.0
H401 H 0.25064 0.68714 0.2269 0.0
C402 C 0.55075 0.13652 0.45389 0.0
C403 C 0.52733 0.1232 0.45273 0.0
C404 C 0.56171 0.15827 0.44611 0.0
C405 C 0.55444 0.19565 0.41093 0.0
H406 H 0.59905 0.24337 0.44402 0.0
C407 C 0.58014 0.28802 0.39944 0.0
C408 C 0.60237 0.30474 0.40322 0.0
C409 C 0.57312 0.26555 0.40316 0.0
C410 C 0.58695 0.23023 0.43439 0.0
H411 H 0.49709 0.12206 0.44202 0.0
H412 H 0.51615 0.16005 0.42864 0.0
H413 H 0.58271 0.20461 0.45505 0.0
H414 H 0.6349 0.31085 0.41313 0.0
H415 H 0.62264 0.27145 0.41945 0.0
H416 H 0.5584 0.22126 0.39042 0.0
C417 C 0.52608 0.15366 0.43546 0.0
C418 C 0.57755 0.208 0.44075 0.0
C419 C 0.51514 0.13198 0.44334 0.0
C420 C 0.61764 0.29838 0.41012 0.0
C421 C 0.61058 0.27582 0.41387 0.0
C422 C 0.56388 0.21786 0.40454 0.0
C423 C 0.54948 0.16711 0.43687 0.0
C424 C 0.56088 0.1905 0.42927 0.0
C425 C 0.58814 0.25918 0.41073 0.0
C426 C 0.57994 0.23546 0.41639 0.0
H427 H 0.56059 0.13027 0.46117 0.0
H428 H 0.57976 0.16817 0.44731 0.0
H429 H 0.54193 0.1825 0.40157 0.0
H430 H 0.56793 0.29233 0.39413 0.0
H431 H 0.55566 0.25326 0.40081 0.0
C432 C 0.43036 0.54745 0.60314 0.0
C433 C 0.44357 0.55468 0.62061 0.0
C434 C 0.41834 0.55772 0.59687 0.0
C435 C 0.39569 0.59294 0.61614 0.0
H436 H 0.38343 0.59586 0.55976 0.0
C437 C 0.3415 0.63006 0.58879 0.0
C438 C 0.3232 0.61488 0.5771 0.0
C439 C 0.35925 0.6262 0.59259 0.0
C440 C 0.38682 0.59523 0.57555 0.0
H441 H 0.45461 0.57878 0.64498 0.0
H442 H 0.4346 0.59734 0.63352 0.0
H443 H 0.40907 0.5828 0.56952 0.0
H444 H 0.30967 0.58455 0.55931 0.0
H445 H 0.34086 0.57814 0.56557 0.0
H446 H 0.37343 0.60548 0.62205 0.0
C447 C 0.43306 0.58333 0.62491 0.0
C448 C 0.40136 0.58758 0.58118 0.0
C449 C 0.44486 0.57286 0.63134 0.0
C450 C 0.32353 0.59649 0.56842 0.0
C451 C 0.34142 0.59288 0.57191 0.0
C452 C 0.38142 0.6009 0.61047 0.0
C453 C 0.41941 0.57573 0.60772 0.0
C454 C 0.40562 0.58586 0.60159 0.0
C455 C 0.35918 0.60737 0.58443 0.0
C456 C 0.3765 0.60169 0.59016 0.0
H457 H 0.42922 0.53376 0.59428 0.0
H458 H 0.40779 0.55113 0.58373 0.0
H459 H 0.3982 0.59154 0.63199 0.0
H460 H 0.34163 0.64433 0.59572 0.0
H461 H 0.37282 0.63767 0.60223 0.0
C462 C 0.87839 0.40693 0.7989 0.0
C463 C 0.8963 0.41228 0.78578 0.0
C464 C 0.8564 0.39603 0.79174 0.0
C465 C 0.82045 0.35672 0.75473 0.0
H466 H 0.78157 0.38167 0.76239 0.0
C467 C 0.73003 0.3098 0.72547 0.0
C468 C 0.7135 0.31033 0.73732 0.0
C469 C 0.7527 0.32435 0.72942 0.0
C470 C 0.79204 0.37425 0.76035 0.0
H471 H 0.90547 0.41035 0.75508 0.0
H472 H 0.86677 0.39047 0.74266 0.0
H473 H 0.82034 0.40243 0.7739 0.0
H474 H 0.70759 0.32679 0.76228 0.0
H475 H 0.74702 0.35141 0.76989 0.0
H476 H 0.79221 0.32802 0.74228 0.0
C477 C 0.86985 0.39506 0.75837 0.0
C478 C 0.81428 0.38626 0.76684 0.0
C479 C 0.89188 0.40642 0.76543 0.0
C480 C 0.72002 0.32616 0.7528 0.0
C481 C 0.7427 0.34037 0.75708 0.0
C482 C 0.79811 0.34447 0.74864 0.0
C483 C 0.85195 0.38988 0.77146 0.0
C484 C 0.82863 0.37756 0.7641 0.0
C485 C 0.7594 0.33939 0.74568 0.0
C486 C 0.78352 0.35302 0.75138 0.0
H487 H 0.88146 0.4114 0.81463 0.0
H488 H 0.84281 0.39205 0.80211 0.0
H489 H 0.83119 0.34959 0.75265 0.0
H490 H 0.72544 0.29787 0.7133 0.0
H491 H 0.76494 0.32349 0.71987 0.0
C492 C 0.46142 0.8807 0.9679 0.0
C493 C 0.47328 0.89883 0.9548 0.0
C494 C 0.45172 0.85872 0.96081 0.0
C495 C 0.46024 0.8251 0.92527 0.0
H496 H 0.39715 0.78138 0.93057 0.0
C497 C 0.42699 0.7355 0.897 0.0
C498 C 0.41018 0.71796 0.90824 0.0
C499 C 0.43245 0.75761 0.90051 0.0
C500 C 0.41486 0.79323 0.9292 0.0
H501 H 0.48437 0.90844 0.92416 0.0
H502 H 0.46806 0.86984 0.91187 0.0
H503 H 0.41111 0.81989 0.94168 0.0
H504 H 0.38545 0.70956 0.93159 0.0
H505 H 0.39571 0.74821 0.93861 0.0
H506 H 0.46462 0.79865 0.91407 0.0
C507 C 0.46596 0.8727 0.9275 0.0
C508 C 0.42277 0.81532 0.93544 0.0
C509 C 0.47521 0.89468 0.93449 0.0
C510 C 0.39837 0.72282 0.92261 0.0
C511 C 0.40425 0.74503 0.92654 0.0
C512 C 0.45249 0.80297 0.91948 0.0
C513 C 0.45418 0.85457 0.94061 0.0
C514 C 0.44551 0.83139 0.9335 0.0
C515 C 0.42172 0.76282 0.91582 0.0
C516 C 0.42967 0.78665 0.92133 0.0
H517 H 0.45968 0.88356 0.98362 0.0
H518 H 0.44283 0.84495 0.97119 0.0
H519 H 0.47791 0.8372 0.92388 0.0
H520 H 0.43619 0.73213 0.88567 0.0
H521 H 0.44543 0.77064 0.89141 0.0
C522 C 0.62988 0.50999 0.11526 0.0
C523 C 0.60671 0.49772 0.119 0.0
C524 C 0.64111 0.49947 0.10762 0.0
C525 C 0.63883 0.44557 0.10516 0.0
H526 H 0.682 0.4735 0.06221 0.0
C527 C 0.69159 0.40746 0.07604 0.0
C528 C 0.71437 0.42284 0.07275 0.0
C529 C 0.67635 0.41498 0.07914 0.0
C530 C 0.67013 0.46555 0.07431 0.0
H531 H 0.57722 0.46462 0.11733 0.0
H532 H 0.59706 0.44617 0.10451 0.0
H533 H 0.65958 0.48992 0.07298 0.0
H534 H 0.73889 0.45813 0.06963 0.0
H535 H 0.71263 0.47117 0.07541 0.0
H536 H 0.64995 0.42171 0.1071 0.0
C537 C 0.60642 0.46399 0.10752 0.0
C538 C 0.65726 0.47494 0.08043 0.0
C539 C 0.59511 0.47457 0.11496 0.0
C540 C 0.72145 0.4458 0.07207 0.0
C541 C 0.7063 0.45329 0.07525 0.0
C542 C 0.65188 0.43629 0.09918 0.0
C543 C 0.62952 0.47636 0.10372 0.0
C544 C 0.64175 0.46527 0.09613 0.0
C545 C 0.6836 0.43803 0.07905 0.0
C546 C 0.668 0.4464 0.08393 0.0
H547 H 0.63951 0.52772 0.11858 0.0
H548 H 0.659 0.50935 0.10515 0.0
H549 H 0.6271 0.43786 0.1174 0.0
H550 H 0.6856 0.38965 0.07659 0.0
H551 H 0.65893 0.40273 0.08176 0.0
C552 C 0.38551 0.89112 0.5409 0.0
C553 C 0.40796 0.90046 0.53497 0.0
C554 C 0.37351 0.86903 0.54773 0.0
C555 C 0.38005 0.82195 0.56686 0.0
H556 H 0.31832 0.7864 0.54957 0.0
C557 C 0.32658 0.72501 0.5751 0.0
C558 C 0.30403 0.71622 0.58054 0.0
C559 C 0.3402 0.74793 0.57123 0.0
C560 C 0.33546 0.79616 0.55473 0.0
H561 H 0.43547 0.894 0.53159 0.0
H562 H 0.41443 0.85529 0.54322 0.0
H563 H 0.34014 0.82537 0.53937 0.0
H564 H 0.27841 0.7248 0.58714 0.0
H565 H 0.30211 0.7646 0.58051 0.0
H566 H 0.37529 0.79238 0.58193 0.0
C567 C 0.40619 0.86516 0.54297 0.0
C568 C 0.34798 0.81855 0.54891 0.0
C569 C 0.41825 0.88732 0.53626 0.0
C570 C 0.29566 0.73095 0.58282 0.0
C571 C 0.3092 0.75377 0.57891 0.0
C572 C 0.36751 0.79944 0.5726 0.0
C573 C 0.38361 0.85567 0.54864 0.0
C574 C 0.37041 0.83179 0.55496 0.0
C575 C 0.33147 0.76246 0.57266 0.0
C576 C 0.34503 0.78635 0.56668 0.0
H577 H 0.37724 0.90095 0.54037 0.0
H578 H 0.3563 0.86245 0.55237 0.0
H579 H 0.3972 0.83171 0.57198 0.0
H580 H 0.33353 0.71409 0.57322 0.0
H581 H 0.35728 0.75413 0.56637 0.0
C582 C 0.5764 0.4481 0.69735 0.0
C583 C 0.55331 0.43997 0.69928 0.0
C584 C 0.58595 0.4359 0.70504 0.0
C585 C 0.57613 0.39119 0.74114 0.0
H586 H 0.61474 0.38062 0.7061 0.0
C587 C 0.5911 0.31711 0.75191 0.0
C588 C 0.61188 0.31945 0.74663 0.0
C589 C 0.58675 0.33456 0.74865 0.0
C590 C 0.60437 0.38375 0.71627 0.0
H591 H 0.52224 0.41308 0.7113 0.0
H592 H 0.53884 0.39176 0.72463 0.0
H593 H 0.60189 0.40615 0.69555 0.0
H594 H 0.64479 0.34236 0.73462 0.0
H595 H 0.63727 0.37304 0.72916 0.0
H596 H 0.57829 0.36855 0.76174 0.0
C597 C 0.54961 0.40757 0.71723 0.0
C598 C 0.59696 0.39835 0.71019 0.0
C599 C 0.54005 0.41965 0.70941 0.0
C600 C 0.62857 0.34 0.73879 0.0
C601 C 0.62421 0.35752 0.73553 0.0
C602 C 0.58362 0.37668 0.74727 0.0
C603 C 0.57262 0.41546 0.715 0.0
C604 C 0.58236 0.40185 0.72237 0.0
C605 C 0.60309 0.35484 0.74008 0.0
C606 C 0.59742 0.37238 0.73472 0.0
H607 H 0.58701 0.46365 0.68951 0.0
H608 H 0.60375 0.44245 0.70319 0.0
H609 H 0.5652 0.39386 0.75101 0.0
H610 H 0.57785 0.3015 0.75797 0.0
H611 H 0.5702 0.33176 0.75209 0.0
C612 C 0.12827 0.53407 0.87992 0.0
C613 C 0.12283 0.53249 0.85943 0.0
C614 C 0.15063 0.54428 0.88605 0.0
C615 C 0.20504 0.55492 0.86853 0.0
H616 H 0.22936 0.59741 0.91248 0.0
C617 C 0.28888 0.57792 0.90549 0.0
C618 C 0.3045 0.60091 0.90707 0.0
C619 C 0.26661 0.57063 0.90063 0.0
C620 C 0.22277 0.58562 0.90015 0.0
H621 H 0.13647 0.54048 0.82932 0.0
H622 H 0.17555 0.55812 0.84004 0.0
H623 H 0.19056 0.58323 0.90162 0.0
H624 H 0.30876 0.63424 0.90564 0.0
H625 H 0.26951 0.62135 0.89742 0.0
H626 H 0.23701 0.557 0.86718 0.0
C627 C 0.16251 0.55155 0.85133 0.0
C628 C 0.2006 0.57743 0.89402 0.0
C629 C 0.14018 0.54161 0.84522 0.0
C630 C 0.29713 0.61642 0.9045 0.0
C631 C 0.27469 0.60907 0.89985 0.0
C632 C 0.22703 0.56284 0.87482 0.0
C633 C 0.16795 0.55282 0.87179 0.0
C634 C 0.19154 0.56201 0.87814 0.0
C635 C 0.25936 0.58611 0.89744 0.0
C636 C 0.2361 0.5782 0.89072 0.0
H637 H 0.11521 0.5273 0.89119 0.0
H638 H 0.15435 0.5449 0.90191 0.0
H639 H 0.19844 0.5429 0.85637 0.0
H640 H 0.29395 0.5655 0.90742 0.0
H641 H 0.25506 0.55282 0.89912 0.0
C642 C 0.59395 0.13019 0.04787 0.0
C643 C 0.58392 0.1255 0.02874 0.0
C644 C 0.6069 0.15224 0.05452 0.0
C645 C 0.61807 0.20947 0.04865 0.0
H646 H 0.67852 0.2265 0.06475 0.0
C647 C 0.68707 0.30201 0.06113 0.0
C648 C 0.7044 0.30646 0.07467 0.0
C649 C 0.67057 0.27989 0.05698 0.0
C650 C 0.66158 0.22205 0.06078 0.0
H651 H 0.57926 0.14063 0.00193 0.0
H652 H 0.60131 0.17914 0.01396 0.0
H653 H 0.65271 0.18805 0.05509 0.0
H654 H 0.71726 0.29159 0.09556 0.0
H655 H 0.68792 0.25325 0.08931 0.0
H656 H 0.62667 0.24332 0.05477 0.0
C657 C 0.59914 0.16558 0.02365 0.0
C658 C 0.64684 0.19998 0.05509 0.0
C659 C 0.58645 0.1435 0.01682 0.0
C660 C 0.70422 0.28858 0.08486 0.0
C661 C 0.68749 0.26657 0.08108 0.0
C662 C 0.63271 0.23154 0.05472 0.0
C663 C 0.60982 0.17014 0.0424 0.0
C664 C 0.62501 0.1935 0.04889 0.0
C665 C 0.67084 0.26182 0.06659 0.0
C666 C 0.65473 0.23817 0.0608 0.0
H667 H 0.59193 0.11682 0.05772 0.0
H668 H 0.61476 0.15534 0.06915 0.0
H669 H 0.60124 0.20481 0.04402 0.0
H670 H 0.68692 0.31552 0.05297 0.0
H671 H 0.65821 0.27702 0.0456 0.0
C672 C 0.49838 0.61814 0.21877 0.0
C673 C 0.49614 0.61152 0.19859 0.0
C674 C 0.48785 0.62965 0.22583 0.0
C675 C 0.44069 0.63778 0.21922 0.0
H676 H 0.47865 0.6986 0.2379 0.0
C677 C 0.40662 0.69828 0.23168 0.0
C678 C 0.41755 0.71591 0.2454 0.0
C679 C 0.41495 0.68387 0.22773 0.0
C680 C 0.46764 0.68148 0.23324 0.0
H681 H 0.48087 0.61104 0.17008 0.0
H682 H 0.46176 0.63057 0.18265 0.0
H683 H 0.49536 0.67625 0.22806 0.0
H684 H 0.44475 0.73151 0.26676 0.0
H685 H 0.45843 0.70562 0.26097 0.0
H686 H 0.41285 0.6425 0.22492 0.0
C687 C 0.47188 0.62711 0.19286 0.0
C688 C 0.47733 0.66878 0.22744 0.0
C689 C 0.48284 0.61609 0.18568 0.0
C690 C 0.43617 0.71816 0.25593 0.0
C691 C 0.44414 0.70343 0.25241 0.0
C692 C 0.4309 0.65028 0.22549 0.0
C693 C 0.47449 0.63416 0.21293 0.0
C694 C 0.46397 0.64696 0.22016 0.0
C695 C 0.4341 0.68648 0.23779 0.0
C696 C 0.44425 0.67246 0.23235 0.0
H697 H 0.50862 0.6148 0.22893 0.0
H698 H 0.49007 0.63499 0.24136 0.0
H699 H 0.43009 0.62088 0.21375 0.0
H700 H 0.39233 0.69631 0.22323 0.0
H701 H 0.40686 0.67132 0.21618 0.0
C702 C 0.89253 0.4758 0.38349 0.0
C703 C 0.89734 0.46939 0.36493 0.0
C704 C 0.87044 0.46693 0.38994 0.0
C705 C 0.81326 0.42014 0.38436 0.0
H706 H 0.79583 0.4637 0.39885 0.0
C707 C 0.72055 0.39678 0.39436 0.0
C708 C 0.71573 0.4096 0.40763 0.0
C709 C 0.74275 0.40238 0.39077 0.0
C710 C 0.8004 0.45119 0.39531 0.0
H711 H 0.88243 0.44811 0.33887 0.0
H712 H 0.84388 0.43217 0.35052 0.0
H713 H 0.83444 0.47631 0.38985 0.0
H714 H 0.73006 0.43728 0.42862 0.0
H715 H 0.76855 0.44633 0.42325 0.0
H716 H 0.77932 0.39493 0.39015 0.0
C717 C 0.85734 0.44413 0.35997 0.0
C718 C 0.82256 0.4585 0.39002 0.0
C719 C 0.87945 0.45324 0.35335 0.0
C720 C 0.73334 0.42728 0.41811 0.0
C721 C 0.75544 0.43259 0.41486 0.0
C722 C 0.79109 0.41276 0.38999 0.0
C723 C 0.85263 0.45119 0.37816 0.0
C724 C 0.82919 0.44309 0.38438 0.0
C725 C 0.76055 0.42069 0.40066 0.0
C726 C 0.78432 0.42821 0.39545 0.0
H727 H 0.90584 0.48775 0.39306 0.0
H728 H 0.86725 0.47244 0.40416 0.0
H729 H 0.81802 0.40792 0.38018 0.0
H730 H 0.70727 0.38312 0.386 0.0
H731 H 0.74593 0.39292 0.37961 0.0
C732 C 0.10757 0.54863 0.40704 0.0
C733 C 0.09969 0.56275 0.40027 0.0
C734 C 0.12453 0.55604 0.42142 0.0
C735 C 0.16926 0.60755 0.44591 0.0
H736 H 0.1647 0.56574 0.4871 0.0
C737 C 0.22084 0.6339 0.5195 0.0
C738 C 0.22977 0.62057 0.52599 0.0
C739 C 0.20645 0.62747 0.50298 0.0
C740 C 0.16634 0.57753 0.47556 0.0
H741 H 0.10392 0.596 0.40311 0.0
H742 H 0.13281 0.6086 0.42875 0.0
H743 H 0.1365 0.55326 0.46079 0.0
H744 H 0.231 0.59029 0.51988 0.0
H745 H 0.20574 0.57903 0.49113 0.0
H746 H 0.19885 0.63196 0.46117 0.0
C747 C 0.12617 0.5919 0.42268 0.0
C748 C 0.15021 0.57039 0.46044 0.0
C749 C 0.10932 0.58454 0.40817 0.0
C750 C 0.2244 0.60094 0.5153 0.0
C751 C 0.20984 0.5944 0.49891 0.0
C752 C 0.1853 0.61475 0.46117 0.0
C753 C 0.13394 0.57771 0.42955 0.0
C754 C 0.15142 0.5853 0.44542 0.0
C755 C 0.20053 0.60747 0.49272 0.0
C756 C 0.18398 0.59981 0.47616 0.0
H757 H 0.1004 0.53166 0.40147 0.0
H758 H 0.1303 0.54476 0.42613 0.0
H759 H 0.17096 0.61941 0.43443 0.0
H760 H 0.22468 0.64916 0.52737 0.0
H761 H 0.1994 0.63779 0.49863 0.0
C762 C 0.50214 0.10193 0.58276 0.0
C763 C 0.51329 0.10416 0.5645 0.0
C764 C 0.51139 0.11879 0.59726 0.0
C765 C 0.55621 0.17822 0.60552 0.0
H766 H 0.5494 0.15894 0.66101 0.0
C767 C 0.6122 0.23238 0.67139 0.0
C768 C 0.60115 0.23213 0.6892 0.0
C769 C 0.60024 0.21844 0.65535 0.0
C770 C 0.55123 0.16458 0.64559 0.0
H771 H 0.54264 0.1265 0.54699 0.0
H772 H 0.55934 0.1552 0.57265 0.0
H773 H 0.53095 0.13128 0.63469 0.0
H774 H 0.56878 0.21747 0.70391 0.0
H775 H 0.54803 0.19284 0.67601 0.0
H776 H 0.57745 0.21153 0.61666 0.0
C777 C 0.54317 0.14064 0.57564 0.0
C778 C 0.54057 0.14875 0.63046 0.0
C779 C 0.53374 0.12393 0.561 0.0
C780 C 0.57781 0.21808 0.69041 0.0
C781 C 0.56593 0.20391 0.67449 0.0
C782 C 0.56718 0.19404 0.62068 0.0
C783 C 0.53224 0.13819 0.59407 0.0
C784 C 0.54294 0.15531 0.61019 0.0
C785 C 0.57708 0.20375 0.65693 0.0
C786 C 0.56481 0.18733 0.64084 0.0
H787 H 0.48649 0.08691 0.58615 0.0
H788 H 0.50222 0.11645 0.61108 0.0
H789 H 0.55814 0.184 0.59016 0.0
H790 H 0.63016 0.24308 0.66997 0.0
H791 H 0.60924 0.21853 0.64199 0.0
C792 C 0.44704 0.55656 0.72559 0.0
C793 C 0.46283 0.55008 0.73043 0.0
C794 C 0.43908 0.56524 0.74034 0.0
C795 C 0.4317 0.56532 0.79492 0.0
H796 H 0.42536 0.61725 0.78476 0.0
C797 C 0.38849 0.59427 0.85146 0.0
C798 C 0.39973 0.61728 0.85595 0.0
C799 C 0.39515 0.58623 0.83519 0.0
C800 C 0.4271 0.60278 0.78781 0.0
H801 H 0.48261 0.54758 0.7545 0.0
H802 H 0.46887 0.56288 0.78019 0.0
H803 H 0.43977 0.60323 0.75834 0.0
H804 H 0.42629 0.64996 0.84639 0.0
H805 H 0.4379 0.63584 0.81798 0.0
H806 H 0.41938 0.56499 0.82443 0.0
C807 C 0.46256 0.56115 0.76503 0.0
C808 C 0.43516 0.59464 0.77266 0.0
C809 C 0.47061 0.55261 0.75027 0.0
C810 C 0.41729 0.63213 0.84338 0.0
C811 C 0.42389 0.62407 0.82704 0.0
C812 C 0.42353 0.57335 0.81 0.0
C813 C 0.44663 0.56744 0.76025 0.0
C814 C 0.43768 0.57591 0.77611 0.0
C815 C 0.41312 0.60099 0.82298 0.0
C816 C 0.42121 0.59221 0.80665 0.0
H817 H 0.44088 0.55498 0.71038 0.0
H818 H 0.4267 0.56981 0.73624 0.0
H819 H 0.43323 0.55071 0.79796 0.0
H820 H 0.37483 0.58237 0.86074 0.0
H821 H 0.3863 0.56838 0.83225 0.0
C822 C 0.91339 0.45191 0.90215 0.0
C823 C 0.92028 0.43688 0.89572 0.0
C824 C 0.89666 0.44552 0.91665 0.0
C825 C 0.87019 0.40614 0.9583 0.0
H826 H 0.82413 0.42243 0.95338 0.0
C827 C 0.7996 0.37811 0.01677 0.0
C828 C 0.79391 0.39418 0.02275 0.0
C829 C 0.81351 0.38201 0.00022 0.0
C830 C 0.837 0.41793 0.95507 0.0
H831 H 0.91447 0.40309 0.89914 0.0
H832 H 0.88547 0.39206 0.92465 0.0
H833 H 0.85137 0.43181 0.92644 0.0
H834 H 0.79811 0.4268 0.01579 0.0
H835 H 0.82267 0.43376 0.98719 0.0
H836 H 0.85621 0.39268 0.98706 0.0
C837 C 0.89321 0.40887 0.91858 0.0
C838 C 0.85257 0.42328 0.93962 0.0
C839 C 0.90986 0.41522 0.90401 0.0
C840 C 0.8021 0.41404 0.01157 0.0
C841 C 0.8161 0.41797 0.99507 0.0
C842 C 0.8547 0.40089 0.97378 0.0
C843 C 0.88651 0.42399 0.92513 0.0
C844 C 0.86941 0.41756 0.94114 0.0
C845 C 0.82215 0.4021 0.98931 0.0
C846 C 0.83799 0.40684 0.97242 0.0
H847 H 0.92128 0.46883 0.89632 0.0
H848 H 0.89207 0.45765 0.9216 0.0
H849 H 0.88316 0.40178 0.96003 0.0
H850 H 0.79346 0.36256 0.02496 0.0
H851 H 0.81753 0.36926 0.99599 0.0
C852 C 0.48706 0.91428 0.0731 0.0
C853 C 0.47505 0.92396 0.065 0.0
C854 C 0.47749 0.89765 0.08779 0.0
C855 C 0.4324 0.87479 0.12585 0.0
H856 H 0.44467 0.82573 0.12736 0.0
C857 C 0.38936 0.80215 0.18238 0.0
C858 C 0.40358 0.79653 0.19283 0.0
C859 C 0.3972 0.81641 0.16578 0.0
C860 C 0.4412 0.8394 0.12716 0.0
H861 H 0.44339 0.92351 0.06594 0.0
H862 H 0.42643 0.89399 0.091 0.0
H863 H 0.45973 0.85291 0.10004 0.0
H864 H 0.43702 0.80098 0.19364 0.0
H865 H 0.45063 0.8258 0.16456 0.0
H866 H 0.41378 0.86117 0.15292 0.0
C867 C 0.44344 0.89957 0.08629 0.0
C868 C 0.44987 0.85502 0.11156 0.0
C869 C 0.45307 0.91631 0.0717 0.0
C870 C 0.42564 0.80501 0.18596 0.0
C871 C 0.43341 0.81913 0.16924 0.0
C872 C 0.4236 0.85908 0.14134 0.0
C873 C 0.4556 0.89016 0.09464 0.0
C874 C 0.44571 0.87301 0.11079 0.0
C875 C 0.41936 0.82521 0.15915 0.0
C876 C 0.42803 0.84132 0.14223 0.0
H877 H 0.50391 0.91952 0.06809 0.0
H878 H 0.48745 0.89098 0.09402 0.0
H879 H 0.42918 0.88863 0.12597 0.0
H880 H 0.37226 0.7959 0.18724 0.0
H881 H 0.38592 0.82062 0.15815 0.0
C882 C 0.57887 0.47943 0.23128 0.0
C883 C 0.59175 0.50275 0.22883 0.0
C884 C 0.58502 0.46847 0.2453 0.0
C885 C 0.63182 0.47452 0.27712 0.0
H886 H 0.58356 0.42905 0.30918 0.0
C887 C 0.64575 0.43705 0.35003 0.0
C888 C 0.63147 0.41401 0.35341 0.0
C889 C 0.64223 0.44765 0.3337 0.0
C890 C 0.59721 0.44148 0.30019 0.0
H891 H 0.62154 0.5328 0.23875 0.0
H892 H 0.63222 0.51365 0.2635 0.0
H893 H 0.57511 0.44803 0.28281 0.0
H894 H 0.60279 0.38393 0.3418 0.0
H895 H 0.59679 0.40239 0.3133 0.0
H896 H 0.65393 0.46807 0.29484 0.0
C897 C 0.61748 0.50381 0.25439 0.0
C898 C 0.59237 0.45237 0.28505 0.0
C899 C 0.61136 0.5148 0.24025 0.0
C900 C 0.61402 0.40171 0.33975 0.0
C901 C 0.6105 0.41231 0.32346 0.0
C902 C 0.63668 0.46362 0.29235 0.0
C903 C 0.60416 0.48056 0.25729 0.0
C904 C 0.60958 0.46898 0.27328 0.0
C905 C 0.62433 0.43546 0.32043 0.0
C906 C 0.6194 0.44694 0.30402 0.0
H907 H 0.56392 0.46965 0.22239 0.0
H908 H 0.57468 0.45048 0.24681 0.0
H909 H 0.64544 0.48709 0.26821 0.0
H910 H 0.65938 0.44702 0.36025 0.0
H911 H 0.65308 0.46553 0.33185 0.0
C912 C 0.41039 0.9095 0.41763 0.0
C913 C 0.43215 0.92009 0.42568 0.0
C914 C 0.40386 0.89259 0.40329 0.0
C915 C 0.41837 0.85198 0.3821 0.0
H916 H 0.38707 0.85524 0.33503 0.0
C917 C 0.40949 0.80249 0.30953 0.0
C918 C 0.38956 0.79416 0.29844 0.0
C919 C 0.41324 0.81611 0.32628 0.0
C920 C 0.39547 0.85382 0.34821 0.0
H921 H 0.46406 0.92106 0.42499 0.0
H922 H 0.45261 0.89146 0.40007 0.0
H923 H 0.39616 0.88213 0.3621 0.0
H924 H 0.35757 0.79297 0.29673 0.0
H925 H 0.36395 0.81641 0.32612 0.0
H926 H 0.4178 0.82375 0.36813 0.0
C927 C 0.44053 0.89609 0.40503 0.0
C928 C 0.40071 0.86927 0.36372 0.0
C929 C 0.44708 0.91305 0.41932 0.0
C930 C 0.37319 0.79924 0.30483 0.0
C931 C 0.3769 0.81279 0.32162 0.0
C932 C 0.41305 0.83646 0.3666 0.0
C933 C 0.41892 0.88582 0.39672 0.0
C934 C 0.41239 0.86865 0.38075 0.0
C935 C 0.39709 0.82164 0.33238 0.0
C936 C 0.40171 0.83732 0.34939 0.0
H937 H 0.39834 0.91425 0.42247 0.0
H938 H 0.38698 0.88476 0.39738 0.0
H939 H 0.42712 0.85089 0.39517 0.0
H940 H 0.42249 0.79894 0.30501 0.0
H941 H 0.42909 0.82285 0.33406 0.0
C942 C 0.55927 0.44667 0.59045 0.0
C943 C 0.53945 0.4473 0.58701 0.0
C944 C 0.56791 0.43869 0.57571 0.0
C945 C 0.55326 0.40297 0.53139 0.0
H946 H 0.61475 0.44223 0.51501 0.0
C947 C 0.58875 0.38797 0.45851 0.0
C948 C 0.61153 0.39442 0.45767 0.0
C949 C 0.57998 0.39297 0.47533 0.0
C950 C 0.59771 0.43079 0.51961 0.0
H951 H 0.5131 0.43963 0.56526 0.0
H952 H 0.52785 0.425 0.5399 0.0
H953 H 0.59925 0.45306 0.54278 0.0
H954 H 0.64285 0.41045 0.4741 0.0
H955 H 0.62741 0.41839 0.50379 0.0
H956 H 0.55168 0.38046 0.50857 0.0
C957 C 0.53665 0.43078 0.55404 0.0
C958 C 0.58882 0.4371 0.53548 0.0
C959 C 0.52817 0.43909 0.56864 0.0
C960 C 0.62525 0.40545 0.47423 0.0
C961 C 0.6164 0.41013 0.49121 0.0
C962 C 0.56224 0.39646 0.51573 0.0
C963 C 0.55674 0.4308 0.55735 0.0
C964 C 0.56645 0.42338 0.54134 0.0
C965 C 0.5937 0.40423 0.49188 0.0
C966 C 0.58451 0.41043 0.50942 0.0
H967 H 0.56817 0.45235 0.60455 0.0
H968 H 0.58333 0.43864 0.57868 0.0
H969 H 0.53601 0.392 0.53579 0.0
H970 H 0.57776 0.3796 0.44592 0.0
H971 H 0.56254 0.38851 0.47506 0.0
C972 C 0.09435 0.51419 0.73078 0.0
C973 C 0.09891 0.51448 0.75136 0.0
C974 C 0.11179 0.52415 0.71691 0.0
C975 C 0.17068 0.56778 0.71259 0.0
H976 H 0.16658 0.53991 0.66103 0.0
C977 C 0.22324 0.61621 0.64343 0.0
C978 C 0.23107 0.60533 0.63073 0.0
C979 C 0.20912 0.6048 0.65955 0.0
C980 C 0.16813 0.54782 0.67544 0.0
H981 H 0.1253 0.52522 0.77354 0.0
H982 H 0.15589 0.54262 0.74921 0.0
H983 H 0.13804 0.51971 0.68643 0.0
H984 H 0.23083 0.57414 0.62552 0.0
H985 H 0.20629 0.55434 0.65364 0.0
H986 H 0.20073 0.59597 0.7015 0.0
C987 C 0.13878 0.53474 0.74387 0.0
C988 C 0.15165 0.53634 0.68991 0.0
C989 C 0.1213 0.52461 0.75776 0.0
C990 C 0.22501 0.58301 0.6349 0.0
C991 C 0.21086 0.5716 0.65097 0.0
C992 C 0.18713 0.57933 0.69806 0.0
C993 C 0.13419 0.53473 0.72331 0.0
C994 C 0.1526 0.54629 0.70855 0.0
C995 C 0.20247 0.58225 0.66328 0.0
C996 C 0.1859 0.56956 0.67925 0.0
H997 H 0.07725 0.50632 0.72541 0.0
H998 H 0.10771 0.52405 0.7012 0.0
H999 H 0.17178 0.57595 0.72677 0.0
H1000 H 0.22759 0.6334 0.64067 0.0
H1001 H 0.20277 0.61342 0.66865 0.0
C1002 C 0.57565 0.09224 0.89652 0.0
C1003 C 0.57471 0.09839 0.91637 0.0
C1004 C 0.58399 0.10836 0.88135 0.0
C1005 C 0.61517 0.17032 0.87253 0.0
H1006 H 0.58777 0.1523 0.81995 0.0
C1007 C 0.62096 0.23044 0.80837 0.0
C1008 C 0.62789 0.22657 0.7897 0.0
C1009 C 0.61653 0.21564 0.82435 0.0
C1010 C 0.59565 0.15749 0.83454 0.0
H1011 H 0.58165 0.12595 0.93618 0.0
H1012 H 0.59519 0.1541 0.90961 0.0
H1013 H 0.57562 0.12482 0.84683 0.0
H1014 H 0.63582 0.20433 0.77316 0.0
H1015 H 0.62737 0.17812 0.80095 0.0
H1016 H 0.63436 0.20338 0.86014 0.0
C1017 C 0.59029 0.13702 0.90568 0.0
C1018 C 0.58884 0.14173 0.84996 0.0
C1019 C 0.58239 0.12092 0.92092 0.0
C1020 C 0.63058 0.2078 0.78739 0.0
C1021 C 0.62569 0.19277 0.80322 0.0
C1022 C 0.62163 0.1862 0.85717 0.0
C1023 C 0.59106 0.13094 0.88563 0.0
C1024 C 0.59856 0.14786 0.86918 0.0
C1025 C 0.61849 0.1965 0.82177 0.0
C1026 C 0.61197 0.17985 0.83805 0.0
H1027 H 0.56999 0.07493 0.89276 0.0
H1028 H 0.58486 0.10303 0.86627 0.0
H1029 H 0.62336 0.17568 0.88696 0.0
H1030 H 0.61882 0.24482 0.8106 0.0
H1031 H 0.61089 0.21876 0.83852 0.0
C1032 C 0.47508 0.57409 0.08132 0.0
C1033 C 0.49672 0.58956 0.0881 0.0
C1034 C 0.46448 0.58026 0.06689 0.0
C1035 C 0.47656 0.62025 0.02596 0.0
H1036 H 0.41356 0.6016 0.03038 0.0
C1037 C 0.43288 0.64702 0.96759 0.0
C1038 C 0.41147 0.6305 0.96122 0.0
C1039 C 0.44295 0.64334 0.98422 0.0
C1040 C 0.43112 0.60677 0.02883 0.0
H1041 H 0.52392 0.62385 0.08536 0.0
H1042 H 0.50549 0.6345 0.05997 0.0
H1043 H 0.43182 0.5926 0.05725 0.0
H1044 H 0.38369 0.59729 0.96761 0.0
H1045 H 0.40141 0.59072 0.99636 0.0
H1046 H 0.47584 0.63398 0.9974 0.0
C1047 C 0.49685 0.61754 0.06571 0.0
C1048 C 0.44157 0.60164 0.04424 0.0
C1049 C 0.50742 0.61141 0.08022 0.0
C1050 C 0.40017 0.61041 0.97213 0.0
C1051 C 0.41029 0.60668 0.98871 0.0
C1052 C 0.4661 0.62528 0.01052 0.0
C1053 C 0.4753 0.602 0.05883 0.0
C1054 C 0.46437 0.60821 0.0429 0.0
C1055 C 0.43191 0.623 0.99482 0.0
C1056 C 0.44321 0.61848 0.0117 0.0
H1057 H 0.46649 0.55703 0.08682 0.0
H1058 H 0.448 0.56781 0.06167 0.0
H1059 H 0.49408 0.62527 0.02437 0.0
H1060 H 0.442 0.66276 0.95962 0.0
H1061 H 0.45945 0.65643 0.98873 0.0
C1062 C 0.92759 0.47694 0.23387 0.0
C1063 C 0.92221 0.47819 0.25399 0.0
C1064 C 0.91097 0.46861 0.21915 0.0
C1065 C 0.85033 0.43287 0.2117 0.0
H1066 H 0.86271 0.4633 0.16037 0.0
C1067 C 0.79634 0.39376 0.14053 0.0
C1068 C 0.79267 0.40798 0.12794 0.0
C1069 C 0.81067 0.4024 0.15706 0.0
C1070 C 0.85889 0.45471 0.17468 0.0
H1071 H 0.89515 0.47147 0.27448 0.0
H1072 H 0.86604 0.45698 0.24865 0.0
H1073 H 0.89071 0.47855 0.18692 0.0
H1074 H 0.80057 0.44234 0.12335 0.0
H1075 H 0.82542 0.45732 0.15218 0.0
H1076 H 0.81846 0.40901 0.19939 0.0
C1077 C 0.88314 0.46239 0.24433 0.0
C1078 C 0.87504 0.46333 0.18981 0.0
C1079 C 0.89981 0.47087 0.25907 0.0
C1080 C 0.8031 0.43091 0.13263 0.0
C1081 C 0.81745 0.43954 0.1491 0.0
C1082 C 0.8342 0.42417 0.1965 0.0
C1083 C 0.88856 0.46125 0.2242 0.0
C1084 C 0.87101 0.45243 0.20844 0.0
C1085 C 0.82168 0.42545 0.16131 0.0
C1086 C 0.83835 0.43496 0.1778 0.0
H1087 H 0.94472 0.48265 0.22946 0.0
H1088 H 0.91564 0.46773 0.2038 0.0
H1089 H 0.84681 0.42403 0.22587 0.0
H1090 H 0.78856 0.37601 0.13737 0.0
H1091 H 0.81371 0.39115 0.16611 0.0
loop_
_geom_bond_atom_site_label_1
_geom_bond_atom_site_label_2
_geom_bond_distance
_geom_bond_site_symmetry_2
_ccdc_geom_bond_type
H0 C19 0.949 . S
H1 C20 0.950 . S
H2 C22 0.950 . S
H3 C23 0.950 . S
H4 C25 0.950 . S
H5 C28 0.950 . S
H6 C29 0.950 . S
H7 C31 0.951 . S
H8 C32 0.949 . S
H9 C34 0.949 . S
H10 C35 0.950 . S
H11 C37 0.950 . S
H12 C38 0.950 . S
H13 C40 0.951 . S
H14 C43 0.950 . S
H15 C44 0.950 . S
H16 C46 0.951 . S
H17 C47 0.949 . S
C18 C19 1.376 . S
C18 C23 1.386 . S
C18 C24 1.483 . S
C19 H0 0.949 . S
C19 C18 1.376 . S
C19 C20 1.397 . S
C20 H1 0.950 . S
C20 C19 1.397 . S
C20 C21 1.391 . S
C21 C20 1.391 . S
C21 C22 1.405 . S
C22 H2 0.950 . S
C22 C21 1.405 . S
C22 C23 1.367 . S
C23 H3 0.950 . S
C23 C18 1.386 . S
C23 C22 1.367 . S
C24 C18 1.483 . S
C24 C25 1.382 1_655 S
C24 C26 1.403 . S
C25 H4 0.950 . S
C25 C24 1.382 1_455 S
C25 C41 1.411 . S
C26 C24 1.403 . S
C26 C27 1.489 . S
C26 C40 1.411 1_655 S
C27 C26 1.489 . S
C27 C28 1.383 . S
C27 C32 1.382 . S
C28 H5 0.950 . S
C28 C27 1.383 . S
C28 C29 1.395 . S
C29 H6 0.950 . S
C29 C28 1.395 . S
C29 C30 1.288 . S
C30 C29 1.288 . S
C30 C31 1.392 . S
C31 H7 0.951 . S
C31 C30 1.392 . S
C31 C32 1.392 . S
C32 H8 0.949 . S
C32 C27 1.382 . S
C32 C31 1.392 . S
C33 C34 1.376 . S
C33 C38 1.386 . S
C33 C39 1.483 . S
C34 H9 0.949 . S
C34 C33 1.376 . S
C34 C35 1.397 . S
C35 H10 0.950 . S
C35 C34 1.397 . S
C35 C36 1.391 . S
C36 C35 1.391 . S
C36 C37 1.405 . S
C37 H11 0.950 . S
C37 C36 1.405 . S
C37 C38 1.367 . S
C38 H12 0.950 . S
C38 C33 1.386 . S
C38 C37 1.367 . S
C39 C33 1.483 . S
C39 C40 1.382 . S
C39 C41 1.403 . S
C40 H13 0.951 . S
C40 C26 1.411 1_455 S
C40 C39 1.382 . S
C41 C25 1.411 . S
C41 C39 1.403 . S
C41 C42 1.489 . S
C42 C41 1.489 . S
C42 C43 1.383 . S
C42 C47 1.382 . S
C43 H14 0.950 . S
C43 C42 1.383 . S
C43 C44 1.395 . S
C44 H15 0.950 . S
C44 C43 1.395 . S
C44 C45 1.288 . S
C45 C44 1.288 . S
C45 C46 1.392 . S
C46 H16 0.951 . S
C46 C45 1.392 . S
C46 C47 1.392 . S
C47 H17 0.949 . S
C47 C42 1.382 . S
C47 C46 1.392 . S
H48 C67 0.949 . S
H49 C68 0.950 . S
H50 C70 0.950 . S
H51 C71 0.950 . S
H52 C73 0.950 1_565 S
H53 C76 0.950 . S
H54 C77 0.950 . S
H55 C79 0.951 . S
H56 C80 0.949 . S
H57 C82 0.949 . S
H58 C83 0.950 . S
H59 C85 0.950 . S
H60 C86 0.950 . S
H61 C88 0.950 . S
H62 C91 0.950 . S
H63 C92 0.950 . S
H64 C94 0.951 . S
H65 C95 0.949 . S
C66 C67 1.376 . S
C66 C71 1.386 . S
C66 C72 1.483 . S
C67 H48 0.949 . S
C67 C66 1.376 . S
C67 C68 1.397 . S
C68 H49 0.950 . S
C68 C67 1.397 . S
C68 C69 1.391 . S
C69 C68 1.391 . S
C69 C70 1.405 . S
C70 H50 0.950 . S
C70 C69 1.405 . S
C70 C71 1.367 . S
C71 H51 0.950 . S
C71 C66 1.386 . S
C71 C70 1.367 . S
C72 C66 1.483 . S
C72 C73 1.382 1_565 S
C72 C74 1.403 . S
C73 H52 0.950 1_545 S
C73 C72 1.382 1_545 S
C73 C89 1.411 . S
C74 C72 1.403 . S
C74 C75 1.489 . S
C74 C88 1.411 1_565 S
C75 C74 1.489 . S
C75 C76 1.383 . S
C75 C80 1.382 . S
C76 H53 0.950 . S
C76 C75 1.383 . S
C76 C77 1.395 . S
C77 H54 0.950 . S
C77 C76 1.395 . S
C77 C78 1.288 . S
C78 C77 1.288 . S
C78 C79 1.392 . S
C79 H55 0.951 . S
C79 C78 1.392 . S
C79 C80 1.392 . S
C80 H56 0.949 . S
C80 C75 1.382 . S
C80 C79 1.392 . S
C81 C82 1.376 . S
C81 C86 1.386 . S
C81 C87 1.483 . S
C82 H57 0.949 . S
C82 C81 1.376 . S
C82 C83 1.397 . S
C83 H58 0.950 . S
C83 C82 1.397 . S
C83 C84 1.391 . S
C84 C83 1.391 . S
C84 C85 1.405 . S
C85 H59 0.950 . S
C85 C84 1.405 . S
C85 C86 1.367 . S
C86 H60 0.950 . S
C86 C81 1.386 . S
C86 C85 1.367 . S
C87 C81 1.483 . S
C87 C88 1.382 . S
C87 C89 1.403 . S
C88 H61 0.950 . S
C88 C74 1.411 1_545 S
C88 C87 1.382 . S
C89 C73 1.411 . S
C89 C87 1.403 . S
C89 C90 1.489 . S
C90 C89 1.489 . S
C90 C91 1.383 . S
C90 C95 1.382 . S
C91 H62 0.950 . S
C91 C90 1.383 . S
C91 C92 1.395 . S
C92 H63 0.950 . S
C92 C91 1.395 . S
C92 C93 1.288 . S
C93 C92 1.288 . S
C93 C94 1.392 . S
C94 H64 0.951 . S
C94 C93 1.392 . S
C94 C95 1.392 . S
C95 H65 0.949 . S
C95 C90 1.382 . S
C95 C94 1.392 . S
H96 C115 0.949 . S
H97 C116 0.950 . S
H98 C118 0.950 . S
H99 C119 0.950 . S
H100 C121 0.950 . S
H101 C124 0.950 . S
H102 C125 0.950 . S
H103 C127 0.951 . S
H104 C128 0.949 . S
H105 C130 0.949 . S
H106 C131 0.950 . S
H107 C133 0.950 . S
H108 C134 0.950 . S
H109 C136 0.950 . S
H110 C139 0.950 . S
H111 C140 0.950 . S
H112 C142 0.951 . S
H113 C143 0.949 . S
C114 C115 1.376 . S
C114 C119 1.386 . S
C114 C120 1.483 . S
C115 H96 0.949 . S
C115 C114 1.376 . S
C115 C116 1.397 . S
C116 H97 0.950 . S
C116 C115 1.397 . S
C116 C117 1.391 . S
C117 C116 1.391 . S
C117 C118 1.405 . S
C118 H98 0.950 . S
C118 C117 1.405 . S
C118 C119 1.367 . S
C119 H99 0.950 . S
C119 C114 1.386 . S
C119 C118 1.367 . S
C120 C114 1.483 . S
C120 C121 1.382 . S
C120 C122 1.403 . S
C121 H100 0.950 . S
C121 C120 1.382 . S
C121 C137 1.411 . S
C122 C120 1.403 . S
C122 C123 1.489 . S
C122 C136 1.411 . S
C123 C122 1.489 . S
C123 C124 1.383 . S
C123 C128 1.382 . S
C124 H101 0.950 . S
C124 C123 1.383 . S
C124 C125 1.395 . S
C125 H102 0.950 . S
C125 C124 1.395 . S
C125 C126 1.288 . S
C126 C125 1.288 . S
C126 C127 1.392 . S
C127 H103 0.951 . S
C127 C126 1.392 . S
C127 C128 1.392 . S
C128 H104 0.949 . S
C128 C123 1.382 . S
C128 C127 1.392 . S
C129 C130 1.376 . S
C129 C134 1.386 . S
C129 C135 1.483 . S
C130 H105 0.949 . S
C130 C129 1.376 . S
C130 C131 1.397 . S
C131 H106 0.950 . S
C131 C130 1.397 . S
C131 C132 1.391 . S
C132 C131 1.391 . S
C132 C133 1.405 . S
C133 H107 0.950 . S
C133 C132 1.405 . S
C133 C134 1.367 . S
C134 H108 0.950 . S
C134 C129 1.386 . S
C134 C133 1.367 . S
C135 C129 1.483 . S
C135 C136 1.382 . S
C135 C137 1.403 . S
C136 H109 0.950 . S
C136 C122 1.411 . S
C136 C135 1.382 . S
C137 C121 1.411 . S
C137 C135 1.403 . S
C137 C138 1.489 . S
C138 C137 1.489 . S
C138 C139 1.383 . S
C138 C143 1.382 . S
C139 H110 0.950 . S
C139 C138 1.383 . S
C139 C140 1.395 . S
C140 H111 0.950 . S
C140 C139 1.395 . S
C140 C141 1.288 . S
C141 C140 1.288 . S
C141 C142 1.392 . S
C142 H112 0.951 . S
C142 C141 1.392 . S
C142 C143 1.392 . S
C143 H113 0.949 . S
C143 C138 1.382 . S
C143 C142 1.392 . S
H144 C163 0.949 . S
H145 C164 0.950 . S
H146 C166 0.950 . S
H147 C167 0.950 . S
H148 C169 0.957 . S
H149 C172 0.950 . S
H150 C173 0.950 . S
H151 C175 0.951 . S
H152 C176 0.949 . S
H153 C178 0.949 . S
H154 C179 0.950 . S
H155 C181 0.950 . S
H156 C182 0.950 . S
H157 C184 0.950 . S
H158 C187 0.950 . S
H159 C188 0.950 . S
H160 C190 0.951 . S
H161 C191 0.949 . S
C162 C163 1.376 . S
C162 C167 1.386 . S
C162 C168 1.483 . S
C163 H144 0.949 . S
C163 C162 1.376 . S
C163 C164 1.397 . S
C164 H145 0.950 . S
C164 C163 1.397 . S
C164 C165 1.391 . S
C165 C164 1.391 . S
C165 C166 1.405 . S
C166 H146 0.950 . S
C166 C165 1.405 . S
C166 C167 1.367 . S
C167 H147 0.950 . S
C167 C162 1.386 . S
C167 C166 1.367 . S
C168 C162 1.483 . S
C168 C169 1.382 . S
C168 C170 1.403 . S
C169 H148 0.957 . S
C169 C168 1.382 . S
C169 C185 1.411 1_455 S
C170 C168 1.403 . S
C170 C171 1.489 . S
C170 C184 1.411 . S
C171 C170 1.489 . S
C171 C172 1.383 . S
C171 C176 1.382 . S
C172 H149 0.950 . S
C172 C171 1.383 . S
C172 C173 1.395 . S
C173 H150 0.950 . S
C173 C172 1.395 . S
C173 C174 1.288 . S
C174 C173 1.288 . S
C174 C175 1.392 . S
C175 H151 0.951 . S
C175 C174 1.392 . S
C175 C176 1.392 . S
C176 H152 0.949 . S
C176 C171 1.382 . S
C176 C175 1.392 . S
C177 C178 1.376 . S
C177 C182 1.386 . S
C177 C183 1.483 . S
C178 H153 0.949 . S
C178 C177 1.376 . S
C178 C179 1.397 . S
C179 H154 0.950 . S
C179 C178 1.397 . S
C179 C180 1.391 . S
C180 C179 1.391 . S
C180 C181 1.405 . S
C181 H155 0.950 . S
C181 C180 1.405 . S
C181 C182 1.367 . S
C182 H156 0.950 . S
C182 C177 1.386 . S
C182 C181 1.367 . S
C183 C177 1.483 . S
C183 C184 1.382 1_655 S
C183 C185 1.403 . S
C184 H157 0.950 . S
C184 C170 1.411 . S
C184 C183 1.382 1_455 S
C185 C169 1.411 1_655 S
C185 C183 1.403 . S
C185 C186 1.489 . S
C186 C185 1.489 . S
C186 C187 1.383 . S
C186 C191 1.382 . S
C187 H158 0.950 . S
C187 C186 1.383 . S
C187 C188 1.395 . S
C188 H159 0.950 . S
C188 C187 1.395 . S
C188 C189 1.288 . S
C189 C188 1.288 . S
C189 C190 1.392 . S
C190 H160 0.951 . S
C190 C189 1.392 . S
C190 C191 1.392 . S
C191 H161 0.949 . S
C191 C186 1.382 . S
C191 C190 1.392 . S
H192 C211 0.949 . S
H193 C212 0.950 . S
H194 C214 0.950 . S
H195 C215 0.950 . S
H196 C217 0.950 . S
H197 C220 0.950 . S
H198 C221 0.950 . S
H199 C223 0.951 . S
H200 C224 0.949 . S
H201 C226 0.949 . S
H202 C227 0.950 . S
H203 C229 0.950 . S
H204 C230 0.950 . S
H205 C232 0.950 1_565 S
H206 C235 0.950 . S
H207 C236 0.950 . S
H208 C238 0.951 . S
H209 C239 0.949 . S
C210 C211 1.376 . S
C210 C215 1.386 1_554 S
C210 C216 1.483 1_554 S
C211 H192 0.949 . S
C211 C210 1.376 . S
C211 C212 1.397 . S
C212 H193 0.950 . S
C212 C211 1.397 . S
C212 C213 1.391 . S
C213 C212 1.391 . S
C213 C214 1.405 . S
C214 H194 0.950 . S
C214 C213 1.405 . S
C214 C215 1.367 1_554 S
C215 H195 0.950 . S
C215 C210 1.386 1_556 S
C215 C214 1.367 1_556 S
C216 C210 1.483 1_556 S
C216 C217 1.382 1_556 S
C216 C218 1.403 . S
C217 H196 0.950 . S
C217 C216 1.382 1_554 S
C217 C233 1.411 1_545 S
C218 C216 1.403 . S
C218 C219 1.489 . S
C218 C232 1.411 . S
C219 C218 1.489 . S
C219 C220 1.383 . S
C219 C224 1.382 . S
C220 H197 0.950 . S
C220 C219 1.383 . S
C220 C221 1.395 . S
C221 H198 0.950 . S
C221 C220 1.395 . S
C221 C222 1.288 . S
C222 C221 1.288 . S
C222 C223 1.392 . S
C223 H199 0.951 . S
C223 C222 1.392 . S
C223 C224 1.392 . S
C224 H200 0.949 . S
C224 C219 1.382 . S
C224 C223 1.392 . S
C225 C226 1.376 . S
C225 C230 1.386 . S
C225 C231 1.483 . S
C226 H201 0.949 . S
C226 C225 1.376 . S
C226 C227 1.397 . S
C227 H202 0.950 . S
C227 C226 1.397 . S
C227 C228 1.391 . S
C228 C227 1.391 . S
C228 C229 1.405 . S
C229 H203 0.950 . S
C229 C228 1.405 . S
C229 C230 1.367 . S
C230 H204 0.950 . S
C230 C225 1.386 . S
C230 C229 1.367 . S
C231 C225 1.483 . S
C231 C232 1.382 1_565 S
C231 C233 1.403 1_556 S
C232 H205 0.950 1_545 S
C232 C218 1.411 . S
C232 C231 1.382 1_545 S
C233 C217 1.411 1_565 S
C233 C231 1.403 1_554 S
C233 C234 1.489 . S
C234 C233 1.489 . S
C234 C235 1.383 . S
C234 C239 1.382 . S
C235 H206 0.950 . S
C235 C234 1.383 . S
C235 C236 1.395 . S
C236 H207 0.950 . S
C236 C235 1.395 . S
C236 C237 1.288 . S
C237 C236 1.288 . S
C237 C238 1.392 . S
C238 H208 0.951 . S
C238 C237 1.392 . S
C238 C239 1.392 . S
C239 H209 0.949 . S
C239 C234 1.382 . S
C239 C238 1.392 . S
H240 C259 0.949 . S
H241 C260 0.950 . S
H242 C262 0.950 . S
H243 C263 0.950 . S
H244 C265 0.950 . S
H245 C268 0.950 . S
H246 C269 0.950 . S
H247 C271 0.951 . S
H248 C272 0.949 . S
H249 C274 0.949 . S
H250 C275 0.950 . S
H251 C277 0.950 . S
H252 C278 0.950 . S
H253 C280 0.950 . S
H254 C283 0.950 . S
H255 C284 0.950 . S
H256 C286 0.951 . S
H257 C287 0.949 . S
C258 C259 1.376 . S
C258 C263 1.386 . S
C258 C264 1.483 . S
C259 H240 0.949 . S
C259 C258 1.376 . S
C259 C260 1.397 . S
C260 H241 0.950 . S
C260 C259 1.397 . S
C260 C261 1.391 . S
C261 C260 1.391 . S
C261 C262 1.405 . S
C262 H242 0.950 . S
C262 C261 1.405 . S
C262 C263 1.367 . S
C263 H243 0.950 . S
C263 C258 1.386 . S
C263 C262 1.367 . S
C264 C258 1.483 . S
C264 C265 1.382 . S
C264 C266 1.403 . S
C265 H244 0.950 . S
C265 C264 1.382 . S
C265 C281 1.411 . S
C266 C264 1.403 . S
C266 C267 1.489 . S
C266 C280 1.411 . S
C267 C266 1.489 . S
C267 C268 1.383 . S
C267 C272 1.382 . S
C268 H245 0.950 . S
C268 C267 1.383 . S
C268 C269 1.395 . S
C269 H246 0.950 . S
C269 C268 1.395 . S
C269 C270 1.288 . S
C270 C269 1.288 . S
C270 C271 1.392 . S
C271 H247 0.951 . S
C271 C270 1.392 . S
C271 C272 1.392 . S
C272 H248 0.949 . S
C272 C267 1.382 . S
C272 C271 1.392 . S
C273 C274 1.376 . S
C273 C278 1.386 . S
C273 C279 1.483 . S
C274 H249 0.949 . S
C274 C273 1.376 . S
C274 C275 1.397 . S
C275 H250 0.950 . S
C275 C274 1.397 . S
C275 C276 1.391 . S
C276 C275 1.391 . S
C276 C277 1.405 . S
C277 H251 0.950 . S
C277 C276 1.405 . S
C277 C278 1.367 . S
C278 H252 0.950 . S
C278 C273 1.386 . S
C278 C277 1.367 . S
C279 C273 1.483 . S
C279 C280 1.382 . S
C279 C281 1.403 . S
C280 H253 0.950 . S
C280 C266 1.411 . S
C280 C279 1.382 . S
C281 C265 1.411 . S
C281 C279 1.403 . S
C281 C282 1.489 . S
C282 C281 1.489 . S
C282 C283 1.383 . S
C282 C287 1.382 . S
C283 H254 0.950 . S
C283 C282 1.383 . S
C283 C284 1.395 . S
C284 H255 0.950 . S
C284 C283 1.395 . S
C284 C285 1.288 . S
C285 C284 1.288 . S
C285 C286 1.392 . S
C286 H256 0.951 . S
C286 C285 1.392 . S
C286 C287 1.392 . S
C287 H257 0.949 . S
C287 C282 1.382 . S
C287 C286 1.392 . S
O288 Cd289 2.223 . S
O288 C296 1.315 . S
Cd289 O288 2.223 . S
Cd289 O292 2.297 . S
Cd289 O293 2.439 . S
Cd289 O299 2.240 . S
Cd290 O291 2.240 . S
Cd290 O298 2.223 . S
Cd290 O300 2.297 . S
Cd290 O301 2.439 . S
O291 Cd290 2.240 . S
O291 C296 1.279 . S
O292 Cd289 2.297 . S
O292 C294 1.247 . S
O293 Cd289 2.439 . S
O293 C294 1.208 . S
C294 O292 1.247 . S
C294 O293 1.208 . S
C295 O300 1.247 . S
C295 O301 1.208 . S
C296 O288 1.315 . S
C296 O291 1.279 . S
C297 O298 1.315 . S
C297 O299 1.279 . S
O298 Cd290 2.223 . S
O298 C297 1.315 . S
O299 Cd289 2.240 . S
O299 C297 1.279 . S
O300 Cd290 2.297 . S
O300 C295 1.247 . S
O301 Cd290 2.439 . S
O301 C295 1.208 . S
O302 Cd303 2.223 . S
O302 C310 1.315 . S
Cd303 O302 2.223 . S
Cd303 O306 2.297 . S
Cd303 O307 2.439 . S
Cd303 O313 2.240 . S
Cd304 O305 2.240 . S
Cd304 O312 2.223 . S
Cd304 O314 2.297 . S
Cd304 O315 2.439 . S
O305 Cd304 2.240 . S
O305 C310 1.279 . S
O306 Cd303 2.297 . S
O306 C308 1.247 . S
O307 Cd303 2.439 . S
O307 C308 1.208 . S
C308 O306 1.247 . S
C308 O307 1.208 . S
C309 O314 1.247 . S
C309 O315 1.208 . S
C310 O302 1.315 . S
C310 O305 1.279 . S
C311 O312 1.315 . S
C311 O313 1.279 . S
O312 Cd304 2.223 . S
O312 C311 1.315 . S
O313 Cd303 2.240 . S
O313 C311 1.279 . S
O314 Cd304 2.297 . S
O314 C309 1.247 . S
O315 Cd304 2.439 . S
O315 C309 1.208 . S
O316 Cd317 2.223 . S
O316 C324 1.315 . S
Cd317 O316 2.223 . S
Cd317 O320 2.297 . S
Cd317 O321 2.439 . S
Cd317 O327 2.240 . S
Cd318 O319 2.240 . S
Cd318 O326 2.223 . S
Cd318 O328 2.297 . S
Cd318 O329 2.439 . S
O319 Cd318 2.240 . S
O319 C324 1.279 . S
O320 Cd317 2.297 . S
O320 C322 1.247 . S
O321 Cd317 2.439 . S
O321 C322 1.208 . S
C322 O320 1.247 . S
C322 O321 1.208 . S
C323 O328 1.247 . S
C323 O329 1.208 . S
C324 O316 1.315 . S
C324 O319 1.279 . S
C325 O326 1.315 . S
C325 O327 1.279 . S
O326 Cd318 2.223 . S
O326 C325 1.315 . S
O327 Cd317 2.240 . S
O327 C325 1.279 . S
O328 Cd318 2.297 . S
O328 C323 1.247 . S
O329 Cd318 2.439 . S
O329 C323 1.208 . S
O330 Cd331 2.223 . S
O330 C338 1.315 . S
Cd331 O330 2.223 . S
Cd331 O334 2.297 . S
Cd331 O335 2.439 . S
Cd331 O341 2.240 . S
Cd332 O333 2.240 . S
Cd332 O340 2.223 . S
Cd332 O342 2.297 . S
Cd332 O343 2.439 . S
O333 Cd332 2.240 . S
O333 C338 1.279 . S
O334 Cd331 2.297 . S
O334 C336 1.247 . S
O335 Cd331 2.439 . S
O335 C336 1.208 . S
C336 O334 1.247 . S
C336 O335 1.208 . S
C337 O342 1.247 . S
C337 O343 1.208 . S
C338 O330 1.315 . S
C338 O333 1.279 . S
C339 O340 1.315 . S
C339 O341 1.279 . S
O340 Cd332 2.223 . S
O340 C339 1.315 . S
O341 Cd331 2.240 . S
O341 C339 1.279 . S
O342 Cd332 2.297 . S
O342 C337 1.247 . S
O343 Cd332 2.439 . S
O343 C337 1.208 . S
O344 Cd345 2.223 . S
O344 C352 1.315 . S
Cd345 O344 2.223 . S
Cd345 O348 2.297 . S
Cd345 O349 2.439 . S
Cd345 O355 2.240 . S
Cd346 O347 2.240 . S
Cd346 O354 2.223 . S
Cd346 O356 2.297 . S
Cd346 O357 2.439 . S
O347 Cd346 2.240 . S
O347 C352 1.279 . S
O348 Cd345 2.297 . S
O348 C350 1.247 . S
O349 Cd345 2.439 . S
O349 C350 1.208 . S
C350 O348 1.247 . S
C350 O349 1.208 . S
C351 O356 1.247 . S
C351 O357 1.208 . S
C352 O344 1.315 . S
C352 O347 1.279 . S
C353 O354 1.315 . S
C353 O355 1.279 . S
O354 Cd346 2.223 . S
O354 C353 1.315 . S
O355 Cd345 2.240 . S
O355 C353 1.279 . S
O356 Cd346 2.297 . S
O356 C351 1.247 . S
O357 Cd346 2.439 . S
O357 C351 1.208 . S
O358 Cd359 2.223 . S
O358 C366 1.315 . S
Cd359 O358 2.223 . S
Cd359 O362 2.297 . S
Cd359 O363 2.439 . S
Cd359 O369 2.240 . S
Cd360 O361 2.240 . S
Cd360 O368 2.223 . S
Cd360 O370 2.297 . S
Cd360 O371 2.439 . S
O361 Cd360 2.240 . S
O361 C366 1.279 . S
O362 Cd359 2.297 . S
O362 C364 1.247 . S
O363 Cd359 2.439 . S
O363 C364 1.208 . S
C364 O362 1.247 . S
C364 O363 1.208 . S
C365 O370 1.247 . S
C365 O371 1.208 . S
C366 O358 1.315 . S
C366 O361 1.279 . S
C367 O368 1.315 . S
C367 O369 1.279 . S
O368 Cd360 2.223 . S
O368 C367 1.315 . S
O369 Cd359 2.240 . S
O369 C367 1.279 . S
O370 Cd360 2.297 . S
O370 C365 1.247 . S
O371 Cd360 2.439 . S
O371 C365 1.208 . S
C372 C373 1.349 . S
C372 C374 1.327 . S
C372 H397 0.950 . S
C373 C372 1.349 . S
C373 C389 1.349 . S
C374 C372 1.327 . S
C374 C393 1.429 . S
C374 H398 0.950 . S
C375 C392 1.574 . S
C375 C394 1.368 . S
C375 H399 0.949 . S
H376 C380 0.949 . S
C377 C378 1.349 . S
C377 C379 1.327 . S
C377 H400 0.950 . S
C378 C377 1.349 . S
C378 C390 1.349 . S
C379 C377 1.327 . S
C379 C395 1.429 . S
C379 H401 0.950 . S
C380 H376 0.949 . S
C380 C388 1.574 . S
C380 C396 1.368 . S
H381 C389 0.950 . S
H382 C387 0.950 . S
H383 C388 0.949 . S
H384 C390 0.950 . S
H385 C391 0.950 . S
H386 C392 0.949 . S
C387 H382 0.950 . S
C387 C389 1.327 . S
C387 C393 1.429 . S
C388 C380 1.574 . S
C388 H383 0.949 . S
C388 C394 1.368 . S
C389 C373 1.349 . S
C389 H381 0.950 . S
C389 C387 1.327 . S
C390 C378 1.349 . S
C390 H384 0.950 . S
C390 C391 1.327 . S
C391 H385 0.950 . S
C391 C390 1.327 . S
C391 C395 1.429 . S
C392 C375 1.574 . S
C392 H386 0.949 . S
C392 C396 1.368 . S
C393 C374 1.429 . S
C393 C387 1.429 . S
C393 C394 1.523 . S
C394 C375 1.368 . S
C394 C388 1.368 . S
C394 C393 1.523 . S
C395 C379 1.429 . S
C395 C391 1.429 . S
C395 C396 1.523 . S
C396 C380 1.368 . S
C396 C392 1.368 . S
C396 C395 1.523 . S
H397 C372 0.950 . S
H398 C374 0.950 . S
H399 C375 0.949 . S
H400 C377 0.950 . S
H401 C379 0.950 . S
C402 C403 1.349 . S
C402 C404 1.327 . S
C402 H427 0.950 . S
C403 C402 1.349 . S
C403 C419 1.349 . S
C404 C402 1.327 . S
C404 C423 1.429 . S
C404 H428 0.950 . S
C405 C422 1.574 . S
C405 C424 1.368 . S
C405 H429 0.949 . S
H406 C410 0.949 . S
C407 C408 1.349 . S
C407 C409 1.327 . S
C407 H430 0.950 . S
C408 C407 1.349 . S
C408 C420 1.349 . S
C409 C407 1.327 . S
C409 C425 1.429 . S
C409 H431 0.950 . S
C410 H406 0.949 . S
C410 C418 1.574 . S
C410 C426 1.368 . S
H411 C419 0.950 . S
H412 C417 0.950 . S
H413 C418 0.949 . S
H414 C420 0.950 . S
H415 C421 0.950 . S
H416 C422 0.949 . S
C417 H412 0.950 . S
C417 C419 1.327 . S
C417 C423 1.429 . S
C418 C410 1.574 . S
C418 H413 0.949 . S
C418 C424 1.368 . S
C419 C403 1.349 . S
C419 H411 0.950 . S
C419 C417 1.327 . S
C420 C408 1.349 . S
C420 H414 0.950 . S
C420 C421 1.327 . S
C421 H415 0.950 . S
C421 C420 1.327 . S
C421 C425 1.429 . S
C422 C405 1.574 . S
C422 H416 0.949 . S
C422 C426 1.368 . S
C423 C404 1.429 . S
C423 C417 1.429 . S
C423 C424 1.523 . S
C424 C405 1.368 . S
C424 C418 1.368 . S
C424 C423 1.523 . S
C425 C409 1.429 . S
C425 C421 1.429 . S
C425 C426 1.523 . S
C426 C410 1.368 . S
C426 C422 1.368 . S
C426 C425 1.523 . S
H427 C402 0.950 . S
H428 C404 0.950 . S
H429 C405 0.949 . S
H430 C407 0.950 . S
H431 C409 0.950 . S
C432 C433 1.349 . S
C432 C434 1.327 . S
C432 H457 0.950 . S
C433 C432 1.349 . S
C433 C449 1.349 . S
C434 C432 1.327 . S
C434 C453 1.429 . S
C434 H458 0.950 . S
C435 C452 1.574 . S
C435 C454 1.368 . S
C435 H459 0.949 . S
H436 C440 0.949 . S
C437 C438 1.349 . S
C437 C439 1.327 . S
C437 H460 0.950 . S
C438 C437 1.349 . S
C438 C450 1.349 . S
C439 C437 1.327 . S
C439 C455 1.429 . S
C439 H461 0.950 . S
C440 H436 0.949 . S
C440 C448 1.574 . S
C440 C456 1.368 . S
H441 C449 0.950 . S
H442 C447 0.950 . S
H443 C448 0.949 . S
H444 C450 0.950 . S
H445 C451 0.950 . S
H446 C452 0.949 . S
C447 H442 0.950 . S
C447 C449 1.327 . S
C447 C453 1.429 . S
C448 C440 1.574 . S
C448 H443 0.949 . S
C448 C454 1.368 . S
C449 C433 1.349 . S
C449 H441 0.950 . S
C449 C447 1.327 . S
C450 C438 1.349 . S
C450 H444 0.950 . S
C450 C451 1.327 . S
C451 H445 0.950 . S
C451 C450 1.327 . S
C451 C455 1.429 . S
C452 C435 1.574 . S
C452 H446 0.949 . S
C452 C456 1.368 . S
C453 C434 1.429 . S
C453 C447 1.429 . S
C453 C454 1.523 . S
C454 C435 1.368 . S
C454 C448 1.368 . S
C454 C453 1.523 . S
C455 C439 1.429 . S
C455 C451 1.429 . S
C455 C456 1.523 . S
C456 C440 1.368 . S
C456 C452 1.368 . S
C456 C455 1.523 . S
H457 C432 0.950 . S
H458 C434 0.950 . S
H459 C435 0.949 . S
H460 C437 0.950 . S
H461 C439 0.950 . S
C462 C463 1.349 . S
C462 C464 1.327 . S
C462 H487 0.950 . S
C463 C462 1.349 . S
C463 C479 1.349 . S
C464 C462 1.327 . S
C464 C483 1.429 . S
C464 H488 0.950 . S
C465 C482 1.574 . S
C465 C484 1.368 . S
C465 H489 0.949 . S
H466 C470 0.949 . S
C467 C468 1.349 . S
C467 C469 1.327 . S
C467 H490 0.950 . S
C468 C467 1.349 . S
C468 C480 1.349 . S
C469 C467 1.327 . S
C469 C485 1.429 . S
C469 H491 0.950 . S
C470 H466 0.949 . S
C470 C478 1.574 . S
C470 C486 1.368 . S
H471 C479 0.950 . S
H472 C477 0.950 . S
H473 C478 0.949 . S
H474 C480 0.950 . S
H475 C481 0.950 . S
H476 C482 0.949 . S
C477 H472 0.950 . S
C477 C479 1.327 . S
C477 C483 1.429 . S
C478 C470 1.574 . S
C478 H473 0.949 . S
C478 C484 1.368 . S
C479 C463 1.349 . S
C479 H471 0.950 . S
C479 C477 1.327 . S
C480 C468 1.349 . S
C480 H474 0.950 . S
C480 C481 1.327 . S
C481 H475 0.950 . S
C481 C480 1.327 . S
C481 C485 1.429 . S
C482 C465 1.574 . S
C482 H476 0.949 . S
C482 C486 1.368 . S
C483 C464 1.429 . S
C483 C477 1.429 . S
C483 C484 1.523 . S
C484 C465 1.368 . S
C484 C478 1.368 . S
C484 C483 1.523 . S
C485 C469 1.429 . S
C485 C481 1.429 . S
C485 C486 1.523 . S
C486 C470 1.368 . S
C486 C482 1.368 . S
C486 C485 1.523 . S
H487 C462 0.950 . S
H488 C464 0.950 . S
H489 C465 0.949 . S
H490 C467 0.950 . S
H491 C469 0.950 . S
C492 C493 1.349 . S
C492 C494 1.327 . S
C492 H517 0.950 . S
C493 C492 1.349 . S
C493 C509 1.349 . S
C494 C492 1.327 . S
C494 C513 1.429 . S
C494 H518 0.950 . S
C495 C512 1.574 . S
C495 C514 1.368 . S
C495 H519 0.949 . S
H496 C500 0.949 . S
C497 C498 1.349 . S
C497 C499 1.327 . S
C497 H520 0.950 . S
C498 C497 1.349 . S
C498 C510 1.349 . S
C499 C497 1.327 . S
C499 C515 1.429 . S
C499 H521 0.950 . S
C500 H496 0.949 . S
C500 C508 1.574 . S
C500 C516 1.368 . S
H501 C509 0.950 . S
H502 C507 0.950 . S
H503 C508 0.949 . S
H504 C510 0.950 . S
H505 C511 0.950 . S
H506 C512 0.949 . S
C507 H502 0.950 . S
C507 C509 1.327 . S
C507 C513 1.429 . S
C508 C500 1.574 . S
C508 H503 0.949 . S
C508 C514 1.368 . S
C509 C493 1.349 . S
C509 H501 0.950 . S
C509 C507 1.327 . S
C510 C498 1.349 . S
C510 H504 0.950 . S
C510 C511 1.327 . S
C511 H505 0.950 . S
C511 C510 1.327 . S
C511 C515 1.429 . S
C512 C495 1.574 . S
C512 H506 0.949 . S
C512 C516 1.368 . S
C513 C494 1.429 . S
C513 C507 1.429 . S
C513 C514 1.523 . S
C514 C495 1.368 . S
C514 C508 1.368 . S
C514 C513 1.523 . S
C515 C499 1.429 . S
C515 C511 1.429 . S
C515 C516 1.523 . S
C516 C500 1.368 . S
C516 C512 1.368 . S
C516 C515 1.523 . S
H517 C492 0.950 . S
H518 C494 0.950 . S
H519 C495 0.949 . S
H520 C497 0.950 . S
H521 C499 0.950 . S
C522 C523 1.349 . S
C522 C524 1.327 . S
C522 H547 0.950 . S
C523 C522 1.349 . S
C523 C539 1.349 . S
C524 C522 1.327 . S
C524 C543 1.429 . S
C524 H548 0.950 . S
C525 C542 1.574 . S
C525 C544 1.368 . S
C525 H549 0.949 . S
H526 C530 0.949 . S
C527 C528 1.349 . S
C527 C529 1.327 . S
C527 H550 0.950 . S
C528 C527 1.349 . S
C528 C540 1.349 . S
C529 C527 1.327 . S
C529 C545 1.429 . S
C529 H551 0.950 . S
C530 H526 0.949 . S
C530 C538 1.574 . S
C530 C546 1.368 . S
H531 C539 0.950 . S
H532 C537 0.950 . S
H533 C538 0.949 . S
H534 C540 0.950 . S
H535 C541 0.950 . S
H536 C542 0.949 . S
C537 H532 0.950 . S
C537 C539 1.327 . S
C537 C543 1.429 . S
C538 C530 1.574 . S
C538 H533 0.949 . S
C538 C544 1.368 . S
C539 C523 1.349 . S
C539 H531 0.950 . S
C539 C537 1.327 . S
C540 C528 1.349 . S
C540 H534 0.950 . S
C540 C541 1.327 . S
C541 H535 0.950 . S
C541 C540 1.327 . S
C541 C545 1.429 . S
C542 C525 1.574 . S
C542 H536 0.949 . S
C542 C546 1.368 . S
C543 C524 1.429 . S
C543 C537 1.429 . S
C543 C544 1.523 . S
C544 C525 1.368 . S
C544 C538 1.368 . S
C544 C543 1.523 . S
C545 C529 1.429 . S
C545 C541 1.429 . S
C545 C546 1.523 . S
C546 C530 1.368 . S
C546 C542 1.368 . S
C546 C545 1.523 . S
H547 C522 0.950 . S
H548 C524 0.950 . S
H549 C525 0.949 . S
H550 C527 0.950 . S
H551 C529 0.950 . S
C552 C553 1.349 . S
C552 C554 1.327 . S
C552 H577 0.950 . S
C553 C552 1.349 . S
C553 C569 1.349 . S
C554 C552 1.327 . S
C554 C573 1.429 . S
C554 H578 0.950 . S
C555 C572 1.574 . S
C555 C574 1.368 . S
C555 H579 0.949 . S
H556 C560 0.949 . S
C557 C558 1.349 . S
C557 C559 1.327 . S
C557 H580 0.950 . S
C558 C557 1.349 . S
C558 C570 1.349 . S
C559 C557 1.327 . S
C559 C575 1.429 . S
C559 H581 0.950 . S
C560 H556 0.949 . S
C560 C568 1.574 . S
C560 C576 1.368 . S
H561 C569 0.950 . S
H562 C567 0.950 . S
H563 C568 0.949 . S
H564 C570 0.950 . S
H565 C571 0.950 . S
H566 C572 0.949 . S
C567 H562 0.950 . S
C567 C569 1.327 . S
C567 C573 1.429 . S
C568 C560 1.574 . S
C568 H563 0.949 . S
C568 C574 1.368 . S
C569 C553 1.349 . S
C569 H561 0.950 . S
C569 C567 1.327 . S
C570 C558 1.349 . S
C570 H564 0.950 . S
C570 C571 1.327 . S
C571 H565 0.950 . S
C571 C570 1.327 . S
C571 C575 1.429 . S
C572 C555 1.574 . S
C572 H566 0.949 . S
C572 C576 1.368 . S
C573 C554 1.429 . S
C573 C567 1.429 . S
C573 C574 1.523 . S
C574 C555 1.368 . S
C574 C568 1.368 . S
C574 C573 1.523 . S
C575 C559 1.429 . S
C575 C571 1.429 . S
C575 C576 1.523 . S
C576 C560 1.368 . S
C576 C572 1.368 . S
C576 C575 1.523 . S
H577 C552 0.950 . S
H578 C554 0.950 . S
H579 C555 0.949 . S
H580 C557 0.950 . S
H581 C559 0.950 . S
C582 C583 1.349 . S
C582 C584 1.327 . S
C582 H607 0.950 . S
C583 C582 1.349 . S
C583 C599 1.349 . S
C584 C582 1.327 . S
C584 C603 1.429 . S
C584 H608 0.950 . S
C585 C602 1.574 . S
C585 C604 1.368 . S
C585 H609 0.949 . S
H586 C590 0.949 . S
C587 C588 1.349 . S
C587 C589 1.327 . S
C587 H610 0.950 . S
C588 C587 1.349 . S
C588 C600 1.349 . S
C589 C587 1.327 . S
C589 C605 1.429 . S
C589 H611 0.950 . S
C590 H586 0.949 . S
C590 C598 1.574 . S
C590 C606 1.368 . S
H591 C599 0.950 . S
H592 C597 0.950 . S
H593 C598 0.949 . S
H594 C600 0.950 . S
H595 C601 0.950 . S
H596 C602 0.949 . S
C597 H592 0.950 . S
C597 C599 1.327 . S
C597 C603 1.429 . S
C598 C590 1.574 . S
C598 H593 0.949 . S
C598 C604 1.368 . S
C599 C583 1.349 . S
C599 H591 0.950 . S
C599 C597 1.327 . S
C600 C588 1.349 . S
C600 H594 0.950 . S
C600 C601 1.327 . S
C601 H595 0.950 . S
C601 C600 1.327 . S
C601 C605 1.429 . S
C602 C585 1.574 . S
C602 H596 0.949 . S
C602 C606 1.368 . S
C603 C584 1.429 . S
C603 C597 1.429 . S
C603 C604 1.523 . S
C604 C585 1.368 . S
C604 C598 1.368 . S
C604 C603 1.523 . S
C605 C589 1.429 . S
C605 C601 1.429 . S
C605 C606 1.523 . S
C606 C590 1.368 . S
C606 C602 1.368 . S
C606 C605 1.523 . S
H607 C582 0.950 . S
H608 C584 0.950 . S
H609 C585 0.949 . S
H610 C587 0.950 . S
H611 C589 0.950 . S
C612 C613 1.349 . S
C612 C614 1.327 . S
C612 H637 0.950 . S
C613 C612 1.349 . S
C613 C629 1.349 . S
C614 C612 1.327 . S
C614 C633 1.429 . S
C614 H638 0.950 . S
C615 C632 1.574 . S
C615 C634 1.368 . S
C615 H639 0.949 . S
H616 C620 0.949 . S
C617 C618 1.349 . S
C617 C619 1.327 . S
C617 H640 0.950 . S
C618 C617 1.349 . S
C618 C630 1.349 . S
C619 C617 1.327 . S
C619 C635 1.429 . S
C619 H641 0.950 . S
C620 H616 0.949 . S
C620 C628 1.574 . S
C620 C636 1.368 . S
H621 C629 0.950 . S
H622 C627 0.950 . S
H623 C628 0.949 . S
H624 C630 0.950 . S
H625 C631 0.950 . S
H626 C632 0.949 . S
C627 H622 0.950 . S
C627 C629 1.327 . S
C627 C633 1.429 . S
C628 C620 1.574 . S
C628 H623 0.949 . S
C628 C634 1.368 . S
C629 C613 1.349 . S
C629 H621 0.950 . S
C629 C627 1.327 . S
C630 C618 1.349 . S
C630 H624 0.950 . S
C630 C631 1.327 . S
C631 H625 0.950 . S
C631 C630 1.327 . S
C631 C635 1.429 . S
C632 C615 1.574 . S
C632 H626 0.949 . S
C632 C636 1.368 . S
C633 C614 1.429 . S
C633 C627 1.429 . S
C633 C634 1.523 . S
C634 C615 1.368 . S
C634 C628 1.368 . S
C634 C633 1.523 . S
C635 C619 1.429 . S
C635 C631 1.429 . S
C635 C636 1.523 . S
C636 C620 1.368 . S
C636 C632 1.368 . S
C636 C635 1.523 . S
H637 C612 0.950 . S
H638 C614 0.950 . S
H639 C615 0.949 . S
H640 C617 0.950 . S
H641 C619 0.950 . S
C642 C643 1.349 . S
C642 C644 1.327 . S
C642 H667 0.950 . S
C643 C642 1.349 . S
C643 C659 1.349 . S
C644 C642 1.327 . S
C644 C663 1.429 . S
C644 H668 0.950 . S
C645 C662 1.574 . S
C645 C664 1.368 . S
C645 H669 0.949 . S
H646 C650 0.949 . S
C647 C648 1.349 . S
C647 C649 1.327 . S
C647 H670 0.950 . S
C648 C647 1.349 . S
C648 C660 1.349 . S
C649 C647 1.327 . S
C649 C665 1.429 . S
C649 H671 0.950 . S
C650 H646 0.949 . S
C650 C658 1.574 . S
C650 C666 1.368 . S
H651 C659 0.950 . S
H652 C657 0.950 . S
H653 C658 0.949 . S
H654 C660 0.950 . S
H655 C661 0.950 . S
H656 C662 0.949 . S
C657 H652 0.950 . S
C657 C659 1.327 . S
C657 C663 1.429 . S
C658 C650 1.574 . S
C658 H653 0.949 . S
C658 C664 1.368 . S
C659 C643 1.349 . S
C659 H651 0.950 . S
C659 C657 1.327 . S
C660 C648 1.349 . S
C660 H654 0.950 . S
C660 C661 1.327 . S
C661 H655 0.950 . S
C661 C660 1.327 . S
C661 C665 1.429 . S
C662 C645 1.574 . S
C662 H656 0.949 . S
C662 C666 1.368 . S
C663 C644 1.429 . S
C663 C657 1.429 . S
C663 C664 1.523 . S
C664 C645 1.368 . S
C664 C658 1.368 . S
C664 C663 1.523 . S
C665 C649 1.429 . S
C665 C661 1.429 . S
C665 C666 1.523 . S
C666 C650 1.368 . S
C666 C662 1.368 . S
C666 C665 1.523 . S
H667 C642 0.950 . S
H668 C644 0.950 . S
H669 C645 0.949 . S
H670 C647 0.950 . S
H671 C649 0.950 . S
C672 C673 1.349 . S
C672 C674 1.327 . S
C672 H697 0.950 . S
C673 C672 1.349 . S
C673 C689 1.349 . S
C674 C672 1.327 . S
C674 C693 1.429 . S
C674 H698 0.950 . S
C675 C692 1.574 . S
C675 C694 1.368 . S
C675 H699 0.949 . S
H676 C680 0.949 . S
C677 C678 1.349 . S
C677 C679 1.327 . S
C677 H700 0.950 . S
C678 C677 1.349 . S
C678 C690 1.349 . S
C679 C677 1.327 . S
C679 C695 1.429 . S
C679 H701 0.950 . S
C680 H676 0.949 . S
C680 C688 1.574 . S
C680 C696 1.368 . S
H681 C689 0.950 . S
H682 C687 0.950 . S
H683 C688 0.949 . S
H684 C690 0.950 . S
H685 C691 0.950 . S
H686 C692 0.949 . S
C687 H682 0.950 . S
C687 C689 1.327 . S
C687 C693 1.429 . S
C688 C680 1.574 . S
C688 H683 0.949 . S
C688 C694 1.368 . S
C689 C673 1.349 . S
C689 H681 0.950 . S
C689 C687 1.327 . S
C690 C678 1.349 . S
C690 H684 0.950 . S
C690 C691 1.327 . S
C691 H685 0.950 . S
C691 C690 1.327 . S
C691 C695 1.429 . S
C692 C675 1.574 . S
C692 H686 0.949 . S
C692 C696 1.368 . S
C693 C674 1.429 . S
C693 C687 1.429 . S
C693 C694 1.523 . S
C694 C675 1.368 . S
C694 C688 1.368 . S
C694 C693 1.523 . S
C695 C679 1.429 . S
C695 C691 1.429 . S
C695 C696 1.523 . S
C696 C680 1.368 . S
C696 C692 1.368 . S
C696 C695 1.523 . S
H697 C672 0.950 . S
H698 C674 0.950 . S
H699 C675 0.949 . S
H700 C677 0.950 . S
H701 C679 0.950 . S
C702 C703 1.349 . S
C702 C704 1.327 . S
C702 H727 0.950 . S
C703 C702 1.349 . S
C703 C719 1.349 . S
C704 C702 1.327 . S
C704 C723 1.429 . S
C704 H728 0.950 . S
C705 C722 1.574 . S
C705 C724 1.368 . S
C705 H729 0.949 . S
H706 C710 0.949 . S
C707 C708 1.349 . S
C707 C709 1.327 . S
C707 H730 0.950 . S
C708 C707 1.349 . S
C708 C720 1.349 . S
C709 C707 1.327 . S
C709 C725 1.429 . S
C709 H731 0.950 . S
C710 H706 0.949 . S
C710 C718 1.574 . S
C710 C726 1.368 . S
H711 C719 0.950 . S
H712 C717 0.950 . S
H713 C718 0.949 . S
H714 C720 0.950 . S
H715 C721 0.950 . S
H716 C722 0.949 . S
C717 H712 0.950 . S
C717 C719 1.327 . S
C717 C723 1.429 . S
C718 C710 1.574 . S
C718 H713 0.949 . S
C718 C724 1.368 . S
C719 C703 1.349 . S
C719 H711 0.950 . S
C719 C717 1.327 . S
C720 C708 1.349 . S
C720 H714 0.950 . S
C720 C721 1.327 . S
C721 H715 0.950 . S
C721 C720 1.327 . S
C721 C725 1.429 . S
C722 C705 1.574 . S
C722 H716 0.949 . S
C722 C726 1.368 . S
C723 C704 1.429 . S
C723 C717 1.429 . S
C723 C724 1.523 . S
C724 C705 1.368 . S
C724 C718 1.368 . S
C724 C723 1.523 . S
C725 C709 1.429 . S
C725 C721 1.429 . S
C725 C726 1.523 . S
C726 C710 1.368 . S
C726 C722 1.368 . S
C726 C725 1.523 . S
H727 C702 0.950 . S
H728 C704 0.950 . S
H729 C705 0.949 . S
H730 C707 0.950 . S
H731 C709 0.950 . S
C732 C733 1.349 . S
C732 C734 1.327 . S
C732 H757 0.950 . S
C733 C732 1.349 . S
C733 C749 1.349 . S
C734 C732 1.327 . S
C734 C753 1.429 . S
C734 H758 0.950 . S
C735 C752 1.574 . S
C735 C754 1.368 . S
C735 H759 0.949 . S
H736 C740 0.949 . S
C737 C738 1.349 . S
C737 C739 1.327 . S
C737 H760 0.950 . S
C738 C737 1.349 . S
C738 C750 1.349 . S
C739 C737 1.327 . S
C739 C755 1.429 . S
C739 H761 0.950 . S
C740 H736 0.949 . S
C740 C748 1.574 . S
C740 C756 1.368 . S
H741 C749 0.950 . S
H742 C747 0.950 . S
H743 C748 0.949 . S
H744 C750 0.950 . S
H745 C751 0.950 . S
H746 C752 0.949 . S
C747 H742 0.950 . S
C747 C749 1.327 . S
C747 C753 1.429 . S
C748 C740 1.574 . S
C748 H743 0.949 . S
C748 C754 1.368 . S
C749 C733 1.349 . S
C749 H741 0.950 . S
C749 C747 1.327 . S
C750 C738 1.349 . S
C750 H744 0.950 . S
C750 C751 1.327 . S
C751 H745 0.950 . S
C751 C750 1.327 . S
C751 C755 1.429 . S
C752 C735 1.574 . S
C752 H746 0.949 . S
C752 C756 1.368 . S
C753 C734 1.429 . S
C753 C747 1.429 . S
C753 C754 1.523 . S
C754 C735 1.368 . S
C754 C748 1.368 . S
C754 C753 1.523 . S
C755 C739 1.429 . S
C755 C751 1.429 . S
C755 C756 1.523 . S
C756 C740 1.368 . S
C756 C752 1.368 . S
C756 C755 1.523 . S
H757 C732 0.950 . S
H758 C734 0.950 . S
H759 C735 0.949 . S
H760 C737 0.950 . S
H761 C739 0.950 . S
C762 C763 1.349 . S
C762 C764 1.327 . S
C762 H787 0.950 . S
C763 C762 1.349 . S
C763 C779 1.349 . S
C764 C762 1.327 . S
C764 C783 1.429 . S
C764 H788 0.950 . S
C765 C782 1.574 . S
C765 C784 1.368 . S
C765 H789 0.949 . S
H766 C770 0.949 . S
C767 C768 1.349 . S
C767 C769 1.327 . S
C767 H790 0.950 . S
C768 C767 1.349 . S
C768 C780 1.349 . S
C769 C767 1.327 . S
C769 C785 1.429 . S
C769 H791 0.950 . S
C770 H766 0.949 . S
C770 C778 1.574 . S
C770 C786 1.368 . S
H771 C779 0.950 . S
H772 C777 0.950 . S
H773 C778 0.949 . S
H774 C780 0.950 . S
H775 C781 0.950 . S
H776 C782 0.949 . S
C777 H772 0.950 . S
C777 C779 1.327 . S
C777 C783 1.429 . S
C778 C770 1.574 . S
C778 H773 0.949 . S
C778 C784 1.368 . S
C779 C763 1.349 . S
C779 H771 0.950 . S
C779 C777 1.327 . S
C780 C768 1.349 . S
C780 H774 0.950 . S
C780 C781 1.327 . S
C781 H775 0.950 . S
C781 C780 1.327 . S
C781 C785 1.429 . S
C782 C765 1.574 . S
C782 H776 0.949 . S
C782 C786 1.368 . S
C783 C764 1.429 . S
C783 C777 1.429 . S
C783 C784 1.523 . S
C784 C765 1.368 . S
C784 C778 1.368 . S
C784 C783 1.523 . S
C785 C769 1.429 . S
C785 C781 1.429 . S
C785 C786 1.523 . S
C786 C770 1.368 . S
C786 C782 1.368 . S
C786 C785 1.523 . S
H787 C762 0.950 . S
H788 C764 0.950 . S
H789 C765 0.949 . S
H790 C767 0.950 . S
H791 C769 0.950 . S
C792 C793 1.349 . S
C792 C794 1.327 . S
C792 H817 0.950 . S
C793 C792 1.349 . S
C793 C809 1.349 . S
C794 C792 1.327 . S
C794 C813 1.429 . S
C794 H818 0.950 . S
C795 C812 1.574 . S
C795 C814 1.368 . S
C795 H819 0.949 . S
H796 C800 0.949 . S
C797 C798 1.349 . S
C797 C799 1.327 . S
C797 H820 0.950 . S
C798 C797 1.349 . S
C798 C810 1.349 . S
C799 C797 1.327 . S
C799 C815 1.429 . S
C799 H821 0.950 . S
C800 H796 0.949 . S
C800 C808 1.574 . S
C800 C816 1.368 . S
H801 C809 0.950 . S
H802 C807 0.950 . S
H803 C808 0.949 . S
H804 C810 0.950 . S
H805 C811 0.950 . S
H806 C812 0.949 . S
C807 H802 0.950 . S
C807 C809 1.327 . S
C807 C813 1.429 . S
C808 C800 1.574 . S
C808 H803 0.949 . S
C808 C814 1.368 . S
C809 C793 1.349 . S
C809 H801 0.950 . S
C809 C807 1.327 . S
C810 C798 1.349 . S
C810 H804 0.950 . S
C810 C811 1.327 . S
C811 H805 0.950 . S
C811 C810 1.327 . S
C811 C815 1.429 . S
C812 C795 1.574 . S
C812 H806 0.949 . S
C812 C816 1.368 . S
C813 C794 1.429 . S
C813 C807 1.429 . S
C813 C814 1.523 . S
C814 C795 1.368 . S
C814 C808 1.368 . S
C814 C813 1.523 . S
C815 C799 1.429 . S
C815 C811 1.429 . S
C815 C816 1.523 . S
C816 C800 1.368 . S
C816 C812 1.368 . S
C816 C815 1.523 . S
H817 C792 0.950 . S
H818 C794 0.950 . S
H819 C795 0.949 . S
H820 C797 0.950 . S
H821 C799 0.950 . S
C822 C823 1.349 . S
C822 C824 1.327 . S
C822 H847 0.950 . S
C823 C822 1.349 . S
C823 C839 1.349 . S
C824 C822 1.327 . S
C824 C843 1.429 . S
C824 H848 0.950 . S
C825 C842 1.574 . S
C825 C844 1.368 . S
C825 H849 0.949 . S
H826 C830 0.949 . S
C827 C828 1.349 . S
C827 C829 1.327 . S
C827 H850 0.950 . S
C828 C827 1.349 . S
C828 C840 1.349 . S
C829 C827 1.327 . S
C829 C845 1.429 . S
C829 H851 0.950 . S
C830 H826 0.949 . S
C830 C838 1.574 . S
C830 C846 1.368 . S
H831 C839 0.950 . S
H832 C837 0.950 . S
H833 C838 0.949 . S
H834 C840 0.950 . S
H835 C841 0.950 1_556 S
H836 C842 0.949 . S
C837 H832 0.950 . S
C837 C839 1.327 . S
C837 C843 1.429 . S
C838 C830 1.574 . S
C838 H833 0.949 . S
C838 C844 1.368 . S
C839 C823 1.349 . S
C839 H831 0.950 . S
C839 C837 1.327 . S
C840 C828 1.349 . S
C840 H834 0.950 . S
C840 C841 1.327 . S
C841 H835 0.950 1_554 S
C841 C840 1.327 . S
C841 C845 1.429 . S
C842 C825 1.574 . S
C842 H836 0.949 . S
C842 C846 1.368 . S
C843 C824 1.429 . S
C843 C837 1.429 . S
C843 C844 1.523 . S
C844 C825 1.368 . S
C844 C838 1.368 . S
C844 C843 1.523 . S
C845 C829 1.429 . S
C845 C841 1.429 . S
C845 C846 1.523 1_554 S
C846 C830 1.368 . S
C846 C842 1.368 . S
C846 C845 1.523 1_556 S
H847 C822 0.950 . S
H848 C824 0.950 . S
H849 C825 0.949 . S
H850 C827 0.950 . S
H851 C829 0.950 . S
C852 C853 1.349 . S
C852 C854 1.327 . S
C852 H877 0.950 . S
C853 C852 1.349 . S
C853 C869 1.349 . S
C854 C852 1.327 . S
C854 C873 1.429 . S
C854 H878 0.950 . S
C855 C872 1.574 . S
C855 C874 1.368 . S
C855 H879 0.949 . S
H856 C860 0.949 . S
C857 C858 1.349 . S
C857 C859 1.327 . S
C857 H880 0.950 . S
C858 C857 1.349 . S
C858 C870 1.349 . S
C859 C857 1.327 . S
C859 C875 1.429 . S
C859 H881 0.950 . S
C860 H856 0.949 . S
C860 C868 1.574 . S
C860 C876 1.368 . S
H861 C869 0.950 . S
H862 C867 0.950 . S
H863 C868 0.949 . S
H864 C870 0.950 . S
H865 C871 0.950 . S
H866 C872 0.949 . S
C867 H862 0.950 . S
C867 C869 1.327 . S
C867 C873 1.429 . S
C868 C860 1.574 . S
C868 H863 0.949 . S
C868 C874 1.368 . S
C869 C853 1.349 . S
C869 H861 0.950 . S
C869 C867 1.327 . S
C870 C858 1.349 . S
C870 H864 0.950 . S
C870 C871 1.327 . S
C871 H865 0.950 . S
C871 C870 1.327 . S
C871 C875 1.429 . S
C872 C855 1.574 . S
C872 H866 0.949 . S
C872 C876 1.368 . S
C873 C854 1.429 . S
C873 C867 1.429 . S
C873 C874 1.523 . S
C874 C855 1.368 . S
C874 C868 1.368 . S
C874 C873 1.523 . S
C875 C859 1.429 . S
C875 C871 1.429 . S
C875 C876 1.523 . S
C876 C860 1.368 . S
C876 C872 1.368 . S
C876 C875 1.523 . S
H877 C852 0.950 . S
H878 C854 0.950 . S
H879 C855 0.949 . S
H880 C857 0.950 . S
H881 C859 0.950 . S
C882 C883 1.349 . S
C882 C884 1.327 . S
C882 H907 0.950 . S
C883 C882 1.349 . S
C883 C899 1.349 . S
C884 C882 1.327 . S
C884 C903 1.429 . S
C884 H908 0.950 . S
C885 C902 1.574 . S
C885 C904 1.368 . S
C885 H909 0.949 . S
H886 C890 0.949 . S
C887 C888 1.349 . S
C887 C889 1.327 . S
C887 H910 0.950 . S
C888 C887 1.349 . S
C888 C900 1.349 . S
C889 C887 1.327 . S
C889 C905 1.429 . S
C889 H911 0.950 . S
C890 H886 0.949 . S
C890 C898 1.574 . S
C890 C906 1.368 . S
H891 C899 0.950 . S
H892 C897 0.950 . S
H893 C898 0.949 . S
H894 C900 0.950 . S
H895 C901 0.950 . S
H896 C902 0.949 . S
C897 H892 0.950 . S
C897 C899 1.327 . S
C897 C903 1.429 . S
C898 C890 1.574 . S
C898 H893 0.949 . S
C898 C904 1.368 . S
C899 C883 1.349 . S
C899 H891 0.950 . S
C899 C897 1.327 . S
C900 C888 1.349 . S
C900 H894 0.950 . S
C900 C901 1.327 . S
C901 H895 0.950 . S
C901 C900 1.327 . S
C901 C905 1.429 . S
C902 C885 1.574 . S
C902 H896 0.949 . S
C902 C906 1.368 . S
C903 C884 1.429 . S
C903 C897 1.429 . S
C903 C904 1.523 . S
C904 C885 1.368 . S
C904 C898 1.368 . S
C904 C903 1.523 . S
C905 C889 1.429 . S
C905 C901 1.429 . S
C905 C906 1.523 . S
C906 C890 1.368 . S
C906 C902 1.368 . S
C906 C905 1.523 . S
H907 C882 0.950 . S
H908 C884 0.950 . S
H909 C885 0.949 . S
H910 C887 0.950 . S
H911 C889 0.950 . S
C912 C913 1.349 . S
C912 C914 1.327 . S
C912 H937 0.950 . S
C913 C912 1.349 . S
C913 C929 1.349 . S
C914 C912 1.327 . S
C914 C933 1.429 . S
C914 H938 0.950 . S
C915 C932 1.574 . S
C915 C934 1.368 . S
C915 H939 0.949 . S
H916 C920 0.949 . S
C917 C918 1.349 . S
C917 C919 1.327 . S
C917 H940 0.950 . S
C918 C917 1.349 . S
C918 C930 1.349 . S
C919 C917 1.327 . S
C919 C935 1.429 . S
C919 H941 0.950 . S
C920 H916 0.949 . S
C920 C928 1.574 . S
C920 C936 1.368 . S
H921 C929 0.950 . S
H922 C927 0.950 . S
H923 C928 0.949 . S
H924 C930 0.950 . S
H925 C931 0.950 . S
H926 C932 0.949 . S
C927 H922 0.950 . S
C927 C929 1.327 . S
C927 C933 1.429 . S
C928 C920 1.574 . S
C928 H923 0.949 . S
C928 C934 1.368 . S
C929 C913 1.349 . S
C929 H921 0.950 . S
C929 C927 1.327 . S
C930 C918 1.349 . S
C930 H924 0.950 . S
C930 C931 1.327 . S
C931 H925 0.950 . S
C931 C930 1.327 . S
C931 C935 1.429 . S
C932 C915 1.574 . S
C932 H926 0.949 . S
C932 C936 1.368 . S
C933 C914 1.429 . S
C933 C927 1.429 . S
C933 C934 1.523 . S
C934 C915 1.368 . S
C934 C928 1.368 . S
C934 C933 1.523 . S
C935 C919 1.429 . S
C935 C931 1.429 . S
C935 C936 1.523 . S
C936 C920 1.368 . S
C936 C932 1.368 . S
C936 C935 1.523 . S
H937 C912 0.950 . S
H938 C914 0.950 . S
H939 C915 0.949 . S
H940 C917 0.950 . S
H941 C919 0.950 . S
C942 C943 1.349 . S
C942 C944 1.327 . S
C942 H967 0.950 . S
C943 C942 1.349 . S
C943 C959 1.349 . S
C944 C942 1.327 . S
C944 C963 1.429 . S
C944 H968 0.950 . S
C945 C962 1.574 . S
C945 C964 1.368 . S
C945 H969 0.949 . S
H946 C950 0.949 . S
C947 C948 1.349 . S
C947 C949 1.327 . S
C947 H970 0.950 . S
C948 C947 1.349 . S
C948 C960 1.349 . S
C949 C947 1.327 . S
C949 C965 1.429 . S
C949 H971 0.950 . S
C950 H946 0.949 . S
C950 C958 1.574 . S
C950 C966 1.368 . S
H951 C959 0.950 . S
H952 C957 0.950 . S
H953 C958 0.949 . S
H954 C960 0.950 . S
H955 C961 0.950 . S
H956 C962 0.949 . S
C957 H952 0.950 . S
C957 C959 1.327 . S
C957 C963 1.429 . S
C958 C950 1.574 . S
C958 H953 0.949 . S
C958 C964 1.368 . S
C959 C943 1.349 . S
C959 H951 0.950 . S
C959 C957 1.327 . S
C960 C948 1.349 . S
C960 H954 0.950 . S
C960 C961 1.327 . S
C961 H955 0.950 . S
C961 C960 1.327 . S
C961 C965 1.429 . S
C962 C945 1.574 . S
C962 H956 0.949 . S
C962 C966 1.368 . S
C963 C944 1.429 . S
C963 C957 1.429 . S
C963 C964 1.523 . S
C964 C945 1.368 . S
C964 C958 1.368 . S
C964 C963 1.523 . S
C965 C949 1.429 . S
C965 C961 1.429 . S
C965 C966 1.523 . S
C966 C950 1.368 . S
C966 C962 1.368 . S
C966 C965 1.523 . S
H967 C942 0.950 . S
H968 C944 0.950 . S
H969 C945 0.949 . S
H970 C947 0.950 . S
H971 C949 0.950 . S
C972 C973 1.349 . S
C972 C974 1.327 . S
C972 H997 0.950 . S
C973 C972 1.349 . S
C973 C989 1.349 . S
C974 C972 1.327 . S
C974 C993 1.429 . S
C974 H998 0.950 . S
C975 C992 1.574 . S
C975 C994 1.368 . S
C975 H999 0.949 . S
H976 C980 0.949 . S
C977 C978 1.349 . S
C977 C979 1.327 . S
C977 H1000 0.950 . S
C978 C977 1.349 . S
C978 C990 1.349 . S
C979 C977 1.327 . S
C979 C995 1.429 . S
C979 H1001 0.950 . S
C980 H976 0.949 . S
C980 C988 1.574 . S
C980 C996 1.368 . S
H981 C989 0.950 . S
H982 C987 0.950 . S
H983 C988 0.949 . S
H984 C990 0.950 . S
H985 C991 0.950 . S
H986 C992 0.949 . S
C987 H982 0.950 . S
C987 C989 1.327 . S
C987 C993 1.429 . S
C988 C980 1.574 . S
C988 H983 0.949 . S
C988 C994 1.368 . S
C989 C973 1.349 . S
C989 H981 0.950 . S
C989 C987 1.327 . S
C990 C978 1.349 . S
C990 H984 0.950 . S
C990 C991 1.327 . S
C991 H985 0.950 . S
C991 C990 1.327 . S
C991 C995 1.429 . S
C992 C975 1.574 . S
C992 H986 0.949 . S
C992 C996 1.368 . S
C993 C974 1.429 . S
C993 C987 1.429 . S
C993 C994 1.523 . S
C994 C975 1.368 . S
C994 C988 1.368 . S
C994 C993 1.523 . S
C995 C979 1.429 . S
C995 C991 1.429 . S
C995 C996 1.523 . S
C996 C980 1.368 . S
C996 C992 1.368 . S
C996 C995 1.523 . S
H997 C972 0.950 . S
H998 C974 0.950 . S
H999 C975 0.949 . S
H1000 C977 0.950 . S
H1001 C979 0.950 . S
C1002 C1003 1.349 . S
C1002 C1004 1.327 . S
C1002 H1027 0.950 . S
C1003 C1002 1.349 . S
C1003 C1019 1.349 . S
C1004 C1002 1.327 . S
C1004 C1023 1.429 . S
C1004 H1028 0.950 . S
C1005 C1022 1.574 . S
C1005 C1024 1.368 . S
C1005 H1029 0.949 . S
H1006 C1010 0.949 . S
C1007 C1008 1.349 . S
C1007 C1009 1.327 . S
C1007 H1030 0.950 . S
C1008 C1007 1.349 . S
C1008 C1020 1.349 . S
C1009 C1007 1.327 . S
C1009 C1025 1.429 . S
C1009 H1031 0.950 . S
C1010 H1006 0.949 . S
C1010 C1018 1.574 . S
C1010 C1026 1.368 . S
H1011 C1019 0.950 . S
H1012 C1017 0.950 . S
H1013 C1018 0.949 . S
H1014 C1020 0.950 . S
H1015 C1021 0.950 . S
H1016 C1022 0.949 . S
C1017 H1012 0.950 . S
C1017 C1019 1.327 . S
C1017 C1023 1.429 . S
C1018 C1010 1.574 . S
C1018 H1013 0.949 . S
C1018 C1024 1.368 . S
C1019 C1003 1.349 . S
C1019 H1011 0.950 . S
C1019 C1017 1.327 . S
C1020 C1008 1.349 . S
C1020 H1014 0.950 . S
C1020 C1021 1.327 . S
C1021 H1015 0.950 . S
C1021 C1020 1.327 . S
C1021 C1025 1.429 . S
C1022 C1005 1.574 . S
C1022 H1016 0.949 . S
C1022 C1026 1.368 . S
C1023 C1004 1.429 . S
C1023 C1017 1.429 . S
C1023 C1024 1.523 . S
C1024 C1005 1.368 . S
C1024 C1018 1.368 . S
C1024 C1023 1.523 . S
C1025 C1009 1.429 . S
C1025 C1021 1.429 . S
C1025 C1026 1.523 . S
C1026 C1010 1.368 . S
C1026 C1022 1.368 . S
C1026 C1025 1.523 . S
H1027 C1002 0.950 . S
H1028 C1004 0.950 . S
H1029 C1005 0.949 . S
H1030 C1007 0.950 . S
H1031 C1009 0.950 . S
C1032 C1033 1.349 . S
C1032 C1034 1.327 . S
C1032 H1057 0.950 . S
C1033 C1032 1.349 . S
C1033 C1049 1.349 . S
C1034 C1032 1.327 . S
C1034 C1053 1.429 . S
C1034 H1058 0.950 . S
C1035 C1052 1.574 1_554 S
C1035 C1054 1.368 . S
C1035 H1059 0.949 . S
H1036 C1040 0.949 . S
C1037 C1038 1.349 . S
C1037 C1039 1.327 . S
C1037 H1060 0.950 . S
C1038 C1037 1.349 . S
C1038 C1050 1.349 . S
C1039 C1037 1.327 . S
C1039 C1055 1.429 . S
C1039 H1061 0.950 . S
C1040 H1036 0.949 . S
C1040 C1048 1.574 . S
C1040 C1056 1.336 1_554 S
H1041 C1049 0.950 . S
H1042 C1047 0.950 . S
H1043 C1048 0.949 . S
H1044 C1050 0.950 . S
H1045 C1051 0.950 . S
H1046 C1052 0.949 . S
C1047 H1042 0.950 . S
C1047 C1049 1.327 . S
C1047 C1053 1.429 . S
C1048 C1040 1.574 . S
C1048 H1043 0.949 . S
C1048 C1054 1.368 . S
C1049 C1033 1.349 . S
C1049 H1041 0.950 . S
C1049 C1047 1.327 . S
C1050 C1038 1.349 . S
C1050 H1044 0.950 . S
C1050 C1051 1.327 . S
C1051 H1045 0.950 . S
C1051 C1050 1.327 . S
C1051 C1055 1.429 . S
C1052 C1035 1.574 1_556 S
C1052 H1046 0.949 . S
C1052 C1056 1.372 . S
C1053 C1034 1.429 . S
C1053 C1047 1.429 . S
C1053 C1054 1.523 . S
C1054 C1035 1.368 . S
C1054 C1048 1.368 . S
C1054 C1053 1.523 . S
C1055 C1039 1.429 . S
C1055 C1051 1.429 . S
C1055 C1056 1.563 . S
C1056 C1040 1.336 1_556 S
C1056 C1052 1.372 . S
C1056 C1055 1.563 . S
H1057 C1032 0.950 . S
H1058 C1034 0.950 . S
H1059 C1035 0.949 . S
H1060 C1037 0.950 . S
H1061 C1039 0.950 . S
C1062 C1063 1.349 . S
C1062 C1064 1.327 . S
C1062 H1087 0.950 . S
C1063 C1062 1.349 . S
C1063 C1079 1.349 . S
C1064 C1062 1.327 . S
C1064 C1083 1.429 . S
C1064 H1088 0.950 . S
C1065 C1082 1.574 . S
C1065 C1084 1.368 . S
C1065 H1089 0.949 . S
H1066 C1070 0.949 . S
C1067 C1068 1.349 . S
C1067 C1069 1.327 . S
C1067 H1090 0.950 . S
C1068 C1067 1.349 . S
C1068 C1080 1.349 . S
C1069 C1067 1.327 . S
C1069 C1085 1.429 . S
C1069 H1091 0.950 . S
C1070 H1066 0.949 . S
C1070 C1078 1.574 . S
C1070 C1086 1.368 . S
H1071 C1079 0.950 . S
H1072 C1077 0.950 . S
H1073 C1078 0.949 . S
H1074 C1080 0.950 . S
H1075 C1081 0.950 . S
H1076 C1082 0.949 . S
C1077 H1072 0.950 . S
C1077 C1079 1.327 . S
C1077 C1083 1.429 . S
C1078 C1070 1.574 . S
C1078 H1073 0.949 . S
C1078 C1084 1.368 . S
C1079 C1063 1.349 . S
C1079 H1071 0.950 . S
C1079 C1077 1.327 . S
C1080 C1068 1.349 . S
C1080 H1074 0.950 . S
C1080 C1081 1.327 . S
C1081 H1075 0.950 . S
C1081 C1080 1.327 . S
C1081 C1085 1.429 . S
C1082 C1065 1.574 . S
C1082 H1076 0.949 . S
C1082 C1086 1.368 . S
C1083 C1064 1.429 . S
C1083 C1077 1.429 . S
C1083 C1084 1.523 . S
C1084 C1065 1.368 . S
C1084 C1078 1.368 . S
C1084 C1083 1.523 . S
C1085 C1069 1.429 . S
C1085 C1081 1.429 . S
C1085 C1086 1.523 . S
C1086 C1070 1.368 . S
C1086 C1082 1.368 . S
C1086 C1085 1.523 . S
H1087 C1062 0.950 . S
H1088 C1064 0.950 . S
H1089 C1065 0.949 . S
H1090 C1067 0.950 . S
H1091 C1069 0.950 . S
C378 C365 1.493 . S
C373 C45 1.525 . S
C403 C84 1.484 . S
C408 C294 1.454 . S
C433 C126 1.504 . S
C438 C308 1.494 . S
C463 C189 1.483 . S
C468 C322 1.452 . S
C498 C336 1.494 . S
C493 C228 1.519 . S
C523 C270 1.480 . S
C528 C351 1.454 . S
C553 C69 1.482 . S
C558 C309 1.454 . S
C583 C141 1.525 . S
C588 C323 1.493 . S
C613 C174 1.480 . S
C618 C337 1.454 . S
C648 C350 1.494 . S
C643 C213 1.511 . S
C678 C364 1.452 . S
C673 C285 1.483 . S
C708 C295 1.495 . S
C703 C30 1.505 . S
C733 C36 1.511 . S
C738 C311 1.493 . S
C763 C93 1.626 . S
C768 C325 1.595 . S
C798 C339 1.492 . S
C793 C117 1.505 . S
C823 C180 1.620 . S
C828 C352 1.597 . S
C858 C366 1.490 . S
C853 C237 1.511 . S
C888 C297 1.596 . S
C883 C261 1.608 . S
C918 C367 1.595 . S
C913 C78 1.595 . S
C943 C132 1.512 . S
C948 C296 1.493 . S
C978 C310 1.596 . S
C973 C165 1.608 . S
C1003 C222 1.498 . S
C1008 C324 1.490 . S
C1033 C276 1.619 . S
C1038 C338 1.597 . S
C1063 C21 1.505 . S
C1068 C353 1.491 . S
