# Generated by pormake.
# Topology pth, (4,4)-cn, num edge types: 1
# Building blocks:
#     Node 0, Type 0, BuildingBlock: QUQFOY_clean_sbu_1, # of connection points: 4
#     Node 1, Type 0, BuildingBlock: QUQFOY_clean_sbu_1, # of connection points: 4
#     Node 2, Type 0, BuildingBlock: QUQFOY_clean_sbu_1, # of connection points: 4
#     Node 3, Type 1, BuildingBlock: MUDLON_clean_linker_0, # of connection points: 4
#     Node 4, Type 1, BuildingBlock: MUDLON_clean_linker_0, # of connection points: 4
#     Node 5, Type 1, BuildingBlock: MUDLON_clean_linker_0, # of connection points: 4
#     Edge 6, Type (0, 1), BuildingBlock: FUNLAD_clean_linker_1, # of connection points: 2
#     Edge 7, Type (0, 1), BuildingBlock: FUNLAD_clean_linker_1, # of connection points: 2
#     Edge 8, Type (0, 1), BuildingBlock: FUNLAD_clean_linker_1, # of connection points: 2
#     Edge 9, Type (0, 1), BuildingBlock: FUNLAD_clean_linker_1, # of connection points: 2
#     Edge 10, Type (0, 1), BuildingBlock: FUNLAD_clean_linker_1, # of connection points: 2
#     Edge 11, Type (0, 1), BuildingBlock: FUNLAD_clean_linker_1, # of connection points: 2
#     Edge 12, Type (0, 1), BuildingBlock: FUNLAD_clean_linker_1, # of connection points: 2
#     Edge 13, Type (0, 1), BuildingBlock: FUNLAD_clean_linker_1, # of connection points: 2
#     Edge 14, Type (0, 1), BuildingBlock: FUNLAD_clean_linker_1, # of connection points: 2
#     Edge 15, Type (0, 1), BuildingBlock: FUNLAD_clean_linker_1, # of connection points: 2
#     Edge 16, Type (0, 1), BuildingBlock: FUNLAD_clean_linker_1, # of connection points: 2
#     Edge 17, Type (0, 1), BuildingBlock: FUNLAD_clean_linker_1, # of connection points: 2
# Relax obj value: 0.050
# Max RMSD: 0.152
# Mean RMSD: 0.116
data_MOF--net-pth--node1-QUQFOY_clean_sbu_1--node2-MUDLON_clean_linker_0--edge1-FUNLAD_clean_linker_1
_symmetry_space_group_name_H-M    P1
_symmetry_Int_Tables_number       1
_symmetry_cell_setting            triclinic
loop_
_symmetry_equiv_pos_as_xyz
'x, y, z'
_cell_length_a     33.433292
_cell_length_b     35.801964
_cell_length_c     72.381288
_cell_angle_alpha  89.899496
_cell_angle_beta   90.026896
_cell_angle_gamma 119.7878
loop_
_atom_site_label
_atom_site_type_symbol
_atom_site_fract_x
_atom_site_fract_y
_atom_site_fract_z
_atom_type_partial_charge
O0 O 0.03712 0.08107 0.01909 0.0
Cd1 Cd 0.98043 0.04344 0.03542 0.0
Cd2 Cd 0.01859 0.99117 0.03396 0.0
O3 O 0.07279 0.04319 0.02095 0.0
O4 O 0.95627 0.08261 0.04205 0.0
O5 O 0.98553 0.05708 0.06265 0.0
C6 C 0.96811 0.08132 0.05885 0.0
C7 C 0.02925 0.95796 0.05966 0.0
C8 C 0.07146 0.0763 0.01541 0.0
C9 C 0.92538 0.95814 0.01661 0.0
O10 O 0.96037 0.95338 0.01854 0.0
O11 O 0.92504 0.99071 0.02337 0.0
O12 O 0.03957 0.95129 0.04328 0.0
O13 O 0.0146 0.98502 0.06158 0.0
O14 O 0.94899 0.0243 0.38189 0.0
Cd15 Cd 0.0116 0.0498 0.3687 0.0
Cd16 Cd 0.99001 0.96439 0.36777 0.0
O17 O 0.93043 0.95594 0.38043 0.0
O18 O 0.02529 0.10786 0.36002 0.0
O19 O 0.01539 0.0555 0.34101 0.0
C20 C 0.02309 0.09429 0.34335 0.0
C21 C 0.98284 0.91499 0.3451 0.0
C22 C 0.92113 0.98487 0.38529 0.0
C23 C 0.07509 0.0277 0.38902 0.0
O24 O 0.04915 0.98921 0.38362 0.0
O25 O 0.06659 0.05739 0.38454 0.0
O26 O 0.97578 0.90445 0.36228 0.0
O27 O 0.99344 0.95374 0.34055 0.0
O28 O 0.93689 0.98698 0.68772 0.0
Cd29 Cd 0.98039 0.97348 0.70285 0.0
Cd30 Cd 0.02429 0.05924 0.70799 0.0
O31 O 0.9635 0.05343 0.69772 0.0
O32 O 0.9434 0.91282 0.712 0.0
O33 O 0.97282 0.96999 0.73029 0.0
C34 C 0.94808 0.92883 0.72836 0.0
C35 C 0.0583 0.09611 0.73522 0.0
C36 C 0.93415 0.0211 0.68855 0.0
C37 C 0.07138 0.02201 0.68488 0.0
O38 O 0.06918 0.05515 0.68953 0.0
O39 O 0.04065 0.9847 0.69012 0.0
O40 O 0.06059 0.11665 0.72023 0.0
O41 O 0.035 0.05464 0.73495 0.0
H42 H 0.91085 0.65039 0.21045 0.0
N43 N 0.975 0.63681 0.19567 0.0
H44 H 0.92018 0.70021 0.23517 0.0
H45 H 0.05165 0.68032 0.21743 0.0
H46 H 0.06151 0.73041 0.24235 0.0
H47 H 0.05655 0.70859 0.18616 0.0
H48 H 0.06945 0.75501 0.15961 0.0
H49 H 0.91864 0.62158 0.16721 0.0
H50 H 0.93134 0.66829 0.14039 0.0
H51 H 0.92021 0.5566 0.20693 0.0
H52 H 0.0582 0.64222 0.18769 0.0
H53 H 0.93801 0.49829 0.2095 0.0
H54 H 0.07578 0.58393 0.18936 0.0
H55 H 0.97654 0.35898 0.22461 0.0
H56 H 0.96824 0.31405 0.25157 0.0
H57 H 0.11068 0.34676 0.24585 0.0
H58 H 0.11818 0.39063 0.21883 0.0
H59 H 0.11099 0.40931 0.17539 0.0
H60 H 0.0996 0.35828 0.15065 0.0
H61 H 0.95983 0.27575 0.16953 0.0
H62 H 0.97148 0.32678 0.19378 0.0
H63 H 0.96888 0.39194 0.19347 0.0
H64 H 0.95111 0.45012 0.19183 0.0
H65 H 0.08963 0.54021 0.20976 0.0
N66 N 0.05266 0.39954 0.20232 0.0
H67 H 0.10756 0.48182 0.21049 0.0
C68 C 0.98024 0.66138 0.21216 0.0
C69 C 0.94342 0.66694 0.21772 0.0
C70 C 0.94889 0.6954 0.23195 0.0
C71 C 0.9916 0.71896 0.24099 0.0
C72 C 0.02819 0.71252 0.23571 0.0
C73 C 0.02255 0.6838 0.22151 0.0
C74 C 0.98625 0.66157 0.17879 0.0
C75 C 0.0291 0.69917 0.1762 0.0
C76 C 0.03628 0.72612 0.16106 0.0
C77 C 1.00077 0.71599 0.14819 0.0
C78 C 0.95908 0.67712 0.15021 0.0
C79 C 0.95183 0.65036 0.16543 0.0
C80 C 0.98748 0.60364 0.19698 0.0
C81 C 0.95427 0.56267 0.20313 0.0
C82 C 0.96446 0.5293 0.20444 0.0
C83 C 0.00831 0.53608 0.19952 0.0
C84 C 0.04181 0.57746 0.1935 0.0
C85 C 0.03165 0.61094 0.19235 0.0
C86 C 0.04809 0.37801 0.21968 0.0
C87 C 1.00602 0.35675 0.22929 0.0
C88 C 1.00129 0.33097 0.24464 0.0
C89 C 0.03822 0.32559 0.2505 0.0
C90 C 0.08087 0.34864 0.24136 0.0
C91 C 0.08555 0.37438 0.22608 0.0
C92 C 0.04219 0.37223 0.18633 0.0
C93 C 0.0776 0.3807 0.17381 0.0
C94 C 0.07106 0.3514 0.15978 0.0
C95 C 0.02881 0.313 0.15792 0.0
C96 C 0.99264 0.3052 0.17013 0.0
C97 C 0.99927 0.33456 0.18417 0.0
C98 C 0.03994 0.43262 0.2019 0.0
C99 C 0.99553 0.42414 0.19696 0.0
C100 C 0.98528 0.4576 0.19619 0.0
C101 C 0.01896 0.50019 0.20058 0.0
C102 C 0.06302 0.50818 0.2059 0.0
C103 C 0.0733 0.47479 0.20649 0.0
H104 H 0.70729 0.03539 0.54192 0.0
N105 N 0.6225 0.96344 0.5366 0.0
H106 H 0.75893 0.04911 0.56803 0.0
H107 H 0.60503 0.91729 0.5675 0.0
H108 H 0.65617 0.93195 0.59414 0.0
H109 H 0.63934 0.90564 0.52087 0.0
H110 H 0.68433 0.9141 0.4932 0.0
H111 H 0.65991 0.03344 0.51356 0.0
H112 H 0.70449 0.04222 0.48548 0.0
H113 H 0.62396 0.03061 0.55616 0.0
H114 H 0.5453 0.92985 0.51684 0.0
H115 H 0.56464 0.05038 0.55648 0.0
H116 H 0.48765 0.95235 0.51562 0.0
H117 H 0.36659 0.10851 0.55639 0.0
H118 H 0.32009 0.0953 0.58425 0.0
H119 H 0.2887 0.96276 0.58445 0.0
H120 H 0.33507 0.97616 0.55679 0.0
H121 H 0.29351 0.98776 0.52858 0.0
H122 H 0.25181 0.98162 0.50003 0.0
H123 H 0.37034 0.09507 0.47856 0.0
H124 H 0.41162 0.10247 0.50765 0.0
H125 H 0.4704 0.10289 0.54339 0.0
H126 H 0.53066 0.08347 0.54206 0.0
H127 H 0.42725 0.95179 0.52989 0.0
N128 N 0.38085 0.05265 0.53747 0.0
H129 H 0.36858 0.97304 0.52933 0.0
C130 C 0.65241 0.97457 0.55254 0.0
C131 C 0.69573 0.01243 0.55314 0.0
C132 C 0.72518 0.02049 0.56815 0.0
C133 C 0.71141 0.99186 0.58312 0.0
C134 C 0.6674 0.95499 0.58291 0.0
C135 C 0.63831 0.94641 0.56768 0.0
C136 C 0.64596 0.96857 0.51921 0.0
C137 C 0.65289 0.93522 0.513 0.0
C138 C 0.6785 0.94017 0.49702 0.0
C139 C 0.6976 0.97882 0.48681 0.0
C140 C 0.68993 0.01198 0.49293 0.0
C141 C 0.66438 1.00699 0.50894 0.0
C142 C 0.58905 0.97801 0.53659 0.0
C143 C 0.59421 0.01283 0.5474 0.0
C144 C 0.56016 0.02467 0.54737 0.0
C145 C 0.52077 1.00312 0.53609 0.0
C146 C 0.51652 0.96916 0.52491 0.0
C147 C 0.54984 0.95647 0.52539 0.0
C148 C 0.3547 0.04369 0.55441 0.0
C149 C 0.34972 0.07668 0.5625 0.0
C150 C 0.32269 0.06886 0.57834 0.0
C151 C 0.2998 0.02754 0.58636 0.0
C152 C 0.30575 0.99482 0.57853 0.0
C153 C 0.33258 1.0026 0.56266 0.0
C154 C 0.35558 0.04644 0.52049 0.0
C155 C 0.31055 0.01177 0.51794 0.0
C156 C 0.28663 0.00822 0.50159 0.0
C157 C 0.30771 0.03844 0.48731 0.0
C158 C 0.35331 0.0717 0.48948 0.0
C159 C 0.37679 0.07595 0.50602 0.0
C160 C 0.41506 0.03936 0.5369 0.0
C161 C 0.46107 0.06991 0.54038 0.0
C162 C 0.49538 0.05849 0.53979 0.0
C163 C 0.48425 0.01573 0.53611 0.0
C164 C 0.43777 0.98515 0.53252 0.0
C165 C 0.40374 0.99701 0.53256 0.0
H166 H 0.61395 0.69811 0.89943 0.0
N167 N 0.6374 0.65942 0.87386 0.0
H168 H 0.65696 0.73559 0.92702 0.0
H169 H 0.71681 0.6632 0.88634 0.0
H170 H 0.7608 0.70145 0.91364 0.0
H171 H 0.6889 0.63024 0.85577 0.0
H172 H 0.73786 0.66327 0.82878 0.0
H173 H 0.64625 0.7257 0.85424 0.0
H174 H 0.69424 0.75846 0.82707 0.0
H175 H 0.54867 0.6246 0.86572 0.0
H176 H 0.65066 0.59213 0.88354 0.0
H177 H 0.48948 0.54831 0.86658 0.0
H178 H 0.59192 0.51606 0.88449 0.0
H179 H 0.32154 0.34344 0.89208 0.0
H180 H 0.28213 0.30368 0.91983 0.0
H181 H 0.38523 0.26566 0.92719 0.0
H182 H 0.42499 0.30628 0.8993 0.0
H183 H 0.37705 0.27736 0.85627 0.0
H184 H 0.32214 0.24706 0.83078 0.0
H185 H 0.29344 0.35178 0.83527 0.0
H186 H 0.34827 0.38178 0.86077 0.0
H187 H 0.38911 0.41411 0.88976 0.0
H188 H 0.44828 0.49005 0.88945 0.0
H189 H 0.54261 0.45749 0.8629 0.0
N190 N 0.39761 0.34677 0.87614 0.0
H191 H 0.48304 0.3813 0.86335 0.0
C192 C 0.66223 0.67831 0.89071 0.0
C193 C 0.64587 0.69858 0.90257 0.0
C194 C 0.67095 0.72045 0.91826 0.0
C195 C 0.71334 0.72272 0.92229 0.0
C196 C 0.72858 0.70069 0.9108 0.0
C197 C 0.7034 0.67876 0.89515 0.0
C198 C 0.6639 0.6757 0.8571 0.0
C199 C 0.68973 0.65811 0.84959 0.0
C200 C 0.71786 0.67711 0.83416 0.0
C201 C 0.72115 0.71421 0.82603 0.0
C202 C 0.69413 0.7309 0.83326 0.0
C203 C 0.66606 0.71188 0.84867 0.0
C204 C 0.60399 0.61414 0.87447 0.0
C205 C 0.55821 0.60096 0.86981 0.0
C206 C 0.52448 0.55747 0.87042 0.0
C207 C 0.53601 0.52613 0.87563 0.0
C208 C 0.58204 0.53937 0.88024 0.0
C209 C 0.61571 0.58296 0.87974 0.0
C210 C 0.37611 0.32743 0.89351 0.0
C211 C 0.33596 0.3269 0.8997 0.0
C212 C 0.31307 0.30361 0.91552 0.0
C213 C 0.32982 0.28029 0.9254 0.0
C214 C 0.37127 0.28288 0.91972 0.0
C215 C 0.39402 0.30604 0.90387 0.0
C216 C 0.36713 0.33184 0.86039 0.0
C217 C 0.35897 0.29378 0.85169 0.0
C218 C 0.32711 0.27626 0.83729 0.0
C219 C 0.30258 0.29658 0.83132 0.0
C220 C 0.3116 0.33532 0.83971 0.0
C221 C 0.34318 0.35261 0.85425 0.0
C222 C 0.43172 0.3919 0.87653 0.0
C223 C 0.42243 0.42315 0.88389 0.0
C224 C 0.45629 0.46668 0.88363 0.0
C225 C 0.50016 0.47982 0.87613 0.0
C226 C 0.50937 0.44841 0.86895 0.0
C227 C 0.47541 0.40496 0.86911 0.0
H228 H 0.94433 0.12485 0.06903 0.0
C229 C 0.96389 0.10914 0.07279 0.0
H230 H 1.00704 0.10423 0.09281 0.0
H231 H 0.01666 0.29302 0.10799 0.0
H232 H 0.05301 0.31368 0.0779 0.0
H233 H 0.06237 0.26176 0.05864 0.0
H234 H 0.03427 0.18864 0.06913 0.0
C235 C 0.98729 0.11955 0.08879 0.0
C236 C 0.98723 0.15259 0.10133 0.0
C237 C 1.00644 0.19603 0.09542 0.0
C238 C 1.00382 0.22679 0.10704 0.0
C239 C 0.01995 0.26898 0.10017 0.0
C240 C 0.04058 0.2812 0.08285 0.0
C241 C 0.04563 0.25191 0.07197 0.0
C242 C 0.02891 0.20985 0.07811 0.0
H243 H 0.05736 0.28466 0.13848 0.0
C244 C 0.0253 0.28086 0.14403 0.0
H245 H 0.95247 0.24243 0.14297 0.0
H246 H 0.94787 0.07249 0.11701 0.0
H247 H 0.91533 0.05283 0.1478 0.0
H248 H 0.91487 0.10707 0.16863 0.0
H249 H 0.94654 0.1812 0.15876 0.0
C250 C 0.98539 0.24761 0.13794 0.0
C251 C 0.98503 0.2149 0.12508 0.0
C252 C 0.9667 0.17171 0.13112 0.0
C253 C 0.96762 0.14053 0.11922 0.0
C254 C 0.94852 0.09756 0.12554 0.0
C255 C 0.92968 0.08582 0.14319 0.0
C256 C 0.92938 0.11635 0.15491 0.0
C257 C 0.94764 0.15881 0.14904 0.0
H258 H 0.85778 0.93882 0.40011 0.0
C259 C 0.87945 0.97255 0.39647 0.0
H260 H 0.89287 0.03607 0.4008 0.0
H261 H 0.6799 0.9218 0.43419 0.0
H262 H 0.65618 0.90038 0.40247 0.0
H263 H 0.71388 0.92045 0.37765 0.0
H264 H 0.79568 0.96197 0.3844 0.0
C265 C 0.87032 1.00207 0.4037 0.0
C266 C 0.83493 0.99041 0.41839 0.0
C267 C 0.78729 0.96624 0.41418 0.0
C268 C 0.75401 0.95497 0.42848 0.0
C269 C 0.70664 0.93107 0.42389 0.0
C270 C 0.69255 0.91866 0.40573 0.0
C271 C 0.72504 0.92993 0.39175 0.0
C272 C 0.77189 0.95358 0.39583 0.0
H273 H 0.74927 0.02036 0.46604 0.0
C274 C 0.72843 0.98717 0.47063 0.0
H275 H 0.7117 0.92284 0.46497 0.0
H276 H 0.92364 0.03714 0.43112 0.0
H277 H 0.94741 0.05729 0.46286 0.0
H278 H 0.88985 0.03566 0.48781 0.0
H279 H 0.80827 0.99418 0.48114 0.0
C280 C 0.73349 0.95669 0.4618 0.0
C281 C 0.76845 0.96822 0.44691 0.0
C282 C 0.81618 0.99187 0.45115 0.0
C283 C 0.8494 1.00352 0.43683 0.0
C284 C 0.89684 0.0274 0.44143 0.0
C285 C 0.91103 0.03909 0.45962 0.0
C286 C 0.87863 0.02698 0.47366 0.0
C287 C 0.83179 1.00345 0.46958 0.0
H288 H 0.92838 0.91724 0.75776 0.0
C289 C 0.92333 0.90165 0.74441 0.0
H290 H 0.88483 0.84431 0.72925 0.0
H291 H 0.84578 0.78358 0.81822 0.0
H292 H 0.92615 0.80231 0.81933 0.0
H293 H 0.97699 0.83518 0.79238 0.0
H294 H 0.94787 0.85 0.76421 0.0
C295 C 0.89178 0.85974 0.7427 0.0
C296 C 0.86044 0.83554 0.75832 0.0
C297 C 0.87768 0.82592 0.77447 0.0
C298 C 0.848 0.80579 0.78983 0.0
C299 C 0.86652 0.79799 0.80602 0.0
C300 C 0.91263 0.80867 0.80686 0.0
C301 C 0.94128 0.82727 0.7917 0.0
C302 C 0.9242 0.83583 0.77565 0.0
H303 H 0.76324 0.71462 0.80225 0.0
C304 C 0.75266 0.73426 0.81 0.0
H305 H 0.76159 0.79695 0.81274 0.0
H306 H 0.81568 0.84772 0.72917 0.0
H307 H 0.73476 0.82665 0.72773 0.0
H308 H 0.68308 0.79034 0.75412 0.0
H309 H 0.71213 0.775 0.78216 0.0
C310 C 0.77022 0.77581 0.80516 0.0
C311 C 0.80093 0.79441 0.78883 0.0
C312 C 0.78337 0.8027 0.77246 0.0
C313 C 0.8131 0.82323 0.75719 0.0
C314 C 0.79466 0.83178 0.74114 0.0
C315 C 0.74823 0.81993 0.74013 0.0
C316 C 0.71915 0.79953 0.75499 0.0
C317 C 0.7363 0.79097 0.77101 0.0
H318 H 0.02522 0.94202 0.08939 0.0
C319 C 0.03156 0.93357 0.07572 0.0
H320 H 0.04439 0.89094 0.06002 0.0
H321 H 0.11541 0.81928 0.12347 0.0
H322 H 0.18569 0.8621 0.10602 0.0
H323 H 0.18859 0.91035 0.08104 0.0
H324 H 0.12117 0.91593 0.07328 0.0
C325 C 0.03758 0.89932 0.07363 0.0
C326 C 0.03612 0.87208 0.08953 0.0
C327 C 0.07601 0.86959 0.09407 0.0
C328 C 0.07454 0.84222 0.10866 0.0
C329 C 0.11472 0.83989 0.11267 0.0
C330 C 0.1553 0.86425 0.10275 0.0
C331 C 0.15691 0.89137 0.08867 0.0
C332 C 0.11789 0.89418 0.08433 0.0
H333 H 0.98369 0.73182 0.12074 0.0
C334 C 1.0055 0.74555 0.13283 0.0
H335 H 0.05343 0.80365 0.14596 0.0
H336 H 0.95141 0.8646 0.08308 0.0
H337 H 0.88249 0.82465 0.1015 0.0
H338 H 0.88224 0.78279 0.12865 0.0
H339 H 0.95063 0.77979 0.13721 0.0
C340 C 0.03202 0.78866 0.13393 0.0
C341 C 0.03328 0.81755 0.1188 0.0
C342 C 0.99368 0.82087 0.11459 0.0
C343 C 0.99466 0.84711 0.0996 0.0
C344 C 0.95352 0.8471 0.09487 0.0
C345 C 0.91348 0.82398 0.10525 0.0
C346 C 0.91327 0.80026 0.12048 0.0
C347 C 0.95276 0.79859 0.12516 0.0
H348 H 0.12571 0.06624 0.41046 0.0
C349 C 0.11281 0.03731 0.40212 0.0
H350 H 0.11568 0.98099 0.39659 0.0
H351 H 0.28813 0.1053 0.45558 0.0
H352 H 0.31634 0.16044 0.43192 0.0
H353 H 0.27485 0.14836 0.40238 0.0
H354 H 0.20394 0.08155 0.39667 0.0
C355 C 0.12886 0.00994 0.40492 0.0
C356 C 0.15901 0.01455 0.42099 0.0
C357 C 0.20228 0.05244 0.4235 0.0
C358 C 0.22814 0.05801 0.43992 0.0
C359 C 0.26867 0.09805 0.44289 0.0
C360 C 0.28504 0.13024 0.42948 0.0
C361 C 0.26155 0.12353 0.4129 0.0
C362 C 0.22064 0.08517 0.40987 0.0
H363 H 0.30086 0.04128 0.45698 0.0
C364 C 0.28267 0.03556 0.47004 0.0
H365 H 0.22163 0.02392 0.48341 0.0
H366 H 0.07743 0.9376 0.42075 0.0
H367 H 0.05263 0.88012 0.44313 0.0
H368 H 0.10117 0.88691 0.46998 0.0
H369 H 0.17449 0.95162 0.47476 0.0
C370 C 0.23934 0.02874 0.47028 0.0
C371 C 0.21272 0.02407 0.45305 0.0
C372 C 0.17058 0.98535 0.45008 0.0
C373 C 0.14335 0.98086 0.43424 0.0
C374 C 0.10034 0.94253 0.43219 0.0
C375 C 0.08547 0.90919 0.445 0.0
C376 C 0.11273 0.91305 0.46014 0.0
C377 C 0.15475 0.95055 0.46273 0.0
H378 H 0.08379 0.09953 0.76361 0.0
C379 C 0.08441 0.11883 0.75188 0.0
H380 H 0.11394 0.18115 0.7404 0.0
H381 H 0.16897 0.212 0.83051 0.0
H382 H 0.08694 0.18044 0.83634 0.0
H383 H 0.03088 0.15109 0.81078 0.0
H384 H 0.05639 0.15272 0.77927 0.0
C385 C 0.11184 0.1618 0.75234 0.0
C386 C 0.1453 0.18313 0.76769 0.0
C387 C 0.12979 0.18272 0.78598 0.0
C388 C 0.16219 0.20047 0.80067 0.0
C389 C 0.14581 0.19906 0.81884 0.0
C390 C 0.09886 0.18114 0.82238 0.0
C391 C 0.06728 0.16456 0.80799 0.0
C392 C 0.08237 0.1654 0.78997 0.0
H393 H 0.26203 0.30082 0.80797 0.0
C394 C 0.26827 0.27868 0.81613 0.0
H395 H 0.24648 0.213 0.82116 0.0
H396 H 0.18703 0.1908 0.73415 0.0
H397 H 0.26902 0.2242 0.72834 0.0
H398 H 0.32503 0.25568 0.75381 0.0
H399 H 0.2993 0.25389 0.78527 0.0
C400 C 0.24362 0.23632 0.81248 0.0
C401 C 0.21 0.21957 0.79699 0.0
C402 C 0.22563 0.22127 0.77865 0.0
C403 C 0.19327 0.2031 0.76398 0.0
C404 C 0.20992 0.20445 0.74584 0.0
C405 C 0.25698 0.22343 0.74229 0.0
C406 C 0.28851 0.24115 0.75663 0.0
C407 C 0.27324 0.24003 0.77463 0.0
H408 H 0.88865 0.04806 0.68231 0.0
C409 C 0.89727 0.02362 0.67839 0.0
H410 H 0.8848 0.97323 0.66012 0.0
H411 H 0.69025 0.91448 0.62975 0.0
H412 H 0.67768 0.85258 0.64775 0.0
H413 H 0.7374 0.85679 0.66903 0.0
H414 H 0.8104 0.92286 0.67219 0.0
C415 C 0.87599 0.99763 0.66394 0.0
C416 C 0.83802 0.99826 0.65337 0.0
C417 C 0.79471 0.95988 0.65221 0.0
C418 C 0.75971 0.95784 0.64035 0.0
C419 C 0.71776 0.91833 0.6388 0.0
C420 C 0.71005 0.88239 0.64905 0.0
C421 C 0.74369 0.88474 0.661 0.0
C422 C 0.78556 0.92287 0.66261 0.0
H423 H 0.78096 0.01298 0.59405 0.0
C424 C 0.74499 0.99938 0.59799 0.0
H425 H 0.69743 0.97779 0.62002 0.0
H426 H 0.91823 0.07637 0.65069 0.0
H427 H 0.92763 0.1403 0.63536 0.0
H428 H 0.86285 0.13947 0.61867 0.0
H429 H 0.78873 0.07394 0.61666 0.0
C430 C 0.73312 0.99063 0.61589 0.0
C431 C 0.76751 0.99464 0.63008 0.0
C432 C 0.80926 0.0341 0.63253 0.0
C433 C 0.84539 0.03546 0.64345 0.0
C434 C 0.88851 0.07403 0.64374 0.0
C435 C 0.89458 0.111 0.6348 0.0
C436 C 0.8582 0.11047 0.62532 0.0
C437 C 0.81599 0.07256 0.62413 0.0
H438 H 0.85701 0.93303 0.00357 0.0
C439 C 0.88563 0.9271 0.00553 0.0
H440 H 0.91301 0.88668 0.99898 0.0
H441 H 0.72102 0.72924 0.97451 0.0
H442 H 0.73051 0.70366 0.00435 0.0
H443 H 0.7934 0.75154 0.02531 0.0
H444 H 0.84704 0.82543 0.0166 0.0
C445 C 0.88519 0.89366 0.9969 0.0
C446 C 0.84701 0.8651 0.98428 0.0
C447 C 0.8164 0.82185 0.98945 0.0
C448 C 0.78053 0.79404 0.97724 0.0
C449 C 0.74957 0.75141 0.98302 0.0
C450 C 0.75444 0.73639 1.00017 0.0
C451 C 0.78982 0.76336 0.01199 0.0
C452 C 0.82044 0.80566 0.00679 0.0
H453 H 0.77173 0.74332 0.94173 0.0
C454 C 0.74334 0.74846 0.93791 0.0
H455 H 0.71435 0.78863 0.94222 0.0
H456 H 0.902 0.94534 0.96939 0.0
H457 H 0.8925 0.97083 0.93962 0.0
H458 H 0.82954 0.92301 0.91869 0.0
H459 H 0.77591 0.84932 0.92739 0.0
C460 C 0.73998 0.78019 0.94643 0.0
C461 C 0.77588 0.80939 0.95974 0.0
C462 C 0.80626 0.85278 0.95464 0.0
C463 C 0.84216 0.88055 0.96682 0.0
C464 C 0.87329 0.92314 0.96097 0.0
C465 C 0.86845 0.93815 0.94382 0.0
C466 C 0.83305 0.91122 0.93203 0.0
C467 C 0.80238 0.86898 0.93725 0.0
H468 H 0.96502 0.8499 0.33614 0.0
C469 C 0.97908 0.88294 0.33143 0.0
H470 H 1.0076 0.92572 0.30889 0.0
H471 H 0.01914 0.747 0.29016 0.0
H472 H 0.07226 0.76803 0.31591 0.0
H473 H 0.09052 0.83242 0.33438 0.0
H474 H 0.05475 0.87543 0.32749 0.0
C475 C 0.99397 0.89301 0.31392 0.0
C476 C 0.98988 0.85912 0.3008 0.0
C477 C 0.01331 0.83586 0.30431 0.0
C478 C 1.00501 0.80031 0.29293 0.0
C479 C 0.02595 0.77559 0.29771 0.0
C480 C 0.05629 0.78711 0.31256 0.0
C481 C 0.0664 0.82323 0.32301 0.0
C482 C 0.04529 0.84743 0.319 0.0
H483 H 0.03538 0.7788 0.25664 0.0
C484 C 1.00012 0.75278 0.25485 0.0
H485 H 0.93119 0.72714 0.26387 0.0
H486 H 0.94144 0.8983 0.2896 0.0
H487 H 0.89252 0.88047 0.26257 0.0
H488 H 0.88174 0.82166 0.24178 0.0
H489 H 0.91943 0.78005 0.24798 0.0
C490 C 0.96663 0.75289 0.26513 0.0
C491 C 0.97567 0.78984 0.27732 0.0
C492 C 0.95401 0.81443 0.27332 0.0
C493 C 0.96091 0.8489 0.28512 0.0
C494 C 0.93792 0.87215 0.281 0.0
C495 C 0.90968 0.86224 0.26553 0.0
C496 C 0.90356 0.8291 0.25384 0.0
C497 C 0.92535 0.80538 0.25761 0.0
H498 H 0.13309 0.06027 0.66786 0.0
C499 C 0.10911 0.02776 0.67253 0.0
H500 H 0.08901 0.96197 0.67008 0.0
H501 H 0.17386 0.9879 0.58961 0.0
H502 H 0.09218 0.94143 0.58379 0.0
H503 H 0.0353 0.92241 0.60886 0.0
H504 H 0.05967 0.94956 0.6399 0.0
C505 C 0.11357 0.99483 0.6661 0.0
C506 C 0.14842 1.0023 0.65159 0.0
C507 C 0.1335 0.98576 0.63356 0.0
C508 C 0.16623 0.99696 0.61906 0.0
C509 C 0.15042 0.9805 0.60111 0.0
C510 C 0.10364 0.95379 0.59758 0.0
C511 C 0.07163 0.94306 0.6117 0.0
C512 C 0.08614 0.95886 0.62948 0.0
H513 H 0.26236 0.98908 0.61096 0.0
C514 C 0.26937 0.01721 0.60278 0.0
H515 H 0.2508 0.06527 0.59867 0.0
H516 H 0.18925 0.03325 0.68517 0.0
H517 H 0.27109 0.07891 0.691 0.0
H518 H 0.32752 0.1005 0.66559 0.0
H519 H 0.30247 0.07618 0.6342 0.0
C520 C 0.24733 0.03879 0.60714 0.0
C521 C 0.21375 0.02449 0.62263 0.0
C522 C 0.2289 0.03945 0.6408 0.0
C523 C 0.19625 0.02791 0.65536 0.0
C524 C 0.21244 0.04222 0.67349 0.0
C525 C 0.25935 0.06817 0.67705 0.0
C526 C 0.29113 0.08025 0.66275 0.0
C527 C 0.2763 0.0661 0.64481 0.0
H528 H 0.10544 0.13677 0.99959 0.0
C529 C 0.10886 0.10944 0.00401 0.0
H530 H 0.14843 0.07845 1.00178 0.0
H531 H 0.22633 0.16512 0.92353 0.0
H532 H 0.17891 0.08992 0.91525 0.0
H533 H 0.13066 0.03595 0.9386 0.0
H534 H 0.12968 0.05679 0.97038 0.0
C535 C 0.1452 0.10631 0.99817 0.0
C536 C 0.17835 0.13816 0.9847 0.0
C537 C 0.17877 0.12533 0.96622 0.0
C538 C 0.20615 0.15652 0.95271 0.0
C539 C 0.20575 0.14285 0.93431 0.0
C540 C 0.17878 0.09977 0.92938 0.0
C541 C 0.15166 0.06938 0.94252 0.0
C542 C 0.15144 0.08181 0.96073 0.0
H543 H 0.32355 0.24402 0.95114 0.0
C544 C 0.30442 0.25213 0.94131 0.0
H545 H 0.23778 0.23752 0.93263 0.0
H546 H 0.19105 0.17227 0.01942 0.0
H547 H 0.23836 0.24754 0.02774 0.0
H548 H 0.28299 0.30222 0.00405 0.0
H549 H 0.28109 0.28194 0.97196 0.0
C550 C 0.25837 0.23312 0.94309 0.0
C551 C 0.23312 0.20046 0.9577 0.0
C552 C 0.23411 0.21307 0.97633 0.0
C553 C 0.20718 0.18176 0.98989 0.0
C554 C 0.20971 0.19496 0.00849 0.0
C555 C 0.23693 0.238 0.01346 0.0
C556 C 0.26216 0.26877 1.00013 0.0
C557 C 0.26087 0.25666 0.98176 0.0
H558 H 0.0298 0.11058 0.31358 0.0
C559 C 0.02841 0.12203 0.32733 0.0
H560 H 0.02964 0.17212 0.34312 0.0
H561 H 0.12975 0.32153 0.28558 0.0
H562 H 0.18892 0.34178 0.30897 0.0
H563 H 0.17928 0.29227 0.33451 0.0
H564 H 0.11038 0.2223 0.33687 0.0
C565 C 0.03024 0.16021 0.32938 0.0
C566 C 0.03632 0.18894 0.31341 0.0
C567 C 0.07703 0.22961 0.31213 0.0
C568 C 0.08289 0.25794 0.29726 0.0
C569 C 0.12372 0.29854 0.29646 0.0
C570 C 0.15794 0.31063 0.30982 0.0
C571 C 0.15249 0.28278 0.32421 0.0
C572 C 0.11266 0.24272 0.32542 0.0
H573 H 1.00365 0.28861 0.27584 0.0
C574 C 0.03117 0.29565 0.26604 0.0
H575 H 0.08245 0.28047 0.25809 0.0
H576 H 0.95161 0.11556 0.31275 0.0
H577 H 0.89365 0.09452 0.28885 0.0
H578 H 0.90626 0.14148 0.26194 0.0
H579 H 0.97658 0.21018 0.25897 0.0
C580 C 0.05548 0.27508 0.26786 0.0
C581 C 0.04814 0.24557 0.28363 0.0
C582 C 1.00754 0.20476 0.2848 0.0
C583 C 1.00118 0.17679 0.29991 0.0
C584 C 0.95918 0.13731 0.30123 0.0
C585 C 0.92541 0.12494 0.28765 0.0
C586 C 0.93244 0.15144 0.27253 0.0
C587 C 0.97293 0.19091 0.27105 0.0
loop_
_geom_bond_atom_site_label_1
_geom_bond_atom_site_label_2
_geom_bond_distance
_geom_bond_site_symmetry_2
_ccdc_geom_bond_type
O0 Cd1 2.223 1_455 S
O0 C8 1.315 . S
Cd1 O0 2.223 1_655 S
Cd1 O4 2.297 . S
Cd1 O5 2.439 . S
Cd1 O11 2.240 1_545 S
Cd2 O3 2.240 1_565 S
Cd2 O10 2.223 1_455 S
Cd2 O12 2.297 . S
Cd2 O13 2.439 . S
O3 Cd2 2.240 1_545 S
O3 C8 1.279 . S
O4 Cd1 2.297 . S
O4 C6 1.247 . S
O5 Cd1 2.439 . S
O5 C6 1.208 . S
C6 O4 1.247 . S
C6 O5 1.208 . S
C7 O12 1.247 . S
C7 O13 1.208 . S
C8 O0 1.315 . S
C8 O3 1.279 . S
C9 O10 1.315 . S
C9 O11 1.279 . S
O10 Cd2 2.223 1_655 S
O10 C9 1.315 . S
O11 Cd1 2.240 1_565 S
O11 C9 1.279 . S
O12 Cd2 2.297 . S
O12 C7 1.247 . S
O13 Cd2 2.439 . S
O13 C7 1.208 . S
O14 Cd15 2.223 1_655 S
O14 C22 1.315 . S
Cd15 O14 2.223 1_455 S
Cd15 O18 2.297 . S
Cd15 O19 2.439 . S
Cd15 O25 2.240 . S
Cd16 O17 2.240 . S
Cd16 O24 2.223 1_655 S
Cd16 O26 2.297 . S
Cd16 O27 2.439 . S
O17 Cd16 2.240 . S
O17 C22 1.279 1_565 S
O18 Cd15 2.297 . S
O18 C20 1.247 . S
O19 Cd15 2.439 . S
O19 C20 1.208 . S
C20 O18 1.247 . S
C20 O19 1.208 . S
C21 O26 1.247 . S
C21 O27 1.208 . S
C22 O14 1.315 . S
C22 O17 1.279 1_545 S
C23 O24 1.315 . S
C23 O25 1.279 1_565 S
O24 Cd16 2.223 1_455 S
O24 C23 1.315 . S
O25 Cd15 2.240 . S
O25 C23 1.279 1_545 S
O26 Cd16 2.297 . S
O26 C21 1.247 . S
O27 Cd16 2.439 . S
O27 C21 1.208 . S
O28 Cd29 2.223 . S
O28 C36 1.315 . S
Cd29 O28 2.223 . S
Cd29 O32 2.297 . S
Cd29 O33 2.439 . S
Cd29 O39 2.240 1_655 S
Cd30 O31 2.240 1_455 S
Cd30 O38 2.223 . S
Cd30 O40 2.297 . S
Cd30 O41 2.439 . S
O31 Cd30 2.240 1_655 S
O31 C36 1.279 1_545 S
O32 Cd29 2.297 . S
O32 C34 1.247 . S
O33 Cd29 2.439 . S
O33 C34 1.208 . S
C34 O32 1.247 . S
C34 O33 1.208 . S
C35 O40 1.247 . S
C35 O41 1.208 . S
C36 O28 1.315 . S
C36 O31 1.279 1_565 S
C37 O38 1.315 . S
C37 O39 1.279 1_545 S
O38 Cd30 2.223 . S
O38 C37 1.315 . S
O39 Cd29 2.240 1_455 S
O39 C37 1.279 1_565 S
O40 Cd30 2.297 . S
O40 C35 1.247 . S
O41 Cd30 2.439 . S
O41 C35 1.208 . S
H42 C69 0.929 . S
N43 C68 1.433 . S
N43 C74 1.435 . S
N43 C80 1.423 . S
H44 C70 0.930 . S
H45 C73 0.931 . S
H46 C72 0.929 . S
H47 C75 0.930 . S
H48 C76 0.932 . S
H49 C79 0.929 . S
H50 C78 0.931 . S
H51 C81 0.929 . S
H52 C85 0.932 1_455 S
H53 C82 0.931 . S
H54 C84 0.929 1_455 S
H55 C87 0.929 . S
H56 C88 0.930 . S
H57 C90 0.929 . S
H58 C91 0.931 . S
H59 C93 0.930 . S
H60 C94 0.932 . S
H61 C96 0.931 . S
H62 C97 0.929 . S
H63 C99 0.929 . S
H64 C100 0.931 . S
H65 C102 0.929 1_455 S
N66 C86 1.433 . S
N66 C92 1.435 . S
N66 C98 1.423 . S
H67 C103 0.932 1_455 S
C68 N43 1.433 . S
C68 C69 1.363 . S
C68 C73 1.370 1_655 S
C69 H42 0.929 . S
C69 C68 1.363 . S
C69 C70 1.385 . S
C70 H44 0.930 . S
C70 C69 1.385 . S
C70 C71 1.357 . S
C71 C70 1.357 . S
C71 C72 1.406 1_655 S
C72 H46 0.929 . S
C72 C71 1.406 1_455 S
C72 C73 1.391 . S
C73 H45 0.931 . S
C73 C68 1.370 1_455 S
C73 C72 1.391 . S
C74 N43 1.435 . S
C74 C75 1.358 1_655 S
C74 C79 1.371 . S
C75 H47 0.930 . S
C75 C74 1.358 1_455 S
C75 C76 1.405 . S
C76 H48 0.932 . S
C76 C75 1.405 . S
C76 C77 1.383 1_455 S
C77 C76 1.383 1_655 S
C77 C78 1.393 . S
C78 H50 0.931 . S
C78 C77 1.393 . S
C78 C79 1.382 . S
C79 H49 0.929 . S
C79 C74 1.371 . S
C79 C78 1.382 . S
C80 N43 1.423 . S
C80 C81 1.362 . S
C80 C85 1.388 . S
C81 H51 0.929 . S
C81 C80 1.362 . S
C81 C82 1.376 . S
C82 H53 0.931 . S
C82 C81 1.376 . S
C82 C83 1.396 . S
C83 C82 1.396 . S
C83 C84 1.348 . S
C83 C101 1.472 . S
C84 H54 0.929 1_655 S
C84 C83 1.348 . S
C84 C85 1.443 . S
C85 H52 0.932 1_655 S
C85 C80 1.388 . S
C85 C84 1.443 . S
C86 N66 1.433 . S
C86 C87 1.363 . S
C86 C91 1.370 1_655 S
C87 H55 0.929 . S
C87 C86 1.363 . S
C87 C88 1.385 . S
C88 H56 0.930 . S
C88 C87 1.385 . S
C88 C89 1.357 . S
C89 C88 1.357 . S
C89 C90 1.406 1_655 S
C90 H57 0.929 . S
C90 C89 1.406 1_455 S
C90 C91 1.391 . S
C91 H58 0.931 . S
C91 C86 1.370 1_455 S
C91 C90 1.391 . S
C92 N66 1.435 . S
C92 C93 1.358 1_655 S
C92 C97 1.371 . S
C93 H59 0.930 . S
C93 C92 1.358 1_455 S
C93 C94 1.405 . S
C94 H60 0.932 . S
C94 C93 1.405 . S
C94 C95 1.383 1_455 S
C95 C94 1.383 1_655 S
C95 C96 1.393 . S
C96 H61 0.931 . S
C96 C95 1.393 . S
C96 C97 1.382 . S
C97 H62 0.929 . S
C97 C92 1.371 . S
C97 C96 1.382 . S
C98 N66 1.423 . S
C98 C99 1.362 . S
C98 C103 1.388 . S
C99 H63 0.929 . S
C99 C98 1.362 . S
C99 C100 1.376 . S
C100 H64 0.931 . S
C100 C99 1.376 . S
C100 C101 1.396 . S
C101 C83 1.472 . S
C101 C100 1.396 . S
C101 C102 1.348 . S
C102 H65 0.929 1_655 S
C102 C101 1.348 . S
C102 C103 1.443 . S
C103 H67 0.932 1_655 S
C103 C98 1.388 . S
C103 C102 1.443 . S
H104 C131 0.929 . S
N105 C130 1.433 . S
N105 C136 1.435 . S
N105 C142 1.423 . S
H106 C132 0.930 . S
H107 C135 0.931 . S
H108 C134 0.929 . S
H109 C137 0.930 . S
H110 C138 0.932 . S
H111 C141 0.929 . S
H112 C140 0.931 . S
H113 C143 0.929 . S
H114 C147 0.932 1_565 S
H115 C144 0.931 . S
H116 C146 0.929 1_565 S
H117 C149 0.929 . S
H118 C150 0.930 . S
H119 C152 0.929 . S
H120 C153 0.931 . S
H121 C155 0.930 . S
H122 C156 0.932 . S
H123 C158 0.931 . S
H124 C159 0.929 . S
H125 C161 0.929 . S
H126 C162 0.931 . S
H127 C164 0.929 1_565 S
N128 C148 1.433 . S
N128 C154 1.435 . S
N128 C160 1.423 . S
H129 C165 0.932 1_565 S
C130 N105 1.433 . S
C130 C131 1.363 . S
C130 C135 1.370 1_545 S
C131 H104 0.929 . S
C131 C130 1.363 . S
C131 C132 1.385 . S
C132 H106 0.930 . S
C132 C131 1.385 . S
C132 C133 1.357 . S
C133 C132 1.357 . S
C133 C134 1.406 1_545 S
C134 H108 0.929 . S
C134 C133 1.406 1_565 S
C134 C135 1.391 . S
C135 H107 0.931 . S
C135 C130 1.370 1_565 S
C135 C134 1.391 . S
C136 N105 1.435 . S
C136 C137 1.358 1_545 S
C136 C141 1.371 . S
C137 H109 0.930 . S
C137 C136 1.358 1_565 S
C137 C138 1.405 . S
C138 H110 0.932 . S
C138 C137 1.405 . S
C138 C139 1.383 1_565 S
C139 C138 1.383 1_545 S
C139 C140 1.393 . S
C140 H112 0.931 . S
C140 C139 1.393 . S
C140 C141 1.382 . S
C141 H111 0.929 . S
C141 C136 1.371 . S
C141 C140 1.382 . S
C142 N105 1.423 . S
C142 C143 1.362 . S
C142 C147 1.388 . S
C143 H113 0.929 . S
C143 C142 1.362 . S
C143 C144 1.376 . S
C144 H115 0.931 . S
C144 C143 1.376 . S
C144 C145 1.396 . S
C145 C144 1.396 . S
C145 C146 1.348 . S
C145 C163 1.472 . S
C146 H116 0.929 1_545 S
C146 C145 1.348 . S
C146 C147 1.443 . S
C147 H114 0.932 1_545 S
C147 C142 1.388 . S
C147 C146 1.443 . S
C148 N128 1.433 . S
C148 C149 1.363 . S
C148 C153 1.370 1_545 S
C149 H117 0.929 . S
C149 C148 1.363 . S
C149 C150 1.385 . S
C150 H118 0.930 . S
C150 C149 1.385 . S
C150 C151 1.357 . S
C151 C150 1.357 . S
C151 C152 1.406 1_545 S
C152 H119 0.929 . S
C152 C151 1.406 1_565 S
C152 C153 1.391 . S
C153 H120 0.931 . S
C153 C148 1.370 1_565 S
C153 C152 1.391 . S
C154 N128 1.435 . S
C154 C155 1.358 1_545 S
C154 C159 1.371 . S
C155 H121 0.930 . S
C155 C154 1.358 1_565 S
C155 C156 1.405 . S
C156 H122 0.932 . S
C156 C155 1.405 . S
C156 C157 1.383 1_565 S
C157 C156 1.383 1_545 S
C157 C158 1.393 . S
C158 H123 0.931 . S
C158 C157 1.393 . S
C158 C159 1.382 . S
C159 H124 0.929 . S
C159 C154 1.371 . S
C159 C158 1.382 . S
C160 N128 1.423 . S
C160 C161 1.362 . S
C160 C165 1.388 . S
C161 H125 0.929 . S
C161 C160 1.362 . S
C161 C162 1.376 . S
C162 H126 0.931 . S
C162 C161 1.376 . S
C162 C163 1.396 . S
C163 C145 1.472 . S
C163 C162 1.396 . S
C163 C164 1.348 . S
C164 H127 0.929 1_545 S
C164 C163 1.348 . S
C164 C165 1.443 . S
C165 H129 0.932 1_545 S
C165 C160 1.388 . S
C165 C164 1.443 . S
H166 C193 0.929 . S
N167 C192 1.433 . S
N167 C198 1.435 . S
N167 C204 1.423 . S
H168 C194 0.930 . S
H169 C197 0.931 . S
H170 C196 0.929 . S
H171 C199 0.930 . S
H172 C200 0.932 . S
H173 C203 0.929 . S
H174 C202 0.931 . S
H175 C205 0.929 . S
H176 C209 0.932 . S
H177 C206 0.931 . S
H178 C208 0.929 . S
H179 C211 0.929 . S
H180 C212 0.930 . S
H181 C214 0.929 . S
H182 C215 0.931 . S
H183 C217 0.930 . S
H184 C218 0.932 . S
H185 C220 0.931 . S
H186 C221 0.929 . S
H187 C223 0.929 . S
H188 C224 0.931 . S
H189 C226 0.929 . S
N190 C210 1.433 . S
N190 C216 1.435 . S
N190 C222 1.423 . S
H191 C227 0.932 . S
C192 N167 1.433 . S
C192 C193 1.363 . S
C192 C197 1.370 . S
C193 H166 0.929 . S
C193 C192 1.363 . S
C193 C194 1.385 . S
C194 H168 0.930 . S
C194 C193 1.385 . S
C194 C195 1.357 . S
C195 C194 1.357 . S
C195 C196 1.406 . S
C196 H170 0.929 . S
C196 C195 1.406 . S
C196 C197 1.391 . S
C197 H169 0.931 . S
C197 C192 1.370 . S
C197 C196 1.391 . S
C198 N167 1.435 . S
C198 C199 1.358 . S
C198 C203 1.371 . S
C199 H171 0.930 . S
C199 C198 1.358 . S
C199 C200 1.405 . S
C200 H172 0.932 . S
C200 C199 1.405 . S
C200 C201 1.383 . S
C201 C200 1.383 . S
C201 C202 1.393 . S
C202 H174 0.931 . S
C202 C201 1.393 . S
C202 C203 1.382 . S
C203 H173 0.929 . S
C203 C198 1.371 . S
C203 C202 1.382 . S
C204 N167 1.423 . S
C204 C205 1.362 . S
C204 C209 1.388 . S
C205 H175 0.929 . S
C205 C204 1.362 . S
C205 C206 1.376 . S
C206 H177 0.931 . S
C206 C205 1.376 . S
C206 C207 1.396 . S
C207 C206 1.396 . S
C207 C208 1.348 . S
C207 C225 1.472 . S
C208 H178 0.929 . S
C208 C207 1.348 . S
C208 C209 1.443 . S
C209 H176 0.932 . S
C209 C204 1.388 . S
C209 C208 1.443 . S
C210 N190 1.433 . S
C210 C211 1.363 . S
C210 C215 1.370 . S
C211 H179 0.929 . S
C211 C210 1.363 . S
C211 C212 1.385 . S
C212 H180 0.930 . S
C212 C211 1.385 . S
C212 C213 1.357 . S
C213 C212 1.357 . S
C213 C214 1.406 . S
C214 H181 0.929 . S
C214 C213 1.406 . S
C214 C215 1.391 . S
C215 H182 0.931 . S
C215 C210 1.370 . S
C215 C214 1.391 . S
C216 N190 1.435 . S
C216 C217 1.358 . S
C216 C221 1.371 . S
C217 H183 0.930 . S
C217 C216 1.358 . S
C217 C218 1.405 . S
C218 H184 0.932 . S
C218 C217 1.405 . S
C218 C219 1.383 . S
C219 C218 1.383 . S
C219 C220 1.393 . S
C220 H185 0.931 . S
C220 C219 1.393 . S
C220 C221 1.382 . S
C221 H186 0.929 . S
C221 C216 1.371 . S
C221 C220 1.382 . S
C222 N190 1.423 . S
C222 C223 1.362 . S
C222 C227 1.388 . S
C223 H187 0.929 . S
C223 C222 1.362 . S
C223 C224 1.376 . S
C224 H188 0.931 . S
C224 C223 1.376 . S
C224 C225 1.396 . S
C225 C207 1.472 . S
C225 C224 1.396 . S
C225 C226 1.348 . S
C226 H189 0.929 . S
C226 C225 1.348 . S
C226 C227 1.443 . S
C227 H191 0.932 . S
C227 C222 1.388 . S
C227 C226 1.443 . S
H228 C229 0.951 . S
C229 H228 0.951 . S
C229 C235 1.265 1_655 S
H230 C235 0.950 . S
H231 C239 0.949 . S
H232 C240 0.950 . S
H233 C241 0.951 . S
H234 C242 0.951 . S
C235 C229 1.265 1_455 S
C235 H230 0.950 . S
C235 C236 1.478 . S
C236 C235 1.478 . S
C236 C237 1.397 . S
C236 C253 1.394 1_455 S
C237 C236 1.397 . S
C237 C238 1.438 . S
C237 C242 1.429 . S
C238 C237 1.438 . S
C238 C239 1.428 . S
C238 C251 1.394 1_455 S
C239 H231 0.949 . S
C239 C238 1.428 . S
C239 C240 1.345 . S
C240 H232 0.950 . S
C240 C239 1.345 . S
C240 C241 1.424 . S
C241 H233 0.951 . S
C241 C240 1.424 . S
C241 C242 1.347 . S
C242 H234 0.951 . S
C242 C237 1.429 . S
C242 C241 1.347 . S
H243 C244 0.951 . S
C244 H243 0.951 . S
C244 C250 1.265 1_455 S
H245 C250 0.950 . S
H246 C254 0.949 . S
H247 C255 0.950 . S
H248 C256 0.951 . S
H249 C257 0.951 . S
C250 C244 1.265 1_655 S
C250 H245 0.950 . S
C250 C251 1.478 . S
C251 C238 1.394 1_655 S
C251 C250 1.478 . S
C251 C252 1.397 . S
C252 C251 1.397 . S
C252 C253 1.438 . S
C252 C257 1.429 . S
C253 C236 1.394 1_655 S
C253 C252 1.438 . S
C253 C254 1.428 . S
C254 H246 0.949 . S
C254 C253 1.428 . S
C254 C255 1.345 . S
C255 H247 0.950 . S
C255 C254 1.345 . S
C255 C256 1.424 . S
C256 H248 0.951 . S
C256 C255 1.424 . S
C256 C257 1.347 . S
C257 H249 0.951 . S
C257 C252 1.429 . S
C257 C256 1.347 . S
H258 C259 0.951 . S
C259 H258 0.951 . S
C259 C265 1.265 . S
H260 C265 0.950 . S
H261 C269 0.949 . S
H262 C270 0.950 . S
H263 C271 0.951 . S
H264 C272 0.951 . S
C265 C259 1.265 . S
C265 H260 0.950 . S
C265 C266 1.478 . S
C266 C265 1.478 . S
C266 C267 1.397 1_545 S
C266 C283 1.394 . S
C267 C266 1.397 1_565 S
C267 C268 1.438 . S
C267 C272 1.429 . S
C268 C267 1.438 . S
C268 C269 1.428 . S
C268 C281 1.394 1_565 S
C269 H261 0.949 . S
C269 C268 1.428 . S
C269 C270 1.345 . S
C270 H262 0.950 . S
C270 C269 1.345 . S
C270 C271 1.424 . S
C271 H263 0.951 . S
C271 C270 1.424 . S
C271 C272 1.347 . S
C272 H264 0.951 . S
C272 C267 1.429 . S
C272 C271 1.347 . S
H273 C274 0.959 . S
C274 H273 0.959 . S
C274 C280 1.263 . S
H275 C280 0.947 . S
H276 C284 0.949 . S
H277 C285 0.950 . S
H278 C286 0.951 . S
H279 C287 0.951 . S
C280 C274 1.263 . S
C280 H275 0.947 . S
C280 C281 1.472 . S
C281 C268 1.394 1_545 S
C281 C280 1.472 . S
C281 C282 1.397 . S
C282 C281 1.397 . S
C282 C283 1.438 . S
C282 C287 1.429 . S
C283 C266 1.394 . S
C283 C282 1.438 . S
C283 C284 1.428 . S
C284 H276 0.949 . S
C284 C283 1.428 . S
C284 C285 1.345 . S
C285 H277 0.950 . S
C285 C284 1.345 . S
C285 C286 1.424 . S
C286 H278 0.951 . S
C286 C285 1.424 . S
C286 C287 1.347 . S
C287 H279 0.951 . S
C287 C282 1.429 . S
C287 C286 1.347 . S
H288 C289 0.951 . S
C289 H288 0.951 . S
C289 C295 1.265 . S
H290 C295 0.950 . S
H291 C299 0.949 . S
H292 C300 0.950 . S
H293 C301 0.951 . S
H294 C302 0.951 . S
C295 C289 1.265 . S
C295 H290 0.950 . S
C295 C296 1.478 . S
C296 C295 1.478 . S
C296 C297 1.397 . S
C296 C313 1.394 . S
C297 C296 1.397 . S
C297 C298 1.438 . S
C297 C302 1.429 . S
C298 C297 1.438 . S
C298 C299 1.428 . S
C298 C311 1.394 . S
C299 H291 0.949 . S
C299 C298 1.428 . S
C299 C300 1.345 . S
C300 H292 0.950 . S
C300 C299 1.345 . S
C300 C301 1.424 . S
C301 H293 0.951 . S
C301 C300 1.424 . S
C301 C302 1.347 . S
C302 H294 0.951 . S
C302 C297 1.429 . S
C302 C301 1.347 . S
H303 C304 0.951 . S
C304 H303 0.951 . S
C304 C310 1.265 . S
H305 C310 0.950 . S
H306 C314 0.949 . S
H307 C315 0.950 . S
H308 C316 0.951 . S
H309 C317 0.951 . S
C310 C304 1.265 . S
C310 H305 0.950 . S
C310 C311 1.478 . S
C311 C298 1.394 . S
C311 C310 1.478 . S
C311 C312 1.397 . S
C312 C311 1.397 . S
C312 C313 1.438 . S
C312 C317 1.429 . S
C313 C296 1.394 . S
C313 C312 1.438 . S
C313 C314 1.428 . S
C314 H306 0.949 . S
C314 C313 1.428 . S
C314 C315 1.345 . S
C315 H307 0.950 . S
C315 C314 1.345 . S
C315 C316 1.424 . S
C316 H308 0.951 . S
C316 C315 1.424 . S
C316 C317 1.347 . S
C317 H309 0.951 . S
C317 C312 1.429 . S
C317 C316 1.347 . S
H318 C319 0.951 . S
C319 H318 0.951 . S
C319 C325 1.265 1_455 S
H320 C325 0.950 . S
H321 C329 0.949 . S
H322 C330 0.950 . S
H323 C331 0.951 . S
H324 C332 0.951 . S
C325 C319 1.265 1_655 S
C325 H320 0.950 . S
C325 C326 1.478 . S
C326 C325 1.478 . S
C326 C327 1.397 . S
C326 C343 1.394 . S
C327 C326 1.397 . S
C327 C328 1.438 1_655 S
C327 C332 1.429 . S
C328 C327 1.438 1_455 S
C328 C329 1.428 . S
C328 C341 1.394 . S
C329 H321 0.949 . S
C329 C328 1.428 . S
C329 C330 1.345 . S
C330 H322 0.950 . S
C330 C329 1.345 . S
C330 C331 1.424 1_455 S
C331 H323 0.951 . S
C331 C330 1.424 1_655 S
C331 C332 1.347 . S
C332 H324 0.951 . S
C332 C327 1.429 . S
C332 C331 1.347 . S
H333 C334 0.951 . S
C334 H333 0.951 . S
C334 C340 1.265 1_655 S
H335 C340 0.950 . S
H336 C344 0.949 . S
H337 C345 0.950 . S
H338 C346 0.951 . S
H339 C347 0.951 . S
C340 C334 1.265 1_455 S
C340 H335 0.950 . S
C340 C341 1.478 . S
C341 C328 1.394 . S
C341 C340 1.478 . S
C341 C342 1.397 . S
C342 C341 1.397 . S
C342 C343 1.438 1_455 S
C342 C347 1.429 . S
C343 C326 1.394 . S
C343 C342 1.438 1_655 S
C343 C344 1.428 . S
C344 H336 0.949 . S
C344 C343 1.428 . S
C344 C345 1.345 . S
C345 H337 0.950 . S
C345 C344 1.345 . S
C345 C346 1.424 1_655 S
C346 H338 0.951 . S
C346 C345 1.424 1_455 S
C346 C347 1.347 . S
C347 H339 0.951 . S
C347 C342 1.429 . S
C347 C346 1.347 . S
H348 C349 0.951 . S
C349 H348 0.951 . S
C349 C355 1.265 . S
H350 C355 0.950 . S
H351 C359 0.949 . S
H352 C360 0.950 . S
H353 C361 0.951 . S
H354 C362 0.951 . S
C355 C349 1.265 . S
C355 H350 0.950 . S
C355 C356 1.478 . S
C356 C355 1.478 . S
C356 C357 1.397 1_565 S
C356 C373 1.394 . S
C357 C356 1.397 1_545 S
C357 C358 1.438 . S
C357 C362 1.429 . S
C358 C357 1.438 . S
C358 C359 1.428 . S
C358 C371 1.394 1_545 S
C359 H351 0.949 . S
C359 C358 1.428 . S
C359 C360 1.345 . S
C360 H352 0.950 . S
C360 C359 1.345 . S
C360 C361 1.424 . S
C361 H353 0.951 . S
C361 C360 1.424 . S
C361 C362 1.347 . S
C362 H354 0.951 . S
C362 C357 1.429 . S
C362 C361 1.347 . S
H363 C364 0.948 . S
C364 H363 0.948 . S
C364 C370 1.258 . S
H365 C370 0.950 . S
H366 C374 0.949 . S
H367 C375 0.950 . S
H368 C376 0.951 . S
H369 C377 0.951 . S
C370 C364 1.258 . S
C370 H365 0.950 . S
C370 C371 1.478 . S
C371 C358 1.394 1_565 S
C371 C370 1.478 . S
C371 C372 1.397 . S
C372 C371 1.397 . S
C372 C373 1.438 . S
C372 C377 1.429 . S
C373 C356 1.394 . S
C373 C372 1.438 . S
C373 C374 1.428 . S
C374 H366 0.949 . S
C374 C373 1.428 . S
C374 C375 1.345 . S
C375 H367 0.950 . S
C375 C374 1.345 . S
C375 C376 1.424 . S
C376 H368 0.951 . S
C376 C375 1.424 . S
C376 C377 1.347 . S
C377 H369 0.951 . S
C377 C372 1.429 . S
C377 C376 1.347 . S
H378 C379 0.951 . S
C379 H378 0.951 . S
C379 C385 1.265 . S
H380 C385 0.950 . S
H381 C389 0.949 . S
H382 C390 0.950 . S
H383 C391 0.951 . S
H384 C392 0.951 . S
C385 C379 1.265 . S
C385 H380 0.950 . S
C385 C386 1.478 . S
C386 C385 1.478 . S
C386 C387 1.397 . S
C386 C403 1.394 . S
C387 C386 1.397 . S
C387 C388 1.438 . S
C387 C392 1.429 . S
C388 C387 1.438 . S
C388 C389 1.428 . S
C388 C401 1.394 . S
C389 H381 0.949 . S
C389 C388 1.428 . S
C389 C390 1.345 . S
C390 H382 0.950 . S
C390 C389 1.345 . S
C390 C391 1.424 . S
C391 H383 0.951 . S
C391 C390 1.424 . S
C391 C392 1.347 . S
C392 H384 0.951 . S
C392 C387 1.429 . S
C392 C391 1.347 . S
H393 C394 0.951 . S
C394 H393 0.951 . S
C394 C400 1.265 . S
H395 C400 0.950 . S
H396 C404 0.949 . S
H397 C405 0.950 . S
H398 C406 0.951 . S
H399 C407 0.951 . S
C400 C394 1.265 . S
C400 H395 0.950 . S
C400 C401 1.478 . S
C401 C388 1.394 . S
C401 C400 1.478 . S
C401 C402 1.397 . S
C402 C401 1.397 . S
C402 C403 1.438 . S
C402 C407 1.429 . S
C403 C386 1.394 . S
C403 C402 1.438 . S
C403 C404 1.428 . S
C404 H396 0.949 . S
C404 C403 1.428 . S
C404 C405 1.345 . S
C405 H397 0.950 . S
C405 C404 1.345 . S
C405 C406 1.424 . S
C406 H398 0.951 . S
C406 C405 1.424 . S
C406 C407 1.347 . S
C407 H399 0.951 . S
C407 C402 1.429 . S
C407 C406 1.347 . S
H408 C409 0.951 . S
C409 H408 0.951 . S
C409 C415 1.265 . S
H410 C415 0.950 . S
H411 C419 0.949 . S
H412 C420 0.950 . S
H413 C421 0.951 . S
H414 C422 0.951 . S
C415 C409 1.265 . S
C415 H410 0.950 . S
C415 C416 1.478 . S
C416 C415 1.478 . S
C416 C417 1.397 . S
C416 C433 1.394 1_565 S
C417 C416 1.397 . S
C417 C418 1.438 . S
C417 C422 1.429 . S
C418 C417 1.438 . S
C418 C419 1.428 . S
C418 C431 1.394 . S
C419 H411 0.949 . S
C419 C418 1.428 . S
C419 C420 1.345 . S
C420 H412 0.950 . S
C420 C419 1.345 . S
C420 C421 1.424 . S
C421 H413 0.951 . S
C421 C420 1.424 . S
C421 C422 1.347 . S
C422 H414 0.951 . S
C422 C417 1.429 . S
C422 C421 1.347 . S
H423 C424 0.959 . S
C424 H423 0.959 . S
C424 C430 1.267 1_565 S
H425 C430 0.950 . S
H426 C434 0.949 . S
H427 C435 0.950 . S
H428 C436 0.951 . S
H429 C437 0.951 . S
C430 C424 1.267 1_545 S
C430 H425 0.950 . S
C430 C431 1.478 1_545 S
C431 C418 1.394 . S
C431 C430 1.478 1_565 S
C431 C432 1.397 1_565 S
C432 C431 1.397 1_545 S
C432 C433 1.438 . S
C432 C437 1.429 . S
C433 C416 1.394 1_545 S
C433 C432 1.438 . S
C433 C434 1.428 . S
C434 H426 0.949 . S
C434 C433 1.428 . S
C434 C435 1.345 . S
C435 H427 0.950 . S
C435 C434 1.345 . S
C435 C436 1.424 . S
C436 H428 0.951 . S
C436 C435 1.424 . S
C436 C437 1.347 . S
C437 H429 0.951 . S
C437 C432 1.429 . S
C437 C436 1.347 . S
H438 C439 0.951 . S
C439 H438 0.951 . S
C439 C445 1.265 . S
H440 C445 0.950 . S
H441 C449 0.949 . S
H442 C450 0.962 . S
H443 C451 0.951 . S
H444 C452 0.933 1_554 S
C445 C439 1.265 . S
C445 H440 0.950 . S
C445 C446 1.478 . S
C446 C445 1.478 . S
C446 C447 1.397 . S
C446 C463 1.394 . S
C447 C446 1.397 . S
C447 C448 1.438 . S
C447 C452 1.458 . S
C448 C447 1.438 . S
C448 C449 1.428 . S
C448 C461 1.394 . S
C449 H441 0.949 . S
C449 C448 1.428 . S
C449 C450 1.345 . S
C450 H442 0.962 . S
C450 C449 1.345 . S
C450 C451 1.424 1_556 S
C451 H443 0.951 . S
C451 C450 1.424 1_554 S
C451 C452 1.337 1_554 S
C452 H444 0.933 1_556 S
C452 C447 1.458 . S
C452 C451 1.337 1_556 S
H453 C454 0.951 . S
C454 H453 0.951 . S
C454 C460 1.265 . S
H455 C460 0.950 . S
H456 C464 0.949 . S
H457 C465 0.950 . S
H458 C466 0.951 . S
H459 C467 0.951 . S
C460 C454 1.265 . S
C460 H455 0.950 . S
C460 C461 1.478 . S
C461 C448 1.394 . S
C461 C460 1.478 . S
C461 C462 1.397 . S
C462 C461 1.397 . S
C462 C463 1.438 . S
C462 C467 1.429 . S
C463 C446 1.394 . S
C463 C462 1.438 . S
C463 C464 1.428 . S
C464 H456 0.949 . S
C464 C463 1.428 . S
C464 C465 1.345 . S
C465 H457 0.950 . S
C465 C464 1.345 . S
C465 C466 1.424 . S
C466 H458 0.951 . S
C466 C465 1.424 . S
C466 C467 1.347 . S
C467 H459 0.951 . S
C467 C462 1.429 . S
C467 C466 1.347 . S
H468 C469 0.951 . S
C469 H468 0.951 . S
C469 C475 1.265 1_655 S
H470 C475 0.950 . S
H471 C479 0.949 . S
H472 C480 0.950 . S
H473 C481 0.951 . S
H474 C482 0.951 . S
C475 C469 1.265 1_455 S
C475 H470 0.950 . S
C475 C476 1.478 . S
C476 C475 1.478 . S
C476 C477 1.397 . S
C476 C493 1.394 1_455 S
C477 C476 1.397 . S
C477 C478 1.438 . S
C477 C482 1.429 . S
C478 C477 1.438 . S
C478 C479 1.428 . S
C478 C491 1.394 1_455 S
C479 H471 0.949 . S
C479 C478 1.428 . S
C479 C480 1.345 . S
C480 H472 0.950 . S
C480 C479 1.345 . S
C480 C481 1.424 . S
C481 H473 0.951 . S
C481 C480 1.424 . S
C481 C482 1.347 . S
C482 H474 0.951 . S
C482 C477 1.429 . S
C482 C481 1.347 . S
H483 C484 0.951 . S
C484 H483 0.951 . S
C484 C490 1.265 1_455 S
H485 C490 0.950 . S
H486 C494 0.949 . S
H487 C495 0.950 . S
H488 C496 0.951 . S
H489 C497 0.951 . S
C490 C484 1.265 1_655 S
C490 H485 0.950 . S
C490 C491 1.478 . S
C491 C478 1.394 1_655 S
C491 C490 1.478 . S
C491 C492 1.397 . S
C492 C491 1.397 . S
C492 C493 1.438 . S
C492 C497 1.429 . S
C493 C476 1.394 1_655 S
C493 C492 1.438 . S
C493 C494 1.428 . S
C494 H486 0.949 . S
C494 C493 1.428 . S
C494 C495 1.345 . S
C495 H487 0.950 . S
C495 C494 1.345 . S
C495 C496 1.424 . S
C496 H488 0.951 . S
C496 C495 1.424 . S
C496 C497 1.347 . S
C497 H489 0.951 . S
C497 C492 1.429 . S
C497 C496 1.347 . S
H498 C499 0.951 . S
C499 H498 0.951 . S
C499 C505 1.265 . S
H500 C505 0.950 1_565 S
H501 C509 0.949 . S
H502 C510 0.950 . S
H503 C511 0.951 . S
H504 C512 0.951 . S
C505 C499 1.265 . S
C505 H500 0.950 1_545 S
C505 C506 1.478 . S
C506 C505 1.478 . S
C506 C507 1.397 1_545 S
C506 C523 1.394 . S
C507 C506 1.397 1_565 S
C507 C508 1.438 . S
C507 C512 1.429 . S
C508 C507 1.438 . S
C508 C509 1.428 . S
C508 C521 1.394 1_565 S
C509 H501 0.949 . S
C509 C508 1.428 . S
C509 C510 1.345 . S
C510 H502 0.950 . S
C510 C509 1.345 . S
C510 C511 1.424 . S
C511 H503 0.951 . S
C511 C510 1.424 . S
C511 C512 1.347 . S
C512 H504 0.951 . S
C512 C507 1.429 . S
C512 C511 1.347 . S
H513 C514 0.948 1_565 S
C514 H513 0.948 1_545 S
C514 C520 1.272 . S
H515 C520 0.950 . S
H516 C524 0.949 . S
H517 C525 0.950 . S
H518 C526 0.951 . S
H519 C527 0.951 . S
C520 C514 1.272 . S
C520 H515 0.950 . S
C520 C521 1.478 . S
C521 C508 1.394 1_545 S
C521 C520 1.478 . S
C521 C522 1.397 . S
C522 C521 1.397 . S
C522 C523 1.438 . S
C522 C527 1.429 . S
C523 C506 1.394 . S
C523 C522 1.438 . S
C523 C524 1.428 . S
C524 H516 0.949 . S
C524 C523 1.428 . S
C524 C525 1.345 . S
C525 H517 0.950 . S
C525 C524 1.345 . S
C525 C526 1.424 . S
C526 H518 0.951 . S
C526 C525 1.424 . S
C526 C527 1.347 . S
C527 H519 0.951 . S
C527 C522 1.429 . S
C527 C526 1.347 . S
H528 C529 0.951 . S
C529 H528 0.951 . S
C529 C535 1.265 . S
H530 C535 0.950 . S
H531 C539 0.949 . S
H532 C540 0.950 . S
H533 C541 0.951 . S
H534 C542 0.951 . S
C535 C529 1.265 . S
C535 H530 0.950 . S
C535 C536 1.478 . S
C536 C535 1.478 . S
C536 C537 1.397 . S
C536 C553 1.394 . S
C537 C536 1.397 . S
C537 C538 1.438 . S
C537 C542 1.429 . S
C538 C537 1.438 . S
C538 C539 1.428 . S
C538 C551 1.394 . S
C539 H531 0.949 . S
C539 C538 1.428 . S
C539 C540 1.345 . S
C540 H532 0.950 . S
C540 C539 1.345 . S
C540 C541 1.424 . S
C541 H533 0.951 . S
C541 C540 1.424 . S
C541 C542 1.347 . S
C542 H534 0.951 . S
C542 C537 1.429 . S
C542 C541 1.347 . S
H543 C544 0.951 . S
C544 H543 0.951 . S
C544 C550 1.265 . S
H545 C550 0.950 . S
H546 C554 0.917 1_554 S
H547 C555 0.950 . S
H548 C556 0.951 . S
H549 C557 0.951 . S
C550 C544 1.265 . S
C550 H545 0.950 . S
C550 C551 1.478 . S
C551 C538 1.394 . S
C551 C550 1.478 . S
C551 C552 1.397 . S
C552 C551 1.397 . S
C552 C553 1.438 . S
C552 C557 1.429 . S
C553 C536 1.394 . S
C553 C552 1.438 . S
C553 C554 1.472 . S
C554 H546 0.917 1_556 S
C554 C553 1.472 . S
C554 C555 1.334 1_556 S
C555 H547 0.950 . S
C555 C554 1.334 1_554 S
C555 C556 1.424 1_554 S
C556 H548 0.951 . S
C556 C555 1.424 1_556 S
C556 C557 1.347 . S
C557 H549 0.951 . S
C557 C552 1.429 . S
C557 C556 1.347 . S
H558 C559 0.951 . S
C559 H558 0.951 . S
C559 C565 1.265 1_455 S
H560 C565 0.950 . S
H561 C569 0.949 . S
H562 C570 0.950 . S
H563 C571 0.951 . S
H564 C572 0.951 . S
C565 C559 1.265 1_655 S
C565 H560 0.950 . S
C565 C566 1.478 . S
C566 C565 1.478 . S
C566 C567 1.397 . S
C566 C583 1.394 1_655 S
C567 C566 1.397 . S
C567 C568 1.438 . S
C567 C572 1.429 . S
C568 C567 1.438 . S
C568 C569 1.428 . S
C568 C581 1.394 1_655 S
C569 H561 0.949 . S
C569 C568 1.428 . S
C569 C570 1.345 . S
C570 H562 0.950 . S
C570 C569 1.345 . S
C570 C571 1.424 . S
C571 H563 0.951 . S
C571 C570 1.424 . S
C571 C572 1.347 . S
C572 H564 0.951 . S
C572 C567 1.429 . S
C572 C571 1.347 . S
H573 C574 0.951 . S
C574 H573 0.951 . S
C574 C580 1.265 1_655 S
H575 C580 0.950 . S
H576 C584 0.949 1_655 S
H577 C585 0.950 . S
H578 C586 0.951 . S
H579 C587 0.951 . S
C580 C574 1.265 1_455 S
C580 H575 0.950 . S
C580 C581 1.478 . S
C581 C568 1.394 1_455 S
C581 C580 1.478 . S
C581 C582 1.397 . S
C582 C581 1.397 . S
C582 C583 1.438 . S
C582 C587 1.429 . S
C583 C566 1.394 1_455 S
C583 C582 1.438 . S
C583 C584 1.428 . S
C584 H576 0.949 1_455 S
C584 C583 1.428 . S
C584 C585 1.345 . S
C585 H577 0.950 . S
C585 C584 1.345 . S
C585 C586 1.424 . S
C586 H578 0.951 . S
C586 C585 1.424 . S
C586 C587 1.347 . S
C587 H579 0.951 . S
C587 C582 1.429 . S
C587 C586 1.347 . S
C244 C95 1.353 1_455 S
C229 C6 1.314 . S
C259 C22 1.539 . S
C274 C139 1.570 . S
C289 C34 1.173 . S
C304 C201 1.164 . S
C319 C7 1.327 . S
C334 C77 1.348 . S
C364 C157 1.564 1_565 S
C349 C23 1.536 . S
C379 C35 1.168 . S
C394 C219 1.134 . S
C424 C133 1.670 1_565 S
C409 C36 1.787 . S
C439 C9 2.073 1_556 S
C454 C195 1.982 . S
C484 C71 1.612 1_455 S
C469 C21 1.650 . S
C514 C151 1.766 . S
C499 C37 1.808 . S
C544 C213 2.003 . S
C529 C8 2.037 1_556 S
C559 C20 1.652 . S
C574 C89 1.588 . S
