# Generated by pormake.
# Topology anh, (6,3)-cn, num edge types: 1
# Building blocks:
#     Node 0, Type 0, BuildingBlock: VOLQOD_clean_sbu_1, # of connection points: 6
#     Node 1, Type 0, BuildingBlock: VOLQOD_clean_sbu_1, # of connection points: 6
#     Node 2, Type 0, BuildingBlock: VOLQOD_clean_sbu_1, # of connection points: 6
#     Node 3, Type 1, BuildingBlock: BETDIP_clean_linker_0, # of connection points: 3
#     Node 4, Type 1, BuildingBlock: BETDIP_clean_linker_0, # of connection points: 3
#     Node 5, Type 1, BuildingBlock: BETDIP_clean_linker_0, # of connection points: 3
#     Node 6, Type 1, BuildingBlock: BETDIP_clean_linker_0, # of connection points: 3
#     Node 7, Type 1, BuildingBlock: BETDIP_clean_linker_0, # of connection points: 3
#     Node 8, Type 1, BuildingBlock: BETDIP_clean_linker_0, # of connection points: 3
#     Edge 9, Type (0, 1), BuildingBlock: OJICUG_clean_linker_0, # of connection points: 2
#     Edge 10, Type (0, 1), BuildingBlock: OJICUG_clean_linker_0, # of connection points: 2
#     Edge 11, Type (0, 1), BuildingBlock: OJICUG_clean_linker_0, # of connection points: 2
#     Edge 12, Type (0, 1), BuildingBlock: OJICUG_clean_linker_0, # of connection points: 2
#     Edge 13, Type (0, 1), BuildingBlock: OJICUG_clean_linker_0, # of connection points: 2
#     Edge 14, Type (0, 1), BuildingBlock: OJICUG_clean_linker_0, # of connection points: 2
#     Edge 15, Type (0, 1), BuildingBlock: OJICUG_clean_linker_0, # of connection points: 2
#     Edge 16, Type (0, 1), BuildingBlock: OJICUG_clean_linker_0, # of connection points: 2
#     Edge 17, Type (0, 1), BuildingBlock: OJICUG_clean_linker_0, # of connection points: 2
#     Edge 18, Type (0, 1), BuildingBlock: OJICUG_clean_linker_0, # of connection points: 2
#     Edge 19, Type (0, 1), BuildingBlock: OJICUG_clean_linker_0, # of connection points: 2
#     Edge 20, Type (0, 1), BuildingBlock: OJICUG_clean_linker_0, # of connection points: 2
#     Edge 21, Type (0, 1), BuildingBlock: OJICUG_clean_linker_0, # of connection points: 2
#     Edge 22, Type (0, 1), BuildingBlock: OJICUG_clean_linker_0, # of connection points: 2
#     Edge 23, Type (0, 1), BuildingBlock: OJICUG_clean_linker_0, # of connection points: 2
#     Edge 24, Type (0, 1), BuildingBlock: OJICUG_clean_linker_0, # of connection points: 2
#     Edge 25, Type (0, 1), BuildingBlock: OJICUG_clean_linker_0, # of connection points: 2
#     Edge 26, Type (0, 1), BuildingBlock: OJICUG_clean_linker_0, # of connection points: 2
# Relax obj value: 0.174
# Max RMSD: 0.216
# Mean RMSD: 0.149
data_MOF--net-anh--node1-VOLQOD_clean_sbu_1--node2-BETDIP_clean_linker_0--edge1-OJICUG_clean_linker_0
_symmetry_space_group_name_H-M    P1
_symmetry_Int_Tables_number       1
_symmetry_cell_setting            triclinic
loop_
_symmetry_equiv_pos_as_xyz
'x, y, z'
_cell_length_a     22.415442
_cell_length_b     21.723153
_cell_length_c     41.55075
_cell_angle_alpha  94.05323
_cell_angle_beta   89.778275
_cell_angle_gamma 121.34117
loop_
_atom_site_label
_atom_site_type_symbol
_atom_site_fract_x
_atom_site_fract_y
_atom_site_fract_z
_atom_type_partial_charge
O0 O 0.00782 0.61621 0.2281 0.0
Zn1 Zn 0.01027 0.64295 0.18249 0.0
O2 O 0.0246 0.57787 0.1529 0.0
Zn3 Zn 0.94983 0.52631 0.12082 0.0
Zn4 Zn 0.02904 0.50514 0.17669 0.0
Zn5 Zn 0.10747 0.63538 0.12881 0.0
O6 O 0.98035 0.53857 0.07534 0.0
O7 O 0.08917 0.63155 0.08085 0.0
O8 O 0.91721 0.63453 0.17153 0.0
O9 O 0.88667 0.56289 0.1261 0.0
O10 O 0.88785 0.42131 0.12773 0.0
O11 O 0.93911 0.40601 0.16924 0.0
O12 O 0.11528 0.50174 0.16427 0.0
O13 O 0.09516 0.74569 0.18389 0.0
O14 O 0.16726 0.59478 0.1337 0.0
O15 O 0.16379 0.73853 0.14703 0.0
C16 C 0.02221 0.57419 0.24144 0.0
C17 C 0.03619 0.58588 0.06304 0.0
C18 C 0.88814 0.38158 0.14868 0.0
C19 C 0.87561 0.60092 0.14705 0.0
C20 C 0.1663 0.54376 0.14739 0.0
C21 C 0.1524 0.77447 0.16904 0.0
O22 O 0.03534 0.53141 0.22471 0.0
O23 O 0.46836 0.07369 0.43137 0.0
Zn24 Zn 0.44717 0.05906 0.47848 0.0
O25 O 0.51338 0.04091 0.50013 0.0
Zn26 Zn 0.57583 0.12129 0.53 0.0
Zn27 Zn 0.56599 0.02291 0.46748 0.0
Zn28 Zn 0.46473 0.95859 0.52515 0.0
O29 O 0.56968 0.09482 0.57614 0.0
O30 O 0.4744 0.98511 0.57318 0.0
O31 O 0.44991 0.14741 0.49964 0.0
O32 O 0.54435 0.19105 0.53197 0.0
O33 O 0.67419 0.17308 0.51462 0.0
O34 O 0.66568 0.10375 0.47087 0.0
O35 O 0.56306 0.92966 0.47183 0.0
O36 O 0.35033 0.97065 0.47849 0.0
O37 O 0.50386 0.89533 0.51682 0.0
O38 O 0.36435 0.90075 0.51034 0.0
C39 C 0.50023 0.05267 0.4124 0.0
C40 C 0.52237 0.0405 0.58977 0.0
C41 C 0.70135 0.15975 0.49017 0.0
C42 C 0.49458 0.1956 0.5203 0.0
C43 C 0.53868 0.88743 0.49441 0.0
C44 C 0.3261 0.91146 0.49177 0.0
O45 O 0.53412 0.0256 0.42301 0.0
O46 O 0.44361 0.49697 0.77513 0.0
Zn47 Zn 0.4268 0.47165 0.82097 0.0
O48 O 0.51128 0.53695 0.84766 0.0
Zn49 Zn 0.49818 0.59873 0.87864 0.0
Zn50 Zn 0.58742 0.59945 0.82066 0.0
Zn51 Zn 0.5341 0.47924 0.87222 0.0
O52 O 0.51593 0.58767 0.9247 0.0
O53 O 0.51799 0.48642 0.91977 0.0
O54 O 0.34508 0.48237 0.83528 0.0
O55 O 0.39956 0.56848 0.87517 0.0
O56 O 0.54693 0.70278 0.86746 0.0
O57 O 0.60653 0.70139 0.82508 0.0
O58 O 0.67461 0.5983 0.83142 0.0
O59 O 0.40876 0.36915 0.81788 0.0
O60 O 0.63465 0.51583 0.86745 0.0
O61 O 0.48495 0.37585 0.85409 0.0
C62 C 0.49906 0.53156 0.75956 0.0
C63 C 0.51666 0.53622 0.93728 0.0
C64 C 0.58613 0.73436 0.84438 0.0
C65 C 0.34499 0.52539 0.85787 0.0
C66 C 0.68388 0.56081 0.85082 0.0
C67 C 0.43753 0.34038 0.83208 0.0
O68 O 0.55912 0.56805 0.77384 0.0
H69 H 0.4736 0.02925 0.18113 0.0
H70 H 0.59986 0.1254 0.26813 0.0
H71 H 0.3778 0.01347 0.27336 0.0
H72 H 0.57388 0.12292 0.1582 0.0
C73 C 0.61815 0.13688 0.17415 0.0
C74 C 0.47664 0.04225 0.20687 0.0
C75 C 0.41506 0.01298 0.22499 0.0
C76 C 0.54326 0.08502 0.22259 0.0
C77 C 0.54846 0.09552 0.25618 0.0
C78 C 0.48882 0.06833 0.27449 0.0
C79 C 0.4229 0.03128 0.25868 0.0
N80 N 0.60715 0.1157 0.20622 0.0
H81 H 0.50792 0.49479 0.52831 0.0
H82 H 0.51683 0.62164 0.61445 0.0
H83 H 0.45535 0.39969 0.61925 0.0
H84 H 0.51155 0.58566 0.50241 0.0
C85 C 0.53555 0.63352 0.51925 0.0
C86 C 0.49821 0.4986 0.55369 0.0
C87 C 0.47857 0.43927 0.57186 0.0
C88 C 0.51133 0.56431 0.5692 0.0
C89 C 0.50449 0.57008 0.60254 0.0
C90 C 0.48352 0.51078 0.62068 0.0
C91 C 0.46904 0.44505 0.60509 0.0
N92 N 0.53664 0.62787 0.553 0.0
H93 H -0.00272 0.61675 0.83411 0.0
H94 H 0.12601 0.62763 0.91373 0.0
H95 H 0.92235 0.59279 0.93054 0.0
H96 H 0.21371 0.71152 0.87548 0.0
C97 C 0.18998 0.66337 0.85871 0.0
C98 C 0.0056 0.61633 0.85975 0.0
C99 C 0.95275 0.60401 0.88108 0.0
C100 C 0.06862 0.62602 0.87132 0.0
C101 C 0.07859 0.62307 0.9046 0.0
C102 C 0.0255 0.60994 0.926 0.0
C103 C 0.96328 0.60169 0.91407 0.0
N104 N 0.11936 0.63359 0.84888 0.0
H105 H 0.04453 0.59562 0.47492 0.0
H106 H 0.96224 0.47205 0.38398 0.0
H107 H 0.11439 0.69952 0.38624 0.0
H108 H 0.9595 0.38356 0.41407 0.0
C109 C 0.94032 0.39348 0.43671 0.0
C110 C 0.04324 0.59356 0.44878 0.0
C111 C 0.08549 0.65625 0.43289 0.0
C112 C 0.00123 0.52697 0.43141 0.0
C113 C -0.00287 0.52312 0.39753 0.0
C114 C 0.03638 0.58581 0.3811 0.0
C115 C 0.08099 0.65204 0.39895 0.0
N116 N 0.96296 0.46516 0.44895 0.0
H117 H 0.5028 0.08869 0.82193 0.0
H118 H 0.54407 0.99088 0.73843 0.0
H119 H 0.45604 0.12109 0.72576 0.0
H120 H 0.63024 0.00535 0.77531 0.0
C121 C 0.59674 0.98159 0.79542 0.0
C122 C 0.5003 0.07926 0.79595 0.0
C123 C 0.47627 0.11277 0.77595 0.0
C124 C 0.52465 0.0353 0.78275 0.0
C125 C 0.52538 0.02447 0.74901 0.0
C126 C 0.5026 0.05753 0.72869 0.0
C127 C 0.47638 0.09938 0.74218 0.0
N128 N 0.54714 1.00168 0.80385 0.0
H129 H 0.42592 0.49415 0.16475 0.0
H130 H 0.5543 0.49524 0.08707 0.0
H131 H 0.37774 0.51505 0.06754 0.0
H132 H 0.56197 0.41594 0.12514 0.0
C133 C 0.58257 0.46224 0.1429 0.0
C134 C 0.43641 0.49533 0.13923 0.0
C135 C 0.3947 0.50396 0.11724 0.0
C136 C 0.49348 0.4911 0.12856 0.0
C137 C 0.50872 0.49554 0.09549 0.0
C138 C 0.46767 0.50511 0.07342 0.0
C139 C 0.41017 0.50817 0.08447 0.0
N140 N 0.53821 0.48828 0.15169 0.0
C141 C 0.22663 0.47397 0.15264 0.0
C142 C 0.22652 0.53448 0.14272 0.0
H143 H 0.28133 0.41676 0.15235 0.0
C144 C 0.28462 0.58679 0.12691 0.0
H145 H 0.1828 0.43308 0.16505 0.0
C146 C 0.33992 0.57738 0.11975 0.0
C147 C 0.33879 0.51568 0.12831 0.0
H148 H 0.28711 0.63478 0.11937 0.0
H149 H 0.38326 0.61788 0.10692 0.0
C150 C 0.28278 0.46472 0.14552 0.0
C151 C 0.79994 0.20401 0.45237 0.0
C152 C 0.77143 0.21601 0.48065 0.0
H153 H 0.8762 0.25159 0.41633 0.0
C154 C 0.80515 0.28563 0.49669 0.0
H155 H 0.77559 0.15091 0.43953 0.0
C156 C 0.86244 0.34314 0.48323 0.0
C157 C 0.88719 0.3319 0.45362 0.0
H158 H 0.78485 0.29674 0.51859 0.0
H159 H 0.8852 0.39677 0.49538 0.0
C160 C 0.85737 0.26156 0.43898 0.0
C161 C 0.55715 0.83196 0.84974 0.0
C162 C 0.59821 0.80554 0.83635 0.0
H163 H 0.52379 0.908 0.84729 0.0
C164 C 0.64344 0.84238 0.81173 0.0
H165 H 0.52143 0.80481 0.86861 0.0
C166 C 0.64469 0.90145 0.79958 0.0
C167 C 0.60053 0.92487 0.81157 0.0
H168 H 0.67585 0.82374 0.80086 0.0
H169 H 0.67828 0.92705 0.77982 0.0
C170 C 0.55808 0.89086 0.83737 0.0
C171 C 0.76663 0.5624 0.11594 0.0
C172 C 0.80494 0.58982 0.14555 0.0
H173 H 0.6658 0.49738 0.09239 0.0
C174 C 0.76927 0.58594 0.17399 0.0
H175 H 0.79266 0.56529 0.09356 0.0
C176 C 0.69597 0.54793 0.17309 0.0
C177 C 0.65842 0.51284 0.14391 0.0
H178 H 0.79735 0.60615 0.19716 0.0
H179 H 0.66884 0.54134 0.1954 0.0
C180 C 0.69405 0.52288 0.11523 0.0
C181 C 0.2334 0.7815 0.49264 0.0
C182 C 0.25617 0.84944 0.48134 0.0
H183 H 0.16368 0.66775 0.48573 0.0
C184 C 0.21661 0.85456 0.45663 0.0
H185 H 0.26237 0.77542 0.51169 0.0
C186 C 0.15859 0.79219 0.44191 0.0
C187 C 0.13933 0.72364 0.45155 0.0
H188 H 0.23245 0.9062 0.44749 0.0
H189 H 0.13039 0.79751 0.42226 0.0
C190 C 0.17615 0.71941 0.47778 0.0
C191 C 0.44423 0.26996 0.78437 0.0
C192 C 0.43094 0.27325 0.81719 0.0
H193 H 0.47378 0.22258 0.74639 0.0
C194 C 0.4266 0.22012 0.83608 0.0
H195 H 0.45 0.3116 0.76946 0.0
C196 C 0.43681 0.16545 0.82241 0.0
C197 C 0.4554 0.1648 0.78986 0.0
H198 H 0.41717 0.22205 0.86162 0.0
H199 H 0.43186 0.12518 0.83785 0.0
C200 C 0.45774 0.21779 0.77108 0.0
C201 C 0.58635 0.82778 0.52403 0.0
C202 C 0.55272 0.82925 0.49609 0.0
H203 H 0.61001 0.76517 0.55262 0.0
C204 C 0.52333 0.76985 0.47295 0.0
H205 H 0.60951 0.87346 0.54202 0.0
C206 C 0.52226 0.70678 0.47924 0.0
C207 C 0.55079 0.70336 0.50861 0.0
H208 H 0.49678 0.7703 0.45131 0.0
H209 H 0.49498 0.6594 0.46233 0.0
C210 C 0.58618 0.76566 0.53008 0.0
C211 C 0.81358 0.62795 0.84358 0.0
C212 C 0.75295 0.56909 0.85493 0.0
H213 H 0.92574 0.6853 0.84305 0.0
C214 C 0.7587 0.51857 0.8719 0.0
H215 H 0.81058 0.66741 0.83026 0.0
C216 C 0.82375 0.52869 0.879 0.0
C217 C 0.88451 0.58947 0.86932 0.0
H218 H 0.71297 0.47181 0.88045 0.0
H219 H 0.82674 0.48988 0.89287 0.0
C220 C 0.8792 0.63806 0.85074 0.0
C221 C 0.22559 0.85423 0.21607 0.0
C222 C 0.21289 0.84376 0.18264 0.0
H223 H 0.29812 0.90893 0.25507 0.0
C224 C 0.26466 0.8925 0.16293 0.0
H225 H 0.18761 0.81623 0.23182 0.0
C226 C 0.32861 0.94996 0.17654 0.0
C227 C 0.34359 0.95804 0.21012 0.0
H228 H 0.25634 0.88505 0.13693 0.0
H229 H 0.36657 0.98646 0.16046 0.0
C230 C 0.29013 0.90896 0.22949 0.0
C231 C 0.52586 0.29721 0.56123 0.0
C232 C 0.48835 0.25719 0.53266 0.0
H233 H 0.55207 0.38584 0.59557 0.0
C234 C 0.44648 0.2772 0.51671 0.0
H235 H 0.55845 0.28328 0.57425 0.0
C236 C 0.44299 0.3369 0.52915 0.0
C237 C 0.48029 0.37601 0.5579 0.0
H238 H 0.41724 0.24737 0.49459 0.0
H239 H 0.41089 0.3521 0.5166 0.0
C240 C 0.52183 0.35573 0.57366 0.0
C241 C 0.24716 0.53205 0.833 0.0
C242 C 0.28745 0.53942 0.86048 0.0
H243 H 0.18411 0.56676 0.81085 0.0
C244 C 0.28597 0.57876 0.88855 0.0
H245 H 0.24767 0.50249 0.81099 0.0
C246 C 0.2527 0.61764 0.88792 0.0
C247 C 0.21796 0.61565 0.85966 0.0
H248 H 0.31579 0.58472 0.91025 0.0
H249 H 0.25618 0.6513 0.90923 0.0
C250 C 0.21193 0.56969 0.83272 0.0
C251 C 0.76567 0.28505 0.13017 0.0
C252 C 0.82308 0.31046 0.15209 0.0
H253 H 0.65613 0.21008 0.12 0.0
C254 C 0.81401 0.27239 0.17948 0.0
H255 H 0.77059 0.3127 0.10872 0.0
C256 C 0.74818 0.21364 0.1859 0.0
C257 C 0.68992 0.1915 0.16505 0.0
H258 H 0.85683 0.29017 0.19687 0.0
H259 H 0.74257 0.18753 0.20792 0.0
C260 C 0.69991 0.22623 0.13659 0.0
C261 C 0.0947 0.64547 0.0128 0.0
C262 C 0.03745 0.58931 0.02756 0.0
H263 H 0.13592 0.69614 0.96882 0.0
C264 C 0.97912 0.53749 0.00816 0.0
H265 H 0.14056 0.68608 0.02705 0.0
C266 C 0.97667 0.54328 0.97511 0.0
C267 C 0.03239 0.601 0.96055 0.0
H268 H 0.93442 0.49299 0.01856 0.0
H269 H 0.93046 0.50298 0.96094 0.0
C270 C 0.09224 0.65116 0.9795 0.0
C271 C 0.54127 0.04588 0.35707 0.0
C272 C 0.49897 0.06034 0.37735 0.0
H273 H 0.57111 0.03726 0.3089 0.0
C274 C 0.45569 0.08154 0.36373 0.0
H275 H 0.5755 0.02976 0.36671 0.0
C276 C 0.45356 0.08629 0.33037 0.0
C277 C 0.49506 0.07051 0.31013 0.0
H278 H 0.42268 0.09336 0.37872 0.0
H279 H 0.41909 0.10174 0.32039 0.0
C280 C 0.53939 0.05098 0.32391 0.0
C281 C 0.54922 0.57967 0.70685 0.0
C282 C 0.49346 0.52844 0.72408 0.0
H283 H 0.5891 0.61453 0.66045 0.0
C284 C 0.43265 0.47353 0.70707 0.0
H285 H 0.59655 0.62283 0.71931 0.0
C286 C 0.42859 0.46868 0.6734 0.0
C287 C 0.48477 0.51932 0.65624 0.0
H288 H 0.38883 0.43323 0.71971 0.0
H289 H 0.38188 0.42499 0.66073 0.0
C290 C 0.54473 0.57538 0.67322 0.0
C291 C 0.48362 0.98054 0.6418 0.0
C292 C 0.52044 0.04395 0.6255 0.0
H293 H 0.45001 0.93509 0.68748 0.0
C294 C 0.5527 0.1113 0.64357 0.0
H295 H 0.45829 0.92785 0.62854 0.0
C296 C 0.54673 0.11527 0.67703 0.0
C297 C 0.50955 0.05204 0.69326 0.0
H298 H 0.58106 0.16115 0.63177 0.0
H299 H 0.57125 0.16794 0.69031 0.0
C300 C 0.47892 0.98456 0.67545 0.0
C301 C 0.49914 0.58047 0.99162 0.0
C302 C 0.51083 0.53178 0.97269 0.0
H303 H 0.47692 0.61031 0.03824 0.0
C304 C 0.51276 0.47667 0.9877 0.0
H305 H 0.49763 0.62377 0.98099 0.0
C306 C 0.50092 0.4691 0.0207 0.0
C307 C 0.48628 0.51604 0.03916 0.0
H308 H 0.5219 0.4384 0.97385 0.0
H309 H 0.50084 0.42512 0.03152 0.0
C310 C 0.48684 0.57255 0.02442 0.0
C311 C 0.02264 0.63134 0.29608 0.0
C312 C 0.02486 0.57629 0.27717 0.0
H313 H 0.02441 0.67731 0.34365 0.0
C314 C 0.0304 0.52398 0.29276 0.0
H315 H 0.01851 0.67261 0.28491 0.0
C316 C 0.03359 0.52668 0.32648 0.0
C317 C 0.03195 0.5821 0.34531 0.0
H318 H 0.03223 0.48084 0.27894 0.0
H319 H 0.03847 0.48603 0.33781 0.0
C320 C 0.02643 0.63436 0.32975 0.0
loop_
_geom_bond_atom_site_label_1
_geom_bond_atom_site_label_2
_geom_bond_distance
_geom_bond_site_symmetry_2
_ccdc_geom_bond_type
O0 Zn1 1.953 . S
O0 C16 1.225 . S
Zn1 O0 1.953 . S
Zn1 O2 1.949 . S
Zn1 O8 1.919 1_455 S
Zn1 O13 1.924 . S
O2 Zn1 1.949 . S
O2 Zn3 1.923 1_455 S
O2 Zn4 1.950 . S
O2 Zn5 1.945 . S
Zn3 O2 1.923 1_655 S
Zn3 O6 1.933 1_655 S
Zn3 O9 1.941 . S
Zn3 O10 1.965 . S
Zn4 O2 1.950 . S
Zn4 O11 1.938 1_455 S
Zn4 O12 1.906 . S
Zn4 O22 1.953 . S
Zn5 O2 1.945 . S
Zn5 O7 1.932 . S
Zn5 O14 1.977 . S
Zn5 O15 1.910 . S
O6 Zn3 1.933 1_455 S
O6 C17 1.226 . S
O7 Zn5 1.932 . S
O7 C17 1.307 . S
O8 Zn1 1.919 1_655 S
O8 C19 1.253 . S
O9 Zn3 1.941 . S
O9 C19 1.283 . S
O10 Zn3 1.965 . S
O10 C18 1.303 . S
O11 Zn4 1.938 1_655 S
O11 C18 1.247 . S
O12 Zn4 1.906 . S
O12 C20 1.304 . S
O13 Zn1 1.924 . S
O13 C21 1.311 . S
O14 Zn5 1.977 . S
O14 C20 1.272 . S
O15 Zn5 1.910 . S
O15 C21 1.231 . S
C16 O0 1.225 . S
C16 O22 1.298 . S
C17 O6 1.226 . S
C17 O7 1.307 . S
C18 O10 1.303 . S
C18 O11 1.247 . S
C19 O8 1.253 . S
C19 O9 1.283 . S
C20 O12 1.304 . S
C20 O14 1.272 . S
C21 O13 1.311 . S
C21 O15 1.231 . S
O22 Zn4 1.953 . S
O22 C16 1.298 . S
O23 Zn24 1.953 . S
O23 C39 1.225 . S
Zn24 O23 1.953 . S
Zn24 O25 1.949 . S
Zn24 O31 1.919 . S
Zn24 O36 1.924 1_545 S
O25 Zn24 1.949 . S
O25 Zn26 1.923 . S
O25 Zn27 1.950 . S
O25 Zn28 1.945 1_545 S
Zn26 O25 1.923 . S
Zn26 O29 1.933 . S
Zn26 O32 1.941 . S
Zn26 O33 1.965 . S
Zn27 O25 1.950 . S
Zn27 O34 1.938 . S
Zn27 O35 1.906 1_545 S
Zn27 O45 1.953 . S
Zn28 O25 1.945 1_565 S
Zn28 O30 1.932 . S
Zn28 O37 1.977 . S
Zn28 O38 1.910 . S
O29 Zn26 1.933 . S
O29 C40 1.226 . S
O30 Zn28 1.932 . S
O30 C40 1.307 1_565 S
O31 Zn24 1.919 . S
O31 C42 1.253 . S
O32 Zn26 1.941 . S
O32 C42 1.283 . S
O33 Zn26 1.965 . S
O33 C41 1.303 . S
O34 Zn27 1.938 . S
O34 C41 1.247 . S
O35 Zn27 1.906 1_565 S
O35 C43 1.304 . S
O36 Zn24 1.924 1_565 S
O36 C44 1.311 . S
O37 Zn28 1.977 . S
O37 C43 1.272 . S
O38 Zn28 1.910 . S
O38 C44 1.231 . S
C39 O23 1.225 . S
C39 O45 1.298 . S
C40 O29 1.226 . S
C40 O30 1.307 1_545 S
C41 O33 1.303 . S
C41 O34 1.247 . S
C42 O31 1.253 . S
C42 O32 1.283 . S
C43 O35 1.304 . S
C43 O37 1.272 . S
C44 O36 1.311 . S
C44 O38 1.231 . S
O45 Zn27 1.953 . S
O45 C39 1.298 . S
O46 Zn47 1.953 . S
O46 C62 1.225 . S
Zn47 O46 1.953 . S
Zn47 O48 1.949 . S
Zn47 O54 1.919 . S
Zn47 O59 1.924 . S
O48 Zn47 1.949 . S
O48 Zn49 1.923 . S
O48 Zn50 1.950 . S
O48 Zn51 1.945 . S
Zn49 O48 1.923 . S
Zn49 O52 1.933 . S
Zn49 O55 1.941 . S
Zn49 O56 1.965 . S
Zn50 O48 1.950 . S
Zn50 O57 1.938 . S
Zn50 O58 1.906 . S
Zn50 O68 1.953 . S
Zn51 O48 1.945 . S
Zn51 O53 1.932 . S
Zn51 O60 1.977 . S
Zn51 O61 1.910 . S
O52 Zn49 1.933 . S
O52 C63 1.226 . S
O53 Zn51 1.932 . S
O53 C63 1.307 . S
O54 Zn47 1.919 . S
O54 C65 1.253 . S
O55 Zn49 1.941 . S
O55 C65 1.283 . S
O56 Zn49 1.965 . S
O56 C64 1.303 . S
O57 Zn50 1.938 . S
O57 C64 1.247 . S
O58 Zn50 1.906 . S
O58 C66 1.304 . S
O59 Zn47 1.924 . S
O59 C67 1.311 . S
O60 Zn51 1.977 . S
O60 C66 1.272 . S
O61 Zn51 1.910 . S
O61 C67 1.231 . S
C62 O46 1.225 . S
C62 O68 1.298 . S
C63 O52 1.226 . S
C63 O53 1.307 . S
C64 O56 1.303 . S
C64 O57 1.247 . S
C65 O54 1.253 . S
C65 O55 1.283 . S
C66 O58 1.304 . S
C66 O60 1.272 . S
C67 O59 1.311 . S
C67 O61 1.231 . S
O68 Zn50 1.953 . S
O68 C62 1.298 . S
H69 C74 0.930 . S
H70 C77 0.930 . S
H71 C79 0.930 . S
H72 C73 1.016 . S
C73 H72 1.016 . S
C73 N80 1.286 . S
C74 H69 0.930 . S
C74 C75 1.397 1_545 S
C74 C76 1.361 . S
C75 C74 1.397 1_565 S
C75 C79 1.390 . S
C76 C74 1.361 . S
C76 C77 1.393 . S
C76 N80 1.413 . S
C77 H70 0.930 . S
C77 C76 1.393 . S
C77 C78 1.399 . S
C78 C77 1.399 . S
C78 C79 1.381 1_545 S
C79 H71 0.930 . S
C79 C75 1.390 . S
C79 C78 1.381 1_565 S
N80 C73 1.286 . S
N80 C76 1.413 . S
H81 C86 0.930 . S
H82 C89 0.930 . S
H83 C91 0.930 . S
H84 C85 1.016 . S
C85 H84 1.016 . S
C85 N92 1.286 . S
C86 H81 0.930 . S
C86 C87 1.397 . S
C86 C88 1.361 . S
C87 C86 1.397 . S
C87 C91 1.390 . S
C88 C86 1.361 . S
C88 C89 1.393 . S
C88 N92 1.413 . S
C89 H82 0.930 . S
C89 C88 1.393 . S
C89 C90 1.399 . S
C90 C89 1.399 . S
C90 C91 1.381 . S
C91 H83 0.930 . S
C91 C87 1.390 . S
C91 C90 1.381 . S
N92 C85 1.286 . S
N92 C88 1.413 . S
H93 C98 0.930 . S
H94 C101 0.930 . S
H95 C103 0.930 . S
H96 C97 1.016 . S
C97 H96 1.016 . S
C97 N104 1.286 . S
C98 H93 0.930 . S
C98 C99 1.397 . S
C98 C100 1.361 1_655 S
C99 C98 1.397 . S
C99 C103 1.390 . S
C100 C98 1.361 1_455 S
C100 C101 1.393 . S
C100 N104 1.413 . S
C101 H94 0.930 . S
C101 C100 1.393 . S
C101 C102 1.399 . S
C102 C101 1.399 . S
C102 C103 1.381 1_455 S
C103 H95 0.930 . S
C103 C99 1.390 . S
C103 C102 1.381 1_655 S
N104 C97 1.286 . S
N104 C100 1.413 . S
H105 C110 0.930 . S
H106 C113 0.930 . S
H107 C115 0.930 . S
H108 C109 1.016 . S
C109 H108 1.016 . S
C109 N116 1.286 . S
C110 H105 0.930 . S
C110 C111 1.397 . S
C110 C112 1.361 . S
C111 C110 1.397 . S
C111 C115 1.390 . S
C112 C110 1.361 . S
C112 C113 1.393 1_455 S
C112 N116 1.413 1_455 S
C113 H106 0.930 . S
C113 C112 1.393 1_655 S
C113 C114 1.399 1_655 S
C114 C113 1.399 1_455 S
C114 C115 1.381 . S
C115 H107 0.930 . S
C115 C111 1.390 . S
C115 C114 1.381 . S
N116 C109 1.286 . S
N116 C112 1.413 1_655 S
H117 C122 0.930 . S
H118 C125 0.930 1_565 S
H119 C127 0.930 . S
H120 C121 1.016 . S
C121 H120 1.016 . S
C121 N128 1.286 . S
C122 H117 0.930 . S
C122 C123 1.397 . S
C122 C124 1.361 . S
C123 C122 1.397 . S
C123 C127 1.390 . S
C124 C122 1.361 . S
C124 C125 1.393 . S
C124 N128 1.413 1_545 S
C125 H118 0.930 1_545 S
C125 C124 1.393 . S
C125 C126 1.399 . S
C126 C125 1.399 . S
C126 C127 1.381 . S
C127 H119 0.930 . S
C127 C123 1.390 . S
C127 C126 1.381 . S
N128 C121 1.286 . S
N128 C124 1.413 1_565 S
H129 C134 0.930 . S
H130 C137 0.930 . S
H131 C139 0.930 . S
H132 C133 1.016 . S
C133 H132 1.016 . S
C133 N140 1.286 . S
C134 H129 0.930 . S
C134 C135 1.397 . S
C134 C136 1.361 . S
C135 C134 1.397 . S
C135 C139 1.390 . S
C136 C134 1.361 . S
C136 C137 1.393 . S
C136 N140 1.413 . S
C137 H130 0.930 . S
C137 C136 1.393 . S
C137 C138 1.399 . S
C138 C137 1.399 . S
C138 C139 1.381 . S
C139 H131 0.930 . S
C139 C135 1.390 . S
C139 C138 1.381 . S
N140 C133 1.286 . S
N140 C136 1.413 . S
C141 C142 1.387 . S
C141 H145 0.950 . S
C141 C150 1.390 . S
C142 C141 1.387 . S
C142 C144 1.387 . S
H143 C150 0.950 . S
C144 C142 1.387 . S
C144 C146 1.390 . S
C144 H148 0.950 . S
H145 C141 0.950 . S
C146 C144 1.390 . S
C146 C147 1.387 . S
C146 H149 0.950 . S
C147 C146 1.387 . S
C147 C150 1.387 . S
H148 C144 0.950 . S
H149 C146 0.950 . S
C150 C141 1.390 . S
C150 H143 0.950 . S
C150 C147 1.387 . S
C151 C152 1.387 . S
C151 H155 0.950 . S
C151 C160 1.390 . S
C152 C151 1.387 . S
C152 C154 1.387 . S
H153 C160 0.950 . S
C154 C152 1.387 . S
C154 C156 1.390 . S
C154 H158 0.950 . S
H155 C151 0.950 . S
C156 C154 1.390 . S
C156 C157 1.387 . S
C156 H159 0.950 . S
C157 C156 1.387 . S
C157 C160 1.387 . S
H158 C154 0.950 . S
H159 C156 0.950 . S
C160 C151 1.390 . S
C160 H153 0.950 . S
C160 C157 1.387 . S
C161 C162 1.387 . S
C161 H165 0.950 . S
C161 C170 1.390 . S
C162 C161 1.387 . S
C162 C164 1.387 . S
H163 C170 0.950 . S
C164 C162 1.387 . S
C164 C166 1.390 . S
C164 H168 0.950 . S
H165 C161 0.950 . S
C166 C164 1.390 . S
C166 C167 1.387 . S
C166 H169 0.950 . S
C167 C166 1.387 . S
C167 C170 1.387 . S
H168 C164 0.950 . S
H169 C166 0.950 . S
C170 C161 1.390 . S
C170 H163 0.950 . S
C170 C167 1.387 . S
C171 C172 1.387 . S
C171 H175 0.950 . S
C171 C180 1.390 . S
C172 C171 1.387 . S
C172 C174 1.387 . S
H173 C180 0.950 . S
C174 C172 1.387 . S
C174 C176 1.390 . S
C174 H178 0.950 . S
H175 C171 0.950 . S
C176 C174 1.390 . S
C176 C177 1.387 . S
C176 H179 0.950 . S
C177 C176 1.387 . S
C177 C180 1.387 . S
H178 C174 0.950 . S
H179 C176 0.950 . S
C180 C171 1.390 . S
C180 H173 0.950 . S
C180 C177 1.387 . S
C181 C182 1.387 . S
C181 H185 0.950 . S
C181 C190 1.390 . S
C182 C181 1.387 . S
C182 C184 1.387 . S
H183 C190 0.950 . S
C184 C182 1.387 . S
C184 C186 1.390 . S
C184 H188 0.950 . S
H185 C181 0.950 . S
C186 C184 1.390 . S
C186 C187 1.387 . S
C186 H189 0.950 . S
C187 C186 1.387 . S
C187 C190 1.387 . S
H188 C184 0.950 . S
H189 C186 0.950 . S
C190 C181 1.390 . S
C190 H183 0.950 . S
C190 C187 1.387 . S
C191 C192 1.387 . S
C191 H195 0.950 . S
C191 C200 1.390 . S
C192 C191 1.387 . S
C192 C194 1.387 . S
H193 C200 0.950 . S
C194 C192 1.387 . S
C194 C196 1.390 . S
C194 H198 0.950 . S
H195 C191 0.950 . S
C196 C194 1.390 . S
C196 C197 1.387 . S
C196 H199 0.950 . S
C197 C196 1.387 . S
C197 C200 1.387 . S
H198 C194 0.950 . S
H199 C196 0.950 . S
C200 C191 1.390 . S
C200 H193 0.950 . S
C200 C197 1.387 . S
C201 C202 1.387 . S
C201 H205 0.950 . S
C201 C210 1.390 . S
C202 C201 1.387 . S
C202 C204 1.387 . S
H203 C210 0.950 . S
C204 C202 1.387 . S
C204 C206 1.390 . S
C204 H208 0.950 . S
H205 C201 0.950 . S
C206 C204 1.390 . S
C206 C207 1.387 . S
C206 H209 0.950 . S
C207 C206 1.387 . S
C207 C210 1.387 . S
H208 C204 0.950 . S
H209 C206 0.950 . S
C210 C201 1.390 . S
C210 H203 0.950 . S
C210 C207 1.387 . S
C211 C212 1.387 . S
C211 H215 0.950 . S
C211 C220 1.390 . S
C212 C211 1.387 . S
C212 C214 1.387 . S
H213 C220 0.950 . S
C214 C212 1.387 . S
C214 C216 1.390 . S
C214 H218 0.950 . S
H215 C211 0.950 . S
C216 C214 1.390 . S
C216 C217 1.387 . S
C216 H219 0.950 . S
C217 C216 1.387 . S
C217 C220 1.387 . S
H218 C214 0.950 . S
H219 C216 0.950 . S
C220 C211 1.390 . S
C220 H213 0.950 . S
C220 C217 1.387 . S
C221 C222 1.387 . S
C221 H225 0.950 . S
C221 C230 1.390 . S
C222 C221 1.387 . S
C222 C224 1.387 . S
H223 C230 0.950 . S
C224 C222 1.387 . S
C224 C226 1.390 . S
C224 H228 0.950 . S
H225 C221 0.950 . S
C226 C224 1.390 . S
C226 C227 1.387 . S
C226 H229 0.950 . S
C227 C226 1.387 . S
C227 C230 1.387 . S
H228 C224 0.950 . S
H229 C226 0.950 . S
C230 C221 1.390 . S
C230 H223 0.950 . S
C230 C227 1.387 . S
C231 C232 1.387 . S
C231 H235 0.950 . S
C231 C240 1.390 . S
C232 C231 1.387 . S
C232 C234 1.387 . S
H233 C240 0.950 . S
C234 C232 1.387 . S
C234 C236 1.390 . S
C234 H238 0.950 . S
H235 C231 0.950 . S
C236 C234 1.390 . S
C236 C237 1.387 . S
C236 H239 0.950 . S
C237 C236 1.387 . S
C237 C240 1.387 . S
H238 C234 0.950 . S
H239 C236 0.950 . S
C240 C231 1.390 . S
C240 H233 0.950 . S
C240 C237 1.387 . S
C241 C242 1.387 . S
C241 H245 0.950 . S
C241 C250 1.390 . S
C242 C241 1.387 . S
C242 C244 1.387 . S
H243 C250 0.950 . S
C244 C242 1.387 . S
C244 C246 1.390 . S
C244 H248 0.950 . S
H245 C241 0.950 . S
C246 C244 1.390 . S
C246 C247 1.387 . S
C246 H249 0.950 . S
C247 C246 1.387 . S
C247 C250 1.387 . S
H248 C244 0.950 . S
H249 C246 0.950 . S
C250 C241 1.390 . S
C250 H243 0.950 . S
C250 C247 1.387 . S
C251 C252 1.387 . S
C251 H255 0.950 . S
C251 C260 1.390 . S
C252 C251 1.387 . S
C252 C254 1.387 . S
H253 C260 0.950 . S
C254 C252 1.387 . S
C254 C256 1.390 . S
C254 H258 0.950 . S
H255 C251 0.950 . S
C256 C254 1.390 . S
C256 C257 1.387 . S
C256 H259 0.950 . S
C257 C256 1.387 . S
C257 C260 1.387 . S
H258 C254 0.950 . S
H259 C256 0.950 . S
C260 C251 1.390 . S
C260 H253 0.950 . S
C260 C257 1.387 . S
C261 C262 1.387 . S
C261 H265 0.950 . S
C261 C270 1.390 1_554 S
C262 C261 1.387 . S
C262 C264 1.388 1_455 S
H263 C270 0.950 . S
C264 C262 1.388 1_655 S
C264 C266 1.390 1_554 S
C264 H268 0.949 . S
H265 C261 0.950 . S
C266 C264 1.390 1_556 S
C266 C267 1.387 1_655 S
C266 H269 0.950 . S
C267 C266 1.387 1_455 S
C267 C270 1.387 . S
H268 C264 0.949 . S
H269 C266 0.950 . S
C270 C261 1.390 1_556 S
C270 H263 0.950 . S
C270 C267 1.387 . S
C271 C272 1.387 1_565 S
C271 H275 0.950 . S
C271 C280 1.390 . S
C272 C271 1.387 1_545 S
C272 C274 1.387 . S
H273 C280 0.950 . S
C274 C272 1.387 . S
C274 C276 1.390 . S
C274 H278 0.950 . S
H275 C271 0.950 . S
C276 C274 1.390 . S
C276 C277 1.387 . S
C276 H279 0.950 . S
C277 C276 1.387 . S
C277 C280 1.387 1_545 S
H278 C274 0.950 . S
H279 C276 0.950 . S
C280 C271 1.390 . S
C280 H273 0.950 . S
C280 C277 1.387 1_565 S
C281 C282 1.387 . S
C281 H285 0.950 . S
C281 C290 1.390 . S
C282 C281 1.387 . S
C282 C284 1.387 . S
H283 C290 0.950 . S
C284 C282 1.387 . S
C284 C286 1.390 . S
C284 H288 0.950 . S
H285 C281 0.950 . S
C286 C284 1.390 . S
C286 C287 1.387 . S
C286 H289 0.950 . S
C287 C286 1.387 . S
C287 C290 1.387 . S
H288 C284 0.950 . S
H289 C286 0.950 . S
C290 C281 1.390 . S
C290 H283 0.950 . S
C290 C287 1.387 . S
C291 C292 1.387 1_565 S
C291 H295 0.950 . S
C291 C300 1.390 . S
C292 C291 1.387 1_545 S
C292 C294 1.387 . S
H293 C300 0.950 . S
C294 C292 1.387 . S
C294 C296 1.390 . S
C294 H298 0.950 . S
H295 C291 0.950 . S
C296 C294 1.390 . S
C296 C297 1.387 . S
C296 H299 0.950 . S
C297 C296 1.387 . S
C297 C300 1.387 1_545 S
H298 C294 0.950 . S
H299 C296 0.950 . S
C300 C291 1.390 . S
C300 H293 0.950 . S
C300 C297 1.387 1_565 S
C301 C302 1.387 . S
C301 H305 0.950 . S
C301 C310 1.390 1_556 S
C302 C301 1.387 . S
C302 C304 1.387 . S
H303 C310 0.950 . S
C304 C302 1.387 . S
C304 C306 1.390 1_556 S
C304 H308 0.950 . S
H305 C301 0.950 . S
C306 C304 1.390 1_554 S
C306 C307 1.387 . S
C306 H309 0.950 . S
C307 C306 1.387 . S
C307 C310 1.387 . S
H308 C304 0.950 . S
H309 C306 0.950 . S
C310 C301 1.390 1_554 S
C310 H303 0.950 . S
C310 C307 1.387 . S
C311 C312 1.387 1_655 S
C311 H315 0.950 . S
C311 C320 1.390 . S
C312 C311 1.387 1_455 S
C312 C314 1.387 . S
H313 C320 0.950 . S
C314 C312 1.387 . S
C314 C316 1.390 . S
C314 H318 0.950 . S
H315 C311 0.950 . S
C316 C314 1.390 . S
C316 C317 1.387 . S
C316 H319 0.950 . S
C317 C316 1.387 . S
C317 C320 1.387 1_455 S
H318 C314 0.950 . S
H319 C316 0.950 . S
C320 C311 1.390 . S
C320 H313 0.950 . S
C320 C317 1.387 1_655 S
C142 C20 1.523 . S
C147 C135 1.579 . S
C152 C41 1.400 . S
C157 C109 1.376 . S
C162 C64 1.422 . S
C167 C121 1.397 . S
C172 C19 1.198 . S
C177 C133 1.246 . S
C187 C111 1.437 . S
C182 C44 1.411 . S
C197 C123 1.389 . S
C192 C67 1.372 . S
C202 C43 1.349 . S
C207 C85 1.366 . S
C212 C66 1.522 . S
C217 C99 1.579 . S
C222 C21 1.388 . S
C227 C75 1.407 . S
C237 C87 1.453 . S
C232 C42 1.355 . S
C247 C97 1.247 . S
C242 C65 1.195 . S
C252 C18 1.409 . S
C257 C73 1.385 . S
C267 C102 1.538 . S
C262 C17 1.534 . S
C272 C39 1.540 . S
C277 C78 1.536 . S
C282 C62 1.538 . S
C287 C90 1.532 . S
C297 C126 1.528 . S
C292 C40 1.522 . S
C307 C138 1.538 . S
C302 C63 1.534 . S
C312 C16 1.521 . S
C317 C114 1.516 . S
