# Generated by pormake.
# Topology anh, (6,3)-cn, num edge types: 1
# Building blocks:
#     Node 0, Type 0, BuildingBlock: BETDAH_clean_sbu_0, # of connection points: 6
#     Node 1, Type 0, BuildingBlock: BETDAH_clean_sbu_0, # of connection points: 6
#     Node 2, Type 0, BuildingBlock: BETDAH_clean_sbu_0, # of connection points: 6
#     Node 3, Type 1, BuildingBlock: MIDCAF_clean_linker_0, # of connection points: 3
#     Node 4, Type 1, BuildingBlock: MIDCAF_clean_linker_0, # of connection points: 3
#     Node 5, Type 1, BuildingBlock: MIDCAF_clean_linker_0, # of connection points: 3
#     Node 6, Type 1, BuildingBlock: MIDCAF_clean_linker_0, # of connection points: 3
#     Node 7, Type 1, BuildingBlock: MIDCAF_clean_linker_0, # of connection points: 3
#     Node 8, Type 1, BuildingBlock: MIDCAF_clean_linker_0, # of connection points: 3
#     Edge 9, Type (0, 1), BuildingBlock: XIVTED_clean_linker_0, # of connection points: 2
#     Edge 10, Type (0, 1), BuildingBlock: XIVTED_clean_linker_0, # of connection points: 2
#     Edge 11, Type (0, 1), BuildingBlock: XIVTED_clean_linker_0, # of connection points: 2
#     Edge 12, Type (0, 1), BuildingBlock: XIVTED_clean_linker_0, # of connection points: 2
#     Edge 13, Type (0, 1), BuildingBlock: XIVTED_clean_linker_0, # of connection points: 2
#     Edge 14, Type (0, 1), BuildingBlock: XIVTED_clean_linker_0, # of connection points: 2
#     Edge 15, Type (0, 1), BuildingBlock: XIVTED_clean_linker_0, # of connection points: 2
#     Edge 16, Type (0, 1), BuildingBlock: XIVTED_clean_linker_0, # of connection points: 2
#     Edge 17, Type (0, 1), BuildingBlock: XIVTED_clean_linker_0, # of connection points: 2
#     Edge 18, Type (0, 1), BuildingBlock: XIVTED_clean_linker_0, # of connection points: 2
#     Edge 19, Type (0, 1), BuildingBlock: XIVTED_clean_linker_0, # of connection points: 2
#     Edge 20, Type (0, 1), BuildingBlock: XIVTED_clean_linker_0, # of connection points: 2
#     Edge 21, Type (0, 1), BuildingBlock: XIVTED_clean_linker_0, # of connection points: 2
#     Edge 22, Type (0, 1), BuildingBlock: XIVTED_clean_linker_0, # of connection points: 2
#     Edge 23, Type (0, 1), BuildingBlock: XIVTED_clean_linker_0, # of connection points: 2
#     Edge 24, Type (0, 1), BuildingBlock: XIVTED_clean_linker_0, # of connection points: 2
#     Edge 25, Type (0, 1), BuildingBlock: XIVTED_clean_linker_0, # of connection points: 2
#     Edge 26, Type (0, 1), BuildingBlock: XIVTED_clean_linker_0, # of connection points: 2
# Relax obj value: 0.183
# Max RMSD: 0.211
# Mean RMSD: 0.157
data_MOF--net-anh--node1-BETDAH_clean_sbu_0--node2-MIDCAF_clean_linker_0--edge1-XIVTED_clean_linker_0
_symmetry_space_group_name_H-M    P1
_symmetry_Int_Tables_number       1
_symmetry_cell_setting            triclinic
loop_
_symmetry_equiv_pos_as_xyz
'x, y, z'
_cell_length_a     37.323967
_cell_length_b     43.600201
_cell_length_c     66.294341
_cell_angle_alpha  92.247832
_cell_angle_beta   89.608781
_cell_angle_gamma 128.18156
loop_
_atom_site_label
_atom_site_type_symbol
_atom_site_fract_x
_atom_site_fract_y
_atom_site_fract_z
_atom_type_partial_charge
Ho0 Ho 0.08858 0.51435 0.13977 0.0
Ho1 Ho 1.03638 0.54205 0.15604 0.0
C2 C 0.14173 0.60822 0.15022 0.0
C3 C 0.14353 0.50806 0.1201 0.0
C4 C 0.19199 0.52784 0.12395 0.0
C5 C 0.21743 0.52422 0.10991 0.0
C6 C 0.26224 0.5396 0.11472 0.0
C7 C 0.28184 0.55844 0.1337 0.0
C8 C 0.25689 0.56366 0.14731 0.0
C9 C 0.21234 0.54867 0.14241 0.0
C10 C 0.08173 0.51408 0.18019 0.0
C11 C 0.98389 0.44874 0.14597 0.0
C12 C 0.98137 0.54704 0.17676 0.0
C13 C 0.93308 0.51662 0.18117 0.0
C14 C 0.91657 0.51506 0.20049 0.0
C15 C 0.87157 0.48404 0.20514 0.0
C16 C 0.84271 0.454 0.19057 0.0
C17 C 0.85947 0.45596 0.17123 0.0
C18 C 0.90416 0.48683 0.16661 0.0
C19 C 1.04491 0.5423 0.1156 0.0
O20 O 0.1416 0.5806 0.14095 0.0
O21 O 0.10537 0.60004 0.1594 0.0
O22 O 0.11658 0.48408 0.13395 0.0
O23 O 0.13348 0.53047 0.1146 0.0
O24 O 0.08282 0.48904 0.16966 0.0
O25 O 0.0884 0.53978 0.16904 0.0
O26 O 0.98575 0.4758 0.15694 0.0
O27 O 1.01833 0.45807 0.13465 0.0
O28 O 0.99063 0.55665 0.15789 0.0
O29 O 1.00942 0.54244 0.18496 0.0
O30 O 1.0465 0.56902 0.12598 0.0
O31 O 1.03649 0.51625 0.12694 0.0
H32 H 0.20216 0.50832 0.09559 0.0
H33 H 0.2806 0.53477 0.10406 0.0
H34 H 0.27132 0.57816 0.16199 0.0
H35 H 0.1931 0.55197 0.15336 0.0
H36 H 0.93862 0.53752 0.21201 0.0
H37 H 0.85952 0.48333 0.22016 0.0
H38 H 0.83786 0.43381 0.15951 0.0
H39 H 0.91625 0.48703 0.15167 0.0
Ho40 Ho 0.60529 0.01788 0.48028 0.0
Ho41 Ho 0.54549 0.0401 0.46891 0.0
C42 C 0.49605 0.9498 0.47074 0.0
C43 C 0.64128 0.98955 0.49678 0.0
C44 C 0.63035 0.95118 0.49914 0.0
C45 C 0.5853 0.91732 0.50126 0.0
C46 C 0.57603 0.88131 0.50372 0.0
C47 C 0.61167 0.87856 0.50409 0.0
C48 C 0.65668 0.91259 0.50177 0.0
C49 C 0.66586 0.9485 0.49931 0.0
C50 C 0.60198 0.02751 0.44065 0.0
C51 C 0.65519 0.10846 0.47719 0.0
C52 C 0.51223 0.07177 0.45391 0.0
C53 C 0.52279 0.10991 0.4583 0.0
C54 C 0.50218 0.12189 0.447 0.0
C55 C 0.51133 0.15775 0.45176 0.0
C56 C 0.54129 0.18215 0.46791 0.0
C57 C 0.56219 0.16999 0.47901 0.0
C58 C 0.55304 0.13427 0.47424 0.0
C59 C 0.55065 0.03228 0.50872 0.0
O60 O 0.53342 0.95993 0.48021 0.0
O61 O 0.49506 0.97592 0.46188 0.0
O62 O 0.65002 1.0021 0.47846 0.0
O63 O 0.61606 0.99635 0.50652 0.0
O64 O 0.63804 0.0369 0.45006 0.0
O65 O 0.56866 0.01111 0.45231 0.0
O66 O 0.61666 0.09774 0.46884 0.0
O67 O 0.65812 0.08283 0.48533 0.0
O68 O 0.49358 0.04775 0.46866 0.0
O69 O 0.54469 0.07282 0.44541 0.0
O70 O 0.51445 0.02317 0.49965 0.0
O71 O 0.58302 0.04776 0.49663 0.0
H72 H 0.55737 0.91875 0.50115 0.0
H73 H 0.54095 0.85563 0.50526 0.0
H74 H 0.68501 0.9117 0.50231 0.0
H75 H 0.70085 0.97434 0.49772 0.0
H76 H 0.4788 0.10343 0.4346 0.0
H77 H 0.49505 0.16638 0.44276 0.0
H78 H 0.5848 0.18761 0.49175 0.0
H79 H 0.56909 0.12536 0.48321 0.0
Ho80 Ho 0.60782 0.55751 0.84343 0.0
Ho81 Ho 0.54327 0.47021 0.84861 0.0
C82 C 0.4973 0.51304 0.84855 0.0
C83 C 0.65099 0.62795 0.83162 0.0
C84 C 0.64383 0.65711 0.8288 0.0
C85 C 0.60074 0.64625 0.82388 0.0
C86 C 0.59568 0.67488 0.82038 0.0
C87 C 0.63367 0.71476 0.82172 0.0
C88 C 0.67644 0.72532 0.8272 0.0
C89 C 0.68142 0.69677 0.83068 0.0
C90 C 0.59819 0.53492 0.88156 0.0
C91 C 0.65448 0.51522 0.84467 0.0
C92 C 0.50471 0.40017 0.85991 0.0
C93 C 0.51456 0.37276 0.85575 0.0
C94 C 0.49366 0.33912 0.86682 0.0
C95 C 0.50306 0.31301 0.86274 0.0
C96 C 0.5336 0.32023 0.8475 0.0
C97 C 0.55468 0.3543 0.83657 0.0
C98 C 0.54532 0.38032 0.84069 0.0
C99 C 0.55405 0.49154 0.8101 0.0
O100 O 0.5374 0.54384 0.84202 0.0
O101 O 0.49278 0.48214 0.85468 0.0
O102 O 0.65218 0.61984 0.85025 0.0
O103 O 0.62854 0.59697 0.81933 0.0
O104 O 0.63648 0.56443 0.87452 0.0
O105 O 0.5668 0.52047 0.86846 0.0
O106 O 0.61336 0.48352 0.84954 0.0
O107 O 0.66033 0.54722 0.8396 0.0
O108 O 0.49059 0.40791 0.84435 0.0
O109 O 0.53559 0.43155 0.87084 0.0
O110 O 0.51617 0.46157 0.81711 0.0
O111 O 0.58518 0.50699 0.82346 0.0
H112 H 0.57124 0.61572 0.82241 0.0
H113 H 0.56234 0.66576 0.81605 0.0
H114 H 0.70622 0.75574 0.82872 0.0
H115 H 0.71488 0.70568 0.83461 0.0
H116 H 0.47006 0.33303 0.8786 0.0
H117 H 0.48667 0.28734 0.87161 0.0
H118 H 0.57779 0.36054 0.82453 0.0
H119 H 0.56183 0.40622 0.83198 0.0
C120 C 0.45879 0.88629 0.18446 0.0
C121 C 0.4314 0.88314 0.1688 0.0
C122 C 0.44373 0.91758 0.16037 0.0
C123 C 0.48227 0.95441 0.16776 0.0
H124 H 0.60317 0.09529 0.16185 0.0
H125 H 0.66429 0.15875 0.14792 0.0
H126 H 0.76183 0.16962 0.18851 0.0
H127 H 0.70121 0.10737 0.20264 0.0
H128 H 0.64593 0.09242 0.25026 0.0
H129 H 0.64924 0.09503 0.28702 0.0
H130 H 0.52759 0.97487 0.28717 0.0
H131 H 0.52365 0.9723 0.25048 0.0
H132 H 0.5159 0.92412 0.20459 0.0
H133 H 0.45005 0.86044 0.19142 0.0
H134 H 0.42329 0.916 0.14824 0.0
H135 H 0.49047 0.98052 0.16139 0.0
N136 N 0.57611 0.02773 0.18373 0.0
N137 N 0.61355 0.06226 0.2144 0.0
N138 N 0.54831 0.99714 0.21468 0.0
C139 C 0.61094 0.06127 0.19392 0.0
C140 C 0.58209 0.03051 0.22492 0.0
C141 C 0.54495 0.99532 0.19422 0.0
C142 C 0.6475 0.09649 0.18331 0.0
C143 C 0.63783 0.11107 0.1675 0.0
C144 C 0.67267 0.1474 0.15965 0.0
C145 C 0.71783 0.16908 0.16712 0.0
C146 C 0.72752 0.1535 0.18232 0.0
C147 C 0.69275 0.11791 0.19046 0.0
C148 C 0.58454 0.03213 0.24732 0.0
C149 C 0.61981 0.06652 0.25809 0.0
C150 C 0.62186 0.068 0.27919 0.0
C151 C 0.58866 0.03517 0.29003 0.0
C152 C 0.55334 1.00085 0.27929 0.0
C153 C 0.55131 0.99933 0.25821 0.0
C154 C 0.50829 0.9573 0.18403 0.0
C155 C 0.49643 0.92283 0.19207 0.0
C156 C 0.6078 0.42959 0.5481 0.0
C157 C 0.59097 0.42041 0.5281 0.0
C158 C 0.57745 0.44112 0.51981 0.0
C159 C 0.58063 0.47036 0.53136 0.0
H160 H 0.59379 0.57432 0.5276 0.0
H161 H 0.58892 0.62262 0.51347 0.0
H162 H 0.58787 0.66344 0.57373 0.0
H163 H 0.59203 0.61527 0.58783 0.0
H164 H 0.62001 0.5907 0.62507 0.0
H165 H 0.61775 0.58682 0.66175 0.0
H166 H 0.58721 0.47385 0.65558 0.0
H167 H 0.58943 0.4775 0.61896 0.0
H168 H 0.62319 0.46431 0.57511 0.0
H169 H 0.61798 0.41384 0.55499 0.0
H170 H 0.56457 0.43478 0.50439 0.0
H171 H 0.56969 0.48564 0.52461 0.0
N172 N 0.59549 0.53506 0.55588 0.0
N173 N 0.60016 0.5616 0.58816 0.0
N174 N 0.60172 0.50885 0.58468 0.0
C175 C 0.59655 0.56181 0.56779 0.0
C176 C 0.60271 0.53525 0.59674 0.0
C177 C 0.59826 0.50856 0.56427 0.0
C178 C 0.59332 0.59078 0.55888 0.0
C179 C 0.59236 0.5935 0.53784 0.0
C180 C 0.58975 0.62128 0.52972 0.0
C181 C 0.58776 0.64674 0.54247 0.0
C182 C 0.58854 0.64385 0.56346 0.0
C183 C 0.59131 0.61632 0.57156 0.0
C184 C 0.60456 0.53427 0.61902 0.0
C185 C 0.61311 0.56512 0.6315 0.0
C186 C 0.61213 0.56306 0.65252 0.0
C187 C 0.60206 0.52995 0.66148 0.0
C188 C 0.5946 0.49955 0.64905 0.0
C189 C 0.59608 0.50177 0.62807 0.0
C190 C 0.59674 0.47903 0.55151 0.0
C191 C 0.61046 0.45838 0.55969 0.0
C192 C 0.97333 0.54249 0.84422 0.0
C193 C 0.92876 0.51233 0.85081 0.0
C194 C 0.92345 0.48147 0.86051 0.0
C195 C 0.96075 0.48159 0.86425 0.0
H196 H 0.12733 0.47189 0.88579 0.0
H197 H 0.1909 0.47126 0.87964 0.0
H198 H 0.23796 0.55484 0.83345 0.0
H199 H 0.17358 0.55589 0.84016 0.0
H200 H 0.14947 0.55692 0.92784 0.0
H201 H 0.14739 0.56224 0.96474 0.0
H202 H 1.00346 0.50585 0.96078 0.0
H203 H 1.00545 0.50116 0.92404 0.0
H204 H 1.04469 0.56755 0.84393 0.0
H205 H 0.97974 0.56677 0.83647 0.0
H206 H 0.89076 0.45787 0.86634 0.0
H207 H 0.95506 0.45846 0.87295 0.0
N208 N 0.07712 0.51593 0.85958 0.0
N209 N 0.10962 0.52331 0.89164 0.0
N210 N 1.0462 0.52189 0.88929 0.0
C211 C 0.10983 0.51865 0.87123 0.0
C212 C 0.07832 0.52511 0.90073 0.0
C213 C 1.04495 0.51768 0.86888 0.0
C214 C 0.14418 0.51341 0.86331 0.0
C215 C 0.15052 0.4896 0.87394 0.0
C216 C 0.18751 0.48922 0.87034 0.0
C217 C 0.2207 0.51292 0.85594 0.0
C218 C 0.2139 0.53625 0.84483 0.0
C219 C 0.17627 0.53641 0.8484 0.0
C220 C 0.07765 0.52867 0.92302 0.0
C221 C 0.11743 0.54574 0.93486 0.0
C222 C 0.11634 0.54896 0.95592 0.0
C223 C 0.07525 0.53437 0.96553 0.0
C224 C 1.0355 0.51713 0.95372 0.0
C225 C 1.03676 0.51465 0.93269 0.0
C226 C 1.00537 0.51229 0.85839 0.0
C227 C 1.01087 0.54257 0.84804 0.0
C228 C 0.18582 0.66711 0.4355 0.0
C229 C 0.21055 0.67223 0.4529 0.0
C230 C 0.1973 0.63883 0.46295 0.0
C231 C 0.16052 0.60115 0.45546 0.0
H232 H 1.037 0.46577 0.46528 0.0
H233 H 0.97397 0.40392 0.47998 0.0
H234 H 0.89099 0.37489 0.42668 0.0
H235 H 0.95276 0.43547 0.41221 0.0
H236 H 1.0103 0.45853 0.37074 0.0
H237 H 1.00928 0.45617 0.33397 0.0
H238 H 0.1275 0.57784 0.33468 0.0
H239 H 0.1282 0.58057 0.37138 0.0
H240 H 0.1325 0.62726 0.4142 0.0
H241 H 0.19529 0.69196 0.42719 0.0
H242 H 0.21559 0.64183 0.47645 0.0
H243 H 0.15165 0.57587 0.46313 0.0
N244 N 0.07074 0.52517 0.43779 0.0
N245 N 1.03802 0.48965 0.40682 0.0
N246 N 0.10176 0.55526 0.40694 0.0
C247 C 1.0379 0.491 0.42735 0.0
C248 C 0.06992 0.52147 0.3965 0.0
C249 C 0.10268 0.5576 0.42744 0.0
C250 C 1.00003 0.45553 0.43755 0.0
C251 C 1.00507 0.44624 0.45688 0.0
C252 C 0.96917 0.41079 0.46521 0.0
C253 C 0.92738 0.38458 0.45453 0.0
C254 C 0.92238 0.39452 0.43545 0.0
C255 C 0.95811 0.42928 0.42707 0.0
C256 C 0.06934 0.51974 0.3741 0.0
C257 C 1.0361 0.48483 0.3631 0.0
C258 C 1.03561 0.48339 0.34199 0.0
C259 C 0.06828 0.51682 0.33139 0.0
C260 C 0.10145 0.55171 0.34237 0.0
C261 C 0.102 0.55316 0.36346 0.0
C262 C 0.13715 0.59639 0.43761 0.0
C263 C 0.14988 0.62985 0.42796 0.0
C264 C 0.59134 0.13694 0.77172 0.0
C265 C 0.57804 0.12975 0.79192 0.0
C266 C 0.56772 0.09612 0.80039 0.0
C267 C 0.57087 0.07027 0.78884 0.0
H268 H 0.58147 0.97821 0.79188 0.0
H269 H 0.58992 0.93184 0.80598 0.0
H270 H 0.62011 0.90934 0.74678 0.0
H271 H 0.61208 0.95535 0.73273 0.0
H272 H 0.6069 0.99161 0.6948 0.0
H273 H 0.60266 0.9926 0.65814 0.0
H274 H 0.56182 0.06593 0.66467 0.0
H275 H 0.56583 0.06498 0.70127 0.0
H276 H 0.604 0.11746 0.74457 0.0
H277 H 0.59896 0.16235 0.76471 0.0
H278 H 0.5575 0.08996 0.81597 0.0
H279 H 0.56264 0.04455 0.79573 0.0
N280 N 0.58874 0.02338 0.76422 0.0
N281 N 0.59135 1.00093 0.73188 0.0
N282 N 0.58523 0.05108 0.73537 0.0
C283 C 0.59175 0.99894 0.75228 0.0
C284 C 0.58789 0.02675 0.7233 0.0
C285 C 0.58572 0.04972 0.7558 0.0
C286 C 0.59621 0.97068 0.76116 0.0
C287 C 0.58996 0.96339 0.78188 0.0
C288 C 0.59454 0.9367 0.78996 0.0
C289 C 0.60597 0.91718 0.77751 0.0
C290 C 0.61195 0.92435 0.75683 0.0
C291 C 0.60703 0.95063 0.74875 0.0
C292 C 0.58656 0.02811 0.70103 0.0
C293 C 0.59707 0.008 0.68845 0.0
C294 C 0.59493 0.00874 0.66744 0.0
C295 C 0.58178 0.02924 0.65857 0.0
C296 C 0.57158 0.04953 0.6711 0.0
C297 C 0.57415 0.04914 0.69209 0.0
C298 C 0.5836 0.07728 0.76851 0.0
C299 C 0.59387 0.11097 0.76014 0.0
C300 C 0.5571 0.32158 0.12916 0.0
C301 C 0.54421 0.31818 0.14948 0.0
C302 C 0.51129 0.323 0.15459 0.0
C303 C 0.49704 0.33667 0.14051 0.0
H304 H 0.4959 0.43083 0.14755 0.0
H305 H 0.48317 0.47497 0.16318 0.0
H306 H 0.49397 0.52059 0.10477 0.0
H307 H 0.50793 0.47796 0.08946 0.0
H308 H 0.50265 0.3493 0.0472 0.0
H309 H 0.51973 0.36279 0.01122 0.0
H310 H 0.60146 0.48651 0.02613 0.0
H311 H 0.58421 0.47314 0.06155 0.0
H312 H 0.55633 0.34044 0.10003 0.0
H313 H 0.58234 0.31814 0.12452 0.0
H314 H 0.49947 0.31944 0.16992 0.0
H315 H 0.47474 0.34338 0.1454 0.0
N316 N 0.50481 0.39509 0.11765 0.0
N317 N 0.5202 0.42705 0.0876 0.0
N318 N 0.5233 0.37506 0.08861 0.0
C319 C 0.50877 0.4232 0.10727 0.0
C320 C 0.52727 0.40318 0.07815 0.0
C321 C 0.51192 0.37085 0.10846 0.0
C322 C 0.5025 0.45053 0.11721 0.0
C323 C 0.49596 0.45059 0.13813 0.0
C324 C 0.48875 0.47593 0.14709 0.0
C325 C 0.48778 0.50155 0.13529 0.0
C326 C 0.49559 0.50207 0.11449 0.0
C327 C 0.50299 0.47705 0.1056 0.0
C328 C 0.54187 0.41019 0.05703 0.0
C329 C 0.52493 0.37929 0.0427 0.0
C330 C 0.53448 0.38699 0.0222 0.0
C331 C 0.56198 0.42569 0.01593 0.0
C332 C 0.58065 0.45644 0.0305 0.0
C333 C 0.57047 0.44876 0.05077 0.0
C334 C 0.51487 0.34511 0.12098 0.0
C335 C 0.54238 0.33473 0.11503 0.0
H336 H 0.36182 0.59708 0.11322 0.0
H337 H 0.42283 0.47949 0.16363 0.0
H338 H 0.29995 0.53908 0.1686 0.0
H339 H 0.51883 0.57526 0.12612 0.0
H340 H 0.38503 0.50839 0.16992 0.0
H341 H 0.4262 0.5975 0.12072 0.0
C342 C 0.36241 0.58529 0.12719 0.0
C343 C 0.32536 0.56746 0.14015 0.0
C344 C 0.41507 0.52366 0.16071 0.0
C345 C 0.39813 0.56714 0.14866 0.0
C346 C 0.43694 0.50722 0.15718 0.0
C347 C 0.47321 0.52424 0.14375 0.0
C348 C 0.42895 0.55681 0.15039 0.0
C349 C 0.48977 0.56024 0.1359 0.0
C350 C 0.39919 0.58567 0.13153 0.0
C351 C 0.32784 0.55295 0.15817 0.0
N352 N 0.4667 0.57476 0.13885 0.0
N353 N 0.36308 0.55221 0.16166 0.0
H354 H 0.65727 0.17004 0.46799 0.0
H355 H 0.92955 0.32936 0.47204 0.0
H356 H 0.74528 0.14301 0.48647 0.0
H357 H 0.83722 0.3524 0.45495 0.0
H358 H 0.86371 0.26291 0.48049 0.0
H359 H 0.72347 0.2382 0.4659 0.0
C360 C 0.69054 0.1784 0.4717 0.0
C361 C 0.69557 0.15048 0.47728 0.0
C362 C 0.85794 0.28267 0.47508 0.0
C363 C 0.77227 0.22923 0.4748 0.0
C364 C 0.89552 0.32069 0.4704 0.0
C365 C 0.88888 0.34637 0.46258 0.0
C366 C 0.81347 0.27036 0.47197 0.0
C367 C 0.84398 0.33343 0.46061 0.0
C368 C 0.7285 0.21754 0.47052 0.0
C369 C 0.73973 0.16345 0.48206 0.0
N370 N 0.80818 0.29642 0.46512 0.0
N371 N 0.77643 0.20182 0.48055 0.0
H372 H 0.56548 0.71969 0.83163 0.0
H373 H 0.67417 0.91226 0.76975 0.0
H374 H 0.6921 0.77935 0.79988 0.0
H375 H 0.5518 0.85921 0.80411 0.0
H376 H 0.68146 0.86403 0.78146 0.0
H377 H 0.55947 0.77025 0.82227 0.0
C378 C 0.59196 0.74336 0.82269 0.0
C379 C 0.62943 0.74531 0.81659 0.0
C380 C 0.65304 0.8629 0.78654 0.0
C381 C 0.6229 0.8033 0.80593 0.0
C382 C 0.64879 0.89039 0.77979 0.0
C383 C 0.61211 0.88954 0.78582 0.0
C384 C 0.62024 0.83405 0.79939 0.0
C385 C 0.5807 0.86097 0.79915 0.0
C386 C 0.58865 0.77232 0.81745 0.0
C387 C 0.66297 0.77689 0.80519 0.0
N388 N 0.58528 0.83415 0.80538 0.0
N389 N 0.65882 0.80447 0.80021 0.0
H390 H 0.79295 0.37608 0.17993 0.0
H391 H 0.57137 0.35829 0.18619 0.0
H392 H 0.78183 0.45903 0.21043 0.0
H393 H 0.5838 0.28149 0.14934 0.0
H394 H 0.63799 0.37893 0.20574 0.0
H395 H 0.70987 0.32795 0.17896 0.0
C396 C 0.77301 0.3839 0.18678 0.0
C397 C 0.79421 0.42201 0.19467 0.0
C398 C 0.62555 0.35682 0.19371 0.0
C399 C 0.69929 0.36715 0.19364 0.0
C400 C 0.58692 0.34454 0.18257 0.0
C401 C 0.57274 0.31911 0.16547 0.0
C402 C 0.65062 0.34412 0.18752 0.0
C403 C 0.59464 0.30244 0.16182 0.0
C404 C 0.72561 0.35635 0.18631 0.0
C405 C 0.76692 0.43019 0.20393 0.0
N406 N 0.63336 0.31612 0.17236 0.0
N407 N 0.7208 0.40327 0.20275 0.0
H408 H 0.48665 0.88425 0.48065 0.0
H409 H 0.21813 0.73885 0.4551 0.0
H410 H 0.40983 0.92045 0.45888 0.0
H411 H 0.29559 0.69767 0.46556 0.0
H412 H 0.28717 0.80585 0.46094 0.0
H413 H 0.41666 0.81628 0.47905 0.0
C414 C 0.45516 0.87802 0.4756 0.0
C415 C 0.45432 0.90827 0.46984 0.0
C416 C 0.28918 0.78224 0.46209 0.0
C417 C 0.37399 0.8305 0.46811 0.0
C418 C 0.24967 0.74389 0.45876 0.0
C419 C 0.25105 0.71248 0.45958 0.0
C420 C 0.33076 0.78961 0.46632 0.0
C421 C 0.29285 0.72091 0.46482 0.0
C422 C 0.41521 0.83916 0.47467 0.0
C423 C 0.4124 0.89825 0.46335 0.0
N424 N 0.33113 0.75868 0.46782 0.0
N425 N 0.3741 0.86038 0.4627 0.0
H426 H 0.61493 0.33619 0.83745 0.0
H427 H 0.50777 0.11211 0.81579 0.0
H428 H 0.47319 0.23994 0.84629 0.0
H429 H 0.63879 0.20946 0.79466 0.0
H430 H 0.49858 0.15819 0.83224 0.0
H431 H 0.62787 0.28966 0.82663 0.0
C432 C 0.58648 0.30528 0.83713 0.0
C433 C 0.54273 0.29206 0.84257 0.0
C434 C 0.52948 0.16943 0.82413 0.0
C435 C 0.55757 0.23851 0.83044 0.0
C436 C 0.53486 0.14318 0.81487 0.0
C437 C 0.57394 0.15703 0.80373 0.0
C438 C 0.5636 0.20978 0.82236 0.0
C439 C 0.60785 0.19757 0.80287 0.0
C440 C 0.59398 0.27871 0.83104 0.0
C441 C 0.50752 0.25154 0.84235 0.0
N442 N 0.60183 0.22249 0.81198 0.0
N443 N 0.51565 0.22623 0.83626 0.0
H444 H 0.55135 0.82244 0.53025 0.0
H445 H 0.63561 0.69396 0.51091 0.0
H446 H 0.65105 0.84849 0.48599 0.0
H447 H 0.53612 0.66862 0.55511 0.0
H448 H 0.63682 0.74723 0.49943 0.0
H449 H 0.54045 0.76272 0.53741 0.0
C450 C 0.57057 0.8154 0.52184 0.0
C451 C 0.60241 0.84075 0.50758 0.0
C452 C 0.6145 0.72985 0.51156 0.0
C453 C 0.59056 0.77252 0.51594 0.0
C454 C 0.61359 0.69926 0.51803 0.0
C455 C 0.58604 0.67699 0.53413 0.0
C456 C 0.58766 0.73825 0.52123 0.0
C457 C 0.55855 0.68548 0.54291 0.0
C458 C 0.56454 0.78136 0.52604 0.0
C459 C 0.62674 0.83023 0.49737 0.0
N460 N 0.56026 0.71553 0.53643 0.0
N461 N 0.62049 0.79706 0.50183 0.0
H462 H 0.65501 0.45248 0.84944 0.0
H463 H 0.92903 0.57668 0.84881 0.0
H464 H 0.74707 0.57619 0.84041 0.0
H465 H 0.83482 0.45073 0.84775 0.0
H466 H 0.86412 0.57755 0.84663 0.0
H467 H 0.72034 0.45189 0.85015 0.0
C468 C 0.68885 0.47964 0.84759 0.0
C469 C 0.6948 0.51446 0.84482 0.0
C470 C 0.85763 0.54969 0.84686 0.0
C471 C 0.77116 0.51398 0.84579 0.0
C472 C 0.89504 0.54905 0.84796 0.0
C473 C 0.88862 0.51354 0.84857 0.0
C474 C 0.81253 0.51459 0.84646 0.0
C475 C 0.84267 0.4791 0.84777 0.0
C476 C 0.72643 0.47923 0.84798 0.0
C477 C 0.74015 0.54851 0.84252 0.0
N478 N 0.80701 0.48056 0.84686 0.0
N479 N 0.77615 0.54741 0.84314 0.0
H480 H 0.22797 0.63464 0.14072 0.0
H481 H 0.34531 0.861 0.16357 0.0
H482 H 0.15331 0.67534 0.16122 0.0
H483 H 0.42044 0.81578 0.16005 0.0
H484 H 0.27431 0.79447 0.15727 0.0
H485 H 0.29833 0.70204 0.14273 0.0
C486 C 0.22626 0.65772 0.14555 0.0
C487 C 0.18454 0.64917 0.15091 0.0
C488 C 0.30638 0.79918 0.15773 0.0
C489 C 0.26521 0.72664 0.1531 0.0
C490 C 0.34694 0.83717 0.16113 0.0
C491 C 0.38885 0.84394 0.16241 0.0
C492 C 0.30777 0.76774 0.15536 0.0
C493 C 0.38885 0.81185 0.15937 0.0
C494 C 0.26653 0.69623 0.14673 0.0
C495 C 0.18465 0.68045 0.15708 0.0
N496 N 0.34901 0.77522 0.15603 0.0
N497 N 0.22429 0.71773 0.15799 0.0
H498 H 0.48009 0.19758 0.46853 0.0
H499 H 0.65321 0.40678 0.52494 0.0
H500 H 0.62183 0.25209 0.48062 0.0
H501 H 0.5184 0.3612 0.50459 0.0
H502 H 0.64274 0.3509 0.50797 0.0
H503 H 0.49379 0.25783 0.4805 0.0
C504 C 0.51423 0.22233 0.47345 0.0
C505 C 0.54977 0.21953 0.47369 0.0
C506 C 0.61553 0.35321 0.50705 0.0
C507 C 0.56549 0.2885 0.48776 0.0
C508 C 0.62145 0.38504 0.51681 0.0
C509 C 0.5865 0.3885 0.51629 0.0
C510 C 0.57417 0.32431 0.49683 0.0
C511 C 0.5463 0.35977 0.50529 0.0
C512 C 0.52196 0.25669 0.48039 0.0
C513 C 0.59315 0.25252 0.48052 0.0
N514 N 0.54104 0.32867 0.49616 0.0
N515 N 0.59967 0.28545 0.4874 0.0
H516 H 0.40832 0.45415 0.85923 0.0
H517 H 0.31026 0.57409 0.84519 0.0
H518 H 0.49193 0.57225 0.83951 0.0
H519 H 0.22746 0.45325 0.8606 0.0
H520 H 0.37653 0.57469 0.84295 0.0
H521 H 0.34279 0.45435 0.86018 0.0
C522 C 0.41321 0.48027 0.8551 0.0
C523 C 0.45654 0.51324 0.84928 0.0
C524 C 0.34383 0.54802 0.84681 0.0
C525 C 0.38004 0.51364 0.85037 0.0
C526 C 0.30551 0.5475 0.84797 0.0
C527 C 0.26216 0.51363 0.85327 0.0
C528 C 0.33961 0.51441 0.85095 0.0
C529 C 0.25961 0.48052 0.85689 0.0
C530 C 0.37539 0.48032 0.85562 0.0
C531 C 0.45967 0.546 0.8441 0.0
N532 N 0.29726 0.48184 0.85572 0.0
N533 N 0.42236 0.54537 0.8448 0.0
H534 H 0.90174 0.41953 0.16287 0.0
H535 H 0.80306 0.19771 0.15464 0.0
H536 H 0.97161 0.38298 0.13102 0.0
H537 H 0.71698 0.23121 0.16451 0.0
H538 H 0.86642 0.26543 0.14726 0.0
H539 H 0.83503 0.35113 0.1652 0.0
C540 C 0.90298 0.39721 0.15619 0.0
C541 C 0.94243 0.40724 0.14664 0.0
C542 C 0.83354 0.2579 0.15081 0.0
C543 C 0.86616 0.32849 0.14961 0.0
C544 C 0.79742 0.2193 0.15504 0.0
C545 C 0.7547 0.20884 0.16017 0.0
C546 C 0.82726 0.28653 0.15213 0.0
C547 C 0.74924 0.23796 0.16046 0.0
C548 C 0.86478 0.35808 0.15753 0.0
C549 C 0.94199 0.37676 0.13846 0.0
N550 N 0.78524 0.27556 0.15677 0.0
N551 N 0.90468 0.33881 0.14031 0.0
H552 H 1.02309 0.48072 0.09154 0.0
H553 H 0.1285 0.59865 0.99126 0.0
H554 H 0.08032 0.60196 0.08981 0.0
H555 H 1.01764 0.47501 0.99031 0.0
H556 H 0.12256 0.60152 0.02817 0.0
H557 H 1.03214 0.47917 0.055 0.0
C558 C 1.03762 0.50703 0.08344 0.0
C559 C 0.05068 0.54146 0.09361 0.0
C560 C 0.09962 0.57382 0.01984 0.0
C561 C 0.06171 0.54002 0.05194 0.0
C562 C 0.10317 0.57213 -0.00113 0.0
C563 C 0.0734 0.53656 0.98782 0.0
C564 C 0.06674 0.53954 0.02977 0.0
C565 C 1.04098 0.50303 -0.00169 0.0
C566 C 1.04267 0.50609 0.06262 0.0
C567 C 0.0695 0.57477 0.08244 0.0
N568 N 1.03867 0.50528 0.01872 0.0
N569 N 0.07471 0.57332 0.06216 0.0
H570 H 0.52683 1.00198 0.41761 0.0
H571 H 0.66444 0.06869 0.31438 0.0
H572 H 0.67106 0.06035 0.41402 0.0
H573 H 0.51877 0.00449 0.31679 0.0
H574 H 0.66787 0.06924 0.35114 0.0
H575 H 0.52338 0.00567 0.38092 0.0
C576 C 0.55775 0.01566 0.40908 0.0
C577 C 0.59924 0.03068 0.41876 0.0
C578 C 0.63513 0.05509 0.34366 0.0
C579 C 0.59565 0.03504 0.37694 0.0
C580 C 0.6332 0.05498 0.32265 0.0
C581 C 0.59124 0.03647 0.31245 0.0
C582 C 0.59483 0.03658 0.35464 0.0
C583 C 0.55178 0.01865 0.32399 0.0
C584 C 0.55579 0.01774 0.38817 0.0
C585 C 0.63834 0.04823 0.40709 0.0
N586 N 0.55453 0.01912 0.34445 0.0
N587 N 0.63557 0.04985 0.3868 0.0
H588 H 0.49137 0.45202 0.77955 0.0
H589 H 0.65856 0.58412 0.69166 0.0
H590 H 0.63315 0.54873 0.79142 0.0
H591 H 0.53335 0.46712 0.68162 0.0
H592 H 0.6476 0.5767 0.72826 0.0
H593 H 0.50365 0.46255 0.74349 0.0
C594 C 0.5251 0.47563 0.77455 0.0
C595 C 0.56136 0.49947 0.78844 0.0
C596 C 0.62268 0.55268 0.718 0.0
C597 C 0.57566 0.51176 0.74716 0.0
C598 C 0.6288 0.55693 0.69717 0.0
C599 C 0.59691 0.52609 0.68363 0.0
C600 C 0.58403 0.51759 0.72525 0.0
C601 C 0.55905 0.49142 0.69153 0.0
C602 C 0.53212 0.48154 0.75396 0.0
C603 C 0.60432 0.52973 0.78115 0.0
N604 N 0.55357 0.4882 0.71179 0.0
N605 N 0.61034 0.53508 0.76094 0.0
H606 H 0.48453 0.00498 0.53654 0.0
H607 H 0.64178 0.03971 0.63012 0.0
H608 H 0.62617 0.05539 0.53065 0.0
H609 H 0.51269 0.01781 0.6364 0.0
H610 H 0.6343 0.03926 0.59337 0.0
H611 H 0.49187 0.00319 0.57299 0.0
C612 C 0.51717 0.01558 0.54295 0.0
C613 C 0.55482 0.03036 0.53063 0.0
C614 C 0.60768 0.03461 0.60282 0.0
C615 C 0.56348 0.02831 0.57228 0.0
C616 C 0.6118 0.03465 0.62375 0.0
C617 C 0.57787 0.02893 0.63631 0.0
C618 C 0.5691 0.02836 0.5944 0.0
C619 C 0.53991 0.02283 0.62729 0.0
C620 C 0.52137 0.01462 0.56375 0.0
C621 C 0.5963 0.04365 0.53966 0.0
N622 N 0.53649 0.02259 0.6069 0.0
N623 N 0.59954 0.04228 0.55998 0.0
H624 H 0.66627 0.5545 0.90752 0.0
H625 H 0.49706 0.39171 0.98569 0.0
H626 H 0.52019 0.47414 0.89883 0.0
H627 H 0.64115 0.48109 0.99721 0.0
H628 H 0.50616 0.41538 0.95169 0.0
H629 H 0.65869 0.52318 0.93878 0.0
C630 C 0.63258 0.53029 0.91225 0.0
C631 C 0.59377 0.51689 0.90068 0.0
C632 C 0.53587 0.42952 0.96158 0.0
C633 C 0.58478 0.48071 0.93629 0.0
C634 C 0.53077 0.41575 0.98089 0.0
C635 C 0.56837 0.43469 0.99429 0.0
C636 C 0.57889 0.46239 0.95568 0.0
C637 C 0.6112 0.466 0.9874 0.0
C638 C 0.62826 0.5123 0.93004 0.0
C639 C 0.55094 0.4853 0.90738 0.0
N640 N 0.61523 0.47907 0.96864 0.0
N641 N 0.54756 0.46826 0.92478 0.0
H642 H 0.09174 0.5706 0.20506 0.0
H643 H 0.05324 0.45873 0.30584 0.0
H644 H 0.06433 0.45895 0.20554 0.0
H645 H 0.08311 0.57148 0.30581 0.0
H646 H 0.05459 0.45737 0.269 0.0
H647 H 0.08657 0.5708 0.24192 0.0
C648 C 0.08447 0.54608 0.21295 0.0
C649 C 0.07841 0.51469 0.20232 0.0
C650 C 0.06079 0.4824 0.27704 0.0
C651 C 0.07266 0.51474 0.24438 0.0
C652 C 0.05975 0.48309 0.29808 0.0
C653 C 0.06814 0.5153 0.30896 0.0
C654 C 0.07026 0.51414 0.26673 0.0
C655 C 0.07707 0.54629 0.29807 0.0
C656 C 0.08161 0.54622 0.23397 0.0
C657 C 0.06933 0.48375 0.21322 0.0
N658 N 0.07792 0.54495 0.27757 0.0
N659 N 0.06676 0.48456 0.23365 0.0
loop_
_geom_bond_atom_site_label_1
_geom_bond_atom_site_label_2
_geom_bond_distance
_geom_bond_site_symmetry_2
_ccdc_geom_bond_type
Ho0 C3 2.811 . S
Ho0 O20 2.322 . S
Ho0 O22 2.378 . S
Ho0 O23 2.524 . S
Ho0 O24 2.381 . S
Ho0 O25 2.669 . S
Ho0 O27 2.346 1_455 S
Ho0 O31 2.305 . S
Ho1 C12 2.811 . S
Ho1 O21 2.346 1_655 S
Ho1 O25 2.305 1_655 S
Ho1 O26 2.322 . S
Ho1 O28 2.378 . S
Ho1 O29 2.524 . S
Ho1 O30 2.375 1_655 S
Ho1 O31 2.669 1_655 S
C2 O20 1.259 . S
C2 O21 1.268 . S
C3 Ho0 2.811 . S
C3 C4 1.488 . S
C3 O22 1.215 . S
C3 O23 1.289 . S
C4 C3 1.488 . S
C4 C5 1.348 . S
C4 C9 1.413 . S
C5 C4 1.348 . S
C5 C6 1.442 . S
C5 H32 0.930 . S
C6 C5 1.442 . S
C6 C7 1.381 . S
C6 H33 0.931 . S
C7 C6 1.381 . S
C7 C8 1.321 . S
C8 C7 1.321 . S
C8 C9 1.403 . S
C8 H34 0.934 . S
C9 C4 1.413 . S
C9 C8 1.403 . S
C9 H35 0.930 . S
C10 O24 1.275 . S
C10 O25 1.256 . S
C11 O26 1.259 . S
C11 O27 1.268 . S
C12 Ho1 2.811 . S
C12 C13 1.488 . S
C12 O28 1.215 . S
C12 O29 1.289 . S
C13 C12 1.488 . S
C13 C14 1.348 . S
C13 C18 1.413 . S
C14 C13 1.348 . S
C14 C15 1.442 . S
C14 H36 0.930 . S
C15 C14 1.442 . S
C15 C16 1.381 . S
C15 H37 0.931 . S
C16 C15 1.381 . S
C16 C17 1.321 . S
C17 C16 1.321 . S
C17 C18 1.403 . S
C17 H38 0.934 . S
C18 C13 1.413 . S
C18 C17 1.403 . S
C18 H39 0.930 . S
C19 O30 1.307 . S
C19 O31 1.256 . S
O20 Ho0 2.322 . S
O20 C2 1.259 . S
O21 Ho1 2.346 1_455 S
O21 C2 1.268 . S
O22 Ho0 2.378 . S
O22 C3 1.215 . S
O23 Ho0 2.524 . S
O23 C3 1.289 . S
O24 Ho0 2.381 . S
O24 C10 1.275 . S
O25 Ho0 2.669 . S
O25 Ho1 2.305 1_455 S
O25 C10 1.256 . S
O26 Ho1 2.322 . S
O26 C11 1.259 . S
O27 Ho0 2.346 1_655 S
O27 C11 1.268 . S
O28 Ho1 2.378 . S
O28 C12 1.215 . S
O29 Ho1 2.524 . S
O29 C12 1.289 . S
O30 Ho1 2.375 1_455 S
O30 C19 1.307 . S
O31 Ho0 2.305 . S
O31 Ho1 2.669 1_455 S
O31 C19 1.256 . S
H32 C5 0.930 . S
H33 C6 0.931 . S
H34 C8 0.934 . S
H35 C9 0.930 . S
H36 C14 0.930 . S
H37 C15 0.931 . S
H38 C17 0.934 . S
H39 C18 0.930 . S
Ho40 C43 2.811 . S
Ho40 O60 2.322 . S
Ho40 O62 2.378 . S
Ho40 O63 2.524 . S
Ho40 O64 2.381 . S
Ho40 O65 2.669 1_565 S
Ho40 O67 2.346 1_565 S
Ho40 O71 2.303 1_565 S
Ho41 C52 2.811 . S
Ho41 O61 2.346 1_545 S
Ho41 O65 2.305 . S
Ho41 O66 2.322 . S
Ho41 O68 2.378 . S
Ho41 O69 2.524 . S
Ho41 O70 2.381 . S
Ho41 O71 2.671 . S
C42 O60 1.259 . S
C42 O61 1.268 . S
C43 Ho40 2.811 . S
C43 C44 1.488 . S
C43 O62 1.215 . S
C43 O63 1.289 . S
C44 C43 1.488 . S
C44 C45 1.348 . S
C44 C49 1.413 . S
C45 C44 1.348 . S
C45 C46 1.442 . S
C45 H72 0.930 . S
C46 C45 1.442 . S
C46 C47 1.381 . S
C46 H73 0.931 . S
C47 C46 1.381 . S
C47 C48 1.321 . S
C48 C47 1.321 . S
C48 C49 1.403 . S
C48 H74 0.934 . S
C49 C44 1.413 . S
C49 C48 1.403 . S
C49 H75 0.930 . S
C50 O64 1.275 1_545 S
C50 O65 1.256 . S
C51 O66 1.259 . S
C51 O67 1.268 . S
C52 Ho41 2.811 . S
C52 C53 1.488 . S
C52 O68 1.215 . S
C52 O69 1.289 . S
C53 C52 1.488 . S
C53 C54 1.348 . S
C53 C58 1.413 . S
C54 C53 1.348 . S
C54 C55 1.442 . S
C54 H76 0.930 . S
C55 C54 1.442 . S
C55 C56 1.381 . S
C55 H77 0.931 . S
C56 C55 1.381 . S
C56 C57 1.321 . S
C57 C56 1.321 . S
C57 C58 1.403 . S
C57 H78 0.934 . S
C58 C53 1.413 . S
C58 C57 1.403 . S
C58 H79 0.930 . S
C59 O70 1.275 . S
C59 O71 1.257 . S
O60 Ho40 2.322 . S
O60 C42 1.259 . S
O61 Ho41 2.346 1_565 S
O61 C42 1.268 . S
O62 Ho40 2.378 . S
O62 C43 1.215 . S
O63 Ho40 2.524 . S
O63 C43 1.289 . S
O64 Ho40 2.381 . S
O64 C50 1.275 1_565 S
O65 Ho40 2.669 1_545 S
O65 Ho41 2.305 . S
O65 C50 1.256 . S
O66 Ho41 2.322 . S
O66 C51 1.259 . S
O67 Ho40 2.346 1_545 S
O67 C51 1.268 . S
O68 Ho41 2.378 . S
O68 C52 1.215 . S
O69 Ho41 2.524 . S
O69 C52 1.289 . S
O70 Ho41 2.381 . S
O70 C59 1.275 . S
O71 Ho40 2.303 1_545 S
O71 Ho41 2.671 . S
O71 C59 1.257 . S
H72 C45 0.930 . S
H73 C46 0.931 . S
H74 C48 0.934 . S
H75 C49 0.930 . S
H76 C54 0.930 . S
H77 C55 0.931 . S
H78 C57 0.934 . S
H79 C58 0.930 . S
Ho80 C83 2.811 . S
Ho80 O100 2.322 . S
Ho80 O102 2.378 . S
Ho80 O103 2.524 . S
Ho80 O104 2.381 . S
Ho80 O105 2.669 . S
Ho80 O107 2.346 . S
Ho80 O111 2.305 . S
Ho81 C92 2.811 . S
Ho81 O101 2.346 . S
Ho81 O105 2.305 . S
Ho81 O106 2.322 . S
Ho81 O108 2.378 . S
Ho81 O109 2.524 . S
Ho81 O110 2.381 . S
Ho81 O111 2.669 . S
C82 O100 1.259 . S
C82 O101 1.268 . S
C83 Ho80 2.811 . S
C83 C84 1.488 . S
C83 O102 1.215 . S
C83 O103 1.289 . S
C84 C83 1.488 . S
C84 C85 1.348 . S
C84 C89 1.413 . S
C85 C84 1.348 . S
C85 C86 1.442 . S
C85 H112 0.930 . S
C86 C85 1.442 . S
C86 C87 1.381 . S
C86 H113 0.931 . S
C87 C86 1.381 . S
C87 C88 1.321 . S
C88 C87 1.321 . S
C88 C89 1.403 . S
C88 H114 0.934 . S
C89 C84 1.413 . S
C89 C88 1.403 . S
C89 H115 0.930 . S
C90 O104 1.275 . S
C90 O105 1.256 . S
C91 O106 1.259 . S
C91 O107 1.268 . S
C92 Ho81 2.811 . S
C92 C93 1.488 . S
C92 O108 1.215 . S
C92 O109 1.289 . S
C93 C92 1.488 . S
C93 C94 1.348 . S
C93 C98 1.413 . S
C94 C93 1.348 . S
C94 C95 1.442 . S
C94 H116 0.930 . S
C95 C94 1.442 . S
C95 C96 1.381 . S
C95 H117 0.931 . S
C96 C95 1.381 . S
C96 C97 1.321 . S
C97 C96 1.321 . S
C97 C98 1.403 . S
C97 H118 0.934 . S
C98 C93 1.413 . S
C98 C97 1.403 . S
C98 H119 0.930 . S
C99 O110 1.275 . S
C99 O111 1.256 . S
O100 Ho80 2.322 . S
O100 C82 1.259 . S
O101 Ho81 2.346 . S
O101 C82 1.268 . S
O102 Ho80 2.378 . S
O102 C83 1.215 . S
O103 Ho80 2.524 . S
O103 C83 1.289 . S
O104 Ho80 2.381 . S
O104 C90 1.275 . S
O105 Ho80 2.669 . S
O105 Ho81 2.305 . S
O105 C90 1.256 . S
O106 Ho81 2.322 . S
O106 C91 1.259 . S
O107 Ho80 2.346 . S
O107 C91 1.268 . S
O108 Ho81 2.378 . S
O108 C92 1.215 . S
O109 Ho81 2.524 . S
O109 C92 1.289 . S
O110 Ho81 2.381 . S
O110 C99 1.275 . S
O111 Ho80 2.305 . S
O111 Ho81 2.669 . S
O111 C99 1.256 . S
H112 C85 0.930 . S
H113 C86 0.931 . S
H114 C88 0.934 . S
H115 C89 0.930 . S
H116 C94 0.930 . S
H117 C95 0.931 . S
H118 C97 0.934 . S
H119 C98 0.930 . S
C120 C121 1.384 . S
C120 H133 0.947 . S
C120 C155 1.382 . S
C121 C120 1.384 . S
C121 C122 1.378 . S
C122 C121 1.378 . S
C122 C123 1.378 . S
C122 H134 0.952 . S
C123 C122 1.378 . S
C123 H135 0.950 . S
C123 C154 1.383 . S
H124 C143 0.947 . S
H125 C144 0.946 . S
H126 C146 0.953 . S
H127 C147 0.945 . S
H128 C149 0.952 . S
H129 C150 0.949 . S
H130 C152 0.950 . S
H131 C153 0.948 . S
H132 C155 0.951 . S
H133 C120 0.947 . S
H134 C122 0.952 . S
H135 C123 0.950 . S
N136 C139 1.382 . S
N136 C141 1.363 1_545 S
N137 C139 1.371 . S
N137 C140 1.372 . S
N138 C140 1.361 1_565 S
N138 C141 1.377 . S
C139 N136 1.382 . S
C139 N137 1.371 . S
C139 C142 1.480 . S
C140 N137 1.372 . S
C140 N138 1.361 1_545 S
C140 C148 1.457 . S
C141 N136 1.363 1_565 S
C141 N138 1.377 . S
C141 C154 1.479 . S
C142 C139 1.480 . S
C142 C143 1.383 . S
C142 C147 1.385 . S
C143 H124 0.947 . S
C143 C142 1.383 . S
C143 C144 1.388 . S
C144 H125 0.946 . S
C144 C143 1.388 . S
C144 C145 1.384 . S
C145 C144 1.384 . S
C145 C146 1.377 . S
C146 H126 0.953 . S
C146 C145 1.377 . S
C146 C147 1.369 . S
C147 H127 0.945 . S
C147 C142 1.385 . S
C147 C146 1.369 . S
C148 C140 1.457 . S
C148 C149 1.372 . S
C148 C153 1.364 1_545 S
C149 H128 0.952 . S
C149 C148 1.372 . S
C149 C150 1.389 . S
C150 H129 0.949 . S
C150 C149 1.389 . S
C150 C151 1.387 . S
C151 C150 1.387 . S
C151 C152 1.372 1_545 S
C152 H130 0.950 . S
C152 C151 1.372 1_565 S
C152 C153 1.379 . S
C153 H131 0.948 . S
C153 C148 1.364 1_565 S
C153 C152 1.379 . S
C154 C123 1.383 . S
C154 C141 1.479 . S
C154 C155 1.398 . S
C155 C120 1.382 . S
C155 H132 0.951 . S
C155 C154 1.398 . S
C156 C157 1.384 . S
C156 H169 0.947 . S
C156 C191 1.382 . S
C157 C156 1.384 . S
C157 C158 1.378 . S
C158 C157 1.378 . S
C158 C159 1.378 . S
C158 H170 0.952 . S
C159 C158 1.378 . S
C159 H171 0.950 . S
C159 C190 1.383 . S
H160 C179 0.947 . S
H161 C180 0.946 . S
H162 C182 0.953 . S
H163 C183 0.945 . S
H164 C185 0.952 . S
H165 C186 0.949 . S
H166 C188 0.950 . S
H167 C189 0.948 . S
H168 C191 0.951 . S
H169 C156 0.947 . S
H170 C158 0.952 . S
H171 C159 0.950 . S
N172 C175 1.382 . S
N172 C177 1.363 . S
N173 C175 1.371 . S
N173 C176 1.372 . S
N174 C176 1.361 . S
N174 C177 1.377 . S
C175 N172 1.382 . S
C175 N173 1.371 . S
C175 C178 1.480 . S
C176 N173 1.372 . S
C176 N174 1.361 . S
C176 C184 1.457 . S
C177 N172 1.363 . S
C177 N174 1.377 . S
C177 C190 1.479 . S
C178 C175 1.480 . S
C178 C179 1.383 . S
C178 C183 1.385 . S
C179 H160 0.947 . S
C179 C178 1.383 . S
C179 C180 1.388 . S
C180 H161 0.946 . S
C180 C179 1.388 . S
C180 C181 1.384 . S
C181 C180 1.384 . S
C181 C182 1.377 . S
C182 H162 0.953 . S
C182 C181 1.377 . S
C182 C183 1.369 . S
C183 H163 0.945 . S
C183 C178 1.385 . S
C183 C182 1.369 . S
C184 C176 1.457 . S
C184 C185 1.372 . S
C184 C189 1.364 . S
C185 H164 0.952 . S
C185 C184 1.372 . S
C185 C186 1.389 . S
C186 H165 0.949 . S
C186 C185 1.389 . S
C186 C187 1.387 . S
C187 C186 1.387 . S
C187 C188 1.372 . S
C188 H166 0.950 . S
C188 C187 1.372 . S
C188 C189 1.379 . S
C189 H167 0.948 . S
C189 C184 1.364 . S
C189 C188 1.379 . S
C190 C159 1.383 . S
C190 C177 1.479 . S
C190 C191 1.398 . S
C191 C156 1.382 . S
C191 H168 0.951 . S
C191 C190 1.398 . S
C192 C193 1.384 . S
C192 H205 0.947 . S
C192 C227 1.382 . S
C193 C192 1.384 . S
C193 C194 1.378 . S
C194 C193 1.378 . S
C194 C195 1.378 . S
C194 H206 0.952 . S
C195 C194 1.378 . S
C195 H207 0.950 1_655 S
C195 C226 1.383 . S
H196 C215 0.947 . S
H197 C216 0.946 . S
H198 C218 0.953 . S
H199 C219 0.945 . S
H200 C221 0.952 . S
H201 C222 0.949 . S
H202 C224 0.950 1_655 S
H203 C225 0.948 1_655 S
H204 C227 0.951 . S
H205 C192 0.947 . S
H206 C194 0.952 . S
H207 C195 0.950 1_455 S
N208 C211 1.382 . S
N208 C213 1.363 . S
N209 C211 1.371 . S
N209 C212 1.372 . S
N210 C212 1.361 . S
N210 C213 1.377 . S
C211 N208 1.382 . S
C211 N209 1.371 . S
C211 C214 1.480 . S
C212 N209 1.372 . S
C212 N210 1.361 . S
C212 C220 1.457 . S
C213 N208 1.363 . S
C213 N210 1.377 . S
C213 C226 1.479 1_455 S
C214 C211 1.480 . S
C214 C215 1.383 . S
C214 C219 1.385 . S
C215 H196 0.947 . S
C215 C214 1.383 . S
C215 C216 1.388 . S
C216 H197 0.946 . S
C216 C215 1.388 . S
C216 C217 1.384 . S
C217 C216 1.384 . S
C217 C218 1.377 . S
C218 H198 0.953 . S
C218 C217 1.377 . S
C218 C219 1.369 . S
C219 H199 0.945 . S
C219 C214 1.385 . S
C219 C218 1.369 . S
C220 C212 1.457 . S
C220 C221 1.372 . S
C220 C225 1.364 . S
C221 H200 0.952 . S
C221 C220 1.372 . S
C221 C222 1.389 . S
C222 H201 0.949 . S
C222 C221 1.389 . S
C222 C223 1.387 . S
C223 C222 1.387 . S
C223 C224 1.372 . S
C224 H202 0.950 1_455 S
C224 C223 1.372 . S
C224 C225 1.379 . S
C225 H203 0.948 1_455 S
C225 C220 1.364 . S
C225 C224 1.379 . S
C226 C195 1.383 . S
C226 C213 1.479 1_655 S
C226 C227 1.398 . S
C227 C192 1.382 . S
C227 H204 0.951 . S
C227 C226 1.398 . S
C228 C229 1.384 . S
C228 H241 0.947 . S
C228 C263 1.382 . S
C229 C228 1.384 . S
C229 C230 1.378 . S
C230 C229 1.378 . S
C230 C231 1.378 . S
C230 H242 0.952 . S
C231 C230 1.378 . S
C231 H243 0.950 . S
C231 C262 1.383 . S
H232 C251 0.947 . S
H233 C252 0.946 . S
H234 C254 0.953 . S
H235 C255 0.945 . S
H236 C257 0.952 . S
H237 C258 0.949 . S
H238 C260 0.950 . S
H239 C261 0.948 . S
H240 C263 0.951 . S
H241 C228 0.947 . S
H242 C230 0.952 . S
H243 C231 0.950 . S
N244 C247 1.382 1_455 S
N244 C249 1.363 . S
N245 C247 1.371 . S
N245 C248 1.372 1_655 S
N246 C248 1.361 . S
N246 C249 1.377 . S
C247 N244 1.382 1_655 S
C247 N245 1.371 . S
C247 C250 1.480 . S
C248 N245 1.372 1_455 S
C248 N246 1.361 . S
C248 C256 1.457 . S
C249 N244 1.363 . S
C249 N246 1.377 . S
C249 C262 1.479 . S
C250 C247 1.480 . S
C250 C251 1.383 . S
C250 C255 1.385 . S
C251 H232 0.947 . S
C251 C250 1.383 . S
C251 C252 1.388 . S
C252 H233 0.946 . S
C252 C251 1.388 . S
C252 C253 1.384 . S
C253 C252 1.384 . S
C253 C254 1.377 . S
C254 H234 0.953 . S
C254 C253 1.377 . S
C254 C255 1.369 . S
C255 H235 0.945 . S
C255 C250 1.385 . S
C255 C254 1.369 . S
C256 C248 1.457 . S
C256 C257 1.372 1_455 S
C256 C261 1.364 . S
C257 H236 0.952 . S
C257 C256 1.372 1_655 S
C257 C258 1.389 . S
C258 H237 0.949 . S
C258 C257 1.389 . S
C258 C259 1.387 1_655 S
C259 C258 1.387 1_455 S
C259 C260 1.372 . S
C260 H238 0.950 . S
C260 C259 1.372 . S
C260 C261 1.379 . S
C261 H239 0.948 . S
C261 C256 1.364 . S
C261 C260 1.379 . S
C262 C231 1.383 . S
C262 C249 1.479 . S
C262 C263 1.398 . S
C263 C228 1.382 . S
C263 H240 0.951 . S
C263 C262 1.398 . S
C264 C265 1.384 . S
C264 H277 0.947 . S
C264 C299 1.382 . S
C265 C264 1.384 . S
C265 C266 1.378 . S
C266 C265 1.378 . S
C266 C267 1.378 . S
C266 H278 0.952 . S
C267 C266 1.378 . S
C267 H279 0.950 . S
C267 C298 1.383 . S
H268 C287 0.947 . S
H269 C288 0.946 . S
H270 C290 0.953 . S
H271 C291 0.945 . S
H272 C293 0.952 . S
H273 C294 0.949 . S
H274 C296 0.950 . S
H275 C297 0.948 . S
H276 C299 0.951 . S
H277 C264 0.947 . S
H278 C266 0.952 . S
H279 C267 0.950 . S
N280 C283 1.382 1_545 S
N280 C285 1.363 . S
N281 C283 1.371 . S
N281 C284 1.372 1_565 S
N282 C284 1.361 . S
N282 C285 1.377 . S
C283 N280 1.382 1_565 S
C283 N281 1.371 . S
C283 C286 1.480 . S
C284 N281 1.372 1_545 S
C284 N282 1.361 . S
C284 C292 1.457 . S
C285 N280 1.363 . S
C285 N282 1.377 . S
C285 C298 1.479 . S
C286 C283 1.480 . S
C286 C287 1.383 . S
C286 C291 1.385 . S
C287 H268 0.947 . S
C287 C286 1.383 . S
C287 C288 1.388 . S
C288 H269 0.946 . S
C288 C287 1.388 . S
C288 C289 1.384 . S
C289 C288 1.384 . S
C289 C290 1.377 . S
C290 H270 0.953 . S
C290 C289 1.377 . S
C290 C291 1.369 . S
C291 H271 0.945 . S
C291 C286 1.385 . S
C291 C290 1.369 . S
C292 C284 1.457 . S
C292 C293 1.372 1_545 S
C292 C297 1.364 . S
C293 H272 0.952 . S
C293 C292 1.372 1_565 S
C293 C294 1.389 . S
C294 H273 0.949 . S
C294 C293 1.389 . S
C294 C295 1.387 . S
C295 C294 1.387 . S
C295 C296 1.372 1_565 S
C296 H274 0.950 . S
C296 C295 1.372 1_545 S
C296 C297 1.379 . S
C297 H275 0.948 . S
C297 C292 1.364 . S
C297 C296 1.379 . S
C298 C267 1.383 . S
C298 C285 1.479 . S
C298 C299 1.398 . S
C299 C264 1.382 . S
C299 H276 0.951 . S
C299 C298 1.398 . S
C300 C301 1.384 . S
C300 H313 0.947 . S
C300 C335 1.382 . S
C301 C300 1.384 . S
C301 C302 1.378 . S
C302 C301 1.378 . S
C302 C303 1.378 . S
C302 H314 0.952 . S
C303 C302 1.378 . S
C303 H315 0.950 . S
C303 C334 1.383 . S
H304 C323 0.947 . S
H305 C324 0.946 . S
H306 C326 0.953 . S
H307 C327 0.945 . S
H308 C329 0.952 . S
H309 C330 0.949 . S
H310 C332 0.950 . S
H311 C333 0.948 . S
H312 C335 0.951 . S
H313 C300 0.947 . S
H314 C302 0.952 . S
H315 C303 0.950 . S
N316 C319 1.382 . S
N316 C321 1.363 . S
N317 C319 1.371 . S
N317 C320 1.372 . S
N318 C320 1.361 . S
N318 C321 1.377 . S
C319 N316 1.382 . S
C319 N317 1.371 . S
C319 C322 1.480 . S
C320 N317 1.372 . S
C320 N318 1.361 . S
C320 C328 1.457 . S
C321 N316 1.363 . S
C321 N318 1.377 . S
C321 C334 1.479 . S
C322 C319 1.480 . S
C322 C323 1.383 . S
C322 C327 1.385 . S
C323 H304 0.947 . S
C323 C322 1.383 . S
C323 C324 1.388 . S
C324 H305 0.946 . S
C324 C323 1.388 . S
C324 C325 1.384 . S
C325 C324 1.384 . S
C325 C326 1.377 . S
C326 H306 0.953 . S
C326 C325 1.377 . S
C326 C327 1.369 . S
C327 H307 0.945 . S
C327 C322 1.385 . S
C327 C326 1.369 . S
C328 C320 1.457 . S
C328 C329 1.372 . S
C328 C333 1.364 . S
C329 H308 0.952 . S
C329 C328 1.372 . S
C329 C330 1.389 . S
C330 H309 0.949 . S
C330 C329 1.389 . S
C330 C331 1.387 . S
C331 C330 1.387 . S
C331 C332 1.372 . S
C332 H310 0.950 . S
C332 C331 1.372 . S
C332 C333 1.379 . S
C333 H311 0.948 . S
C333 C328 1.364 . S
C333 C332 1.379 . S
C334 C303 1.383 . S
C334 C321 1.479 . S
C334 C335 1.398 . S
C335 C300 1.382 . S
C335 H312 0.951 . S
C335 C334 1.398 . S
H336 C342 0.930 . S
H337 C346 0.930 . S
H338 C351 0.929 . S
H339 C349 0.929 . S
H340 C344 0.929 . S
H341 C350 0.929 . S
C342 H336 0.930 . S
C342 C343 1.367 . S
C342 C350 1.378 . S
C343 C342 1.367 . S
C343 C351 1.433 . S
C344 H340 0.929 . S
C344 C346 1.378 . S
C344 C348 1.350 . S
C345 C348 1.463 . S
C345 C350 1.350 . S
C345 N353 1.427 . S
C346 H337 0.930 . S
C346 C344 1.378 . S
C346 C347 1.367 . S
C347 C346 1.367 . S
C347 C349 1.433 . S
C348 C344 1.350 . S
C348 C345 1.463 . S
C348 N352 1.427 . S
C349 H339 0.929 . S
C349 C347 1.433 . S
C349 N352 1.384 . S
C350 H341 0.929 . S
C350 C342 1.378 . S
C350 C345 1.350 . S
C351 H338 0.929 . S
C351 C343 1.433 . S
C351 N353 1.384 . S
N352 C348 1.427 . S
N352 C349 1.384 . S
N353 C345 1.427 . S
N353 C351 1.384 . S
H354 C360 0.930 . S
H355 C364 0.930 . S
H356 C369 0.929 . S
H357 C367 0.929 . S
H358 C362 0.929 . S
H359 C368 0.929 . S
C360 H354 0.930 . S
C360 C361 1.367 . S
C360 C368 1.378 . S
C361 C360 1.367 . S
C361 C369 1.433 . S
C362 H358 0.929 . S
C362 C364 1.378 . S
C362 C366 1.350 . S
C363 C366 1.463 . S
C363 C368 1.350 . S
C363 N371 1.427 . S
C364 H355 0.930 . S
C364 C362 1.378 . S
C364 C365 1.367 . S
C365 C364 1.367 . S
C365 C367 1.433 . S
C366 C362 1.350 . S
C366 C363 1.463 . S
C366 N370 1.427 . S
C367 H357 0.929 . S
C367 C365 1.433 . S
C367 N370 1.384 . S
C368 H359 0.929 . S
C368 C360 1.378 . S
C368 C363 1.350 . S
C369 H356 0.929 . S
C369 C361 1.433 . S
C369 N371 1.384 . S
N370 C366 1.427 . S
N370 C367 1.384 . S
N371 C363 1.427 . S
N371 C369 1.384 . S
H372 C378 0.930 . S
H373 C382 0.930 . S
H374 C387 0.929 . S
H375 C385 0.929 . S
H376 C380 0.929 . S
H377 C386 0.929 . S
C378 H372 0.930 . S
C378 C379 1.367 . S
C378 C386 1.378 . S
C379 C378 1.367 . S
C379 C387 1.433 . S
C380 H376 0.929 . S
C380 C382 1.378 . S
C380 C384 1.350 . S
C381 C384 1.463 . S
C381 C386 1.350 . S
C381 N389 1.427 . S
C382 H373 0.930 . S
C382 C380 1.378 . S
C382 C383 1.367 . S
C383 C382 1.367 . S
C383 C385 1.433 . S
C384 C380 1.350 . S
C384 C381 1.463 . S
C384 N388 1.427 . S
C385 H375 0.929 . S
C385 C383 1.433 . S
C385 N388 1.384 . S
C386 H377 0.929 . S
C386 C378 1.378 . S
C386 C381 1.350 . S
C387 H374 0.929 . S
C387 C379 1.433 . S
C387 N389 1.384 . S
N388 C384 1.427 . S
N388 C385 1.384 . S
N389 C381 1.427 . S
N389 C387 1.384 . S
H390 C396 0.930 . S
H391 C400 0.930 . S
H392 C405 0.929 . S
H393 C403 0.929 . S
H394 C398 0.929 . S
H395 C404 0.929 . S
C396 H390 0.930 . S
C396 C397 1.367 . S
C396 C404 1.378 . S
C397 C396 1.367 . S
C397 C405 1.433 . S
C398 H394 0.929 . S
C398 C400 1.378 . S
C398 C402 1.350 . S
C399 C402 1.463 . S
C399 C404 1.350 . S
C399 N407 1.427 . S
C400 H391 0.930 . S
C400 C398 1.378 . S
C400 C401 1.367 . S
C401 C400 1.367 . S
C401 C403 1.433 . S
C402 C398 1.350 . S
C402 C399 1.463 . S
C402 N406 1.427 . S
C403 H393 0.929 . S
C403 C401 1.433 . S
C403 N406 1.384 . S
C404 H395 0.929 . S
C404 C396 1.378 . S
C404 C399 1.350 . S
C405 H392 0.929 . S
C405 C397 1.433 . S
C405 N407 1.384 . S
N406 C402 1.427 . S
N406 C403 1.384 . S
N407 C399 1.427 . S
N407 C405 1.384 . S
H408 C414 0.930 . S
H409 C418 0.930 . S
H410 C423 0.929 . S
H411 C421 0.929 . S
H412 C416 0.929 . S
H413 C422 0.929 . S
C414 H408 0.930 . S
C414 C415 1.367 . S
C414 C422 1.378 . S
C415 C414 1.367 . S
C415 C423 1.433 . S
C416 H412 0.929 . S
C416 C418 1.378 . S
C416 C420 1.350 . S
C417 C420 1.463 . S
C417 C422 1.350 . S
C417 N425 1.427 . S
C418 H409 0.930 . S
C418 C416 1.378 . S
C418 C419 1.367 . S
C419 C418 1.367 . S
C419 C421 1.433 . S
C420 C416 1.350 . S
C420 C417 1.463 . S
C420 N424 1.427 . S
C421 H411 0.929 . S
C421 C419 1.433 . S
C421 N424 1.384 . S
C422 H413 0.929 . S
C422 C414 1.378 . S
C422 C417 1.350 . S
C423 H410 0.929 . S
C423 C415 1.433 . S
C423 N425 1.384 . S
N424 C420 1.427 . S
N424 C421 1.384 . S
N425 C417 1.427 . S
N425 C423 1.384 . S
H426 C432 0.930 . S
H427 C436 0.930 . S
H428 C441 0.929 . S
H429 C439 0.929 . S
H430 C434 0.929 . S
H431 C440 0.929 . S
C432 H426 0.930 . S
C432 C433 1.367 . S
C432 C440 1.378 . S
C433 C432 1.367 . S
C433 C441 1.433 . S
C434 H430 0.929 . S
C434 C436 1.378 . S
C434 C438 1.350 . S
C435 C438 1.463 . S
C435 C440 1.350 . S
C435 N443 1.427 . S
C436 H427 0.930 . S
C436 C434 1.378 . S
C436 C437 1.367 . S
C437 C436 1.367 . S
C437 C439 1.433 . S
C438 C434 1.350 . S
C438 C435 1.463 . S
C438 N442 1.427 . S
C439 H429 0.929 . S
C439 C437 1.433 . S
C439 N442 1.384 . S
C440 H431 0.929 . S
C440 C432 1.378 . S
C440 C435 1.350 . S
C441 H428 0.929 . S
C441 C433 1.433 . S
C441 N443 1.384 . S
N442 C438 1.427 . S
N442 C439 1.384 . S
N443 C435 1.427 . S
N443 C441 1.384 . S
H444 C450 0.930 . S
H445 C454 0.930 . S
H446 C459 0.929 . S
H447 C457 0.929 . S
H448 C452 0.929 . S
H449 C458 0.929 . S
C450 H444 0.930 . S
C450 C451 1.367 . S
C450 C458 1.378 . S
C451 C450 1.367 . S
C451 C459 1.433 . S
C452 H448 0.929 . S
C452 C454 1.378 . S
C452 C456 1.350 . S
C453 C456 1.463 . S
C453 C458 1.350 . S
C453 N461 1.427 . S
C454 H445 0.930 . S
C454 C452 1.378 . S
C454 C455 1.367 . S
C455 C454 1.367 . S
C455 C457 1.433 . S
C456 C452 1.350 . S
C456 C453 1.463 . S
C456 N460 1.427 . S
C457 H447 0.929 . S
C457 C455 1.433 . S
C457 N460 1.384 . S
C458 H449 0.929 . S
C458 C450 1.378 . S
C458 C453 1.350 . S
C459 H446 0.929 . S
C459 C451 1.433 . S
C459 N461 1.384 . S
N460 C456 1.427 . S
N460 C457 1.384 . S
N461 C453 1.427 . S
N461 C459 1.384 . S
H462 C468 0.930 . S
H463 C472 0.930 . S
H464 C477 0.929 . S
H465 C475 0.929 . S
H466 C470 0.929 . S
H467 C476 0.929 . S
C468 H462 0.930 . S
C468 C469 1.367 . S
C468 C476 1.378 . S
C469 C468 1.367 . S
C469 C477 1.433 . S
C470 H466 0.929 . S
C470 C472 1.378 . S
C470 C474 1.350 . S
C471 C474 1.463 . S
C471 C476 1.350 . S
C471 N479 1.427 . S
C472 H463 0.930 . S
C472 C470 1.378 . S
C472 C473 1.367 . S
C473 C472 1.367 . S
C473 C475 1.433 . S
C474 C470 1.350 . S
C474 C471 1.463 . S
C474 N478 1.427 . S
C475 H465 0.929 . S
C475 C473 1.433 . S
C475 N478 1.384 . S
C476 H467 0.929 . S
C476 C468 1.378 . S
C476 C471 1.350 . S
C477 H464 0.929 . S
C477 C469 1.433 . S
C477 N479 1.384 . S
N478 C474 1.427 . S
N478 C475 1.384 . S
N479 C471 1.427 . S
N479 C477 1.384 . S
H480 C486 0.930 . S
H481 C490 0.930 . S
H482 C495 0.929 . S
H483 C493 0.929 . S
H484 C488 0.929 . S
H485 C494 0.929 . S
C486 H480 0.930 . S
C486 C487 1.367 . S
C486 C494 1.378 . S
C487 C486 1.367 . S
C487 C495 1.433 . S
C488 H484 0.929 . S
C488 C490 1.378 . S
C488 C492 1.350 . S
C489 C492 1.463 . S
C489 C494 1.350 . S
C489 N497 1.427 . S
C490 H481 0.930 . S
C490 C488 1.378 . S
C490 C491 1.367 . S
C491 C490 1.367 . S
C491 C493 1.433 . S
C492 C488 1.350 . S
C492 C489 1.463 . S
C492 N496 1.427 . S
C493 H483 0.929 . S
C493 C491 1.433 . S
C493 N496 1.384 . S
C494 H485 0.929 . S
C494 C486 1.378 . S
C494 C489 1.350 . S
C495 H482 0.929 . S
C495 C487 1.433 . S
C495 N497 1.384 . S
N496 C492 1.427 . S
N496 C493 1.384 . S
N497 C489 1.427 . S
N497 C495 1.384 . S
H498 C504 0.930 . S
H499 C508 0.930 . S
H500 C513 0.929 . S
H501 C511 0.929 . S
H502 C506 0.929 . S
H503 C512 0.929 . S
C504 H498 0.930 . S
C504 C505 1.367 . S
C504 C512 1.378 . S
C505 C504 1.367 . S
C505 C513 1.433 . S
C506 H502 0.929 . S
C506 C508 1.378 . S
C506 C510 1.350 . S
C507 C510 1.463 . S
C507 C512 1.350 . S
C507 N515 1.427 . S
C508 H499 0.930 . S
C508 C506 1.378 . S
C508 C509 1.367 . S
C509 C508 1.367 . S
C509 C511 1.433 . S
C510 C506 1.350 . S
C510 C507 1.463 . S
C510 N514 1.427 . S
C511 H501 0.929 . S
C511 C509 1.433 . S
C511 N514 1.384 . S
C512 H503 0.929 . S
C512 C504 1.378 . S
C512 C507 1.350 . S
C513 H500 0.929 . S
C513 C505 1.433 . S
C513 N515 1.384 . S
N514 C510 1.427 . S
N514 C511 1.384 . S
N515 C507 1.427 . S
N515 C513 1.384 . S
H516 C522 0.930 . S
H517 C526 0.930 . S
H518 C531 0.929 . S
H519 C529 0.929 . S
H520 C524 0.929 . S
H521 C530 0.929 . S
C522 H516 0.930 . S
C522 C523 1.367 . S
C522 C530 1.378 . S
C523 C522 1.367 . S
C523 C531 1.433 . S
C524 H520 0.929 . S
C524 C526 1.378 . S
C524 C528 1.350 . S
C525 C528 1.463 . S
C525 C530 1.350 . S
C525 N533 1.427 . S
C526 H517 0.930 . S
C526 C524 1.378 . S
C526 C527 1.367 . S
C527 C526 1.367 . S
C527 C529 1.433 . S
C528 C524 1.350 . S
C528 C525 1.463 . S
C528 N532 1.427 . S
C529 H519 0.929 . S
C529 C527 1.433 . S
C529 N532 1.384 . S
C530 H521 0.929 . S
C530 C522 1.378 . S
C530 C525 1.350 . S
C531 H518 0.929 . S
C531 C523 1.433 . S
C531 N533 1.384 . S
N532 C528 1.427 . S
N532 C529 1.384 . S
N533 C525 1.427 . S
N533 C531 1.384 . S
H534 C540 0.930 . S
H535 C544 0.930 . S
H536 C549 0.929 . S
H537 C547 0.929 . S
H538 C542 0.929 . S
H539 C548 0.929 . S
C540 H534 0.930 . S
C540 C541 1.367 . S
C540 C548 1.378 . S
C541 C540 1.367 . S
C541 C549 1.433 . S
C542 H538 0.929 . S
C542 C544 1.378 . S
C542 C546 1.350 . S
C543 C546 1.463 . S
C543 C548 1.350 . S
C543 N551 1.427 . S
C544 H535 0.930 . S
C544 C542 1.378 . S
C544 C545 1.367 . S
C545 C544 1.367 . S
C545 C547 1.433 . S
C546 C542 1.350 . S
C546 C543 1.463 . S
C546 N550 1.427 . S
C547 H537 0.929 . S
C547 C545 1.433 . S
C547 N550 1.384 . S
C548 H539 0.929 . S
C548 C540 1.378 . S
C548 C543 1.350 . S
C549 H536 0.929 . S
C549 C541 1.433 . S
C549 N551 1.384 . S
N550 C546 1.427 . S
N550 C547 1.384 . S
N551 C543 1.427 . S
N551 C549 1.384 . S
H552 C558 0.930 . S
H553 C562 0.930 . S
H554 C567 0.929 . S
H555 C565 0.923 1_656 S
H556 C560 0.929 . S
H557 C566 0.929 . S
C558 H552 0.930 . S
C558 C559 1.367 1_655 S
C558 C566 1.378 . S
C559 C558 1.367 1_455 S
C559 C567 1.433 . S
C560 H556 0.929 . S
C560 C562 1.378 . S
C560 C564 1.350 . S
C561 C564 1.463 . S
C561 C566 1.350 1_455 S
C561 N569 1.427 . S
C562 H553 0.930 . S
C562 C560 1.378 . S
C562 C563 1.377 . S
C563 C562 1.377 . S
C563 C565 1.441 . S
C564 C560 1.350 . S
C564 C561 1.463 . S
C564 N568 1.427 . S
C565 H555 0.923 1_454 S
C565 C563 1.441 . S
C565 N568 1.384 . S
C566 H557 0.929 . S
C566 C558 1.378 . S
C566 C561 1.350 1_655 S
C567 H554 0.929 . S
C567 C559 1.433 . S
C567 N569 1.384 . S
N568 C564 1.427 . S
N568 C565 1.384 . S
N569 C561 1.427 . S
N569 C567 1.384 . S
H570 C576 0.930 . S
H571 C580 0.930 . S
H572 C585 0.929 . S
H573 C583 0.929 . S
H574 C578 0.929 . S
H575 C584 0.929 . S
C576 H570 0.930 . S
C576 C577 1.367 1_565 S
C576 C584 1.378 . S
C577 C576 1.367 1_545 S
C577 C585 1.433 . S
C578 H574 0.929 . S
C578 C580 1.378 . S
C578 C582 1.350 . S
C579 C582 1.463 . S
C579 C584 1.350 1_545 S
C579 N587 1.427 . S
C580 H571 0.930 . S
C580 C578 1.378 . S
C580 C581 1.367 . S
C581 C580 1.367 . S
C581 C583 1.433 1_545 S
C582 C578 1.350 . S
C582 C579 1.463 . S
C582 N586 1.427 1_545 S
C583 H573 0.929 . S
C583 C581 1.433 1_565 S
C583 N586 1.384 . S
C584 H575 0.929 . S
C584 C576 1.378 . S
C584 C579 1.350 1_565 S
C585 H572 0.929 . S
C585 C577 1.433 . S
C585 N587 1.384 . S
N586 C582 1.427 1_565 S
N586 C583 1.384 . S
N587 C579 1.427 . S
N587 C585 1.384 . S
H588 C594 0.930 . S
H589 C598 0.930 . S
H590 C603 0.929 . S
H591 C601 0.929 . S
H592 C596 0.929 . S
H593 C602 0.929 . S
C594 H588 0.930 . S
C594 C595 1.367 . S
C594 C602 1.378 . S
C595 C594 1.367 . S
C595 C603 1.433 . S
C596 H592 0.929 . S
C596 C598 1.378 . S
C596 C600 1.350 . S
C597 C600 1.463 . S
C597 C602 1.350 . S
C597 N605 1.427 . S
C598 H589 0.930 . S
C598 C596 1.378 . S
C598 C599 1.367 . S
C599 C598 1.367 . S
C599 C601 1.433 . S
C600 C596 1.350 . S
C600 C597 1.463 . S
C600 N604 1.427 . S
C601 H591 0.929 . S
C601 C599 1.433 . S
C601 N604 1.384 . S
C602 H593 0.929 . S
C602 C594 1.378 . S
C602 C597 1.350 . S
C603 H590 0.929 . S
C603 C595 1.433 . S
C603 N605 1.384 . S
N604 C600 1.427 . S
N604 C601 1.384 . S
N605 C597 1.427 . S
N605 C603 1.384 . S
H606 C612 0.930 . S
H607 C616 0.930 . S
H608 C621 0.929 . S
H609 C619 0.929 . S
H610 C614 0.929 . S
H611 C620 0.929 . S
C612 H606 0.930 . S
C612 C613 1.367 . S
C612 C620 1.378 . S
C613 C612 1.367 . S
C613 C621 1.433 1_545 S
C614 H610 0.929 . S
C614 C616 1.378 . S
C614 C618 1.350 . S
C615 C618 1.463 1_545 S
C615 C620 1.350 . S
C615 N623 1.427 1_545 S
C616 H607 0.930 . S
C616 C614 1.378 . S
C616 C617 1.367 . S
C617 C616 1.367 . S
C617 C619 1.433 1_565 S
C618 C614 1.350 . S
C618 C615 1.463 1_565 S
C618 N622 1.427 1_565 S
C619 H609 0.929 . S
C619 C617 1.433 1_545 S
C619 N622 1.384 . S
C620 H611 0.929 . S
C620 C612 1.378 . S
C620 C615 1.350 . S
C621 H608 0.929 . S
C621 C613 1.433 1_565 S
C621 N623 1.384 . S
N622 C618 1.427 1_545 S
N622 C619 1.384 . S
N623 C615 1.427 1_565 S
N623 C621 1.384 . S
H624 C630 0.930 . S
H625 C634 0.930 . S
H626 C639 0.929 . S
H627 C637 0.929 . S
H628 C632 0.929 . S
H629 C638 0.929 . S
C630 H624 0.930 . S
C630 C631 1.367 . S
C630 C638 1.378 . S
C631 C630 1.367 . S
C631 C639 1.433 . S
C632 H628 0.929 . S
C632 C634 1.378 . S
C632 C636 1.350 . S
C633 C636 1.463 . S
C633 C638 1.350 . S
C633 N641 1.427 . S
C634 H625 0.930 . S
C634 C632 1.378 . S
C634 C635 1.367 . S
C635 C634 1.367 . S
C635 C637 1.433 . S
C636 C632 1.350 . S
C636 C633 1.463 . S
C636 N640 1.427 . S
C637 H627 0.929 . S
C637 C635 1.433 . S
C637 N640 1.384 . S
C638 H629 0.929 . S
C638 C630 1.378 . S
C638 C633 1.350 . S
C639 H626 0.929 . S
C639 C631 1.433 . S
C639 N641 1.384 . S
N640 C636 1.427 . S
N640 C637 1.384 . S
N641 C633 1.427 . S
N641 C639 1.384 . S
H642 C648 0.930 . S
H643 C652 0.930 . S
H644 C657 0.929 . S
H645 C655 0.929 . S
H646 C650 0.929 . S
H647 C656 0.929 . S
C648 H642 0.930 . S
C648 C649 1.367 . S
C648 C656 1.378 . S
C649 C648 1.367 . S
C649 C657 1.433 1_455 S
C650 H646 0.929 . S
C650 C652 1.378 . S
C650 C654 1.350 1_655 S
C651 C654 1.463 . S
C651 C656 1.350 . S
C651 N659 1.427 1_455 S
C652 H643 0.930 . S
C652 C650 1.378 . S
C652 C653 1.373 . S
C653 C652 1.373 . S
C653 C655 1.426 1_655 S
C654 C650 1.350 1_455 S
C654 C651 1.463 . S
C654 N658 1.427 . S
C655 H645 0.929 . S
C655 C653 1.426 1_455 S
C655 N658 1.384 . S
C656 H647 0.929 . S
C656 C648 1.378 . S
C656 C651 1.350 . S
C657 H644 0.929 . S
C657 C649 1.433 1_655 S
C657 N659 1.384 . S
N658 C654 1.427 . S
N658 C655 1.384 . S
N659 C651 1.427 1_655 S
N659 C657 1.384 . S
C343 C7 0.632 . S
C347 C325 0.601 . S
C361 C51 1.934 . S
C365 C253 1.871 . S
C379 C87 1.233 . S
C383 C289 1.223 . S
C397 C16 0.446 . S
C401 C301 0.342 . S
C419 C229 2.008 . S
C415 C42 2.044 . S
C437 C265 1.328 . S
C433 C96 1.314 . S
C451 C47 1.210 . S
C455 C181 1.220 . S
C469 C91 3.119 . S
C473 C193 3.077 . S
C487 C2 2.075 . S
C491 C121 2.046 . S
C509 C157 1.310 . S
C505 C56 1.299 . S
C527 C217 2.950 . S
C523 C82 3.016 . S
C541 C11 1.928 . S
C545 C145 1.867 . S
C563 C223 1.754 1_554 S
C559 C19 1.715 . S
C577 C50 1.344 . S
C581 C151 1.374 . S
C595 C99 1.458 . S
C599 C187 1.508 . S
C617 C295 1.484 . S
C613 C59 1.448 . S
C635 C331 1.104 1_556 S
C631 C90 1.095 . S
C649 C10 1.337 . S
C653 C259 1.363 1_655 S
