# Generated by pormake.
# Topology ftw, (4,12)-cn, num edge types: 1
# Building blocks:
#     Node 0, Type 0, BuildingBlock: NAHDIM_clean_linker_0, # of connection points: 4
#     Node 1, Type 0, BuildingBlock: NAHDIM_clean_linker_0, # of connection points: 4
#     Node 2, Type 0, BuildingBlock: NAHDIM_clean_linker_0, # of connection points: 4
#     Node 3, Type 1, BuildingBlock: EZIPEK_clean_sbu_0, # of connection points: 12
#     Edge 4, Type (0, 1), None
#     Edge 5, Type (0, 1), None
#     Edge 6, Type (0, 1), None
#     Edge 7, Type (0, 1), None
#     Edge 8, Type (0, 1), None
#     Edge 9, Type (0, 1), None
#     Edge 10, Type (0, 1), None
#     Edge 11, Type (0, 1), None
#     Edge 12, Type (0, 1), None
#     Edge 13, Type (0, 1), None
#     Edge 14, Type (0, 1), None
#     Edge 15, Type (0, 1), None
# Relax obj value: 0.006
# Max RMSD: 0.061
# Mean RMSD: 0.048
data_MOF--net-ftw--node1-EZIPEK_clean_sbu_0--node2-NAHDIM_clean_linker_0--edge1-none
_symmetry_space_group_name_H-M    P1
_symmetry_Int_Tables_number       1
_symmetry_cell_setting            triclinic
loop_
_symmetry_equiv_pos_as_xyz
'x, y, z'
_cell_length_a     21.103992
_cell_length_b     20.7454
_cell_length_c     20.37934
_cell_angle_alpha  90.576585
_cell_angle_beta   89.34407
_cell_angle_gamma 89.2875
loop_
_atom_site_label
_atom_site_type_symbol
_atom_site_fract_x
_atom_site_fract_y
_atom_site_fract_z
_atom_type_partial_charge
C0 C 0.01877 0.89594 0.28368 0.0
C1 C 0.99245 0.85641 0.22585 0.0
C2 C 0.92399 0.77871 0.2812 0.0
C3 C 0.86177 0.75851 0.29195 0.0
C4 C 0.8488 0.70374 0.32978 0.0
C5 C 0.89946 0.66845 0.35776 0.0
C6 C 0.96242 0.68995 0.34889 0.0
C7 C 0.97387 0.74431 0.31065 0.0
C8 C 0.78112 0.68268 0.33836 0.0
C9 C 0.01855 0.65553 0.37887 0.0
C10 C 0.04536 0.23834 0.24074 0.0
C11 C 0.01247 0.25897 0.17712 0.0
C12 C 0.93575 0.33609 0.22431 0.0
C13 C 0.98023 0.38421 0.2376 0.0
C14 C 0.9655 0.43545 0.28025 0.0
C15 C 0.90419 0.44008 0.30888 0.0
C16 C 0.85744 0.39505 0.29117 0.0
C17 C 0.87403 0.34318 0.24925 0.0
C18 C 0.01655 0.48328 0.29643 0.0
C19 C 0.79097 0.40023 0.31872 0.0
C20 C 0.03362 0.25903 0.69824 0.0
C21 C 0.07328 0.3067 0.6732 0.0
C22 C 0.04799 0.36209 0.64418 0.0
C23 C 0.98134 0.372 0.64396 0.0
C24 C 0.94115 0.32287 0.66715 0.0
C25 C 0.96805 0.26594 0.69197 0.0
C26 C 0.09397 0.4088 0.61403 0.0
C27 C 0.87005 0.33115 0.66724 0.0
C28 C 0.11189 0.79463 0.77653 0.0
C29 C 0.04344 0.80377 0.80181 0.0
C30 C 0.00153 0.69749 0.78931 0.0
C31 C 0.04701 0.65617 0.76109 0.0
C32 C 0.03013 0.60994 0.71431 0.0
C33 C 0.96525 0.60105 0.69951 0.0
C34 C 0.91846 0.63934 0.73251 0.0
C35 C 0.93744 0.68837 0.77596 0.0
C36 C 0.08232 0.57094 0.68114 0.0
C37 C 0.84867 0.62908 0.72184 0.0
C38 C 0.8887 0.60388 0.38662 0.0
C39 C 0.88269 0.5528 0.34193 0.0
C40 C 0.89188 0.48905 0.36115 0.0
C41 C 0.90335 0.475 0.42777 0.0
C42 C 0.91544 0.41147 0.44812 0.0
C43 C 0.93144 0.39836 0.51258 0.0
C44 C 0.93535 0.44815 0.55949 0.0
C45 C 0.95469 0.43546 0.62425 0.0
C46 C 0.95809 0.48598 0.6698 0.0
C47 C 0.94743 0.54998 0.65155 0.0
C48 C 0.92925 0.56391 0.58638 0.0
C49 C 0.92055 0.62771 0.56503 0.0
C50 C 0.90509 0.64085 0.50016 0.0
C51 C 0.89887 0.59079 0.45382 0.0
C52 C 0.90645 0.52604 0.47438 0.0
C53 C 0.9222 0.51258 0.54053 0.0
C54 C 0.16686 0.17557 0.72995 0.0
C55 C 0.10943 0.20325 0.76819 0.0
O56 O 0.93397 0.83099 0.24237 0.0
O57 O 0.01972 0.74734 0.82785 0.0
O58 O 0.05705 0.20561 0.72779 0.0
O59 O 0.9514 0.28135 0.19015 0.0
H60 H 0.02677 0.8169 0.2134 0.0
H61 H 0.06509 0.91706 0.26969 0.0
H62 H 0.02653 0.86562 0.32734 0.0
H63 H 0.98523 0.93539 0.29825 0.0
H64 H 0.82331 0.78513 0.26952 0.0
H65 H 0.02246 0.7586 0.30354 0.0
H66 H 0.77245 0.6408 0.30548 0.0
H67 H 0.74689 0.72174 0.32607 0.0
H68 H 0.77215 0.66722 0.38962 0.0
H69 H 0.06393 0.66823 0.35436 0.0
H70 H 0.01363 0.6025 0.37664 0.0
H71 H 0.02173 0.66984 0.43133 0.0
H72 H 0.04088 0.29712 0.15321 0.0
H73 H 0.09185 0.21481 0.22942 0.0
H74 H 0.01537 0.20414 0.26849 0.0
H75 H 0.05436 0.28062 0.27285 0.0
H76 H 0.02748 0.38126 0.21676 0.0
H77 H 0.8395 0.30664 0.23775 0.0
H78 H 0.0231 0.48609 0.35034 0.0
H79 H 0.00205 0.53179 0.27921 0.0
H80 H 0.06288 0.47043 0.27306 0.0
H81 H 0.75815 0.3669 0.29351 0.0
H82 H 0.77266 0.45039 0.31413 0.0
H83 H 0.79144 0.38853 0.37175 0.0
H84 H 0.12077 0.25224 0.7873 0.0
H85 H 0.12417 0.30077 0.67544 0.0
H86 H 0.93793 0.22768 0.70929 0.0
H87 H 0.12571 0.38247 0.57882 0.0
H88 H 0.12479 0.42859 0.65289 0.0
H89 H 0.07092 0.44895 0.58755 0.0
H90 H 0.84542 0.28815 0.68653 0.0
H91 H 0.85349 0.34029 0.61666 0.0
H92 H 0.85627 0.37375 0.69786 0.0
H93 H 0.01401 0.81924 0.75958 0.0
H94 H 0.13203 0.84133 0.76097 0.0
H95 H 0.11334 0.76312 0.73228 0.0
H96 H 0.14224 0.77349 0.81521 0.0
H97 H 0.09624 0.66127 0.77437 0.0
H98 H 0.90245 0.71991 0.79917 0.0
H99 H 0.07216 0.56274 0.62842 0.0
H100 H 0.08605 0.52361 0.70565 0.0
H101 H 0.12898 0.59483 0.685 0.0
H102 H 0.81933 0.65167 0.76165 0.0
H103 H 0.83793 0.57686 0.71909 0.0
H104 H 0.83461 0.65111 0.67474 0.0
H105 H 0.87786 0.56311 0.29008 0.0
H106 H 0.91367 0.37107 0.4142 0.0
H107 H 0.94122 0.34866 0.52509 0.0
H108 H 0.974 0.47579 0.71915 0.0
H109 H 0.92645 0.66836 0.59798 0.0
H110 H 0.89916 0.6908 0.48629 0.0
H111 H 0.15568 0.12809 0.70743 0.0
H112 H 0.20786 0.16953 0.76318 0.0
H113 H 0.18119 0.20843 0.69006 0.0
C114 C 0.94486 0.0656 0.67525 0.0
C115 C 0.89801 0.04929 0.73056 0.0
C116 C 0.80733 0.99231 0.6849 0.0
C117 C 0.77559 0.93369 0.68484 0.0
C118 C 0.71481 0.92856 0.65841 0.0
C119 C 0.6852 0.98378 0.63177 0.0
C120 C 0.71763 0.04296 0.63007 0.0
C121 C 0.77878 0.0464 0.65573 0.0
C122 C 0.68188 0.86444 0.65983 0.0
C123 C 0.68739 0.10282 0.6019 0.0
C124 C 0.25758 0.90685 0.80008 0.0
C125 C 0.27564 0.95951 0.8505 0.0
C126 C 0.3584 0.00655 0.78135 0.0
C127 C 0.36991 0.0559 0.7369 0.0
C128 C 0.42001 0.05114 0.69112 0.0
C129 C 0.45775 0.99406 0.68811 0.0
C130 C 0.44857 0.94562 0.73566 0.0
C131 C 0.40047 0.95356 0.78311 0.0
C132 C 0.43131 0.10679 0.64544 0.0
C133 C 0.48854 0.88469 0.73603 0.0
C134 C 0.2587 0.9905 0.29238 0.0
C135 C 0.2912 0.04466 0.31613 0.0
C136 C 0.3529 0.03851 0.34024 0.0
C137 C 0.38189 0.97678 0.34284 0.0
C138 C 0.34828 0.92195 0.32201 0.0
C139 C 0.2873 0.92963 0.29637 0.0
C140 C 0.38732 0.09813 0.36246 0.0
C141 C 0.37691 0.85537 0.32692 0.0
C142 C 0.73546 0.12866 0.09256 0.0
C143 C 0.77721 0.08296 0.13291 0.0
C144 C 0.70183 0.01409 0.19162 0.0
C145 C 0.67797 0.06271 0.23405 0.0
C146 C 0.63141 0.04933 0.28133 0.0
C147 C 0.60901 0.9856 0.28762 0.0
C148 C 0.63283 0.93639 0.24519 0.0
C149 C 0.67881 0.95145 0.19749 0.0
C150 C 0.60608 0.1037 0.32446 0.0
C151 C 0.60993 0.86801 0.25042 0.0
C152 C 0.61936 0.98034 0.60801 0.0
C153 C 0.57048 0.98736 0.65434 0.0
C154 C 0.50701 0.98514 0.63592 0.0
C155 C 0.49172 0.97597 0.569 0.0
C156 C 0.42854 0.97103 0.54849 0.0
C157 C 0.41398 0.96751 0.48212 0.0
C158 C 0.46212 0.96823 0.43383 0.0
C159 C 0.44782 0.96997 0.3663 0.0
C160 C 0.49681 0.97154 0.31958 0.0
C161 C 0.56026 0.97154 0.33846 0.0
C162 C 0.57551 0.96819 0.40572 0.0
C163 C 0.63883 0.96634 0.42637 0.0
C164 C 0.6534 0.96834 0.49274 0.0
C165 C 0.60517 0.97327 0.54082 0.0
C166 C 0.54105 0.97204 0.5212 0.0
C167 C 0.52622 0.96852 0.45355 0.0
C168 C 0.1221 0.06671 0.31047 0.0
C169 C 0.16564 0.04977 0.25187 0.0
O170 O 0.86488 0.99452 0.71394 0.0
O171 O 0.74625 0.02552 0.14425 0.0
O172 O 0.20015 0.9944 0.2654 0.0
O173 O 0.3052 0.01052 0.81972 0.0
H174 H 0.8651 0.0909 0.73908 0.0
H175 H 0.97311 0.10836 0.68902 0.0
H176 H 0.91875 0.07696 0.62974 0.0
H177 H 0.97745 0.02419 0.66475 0.0
H178 H 0.79829 0.89205 0.70663 0.0
H179 H 0.80352 0.09163 0.65296 0.0
H180 H 0.6404 0.86769 0.69371 0.0
H181 H 0.71366 0.82486 0.67637 0.0
H182 H 0.66399 0.85217 0.61027 0.0
H183 H 0.71709 0.14617 0.60868 0.0
H184 H 0.64042 0.11204 0.62551 0.0
H185 H 0.67953 0.09555 0.54861 0.0
H186 H 0.30788 0.93828 0.88749 0.0
H187 H 0.22437 0.87207 0.82212 0.0
H188 H 0.29943 0.87851 0.7828 0.0
H189 H 0.23456 0.92884 0.75677 0.0
H190 H 0.33855 0.0977 0.73714 0.0
H191 H 0.39476 0.91701 0.82013 0.0
H192 H 0.40665 0.09778 0.59851 0.0
H193 H 0.48258 0.11256 0.63451 0.0
H194 H 0.41231 0.15278 0.66658 0.0
H195 H 0.46667 0.84653 0.76638 0.0
H196 H 0.53562 0.89565 0.75679 0.0
H197 H 0.49601 0.86546 0.68545 0.0
H198 H 0.19709 0.0912 0.24228 0.0
H199 H 0.26926 0.09198 0.31611 0.0
H200 H 0.26162 0.88799 0.27899 0.0
H201 H 0.39893 0.09428 0.41527 0.0
H202 H 0.35895 0.14291 0.35528 0.0
H203 H 0.43267 0.10223 0.33477 0.0
H204 H 0.3431 0.81736 0.31234 0.0
H205 H 0.39212 0.84649 0.37806 0.0
H206 H 0.4198 0.85192 0.29499 0.0
H207 H 0.78893 0.10715 0.18013 0.0
H208 H 0.76159 0.17343 0.08134 0.0
H209 H 0.69177 0.1425 0.12025 0.0
H210 H 0.72117 0.10525 0.04583 0.0
H211 H 0.69482 0.11153 0.23054 0.0
H212 H 0.69726 0.91416 0.16459 0.0
H213 H 0.623 0.09712 0.37534 0.0
H214 H 0.5535 0.10342 0.32596 0.0
H215 H 0.62171 0.15167 0.30726 0.0
H216 H 0.63596 0.83452 0.21648 0.0
H217 H 0.55868 0.86644 0.23889 0.0
H218 H 0.61556 0.85081 0.30148 0.0
H219 H 0.5821 0.99504 0.70555 0.0
H220 H 0.38955 0.97096 0.58346 0.0
H221 H 0.36446 0.96533 0.46909 0.0
H222 H 0.48532 0.97588 0.26802 0.0
H223 H 0.6778 0.96404 0.39135 0.0
H224 H 0.70297 0.96753 0.50584 0.0
H225 H 0.08836 0.02713 0.32 0.0
H226 H 0.09511 0.1119 0.30112 0.0
H227 H 0.15086 0.0743 0.35511 0.0
C228 C 0.83342 0.79394 0.90178 0.0
C229 C 0.81066 0.84475 0.95241 0.0
C230 C 0.74031 0.7809 0.02359 0.0
C231 C 0.73377 0.75357 0.08568 0.0
C232 C 0.68192 0.71453 0.10138 0.0
C233 C 0.63595 0.7014 0.05312 0.0
C234 C 0.64131 0.73025 0.99066 0.0
C235 C 0.69283 0.77042 0.97687 0.0
C236 C 0.67663 0.68688 0.16938 0.0
C237 C 0.59303 0.71797 0.93803 0.0
C238 C 0.24965 0.82005 0.96569 0.0
C239 C 0.20918 0.80411 0.02672 0.0
C240 C 0.29492 0.75383 0.09 0.0
C241 C 0.30514 0.70148 0.04664 0.0
C242 C 0.36199 0.66576 0.04703 0.0
C243 C 0.40661 0.67693 0.09743 0.0
C244 C 0.39225 0.72387 0.14669 0.0
C245 C 0.33746 0.76283 0.14131 0.0
C246 C 0.37468 0.61886 0.99091 0.0
C247 C 0.43512 0.73491 0.20434 0.0
C248 C 0.34417 0.23965 0.06716 0.0
C249 C 0.35164 0.28621 0.01853 0.0
C250 C 0.40036 0.33138 0.02205 0.0
C251 C 0.44206 0.33039 0.07615 0.0
C252 C 0.43484 0.28286 0.12506 0.0
C253 C 0.38622 0.23753 0.11951 0.0
C254 C 0.40741 0.37941 0.96726 0.0
C255 C 0.47864 0.27967 0.18296 0.0
C256 C 0.88382 0.27246 0.83937 0.0
C257 C 0.86536 0.25668 0.90998 0.0
C258 C 0.75741 0.28027 0.9438 0.0
C259 C 0.70403 0.2999 0.90944 0.0
C260 C 0.65666 0.33769 0.93997 0.0
C261 C 0.66186 0.35374 0.00747 0.0
C262 C 0.71584 0.33341 0.04272 0.0
C263 C 0.76369 0.2975 0.01007 0.0
C264 C 0.6001 0.35851 0.90034 0.0
C265 C 0.72189 0.34765 0.11509 0.0
C266 C 0.58278 0.6569 0.0676 0.0
C267 C 0.52292 0.68373 0.08147 0.0
C268 C 0.4704 0.64486 0.09435 0.0
C269 C 0.47873 0.57706 0.09699 0.0
C270 C 0.42872 0.53649 0.11515 0.0
C271 C 0.43526 0.46968 0.11037 0.0
C272 C 0.4922 0.44108 0.08765 0.0
C273 C 0.4976 0.37374 0.07672 0.0
C274 C 0.55533 0.34698 0.05558 0.0
C275 C 0.6074 0.38554 0.04176 0.0
C276 C 0.60287 0.45305 0.0514 0.0
C277 C 0.65402 0.49346 0.0369 0.0
C278 C 0.64808 0.56014 0.04375 0.0
C279 C 0.59034 0.58903 0.06403 0.0
C280 C 0.53823 0.54906 0.07926 0.0
C281 C 0.54481 0.48095 0.07398 0.0
C282 C 0.21124 0.23503 0.13626 0.0
C283 C 0.2326 0.21964 0.06566 0.0
O284 O 0.7933 0.8159 0.01096 0.0
O285 O 0.80145 0.24315 0.91234 0.0
O286 O 0.29498 0.19822 0.0655 0.0
O287 O 0.2469 0.7979 0.08195 0.0
H288 H 0.76973 0.87226 0.9324 0.0
H289 H 0.79488 0.76053 0.88873 0.0
H290 H 0.87342 0.76488 0.92138 0.0
H291 H 0.84935 0.81785 0.856 0.0
H292 H 0.76992 0.76259 0.1219 0.0
H293 H 0.69584 0.79259 0.92918 0.0
H294 H 0.62841 0.69618 0.19005 0.0
H295 H 0.71204 0.70759 0.20327 0.0
H296 H 0.68407 0.63386 0.16679 0.0
H297 H 0.6072 0.73872 0.89008 0.0
H298 H 0.54676 0.73966 0.95329 0.0
H299 H 0.58609 0.66533 0.93143 0.0
H300 H 0.18324 0.75852 0.01785 0.0
H301 H 0.21813 0.83059 0.92389 0.0
H302 H 0.28097 0.77967 0.94961 0.0
H303 H 0.27976 0.86255 0.97549 0.0
H304 H 0.27049 0.69028 0.00967 0.0
H305 H 0.32856 0.80155 0.17648 0.0
H306 H 0.35993 0.56992 0.00566 0.0
H307 H 0.42557 0.61697 0.97664 0.0
H308 H 0.34703 0.63195 0.94681 0.0
H309 H 0.40632 0.74112 0.24982 0.0
H310 H 0.46214 0.77985 0.19664 0.0
H311 H 0.469 0.69448 0.21216 0.0
H312 H 0.22718 0.26471 0.03691 0.0
H313 H 0.31959 0.28673 0.97738 0.0
H314 H 0.37991 0.2012 0.15679 0.0
H315 H 0.39131 0.4277 0.98496 0.0
H316 H 0.37877 0.36628 0.92382 0.0
H317 H 0.45771 0.38324 0.95152 0.0
H318 H 0.46039 0.2475 0.22194 0.0
H319 H 0.48548 0.32858 0.20418 0.0
H320 H 0.52572 0.26098 0.16634 0.0
H321 H 0.8765 0.29938 0.94123 0.0
H322 H 0.93511 0.28358 0.83563 0.0
H323 H 0.85642 0.31527 0.82286 0.0
H324 H 0.87316 0.23109 0.8064 0.0
H325 H 0.6999 0.28592 0.85829 0.0
H326 H 0.80497 0.28105 0.03657 0.0
H327 H 0.58638 0.40921 0.91204 0.0
H328 H 0.55932 0.32746 0.91276 0.0
H329 H 0.60949 0.35405 0.84671 0.0
H330 H 0.76661 0.32786 0.13544 0.0
H331 H 0.68124 0.32666 0.14217 0.0
H332 H 0.72034 0.40053 0.12387 0.0
H333 H 0.51673 0.73571 0.08015 0.0
H334 H 0.38352 0.55616 0.1319 0.0
H335 H 0.39482 0.44063 0.12341 0.0
H336 H 0.55852 0.29558 0.04522 0.0
H337 H 0.69912 0.47394 0.01972 0.0
H338 H 0.68894 0.58883 0.0314 0.0
H339 H 0.2143 0.19128 0.16716 0.0
H340 H 0.16165 0.25367 0.13713 0.0
H341 H 0.24182 0.27274 0.15781 0.0
C342 C 0.09308 0.16096 0.82517 0.0
C343 C 0.01033 0.2033 0.12994 0.0
C344 C 0.04106 0.85763 0.85161 0.0
C345 C 0.98757 0.89742 0.16534 0.0
C346 C 0.16151 0.85846 0.03551 0.0
C347 C 0.18917 0.17032 0.03684 0.0
C348 C 0.86354 0.89114 0.96512 0.0
C349 C 0.9037 0.20021 0.93325 0.0
C350 C 0.83893 0.06853 0.09792 0.0
C351 C 0.13048 0.03966 0.18897 0.0
C352 C 0.92981 0.03807 0.79499 0.0
C353 C 0.21678 0.98395 0.88565 0.0
Eu354 Eu 0.04476 0.14947 0.98025 0.0
O355 O 0.07259 0.08612 0.05717 0.0
O356 O 0.9984 0.08374 0.91578 0.0
Eu357 Eu 0.14424 0.01737 0.02777 0.0
Eu358 Eu 0.91462 0.04198 0.95721 0.0
O359 O 0.10878 0.07369 0.94702 0.0
O360 O 0.96637 0.10022 0.02563 0.0
Eu361 Eu 0.06297 0.01377 0.87502 0.0
Eu362 Eu 0.99432 0.04602 0.11002 0.0
O363 O 0.09074 0.96057 0.95978 0.0
O364 O 0.06015 0.97532 0.06979 0.0
O365 O 0.9511 0.98549 0.03732 0.0
O366 O 0.98466 0.97136 0.9266 0.0
Eu367 Eu 0.01438 0.90872 0.00461 0.0
O368 O 0.07831 0.18963 0.88242 0.0
O369 O 0.02849 0.21485 0.06834 0.0
O370 O 0.02482 0.84444 0.91366 0.0
O371 O 0.00058 0.86879 0.10753 0.0
O372 O 0.18487 0.91723 0.04617 0.0
O373 O 0.2025 0.10776 0.04552 0.0
O374 O 0.85414 0.95242 0.94744 0.0
O375 O 0.87682 0.14213 0.93304 0.0
O376 O 0.89041 0.06344 0.13508 0.0
O377 O 0.06803 0.05058 0.18946 0.0
O378 O 0.99199 0.02606 0.79409 0.0
O379 O 0.16468 0.98925 0.84961 0.0
O380 O 0.91679 0.86651 0.99017 0.0
O381 O 0.10185 0.84543 0.01892 0.0
O382 O 0.96349 0.21286 0.94856 0.0
O383 O 0.13632 0.1945 0.01122 0.0
O384 O 0.9933 0.14643 0.15396 0.0
O385 O 0.9771 0.96036 0.17489 0.0
O386 O 0.091 0.09792 0.8127 0.0
O387 O 0.05628 0.9153 0.8285 0.0
O388 O 0.22045 0.9958 0.95014 0.0
O389 O 0.16611 0.02439 0.13633 0.0
O390 O 0.89288 0.04291 0.84851 0.0
O391 O 0.83731 0.06069 0.03291 0.0
loop_
_geom_bond_atom_site_label_1
_geom_bond_atom_site_label_2
_geom_bond_distance
_geom_bond_site_symmetry_2
_ccdc_geom_bond_type
C0 C1 1.560 . S
C0 H61 0.959 . S
C0 H62 0.959 . S
C0 H63 0.960 . S
C1 C0 1.560 . S
C1 O56 1.426 . S
C1 H60 0.980 . S
C2 C3 1.407 1_455 S
C2 C7 1.418 . S
C2 O56 1.334 . S
C3 C2 1.407 1_655 S
C3 C4 1.360 . S
C3 H64 0.929 . S
C4 C3 1.360 . S
C4 C5 1.401 1_655 S
C4 C8 1.527 . S
C5 C4 1.401 1_455 S
C5 C6 1.405 . S
C5 C38 1.587 1_455 S
C6 C5 1.405 . S
C6 C7 1.332 . S
C6 C9 1.496 . S
C7 C2 1.418 . S
C7 C6 1.332 . S
C7 H65 0.929 . S
C8 C4 1.527 . S
C8 H66 0.959 . S
C8 H67 0.961 . S
C8 H68 0.961 . S
C9 C6 1.496 . S
C9 H69 0.960 . S
C9 H70 0.960 . S
C9 H71 0.961 . S
C10 C11 1.517 . S
C10 H73 0.961 1_655 S
C10 H74 0.960 . S
C10 H75 0.959 . S
C11 C10 1.517 . S
C11 O59 1.468 . S
C11 H72 0.980 1_655 S
C12 C13 1.349 1_655 S
C12 C17 1.367 . S
C12 O59 1.408 . S
C13 C12 1.349 1_455 S
C13 C14 1.407 . S
C13 H76 0.930 . S
C14 C13 1.407 . S
C14 C15 1.449 1_455 S
C14 C18 1.535 . S
C15 C14 1.449 1_655 S
C15 C16 1.384 . S
C15 C40 1.553 . S
C16 C15 1.384 . S
C16 C17 1.364 . S
C16 C19 1.450 . S
C17 C12 1.367 . S
C17 C16 1.364 . S
C17 H77 0.931 . S
C18 C14 1.535 . S
C18 H78 0.959 . S
C18 H79 0.961 . S
C18 H80 0.959 . S
C19 C16 1.450 . S
C19 H81 0.960 . S
C19 H82 0.960 . S
C19 H83 0.960 . S
C20 C21 1.309 1_655 S
C20 C25 1.304 . S
C20 O58 1.435 . S
C21 C20 1.309 1_455 S
C21 C22 1.476 . S
C21 H85 0.930 . S
C22 C21 1.476 . S
C22 C23 1.400 1_455 S
C22 C26 1.567 . S
C23 C22 1.400 1_655 S
C23 C24 1.373 . S
C23 C45 1.432 . S
C24 C23 1.373 . S
C24 C25 1.339 . S
C24 C27 1.530 . S
C25 C20 1.304 . S
C25 C24 1.339 . S
C25 H86 0.930 . S
C26 C22 1.567 . S
C26 H87 0.961 . S
C26 H88 0.960 . S
C26 H89 0.958 . S
C27 C24 1.530 . S
C27 H90 0.961 . S
C27 H91 0.960 . S
C27 H92 0.960 . S
C28 C29 1.530 . S
C28 H94 0.961 . S
C28 H95 0.961 . S
C28 H96 0.959 . S
C29 C28 1.530 . S
C29 O57 1.412 . S
C29 H93 0.980 . S
C30 C31 1.288 . S
C30 C35 1.369 1_455 S
C30 O57 1.393 . S
C31 C30 1.288 . S
C31 C32 1.369 . S
C31 H97 0.932 . S
C32 C31 1.369 . S
C32 C33 1.398 . S
C32 C36 1.527 . S
C33 C32 1.398 . S
C33 C34 1.380 1_455 S
C33 C47 1.497 . S
C34 C33 1.380 1_655 S
C34 C35 1.385 . S
C34 C37 1.603 . S
C35 C30 1.369 1_655 S
C35 C34 1.385 . S
C35 H98 0.934 . S
C36 C32 1.527 . S
C36 H99 0.961 . S
C36 H100 0.959 . S
C36 H101 0.959 . S
C37 C34 1.603 . S
C37 H102 0.960 . S
C37 H103 0.962 . S
C37 H104 0.961 . S
C38 C5 1.587 1_655 S
C38 C39 1.360 . S
C38 C51 1.412 . S
C39 C38 1.360 . S
C39 C40 1.365 . S
C39 H105 0.929 . S
C40 C15 1.553 . S
C40 C39 1.365 . S
C40 C41 1.404 . S
C41 C40 1.404 . S
C41 C42 1.395 . S
C41 C52 1.451 . S
C42 C41 1.395 . S
C42 C43 1.322 . S
C42 H106 0.930 . S
C43 C42 1.322 . S
C43 C44 1.459 . S
C43 H107 0.929 . S
C44 C43 1.459 . S
C44 C45 1.445 . S
C44 C53 1.395 . S
C45 C23 1.432 . S
C45 C44 1.445 . S
C45 C46 1.370 1_655 S
C46 C45 1.370 1_455 S
C46 C47 1.438 . S
C46 H108 0.930 . S
C47 C33 1.497 . S
C47 C46 1.438 . S
C47 C48 1.360 . S
C48 C47 1.360 . S
C48 C49 1.401 . S
C48 C53 1.446 1_455 S
C49 C48 1.401 . S
C49 C50 1.347 . S
C49 H109 0.929 . S
C50 C49 1.347 . S
C50 C51 1.455 1_455 S
C50 H110 0.930 . S
C51 C38 1.412 . S
C51 C50 1.455 1_655 S
C51 C52 1.331 . S
C52 C41 1.451 . S
C52 C51 1.331 . S
C52 C53 1.497 . S
C53 C44 1.395 . S
C53 C48 1.446 1_655 S
C53 C52 1.497 . S
C54 C55 1.582 1_655 S
C54 H111 0.951 1_655 S
C54 H112 0.959 . S
C54 H113 0.958 . S
C55 C54 1.582 1_455 S
C55 O58 1.458 1_455 S
C55 H84 0.980 . S
O56 C1 1.426 . S
O56 C2 1.334 . S
O57 C29 1.412 . S
O57 C30 1.393 . S
O58 C20 1.435 . S
O58 C55 1.458 1_655 S
O59 C11 1.468 . S
O59 C12 1.408 . S
H60 C1 0.980 . S
H61 C0 0.959 . S
H62 C0 0.959 . S
H63 C0 0.960 . S
H64 C3 0.929 . S
H65 C7 0.929 . S
H66 C8 0.959 . S
H67 C8 0.961 . S
H68 C8 0.961 . S
H69 C9 0.960 . S
H70 C9 0.960 . S
H71 C9 0.961 . S
H72 C11 0.980 1_455 S
H73 C10 0.961 1_455 S
H74 C10 0.960 . S
H75 C10 0.959 . S
H76 C13 0.930 . S
H77 C17 0.931 . S
H78 C18 0.959 . S
H79 C18 0.961 . S
H80 C18 0.959 . S
H81 C19 0.960 . S
H82 C19 0.960 . S
H83 C19 0.960 . S
H84 C55 0.980 . S
H85 C21 0.930 . S
H86 C25 0.930 . S
H87 C26 0.961 . S
H88 C26 0.960 . S
H89 C26 0.958 . S
H90 C27 0.961 . S
H91 C27 0.960 . S
H92 C27 0.960 . S
H93 C29 0.980 . S
H94 C28 0.961 . S
H95 C28 0.961 . S
H96 C28 0.959 . S
H97 C31 0.932 . S
H98 C35 0.934 . S
H99 C36 0.961 . S
H100 C36 0.959 . S
H101 C36 0.959 . S
H102 C37 0.960 . S
H103 C37 0.962 . S
H104 C37 0.961 . S
H105 C39 0.929 . S
H106 C42 0.930 . S
H107 C43 0.929 . S
H108 C46 0.930 . S
H109 C49 0.929 . S
H110 C50 0.930 . S
H111 C54 0.951 1_455 S
H112 C54 0.959 . S
H113 C54 0.958 . S
C114 C115 1.560 . S
C114 H175 0.959 . S
C114 H176 0.959 . S
C114 H177 0.960 . S
C115 C114 1.560 . S
C115 O170 1.426 . S
C115 H174 0.980 . S
C116 C117 1.407 1_545 S
C116 C121 1.418 . S
C116 O170 1.334 . S
C117 C116 1.407 1_565 S
C117 C118 1.360 . S
C117 H178 0.929 . S
C118 C117 1.360 . S
C118 C119 1.401 1_565 S
C118 C122 1.527 . S
C119 C118 1.401 1_545 S
C119 C120 1.405 . S
C119 C152 1.587 1_545 S
C120 C119 1.405 . S
C120 C121 1.332 . S
C120 C123 1.496 . S
C121 C116 1.418 . S
C121 C120 1.332 . S
C121 H179 0.929 . S
C122 C118 1.527 . S
C122 H180 0.959 . S
C122 H181 0.961 . S
C122 H182 0.961 . S
C123 C120 1.496 . S
C123 H183 0.960 . S
C123 H184 0.960 . S
C123 H185 0.961 . S
C124 C125 1.517 . S
C124 H187 0.972 . S
C124 H188 0.960 . S
C124 H189 0.959 . S
C125 C124 1.517 . S
C125 O173 1.468 . S
C125 H186 0.980 1_565 S
C126 C127 1.361 . S
C126 C131 1.367 . S
C126 O173 1.408 . S
C127 C126 1.361 . S
C127 C128 1.405 1_565 S
C127 H190 0.920 1_565 S
C128 C127 1.405 1_545 S
C128 C129 1.449 1_545 S
C128 C132 1.535 . S
C129 C128 1.449 1_565 S
C129 C130 1.384 . S
C129 C154 1.553 . S
C130 C129 1.384 . S
C130 C131 1.364 . S
C130 C133 1.450 . S
C131 C126 1.367 . S
C131 C130 1.364 . S
C131 H191 0.931 . S
C132 C128 1.535 . S
C132 H192 0.959 . S
C132 H193 0.961 . S
C132 H194 0.959 . S
C133 C130 1.450 . S
C133 H195 0.960 . S
C133 H196 0.960 . S
C133 H197 0.960 . S
C134 C135 1.309 1_565 S
C134 C139 1.304 . S
C134 O172 1.435 . S
C135 C134 1.309 1_545 S
C135 C136 1.476 . S
C135 H199 0.930 . S
C136 C135 1.476 . S
C136 C137 1.400 1_545 S
C136 C140 1.567 . S
C137 C136 1.400 1_565 S
C137 C138 1.373 . S
C137 C159 1.432 . S
C138 C137 1.373 . S
C138 C139 1.339 . S
C138 C141 1.530 . S
C139 C134 1.304 . S
C139 C138 1.339 . S
C139 H200 0.930 . S
C140 C136 1.567 . S
C140 H201 0.961 . S
C140 H202 0.960 . S
C140 H203 0.958 . S
C141 C138 1.530 . S
C141 H204 0.961 . S
C141 H205 0.960 . S
C141 H206 0.960 . S
C142 C143 1.530 . S
C142 H208 0.961 . S
C142 H209 0.961 . S
C142 H210 0.959 . S
C143 C142 1.530 . S
C143 O171 1.412 . S
C143 H207 0.980 . S
C144 C145 1.288 . S
C144 C149 1.377 1_545 S
C144 O171 1.393 . S
C145 C144 1.288 . S
C145 C146 1.369 . S
C145 H211 0.932 . S
C146 C145 1.369 . S
C146 C147 1.398 . S
C146 C150 1.527 . S
C147 C146 1.398 . S
C147 C148 1.380 1_545 S
C147 C161 1.497 . S
C148 C147 1.380 1_565 S
C148 C149 1.383 . S
C148 C151 1.603 . S
C149 C144 1.377 1_565 S
C149 C148 1.383 . S
C149 H212 0.929 . S
C150 C146 1.527 . S
C150 H213 0.961 . S
C150 H214 0.959 . S
C150 H215 0.959 . S
C151 C148 1.603 . S
C151 H216 0.960 . S
C151 H217 0.962 . S
C151 H218 0.961 . S
C152 C119 1.587 1_565 S
C152 C153 1.360 . S
C152 C165 1.412 . S
C153 C152 1.360 . S
C153 C154 1.365 . S
C153 H219 0.929 . S
C154 C129 1.553 . S
C154 C153 1.365 . S
C154 C155 1.404 . S
C155 C154 1.404 . S
C155 C156 1.395 . S
C155 C166 1.451 . S
C156 C155 1.395 . S
C156 C157 1.322 . S
C156 H220 0.930 . S
C157 C156 1.322 . S
C157 C158 1.459 . S
C157 H221 0.929 . S
C158 C157 1.459 . S
C158 C159 1.445 . S
C158 C167 1.395 . S
C159 C137 1.432 . S
C159 C158 1.445 . S
C159 C160 1.370 . S
C160 C159 1.370 . S
C160 C161 1.438 1_565 S
C160 H222 0.930 . S
C161 C147 1.497 . S
C161 C160 1.438 1_545 S
C161 C162 1.360 1_545 S
C162 C161 1.360 1_565 S
C162 C163 1.401 1_565 S
C162 C167 1.446 . S
C163 C162 1.401 1_545 S
C163 C164 1.347 . S
C163 H223 0.929 . S
C164 C163 1.347 . S
C164 C165 1.455 1_545 S
C164 H224 0.930 . S
C165 C152 1.412 . S
C165 C164 1.455 1_565 S
C165 C166 1.331 . S
C166 C155 1.451 . S
C166 C165 1.331 . S
C166 C167 1.497 . S
C167 C158 1.395 . S
C167 C162 1.446 . S
C167 C166 1.497 . S
C168 C169 1.582 1_565 S
C168 H225 0.962 . S
C168 H226 0.959 . S
C168 H227 0.958 . S
C169 C168 1.582 1_545 S
C169 O172 1.458 1_545 S
C169 H198 0.980 . S
O170 C115 1.426 . S
O170 C116 1.334 . S
O171 C143 1.412 . S
O171 C144 1.393 . S
O172 C134 1.435 . S
O172 C169 1.458 1_565 S
O173 C125 1.468 . S
O173 C126 1.408 . S
H174 C115 0.980 . S
H175 C114 0.959 . S
H176 C114 0.959 . S
H177 C114 0.960 . S
H178 C117 0.929 . S
H179 C121 0.929 . S
H180 C122 0.959 . S
H181 C122 0.961 . S
H182 C122 0.961 . S
H183 C123 0.960 . S
H184 C123 0.960 . S
H185 C123 0.961 . S
H186 C125 0.980 1_545 S
H187 C124 0.972 . S
H188 C124 0.960 . S
H189 C124 0.959 . S
H190 C127 0.920 1_545 S
H191 C131 0.931 . S
H192 C132 0.959 . S
H193 C132 0.961 . S
H194 C132 0.959 . S
H195 C133 0.960 . S
H196 C133 0.960 . S
H197 C133 0.960 . S
H198 C169 0.980 . S
H199 C135 0.930 . S
H200 C139 0.930 . S
H201 C140 0.961 . S
H202 C140 0.960 . S
H203 C140 0.958 . S
H204 C141 0.961 . S
H205 C141 0.960 . S
H206 C141 0.960 . S
H207 C143 0.980 . S
H208 C142 0.961 . S
H209 C142 0.961 . S
H210 C142 0.959 . S
H211 C145 0.932 . S
H212 C149 0.929 . S
H213 C150 0.961 . S
H214 C150 0.959 . S
H215 C150 0.959 . S
H216 C151 0.960 . S
H217 C151 0.962 . S
H218 C151 0.961 . S
H219 C153 0.929 . S
H220 C156 0.930 . S
H221 C157 0.929 . S
H222 C160 0.930 . S
H223 C163 0.929 . S
H224 C164 0.930 . S
H225 C168 0.962 . S
H226 C168 0.959 . S
H227 C168 0.958 . S
C228 C229 1.560 . S
C228 H289 0.959 . S
C228 H290 0.959 . S
C228 H291 0.960 . S
C229 C228 1.560 . S
C229 O284 1.426 . S
C229 H288 0.980 . S
C230 C231 1.407 1_556 S
C230 C235 1.418 . S
C230 O284 1.334 . S
C231 C230 1.407 1_554 S
C231 C232 1.360 . S
C231 H292 0.929 . S
C232 C231 1.360 . S
C232 C233 1.401 . S
C232 C236 1.527 . S
C233 C232 1.401 . S
C233 C234 1.405 1_554 S
C233 C266 1.587 . S
C234 C233 1.405 1_556 S
C234 C235 1.332 . S
C234 C237 1.496 . S
C235 C230 1.418 . S
C235 C234 1.332 . S
C235 H293 0.929 . S
C236 C232 1.527 . S
C236 H294 0.959 . S
C236 H295 0.961 . S
C236 H296 0.961 . S
C237 C234 1.496 . S
C237 H297 0.960 . S
C237 H298 0.960 . S
C237 H299 0.961 . S
C238 C239 1.517 . S
C238 H301 0.961 . S
C238 H302 0.960 . S
C238 H303 0.959 . S
C239 C238 1.517 . S
C239 O287 1.468 . S
C239 H300 0.980 . S
C240 C241 1.349 . S
C240 C245 1.367 . S
C240 O287 1.408 . S
C241 C240 1.349 . S
C241 C242 1.407 . S
C241 H304 0.930 1_554 S
C242 C241 1.407 . S
C242 C243 1.449 . S
C242 C246 1.535 1_554 S
C243 C242 1.449 . S
C243 C244 1.384 . S
C243 C268 1.553 . S
C244 C243 1.384 . S
C244 C245 1.364 . S
C244 C247 1.450 . S
C245 C240 1.367 . S
C245 C244 1.364 . S
C245 H305 0.931 . S
C246 C242 1.535 1_556 S
C246 H306 0.959 . S
C246 H307 0.961 . S
C246 H308 0.959 . S
C247 C244 1.450 . S
C247 H309 0.960 . S
C247 H310 0.960 . S
C247 H311 0.960 . S
C248 C249 1.309 1_554 S
C248 C253 1.304 . S
C248 O286 1.435 . S
C249 C248 1.309 1_556 S
C249 C250 1.476 . S
C249 H313 0.930 . S
C250 C249 1.476 . S
C250 C251 1.400 1_556 S
C250 C254 1.567 . S
C251 C250 1.400 1_554 S
C251 C252 1.373 . S
C251 C273 1.432 . S
C252 C251 1.373 . S
C252 C253 1.339 . S
C252 C255 1.530 . S
C253 C248 1.304 . S
C253 C252 1.339 . S
C253 H314 0.930 . S
C254 C250 1.567 . S
C254 H315 0.961 . S
C254 H316 0.960 . S
C254 H317 0.958 . S
C255 C252 1.530 . S
C255 H318 0.961 . S
C255 H319 0.960 . S
C255 H320 0.960 . S
C256 C257 1.530 . S
C256 H322 0.961 . S
C256 H323 0.961 . S
C256 H324 0.959 . S
C257 C256 1.530 . S
C257 O285 1.412 . S
C257 H321 0.980 1_556 S
C258 C259 1.288 . S
C258 C263 1.377 1_556 S
C258 O285 1.393 . S
C259 C258 1.288 . S
C259 C260 1.369 . S
C259 H325 0.932 . S
C260 C259 1.369 . S
C260 C261 1.398 . S
C260 C264 1.527 . S
C261 C260 1.398 . S
C261 C262 1.380 1_556 S
C261 C275 1.497 1_556 S
C262 C261 1.380 1_554 S
C262 C263 1.383 . S
C262 C265 1.603 . S
C263 C258 1.377 1_554 S
C263 C262 1.383 . S
C263 H326 0.929 . S
C264 C260 1.527 . S
C264 H327 0.961 . S
C264 H328 0.959 . S
C264 H329 0.959 . S
C265 C262 1.603 . S
C265 H330 0.960 . S
C265 H331 0.962 . S
C265 H332 0.961 . S
C266 C233 1.587 . S
C266 C267 1.360 . S
C266 C279 1.412 . S
C267 C266 1.360 . S
C267 C268 1.365 . S
C267 H333 0.929 . S
C268 C243 1.553 . S
C268 C267 1.365 . S
C268 C269 1.404 . S
C269 C268 1.404 . S
C269 C270 1.395 . S
C269 C280 1.451 . S
C270 C269 1.395 . S
C270 C271 1.322 . S
C270 H334 0.930 . S
C271 C270 1.322 . S
C271 C272 1.459 . S
C271 H335 0.929 . S
C272 C271 1.459 . S
C272 C273 1.445 . S
C272 C281 1.395 . S
C273 C251 1.432 . S
C273 C272 1.445 . S
C273 C274 1.370 . S
C274 C273 1.370 . S
C274 C275 1.438 . S
C274 H336 0.930 . S
C275 C261 1.497 1_554 S
C275 C274 1.438 . S
C275 C276 1.360 . S
C276 C275 1.360 . S
C276 C277 1.401 . S
C276 C281 1.446 . S
C277 C276 1.401 . S
C277 C278 1.347 . S
C277 H337 0.929 . S
C278 C277 1.347 . S
C278 C279 1.455 . S
C278 H338 0.930 . S
C279 C266 1.412 . S
C279 C278 1.455 . S
C279 C280 1.331 . S
C280 C269 1.451 . S
C280 C279 1.331 . S
C280 C281 1.497 . S
C281 C272 1.395 . S
C281 C276 1.446 . S
C281 C280 1.497 . S
C282 C283 1.582 . S
C282 H339 0.962 . S
C282 H340 0.959 . S
C282 H341 0.958 . S
C283 C282 1.582 . S
C283 O286 1.458 . S
C283 H312 0.980 . S
O284 C229 1.426 . S
O284 C230 1.334 . S
O285 C257 1.412 . S
O285 C258 1.393 . S
O286 C248 1.435 . S
O286 C283 1.458 . S
O287 C239 1.468 . S
O287 C240 1.408 . S
H288 C229 0.980 . S
H289 C228 0.959 . S
H290 C228 0.959 . S
H291 C228 0.960 . S
H292 C231 0.929 . S
H293 C235 0.929 . S
H294 C236 0.959 . S
H295 C236 0.961 . S
H296 C236 0.961 . S
H297 C237 0.960 . S
H298 C237 0.960 . S
H299 C237 0.961 . S
H300 C239 0.980 . S
H301 C238 0.961 . S
H302 C238 0.960 . S
H303 C238 0.959 . S
H304 C241 0.930 1_556 S
H305 C245 0.931 . S
H306 C246 0.959 . S
H307 C246 0.961 . S
H308 C246 0.959 . S
H309 C247 0.960 . S
H310 C247 0.960 . S
H311 C247 0.960 . S
H312 C283 0.980 . S
H313 C249 0.930 . S
H314 C253 0.930 . S
H315 C254 0.961 . S
H316 C254 0.960 . S
H317 C254 0.958 . S
H318 C255 0.961 . S
H319 C255 0.960 . S
H320 C255 0.960 . S
H321 C257 0.980 1_554 S
H322 C256 0.961 . S
H323 C256 0.961 . S
H324 C256 0.959 . S
H325 C259 0.932 . S
H326 C263 0.929 . S
H327 C264 0.961 . S
H328 C264 0.959 . S
H329 C264 0.959 . S
H330 C265 0.960 . S
H331 C265 0.962 . S
H332 C265 0.961 . S
H333 C267 0.929 . S
H334 C270 0.930 . S
H335 C271 0.929 . S
H336 C274 0.930 . S
H337 C277 0.929 . S
H338 C278 0.930 . S
H339 C282 0.962 . S
H340 C282 0.959 . S
H341 C282 0.958 . S
C342 O368 1.283 . S
C342 O386 1.283 . S
C343 O369 1.283 . S
C343 O384 1.283 . S
C344 O370 1.283 . S
C344 O387 1.283 . S
C345 O371 1.283 . S
C345 O385 1.283 . S
C346 O372 1.283 . S
C346 O381 1.283 . S
C347 O373 1.283 1_554 S
C347 O383 1.283 . S
C348 O374 1.283 . S
C348 O380 1.283 1_554 S
C349 O375 1.283 . S
C349 O382 1.283 . S
C350 O376 1.283 . S
C350 O391 1.283 . S
C351 O377 1.283 . S
C351 O389 1.283 . S
C352 O378 1.283 . S
C352 O390 1.283 . S
C353 O379 1.283 . S
C353 O388 1.283 . S
Eu354 O355 2.370 . S
Eu354 O356 2.370 1_454 S
Eu354 O359 2.370 1_554 S
Eu354 O360 2.370 1_455 S
Eu354 O368 2.363 1_554 S
Eu354 O369 2.363 . S
Eu354 O382 2.363 1_455 S
Eu354 O383 2.363 . S
O355 Eu354 2.370 . S
O355 Eu357 2.364 1_554 S
O355 Eu362 2.370 . S
O356 Eu354 2.370 1_656 S
O356 Eu358 2.370 1_556 S
O356 Eu361 2.370 1_655 S
Eu357 O355 2.364 1_556 S
Eu357 O359 2.376 . S
Eu357 O363 2.376 1_545 S
Eu357 O364 2.364 1_546 S
Eu357 O372 2.363 1_545 S
Eu357 O373 2.363 . S
Eu357 O388 2.373 . S
Eu357 O389 2.353 1_556 S
Eu358 O356 2.370 1_554 S
Eu358 O360 2.370 . S
Eu358 O365 2.370 1_545 S
Eu358 O366 2.370 1_544 S
Eu358 O374 2.363 1_545 S
Eu358 O375 2.363 . S
Eu358 O390 2.363 1_554 S
Eu358 O391 2.363 . S
O359 Eu354 2.370 1_556 S
O359 Eu357 2.376 . S
O359 Eu361 2.370 . S
O360 Eu354 2.370 1_655 S
O360 Eu358 2.370 . S
O360 Eu362 2.370 1_655 S
Eu361 O356 2.370 1_455 S
Eu361 O359 2.370 . S
Eu361 O363 2.370 1_545 S
Eu361 O366 2.370 1_445 S
Eu361 O378 2.363 1_455 S
Eu361 O379 2.363 . S
Eu361 O386 2.363 . S
Eu361 O387 2.363 1_545 S
Eu362 O355 2.370 . S
Eu362 O360 2.370 1_455 S
Eu362 O364 2.370 1_545 S
Eu362 O365 2.370 1_445 S
Eu362 O376 2.363 1_455 S
Eu362 O377 2.363 . S
Eu362 O384 2.363 . S
Eu362 O385 2.363 1_545 S
O363 Eu357 2.376 1_565 S
O363 Eu361 2.370 1_565 S
O363 Eu367 2.376 . S
O364 Eu357 2.364 1_564 S
O364 Eu362 2.370 1_565 S
O364 Eu367 2.364 1_554 S
O365 Eu358 2.370 1_565 S
O365 Eu362 2.370 1_665 S
O365 Eu367 2.364 1_654 S
O366 Eu358 2.370 1_566 S
O366 Eu361 2.370 1_665 S
O366 Eu367 2.377 1_655 S
Eu367 O363 2.376 . S
Eu367 O364 2.364 1_556 S
Eu367 O365 2.364 1_456 S
Eu367 O366 2.377 1_455 S
Eu367 O370 2.374 . S
Eu367 O371 2.352 1_556 S
Eu367 O380 2.363 1_455 S
Eu367 O381 2.363 . S
O368 C342 1.283 . S
O368 Eu354 2.363 1_556 S
O369 C343 1.283 . S
O369 Eu354 2.363 . S
O370 C344 1.283 . S
O370 Eu367 2.374 . S
O371 C345 1.283 . S
O371 Eu367 2.352 1_554 S
O372 C346 1.283 . S
O372 Eu357 2.363 1_565 S
O373 C347 1.283 1_556 S
O373 Eu357 2.363 . S
O374 C348 1.283 . S
O374 Eu358 2.363 1_565 S
O375 C349 1.283 . S
O375 Eu358 2.363 . S
O376 C350 1.283 . S
O376 Eu362 2.363 1_655 S
O377 C351 1.283 . S
O377 Eu362 2.363 . S
O378 C352 1.283 . S
O378 Eu361 2.363 1_655 S
O379 C353 1.283 . S
O379 Eu361 2.363 . S
O380 C348 1.283 1_556 S
O380 Eu367 2.363 1_655 S
O381 C346 1.283 . S
O381 Eu367 2.363 . S
O382 C349 1.283 . S
O382 Eu354 2.363 1_655 S
O383 C347 1.283 . S
O383 Eu354 2.363 . S
O384 C343 1.283 . S
O384 Eu362 2.363 . S
O385 C345 1.283 . S
O385 Eu362 2.363 1_565 S
O386 C342 1.283 . S
O386 Eu361 2.363 . S
O387 C344 1.283 . S
O387 Eu361 2.363 1_565 S
O388 C353 1.283 . S
O388 Eu357 2.373 . S
O389 C351 1.283 . S
O389 Eu357 2.353 1_554 S
O390 C352 1.283 . S
O390 Eu358 2.363 1_556 S
O391 C350 1.283 . S
O391 Eu358 2.363 . S
C343 C11 0.904 1_455 S
C350 C143 1.048 . S
C345 C1 0.941 . S
C351 C169 1.398 . S
C29 C344 0.972 . S
C353 C125 0.956 1_545 S
C55 C342 1.397 . S
C115 C352 1.066 . S
C283 C347 1.565 . S
C239 C346 1.124 1_554 S
C349 C257 1.213 1_554 S
C348 C229 1.084 1_554 S
