# Generated by pormake.
# Topology ssa, (4,4)-cn, num edge types: 1
# Building blocks:
#     Node 0, Type 0, BuildingBlock: ESEHIV_clean_sbu_0, # of connection points: 4
#     Node 1, Type 0, BuildingBlock: ESEHIV_clean_sbu_0, # of connection points: 4
#     Node 2, Type 0, BuildingBlock: ESEHIV_clean_sbu_0, # of connection points: 4
#     Node 3, Type 0, BuildingBlock: ESEHIV_clean_sbu_0, # of connection points: 4
#     Node 4, Type 0, BuildingBlock: ESEHIV_clean_sbu_0, # of connection points: 4
#     Node 5, Type 0, BuildingBlock: ESEHIV_clean_sbu_0, # of connection points: 4
#     Node 6, Type 1, BuildingBlock: GIZVER_clean_linker_0, # of connection points: 4
#     Node 7, Type 1, BuildingBlock: GIZVER_clean_linker_0, # of connection points: 4
#     Node 8, Type 1, BuildingBlock: GIZVER_clean_linker_0, # of connection points: 4
#     Node 9, Type 1, BuildingBlock: GIZVER_clean_linker_0, # of connection points: 4
#     Node 10, Type 1, BuildingBlock: GIZVER_clean_linker_0, # of connection points: 4
#     Node 11, Type 1, BuildingBlock: GIZVER_clean_linker_0, # of connection points: 4
#     Edge 12, Type (0, 1), BuildingBlock: TEMPAE_clean_linker_10, # of connection points: 2
#     Edge 13, Type (0, 1), BuildingBlock: TEMPAE_clean_linker_10, # of connection points: 2
#     Edge 14, Type (0, 1), BuildingBlock: TEMPAE_clean_linker_10, # of connection points: 2
#     Edge 15, Type (0, 1), BuildingBlock: TEMPAE_clean_linker_10, # of connection points: 2
#     Edge 16, Type (0, 1), BuildingBlock: TEMPAE_clean_linker_10, # of connection points: 2
#     Edge 17, Type (0, 1), BuildingBlock: TEMPAE_clean_linker_10, # of connection points: 2
#     Edge 18, Type (0, 1), BuildingBlock: TEMPAE_clean_linker_10, # of connection points: 2
#     Edge 19, Type (0, 1), BuildingBlock: TEMPAE_clean_linker_10, # of connection points: 2
#     Edge 20, Type (0, 1), BuildingBlock: TEMPAE_clean_linker_10, # of connection points: 2
#     Edge 21, Type (0, 1), BuildingBlock: TEMPAE_clean_linker_10, # of connection points: 2
#     Edge 22, Type (0, 1), BuildingBlock: TEMPAE_clean_linker_10, # of connection points: 2
#     Edge 23, Type (0, 1), BuildingBlock: TEMPAE_clean_linker_10, # of connection points: 2
#     Edge 24, Type (0, 1), BuildingBlock: TEMPAE_clean_linker_10, # of connection points: 2
#     Edge 25, Type (0, 1), BuildingBlock: TEMPAE_clean_linker_10, # of connection points: 2
#     Edge 26, Type (0, 1), BuildingBlock: TEMPAE_clean_linker_10, # of connection points: 2
#     Edge 27, Type (0, 1), BuildingBlock: TEMPAE_clean_linker_10, # of connection points: 2
#     Edge 28, Type (0, 1), BuildingBlock: TEMPAE_clean_linker_10, # of connection points: 2
#     Edge 29, Type (0, 1), BuildingBlock: TEMPAE_clean_linker_10, # of connection points: 2
#     Edge 30, Type (0, 1), BuildingBlock: TEMPAE_clean_linker_10, # of connection points: 2
#     Edge 31, Type (0, 1), BuildingBlock: TEMPAE_clean_linker_10, # of connection points: 2
#     Edge 32, Type (0, 1), BuildingBlock: TEMPAE_clean_linker_10, # of connection points: 2
#     Edge 33, Type (0, 1), BuildingBlock: TEMPAE_clean_linker_10, # of connection points: 2
#     Edge 34, Type (0, 1), BuildingBlock: TEMPAE_clean_linker_10, # of connection points: 2
#     Edge 35, Type (0, 1), BuildingBlock: TEMPAE_clean_linker_10, # of connection points: 2
# Relax obj value: 0.005
# Max RMSD: 0.107
# Mean RMSD: 0.064
data_MOF--net-ssa--node1-ESEHIV_clean_sbu_0--node2-GIZVER_clean_linker_0--edge1-TEMPAE_clean_linker_10
_symmetry_space_group_name_H-M    P1
_symmetry_Int_Tables_number       1
_symmetry_cell_setting            triclinic
loop_
_symmetry_equiv_pos_as_xyz
'x, y, z'
_cell_length_a     54.453362
_cell_length_b     57.944643
_cell_length_c     30.738076
_cell_angle_alpha  88.757497
_cell_angle_beta   90.430371
_cell_angle_gamma 122.70402
loop_
_atom_site_label
_atom_site_type_symbol
_atom_site_fract_x
_atom_site_fract_y
_atom_site_fract_z
_atom_type_partial_charge
Cu0 Cu 0.02456 0.53299 0.02176 0.0
N1 N 1.002 0.49456 0.01602 0.0
N2 N 0.97302 0.45089 0.99542 0.0
C3 C 0.99222 0.47728 0.98218 0.0
C4 C 0.97115 0.45188 0.03902 0.0
C5 C 0.98885 0.47855 0.05139 0.0
O6 O 0.99651 0.54443 0.02501 0.0
C7 C 0.06285 0.52653 0.07001 0.0
O8 O 0.05611 0.50938 0.03814 0.0
H9 H 0.99813 0.48406 0.94866 0.0
H10 H 0.99113 0.4861 0.084 0.0
N11 N 0.05137 0.55517 0.97735 0.0
N12 N 0.09439 0.59576 0.97199 0.0
C13 C 0.08021 0.56948 0.98637 0.0
C14 C 0.04789 0.57274 0.95269 0.0
C15 C 0.07414 0.59774 0.94985 0.0
C16 C 0.97744 0.53433 0.99482 0.0
O17 O 0.97889 0.51847 0.96653 0.0
H18 H 0.08958 0.56297 0.01066 0.0
H19 H 0.02699 0.56964 0.94449 0.0
O20 O 0.04969 0.53927 0.0723 0.0
H21 H 0.95671 0.43483 0.06048 0.0
H22 H 0.07694 0.61682 0.93833 0.0
Cu23 Cu 0.51523 0.01957 0.48694 0.0
N24 N 0.53459 0.01273 0.44413 0.0
N25 N 0.54486 0.98708 0.40439 0.0
C26 C 0.53242 0.98854 0.44109 0.0
C27 C 0.5554 1.01143 0.38345 0.0
C28 C 0.54908 0.02727 0.40816 0.0
O29 O 0.47777 0.98466 0.49395 0.0
C30 C 0.5641 0.03704 0.54398 0.0
O31 O 0.57351 0.02666 0.51605 0.0
H32 H 0.52049 0.97176 0.46433 0.0
H33 H 0.55375 0.04748 0.3997 0.0
N34 N 0.50934 0.04768 0.47121 0.0
N35 N 0.50519 0.08366 0.48152 0.0
C36 C 0.50866 0.06432 0.5004 0.0
C37 C 0.50633 0.0568 0.43214 0.0
C38 C 0.50373 0.07897 0.4384 0.0
C39 C 0.46322 0.97642 0.45875 0.0
O40 O 0.47294 0.9932 0.42475 0.0
H41 H 0.51143 0.06254 0.53494 0.0
H42 H 0.50624 0.04813 0.40129 0.0
O43 O 0.53889 0.03319 0.53926 0.0
H44 H 0.56636 0.01716 0.35217 0.0
H45 H 0.50083 0.09056 0.4131 0.0
Cu46 Cu 0.51945 0.49958 0.03311 0.0
N47 N 0.50904 0.46325 0.04266 0.0
N48 N 0.50122 0.42222 0.02663 0.0
C49 C 0.5075 0.44684 0.01095 0.0
C50 C 0.49875 0.42329 0.07014 0.0
C51 C 0.50359 0.44861 0.07992 0.0
O52 O 0.5519 0.51583 0.99217 0.0
C53 C 0.46547 0.4899 0.04367 0.0
O54 O 0.46778 0.47634 0.07656 0.0
H55 H 0.51186 0.4533 0.97709 0.0
H56 H 0.50343 0.45589 0.11195 0.0
N57 N 0.53156 0.5208 0.0832 0.0
N58 N 0.53688 0.55339 0.12747 0.0
C59 C 0.52809 0.54191 0.08809 0.0
C60 C 0.5432 0.51883 0.12078 0.0
C61 C 0.5466 0.53902 0.14816 0.0
C62 C 0.57397 0.51549 0.00529 0.0
O63 O 0.57316 0.5057 0.04459 0.0
H64 H 0.51907 0.54859 0.06305 0.0
H65 H 0.5484 0.5036 0.12806 0.0
O66 O 0.48553 0.50034 0.01482 0.0
H67 H 0.49375 0.40697 0.09331 0.0
H68 H 0.55482 0.54231 0.1811 0.0
Cu69 Cu 1.01334 0.50874 0.49715 0.0
N70 N 0.03111 0.50723 0.44679 0.0
N71 N 0.06877 0.51041 0.41198 0.0
C72 C 0.0509 0.50012 0.44698 0.0
C73 C 0.05909 0.52372 0.38802 0.0
C74 C 0.03606 0.52196 0.4098 0.0
O75 O 0.04437 0.5407 0.52657 0.0
C76 C 0.98368 0.47014 0.5659 0.0
O77 O 0.98841 0.49157 0.58725 0.0
H78 H 0.05372 0.48965 0.47422 0.0
H79 H 0.02584 0.53311 0.40161 0.0
N80 N 0.98421 0.51557 0.48539 0.0
N81 N 0.95097 0.52569 0.5004 0.0
C82 C 0.97463 0.52592 0.51457 0.0
C83 C 0.9661 0.50852 0.45122 0.0
C84 C 0.94553 0.51476 0.46039 0.0
C85 C 0.06988 0.54505 0.52931 0.0
O86 O 0.07248 0.52408 0.5369 0.0
H87 H 0.98397 0.53207 0.54665 0.0
H88 H 0.96711 0.4986 0.42249 0.0
O89 O 0.99483 0.47369 0.52824 0.0
H90 H 0.06958 0.53604 0.359 0.0
H91 H 0.92762 0.51095 0.43964 0.0
Cu92 Cu 0.51129 0.99028 0.98923 0.0
N93 N 0.49245 0.99982 0.94855 0.0
N94 N 0.48102 0.02685 0.91362 0.0
C95 C 0.49776 0.02529 0.94441 0.0
C96 C 0.46448 1.00145 0.89747 0.0
C97 C 0.47177 0.98477 0.91892 0.0
O98 O 0.54983 0.02363 -0.00341 0.0
C99 C 0.46171 0.95277 0.03286 0.0
O100 O 0.45569 0.94461 0.99249 0.0
H101 H 0.51361 0.04237 0.96373 0.0
H102 H 0.46276 0.96332 0.91301 0.0
N103 N 0.51625 0.96267 0.97057 0.0
N104 N 0.52091 0.92691 0.98002 0.0
C105 C 0.5214 0.9479 -0.00103 0.0
C106 C 0.51267 0.95093 0.93175 0.0
C107 C 0.51574 0.92883 0.93748 0.0
C108 C 0.56405 0.03163 0.96082 0.0
O109 O 0.55241 0.01593 0.92686 0.0
H110 H 0.52469 0.9522 0.03335 0.0
H111 H 0.50725 0.95735 0.90185 0.0
O112 O 0.48639 0.97448 0.04085 0.0
H113 H 0.44889 0.9956 0.87134 0.0
H114 H 0.51306 0.91462 0.91277 0.0
Cu115 Cu 0.51825 0.52915 0.54688 0.0
N116 N 0.52121 0.56092 0.56586 0.0
N117 N 0.52485 0.60097 0.55602 0.0
C118 C 0.52718 0.58132 0.53769 0.0
C119 C 0.5177 0.59287 0.59805 0.0
C120 C 0.51536 0.56798 0.60403 0.0
O121 O 0.49693 0.52102 0.49246 0.0
C122 C 0.57034 0.54259 0.58002 0.0
O123 O 0.55633 0.54393 0.61353 0.0
H124 H 0.53228 0.58114 0.5038 0.0
H125 H 0.50886 0.55556 0.63357 0.0
N126 N 0.49738 0.49896 0.58436 0.0
N127 N 0.48311 0.45816 0.61451 0.0
C128 C 0.50036 0.47741 0.58445 0.0
C129 C 0.47745 0.49327 0.61537 0.0
C130 C 0.46867 0.46807 0.63422 0.0
C131 C 0.47221 0.51835 0.49625 0.0
O132 O 0.46324 0.5198 0.53501 0.0
H133 H 0.5155 0.47627 0.56341 0.0
H134 H 0.46983 0.50641 0.62367 0.0
O135 O 0.55756 0.53648 0.54329 0.0
H136 H 0.51311 0.60342 0.62211 0.0
H137 H 0.4528 0.45781 0.66017 0.0
H138 H 0.27115 0.56207 0.18054 0.0
H139 H 0.28435 0.54929 0.31544 0.0
H140 H 0.19821 0.51986 0.26786 0.0
H141 H 0.31978 0.58562 0.20972 0.0
H142 H 0.32508 0.58485 0.26683 0.0
H143 H 0.31855 0.55066 0.16185 0.0
H144 H 0.36276 0.51301 0.2124 0.0
H145 H 0.33809 0.55442 0.29883 0.0
C146 C 0.26241 0.5529 0.21232 0.0
C147 C 0.23235 0.53989 0.22025 0.0
C148 C 0.28131 0.55525 0.24611 0.0
C149 C 0.26984 0.54554 0.28842 0.0
C150 C 0.23972 0.53239 0.29602 0.0
C151 C 0.22125 0.52874 0.26143 0.0
C152 C 0.31394 0.57156 0.23845 0.0
C153 C 0.32557 0.55336 0.23158 0.0
C154 C 0.32684 0.54491 0.18936 0.0
C155 C 0.33995 0.53002 0.18255 0.0
C156 C 0.35186 0.52378 0.21795 0.0
C157 C 0.35188 0.53288 0.25974 0.0
C158 C 0.33787 0.54696 0.26671 0.0
H159 H 0.72575 0.21706 0.70786 0.0
H160 H 0.74527 0.23406 0.84385 0.0
H161 H 0.69602 0.15093 0.80161 0.0
H162 H 0.74602 0.26255 0.73254 0.0
H163 H 0.74771 0.26859 0.78924 0.0
H164 H 0.79037 0.27982 0.69225 0.0
H165 H 0.87172 0.32512 0.75986 0.0
H166 H 0.792 0.27787 0.83268 0.0
C167 C 0.72549 0.20982 0.74075 0.0
C168 C 0.70859 0.18145 0.75061 0.0
C169 C 0.74004 0.22909 0.77399 0.0
C170 C 0.73674 0.2196 0.81757 0.0
C171 C 0.72091 0.19136 0.82737 0.0
C172 C 0.70841 0.17269 0.79355 0.0
C173 C 0.75429 0.25949 0.76394 0.0
C174 C 0.78739 0.27529 0.76262 0.0
C175 C 0.80246 0.28493 0.72244 0.0
C176 C 0.83306 0.30256 0.72142 0.0
C177 C 0.84839 0.31008 0.76065 0.0
C178 C 0.83398 0.30152 0.80086 0.0
C179 C 0.8034 0.28383 0.80172 0.0
H180 H 0.50444 0.71477 0.21663 0.0
H181 H 0.51351 0.74778 0.34447 0.0
H182 H 0.54291 0.69382 0.31981 0.0
H183 H 0.47726 0.73504 0.23584 0.0
H184 H 0.47573 0.74282 0.29108 0.0
H185 H 0.51402 0.76996 0.18559 0.0
H186 H 0.55023 0.8537 0.22131 0.0
H187 H 0.50786 0.78942 0.31803 0.0
C188 C 0.51265 0.71763 0.2496 0.0
C189 C 0.52485 0.70292 0.26473 0.0
C190 C 0.50877 0.73419 0.27818 0.0
C191 C 0.51777 0.73626 0.32176 0.0
C192 C 0.5306 0.72213 0.33672 0.0
C193 C 0.53441 0.70592 0.30782 0.0
C194 C 0.49106 0.74607 0.26439 0.0
C195 C 0.51003 0.77637 0.25344 0.0
C196 C 0.51945 0.78507 0.21027 0.0
C197 C 0.53402 0.81299 0.1983 0.0
C198 C 0.54032 0.83226 0.2305 0.0
C199 C 0.53107 0.82404 0.27361 0.0
C200 C 0.51593 0.79601 0.28505 0.0
H201 H 0.78261 0.58501 0.6894 0.0
H202 H 0.77381 0.57921 0.82924 0.0
H203 H 0.69761 0.5395 0.7487 0.0
H204 H 0.82345 0.61724 0.73656 0.0
H205 H 0.81948 0.6147 0.79434 0.0
H206 H 0.82404 0.57781 0.69809 0.0
H207 H 0.87823 0.55627 0.76625 0.0
H208 H 0.84273 0.59605 0.83403 0.0
C209 C 0.76908 0.57658 0.71833 0.0
C210 C 0.73857 0.56034 0.71417 0.0
C211 C 0.78206 0.58288 0.75991 0.0
C212 C 0.76408 0.57342 0.79724 0.0
C213 C 0.73356 0.55755 0.79328 0.0
C214 C 0.72118 0.55062 0.7518 0.0
C215 C 0.8147 0.6024 0.76456 0.0
C216 C 0.83066 0.58763 0.76624 0.0
C217 C 0.83411 0.57675 0.72795 0.0
C218 C 0.85116 0.56528 0.72775 0.0
C219 C 0.8647 0.56474 0.76644 0.0
C220 C 0.8622 0.57601 0.80491 0.0
C221 C 0.84456 0.58695 0.8048 0.0
H222 H 0.31057 0.77294 0.21768 0.0
H223 H 0.30502 0.76101 0.3572 0.0
H224 H 0.34591 0.84213 0.30154 0.0
H225 H 0.30356 0.73097 0.25136 0.0
H226 H 0.30012 0.72553 0.30861 0.0
H227 H 0.26098 0.7173 0.20594 0.0
H228 H 0.1771 0.6607 0.26489 0.0
H229 H 0.25298 0.70529 0.34492 0.0
C230 C 0.31363 0.78113 0.25004 0.0
C231 C 0.3286 0.80971 0.25517 0.0
C232 C 0.30425 0.76317 0.28665 0.0
C233 C 0.31029 0.7743 0.32878 0.0
C234 C 0.32485 0.80281 0.33395 0.0
C235 C 0.33322 0.82009 0.29717 0.0
C236 C 0.29312 0.73313 0.28064 0.0
C237 C 0.2602 0.71476 0.27609 0.0
C238 C 0.24724 0.70796 0.23445 0.0
C239 C 0.21724 0.68781 0.2296 0.0
C240 C 0.20037 0.6754 0.2675 0.0
C241 C 0.21303 0.68088 0.30903 0.0
C242 C 0.24283 0.70122 0.31316 0.0
H243 H 0.47114 0.25113 0.8308 0.0
H244 H 0.46861 0.26619 0.69324 0.0
H245 H 0.50589 0.33306 0.78165 0.0
H246 H 0.43848 0.2137 0.78198 0.0
H247 H 0.43641 0.22021 0.72566 0.0
H248 H 0.46523 0.19431 0.80428 0.0
H249 H 0.5135 0.18028 0.71032 0.0
H250 H 0.47548 0.22606 0.67311 0.0
C251 C 0.47704 0.26533 0.80347 0.0
C252 C 0.49064 0.29356 0.81104 0.0
C253 C 0.4698 0.25533 0.76067 0.0
C254 C 0.47565 0.27382 0.72581 0.0
C255 C 0.48895 0.30193 0.73326 0.0
C256 C 0.49704 0.31156 0.77562 0.0
C257 C 0.45201 0.2248 0.75271 0.0
C258 C 0.47074 0.21376 0.74123 0.0
C259 C 0.47501 0.19797 0.77227 0.0
C260 C 0.48947 0.18491 0.76079 0.0
C261 C 0.50182 0.18984 0.71914 0.0
C262 C 0.49617 0.20377 0.68688 0.0
C263 C 0.48075 0.21596 0.69811 0.0
C264 C 0.09366 0.53835 0.13732 0.0
C265 C 0.09089 0.53633 0.09211 0.0
C266 C 0.11909 0.54272 0.15769 0.0
C267 C 0.14214 0.5454 0.13201 0.0
C268 C 0.14016 0.54557 0.08619 0.0
C269 C 0.11449 0.54068 0.06693 0.0
C270 C 0.12016 0.54243 0.20666 0.0
C271 C 0.16429 0.5489 0.0574 0.0
C272 C 0.21584 0.56715 0.1814 0.0
C273 C 0.21243 0.54169 0.18955 0.0
C274 C 0.19312 0.56881 0.16302 0.0
C275 C 0.1665 0.5444 0.15228 0.0
C276 C 0.16342 0.51869 0.15913 0.0
C277 C 0.18639 0.51766 0.17783 0.0
C278 C 0.19703 0.59652 0.15735 0.0
C279 C 0.13546 0.49217 0.14813 0.0
H280 H 0.07542 0.53491 0.1568 0.0
H281 H 0.11249 0.53925 0.03182 0.0
H282 H 0.11145 0.5211 0.21827 0.0
H283 H 0.14277 0.5557 0.21889 0.0
H284 H 0.10641 0.54921 0.22083 0.0
H285 H 0.16133 0.5528 0.0228 0.0
H286 H 0.18586 0.56607 0.06844 0.0
H287 H 0.16461 0.52992 0.05942 0.0
H288 H 0.2356 0.58566 0.19197 0.0
H289 H 0.18354 0.49797 0.18527 0.0
H290 H 0.18253 0.59806 0.1806 0.0
H291 H 0.19069 0.59899 0.12412 0.0
H292 H 0.21987 0.61362 0.16325 0.0
H293 H 0.11708 0.49015 0.16701 0.0
H294 H 0.13666 0.47393 0.15531 0.0
H295 H 0.13042 0.49226 0.11311 0.0
C296 C 0.60744 0.05577 0.59311 0.0
C297 C 0.58479 0.05759 0.57522 0.0
C298 C 0.62827 0.07621 0.62058 0.0
C299 C 0.62701 0.09952 0.62903 0.0
C300 C 0.60442 0.10164 0.61035 0.0
C301 C 0.58333 0.08045 0.5843 0.0
C302 C 0.65137 0.07271 0.64105 0.0
C303 C 0.60263 0.12639 0.61763 0.0
C304 C 0.6604 0.13897 0.73253 0.0
C305 C 0.688 0.1609 0.71842 0.0
C306 C 0.64076 0.11877 0.70399 0.0
C307 C 0.64819 0.12085 0.6595 0.0
C308 C 0.67548 0.14335 0.64444 0.0
C309 C 0.6952 0.16297 0.67413 0.0
C310 C 0.61211 0.09499 0.72168 0.0
C311 C 0.68377 0.14672 0.59693 0.0
H312 H 0.60868 0.03818 0.58596 0.0
H313 H 0.5662 0.08223 0.56981 0.0
H314 H 0.6734 0.09022 0.63164 0.0
H315 H 0.64976 0.07261 0.67704 0.0
H316 H 0.64932 0.05338 0.63132 0.0
H317 H 0.58481 0.12568 0.59859 0.0
H318 H 0.59882 0.12773 0.65262 0.0
H319 H 0.62361 0.14541 0.60841 0.0
H320 H 0.65385 0.13757 0.76616 0.0
H321 H 0.7163 0.17977 0.66271 0.0
H322 H 0.61075 0.07546 0.71622 0.0
H323 H 0.59356 0.09379 0.70428 0.0
H324 H 0.60942 0.09666 0.75702 0.0
H325 H 0.68467 0.129 0.58644 0.0
H326 H 0.70526 0.16586 0.59009 0.0
H327 H 0.66692 0.14706 0.5769 0.0
C328 C 0.55459 0.59308 0.17559 0.0
C329 C 0.53496 0.57554 0.14408 0.0
C330 C 0.5528 0.61461 0.192 0.0
C331 C 0.53076 0.6187 0.17672 0.0
C332 C 0.51104 0.60121 0.14464 0.0
C333 C 0.51335 0.57987 0.12883 0.0
C334 C 0.57427 0.63279 0.22619 0.0
C335 C 0.48692 0.60442 0.1278 0.0
C336 C 0.50857 0.65421 0.25494 0.0
C337 C 0.524 0.68127 0.23863 0.0
C338 C 0.50982 0.63356 0.23424 0.0
C339 C 0.52726 0.64011 0.19645 0.0
C340 C 0.54211 0.66726 0.17887 0.0
C341 C 0.54018 0.68757 0.20011 0.0
C342 C 0.49311 0.60488 0.25362 0.0
C343 C 0.5607 0.67499 0.13844 0.0
H344 H 0.57153 0.5901 0.18721 0.0
H345 H 0.49774 0.56621 0.10507 0.0
H346 H 0.58552 0.65462 0.21549 0.0
H347 H 0.56248 0.63052 0.25687 0.0
H348 H 0.59097 0.62779 0.23312 0.0
H349 H 0.47677 0.59235 0.09805 0.0
H350 H 0.46976 0.59722 0.15317 0.0
H351 H 0.49524 0.62627 0.1203 0.0
H352 H 0.49589 0.64934 0.28463 0.0
H353 H 0.55217 0.70852 0.18762 0.0
H354 H 0.50858 0.59929 0.26541 0.0
H355 H 0.47925 0.58995 0.22847 0.0
H356 H 0.47896 0.60282 0.28124 0.0
H357 H 0.57917 0.67239 0.14476 0.0
H358 H 0.56963 0.69654 0.12763 0.0
H359 H 0.54773 0.66118 0.11156 0.0
C360 C 0.94655 0.55124 0.55972 0.0
C361 C 0.93371 0.53276 0.52553 0.0
C362 C 0.92972 0.55593 0.58804 0.0
C363 C 0.89921 0.54217 0.58173 0.0
C364 C 0.88624 0.52469 0.54584 0.0
C365 C 0.90362 0.52007 0.51827 0.0
C366 C 0.9445 0.57478 0.62586 0.0
C367 C 0.85387 0.51002 0.53759 0.0
C368 C 0.85904 0.53274 0.68716 0.0
C369 C 0.85751 0.55615 0.68676 0.0
C370 C 0.87088 0.52694 0.65185 0.0
C371 C 0.88102 0.54474 0.61485 0.0
C372 C 0.87712 0.567 0.61263 0.0
C373 C 0.86556 0.57256 0.64875 0.0
C374 C 0.87456 0.50294 0.65562 0.0
C375 C 0.88705 0.58611 0.57341 0.0
H376 H 0.96984 0.5617 0.56494 0.0
H377 H 0.89341 0.5057 0.49209 0.0
H378 H 0.93963 0.59106 0.62558 0.0
H379 H 0.93593 0.56298 0.65695 0.0
H380 H 0.96857 0.58469 0.62525 0.0
H381 H 0.84787 0.50034 0.5052 0.0
H382 H 0.84185 0.49377 0.5629 0.0
H383 H 0.84649 0.52445 0.5397 0.0
H384 H 0.85225 0.51962 0.71605 0.0
H385 H 0.86453 0.59073 0.64812 0.0
H386 H 0.89811 0.51067 0.65859 0.0
H387 H 0.8664 0.4904 0.62598 0.0
H388 H 0.86291 0.48953 0.68439 0.0
H389 H 0.91121 0.59965 0.57338 0.0
H390 H 0.87791 0.59923 0.57337 0.0
H391 H 0.88058 0.57436 0.54289 0.0
C392 C 0.41183 0.91533 0.05571 0.0
C393 C 0.44074 0.93489 0.06738 0.0
C394 C 0.39212 0.89535 0.08558 0.0
C395 C 0.40145 0.89476 0.12838 0.0
C396 C 0.43027 0.91511 0.14103 0.0
C397 C 0.44962 0.93504 0.11033 0.0
C398 C 0.36158 0.87422 0.07078 0.0
C399 C 0.44098 0.91518 0.18649 0.0
C400 C 0.34367 0.85368 0.21535 0.0
C401 C 0.34369 0.82947 0.21826 0.0
C402 C 0.36227 0.87506 0.18623 0.0
C403 C 0.38129 0.87215 0.15914 0.0
C404 C 0.38064 0.84736 0.16073 0.0
C405 C 0.36183 0.82631 0.19025 0.0
C406 C 0.36213 0.90105 0.18533 0.0
C407 C 0.40047 0.84339 0.13216 0.0
H408 H 0.40471 0.9152 0.02263 0.0
H409 H 0.47196 0.94996 0.11945 0.0
H410 H 0.35826 0.85356 0.072 0.0
H411 H 0.34524 0.87359 0.09294 0.0
H412 H 0.35726 0.87843 0.0371 0.0
H413 H 0.46324 0.93337 0.19207 0.0
H414 H 0.42586 0.91486 0.21086 0.0
H415 H 0.44135 0.8964 0.19221 0.0
H416 H 0.32967 0.85621 0.23693 0.0
H417 H 0.36238 0.80791 0.19289 0.0
H418 H 0.3578 0.90549 0.15186 0.0
H419 H 0.38391 0.91863 0.19483 0.0
H420 H 0.34548 0.89979 0.20767 0.0
H421 H 0.39689 0.84631 0.09743 0.0
H422 H 0.39688 0.8227 0.13666 0.0
H423 H 0.42361 0.85902 0.13959 0.0
C424 C 0.47574 0.42208 0.66695 0.0
C425 C 0.48191 0.43314 0.62452 0.0
C426 C 0.47665 0.39891 0.67783 0.0
C427 C 0.48381 0.38642 0.64542 0.0
C428 C 0.48919 0.39696 0.60223 0.0
C429 C 0.4882 0.42021 0.59231 0.0
C430 C 0.4708 0.3883 0.72437 0.0
C431 C 0.49666 0.38408 0.56678 0.0
C432 C 0.51506 0.34741 0.69474 0.0
C433 C 0.48991 0.32104 0.69951 0.0
C434 C 0.5139 0.36859 0.67402 0.0
C435 C 0.48692 0.36317 0.65772 0.0
C436 C 0.46217 0.33596 0.65859 0.0
C437 C 0.46397 0.31514 0.67952 0.0
C438 C 0.54091 0.39724 0.67327 0.0
C439 C 0.4331 0.32927 0.64112 0.0
H440 H 0.47114 0.43208 0.69204 0.0
H441 H 0.49249 0.42836 0.55927 0.0
H442 H 0.45309 0.36625 0.72559 0.0
H443 H 0.49062 0.39009 0.73827 0.0
H444 H 0.46447 0.39969 0.74527 0.0
H445 H 0.49829 0.3936 0.53428 0.0
H446 H 0.51782 0.38632 0.57412 0.0
H447 H 0.47992 0.36179 0.5654 0.0
H448 H 0.53515 0.35192 0.71008 0.0
H449 H 0.44442 0.29482 0.6835 0.0
H450 H 0.53833 0.4099 0.69714 0.0
H451 H 0.54404 0.40714 0.64074 0.0
H452 H 0.56085 0.39736 0.6817 0.0
H453 H 0.42335 0.3368 0.66388 0.0
H454 H 0.41758 0.30684 0.63745 0.0
H455 H 0.43582 0.33966 0.60915 0.0
C456 C 0.54547 0.94532 0.41919 0.0
C457 C 0.54421 0.96333 0.38935 0.0
C458 C 0.54375 0.92153 0.40528 0.0
C459 C 0.54027 0.91537 0.36048 0.0
C460 C 0.53894 0.93348 0.3302 0.0
C461 C 0.54115 0.95732 0.34497 0.0
C462 C 0.54572 0.90302 0.4385 0.0
C463 C 0.53484 0.9275 0.28219 0.0
C464 C 0.56134 0.86918 0.3098 0.0
C465 C 0.53404 0.84494 0.30404 0.0
C466 C 0.56385 0.89175 0.3304 0.0
C467 C 0.53836 0.89023 0.34488 0.0
C468 C 0.51087 0.86527 0.34117 0.0
C469 C 0.50906 0.84284 0.32099 0.0
C470 C 0.59363 0.91775 0.33443 0.0
C471 C 0.48313 0.86282 0.35587 0.0
H472 H 0.54808 0.95001 0.45347 0.0
H473 H 0.53972 0.97093 0.32188 0.0
H474 H 0.52561 0.88218 0.43774 0.0
H475 H 0.56429 0.90099 0.43042 0.0
H476 H 0.54871 0.91085 0.47206 0.0
H477 H 0.53371 0.94337 0.26301 0.0
H478 H 0.55315 0.92634 0.26947 0.0
H479 H 0.51445 0.90728 0.27691 0.0
H480 H 0.58063 0.87083 0.29649 0.0
H481 H 0.48789 0.82426 0.31591 0.0
H482 H 0.59703 0.92556 0.368 0.0
H483 H 0.59521 0.93383 0.31216 0.0
H484 H 0.61145 0.91462 0.32621 0.0
H485 H 0.48539 0.87009 0.38962 0.0
H486 H 0.46393 0.8414 0.35447 0.0
H487 H 0.47886 0.87603 0.33471 0.0
C488 C 0.62232 0.52155 0.99204 0.0
C489 C 0.59935 0.52382 0.97657 0.0
C490 C 0.64581 0.52758 0.96507 0.0
C491 C 0.64653 0.53625 0.92151 0.0
C492 C 0.6238 0.53924 0.90587 0.0
C493 C 0.60042 0.53292 0.93359 0.0
C494 C 0.66951 0.52401 0.98292 0.0
C495 C 0.62391 0.54858 0.8596 0.0
C496 C 0.71791 0.57217 0.85773 0.0
C497 C 0.71396 0.55108 0.83113 0.0
C498 C 0.69639 0.56754 0.88798 0.0
C499 C 0.67046 0.54116 0.89182 0.0
C500 C 0.66706 0.51947 0.86655 0.0
C501 C 0.68881 0.52473 0.83642 0.0
C502 C 0.70081 0.59117 0.91434 0.0
C503 C 0.63995 0.49095 0.87012 0.0
H504 H 0.62178 0.51456 0.02522 0.0
H505 H 0.5828 0.53476 0.92139 0.0
H506 H 0.66995 0.50791 0.9647 0.0
H507 H 0.69117 0.54331 0.97848 0.0
H508 H 0.66633 0.51812 0.01803 0.0
H509 H 0.60536 0.55106 0.85303 0.0
H510 H 0.64461 0.56843 0.85263 0.0
H511 H 0.62267 0.53345 0.8367 0.0
H512 H 0.7371 0.59266 0.8532 0.0
H513 H 0.68575 0.50841 0.81582 0.0
H514 H 0.6976 0.58551 0.94948 0.0
H515 H 0.68432 0.59598 0.9049 0.0
H516 H 0.7229 0.60995 0.9095 0.0
H517 H 0.6361 0.48353 0.90448 0.0
H518 H 0.64142 0.47605 0.84996 0.0
H519 H 0.62068 0.49137 0.85946 0.0
C520 C 0.08875 0.58665 0.48072 0.0
C521 C 0.0944 0.57 0.50727 0.0
C522 C 0.11023 0.60682 0.45266 0.0
C523 C 0.13834 0.61095 0.45154 0.0
C524 C 0.14477 0.59546 0.48028 0.0
C525 C 0.12271 0.57511 0.50765 0.0
C526 C 0.10215 0.62239 0.422 0.0
C527 C 0.17473 0.59988 0.48153 0.0
C528 C 0.17694 0.63475 0.34204 0.0
C529 C 0.19538 0.66324 0.34697 0.0
C530 C 0.15904 0.61756 0.37621 0.0
C531 C 0.15951 0.62899 0.4167 0.0
C532 C 0.17898 0.65754 0.42264 0.0
C533 C 0.19669 0.67437 0.38768 0.0
C534 C 0.13923 0.58715 0.36874 0.0
C535 C 0.18076 0.67032 0.46573 0.0
H536 H 0.06697 0.58287 0.47986 0.0
H537 H 0.12738 0.56254 0.52827 0.0
H538 H 0.11855 0.64475 0.42349 0.0
H539 H 0.102 0.61608 0.38811 0.0
H540 H 0.0803 0.61856 0.42946 0.0
H541 H 0.17463 0.58272 0.49859 0.0
H542 H 0.18367 0.60232 0.44828 0.0
H543 H 0.18977 0.61908 0.49898 0.0
H544 H 0.17645 0.62579 0.31118 0.0
H545 H 0.21105 0.6963 0.39189 0.0
H546 H 0.11615 0.58077 0.37285 0.0
H547 H 0.14364 0.57551 0.39327 0.0
H548 H 0.142 0.58133 0.33578 0.0
H549 H 0.15952 0.66774 0.47331 0.0
H550 H 0.19804 0.69254 0.46587 0.0
H551 H 0.18526 0.65973 0.49209 0.0
C552 C 0.50915 0.07553 0.89155 0.0
C553 C 0.48215 0.05112 0.89916 0.0
C554 C 0.51072 0.09888 0.87421 0.0
C555 C 0.4846 0.0979 0.86544 0.0
C556 C 0.4573 0.07373 0.87565 0.0
C557 C 0.4564 0.05043 0.89169 0.0
C558 C 0.54024 0.12389 0.86256 0.0
C559 C 0.429 0.07211 0.86788 0.0
C560 C 0.49026 0.16474 0.83439 0.0
C561 C 0.48817 0.16294 0.78889 0.0
C562 C 0.4887 0.14355 0.8601 0.0
C563 C 0.48566 0.12044 0.83969 0.0
C564 C 0.48348 0.11853 0.79392 0.0
C565 C 0.48402 0.13936 0.76937 0.0
C566 C 0.49021 0.14581 0.90898 0.0
C567 C 0.48064 0.09448 0.77062 0.0
H568 H 0.52902 0.07588 0.89725 0.0
H569 H 0.43559 0.03157 0.89828 0.0
H570 H 0.54245 0.12633 0.82661 0.0
H571 H 0.54242 0.14267 0.87524 0.0
H572 H 0.55843 0.12236 0.87548 0.0
H573 H 0.41017 0.0536 0.88371 0.0
H574 H 0.43039 0.09061 0.88034 0.0
H575 H 0.42476 0.07138 0.83243 0.0
H576 H 0.49328 0.18272 0.84986 0.0
H577 H 0.48098 0.13694 0.7345 0.0
H578 H 0.50966 0.14624 0.92125 0.0
H579 H 0.47075 0.12753 0.92402 0.0
H580 H 0.49137 0.16452 0.91992 0.0
H581 H 0.4987 0.09185 0.78017 0.0
H582 H 0.48104 0.09702 0.73464 0.0
H583 H 0.45988 0.07532 0.78007 0.0
C584 C 0.44029 0.4977 0.43136 0.0
C585 C 0.45679 0.52013 0.45825 0.0
C586 C 0.42228 0.49838 0.39893 0.0
C587 C 0.42146 0.52232 0.39295 0.0
C588 C 0.43882 0.54525 0.41952 0.0
C589 C 0.45581 0.54362 0.45239 0.0
C590 C 0.40358 0.47332 0.3719 0.0
C591 C 0.43938 0.57147 0.41341 0.0
C592 C 0.39748 0.53621 0.28472 0.0
C593 C 0.36929 0.52992 0.29438 0.0
C594 C 0.4143 0.5331 0.31615 0.0
C595 C 0.40288 0.52374 0.35857 0.0
C596 C 0.3744 0.51723 0.36859 0.0
C597 C 0.35797 0.52055 0.33639 0.0
C598 C 0.44453 0.54027 0.30414 0.0
C599 C 0.36134 0.50681 0.41335 0.0
H600 H 0.44063 0.47932 0.43679 0.0
H601 H 0.46811 0.56064 0.47408 0.0
H602 H 0.38021 0.46577 0.37679 0.0
H603 H 0.40851 0.47861 0.33682 0.0
H604 H 0.40689 0.45645 0.38039 0.0
H605 H 0.45347 0.58712 0.43765 0.0
H606 H 0.4476 0.58022 0.38031 0.0
H607 H 0.41699 0.56723 0.41617 0.0
H608 H 0.4066 0.54394 0.2525 0.0
H609 H 0.33615 0.51548 0.34387 0.0
H610 H 0.44719 0.52308 0.31281 0.0
H611 H 0.46099 0.55825 0.32291 0.0
H612 H 0.44921 0.54504 0.26885 0.0
H613 H 0.36209 0.48859 0.4226 0.0
H614 H 0.33835 0.50116 0.41522 0.0
H615 H 0.37434 0.52279 0.43766 0.0
C616 C 0.94115 0.40052 0.98844 0.0
C617 C 0.95486 0.42697 0.96936 0.0
C618 C 0.92059 0.37719 0.9656 0.0
C619 C 0.91406 0.38014 0.92207 0.0
C620 C 0.92879 0.40652 0.90178 0.0
C621 C 0.94883 0.42963 0.92574 0.0
C622 C 0.90524 0.34947 0.98849 0.0
C623 C 0.92289 0.41042 0.85498 0.0
C624 C 0.87937 0.32039 0.84508 0.0
C625 C 0.85126 0.31547 0.84029 0.0
C626 C 0.89975 0.34061 0.87303 0.0
C627 C 0.89157 0.35576 0.8977 0.0
C628 C 0.86235 0.34892 0.89638 0.0
C629 C 0.84254 0.32894 0.86744 0.0
C630 C 0.93066 0.34726 0.87327 0.0
C631 C 0.85255 0.36406 0.92319 0.0
H632 H 0.9461 0.39797 0.02167 0.0
H633 H 0.95905 0.4498 0.91057 0.0
H634 H 0.88143 0.34082 0.98984 0.0
H635 H 0.90832 0.33496 0.97008 0.0
H636 H 0.91324 0.35057 0.02221 0.0
H637 H 0.93729 0.43201 0.84325 0.0
H638 H 0.92608 0.39702 0.83367 0.0
H639 H 0.89985 0.40434 0.8515 0.0
H640 H 0.8861 0.3098 0.82445 0.0
H641 H 0.82096 0.32541 0.86376 0.0
H642 H 0.93867 0.34895 0.90705 0.0
H643 H 0.94519 0.36742 0.85667 0.0
H644 H 0.93262 0.33158 0.85632 0.0
H645 H 0.85976 0.36543 0.95741 0.0
H646 H 0.82846 0.35399 0.92281 0.0
H647 H 0.86268 0.38532 0.91011 0.0
C648 C 0.93067 0.5236 0.96324 0.0
C649 C 0.95593 0.54205 0.98631 0.0
C650 C 0.91372 0.53205 0.94261 0.0
C651 C 0.92187 0.55965 0.94569 0.0
C652 C 0.94534 0.57756 0.97327 0.0
C653 C 0.96237 0.56861 0.99307 0.0
C654 C 0.88899 0.51207 0.91371 0.0
C655 C 0.95392 0.60677 0.97916 0.0
C656 C 0.90794 0.58349 0.83836 0.0
C657 C 0.87934 0.57711 0.84391 0.0
C658 C 0.92289 0.57983 0.87234 0.0
C659 C 0.90934 0.57033 0.91368 0.0
C660 C 0.88176 0.56672 0.92088 0.0
C661 C 0.86689 0.56986 0.88575 0.0
C662 C 0.9522 0.58394 0.86278 0.0
C663 C 0.86709 0.55786 0.96487 0.0
H664 H 0.92531 0.50287 0.95855 0.0
H665 H 0.98181 0.58296 0.01101 0.0
H666 H 0.86893 0.5118 0.9209 0.0
H667 H 0.89488 0.51863 0.87914 0.0
H668 H 0.884 0.49084 0.91767 0.0
H669 H 0.96619 0.6152 0.00987 0.0
H670 H 0.9682 0.61972 0.95174 0.0
H671 H 0.93445 0.60827 0.97935 0.0
H672 H 0.91824 0.59018 0.80659 0.0
H673 H 0.84497 0.56526 0.89062 0.0
H674 H 0.95034 0.5639 0.86508 0.0
H675 H 0.96853 0.59755 0.88708 0.0
H676 H 0.96051 0.59299 0.82981 0.0
H677 H 0.8556 0.53525 0.96861 0.0
H678 H 0.85072 0.56353 0.96856 0.0
H679 H 0.88331 0.56719 0.99145 0.0
C680 C 0.42716 0.92819 0.48741 0.0
C681 C 0.43863 0.94752 0.45289 0.0
C682 C 0.40523 0.90045 0.48008 0.0
C683 C 0.39508 0.89185 0.43717 0.0
C684 C 0.40641 0.91143 0.40248 0.0
C685 C 0.42767 0.93887 0.41084 0.0
C686 C 0.39338 0.88034 0.51801 0.0
C687 C 0.39659 0.90335 0.35602 0.0
C688 C 0.3647 0.82272 0.38763 0.0
C689 C 0.3368 0.81632 0.37601 0.0
C690 C 0.38321 0.84577 0.41277 0.0
C691 C 0.37329 0.8625 0.42701 0.0
C692 C 0.34364 0.85364 0.42075 0.0
C693 C 0.32583 0.83082 0.39471 0.0
C694 C 0.41458 0.85433 0.41838 0.0
C695 C 0.33183 0.8703 0.43646 0.0
H696 H 0.43549 0.93464 0.51999 0.0
H697 H 0.4363 0.95349 0.3838 0.0
H698 H 0.3692 0.8672 0.51671 0.0
H699 H 0.40171 0.86664 0.51631 0.0
H700 H 0.39993 0.89084 0.54973 0.0
H701 H 0.40788 0.92103 0.33274 0.0
H702 H 0.40085 0.88755 0.34591 0.0
H703 H 0.37275 0.89428 0.35343 0.0
H704 H 0.37334 0.81177 0.37258 0.0
H705 H 0.30437 0.8261 0.38531 0.0
H706 H 0.42275 0.86287 0.45105 0.0
H707 H 0.42834 0.87061 0.39387 0.0
H708 H 0.41735 0.83689 0.41372 0.0
H709 H 0.34075 0.87889 0.4689 0.0
H710 H 0.30762 0.8578 0.43841 0.0
H711 H 0.33848 0.88772 0.41338 0.0
C712 C 0.50447 0.38123 0.02096 0.0
C713 C 0.49868 0.40006 0.00184 0.0
C714 C 0.50329 0.36039 0.99643 0.0
C715 C 0.49621 0.35832 0.95166 0.0
C716 C 0.48976 0.37689 0.93244 0.0
C717 C 0.49101 0.39739 0.9577 0.0
C718 C 0.51029 0.34101 0.01814 0.0
C719 C 0.482 0.37543 0.88484 0.0
C720 C 0.52078 0.32875 0.86623 0.0
C721 C 0.49429 0.30482 0.85529 0.0
C722 C 0.5223 0.34529 0.9002 0.0
C723 C 0.49669 0.3377 0.92388 0.0
C724 C 0.4706 0.31211 0.91587 0.0
C725 C 0.4697 0.29594 0.88159 0.0
C726 C 0.55066 0.37221 0.90772 0.0
C727 C 0.44288 0.30303 0.94063 0.0
H728 H 0.51066 0.38318 0.05488 0.0
H729 H 0.4859 0.41139 0.94275 0.0
H730 H 0.49268 0.31943 0.01197 0.0
H731 H 0.5307 0.34433 0.00408 0.0
H732 H 0.51313 0.34391 0.05384 0.0
H733 H 0.47686 0.39094 0.87511 0.0
H734 H 0.50045 0.37879 0.86448 0.0
H735 H 0.46286 0.35476 0.87753 0.0
H736 H 0.53981 0.33567 0.84586 0.0
H737 H 0.44911 0.27762 0.87299 0.0
H738 H 0.55526 0.3756 0.94301 0.0
H739 H 0.54895 0.38927 0.89451 0.0
H740 H 0.56938 0.37317 0.89154 0.0
H741 H 0.44733 0.30688 0.97588 0.0
H742 H 0.4262 0.2809 0.93622 0.0
H743 H 0.43368 0.31504 0.92881 0.0
C744 C 0.11189 0.51175 0.44215 0.0
C745 C 0.09593 0.51197 0.40611 0.0
C746 C 0.13885 0.51422 0.43682 0.0
C747 C 0.15041 0.5175 0.39447 0.0
C748 C 0.13449 0.51792 0.35804 0.0
C749 C 0.10745 0.515 0.36431 0.0
C750 C 0.15505 0.51387 0.47661 0.0
C751 C 0.14608 0.52159 0.31223 0.0
C752 C 0.22843 0.55045 0.35871 0.0
C753 C 0.22681 0.52789 0.33982 0.0
C754 C 0.20458 0.54713 0.38193 0.0
C755 C 0.17908 0.52057 0.38707 0.0
C756 C 0.17973 0.49744 0.37513 0.0
C757 C 0.20368 0.50138 0.35137 0.0
C758 C 0.20513 0.57229 0.39524 0.0
C759 C 0.1535 0.4687 0.38174 0.0
H760 H 0.10368 0.51021 0.47474 0.0
H761 H 0.09527 0.51515 0.3364 0.0
H762 H 0.16558 0.5023 0.47086 0.0
H763 H 0.17248 0.53521 0.48449 0.0
H764 H 0.14038 0.50467 0.50537 0.0
H765 H 0.13125 0.52195 0.28777 0.0
H766 H 0.16773 0.54106 0.3091 0.0
H767 H 0.14896 0.50457 0.30455 0.0
H768 H 0.24631 0.57097 0.34971 0.0
H769 H 0.20242 0.48392 0.33672 0.0
H770 H 0.19557 0.56914 0.42817 0.0
H771 H 0.19173 0.57602 0.37228 0.0
H772 H 0.22763 0.59085 0.39518 0.0
H773 H 0.14318 0.46635 0.41391 0.0
H774 H 0.15942 0.45318 0.37937 0.0
H775 H 0.13708 0.46449 0.35631 0.0
C776 C 0.60756 0.07561 0.98966 0.0
C777 C 0.5914 0.05901 0.95469 0.0
C778 C 0.63336 0.10162 0.98227 0.0
C779 C 0.64292 0.11114 0.93898 0.0
C780 C 0.6264 0.09443 0.90378 0.0
C781 C 0.60112 0.06872 0.91211 0.0
C782 C 0.65057 0.11855 0.02067 0.0
C783 C 0.63529 0.10364 0.85693 0.0
C784 C 0.68819 0.18172 0.88971 0.0
C785 C 0.71084 0.18012 0.87199 0.0
C786 C 0.66752 0.16093 0.91795 0.0
C787 C 0.66997 0.13837 0.92884 0.0
C788 C 0.69573 0.13947 0.91729 0.0
C789 C 0.71578 0.16024 0.88847 0.0
C790 C 0.64075 0.16097 0.93008 0.0
C791 C 0.69985 0.11645 0.92958 0.0
H792 H 0.60023 0.06823 0.02267 0.0
H793 H 0.58873 0.05627 0.88475 0.0
H794 H 0.67019 0.11748 0.02485 0.0
H795 H 0.65822 0.14044 0.01527 0.0
H796 H 0.6376 0.11099 0.05128 0.0
H797 H 0.6197 0.08829 0.8335 0.0
H798 H 0.6367 0.12323 0.85038 0.0
H799 H 0.65715 0.10727 0.85058 0.0
H800 H 0.68428 0.19705 0.87692 0.0
H801 H 0.73334 0.15901 0.87481 0.0
H802 H 0.633 0.1522 0.96328 0.0
H803 H 0.62294 0.14809 0.90696 0.0
H804 H 0.64502 0.18201 0.92846 0.0
H805 H 0.69168 0.10858 0.96303 0.0
H806 H 0.72318 0.12317 0.92752 0.0
H807 H 0.68726 0.09928 0.90689 0.0
C808 C 0.53488 0.64819 0.55479 0.0
C809 C 0.52648 0.62385 0.53336 0.0
C810 C 0.53742 0.67075 0.53195 0.0
C811 C 0.53143 0.66877 0.48677 0.0
C812 C 0.52226 0.64399 0.46538 0.0
C813 C 0.51995 0.622 0.48888 0.0
C814 C 0.54733 0.6968 0.55591 0.0
C815 C 0.51519 0.64064 0.4173 0.0
C816 C 0.51075 0.70708 0.41162 0.0
C817 C 0.53497 0.71931 0.38362 0.0
C818 C 0.51068 0.69355 0.45011 0.0
C819 C 0.53538 0.69236 0.46033 0.0
C820 C 0.5614 0.70854 0.43582 0.0
C821 C 0.56084 0.72177 0.39745 0.0
C822 C 0.48277 0.67724 0.4761 0.0
C823 C 0.58849 0.7085 0.44626 0.0
H824 H 0.54012 0.64983 0.5891 0.0
H825 H 0.51294 0.60324 0.47209 0.0
H826 H 0.57085 0.71175 0.54917 0.0
H827 H 0.53531 0.70635 0.54482 0.0
H828 H 0.54441 0.69308 0.59166 0.0
H829 H 0.50832 0.61995 0.4058 0.0
H830 H 0.49735 0.64405 0.41032 0.0
H831 H 0.53455 0.6561 0.39801 0.0
H832 H 0.49073 0.70526 0.40108 0.0
H833 H 0.5797 0.73156 0.37597 0.0
H834 H 0.48737 0.67756 0.51138 0.0
H835 H 0.47074 0.65555 0.46583 0.0
H836 H 0.46844 0.68522 0.47077 0.0
H837 H 0.59203 0.70907 0.4819 0.0
H838 H 0.60818 0.72621 0.4305 0.0
H839 H 0.58582 0.68935 0.43422 0.0
C840 C 0.4964 0.10187 0.54765 0.0
C841 C 0.50389 0.10493 0.50335 0.0
C842 C 0.49625 0.12263 0.57008 0.0
C843 C 0.50338 0.14715 0.54771 0.0
C844 C 0.51028 0.15023 0.50277 0.0
C845 C 0.51059 0.12917 0.48117 0.0
C846 C 0.48876 0.11837 0.61808 0.0
C847 C 0.51783 0.17596 0.47772 0.0
C848 C 0.47679 0.1836 0.61444 0.0
C849 C 0.50107 0.19941 0.64108 0.0
C850 C 0.47807 0.16861 0.58008 0.0
C851 C 0.50421 0.16949 0.57245 0.0
C852 C 0.52975 0.18832 0.59552 0.0
C853 C 0.5279 0.2032 0.62941 0.0
C854 C 0.45048 0.14935 0.55562 0.0
C855 C 0.55818 0.1902 0.58839 0.0
H856 H 0.49051 0.08313 0.56507 0.0
H857 H 0.51664 0.13198 0.44711 0.0
H858 H 0.50728 0.13466 0.63698 0.0
H859 H 0.46962 0.11987 0.62418 0.0
H860 H 0.4837 0.09812 0.63066 0.0
H861 H 0.51989 0.17413 0.44222 0.0
H862 H 0.50094 0.18075 0.4831 0.0
H863 H 0.53881 0.19356 0.48962 0.0
H864 H 0.45596 0.18047 0.62338 0.0
H865 H 0.54673 0.21547 0.64993 0.0
H866 H 0.44064 0.12824 0.56924 0.0
H867 H 0.45519 0.14898 0.52068 0.0
H868 H 0.4342 0.15518 0.55844 0.0
H869 H 0.55689 0.17214 0.60412 0.0
H870 H 0.57692 0.20905 0.60259 0.0
H871 H 0.5624 0.18997 0.55323 0.0
C872 C 0.42741 0.49862 0.01568 0.0
C873 C 0.44577 0.4998 0.04894 0.0
C874 C 0.4064 0.50516 0.024 0.0
C875 C 0.40415 0.51324 0.0663 0.0
C876 C 0.42428 0.51637 0.0988 0.0
C877 C 0.44452 0.50934 0.08979 0.0
C878 C 0.38592 0.50231 0.9882 0.0
C879 C 0.42364 0.52588 0.144 0.0
C880 C 0.3669 0.54602 0.11231 0.0
C881 C 0.34604 0.52419 0.13865 0.0
C882 C 0.38359 0.54206 0.08228 0.0
C883 C 0.37936 0.51576 0.07925 0.0
C884 C 0.35496 0.493 0.10038 0.0
C885 C 0.33855 0.49752 0.12991 0.0
C886 C 0.40832 0.56682 0.05893 0.0
C887 C 0.34897 0.46445 0.09729 0.0
H888 H 0.42858 0.49145 0.98394 0.0
H889 H 0.45923 0.51088 0.11523 0.0
H890 H 0.3646 0.48269 0.99291 0.0
H891 H 0.38194 0.51917 0.98896 0.0
H892 H 0.39456 0.50223 0.95561 0.0
H893 H 0.44219 0.52913 0.1643 0.0
H894 H 0.42446 0.54542 0.14212 0.0
H895 H 0.40299 0.5104 0.16071 0.0
H896 H 0.37266 0.5667 0.1188 0.0
H897 H 0.32221 0.48059 0.15008 0.0
H898 H 0.41594 0.56122 0.03002 0.0
H899 H 0.42685 0.578 0.08167 0.0
H900 H 0.40157 0.58107 0.04854 0.0
H901 H 0.35217 0.46019 0.06352 0.0
H902 H 0.32642 0.4486 0.10802 0.0
H903 H 0.36448 0.46265 0.1185 0.0
C904 C 0.94807 0.41985 0.55429 0.0
C905 C 0.96208 0.44203 0.5827 0.0
C906 C 0.9253 0.39374 0.56896 0.0
C907 C 0.91665 0.3896 0.61322 0.0
C908 C 0.93136 0.41172 0.64228 0.0
C909 C 0.95367 0.43767 0.62659 0.0
C910 C 0.90994 0.37084 0.53688 0.0
C911 C 0.92324 0.40809 0.68996 0.0
C912 C 0.8427 0.33497 0.65948 0.0
C913 C 0.84965 0.31781 0.6815 0.0
C914 C 0.86364 0.35718 0.63344 0.0
C915 C 0.89215 0.36235 0.62975 0.0
C916 C 0.89811 0.34323 0.64791 0.0
C917 C 0.87668 0.32104 0.67325 0.0
C918 C 0.85611 0.37663 0.61363 0.0
C919 C 0.92808 0.34778 0.64481 0.0
H920 H 0.9542 0.42309 0.52019 0.0
H921 H 0.96441 0.45466 0.64873 0.0
H922 H 0.90985 0.35257 0.54871 0.0
H923 H 0.88683 0.36459 0.5338 0.0
H924 H 0.9203 0.37695 0.50413 0.0
H925 H 0.93756 0.42702 0.70857 0.0
H926 H 0.90033 0.40233 0.69363 0.0
H927 H 0.92469 0.3912 0.70466 0.0
H928 H 0.82194 0.3327 0.6659 0.0
H929 H 0.88206 0.30773 0.69017 0.0
H930 H 0.86505 0.38294 0.58011 0.0
H931 H 0.86605 0.39543 0.6333 0.0
H932 H 0.83215 0.36734 0.61262 0.0
H933 H 0.93709 0.35434 0.61139 0.0
H934 H 0.92784 0.32902 0.6541 0.0
H935 H 0.94308 0.3644 0.66705 0.0
C936 C 0.53479 0.89258 0.98181 0.0
C937 C 0.52293 0.90585 0.0023 0.0
C938 C 0.5385 0.87339 0.00485 0.0
C939 C 0.53044 0.86772 0.04938 0.0
C940 C 0.51754 0.88042 0.06962 0.0
C941 C 0.51373 0.89903 0.04575 0.0
C942 C 0.55184 0.85996 0.98185 0.0
C943 C 0.50833 0.8749 0.11698 0.0
C944 C 0.51417 0.80878 0.12332 0.0
C945 C 0.53785 0.82215 0.15192 0.0
C946 C 0.51321 0.82216 0.08533 0.0
C947 C 0.53623 0.84956 0.07639 0.0
C948 C 0.56194 0.86147 0.10168 0.0
C949 C 0.56253 0.84748 0.13906 0.0
C950 C 0.48594 0.80828 0.05805 0.0
C951 C 0.58725 0.89044 0.09288 0.0
H952 H 0.54189 0.89775 0.94821 0.0
H953 H 0.50363 0.90846 0.06139 0.0
H954 H 0.57537 0.87077 0.98995 0.0
H955 H 0.54144 0.83819 0.99243 0.0
H956 H 0.54991 0.86094 0.94595 0.0
H957 H 0.49873 0.88659 0.12767 0.0
H958 H 0.49193 0.85273 0.12259 0.0
H959 H 0.52742 0.88052 0.13786 0.0
H960 H 0.49507 0.78908 0.13269 0.0
H961 H 0.58122 0.85756 0.16052 0.0
H962 H 0.4913 0.81358 0.02303 0.0
H963 H 0.47158 0.81541 0.06789 0.0
H964 H 0.47358 0.78562 0.06248 0.0
H965 H 0.59196 0.89431 0.05752 0.0
H966 H 0.60732 0.8948 0.11002 0.0
H967 H 0.58153 0.90501 0.10435 0.0
C968 C 0.61134 0.55249 0.62885 0.0
C969 C 0.59942 0.54662 0.58691 0.0
C970 C 0.63777 0.55483 0.63805 0.0
C971 C 0.65316 0.55153 0.60436 0.0
C972 C 0.64184 0.54645 0.56149 0.0
C973 C 0.61491 0.54384 0.55329 0.0
C974 C 0.6488 0.56021 0.6844 0.0
C975 C 0.65758 0.54298 0.52457 0.0
C976 C 0.72828 0.58 0.64893 0.0
C977 C 0.72365 0.55682 0.67196 0.0
C978 C 0.70682 0.57799 0.62063 0.0
C979 C 0.68026 0.55232 0.61587 0.0
C980 C 0.67771 0.52836 0.63362 0.0
C981 C 0.69952 0.53091 0.66151 0.0
C982 C 0.71092 0.6039 0.60084 0.0
C983 C 0.65014 0.50047 0.62856 0.0
H984 H 0.59972 0.55481 0.6551 0.0
H985 H 0.60587 0.53931 0.52077 0.0
H986 H 0.65058 0.54307 0.69696 0.0
H987 H 0.67088 0.57922 0.68555 0.0
H988 H 0.63427 0.56247 0.70664 0.0
H989 H 0.65055 0.54655 0.49246 0.0
H990 H 0.68158 0.55715 0.52737 0.0
H991 H 0.65261 0.52172 0.52556 0.0
H992 H 0.747 0.60007 0.65668 0.0
H993 H 0.69615 0.51291 0.67889 0.0
H994 H 0.69978 0.61103 0.62155 0.0
H995 H 0.70113 0.60014 0.56792 0.0
H996 H 0.73439 0.62052 0.59852 0.0
H997 H 0.63313 0.49847 0.6509 0.0
H998 H 0.65371 0.4837 0.63657 0.0
H999 H 0.6417 0.49786 0.59491 0.0
C1000 C 0.14405 0.61704 0.00142 0.0
C1001 C 0.11874 0.61742 0.99553 0.0
C1002 C 0.16444 0.63267 0.03382 0.0
C1003 C 0.15892 0.64844 0.06208 0.0
C1004 C 0.13439 0.65038 0.05416 0.0
C1005 C 0.1148 0.63507 0.02077 0.0
C1006 C 0.19044 0.63014 0.03934 0.0
C1007 C 0.1271 0.66633 0.08377 0.0
C1008 C 0.18059 0.65043 0.18049 0.0
C1009 C 0.20352 0.67797 0.18558 0.0
C1010 C 0.16606 0.64084 0.14072 0.0
C1011 C 0.17531 0.65871 0.10392 0.0
C1012 C 0.19938 0.6861 0.10783 0.0
C1013 C 0.21291 0.69553 0.14866 0.0
C1014 C 0.14044 0.61151 0.13829 0.0
C1015 C 0.21083 0.70535 0.06881 0.0
H1016 H 0.147 0.60319 0.9823 0.0
H1017 H 0.09495 0.63499 0.01703 0.0
H1018 H 0.20078 0.63243 0.00719 0.0
H1019 H 0.20717 0.64547 0.06161 0.0
H1020 H 0.18284 0.60925 0.052 0.0
H1021 H 0.10956 0.66866 0.07022 0.0
H1022 H 0.11966 0.65544 0.11577 0.0
H1023 H 0.14666 0.687 0.08961 0.0
H1024 H 0.17379 0.63606 0.20772 0.0
H1025 H 0.23056 0.71678 0.15162 0.0
H1026 H 0.145 0.60039 0.11402 0.0
H1027 H 0.12069 0.61099 0.1273 0.0
H1028 H 0.13551 0.6004 0.17012 0.0
H1029 H 0.21625 0.69606 0.04234 0.0
H1030 H 0.2306 0.72559 0.07653 0.0
H1031 H 0.19377 0.70862 0.05622 0.0
loop_
_geom_bond_atom_site_label_1
_geom_bond_atom_site_label_2
_geom_bond_distance
_geom_bond_site_symmetry_2
_ccdc_geom_bond_type
Cu0 N1 1.999 1_454 S
Cu0 O6 1.974 1_454 S
Cu0 N11 1.985 . S
Cu0 O20 1.959 . S
N1 Cu0 1.999 1_656 S
N1 C3 1.263 . S
N1 C5 1.389 1_556 S
N2 C3 1.358 . S
N2 C4 1.400 . S
C3 N1 1.263 . S
C3 N2 1.358 . S
C3 H9 0.930 . S
C4 N2 1.400 . S
C4 C5 1.351 1_556 S
C4 H21 0.932 . S
C5 N1 1.389 1_554 S
C5 C4 1.351 1_554 S
C5 H10 0.930 . S
O6 Cu0 1.974 1_656 S
O6 C16 1.282 . S
C7 O8 1.261 1_554 S
C7 O20 1.251 . S
O8 C7 1.261 1_556 S
H9 C3 0.930 . S
H10 C5 0.930 . S
N11 Cu0 1.985 . S
N11 C13 1.335 . S
N11 C14 1.390 . S
N12 C13 1.345 . S
N12 C15 1.336 . S
C13 N11 1.335 . S
C13 N12 1.345 . S
C13 H18 0.930 . S
C14 N11 1.390 . S
C14 C15 1.346 . S
C14 H19 0.930 1_554 S
C15 N12 1.336 . S
C15 C14 1.346 . S
C15 H22 0.929 . S
C16 O6 1.282 . S
C16 O17 1.216 1_655 S
O17 C16 1.216 1_455 S
H18 C13 0.930 . S
H19 C14 0.930 1_556 S
O20 Cu0 1.959 . S
O20 C7 1.251 . S
H21 C4 0.932 . S
H22 C15 0.929 . S
Cu23 N24 1.999 . S
Cu23 O29 1.974 . S
Cu23 N34 1.985 1_565 S
Cu23 O43 1.959 1_565 S
N24 Cu23 1.999 . S
N24 C26 1.263 . S
N24 C28 1.389 . S
N25 C26 1.358 . S
N25 C27 1.400 . S
C26 N24 1.263 . S
C26 N25 1.358 . S
C26 H32 0.930 . S
C27 N25 1.400 . S
C27 C28 1.351 . S
C27 H44 0.930 . S
C28 N24 1.389 . S
C28 C27 1.351 . S
C28 H33 0.930 . S
O29 Cu23 1.974 . S
O29 C39 1.282 . S
C30 O31 1.261 . S
C30 O43 1.251 . S
O31 C30 1.261 . S
H32 C26 0.930 . S
H33 C28 0.930 . S
N34 Cu23 1.985 1_545 S
N34 C36 1.335 . S
N34 C37 1.390 . S
N35 C36 1.345 . S
N35 C38 1.336 . S
C36 N34 1.335 . S
C36 N35 1.345 . S
C36 H41 0.930 . S
C37 N34 1.390 . S
C37 C38 1.346 . S
C37 H42 0.930 . S
C38 N35 1.336 . S
C38 C37 1.346 . S
C38 H45 0.929 . S
C39 O29 1.282 . S
C39 O40 1.216 . S
O40 C39 1.216 . S
H41 C36 0.930 . S
H42 C37 0.930 . S
O43 Cu23 1.959 1_545 S
O43 C30 1.251 . S
H44 C27 0.930 . S
H45 C38 0.929 . S
Cu46 N47 1.999 1_554 S
Cu46 O52 1.974 1_554 S
Cu46 N57 1.985 . S
Cu46 O66 1.959 . S
N47 Cu46 1.999 1_556 S
N47 C49 1.263 . S
N47 C51 1.389 . S
N48 C49 1.358 . S
N48 C50 1.400 . S
C49 N47 1.263 . S
C49 N48 1.358 . S
C49 H55 0.930 . S
C50 N48 1.400 . S
C50 C51 1.351 . S
C50 H67 0.930 . S
C51 N47 1.389 . S
C51 C50 1.351 . S
C51 H56 0.930 . S
O52 Cu46 1.974 1_556 S
O52 C62 1.282 . S
C53 O54 1.261 . S
C53 O66 1.251 . S
O54 C53 1.261 . S
H55 C49 0.930 . S
H56 C51 0.930 . S
N57 Cu46 1.985 . S
N57 C59 1.335 . S
N57 C60 1.390 . S
N58 C59 1.345 . S
N58 C61 1.336 . S
C59 N57 1.335 . S
C59 N58 1.345 . S
C59 H64 0.930 . S
C60 N57 1.390 . S
C60 C61 1.346 . S
C60 H65 0.930 . S
C61 N58 1.336 . S
C61 C60 1.346 . S
C61 H68 0.929 . S
C62 O52 1.282 . S
C62 O63 1.216 1_556 S
O63 C62 1.216 1_554 S
H64 C59 0.930 . S
H65 C60 0.930 . S
O66 Cu46 1.959 . S
O66 C53 1.251 . S
H67 C50 0.930 . S
H68 C61 0.929 . S
Cu69 N70 1.999 1_655 S
Cu69 O75 1.974 1_655 S
Cu69 N80 1.985 . S
Cu69 O89 1.959 . S
N70 Cu69 1.999 1_455 S
N70 C72 1.263 . S
N70 C74 1.389 1_455 S
N71 C72 1.358 . S
N71 C73 1.400 . S
C72 N70 1.263 . S
C72 N71 1.358 . S
C72 H78 0.930 . S
C73 N71 1.400 . S
C73 C74 1.351 1_455 S
C73 H90 0.930 . S
C74 N70 1.389 1_655 S
C74 C73 1.351 1_655 S
C74 H79 0.930 . S
O75 Cu69 1.974 1_455 S
O75 C85 1.282 . S
C76 O77 1.261 . S
C76 O89 1.251 . S
O77 C76 1.261 . S
H78 C72 0.930 . S
H79 C74 0.930 . S
N80 Cu69 1.985 . S
N80 C82 1.335 . S
N80 C83 1.390 . S
N81 C82 1.345 . S
N81 C84 1.336 . S
C82 N80 1.335 . S
C82 N81 1.345 . S
C82 H87 0.930 . S
C83 N80 1.390 . S
C83 C84 1.346 . S
C83 H88 0.930 1_655 S
C84 N81 1.336 . S
C84 C83 1.346 . S
C84 H91 0.929 . S
C85 O75 1.282 . S
C85 O86 1.216 . S
O86 C85 1.216 . S
H87 C82 0.930 . S
H88 C83 0.930 1_455 S
O89 Cu69 1.959 . S
O89 C76 1.251 . S
H90 C73 0.930 . S
H91 C84 0.929 . S
Cu92 N93 1.999 . S
Cu92 O98 1.974 . S
Cu92 N103 1.985 1_545 S
Cu92 O112 1.959 1_545 S
N93 Cu92 1.999 . S
N93 C95 1.263 1_554 S
N93 C97 1.389 . S
N94 C95 1.358 . S
N94 C96 1.400 1_556 S
C95 N93 1.263 1_556 S
C95 N94 1.358 . S
C95 H101 0.930 . S
C96 N94 1.400 1_554 S
C96 C97 1.351 . S
C96 H113 0.930 . S
C97 N93 1.389 . S
C97 C96 1.351 . S
C97 H102 0.930 . S
O98 Cu92 1.974 . S
O98 C108 1.282 1_554 S
C99 O100 1.261 . S
C99 O112 1.251 . S
O100 C99 1.261 . S
H101 C95 0.930 . S
H102 C97 0.930 . S
N103 Cu92 1.985 1_565 S
N103 C105 1.335 . S
N103 C106 1.390 . S
N104 C105 1.345 . S
N104 C107 1.336 . S
C105 N103 1.335 . S
C105 N104 1.345 . S
C105 H110 0.930 . S
C106 N103 1.390 . S
C106 C107 1.346 . S
C106 H111 0.930 1_565 S
C107 N104 1.336 . S
C107 C106 1.346 . S
C107 H114 0.929 . S
C108 O98 1.282 1_556 S
C108 O109 1.216 . S
O109 C108 1.216 . S
H110 C105 0.930 . S
H111 C106 0.930 1_545 S
O112 Cu92 1.959 1_565 S
O112 C99 1.251 . S
H113 C96 0.930 . S
H114 C107 0.929 . S
Cu115 N116 1.999 . S
Cu115 O121 1.974 . S
Cu115 N126 1.985 . S
Cu115 O135 1.959 . S
N116 Cu115 1.999 . S
N116 C118 1.263 . S
N116 C120 1.389 . S
N117 C118 1.358 . S
N117 C119 1.400 . S
C118 N116 1.263 . S
C118 N117 1.358 . S
C118 H124 0.930 . S
C119 N117 1.400 . S
C119 C120 1.351 . S
C119 H136 0.930 . S
C120 N116 1.389 . S
C120 C119 1.351 . S
C120 H125 0.930 . S
O121 Cu115 1.974 . S
O121 C131 1.282 . S
C122 O123 1.261 . S
C122 O135 1.251 . S
O123 C122 1.261 . S
H124 C118 0.930 . S
H125 C120 0.930 . S
N126 Cu115 1.985 . S
N126 C128 1.335 . S
N126 C129 1.390 . S
N127 C128 1.345 . S
N127 C130 1.336 . S
C128 N126 1.335 . S
C128 N127 1.345 . S
C128 H133 0.930 . S
C129 N126 1.390 . S
C129 C130 1.346 . S
C129 H134 0.930 . S
C130 N127 1.336 . S
C130 C129 1.346 . S
C130 H137 0.929 . S
C131 O121 1.282 . S
C131 O132 1.216 . S
O132 C131 1.216 . S
H133 C128 0.930 . S
H134 C129 0.930 . S
O135 Cu115 1.959 . S
O135 C122 1.251 . S
H136 C119 0.930 . S
H137 C130 0.929 . S
H138 C146 0.930 . S
H139 C149 0.930 . S
H140 C151 0.930 . S
H141 C152 0.970 . S
H142 C152 0.970 . S
H143 C154 0.930 . S
H144 C156 0.930 . S
H145 C158 0.930 . S
C146 H138 0.930 . S
C146 C147 1.382 . S
C146 C148 1.426 . S
C147 C146 1.382 . S
C147 C151 1.389 . S
C148 C146 1.426 . S
C148 C149 1.375 . S
C148 C152 1.532 . S
C149 H139 0.930 . S
C149 C148 1.375 . S
C149 C150 1.416 . S
C150 C149 1.416 . S
C150 C151 1.371 . S
C151 H140 0.930 . S
C151 C147 1.389 . S
C151 C150 1.371 . S
C152 H141 0.970 . S
C152 H142 0.970 . S
C152 C148 1.532 . S
C152 C153 1.499 . S
C153 C152 1.499 . S
C153 C154 1.370 . S
C153 C158 1.415 . S
C154 H143 0.930 . S
C154 C153 1.370 . S
C154 C155 1.407 . S
C155 C154 1.407 . S
C155 C156 1.365 . S
C156 H144 0.930 . S
C156 C155 1.365 . S
C156 C157 1.393 . S
C157 C156 1.393 . S
C157 C158 1.387 . S
C158 H145 0.930 . S
C158 C153 1.415 . S
C158 C157 1.387 . S
H159 C167 0.930 . S
H160 C170 0.930 . S
H161 C172 0.930 . S
H162 C173 0.970 . S
H163 C173 0.970 . S
H164 C175 0.930 . S
H165 C177 0.930 . S
H166 C179 0.930 . S
C167 H159 0.930 . S
C167 C168 1.382 . S
C167 C169 1.426 . S
C168 C167 1.382 . S
C168 C172 1.389 . S
C169 C167 1.426 . S
C169 C170 1.375 . S
C169 C173 1.532 . S
C170 H160 0.930 . S
C170 C169 1.375 . S
C170 C171 1.416 . S
C171 C170 1.416 . S
C171 C172 1.371 . S
C172 H161 0.930 . S
C172 C168 1.389 . S
C172 C171 1.371 . S
C173 H162 0.970 . S
C173 H163 0.970 . S
C173 C169 1.532 . S
C173 C174 1.499 . S
C174 C173 1.499 . S
C174 C175 1.370 . S
C174 C179 1.415 . S
C175 H164 0.930 . S
C175 C174 1.370 . S
C175 C176 1.407 . S
C176 C175 1.407 . S
C176 C177 1.365 . S
C177 H165 0.930 . S
C177 C176 1.365 . S
C177 C178 1.393 . S
C178 C177 1.393 . S
C178 C179 1.387 . S
C179 H166 0.930 . S
C179 C174 1.415 . S
C179 C178 1.387 . S
H180 C188 0.930 . S
H181 C191 0.930 . S
H182 C193 0.930 . S
H183 C194 0.970 . S
H184 C194 0.970 . S
H185 C196 0.930 . S
H186 C198 0.930 . S
H187 C200 0.930 . S
C188 H180 0.930 . S
C188 C189 1.382 . S
C188 C190 1.426 . S
C189 C188 1.382 . S
C189 C193 1.389 . S
C190 C188 1.426 . S
C190 C191 1.375 . S
C190 C194 1.532 . S
C191 H181 0.930 . S
C191 C190 1.375 . S
C191 C192 1.416 . S
C192 C191 1.416 . S
C192 C193 1.371 . S
C193 H182 0.930 . S
C193 C189 1.389 . S
C193 C192 1.371 . S
C194 H183 0.970 . S
C194 H184 0.970 . S
C194 C190 1.532 . S
C194 C195 1.499 . S
C195 C194 1.499 . S
C195 C196 1.370 . S
C195 C200 1.415 . S
C196 H185 0.930 . S
C196 C195 1.370 . S
C196 C197 1.407 . S
C197 C196 1.407 . S
C197 C198 1.365 . S
C198 H186 0.930 . S
C198 C197 1.365 . S
C198 C199 1.393 . S
C199 C198 1.393 . S
C199 C200 1.387 . S
C200 H187 0.930 . S
C200 C195 1.415 . S
C200 C199 1.387 . S
H201 C209 0.930 . S
H202 C212 0.930 . S
H203 C214 0.930 . S
H204 C215 0.970 . S
H205 C215 0.970 . S
H206 C217 0.930 . S
H207 C219 0.930 . S
H208 C221 0.930 . S
C209 H201 0.930 . S
C209 C210 1.382 . S
C209 C211 1.426 . S
C210 C209 1.382 . S
C210 C214 1.389 . S
C211 C209 1.426 . S
C211 C212 1.375 . S
C211 C215 1.532 . S
C212 H202 0.930 . S
C212 C211 1.375 . S
C212 C213 1.416 . S
C213 C212 1.416 . S
C213 C214 1.371 . S
C214 H203 0.930 . S
C214 C210 1.389 . S
C214 C213 1.371 . S
C215 H204 0.970 . S
C215 H205 0.970 . S
C215 C211 1.532 . S
C215 C216 1.499 . S
C216 C215 1.499 . S
C216 C217 1.370 . S
C216 C221 1.415 . S
C217 H206 0.930 . S
C217 C216 1.370 . S
C217 C218 1.407 . S
C218 C217 1.407 . S
C218 C219 1.365 . S
C219 H207 0.930 . S
C219 C218 1.365 . S
C219 C220 1.393 . S
C220 C219 1.393 . S
C220 C221 1.387 . S
C221 H208 0.930 . S
C221 C216 1.415 . S
C221 C220 1.387 . S
H222 C230 0.930 . S
H223 C233 0.930 . S
H224 C235 0.930 . S
H225 C236 0.970 . S
H226 C236 0.970 . S
H227 C238 0.930 . S
H228 C240 0.930 . S
H229 C242 0.930 . S
C230 H222 0.930 . S
C230 C231 1.382 . S
C230 C232 1.426 . S
C231 C230 1.382 . S
C231 C235 1.389 . S
C232 C230 1.426 . S
C232 C233 1.375 . S
C232 C236 1.532 . S
C233 H223 0.930 . S
C233 C232 1.375 . S
C233 C234 1.416 . S
C234 C233 1.416 . S
C234 C235 1.371 . S
C235 H224 0.930 . S
C235 C231 1.389 . S
C235 C234 1.371 . S
C236 H225 0.970 . S
C236 H226 0.970 . S
C236 C232 1.532 . S
C236 C237 1.499 . S
C237 C236 1.499 . S
C237 C238 1.370 . S
C237 C242 1.415 . S
C238 H227 0.930 . S
C238 C237 1.370 . S
C238 C239 1.407 . S
C239 C238 1.407 . S
C239 C240 1.365 . S
C240 H228 0.930 . S
C240 C239 1.365 . S
C240 C241 1.393 . S
C241 C240 1.393 . S
C241 C242 1.387 . S
C242 H229 0.930 . S
C242 C237 1.415 . S
C242 C241 1.387 . S
H243 C251 0.930 . S
H244 C254 0.930 . S
H245 C256 0.930 . S
H246 C257 0.970 . S
H247 C257 0.970 . S
H248 C259 0.930 . S
H249 C261 0.930 . S
H250 C263 0.930 . S
C251 H243 0.930 . S
C251 C252 1.382 . S
C251 C253 1.426 . S
C252 C251 1.382 . S
C252 C256 1.389 . S
C253 C251 1.426 . S
C253 C254 1.375 . S
C253 C257 1.532 . S
C254 H244 0.930 . S
C254 C253 1.375 . S
C254 C255 1.416 . S
C255 C254 1.416 . S
C255 C256 1.371 . S
C256 H245 0.930 . S
C256 C252 1.389 . S
C256 C255 1.371 . S
C257 H246 0.970 . S
C257 H247 0.970 . S
C257 C253 1.532 . S
C257 C258 1.499 . S
C258 C257 1.499 . S
C258 C259 1.370 . S
C258 C263 1.415 . S
C259 H248 0.930 . S
C259 C258 1.370 . S
C259 C260 1.407 . S
C260 C259 1.407 . S
C260 C261 1.365 . S
C261 H249 0.930 . S
C261 C260 1.365 . S
C261 C262 1.393 . S
C262 C261 1.393 . S
C262 C263 1.387 . S
C263 H250 0.930 . S
C263 C258 1.415 . S
C263 C262 1.387 . S
C264 C265 1.391 . S
C264 C266 1.394 . S
C264 H280 0.931 . S
C265 C264 1.391 . S
C265 C269 1.376 . S
C266 C264 1.394 . S
C266 C267 1.369 . S
C266 C270 1.531 . S
C267 C266 1.369 . S
C267 C268 1.410 . S
C267 C275 1.503 . S
C268 C267 1.410 . S
C268 C269 1.392 . S
C268 C271 1.511 . S
C269 C265 1.376 . S
C269 C268 1.392 . S
C269 H281 0.929 . S
C270 C266 1.531 . S
C270 H282 0.960 . S
C270 H283 0.962 . S
C270 H284 0.960 . S
C271 C268 1.511 . S
C271 H285 0.961 . S
C271 H286 0.961 . S
C271 H287 0.961 . S
C272 C273 1.370 . S
C272 C274 1.363 . S
C272 H288 0.931 . S
C273 C272 1.370 . S
C273 C277 1.408 . S
C274 C272 1.363 . S
C274 C275 1.370 . S
C274 C278 1.524 . S
C275 C267 1.503 . S
C275 C274 1.370 . S
C275 C276 1.403 . S
C276 C275 1.403 . S
C276 C277 1.404 . S
C276 C279 1.539 . S
C277 C273 1.408 . S
C277 C276 1.404 . S
C277 H289 0.930 . S
C278 C274 1.524 . S
C278 H290 0.956 . S
C278 H291 0.961 . S
C278 H292 0.961 . S
C279 C276 1.539 . S
C279 H293 0.958 . S
C279 H294 0.961 . S
C279 H295 0.960 . S
H280 C264 0.931 . S
H281 C269 0.929 . S
H282 C270 0.960 . S
H283 C270 0.962 . S
H284 C270 0.960 . S
H285 C271 0.961 . S
H286 C271 0.961 . S
H287 C271 0.961 . S
H288 C272 0.931 . S
H289 C277 0.930 . S
H290 C278 0.956 . S
H291 C278 0.961 . S
H292 C278 0.961 . S
H293 C279 0.958 . S
H294 C279 0.961 . S
H295 C279 0.960 . S
C296 C297 1.391 . S
C296 C298 1.394 . S
C296 H312 0.931 . S
C297 C296 1.391 . S
C297 C301 1.376 . S
C298 C296 1.394 . S
C298 C299 1.369 . S
C298 C302 1.531 . S
C299 C298 1.369 . S
C299 C300 1.410 . S
C299 C307 1.503 . S
C300 C299 1.410 . S
C300 C301 1.392 . S
C300 C303 1.511 . S
C301 C297 1.376 . S
C301 C300 1.392 . S
C301 H313 0.929 . S
C302 C298 1.531 . S
C302 H314 0.960 . S
C302 H315 0.962 . S
C302 H316 0.960 . S
C303 C300 1.511 . S
C303 H317 0.961 . S
C303 H318 0.961 . S
C303 H319 0.961 . S
C304 C305 1.370 . S
C304 C306 1.363 . S
C304 H320 0.931 . S
C305 C304 1.370 . S
C305 C309 1.408 . S
C306 C304 1.363 . S
C306 C307 1.370 . S
C306 C310 1.524 . S
C307 C299 1.503 . S
C307 C306 1.370 . S
C307 C308 1.403 . S
C308 C307 1.403 . S
C308 C309 1.404 . S
C308 C311 1.539 . S
C309 C305 1.408 . S
C309 C308 1.404 . S
C309 H321 0.930 . S
C310 C306 1.524 . S
C310 H322 0.956 . S
C310 H323 0.961 . S
C310 H324 0.961 . S
C311 C308 1.539 . S
C311 H325 0.958 . S
C311 H326 0.961 . S
C311 H327 0.960 . S
H312 C296 0.931 . S
H313 C301 0.929 . S
H314 C302 0.960 . S
H315 C302 0.962 . S
H316 C302 0.960 . S
H317 C303 0.961 . S
H318 C303 0.961 . S
H319 C303 0.961 . S
H320 C304 0.931 . S
H321 C309 0.930 . S
H322 C310 0.956 . S
H323 C310 0.961 . S
H324 C310 0.961 . S
H325 C311 0.958 . S
H326 C311 0.961 . S
H327 C311 0.960 . S
C328 C329 1.391 . S
C328 C330 1.394 . S
C328 H344 0.931 . S
C329 C328 1.391 . S
C329 C333 1.376 . S
C330 C328 1.394 . S
C330 C331 1.369 . S
C330 C334 1.531 . S
C331 C330 1.369 . S
C331 C332 1.410 . S
C331 C339 1.503 . S
C332 C331 1.410 . S
C332 C333 1.392 . S
C332 C335 1.511 . S
C333 C329 1.376 . S
C333 C332 1.392 . S
C333 H345 0.929 . S
C334 C330 1.531 . S
C334 H346 0.960 . S
C334 H347 0.962 . S
C334 H348 0.960 . S
C335 C332 1.511 . S
C335 H349 0.961 . S
C335 H350 0.961 . S
C335 H351 0.961 . S
C336 C337 1.370 . S
C336 C338 1.363 . S
C336 H352 0.931 . S
C337 C336 1.370 . S
C337 C341 1.408 . S
C338 C336 1.363 . S
C338 C339 1.370 . S
C338 C342 1.524 . S
C339 C331 1.503 . S
C339 C338 1.370 . S
C339 C340 1.403 . S
C340 C339 1.403 . S
C340 C341 1.404 . S
C340 C343 1.539 . S
C341 C337 1.408 . S
C341 C340 1.404 . S
C341 H353 0.930 . S
C342 C338 1.524 . S
C342 H354 0.956 . S
C342 H355 0.961 . S
C342 H356 0.961 . S
C343 C340 1.539 . S
C343 H357 0.958 . S
C343 H358 0.961 . S
C343 H359 0.960 . S
H344 C328 0.931 . S
H345 C333 0.929 . S
H346 C334 0.960 . S
H347 C334 0.962 . S
H348 C334 0.960 . S
H349 C335 0.961 . S
H350 C335 0.961 . S
H351 C335 0.961 . S
H352 C336 0.931 . S
H353 C341 0.930 . S
H354 C342 0.956 . S
H355 C342 0.961 . S
H356 C342 0.961 . S
H357 C343 0.958 . S
H358 C343 0.961 . S
H359 C343 0.960 . S
C360 C361 1.391 . S
C360 C362 1.394 . S
C360 H376 0.931 . S
C361 C360 1.391 . S
C361 C365 1.376 . S
C362 C360 1.394 . S
C362 C363 1.369 . S
C362 C366 1.531 . S
C363 C362 1.369 . S
C363 C364 1.410 . S
C363 C371 1.503 . S
C364 C363 1.410 . S
C364 C365 1.392 . S
C364 C367 1.511 . S
C365 C361 1.376 . S
C365 C364 1.392 . S
C365 H377 0.929 . S
C366 C362 1.531 . S
C366 H378 0.960 . S
C366 H379 0.962 . S
C366 H380 0.960 . S
C367 C364 1.511 . S
C367 H381 0.961 . S
C367 H382 0.961 . S
C367 H383 0.961 . S
C368 C369 1.370 . S
C368 C370 1.363 . S
C368 H384 0.931 . S
C369 C368 1.370 . S
C369 C373 1.408 . S
C370 C368 1.363 . S
C370 C371 1.370 . S
C370 C374 1.524 . S
C371 C363 1.503 . S
C371 C370 1.370 . S
C371 C372 1.403 . S
C372 C371 1.403 . S
C372 C373 1.404 . S
C372 C375 1.539 . S
C373 C369 1.408 . S
C373 C372 1.404 . S
C373 H385 0.930 . S
C374 C370 1.524 . S
C374 H386 0.956 . S
C374 H387 0.961 . S
C374 H388 0.961 . S
C375 C372 1.539 . S
C375 H389 0.958 . S
C375 H390 0.961 . S
C375 H391 0.960 . S
H376 C360 0.931 . S
H377 C365 0.929 . S
H378 C366 0.960 . S
H379 C366 0.962 . S
H380 C366 0.960 . S
H381 C367 0.961 . S
H382 C367 0.961 . S
H383 C367 0.961 . S
H384 C368 0.931 . S
H385 C373 0.930 . S
H386 C374 0.956 . S
H387 C374 0.961 . S
H388 C374 0.961 . S
H389 C375 0.958 . S
H390 C375 0.961 . S
H391 C375 0.960 . S
C392 C393 1.391 . S
C392 C394 1.394 . S
C392 H408 0.931 . S
C393 C392 1.391 . S
C393 C397 1.376 . S
C394 C392 1.394 . S
C394 C395 1.369 . S
C394 C398 1.531 . S
C395 C394 1.369 . S
C395 C396 1.410 . S
C395 C403 1.503 . S
C396 C395 1.410 . S
C396 C397 1.392 . S
C396 C399 1.511 . S
C397 C393 1.376 . S
C397 C396 1.392 . S
C397 H409 0.929 . S
C398 C394 1.531 . S
C398 H410 0.960 . S
C398 H411 0.962 . S
C398 H412 0.960 . S
C399 C396 1.511 . S
C399 H413 0.961 . S
C399 H414 0.961 . S
C399 H415 0.961 . S
C400 C401 1.370 . S
C400 C402 1.363 . S
C400 H416 0.931 . S
C401 C400 1.370 . S
C401 C405 1.408 . S
C402 C400 1.363 . S
C402 C403 1.370 . S
C402 C406 1.524 . S
C403 C395 1.503 . S
C403 C402 1.370 . S
C403 C404 1.403 . S
C404 C403 1.403 . S
C404 C405 1.404 . S
C404 C407 1.539 . S
C405 C401 1.408 . S
C405 C404 1.404 . S
C405 H417 0.930 . S
C406 C402 1.524 . S
C406 H418 0.956 . S
C406 H419 0.961 . S
C406 H420 0.961 . S
C407 C404 1.539 . S
C407 H421 0.958 . S
C407 H422 0.961 . S
C407 H423 0.960 . S
H408 C392 0.931 . S
H409 C397 0.929 . S
H410 C398 0.960 . S
H411 C398 0.962 . S
H412 C398 0.960 . S
H413 C399 0.961 . S
H414 C399 0.961 . S
H415 C399 0.961 . S
H416 C400 0.931 . S
H417 C405 0.930 . S
H418 C406 0.956 . S
H419 C406 0.961 . S
H420 C406 0.961 . S
H421 C407 0.958 . S
H422 C407 0.961 . S
H423 C407 0.960 . S
C424 C425 1.391 . S
C424 C426 1.394 . S
C424 H440 0.931 . S
C425 C424 1.391 . S
C425 C429 1.376 . S
C426 C424 1.394 . S
C426 C427 1.369 . S
C426 C430 1.531 . S
C427 C426 1.369 . S
C427 C428 1.410 . S
C427 C435 1.503 . S
C428 C427 1.410 . S
C428 C429 1.392 . S
C428 C431 1.511 . S
C429 C425 1.376 . S
C429 C428 1.392 . S
C429 H441 0.929 . S
C430 C426 1.531 . S
C430 H442 0.960 . S
C430 H443 0.962 . S
C430 H444 0.960 . S
C431 C428 1.511 . S
C431 H445 0.961 . S
C431 H446 0.961 . S
C431 H447 0.961 . S
C432 C433 1.370 . S
C432 C434 1.363 . S
C432 H448 0.931 . S
C433 C432 1.370 . S
C433 C437 1.408 . S
C434 C432 1.363 . S
C434 C435 1.370 . S
C434 C438 1.524 . S
C435 C427 1.503 . S
C435 C434 1.370 . S
C435 C436 1.403 . S
C436 C435 1.403 . S
C436 C437 1.404 . S
C436 C439 1.539 . S
C437 C433 1.408 . S
C437 C436 1.404 . S
C437 H449 0.930 . S
C438 C434 1.524 . S
C438 H450 0.956 . S
C438 H451 0.961 . S
C438 H452 0.961 . S
C439 C436 1.539 . S
C439 H453 0.958 . S
C439 H454 0.961 . S
C439 H455 0.960 . S
H440 C424 0.931 . S
H441 C429 0.929 . S
H442 C430 0.960 . S
H443 C430 0.962 . S
H444 C430 0.960 . S
H445 C431 0.961 . S
H446 C431 0.961 . S
H447 C431 0.961 . S
H448 C432 0.931 . S
H449 C437 0.930 . S
H450 C438 0.956 . S
H451 C438 0.961 . S
H452 C438 0.961 . S
H453 C439 0.958 . S
H454 C439 0.961 . S
H455 C439 0.960 . S
C456 C457 1.391 . S
C456 C458 1.394 . S
C456 H472 0.931 . S
C457 C456 1.391 . S
C457 C461 1.376 . S
C458 C456 1.394 . S
C458 C459 1.369 . S
C458 C462 1.531 . S
C459 C458 1.369 . S
C459 C460 1.410 . S
C459 C467 1.503 . S
C460 C459 1.410 . S
C460 C461 1.392 . S
C460 C463 1.511 . S
C461 C457 1.376 . S
C461 C460 1.392 . S
C461 H473 0.929 . S
C462 C458 1.531 . S
C462 H474 0.960 . S
C462 H475 0.962 . S
C462 H476 0.960 . S
C463 C460 1.511 . S
C463 H477 0.961 . S
C463 H478 0.961 . S
C463 H479 0.961 . S
C464 C465 1.370 . S
C464 C466 1.363 . S
C464 H480 0.931 . S
C465 C464 1.370 . S
C465 C469 1.408 . S
C466 C464 1.363 . S
C466 C467 1.370 . S
C466 C470 1.524 . S
C467 C459 1.503 . S
C467 C466 1.370 . S
C467 C468 1.403 . S
C468 C467 1.403 . S
C468 C469 1.404 . S
C468 C471 1.539 . S
C469 C465 1.408 . S
C469 C468 1.404 . S
C469 H481 0.930 . S
C470 C466 1.524 . S
C470 H482 0.956 . S
C470 H483 0.961 . S
C470 H484 0.961 . S
C471 C468 1.539 . S
C471 H485 0.958 . S
C471 H486 0.961 . S
C471 H487 0.960 . S
H472 C456 0.931 . S
H473 C461 0.929 . S
H474 C462 0.960 . S
H475 C462 0.962 . S
H476 C462 0.960 . S
H477 C463 0.961 . S
H478 C463 0.961 . S
H479 C463 0.961 . S
H480 C464 0.931 . S
H481 C469 0.930 . S
H482 C470 0.956 . S
H483 C470 0.961 . S
H484 C470 0.961 . S
H485 C471 0.958 . S
H486 C471 0.961 . S
H487 C471 0.960 . S
C488 C489 1.391 . S
C488 C490 1.394 . S
C488 H504 0.931 1_556 S
C489 C488 1.391 . S
C489 C493 1.376 . S
C490 C488 1.394 . S
C490 C491 1.369 . S
C490 C494 1.531 . S
C491 C490 1.369 . S
C491 C492 1.410 . S
C491 C499 1.503 . S
C492 C491 1.410 . S
C492 C493 1.392 . S
C492 C495 1.511 . S
C493 C489 1.376 . S
C493 C492 1.392 . S
C493 H505 0.929 . S
C494 C490 1.531 . S
C494 H506 0.960 . S
C494 H507 0.962 . S
C494 H508 0.960 1_556 S
C495 C492 1.511 . S
C495 H509 0.961 . S
C495 H510 0.961 . S
C495 H511 0.961 . S
C496 C497 1.370 . S
C496 C498 1.363 . S
C496 H512 0.931 . S
C497 C496 1.370 . S
C497 C501 1.408 . S
C498 C496 1.363 . S
C498 C499 1.370 . S
C498 C502 1.524 . S
C499 C491 1.503 . S
C499 C498 1.370 . S
C499 C500 1.403 . S
C500 C499 1.403 . S
C500 C501 1.404 . S
C500 C503 1.539 . S
C501 C497 1.408 . S
C501 C500 1.404 . S
C501 H513 0.930 . S
C502 C498 1.524 . S
C502 H514 0.956 . S
C502 H515 0.961 . S
C502 H516 0.961 . S
C503 C500 1.539 . S
C503 H517 0.958 . S
C503 H518 0.961 . S
C503 H519 0.960 . S
H504 C488 0.931 1_554 S
H505 C493 0.929 . S
H506 C494 0.960 . S
H507 C494 0.962 . S
H508 C494 0.960 1_554 S
H509 C495 0.961 . S
H510 C495 0.961 . S
H511 C495 0.961 . S
H512 C496 0.931 . S
H513 C501 0.930 . S
H514 C502 0.956 . S
H515 C502 0.961 . S
H516 C502 0.961 . S
H517 C503 0.958 . S
H518 C503 0.961 . S
H519 C503 0.960 . S
C520 C521 1.391 . S
C520 C522 1.394 . S
C520 H536 0.931 . S
C521 C520 1.391 . S
C521 C525 1.376 . S
C522 C520 1.394 . S
C522 C523 1.369 . S
C522 C526 1.531 . S
C523 C522 1.369 . S
C523 C524 1.410 . S
C523 C531 1.503 . S
C524 C523 1.410 . S
C524 C525 1.392 . S
C524 C527 1.511 . S
C525 C521 1.376 . S
C525 C524 1.392 . S
C525 H537 0.929 . S
C526 C522 1.531 . S
C526 H538 0.960 . S
C526 H539 0.962 . S
C526 H540 0.960 . S
C527 C524 1.511 . S
C527 H541 0.961 . S
C527 H542 0.961 . S
C527 H543 0.961 . S
C528 C529 1.370 . S
C528 C530 1.363 . S
C528 H544 0.931 . S
C529 C528 1.370 . S
C529 C533 1.408 . S
C530 C528 1.363 . S
C530 C531 1.370 . S
C530 C534 1.524 . S
C531 C523 1.503 . S
C531 C530 1.370 . S
C531 C532 1.403 . S
C532 C531 1.403 . S
C532 C533 1.404 . S
C532 C535 1.539 . S
C533 C529 1.408 . S
C533 C532 1.404 . S
C533 H545 0.930 . S
C534 C530 1.524 . S
C534 H546 0.956 . S
C534 H547 0.961 . S
C534 H548 0.961 . S
C535 C532 1.539 . S
C535 H549 0.958 . S
C535 H550 0.961 . S
C535 H551 0.960 . S
H536 C520 0.931 . S
H537 C525 0.929 . S
H538 C526 0.960 . S
H539 C526 0.962 . S
H540 C526 0.960 . S
H541 C527 0.961 . S
H542 C527 0.961 . S
H543 C527 0.961 . S
H544 C528 0.931 . S
H545 C533 0.930 . S
H546 C534 0.956 . S
H547 C534 0.961 . S
H548 C534 0.961 . S
H549 C535 0.958 . S
H550 C535 0.961 . S
H551 C535 0.960 . S
C552 C553 1.391 . S
C552 C554 1.394 . S
C552 H568 0.931 . S
C553 C552 1.391 . S
C553 C557 1.376 . S
C554 C552 1.394 . S
C554 C555 1.369 . S
C554 C558 1.531 . S
C555 C554 1.369 . S
C555 C556 1.410 . S
C555 C563 1.503 . S
C556 C555 1.410 . S
C556 C557 1.392 . S
C556 C559 1.511 . S
C557 C553 1.376 . S
C557 C556 1.392 . S
C557 H569 0.929 . S
C558 C554 1.531 . S
C558 H570 0.960 . S
C558 H571 0.962 . S
C558 H572 0.960 . S
C559 C556 1.511 . S
C559 H573 0.961 . S
C559 H574 0.961 . S
C559 H575 0.961 . S
C560 C561 1.370 . S
C560 C562 1.363 . S
C560 H576 0.931 . S
C561 C560 1.370 . S
C561 C565 1.408 . S
C562 C560 1.363 . S
C562 C563 1.370 . S
C562 C566 1.524 . S
C563 C555 1.503 . S
C563 C562 1.370 . S
C563 C564 1.403 . S
C564 C563 1.403 . S
C564 C565 1.404 . S
C564 C567 1.539 . S
C565 C561 1.408 . S
C565 C564 1.404 . S
C565 H577 0.930 . S
C566 C562 1.524 . S
C566 H578 0.956 . S
C566 H579 0.961 . S
C566 H580 0.961 . S
C567 C564 1.539 . S
C567 H581 0.958 . S
C567 H582 0.961 . S
C567 H583 0.960 . S
H568 C552 0.931 . S
H569 C557 0.929 . S
H570 C558 0.960 . S
H571 C558 0.962 . S
H572 C558 0.960 . S
H573 C559 0.961 . S
H574 C559 0.961 . S
H575 C559 0.961 . S
H576 C560 0.931 . S
H577 C565 0.930 . S
H578 C566 0.956 . S
H579 C566 0.961 . S
H580 C566 0.961 . S
H581 C567 0.958 . S
H582 C567 0.961 . S
H583 C567 0.960 . S
C584 C585 1.391 . S
C584 C586 1.394 . S
C584 H600 0.931 . S
C585 C584 1.391 . S
C585 C589 1.376 . S
C586 C584 1.394 . S
C586 C587 1.369 . S
C586 C590 1.531 . S
C587 C586 1.369 . S
C587 C588 1.410 . S
C587 C595 1.503 . S
C588 C587 1.410 . S
C588 C589 1.392 . S
C588 C591 1.511 . S
C589 C585 1.376 . S
C589 C588 1.392 . S
C589 H601 0.929 . S
C590 C586 1.531 . S
C590 H602 0.960 . S
C590 H603 0.962 . S
C590 H604 0.960 . S
C591 C588 1.511 . S
C591 H605 0.961 . S
C591 H606 0.961 . S
C591 H607 0.961 . S
C592 C593 1.370 . S
C592 C594 1.363 . S
C592 H608 0.931 . S
C593 C592 1.370 . S
C593 C597 1.408 . S
C594 C592 1.363 . S
C594 C595 1.370 . S
C594 C598 1.524 . S
C595 C587 1.503 . S
C595 C594 1.370 . S
C595 C596 1.403 . S
C596 C595 1.403 . S
C596 C597 1.404 . S
C596 C599 1.539 . S
C597 C593 1.408 . S
C597 C596 1.404 . S
C597 H609 0.930 . S
C598 C594 1.524 . S
C598 H610 0.956 . S
C598 H611 0.961 . S
C598 H612 0.961 . S
C599 C596 1.539 . S
C599 H613 0.958 . S
C599 H614 0.961 . S
C599 H615 0.960 . S
H600 C584 0.931 . S
H601 C589 0.929 . S
H602 C590 0.960 . S
H603 C590 0.962 . S
H604 C590 0.960 . S
H605 C591 0.961 . S
H606 C591 0.961 . S
H607 C591 0.961 . S
H608 C592 0.931 . S
H609 C597 0.930 . S
H610 C598 0.956 . S
H611 C598 0.961 . S
H612 C598 0.961 . S
H613 C599 0.958 . S
H614 C599 0.961 . S
H615 C599 0.960 . S
C616 C617 1.391 . S
C616 C618 1.394 . S
C616 H632 0.931 . S
C617 C616 1.391 . S
C617 C621 1.376 . S
C618 C616 1.394 . S
C618 C619 1.369 . S
C618 C622 1.531 . S
C619 C618 1.369 . S
C619 C620 1.410 . S
C619 C627 1.503 . S
C620 C619 1.410 . S
C620 C621 1.392 . S
C620 C623 1.511 . S
C621 C617 1.376 . S
C621 C620 1.392 . S
C621 H633 0.929 . S
C622 C618 1.531 . S
C622 H634 0.960 . S
C622 H635 0.962 . S
C622 H636 0.960 . S
C623 C620 1.511 . S
C623 H637 0.961 . S
C623 H638 0.961 . S
C623 H639 0.961 . S
C624 C625 1.370 . S
C624 C626 1.363 . S
C624 H640 0.931 . S
C625 C624 1.370 . S
C625 C629 1.408 . S
C626 C624 1.363 . S
C626 C627 1.370 . S
C626 C630 1.524 . S
C627 C619 1.503 . S
C627 C626 1.370 . S
C627 C628 1.403 . S
C628 C627 1.403 . S
C628 C629 1.404 . S
C628 C631 1.539 . S
C629 C625 1.408 . S
C629 C628 1.404 . S
C629 H641 0.930 . S
C630 C626 1.524 . S
C630 H642 0.956 . S
C630 H643 0.961 . S
C630 H644 0.961 . S
C631 C628 1.539 . S
C631 H645 0.958 . S
C631 H646 0.961 . S
C631 H647 0.960 . S
H632 C616 0.931 . S
H633 C621 0.929 . S
H634 C622 0.960 . S
H635 C622 0.962 . S
H636 C622 0.960 . S
H637 C623 0.961 . S
H638 C623 0.961 . S
H639 C623 0.961 . S
H640 C624 0.931 . S
H641 C629 0.930 . S
H642 C630 0.956 . S
H643 C630 0.961 . S
H644 C630 0.961 . S
H645 C631 0.958 . S
H646 C631 0.961 . S
H647 C631 0.960 . S
C648 C649 1.391 . S
C648 C650 1.394 . S
C648 H664 0.931 . S
C649 C648 1.391 . S
C649 C653 1.376 . S
C650 C648 1.394 . S
C650 C651 1.369 . S
C650 C654 1.531 . S
C651 C650 1.369 . S
C651 C652 1.410 . S
C651 C659 1.503 . S
C652 C651 1.410 . S
C652 C653 1.392 . S
C652 C655 1.511 . S
C653 C649 1.376 . S
C653 C652 1.392 . S
C653 H665 0.929 . S
C654 C650 1.531 . S
C654 H666 0.960 . S
C654 H667 0.962 . S
C654 H668 0.960 . S
C655 C652 1.511 . S
C655 H669 0.961 . S
C655 H670 0.961 . S
C655 H671 0.961 . S
C656 C657 1.370 . S
C656 C658 1.363 . S
C656 H672 0.931 . S
C657 C656 1.370 . S
C657 C661 1.408 . S
C658 C656 1.363 . S
C658 C659 1.370 . S
C658 C662 1.524 . S
C659 C651 1.503 . S
C659 C658 1.370 . S
C659 C660 1.403 . S
C660 C659 1.403 . S
C660 C661 1.404 . S
C660 C663 1.539 . S
C661 C657 1.408 . S
C661 C660 1.404 . S
C661 H673 0.930 . S
C662 C658 1.524 . S
C662 H674 0.956 . S
C662 H675 0.961 . S
C662 H676 0.961 . S
C663 C660 1.539 . S
C663 H677 0.958 . S
C663 H678 0.961 . S
C663 H679 0.960 . S
H664 C648 0.931 . S
H665 C653 0.929 . S
H666 C654 0.960 . S
H667 C654 0.962 . S
H668 C654 0.960 . S
H669 C655 0.961 . S
H670 C655 0.961 . S
H671 C655 0.961 . S
H672 C656 0.931 . S
H673 C661 0.930 . S
H674 C662 0.956 . S
H675 C662 0.961 . S
H676 C662 0.961 . S
H677 C663 0.958 . S
H678 C663 0.961 . S
H679 C663 0.960 . S
C680 C681 1.391 . S
C680 C682 1.394 . S
C680 H696 0.931 . S
C681 C680 1.391 . S
C681 C685 1.376 . S
C682 C680 1.394 . S
C682 C683 1.369 . S
C682 C686 1.531 . S
C683 C682 1.369 . S
C683 C684 1.410 . S
C683 C691 1.503 . S
C684 C683 1.410 . S
C684 C685 1.392 . S
C684 C687 1.511 . S
C685 C681 1.376 . S
C685 C684 1.392 . S
C685 H697 0.929 . S
C686 C682 1.531 . S
C686 H698 0.960 . S
C686 H699 0.962 . S
C686 H700 0.960 . S
C687 C684 1.511 . S
C687 H701 0.961 . S
C687 H702 0.961 . S
C687 H703 0.961 . S
C688 C689 1.370 . S
C688 C690 1.363 . S
C688 H704 0.931 . S
C689 C688 1.370 . S
C689 C693 1.408 . S
C690 C688 1.363 . S
C690 C691 1.370 . S
C690 C694 1.524 . S
C691 C683 1.503 . S
C691 C690 1.370 . S
C691 C692 1.403 . S
C692 C691 1.403 . S
C692 C693 1.404 . S
C692 C695 1.539 . S
C693 C689 1.408 . S
C693 C692 1.404 . S
C693 H705 0.930 . S
C694 C690 1.524 . S
C694 H706 0.956 . S
C694 H707 0.961 . S
C694 H708 0.961 . S
C695 C692 1.539 . S
C695 H709 0.958 . S
C695 H710 0.961 . S
C695 H711 0.960 . S
H696 C680 0.931 . S
H697 C685 0.929 . S
H698 C686 0.960 . S
H699 C686 0.962 . S
H700 C686 0.960 . S
H701 C687 0.961 . S
H702 C687 0.961 . S
H703 C687 0.961 . S
H704 C688 0.931 . S
H705 C693 0.930 . S
H706 C694 0.956 . S
H707 C694 0.961 . S
H708 C694 0.961 . S
H709 C695 0.958 . S
H710 C695 0.961 . S
H711 C695 0.960 . S
C712 C713 1.391 . S
C712 C714 1.394 . S
C712 H728 0.931 . S
C713 C712 1.391 . S
C713 C717 1.376 . S
C714 C712 1.394 . S
C714 C715 1.369 . S
C714 C718 1.531 . S
C715 C714 1.369 . S
C715 C716 1.410 . S
C715 C723 1.503 . S
C716 C715 1.410 . S
C716 C717 1.392 . S
C716 C719 1.511 . S
C717 C713 1.376 . S
C717 C716 1.392 . S
C717 H729 0.929 . S
C718 C714 1.531 . S
C718 H730 0.960 . S
C718 H731 0.962 . S
C718 H732 0.960 . S
C719 C716 1.511 . S
C719 H733 0.961 . S
C719 H734 0.961 . S
C719 H735 0.961 . S
C720 C721 1.370 . S
C720 C722 1.363 . S
C720 H736 0.931 . S
C721 C720 1.370 . S
C721 C725 1.408 . S
C722 C720 1.363 . S
C722 C723 1.370 . S
C722 C726 1.524 . S
C723 C715 1.503 . S
C723 C722 1.370 . S
C723 C724 1.403 . S
C724 C723 1.403 . S
C724 C725 1.404 . S
C724 C727 1.539 . S
C725 C721 1.408 . S
C725 C724 1.404 . S
C725 H737 0.930 . S
C726 C722 1.524 . S
C726 H738 0.956 . S
C726 H739 0.961 . S
C726 H740 0.961 . S
C727 C724 1.539 . S
C727 H741 0.958 . S
C727 H742 0.961 . S
C727 H743 0.960 . S
H728 C712 0.931 . S
H729 C717 0.929 . S
H730 C718 0.960 . S
H731 C718 0.962 . S
H732 C718 0.960 . S
H733 C719 0.961 . S
H734 C719 0.961 . S
H735 C719 0.961 . S
H736 C720 0.931 . S
H737 C725 0.930 . S
H738 C726 0.956 . S
H739 C726 0.961 . S
H740 C726 0.961 . S
H741 C727 0.958 . S
H742 C727 0.961 . S
H743 C727 0.960 . S
C744 C745 1.391 . S
C744 C746 1.394 . S
C744 H760 0.931 . S
C745 C744 1.391 . S
C745 C749 1.376 . S
C746 C744 1.394 . S
C746 C747 1.369 . S
C746 C750 1.531 . S
C747 C746 1.369 . S
C747 C748 1.410 . S
C747 C755 1.503 . S
C748 C747 1.410 . S
C748 C749 1.392 . S
C748 C751 1.511 . S
C749 C745 1.376 . S
C749 C748 1.392 . S
C749 H761 0.929 . S
C750 C746 1.531 . S
C750 H762 0.960 . S
C750 H763 0.962 . S
C750 H764 0.960 . S
C751 C748 1.511 . S
C751 H765 0.961 . S
C751 H766 0.961 . S
C751 H767 0.961 . S
C752 C753 1.370 . S
C752 C754 1.363 . S
C752 H768 0.931 . S
C753 C752 1.370 . S
C753 C757 1.408 . S
C754 C752 1.363 . S
C754 C755 1.370 . S
C754 C758 1.524 . S
C755 C747 1.503 . S
C755 C754 1.370 . S
C755 C756 1.403 . S
C756 C755 1.403 . S
C756 C757 1.404 . S
C756 C759 1.539 . S
C757 C753 1.408 . S
C757 C756 1.404 . S
C757 H769 0.930 . S
C758 C754 1.524 . S
C758 H770 0.956 . S
C758 H771 0.961 . S
C758 H772 0.961 . S
C759 C756 1.539 . S
C759 H773 0.958 . S
C759 H774 0.961 . S
C759 H775 0.960 . S
H760 C744 0.931 . S
H761 C749 0.929 . S
H762 C750 0.960 . S
H763 C750 0.962 . S
H764 C750 0.960 . S
H765 C751 0.961 . S
H766 C751 0.961 . S
H767 C751 0.961 . S
H768 C752 0.931 . S
H769 C757 0.930 . S
H770 C758 0.956 . S
H771 C758 0.961 . S
H772 C758 0.961 . S
H773 C759 0.958 . S
H774 C759 0.961 . S
H775 C759 0.960 . S
C776 C777 1.391 . S
C776 C778 1.394 . S
C776 H792 0.931 . S
C777 C776 1.391 . S
C777 C781 1.376 . S
C778 C776 1.394 . S
C778 C779 1.369 . S
C778 C782 1.531 . S
C779 C778 1.369 . S
C779 C780 1.410 . S
C779 C787 1.503 . S
C780 C779 1.410 . S
C780 C781 1.392 . S
C780 C783 1.511 . S
C781 C777 1.376 . S
C781 C780 1.392 . S
C781 H793 0.929 . S
C782 C778 1.531 . S
C782 H794 0.960 . S
C782 H795 0.962 . S
C782 H796 0.960 . S
C783 C780 1.511 . S
C783 H797 0.961 . S
C783 H798 0.961 . S
C783 H799 0.961 . S
C784 C785 1.370 . S
C784 C786 1.363 . S
C784 H800 0.931 . S
C785 C784 1.370 . S
C785 C789 1.408 . S
C786 C784 1.363 . S
C786 C787 1.370 . S
C786 C790 1.524 . S
C787 C779 1.503 . S
C787 C786 1.370 . S
C787 C788 1.403 . S
C788 C787 1.403 . S
C788 C789 1.404 . S
C788 C791 1.539 . S
C789 C785 1.408 . S
C789 C788 1.404 . S
C789 H801 0.930 . S
C790 C786 1.524 . S
C790 H802 0.956 . S
C790 H803 0.961 . S
C790 H804 0.961 . S
C791 C788 1.539 . S
C791 H805 0.958 . S
C791 H806 0.961 . S
C791 H807 0.960 . S
H792 C776 0.931 . S
H793 C781 0.929 . S
H794 C782 0.960 . S
H795 C782 0.962 . S
H796 C782 0.960 . S
H797 C783 0.961 . S
H798 C783 0.961 . S
H799 C783 0.961 . S
H800 C784 0.931 . S
H801 C789 0.930 . S
H802 C790 0.956 . S
H803 C790 0.961 . S
H804 C790 0.961 . S
H805 C791 0.958 . S
H806 C791 0.961 . S
H807 C791 0.960 . S
C808 C809 1.391 . S
C808 C810 1.394 . S
C808 H824 0.931 . S
C809 C808 1.391 . S
C809 C813 1.376 . S
C810 C808 1.394 . S
C810 C811 1.369 . S
C810 C814 1.531 . S
C811 C810 1.369 . S
C811 C812 1.410 . S
C811 C819 1.503 . S
C812 C811 1.410 . S
C812 C813 1.392 . S
C812 C815 1.511 . S
C813 C809 1.376 . S
C813 C812 1.392 . S
C813 H825 0.929 . S
C814 C810 1.531 . S
C814 H826 0.960 . S
C814 H827 0.962 . S
C814 H828 0.960 . S
C815 C812 1.511 . S
C815 H829 0.961 . S
C815 H830 0.961 . S
C815 H831 0.961 . S
C816 C817 1.370 . S
C816 C818 1.363 . S
C816 H832 0.931 . S
C817 C816 1.370 . S
C817 C821 1.408 . S
C818 C816 1.363 . S
C818 C819 1.370 . S
C818 C822 1.524 . S
C819 C811 1.503 . S
C819 C818 1.370 . S
C819 C820 1.403 . S
C820 C819 1.403 . S
C820 C821 1.404 . S
C820 C823 1.539 . S
C821 C817 1.408 . S
C821 C820 1.404 . S
C821 H833 0.930 . S
C822 C818 1.524 . S
C822 H834 0.956 . S
C822 H835 0.961 . S
C822 H836 0.961 . S
C823 C820 1.539 . S
C823 H837 0.958 . S
C823 H838 0.961 . S
C823 H839 0.960 . S
H824 C808 0.931 . S
H825 C813 0.929 . S
H826 C814 0.960 . S
H827 C814 0.962 . S
H828 C814 0.960 . S
H829 C815 0.961 . S
H830 C815 0.961 . S
H831 C815 0.961 . S
H832 C816 0.931 . S
H833 C821 0.930 . S
H834 C822 0.956 . S
H835 C822 0.961 . S
H836 C822 0.961 . S
H837 C823 0.958 . S
H838 C823 0.961 . S
H839 C823 0.960 . S
C840 C841 1.391 . S
C840 C842 1.394 . S
C840 H856 0.931 . S
C841 C840 1.391 . S
C841 C845 1.376 . S
C842 C840 1.394 . S
C842 C843 1.369 . S
C842 C846 1.531 . S
C843 C842 1.369 . S
C843 C844 1.410 . S
C843 C851 1.503 . S
C844 C843 1.410 . S
C844 C845 1.392 . S
C844 C847 1.511 . S
C845 C841 1.376 . S
C845 C844 1.392 . S
C845 H857 0.929 . S
C846 C842 1.531 . S
C846 H858 0.960 . S
C846 H859 0.962 . S
C846 H860 0.960 . S
C847 C844 1.511 . S
C847 H861 0.961 . S
C847 H862 0.961 . S
C847 H863 0.961 . S
C848 C849 1.370 . S
C848 C850 1.363 . S
C848 H864 0.931 . S
C849 C848 1.370 . S
C849 C853 1.408 . S
C850 C848 1.363 . S
C850 C851 1.370 . S
C850 C854 1.524 . S
C851 C843 1.503 . S
C851 C850 1.370 . S
C851 C852 1.403 . S
C852 C851 1.403 . S
C852 C853 1.404 . S
C852 C855 1.539 . S
C853 C849 1.408 . S
C853 C852 1.404 . S
C853 H865 0.930 . S
C854 C850 1.524 . S
C854 H866 0.956 . S
C854 H867 0.961 . S
C854 H868 0.961 . S
C855 C852 1.539 . S
C855 H869 0.958 . S
C855 H870 0.961 . S
C855 H871 0.960 . S
H856 C840 0.931 . S
H857 C845 0.929 . S
H858 C846 0.960 . S
H859 C846 0.962 . S
H860 C846 0.960 . S
H861 C847 0.961 . S
H862 C847 0.961 . S
H863 C847 0.961 . S
H864 C848 0.931 . S
H865 C853 0.930 . S
H866 C854 0.956 . S
H867 C854 0.961 . S
H868 C854 0.961 . S
H869 C855 0.958 . S
H870 C855 0.961 . S
H871 C855 0.960 . S
C872 C873 1.391 . S
C872 C874 1.394 . S
C872 H888 0.931 . S
C873 C872 1.391 . S
C873 C877 1.376 . S
C874 C872 1.394 . S
C874 C875 1.369 . S
C874 C878 1.531 . S
C875 C874 1.369 . S
C875 C876 1.410 . S
C875 C883 1.503 . S
C876 C875 1.410 . S
C876 C877 1.392 . S
C876 C879 1.511 . S
C877 C873 1.376 . S
C877 C876 1.392 . S
C877 H889 0.929 . S
C878 C874 1.531 . S
C878 H890 0.960 . S
C878 H891 0.962 . S
C878 H892 0.960 . S
C879 C876 1.511 . S
C879 H893 0.961 . S
C879 H894 0.961 . S
C879 H895 0.961 . S
C880 C881 1.370 . S
C880 C882 1.363 . S
C880 H896 0.931 . S
C881 C880 1.370 . S
C881 C885 1.408 . S
C882 C880 1.363 . S
C882 C883 1.370 . S
C882 C886 1.524 . S
C883 C875 1.503 . S
C883 C882 1.370 . S
C883 C884 1.403 . S
C884 C883 1.403 . S
C884 C885 1.404 . S
C884 C887 1.539 . S
C885 C881 1.408 . S
C885 C884 1.404 . S
C885 H897 0.930 . S
C886 C882 1.524 . S
C886 H898 0.956 . S
C886 H899 0.961 . S
C886 H900 0.961 . S
C887 C884 1.539 . S
C887 H901 0.958 . S
C887 H902 0.961 . S
C887 H903 0.960 . S
H888 C872 0.931 . S
H889 C877 0.929 . S
H890 C878 0.960 . S
H891 C878 0.962 . S
H892 C878 0.960 . S
H893 C879 0.961 . S
H894 C879 0.961 . S
H895 C879 0.961 . S
H896 C880 0.931 . S
H897 C885 0.930 . S
H898 C886 0.956 . S
H899 C886 0.961 . S
H900 C886 0.961 . S
H901 C887 0.958 . S
H902 C887 0.961 . S
H903 C887 0.960 . S
C904 C905 1.391 . S
C904 C906 1.394 . S
C904 H920 0.931 . S
C905 C904 1.391 . S
C905 C909 1.376 . S
C906 C904 1.394 . S
C906 C907 1.369 . S
C906 C910 1.531 . S
C907 C906 1.369 . S
C907 C908 1.410 . S
C907 C915 1.503 . S
C908 C907 1.410 . S
C908 C909 1.392 . S
C908 C911 1.511 . S
C909 C905 1.376 . S
C909 C908 1.392 . S
C909 H921 0.929 . S
C910 C906 1.531 . S
C910 H922 0.960 . S
C910 H923 0.962 . S
C910 H924 0.960 . S
C911 C908 1.511 . S
C911 H925 0.961 . S
C911 H926 0.961 . S
C911 H927 0.961 . S
C912 C913 1.370 . S
C912 C914 1.363 . S
C912 H928 0.931 . S
C913 C912 1.370 . S
C913 C917 1.408 . S
C914 C912 1.363 . S
C914 C915 1.370 . S
C914 C918 1.524 . S
C915 C907 1.503 . S
C915 C914 1.370 . S
C915 C916 1.403 . S
C916 C915 1.403 . S
C916 C917 1.404 . S
C916 C919 1.539 . S
C917 C913 1.408 . S
C917 C916 1.404 . S
C917 H929 0.930 . S
C918 C914 1.524 . S
C918 H930 0.956 . S
C918 H931 0.961 . S
C918 H932 0.961 . S
C919 C916 1.539 . S
C919 H933 0.958 . S
C919 H934 0.961 . S
C919 H935 0.960 . S
H920 C904 0.931 . S
H921 C909 0.929 . S
H922 C910 0.960 . S
H923 C910 0.962 . S
H924 C910 0.960 . S
H925 C911 0.961 . S
H926 C911 0.961 . S
H927 C911 0.961 . S
H928 C912 0.931 . S
H929 C917 0.930 . S
H930 C918 0.956 . S
H931 C918 0.961 . S
H932 C918 0.961 . S
H933 C919 0.958 . S
H934 C919 0.961 . S
H935 C919 0.960 . S
C936 C937 1.391 . S
C936 C938 1.394 . S
C936 H952 0.931 . S
C937 C936 1.391 . S
C937 C941 1.376 . S
C938 C936 1.394 . S
C938 C939 1.369 . S
C938 C942 1.531 . S
C939 C938 1.369 . S
C939 C940 1.410 . S
C939 C947 1.503 . S
C940 C939 1.410 . S
C940 C941 1.392 . S
C940 C943 1.511 . S
C941 C937 1.376 . S
C941 C940 1.392 . S
C941 H953 0.929 . S
C942 C938 1.531 . S
C942 H954 0.960 . S
C942 H955 0.962 . S
C942 H956 0.960 . S
C943 C940 1.511 . S
C943 H957 0.961 . S
C943 H958 0.961 . S
C943 H959 0.961 . S
C944 C945 1.370 . S
C944 C946 1.363 . S
C944 H960 0.931 . S
C945 C944 1.370 . S
C945 C949 1.408 . S
C946 C944 1.363 . S
C946 C947 1.370 . S
C946 C950 1.524 . S
C947 C939 1.503 . S
C947 C946 1.370 . S
C947 C948 1.403 . S
C948 C947 1.403 . S
C948 C949 1.404 . S
C948 C951 1.539 . S
C949 C945 1.408 . S
C949 C948 1.404 . S
C949 H961 0.930 . S
C950 C946 1.524 . S
C950 H962 0.956 . S
C950 H963 0.961 . S
C950 H964 0.961 . S
C951 C948 1.539 . S
C951 H965 0.958 . S
C951 H966 0.961 . S
C951 H967 0.960 . S
H952 C936 0.931 . S
H953 C941 0.929 . S
H954 C942 0.960 . S
H955 C942 0.962 . S
H956 C942 0.960 . S
H957 C943 0.961 . S
H958 C943 0.961 . S
H959 C943 0.961 . S
H960 C944 0.931 . S
H961 C949 0.930 . S
H962 C950 0.956 . S
H963 C950 0.961 . S
H964 C950 0.961 . S
H965 C951 0.958 . S
H966 C951 0.961 . S
H967 C951 0.960 . S
C968 C969 1.391 . S
C968 C970 1.394 . S
C968 H984 0.931 . S
C969 C968 1.391 . S
C969 C973 1.376 . S
C970 C968 1.394 . S
C970 C971 1.369 . S
C970 C974 1.531 . S
C971 C970 1.369 . S
C971 C972 1.410 . S
C971 C979 1.503 . S
C972 C971 1.410 . S
C972 C973 1.392 . S
C972 C975 1.511 . S
C973 C969 1.376 . S
C973 C972 1.392 . S
C973 H985 0.929 . S
C974 C970 1.531 . S
C974 H986 0.960 . S
C974 H987 0.962 . S
C974 H988 0.960 . S
C975 C972 1.511 . S
C975 H989 0.961 . S
C975 H990 0.961 . S
C975 H991 0.961 . S
C976 C977 1.370 . S
C976 C978 1.363 . S
C976 H992 0.931 . S
C977 C976 1.370 . S
C977 C981 1.408 . S
C978 C976 1.363 . S
C978 C979 1.370 . S
C978 C982 1.524 . S
C979 C971 1.503 . S
C979 C978 1.370 . S
C979 C980 1.403 . S
C980 C979 1.403 . S
C980 C981 1.404 . S
C980 C983 1.539 . S
C981 C977 1.408 . S
C981 C980 1.404 . S
C981 H993 0.930 . S
C982 C978 1.524 . S
C982 H994 0.956 . S
C982 H995 0.961 . S
C982 H996 0.961 . S
C983 C980 1.539 . S
C983 H997 0.958 . S
C983 H998 0.961 . S
C983 H999 0.960 . S
H984 C968 0.931 . S
H985 C973 0.929 . S
H986 C974 0.960 . S
H987 C974 0.962 . S
H988 C974 0.960 . S
H989 C975 0.961 . S
H990 C975 0.961 . S
H991 C975 0.961 . S
H992 C976 0.931 . S
H993 C981 0.930 . S
H994 C982 0.956 . S
H995 C982 0.961 . S
H996 C982 0.961 . S
H997 C983 0.958 . S
H998 C983 0.961 . S
H999 C983 0.960 . S
C1000 C1001 1.391 . S
C1000 C1002 1.394 . S
C1000 H1016 0.931 . S
C1001 C1000 1.391 . S
C1001 C1005 1.376 . S
C1002 C1000 1.394 . S
C1002 C1003 1.369 . S
C1002 C1006 1.531 . S
C1003 C1002 1.369 . S
C1003 C1004 1.410 . S
C1003 C1011 1.503 . S
C1004 C1003 1.410 . S
C1004 C1005 1.392 . S
C1004 C1007 1.511 . S
C1005 C1001 1.376 . S
C1005 C1004 1.392 . S
C1005 H1017 0.929 . S
C1006 C1002 1.531 . S
C1006 H1018 0.960 . S
C1006 H1019 0.962 . S
C1006 H1020 0.960 . S
C1007 C1004 1.511 . S
C1007 H1021 0.961 . S
C1007 H1022 0.961 . S
C1007 H1023 0.961 . S
C1008 C1009 1.370 . S
C1008 C1010 1.363 . S
C1008 H1024 0.931 . S
C1009 C1008 1.370 . S
C1009 C1013 1.408 . S
C1010 C1008 1.363 . S
C1010 C1011 1.370 . S
C1010 C1014 1.524 . S
C1011 C1003 1.503 . S
C1011 C1010 1.370 . S
C1011 C1012 1.403 . S
C1012 C1011 1.403 . S
C1012 C1013 1.404 . S
C1012 C1015 1.539 . S
C1013 C1009 1.408 . S
C1013 C1012 1.404 . S
C1013 H1025 0.930 . S
C1014 C1010 1.524 . S
C1014 H1026 0.956 . S
C1014 H1027 0.961 . S
C1014 H1028 0.961 . S
C1015 C1012 1.539 . S
C1015 H1029 0.958 . S
C1015 H1030 0.961 . S
C1015 H1031 0.960 . S
H1016 C1000 0.931 . S
H1017 C1005 0.929 . S
H1018 C1006 0.960 . S
H1019 C1006 0.962 . S
H1020 C1006 0.960 . S
H1021 C1007 0.961 . S
H1022 C1007 0.961 . S
H1023 C1007 0.961 . S
H1024 C1008 0.931 . S
H1025 C1013 0.930 . S
H1026 C1014 0.956 . S
H1027 C1014 0.961 . S
H1028 C1014 0.961 . S
H1029 C1015 0.958 . S
H1030 C1015 0.961 . S
H1031 C1015 0.960 . S
C265 C7 1.734 . S
C273 C147 1.590 . S
C297 C30 1.537 . S
C305 C168 1.416 . S
C337 C189 1.501 . S
C329 N58 1.604 . S
C369 C218 1.383 . S
C361 N81 1.359 . S
C401 C231 1.522 . S
C393 C99 1.633 . S
C433 C255 1.381 . S
C425 N127 1.393 . S
C457 N25 1.599 . S
C465 C199 1.486 . S
C489 C62 1.528 . S
C497 C213 1.479 . S
C529 C241 1.584 . S
C521 C85 1.673 . S
C561 C260 1.394 . S
C553 N94 1.459 . S
C585 C131 1.656 . S
C593 C157 1.573 . S
C625 C178 1.326 . S
C617 N2 1.378 . S
C657 C220 1.651 . S
C649 C16 1.728 . S
C681 C39 1.525 . S
C689 C234 1.362 . S
C721 C252 1.572 . S
C713 N48 1.594 . S
C745 N71 1.386 . S
C753 C150 1.301 . S
C777 C108 1.652 . S
C785 C171 1.504 . S
C809 N117 1.428 . S
C817 C192 1.328 . S
C841 N35 1.624 . S
C849 C262 1.579 . S
C881 C155 1.407 . S
C873 C53 1.570 . S
C905 C76 1.756 . S
C913 C176 1.570 . S
C937 N104 1.454 . S
C945 C197 1.314 . S
C969 C122 1.647 . S
C977 C210 1.600 . S
C1001 N12 1.358 . S
C1009 C239 1.318 . S
