# Generated by pormake.
# Topology pto, (3,4)-cn, num edge types: 1
# Building blocks:
#     Node 0, Type 0, BuildingBlock: WUSLED_clean_sbu_0, # of connection points: 3
#     Node 1, Type 0, BuildingBlock: WUSLED_clean_sbu_0, # of connection points: 3
#     Node 2, Type 0, BuildingBlock: WUSLED_clean_sbu_0, # of connection points: 3
#     Node 3, Type 0, BuildingBlock: WUSLED_clean_sbu_0, # of connection points: 3
#     Node 4, Type 0, BuildingBlock: WUSLED_clean_sbu_0, # of connection points: 3
#     Node 5, Type 0, BuildingBlock: WUSLED_clean_sbu_0, # of connection points: 3
#     Node 6, Type 0, BuildingBlock: WUSLED_clean_sbu_0, # of connection points: 3
#     Node 7, Type 0, BuildingBlock: WUSLED_clean_sbu_0, # of connection points: 3
#     Node 8, Type 1, BuildingBlock: NAWXER_clean_linker_0, # of connection points: 4
#     Node 9, Type 1, BuildingBlock: NAWXER_clean_linker_0, # of connection points: 4
#     Node 10, Type 1, BuildingBlock: NAWXER_clean_linker_0, # of connection points: 4
#     Node 11, Type 1, BuildingBlock: NAWXER_clean_linker_0, # of connection points: 4
#     Node 12, Type 1, BuildingBlock: NAWXER_clean_linker_0, # of connection points: 4
#     Node 13, Type 1, BuildingBlock: NAWXER_clean_linker_0, # of connection points: 4
#     Edge 14, Type (0, 1), BuildingBlock: AJUNOK_clean_linker_0, # of connection points: 2
#     Edge 15, Type (0, 1), BuildingBlock: AJUNOK_clean_linker_0, # of connection points: 2
#     Edge 16, Type (0, 1), BuildingBlock: AJUNOK_clean_linker_0, # of connection points: 2
#     Edge 17, Type (0, 1), BuildingBlock: AJUNOK_clean_linker_0, # of connection points: 2
#     Edge 18, Type (0, 1), BuildingBlock: AJUNOK_clean_linker_0, # of connection points: 2
#     Edge 19, Type (0, 1), BuildingBlock: AJUNOK_clean_linker_0, # of connection points: 2
#     Edge 20, Type (0, 1), BuildingBlock: AJUNOK_clean_linker_0, # of connection points: 2
#     Edge 21, Type (0, 1), BuildingBlock: AJUNOK_clean_linker_0, # of connection points: 2
#     Edge 22, Type (0, 1), BuildingBlock: AJUNOK_clean_linker_0, # of connection points: 2
#     Edge 23, Type (0, 1), BuildingBlock: AJUNOK_clean_linker_0, # of connection points: 2
#     Edge 24, Type (0, 1), BuildingBlock: AJUNOK_clean_linker_0, # of connection points: 2
#     Edge 25, Type (0, 1), BuildingBlock: AJUNOK_clean_linker_0, # of connection points: 2
#     Edge 26, Type (0, 1), BuildingBlock: AJUNOK_clean_linker_0, # of connection points: 2
#     Edge 27, Type (0, 1), BuildingBlock: AJUNOK_clean_linker_0, # of connection points: 2
#     Edge 28, Type (0, 1), BuildingBlock: AJUNOK_clean_linker_0, # of connection points: 2
#     Edge 29, Type (0, 1), BuildingBlock: AJUNOK_clean_linker_0, # of connection points: 2
#     Edge 30, Type (0, 1), BuildingBlock: AJUNOK_clean_linker_0, # of connection points: 2
#     Edge 31, Type (0, 1), BuildingBlock: AJUNOK_clean_linker_0, # of connection points: 2
#     Edge 32, Type (0, 1), BuildingBlock: AJUNOK_clean_linker_0, # of connection points: 2
#     Edge 33, Type (0, 1), BuildingBlock: AJUNOK_clean_linker_0, # of connection points: 2
#     Edge 34, Type (0, 1), BuildingBlock: AJUNOK_clean_linker_0, # of connection points: 2
#     Edge 35, Type (0, 1), BuildingBlock: AJUNOK_clean_linker_0, # of connection points: 2
#     Edge 36, Type (0, 1), BuildingBlock: AJUNOK_clean_linker_0, # of connection points: 2
#     Edge 37, Type (0, 1), BuildingBlock: AJUNOK_clean_linker_0, # of connection points: 2
# Relax obj value: 0.000
# Max RMSD: 0.009
# Mean RMSD: 0.005
data_MOF--net-pto--node1-WUSLED_clean_sbu_0--node2-NAWXER_clean_linker_0--edge1-AJUNOK_clean_linker_0
_symmetry_space_group_name_H-M    P1
_symmetry_Int_Tables_number       1
_symmetry_cell_setting            triclinic
loop_
_symmetry_equiv_pos_as_xyz
'x, y, z'
_cell_length_a     42.157698
_cell_length_b     57.741369
_cell_length_c     49.934588
_cell_angle_alpha  89.511432
_cell_angle_beta   90.625943
_cell_angle_gamma 90.670725
loop_
_atom_site_label
_atom_site_type_symbol
_atom_site_fract_x
_atom_site_fract_y
_atom_site_fract_z
_atom_type_partial_charge
C0 C 0.24437 0.23233 0.36282 0.0
C1 C 0.26809 0.21617 0.35758 0.0
C2 C 0.24789 0.19092 0.393 0.0
C3 C 0.26991 0.19565 0.37265 0.0
C4 C 0.22435 0.20728 0.39825 0.0
C5 C 0.2226 0.22778 0.38324 0.0
U6 U 0.269 0.27115 0.30412 0.0
O7 O 0.23968 0.2925 0.27709 0.0
O8 O 0.27639 0.30891 0.30224 0.0
C9 C 0.25254 0.31201 0.28548 0.0
C10 C 0.24183 0.25387 0.34707 0.0
C11 C 0.23017 0.33021 0.29272 0.0
C12 C 0.18815 0.34495 0.32064 0.0
C13 C 0.20921 0.32729 0.31418 0.0
C14 C 0.20896 0.36851 0.28433 0.0
C15 C 0.1878 0.36574 0.30572 0.0
C16 C 0.22991 0.35089 0.27788 0.0
C17 C 0.33237 0.25107 0.25563 0.0
C18 C 0.3446 0.27176 0.21435 0.0
C19 C 0.37625 0.23891 0.22815 0.0
C20 C 0.35766 0.23614 0.25102 0.0
C21 C 0.36971 0.25659 0.20944 0.0
C22 C 0.32606 0.26903 0.23729 0.0
C23 C 0.31267 0.24753 0.27949 0.0
O24 O 0.26678 0.26772 0.34797 0.0
O25 O 0.22992 0.25152 0.3228 0.0
O26 O 0.28211 0.24482 0.27482 0.0
O27 O 0.31899 0.26138 0.29966 0.0
H28 H 0.28508 0.21941 0.34182 0.0
H29 H 0.28826 0.18333 0.36818 0.0
H30 H 0.20746 0.2043 0.41414 0.0
H31 H 0.20422 0.24012 0.3876 0.0
H32 H 0.17248 0.34248 0.33749 0.0
H33 H 0.20923 0.31143 0.32593 0.0
H34 H 0.2091 0.38427 0.2724 0.0
H35 H 0.24592 0.35341 0.26126 0.0
H36 H 0.3394 0.28581 0.20052 0.0
H37 H 0.39541 0.22696 0.22485 0.0
H38 H 0.36289 0.22222 0.26501 0.0
H39 H 0.30675 0.28084 0.24066 0.0
C40 C 0.24675 0.81154 0.67168 0.0
C41 C 0.26155 0.83129 0.68256 0.0
C42 C 0.24985 0.85315 0.64173 0.0
C43 C 0.2631 0.85194 0.66768 0.0
C44 C 0.23567 0.83314 0.63077 0.0
C45 C 0.23405 0.81256 0.64567 0.0
U46 U 0.27056 0.77266 0.73079 0.0
O47 O 0.24119 0.75047 0.75674 0.0
O48 O 0.2781 0.73495 0.73218 0.0
C49 C 0.25413 0.73128 0.74834 0.0
C50 C 0.24421 0.78981 0.68716 0.0
C51 C 0.23188 0.71256 0.74072 0.0
C52 C 0.18239 0.69905 0.72042 0.0
C53 C 0.20412 0.717 0.72582 0.0
C54 C 0.21648 0.67199 0.74395 0.0
C55 C 0.18808 0.67644 0.72989 0.0
C56 C 0.23809 0.68991 0.74939 0.0
C57 C 0.33292 0.7938 0.78221 0.0
C58 C 0.37964 0.77875 0.80538 0.0
C59 C 0.34368 0.80367 0.82881 0.0
C60 C 0.32471 0.80539 0.80575 0.0
C61 C 0.37159 0.79058 0.82878 0.0
C62 C 0.36061 0.7804 0.78231 0.0
C63 C 0.31336 0.79677 0.75753 0.0
O64 O 0.26936 0.77658 0.68688 0.0
O65 O 0.23171 0.79156 0.71105 0.0
O66 O 0.28266 0.79896 0.76098 0.0
O67 O 0.32021 0.78365 0.73703 0.0
H68 H 0.27166 0.83077 0.7026 0.0
H69 H 0.27422 0.86706 0.67661 0.0
H70 H 0.22598 0.83337 0.61059 0.0
H71 H 0.22281 0.79742 0.63687 0.0
H72 H 0.16077 0.70293 0.70944 0.0
H73 H 0.19901 0.73438 0.71879 0.0
H74 H 0.2219 0.65464 0.75088 0.0
H75 H 0.25951 0.68613 0.76071 0.0
H76 H 0.40106 0.76859 0.80474 0.0
H77 H 0.33647 0.81258 0.8467 0.0
H78 H 0.30367 0.81596 0.8063 0.0
H79 H 0.36785 0.77138 0.76451 0.0
C80 C 0.71963 0.79536 0.25799 0.0
C81 C 0.72888 0.78136 0.23665 0.0
C82 C 0.67932 0.78948 0.21293 0.0
C83 C 0.70899 0.77857 0.21424 0.0
C84 C 0.6701 0.80331 0.23449 0.0
C85 C 0.69008 0.80622 0.25679 0.0
U86 U 0.78437 0.77502 0.30664 0.0
O87 O 0.82482 0.79409 0.32431 0.0
O88 O 0.78842 0.77887 0.35036 0.0
C89 C 0.81385 0.79218 0.34877 0.0
C90 C 0.74048 0.79899 0.28151 0.0
C91 C 0.8128 0.81386 0.36396 0.0
C92 C 0.79232 0.85255 0.37054 0.0
C93 C 0.79291 0.832 0.35587 0.0
C94 C 0.83135 0.83695 0.40155 0.0
C95 C 0.81166 0.85528 0.39348 0.0
C96 C 0.83195 0.81645 0.38687 0.0
C97 C 0.82019 0.71492 0.29707 0.0
C98 C 0.86376 0.69994 0.32416 0.0
C99 C 0.83812 0.67555 0.29092 0.0
C100 C 0.81777 0.69361 0.28398 0.0
C101 C 0.86119 0.67845 0.31119 0.0
C102 C 0.84329 0.71804 0.31722 0.0
C103 C 0.79839 0.73357 0.28937 0.0
O104 O 0.73453 0.78567 0.30237 0.0
O105 O 0.77095 0.80124 0.27657 0.0
O106 O 0.81174 0.75268 0.28018 0.0
O107 O 0.77536 0.73741 0.30623 0.0
H108 H 0.7516 0.77278 0.23718 0.0
H109 H 0.71713 0.76823 0.19774 0.0
H110 H 0.64737 0.81187 0.23412 0.0
H111 H 0.68248 0.81703 0.2731 0.0
H112 H 0.77645 0.86619 0.36415 0.0
H113 H 0.77782 0.83023 0.33828 0.0
H114 H 0.84653 0.83858 0.41909 0.0
H115 H 0.84742 0.8026 0.39339 0.0
H116 H 0.88138 0.70265 0.3398 0.0
H117 H 0.83607 0.65938 0.28016 0.0
H118 H 0.80018 0.69096 0.26829 0.0
H119 H 0.84546 0.73442 0.32754 0.0
C120 C 0.76274 0.20821 0.70159 0.0
C121 C 0.78725 0.21182 0.68315 0.0
C122 C 0.77415 0.17515 0.66169 0.0
C123 C 0.79293 0.1954 0.66333 0.0
C124 C 0.7495 0.17176 0.68011 0.0
C125 C 0.74389 0.18814 0.69991 0.0
U126 U 0.77923 0.26635 0.73482 0.0
O127 O 0.74645 0.29135 0.75215 0.0
O128 O 0.78302 0.27526 0.77751 0.0
C129 C 0.75799 0.28861 0.77651 0.0
C130 C 0.75657 0.22518 0.72263 0.0
C131 C 0.73452 0.2846 0.79768 0.0
C132 C 0.69064 0.26265 0.81697 0.0
C133 C 0.71289 0.26595 0.79659 0.0
C134 C 0.7116 0.29654 0.8397 0.0
C135 C 0.68982 0.27792 0.83879 0.0
C136 C 0.73374 0.29981 0.81935 0.0
C137 C 0.84204 0.30707 0.70511 0.0
C138 C 0.85398 0.34499 0.72367 0.0
C139 C 0.88367 0.33116 0.68584 0.0
C140 C 0.86582 0.3106 0.68607 0.0
C141 C 0.87807 0.34852 0.70474 0.0
C142 C 0.83616 0.32438 0.72391 0.0
C143 C 0.82369 0.28528 0.70507 0.0
O144 O 0.77986 0.22849 0.73994 0.0
O145 O 0.74343 0.24455 0.71441 0.0
O146 O 0.79323 0.28724 0.69976 0.0
O147 O 0.82969 0.27105 0.72512 0.0
H148 H 0.80193 0.22733 0.68409 0.0
H149 H 0.81175 0.19864 0.64915 0.0
H150 H 0.73477 0.15627 0.67939 0.0
H151 H 0.72488 0.18509 0.71398 0.0
H152 H 0.67384 0.24838 0.81549 0.0
H153 H 0.71314 0.25404 0.77993 0.0
H154 H 0.71169 0.30848 0.85631 0.0
H155 H 0.7503 0.31427 0.82054 0.0
H156 H 0.84919 0.35808 0.73846 0.0
H157 H 0.90161 0.33359 0.67068 0.0
H158 H 0.87054 0.29745 0.67133 0.0
H159 H 0.81784 0.32191 0.73876 0.0
C160 C 0.83987 0.72885 0.70406 0.0
C161 C 0.86345 0.72559 0.68495 0.0
C162 C 0.87517 0.68769 0.70407 0.0
C163 C 0.88092 0.70517 0.68491 0.0
C164 C 0.8511 0.69085 0.72295 0.0
C165 C 0.83364 0.71134 0.72302 0.0
U166 U 0.7795 0.77026 0.7339 0.0
O167 O 0.78295 0.76064 0.77649 0.0
O168 O 0.74457 0.74603 0.75156 0.0
C169 C 0.75623 0.74864 0.77589 0.0
C170 C 0.82251 0.75077 0.70412 0.0
C171 C 0.73296 0.75374 0.79695 0.0
C172 C 0.68673 0.74176 0.82258 0.0
C173 C 0.70847 0.73773 0.80222 0.0
C174 C 0.7136 0.77793 0.83286 0.0
C175 C 0.68909 0.76187 0.83821 0.0
C176 C 0.7352 0.77399 0.81235 0.0
C177 C 0.76644 0.82954 0.70101 0.0
C178 C 0.75381 0.86641 0.68009 0.0
C179 C 0.79782 0.8441 0.66377 0.0
C180 C 0.79154 0.82694 0.68307 0.0
C181 C 0.77901 0.86405 0.66212 0.0
C182 C 0.7476 0.84931 0.69933 0.0
C183 C 0.75967 0.81202 0.72176 0.0
O184 O 0.82953 0.76473 0.72403 0.0
O185 O 0.7919 0.74922 0.69907 0.0
O186 O 0.78287 0.808 0.7389 0.0
O187 O 0.74535 0.79305 0.71337 0.0
H188 H 0.86844 0.73889 0.67011 0.0
H189 H 0.89885 0.703 0.66979 0.0
H190 H 0.84619 0.67764 0.73793 0.0
H191 H 0.81549 0.71362 0.73793 0.0
H192 H 0.66805 0.7291 0.82612 0.0
H193 H 0.70626 0.72199 0.79065 0.0
H194 H 0.71654 0.79333 0.8449 0.0
H195 H 0.75385 0.78667 0.80881 0.0
H196 H 0.73878 0.8815 0.67917 0.0
H197 H 0.81769 0.84197 0.65048 0.0
H198 H 0.80637 0.81175 0.68416 0.0
H199 H 0.72809 0.85157 0.71299 0.0
C200 C 0.71624 0.24878 0.25875 0.0
C201 C 0.72121 0.26749 0.2411 0.0
C202 C 0.67597 0.255 0.21383 0.0
C203 C 0.70131 0.27052 0.21874 0.0
C204 C 0.6711 0.23632 0.23163 0.0
C205 C 0.69106 0.23327 0.25391 0.0
U206 U 0.78157 0.26946 0.3067 0.0
O207 O 0.78588 0.26555 0.35046 0.0
O208 O 0.82175 0.25057 0.32446 0.0
C209 C 0.81106 0.25243 0.34897 0.0
C210 C 0.73713 0.24515 0.28217 0.0
C211 C 0.80984 0.23082 0.36472 0.0
C212 C 0.78882 0.192 0.37263 0.0
C213 C 0.78973 0.21238 0.35723 0.0
C214 C 0.82815 0.2083 0.40303 0.0
C215 C 0.80785 0.18984 0.39582 0.0
C216 C 0.82907 0.22862 0.38763 0.0
C217 C 0.81863 0.32975 0.29636 0.0
C218 C 0.86342 0.34434 0.32257 0.0
C219 C 0.83697 0.36946 0.29048 0.0
C220 C 0.81607 0.35141 0.28375 0.0
C221 C 0.86075 0.36617 0.31006 0.0
C222 C 0.8424 0.32627 0.31585 0.0
C223 C 0.79632 0.31109 0.28885 0.0
O224 O 0.76749 0.24333 0.27694 0.0
O225 O 0.73159 0.25837 0.30285 0.0
O226 O 0.77325 0.30702 0.3058 0.0
O227 O 0.80918 0.2921 0.2798 0.0
H228 H 0.74053 0.27968 0.24458 0.0
H229 H 0.70557 0.28507 0.20537 0.0
H230 H 0.65217 0.22384 0.22808 0.0
H231 H 0.68695 0.21869 0.26729 0.0
H232 H 0.77298 0.17804 0.36662 0.0
H233 H 0.77472 0.21381 0.33955 0.0
H234 H 0.84356 0.20694 0.42046 0.0
H235 H 0.84486 0.24264 0.3936 0.0
H236 H 0.88156 0.34134 0.33769 0.0
H237 H 0.83478 0.38592 0.2801 0.0
H238 H 0.79795 0.35436 0.26858 0.0
H239 H 0.84467 0.30962 0.32581 0.0
C240 C 0.24669 0.23329 0.67258 0.0
C241 C 0.26296 0.21419 0.68323 0.0
C242 C 0.24933 0.19163 0.64362 0.0
C243 C 0.2643 0.19351 0.66884 0.0
C244 C 0.23368 0.21102 0.63283 0.0
C245 C 0.23228 0.23164 0.64724 0.0
U246 U 0.27182 0.27263 0.73037 0.0
O247 O 0.27828 0.3105 0.73135 0.0
O248 O 0.2427 0.29365 0.75693 0.0
C249 C 0.25474 0.31331 0.74801 0.0
C250 C 0.24416 0.25492 0.68771 0.0
C251 C 0.23156 0.33102 0.7402 0.0
C252 C 0.18772 0.34437 0.71226 0.0
C253 C 0.2098 0.32731 0.71914 0.0
C254 C 0.20917 0.36898 0.74727 0.0
C255 C 0.18711 0.36536 0.72636 0.0
C256 C 0.23115 0.35194 0.75414 0.0
C257 C 0.337 0.25277 0.7794 0.0
C258 C 0.34598 0.2668 0.82469 0.0
C259 C 0.38662 0.2448 0.80273 0.0
C260 C 0.36723 0.24294 0.77993 0.0
C261 C 0.37597 0.25636 0.82556 0.0
C262 C 0.32665 0.26504 0.80179 0.0
C263 C 0.31653 0.24954 0.75557 0.0
O264 O 0.2327 0.25269 0.71199 0.0
O265 O 0.26889 0.26895 0.68653 0.0
O266 O 0.3222 0.26352 0.73524 0.0
O267 O 0.2861 0.24642 0.76012 0.0
H268 H 0.27437 0.21521 0.70274 0.0
H269 H 0.27658 0.17888 0.67761 0.0
H270 H 0.22264 0.21031 0.61316 0.0
H271 H 0.21985 0.24628 0.63863 0.0
H272 H 0.17139 0.34126 0.69575 0.0
H273 H 0.20993 0.31125 0.70806 0.0
H274 H 0.20917 0.38493 0.75855 0.0
H275 H 0.24779 0.35509 0.77044 0.0
H276 H 0.33719 0.27588 0.84194 0.0
H277 H 0.40994 0.23714 0.80249 0.0
H278 H 0.37577 0.23361 0.76275 0.0
H279 H 0.30347 0.27295 0.80173 0.0
C280 C 0.20939 0.73495 0.33407 0.0
C281 C 0.21558 0.71838 0.31446 0.0
C282 C 0.17393 0.69324 0.33236 0.0
C283 C 0.19803 0.69766 0.31365 0.0
C284 C 0.16804 0.70986 0.35206 0.0
C285 C 0.18559 0.73056 0.35286 0.0
U286 U 0.27113 0.77676 0.30531 0.0
O287 O 0.27031 0.81467 0.30109 0.0
O288 O 0.30734 0.79825 0.32568 0.0
C289 C 0.29428 0.81774 0.31778 0.0
C290 C 0.22741 0.7569 0.33505 0.0
C291 C 0.28957 0.83504 0.33876 0.0
C292 C 0.26033 0.84994 0.37651 0.0
C293 C 0.26471 0.83288 0.35713 0.0
C294 C 0.30578 0.87123 0.35943 0.0
C295 C 0.28083 0.86933 0.37781 0.0
C296 C 0.3101 0.85423 0.34012 0.0
C297 C 0.31421 0.7604 0.24106 0.0
C298 C 0.35823 0.78256 0.22231 0.0
C299 C 0.33407 0.75125 0.197 0.0
C300 C 0.31297 0.74693 0.21788 0.0
C301 C 0.35677 0.76921 0.19888 0.0
C302 C 0.33697 0.77827 0.24321 0.0
C303 C 0.29141 0.75556 0.26255 0.0
O304 O 0.25797 0.755 0.33993 0.0
O305 O 0.22092 0.77175 0.31572 0.0
O306 O 0.26616 0.76868 0.26247 0.0
O307 O 0.30362 0.75231 0.2866 0.0
H308 H 0.23398 0.72149 0.29984 0.0
H309 H 0.20353 0.68499 0.29857 0.0
H310 H 0.14956 0.70697 0.36667 0.0
H311 H 0.1805 0.74318 0.36812 0.0
H312 H 0.24061 0.84819 0.39012 0.0
H313 H 0.24857 0.81816 0.3563 0.0
H314 H 0.32206 0.88588 0.36005 0.0
H315 H 0.32944 0.85614 0.32612 0.0
H316 H 0.37552 0.79649 0.22427 0.0
H317 H 0.33282 0.74038 0.17943 0.0
H318 H 0.29564 0.73301 0.21592 0.0
H319 H 0.33821 0.78888 0.26099 0.0
C320 C 0.97394 0.44593 0.31078 0.0
C321 C 0.95011 0.4421 0.32984 0.0
C322 C 0.99433 0.46515 0.31275 0.0
C323 C 0.99158 0.48073 0.33405 0.0
C324 C 0.94782 0.45744 0.35143 0.0
C325 C 0.96817 0.47667 0.35336 0.0
C326 C 1.01091 0.50233 0.33501 0.0
C327 C 0.08011 0.44363 0.34434 0.0
C328 C 0.10318 0.44297 0.32423 0.0
C329 C 0.06074 0.46301 0.34692 0.0
C330 C 0.06388 0.48199 0.32925 0.0
C331 C 0.10653 0.4621 0.30687 0.0
C332 C 0.08718 0.4814 0.30942 0.0
C333 C 0.04421 0.50298 0.33182 0.0
C334 C 0.0758 0.60399 0.35146 0.0
C335 C 0.09921 0.6075 0.33196 0.0
C336 C 0.05771 0.58353 0.35196 0.0
C337 C 0.06251 0.56622 0.33284 0.0
C338 C 0.10454 0.58993 0.31328 0.0
C339 C 0.08644 0.56947 0.31378 0.0
C340 C 0.04357 0.54438 0.33311 0.0
C341 C 0.97329 0.60008 0.31247 0.0
C342 C 0.9488 0.6027 0.33103 0.0
C343 C 0.99369 0.5812 0.3143 0.0
C344 C 0.99028 0.56471 0.33496 0.0
C345 C 0.94569 0.58636 0.35191 0.0
C346 C 0.96607 0.56744 0.35371 0.0
C347 C 1.01022 0.54372 0.33584 0.0
H348 H 0.97609 0.43451 0.29381 0.0
H349 H 1.01159 0.4682 0.29716 0.0
H350 H 0.93007 0.4547 0.36669 0.0
H351 H 0.96548 0.48851 0.36988 0.0
H352 H 0.07749 0.42936 0.35839 0.0
H353 H 0.04366 0.46329 0.36295 0.0
H354 H 0.12403 0.46206 0.29115 0.0
H355 H 0.09026 0.49586 0.29568 0.0
H356 H 0.07131 0.61717 0.36621 0.0
H357 H 0.0401 0.5812 0.36741 0.0
H358 H 0.12294 0.59189 0.29844 0.0
H359 H 0.09095 0.55625 0.29909 0.0
H360 H 0.97606 0.61225 0.29601 0.0
H361 H 1.01157 0.57918 0.29912 0.0
H362 H 0.92739 0.58814 0.36678 0.0
H363 H 0.96287 0.55487 0.36972 0.0
N364 N 0.99531 0.52273 0.33695 0.0
N365 N 0.05915 0.524 0.33098 0.0
C366 C 0.9737 0.43915 0.68231 0.0
C367 C 0.95013 0.43531 0.7016 0.0
C368 C 0.99097 0.45996 0.68176 0.0
C369 C 0.98517 0.47728 0.70063 0.0
C370 C 0.94357 0.453 0.71983 0.0
C371 C 0.96087 0.47381 0.71929 0.0
C372 C 1.00412 0.49907 0.70098 0.0
C373 C 0.07196 0.44221 0.72361 0.0
C374 C 0.09749 0.43971 0.70603 0.0
C375 C 0.05219 0.46143 0.72159 0.0
C376 C 0.05733 0.47843 0.70174 0.0
C377 C 0.10274 0.45681 0.68632 0.0
C378 C 0.0829 0.47601 0.68424 0.0
C379 C 0.03766 0.49955 0.70033 0.0
C380 C 0.07027 0.59786 0.72741 0.0
C381 C 0.09707 0.60125 0.71128 0.0
C382 C 0.05044 0.57855 0.7238 0.0
C383 C 0.05659 0.56246 0.70358 0.0
C384 C 0.10295 0.58536 0.69081 0.0
C385 C 0.08302 0.56607 0.68713 0.0
C386 C 0.03728 0.54092 0.701 0.0
C387 C 0.97234 0.59987 0.68299 0.0
C388 C 0.94834 0.60263 0.702 0.0
C389 C 0.99011 0.5796 0.68253 0.0
C390 C 0.98434 0.56171 0.70116 0.0
C391 C 0.94182 0.58437 0.71998 0.0
C392 C 0.95959 0.56407 0.71949 0.0
C393 C 1.00372 0.54045 0.70145 0.0
H394 H 0.97864 0.4261 0.66752 0.0
H395 H 1.00889 0.46251 0.6666 0.0
H396 H 0.92546 0.45054 0.73484 0.0
H397 H 0.95575 0.48701 0.73387 0.0
H398 H 0.06789 0.42968 0.73951 0.0
H399 H 0.03337 0.46328 0.73597 0.0
H400 H 0.12234 0.45538 0.6726 0.0
H401 H 0.08759 0.48903 0.669 0.0
H402 H 0.06489 0.60999 0.7431 0.0
H403 H 0.03077 0.57591 0.7373 0.0
H404 H 0.12352 0.58748 0.67817 0.0
H405 H 0.08847 0.5538 0.67159 0.0
H406 H 0.97726 0.61336 0.66836 0.0
H407 H 1.00838 0.57791 0.66762 0.0
H408 H 0.92338 0.58598 0.73476 0.0
H409 H 0.95447 0.5504 0.73385 0.0
N410 N 0.98848 0.51954 0.70164 0.0
N411 N 0.05285 0.52045 0.70025 0.0
C412 C 0.2341 0.10257 0.47869 0.0
C413 C 0.25607 0.10686 0.4582 0.0
C414 C 0.23616 0.08258 0.49457 0.0
C415 C 0.26062 0.06666 0.49065 0.0
C416 C 0.28044 0.09088 0.45422 0.0
C417 C 0.28254 0.0709 0.47016 0.0
C418 C 0.2624 0.04498 0.50675 0.0
C419 C 0.27875 0.10376 0.56323 0.0
C420 C 0.25551 0.10582 0.58302 0.0
C421 C 0.28041 0.08371 0.54783 0.0
C422 C 0.2586 0.0654 0.55166 0.0
C423 C 0.23456 0.0871 0.58757 0.0
C424 C 0.23614 0.06708 0.57207 0.0
C425 C 0.25952 0.04427 0.53494 0.0
C426 C 0.2806 0.94306 0.56151 0.0
C427 C 0.25637 0.93952 0.58028 0.0
C428 C 0.28232 0.96365 0.54657 0.0
C429 C 0.25961 0.981 0.54991 0.0
C430 C 0.2344 0.95726 0.58428 0.0
C431 C 0.23604 0.97778 0.56927 0.0
C432 C 0.26065 1.00287 0.53407 0.0
C433 C 0.24506 0.94573 0.47348 0.0
C434 C 0.26904 0.94451 0.45419 0.0
C435 C 0.24356 0.96475 0.49062 0.0
C436 C 0.26621 0.98276 0.48896 0.0
C437 C 0.29147 0.96264 0.45247 0.0
C438 C 0.28999 0.98158 0.4696 0.0
C439 C 0.26431 1.00364 0.50594 0.0
H440 H 0.21531 0.11471 0.48248 0.0
H441 H 0.21842 0.07947 0.50974 0.0
H442 H 0.29759 0.09368 0.43849 0.0
H443 H 0.30138 0.05875 0.46653 0.0
H444 H 0.29538 0.11782 0.55941 0.0
H445 H 0.2987 0.08257 0.53285 0.0
H446 H 0.21699 0.08789 0.60319 0.0
H447 H 0.21945 0.05303 0.57577 0.0
H448 H 0.29802 0.92978 0.55817 0.0
H449 H 0.30141 0.96599 0.53244 0.0
H450 H 0.21601 0.95533 0.59914 0.0
H451 H 0.21861 0.99106 0.5726 0.0
H452 H 0.22703 0.93227 0.47486 0.0
H453 H 0.22436 0.96558 0.5048 0.0
H454 H 0.31024 0.96215 0.43785 0.0
H455 H 0.30753 0.99536 0.46774 0.0
N456 N 0.26508 0.02466 0.49346 0.0
N457 N 0.25836 0.02323 0.54742 0.0
C458 C 0.48029 0.7982 0.92683 0.0
C459 C 0.45319 0.784 0.92372 0.0
C460 C 0.49908 0.79671 0.95001 0.0
C461 C 0.49162 0.78062 0.97035 0.0
C462 C 0.44578 0.76789 0.94402 0.0
C463 C 0.46469 0.76631 0.96715 0.0
C464 C 0.5103 0.77974 0.99574 0.0
C465 C 0.57848 0.75862 0.93217 0.0
C466 C 0.6036 0.77439 0.92796 0.0
C467 C 0.55881 0.76077 0.95435 0.0
C468 C 0.5639 0.77874 0.97278 0.0
C469 C 0.60883 0.79225 0.9465 0.0
C470 C 0.58929 0.79429 0.96882 0.0
C471 C 0.54381 0.78063 0.99684 0.0
C472 C 0.57415 0.7669 0.11436 0.0
C473 C 0.59901 0.78321 0.11708 0.0
C474 C 0.55559 0.76621 0.09095 0.0
C475 C 0.56104 0.78217 0.07003 0.0
C476 C 0.60465 0.79894 0.09598 0.0
C477 C 0.58597 0.79835 0.07269 0.0
C478 C 0.54225 0.78151 0.04472 0.0
C479 C 0.47059 0.79488 0.10999 0.0
C480 C 0.44561 0.77856 0.11091 0.0
C481 C 0.49147 0.79537 0.08832 0.0
C482 C 0.48812 0.77918 0.06754 0.0
C483 C 0.44241 0.76239 0.09017 0.0
C484 C 0.46331 0.76279 0.06869 0.0
C485 C 0.50871 0.77986 0.04363 0.0
H486 H 0.48692 0.81054 0.91137 0.0
H487 H 0.5191 0.80848 0.9522 0.0
H488 H 0.42496 0.75681 0.94224 0.0
H489 H 0.45818 0.75394 0.98264 0.0
H490 H 0.57405 0.74463 0.91826 0.0
H491 H 0.53987 0.7482 0.9573 0.0
H492 H 0.62839 0.80438 0.94399 0.0
H493 H 0.59392 0.80809 0.98296 0.0
H494 H 0.56888 0.75476 0.1304 0.0
H495 H 0.53715 0.75309 0.08916 0.0
H496 H 0.62379 0.81157 0.09736 0.0
H497 H 0.59095 0.81065 0.05673 0.0
H498 H 0.47346 0.80759 0.12568 0.0
H499 H 0.50984 0.80861 0.0876 0.0
H500 H 0.4237 0.74938 0.0906 0.0
H501 H 0.4601 0.75019 0.0529 0.0
N502 N 0.49421 0.7791 0.01917 0.0
N503 N 0.55839 0.7818 0.02124 0.0
C504 C 0.78112 0.09967 0.47722 0.0
C505 C 0.80573 0.1045 0.45918 0.0
C506 C 0.78112 0.07925 0.49244 0.0
C507 C 0.80591 0.06335 0.49017 0.0
C508 C 0.82992 0.0882 0.4562 0.0
C509 C 0.82996 0.06777 0.47152 0.0
C510 C 0.80624 0.04177 0.50649 0.0
C511 C 0.8162 0.10063 0.56549 0.0
C512 C 0.79198 0.10132 0.58462 0.0
C513 C 0.81927 0.08134 0.54892 0.0
C514 C 0.79784 0.06256 0.5509 0.0
C515 C 0.77071 0.08248 0.58657 0.0
C516 C 0.77371 0.0633 0.57 0.0
C517 C 0.80118 0.04145 0.53445 0.0
C518 C 0.82002 0.94146 0.56641 0.0
C519 C 0.79587 0.93975 0.58555 0.0
C520 C 0.82204 0.96082 0.54937 0.0
C521 C 0.79967 0.97864 0.55099 0.0
C522 C 0.77363 0.95759 0.5871 0.0
C523 C 0.77556 0.97682 0.57008 0.0
C524 C 0.80217 1.00006 0.53447 0.0
C525 C 0.78527 0.94212 0.47635 0.0
C526 C 0.80957 0.93922 0.45768 0.0
C527 C 0.78449 0.9619 0.49227 0.0
C528 C 0.80835 0.97902 0.49019 0.0
C529 C 0.83326 0.95645 0.45544 0.0
C530 C 0.83251 0.97624 0.47141 0.0
C531 C 0.80737 1.00033 0.50653 0.0
H532 H 0.76169 0.1116 0.47936 0.0
H533 H 0.76163 0.07586 0.50593 0.0
H534 H 0.84908 0.09143 0.44233 0.0
H535 H 0.84906 0.0556 0.46912 0.0
H536 H 0.83276 0.11499 0.56334 0.0
H537 H 0.8386 0.081 0.53484 0.0
H538 H 0.75201 0.08241 0.60128 0.0
H539 H 0.75707 0.04897 0.57213 0.0
H540 H 0.83783 0.92815 0.56513 0.0
H541 H 0.84146 0.9621 0.5354 0.0
H542 H 0.75469 0.95668 0.60158 0.0
H543 H 0.75816 0.99037 0.57188 0.0
H544 H 0.76654 0.92923 0.47832 0.0
H545 H 0.76501 0.96393 0.50598 0.0
H546 H 0.85257 0.95453 0.44153 0.0
H547 H 0.85103 0.98928 0.46929 0.0
N548 N 0.80941 0.0212 0.49369 0.0
N549 N 0.7992 0.02061 0.54718 0.0
C550 C 0.47617 0.27857 0.92667 0.0
C551 C 0.45271 0.26127 0.92347 0.0
C552 C 0.49429 0.27979 0.95029 0.0
C553 C 0.48956 0.26354 0.97105 0.0
C554 C 0.44725 0.2456 0.94467 0.0
C555 C 0.46547 0.24673 0.96817 0.0
C556 C 0.50845 0.26438 0.99631 0.0
C557 C 0.5787 0.25197 0.93038 0.0
C558 C 0.60202 0.26946 0.92797 0.0
C559 C 0.55903 0.25101 0.9528 0.0
C560 C 0.56201 0.26773 0.97302 0.0
C561 C 0.60514 0.28598 0.94836 0.0
C562 C 0.58549 0.28503 0.97071 0.0
C563 C 0.5419 0.26683 0.99721 0.0
C564 C 0.5725 0.24649 0.11297 0.0
C565 C 0.59659 0.26302 0.11784 0.0
C566 C 0.5543 0.24744 0.08943 0.0
C567 C 0.55959 0.26507 0.07035 0.0
C568 C 0.60236 0.28032 0.09846 0.0
C569 C 0.58409 0.28128 0.07491 0.0
C570 C 0.54075 0.266 0.04509 0.0
C571 C 0.47261 0.27891 0.11182 0.0
C572 C 0.44776 0.26258 0.11388 0.0
C573 C 0.49194 0.27952 0.08921 0.0
C574 C 0.48722 0.26346 0.06847 0.0
C575 C 0.4428 0.24675 0.09298 0.0
C576 C 0.46222 0.24728 0.07046 0.0
C577 C 0.50728 0.26396 0.0442 0.0
H578 H 0.4807 0.29103 0.91078 0.0
H579 H 0.51191 0.29348 0.95233 0.0
H580 H 0.42869 0.23253 0.94317 0.0
H581 H 0.46089 0.2343 0.98408 0.0
H582 H 0.57553 0.23913 0.91487 0.0
H583 H 0.54162 0.23714 0.95438 0.0
H584 H 0.62309 0.29952 0.94717 0.0
H585 H 0.58852 0.29794 0.98618 0.0
H586 H 0.56813 0.23255 0.12715 0.0
H587 H 0.53633 0.2342 0.08599 0.0
H588 H 0.62085 0.29322 0.10162 0.0
H589 H 0.58891 0.29484 0.06033 0.0
H590 H 0.47678 0.29143 0.12755 0.0
H591 H 0.51037 0.29268 0.08787 0.0
H592 H 0.42413 0.23375 0.09421 0.0
H593 H 0.45795 0.23482 0.05469 0.0
N594 N 0.49257 0.26299 0.01985 0.0
N595 N 0.55664 0.26762 0.02157 0.0
C596 C 0.17753 0.40763 0.31433 0.0
C597 C 0.16581 0.38478 0.31235 0.0
C598 C 0.15719 0.42619 0.31876 0.0
C599 C 0.12428 0.42269 0.32139 0.0
H600 H 0.20267 0.41122 0.31226 0.0
H601 H 0.16732 0.44349 0.31998 0.0
S602 S 0.08147 0.36631 0.31728 0.0
N603 N 0.11911 0.35969 0.31318 0.0
N604 N 0.08083 0.39464 0.32152 0.0
C605 C 0.11226 0.3999 0.31991 0.0
C606 C 0.13302 0.38095 0.31539 0.0
C607 C 0.15155 0.65344 0.69988 0.0
C608 C 0.16427 0.65759 0.72559 0.0
C609 C 0.12978 0.63524 0.69537 0.0
C610 C 0.11963 0.62073 0.71648 0.0
H611 H 0.15889 0.66408 0.68303 0.0
H612 H 0.12071 0.63256 0.67524 0.0
S613 S 0.1453 0.62465 0.78763 0.0
N614 N 0.16449 0.64606 0.77254 0.0
N615 N 0.12411 0.61171 0.76401 0.0
C616 C 0.13195 0.62486 0.74231 0.0
C617 C 0.15414 0.64329 0.74687 0.0
C618 C 0.91602 0.66307 0.31868 0.0
C619 C 0.883 0.65922 0.31821 0.0
C620 C 0.93712 0.64479 0.32327 0.0
C621 C 0.92598 0.62203 0.32785 0.0
H622 H 0.92565 0.68022 0.31474 0.0
H623 H 0.96237 0.64847 0.32307 0.0
S624 S 0.84162 0.60304 0.32989 0.0
N625 N 0.84011 0.63117 0.32387 0.0
N626 N 0.87968 0.59679 0.33206 0.0
C627 C 0.89299 0.61807 0.32807 0.0
C628 C 0.87154 0.63665 0.32331 0.0
C629 C 0.88164 0.39191 0.70486 0.0
C630 C 0.897 0.3704 0.70442 0.0
C631 C 0.89897 0.41279 0.70401 0.0
C632 C 0.9323 0.41297 0.70268 0.0
H633 H 0.85599 0.39259 0.70544 0.0
H634 H 0.88613 0.42894 0.70398 0.0
S635 S 0.984 0.3614 0.70362 0.0
N636 N 0.94757 0.35058 0.70426 0.0
N637 N 0.9801 0.38981 0.70271 0.0
C638 C 0.94798 0.3916 0.70275 0.0
C639 C 0.93035 0.37034 0.7036 0.0
C640 C 0.27852 0.16226 0.42076 0.0
C641 C 0.24962 0.16909 0.40892 0.0
C642 C 0.28046 0.14207 0.43651 0.0
C643 C 0.25358 0.12793 0.44099 0.0
H644 H 0.29968 0.17285 0.41823 0.0
H645 H 0.30307 0.1377 0.44563 0.0
S646 S 0.1731 0.13686 0.41219 0.0
N647 N 0.19406 0.15927 0.40125 0.0
N648 N 0.19772 0.12131 0.43073 0.0
C649 C 0.22472 0.13427 0.42874 0.0
C650 C 0.22275 0.15483 0.41275 0.0
C651 C 0.40324 0.7678 0.86255 0.0
C652 C 0.3924 0.78935 0.85301 0.0
C653 C 0.42276 0.76622 0.88543 0.0
C654 C 0.43244 0.78613 0.89953 0.0
H655 H 0.3963 0.752 0.85239 0.0
H656 H 0.43058 0.74927 0.89199 0.0
S657 S 0.41078 0.84671 0.88278 0.0
N658 N 0.39324 0.83107 0.85924 0.0
N659 N 0.42927 0.82805 0.90253 0.0
C660 C 0.42179 0.80778 0.8902 0.0
C661 C 0.40191 0.8094 0.86693 0.0
C662 C 0.80748 0.87589 0.43727 0.0
C663 C 0.81109 0.87698 0.4093 0.0
C664 C 0.80688 0.89607 0.4527 0.0
C665 C 0.8102 0.91813 0.44079 0.0
H666 H 0.80478 0.85929 0.44731 0.0
H667 H 0.80412 0.89438 0.47417 0.0
S668 S 0.82047 0.93049 0.36834 0.0
N669 N 0.81837 0.90195 0.37035 0.0
N670 N 0.81685 0.93988 0.39929 0.0
C671 C 0.81388 0.91948 0.41285 0.0
C672 C 0.81435 0.89893 0.39712 0.0
C673 C 0.6489 0.29394 0.86937 0.0
C674 C 0.66625 0.27482 0.86056 0.0
C675 C 0.62783 0.29192 0.89081 0.0
C676 C 0.6232 0.27068 0.90433 0.0
H677 H 0.65171 0.31067 0.85964 0.0
H678 H 0.6151 0.30715 0.89692 0.0
S679 S 0.66357 0.21552 0.88973 0.0
N680 N 0.67776 0.23402 0.86735 0.0
N681 N 0.6381 0.23021 0.90765 0.0
C682 C 0.6401 0.25134 0.89556 0.0
C683 C 0.66161 0.25341 0.8737 0.0
C684 C 0.27957 0.88778 0.62375 0.0
C685 C 0.25091 0.87521 0.6261 0.0
C686 C 0.2812 0.90844 0.60878 0.0
C687 C 0.25416 0.91745 0.59579 0.0
H688 H 0.30101 0.88145 0.63331 0.0
H689 H 0.30374 0.91757 0.60759 0.0
S690 S 0.17334 0.89129 0.59587 0.0
N691 N 0.19476 0.87349 0.61451 0.0
N692 N 0.19796 0.91201 0.58599 0.0
C693 C 0.22536 0.90507 0.59802 0.0
C694 C 0.22371 0.88403 0.61321 0.0
C695 C 0.64478 0.80703 0.17712 0.0
C696 C 0.65843 0.78718 0.18881 0.0
C697 C 0.62554 0.80553 0.1541 0.0
C698 C 0.61903 0.78411 0.14184 0.0
H699 H 0.64937 0.82396 0.18561 0.0
H700 H 0.61557 0.82131 0.14589 0.0
S701 S 0.64859 0.72687 0.16469 0.0
N702 N 0.66342 0.74532 0.18673 0.0
N703 N 0.62798 0.74258 0.14305 0.0
C704 C 0.63236 0.76409 0.15339 0.0
C705 C 0.65194 0.76561 0.17689 0.0
C706 C 0.7544 0.1488 0.62543 0.0
C707 C 0.77993 0.15749 0.64085 0.0
C708 C 0.75873 0.13112 0.60681 0.0
C709 C 0.78875 0.12136 0.60289 0.0
H710 H 0.7308 0.15564 0.62789 0.0
H711 H 0.7383 0.12489 0.59552 0.0
S712 S 0.8632 0.13757 0.63873 0.0
N713 N 0.83627 0.15489 0.65115 0.0
N714 N 0.84439 0.12155 0.61623 0.0
C715 C 0.8146 0.13012 0.61788 0.0
C716 C 0.81019 0.14819 0.63684 0.0
C717 C 0.42241 0.25934 0.18669 0.0
C718 C 0.38906 0.25897 0.18482 0.0
C719 C 0.44119 0.26091 0.1637 0.0
C720 C 0.42734 0.26187 0.13795 0.0
H721 H 0.43408 0.25845 0.2061 0.0
H722 H 0.46677 0.26093 0.16606 0.0
S723 S 0.34115 0.26173 0.12213 0.0
N724 N 0.343 0.25982 0.15513 0.0
N725 N 0.37829 0.26295 0.11196 0.0
C726 C 0.39404 0.26171 0.13581 0.0
C727 C 0.37492 0.26026 0.15922 0.0
C728 C 0.87916 0.64434 0.70475 0.0
C729 C 0.89426 0.66621 0.70427 0.0
C730 C 0.89678 0.62387 0.70414 0.0
C731 C 0.93014 0.62451 0.70307 0.0
H732 H 0.85351 0.64306 0.7051 0.0
H733 H 0.88415 0.60742 0.70406 0.0
S734 S 0.98112 0.67732 0.70432 0.0
N735 N 0.94454 0.68724 0.70453 0.0
N736 N 0.97761 0.64882 0.70352 0.0
C737 C 0.94552 0.64626 0.70325 0.0
C738 C 0.9276 0.66707 0.70381 0.0
C739 C 0.91606 0.38188 0.31636 0.0
C740 C 0.8831 0.38539 0.3169 0.0
C741 C 0.93759 0.40021 0.3209 0.0
C742 C 0.92695 0.42267 0.32646 0.0
H743 H 0.92529 0.36497 0.3117 0.0
H744 H 0.96277 0.3968 0.31994 0.0
S745 S 0.84298 0.4407 0.33123 0.0
N746 N 0.84086 0.41278 0.32445 0.0
N747 N 0.88119 0.44726 0.33258 0.0
C748 C 0.89404 0.42627 0.32762 0.0
C749 C 0.87216 0.40765 0.32291 0.0
C750 C 0.1742 0.40674 0.71609 0.0
C751 C 0.16379 0.38366 0.71944 0.0
C752 C 0.15266 0.42461 0.71107 0.0
C753 C 0.11982 0.42014 0.7094 0.0
H754 H 0.19923 0.41106 0.71756 0.0
H755 H 0.16175 0.44217 0.70919 0.0
S756 S 0.08036 0.36262 0.71565 0.0
N757 N 0.11846 0.35723 0.72011 0.0
N758 N 0.07799 0.39083 0.71034 0.0
C759 C 0.10911 0.39709 0.71214 0.0
C760 C 0.13108 0.37885 0.71716 0.0
C761 C 0.15047 0.6583 0.35525 0.0
C762 C 0.15507 0.6713 0.33161 0.0
C763 C 0.13245 0.63771 0.35518 0.0
C764 C 0.11834 0.62931 0.33145 0.0
H765 H 0.16113 0.66397 0.37395 0.0
H766 H 0.12982 0.62817 0.37381 0.0
S767 S 0.12119 0.65773 0.26459 0.0
N768 N 0.14275 0.67485 0.28409 0.0
N769 N 0.10893 0.63617 0.28395 0.0
C770 C 0.12251 0.64224 0.30772 0.0
C771 C 0.14085 0.6632 0.30779 0.0
C772 C 0.78666 0.90596 0.65058 0.0
C773 C 0.7857 0.88275 0.64223 0.0
C774 C 0.79074 0.92416 0.63217 0.0
C775 C 0.79407 0.91991 0.60466 0.0
H776 H 0.78401 0.91013 0.67154 0.0
H777 H 0.79105 0.94176 0.63954 0.0
S778 S 0.79303 0.86232 0.57233 0.0
N779 N 0.78844 0.8565 0.60452 0.0
N780 N 0.79625 0.8908 0.56989 0.0
C781 C 0.79386 0.89679 0.59604 0.0
C782 C 0.78964 0.8782 0.61482 0.0
C783 C 0.66866 0.26106 0.16435 0.0
C784 C 0.65517 0.25792 0.1898 0.0
C785 C 0.64957 0.26296 0.14125 0.0
C786 C 0.61626 0.26181 0.14272 0.0
H787 H 0.6942 0.26156 0.1622 0.0
H788 H 0.66101 0.26486 0.12202 0.0
S789 S 0.56918 0.25621 0.20483 0.0
N790 N 0.60645 0.25538 0.2153 0.0
N791 N 0.57059 0.25901 0.17192 0.0
C792 C 0.60247 0.25927 0.16812 0.0
C793 C 0.6219 0.25732 0.19163 0.0
C794 C 0.27914 0.15806 0.62512 0.0
C795 C 0.25021 0.16953 0.62853 0.0
C796 C 0.28065 0.13749 0.61043 0.0
C797 C 0.25324 0.12748 0.59879 0.0
H798 H 0.30089 0.16522 0.63353 0.0
H799 H 0.30345 0.12928 0.6083 0.0
S800 S 0.17156 0.15046 0.60224 0.0
N801 N 0.1934 0.16905 0.61959 0.0
N802 N 0.19633 0.13071 0.59156 0.0
C803 C 0.22414 0.13869 0.60221 0.0
C804 C 0.22261 0.15964 0.61713 0.0
C805 C 0.41198 0.77485 0.18128 0.0
C806 C 0.37903 0.77366 0.17647 0.0
C807 C 0.43344 0.77712 0.16005 0.0
C808 C 0.42267 0.77826 0.1333 0.0
H809 H 0.42128 0.77326 0.20152 0.0
H810 H 0.45865 0.77722 0.16452 0.0
S811 S 0.33871 0.77925 0.11037 0.0
N812 N 0.33666 0.77616 0.14321 0.0
N813 N 0.3769 0.78036 0.10341 0.0
C814 C 0.38977 0.77815 0.12837 0.0
C815 C 0.36799 0.77586 0.14991 0.0
C816 C 0.81011 0.14655 0.40018 0.0
C817 C 0.80678 0.16828 0.41233 0.0
C818 C 0.80997 0.12603 0.41546 0.0
C819 C 0.80609 0.12645 0.44341 0.0
H820 H 0.81329 0.14543 0.37873 0.0
H821 H 0.81261 0.10967 0.40529 0.0
S822 S 0.79608 0.17883 0.48486 0.0
N823 N 0.79904 0.18894 0.45394 0.0
N824 N 0.79911 0.15043 0.48264 0.0
C825 C 0.80258 0.14805 0.45578 0.0
C826 C 0.80289 0.16893 0.44026 0.0
C827 C 0.4009 0.27841 0.8637 0.0
C828 C 0.3959 0.25728 0.85034 0.0
C829 C 0.41957 0.27962 0.88713 0.0
C830 C 0.43372 0.25971 0.89823 0.0
H831 H 0.39049 0.29417 0.85588 0.0
H832 H 0.42256 0.29622 0.89683 0.0
S833 S 0.42797 0.20018 0.87101 0.0
N834 N 0.40635 0.21595 0.85018 0.0
N835 N 0.44198 0.21833 0.89373 0.0
C836 C 0.429 0.23851 0.88501 0.0
C837 C 0.41002 0.23728 0.86119 0.0
C838 C 0.27663 0.91129 0.38928 0.0
C839 C 0.27606 0.88797 0.39771 0.0
C840 C 0.27384 0.92935 0.40763 0.0
C841 C 0.27034 0.92486 0.43518 0.0
H842 H 0.27931 0.91564 0.36827 0.0
H843 H 0.27445 0.94702 0.40016 0.0
S844 S 0.26826 0.8669 0.46776 0.0
N845 N 0.27214 0.86137 0.43557 0.0
N846 N 0.26684 0.89538 0.4701 0.0
C847 C 0.26933 0.90164 0.4439 0.0
C848 C 0.2722 0.88319 0.42518 0.0
C849 C 0.65978 0.74722 0.87854 0.0
C850 C 0.66673 0.76554 0.86066 0.0
C851 C 0.63922 0.75021 0.9001 0.0
C852 C 0.62492 0.77166 0.90474 0.0
H853 H 0.67072 0.73049 0.87612 0.0
H854 H 0.63487 0.73569 0.91351 0.0
S855 S 0.6331 0.82462 0.86276 0.0
N856 N 0.65602 0.80555 0.84823 0.0
N857 N 0.61778 0.8112 0.88902 0.0
C858 C 0.63129 0.79005 0.8869 0.0
C859 C 0.65208 0.78699 0.86482 0.0
loop_
_geom_bond_atom_site_label_1
_geom_bond_atom_site_label_2
_geom_bond_distance
_geom_bond_site_symmetry_2
_ccdc_geom_bond_type
C0 C1 1.264 . S
C0 C5 1.479 . S
C0 C10 1.465 . S
C1 C0 1.264 . S
C1 C3 1.339 . S
C1 H28 0.931 . S
C2 C3 1.395 . S
C2 C4 1.320 . S
C3 C1 1.339 . S
C3 C2 1.395 . S
C3 H29 0.929 . S
C4 C2 1.320 . S
C4 C5 1.405 . S
C4 H30 0.930 . S
C5 C0 1.479 . S
C5 C4 1.405 . S
C5 H31 0.931 . S
U6 O7 2.454 . S
U6 O8 2.458 . S
U6 C9 2.984 . S
U6 C10 2.847 . S
U6 C23 2.882 . S
U6 O24 2.441 . S
U6 O25 2.420 . S
U6 O26 2.455 . S
U6 O27 2.449 . S
O7 U6 2.454 . S
O7 C9 1.353 . S
O8 U6 2.458 . S
O8 C9 1.286 . S
C9 U6 2.984 . S
C9 O7 1.353 . S
C9 O8 1.286 . S
C9 C11 1.363 . S
C10 C0 1.465 . S
C10 U6 2.847 . S
C10 O24 1.249 . S
C10 O25 1.202 . S
C11 C9 1.363 . S
C11 C13 1.408 . S
C11 C16 1.342 . S
C12 C13 1.310 . S
C12 C15 1.461 . S
C12 H32 0.932 . S
C13 C11 1.408 . S
C13 C12 1.310 . S
C13 H33 0.930 . S
C14 C15 1.474 . S
C14 C16 1.285 . S
C14 H34 0.929 . S
C15 C12 1.461 . S
C15 C14 1.474 . S
C16 C11 1.342 . S
C16 C14 1.285 . S
C16 H35 0.930 . S
C17 C20 1.424 . S
C17 C22 1.245 . S
C17 C23 1.428 . S
C18 C21 1.260 . S
C18 C22 1.477 . S
C18 H36 0.932 . S
C19 C20 1.384 . S
C19 C21 1.479 . S
C19 H37 0.929 . S
C20 C17 1.424 . S
C20 C19 1.384 . S
C20 H38 0.928 . S
C21 C18 1.260 . S
C21 C19 1.479 . S
C22 C17 1.245 . S
C22 C18 1.477 . S
C22 H39 0.932 . S
C23 U6 2.882 . S
C23 C17 1.428 . S
C23 O26 1.301 . S
C23 O27 1.282 . S
O24 U6 2.441 . S
O24 C10 1.249 . S
O25 U6 2.420 . S
O25 C10 1.202 . S
O26 U6 2.455 . S
O26 C23 1.301 . S
O27 U6 2.449 . S
O27 C23 1.282 . S
H28 C1 0.931 . S
H29 C3 0.929 . S
H30 C4 0.930 . S
H31 C5 0.931 . S
H32 C12 0.932 . S
H33 C13 0.930 . S
H34 C14 0.929 . S
H35 C16 0.930 . S
H36 C18 0.932 . S
H37 C19 0.929 . S
H38 C20 0.928 . S
H39 C22 0.932 . S
C40 C41 1.264 . S
C40 C45 1.479 . S
C40 C50 1.465 . S
C41 C40 1.264 . S
C41 C43 1.339 . S
C41 H68 0.931 . S
C42 C43 1.395 . S
C42 C44 1.320 . S
C43 C41 1.339 . S
C43 C42 1.395 . S
C43 H69 0.929 . S
C44 C42 1.320 . S
C44 C45 1.405 . S
C44 H70 0.930 . S
C45 C40 1.479 . S
C45 C44 1.405 . S
C45 H71 0.931 . S
U46 O47 2.454 . S
U46 O48 2.458 . S
U46 C49 2.984 . S
U46 C50 2.847 . S
U46 C63 2.882 . S
U46 O64 2.441 . S
U46 O65 2.420 . S
U46 O66 2.455 . S
U46 O67 2.449 . S
O47 U46 2.454 . S
O47 C49 1.353 . S
O48 U46 2.458 . S
O48 C49 1.286 . S
C49 U46 2.984 . S
C49 O47 1.353 . S
C49 O48 1.286 . S
C49 C51 1.363 . S
C50 C40 1.465 . S
C50 U46 2.847 . S
C50 O64 1.249 . S
C50 O65 1.202 . S
C51 C49 1.363 . S
C51 C53 1.408 . S
C51 C56 1.342 . S
C52 C53 1.310 . S
C52 C55 1.461 . S
C52 H72 0.932 . S
C53 C51 1.408 . S
C53 C52 1.310 . S
C53 H73 0.930 . S
C54 C55 1.474 . S
C54 C56 1.285 . S
C54 H74 0.929 . S
C55 C52 1.461 . S
C55 C54 1.474 . S
C56 C51 1.342 . S
C56 C54 1.285 . S
C56 H75 0.930 . S
C57 C60 1.424 . S
C57 C62 1.245 . S
C57 C63 1.428 . S
C58 C61 1.260 . S
C58 C62 1.477 . S
C58 H76 0.932 . S
C59 C60 1.384 . S
C59 C61 1.479 . S
C59 H77 0.929 . S
C60 C57 1.424 . S
C60 C59 1.384 . S
C60 H78 0.928 . S
C61 C58 1.260 . S
C61 C59 1.479 . S
C62 C57 1.245 . S
C62 C58 1.477 . S
C62 H79 0.932 . S
C63 U46 2.882 . S
C63 C57 1.428 . S
C63 O66 1.301 . S
C63 O67 1.282 . S
O64 U46 2.441 . S
O64 C50 1.249 . S
O65 U46 2.420 . S
O65 C50 1.202 . S
O66 U46 2.455 . S
O66 C63 1.301 . S
O67 U46 2.449 . S
O67 C63 1.282 . S
H68 C41 0.931 . S
H69 C43 0.929 . S
H70 C44 0.930 . S
H71 C45 0.931 . S
H72 C52 0.932 . S
H73 C53 0.930 . S
H74 C54 0.929 . S
H75 C56 0.930 . S
H76 C58 0.932 . S
H77 C59 0.929 . S
H78 C60 0.928 . S
H79 C62 0.932 . S
C80 C81 1.264 . S
C80 C85 1.479 . S
C80 C90 1.465 . S
C81 C80 1.264 . S
C81 C83 1.339 . S
C81 H108 0.931 . S
C82 C83 1.395 . S
C82 C84 1.320 . S
C83 C81 1.339 . S
C83 C82 1.395 . S
C83 H109 0.929 . S
C84 C82 1.320 . S
C84 C85 1.405 . S
C84 H110 0.930 . S
C85 C80 1.479 . S
C85 C84 1.405 . S
C85 H111 0.931 . S
U86 O87 2.454 . S
U86 O88 2.458 . S
U86 C89 2.984 . S
U86 C90 2.847 . S
U86 C103 2.882 . S
U86 O104 2.441 . S
U86 O105 2.420 . S
U86 O106 2.455 . S
U86 O107 2.449 . S
O87 U86 2.454 . S
O87 C89 1.353 . S
O88 U86 2.458 . S
O88 C89 1.286 . S
C89 U86 2.984 . S
C89 O87 1.353 . S
C89 O88 1.286 . S
C89 C91 1.363 . S
C90 C80 1.465 . S
C90 U86 2.847 . S
C90 O104 1.249 . S
C90 O105 1.202 . S
C91 C89 1.363 . S
C91 C93 1.408 . S
C91 C96 1.342 . S
C92 C93 1.310 . S
C92 C95 1.461 . S
C92 H112 0.932 . S
C93 C91 1.408 . S
C93 C92 1.310 . S
C93 H113 0.930 . S
C94 C95 1.474 . S
C94 C96 1.285 . S
C94 H114 0.929 . S
C95 C92 1.461 . S
C95 C94 1.474 . S
C96 C91 1.342 . S
C96 C94 1.285 . S
C96 H115 0.930 . S
C97 C100 1.424 . S
C97 C102 1.245 . S
C97 C103 1.428 . S
C98 C101 1.260 . S
C98 C102 1.477 . S
C98 H116 0.932 . S
C99 C100 1.384 . S
C99 C101 1.479 . S
C99 H117 0.929 . S
C100 C97 1.424 . S
C100 C99 1.384 . S
C100 H118 0.928 . S
C101 C98 1.260 . S
C101 C99 1.479 . S
C102 C97 1.245 . S
C102 C98 1.477 . S
C102 H119 0.932 . S
C103 U86 2.882 . S
C103 C97 1.428 . S
C103 O106 1.301 . S
C103 O107 1.282 . S
O104 U86 2.441 . S
O104 C90 1.249 . S
O105 U86 2.420 . S
O105 C90 1.202 . S
O106 U86 2.455 . S
O106 C103 1.301 . S
O107 U86 2.449 . S
O107 C103 1.282 . S
H108 C81 0.931 . S
H109 C83 0.929 . S
H110 C84 0.930 . S
H111 C85 0.931 . S
H112 C92 0.932 . S
H113 C93 0.930 . S
H114 C94 0.929 . S
H115 C96 0.930 . S
H116 C98 0.932 . S
H117 C99 0.929 . S
H118 C100 0.928 . S
H119 C102 0.932 . S
C120 C121 1.264 . S
C120 C125 1.479 . S
C120 C130 1.465 . S
C121 C120 1.264 . S
C121 C123 1.339 . S
C121 H148 0.931 . S
C122 C123 1.395 . S
C122 C124 1.320 . S
C123 C121 1.339 . S
C123 C122 1.395 . S
C123 H149 0.929 . S
C124 C122 1.320 . S
C124 C125 1.405 . S
C124 H150 0.930 . S
C125 C120 1.479 . S
C125 C124 1.405 . S
C125 H151 0.931 . S
U126 O127 2.454 . S
U126 O128 2.458 . S
U126 C129 2.984 . S
U126 C130 2.847 . S
U126 C143 2.882 . S
U126 O144 2.441 . S
U126 O145 2.420 . S
U126 O146 2.455 . S
U126 O147 2.449 . S
O127 U126 2.454 . S
O127 C129 1.353 . S
O128 U126 2.458 . S
O128 C129 1.286 . S
C129 U126 2.984 . S
C129 O127 1.353 . S
C129 O128 1.286 . S
C129 C131 1.363 . S
C130 C120 1.465 . S
C130 U126 2.847 . S
C130 O144 1.249 . S
C130 O145 1.202 . S
C131 C129 1.363 . S
C131 C133 1.408 . S
C131 C136 1.342 . S
C132 C133 1.310 . S
C132 C135 1.461 . S
C132 H152 0.932 . S
C133 C131 1.408 . S
C133 C132 1.310 . S
C133 H153 0.930 . S
C134 C135 1.474 . S
C134 C136 1.285 . S
C134 H154 0.929 . S
C135 C132 1.461 . S
C135 C134 1.474 . S
C136 C131 1.342 . S
C136 C134 1.285 . S
C136 H155 0.930 . S
C137 C140 1.424 . S
C137 C142 1.245 . S
C137 C143 1.428 . S
C138 C141 1.260 . S
C138 C142 1.477 . S
C138 H156 0.932 . S
C139 C140 1.384 . S
C139 C141 1.479 . S
C139 H157 0.929 . S
C140 C137 1.424 . S
C140 C139 1.384 . S
C140 H158 0.928 . S
C141 C138 1.260 . S
C141 C139 1.479 . S
C142 C137 1.245 . S
C142 C138 1.477 . S
C142 H159 0.932 . S
C143 U126 2.882 . S
C143 C137 1.428 . S
C143 O146 1.301 . S
C143 O147 1.282 . S
O144 U126 2.441 . S
O144 C130 1.249 . S
O145 U126 2.420 . S
O145 C130 1.202 . S
O146 U126 2.455 . S
O146 C143 1.301 . S
O147 U126 2.449 . S
O147 C143 1.282 . S
H148 C121 0.931 . S
H149 C123 0.929 . S
H150 C124 0.930 . S
H151 C125 0.931 . S
H152 C132 0.932 . S
H153 C133 0.930 . S
H154 C134 0.929 . S
H155 C136 0.930 . S
H156 C138 0.932 . S
H157 C139 0.929 . S
H158 C140 0.928 . S
H159 C142 0.932 . S
C160 C161 1.264 . S
C160 C165 1.479 . S
C160 C170 1.465 . S
C161 C160 1.264 . S
C161 C163 1.339 . S
C161 H188 0.931 . S
C162 C163 1.395 . S
C162 C164 1.320 . S
C163 C161 1.339 . S
C163 C162 1.395 . S
C163 H189 0.929 . S
C164 C162 1.320 . S
C164 C165 1.405 . S
C164 H190 0.930 . S
C165 C160 1.479 . S
C165 C164 1.405 . S
C165 H191 0.931 . S
U166 O167 2.454 . S
U166 O168 2.458 . S
U166 C169 2.984 . S
U166 C170 2.847 . S
U166 C183 2.882 . S
U166 O184 2.441 . S
U166 O185 2.420 . S
U166 O186 2.455 . S
U166 O187 2.449 . S
O167 U166 2.454 . S
O167 C169 1.353 . S
O168 U166 2.458 . S
O168 C169 1.286 . S
C169 U166 2.984 . S
C169 O167 1.353 . S
C169 O168 1.286 . S
C169 C171 1.363 . S
C170 C160 1.465 . S
C170 U166 2.847 . S
C170 O184 1.249 . S
C170 O185 1.202 . S
C171 C169 1.363 . S
C171 C173 1.408 . S
C171 C176 1.342 . S
C172 C173 1.310 . S
C172 C175 1.461 . S
C172 H192 0.932 . S
C173 C171 1.408 . S
C173 C172 1.310 . S
C173 H193 0.930 . S
C174 C175 1.474 . S
C174 C176 1.285 . S
C174 H194 0.929 . S
C175 C172 1.461 . S
C175 C174 1.474 . S
C176 C171 1.342 . S
C176 C174 1.285 . S
C176 H195 0.930 . S
C177 C180 1.424 . S
C177 C182 1.245 . S
C177 C183 1.428 . S
C178 C181 1.260 . S
C178 C182 1.477 . S
C178 H196 0.932 . S
C179 C180 1.384 . S
C179 C181 1.479 . S
C179 H197 0.929 . S
C180 C177 1.424 . S
C180 C179 1.384 . S
C180 H198 0.928 . S
C181 C178 1.260 . S
C181 C179 1.479 . S
C182 C177 1.245 . S
C182 C178 1.477 . S
C182 H199 0.932 . S
C183 U166 2.882 . S
C183 C177 1.428 . S
C183 O186 1.301 . S
C183 O187 1.282 . S
O184 U166 2.441 . S
O184 C170 1.249 . S
O185 U166 2.420 . S
O185 C170 1.202 . S
O186 U166 2.455 . S
O186 C183 1.301 . S
O187 U166 2.449 . S
O187 C183 1.282 . S
H188 C161 0.931 . S
H189 C163 0.929 . S
H190 C164 0.930 . S
H191 C165 0.931 . S
H192 C172 0.932 . S
H193 C173 0.930 . S
H194 C174 0.929 . S
H195 C176 0.930 . S
H196 C178 0.932 . S
H197 C179 0.929 . S
H198 C180 0.928 . S
H199 C182 0.932 . S
C200 C201 1.264 . S
C200 C205 1.479 . S
C200 C210 1.465 . S
C201 C200 1.264 . S
C201 C203 1.339 . S
C201 H228 0.931 . S
C202 C203 1.395 . S
C202 C204 1.320 . S
C203 C201 1.339 . S
C203 C202 1.395 . S
C203 H229 0.929 . S
C204 C202 1.320 . S
C204 C205 1.405 . S
C204 H230 0.930 . S
C205 C200 1.479 . S
C205 C204 1.405 . S
C205 H231 0.931 . S
U206 O207 2.454 . S
U206 O208 2.458 . S
U206 C209 2.984 . S
U206 C210 2.847 . S
U206 C223 2.882 . S
U206 O224 2.441 . S
U206 O225 2.420 . S
U206 O226 2.455 . S
U206 O227 2.449 . S
O207 U206 2.454 . S
O207 C209 1.353 . S
O208 U206 2.458 . S
O208 C209 1.286 . S
C209 U206 2.984 . S
C209 O207 1.353 . S
C209 O208 1.286 . S
C209 C211 1.363 . S
C210 C200 1.465 . S
C210 U206 2.847 . S
C210 O224 1.249 . S
C210 O225 1.202 . S
C211 C209 1.363 . S
C211 C213 1.408 . S
C211 C216 1.342 . S
C212 C213 1.310 . S
C212 C215 1.461 . S
C212 H232 0.932 . S
C213 C211 1.408 . S
C213 C212 1.310 . S
C213 H233 0.930 . S
C214 C215 1.474 . S
C214 C216 1.285 . S
C214 H234 0.929 . S
C215 C212 1.461 . S
C215 C214 1.474 . S
C216 C211 1.342 . S
C216 C214 1.285 . S
C216 H235 0.930 . S
C217 C220 1.424 . S
C217 C222 1.245 . S
C217 C223 1.428 . S
C218 C221 1.260 . S
C218 C222 1.477 . S
C218 H236 0.932 . S
C219 C220 1.384 . S
C219 C221 1.479 . S
C219 H237 0.929 . S
C220 C217 1.424 . S
C220 C219 1.384 . S
C220 H238 0.928 . S
C221 C218 1.260 . S
C221 C219 1.479 . S
C222 C217 1.245 . S
C222 C218 1.477 . S
C222 H239 0.932 . S
C223 U206 2.882 . S
C223 C217 1.428 . S
C223 O226 1.301 . S
C223 O227 1.282 . S
O224 U206 2.441 . S
O224 C210 1.249 . S
O225 U206 2.420 . S
O225 C210 1.202 . S
O226 U206 2.455 . S
O226 C223 1.301 . S
O227 U206 2.449 . S
O227 C223 1.282 . S
H228 C201 0.931 . S
H229 C203 0.929 . S
H230 C204 0.930 . S
H231 C205 0.931 . S
H232 C212 0.932 . S
H233 C213 0.930 . S
H234 C214 0.929 . S
H235 C216 0.930 . S
H236 C218 0.932 . S
H237 C219 0.929 . S
H238 C220 0.928 . S
H239 C222 0.932 . S
C240 C241 1.264 . S
C240 C245 1.479 . S
C240 C250 1.465 . S
C241 C240 1.264 . S
C241 C243 1.339 . S
C241 H268 0.931 . S
C242 C243 1.395 . S
C242 C244 1.320 . S
C243 C241 1.339 . S
C243 C242 1.395 . S
C243 H269 0.929 . S
C244 C242 1.320 . S
C244 C245 1.405 . S
C244 H270 0.930 . S
C245 C240 1.479 . S
C245 C244 1.405 . S
C245 H271 0.931 . S
U246 O247 2.454 . S
U246 O248 2.458 . S
U246 C249 2.984 . S
U246 C250 2.847 . S
U246 C263 2.882 . S
U246 O264 2.441 . S
U246 O265 2.420 . S
U246 O266 2.455 . S
U246 O267 2.449 . S
O247 U246 2.454 . S
O247 C249 1.353 . S
O248 U246 2.458 . S
O248 C249 1.286 . S
C249 U246 2.984 . S
C249 O247 1.353 . S
C249 O248 1.286 . S
C249 C251 1.363 . S
C250 C240 1.465 . S
C250 U246 2.847 . S
C250 O264 1.249 . S
C250 O265 1.202 . S
C251 C249 1.363 . S
C251 C253 1.408 . S
C251 C256 1.342 . S
C252 C253 1.310 . S
C252 C255 1.461 . S
C252 H272 0.932 . S
C253 C251 1.408 . S
C253 C252 1.310 . S
C253 H273 0.930 . S
C254 C255 1.474 . S
C254 C256 1.285 . S
C254 H274 0.929 . S
C255 C252 1.461 . S
C255 C254 1.474 . S
C256 C251 1.342 . S
C256 C254 1.285 . S
C256 H275 0.930 . S
C257 C260 1.424 . S
C257 C262 1.245 . S
C257 C263 1.428 . S
C258 C261 1.260 . S
C258 C262 1.477 . S
C258 H276 0.932 . S
C259 C260 1.384 . S
C259 C261 1.479 . S
C259 H277 0.929 . S
C260 C257 1.424 . S
C260 C259 1.384 . S
C260 H278 0.928 . S
C261 C258 1.260 . S
C261 C259 1.479 . S
C262 C257 1.245 . S
C262 C258 1.477 . S
C262 H279 0.932 . S
C263 U246 2.882 . S
C263 C257 1.428 . S
C263 O266 1.301 . S
C263 O267 1.282 . S
O264 U246 2.441 . S
O264 C250 1.249 . S
O265 U246 2.420 . S
O265 C250 1.202 . S
O266 U246 2.455 . S
O266 C263 1.301 . S
O267 U246 2.449 . S
O267 C263 1.282 . S
H268 C241 0.931 . S
H269 C243 0.929 . S
H270 C244 0.930 . S
H271 C245 0.931 . S
H272 C252 0.932 . S
H273 C253 0.930 . S
H274 C254 0.929 . S
H275 C256 0.930 . S
H276 C258 0.932 . S
H277 C259 0.929 . S
H278 C260 0.928 . S
H279 C262 0.932 . S
C280 C281 1.264 . S
C280 C285 1.479 . S
C280 C290 1.465 . S
C281 C280 1.264 . S
C281 C283 1.339 . S
C281 H308 0.931 . S
C282 C283 1.395 . S
C282 C284 1.320 . S
C283 C281 1.339 . S
C283 C282 1.395 . S
C283 H309 0.929 . S
C284 C282 1.320 . S
C284 C285 1.405 . S
C284 H310 0.930 . S
C285 C280 1.479 . S
C285 C284 1.405 . S
C285 H311 0.931 . S
U286 O287 2.454 . S
U286 O288 2.458 . S
U286 C289 2.984 . S
U286 C290 2.847 . S
U286 C303 2.882 . S
U286 O304 2.441 . S
U286 O305 2.420 . S
U286 O306 2.455 . S
U286 O307 2.449 . S
O287 U286 2.454 . S
O287 C289 1.353 . S
O288 U286 2.458 . S
O288 C289 1.286 . S
C289 U286 2.984 . S
C289 O287 1.353 . S
C289 O288 1.286 . S
C289 C291 1.363 . S
C290 C280 1.465 . S
C290 U286 2.847 . S
C290 O304 1.249 . S
C290 O305 1.202 . S
C291 C289 1.363 . S
C291 C293 1.408 . S
C291 C296 1.342 . S
C292 C293 1.310 . S
C292 C295 1.461 . S
C292 H312 0.932 . S
C293 C291 1.408 . S
C293 C292 1.310 . S
C293 H313 0.930 . S
C294 C295 1.474 . S
C294 C296 1.285 . S
C294 H314 0.929 . S
C295 C292 1.461 . S
C295 C294 1.474 . S
C296 C291 1.342 . S
C296 C294 1.285 . S
C296 H315 0.930 . S
C297 C300 1.424 . S
C297 C302 1.245 . S
C297 C303 1.428 . S
C298 C301 1.260 . S
C298 C302 1.477 . S
C298 H316 0.932 . S
C299 C300 1.384 . S
C299 C301 1.479 . S
C299 H317 0.929 . S
C300 C297 1.424 . S
C300 C299 1.384 . S
C300 H318 0.928 . S
C301 C298 1.260 . S
C301 C299 1.479 . S
C302 C297 1.245 . S
C302 C298 1.477 . S
C302 H319 0.932 . S
C303 U286 2.882 . S
C303 C297 1.428 . S
C303 O306 1.301 . S
C303 O307 1.282 . S
O304 U286 2.441 . S
O304 C290 1.249 . S
O305 U286 2.420 . S
O305 C290 1.202 . S
O306 U286 2.455 . S
O306 C303 1.301 . S
O307 U286 2.449 . S
O307 C303 1.282 . S
H308 C281 0.931 . S
H309 C283 0.929 . S
H310 C284 0.930 . S
H311 C285 0.931 . S
H312 C292 0.932 . S
H313 C293 0.930 . S
H314 C294 0.929 . S
H315 C296 0.930 . S
H316 C298 0.932 . S
H317 C299 0.929 . S
H318 C300 0.928 . S
H319 C302 0.932 . S
C320 C321 1.384 . S
C320 C322 1.384 . S
C320 H348 0.931 . S
C321 C320 1.384 . S
C321 C324 1.382 . S
C322 C320 1.384 . S
C322 C323 1.381 . S
C322 H349 0.930 . S
C323 C322 1.381 . S
C323 C325 1.381 . S
C323 C326 1.487 . S
C324 C321 1.382 . S
C324 C325 1.387 . S
C324 H350 0.930 . S
C325 C323 1.381 . S
C325 C324 1.387 . S
C325 H351 0.931 . S
C326 C323 1.487 . S
C326 C333 1.399 1_655 S
C326 N364 1.343 . S
C327 C328 1.384 . S
C327 C329 1.384 . S
C327 H352 0.931 . S
C328 C327 1.384 . S
C328 C331 1.382 . S
C329 C327 1.384 . S
C329 C330 1.381 . S
C329 H353 0.930 . S
C330 C329 1.381 . S
C330 C332 1.381 . S
C330 C333 1.487 . S
C331 C328 1.382 . S
C331 C332 1.387 . S
C331 H354 0.930 . S
C332 C330 1.381 . S
C332 C331 1.387 . S
C332 H355 0.931 . S
C333 C326 1.399 1_455 S
C333 C330 1.487 . S
C333 N365 1.343 . S
C334 C335 1.384 . S
C334 C336 1.384 . S
C334 H356 0.931 . S
C335 C334 1.384 . S
C335 C338 1.382 . S
C336 C334 1.384 . S
C336 C337 1.381 . S
C336 H357 0.930 . S
C337 C336 1.381 . S
C337 C339 1.381 . S
C337 C340 1.487 . S
C338 C335 1.382 . S
C338 C339 1.387 . S
C338 H358 0.930 . S
C339 C337 1.381 . S
C339 C338 1.387 . S
C339 H359 0.931 . S
C340 C337 1.487 . S
C340 C347 1.399 1_455 S
C340 N365 1.343 . S
C341 C342 1.384 . S
C341 C343 1.384 . S
C341 H360 0.931 . S
C342 C341 1.384 . S
C342 C345 1.382 . S
C343 C341 1.384 . S
C343 C344 1.381 . S
C343 H361 0.930 . S
C344 C343 1.381 . S
C344 C346 1.381 . S
C344 C347 1.487 . S
C345 C342 1.382 . S
C345 C346 1.387 . S
C345 H362 0.930 . S
C346 C344 1.381 . S
C346 C345 1.387 . S
C346 H363 0.931 . S
C347 C340 1.399 1_655 S
C347 C344 1.487 . S
C347 N364 1.343 . S
H348 C320 0.931 . S
H349 C322 0.930 . S
H350 C324 0.930 . S
H351 C325 0.931 . S
H352 C327 0.931 . S
H353 C329 0.930 . S
H354 C331 0.930 . S
H355 C332 0.931 . S
H356 C334 0.931 . S
H357 C336 0.930 . S
H358 C338 0.930 . S
H359 C339 0.931 . S
H360 C341 0.931 . S
H361 C343 0.930 . S
H362 C345 0.930 . S
H363 C346 0.931 . S
N364 C326 1.343 . S
N364 C347 1.343 . S
N365 C333 1.343 . S
N365 C340 1.343 . S
C366 C367 1.384 . S
C366 C368 1.384 . S
C366 H394 0.931 . S
C367 C366 1.384 . S
C367 C370 1.382 . S
C368 C366 1.384 . S
C368 C369 1.381 . S
C368 H395 0.930 . S
C369 C368 1.381 . S
C369 C371 1.381 . S
C369 C372 1.487 . S
C370 C367 1.382 . S
C370 C371 1.387 . S
C370 H396 0.930 . S
C371 C369 1.381 . S
C371 C370 1.387 . S
C371 H397 0.931 . S
C372 C369 1.487 . S
C372 C379 1.399 1_655 S
C372 N410 1.343 . S
C373 C374 1.384 . S
C373 C375 1.384 . S
C373 H398 0.931 . S
C374 C373 1.384 . S
C374 C377 1.382 . S
C375 C373 1.384 . S
C375 C376 1.381 . S
C375 H399 0.930 . S
C376 C375 1.381 . S
C376 C378 1.381 . S
C376 C379 1.487 . S
C377 C374 1.382 . S
C377 C378 1.387 . S
C377 H400 0.930 . S
C378 C376 1.381 . S
C378 C377 1.387 . S
C378 H401 0.931 . S
C379 C372 1.399 1_455 S
C379 C376 1.487 . S
C379 N411 1.343 . S
C380 C381 1.384 . S
C380 C382 1.384 . S
C380 H402 0.931 . S
C381 C380 1.384 . S
C381 C384 1.382 . S
C382 C380 1.384 . S
C382 C383 1.381 . S
C382 H403 0.930 . S
C383 C382 1.381 . S
C383 C385 1.381 . S
C383 C386 1.487 . S
C384 C381 1.382 . S
C384 C385 1.387 . S
C384 H404 0.930 . S
C385 C383 1.381 . S
C385 C384 1.387 . S
C385 H405 0.931 . S
C386 C383 1.487 . S
C386 C393 1.399 1_455 S
C386 N411 1.343 . S
C387 C388 1.384 . S
C387 C389 1.384 . S
C387 H406 0.931 . S
C388 C387 1.384 . S
C388 C391 1.382 . S
C389 C387 1.384 . S
C389 C390 1.381 . S
C389 H407 0.930 . S
C390 C389 1.381 . S
C390 C392 1.381 . S
C390 C393 1.487 . S
C391 C388 1.382 . S
C391 C392 1.387 . S
C391 H408 0.930 . S
C392 C390 1.381 . S
C392 C391 1.387 . S
C392 H409 0.931 . S
C393 C386 1.399 1_655 S
C393 C390 1.487 . S
C393 N410 1.343 . S
H394 C366 0.931 . S
H395 C368 0.930 . S
H396 C370 0.930 . S
H397 C371 0.931 . S
H398 C373 0.931 . S
H399 C375 0.930 . S
H400 C377 0.930 . S
H401 C378 0.931 . S
H402 C380 0.931 . S
H403 C382 0.930 . S
H404 C384 0.930 . S
H405 C385 0.931 . S
H406 C387 0.931 . S
H407 C389 0.930 . S
H408 C391 0.930 . S
H409 C392 0.931 . S
N410 C372 1.343 . S
N410 C393 1.343 . S
N411 C379 1.343 . S
N411 C386 1.343 . S
C412 C413 1.384 . S
C412 C414 1.384 . S
C412 H440 0.931 . S
C413 C412 1.384 . S
C413 C416 1.382 . S
C414 C412 1.384 . S
C414 C415 1.381 . S
C414 H441 0.930 . S
C415 C414 1.381 . S
C415 C417 1.381 . S
C415 C418 1.487 . S
C416 C413 1.382 . S
C416 C417 1.387 . S
C416 H442 0.930 . S
C417 C415 1.381 . S
C417 C416 1.387 . S
C417 H443 0.931 . S
C418 C415 1.487 . S
C418 C425 1.399 . S
C418 N456 1.343 . S
C419 C420 1.384 . S
C419 C421 1.384 . S
C419 H444 0.931 . S
C420 C419 1.384 . S
C420 C423 1.382 . S
C421 C419 1.384 . S
C421 C422 1.381 . S
C421 H445 0.930 . S
C422 C421 1.381 . S
C422 C424 1.381 . S
C422 C425 1.487 . S
C423 C420 1.382 . S
C423 C424 1.387 . S
C423 H446 0.930 . S
C424 C422 1.381 . S
C424 C423 1.387 . S
C424 H447 0.931 . S
C425 C418 1.399 . S
C425 C422 1.487 . S
C425 N457 1.343 . S
C426 C427 1.384 . S
C426 C428 1.384 . S
C426 H448 0.931 . S
C427 C426 1.384 . S
C427 C430 1.382 . S
C428 C426 1.384 . S
C428 C429 1.381 . S
C428 H449 0.930 . S
C429 C428 1.381 . S
C429 C431 1.381 . S
C429 C432 1.487 . S
C430 C427 1.382 . S
C430 C431 1.387 . S
C430 H450 0.930 . S
C431 C429 1.381 . S
C431 C430 1.387 . S
C431 H451 0.931 . S
C432 C429 1.487 . S
C432 C439 1.399 . S
C432 N457 1.343 1_565 S
C433 C434 1.384 . S
C433 C435 1.384 . S
C433 H452 0.931 . S
C434 C433 1.384 . S
C434 C437 1.382 . S
C435 C433 1.384 . S
C435 C436 1.381 . S
C435 H453 0.930 . S
C436 C435 1.381 . S
C436 C438 1.381 . S
C436 C439 1.487 . S
C437 C434 1.382 . S
C437 C438 1.387 . S
C437 H454 0.930 . S
C438 C436 1.381 . S
C438 C437 1.387 . S
C438 H455 0.931 . S
C439 C432 1.399 . S
C439 C436 1.487 . S
C439 N456 1.343 1_565 S
H440 C412 0.931 . S
H441 C414 0.930 . S
H442 C416 0.930 . S
H443 C417 0.931 . S
H444 C419 0.931 . S
H445 C421 0.930 . S
H446 C423 0.930 . S
H447 C424 0.931 . S
H448 C426 0.931 . S
H449 C428 0.930 . S
H450 C430 0.930 . S
H451 C431 0.931 . S
H452 C433 0.931 . S
H453 C435 0.930 . S
H454 C437 0.930 . S
H455 C438 0.931 . S
N456 C418 1.343 . S
N456 C439 1.343 1_545 S
N457 C425 1.343 . S
N457 C432 1.343 1_545 S
C458 C459 1.384 . S
C458 C460 1.384 . S
C458 H486 0.931 . S
C459 C458 1.384 . S
C459 C462 1.382 . S
C460 C458 1.384 . S
C460 C461 1.381 . S
C460 H487 0.930 . S
C461 C460 1.381 . S
C461 C463 1.381 . S
C461 C464 1.487 . S
C462 C459 1.382 . S
C462 C463 1.387 . S
C462 H488 0.930 . S
C463 C461 1.381 . S
C463 C462 1.387 . S
C463 H489 0.931 . S
C464 C461 1.487 . S
C464 C471 1.399 . S
C464 N502 1.343 1_556 S
C465 C466 1.384 . S
C465 C467 1.384 . S
C465 H490 0.931 . S
C466 C465 1.384 . S
C466 C469 1.382 . S
C467 C465 1.384 . S
C467 C468 1.381 . S
C467 H491 0.930 . S
C468 C467 1.381 . S
C468 C470 1.381 . S
C468 C471 1.487 . S
C469 C466 1.382 . S
C469 C470 1.387 . S
C469 H492 0.930 . S
C470 C468 1.381 . S
C470 C469 1.387 . S
C470 H493 0.931 . S
C471 C464 1.399 . S
C471 C468 1.487 . S
C471 N503 1.343 1_556 S
C472 C473 1.384 . S
C472 C474 1.384 . S
C472 H494 0.931 . S
C473 C472 1.384 . S
C473 C476 1.382 . S
C474 C472 1.384 . S
C474 C475 1.381 . S
C474 H495 0.930 . S
C475 C474 1.381 . S
C475 C477 1.381 . S
C475 C478 1.487 . S
C476 C473 1.382 . S
C476 C477 1.387 . S
C476 H496 0.930 . S
C477 C475 1.381 . S
C477 C476 1.387 . S
C477 H497 0.931 . S
C478 C475 1.487 . S
C478 C485 1.399 . S
C478 N503 1.343 . S
C479 C480 1.384 . S
C479 C481 1.384 . S
C479 H498 0.931 . S
C480 C479 1.384 . S
C480 C483 1.382 . S
C481 C479 1.384 . S
C481 C482 1.381 . S
C481 H499 0.930 . S
C482 C481 1.381 . S
C482 C484 1.381 . S
C482 C485 1.487 . S
C483 C480 1.382 . S
C483 C484 1.387 . S
C483 H500 0.930 . S
C484 C482 1.381 . S
C484 C483 1.387 . S
C484 H501 0.931 . S
C485 C478 1.399 . S
C485 C482 1.487 . S
C485 N502 1.343 . S
H486 C458 0.931 . S
H487 C460 0.930 . S
H488 C462 0.930 . S
H489 C463 0.931 . S
H490 C465 0.931 . S
H491 C467 0.930 . S
H492 C469 0.930 . S
H493 C470 0.931 . S
H494 C472 0.931 . S
H495 C474 0.930 . S
H496 C476 0.930 . S
H497 C477 0.931 . S
H498 C479 0.931 . S
H499 C481 0.930 . S
H500 C483 0.930 . S
H501 C484 0.931 . S
N502 C464 1.343 1_554 S
N502 C485 1.343 . S
N503 C471 1.343 1_554 S
N503 C478 1.343 . S
C504 C505 1.384 . S
C504 C506 1.384 . S
C504 H532 0.931 . S
C505 C504 1.384 . S
C505 C508 1.382 . S
C506 C504 1.384 . S
C506 C507 1.381 . S
C506 H533 0.930 . S
C507 C506 1.381 . S
C507 C509 1.381 . S
C507 C510 1.487 . S
C508 C505 1.382 . S
C508 C509 1.387 . S
C508 H534 0.930 . S
C509 C507 1.381 . S
C509 C508 1.387 . S
C509 H535 0.931 . S
C510 C507 1.487 . S
C510 C517 1.399 . S
C510 N548 1.343 . S
C511 C512 1.384 . S
C511 C513 1.384 . S
C511 H536 0.931 . S
C512 C511 1.384 . S
C512 C515 1.382 . S
C513 C511 1.384 . S
C513 C514 1.381 . S
C513 H537 0.930 . S
C514 C513 1.381 . S
C514 C516 1.381 . S
C514 C517 1.487 . S
C515 C512 1.382 . S
C515 C516 1.387 . S
C515 H538 0.930 . S
C516 C514 1.381 . S
C516 C515 1.387 . S
C516 H539 0.931 . S
C517 C510 1.399 . S
C517 C514 1.487 . S
C517 N549 1.343 . S
C518 C519 1.384 . S
C518 C520 1.384 . S
C518 H540 0.931 . S
C519 C518 1.384 . S
C519 C522 1.382 . S
C520 C518 1.384 . S
C520 C521 1.381 . S
C520 H541 0.930 . S
C521 C520 1.381 . S
C521 C523 1.381 . S
C521 C524 1.487 . S
C522 C519 1.382 . S
C522 C523 1.387 . S
C522 H542 0.930 . S
C523 C521 1.381 . S
C523 C522 1.387 . S
C523 H543 0.931 . S
C524 C521 1.487 . S
C524 C531 1.399 . S
C524 N549 1.343 1_565 S
C525 C526 1.384 . S
C525 C527 1.384 . S
C525 H544 0.931 . S
C526 C525 1.384 . S
C526 C529 1.382 . S
C527 C525 1.384 . S
C527 C528 1.381 . S
C527 H545 0.930 . S
C528 C527 1.381 . S
C528 C530 1.381 . S
C528 C531 1.487 . S
C529 C526 1.382 . S
C529 C530 1.387 . S
C529 H546 0.930 . S
C530 C528 1.381 . S
C530 C529 1.387 . S
C530 H547 0.931 . S
C531 C524 1.399 . S
C531 C528 1.487 . S
C531 N548 1.343 1_565 S
H532 C504 0.931 . S
H533 C506 0.930 . S
H534 C508 0.930 . S
H535 C509 0.931 . S
H536 C511 0.931 . S
H537 C513 0.930 . S
H538 C515 0.930 . S
H539 C516 0.931 . S
H540 C518 0.931 . S
H541 C520 0.930 . S
H542 C522 0.930 . S
H543 C523 0.931 . S
H544 C525 0.931 . S
H545 C527 0.930 . S
H546 C529 0.930 . S
H547 C530 0.931 . S
N548 C510 1.343 . S
N548 C531 1.343 1_545 S
N549 C517 1.343 . S
N549 C524 1.343 1_545 S
C550 C551 1.384 . S
C550 C552 1.384 . S
C550 H578 0.931 . S
C551 C550 1.384 . S
C551 C554 1.382 . S
C552 C550 1.384 . S
C552 C553 1.381 . S
C552 H579 0.930 . S
C553 C552 1.381 . S
C553 C555 1.381 . S
C553 C556 1.487 . S
C554 C551 1.382 . S
C554 C555 1.387 . S
C554 H580 0.930 . S
C555 C553 1.381 . S
C555 C554 1.387 . S
C555 H581 0.931 . S
C556 C553 1.487 . S
C556 C563 1.399 . S
C556 N594 1.343 1_556 S
C557 C558 1.384 . S
C557 C559 1.384 . S
C557 H582 0.931 . S
C558 C557 1.384 . S
C558 C561 1.382 . S
C559 C557 1.384 . S
C559 C560 1.381 . S
C559 H583 0.930 . S
C560 C559 1.381 . S
C560 C562 1.381 . S
C560 C563 1.487 . S
C561 C558 1.382 . S
C561 C562 1.387 . S
C561 H584 0.930 . S
C562 C560 1.381 . S
C562 C561 1.387 . S
C562 H585 0.931 . S
C563 C556 1.399 . S
C563 C560 1.487 . S
C563 N595 1.343 1_556 S
C564 C565 1.384 . S
C564 C566 1.384 . S
C564 H586 0.931 . S
C565 C564 1.384 . S
C565 C568 1.382 . S
C566 C564 1.384 . S
C566 C567 1.381 . S
C566 H587 0.930 . S
C567 C566 1.381 . S
C567 C569 1.381 . S
C567 C570 1.487 . S
C568 C565 1.382 . S
C568 C569 1.387 . S
C568 H588 0.930 . S
C569 C567 1.381 . S
C569 C568 1.387 . S
C569 H589 0.931 . S
C570 C567 1.487 . S
C570 C577 1.399 . S
C570 N595 1.343 . S
C571 C572 1.384 . S
C571 C573 1.384 . S
C571 H590 0.931 . S
C572 C571 1.384 . S
C572 C575 1.382 . S
C573 C571 1.384 . S
C573 C574 1.381 . S
C573 H591 0.930 . S
C574 C573 1.381 . S
C574 C576 1.381 . S
C574 C577 1.487 . S
C575 C572 1.382 . S
C575 C576 1.387 . S
C575 H592 0.930 . S
C576 C574 1.381 . S
C576 C575 1.387 . S
C576 H593 0.931 . S
C577 C570 1.399 . S
C577 C574 1.487 . S
C577 N594 1.343 . S
H578 C550 0.931 . S
H579 C552 0.930 . S
H580 C554 0.930 . S
H581 C555 0.931 . S
H582 C557 0.931 . S
H583 C559 0.930 . S
H584 C561 0.930 . S
H585 C562 0.931 . S
H586 C564 0.931 . S
H587 C566 0.930 . S
H588 C568 0.930 . S
H589 C569 0.931 . S
H590 C571 0.931 . S
H591 C573 0.930 . S
H592 C575 0.930 . S
H593 C576 0.931 . S
N594 C556 1.343 1_554 S
N594 C577 1.343 . S
N595 C563 1.343 1_554 S
N595 C570 1.343 . S
C596 C597 1.369 . S
C596 C598 1.419 . S
C596 H600 0.930 . S
C597 C596 1.369 . S
C597 C606 1.429 . S
C598 C596 1.419 . S
C598 C599 1.363 . S
C598 H601 0.929 . S
C599 C598 1.363 . S
C599 C605 1.428 . S
H600 C596 0.930 . S
H601 C598 0.929 . S
S602 N603 1.613 . S
S602 N604 1.610 . S
N603 S602 1.613 . S
N603 C606 1.350 . S
N604 S602 1.610 . S
N604 C605 1.351 . S
C605 C599 1.428 . S
C605 N604 1.351 . S
C605 C606 1.434 . S
C606 C597 1.429 . S
C606 N603 1.350 . S
C606 C605 1.434 . S
C607 C608 1.369 . S
C607 C609 1.419 . S
C607 H611 0.930 . S
C608 C607 1.369 . S
C608 C617 1.429 . S
C609 C607 1.419 . S
C609 C610 1.363 . S
C609 H612 0.929 . S
C610 C609 1.363 . S
C610 C616 1.428 . S
H611 C607 0.930 . S
H612 C609 0.929 . S
S613 N614 1.613 . S
S613 N615 1.610 . S
N614 S613 1.613 . S
N614 C617 1.350 . S
N615 S613 1.610 . S
N615 C616 1.351 . S
C616 C610 1.428 . S
C616 N615 1.351 . S
C616 C617 1.434 . S
C617 C608 1.429 . S
C617 N614 1.350 . S
C617 C616 1.434 . S
C618 C619 1.369 . S
C618 C620 1.419 . S
C618 H622 0.930 . S
C619 C618 1.369 . S
C619 C628 1.429 . S
C620 C618 1.419 . S
C620 C621 1.363 . S
C620 H623 0.929 . S
C621 C620 1.363 . S
C621 C627 1.428 . S
H622 C618 0.930 . S
H623 C620 0.929 . S
S624 N625 1.613 . S
S624 N626 1.610 . S
N625 S624 1.613 . S
N625 C628 1.350 . S
N626 S624 1.610 . S
N626 C627 1.351 . S
C627 C621 1.428 . S
C627 N626 1.351 . S
C627 C628 1.434 . S
C628 C619 1.429 . S
C628 N625 1.350 . S
C628 C627 1.434 . S
C629 C630 1.369 . S
C629 C631 1.419 . S
C629 H633 0.930 . S
C630 C629 1.369 . S
C630 C639 1.429 . S
C631 C629 1.419 . S
C631 C632 1.363 . S
C631 H634 0.929 . S
C632 C631 1.363 . S
C632 C638 1.428 . S
H633 C629 0.930 . S
H634 C631 0.929 . S
S635 N636 1.613 . S
S635 N637 1.610 . S
N636 S635 1.613 . S
N636 C639 1.350 . S
N637 S635 1.610 . S
N637 C638 1.351 . S
C638 C632 1.428 . S
C638 N637 1.351 . S
C638 C639 1.434 . S
C639 C630 1.429 . S
C639 N636 1.350 . S
C639 C638 1.434 . S
C640 C641 1.369 . S
C640 C642 1.419 . S
C640 H644 0.930 . S
C641 C640 1.369 . S
C641 C650 1.429 . S
C642 C640 1.419 . S
C642 C643 1.363 . S
C642 H645 0.929 . S
C643 C642 1.363 . S
C643 C649 1.428 . S
H644 C640 0.930 . S
H645 C642 0.929 . S
S646 N647 1.613 . S
S646 N648 1.610 . S
N647 S646 1.613 . S
N647 C650 1.350 . S
N648 S646 1.610 . S
N648 C649 1.351 . S
C649 C643 1.428 . S
C649 N648 1.351 . S
C649 C650 1.434 . S
C650 C641 1.429 . S
C650 N647 1.350 . S
C650 C649 1.434 . S
C651 C652 1.369 . S
C651 C653 1.419 . S
C651 H655 0.930 . S
C652 C651 1.369 . S
C652 C661 1.429 . S
C653 C651 1.419 . S
C653 C654 1.363 . S
C653 H656 0.929 . S
C654 C653 1.363 . S
C654 C660 1.428 . S
H655 C651 0.930 . S
H656 C653 0.929 . S
S657 N658 1.613 . S
S657 N659 1.610 . S
N658 S657 1.613 . S
N658 C661 1.350 . S
N659 S657 1.610 . S
N659 C660 1.351 . S
C660 C654 1.428 . S
C660 N659 1.351 . S
C660 C661 1.434 . S
C661 C652 1.429 . S
C661 N658 1.350 . S
C661 C660 1.434 . S
C662 C663 1.369 . S
C662 C664 1.419 . S
C662 H666 0.930 . S
C663 C662 1.369 . S
C663 C672 1.429 . S
C664 C662 1.419 . S
C664 C665 1.363 . S
C664 H667 0.929 . S
C665 C664 1.363 . S
C665 C671 1.428 . S
H666 C662 0.930 . S
H667 C664 0.929 . S
S668 N669 1.613 . S
S668 N670 1.610 . S
N669 S668 1.613 . S
N669 C672 1.350 . S
N670 S668 1.610 . S
N670 C671 1.351 . S
C671 C665 1.428 . S
C671 N670 1.351 . S
C671 C672 1.434 . S
C672 C663 1.429 . S
C672 N669 1.350 . S
C672 C671 1.434 . S
C673 C674 1.369 . S
C673 C675 1.419 . S
C673 H677 0.930 . S
C674 C673 1.369 . S
C674 C683 1.429 . S
C675 C673 1.419 . S
C675 C676 1.363 . S
C675 H678 0.929 . S
C676 C675 1.363 . S
C676 C682 1.428 . S
H677 C673 0.930 . S
H678 C675 0.929 . S
S679 N680 1.613 . S
S679 N681 1.610 . S
N680 S679 1.613 . S
N680 C683 1.350 . S
N681 S679 1.610 . S
N681 C682 1.351 . S
C682 C676 1.428 . S
C682 N681 1.351 . S
C682 C683 1.434 . S
C683 C674 1.429 . S
C683 N680 1.350 . S
C683 C682 1.434 . S
C684 C685 1.369 . S
C684 C686 1.419 . S
C684 H688 0.930 . S
C685 C684 1.369 . S
C685 C694 1.429 . S
C686 C684 1.419 . S
C686 C687 1.363 . S
C686 H689 0.929 . S
C687 C686 1.363 . S
C687 C693 1.428 . S
H688 C684 0.930 . S
H689 C686 0.929 . S
S690 N691 1.613 . S
S690 N692 1.610 . S
N691 S690 1.613 . S
N691 C694 1.350 . S
N692 S690 1.610 . S
N692 C693 1.351 . S
C693 C687 1.428 . S
C693 N692 1.351 . S
C693 C694 1.434 . S
C694 C685 1.429 . S
C694 N691 1.350 . S
C694 C693 1.434 . S
C695 C696 1.369 . S
C695 C697 1.419 . S
C695 H699 0.930 . S
C696 C695 1.369 . S
C696 C705 1.429 . S
C697 C695 1.419 . S
C697 C698 1.363 . S
C697 H700 0.929 . S
C698 C697 1.363 . S
C698 C704 1.428 . S
H699 C695 0.930 . S
H700 C697 0.929 . S
S701 N702 1.613 . S
S701 N703 1.610 . S
N702 S701 1.613 . S
N702 C705 1.350 . S
N703 S701 1.610 . S
N703 C704 1.351 . S
C704 C698 1.428 . S
C704 N703 1.351 . S
C704 C705 1.434 . S
C705 C696 1.429 . S
C705 N702 1.350 . S
C705 C704 1.434 . S
C706 C707 1.369 . S
C706 C708 1.419 . S
C706 H710 0.930 . S
C707 C706 1.369 . S
C707 C716 1.429 . S
C708 C706 1.419 . S
C708 C709 1.363 . S
C708 H711 0.929 . S
C709 C708 1.363 . S
C709 C715 1.428 . S
H710 C706 0.930 . S
H711 C708 0.929 . S
S712 N713 1.613 . S
S712 N714 1.610 . S
N713 S712 1.613 . S
N713 C716 1.350 . S
N714 S712 1.610 . S
N714 C715 1.351 . S
C715 C709 1.428 . S
C715 N714 1.351 . S
C715 C716 1.434 . S
C716 C707 1.429 . S
C716 N713 1.350 . S
C716 C715 1.434 . S
C717 C718 1.369 . S
C717 C719 1.419 . S
C717 H721 0.930 . S
C718 C717 1.369 . S
C718 C727 1.429 . S
C719 C717 1.419 . S
C719 C720 1.363 . S
C719 H722 0.929 . S
C720 C719 1.363 . S
C720 C726 1.428 . S
H721 C717 0.930 . S
H722 C719 0.929 . S
S723 N724 1.613 . S
S723 N725 1.610 . S
N724 S723 1.613 . S
N724 C727 1.350 . S
N725 S723 1.610 . S
N725 C726 1.351 . S
C726 C720 1.428 . S
C726 N725 1.351 . S
C726 C727 1.434 . S
C727 C718 1.429 . S
C727 N724 1.350 . S
C727 C726 1.434 . S
C728 C729 1.369 . S
C728 C730 1.419 . S
C728 H732 0.930 . S
C729 C728 1.369 . S
C729 C738 1.429 . S
C730 C728 1.419 . S
C730 C731 1.363 . S
C730 H733 0.929 . S
C731 C730 1.363 . S
C731 C737 1.428 . S
H732 C728 0.930 . S
H733 C730 0.929 . S
S734 N735 1.613 . S
S734 N736 1.610 . S
N735 S734 1.613 . S
N735 C738 1.350 . S
N736 S734 1.610 . S
N736 C737 1.351 . S
C737 C731 1.428 . S
C737 N736 1.351 . S
C737 C738 1.434 . S
C738 C729 1.429 . S
C738 N735 1.350 . S
C738 C737 1.434 . S
C739 C740 1.369 . S
C739 C741 1.419 . S
C739 H743 0.930 . S
C740 C739 1.369 . S
C740 C749 1.429 . S
C741 C739 1.419 . S
C741 C742 1.363 . S
C741 H744 0.929 . S
C742 C741 1.363 . S
C742 C748 1.428 . S
H743 C739 0.930 . S
H744 C741 0.929 . S
S745 N746 1.613 . S
S745 N747 1.610 . S
N746 S745 1.613 . S
N746 C749 1.350 . S
N747 S745 1.610 . S
N747 C748 1.351 . S
C748 C742 1.428 . S
C748 N747 1.351 . S
C748 C749 1.434 . S
C749 C740 1.429 . S
C749 N746 1.350 . S
C749 C748 1.434 . S
C750 C751 1.369 . S
C750 C752 1.419 . S
C750 H754 0.930 . S
C751 C750 1.369 . S
C751 C760 1.429 . S
C752 C750 1.419 . S
C752 C753 1.363 . S
C752 H755 0.929 . S
C753 C752 1.363 . S
C753 C759 1.428 . S
H754 C750 0.930 . S
H755 C752 0.929 . S
S756 N757 1.613 . S
S756 N758 1.610 . S
N757 S756 1.613 . S
N757 C760 1.350 . S
N758 S756 1.610 . S
N758 C759 1.351 . S
C759 C753 1.428 . S
C759 N758 1.351 . S
C759 C760 1.434 . S
C760 C751 1.429 . S
C760 N757 1.350 . S
C760 C759 1.434 . S
C761 C762 1.369 . S
C761 C763 1.419 . S
C761 H765 0.930 . S
C762 C761 1.369 . S
C762 C771 1.429 . S
C763 C761 1.419 . S
C763 C764 1.363 . S
C763 H766 0.929 . S
C764 C763 1.363 . S
C764 C770 1.428 . S
H765 C761 0.930 . S
H766 C763 0.929 . S
S767 N768 1.613 . S
S767 N769 1.610 . S
N768 S767 1.613 . S
N768 C771 1.350 . S
N769 S767 1.610 . S
N769 C770 1.351 . S
C770 C764 1.428 . S
C770 N769 1.351 . S
C770 C771 1.434 . S
C771 C762 1.429 . S
C771 N768 1.350 . S
C771 C770 1.434 . S
C772 C773 1.369 . S
C772 C774 1.419 . S
C772 H776 0.930 . S
C773 C772 1.369 . S
C773 C782 1.429 . S
C774 C772 1.419 . S
C774 C775 1.363 . S
C774 H777 0.929 . S
C775 C774 1.363 . S
C775 C781 1.428 . S
H776 C772 0.930 . S
H777 C774 0.929 . S
S778 N779 1.613 . S
S778 N780 1.610 . S
N779 S778 1.613 . S
N779 C782 1.350 . S
N780 S778 1.610 . S
N780 C781 1.351 . S
C781 C775 1.428 . S
C781 N780 1.351 . S
C781 C782 1.434 . S
C782 C773 1.429 . S
C782 N779 1.350 . S
C782 C781 1.434 . S
C783 C784 1.369 . S
C783 C785 1.419 . S
C783 H787 0.930 . S
C784 C783 1.369 . S
C784 C793 1.429 . S
C785 C783 1.419 . S
C785 C786 1.363 . S
C785 H788 0.929 . S
C786 C785 1.363 . S
C786 C792 1.428 . S
H787 C783 0.930 . S
H788 C785 0.929 . S
S789 N790 1.613 . S
S789 N791 1.610 . S
N790 S789 1.613 . S
N790 C793 1.350 . S
N791 S789 1.610 . S
N791 C792 1.351 . S
C792 C786 1.428 . S
C792 N791 1.351 . S
C792 C793 1.434 . S
C793 C784 1.429 . S
C793 N790 1.350 . S
C793 C792 1.434 . S
C794 C795 1.369 . S
C794 C796 1.419 . S
C794 H798 0.930 . S
C795 C794 1.369 . S
C795 C804 1.429 . S
C796 C794 1.419 . S
C796 C797 1.363 . S
C796 H799 0.929 . S
C797 C796 1.363 . S
C797 C803 1.428 . S
H798 C794 0.930 . S
H799 C796 0.929 . S
S800 N801 1.613 . S
S800 N802 1.610 . S
N801 S800 1.613 . S
N801 C804 1.350 . S
N802 S800 1.610 . S
N802 C803 1.351 . S
C803 C797 1.428 . S
C803 N802 1.351 . S
C803 C804 1.434 . S
C804 C795 1.429 . S
C804 N801 1.350 . S
C804 C803 1.434 . S
C805 C806 1.369 . S
C805 C807 1.419 . S
C805 H809 0.930 . S
C806 C805 1.369 . S
C806 C815 1.429 . S
C807 C805 1.419 . S
C807 C808 1.363 . S
C807 H810 0.929 . S
C808 C807 1.363 . S
C808 C814 1.428 . S
H809 C805 0.930 . S
H810 C807 0.929 . S
S811 N812 1.613 . S
S811 N813 1.610 . S
N812 S811 1.613 . S
N812 C815 1.350 . S
N813 S811 1.610 . S
N813 C814 1.351 . S
C814 C808 1.428 . S
C814 N813 1.351 . S
C814 C815 1.434 . S
C815 C806 1.429 . S
C815 N812 1.350 . S
C815 C814 1.434 . S
C816 C817 1.369 . S
C816 C818 1.419 . S
C816 H820 0.930 . S
C817 C816 1.369 . S
C817 C826 1.429 . S
C818 C816 1.419 . S
C818 C819 1.363 . S
C818 H821 0.929 . S
C819 C818 1.363 . S
C819 C825 1.428 . S
H820 C816 0.930 . S
H821 C818 0.929 . S
S822 N823 1.613 . S
S822 N824 1.610 . S
N823 S822 1.613 . S
N823 C826 1.350 . S
N824 S822 1.610 . S
N824 C825 1.351 . S
C825 C819 1.428 . S
C825 N824 1.351 . S
C825 C826 1.434 . S
C826 C817 1.429 . S
C826 N823 1.350 . S
C826 C825 1.434 . S
C827 C828 1.369 . S
C827 C829 1.419 . S
C827 H831 0.930 . S
C828 C827 1.369 . S
C828 C837 1.429 . S
C829 C827 1.419 . S
C829 C830 1.363 . S
C829 H832 0.929 . S
C830 C829 1.363 . S
C830 C836 1.428 . S
H831 C827 0.930 . S
H832 C829 0.929 . S
S833 N834 1.613 . S
S833 N835 1.610 . S
N834 S833 1.613 . S
N834 C837 1.350 . S
N835 S833 1.610 . S
N835 C836 1.351 . S
C836 C830 1.428 . S
C836 N835 1.351 . S
C836 C837 1.434 . S
C837 C828 1.429 . S
C837 N834 1.350 . S
C837 C836 1.434 . S
C838 C839 1.369 . S
C838 C840 1.419 . S
C838 H842 0.930 . S
C839 C838 1.369 . S
C839 C848 1.429 . S
C840 C838 1.419 . S
C840 C841 1.363 . S
C840 H843 0.929 . S
C841 C840 1.363 . S
C841 C847 1.428 . S
H842 C838 0.930 . S
H843 C840 0.929 . S
S844 N845 1.613 . S
S844 N846 1.610 . S
N845 S844 1.613 . S
N845 C848 1.350 . S
N846 S844 1.610 . S
N846 C847 1.351 . S
C847 C841 1.428 . S
C847 N846 1.351 . S
C847 C848 1.434 . S
C848 C839 1.429 . S
C848 N845 1.350 . S
C848 C847 1.434 . S
C849 C850 1.369 . S
C849 C851 1.419 . S
C849 H853 0.930 . S
C850 C849 1.369 . S
C850 C859 1.429 . S
C851 C849 1.419 . S
C851 C852 1.363 . S
C851 H854 0.929 . S
C852 C851 1.363 . S
C852 C858 1.428 . S
H853 C849 0.930 . S
H854 C851 0.929 . S
S855 N856 1.613 . S
S855 N857 1.610 . S
N856 S855 1.613 . S
N856 C859 1.350 . S
N857 S855 1.610 . S
N857 C858 1.351 . S
C858 C852 1.428 . S
C858 N857 1.351 . S
C858 C859 1.434 . S
C859 C850 1.429 . S
C859 N856 1.350 . S
C859 C858 1.434 . S
C599 C328 1.537 . S
C597 C15 1.546 . S
C610 C381 1.560 . S
C608 C55 1.568 . S
C621 C342 1.580 . S
C619 C101 1.565 . S
C632 C367 1.588 . S
C630 C141 1.593 . S
C643 C413 1.522 . S
C641 C2 1.493 . S
C654 C459 1.520 . S
C652 C61 1.502 . S
C663 C95 1.634 . S
C665 C526 1.634 . S
C676 C558 1.517 . S
C674 C135 1.522 . S
C687 C427 1.521 . S
C685 C42 1.489 . S
C696 C82 1.514 . S
C698 C473 1.545 . S
C709 C512 1.611 . S
C707 C122 1.649 . S
C720 C572 1.536 . S
C718 C21 1.506 . S
C729 C162 1.594 . S
C731 C388 1.585 . S
C742 C321 1.574 . S
C740 C221 1.572 . S
C751 C255 1.566 . S
C753 C374 1.561 . S
C762 C282 1.527 . S
C764 C335 1.535 . S
C775 C519 1.626 . S
C773 C181 1.661 . S
C786 C565 1.532 . S
C784 C202 1.535 . S
C797 C420 1.527 . S
C795 C242 1.526 . S
C806 C301 1.508 . S
C808 C480 1.528 . S
C819 C505 1.632 . S
C817 C215 1.642 . S
C830 C551 1.530 . S
C828 C261 1.532 . S
C841 C434 1.518 . S
C839 C295 1.522 . S
C850 C175 1.527 . S
C852 C466 1.527 . S
