# Generated by pormake.
# Topology nom, (4,4)-cn, num edge types: 1
# Building blocks:
#     Node 0, Type 0, BuildingBlock: MUDLON_clean_linker_0, # of connection points: 4
#     Node 1, Type 0, BuildingBlock: MUDLON_clean_linker_0, # of connection points: 4
#     Node 2, Type 0, BuildingBlock: MUDLON_clean_linker_0, # of connection points: 4
#     Node 3, Type 0, BuildingBlock: MUDLON_clean_linker_0, # of connection points: 4
#     Node 4, Type 0, BuildingBlock: MUDLON_clean_linker_0, # of connection points: 4
#     Node 5, Type 0, BuildingBlock: MUDLON_clean_linker_0, # of connection points: 4
#     Node 6, Type 1, BuildingBlock: CEKHIL_clean_sbu_0, # of connection points: 4
#     Node 7, Type 1, BuildingBlock: CEKHIL_clean_sbu_0, # of connection points: 4
#     Node 8, Type 1, BuildingBlock: CEKHIL_clean_sbu_0, # of connection points: 4
#     Node 9, Type 1, BuildingBlock: CEKHIL_clean_sbu_0, # of connection points: 4
#     Node 10, Type 1, BuildingBlock: CEKHIL_clean_sbu_0, # of connection points: 4
#     Node 11, Type 1, BuildingBlock: CEKHIL_clean_sbu_0, # of connection points: 4
#     Edge 12, Type (0, 1), BuildingBlock: XIVTED_clean_linker_0, # of connection points: 2
#     Edge 13, Type (0, 1), BuildingBlock: XIVTED_clean_linker_0, # of connection points: 2
#     Edge 14, Type (0, 1), BuildingBlock: XIVTED_clean_linker_0, # of connection points: 2
#     Edge 15, Type (0, 1), BuildingBlock: XIVTED_clean_linker_0, # of connection points: 2
#     Edge 16, Type (0, 1), BuildingBlock: XIVTED_clean_linker_0, # of connection points: 2
#     Edge 17, Type (0, 1), BuildingBlock: XIVTED_clean_linker_0, # of connection points: 2
#     Edge 18, Type (0, 1), BuildingBlock: XIVTED_clean_linker_0, # of connection points: 2
#     Edge 19, Type (0, 1), BuildingBlock: XIVTED_clean_linker_0, # of connection points: 2
#     Edge 20, Type (0, 1), BuildingBlock: XIVTED_clean_linker_0, # of connection points: 2
#     Edge 21, Type (0, 1), BuildingBlock: XIVTED_clean_linker_0, # of connection points: 2
#     Edge 22, Type (0, 1), BuildingBlock: XIVTED_clean_linker_0, # of connection points: 2
#     Edge 23, Type (0, 1), BuildingBlock: XIVTED_clean_linker_0, # of connection points: 2
#     Edge 24, Type (0, 1), BuildingBlock: XIVTED_clean_linker_0, # of connection points: 2
#     Edge 25, Type (0, 1), BuildingBlock: XIVTED_clean_linker_0, # of connection points: 2
#     Edge 26, Type (0, 1), BuildingBlock: XIVTED_clean_linker_0, # of connection points: 2
#     Edge 27, Type (0, 1), BuildingBlock: XIVTED_clean_linker_0, # of connection points: 2
#     Edge 28, Type (0, 1), BuildingBlock: XIVTED_clean_linker_0, # of connection points: 2
#     Edge 29, Type (0, 1), BuildingBlock: XIVTED_clean_linker_0, # of connection points: 2
#     Edge 30, Type (0, 1), BuildingBlock: XIVTED_clean_linker_0, # of connection points: 2
#     Edge 31, Type (0, 1), BuildingBlock: XIVTED_clean_linker_0, # of connection points: 2
#     Edge 32, Type (0, 1), BuildingBlock: XIVTED_clean_linker_0, # of connection points: 2
#     Edge 33, Type (0, 1), BuildingBlock: XIVTED_clean_linker_0, # of connection points: 2
#     Edge 34, Type (0, 1), BuildingBlock: XIVTED_clean_linker_0, # of connection points: 2
#     Edge 35, Type (0, 1), BuildingBlock: XIVTED_clean_linker_0, # of connection points: 2
# Relax obj value: 0.008
# Max RMSD: 0.105
# Mean RMSD: 0.066
data_MOF--net-nom--node1-CEKHIL_clean_sbu_0--node2-MUDLON_clean_linker_0--edge1-XIVTED_clean_linker_0
_symmetry_space_group_name_H-M    P1
_symmetry_Int_Tables_number       1
_symmetry_cell_setting            triclinic
loop_
_symmetry_equiv_pos_as_xyz
'x, y, z'
_cell_length_a     61.075011
_cell_length_b     61.440459
_cell_length_c     61.159962
_cell_angle_alpha  90.36678
_cell_angle_beta   89.834319
_cell_angle_gamma 121.58645
loop_
_atom_site_label
_atom_site_type_symbol
_atom_site_fract_x
_atom_site_fract_y
_atom_site_fract_z
_atom_type_partial_charge
H0 H 0.1188 0.56382 0.33686 0.0
N1 N 0.09421 0.58897 0.34785 0.0
H2 H 0.15512 0.57907 0.312 0.0
H3 H 0.11335 0.62927 0.32193 0.0
H4 H 0.1503 0.64521 0.29743 0.0
H5 H 0.11284 0.62916 0.37401 0.0
H6 H 0.13358 0.63512 0.40945 0.0
H7 H 0.09592 0.55178 0.37096 0.0
H8 H 0.1166 0.55744 0.40657 0.0
H9 H 0.07419 0.53904 0.33542 0.0
H10 H 0.05515 0.59616 0.34868 0.0
H11 H 0.02982 0.50874 0.32477 0.0
H12 H 0.01036 0.56569 0.33872 0.0
H13 H 0.91124 0.42796 0.27494 0.0
H14 H 0.89632 0.41891 0.23707 0.0
H15 H 0.89099 0.48638 0.23691 0.0
H16 H 0.90452 0.49437 0.27491 0.0
H17 H 0.9018 0.49929 0.31402 0.0
H18 H 0.86049 0.48965 0.32901 0.0
H19 H 0.83561 0.40969 0.33193 0.0
H20 H 0.87675 0.41946 0.31647 0.0
H21 H 0.94286 0.45356 0.32545 0.0
H22 H 0.98658 0.48337 0.3386 0.0
H23 H 0.98555 0.54528 0.30645 0.0
N24 N 0.91367 0.46379 0.30102 0.0
H25 H 0.9419 0.51568 0.29408 0.0
C26 C 0.1133 0.59546 0.33118 0.0
C27 C 0.12508 0.58124 0.32794 0.0
C28 C 0.14609 0.59015 0.31386 0.0
C29 C 0.15579 0.61349 0.30286 0.0
C30 C 0.14318 0.62703 0.30542 0.0
C31 C 0.12213 0.61804 0.31945 0.0
C32 C 0.10288 0.59016 0.3699 0.0
C33 C 0.11316 0.6133 0.38127 0.0
C34 C 0.12496 0.6166 0.40152 0.0
C35 C 0.12677 0.59673 0.41084 0.0
C36 C 0.11574 0.57318 0.39971 0.0
C37 C 0.10378 0.56987 0.37941 0.0
C38 C 0.06799 0.57 0.34267 0.0
C39 C 0.06044 0.54503 0.33623 0.0
C40 C 0.03494 0.52763 0.33027 0.0
C41 C 0.01651 0.53481 0.33076 0.0
C42 C 0.02411 0.55965 0.33775 0.0
C43 C 0.0496 0.57702 0.34361 0.0
C44 C 0.90925 0.46186 0.27777 0.0
C45 C 0.90735 0.44103 0.26651 0.0
C46 C 0.89888 0.43598 0.24483 0.0
C47 C 0.89225 0.45183 0.2339 0.0
C48 C 0.89548 0.47351 0.2449 0.0
C49 C 0.90368 0.47837 0.26664 0.0
C50 C 0.89221 0.45994 0.31396 0.0
C51 C 0.8877 0.47978 0.31829 0.0
C52 C 0.86407 0.47426 0.32693 0.0
C53 C 0.84467 0.44886 0.33128 0.0
C54 C 0.85001 0.42939 0.32833 0.0
C55 C 0.87353 0.43492 0.31973 0.0
C56 C 0.9391 0.48223 0.30873 0.0
C57 C 0.95212 0.47362 0.32139 0.0
C58 C 0.97712 0.49064 0.32874 0.0
C59 C 0.98963 0.51673 0.32352 0.0
C60 C 0.97639 0.52538 0.31101 0.0
C61 C 0.95136 0.50834 0.30374 0.0
H62 H 0.48852 0.8747 0.45688 0.0
N63 N 0.4844 0.91433 0.44729 0.0
H64 H 0.46077 0.83889 0.48047 0.0
H65 H 0.44718 0.91141 0.47477 0.0
H66 H 0.42037 0.87654 0.49957 0.0
H67 H 0.43533 0.8959 0.43293 0.0
H68 H 0.41742 0.87465 0.39811 0.0
H69 H 0.51027 0.91248 0.41303 0.0
H70 H 0.49266 0.89187 0.37762 0.0
H71 H 0.52888 0.94653 0.4662 0.0
H72 H 0.46056 0.94138 0.4408 0.0
H73 H 0.54599 0.99112 0.4764 0.0
H74 H 0.47779 0.98616 0.45032 0.0
H75 H 0.59825 0.1094 0.51591 0.0
H76 H 0.60551 0.12485 0.55366 0.0
H77 H 0.52821 0.11037 0.55633 0.0
H78 H 0.52143 0.09532 0.51833 0.0
H79 H 0.51889 0.10386 0.47962 0.0
H80 H 0.52448 0.14255 0.4625 0.0
H81 H 0.60569 0.17192 0.45533 0.0
H82 H 0.5999 0.13353 0.47279 0.0
H83 H 0.58145 0.07628 0.4717 0.0
H84 H 0.56297 0.03202 0.45957 0.0
H85 H 0.48815 0.01451 0.48171 0.0
N86 N 0.55753 0.09655 0.49131 0.0
H87 H 0.50691 0.05919 0.49312 0.0
C88 C 0.47017 0.8958 0.4641 0.0
C89 C 0.47392 0.87534 0.46647 0.0
C90 C 0.45805 0.85493 0.48011 0.0
C91 C 0.43815 0.85465 0.49204 0.0
C92 C 0.43513 0.87579 0.49038 0.0
C93 C 0.45077 0.89603 0.47638 0.0
C94 C 0.47422 0.90573 0.42559 0.0
C95 C 0.44809 0.89557 0.42081 0.0
C96 C 0.43787 0.88343 0.40079 0.0
C97 C 0.45354 0.8813 0.38508 0.0
C98 C 0.47995 0.89272 0.38949 0.0
C99 C 0.49012 0.90476 0.40958 0.0
C100 C 0.49367 0.94067 0.45258 0.0
C101 C 0.51771 0.95514 0.46266 0.0
C102 C 0.52747 0.98064 0.46834 0.0
C103 C 0.51336 0.99232 0.46399 0.0
C104 C 0.48908 0.97772 0.45402 0.0
C105 C 0.47929 0.95211 0.44838 0.0
C106 C 0.55942 0.10127 0.51444 0.0
C107 C 0.58274 0.10902 0.52488 0.0
C108 C 0.58676 0.11777 0.54646 0.0
C109 C 0.56745 0.11895 0.55803 0.0
C110 C 0.54357 0.10999 0.54779 0.0
C111 C 0.53957 0.10118 0.52615 0.0
C112 C 0.55911 0.11611 0.47753 0.0
C113 C 0.53774 0.11844 0.47393 0.0
C114 C 0.54096 0.14049 0.46412 0.0
C115 C 0.5656 0.16041 0.45793 0.0
C116 C 0.58656 0.1571 0.4603 0.0
C117 C 0.5833 0.13515 0.47005 0.0
C118 C 0.54558 0.07081 0.48336 0.0
C119 C 0.56103 0.06285 0.47371 0.0
C120 C 0.55045 0.03755 0.46698 0.0
C121 C 0.52411 0.0196 0.46991 0.0
C122 C 0.50846 0.02786 0.47909 0.0
C123 C 0.51914 0.05332 0.48574 0.0
H124 H 0.47562 0.59524 0.63877 0.0
N125 N 0.46791 0.55322 0.65757 0.0
H126 H 0.44309 0.60175 0.62226 0.0
H127 H 0.41969 0.51495 0.64553 0.0
H128 H 0.38665 0.52135 0.62926 0.0
H129 H 0.4264 0.5272 0.68455 0.0
H130 H 0.422 0.54056 0.72102 0.0
H131 H 0.50535 0.58921 0.68211 0.0
H132 H 0.50179 0.60187 0.7193 0.0
H133 H 0.50597 0.56415 0.63037 0.0
H134 H 0.44942 0.50442 0.67157 0.0
H135 H 0.52541 0.53884 0.62287 0.0
H136 H 0.46943 0.47925 0.66505 0.0
H137 H 0.59854 0.46711 0.61006 0.0
H138 H 0.60495 0.45713 0.57268 0.0
H139 H 0.52568 0.43077 0.55781 0.0
H140 H 0.51924 0.43982 0.59517 0.0
H141 H 0.51834 0.40585 0.62125 0.0
H142 H 0.51867 0.36969 0.63727 0.0
H143 H 0.58036 0.42127 0.68037 0.0
H144 H 0.58047 0.45756 0.66381 0.0
H145 H 0.57423 0.50555 0.63621 0.0
H146 H 0.55126 0.5276 0.64295 0.0
H147 H 0.47893 0.45546 0.63903 0.0
N148 N 0.55462 0.4564 0.62855 0.0
H149 H 0.50227 0.4335 0.63315 0.0
C150 C 0.44997 0.55479 0.64352 0.0
C151 C 0.45644 0.57892 0.63609 0.0
C152 C 0.43781 0.5826 0.62685 0.0
C153 C 0.41227 0.56213 0.62489 0.0
C154 C 0.40621 0.53744 0.63061 0.0
C155 C 0.425 0.53378 0.63992 0.0
C156 C 0.46612 0.55765 0.68046 0.0
C157 C 0.44297 0.5434 0.69207 0.0
C158 C 0.44057 0.55096 0.71309 0.0
C159 C 0.4614 0.57264 0.72304 0.0
C160 C 0.4851 0.58557 0.71194 0.0
C161 C 0.48733 0.57823 0.6908 0.0
C162 C 0.47657 0.5363 0.65165 0.0
C163 C 0.4977 0.54543 0.63766 0.0
C164 C 0.50892 0.53105 0.63364 0.0
C165 C 0.49937 0.50724 0.64377 0.0
C166 C 0.47729 0.4975 0.65699 0.0
C167 C 0.46587 0.51189 0.66082 0.0
C168 C 0.55855 0.45432 0.60552 0.0
C169 C 0.58274 0.45966 0.59855 0.0
C170 C 0.58636 0.454 0.57717 0.0
C171 C 0.56574 0.4429 0.56229 0.0
C172 C 0.54184 0.43886 0.56897 0.0
C173 C 0.5382 0.44434 0.59038 0.0
C174 C 0.54976 0.43455 0.64115 0.0
C175 C 0.53153 0.40941 0.63449 0.0
C176 C 0.53174 0.38873 0.64361 0.0
C177 C 0.54971 0.39276 0.65986 0.0
C178 C 0.56623 0.41763 0.66792 0.0
C179 C 0.56632 0.43835 0.65852 0.0
C180 C 0.54008 0.46803 0.63409 0.0
C181 C 0.55343 0.49453 0.63704 0.0
C182 C 0.54022 0.50708 0.64064 0.0
C183 C 0.51318 0.49336 0.64113 0.0
C184 C 0.49974 0.4666 0.63881 0.0
C185 C 0.51307 0.45401 0.63538 0.0
H186 H 0.12172 0.55365 0.82203 0.0
N187 N 0.09906 0.51259 0.79374 0.0
H188 H 0.16268 0.56981 0.84061 0.0
H189 H 0.12378 0.48822 0.79926 0.0
H190 H 0.16488 0.50426 0.81796 0.0
H191 H 0.09497 0.48898 0.75607 0.0
H192 H 0.11333 0.5087 0.72062 0.0
H193 H 0.12278 0.56357 0.78408 0.0
H194 H 0.14112 0.58325 0.74915 0.0
H195 H 0.08599 0.54815 0.80396 0.0
H196 H 0.05737 0.46743 0.8013 0.0
H197 H 0.04358 0.53914 0.81437 0.0
H198 H 0.01462 0.4582 0.81193 0.0
H199 H 0.90538 0.5004 0.85688 0.0
H200 H 0.88645 0.48784 0.89335 0.0
H201 H 0.90433 0.42837 0.89403 0.0
H202 H 0.92463 0.44226 0.85837 0.0
H203 H 0.90062 0.426 0.82617 0.0
H204 H 0.86133 0.39843 0.80576 0.0
H205 H 0.85886 0.46444 0.78588 0.0
H206 H 0.89845 0.49214 0.80663 0.0
H207 H 0.96799 0.5129 0.85086 0.0
H208 H 0.01126 0.5216 0.84375 0.0
H209 H 0.98068 0.46221 0.7945 0.0
N210 N 0.92383 0.47781 0.83221 0.0
H211 H 0.93795 0.45344 0.80145 0.0
C212 C 0.11968 0.51969 0.80904 0.0
C213 C 0.13058 0.54239 0.82141 0.0
C214 C 0.15416 0.55173 0.83196 0.0
C215 C 0.1672 0.5385 0.83049 0.0
C216 C 0.15529 0.51485 0.81951 0.0
C217 C 0.13181 0.50563 0.80884 0.0
C218 C 0.10727 0.52463 0.77269 0.0
C219 C 0.1046 0.50953 0.75446 0.0
C220 C 0.11526 0.52083 0.73433 0.0
C221 C 0.12875 0.54755 0.73209 0.0
C222 C 0.13053 0.5626 0.75021 0.0
C223 C 0.11998 0.55129 0.77031 0.0
C224 C 0.07498 0.50836 0.80191 0.0
C225 C 0.07079 0.52847 0.80595 0.0
C226 C 0.0464 0.52329 0.81197 0.0
C227 C 0.02568 0.49794 0.81389 0.0
C228 C 0.0301 0.47793 0.81032 0.0
C229 C 0.0545 0.48314 0.80443 0.0
C230 C 0.91614 0.47216 0.85483 0.0
C231 C 0.90566 0.48504 0.86521 0.0
C232 C 0.89456 0.47758 0.88592 0.0
C233 C 0.89339 0.45675 0.89659 0.0
C234 C 0.90499 0.4446 0.88652 0.0
C235 C 0.91642 0.45235 0.86594 0.0
C236 C 0.90271 0.46133 0.81779 0.0
C237 C 0.89191 0.43468 0.81724 0.0
C238 C 0.86946 0.41889 0.80542 0.0
C239 C 0.85699 0.42926 0.79422 0.0
C240 C 0.86798 0.4559 0.79446 0.0
C241 C 0.89067 0.47174 0.8061 0.0
C242 C 0.94909 0.48195 0.82742 0.0
C243 C 0.97053 0.50152 0.83869 0.0
C244 C 0.9953 0.50661 0.83451 0.0
C245 C 0.99936 0.49236 0.81875 0.0
C246 C 0.97811 0.47308 0.80717 0.0
C247 C 0.95335 0.46801 0.81129 0.0
H248 H 0.53368 0.13686 0.96161 0.0
N249 N 0.54183 0.10041 0.94905 0.0
H250 H 0.56296 0.1757 0.98215 0.0
H251 H 0.58499 0.10938 0.9708 0.0
H252 H 0.61494 0.14857 0.99062 0.0
H253 H 0.58829 0.11292 0.93142 0.0
H254 H 0.60427 0.13157 0.89568 0.0
H255 H 0.51455 0.1027 0.91642 0.0
H256 H 0.53011 0.12057 0.88 0.0
H257 H 0.49724 0.07171 0.96881 0.0
H258 H 0.5634 0.07088 0.94538 0.0
H259 H 0.47762 0.02745 0.98065 0.0
H260 H 0.54359 0.02629 0.95646 0.0
H261 H 0.42255 0.91323 0.02766 0.0
H262 H 0.41865 0.898 0.06507 0.0
H263 H 0.49036 0.90048 0.05774 0.0
H264 H 0.49381 0.91538 0.02022 0.0
H265 H 0.49347 0.91109 0.98088 0.0
H266 H 0.48521 0.87137 0.96362 0.0
H267 H 0.4035 0.84125 0.96692 0.0
H268 H 0.41205 0.88066 0.98481 0.0
H269 H 0.43659 0.94185 0.97742 0.0
H270 H 0.45826 0.98591 0.96456 0.0
H271 H 0.53072 0.99836 0.98801 0.0
N272 N 0.45703 0.91916 -0.00182 0.0
H273 H 0.50883 0.95385 7e-05 0.0
C274 C 0.55721 0.12042 0.96453 0.0
C275 C 0.55109 0.13908 0.96842 0.0
C276 C 0.56799 0.16135 0.97991 0.0
C277 C 0.59156 0.16549 0.98762 0.0
C278 C 0.59694 0.14598 0.98494 0.0
C279 C 0.57987 0.12358 0.97352 0.0
C280 C 0.55016 0.10656 0.92668 0.0
C281 C 0.57525 0.11399 0.92021 0.0
C282 C 0.58438 0.12463 0.89962 0.0
C283 C 0.5686 0.12792 0.88501 0.0
C284 C 0.54297 0.11884 0.89101 0.0
C285 C 0.53392 0.10836 0.91168 0.0
C286 C 0.53154 0.07451 0.95605 0.0
C287 C 0.50744 0.06187 0.96615 0.0
C288 C 0.49622 0.03653 0.97273 0.0
C289 C 0.50886 0.02316 0.96922 0.0
C290 C 0.53337 0.03605 0.95948 0.0
C291 C 0.54467 0.06155 0.95299 0.0
C292 C 0.4583 0.91535 0.02119 0.0
C293 C 0.43774 0.91116 0.03439 0.0
C294 C 0.43563 0.90252 0.05577 0.0
C295 C 0.45414 0.89784 0.06436 0.0
C296 C 0.47563 0.90358 0.0515 0.0
C297 C 0.47773 0.9123 0.03009 0.0
C298 C 0.45326 0.89859 0.98424 0.0
C299 C 0.47384 0.89606 0.97755 0.0
C300 C 0.46907 0.87337 0.96764 0.0
C301 C 0.44366 0.85297 0.96425 0.0
C302 C 0.42326 0.85635 0.96975 0.0
C303 C 0.42807 0.87891 0.9797 0.0
C304 C 0.471 0.94474 0.98984 0.0
C305 C 0.45718 0.9541 0.97958 0.0
C306 C 0.46959 0.97932 0.97244 0.0
C307 C 0.4962 0.99584 0.97557 0.0
C308 C 0.51023 0.98614 0.98528 0.0
C309 C 0.49773 0.96074 0.99232 0.0
H310 H 0.57902 0.46265 0.15282 0.0
N311 N 0.60123 0.51292 0.16499 0.0
H312 H 0.60011 0.44391 0.1335 0.0
H313 H 0.64623 0.53776 0.14454 0.0
H314 H 0.66803 0.519 0.12583 0.0
H315 H 0.63598 0.52634 0.19632 0.0
H316 H 0.63116 0.50447 0.23078 0.0
H317 H 0.5558 0.47395 0.182 0.0
H318 H 0.55043 0.4528 0.2168 0.0
H319 H 0.55737 0.48195 0.14085 0.0
H320 H 0.60252 0.5563 0.17096 0.0
H321 H 0.52499 0.49159 0.13046 0.0
H322 H 0.57032 0.56643 0.16008 0.0
H323 H 0.42185 0.5287 0.09944 0.0
H324 H 0.41644 0.54307 0.06378 0.0
H325 H 0.49826 0.59777 0.06114 0.0
H326 H 0.50323 0.58395 0.09707 0.0
H327 H 0.49902 0.59998 0.13198 0.0
H328 H 0.48914 0.63003 0.14889 0.0
H329 H 0.41217 0.56762 0.16281 0.0
H330 H 0.42212 0.53775 0.14551 0.0
H331 H 0.48219 0.52522 0.09854 0.0
H332 H 0.51636 0.51745 0.10693 0.0
H333 H 0.52669 0.55352 0.17001 0.0
N334 N 0.46442 0.54926 0.12354 0.0
H335 H 0.4931 0.56184 0.16164 0.0
C336 C 0.61101 0.50179 0.14999 0.0
C337 C 0.59806 0.47525 0.14631 0.0
C338 C 0.61036 0.46447 0.13554 0.0
C339 C 0.63595 0.47988 0.12843 0.0
C340 C 0.64827 0.50655 0.13094 0.0
C341 C 0.63587 0.51733 0.14162 0.0
C342 C 0.59639 0.50202 0.18659 0.0
C343 C 0.61718 0.51058 0.20094 0.0
C344 C 0.61431 0.49806 0.22068 0.0
C345 C 0.59039 0.47672 0.2266 0.0
C346 C 0.56924 0.46886 0.21262 0.0
C347 C 0.57222 0.48121 0.19274 0.0
C348 C 0.5826 0.51852 0.15672 0.0
C349 C 0.56063 0.50053 0.14496 0.0
C350 C 0.54203 0.50612 0.13892 0.0
C351 C 0.54498 0.52977 0.14448 0.0
C352 C 0.56723 0.54789 0.15582 0.0
C353 C 0.58576 0.54225 0.16187 0.0
C354 C 0.46282 0.55515 0.10094 0.0
C355 C 0.43862 0.54345 0.09092 0.0
C356 C 0.43562 0.55168 0.07051 0.0
C357 C 0.45688 0.57179 0.05965 0.0
C358 C 0.48137 0.58263 0.06924 0.0
C359 C 0.48431 0.57457 0.08973 0.0
C360 C 0.46117 0.56653 0.13741 0.0
C361 C 0.4802 0.5927 0.13905 0.0
C362 C 0.47456 0.60985 0.14882 0.0
C363 C 0.44978 0.60122 0.15692 0.0
C364 C 0.43133 0.57489 0.15641 0.0
C365 C 0.43702 0.55776 0.14676 0.0
C366 C 0.48578 0.54585 0.12862 0.0
C367 C 0.49222 0.53223 0.11397 0.0
C368 C 0.5116 0.52739 0.11891 0.0
C369 C 0.52465 0.53531 0.13898 0.0
C370 C 0.51765 0.54795 0.15407 0.0
C371 C 0.4983 0.55285 0.14913 0.0
Co372 Co 0.62422 0.37067 0.38866 0.0
O373 O 0.64676 0.3689 0.3678 0.0
O374 O 0.65752 0.40208 0.38944 0.0
C375 C 0.60957 0.33181 0.40317 0.0
O376 O 0.60672 0.37897 0.41281 0.0
Co377 Co 0.56553 0.33335 0.38595 0.0
O378 O 0.56536 0.34727 0.41525 0.0
C379 C 0.59077 0.37584 0.3548 0.0
C380 C 0.66427 0.39154 0.37451 0.0
C381 C 0.58473 0.3679 0.42244 0.0
O382 O 0.61178 0.38504 0.36573 0.0
O383 O 0.57058 0.35424 0.35911 0.0
O384 O 0.63125 0.35147 0.40953 0.0
O385 O 0.59847 0.3357 0.38696 0.0
Co386 Co 0.28095 0.64768 0.57134 0.0
O387 O 0.30397 0.64664 0.59189 0.0
O388 O 0.2786 0.61495 0.56939 0.0
C389 C 0.30963 0.68662 0.55808 0.0
O390 O 0.25525 0.64243 0.54748 0.0
Co391 Co 0.26638 0.68881 0.57673 0.0
O392 O 0.24965 0.67584 0.54798 0.0
C393 C 0.24279 0.64399 0.60565 0.0
C394 C 0.29614 0.62386 0.58458 0.0
C395 C 0.24556 0.65498 0.53959 0.0
O396 O 0.25315 0.63407 0.59424 0.0
O397 O 0.24719 0.6665 0.60232 0.0
O398 O 0.3091 0.66644 0.55084 0.0
O399 O 0.29449 0.68297 0.57431 0.0
Co400 Co 0.64448 0.27287 0.71923 0.0
O401 O 0.64194 0.29385 0.69729 0.0
O402 O 0.61119 0.26924 0.72078 0.0
C403 C 0.68362 0.30313 0.73175 0.0
O404 O 0.6397 0.2495 0.74458 0.0
Co405 Co 0.68646 0.25903 0.7188 0.0
O406 O 0.67299 0.24387 0.74791 0.0
C407 C 0.64207 0.23244 0.68866 0.0
C408 C 0.61908 0.28572 0.70499 0.0
C409 C 0.65168 0.24048 0.75465 0.0
O410 O 0.63145 0.24361 0.6977 0.0
O411 O 0.66452 0.2373 0.6938 0.0
O412 O 0.66309 0.30248 0.73844 0.0
O413 O 0.68014 0.28677 0.71667 0.0
Co414 Co 0.3914 0.64453 0.89118 0.0
O415 O 0.36777 0.6441 0.8702 0.0
O416 O 0.35994 0.61133 0.89087 0.0
C417 C 0.40192 0.68233 0.90639 0.0
O418 O 0.41011 0.63796 0.91535 0.0
Co419 Co 0.44926 0.68675 0.89139 0.0
O420 O 0.44938 0.67274 0.92046 0.0
C421 C 0.42893 0.64583 0.85783 0.0
C422 C 0.35175 0.6208 0.87634 0.0
C423 C 0.43124 0.65064 0.9262 0.0
O424 O 0.40721 0.63357 0.86788 0.0
O425 O 0.44717 0.66811 0.86367 0.0
O426 O 0.38118 0.66142 0.91238 0.0
O427 O 0.41457 0.67999 0.89055 0.0
Co428 Co 0.74979 0.37554 0.06453 0.0
O429 O 0.72573 0.37449 0.08557 0.0
O430 O 0.75102 0.40761 0.06459 0.0
C431 C 0.72238 0.33709 0.0494 0.0
O432 O 0.77587 0.3837 0.04027 0.0
Co433 Co 0.76747 0.33674 0.06461 0.0
O434 O 0.78425 0.35238 0.03645 0.0
C435 C 0.78878 0.37851 0.09724 0.0
C436 C 0.73303 0.39747 0.07931 0.0
C437 C 0.78669 0.37329 0.03026 0.0
O438 O 0.77731 0.38845 0.08774 0.0
O439 O 0.78595 0.35714 0.09137 0.0
O440 O 0.72218 0.35724 0.04345 0.0
O441 O 0.73774 0.34035 0.0653 0.0
Co442 Co 0.36824 0.73541 0.21783 0.0
O443 O 0.36693 0.7129 0.19523 0.0
O444 O 0.39964 0.7348 0.2179 0.0
C445 C 0.32849 0.70811 0.2309 0.0
O446 O 0.3761 0.75958 0.2437 0.0
Co447 Co 0.32999 0.75439 0.21859 0.0
O448 O 0.34409 0.7671 0.24819 0.0
C449 C 0.37503 0.7787 0.18895 0.0
C450 C 0.38933 0.71824 0.20204 0.0
C451 C 0.36502 0.76927 0.25447 0.0
O452 O 0.38343 0.76501 0.19677 0.0
O453 O 0.3536 0.77616 0.1946 0.0
O454 O 0.34782 0.70625 0.23693 0.0
O455 O 0.33337 0.72493 0.21608 0.0
H456 H 0.16787 0.63959 0.26402 0.0
H457 H 0.31362 0.6734 0.26398 0.0
H458 H 0.19937 0.61338 0.31309 0.0
H459 H 0.28479 0.7074 0.22008 0.0
H460 H 0.27079 0.64814 0.28016 0.0
H461 H 0.20951 0.66134 0.24553 0.0
C462 C 0.1835 0.63832 0.27087 0.0
C463 C 0.1801 0.62471 0.29021 0.0
C464 C 0.27382 0.6611 0.26697 0.0
C465 C 0.2278 0.64947 0.26907 0.0
C466 C 0.29826 0.67552 0.25774 0.0
C467 C 0.30276 0.69259 0.24075 0.0
C468 C 0.25374 0.66372 0.25909 0.0
C469 C 0.28217 0.69454 0.23324 0.0
C470 C 0.20725 0.65069 0.26028 0.0
C471 C 0.20095 0.62338 0.29811 0.0
N472 N 0.25855 0.6803 0.24247 0.0
N473 N 0.22391 0.63571 0.28758 0.0
H474 H 0.60322 0.20745 0.47187 0.0
H475 H 0.56775 0.28571 0.3903 0.0
H476 H 0.53798 0.17045 0.42838 0.0
H477 H 0.62927 0.3199 0.43763 0.0
H478 H 0.55479 0.24336 0.40465 0.0
H479 H 0.61165 0.2488 0.45994 0.0
C480 C 0.59074 0.20806 0.45966 0.0
C481 C 0.5701 0.18548 0.45084 0.0
C482 C 0.57099 0.26018 0.41197 0.0
C483 C 0.57948 0.23299 0.4372 0.0
C484 C 0.57836 0.28432 0.40382 0.0
C485 C 0.59974 0.30631 0.41268 0.0
C486 C 0.58518 0.25814 0.42903 0.0
C487 C 0.61279 0.30346 0.43018 0.0
C488 C 0.59544 0.23172 0.45296 0.0
C489 C 0.55414 0.18744 0.43552 0.0
N490 N 0.60539 0.27986 0.43767 0.0
N491 N 0.55929 0.21083 0.42903 0.0
H492 H 0.37257 0.5379 0.59499 0.0
H493 H 0.32346 0.63314 0.62187 0.0
H494 H 0.40532 0.59817 0.64335 0.0
H495 H 0.2965 0.5832 0.56551 0.0
H496 H 0.34844 0.61474 0.63298 0.0
H497 H 0.3402 0.54911 0.58647 0.0
C498 C 0.37285 0.55337 0.60383 0.0
C499 C 0.39186 0.56745 0.61961 0.0
C500 C 0.33699 0.6076 0.61822 0.0
C501 C 0.35501 0.58006 0.61026 0.0
C502 C 0.32264 0.61809 0.6119 0.0
C503 C 0.30814 0.6099 0.5926 0.0
C504 C 0.33716 0.58886 0.60508 0.0
C505 C 0.30754 0.59009 0.58048 0.0
C506 C 0.35446 0.55976 0.59897 0.0
C507 C 0.39136 0.5872 0.63072 0.0
N508 N 0.32215 0.58041 0.58678 0.0
N509 N 0.37333 0.59291 0.62581 0.0
H510 H 0.81355 0.43171 0.79599 0.0
H511 H 0.729 0.30601 0.72299 0.0
H512 H 0.84318 0.38751 0.76818 0.0
H513 H 0.6969 0.34255 0.76033 0.0
H514 H 0.77164 0.33753 0.73708 0.0
H515 H 0.77144 0.40146 0.78023 0.0
C516 C 0.81127 0.4158 0.78634 0.0
C517 C 0.83189 0.4121 0.7834 0.0
C518 C 0.75527 0.33863 0.74221 0.0
C519 C 0.78368 0.37723 0.76554 0.0
C520 C 0.73092 0.32064 0.73419 0.0
C521 C 0.70938 0.32164 0.74055 0.0
C522 C 0.75812 0.35788 0.7566 0.0
C523 C 0.71299 0.34104 0.75506 0.0
C524 C 0.78717 0.39841 0.77751 0.0
C525 C 0.82773 0.39093 0.77103 0.0
N526 N 0.7369 0.35843 0.76256 0.0
N527 N 0.80411 0.3743 0.76256 0.0
H528 H 0.40681 0.80576 0.97893 0.0
H529 H 0.44349 0.72886 0.89561 0.0
H530 H 0.46845 0.84253 0.93197 0.0
H531 H 0.37843 0.69293 0.9393 0.0
H532 H 0.45478 0.77058 0.91031 0.0
H533 H 0.3977 0.76429 0.96589 0.0
C534 C 0.41831 0.80512 0.96572 0.0
C535 C 0.43825 0.82771 0.95635 0.0
C536 C 0.4381 0.75358 0.91674 0.0
C537 C 0.42816 0.78011 0.94157 0.0
C538 C 0.43167 0.72975 0.9084 0.0
C539 C 0.40992 0.70742 0.91619 0.0
C540 C 0.42267 0.75508 0.93301 0.0
C541 C 0.39532 0.70967 0.93278 0.0
C542 C 0.41321 0.78139 0.95839 0.0
C543 C 0.45296 0.82564 0.93971 0.0
N544 N 0.40191 0.73309 0.94058 0.0
N545 N 0.44756 0.80224 0.9328 0.0
H546 H 0.67147 0.49595 0.09501 0.0
H547 H 0.69675 0.3816 0.11138 0.0
H548 H 0.63382 0.43709 0.14376 0.0
H549 H 0.73968 0.4431 0.06582 0.0
H550 H 0.67339 0.40185 0.12313 0.0
H551 H 0.69632 0.47692 0.08354 0.0
C552 C 0.66839 0.47904 0.10329 0.0
C553 C 0.65036 0.46804 0.1203 0.0
C554 C 0.68798 0.41102 0.11062 0.0
C555 C 0.6787 0.44615 0.10723 0.0
C556 C 0.70138 0.39947 0.10393 0.0
C557 C 0.72019 0.41067 0.08758 0.0
C558 C 0.69329 0.43392 0.10085 0.0
C559 C 0.72535 0.43384 0.07851 0.0
C560 C 0.68256 0.46816 0.09671 0.0
C561 C 0.64707 0.44599 0.13029 0.0
N562 N 0.71189 0.44465 0.0852 0.0
N563 N 0.66108 0.43583 0.12362 0.0
H564 H 0.44776 0.82201 0.51492 0.0
H565 H 0.30636 0.72943 0.55948 0.0
H566 H 0.3863 0.83446 0.4987 0.0
H567 H 0.35488 0.70197 0.53756 0.0
H568 H 0.33811 0.77205 0.5453 0.0
H569 H 0.41633 0.78166 0.53196 0.0
C570 C 0.42774 0.8164 0.51491 0.0
C571 C 0.41976 0.83166 0.50494 0.0
C572 C 0.34169 0.75661 0.54368 0.0
C573 C 0.38387 0.78579 0.52513 0.0
C574 C 0.32369 0.73242 0.55174 0.0
C575 C 0.32803 0.71224 0.54953 0.0
C576 C 0.36436 0.76064 0.53396 0.0
C577 C 0.35074 0.717 0.53941 0.0
C578 C 0.40987 0.79341 0.52477 0.0
C579 C 0.39355 0.8236 0.50627 0.0
N580 N 0.36818 0.74078 0.53215 0.0
N581 N 0.37652 0.80118 0.51614 0.0
H582 H 0.55661 0.36158 0.63284 0.0
H583 H 0.58164 0.28823 0.72725 0.0
H584 H 0.55306 0.37738 0.70113 0.0
H585 H 0.62216 0.30805 0.66573 0.0
H586 H 0.56016 0.31078 0.71601 0.0
H587 H 0.56949 0.33138 0.64311 0.0
C588 C 0.55799 0.35823 0.65001 0.0
C589 C 0.55378 0.37193 0.6662 0.0
C590 C 0.57354 0.30988 0.70493 0.0
C591 C 0.56849 0.33756 0.67797 0.0
C592 C 0.58566 0.29694 0.71124 0.0
C593 C 0.60377 0.29643 0.69741 0.0
C594 C 0.57918 0.32184 0.68448 0.0
C595 C 0.60844 0.30816 0.67691 0.0
C596 C 0.56553 0.3412 0.65582 0.0
C597 C 0.55624 0.36722 0.6882 0.0
N598 N 0.59619 0.32038 0.67104 0.0
N599 N 0.56346 0.35039 0.69348 0.0
H600 H 0.20634 0.58787 0.82518 0.0
H601 H 0.31261 0.57233 0.88703 0.0
H602 H 0.1896 0.51634 0.85293 0.0
H603 H 0.32949 0.63767 0.84808 0.0
H604 H 0.26731 0.5516 0.8762 0.0
H605 H 0.2512 0.60699 0.83575 0.0
C606 C 0.21204 0.57626 0.83378 0.0
C607 C 0.19413 0.5505 0.83831 0.0
C608 C 0.281 0.5704 0.86994 0.0
C609 C 0.24575 0.57222 0.85018 0.0
C610 C 0.30685 0.58221 0.87606 0.0
C611 C 0.32485 0.60679 0.86848 0.0
C612 C 0.27313 0.58339 0.85631 0.0
C613 C 0.31631 0.61873 0.85436 0.0
C614 C 0.23776 0.58712 0.83961 0.0
C615 C 0.2028 0.53624 0.84905 0.0
N616 N 0.29109 0.607 0.84885 0.0
N617 N 0.22801 0.54731 0.85468 0.0
H618 H 0.60388 0.2126 0.97329 0.0
H619 H 0.71558 0.29096 0.06115 0.0
H620 H 0.62443 0.17621 0.02241 0.0
H621 H 0.68902 0.32548 0.01552 0.0
H622 H 0.68421 0.24886 0.04606 0.0
H623 H 0.63641 0.25413 0.98778 0.0
C624 C 0.61504 0.21331 0.98731 0.0
C625 C 0.61116 0.1908 0.9968 0.0
C626 C 0.68532 0.26566 0.03932 0.0
C627 C 0.64901 0.23856 0.01324 0.0
C628 C 0.70327 0.28969 0.04787 0.0
C629 C 0.70483 0.31172 0.03961 0.0
C630 C 0.66891 0.26371 0.02236 0.0
C631 C 0.68843 0.30899 0.02242 0.0
C632 C 0.63381 0.2371 0.99547 0.0
C633 C 0.62681 0.19304 0.01452 0.0
N634 N 0.67113 0.28544 0.01441 0.0
N635 N 0.64503 0.21651 0.02221 0.0
H636 H 0.47671 0.64414 0.18293 0.0
H637 H 0.37182 0.68378 0.16857 0.0
H638 H 0.4063 0.60077 0.14619 0.0
H639 H 0.43308 0.72001 0.21602 0.0
H640 H 0.38783 0.65663 0.15711 0.0
H641 H 0.46413 0.67496 0.19276 0.0
C642 C 0.45862 0.6411 0.17697 0.0
C643 C 0.4424 0.61972 0.1639 0.0
C644 C 0.39789 0.67057 0.16997 0.0
C645 C 0.42807 0.6549 0.17485 0.0
C646 C 0.38882 0.6862 0.17647 0.0
C647 C 0.40103 0.70409 0.19339 0.0
C648 C 0.41939 0.67275 0.18044 0.0
C649 C 0.42306 0.70642 0.20293 0.0
C650 C 0.45145 0.65864 0.1826 0.0
C651 C 0.41918 0.61668 0.15663 0.0
N652 N 0.43148 0.69079 0.19641 0.0
N653 N 0.41278 0.63406 0.16216 0.0
H654 H 0.79988 0.41032 0.31414 0.0
H655 H 0.70772 0.4348 0.38988 0.0
H656 H 0.82922 0.47255 0.3606 0.0
H657 H 0.68157 0.37527 0.34102 0.0
H658 H 0.75225 0.45093 0.37848 0.0
H659 H 0.75635 0.39877 0.32319 0.0
C660 C 0.79713 0.42145 0.32642 0.0
C661 C 0.81821 0.44219 0.33688 0.0
C662 C 0.7367 0.43448 0.37017 0.0
C663 C 0.76815 0.42925 0.34719 0.0
C664 C 0.71132 0.42533 0.3766 0.0
C665 C 0.69095 0.40355 0.36648 0.0
C666 C 0.74161 0.4217 0.35352 0.0
C667 C 0.69666 0.39199 0.34941 0.0
C668 C 0.77222 0.41498 0.33147 0.0
C669 C 0.81347 0.45637 0.3522 0.0
N670 N 0.7214 0.4011 0.34359 0.0
N671 N 0.78889 0.44953 0.35703 0.0
H672 H 0.1259 0.62217 0.44734 0.0
H673 H 0.23588 0.61515 0.51188 0.0
H674 H 0.16088 0.58198 0.42141 0.0
H675 H 0.21387 0.67038 0.52461 0.0
H676 H 0.20491 0.59792 0.48149 0.0
H677 H 0.15381 0.63441 0.47923 0.0
C678 C 0.13941 0.61584 0.44839 0.0
C679 C 0.14129 0.60134 0.43152 0.0
C680 C 0.20696 0.61381 0.49101 0.0
C681 C 0.17335 0.61523 0.46812 0.0
C682 C 0.22461 0.62365 0.50832 0.0
C683 C 0.22762 0.64435 0.52078 0.0
C684 C 0.19205 0.62454 0.4864 0.0
C685 C 0.21245 0.65457 0.51543 0.0
C686 C 0.15534 0.62281 0.46662 0.0
C687 C 0.15874 0.59313 0.43406 0.0
N688 N 0.19535 0.64452 0.49875 0.0
N689 N 0.17427 0.60037 0.45196 0.0
H690 H 0.55354 0.15183 0.57414 0.0
H691 H 0.65169 0.19635 0.67356 0.0
H692 H 0.59489 0.11509 0.59164 0.0
H693 H 0.60007 0.22376 0.66471 0.0
H694 H 0.62983 0.16558 0.64418 0.0
H695 H 0.56828 0.17676 0.60802 0.0
C696 C 0.56531 0.14862 0.58528 0.0
C697 C 0.5732 0.13149 0.57989 0.0
C698 C 0.62312 0.17817 0.64871 0.0
C699 C 0.59059 0.16041 0.61848 0.0
C700 C 0.6357 0.19589 0.66545 0.0
C701 C 0.62788 0.21288 0.6715 0.0
C702 C 0.60268 0.17752 0.63765 0.0
C703 C 0.60681 0.21109 0.66055 0.0
C704 C 0.57387 0.16302 0.60456 0.0
C705 C 0.58875 0.12844 0.59487 0.0
N706 N 0.59509 0.1939 0.64398 0.0
N707 N 0.59714 0.14294 0.61333 0.0
H708 H 0.48292 0.62283 0.73501 0.0
H709 H 0.40013 0.59589 0.84343 0.0
H710 H 0.43129 0.5463 0.75868 0.0
H711 H 0.46808 0.66864 0.82825 0.0
H712 H 0.40861 0.57723 0.81133 0.0
H713 H 0.47549 0.63984 0.76823 0.0
C714 C 0.47031 0.60952 0.7473 0.0
C715 C 0.45789 0.583 0.74397 0.0
C716 C 0.42166 0.59725 0.81515 0.0
C717 C 0.44865 0.60257 0.782 0.0
C718 C 0.41678 0.60794 0.83339 0.0
C719 C 0.4334 0.6339 0.83857 0.0
C720 C 0.44309 0.61271 0.80191 0.0
C721 C 0.45474 0.64855 0.825 0.0
C722 C 0.4659 0.61931 0.76625 0.0
C723 C 0.4411 0.56686 0.76035 0.0
N724 N 0.45887 0.63779 0.80729 0.0
N725 N 0.43686 0.5769 0.77862 0.0
H726 H 0.84909 0.45471 0.9093 0.0
H727 H 0.82347 0.36617 0.012 0.0
H728 H 0.90399 0.43546 0.93147 0.0
H729 H 0.78746 0.4103 0.00482 0.0
H730 H 0.85053 0.38806 0.98036 0.0
H731 H 0.82412 0.43595 0.94248 0.0
C732 C 0.85617 0.4469 0.92122 0.0
C733 C 0.87882 0.44675 0.91743 0.0
C734 C 0.83677 0.39301 0.98578 0.0
C735 C 0.84968 0.42447 0.95523 0.0
C736 C 0.8212 0.38042 0.00375 0.0
C737 C 0.80312 0.38638 0.01107 0.0
C738 C 0.83401 0.41142 0.9748 0.0
C739 C 0.80118 0.40515 -0.00021 0.0
C740 C 0.84173 0.43601 0.94011 0.0
C741 C 0.88648 0.43567 0.93337 0.0
N742 N 0.81631 0.41687 0.98211 0.0
N743 N 0.87184 0.42481 0.95146 0.0
H744 H 0.4622 0.85925 0.07492 0.0
H745 H 0.37286 0.82075 0.17951 0.0
H746 H 0.43466 0.90559 0.10208 0.0
H747 H 0.41346 0.78297 0.16217 0.0
H748 H 0.39717 0.85298 0.15201 0.0
H749 H 0.44739 0.83279 0.1077 0.0
C750 C 0.45356 0.86424 0.08797 0.0
C751 C 0.44937 0.88452 0.08561 0.0
C752 C 0.40096 0.83779 0.15427 0.0
C753 C 0.43185 0.8539 0.12292 0.0
C754 C 0.38694 0.81922 0.16989 0.0
C755 C 0.39088 0.79891 0.17295 0.0
C756 C 0.4189 0.83595 0.14127 0.0
C757 C 0.40972 0.79824 0.16026 0.0
C758 C 0.44494 0.84898 0.10662 0.0
C759 C 0.43778 0.88983 0.10297 0.0
N760 N 0.42283 0.81634 0.14475 0.0
N761 N 0.42915 0.87443 0.12074 0.0
H762 H 0.56134 0.42468 0.23214 0.0
H763 H 0.62469 0.42639 0.34599 0.0
H764 H 0.61434 0.49452 0.26647 0.0
H765 H 0.55483 0.36023 0.3221 0.0
H766 H 0.62308 0.45122 0.31571 0.0
H767 H 0.55998 0.40036 0.26399 0.0
C768 C 0.57242 0.435 0.24645 0.0
C769 C 0.58802 0.4618 0.2465 0.0
C770 C 0.60805 0.4313 0.31717 0.0
C771 C 0.58704 0.43385 0.28288 0.0
C772 C 0.60901 0.41705 0.33439 0.0
C773 C 0.58988 0.39113 0.33659 0.0
C774 C 0.58802 0.41951 0.30184 0.0
C775 C 0.56996 0.38014 0.32109 0.0
C776 C 0.57176 0.42102 0.26459 0.0
C777 C 0.60239 0.47391 0.26544 0.0
N778 N 0.56964 0.39435 0.30429 0.0
N779 N 0.6017 0.45984 0.28279 0.0
H780 H 0.46554 0.84892 0.36464 0.0
H781 H 0.35006 0.79665 0.27901 0.0
H782 H 0.41494 0.87803 0.35956 0.0
H783 H 0.40915 0.77815 0.2749 0.0
H784 H 0.37224 0.82438 0.31012 0.0
H785 H 0.44446 0.82162 0.33283 0.0
C786 C 0.45023 0.84985 0.3567 0.0
C787 C 0.44202 0.86586 0.36487 0.0
C788 C 0.38038 0.81427 0.30244 0.0
C789 C 0.41742 0.83413 0.3287 0.0
C790 C 0.36764 0.79828 0.28468 0.0
C791 C 0.37774 0.785 0.27421 0.0
C792 C 0.40337 0.81701 0.30997 0.0
C793 C 0.40065 0.78801 0.2824 0.0
C794 C 0.43807 0.83408 0.33863 0.0
C795 C 0.4217 0.86577 0.35411 0.0
N796 N 0.41269 0.8037 0.2998 0.0
N797 N 0.41005 0.85009 0.33667 0.0
H798 H 0.60691 0.46569 0.53398 0.0
H799 H 0.54188 0.34977 0.44809 0.0
H800 H 0.53111 0.39859 0.54129 0.0
H801 H 0.62041 0.41284 0.44265 0.0
H802 H 0.53704 0.36904 0.48118 0.0
H803 H 0.61168 0.44822 0.49943 0.0
C804 C 0.59126 0.44735 0.52832 0.0
C805 C 0.56854 0.43365 0.54058 0.0
C806 C 0.55535 0.37871 0.47276 0.0
C807 C 0.57383 0.41363 0.50103 0.0
C808 C 0.55814 0.3677 0.45381 0.0
C809 C 0.58163 0.37964 0.44252 0.0
C810 C 0.57615 0.40189 0.48058 0.0
C811 C 0.60196 0.40289 0.45081 0.0
C812 C 0.59397 0.43743 0.50857 0.0
C813 C 0.54879 0.41009 0.53228 0.0
N814 N 0.59876 0.41325 0.46935 0.0
N815 N 0.55193 0.40084 0.5131 0.0
H816 H 0.13239 0.58888 0.71148 0.0
H817 H 0.2313 0.59718 0.6208 0.0
H818 H 0.15689 0.5347 0.70605 0.0
H819 H 0.21268 0.65537 0.63067 0.0
H820 H 0.20144 0.57219 0.65001 0.0
H821 H 0.15879 0.61147 0.67972 0.0
C822 C 0.14325 0.58168 0.70356 0.0
C823 C 0.14252 0.55994 0.71153 0.0
C824 C 0.20386 0.59041 0.64575 0.0
C825 C 0.17278 0.58569 0.67513 0.0
C826 C 0.22093 0.60472 0.62905 0.0
C827 C 0.22465 0.62852 0.62328 0.0
C828 C 0.19032 0.59989 0.65675 0.0
C829 C 0.2106 0.63723 0.6346 0.0
C830 C 0.15828 0.59456 0.6854 0.0
C831 C 0.15666 0.55122 0.70037 0.0
N832 N 0.1941 0.62293 0.65079 0.0
N833 N 0.17132 0.56421 0.68284 0.0
H834 H 0.60375 0.12755 0.85693 0.0
H835 H 0.60964 0.23331 0.77733 0.0
H836 H 0.55879 0.16251 0.86657 0.0
H837 H 0.6656 0.21051 0.77624 0.0
H838 H 0.58851 0.20492 0.80827 0.0
H839 H 0.62414 0.15503 0.82527 0.0
C840 C 0.5981 0.14093 0.85239 0.0
C841 C 0.57951 0.14269 0.86453 0.0
C842 C 0.60545 0.20619 0.80129 0.0
C843 C 0.60268 0.17408 0.82817 0.0
C844 C 0.61756 0.22241 0.78362 0.0
C845 C 0.63948 0.22436 0.77414 0.0
C846 C 0.61518 0.19161 0.80949 0.0
C847 C 0.64883 0.20974 0.78305 0.0
C848 C 0.60973 0.15659 0.83429 0.0
C849 C 0.5727 0.16013 0.85759 0.0
N850 N 0.63656 0.19391 0.80016 0.0
N851 N 0.58431 0.17516 0.83993 0.0
H852 H 0.42386 0.54632 0.02528 0.0
H853 H 0.46975 0.67349 0.95659 0.0
H854 H 0.48143 0.62203 0.04746 0.0
H855 H 0.40149 0.60111 0.9406 0.0
H856 H 0.4762 0.65398 0.9885 0.0
H857 H 0.41717 0.56514 0.99274 0.0
C858 C 0.4351 0.56687 0.02335 0.0
C859 C 0.45333 0.58257 0.03918 0.0
C860 C 0.45978 0.64235 0.97804 0.0
C861 C 0.44592 0.60417 0.00185 0.0
C862 C 0.45609 0.65348 0.95975 0.0
C863 C 0.43502 0.63895 0.94583 0.0
C864 C 0.44241 0.61642 0.98246 0.0
C865 C 0.41796 0.61309 0.95089 0.0
C866 C 0.43131 0.57758 0.00473 0.0
C867 C 0.46754 0.60906 0.03558 0.0
N868 N 0.42207 0.60263 0.96877 0.0
N869 N 0.46354 0.61898 0.01734 0.0
H870 H 0.90322 0.42984 0.19956 0.0
H871 H 0.79164 0.41728 0.12218 0.0
H872 H 0.85323 0.45701 0.21793 0.0
H873 H 0.82548 0.37109 0.11482 0.0
H874 H 0.81925 0.43815 0.15402 0.0
H875 H 0.87988 0.41425 0.16503 0.0
C876 C 0.88743 0.43263 0.19636 0.0
C877 C 0.88013 0.44462 0.21185 0.0
C878 C 0.82065 0.4235 0.14534 0.0
C879 C 0.85357 0.42711 0.17216 0.0
C880 C 0.80497 0.41163 0.12714 0.0
C881 C 0.80608 0.39224 0.11591 0.0
C882 C 0.83777 0.41614 0.15218 0.0
C883 C 0.82374 0.38573 0.1231 0.0
C884 C 0.87418 0.4238 0.17659 0.0
C885 C 0.85983 0.44818 0.20647 0.0
N886 N 0.83886 0.39764 0.14077 0.0
N887 N 0.84721 0.43936 0.18714 0.0
loop_
_geom_bond_atom_site_label_1
_geom_bond_atom_site_label_2
_geom_bond_distance
_geom_bond_site_symmetry_2
_ccdc_geom_bond_type
H0 C27 0.929 . S
N1 C26 1.433 . S
N1 C32 1.435 . S
N1 C38 1.423 . S
H2 C28 0.930 . S
H3 C31 0.931 . S
H4 C30 0.929 . S
H5 C33 0.930 . S
H6 C34 0.932 . S
H7 C37 0.929 . S
H8 C36 0.931 . S
H9 C39 0.929 . S
H10 C43 0.932 . S
H11 C40 0.931 . S
H12 C42 0.929 . S
H13 C45 0.929 . S
H14 C46 0.930 . S
H15 C48 0.929 . S
H16 C49 0.931 . S
H17 C51 0.930 . S
H18 C52 0.932 . S
H19 C54 0.931 . S
H20 C55 0.929 . S
H21 C57 0.929 . S
H22 C58 0.931 . S
H23 C60 0.929 . S
N24 C44 1.433 . S
N24 C50 1.435 . S
N24 C56 1.423 . S
H25 C61 0.932 . S
C26 N1 1.433 . S
C26 C27 1.363 . S
C26 C31 1.370 . S
C27 H0 0.929 . S
C27 C26 1.363 . S
C27 C28 1.385 . S
C28 H2 0.930 . S
C28 C27 1.385 . S
C28 C29 1.357 . S
C29 C28 1.357 . S
C29 C30 1.406 . S
C30 H4 0.929 . S
C30 C29 1.406 . S
C30 C31 1.391 . S
C31 H3 0.931 . S
C31 C26 1.370 . S
C31 C30 1.391 . S
C32 N1 1.435 . S
C32 C33 1.358 . S
C32 C37 1.371 . S
C33 H5 0.930 . S
C33 C32 1.358 . S
C33 C34 1.405 . S
C34 H6 0.932 . S
C34 C33 1.405 . S
C34 C35 1.383 . S
C35 C34 1.383 . S
C35 C36 1.393 . S
C36 H8 0.931 . S
C36 C35 1.393 . S
C36 C37 1.382 . S
C37 H7 0.929 . S
C37 C32 1.371 . S
C37 C36 1.382 . S
C38 N1 1.423 . S
C38 C39 1.362 . S
C38 C43 1.388 . S
C39 H9 0.929 . S
C39 C38 1.362 . S
C39 C40 1.376 . S
C40 H11 0.931 . S
C40 C39 1.376 . S
C40 C41 1.396 . S
C41 C40 1.396 . S
C41 C42 1.348 . S
C41 C59 1.472 1_455 S
C42 H12 0.929 . S
C42 C41 1.348 . S
C42 C43 1.443 . S
C43 H10 0.932 . S
C43 C38 1.388 . S
C43 C42 1.443 . S
C44 N24 1.433 . S
C44 C45 1.363 . S
C44 C49 1.370 . S
C45 H13 0.929 . S
C45 C44 1.363 . S
C45 C46 1.385 . S
C46 H14 0.930 . S
C46 C45 1.385 . S
C46 C47 1.357 . S
C47 C46 1.357 . S
C47 C48 1.406 . S
C48 H15 0.929 . S
C48 C47 1.406 . S
C48 C49 1.391 . S
C49 H16 0.931 . S
C49 C44 1.370 . S
C49 C48 1.391 . S
C50 N24 1.435 . S
C50 C51 1.358 . S
C50 C55 1.371 . S
C51 H17 0.930 . S
C51 C50 1.358 . S
C51 C52 1.405 . S
C52 H18 0.932 . S
C52 C51 1.405 . S
C52 C53 1.383 . S
C53 C52 1.383 . S
C53 C54 1.393 . S
C54 H19 0.931 . S
C54 C53 1.393 . S
C54 C55 1.382 . S
C55 H20 0.929 . S
C55 C50 1.371 . S
C55 C54 1.382 . S
C56 N24 1.423 . S
C56 C57 1.362 . S
C56 C61 1.388 . S
C57 H21 0.929 . S
C57 C56 1.362 . S
C57 C58 1.376 . S
C58 H22 0.931 . S
C58 C57 1.376 . S
C58 C59 1.396 . S
C59 C41 1.472 1_655 S
C59 C58 1.396 . S
C59 C60 1.348 . S
C60 H23 0.929 . S
C60 C59 1.348 . S
C60 C61 1.443 . S
C61 H25 0.932 . S
C61 C56 1.388 . S
C61 C60 1.443 . S
H62 C89 0.929 . S
N63 C88 1.433 . S
N63 C94 1.435 . S
N63 C100 1.423 . S
H64 C90 0.930 . S
H65 C93 0.931 . S
H66 C92 0.929 . S
H67 C95 0.930 . S
H68 C96 0.932 . S
H69 C99 0.929 . S
H70 C98 0.931 . S
H71 C101 0.929 . S
H72 C105 0.932 . S
H73 C102 0.931 . S
H74 C104 0.929 1_545 S
H75 C107 0.929 . S
H76 C108 0.930 . S
H77 C110 0.929 . S
H78 C111 0.931 . S
H79 C113 0.930 . S
H80 C114 0.932 . S
H81 C116 0.931 . S
H82 C117 0.929 . S
H83 C119 0.929 . S
H84 C120 0.931 . S
H85 C122 0.929 . S
N86 C106 1.433 . S
N86 C112 1.435 . S
N86 C118 1.423 . S
H87 C123 0.932 . S
C88 N63 1.433 . S
C88 C89 1.363 . S
C88 C93 1.370 . S
C89 H62 0.929 . S
C89 C88 1.363 . S
C89 C90 1.385 . S
C90 H64 0.930 . S
C90 C89 1.385 . S
C90 C91 1.357 . S
C91 C90 1.357 . S
C91 C92 1.406 . S
C92 H66 0.929 . S
C92 C91 1.406 . S
C92 C93 1.391 . S
C93 H65 0.931 . S
C93 C88 1.370 . S
C93 C92 1.391 . S
C94 N63 1.435 . S
C94 C95 1.358 . S
C94 C99 1.371 . S
C95 H67 0.930 . S
C95 C94 1.358 . S
C95 C96 1.405 . S
C96 H68 0.932 . S
C96 C95 1.405 . S
C96 C97 1.383 . S
C97 C96 1.383 . S
C97 C98 1.393 . S
C98 H70 0.931 . S
C98 C97 1.393 . S
C98 C99 1.382 . S
C99 H69 0.929 . S
C99 C94 1.371 . S
C99 C98 1.382 . S
C100 N63 1.423 . S
C100 C101 1.362 . S
C100 C105 1.388 . S
C101 H71 0.929 . S
C101 C100 1.362 . S
C101 C102 1.376 . S
C102 H73 0.931 . S
C102 C101 1.376 . S
C102 C103 1.396 1_565 S
C103 C102 1.396 1_545 S
C103 C104 1.348 1_545 S
C103 C121 1.472 . S
C104 H74 0.929 1_565 S
C104 C103 1.348 1_565 S
C104 C105 1.443 . S
C105 H72 0.932 . S
C105 C100 1.388 . S
C105 C104 1.443 . S
C106 N86 1.433 . S
C106 C107 1.363 . S
C106 C111 1.370 . S
C107 H75 0.929 . S
C107 C106 1.363 . S
C107 C108 1.385 . S
C108 H76 0.930 . S
C108 C107 1.385 . S
C108 C109 1.357 . S
C109 C108 1.357 . S
C109 C110 1.406 . S
C110 H77 0.929 . S
C110 C109 1.406 . S
C110 C111 1.391 . S
C111 H78 0.931 . S
C111 C106 1.370 . S
C111 C110 1.391 . S
C112 N86 1.435 . S
C112 C113 1.358 . S
C112 C117 1.371 . S
C113 H79 0.930 . S
C113 C112 1.358 . S
C113 C114 1.405 . S
C114 H80 0.932 . S
C114 C113 1.405 . S
C114 C115 1.383 . S
C115 C114 1.383 . S
C115 C116 1.393 . S
C116 H81 0.931 . S
C116 C115 1.393 . S
C116 C117 1.382 . S
C117 H82 0.929 . S
C117 C112 1.371 . S
C117 C116 1.382 . S
C118 N86 1.423 . S
C118 C119 1.362 . S
C118 C123 1.388 . S
C119 H83 0.929 . S
C119 C118 1.362 . S
C119 C120 1.376 . S
C120 H84 0.931 . S
C120 C119 1.376 . S
C120 C121 1.396 . S
C121 C103 1.472 . S
C121 C120 1.396 . S
C121 C122 1.348 . S
C122 H85 0.929 . S
C122 C121 1.348 . S
C122 C123 1.443 . S
C123 H87 0.932 . S
C123 C118 1.388 . S
C123 C122 1.443 . S
H124 C151 0.929 . S
N125 C150 1.433 . S
N125 C156 1.435 . S
N125 C162 1.423 . S
H126 C152 0.930 . S
H127 C155 0.931 . S
H128 C154 0.929 . S
H129 C157 0.930 . S
H130 C158 0.932 . S
H131 C161 0.929 . S
H132 C160 0.931 . S
H133 C163 0.929 . S
H134 C167 0.932 . S
H135 C164 0.931 . S
H136 C166 0.929 . S
H137 C169 0.929 . S
H138 C170 0.930 . S
H139 C172 0.929 . S
H140 C173 0.931 . S
H141 C175 0.930 . S
H142 C176 0.932 . S
H143 C178 0.931 . S
H144 C179 0.929 . S
H145 C181 0.929 . S
H146 C182 0.931 . S
H147 C184 0.929 . S
N148 C168 1.433 . S
N148 C174 1.435 . S
N148 C180 1.423 . S
H149 C185 0.932 . S
C150 N125 1.433 . S
C150 C151 1.363 . S
C150 C155 1.370 . S
C151 H124 0.929 . S
C151 C150 1.363 . S
C151 C152 1.385 . S
C152 H126 0.930 . S
C152 C151 1.385 . S
C152 C153 1.357 . S
C153 C152 1.357 . S
C153 C154 1.406 . S
C154 H128 0.929 . S
C154 C153 1.406 . S
C154 C155 1.391 . S
C155 H127 0.931 . S
C155 C150 1.370 . S
C155 C154 1.391 . S
C156 N125 1.435 . S
C156 C157 1.358 . S
C156 C161 1.371 . S
C157 H129 0.930 . S
C157 C156 1.358 . S
C157 C158 1.405 . S
C158 H130 0.932 . S
C158 C157 1.405 . S
C158 C159 1.383 . S
C159 C158 1.383 . S
C159 C160 1.393 . S
C160 H132 0.931 . S
C160 C159 1.393 . S
C160 C161 1.382 . S
C161 H131 0.929 . S
C161 C156 1.371 . S
C161 C160 1.382 . S
C162 N125 1.423 . S
C162 C163 1.362 . S
C162 C167 1.388 . S
C163 H133 0.929 . S
C163 C162 1.362 . S
C163 C164 1.376 . S
C164 H135 0.931 . S
C164 C163 1.376 . S
C164 C165 1.396 . S
C165 C164 1.396 . S
C165 C166 1.348 . S
C165 C183 1.472 . S
C166 H136 0.929 . S
C166 C165 1.348 . S
C166 C167 1.443 . S
C167 H134 0.932 . S
C167 C162 1.388 . S
C167 C166 1.443 . S
C168 N148 1.433 . S
C168 C169 1.363 . S
C168 C173 1.370 . S
C169 H137 0.929 . S
C169 C168 1.363 . S
C169 C170 1.385 . S
C170 H138 0.930 . S
C170 C169 1.385 . S
C170 C171 1.357 . S
C171 C170 1.357 . S
C171 C172 1.406 . S
C172 H139 0.929 . S
C172 C171 1.406 . S
C172 C173 1.391 . S
C173 H140 0.931 . S
C173 C168 1.370 . S
C173 C172 1.391 . S
C174 N148 1.435 . S
C174 C175 1.358 . S
C174 C179 1.371 . S
C175 H141 0.930 . S
C175 C174 1.358 . S
C175 C176 1.405 . S
C176 H142 0.932 . S
C176 C175 1.405 . S
C176 C177 1.383 . S
C177 C176 1.383 . S
C177 C178 1.393 . S
C178 H143 0.931 . S
C178 C177 1.393 . S
C178 C179 1.382 . S
C179 H144 0.929 . S
C179 C174 1.371 . S
C179 C178 1.382 . S
C180 N148 1.423 . S
C180 C181 1.362 . S
C180 C185 1.388 . S
C181 H145 0.929 . S
C181 C180 1.362 . S
C181 C182 1.376 . S
C182 H146 0.931 . S
C182 C181 1.376 . S
C182 C183 1.396 . S
C183 C165 1.472 . S
C183 C182 1.396 . S
C183 C184 1.348 . S
C184 H147 0.929 . S
C184 C183 1.348 . S
C184 C185 1.443 . S
C185 H149 0.932 . S
C185 C180 1.388 . S
C185 C184 1.443 . S
H186 C213 0.929 . S
N187 C212 1.433 . S
N187 C218 1.435 . S
N187 C224 1.423 . S
H188 C214 0.930 . S
H189 C217 0.931 . S
H190 C216 0.929 . S
H191 C219 0.930 . S
H192 C220 0.932 . S
H193 C223 0.929 . S
H194 C222 0.931 . S
H195 C225 0.929 . S
H196 C229 0.932 . S
H197 C226 0.931 . S
H198 C228 0.929 . S
H199 C231 0.929 . S
H200 C232 0.930 . S
H201 C234 0.929 . S
H202 C235 0.931 . S
H203 C237 0.930 . S
H204 C238 0.932 . S
H205 C240 0.931 . S
H206 C241 0.929 . S
H207 C243 0.929 . S
H208 C244 0.931 . S
H209 C246 0.929 . S
N210 C230 1.433 . S
N210 C236 1.435 . S
N210 C242 1.423 . S
H211 C247 0.932 . S
C212 N187 1.433 . S
C212 C213 1.363 . S
C212 C217 1.370 . S
C213 H186 0.929 . S
C213 C212 1.363 . S
C213 C214 1.385 . S
C214 H188 0.930 . S
C214 C213 1.385 . S
C214 C215 1.357 . S
C215 C214 1.357 . S
C215 C216 1.406 . S
C216 H190 0.929 . S
C216 C215 1.406 . S
C216 C217 1.391 . S
C217 H189 0.931 . S
C217 C212 1.370 . S
C217 C216 1.391 . S
C218 N187 1.435 . S
C218 C219 1.358 . S
C218 C223 1.371 . S
C219 H191 0.930 . S
C219 C218 1.358 . S
C219 C220 1.405 . S
C220 H192 0.932 . S
C220 C219 1.405 . S
C220 C221 1.383 . S
C221 C220 1.383 . S
C221 C222 1.393 . S
C222 H194 0.931 . S
C222 C221 1.393 . S
C222 C223 1.382 . S
C223 H193 0.929 . S
C223 C218 1.371 . S
C223 C222 1.382 . S
C224 N187 1.423 . S
C224 C225 1.362 . S
C224 C229 1.388 . S
C225 H195 0.929 . S
C225 C224 1.362 . S
C225 C226 1.376 . S
C226 H197 0.931 . S
C226 C225 1.376 . S
C226 C227 1.396 . S
C227 C226 1.396 . S
C227 C228 1.348 . S
C227 C245 1.472 1_455 S
C228 H198 0.929 . S
C228 C227 1.348 . S
C228 C229 1.443 . S
C229 H196 0.932 . S
C229 C224 1.388 . S
C229 C228 1.443 . S
C230 N210 1.433 . S
C230 C231 1.363 . S
C230 C235 1.370 . S
C231 H199 0.929 . S
C231 C230 1.363 . S
C231 C232 1.385 . S
C232 H200 0.930 . S
C232 C231 1.385 . S
C232 C233 1.357 . S
C233 C232 1.357 . S
C233 C234 1.406 . S
C234 H201 0.929 . S
C234 C233 1.406 . S
C234 C235 1.391 . S
C235 H202 0.931 . S
C235 C230 1.370 . S
C235 C234 1.391 . S
C236 N210 1.435 . S
C236 C237 1.358 . S
C236 C241 1.371 . S
C237 H203 0.930 . S
C237 C236 1.358 . S
C237 C238 1.405 . S
C238 H204 0.932 . S
C238 C237 1.405 . S
C238 C239 1.383 . S
C239 C238 1.383 . S
C239 C240 1.393 . S
C240 H205 0.931 . S
C240 C239 1.393 . S
C240 C241 1.382 . S
C241 H206 0.929 . S
C241 C236 1.371 . S
C241 C240 1.382 . S
C242 N210 1.423 . S
C242 C243 1.362 . S
C242 C247 1.388 . S
C243 H207 0.929 . S
C243 C242 1.362 . S
C243 C244 1.376 . S
C244 H208 0.931 . S
C244 C243 1.376 . S
C244 C245 1.396 . S
C245 C227 1.472 1_655 S
C245 C244 1.396 . S
C245 C246 1.348 . S
C246 H209 0.929 . S
C246 C245 1.348 . S
C246 C247 1.443 . S
C247 H211 0.932 . S
C247 C242 1.388 . S
C247 C246 1.443 . S
H248 C275 0.929 . S
N249 C274 1.433 . S
N249 C280 1.435 . S
N249 C286 1.423 . S
H250 C276 0.930 . S
H251 C279 0.931 . S
H252 C278 0.929 . S
H253 C281 0.930 . S
H254 C282 0.932 . S
H255 C285 0.929 . S
H256 C284 0.931 . S
H257 C287 0.929 . S
H258 C291 0.932 . S
H259 C288 0.931 . S
H260 C290 0.929 . S
H261 C293 0.929 . S
H262 C294 0.930 . S
H263 C296 0.929 . S
H264 C297 0.931 . S
H265 C299 0.930 1_554 S
H266 C300 0.932 . S
H267 C302 0.931 . S
H268 C303 0.929 . S
H269 C305 0.929 . S
H270 C306 0.931 1_554 S
H271 C308 0.929 . S
N272 C292 1.433 . S
N272 C298 1.435 1_554 S
N272 C304 1.423 1_554 S
H273 C309 0.932 . S
C274 N249 1.433 . S
C274 C275 1.363 . S
C274 C279 1.370 . S
C275 H248 0.929 . S
C275 C274 1.363 . S
C275 C276 1.385 . S
C276 H250 0.930 . S
C276 C275 1.385 . S
C276 C277 1.357 1_556 S
C277 C276 1.357 1_554 S
C277 C278 1.406 . S
C278 H252 0.929 . S
C278 C277 1.406 . S
C278 C279 1.391 1_554 S
C279 H251 0.931 . S
C279 C274 1.370 . S
C279 C278 1.391 1_556 S
C280 N249 1.435 . S
C280 C281 1.358 . S
C280 C285 1.371 . S
C281 H253 0.930 . S
C281 C280 1.358 . S
C281 C282 1.405 . S
C282 H254 0.932 . S
C282 C281 1.405 . S
C282 C283 1.383 . S
C283 C282 1.383 . S
C283 C284 1.393 . S
C284 H256 0.931 . S
C284 C283 1.393 . S
C284 C285 1.382 . S
C285 H255 0.929 . S
C285 C280 1.371 . S
C285 C284 1.382 . S
C286 N249 1.423 . S
C286 C287 1.362 . S
C286 C291 1.388 . S
C287 H257 0.929 . S
C287 C286 1.362 . S
C287 C288 1.376 . S
C288 H259 0.931 . S
C288 C287 1.376 . S
C288 C289 1.396 . S
C289 C288 1.396 . S
C289 C290 1.348 . S
C289 C307 1.472 1_545 S
C290 H260 0.929 . S
C290 C289 1.348 . S
C290 C291 1.443 . S
C291 H258 0.932 . S
C291 C286 1.388 . S
C291 C290 1.443 . S
C292 N272 1.433 . S
C292 C293 1.363 . S
C292 C297 1.370 . S
C293 H261 0.929 . S
C293 C292 1.363 . S
C293 C294 1.385 . S
C294 H262 0.930 . S
C294 C293 1.385 . S
C294 C295 1.357 . S
C295 C294 1.357 . S
C295 C296 1.406 . S
C296 H263 0.929 . S
C296 C295 1.406 . S
C296 C297 1.391 . S
C297 H264 0.931 . S
C297 C292 1.370 . S
C297 C296 1.391 . S
C298 N272 1.435 1_556 S
C298 C299 1.358 . S
C298 C303 1.371 . S
C299 H265 0.930 1_556 S
C299 C298 1.358 . S
C299 C300 1.405 . S
C300 H266 0.932 . S
C300 C299 1.405 . S
C300 C301 1.383 . S
C301 C300 1.383 . S
C301 C302 1.393 . S
C302 H267 0.931 . S
C302 C301 1.393 . S
C302 C303 1.382 . S
C303 H268 0.929 . S
C303 C298 1.371 . S
C303 C302 1.382 . S
C304 N272 1.423 1_556 S
C304 C305 1.362 1_556 S
C304 C309 1.388 . S
C305 H269 0.929 . S
C305 C304 1.362 1_554 S
C305 C306 1.376 1_554 S
C306 H270 0.931 1_556 S
C306 C305 1.376 1_556 S
C306 C307 1.396 . S
C307 C289 1.472 1_565 S
C307 C306 1.396 . S
C307 C308 1.348 . S
C308 H271 0.929 . S
C308 C307 1.348 . S
C308 C309 1.443 . S
C309 H273 0.932 . S
C309 C304 1.388 . S
C309 C308 1.443 . S
H310 C337 0.929 . S
N311 C336 1.433 . S
N311 C342 1.435 . S
N311 C348 1.423 . S
H312 C338 0.930 . S
H313 C341 0.931 . S
H314 C340 0.929 . S
H315 C343 0.930 . S
H316 C344 0.932 . S
H317 C347 0.929 . S
H318 C346 0.931 . S
H319 C349 0.929 . S
H320 C353 0.932 . S
H321 C350 0.931 . S
H322 C352 0.929 . S
H323 C355 0.929 . S
H324 C356 0.930 . S
H325 C358 0.929 . S
H326 C359 0.931 . S
H327 C361 0.930 . S
H328 C362 0.932 . S
H329 C364 0.931 . S
H330 C365 0.929 . S
H331 C367 0.929 . S
H332 C368 0.931 . S
H333 C370 0.929 . S
N334 C354 1.433 . S
N334 C360 1.435 . S
N334 C366 1.423 . S
H335 C371 0.932 . S
C336 N311 1.433 . S
C336 C337 1.363 . S
C336 C341 1.370 . S
C337 H310 0.929 . S
C337 C336 1.363 . S
C337 C338 1.385 . S
C338 H312 0.930 . S
C338 C337 1.385 . S
C338 C339 1.357 . S
C339 C338 1.357 . S
C339 C340 1.406 . S
C340 H314 0.929 . S
C340 C339 1.406 . S
C340 C341 1.391 . S
C341 H313 0.931 . S
C341 C336 1.370 . S
C341 C340 1.391 . S
C342 N311 1.435 . S
C342 C343 1.358 . S
C342 C347 1.371 . S
C343 H315 0.930 . S
C343 C342 1.358 . S
C343 C344 1.405 . S
C344 H316 0.932 . S
C344 C343 1.405 . S
C344 C345 1.383 . S
C345 C344 1.383 . S
C345 C346 1.393 . S
C346 H318 0.931 . S
C346 C345 1.393 . S
C346 C347 1.382 . S
C347 H317 0.929 . S
C347 C342 1.371 . S
C347 C346 1.382 . S
C348 N311 1.423 . S
C348 C349 1.362 . S
C348 C353 1.388 . S
C349 H319 0.929 . S
C349 C348 1.362 . S
C349 C350 1.376 . S
C350 H321 0.931 . S
C350 C349 1.376 . S
C350 C351 1.396 . S
C351 C350 1.396 . S
C351 C352 1.348 . S
C351 C369 1.472 . S
C352 H322 0.929 . S
C352 C351 1.348 . S
C352 C353 1.443 . S
C353 H320 0.932 . S
C353 C348 1.388 . S
C353 C352 1.443 . S
C354 N334 1.433 . S
C354 C355 1.363 . S
C354 C359 1.370 . S
C355 H323 0.929 . S
C355 C354 1.363 . S
C355 C356 1.385 . S
C356 H324 0.930 . S
C356 C355 1.385 . S
C356 C357 1.357 . S
C357 C356 1.357 . S
C357 C358 1.406 . S
C358 H325 0.929 . S
C358 C357 1.406 . S
C358 C359 1.391 . S
C359 H326 0.931 . S
C359 C354 1.370 . S
C359 C358 1.391 . S
C360 N334 1.435 . S
C360 C361 1.358 . S
C360 C365 1.371 . S
C361 H327 0.930 . S
C361 C360 1.358 . S
C361 C362 1.405 . S
C362 H328 0.932 . S
C362 C361 1.405 . S
C362 C363 1.383 . S
C363 C362 1.383 . S
C363 C364 1.393 . S
C364 H329 0.931 . S
C364 C363 1.393 . S
C364 C365 1.382 . S
C365 H330 0.929 . S
C365 C360 1.371 . S
C365 C364 1.382 . S
C366 N334 1.423 . S
C366 C367 1.362 . S
C366 C371 1.388 . S
C367 H331 0.929 . S
C367 C366 1.362 . S
C367 C368 1.376 . S
C368 H332 0.931 . S
C368 C367 1.376 . S
C368 C369 1.396 . S
C369 C351 1.472 . S
C369 C368 1.396 . S
C369 C370 1.348 . S
C370 H333 0.929 . S
C370 C369 1.348 . S
C370 C371 1.443 . S
C371 H335 0.932 . S
C371 C366 1.388 . S
C371 C370 1.443 . S
Co372 O373 2.216 . S
Co372 O374 2.091 . S
Co372 O376 2.004 . S
Co372 O382 2.021 . S
Co372 O384 2.137 . S
Co372 O385 2.244 . S
O373 Co372 2.216 . S
O373 C380 1.247 . S
O374 Co372 2.091 . S
O374 C380 1.261 . S
C375 O384 1.247 . S
C375 O385 1.272 . S
O376 Co372 2.004 . S
O376 C381 1.259 . S
Co377 O378 2.061 . S
Co377 O383 2.052 . S
Co377 O385 2.135 . S
O378 Co377 2.061 . S
O378 C381 1.235 . S
C379 O382 1.238 . S
C379 O383 1.241 . S
C380 O373 1.247 . S
C380 O374 1.261 . S
C381 O376 1.259 . S
C381 O378 1.235 . S
O382 Co372 2.021 . S
O382 C379 1.238 . S
O383 Co377 2.052 . S
O383 C379 1.241 . S
O384 Co372 2.137 . S
O384 C375 1.247 . S
O385 Co372 2.244 . S
O385 C375 1.272 . S
O385 Co377 2.135 . S
Co386 O387 2.216 . S
Co386 O388 2.091 . S
Co386 O390 2.004 . S
Co386 O396 2.021 . S
Co386 O398 2.137 . S
Co386 O399 2.244 . S
O387 Co386 2.216 . S
O387 C394 1.247 . S
O388 Co386 2.091 . S
O388 C394 1.261 . S
C389 O398 1.247 . S
C389 O399 1.272 . S
O390 Co386 2.004 . S
O390 C395 1.259 . S
Co391 O392 2.061 . S
Co391 O397 2.052 . S
Co391 O399 2.135 . S
O392 Co391 2.061 . S
O392 C395 1.235 . S
C393 O396 1.238 . S
C393 O397 1.241 . S
C394 O387 1.247 . S
C394 O388 1.261 . S
C395 O390 1.259 . S
C395 O392 1.235 . S
O396 Co386 2.021 . S
O396 C393 1.238 . S
O397 Co391 2.052 . S
O397 C393 1.241 . S
O398 Co386 2.137 . S
O398 C389 1.247 . S
O399 Co386 2.244 . S
O399 C389 1.272 . S
O399 Co391 2.135 . S
Co400 O401 2.216 . S
Co400 O402 2.091 . S
Co400 O404 2.004 . S
Co400 O410 2.021 . S
Co400 O412 2.137 . S
Co400 O413 2.244 . S
O401 Co400 2.216 . S
O401 C408 1.247 . S
O402 Co400 2.091 . S
O402 C408 1.261 . S
C403 O412 1.247 . S
C403 O413 1.272 . S
O404 Co400 2.004 . S
O404 C409 1.259 . S
Co405 O406 2.061 . S
Co405 O411 2.052 . S
Co405 O413 2.135 . S
O406 Co405 2.061 . S
O406 C409 1.235 . S
C407 O410 1.238 . S
C407 O411 1.241 . S
C408 O401 1.247 . S
C408 O402 1.261 . S
C409 O404 1.259 . S
C409 O406 1.235 . S
O410 Co400 2.021 . S
O410 C407 1.238 . S
O411 Co405 2.052 . S
O411 C407 1.241 . S
O412 Co400 2.137 . S
O412 C403 1.247 . S
O413 Co400 2.244 . S
O413 C403 1.272 . S
O413 Co405 2.135 . S
Co414 O415 2.216 . S
Co414 O416 2.091 . S
Co414 O418 2.004 . S
Co414 O424 2.021 . S
Co414 O426 2.137 . S
Co414 O427 2.244 . S
O415 Co414 2.216 . S
O415 C422 1.247 . S
O416 Co414 2.091 . S
O416 C422 1.261 . S
C417 O426 1.247 . S
C417 O427 1.272 . S
O418 Co414 2.004 . S
O418 C423 1.259 . S
Co419 O420 2.061 . S
Co419 O425 2.052 . S
Co419 O427 2.135 . S
O420 Co419 2.061 . S
O420 C423 1.235 . S
C421 O424 1.238 . S
C421 O425 1.241 . S
C422 O415 1.247 . S
C422 O416 1.261 . S
C423 O418 1.259 . S
C423 O420 1.235 . S
O424 Co414 2.021 . S
O424 C421 1.238 . S
O425 Co419 2.052 . S
O425 C421 1.241 . S
O426 Co414 2.137 . S
O426 C417 1.247 . S
O427 Co414 2.244 . S
O427 C417 1.272 . S
O427 Co419 2.135 . S
Co428 O429 2.216 . S
Co428 O430 2.091 . S
Co428 O432 2.004 . S
Co428 O438 2.021 . S
Co428 O440 2.137 . S
Co428 O441 2.244 . S
O429 Co428 2.216 . S
O429 C436 1.247 . S
O430 Co428 2.091 . S
O430 C436 1.261 . S
C431 O440 1.247 . S
C431 O441 1.272 . S
O432 Co428 2.004 . S
O432 C437 1.259 . S
Co433 O434 2.061 . S
Co433 O439 2.052 . S
Co433 O441 2.135 . S
O434 Co433 2.061 . S
O434 C437 1.235 . S
C435 O438 1.238 . S
C435 O439 1.241 . S
C436 O429 1.247 . S
C436 O430 1.261 . S
C437 O432 1.259 . S
C437 O434 1.235 . S
O438 Co428 2.021 . S
O438 C435 1.238 . S
O439 Co433 2.052 . S
O439 C435 1.241 . S
O440 Co428 2.137 . S
O440 C431 1.247 . S
O441 Co428 2.244 . S
O441 C431 1.272 . S
O441 Co433 2.135 . S
Co442 O443 2.216 . S
Co442 O444 2.091 . S
Co442 O446 2.004 . S
Co442 O452 2.021 . S
Co442 O454 2.137 . S
Co442 O455 2.244 . S
O443 Co442 2.216 . S
O443 C450 1.247 . S
O444 Co442 2.091 . S
O444 C450 1.261 . S
C445 O454 1.247 . S
C445 O455 1.272 . S
O446 Co442 2.004 . S
O446 C451 1.259 . S
Co447 O448 2.061 . S
Co447 O453 2.052 . S
Co447 O455 2.135 . S
O448 Co447 2.061 . S
O448 C451 1.235 . S
C449 O452 1.238 . S
C449 O453 1.241 . S
C450 O443 1.247 . S
C450 O444 1.261 . S
C451 O446 1.259 . S
C451 O448 1.235 . S
O452 Co442 2.021 . S
O452 C449 1.238 . S
O453 Co447 2.052 . S
O453 C449 1.241 . S
O454 Co442 2.137 . S
O454 C445 1.247 . S
O455 Co442 2.244 . S
O455 C445 1.272 . S
O455 Co447 2.135 . S
H456 C462 0.930 . S
H457 C466 0.930 . S
H458 C471 0.929 . S
H459 C469 0.929 . S
H460 C464 0.929 . S
H461 C470 0.929 . S
C462 H456 0.930 . S
C462 C463 1.367 . S
C462 C470 1.378 . S
C463 C462 1.367 . S
C463 C471 1.433 . S
C464 H460 0.929 . S
C464 C466 1.378 . S
C464 C468 1.350 . S
C465 C468 1.463 . S
C465 C470 1.350 . S
C465 N473 1.427 . S
C466 H457 0.930 . S
C466 C464 1.378 . S
C466 C467 1.367 . S
C467 C466 1.367 . S
C467 C469 1.433 . S
C468 C464 1.350 . S
C468 C465 1.463 . S
C468 N472 1.427 . S
C469 H459 0.929 . S
C469 C467 1.433 . S
C469 N472 1.384 . S
C470 H461 0.929 . S
C470 C462 1.378 . S
C470 C465 1.350 . S
C471 H458 0.929 . S
C471 C463 1.433 . S
C471 N473 1.384 . S
N472 C468 1.427 . S
N472 C469 1.384 . S
N473 C465 1.427 . S
N473 C471 1.384 . S
H474 C480 0.930 . S
H475 C484 0.930 . S
H476 C489 0.929 . S
H477 C487 0.929 . S
H478 C482 0.929 . S
H479 C488 0.929 . S
C480 H474 0.930 . S
C480 C481 1.367 . S
C480 C488 1.378 . S
C481 C480 1.367 . S
C481 C489 1.433 . S
C482 H478 0.929 . S
C482 C484 1.378 . S
C482 C486 1.350 . S
C483 C486 1.463 . S
C483 C488 1.350 . S
C483 N491 1.427 . S
C484 H475 0.930 . S
C484 C482 1.378 . S
C484 C485 1.367 . S
C485 C484 1.367 . S
C485 C487 1.433 . S
C486 C482 1.350 . S
C486 C483 1.463 . S
C486 N490 1.427 . S
C487 H477 0.929 . S
C487 C485 1.433 . S
C487 N490 1.384 . S
C488 H479 0.929 . S
C488 C480 1.378 . S
C488 C483 1.350 . S
C489 H476 0.929 . S
C489 C481 1.433 . S
C489 N491 1.384 . S
N490 C486 1.427 . S
N490 C487 1.384 . S
N491 C483 1.427 . S
N491 C489 1.384 . S
H492 C498 0.930 . S
H493 C502 0.930 . S
H494 C507 0.929 . S
H495 C505 0.929 . S
H496 C500 0.929 . S
H497 C506 0.929 . S
C498 H492 0.930 . S
C498 C499 1.367 . S
C498 C506 1.378 . S
C499 C498 1.367 . S
C499 C507 1.433 . S
C500 H496 0.929 . S
C500 C502 1.378 . S
C500 C504 1.350 . S
C501 C504 1.463 . S
C501 C506 1.350 . S
C501 N509 1.427 . S
C502 H493 0.930 . S
C502 C500 1.378 . S
C502 C503 1.367 . S
C503 C502 1.367 . S
C503 C505 1.433 . S
C504 C500 1.350 . S
C504 C501 1.463 . S
C504 N508 1.427 . S
C505 H495 0.929 . S
C505 C503 1.433 . S
C505 N508 1.384 . S
C506 H497 0.929 . S
C506 C498 1.378 . S
C506 C501 1.350 . S
C507 H494 0.929 . S
C507 C499 1.433 . S
C507 N509 1.384 . S
N508 C504 1.427 . S
N508 C505 1.384 . S
N509 C501 1.427 . S
N509 C507 1.384 . S
H510 C516 0.930 . S
H511 C520 0.930 . S
H512 C525 0.929 . S
H513 C523 0.929 . S
H514 C518 0.929 . S
H515 C524 0.929 . S
C516 H510 0.930 . S
C516 C517 1.367 . S
C516 C524 1.378 . S
C517 C516 1.367 . S
C517 C525 1.433 . S
C518 H514 0.929 . S
C518 C520 1.378 . S
C518 C522 1.350 . S
C519 C522 1.463 . S
C519 C524 1.350 . S
C519 N527 1.427 . S
C520 H511 0.930 . S
C520 C518 1.378 . S
C520 C521 1.367 . S
C521 C520 1.367 . S
C521 C523 1.433 . S
C522 C518 1.350 . S
C522 C519 1.463 . S
C522 N526 1.427 . S
C523 H513 0.929 . S
C523 C521 1.433 . S
C523 N526 1.384 . S
C524 H515 0.929 . S
C524 C516 1.378 . S
C524 C519 1.350 . S
C525 H512 0.929 . S
C525 C517 1.433 . S
C525 N527 1.384 . S
N526 C522 1.427 . S
N526 C523 1.384 . S
N527 C519 1.427 . S
N527 C525 1.384 . S
H528 C534 0.930 . S
H529 C538 0.930 . S
H530 C543 0.929 . S
H531 C541 0.929 . S
H532 C536 0.929 . S
H533 C542 0.929 . S
C534 H528 0.930 . S
C534 C535 1.367 . S
C534 C542 1.378 . S
C535 C534 1.367 . S
C535 C543 1.433 . S
C536 H532 0.929 . S
C536 C538 1.378 . S
C536 C540 1.350 . S
C537 C540 1.463 . S
C537 C542 1.350 . S
C537 N545 1.427 . S
C538 H529 0.930 . S
C538 C536 1.378 . S
C538 C539 1.367 . S
C539 C538 1.367 . S
C539 C541 1.433 . S
C540 C536 1.350 . S
C540 C537 1.463 . S
C540 N544 1.427 . S
C541 H531 0.929 . S
C541 C539 1.433 . S
C541 N544 1.384 . S
C542 H533 0.929 . S
C542 C534 1.378 . S
C542 C537 1.350 . S
C543 H530 0.929 . S
C543 C535 1.433 . S
C543 N545 1.384 . S
N544 C540 1.427 . S
N544 C541 1.384 . S
N545 C537 1.427 . S
N545 C543 1.384 . S
H546 C552 0.930 . S
H547 C556 0.930 . S
H548 C561 0.929 . S
H549 C559 0.929 . S
H550 C554 0.929 . S
H551 C560 0.929 . S
C552 H546 0.930 . S
C552 C553 1.367 . S
C552 C560 1.378 . S
C553 C552 1.367 . S
C553 C561 1.433 . S
C554 H550 0.929 . S
C554 C556 1.378 . S
C554 C558 1.350 . S
C555 C558 1.463 . S
C555 C560 1.350 . S
C555 N563 1.427 . S
C556 H547 0.930 . S
C556 C554 1.378 . S
C556 C557 1.367 . S
C557 C556 1.367 . S
C557 C559 1.433 . S
C558 C554 1.350 . S
C558 C555 1.463 . S
C558 N562 1.427 . S
C559 H549 0.929 . S
C559 C557 1.433 . S
C559 N562 1.384 . S
C560 H551 0.929 . S
C560 C552 1.378 . S
C560 C555 1.350 . S
C561 H548 0.929 . S
C561 C553 1.433 . S
C561 N563 1.384 . S
N562 C558 1.427 . S
N562 C559 1.384 . S
N563 C555 1.427 . S
N563 C561 1.384 . S
H564 C570 0.930 . S
H565 C574 0.930 . S
H566 C579 0.929 . S
H567 C577 0.929 . S
H568 C572 0.929 . S
H569 C578 0.929 . S
C570 H564 0.930 . S
C570 C571 1.367 . S
C570 C578 1.378 . S
C571 C570 1.367 . S
C571 C579 1.433 . S
C572 H568 0.929 . S
C572 C574 1.378 . S
C572 C576 1.350 . S
C573 C576 1.463 . S
C573 C578 1.350 . S
C573 N581 1.427 . S
C574 H565 0.930 . S
C574 C572 1.378 . S
C574 C575 1.367 . S
C575 C574 1.367 . S
C575 C577 1.433 . S
C576 C572 1.350 . S
C576 C573 1.463 . S
C576 N580 1.427 . S
C577 H567 0.929 . S
C577 C575 1.433 . S
C577 N580 1.384 . S
C578 H569 0.929 . S
C578 C570 1.378 . S
C578 C573 1.350 . S
C579 H566 0.929 . S
C579 C571 1.433 . S
C579 N581 1.384 . S
N580 C576 1.427 . S
N580 C577 1.384 . S
N581 C573 1.427 . S
N581 C579 1.384 . S
H582 C588 0.930 . S
H583 C592 0.930 . S
H584 C597 0.929 . S
H585 C595 0.929 . S
H586 C590 0.929 . S
H587 C596 0.929 . S
C588 H582 0.930 . S
C588 C589 1.367 . S
C588 C596 1.378 . S
C589 C588 1.367 . S
C589 C597 1.433 . S
C590 H586 0.929 . S
C590 C592 1.378 . S
C590 C594 1.350 . S
C591 C594 1.463 . S
C591 C596 1.350 . S
C591 N599 1.427 . S
C592 H583 0.930 . S
C592 C590 1.378 . S
C592 C593 1.367 . S
C593 C592 1.367 . S
C593 C595 1.433 . S
C594 C590 1.350 . S
C594 C591 1.463 . S
C594 N598 1.427 . S
C595 H585 0.929 . S
C595 C593 1.433 . S
C595 N598 1.384 . S
C596 H587 0.929 . S
C596 C588 1.378 . S
C596 C591 1.350 . S
C597 H584 0.929 . S
C597 C589 1.433 . S
C597 N599 1.384 . S
N598 C594 1.427 . S
N598 C595 1.384 . S
N599 C591 1.427 . S
N599 C597 1.384 . S
H600 C606 0.930 . S
H601 C610 0.930 . S
H602 C615 0.929 . S
H603 C613 0.929 . S
H604 C608 0.929 . S
H605 C614 0.929 . S
C606 H600 0.930 . S
C606 C607 1.367 . S
C606 C614 1.378 . S
C607 C606 1.367 . S
C607 C615 1.433 . S
C608 H604 0.929 . S
C608 C610 1.378 . S
C608 C612 1.350 . S
C609 C612 1.463 . S
C609 C614 1.350 . S
C609 N617 1.427 . S
C610 H601 0.930 . S
C610 C608 1.378 . S
C610 C611 1.367 . S
C611 C610 1.367 . S
C611 C613 1.433 . S
C612 C608 1.350 . S
C612 C609 1.463 . S
C612 N616 1.427 . S
C613 H603 0.929 . S
C613 C611 1.433 . S
C613 N616 1.384 . S
C614 H605 0.929 . S
C614 C606 1.378 . S
C614 C609 1.350 . S
C615 H602 0.929 . S
C615 C607 1.433 . S
C615 N617 1.384 . S
N616 C612 1.427 . S
N616 C613 1.384 . S
N617 C609 1.427 . S
N617 C615 1.384 . S
H618 C624 0.930 1_556 S
H619 C628 0.930 . S
H620 C633 0.929 . S
H621 C631 0.929 . S
H622 C626 0.929 . S
H623 C632 0.893 1_556 S
C624 H618 0.930 1_554 S
C624 C625 1.367 . S
C624 C632 1.378 . S
C625 C624 1.367 . S
C625 C633 1.433 . S
C626 H622 0.929 . S
C626 C628 1.378 . S
C626 C630 1.350 . S
C627 C630 1.463 . S
C627 C632 1.350 . S
C627 N635 1.427 . S
C628 H619 0.930 . S
C628 C626 1.378 . S
C628 C629 1.367 . S
C629 C628 1.367 . S
C629 C631 1.433 . S
C630 C626 1.350 . S
C630 C627 1.463 . S
C630 N634 1.427 . S
C631 H621 0.929 . S
C631 C629 1.433 . S
C631 N634 1.384 . S
C632 H623 0.893 1_554 S
C632 C624 1.378 . S
C632 C627 1.350 . S
C633 H620 0.929 . S
C633 C625 1.433 . S
C633 N635 1.384 . S
N634 C630 1.427 . S
N634 C631 1.384 . S
N635 C627 1.427 . S
N635 C633 1.384 . S
H636 C642 0.930 . S
H637 C646 0.930 . S
H638 C651 0.929 . S
H639 C649 0.929 . S
H640 C644 0.929 . S
H641 C650 0.929 . S
C642 H636 0.930 . S
C642 C643 1.367 . S
C642 C650 1.378 . S
C643 C642 1.367 . S
C643 C651 1.433 . S
C644 H640 0.929 . S
C644 C646 1.378 . S
C644 C648 1.350 . S
C645 C648 1.463 . S
C645 C650 1.350 . S
C645 N653 1.427 . S
C646 H637 0.930 . S
C646 C644 1.378 . S
C646 C647 1.367 . S
C647 C646 1.367 . S
C647 C649 1.433 . S
C648 C644 1.350 . S
C648 C645 1.463 . S
C648 N652 1.427 . S
C649 H639 0.929 . S
C649 C647 1.433 . S
C649 N652 1.384 . S
C650 H641 0.929 . S
C650 C642 1.378 . S
C650 C645 1.350 . S
C651 H638 0.929 . S
C651 C643 1.433 . S
C651 N653 1.384 . S
N652 C648 1.427 . S
N652 C649 1.384 . S
N653 C645 1.427 . S
N653 C651 1.384 . S
H654 C660 0.930 . S
H655 C664 0.930 . S
H656 C669 0.929 . S
H657 C667 0.929 . S
H658 C662 0.929 . S
H659 C668 0.929 . S
C660 H654 0.930 . S
C660 C661 1.367 . S
C660 C668 1.378 . S
C661 C660 1.367 . S
C661 C669 1.433 . S
C662 H658 0.929 . S
C662 C664 1.378 . S
C662 C666 1.350 . S
C663 C666 1.463 . S
C663 C668 1.350 . S
C663 N671 1.427 . S
C664 H655 0.930 . S
C664 C662 1.378 . S
C664 C665 1.367 . S
C665 C664 1.367 . S
C665 C667 1.433 . S
C666 C662 1.350 . S
C666 C663 1.463 . S
C666 N670 1.427 . S
C667 H657 0.929 . S
C667 C665 1.433 . S
C667 N670 1.384 . S
C668 H659 0.929 . S
C668 C660 1.378 . S
C668 C663 1.350 . S
C669 H656 0.929 . S
C669 C661 1.433 . S
C669 N671 1.384 . S
N670 C666 1.427 . S
N670 C667 1.384 . S
N671 C663 1.427 . S
N671 C669 1.384 . S
H672 C678 0.930 . S
H673 C682 0.930 . S
H674 C687 0.929 . S
H675 C685 0.929 . S
H676 C680 0.929 . S
H677 C686 0.929 . S
C678 H672 0.930 . S
C678 C679 1.367 . S
C678 C686 1.378 . S
C679 C678 1.367 . S
C679 C687 1.433 . S
C680 H676 0.929 . S
C680 C682 1.378 . S
C680 C684 1.350 . S
C681 C684 1.463 . S
C681 C686 1.350 . S
C681 N689 1.427 . S
C682 H673 0.930 . S
C682 C680 1.378 . S
C682 C683 1.367 . S
C683 C682 1.367 . S
C683 C685 1.433 . S
C684 C680 1.350 . S
C684 C681 1.463 . S
C684 N688 1.427 . S
C685 H675 0.929 . S
C685 C683 1.433 . S
C685 N688 1.384 . S
C686 H677 0.929 . S
C686 C678 1.378 . S
C686 C681 1.350 . S
C687 H674 0.929 . S
C687 C679 1.433 . S
C687 N689 1.384 . S
N688 C684 1.427 . S
N688 C685 1.384 . S
N689 C681 1.427 . S
N689 C687 1.384 . S
H690 C696 0.930 . S
H691 C700 0.930 . S
H692 C705 0.929 . S
H693 C703 0.929 . S
H694 C698 0.929 . S
H695 C704 0.929 . S
C696 H690 0.930 . S
C696 C697 1.367 . S
C696 C704 1.378 . S
C697 C696 1.367 . S
C697 C705 1.433 . S
C698 H694 0.929 . S
C698 C700 1.378 . S
C698 C702 1.350 . S
C699 C702 1.463 . S
C699 C704 1.350 . S
C699 N707 1.427 . S
C700 H691 0.930 . S
C700 C698 1.378 . S
C700 C701 1.367 . S
C701 C700 1.367 . S
C701 C703 1.433 . S
C702 C698 1.350 . S
C702 C699 1.463 . S
C702 N706 1.427 . S
C703 H693 0.929 . S
C703 C701 1.433 . S
C703 N706 1.384 . S
C704 H695 0.929 . S
C704 C696 1.378 . S
C704 C699 1.350 . S
C705 H692 0.929 . S
C705 C697 1.433 . S
C705 N707 1.384 . S
N706 C702 1.427 . S
N706 C703 1.384 . S
N707 C699 1.427 . S
N707 C705 1.384 . S
H708 C714 0.930 . S
H709 C718 0.930 . S
H710 C723 0.929 . S
H711 C721 0.929 . S
H712 C716 0.929 . S
H713 C722 0.929 . S
C714 H708 0.930 . S
C714 C715 1.367 . S
C714 C722 1.378 . S
C715 C714 1.367 . S
C715 C723 1.433 . S
C716 H712 0.929 . S
C716 C718 1.378 . S
C716 C720 1.350 . S
C717 C720 1.463 . S
C717 C722 1.350 . S
C717 N725 1.427 . S
C718 H709 0.930 . S
C718 C716 1.378 . S
C718 C719 1.367 . S
C719 C718 1.367 . S
C719 C721 1.433 . S
C720 C716 1.350 . S
C720 C717 1.463 . S
C720 N724 1.427 . S
C721 H711 0.929 . S
C721 C719 1.433 . S
C721 N724 1.384 . S
C722 H713 0.929 . S
C722 C714 1.378 . S
C722 C717 1.350 . S
C723 H710 0.929 . S
C723 C715 1.433 . S
C723 N725 1.384 . S
N724 C720 1.427 . S
N724 C721 1.384 . S
N725 C717 1.427 . S
N725 C723 1.384 . S
H726 C732 0.930 . S
H727 C736 0.930 . S
H728 C741 0.929 . S
H729 C739 0.929 . S
H730 C734 0.929 . S
H731 C740 0.929 . S
C732 H726 0.930 . S
C732 C733 1.367 . S
C732 C740 1.378 . S
C733 C732 1.367 . S
C733 C741 1.433 . S
C734 H730 0.929 . S
C734 C736 1.378 1_556 S
C734 C738 1.350 . S
C735 C738 1.463 . S
C735 C740 1.350 . S
C735 N743 1.427 . S
C736 H727 0.930 . S
C736 C734 1.378 1_554 S
C736 C737 1.367 . S
C737 C736 1.367 . S
C737 C739 1.433 1_554 S
C738 C734 1.350 . S
C738 C735 1.463 . S
C738 N742 1.427 . S
C739 H729 0.929 . S
C739 C737 1.433 1_556 S
C739 N742 1.384 . S
C740 H731 0.929 . S
C740 C732 1.378 . S
C740 C735 1.350 . S
C741 H728 0.929 . S
C741 C733 1.433 . S
C741 N743 1.384 . S
N742 C738 1.427 . S
N742 C739 1.384 . S
N743 C735 1.427 . S
N743 C741 1.384 . S
H744 C750 0.930 . S
H745 C754 0.930 . S
H746 C759 0.929 . S
H747 C757 0.929 . S
H748 C752 0.929 . S
H749 C758 0.929 . S
C750 H744 0.930 . S
C750 C751 1.367 . S
C750 C758 1.378 . S
C751 C750 1.367 . S
C751 C759 1.433 . S
C752 H748 0.929 . S
C752 C754 1.378 . S
C752 C756 1.350 . S
C753 C756 1.463 . S
C753 C758 1.350 . S
C753 N761 1.427 . S
C754 H745 0.930 . S
C754 C752 1.378 . S
C754 C755 1.367 . S
C755 C754 1.367 . S
C755 C757 1.433 . S
C756 C752 1.350 . S
C756 C753 1.463 . S
C756 N760 1.427 . S
C757 H747 0.929 . S
C757 C755 1.433 . S
C757 N760 1.384 . S
C758 H749 0.929 . S
C758 C750 1.378 . S
C758 C753 1.350 . S
C759 H746 0.929 . S
C759 C751 1.433 . S
C759 N761 1.384 . S
N760 C756 1.427 . S
N760 C757 1.384 . S
N761 C753 1.427 . S
N761 C759 1.384 . S
H762 C768 0.930 . S
H763 C772 0.930 . S
H764 C777 0.929 . S
H765 C775 0.929 . S
H766 C770 0.929 . S
H767 C776 0.929 . S
C768 H762 0.930 . S
C768 C769 1.367 . S
C768 C776 1.378 . S
C769 C768 1.367 . S
C769 C777 1.433 . S
C770 H766 0.929 . S
C770 C772 1.378 . S
C770 C774 1.350 . S
C771 C774 1.463 . S
C771 C776 1.350 . S
C771 N779 1.427 . S
C772 H763 0.930 . S
C772 C770 1.378 . S
C772 C773 1.367 . S
C773 C772 1.367 . S
C773 C775 1.433 . S
C774 C770 1.350 . S
C774 C771 1.463 . S
C774 N778 1.427 . S
C775 H765 0.929 . S
C775 C773 1.433 . S
C775 N778 1.384 . S
C776 H767 0.929 . S
C776 C768 1.378 . S
C776 C771 1.350 . S
C777 H764 0.929 . S
C777 C769 1.433 . S
C777 N779 1.384 . S
N778 C774 1.427 . S
N778 C775 1.384 . S
N779 C771 1.427 . S
N779 C777 1.384 . S
H780 C786 0.930 . S
H781 C790 0.930 . S
H782 C795 0.929 . S
H783 C793 0.929 . S
H784 C788 0.929 . S
H785 C794 0.929 . S
C786 H780 0.930 . S
C786 C787 1.367 . S
C786 C794 1.378 . S
C787 C786 1.367 . S
C787 C795 1.433 . S
C788 H784 0.929 . S
C788 C790 1.378 . S
C788 C792 1.350 . S
C789 C792 1.463 . S
C789 C794 1.350 . S
C789 N797 1.427 . S
C790 H781 0.930 . S
C790 C788 1.378 . S
C790 C791 1.367 . S
C791 C790 1.367 . S
C791 C793 1.433 . S
C792 C788 1.350 . S
C792 C789 1.463 . S
C792 N796 1.427 . S
C793 H783 0.929 . S
C793 C791 1.433 . S
C793 N796 1.384 . S
C794 H785 0.929 . S
C794 C786 1.378 . S
C794 C789 1.350 . S
C795 H782 0.929 . S
C795 C787 1.433 . S
C795 N797 1.384 . S
N796 C792 1.427 . S
N796 C793 1.384 . S
N797 C789 1.427 . S
N797 C795 1.384 . S
H798 C804 0.930 . S
H799 C808 0.930 . S
H800 C813 0.929 . S
H801 C811 0.929 . S
H802 C806 0.929 . S
H803 C812 0.929 . S
C804 H798 0.930 . S
C804 C805 1.367 . S
C804 C812 1.378 . S
C805 C804 1.367 . S
C805 C813 1.433 . S
C806 H802 0.929 . S
C806 C808 1.378 . S
C806 C810 1.350 . S
C807 C810 1.463 . S
C807 C812 1.350 . S
C807 N815 1.427 . S
C808 H799 0.930 . S
C808 C806 1.378 . S
C808 C809 1.367 . S
C809 C808 1.367 . S
C809 C811 1.433 . S
C810 C806 1.350 . S
C810 C807 1.463 . S
C810 N814 1.427 . S
C811 H801 0.929 . S
C811 C809 1.433 . S
C811 N814 1.384 . S
C812 H803 0.929 . S
C812 C804 1.378 . S
C812 C807 1.350 . S
C813 H800 0.929 . S
C813 C805 1.433 . S
C813 N815 1.384 . S
N814 C810 1.427 . S
N814 C811 1.384 . S
N815 C807 1.427 . S
N815 C813 1.384 . S
H816 C822 0.930 . S
H817 C826 0.930 . S
H818 C831 0.929 . S
H819 C829 0.929 . S
H820 C824 0.929 . S
H821 C830 0.929 . S
C822 H816 0.930 . S
C822 C823 1.367 . S
C822 C830 1.378 . S
C823 C822 1.367 . S
C823 C831 1.433 . S
C824 H820 0.929 . S
C824 C826 1.378 . S
C824 C828 1.350 . S
C825 C828 1.463 . S
C825 C830 1.350 . S
C825 N833 1.427 . S
C826 H817 0.930 . S
C826 C824 1.378 . S
C826 C827 1.367 . S
C827 C826 1.367 . S
C827 C829 1.433 . S
C828 C824 1.350 . S
C828 C825 1.463 . S
C828 N832 1.427 . S
C829 H819 0.929 . S
C829 C827 1.433 . S
C829 N832 1.384 . S
C830 H821 0.929 . S
C830 C822 1.378 . S
C830 C825 1.350 . S
C831 H818 0.929 . S
C831 C823 1.433 . S
C831 N833 1.384 . S
N832 C828 1.427 . S
N832 C829 1.384 . S
N833 C825 1.427 . S
N833 C831 1.384 . S
H834 C840 0.930 . S
H835 C844 0.930 . S
H836 C849 0.929 . S
H837 C847 0.929 . S
H838 C842 0.929 . S
H839 C848 0.929 . S
C840 H834 0.930 . S
C840 C841 1.367 . S
C840 C848 1.378 . S
C841 C840 1.367 . S
C841 C849 1.433 . S
C842 H838 0.929 . S
C842 C844 1.378 . S
C842 C846 1.350 . S
C843 C846 1.463 . S
C843 C848 1.350 . S
C843 N851 1.427 . S
C844 H835 0.930 . S
C844 C842 1.378 . S
C844 C845 1.367 . S
C845 C844 1.367 . S
C845 C847 1.433 . S
C846 C842 1.350 . S
C846 C843 1.463 . S
C846 N850 1.427 . S
C847 H837 0.929 . S
C847 C845 1.433 . S
C847 N850 1.384 . S
C848 H839 0.929 . S
C848 C840 1.378 . S
C848 C843 1.350 . S
C849 H836 0.929 . S
C849 C841 1.433 . S
C849 N851 1.384 . S
N850 C846 1.427 . S
N850 C847 1.384 . S
N851 C843 1.427 . S
N851 C849 1.384 . S
H852 C858 0.930 . S
H853 C862 0.930 . S
H854 C867 0.929 . S
H855 C865 0.929 . S
H856 C860 0.937 . S
H857 C866 0.929 1_556 S
C858 H852 0.930 . S
C858 C859 1.367 . S
C858 C866 1.378 . S
C859 C858 1.367 . S
C859 C867 1.433 . S
C860 H856 0.937 . S
C860 C862 1.378 . S
C860 C864 1.350 . S
C861 C864 1.463 1_554 S
C861 C866 1.350 . S
C861 N869 1.427 . S
C862 H853 0.930 . S
C862 C860 1.378 . S
C862 C863 1.367 . S
C863 C862 1.367 . S
C863 C865 1.433 . S
C864 C860 1.350 . S
C864 C861 1.463 1_556 S
C864 N868 1.427 . S
C865 H855 0.929 . S
C865 C863 1.433 . S
C865 N868 1.384 . S
C866 H857 0.929 1_554 S
C866 C858 1.378 . S
C866 C861 1.350 . S
C867 H854 0.929 . S
C867 C859 1.433 . S
C867 N869 1.384 . S
N868 C864 1.427 . S
N868 C865 1.384 . S
N869 C861 1.427 . S
N869 C867 1.384 . S
H870 C876 0.930 . S
H871 C880 0.930 . S
H872 C885 0.929 . S
H873 C883 0.929 . S
H874 C878 0.929 . S
H875 C884 0.929 . S
C876 H870 0.930 . S
C876 C877 1.367 . S
C876 C884 1.378 . S
C877 C876 1.367 . S
C877 C885 1.433 . S
C878 H874 0.929 . S
C878 C880 1.378 . S
C878 C882 1.350 . S
C879 C882 1.463 . S
C879 C884 1.350 . S
C879 N887 1.427 . S
C880 H871 0.930 . S
C880 C878 1.378 . S
C880 C881 1.367 . S
C881 C880 1.367 . S
C881 C883 1.433 . S
C882 C878 1.350 . S
C882 C879 1.463 . S
C882 N886 1.427 . S
C883 H873 0.929 . S
C883 C881 1.433 . S
C883 N886 1.384 . S
C884 H875 0.929 . S
C884 C876 1.378 . S
C884 C879 1.350 . S
C885 H872 0.929 . S
C885 C877 1.433 . S
C885 N887 1.384 . S
N886 C882 1.427 . S
N886 C883 1.384 . S
N887 C879 1.427 . S
N887 C885 1.384 . S
C467 C445 1.683 . S
C463 C29 1.589 . S
C481 C115 1.550 . S
C485 C375 1.569 . S
C499 C153 1.619 . S
C503 C394 1.714 . S
C517 C239 1.542 . S
C521 C403 1.567 . S
C539 C417 1.617 . S
C535 C301 1.591 . S
C553 C339 1.853 . S
C557 C436 1.964 . S
C571 C91 1.572 . S
C575 C389 1.675 . S
C589 C177 1.552 . S
C593 C408 1.580 . S
C607 C215 1.581 . S
C611 C422 1.681 . S
C629 C431 1.922 . S
C625 C277 1.792 . S
C647 C450 1.625 . S
C643 C363 1.597 . S
C665 C380 1.581 . S
C661 C53 1.558 . S
C679 C35 1.553 . S
C683 C395 1.562 . S
C697 C109 1.395 . S
C701 C407 1.483 . S
C719 C421 1.444 . S
C715 C159 1.451 . S
C733 C233 1.595 . S
C737 C437 1.704 . S
C755 C449 1.517 . S
C751 C295 1.407 . S
C773 C379 1.402 . S
C769 C345 1.397 . S
C791 C451 1.466 . S
C787 C97 1.458 . S
C805 C171 1.428 . S
C809 C381 1.527 . S
C827 C393 1.566 . S
C823 C221 1.565 . S
C841 C283 1.415 . S
C845 C409 1.419 . S
C859 C357 1.435 . S
C863 C423 1.547 . S
C877 C47 1.620 . S
C881 C435 1.705 . S
