# Generated by pormake.
# Topology wbl, (4,4)-cn, num edge types: 1
# Building blocks:
#     Node 0, Type 0, BuildingBlock: MUDLON_clean_linker_0, # of connection points: 4
#     Node 1, Type 0, BuildingBlock: MUDLON_clean_linker_0, # of connection points: 4
#     Node 2, Type 0, BuildingBlock: MUDLON_clean_linker_0, # of connection points: 4
#     Node 3, Type 0, BuildingBlock: MUDLON_clean_linker_0, # of connection points: 4
#     Node 4, Type 0, BuildingBlock: MUDLON_clean_linker_0, # of connection points: 4
#     Node 5, Type 0, BuildingBlock: MUDLON_clean_linker_0, # of connection points: 4
#     Node 6, Type 0, BuildingBlock: MUDLON_clean_linker_0, # of connection points: 4
#     Node 7, Type 0, BuildingBlock: MUDLON_clean_linker_0, # of connection points: 4
#     Node 8, Type 1, BuildingBlock: GALJAG_clean_sbu_0, # of connection points: 4
#     Node 9, Type 1, BuildingBlock: GALJAG_clean_sbu_0, # of connection points: 4
#     Node 10, Type 1, BuildingBlock: GALJAG_clean_sbu_0, # of connection points: 4
#     Node 11, Type 1, BuildingBlock: GALJAG_clean_sbu_0, # of connection points: 4
#     Node 12, Type 1, BuildingBlock: GALJAG_clean_sbu_0, # of connection points: 4
#     Node 13, Type 1, BuildingBlock: GALJAG_clean_sbu_0, # of connection points: 4
#     Node 14, Type 1, BuildingBlock: GALJAG_clean_sbu_0, # of connection points: 4
#     Node 15, Type 1, BuildingBlock: GALJAG_clean_sbu_0, # of connection points: 4
#     Edge 16, Type (0, 1), BuildingBlock: UVAHIK_clean_linker_0, # of connection points: 2
#     Edge 17, Type (0, 1), BuildingBlock: UVAHIK_clean_linker_0, # of connection points: 2
#     Edge 18, Type (0, 1), BuildingBlock: UVAHIK_clean_linker_0, # of connection points: 2
#     Edge 19, Type (0, 1), BuildingBlock: UVAHIK_clean_linker_0, # of connection points: 2
#     Edge 20, Type (0, 1), BuildingBlock: UVAHIK_clean_linker_0, # of connection points: 2
#     Edge 21, Type (0, 1), BuildingBlock: UVAHIK_clean_linker_0, # of connection points: 2
#     Edge 22, Type (0, 1), BuildingBlock: UVAHIK_clean_linker_0, # of connection points: 2
#     Edge 23, Type (0, 1), BuildingBlock: UVAHIK_clean_linker_0, # of connection points: 2
#     Edge 24, Type (0, 1), BuildingBlock: UVAHIK_clean_linker_0, # of connection points: 2
#     Edge 25, Type (0, 1), BuildingBlock: UVAHIK_clean_linker_0, # of connection points: 2
#     Edge 26, Type (0, 1), BuildingBlock: UVAHIK_clean_linker_0, # of connection points: 2
#     Edge 27, Type (0, 1), BuildingBlock: UVAHIK_clean_linker_0, # of connection points: 2
#     Edge 28, Type (0, 1), BuildingBlock: UVAHIK_clean_linker_0, # of connection points: 2
#     Edge 29, Type (0, 1), BuildingBlock: UVAHIK_clean_linker_0, # of connection points: 2
#     Edge 30, Type (0, 1), BuildingBlock: UVAHIK_clean_linker_0, # of connection points: 2
#     Edge 31, Type (0, 1), BuildingBlock: UVAHIK_clean_linker_0, # of connection points: 2
#     Edge 32, Type (0, 1), BuildingBlock: UVAHIK_clean_linker_0, # of connection points: 2
#     Edge 33, Type (0, 1), BuildingBlock: UVAHIK_clean_linker_0, # of connection points: 2
#     Edge 34, Type (0, 1), BuildingBlock: UVAHIK_clean_linker_0, # of connection points: 2
#     Edge 35, Type (0, 1), BuildingBlock: UVAHIK_clean_linker_0, # of connection points: 2
#     Edge 36, Type (0, 1), BuildingBlock: UVAHIK_clean_linker_0, # of connection points: 2
#     Edge 37, Type (0, 1), BuildingBlock: UVAHIK_clean_linker_0, # of connection points: 2
#     Edge 38, Type (0, 1), BuildingBlock: UVAHIK_clean_linker_0, # of connection points: 2
#     Edge 39, Type (0, 1), BuildingBlock: UVAHIK_clean_linker_0, # of connection points: 2
#     Edge 40, Type (0, 1), BuildingBlock: UVAHIK_clean_linker_0, # of connection points: 2
#     Edge 41, Type (0, 1), BuildingBlock: UVAHIK_clean_linker_0, # of connection points: 2
#     Edge 42, Type (0, 1), BuildingBlock: UVAHIK_clean_linker_0, # of connection points: 2
#     Edge 43, Type (0, 1), BuildingBlock: UVAHIK_clean_linker_0, # of connection points: 2
#     Edge 44, Type (0, 1), BuildingBlock: UVAHIK_clean_linker_0, # of connection points: 2
#     Edge 45, Type (0, 1), BuildingBlock: UVAHIK_clean_linker_0, # of connection points: 2
#     Edge 46, Type (0, 1), BuildingBlock: UVAHIK_clean_linker_0, # of connection points: 2
#     Edge 47, Type (0, 1), BuildingBlock: UVAHIK_clean_linker_0, # of connection points: 2
# Relax obj value: 0.118
# Max RMSD: 0.150
# Mean RMSD: 0.137
data_MOF--net-wbl--node1-GALJAG_clean_sbu_0--node2-MUDLON_clean_linker_0--edge1-UVAHIK_clean_linker_0
_symmetry_space_group_name_H-M    P1
_symmetry_Int_Tables_number       1
_symmetry_cell_setting            triclinic
loop_
_symmetry_equiv_pos_as_xyz
'x, y, z'
_cell_length_a     63.713906
_cell_length_b     63.856346
_cell_length_c     103.92153
_cell_angle_alpha  89.996259
_cell_angle_beta   90.006
_cell_angle_gamma 90.046279
loop_
_atom_site_label
_atom_site_type_symbol
_atom_site_fract_x
_atom_site_fract_y
_atom_site_fract_z
_atom_type_partial_charge
H0 H 0.11713 0.98181 0.33718 0.0
N1 N 0.07979 0.97795 0.32598 0.0
H2 H 0.12885 0.96628 0.35756 0.0
H3 H 0.0552 0.95625 0.3435 0.0
H4 H 0.06671 0.94116 0.36362 0.0
H5 H 0.07908 0.93492 0.32483 0.0
H6 H 0.09555 0.91338 0.30854 0.0
H7 H 0.09511 0.99057 0.3035 0.0
H8 H 0.11002 0.969 0.28641 0.0
H9 H 0.06936 0.01817 0.32686 0.0
H10 H 0.04333 0.95655 0.32143 0.0
H11 H 0.03431 0.0334 0.3253 0.0
H12 H 0.00816 0.97114 0.32104 0.0
H13 H 0.93181 0.07391 0.33593 0.0
H14 H 0.92151 0.08764 0.35664 0.0
H15 H 0.91455 0.02449 0.37114 0.0
H16 H 0.92347 0.01082 0.34982 0.0
H17 H 0.89615 0.02178 0.31898 0.0
H18 H 0.87591 0.0404 0.30257 0.0
H19 H 0.92656 0.08484 0.29817 0.0
H20 H 0.94686 0.06587 0.31452 0.0
H21 H 0.96867 0.05102 0.33861 0.0
H22 H 0.00419 0.03806 0.3367 0.0
H23 H 0.98253 0.98947 0.31083 0.0
N24 N 0.93304 0.03245 0.32873 0.0
H25 H 0.94656 0.00145 0.31388 0.0
C26 C 0.08528 0.97057 0.33873 0.0
C27 C 0.10598 0.97323 0.34303 0.0
C28 C 0.11268 0.96424 0.3546 0.0
C29 C 0.09866 0.95255 0.36217 0.0
C30 C 0.07778 0.95034 0.35807 0.0
C31 C 0.07117 0.95909 0.34646 0.0
C32 C 0.08656 0.96452 0.31561 0.0
C33 C 0.08586 0.94253 0.31652 0.0
C34 C 0.09506 0.93013 0.30701 0.0
C35 C 0.10458 0.93935 0.29616 0.0
C36 C 0.10357 0.96128 0.2948 0.0
C37 C 0.09488 0.97369 0.30449 0.0
C38 C 0.05891 0.9863 0.3245 0.0
C39 C 0.05598 0.00795 0.32543 0.0
C40 C 0.03587 0.01656 0.32466 0.0
C41 C 0.01813 0.00357 0.32323 0.0
C42 C 0.02127 0.98182 0.32195 0.0
C43 C 0.04144 0.97333 0.32234 0.0
C44 C 0.92793 0.04119 0.34117 0.0
C45 C 0.92779 0.06292 0.34343 0.0
C46 C 0.92221 0.07081 0.35546 0.0
C47 C 0.91715 0.05723 0.36567 0.0
C48 C 0.91791 0.03548 0.36348 0.0
C49 C 0.92314 0.0276 0.35134 0.0
C50 C 0.92283 0.04249 0.318 0.0
C51 C 0.903 0.03529 0.31428 0.0
C52 C 0.89155 0.0459 0.30489 0.0
C53 C 0.89968 0.06408 0.29911 0.0
C54 C 0.9199 0.07093 0.30252 0.0
C55 C 0.9315 0.0601 0.31181 0.0
C56 C 0.95472 0.02679 0.32666 0.0
C57 C 0.97144 0.03748 0.3326 0.0
C58 C 0.99199 0.03016 0.33133 0.0
C59 C 0.99646 0.01244 0.32372 0.0
C60 C 0.97979 0.00268 0.31713 0.0
C61 C 0.95919 0.00964 0.31872 0.0
H62 H 0.97188 0.39202 0.58928 0.0
N63 N 0.96822 0.42798 0.57664 0.0
H64 H 0.95598 0.38261 0.60991 0.0
H65 H 0.94623 0.4542 0.59242 0.0
H66 H 0.93096 0.44531 0.61326 0.0
H67 H 0.92509 0.42479 0.57595 0.0
H68 H 0.90515 0.40668 0.55971 0.0
H69 H 0.98093 0.41961 0.55266 0.0
H70 H 0.96043 0.40348 0.53558 0.0
H71 H 0.00956 0.42464 0.57721 0.0
H72 H 0.95958 0.46939 0.573 0.0
H73 H 0.03545 0.45278 0.57626 0.0
H74 H 0.98527 0.49807 0.57281 0.0
H75 H 0.11066 0.54128 0.59089 0.0
H76 H 0.11768 0.55533 0.61241 0.0
H77 H 0.05366 0.57721 0.61478 0.0
H78 H 0.04667 0.56267 0.59333 0.0
H79 H 0.04858 0.57562 0.57211 0.0
H80 H 0.05617 0.60497 0.55794 0.0
H81 H 0.11595 0.57695 0.5483 0.0
H82 H 0.10739 0.54694 0.56185 0.0
H83 H 0.07433 0.50692 0.59024 0.0
H84 H 0.04785 0.47959 0.58957 0.0
H85 H 0.01303 0.51503 0.5613 0.0
N86 N 0.07506 0.54307 0.57771 0.0
H87 H 0.03901 0.54271 0.56237 0.0
C88 C 0.96043 0.42377 0.58939 0.0
C89 C 0.96318 0.40375 0.59459 0.0
C90 C 0.95414 0.39847 0.60639 0.0
C91 C 0.94217 0.41322 0.61326 0.0
C92 C 0.93986 0.4335 0.60816 0.0
C93 C 0.94883 0.43872 0.59631 0.0
C94 C 0.95488 0.42303 0.56579 0.0
C95 C 0.93304 0.42041 0.56716 0.0
C96 C 0.92143 0.41016 0.55766 0.0
C97 C 0.93118 0.40284 0.54636 0.0
C98 C 0.95246 0.40794 0.54435 0.0
C99 C 0.96422 0.41754 0.55405 0.0
C100 C 0.98281 0.44502 0.57538 0.0
C101 C 0.00426 0.44066 0.57614 0.0
C102 C 0.01896 0.45681 0.57572 0.0
C103 C 0.01248 0.47781 0.57472 0.0
C104 C 0.99086 0.48211 0.57356 0.0
C105 C 0.97613 0.4658 0.5738 0.0
C106 C 0.07829 0.55109 0.59051 0.0
C107 C 0.09816 0.54901 0.59611 0.0
C108 C 0.10208 0.55696 0.60838 0.0
C109 C 0.0862 0.56735 0.61524 0.0
C110 C 0.06622 0.56942 0.60964 0.0
C111 C 0.06222 0.56119 0.5974 0.0
C112 C 0.07735 0.55888 0.56789 0.0
C113 C 0.06303 0.57549 0.56665 0.0
C114 C 0.06757 0.59247 0.55864 0.0
C115 C 0.08686 0.59363 0.55206 0.0
C116 C 0.1008 0.5766 0.553 0.0
C117 C 0.096 0.5594 0.56079 0.0
C118 C 0.0588 0.52726 0.57662 0.0
C119 C 0.06092 0.50893 0.58396 0.0
C120 C 0.04581 0.49316 0.58345 0.0
C121 C 0.02828 0.495 0.57532 0.0
C122 C 0.02615 0.51323 0.56783 0.0
C123 C 0.04122 0.5292 0.56845 0.0
H124 H 0.60279 0.48957 0.84309 0.0
N125 N 0.57088 0.47846 0.82819 0.0
H126 H 0.6131 0.47423 0.86378 0.0
H127 H 0.5491 0.44846 0.84174 0.0
H128 H 0.55918 0.43329 0.8623 0.0
H129 H 0.56429 0.43779 0.82079 0.0
H130 H 0.58637 0.41776 0.80604 0.0
H131 H 0.60032 0.49341 0.81275 0.0
H132 H 0.62256 0.47343 0.79796 0.0
H133 H 0.56179 0.51887 0.8281 0.0
H134 H 0.53397 0.45801 0.82271 0.0
H135 H 0.52738 0.53517 0.8257 0.0
H136 H 0.49939 0.47374 0.82151 0.0
H137 H 0.43202 0.58015 0.83439 0.0
H138 H 0.41943 0.59513 0.85443 0.0
H139 H 0.39376 0.53504 0.86534 0.0
H140 H 0.40674 0.51998 0.84512 0.0
H141 H 0.39026 0.5327 0.81441 0.0
H142 H 0.37365 0.55406 0.79777 0.0
H143 H 0.42873 0.59351 0.7963 0.0
H144 H 0.44527 0.5719 0.81295 0.0
H145 H 0.46229 0.55558 0.83767 0.0
H146 H 0.497 0.54063 0.83694 0.0
H147 H 0.47496 0.49311 0.81047 0.0
N148 N 0.42655 0.53968 0.82607 0.0
H149 H 0.43952 0.50732 0.81216 0.0
C150 C 0.57511 0.47043 0.84088 0.0
C151 C 0.59307 0.47749 0.84734 0.0
C152 C 0.599 0.46863 0.85908 0.0
C153 C 0.58693 0.45256 0.86463 0.0
C154 C 0.56863 0.44583 0.85832 0.0
C155 C 0.56284 0.45455 0.84651 0.0
C156 C 0.58071 0.46717 0.81785 0.0
C157 C 0.5765 0.44587 0.81555 0.0
C158 C 0.58915 0.4344 0.80711 0.0
C159 C 0.60628 0.44402 0.80096 0.0
C160 C 0.60958 0.46559 0.80268 0.0
C161 C 0.59687 0.47704 0.81104 0.0
C162 C 0.55045 0.48728 0.82588 0.0
C163 C 0.54818 0.50904 0.82649 0.0
C164 C 0.52842 0.51827 0.82526 0.0
C165 C 0.51034 0.50583 0.82367 0.0
C166 C 0.51282 0.48396 0.82263 0.0
C167 C 0.53269 0.47482 0.82353 0.0
C168 C 0.4202 0.54884 0.83818 0.0
C169 C 0.42367 0.57013 0.84102 0.0
C170 C 0.41639 0.57874 0.85251 0.0
C171 C 0.40543 0.56633 0.86144 0.0
C172 C 0.40229 0.54498 0.8587 0.0
C173 C 0.40961 0.53636 0.84717 0.0
C174 C 0.41882 0.55077 0.81497 0.0
C175 C 0.39889 0.54566 0.81027 0.0
C176 C 0.3895 0.55784 0.80073 0.0
C177 C 0.39988 0.57551 0.79575 0.0
C178 C 0.42032 0.58008 0.80003 0.0
C179 C 0.42979 0.56773 0.80952 0.0
C180 C 0.44794 0.53228 0.82516 0.0
C181 C 0.46467 0.54187 0.83177 0.0
C182 C 0.48484 0.53339 0.83119 0.0
C183 C 0.48901 0.51549 0.82369 0.0
C184 C 0.4724 0.50653 0.81663 0.0
C185 C 0.45212 0.51474 0.81748 0.0
H186 H 0.47255 0.88698 0.08946 0.0
N187 N 0.47216 0.92353 0.07739 0.0
H188 H 0.45642 0.87822 0.11008 0.0
H189 H 0.45168 0.9508 0.09332 0.0
H190 H 0.43621 0.94252 0.11427 0.0
H191 H 0.43131 0.9352 0.07344 0.0
H192 H 0.40735 0.9198 0.05761 0.0
H193 H 0.48255 0.89967 0.05747 0.0
H194 H 0.4588 0.88463 0.04138 0.0
H195 H 0.51097 0.92714 0.08607 0.0
H196 H 0.46238 0.96157 0.06649 0.0
H197 H 0.53404 0.95745 0.08492 0.0
H198 H 0.48588 0.99162 0.06439 0.0
H199 H 0.60852 0.04914 0.08404 0.0
H200 H 0.61877 0.06436 0.10465 0.0
H201 H 0.55333 0.07441 0.11387 0.0
H202 H 0.54346 0.06039 0.09298 0.0
H203 H 0.54848 0.08241 0.07202 0.0
H204 H 0.55685 0.11087 0.0571 0.0
H205 H 0.60295 0.07141 0.03859 0.0
H206 H 0.59497 0.04339 0.05389 0.0
H207 H 0.57914 0.00567 0.07154 0.0
H208 H 0.5548 0.97623 0.07101 0.0
H209 H 0.50272 0.01928 0.07484 0.0
N210 N 0.57022 0.04579 0.07431 0.0
H211 H 0.52734 0.04865 0.07422 0.0
C212 C 0.46348 0.91947 0.08994 0.0
C213 C 0.46474 0.89915 0.09491 0.0
C214 C 0.45561 0.89425 0.10673 0.0
C215 C 0.4451 0.90969 0.11392 0.0
C216 C 0.44398 0.93018 0.10895 0.0
C217 C 0.45299 0.93502 0.09703 0.0
C218 C 0.45867 0.9182 0.06675 0.0
C219 C 0.4375 0.92445 0.06635 0.0
C220 C 0.42384 0.91568 0.0573 0.0
C221 C 0.43122 0.90093 0.04835 0.0
C222 C 0.45272 0.89607 0.04811 0.0
C223 C 0.46628 0.90457 0.05729 0.0
C224 C 0.48516 0.94191 0.07622 0.0
C225 C 0.50544 0.94122 0.08134 0.0
C226 C 0.51867 0.95855 0.08054 0.0
C227 C 0.51208 0.97701 0.07432 0.0
C228 C 0.49153 0.97779 0.0693 0.0
C229 C 0.4781 0.96048 0.07037 0.0
C230 C 0.57531 0.05333 0.087 0.0
C231 C 0.59644 0.0545 0.09059 0.0
C232 C 0.60222 0.0631 0.10242 0.0
C233 C 0.58689 0.07056 0.11103 0.0
C234 C 0.56562 0.0691 0.10746 0.0
C235 C 0.55989 0.06077 0.09552 0.0
C236 C 0.57138 0.06093 0.06412 0.0
C237 C 0.56005 0.07978 0.06457 0.0
C238 C 0.56481 0.096 0.05599 0.0
C239 C 0.58085 0.09354 0.04679 0.0
C240 C 0.59086 0.07399 0.04574 0.0
C241 C 0.5862 0.0579 0.05437 0.0
C242 C 0.5551 0.02919 0.07322 0.0
C243 C 0.56244 0.00866 0.07212 0.0
C244 C 0.54845 0.99186 0.07198 0.0
C245 C 0.5267 0.99521 0.07323 0.0
C246 C 0.5193 0.01599 0.07385 0.0
C247 C 0.53338 0.03285 0.07368 0.0
H248 H 0.1092 0.53205 0.91423 0.0
N249 N 0.07159 0.53371 0.92523 0.0
H250 H 0.11986 0.54742 0.89372 0.0
H251 H 0.04584 0.55313 0.90796 0.0
H252 H 0.05587 0.56739 0.88711 0.0
H253 H 0.07034 0.57634 0.9273 0.0
H254 H 0.08783 0.59706 0.94374 0.0
H255 H 0.08579 0.51976 0.94781 0.0
H256 H 0.10154 0.54039 0.96499 0.0
H257 H 0.0761 0.4926 0.92694 0.0
H258 H 0.02972 0.54149 0.92715 0.0
H259 H 0.04865 0.46626 0.92911 0.0
H260 H 0.0017 0.51525 0.92815 0.0
H261 H 0.95567 0.38708 0.91777 0.0
H262 H 0.93884 0.37899 0.89719 0.0
H263 H 0.92409 0.44453 0.89212 0.0
H264 H 0.94126 0.45246 0.91267 0.0
H265 H 0.92271 0.44577 0.93338 0.0
H266 H 0.89549 0.4363 0.94881 0.0
H267 H 0.93579 0.38805 0.96428 0.0
H268 H 0.96275 0.3973 0.94846 0.0
H269 H 0.9967 0.42232 0.91843 0.0
H270 H 0.02338 0.44946 0.91744 0.0
H271 H 0.98364 0.49028 0.94003 0.0
N272 N 0.95912 0.42414 0.92909 0.0
H273 H 0.9564 0.46356 0.94007 0.0
C274 C 0.07676 0.5412 0.91255 0.0
C275 C 0.09751 0.5396 0.90825 0.0
C276 C 0.1035 0.54831 0.89649 0.0
C277 C 0.08873 0.55866 0.88866 0.0
C278 C 0.06777 0.55985 0.89292 0.0
C279 C 0.06189 0.5514 0.9048 0.0
C280 C 0.07725 0.5464 0.93616 0.0
C281 C 0.07696 0.56839 0.93555 0.0
C282 C 0.08685 0.58028 0.94509 0.0
C283 C 0.0967 0.57045 0.95563 0.0
C284 C 0.09492 0.54855 0.95682 0.0
C285 C 0.08562 0.53668 0.94709 0.0
C286 C 0.05486 0.5188 0.92661 0.0
C287 C 0.05985 0.49753 0.92727 0.0
C288 C 0.04406 0.48253 0.92837 0.0
C289 C 0.02276 0.48845 0.92853 0.0
C290 C 0.01784 0.50998 0.92813 0.0
C291 C 0.0338 0.52504 0.92735 0.0
C292 C 0.94975 0.42026 0.91669 0.0
C293 C 0.94888 0.39966 0.91216 0.0
C294 C 0.93914 0.39509 0.90047 0.0
C295 C 0.93003 0.41112 0.89307 0.0
C296 C 0.93112 0.43188 0.89756 0.0
C297 C 0.94083 0.43642 0.90931 0.0
C298 C 0.94474 0.42205 0.93972 0.0
C299 C 0.92587 0.43345 0.94026 0.0
C300 C 0.91033 0.42807 0.94916 0.0
C301 C 0.91334 0.41122 0.95769 0.0
C302 C 0.93282 0.40086 0.95769 0.0
C303 C 0.94832 0.40622 0.94877 0.0
C304 C 0.97463 0.44064 0.9294 0.0
C305 C 0.99379 0.43715 0.92317 0.0
C306 C 0.00912 0.4527 0.92273 0.0
C307 C 0.00595 0.47213 0.92883 0.0
C308 C 0.98666 0.47566 0.9351 0.0
C309 C 0.97105 0.46019 0.93527 0.0
H310 H 0.53008 0.39091 0.16641 0.0
N311 N 0.52845 0.429 0.17659 0.0
H312 H 0.54549 0.38042 0.14595 0.0
H313 H 0.54298 0.45567 0.1574 0.0
H314 H 0.55678 0.44553 0.13673 0.0
H315 H 0.57056 0.43718 0.17818 0.0
H316 H 0.59529 0.4208 0.19309 0.0
H317 H 0.51919 0.40543 0.19683 0.0
H318 H 0.54381 0.38859 0.21161 0.0
H319 H 0.48755 0.43673 0.17738 0.0
H320 H 0.54786 0.46685 0.18039 0.0
H321 H 0.47018 0.47068 0.1793 0.0
H322 H 0.53099 0.50083 0.18133 0.0
H323 H 0.42298 0.56536 0.16838 0.0
H324 H 0.40644 0.57631 0.14834 0.0
H325 H 0.46602 0.6 0.13479 0.0
H326 H 0.48256 0.58874 0.15494 0.0
H327 H 0.47314 0.60906 0.18445 0.0
H328 H 0.45417 0.62865 0.20093 0.0
H329 H 0.41352 0.57536 0.20717 0.0
H330 H 0.43264 0.55592 0.19052 0.0
H331 H 0.44769 0.53455 0.16561 0.0
H332 H 0.4631 0.50014 0.16743 0.0
H333 H 0.51152 0.52524 0.19226 0.0
N334 N 0.46408 0.57147 0.17529 0.0
H335 H 0.49684 0.5602 0.18945 0.0
C336 C 0.53524 0.424 0.16364 0.0
C337 C 0.53576 0.4029 0.15991 0.0
C338 C 0.54449 0.39696 0.14813 0.0
C339 C 0.55257 0.41209 0.13962 0.0
C340 C 0.55125 0.43334 0.14313 0.0
C341 C 0.54299 0.43922 0.15504 0.0
C342 C 0.54299 0.42243 0.18642 0.0
C343 C 0.56455 0.42706 0.18569 0.0
C344 C 0.57869 0.41754 0.19414 0.0
C345 C 0.57155 0.40325 0.20347 0.0
C346 C 0.54984 0.39968 0.20465 0.0
C347 C 0.53574 0.4092 0.19619 0.0
C348 C 0.51891 0.44922 0.17859 0.0
C349 C 0.49701 0.45072 0.17844 0.0
C350 C 0.48716 0.4702 0.17941 0.0
C351 C 0.49909 0.48873 0.1803 0.0
C352 C 0.52113 0.48705 0.18087 0.0
C353 C 0.53091 0.46751 0.18022 0.0
C354 C 0.45409 0.57636 0.16318 0.0
C355 C 0.43254 0.57286 0.16112 0.0
C356 C 0.42306 0.5792 0.14965 0.0
C357 C 0.43487 0.58917 0.14001 0.0
C358 C 0.45651 0.5922 0.14198 0.0
C359 C 0.46598 0.58585 0.15347 0.0
C360 C 0.45427 0.58119 0.18625 0.0
C361 C 0.4604 0.60152 0.18958 0.0
C362 C 0.44959 0.61261 0.19903 0.0
C363 C 0.4323 0.60356 0.20536 0.0
C364 C 0.42665 0.58281 0.20238 0.0
C365 C 0.4376 0.57167 0.19292 0.0
C366 C 0.4714 0.55028 0.17717 0.0
C367 C 0.46165 0.53285 0.1714 0.0
C368 C 0.47042 0.5129 0.17261 0.0
C369 C 0.48878 0.50972 0.17991 0.0
C370 C 0.49776 0.52703 0.18624 0.0
C371 C 0.48928 0.54705 0.18477 0.0
H372 H 0.41469 0.95394 0.4171 0.0
N373 N 0.45268 0.94156 0.42684 0.0
H374 H 0.39935 0.9432 0.39658 0.0
H375 H 0.47006 0.91756 0.40889 0.0
H376 H 0.45463 0.90646 0.38835 0.0
H377 H 0.44689 0.90332 0.43606 0.0
H378 H 0.42036 0.89175 0.4514 0.0
H379 H 0.42744 0.96738 0.44167 0.0
H380 H 0.4019 0.95615 0.45746 0.0
H381 H 0.43822 0.98116 0.42142 0.0
H382 H 0.49277 0.94621 0.43321 0.0
H383 H 0.45836 0.01337 0.42194 0.0
H384 H 0.51361 0.97841 0.43303 0.0
H385 H 0.5348 0.11075 0.4116 0.0
H386 H 0.55026 0.11919 0.39069 0.0
H387 H 0.5729 0.05559 0.38745 0.0
H388 H 0.55787 0.04753 0.40852 0.0
H389 H 0.57443 0.0555 0.42904 0.0
H390 H 0.60205 0.06834 0.44327 0.0
H391 H 0.56131 0.11838 0.45586 0.0
H392 H 0.53382 0.10557 0.44133 0.0
H393 H 0.50428 0.06343 0.4097 0.0
H394 H 0.48395 0.03129 0.41048 0.0
H395 H 0.52021 0.01068 0.44327 0.0
N396 N 0.53679 0.07468 0.4243 0.0
H397 H 0.54118 0.04219 0.44209 0.0
C398 C 0.44369 0.93665 0.41446 0.0
C399 C 0.42372 0.94394 0.41079 0.0
C400 C 0.41493 0.93775 0.39907 0.0
C401 C 0.42578 0.92397 0.3909 0.0
C402 C 0.44584 0.91696 0.39452 0.0
C403 C 0.45471 0.92334 0.40617 0.0
C404 C 0.43931 0.93614 0.43758 0.0
C405 C 0.43732 0.91494 0.44088 0.0
C406 C 0.42218 0.90838 0.44972 0.0
C407 C 0.40876 0.92298 0.45563 0.0
C408 C 0.41159 0.94439 0.45288 0.0
C409 C 0.42649 0.9509 0.44386 0.0
C410 C 0.46396 0.96115 0.42741 0.0
C411 C 0.45457 0.98035 0.42412 0.0
C412 C 0.46625 0.99885 0.42429 0.0
C413 C 0.48774 0.9986 0.42744 0.0
C414 C 0.49705 0.97935 0.43076 0.0
C415 C 0.48523 0.96089 0.43079 0.0
C416 C 0.54509 0.0786 0.41158 0.0
C417 C 0.54299 0.09866 0.4063 0.0
C418 C 0.55175 0.10338 0.39434 0.0
C419 C 0.56279 0.08804 0.38736 0.0
C420 C 0.56473 0.06783 0.39263 0.0
C421 C 0.55604 0.06316 0.40464 0.0
C422 C 0.55202 0.07965 0.43413 0.0
C423 C 0.57132 0.06904 0.43499 0.0
C424 C 0.58706 0.07633 0.44321 0.0
C425 C 0.58391 0.09446 0.45065 0.0
C426 C 0.5643 0.10452 0.45015 0.0
C427 C 0.54853 0.09714 0.44196 0.0
C428 C 0.52489 0.05533 0.42547 0.0
C429 C 0.50807 0.0519 0.41698 0.0
C430 C 0.49623 0.03354 0.41755 0.0
C431 C 0.50042 0.01823 0.42693 0.0
C432 C 0.51683 0.02185 0.43572 0.0
C433 C 0.52892 0.04013 0.43502 0.0
H434 H 0.02243 0.90492 0.65837 0.0
N435 N 0.03692 0.92817 0.67762 0.0
H436 H 0.03957 0.8978 0.63769 0.0
H437 H 0.07376 0.94529 0.66911 0.0
H438 H 0.09104 0.93812 0.64862 0.0
H439 H 0.06883 0.94657 0.69107 0.0
H440 H 0.08983 0.92977 0.70807 0.0
H441 H 0.02909 0.89207 0.68914 0.0
H442 H 0.04918 0.87571 0.70655 0.0
H443 H 0.99819 0.92573 0.68668 0.0
H444 H 0.04419 0.96962 0.67269 0.0
H445 H 0.97244 0.95383 0.68846 0.0
H446 H 0.01819 0.99771 0.67359 0.0
H447 H 0.88994 0.04706 0.66994 0.0
H448 H 0.87997 0.06251 0.6494 0.0
H449 H 0.94554 0.06684 0.63884 0.0
H450 H 0.95527 0.0527 0.65982 0.0
H451 H 0.94802 0.07872 0.68005 0.0
H452 H 0.93998 0.10707 0.695 0.0
H453 H 0.89777 0.06607 0.71567 0.0
H454 H 0.90549 0.03796 0.70035 0.0
H455 H 0.92433 0.0003 0.67429 0.0
H456 H 0.95156 0.97353 0.67459 0.0
H457 H 0.99706 0.0202 0.68616 0.0
N458 N 0.92825 0.04075 0.67904 0.0
H459 H 0.96987 0.04704 0.68508 0.0
C460 C 0.04684 0.92543 0.6653 0.0
C461 C 0.03731 0.91233 0.65621 0.0
C462 C 0.04708 0.90835 0.64443 0.0
C463 C 0.06669 0.91733 0.6416 0.0
C464 C 0.07606 0.93078 0.65063 0.0
C465 C 0.06616 0.93491 0.66235 0.0
C466 C 0.04776 0.92022 0.68869 0.0
C467 C 0.06455 0.93109 0.69438 0.0
C468 C 0.07638 0.9216 0.70413 0.0
C469 C 0.07104 0.90151 0.70857 0.0
C470 C 0.05348 0.89128 0.70335 0.0
C471 C 0.04207 0.90052 0.69343 0.0
C472 C 0.02288 0.94552 0.67937 0.0
C473 C 0.00266 0.9415 0.68398 0.0
C474 C 0.98793 0.95757 0.68484 0.0
C475 C 0.99302 0.97803 0.6809 0.0
C476 C 0.01368 0.9822 0.67676 0.0
C477 C 0.02855 0.9661 0.67611 0.0
C478 C 0.92323 0.04845 0.66636 0.0
C479 C 0.9021 0.05124 0.66313 0.0
C480 C 0.89647 0.05996 0.65132 0.0
C481 C 0.91192 0.06582 0.64231 0.0
C482 C 0.93319 0.06279 0.64554 0.0
C483 C 0.93881 0.05442 0.6575 0.0
C484 C 0.9271 0.0563 0.68905 0.0
C485 C 0.93738 0.07571 0.68796 0.0
C486 C 0.93284 0.09189 0.69657 0.0
C487 C 0.91801 0.08892 0.70644 0.0
C488 C 0.90896 0.06898 0.70803 0.0
C489 C 0.91345 0.05287 0.69938 0.0
C490 C 0.9449 0.02553 0.67982 0.0
C491 C 0.94019 0.00467 0.67693 0.0
C492 C 0.95578 0.98939 0.67722 0.0
C493 C 0.97655 0.99458 0.6806 0.0
C494 C 0.98131 0.01562 0.68345 0.0
C495 C 0.96568 0.031 0.68297 0.0
In496 In 0.32019 0.67837 0.0016 0.0
O497 O 0.31434 0.71362 0.00369 0.0
O498 O 0.34567 0.70331 0.00084 0.0
C499 C 0.27923 0.66727 0.0014 0.0
C500 C 0.33715 0.66502 0.02396 0.0
C501 C 0.33249 0.66128 0.97899 0.0
O502 O 0.28528 0.68552 0.99858 0.0
O503 O 0.29376 0.65485 0.00447 0.0
O504 O 0.33431 0.65206 0.98964 0.0
O505 O 0.32442 0.67928 0.97967 0.0
C506 C 0.33343 0.71855 0.00258 0.0
O507 O 0.34551 0.66186 0.01315 0.0
O508 O 0.32005 0.67499 0.02357 0.0
In509 In 0.32306 0.82675 0.25125 0.0
O510 O 0.31617 0.79226 0.2473 0.0
O511 O 0.34713 0.80064 0.25302 0.0
C512 C 0.28182 0.83675 0.25124 0.0
C513 C 0.34214 0.84066 0.22965 0.0
C514 C 0.33546 0.84299 0.27408 0.0
O515 O 0.28864 0.82019 0.25635 0.0
O516 O 0.2957 0.84802 0.2461 0.0
O517 O 0.33275 0.85403 0.26417 0.0
O518 O 0.33178 0.82376 0.27253 0.0
C519 C 0.33462 0.78624 0.24978 0.0
O520 O 0.34789 0.84609 0.24077 0.0
O521 O 0.32681 0.82816 0.22941 0.0
In522 In 0.17275 0.83156 0.50073 0.0
O523 O 0.15097 0.8523 0.51241 0.0
O524 O 0.17607 0.8375 0.52235 0.0
C525 C 0.15781 0.84367 0.47757 0.0
C526 C 0.15912 0.79166 0.50371 0.0
C527 C 0.2128 0.84526 0.49967 0.0
O528 O 0.15086 0.85065 0.48807 0.0
O529 O 0.17207 0.8301 0.47869 0.0
O530 O 0.2083 0.82644 0.50223 0.0
O531 O 0.19717 0.85698 0.49782 0.0
C532 C 0.16021 0.84931 0.52298 0.0
O533 O 0.17743 0.79579 0.49984 0.0
O534 O 0.14786 0.80749 0.50576 0.0
In535 In 0.17873 0.6806 0.75267 0.0
O536 O 0.15231 0.67284 0.76683 0.0
O537 O 0.18261 0.66058 0.7707 0.0
C538 C 0.15953 0.66236 0.73224 0.0
C539 C 0.22087 0.67597 0.75204 0.0
C540 C 0.17082 0.72212 0.75299 0.0
O541 O 0.16727 0.65205 0.74141 0.0
O542 O 0.16134 0.68191 0.73337 0.0
O543 O 0.18285 0.71376 0.74481 0.0
O544 O 0.16306 0.70958 0.76108 0.0
C545 C 0.1637 0.66195 0.77415 0.0
O546 O 0.21184 0.68843 0.75966 0.0
O547 O 0.20869 0.6662 0.74459 0.0
In548 In 0.82306 0.1737 0.50199 0.0
O549 O 0.81755 0.20777 0.50825 0.0
O550 O 0.84587 0.20028 0.49848 0.0
C551 C 0.78187 0.16612 0.49791 0.0
C552 C 0.83825 0.15973 0.52473 0.0
C553 C 0.8384 0.15427 0.48092 0.0
O554 O 0.7903 0.1834 0.49502 0.0
O555 O 0.79412 0.15299 0.50294 0.0
O556 O 0.8349 0.14474 0.49132 0.0
O557 O 0.83412 0.17353 0.48112 0.0
C558 C 0.83487 0.21419 0.50382 0.0
O559 O 0.84972 0.16254 0.51501 0.0
O560 O 0.81915 0.16406 0.52304 0.0
In561 In 0.82517 0.32653 0.75106 0.0
O562 O 0.84437 0.34996 0.73953 0.0
O563 O 0.82773 0.32652 0.72913 0.0
C564 C 0.84051 0.34192 0.77341 0.0
C565 C 0.83919 0.28684 0.74864 0.0
C566 C 0.78385 0.33612 0.75308 0.0
O567 O 0.84311 0.35096 0.76275 0.0
O568 O 0.83025 0.32507 0.77281 0.0
O569 O 0.79182 0.32014 0.75822 0.0
O570 O 0.79661 0.34709 0.74674 0.0
C571 C 0.83988 0.34216 0.72872 0.0
O572 O 0.82027 0.29184 0.74679 0.0
O573 O 0.85103 0.30184 0.75177 0.0
In574 In 0.672 0.33022 0.00126 0.0
O575 O 0.67806 0.29549 0.00475 0.0
O576 O 0.64814 0.30431 0.99749 0.0
C577 C 0.71345 0.3395 0.0011 0.0
C578 C 0.65719 0.34428 0.02406 0.0
C579 C 0.65662 0.34651 0.97916 0.0
O580 O 0.70639 0.32198 0.99751 0.0
O581 O 0.69967 0.35213 0.00503 0.0
O582 O 0.64682 0.34739 0.98968 0.0
O583 O 0.67401 0.33716 0.97974 0.0
C584 C 0.65997 0.2897 0.00126 0.0
O585 O 0.66078 0.35634 0.01471 0.0
O586 O 0.66145 0.32532 0.02201 0.0
In587 In 0.67849 0.18003 0.25019 0.0
O588 O 0.65559 0.15758 0.26006 0.0
O589 O 0.67493 0.17652 0.27193 0.0
C590 C 0.6622 0.16583 0.22785 0.0
C591 C 0.71849 0.1668 0.25269 0.0
C592 C 0.67221 0.22182 0.24827 0.0
O593 O 0.65093 0.1741 0.23645 0.0
O594 O 0.68149 0.16502 0.23048 0.0
O595 O 0.68445 0.21204 0.24087 0.0
O596 O 0.66352 0.21062 0.25671 0.0
C597 C 0.66086 0.16268 0.27133 0.0
O598 O 0.7133 0.18552 0.25499 0.0
O599 O 0.70361 0.15509 0.24923 0.0
C600 C 0.1121 0.90523 0.28468 0.0
C601 C 0.11715 0.92639 0.28702 0.0
C602 C 0.12574 0.8924 0.27766 0.0
C603 C 0.16973 0.8921 0.25497 0.0
H604 H 0.19313 0.84765 0.27593 0.0
C605 C 0.2539 0.8636 0.24831 0.0
C606 C 0.25961 0.8432 0.25189 0.0
C607 C 0.23335 0.87058 0.24999 0.0
C608 C 0.1865 0.85955 0.26973 0.0
H609 H 0.14035 0.95064 0.28318 0.0
H610 H 0.1633 0.92858 0.2705 0.0
H611 H 0.16163 0.86578 0.28306 0.0
H612 H 0.2481 0.81368 0.25936 0.0
H613 H 0.21192 0.82563 0.26195 0.0
H614 H 0.19463 0.88618 0.24169 0.0
C615 C 0.14884 0.92196 0.27419 0.0
C616 C 0.16845 0.86997 0.27386 0.0
C617 C 0.13553 0.93464 0.28144 0.0
C618 C 0.24415 0.82956 0.25664 0.0
C619 C 0.22345 0.83646 0.25817 0.0
C620 C 0.18756 0.88145 0.2507 0.0
C621 C 0.14437 0.90063 0.27255 0.0
C622 C 0.16041 0.88684 0.26676 0.0
C623 C 0.21789 0.85722 0.25513 0.0
C624 C 0.19671 0.86564 0.2583 0.0
H625 H 0.09789 0.89836 0.28853 0.0
H626 H 0.12196 0.87598 0.27645 0.0
H627 H 0.16366 0.90497 0.24928 0.0
H628 H 0.2655 0.87449 0.24465 0.0
H629 H 0.22989 0.88677 0.24776 0.0
C630 C 0.08722 0.63286 0.55014 0.0
C631 C 0.09322 0.61322 0.54525 0.0
C632 C 0.09443 0.65132 0.54451 0.0
C633 C 0.12069 0.67325 0.51542 0.0
H634 H 0.13218 0.7191 0.53887 0.0
C635 C 0.16336 0.75252 0.50299 0.0
C636 C 0.15168 0.77025 0.50659 0.0
C637 C 0.15665 0.73244 0.50659 0.0
C638 C 0.12903 0.70641 0.53222 0.0
H639 H 0.11106 0.59786 0.53015 0.0
H640 H 0.12451 0.63012 0.52073 0.0
H641 H 0.11995 0.68578 0.54735 0.0
H642 H 0.12368 0.78087 0.51652 0.0
H643 H 0.11237 0.746 0.52303 0.0
H644 H 0.13048 0.69415 0.50033 0.0
C645 C 0.11386 0.63119 0.52882 0.0
C646 C 0.12183 0.68735 0.53704 0.0
C647 C 0.10634 0.61264 0.53435 0.0
C648 C 0.13303 0.76753 0.5136 0.0
C649 C 0.12656 0.7476 0.51737 0.0
C650 C 0.12827 0.69232 0.51061 0.0
C651 C 0.10825 0.65078 0.53397 0.0
C652 C 0.11711 0.67063 0.5287 0.0
C653 C 0.13841 0.72992 0.51403 0.0
C654 C 0.1321 0.70915 0.51897 0.0
H655 H 0.07743 0.63411 0.55862 0.0
H656 H 0.08929 0.66607 0.54856 0.0
H657 H 0.11712 0.66081 0.50869 0.0
H658 H 0.17777 0.75419 0.49756 0.0
H659 H 0.16604 0.71898 0.50395 0.0
C660 C 0.37533 0.58253 0.77737 0.0
C661 C 0.38839 0.59017 0.78721 0.0
C662 C 0.36165 0.59597 0.77089 0.0
C663 C 0.3315 0.64273 0.77776 0.0
H664 H 0.31464 0.63853 0.74201 0.0
C665 C 0.25681 0.68379 0.76046 0.0
C666 C 0.24357 0.67151 0.75273 0.0
C667 C 0.27767 0.6779 0.76246 0.0
C668 C 0.31912 0.63986 0.75203 0.0
H669 H 0.39827 0.6181 0.79743 0.0
H670 H 0.37443 0.64159 0.78606 0.0
H671 H 0.34624 0.62044 0.74937 0.0
H672 H 0.242 0.64404 0.74052 0.0
H673 H 0.27806 0.63334 0.74433 0.0
H674 H 0.30395 0.66102 0.78071 0.0
C675 C 0.37471 0.62518 0.78342 0.0
C676 C 0.33725 0.62956 0.75621 0.0
C677 C 0.38848 0.61176 0.78985 0.0
C678 C 0.25185 0.65383 0.74652 0.0
C679 C 0.27263 0.64778 0.74865 0.0
C680 C 0.31331 0.65284 0.77362 0.0
C681 C 0.36067 0.6173 0.77418 0.0
C682 C 0.34337 0.63054 0.76918 0.0
C683 C 0.28566 0.65942 0.75693 0.0
C684 C 0.30659 0.65115 0.76077 0.0
H685 H 0.37509 0.56599 0.77506 0.0
H686 H 0.35094 0.58941 0.76387 0.0
H687 H 0.3356 0.64352 0.78786 0.0
H688 H 0.25088 0.69764 0.76526 0.0
H689 H 0.28737 0.68751 0.76866 0.0
C690 C 0.39953 0.87826 0.04648 0.0
C691 C 0.41637 0.88851 0.04048 0.0
C692 C 0.38762 0.86351 0.03976 0.0
C693 C 0.39291 0.8278 0.01192 0.0
H694 H 0.33666 0.81205 0.0223 0.0
C695 C 0.36266 0.74406 0.00554 0.0
C696 C 0.34114 0.74026 0.0039 0.0
C697 C 0.37004 0.76434 0.00766 0.0
C698 C 0.35222 0.81636 0.01905 0.0
H699 H 0.43307 0.89261 0.02252 0.0
H700 H 0.41169 0.86754 0.01053 0.0
H701 H 0.35135 0.84503 0.02965 0.0
H702 H 0.31047 0.75477 0.00271 0.0
H703 H 0.3234 0.79041 0.00598 0.0
H704 H 0.39359 0.79944 0.00105 0.0
C705 C 0.40809 0.87026 0.02057 0.0
C706 C 0.3608 0.8352 0.02345 0.0
C707 C 0.42025 0.88476 0.02738 0.0
C708 C 0.32715 0.75725 0.00403 0.0
C709 C 0.33457 0.77765 0.00598 0.0
C710 C 0.3842 0.80917 0.00734 0.0
C711 C 0.39208 0.85887 0.0268 0.0
C712 C 0.38156 0.84082 0.02034 0.0
C713 C 0.35611 0.78144 0.00801 0.0
C714 C 0.36403 0.80279 0.01123 0.0
H715 H 0.39638 0.88064 0.05662 0.0
H716 H 0.37574 0.85492 0.04501 0.0
H717 H 0.40897 0.83138 0.00933 0.0
H718 H 0.37381 0.73126 0.00557 0.0
H719 H 0.38664 0.76644 0.00946 0.0
C720 C 0.12908 0.57327 0.96933 0.0
C721 C 0.11067 0.58256 0.96447 0.0
C722 C 0.14349 0.58494 0.97643 0.0
C723 C 0.16475 0.63683 0.97845 0.0
H724 H 0.19313 0.61527 0.00868 0.0
C725 C 0.24119 0.67475 0.99719 0.0
C726 C 0.2571 0.6605 0.00047 0.0
C727 C 0.22056 0.66782 0.99536 0.0
C728 C 0.18543 0.6215 0.00022 0.0
H729 H 0.09276 0.6115 0.96391 0.0
H730 H 0.11862 0.63212 0.97586 0.0
H731 H 0.16134 0.59808 0.00091 0.0
H732 H 0.26382 0.62796 0.00475 0.0
H733 H 0.22819 0.6158 0.00125 0.0
H734 H 0.18948 0.65938 0.97719 0.0
C735 C 0.12159 0.61564 0.97418 0.0
C736 C 0.16716 0.61173 0.99584 0.0
C737 C 0.10688 0.60383 0.96726 0.0
C738 C 0.25189 0.63934 0.00226 0.0
C739 C 0.23136 0.6324 0.00035 0.0
C740 C 0.18319 0.64647 0.98274 0.0
C741 C 0.14014 0.60632 0.97869 0.0
C742 C 0.157 0.61894 0.98471 0.0
C743 C 0.21545 0.64648 0.99671 0.0
C744 C 0.19413 0.63849 0.99344 0.0
H745 H 0.13302 0.55717 0.96716 0.0
H746 H 0.15785 0.57744 0.97959 0.0
H747 H 0.15731 0.64258 0.96977 0.0
H748 H 0.24475 0.69119 0.99582 0.0
H749 H 0.20866 0.67915 0.99273 0.0
C750 C 0.39729 0.6163 0.2131 0.0
C751 C 0.41929 0.61654 0.21412 0.0
C752 C 0.38517 0.63102 0.21971 0.0
C753 C 0.38714 0.67267 0.24485 0.0
H754 H 0.34698 0.70038 0.22258 0.0
C755 C 0.36206 0.75846 0.25142 0.0
C756 C 0.34133 0.76421 0.24849 0.0
C757 C 0.36891 0.73797 0.24939 0.0
C758 C 0.3578 0.6926 0.22905 0.0
H759 H 0.44569 0.6313 0.22367 0.0
H760 H 0.42466 0.65724 0.23497 0.0
H761 H 0.36362 0.66817 0.21549 0.0
H762 H 0.31129 0.75287 0.24159 0.0
H763 H 0.32327 0.71698 0.23804 0.0
H764 H 0.38185 0.69768 0.25819 0.0
C765 C 0.41669 0.64564 0.22914 0.0
C766 C 0.36734 0.67408 0.22499 0.0
C767 C 0.42879 0.63091 0.22255 0.0
C768 C 0.32739 0.74891 0.24387 0.0
C769 C 0.33427 0.72839 0.2418 0.0
C770 C 0.37762 0.69125 0.2489 0.0
C771 C 0.3948 0.6463 0.22747 0.0
C772 C 0.3825 0.66415 0.2327 0.0
C773 C 0.35519 0.72278 0.24436 0.0
C774 C 0.36322 0.70168 0.24091 0.0
H775 H 0.38948 0.6055 0.20664 0.0
H776 H 0.36831 0.63091 0.21838 0.0
H777 H 0.39851 0.66523 0.2511 0.0
H778 H 0.37315 0.76992 0.25501 0.0
H779 H 0.3852 0.73424 0.2513 0.0
C780 C 0.3926 0.89784 0.47158 0.0
C781 C 0.39088 0.91579 0.46377 0.0
C782 C 0.37512 0.89003 0.47817 0.0
C783 C 0.32248 0.90409 0.48997 0.0
H784 H 0.30823 0.84601 0.48341 0.0
C785 C 0.23823 0.8737 0.49444 0.0
C786 C 0.23456 0.85301 0.49843 0.0
C787 C 0.25864 0.88095 0.49254 0.0
C788 C 0.31214 0.86213 0.4856 0.0
H789 H 0.36924 0.93968 0.45702 0.0
H790 H 0.33915 0.92646 0.46881 0.0
H791 H 0.342 0.85972 0.47623 0.0
H792 H 0.24941 0.82382 0.5039 0.0
H793 H 0.28526 0.83661 0.50079 0.0
H794 H 0.29262 0.90666 0.49921 0.0
C795 C 0.35406 0.91849 0.46985 0.0
C796 C 0.33149 0.86998 0.48146 0.0
C797 C 0.3714 0.92612 0.46313 0.0
C798 C 0.25178 0.83983 0.50077 0.0
C799 C 0.27229 0.84713 0.49893 0.0
C800 C 0.30324 0.89621 0.49423 0.0
C801 C 0.35564 0.90019 0.47727 0.0
C802 C 0.33658 0.89118 0.48329 0.0
C803 C 0.27596 0.86775 0.49467 0.0
C804 C 0.29755 0.87529 0.49175 0.0
H805 H 0.4074 0.88965 0.4725 0.0
H806 H 0.37678 0.87597 0.48392 0.0
H807 H 0.32616 0.92042 0.49167 0.0
H808 H 0.22528 0.88422 0.49251 0.0
H809 H 0.26078 0.89676 0.48901 0.0
C810 C 0.07594 0.88085 0.72874 0.0
C811 C 0.0846 0.89013 0.71772 0.0
C812 C 0.08765 0.86666 0.736 0.0
C813 C 0.1409 0.84208 0.73936 0.0
H814 H 0.10769 0.79321 0.74813 0.0
C815 C 0.17333 0.75772 0.74303 0.0
C816 C 0.16486 0.74445 0.75247 0.0
C817 C 0.16578 0.77814 0.74156 0.0
C818 C 0.11719 0.80685 0.74598 0.0
H819 H 0.1125 0.89284 0.70598 0.0
H820 H 0.13279 0.86749 0.71832 0.0
H821 H 0.09028 0.82469 0.74078 0.0
H822 H 0.14273 0.74248 0.76829 0.0
H823 H 0.12948 0.77808 0.76569 0.0
H824 H 0.16792 0.82344 0.74391 0.0
C825 C 0.1172 0.87148 0.72164 0.0
C826 C 0.10718 0.82502 0.74179 0.0
C827 C 0.10558 0.88599 0.71452 0.0
C828 C 0.14946 0.7523 0.76086 0.0
C829 C 0.14184 0.77265 0.75935 0.0
C830 C 0.15094 0.82374 0.74342 0.0
C831 C 0.10811 0.86105 0.7322 0.0
C832 C 0.11888 0.84279 0.73821 0.0
C833 C 0.14953 0.7856 0.74948 0.0
C834 C 0.13917 0.80584 0.74658 0.0
H835 H 0.0598 0.88396 0.73142 0.0
H836 H 0.08033 0.85941 0.74428 0.0
H837 H 0.15041 0.85554 0.73688 0.0
H838 H 0.18527 0.75211 0.73645 0.0
H839 H 0.17189 0.78769 0.73381 0.0
C840 C 0.61615 0.41572 0.7852 0.0
C841 C 0.6221 0.4312 0.7941 0.0
C842 C 0.63134 0.40291 0.77945 0.0
C843 C 0.68327 0.38137 0.7856 0.0
H844 H 0.68948 0.37573 0.74864 0.0
C845 C 0.75379 0.36053 0.74934 0.0
C846 C 0.76189 0.34252 0.7553 0.0
C847 C 0.73397 0.36812 0.7527 0.0
C848 C 0.6878 0.37706 0.75898 0.0
H849 H 0.64847 0.4453 0.80406 0.0
H850 H 0.67484 0.42292 0.79415 0.0
H851 H 0.65996 0.39585 0.75745 0.0
H852 H 0.75514 0.31764 0.7689 0.0
H853 H 0.72057 0.33102 0.77483 0.0
H854 H 0.71126 0.36316 0.78724 0.0
C855 C 0.65851 0.42076 0.79154 0.0
C856 C 0.6709 0.38844 0.764 0.0
C857 C 0.64345 0.4337 0.7971 0.0
C858 C 0.74936 0.33163 0.76419 0.0
C859 C 0.72961 0.33931 0.76762 0.0
C860 C 0.69995 0.36982 0.78062 0.0
C861 C 0.65261 0.40514 0.78276 0.0
C862 C 0.66883 0.39111 0.77735 0.0
C863 C 0.72195 0.35793 0.76215 0.0
C864 C 0.70267 0.36791 0.76726 0.0
H865 H 0.59978 0.41349 0.78273 0.0
H866 H 0.62645 0.39094 0.7727 0.0
H867 H 0.68191 0.38307 0.79594 0.0
H868 H 0.76308 0.36919 0.74241 0.0
H869 H 0.72855 0.3826 0.74839 0.0
C870 C 0.61048 0.11489 0.03793 0.0
C871 C 0.58874 0.11183 0.03935 0.0
C872 C 0.61827 0.13292 0.03207 0.0
C873 C 0.60464 0.17772 0.01125 0.0
H874 H 0.65011 0.20494 0.0296 0.0
C875 C 0.63119 0.26302 0.00125 0.0
C876 C 0.65255 0.26791 0.00275 0.0
C877 C 0.62373 0.24299 0.00418 0.0
C878 C 0.63769 0.1974 0.0242 0.0
H879 H 0.55813 0.12506 0.03527 0.0
H880 H 0.57183 0.15684 0.0251 0.0
H881 H 0.63627 0.17191 0.03749 0.0
H882 H 0.68306 0.25538 0.00781 0.0
H883 H 0.67018 0.22028 0.01263 0.0
H884 H 0.60605 0.20338 0.99798 0.0
C885 C 0.58279 0.14512 0.02849 0.0
C886 C 0.6297 0.17846 0.02876 0.0
C887 C 0.57495 0.12702 0.03441 0.0
C888 C 0.66648 0.25211 0.00666 0.0
C889 C 0.65906 0.23205 0.00951 0.0
C890 C 0.61273 0.19669 0.00664 0.0
C891 C 0.60456 0.14842 0.02749 0.0
C892 C 0.61308 0.1684 0.02236 0.0
C893 C 0.63751 0.22738 0.00862 0.0
C894 C 0.62934 0.20678 0.01308 0.0
H895 H 0.62159 0.10369 0.04179 0.0
H896 H 0.63512 0.13489 0.0313 0.0
H897 H 0.59194 0.17024 0.00607 0.0
H898 H 0.62007 0.27491 0.99828 0.0
H899 H 0.60703 0.24002 0.00349 0.0
C900 C 0.87408 0.06668 0.28093 0.0
C901 C 0.88621 0.0766 0.29042 0.0
C902 C 0.85871 0.0778 0.27425 0.0
C903 C 0.83691 0.13084 0.2678 0.0
H904 H 0.7842 0.10048 0.26715 0.0
C905 C 0.75528 0.17009 0.2611 0.0
C906 C 0.74002 0.15871 0.2543 0.0
C907 C 0.77495 0.16121 0.26362 0.0
C908 C 0.79884 0.10912 0.26702 0.0
H909 H 0.89265 0.10619 0.29985 0.0
H910 H 0.86558 0.12561 0.28829 0.0
H911 H 0.81573 0.08294 0.27441 0.0
H912 H 0.73374 0.12978 0.24407 0.0
H913 H 0.76803 0.11454 0.24819 0.0
H914 H 0.81963 0.15723 0.26065 0.0
C915 C 0.86811 0.10931 0.28588 0.0
C916 C 0.81697 0.09902 0.27118 0.0
C917 C 0.88361 0.09818 0.29251 0.0
C918 C 0.74509 0.1388 0.2495 0.0
C919 C 0.76472 0.13003 0.25191 0.0
C920 C 0.81866 0.141 0.26361 0.0
C921 C 0.855 0.09904 0.277 0.0
C922 C 0.83622 0.10974 0.27168 0.0
C923 C 0.77968 0.14086 0.2593 0.0
C924 C 0.7994 0.13023 0.26322 0.0
H925 H 0.87601 0.05012 0.279 0.0
H926 H 0.8492 0.06956 0.26725 0.0
H927 H 0.85153 0.13949 0.26803 0.0
H928 H 0.75176 0.1855 0.26488 0.0
H929 H 0.78609 0.16991 0.2694 0.0
C930 C 0.93161 0.37136 0.53182 0.0
C931 C 0.92018 0.38753 0.53778 0.0
C932 C 0.92136 0.35479 0.52576 0.0
C933 C 0.86909 0.33423 0.51524 0.0
H934 H 0.89613 0.28109 0.52241 0.0
C935 C 0.83016 0.25129 0.51138 0.0
C936 C 0.84249 0.23591 0.50534 0.0
C937 C 0.83837 0.27131 0.51369 0.0
C938 C 0.88848 0.29582 0.52022 0.0
H939 H 0.88869 0.39964 0.54081 0.0
H940 H 0.87083 0.36999 0.53102 0.0
H941 H 0.91288 0.31334 0.52914 0.0
H942 H 0.8727 0.22968 0.49649 0.0
H943 H 0.88701 0.26437 0.50067 0.0
H944 H 0.84418 0.31613 0.50677 0.0
C945 C 0.88782 0.37032 0.53089 0.0
C946 C 0.89815 0.31439 0.52399 0.0
C947 C 0.89812 0.38723 0.53672 0.0
C948 C 0.86284 0.24113 0.50125 0.0
C949 C 0.87107 0.26098 0.50365 0.0
C950 C 0.85923 0.3155 0.5116 0.0
C951 C 0.89934 0.3535 0.52576 0.0
C952 C 0.88875 0.33389 0.52145 0.0
C953 C 0.85909 0.27612 0.51011 0.0
C954 C 0.86898 0.29615 0.51398 0.0
H955 H 0.94855 0.37065 0.53241 0.0
H956 H 0.9308 0.3425 0.52152 0.0
H957 H 0.86142 0.34893 0.51307 0.0
H958 H 0.81438 0.24771 0.51459 0.0
H959 H 0.82887 0.28271 0.51874 0.0
C960 C 0.60548 0.12535 0.45753 0.0
C961 C 0.60156 0.10369 0.45807 0.0
C962 C 0.62323 0.13388 0.46342 0.0
C963 C 0.66484 0.12335 0.48739 0.0
H964 H 0.69787 0.16113 0.46631 0.0
C965 C 0.75182 0.14103 0.49779 0.0
C966 C 0.75966 0.16115 0.49517 0.0
C967 C 0.73124 0.13572 0.49454 0.0
C968 C 0.68869 0.15093 0.47244 0.0
H969 H 0.61273 0.07415 0.46573 0.0
H970 H 0.64386 0.08903 0.47595 0.0
H971 H 0.66403 0.14876 0.45853 0.0
H972 H 0.75192 0.1917 0.48745 0.0
H973 H 0.71576 0.18254 0.48193 0.0
H974 H 0.68962 0.12534 0.50124 0.0
C975 C 0.63314 0.09942 0.471 0.0
C976 C 0.66928 0.1438 0.46797 0.0
C977 C 0.61542 0.09086 0.46504 0.0
C978 C 0.74633 0.17604 0.48952 0.0
C979 C 0.72566 0.17074 0.4863 0.0
C980 C 0.68422 0.13056 0.4919 0.0
C981 C 0.63744 0.12097 0.47005 0.0
C982 C 0.65728 0.12971 0.47531 0.0
C983 C 0.71795 0.15043 0.48864 0.0
C984 C 0.69653 0.14419 0.48439 0.0
H985 H 0.59523 0.13564 0.45213 0.0
H986 H 0.62601 0.15057 0.46264 0.0
H987 H 0.65581 0.11273 0.49334 0.0
H988 H 0.76174 0.12918 0.50211 0.0
H989 H 0.72597 0.11985 0.4963 0.0
C990 C 0.92407 0.12298 0.71811 0.0
C991 C 0.9103 0.10707 0.71404 0.0
C992 C 0.91626 0.14123 0.72382 0.0
C993 C 0.86855 0.17317 0.72385 0.0
H994 H 0.89484 0.20247 0.75228 0.0
C995 C 0.83298 0.24894 0.74403 0.0
C996 C 0.84701 0.26529 0.74678 0.0
C997 C 0.84044 0.22878 0.74153 0.0
C998 C 0.88743 0.19455 0.74426 0.0
H999 H 0.87758 0.09766 0.71315 0.0
H1000 H 0.86411 0.12919 0.7233 0.0
H1001 H 0.90863 0.16853 0.7454 0.0
H1002 H 0.8798 0.27334 0.74939 0.0
H1003 H 0.89289 0.23824 0.74476 0.0
H1004 H 0.8477 0.19921 0.72243 0.0
C1005 C 0.8809 0.12766 0.72196 0.0
C1006 C 0.8953 0.17511 0.74035 0.0
C1007 C 0.88867 0.10946 0.71629 0.0
C1008 C 0.86861 0.26101 0.7473 0.0
C1009 C 0.8761 0.24087 0.74473 0.0
C1010 C 0.86076 0.19257 0.72771 0.0
C1011 C 0.89454 0.14396 0.7255 0.0
C1012 C 0.88595 0.16424 0.73008 0.0
C1013 C 0.86211 0.22457 0.74164 0.0
C1014 C 0.8701 0.20354 0.73794 0.0
H1015 H 0.94083 0.12152 0.71663 0.0
H1016 H 0.92716 0.15356 0.72641 0.0
H1017 H 0.86126 0.1654 0.71573 0.0
H1018 H 0.81623 0.25174 0.74366 0.0
H1019 H 0.8292 0.21652 0.73942 0.0
C1020 C 0.88103 0.4168 0.97125 0.0
C1021 C 0.89551 0.4031 0.96547 0.0
C1022 C 0.86294 0.409 0.97721 0.0
C1023 C 0.8278 0.36359 0.97548 0.0
H1024 H 0.80348 0.38626 0.0067 0.0
C1025 C 0.75064 0.33061 0.99566 0.0
C1026 C 0.7358 0.34536 -0.00018 0.0
C1027 C 0.77135 0.33665 0.99322 0.0
C1028 C 0.81001 0.37986 0.99792 0.0
H1029 H 0.90256 0.37039 0.96178 0.0
H1030 H 0.87133 0.35686 0.97236 0.0
H1031 H 0.83764 0.39894 -0.00069 0.0
H1032 H 0.73113 0.37786 0.00513 0.0
H1033 H 0.76712 0.38852 0.00064 0.0
H1034 H 0.8001 0.34496 0.97381 0.0
C1035 C 0.87384 0.37364 0.97217 0.0
C1036 C 0.82958 0.38711 0.99371 0.0
C1037 C 0.8919 0.38141 0.96625 0.0
C1038 C 0.74224 0.36612 0.00194 0.0
C1039 C 0.76292 0.37221 -0.00057 0.0
C1040 C 0.80826 0.35643 0.97964 0.0
C1041 C 0.85892 0.38734 0.97746 0.0
C1042 C 0.83863 0.37912 0.9824 0.0
C1043 C 0.77764 0.35763 0.9948 0.0
C1044 C 0.79903 0.36453 0.99088 0.0
H1045 H 0.88345 0.43358 0.97093 0.0
H1046 H 0.85169 0.41997 0.98114 0.0
H1047 H 0.83414 0.3574 0.96659 0.0
H1048 H 0.74616 0.31445 0.99402 0.0
H1049 H 0.78236 0.32493 0.98991 0.0
C1050 C 0.60414 0.38143 0.20485 0.0
C1051 C 0.58662 0.39036 0.21098 0.0
C1052 C 0.6166 0.36675 0.21124 0.0
C1053 C 0.61157 0.32718 0.23644 0.0
H1054 H 0.67129 0.31983 0.23085 0.0
C1055 C 0.65386 0.25429 0.25548 0.0
C1056 C 0.66702 0.24419 0.2466 0.0
C1057 C 0.64685 0.27467 0.25319 0.0
C1058 C 0.6546 0.32165 0.23247 0.0
H1059 H 0.56937 0.39201 0.22893 0.0
H1060 H 0.59118 0.36636 0.24011 0.0
H1061 H 0.654 0.3517 0.22328 0.0
H1062 H 0.684 0.2478 0.22867 0.0
H1063 H 0.67146 0.28325 0.22452 0.0
H1064 H 0.61189 0.29694 0.24519 0.0
C1065 C 0.59503 0.37047 0.23028 0.0
C1066 C 0.64471 0.33991 0.22816 0.0
C1067 C 0.58256 0.38515 0.22388 0.0
C1068 C 0.67385 0.25521 0.23568 0.0
C1069 C 0.66675 0.27558 0.23335 0.0
C1070 C 0.62142 0.30897 0.24073 0.0
C1071 C 0.61183 0.36066 0.22391 0.0
C1072 C 0.623 0.34269 0.22989 0.0
C1073 C 0.65276 0.28535 0.24193 0.0
C1074 C 0.64297 0.30579 0.23859 0.0
H1075 H 0.60756 0.38485 0.19486 0.0
H1076 H 0.62924 0.35933 0.20599 0.0
H1077 H 0.59476 0.32862 0.23773 0.0
H1078 H 0.64848 0.24625 0.26405 0.0
H1079 H 0.63641 0.28189 0.26011 0.0
C1080 C 0.12439 0.92993 0.37398 0.0
C1081 C 0.10583 0.9418 0.37402 0.0
C1082 C 0.13024 0.91837 0.38483 0.0
C1083 C 0.10776 0.8955 0.4146 0.0
H1084 H 0.166 0.89097 0.42506 0.0
C1085 C 0.13338 0.86542 0.46443 0.0
C1086 C 0.15078 0.85197 0.46503 0.0
C1087 C 0.12765 0.87477 0.45281 0.0
C1088 C 0.1497 0.89188 0.42214 0.0
H1089 H 0.07931 0.95159 0.38558 0.0
H1090 H 0.08971 0.93186 0.40461 0.0
H1091 H 0.15693 0.91139 0.406 0.0
H1092 H 0.1756 0.8374 0.45394 0.0
H1093 H 0.16561 0.85392 0.43357 0.0
H1094 H 0.10052 0.87639 0.43093 0.0
C1095 C 0.09947 0.93095 0.3961 0.0
C1096 C 0.14449 0.90358 0.41123 0.0
C1097 C 0.09355 0.94236 0.38523 0.0
C1098 C 0.16208 0.84768 0.45373 0.0
C1099 C 0.15647 0.85722 0.44211 0.0
C1100 C 0.11296 0.88395 0.42555 0.0
C1101 C 0.11771 0.91856 0.39598 0.0
C1102 C 0.12342 0.90569 0.40739 0.0
C1103 C 0.13931 0.87102 0.44158 0.0
C1104 C 0.13395 0.88215 0.42949 0.0
H1105 H 0.13402 0.929 0.36541 0.0
H1106 H 0.14426 0.90884 0.38434 0.0
H1107 H 0.09143 0.89638 0.41176 0.0
H1108 H 0.12439 0.86904 0.47299 0.0
H1109 H 0.11447 0.88548 0.45272 0.0
C1110 C 0.08529 0.59706 0.631 0.0
C1111 C 0.09076 0.57629 0.6281 0.0
C1112 C 0.09114 0.60597 0.64277 0.0
C1113 C 0.12969 0.59887 0.66913 0.0
H1114 H 0.09493 0.63951 0.68685 0.0
C1115 C 0.15074 0.63046 0.7194 0.0
C1116 C 0.14975 0.65229 0.72094 0.0
C1117 C 0.14234 0.62095 0.70845 0.0
C1118 C 0.10483 0.62826 0.68195 0.0
H1119 H 0.10566 0.54823 0.6354 0.0
H1120 H 0.11536 0.56351 0.65605 0.0
H1121 H 0.08202 0.62295 0.66718 0.0
H1122 H 0.13879 0.68125 0.71238 0.0
H1123 H 0.12397 0.66456 0.69323 0.0
H1124 H 0.15239 0.60405 0.68397 0.0
C1125 C 0.10716 0.57319 0.64913 0.0
C1126 C 0.09748 0.61881 0.67067 0.0
C1127 C 0.10152 0.56438 0.63733 0.0
C1128 C 0.1398 0.66439 0.71144 0.0
C1129 C 0.13122 0.65484 0.70052 0.0
C1130 C 0.13693 0.60816 0.68045 0.0
C1131 C 0.1024 0.59423 0.65191 0.0
C1132 C 0.10985 0.60402 0.6641 0.0
C1133 C 0.13263 0.63304 0.69885 0.0
C1134 C 0.12462 0.62299 0.68696 0.0
H1135 H 0.07715 0.60663 0.624 0.0
H1136 H 0.08742 0.62227 0.64449 0.0
H1137 H 0.13988 0.58793 0.6642 0.0
H1138 H 0.15827 0.62073 0.72658 0.0
H1139 H 0.14345 0.60409 0.70748 0.0
C1140 C 0.39861 0.56516 0.88526 0.0
C1141 C 0.39712 0.57581 0.87346 0.0
C1142 C 0.3911 0.57434 0.89658 0.0
C1143 C 0.37779 0.6257 0.91071 0.0
H1144 H 0.34763 0.59234 0.93582 0.0
C1145 C 0.33715 0.66241 0.95506 0.0
C1146 C 0.33934 0.65166 0.96677 0.0
C1147 C 0.34377 0.65319 0.94354 0.0
C1148 C 0.3562 0.60183 0.92896 0.0
H1149 H 0.38602 0.6042 0.86424 0.0
H1150 H 0.37295 0.62019 0.88395 0.0
H1151 H 0.36003 0.57604 0.91601 0.0
H1152 H 0.35016 0.62288 0.97564 0.0
H1153 H 0.36185 0.6069 0.95561 0.0
H1154 H 0.37403 0.65147 0.92368 0.0
C1155 C 0.38027 0.60491 0.88451 0.0
C1156 C 0.36332 0.59248 0.91761 0.0
C1157 C 0.38776 0.59574 0.87321 0.0
C1158 C 0.34821 0.63153 0.96675 0.0
C1159 C 0.3548 0.62232 0.95526 0.0
C1160 C 0.37068 0.63504 0.92206 0.0
C1161 C 0.38193 0.59436 0.89633 0.0
C1162 C 0.37423 0.6043 0.90837 0.0
C1163 C 0.35266 0.63302 0.94352 0.0
C1164 C 0.35985 0.6232 0.93133 0.0
H1165 H 0.40596 0.54989 0.8858 0.0
H1166 H 0.39286 0.56591 0.90556 0.0
H1167 H 0.38642 0.63517 0.90387 0.0
H1168 H 0.33032 0.67792 0.95478 0.0
H1169 H 0.3417 0.66175 0.93464 0.0
C1170 C 0.4155 0.91282 0.12987 0.0
C1171 C 0.43501 0.90418 0.1264 0.0
C1172 C 0.40558 0.90676 0.14129 0.0
C1173 C 0.40236 0.863 0.16386 0.0
H1174 H 0.37791 0.90341 0.18734 0.0
C1175 C 0.34787 0.83936 0.20586 0.0
C1176 C 0.3525 0.84837 0.21786 0.0
C1177 C 0.35784 0.84652 0.19472 0.0
C1178 C 0.38472 0.89197 0.18088 0.0
H1179 H 0.4597 0.88299 0.13253 0.0
H1180 H 0.44211 0.8721 0.15225 0.0
H1181 H 0.39591 0.91561 0.16791 0.0
H1182 H 0.37097 0.87208 0.22762 0.0
H1183 H 0.38822 0.88476 0.20809 0.0
H1184 H 0.39114 0.83937 0.17677 0.0
C1185 C 0.43446 0.88342 0.14606 0.0
C1186 C 0.39487 0.89894 0.16974 0.0
C1187 C 0.44449 0.88963 0.13474 0.0
C1188 C 0.36712 0.86482 0.21849 0.0
C1189 C 0.3769 0.87215 0.20733 0.0
C1190 C 0.392 0.85604 0.1749 0.0
C1191 C 0.41484 0.89179 0.1494 0.0
C1192 C 0.40389 0.88451 0.16116 0.0
C1193 C 0.37243 0.863 0.19534 0.0
C1194 C 0.38315 0.87045 0.18354 0.0
H1195 H 0.40759 0.92383 0.12362 0.0
H1196 H 0.39036 0.91333 0.14359 0.0
H1197 H 0.40901 0.85154 0.15735 0.0
H1198 H 0.33665 0.82666 0.20509 0.0
H1199 H 0.35399 0.8393 0.18558 0.0
C1200 C 0.08626 0.5877 0.8723 0.0
C1201 C 0.09534 0.56871 0.87635 0.0
C1202 C 0.093 0.5975 0.861 0.0
C1203 C 0.13857 0.60314 0.84035 0.0
H1204 H 0.09926 0.62126 0.81414 0.0
C1205 C 0.16728 0.63553 0.79172 0.0
C1206 C 0.15558 0.65143 0.78578 0.0
C1207 C 0.15958 0.62534 0.80263 0.0
C1208 C 0.11046 0.61664 0.82144 0.0
H1209 H 0.11831 0.54493 0.87135 0.0
H1210 H 0.13054 0.56252 0.85192 0.0
H1211 H 0.08628 0.60381 0.83346 0.0
H1212 H 0.12679 0.6694 0.78666 0.0
H1213 H 0.11368 0.65228 0.80604 0.0
H1214 H 0.16271 0.61648 0.82869 0.0
C1215 C 0.11819 0.56972 0.85755 0.0
C1216 C 0.10299 0.60653 0.83246 0.0
C1217 C 0.11123 0.55973 0.86873 0.0
C1218 C 0.13609 0.65709 0.79101 0.0
C1219 C 0.12852 0.64714 0.80207 0.0
C1220 C 0.14602 0.61355 0.82944 0.0
C1221 C 0.10919 0.58872 0.85361 0.0
C1222 C 0.117 0.59958 0.84197 0.0
C1223 C 0.14014 0.63107 0.80802 0.0
C1224 C 0.13209 0.62033 0.81978 0.0
H1225 H 0.07429 0.59534 0.878 0.0
H1226 H 0.08594 0.61225 0.85822 0.0
H1227 H 0.14966 0.59817 0.84763 0.0
H1228 H 0.18229 0.63072 0.78781 0.0
H1229 H 0.16881 0.61277 0.80673 0.0
C1230 C 0.40493 0.6069 0.12874 0.0
C1231 C 0.42453 0.59685 0.1281 0.0
C1232 C 0.39527 0.61442 0.1176 0.0
C1233 C 0.40677 0.63031 0.08416 0.0
H1234 H 0.34677 0.6235 0.0794 0.0
C1235 C 0.36614 0.64709 0.03576 0.0
C1236 C 0.34678 0.65758 0.03606 0.0
C1237 C 0.37542 0.64001 0.04712 0.0
C1238 C 0.3635 0.62574 0.08066 0.0
H1239 H 0.4492 0.58654 0.11522 0.0
H1240 H 0.43231 0.5996 0.09573 0.0
H1241 H 0.36339 0.61022 0.09892 0.0
H1242 H 0.32193 0.6689 0.04847 0.0
H1243 H 0.33823 0.65659 0.0684 0.0
H1244 H 0.4069 0.64573 0.06588 0.0
C1245 C 0.42456 0.60196 0.10489 0.0
C1246 C 0.37303 0.61813 0.09184 0.0
C1247 C 0.43423 0.59445 0.11605 0.0
C1248 C 0.33684 0.66083 0.04795 0.0
C1249 C 0.34613 0.65369 0.05934 0.0
C1250 C 0.39726 0.63789 0.07298 0.0
C1251 C 0.40499 0.61208 0.10554 0.0
C1252 C 0.3948 0.62026 0.0937 0.0
C1253 C 0.36555 0.64323 0.05904 0.0
C1254 C 0.37553 0.63562 0.07108 0.0
H1255 H 0.3972 0.60932 0.1379 0.0
H1256 H 0.38036 0.62243 0.11846 0.0
H1257 H 0.42351 0.63255 0.08539 0.0
H1258 H 0.37415 0.64429 0.02672 0.0
H1259 H 0.39023 0.63175 0.04653 0.0
C1260 C 0.41614 0.89485 0.37589 0.0
C1261 C 0.41589 0.9163 0.37887 0.0
C1262 C 0.4064 0.88745 0.36474 0.0
C1263 C 0.3898 0.90331 0.33252 0.0
H1264 H 0.3538 0.8544 0.33432 0.0
C1265 C 0.34433 0.87357 0.2881 0.0
C1266 C 0.34296 0.8518 0.28639 0.0
C1267 C 0.35208 0.88192 0.29959 0.0
C1268 C 0.36401 0.86792 0.3336 0.0
H1269 H 0.40546 0.94688 0.37248 0.0
H1270 H 0.38858 0.93394 0.35286 0.0
H1271 H 0.36991 0.86802 0.3539 0.0
H1272 H 0.34853 0.82167 0.29535 0.0
H1273 H 0.36259 0.83614 0.31525 0.0
H1274 H 0.38447 0.90296 0.31221 0.0
C1275 C 0.39628 0.92288 0.35919 0.0
C1276 C 0.37317 0.87574 0.34483 0.0
C1277 C 0.40581 0.93025 0.37044 0.0
C1278 C 0.34931 0.83853 0.29642 0.0
C1279 C 0.35725 0.84685 0.30787 0.0
C1280 C 0.38083 0.89537 0.32126 0.0
C1281 C 0.3964 0.90139 0.35627 0.0
C1282 C 0.38622 0.89346 0.34439 0.0
C1283 C 0.35883 0.86866 0.30959 0.0
C1284 C 0.36788 0.8775 0.32164 0.0
H1285 H 0.42362 0.88372 0.38228 0.0
H1286 H 0.40689 0.87083 0.36267 0.0
H1287 H 0.39999 0.91686 0.33188 0.0
H1288 H 0.33942 0.88419 0.28055 0.0
H1289 H 0.35269 0.89877 0.30064 0.0
C1290 C 0.09894 0.90666 0.62948 0.0
C1291 C 0.0776 0.91219 0.62941 0.0
C1292 C 0.10907 0.90105 0.61806 0.0
C1293 C 0.10614 0.90642 0.58297 0.0
H1294 H 0.13893 0.85529 0.58237 0.0
C1295 C 0.13289 0.86839 0.53554 0.0
C1296 C 0.15241 0.85823 0.53518 0.0
C1297 C 0.12491 0.87603 0.54713 0.0
C1298 C 0.13016 0.8698 0.5824 0.0
H1299 H 0.05022 0.91662 0.61733 0.0
H1300 H 0.06797 0.90691 0.59734 0.0
H1301 H 0.12296 0.86689 0.60245 0.0
H1302 H 0.17915 0.84848 0.54658 0.0
H1303 H 0.1655 0.86234 0.56682 0.0
H1304 H 0.11342 0.90951 0.56298 0.0
C1305 C 0.07684 0.90692 0.60624 0.0
C1306 C 0.12095 0.8764 0.59391 0.0
C1307 C 0.06665 0.9123 0.61767 0.0
C1308 C 0.164 0.85618 0.5466 0.0
C1309 C 0.1561 0.864 0.5582 0.0
C1310 C 0.11551 0.89995 0.57149 0.0
C1311 C 0.0981 0.90108 0.60634 0.0
C1312 C 0.10866 0.89464 0.59427 0.0
C1313 C 0.13637 0.87387 0.55862 0.0
C1314 C 0.12743 0.88142 0.57101 0.0
H1315 H 0.10771 0.90627 0.63841 0.0
H1316 H 0.1255 0.89674 0.6184 0.0
H1317 H 0.09699 0.9207 0.58302 0.0
H1318 H 0.12354 0.87009 0.5269 0.0
H1319 H 0.10951 0.88319 0.5471 0.0
C1320 C 0.57954 0.43804 0.8866 0.0
C1321 C 0.59388 0.44221 0.87666 0.0
C1322 C 0.58606 0.42777 0.89779 0.0
C1323 C 0.63393 0.41375 0.9163 0.0
H1324 H 0.59699 0.37311 0.93235 0.0
C1325 C 0.6618 0.35784 0.95637 0.0
C1326 C 0.64878 0.35632 0.96723 0.0
C1327 C 0.6548 0.36806 0.94529 0.0
C1328 C 0.6074 0.38453 0.92801 0.0
H1329 H 0.62617 0.43863 0.87052 0.0
H1330 H 0.6375 0.42037 0.88988 0.0
H1331 H 0.58543 0.39167 0.91309 0.0
H1332 H 0.61811 0.3639 0.97496 0.0
H1333 H 0.60579 0.38159 0.95552 0.0
H1334 H 0.65603 0.40626 0.93113 0.0
C1335 C 0.62134 0.42548 0.88924 0.0
C1336 C 0.60077 0.39524 0.91701 0.0
C1337 C 0.61485 0.43592 0.87812 0.0
C1338 C 0.62847 0.36484 0.96673 0.0
C1339 C 0.6214 0.37488 0.95559 0.0
C1340 C 0.64062 0.4029 0.92723 0.0
C1341 C 0.60703 0.42126 0.89922 0.0
C1342 C 0.61396 0.40999 0.91101 0.0
C1343 C 0.63458 0.37679 0.94481 0.0
C1344 C 0.62743 0.38818 0.93319 0.0
H1345 H 0.56331 0.4429 0.88577 0.0
H1346 H 0.57469 0.42511 0.90536 0.0
H1347 H 0.64436 0.42527 0.91211 0.0
H1348 H 0.67753 0.35141 0.95648 0.0
H1349 H 0.6652 0.36911 0.93707 0.0
C1350 C 0.58201 0.09747 0.12854 0.0
C1351 C 0.59316 0.08028 0.1235 0.0
C1352 C 0.58846 0.10708 0.13997 0.0
C1353 C 0.63502 0.11702 0.15906 0.0
H1354 H 0.59721 0.12627 0.18774 0.0
C1355 C 0.66599 0.14375 0.20824 0.0
C1356 C 0.6536 0.1571 0.2158 0.0
C1357 C 0.65797 0.13501 0.19696 0.0
C1358 C 0.60791 0.12417 0.17975 0.0
H1359 H 0.61946 0.05937 0.1269 0.0
H1360 H 0.6311 0.0767 0.14653 0.0
H1361 H 0.5841 0.10983 0.16808 0.0
H1362 H 0.6232 0.17199 0.21748 0.0
H1363 H 0.60935 0.15735 0.19748 0.0
H1364 H 0.65871 0.13179 0.1704 0.0
C1365 C 0.61738 0.08267 0.14158 0.0
C1366 C 0.60039 0.11464 0.16854 0.0
C1367 C 0.61076 0.07283 0.13028 0.0
C1368 C 0.63305 0.16168 0.21183 0.0
C1369 C 0.6251 0.15316 0.20042 0.0
C1370 C 0.64245 0.12684 0.17016 0.0
C1371 C 0.60638 0.09994 0.14647 0.0
C1372 C 0.61397 0.11074 0.15818 0.0
C1373 C 0.63746 0.13966 0.19284 0.0
C1374 C 0.6291 0.13027 0.18075 0.0
H1375 H 0.5686 0.10389 0.12351 0.0
H1376 H 0.57982 0.12048 0.14353 0.0
H1377 H 0.6457 0.11448 0.15111 0.0
H1378 H 0.68182 0.13977 0.21113 0.0
H1379 H 0.66782 0.12431 0.1916 0.0
C1380 C 0.9193 0.08474 0.38298 0.0
C1381 C 0.91067 0.06585 0.37839 0.0
C1382 C 0.91208 0.0937 0.39441 0.0
C1383 C 0.8882 0.0833 0.42518 0.0
H1384 H 0.8647 0.13914 0.42264 0.0
C1385 C 0.84553 0.12199 0.46806 0.0
C1386 C 0.847 0.1438 0.46944 0.0
C1387 C 0.85346 0.11214 0.45708 0.0
C1388 C 0.87155 0.12372 0.42364 0.0
H1389 H 0.88792 0.04139 0.38257 0.0
H1390 H 0.87609 0.05667 0.40284 0.0
H1391 H 0.87925 0.12243 0.40358 0.0
H1392 H 0.85833 0.1724 0.46065 0.0
H1393 H 0.87311 0.15525 0.44183 0.0
H1394 H 0.88136 0.08472 0.44529 0.0
C1395 C 0.8883 0.06453 0.39741 0.0
C1396 C 0.87974 0.11413 0.41267 0.0
C1397 C 0.8952 0.05575 0.38584 0.0
C1398 C 0.8568 0.15557 0.45975 0.0
C1399 C 0.86513 0.1457 0.44891 0.0
C1400 C 0.88042 0.09306 0.43624 0.0
C1401 C 0.89643 0.08375 0.40165 0.0
C1402 C 0.88805 0.09384 0.41335 0.0
C1403 C 0.86343 0.12385 0.44735 0.0
C1404 C 0.8719 0.1134 0.43561 0.0
H1405 H 0.93161 0.09273 0.37774 0.0
H1406 H 0.91872 0.10844 0.3976 0.0
H1407 H 0.89468 0.06767 0.42591 0.0
H1408 H 0.83791 0.11258 0.47537 0.0
H1409 H 0.85145 0.09537 0.45617 0.0
C1410 C 0.94137 0.39373 0.63429 0.0
C1411 C 0.93148 0.40715 0.62543 0.0
C1412 C 0.9309 0.38719 0.6454 0.0
C1413 C 0.88763 0.40072 0.66723 0.0
H1414 H 0.89007 0.34197 0.67662 0.0
C1415 C 0.86036 0.36904 0.71657 0.0
C1416 C 0.84872 0.35035 0.71659 0.0
C1417 C 0.86949 0.37642 0.70523 0.0
C1418 C 0.88913 0.35839 0.67407 0.0
H1419 H 0.90278 0.42422 0.62139 0.0
H1420 H 0.88469 0.41307 0.6409 0.0
H1421 H 0.9082 0.35414 0.65731 0.0
H1422 H 0.83729 0.32483 0.70475 0.0
H1423 H 0.85339 0.33768 0.6849 0.0
H1424 H 0.86855 0.40495 0.68401 0.0
C1425 C 0.9006 0.40773 0.63925 0.0
C1426 C 0.89968 0.36539 0.6631 0.0
C1427 C 0.91101 0.41417 0.62809 0.0
C1428 C 0.84618 0.33928 0.70501 0.0
C1429 C 0.85548 0.34657 0.69368 0.0
C1430 C 0.87722 0.39374 0.67827 0.0
C1431 C 0.91037 0.39402 0.64795 0.0
C1432 C 0.89908 0.38663 0.65958 0.0
C1433 C 0.86733 0.36515 0.69369 0.0
C1434 C 0.87788 0.37251 0.6818 0.0
H1435 H 0.95725 0.38831 0.63266 0.0
H1436 H 0.93894 0.37688 0.65204 0.0
H1437 H 0.88699 0.4172 0.66479 0.0
H1438 H 0.86258 0.3779 0.72536 0.0
H1439 H 0.87869 0.39069 0.70555 0.0
C1440 C 0.56227 0.10654 0.36602 0.0
C1441 C 0.5726 0.09332 0.37479 0.0
C1442 C 0.57189 0.11232 0.35448 0.0
C1443 C 0.59119 0.11427 0.32786 0.0
H1444 H 0.65051 0.12782 0.32855 0.0
C1445 C 0.63667 0.1369 0.28181 0.0
C1446 C 0.65124 0.15332 0.28291 0.0
C1447 C 0.62745 0.12821 0.29279 0.0
C1448 C 0.63391 0.12422 0.3282 0.0
H1449 H 0.60113 0.07562 0.37817 0.0
H1450 H 0.61765 0.0852 0.35787 0.0
H1451 H 0.6334 0.11537 0.34804 0.0
H1452 H 0.6676 0.17353 0.29634 0.0
H1453 H 0.65125 0.15871 0.31547 0.0
H1454 H 0.59153 0.1239 0.30815 0.0
C1455 C 0.60222 0.09139 0.36002 0.0
C1456 C 0.62415 0.1168 0.33935 0.0
C1457 C 0.59263 0.08567 0.3716 0.0
C1458 C 0.65648 0.16083 0.2952 0.0
C1459 C 0.6472 0.15223 0.30617 0.0
C1460 C 0.60094 0.12177 0.31673 0.0
C1461 C 0.59205 0.10494 0.35137 0.0
C1462 C 0.60263 0.11188 0.33934 0.0
C1463 C 0.63255 0.13583 0.3051 0.0
C1464 C 0.62238 0.127 0.31679 0.0
H1465 H 0.54672 0.1125 0.36809 0.0
H1466 H 0.56368 0.12296 0.34812 0.0
H1467 H 0.57466 0.11037 0.32747 0.0
H1468 H 0.63241 0.13072 0.27245 0.0
H1469 H 0.61646 0.11541 0.29163 0.0
C1470 C 0.88699 0.06939 0.62363 0.0
C1471 C 0.90574 0.07544 0.62979 0.0
C1472 C 0.88047 0.07927 0.61234 0.0
C1473 C 0.89785 0.10612 0.58389 0.0
H1474 H 0.84324 0.13288 0.58396 0.0
C1475 C 0.86798 0.15231 0.53974 0.0
C1476 C 0.84643 0.15149 0.537 0.0
C1477 C 0.87576 0.14411 0.55127 0.0
C1478 C 0.85837 0.12521 0.58366 0.0
H1479 H 0.93247 0.09653 0.62857 0.0
H1480 H 0.92143 0.11299 0.60846 0.0
H1481 H 0.85592 0.11562 0.60337 0.0
H1482 H 0.8161 0.14132 0.54403 0.0
H1483 H 0.82963 0.12611 0.56381 0.0
H1484 H 0.90006 0.11468 0.56407 0.0
C1485 C 0.91178 0.10074 0.61259 0.0
C1486 C 0.86566 0.11548 0.59482 0.0
C1487 C 0.91813 0.09117 0.62406 0.0
C1488 C 0.83278 0.14232 0.54596 0.0
C1489 C 0.84058 0.13374 0.55736 0.0
C1490 C 0.89039 0.11547 0.57261 0.0
C1491 C 0.89275 0.09507 0.60677 0.0
C1492 C 0.88541 0.10582 0.59502 0.0
C1493 C 0.86219 0.13452 0.5602 0.0
C1494 C 0.87048 0.12509 0.57232 0.0
H1495 H 0.87728 0.057 0.62751 0.0
H1496 H 0.86585 0.07447 0.6079 0.0
H1497 H 0.9131 0.09862 0.58382 0.0
H1498 H 0.87883 0.15945 0.53301 0.0
H1499 H 0.89241 0.14544 0.55318 0.0
C1500 C 0.92244 0.41846 0.86977 0.0
C1501 C 0.91933 0.40604 0.88077 0.0
C1502 C 0.91297 0.41309 0.85809 0.0
C1503 C 0.86999 0.38136 0.84414 0.0
H1504 H 0.90386 0.38304 0.81316 0.0
C1505 C 0.84512 0.33993 0.79727 0.0
C1506 C 0.84881 0.3504 0.78561 0.0
C1507 C 0.85303 0.34791 0.80881 0.0
C1508 C 0.89409 0.38275 0.82169 0.0
H1509 H 0.90329 0.37865 0.88825 0.0
H1510 H 0.88705 0.36911 0.86786 0.0
H1511 H 0.91866 0.39524 0.83346 0.0
H1512 H 0.86355 0.3775 0.77687 0.0
H1513 H 0.87728 0.39154 0.79703 0.0
H1514 H 0.8455 0.36866 0.8324 0.0
C1515 C 0.89671 0.38306 0.86825 0.0
C1516 C 0.90258 0.38975 0.83332 0.0
C1517 C 0.90621 0.38839 0.8799 0.0
C1518 C 0.86051 0.36906 0.7857 0.0
C1519 C 0.86846 0.37703 0.79724 0.0
C1520 C 0.86151 0.37436 0.83251 0.0
C1521 C 0.9001 0.39525 0.85719 0.0
C1522 C 0.89068 0.38894 0.8447 0.0
C1523 C 0.86482 0.36654 0.80893 0.0
C1524 C 0.87353 0.37479 0.82118 0.0
H1525 H 0.93256 0.43209 0.87012 0.0
H1526 H 0.91572 0.42291 0.84975 0.0
H1527 H 0.8603 0.38085 0.8527 0.0
H1528 H 0.83617 0.32548 0.79749 0.0
H1529 H 0.85019 0.33931 0.81762 0.0
C1530 C 0.55641 0.38779 0.1206 0.0
C1531 C 0.56304 0.40573 0.12738 0.0
C1532 C 0.5669 0.38135 0.10948 0.0
C1533 C 0.59686 0.39923 0.08238 0.0
H1534 H 0.62285 0.34436 0.08195 0.0
C1535 C 0.64825 0.37273 0.03966 0.0
C1536 C 0.64772 0.3515 0.03621 0.0
C1537 C 0.63863 0.37954 0.05101 0.0
C1538 C 0.6154 0.35958 0.08177 0.0
H1539 H 0.58614 0.43084 0.12757 0.0
H1540 H 0.60357 0.42011 0.10778 0.0
H1541 H 0.60355 0.35577 0.10095 0.0
H1542 H 0.63659 0.32074 0.04177 0.0
H1543 H 0.61894 0.33263 0.06115 0.0
H1544 H 0.60773 0.40289 0.06308 0.0
C1545 C 0.59033 0.41105 0.11125 0.0
C1546 C 0.60447 0.36612 0.0927 0.0
C1547 C 0.58018 0.41725 0.12253 0.0
C1548 C 0.63742 0.33719 0.04428 0.0
C1549 C 0.62741 0.34404 0.05546 0.0
C1550 C 0.60738 0.39253 0.07132 0.0
C1551 C 0.58391 0.39295 0.10473 0.0
C1552 C 0.59518 0.38599 0.09309 0.0
C1553 C 0.62786 0.36532 0.05901 0.0
C1554 C 0.61685 0.37261 0.07086 0.0
H1555 H 0.54305 0.37872 0.12383 0.0
H1556 H 0.5616 0.36741 0.1045 0.0
H1557 H 0.58968 0.4146 0.08248 0.0
H1558 H 0.65622 0.38406 0.03363 0.0
H1559 H 0.63976 0.39596 0.0535 0.0
loop_
_geom_bond_atom_site_label_1
_geom_bond_atom_site_label_2
_geom_bond_distance
_geom_bond_site_symmetry_2
_ccdc_geom_bond_type
H0 C27 0.929 . S
N1 C26 1.433 . S
N1 C32 1.435 . S
N1 C38 1.423 . S
H2 C28 0.930 . S
H3 C31 0.931 . S
H4 C30 0.929 . S
H5 C33 0.930 . S
H6 C34 0.932 . S
H7 C37 0.929 . S
H8 C36 0.931 . S
H9 C39 0.929 . S
H10 C43 0.932 . S
H11 C40 0.931 . S
H12 C42 0.929 . S
H13 C45 0.929 . S
H14 C46 0.930 . S
H15 C48 0.929 . S
H16 C49 0.931 . S
H17 C51 0.930 . S
H18 C52 0.932 . S
H19 C54 0.931 . S
H20 C55 0.929 . S
H21 C57 0.929 . S
H22 C58 0.911 1_455 S
H23 C60 0.929 . S
N24 C44 1.433 . S
N24 C50 1.435 . S
N24 C56 1.423 . S
H25 C61 0.932 . S
C26 N1 1.433 . S
C26 C27 1.363 . S
C26 C31 1.370 . S
C27 H0 0.929 . S
C27 C26 1.363 . S
C27 C28 1.385 . S
C28 H2 0.930 . S
C28 C27 1.385 . S
C28 C29 1.357 . S
C29 C28 1.357 . S
C29 C30 1.406 . S
C30 H4 0.929 . S
C30 C29 1.406 . S
C30 C31 1.391 . S
C31 H3 0.931 . S
C31 C26 1.370 . S
C31 C30 1.391 . S
C32 N1 1.435 . S
C32 C33 1.358 . S
C32 C37 1.371 . S
C33 H5 0.930 . S
C33 C32 1.358 . S
C33 C34 1.405 . S
C34 H6 0.932 . S
C34 C33 1.405 . S
C34 C35 1.383 . S
C35 C34 1.383 . S
C35 C36 1.393 . S
C36 H8 0.931 . S
C36 C35 1.393 . S
C36 C37 1.382 . S
C37 H7 0.929 . S
C37 C32 1.371 . S
C37 C36 1.382 . S
C38 N1 1.423 . S
C38 C39 1.362 . S
C38 C43 1.388 . S
C39 H9 0.929 . S
C39 C38 1.362 . S
C39 C40 1.376 1_565 S
C40 H11 0.931 . S
C40 C39 1.376 1_545 S
C40 C41 1.396 . S
C41 C40 1.396 . S
C41 C42 1.348 1_545 S
C41 C59 1.472 . S
C42 H12 0.929 . S
C42 C41 1.348 1_565 S
C42 C43 1.443 . S
C43 H10 0.932 . S
C43 C38 1.388 . S
C43 C42 1.443 . S
C44 N24 1.433 . S
C44 C45 1.363 . S
C44 C49 1.370 . S
C45 H13 0.929 . S
C45 C44 1.363 . S
C45 C46 1.385 . S
C46 H14 0.930 . S
C46 C45 1.385 . S
C46 C47 1.357 . S
C47 C46 1.357 . S
C47 C48 1.406 . S
C48 H15 0.929 . S
C48 C47 1.406 . S
C48 C49 1.391 . S
C49 H16 0.931 . S
C49 C44 1.370 . S
C49 C48 1.391 . S
C50 N24 1.435 . S
C50 C51 1.358 . S
C50 C55 1.371 . S
C51 H17 0.930 . S
C51 C50 1.358 . S
C51 C52 1.405 . S
C52 H18 0.932 . S
C52 C51 1.405 . S
C52 C53 1.383 . S
C53 C52 1.383 . S
C53 C54 1.393 . S
C54 H19 0.931 . S
C54 C53 1.393 . S
C54 C55 1.382 . S
C55 H20 0.929 . S
C55 C50 1.371 . S
C55 C54 1.382 . S
C56 N24 1.423 . S
C56 C57 1.362 . S
C56 C61 1.388 . S
C57 H21 0.929 . S
C57 C56 1.362 . S
C57 C58 1.399 . S
C58 H22 0.911 1_655 S
C58 C57 1.399 . S
C58 C59 1.394 1_655 S
C59 C41 1.472 . S
C59 C58 1.394 1_455 S
C59 C60 1.348 1_455 S
C60 H23 0.929 . S
C60 C59 1.348 1_655 S
C60 C61 1.443 . S
C61 H25 0.932 . S
C61 C56 1.388 . S
C61 C60 1.443 . S
H62 C89 0.929 . S
N63 C88 1.433 . S
N63 C94 1.435 . S
N63 C100 1.423 . S
H64 C90 0.930 . S
H65 C93 0.931 . S
H66 C92 0.929 . S
H67 C95 0.930 . S
H68 C96 0.932 . S
H69 C99 0.929 . S
H70 C98 0.931 . S
H71 C101 0.929 . S
H72 C105 0.932 . S
H73 C102 0.931 . S
H74 C104 0.929 . S
H75 C107 0.929 . S
H76 C108 0.930 . S
H77 C110 0.929 . S
H78 C111 0.931 . S
H79 C113 0.930 . S
H80 C114 0.932 . S
H81 C116 0.931 . S
H82 C117 0.929 . S
H83 C119 0.929 . S
H84 C120 0.931 . S
H85 C122 0.929 . S
N86 C106 1.433 . S
N86 C112 1.435 . S
N86 C118 1.423 . S
H87 C123 0.932 . S
C88 N63 1.433 . S
C88 C89 1.363 . S
C88 C93 1.370 . S
C89 H62 0.929 . S
C89 C88 1.363 . S
C89 C90 1.385 . S
C90 H64 0.930 . S
C90 C89 1.385 . S
C90 C91 1.357 . S
C91 C90 1.357 . S
C91 C92 1.406 . S
C92 H66 0.929 . S
C92 C91 1.406 . S
C92 C93 1.391 . S
C93 H65 0.931 . S
C93 C88 1.370 . S
C93 C92 1.391 . S
C94 N63 1.435 . S
C94 C95 1.358 . S
C94 C99 1.371 . S
C95 H67 0.930 . S
C95 C94 1.358 . S
C95 C96 1.405 . S
C96 H68 0.932 . S
C96 C95 1.405 . S
C96 C97 1.383 . S
C97 C96 1.383 . S
C97 C98 1.393 . S
C98 H70 0.931 . S
C98 C97 1.393 . S
C98 C99 1.382 . S
C99 H69 0.929 . S
C99 C94 1.371 . S
C99 C98 1.382 . S
C100 N63 1.423 . S
C100 C101 1.362 . S
C100 C105 1.388 . S
C101 H71 0.929 . S
C101 C100 1.362 . S
C101 C102 1.376 1_655 S
C102 H73 0.931 . S
C102 C101 1.376 1_455 S
C102 C103 1.396 . S
C103 C102 1.396 . S
C103 C104 1.348 1_455 S
C103 C121 1.472 . S
C104 H74 0.929 . S
C104 C103 1.348 1_655 S
C104 C105 1.443 . S
C105 H72 0.932 . S
C105 C100 1.388 . S
C105 C104 1.443 . S
C106 N86 1.433 . S
C106 C107 1.363 . S
C106 C111 1.370 . S
C107 H75 0.929 . S
C107 C106 1.363 . S
C107 C108 1.385 . S
C108 H76 0.930 . S
C108 C107 1.385 . S
C108 C109 1.357 . S
C109 C108 1.357 . S
C109 C110 1.406 . S
C110 H77 0.929 . S
C110 C109 1.406 . S
C110 C111 1.391 . S
C111 H78 0.931 . S
C111 C106 1.370 . S
C111 C110 1.391 . S
C112 N86 1.435 . S
C112 C113 1.358 . S
C112 C117 1.371 . S
C113 H79 0.930 . S
C113 C112 1.358 . S
C113 C114 1.405 . S
C114 H80 0.932 . S
C114 C113 1.405 . S
C114 C115 1.383 . S
C115 C114 1.383 . S
C115 C116 1.393 . S
C116 H81 0.931 . S
C116 C115 1.393 . S
C116 C117 1.382 . S
C117 H82 0.929 . S
C117 C112 1.371 . S
C117 C116 1.382 . S
C118 N86 1.423 . S
C118 C119 1.362 . S
C118 C123 1.388 . S
C119 H83 0.929 . S
C119 C118 1.362 . S
C119 C120 1.376 . S
C120 H84 0.931 . S
C120 C119 1.376 . S
C120 C121 1.396 . S
C121 C103 1.472 . S
C121 C120 1.396 . S
C121 C122 1.348 . S
C122 H85 0.929 . S
C122 C121 1.348 . S
C122 C123 1.443 . S
C123 H87 0.932 . S
C123 C118 1.388 . S
C123 C122 1.443 . S
H124 C151 0.929 . S
N125 C150 1.433 . S
N125 C156 1.435 . S
N125 C162 1.423 . S
H126 C152 0.930 . S
H127 C155 0.931 . S
H128 C154 0.929 . S
H129 C157 0.930 . S
H130 C158 0.932 . S
H131 C161 0.929 . S
H132 C160 0.931 . S
H133 C163 0.929 . S
H134 C167 0.932 . S
H135 C164 0.931 . S
H136 C166 0.929 . S
H137 C169 0.929 . S
H138 C170 0.930 . S
H139 C172 0.929 . S
H140 C173 0.931 . S
H141 C175 0.930 . S
H142 C176 0.932 . S
H143 C178 0.931 . S
H144 C179 0.929 . S
H145 C181 0.929 . S
H146 C182 0.931 . S
H147 C184 0.929 . S
N148 C168 1.433 . S
N148 C174 1.435 . S
N148 C180 1.423 . S
H149 C185 0.932 . S
C150 N125 1.433 . S
C150 C151 1.363 . S
C150 C155 1.370 . S
C151 H124 0.929 . S
C151 C150 1.363 . S
C151 C152 1.385 . S
C152 H126 0.930 . S
C152 C151 1.385 . S
C152 C153 1.357 . S
C153 C152 1.357 . S
C153 C154 1.406 . S
C154 H128 0.929 . S
C154 C153 1.406 . S
C154 C155 1.391 . S
C155 H127 0.931 . S
C155 C150 1.370 . S
C155 C154 1.391 . S
C156 N125 1.435 . S
C156 C157 1.358 . S
C156 C161 1.371 . S
C157 H129 0.930 . S
C157 C156 1.358 . S
C157 C158 1.405 . S
C158 H130 0.932 . S
C158 C157 1.405 . S
C158 C159 1.383 . S
C159 C158 1.383 . S
C159 C160 1.393 . S
C160 H132 0.931 . S
C160 C159 1.393 . S
C160 C161 1.382 . S
C161 H131 0.929 . S
C161 C156 1.371 . S
C161 C160 1.382 . S
C162 N125 1.423 . S
C162 C163 1.362 . S
C162 C167 1.388 . S
C163 H133 0.929 . S
C163 C162 1.362 . S
C163 C164 1.376 . S
C164 H135 0.931 . S
C164 C163 1.376 . S
C164 C165 1.396 . S
C165 C164 1.396 . S
C165 C166 1.348 . S
C165 C183 1.472 . S
C166 H136 0.929 . S
C166 C165 1.348 . S
C166 C167 1.443 . S
C167 H134 0.932 . S
C167 C162 1.388 . S
C167 C166 1.443 . S
C168 N148 1.433 . S
C168 C169 1.363 . S
C168 C173 1.370 . S
C169 H137 0.929 . S
C169 C168 1.363 . S
C169 C170 1.385 . S
C170 H138 0.930 . S
C170 C169 1.385 . S
C170 C171 1.357 . S
C171 C170 1.357 . S
C171 C172 1.406 . S
C172 H139 0.929 . S
C172 C171 1.406 . S
C172 C173 1.391 . S
C173 H140 0.931 . S
C173 C168 1.370 . S
C173 C172 1.391 . S
C174 N148 1.435 . S
C174 C175 1.358 . S
C174 C179 1.371 . S
C175 H141 0.930 . S
C175 C174 1.358 . S
C175 C176 1.405 . S
C176 H142 0.932 . S
C176 C175 1.405 . S
C176 C177 1.383 . S
C177 C176 1.383 . S
C177 C178 1.393 . S
C178 H143 0.931 . S
C178 C177 1.393 . S
C178 C179 1.382 . S
C179 H144 0.929 . S
C179 C174 1.371 . S
C179 C178 1.382 . S
C180 N148 1.423 . S
C180 C181 1.362 . S
C180 C185 1.388 . S
C181 H145 0.929 . S
C181 C180 1.362 . S
C181 C182 1.376 . S
C182 H146 0.931 . S
C182 C181 1.376 . S
C182 C183 1.396 . S
C183 C165 1.472 . S
C183 C182 1.396 . S
C183 C184 1.348 . S
C184 H147 0.929 . S
C184 C183 1.348 . S
C184 C185 1.443 . S
C185 H149 0.932 . S
C185 C180 1.388 . S
C185 C184 1.443 . S
H186 C213 0.929 . S
N187 C212 1.433 . S
N187 C218 1.435 . S
N187 C224 1.423 . S
H188 C214 0.930 . S
H189 C217 0.931 . S
H190 C216 0.929 . S
H191 C219 0.930 . S
H192 C220 0.932 . S
H193 C223 0.929 . S
H194 C222 0.931 . S
H195 C225 0.929 . S
H196 C229 0.932 . S
H197 C226 0.931 . S
H198 C228 0.929 . S
H199 C231 0.929 . S
H200 C232 0.930 . S
H201 C234 0.929 . S
H202 C235 0.931 . S
H203 C237 0.930 . S
H204 C238 0.932 . S
H205 C240 0.931 . S
H206 C241 0.929 . S
H207 C243 0.929 . S
H208 C244 0.931 1_565 S
H209 C246 0.929 . S
N210 C230 1.433 . S
N210 C236 1.435 . S
N210 C242 1.423 . S
H211 C247 0.932 . S
C212 N187 1.433 . S
C212 C213 1.363 . S
C212 C217 1.370 . S
C213 H186 0.929 . S
C213 C212 1.363 . S
C213 C214 1.385 . S
C214 H188 0.930 . S
C214 C213 1.385 . S
C214 C215 1.357 . S
C215 C214 1.357 . S
C215 C216 1.406 . S
C216 H190 0.929 . S
C216 C215 1.406 . S
C216 C217 1.391 . S
C217 H189 0.931 . S
C217 C212 1.370 . S
C217 C216 1.391 . S
C218 N187 1.435 . S
C218 C219 1.358 . S
C218 C223 1.371 . S
C219 H191 0.930 . S
C219 C218 1.358 . S
C219 C220 1.405 . S
C220 H192 0.932 . S
C220 C219 1.405 . S
C220 C221 1.383 . S
C221 C220 1.383 . S
C221 C222 1.393 . S
C222 H194 0.931 . S
C222 C221 1.393 . S
C222 C223 1.382 . S
C223 H193 0.929 . S
C223 C218 1.371 . S
C223 C222 1.382 . S
C224 N187 1.423 . S
C224 C225 1.362 . S
C224 C229 1.388 . S
C225 H195 0.929 . S
C225 C224 1.362 . S
C225 C226 1.376 . S
C226 H197 0.931 . S
C226 C225 1.376 . S
C226 C227 1.396 . S
C227 C226 1.396 . S
C227 C228 1.348 . S
C227 C245 1.436 1_565 S
C228 H198 0.929 . S
C228 C227 1.348 . S
C228 C229 1.443 . S
C229 H196 0.932 . S
C229 C224 1.388 . S
C229 C228 1.443 . S
C230 N210 1.433 . S
C230 C231 1.363 . S
C230 C235 1.370 . S
C231 H199 0.929 . S
C231 C230 1.363 . S
C231 C232 1.385 . S
C232 H200 0.930 . S
C232 C231 1.385 . S
C232 C233 1.357 . S
C233 C232 1.357 . S
C233 C234 1.406 . S
C234 H201 0.929 . S
C234 C233 1.406 . S
C234 C235 1.391 . S
C235 H202 0.931 . S
C235 C230 1.370 . S
C235 C234 1.391 . S
C236 N210 1.435 . S
C236 C237 1.358 . S
C236 C241 1.371 . S
C237 H203 0.930 . S
C237 C236 1.358 . S
C237 C238 1.405 . S
C238 H204 0.932 . S
C238 C237 1.405 . S
C238 C239 1.383 . S
C239 C238 1.383 . S
C239 C240 1.393 . S
C240 H205 0.931 . S
C240 C239 1.393 . S
C240 C241 1.382 . S
C241 H206 0.929 . S
C241 C236 1.371 . S
C241 C240 1.382 . S
C242 N210 1.423 . S
C242 C243 1.362 . S
C242 C247 1.388 . S
C243 H207 0.929 . S
C243 C242 1.362 . S
C243 C244 1.376 . S
C244 H208 0.931 1_545 S
C244 C243 1.376 . S
C244 C245 1.401 . S
C245 C227 1.436 1_545 S
C245 C244 1.401 . S
C245 C246 1.383 . S
C246 H209 0.929 . S
C246 C245 1.383 . S
C246 C247 1.443 . S
C247 H211 0.932 . S
C247 C242 1.388 . S
C247 C246 1.443 . S
H248 C275 0.929 . S
N249 C274 1.433 . S
N249 C280 1.435 . S
N249 C286 1.423 . S
H250 C276 0.930 . S
H251 C279 0.931 . S
H252 C278 0.929 . S
H253 C281 0.930 . S
H254 C282 0.932 . S
H255 C285 0.929 . S
H256 C284 0.931 . S
H257 C287 0.929 . S
H258 C291 0.932 . S
H259 C288 0.931 . S
H260 C290 0.929 . S
H261 C293 0.929 . S
H262 C294 0.930 . S
H263 C296 0.929 . S
H264 C297 0.931 . S
H265 C299 0.930 . S
H266 C300 0.932 . S
H267 C302 0.931 . S
H268 C303 0.929 . S
H269 C305 0.929 . S
H270 C306 0.931 1_455 S
H271 C308 0.929 . S
N272 C292 1.433 . S
N272 C298 1.435 . S
N272 C304 1.423 . S
H273 C309 0.932 . S
C274 N249 1.433 . S
C274 C275 1.363 . S
C274 C279 1.370 . S
C275 H248 0.929 . S
C275 C274 1.363 . S
C275 C276 1.385 . S
C276 H250 0.930 . S
C276 C275 1.385 . S
C276 C277 1.357 . S
C277 C276 1.357 . S
C277 C278 1.406 . S
C278 H252 0.929 . S
C278 C277 1.406 . S
C278 C279 1.391 . S
C279 H251 0.931 . S
C279 C274 1.370 . S
C279 C278 1.391 . S
C280 N249 1.435 . S
C280 C281 1.358 . S
C280 C285 1.371 . S
C281 H253 0.930 . S
C281 C280 1.358 . S
C281 C282 1.405 . S
C282 H254 0.932 . S
C282 C281 1.405 . S
C282 C283 1.383 . S
C283 C282 1.383 . S
C283 C284 1.393 . S
C284 H256 0.931 . S
C284 C283 1.393 . S
C284 C285 1.382 . S
C285 H255 0.929 . S
C285 C280 1.371 . S
C285 C284 1.382 . S
C286 N249 1.423 . S
C286 C287 1.362 . S
C286 C291 1.388 . S
C287 H257 0.929 . S
C287 C286 1.362 . S
C287 C288 1.376 . S
C288 H259 0.931 . S
C288 C287 1.376 . S
C288 C289 1.396 . S
C289 C288 1.396 . S
C289 C290 1.348 . S
C289 C307 1.518 . S
C290 H260 0.929 . S
C290 C289 1.348 . S
C290 C291 1.443 . S
C291 H258 0.932 . S
C291 C286 1.388 . S
C291 C290 1.443 . S
C292 N272 1.433 . S
C292 C293 1.363 . S
C292 C297 1.370 . S
C293 H261 0.929 . S
C293 C292 1.363 . S
C293 C294 1.385 . S
C294 H262 0.930 . S
C294 C293 1.385 . S
C294 C295 1.357 . S
C295 C294 1.357 . S
C295 C296 1.406 . S
C296 H263 0.929 . S
C296 C295 1.406 . S
C296 C297 1.391 . S
C297 H264 0.931 . S
C297 C292 1.370 . S
C297 C296 1.391 . S
C298 N272 1.435 . S
C298 C299 1.358 . S
C298 C303 1.371 . S
C299 H265 0.930 . S
C299 C298 1.358 . S
C299 C300 1.405 . S
C300 H266 0.932 . S
C300 C299 1.405 . S
C300 C301 1.383 . S
C301 C300 1.383 . S
C301 C302 1.393 . S
C302 H267 0.931 . S
C302 C301 1.393 . S
C302 C303 1.382 . S
C303 H268 0.929 . S
C303 C298 1.371 . S
C303 C302 1.382 . S
C304 N272 1.423 . S
C304 C305 1.362 . S
C304 C309 1.388 . S
C305 H269 0.929 . S
C305 C304 1.362 . S
C305 C306 1.376 . S
C306 H270 0.931 1_655 S
C306 C305 1.376 . S
C306 C307 1.391 1_655 S
C307 C289 1.518 . S
C307 C306 1.391 1_455 S
C307 C308 1.306 1_455 S
C308 H271 0.929 . S
C308 C307 1.306 1_655 S
C308 C309 1.443 . S
C309 H273 0.932 . S
C309 C304 1.388 . S
C309 C308 1.443 . S
H310 C337 0.929 . S
N311 C336 1.433 . S
N311 C342 1.435 . S
N311 C348 1.423 . S
H312 C338 0.930 . S
H313 C341 0.931 . S
H314 C340 0.929 . S
H315 C343 0.930 . S
H316 C344 0.932 . S
H317 C347 0.929 . S
H318 C346 0.931 . S
H319 C349 0.929 . S
H320 C353 0.932 . S
H321 C350 0.931 . S
H322 C352 0.929 . S
H323 C355 0.929 . S
H324 C356 0.930 . S
H325 C358 0.929 . S
H326 C359 0.931 . S
H327 C361 0.930 . S
H328 C362 0.932 . S
H329 C364 0.931 . S
H330 C365 0.929 . S
H331 C367 0.929 . S
H332 C368 0.931 . S
H333 C370 0.929 . S
N334 C354 1.433 . S
N334 C360 1.435 . S
N334 C366 1.423 . S
H335 C371 0.932 . S
C336 N311 1.433 . S
C336 C337 1.363 . S
C336 C341 1.370 . S
C337 H310 0.929 . S
C337 C336 1.363 . S
C337 C338 1.385 . S
C338 H312 0.930 . S
C338 C337 1.385 . S
C338 C339 1.357 . S
C339 C338 1.357 . S
C339 C340 1.406 . S
C340 H314 0.929 . S
C340 C339 1.406 . S
C340 C341 1.391 . S
C341 H313 0.931 . S
C341 C336 1.370 . S
C341 C340 1.391 . S
C342 N311 1.435 . S
C342 C343 1.358 . S
C342 C347 1.371 . S
C343 H315 0.930 . S
C343 C342 1.358 . S
C343 C344 1.405 . S
C344 H316 0.932 . S
C344 C343 1.405 . S
C344 C345 1.383 . S
C345 C344 1.383 . S
C345 C346 1.393 . S
C346 H318 0.931 . S
C346 C345 1.393 . S
C346 C347 1.382 . S
C347 H317 0.929 . S
C347 C342 1.371 . S
C347 C346 1.382 . S
C348 N311 1.423 . S
C348 C349 1.362 . S
C348 C353 1.388 . S
C349 H319 0.929 . S
C349 C348 1.362 . S
C349 C350 1.376 . S
C350 H321 0.931 . S
C350 C349 1.376 . S
C350 C351 1.396 . S
C351 C350 1.396 . S
C351 C352 1.348 . S
C351 C369 1.472 . S
C352 H322 0.929 . S
C352 C351 1.348 . S
C352 C353 1.443 . S
C353 H320 0.932 . S
C353 C348 1.388 . S
C353 C352 1.443 . S
C354 N334 1.433 . S
C354 C355 1.363 . S
C354 C359 1.370 . S
C355 H323 0.929 . S
C355 C354 1.363 . S
C355 C356 1.385 . S
C356 H324 0.930 . S
C356 C355 1.385 . S
C356 C357 1.357 . S
C357 C356 1.357 . S
C357 C358 1.406 . S
C358 H325 0.929 . S
C358 C357 1.406 . S
C358 C359 1.391 . S
C359 H326 0.931 . S
C359 C354 1.370 . S
C359 C358 1.391 . S
C360 N334 1.435 . S
C360 C361 1.358 . S
C360 C365 1.371 . S
C361 H327 0.930 . S
C361 C360 1.358 . S
C361 C362 1.405 . S
C362 H328 0.932 . S
C362 C361 1.405 . S
C362 C363 1.383 . S
C363 C362 1.383 . S
C363 C364 1.393 . S
C364 H329 0.931 . S
C364 C363 1.393 . S
C364 C365 1.382 . S
C365 H330 0.929 . S
C365 C360 1.371 . S
C365 C364 1.382 . S
C366 N334 1.423 . S
C366 C367 1.362 . S
C366 C371 1.388 . S
C367 H331 0.929 . S
C367 C366 1.362 . S
C367 C368 1.376 . S
C368 H332 0.931 . S
C368 C367 1.376 . S
C368 C369 1.396 . S
C369 C351 1.472 . S
C369 C368 1.396 . S
C369 C370 1.348 . S
C370 H333 0.929 . S
C370 C369 1.348 . S
C370 C371 1.443 . S
C371 H335 0.932 . S
C371 C366 1.388 . S
C371 C370 1.443 . S
H372 C399 0.929 . S
N373 C398 1.433 . S
N373 C404 1.435 . S
N373 C410 1.423 . S
H374 C400 0.930 . S
H375 C403 0.931 . S
H376 C402 0.929 . S
H377 C405 0.930 . S
H378 C406 0.932 . S
H379 C409 0.929 . S
H380 C408 0.931 . S
H381 C411 0.929 . S
H382 C415 0.932 . S
H383 C412 0.931 . S
H384 C414 0.929 . S
H385 C417 0.929 . S
H386 C418 0.930 . S
H387 C420 0.929 . S
H388 C421 0.931 . S
H389 C423 0.930 . S
H390 C424 0.932 . S
H391 C426 0.931 . S
H392 C427 0.929 . S
H393 C429 0.929 . S
H394 C430 0.931 . S
H395 C432 0.929 . S
N396 C416 1.433 . S
N396 C422 1.435 . S
N396 C428 1.423 . S
H397 C433 0.932 . S
C398 N373 1.433 . S
C398 C399 1.363 . S
C398 C403 1.370 . S
C399 H372 0.929 . S
C399 C398 1.363 . S
C399 C400 1.385 . S
C400 H374 0.930 . S
C400 C399 1.385 . S
C400 C401 1.357 . S
C401 C400 1.357 . S
C401 C402 1.406 . S
C402 H376 0.929 . S
C402 C401 1.406 . S
C402 C403 1.391 . S
C403 H375 0.931 . S
C403 C398 1.370 . S
C403 C402 1.391 . S
C404 N373 1.435 . S
C404 C405 1.358 . S
C404 C409 1.371 . S
C405 H377 0.930 . S
C405 C404 1.358 . S
C405 C406 1.405 . S
C406 H378 0.932 . S
C406 C405 1.405 . S
C406 C407 1.383 . S
C407 C406 1.383 . S
C407 C408 1.393 . S
C408 H380 0.931 . S
C408 C407 1.393 . S
C408 C409 1.382 . S
C409 H379 0.929 . S
C409 C404 1.371 . S
C409 C408 1.382 . S
C410 N373 1.423 . S
C410 C411 1.362 . S
C410 C415 1.388 . S
C411 H381 0.929 . S
C411 C410 1.362 . S
C411 C412 1.376 1_565 S
C412 H383 0.931 . S
C412 C411 1.376 1_545 S
C412 C413 1.396 . S
C413 C412 1.396 . S
C413 C414 1.348 1_545 S
C413 C431 1.472 . S
C414 H384 0.929 . S
C414 C413 1.348 1_565 S
C414 C415 1.443 . S
C415 H382 0.932 . S
C415 C410 1.388 . S
C415 C414 1.443 . S
C416 N396 1.433 . S
C416 C417 1.363 . S
C416 C421 1.370 . S
C417 H385 0.929 . S
C417 C416 1.363 . S
C417 C418 1.385 . S
C418 H386 0.930 . S
C418 C417 1.385 . S
C418 C419 1.357 . S
C419 C418 1.357 . S
C419 C420 1.406 . S
C420 H387 0.929 . S
C420 C419 1.406 . S
C420 C421 1.391 . S
C421 H388 0.931 . S
C421 C416 1.370 . S
C421 C420 1.391 . S
C422 N396 1.435 . S
C422 C423 1.358 . S
C422 C427 1.371 . S
C423 H389 0.930 . S
C423 C422 1.358 . S
C423 C424 1.405 . S
C424 H390 0.932 . S
C424 C423 1.405 . S
C424 C425 1.383 . S
C425 C424 1.383 . S
C425 C426 1.393 . S
C426 H391 0.931 . S
C426 C425 1.393 . S
C426 C427 1.382 . S
C427 H392 0.929 . S
C427 C422 1.371 . S
C427 C426 1.382 . S
C428 N396 1.423 . S
C428 C429 1.362 . S
C428 C433 1.388 . S
C429 H393 0.929 . S
C429 C428 1.362 . S
C429 C430 1.376 . S
C430 H394 0.931 . S
C430 C429 1.376 . S
C430 C431 1.396 . S
C431 C413 1.472 . S
C431 C430 1.396 . S
C431 C432 1.348 . S
C432 H395 0.929 . S
C432 C431 1.348 . S
C432 C433 1.443 . S
C433 H397 0.932 . S
C433 C428 1.388 . S
C433 C432 1.443 . S
H434 C461 0.929 . S
N435 C460 1.433 . S
N435 C466 1.435 . S
N435 C472 1.423 . S
H436 C462 0.930 . S
H437 C465 0.931 . S
H438 C464 0.929 . S
H439 C467 0.930 . S
H440 C468 0.932 . S
H441 C471 0.929 . S
H442 C470 0.931 . S
H443 C473 0.929 . S
H444 C477 0.932 . S
H445 C474 0.931 . S
H446 C476 0.929 . S
H447 C479 0.929 . S
H448 C480 0.930 . S
H449 C482 0.929 . S
H450 C483 0.931 . S
H451 C485 0.930 . S
H452 C486 0.932 . S
H453 C488 0.931 . S
H454 C489 0.929 . S
H455 C491 0.929 . S
H456 C492 0.931 1_565 S
H457 C494 0.929 . S
N458 C478 1.433 . S
N458 C484 1.435 . S
N458 C490 1.423 . S
H459 C495 0.932 . S
C460 N435 1.433 . S
C460 C461 1.363 . S
C460 C465 1.370 . S
C461 H434 0.929 . S
C461 C460 1.363 . S
C461 C462 1.385 . S
C462 H436 0.930 . S
C462 C461 1.385 . S
C462 C463 1.357 . S
C463 C462 1.357 . S
C463 C464 1.406 . S
C464 H438 0.929 . S
C464 C463 1.406 . S
C464 C465 1.391 . S
C465 H437 0.931 . S
C465 C460 1.370 . S
C465 C464 1.391 . S
C466 N435 1.435 . S
C466 C467 1.358 . S
C466 C471 1.371 . S
C467 H439 0.930 . S
C467 C466 1.358 . S
C467 C468 1.405 . S
C468 H440 0.932 . S
C468 C467 1.405 . S
C468 C469 1.383 . S
C469 C468 1.383 . S
C469 C470 1.393 . S
C470 H442 0.931 . S
C470 C469 1.393 . S
C470 C471 1.382 . S
C471 H441 0.929 . S
C471 C466 1.371 . S
C471 C470 1.382 . S
C472 N435 1.423 . S
C472 C473 1.362 . S
C472 C477 1.388 . S
C473 H443 0.929 . S
C473 C472 1.362 . S
C473 C474 1.376 1_455 S
C474 H445 0.931 . S
C474 C473 1.376 1_655 S
C474 C475 1.396 . S
C475 C474 1.396 . S
C475 C476 1.348 1_655 S
C475 C493 1.468 1_565 S
C476 H446 0.929 . S
C476 C475 1.348 1_455 S
C476 C477 1.443 . S
C477 H444 0.932 . S
C477 C472 1.388 . S
C477 C476 1.443 . S
C478 N458 1.433 . S
C478 C479 1.363 . S
C478 C483 1.370 . S
C479 H447 0.929 . S
C479 C478 1.363 . S
C479 C480 1.385 . S
C480 H448 0.930 . S
C480 C479 1.385 . S
C480 C481 1.357 . S
C481 C480 1.357 . S
C481 C482 1.406 . S
C482 H449 0.929 . S
C482 C481 1.406 . S
C482 C483 1.391 . S
C483 H450 0.931 . S
C483 C478 1.370 . S
C483 C482 1.391 . S
C484 N458 1.435 . S
C484 C485 1.358 . S
C484 C489 1.371 . S
C485 H451 0.930 . S
C485 C484 1.358 . S
C485 C486 1.405 . S
C486 H452 0.932 . S
C486 C485 1.405 . S
C486 C487 1.383 . S
C487 C486 1.383 . S
C487 C488 1.393 . S
C488 H453 0.931 . S
C488 C487 1.393 . S
C488 C489 1.382 . S
C489 H454 0.929 . S
C489 C484 1.371 . S
C489 C488 1.382 . S
C490 N458 1.423 . S
C490 C491 1.362 . S
C490 C495 1.388 . S
C491 H455 0.929 . S
C491 C490 1.362 . S
C491 C492 1.376 . S
C492 H456 0.931 1_545 S
C492 C491 1.376 . S
C492 C493 1.396 . S
C493 C475 1.468 1_545 S
C493 C492 1.396 . S
C493 C494 1.352 . S
C494 H457 0.929 . S
C494 C493 1.352 . S
C494 C495 1.443 . S
C495 H459 0.932 . S
C495 C490 1.388 . S
C495 C494 1.443 . S
In496 O497 2.294 . S
In496 O498 2.326 . S
In496 O502 2.266 1_554 S
In496 O503 2.326 1_554 S
In496 O504 2.266 1_554 S
In496 O505 2.326 1_554 S
In496 O507 2.294 . S
In496 O508 2.326 . S
O497 In496 2.294 . S
O497 C506 1.240 . S
O498 In496 2.326 . S
O498 C506 1.252 . S
C499 O502 1.252 . S
C499 O503 1.260 . S
C500 O507 1.240 . S
C500 O508 1.252 . S
C501 O504 1.252 . S
C501 O505 1.260 . S
O502 In496 2.266 1_556 S
O502 C499 1.252 . S
O503 In496 2.326 1_556 S
O503 C499 1.260 . S
O504 In496 2.266 1_556 S
O504 C501 1.252 . S
O505 In496 2.326 1_556 S
O505 C501 1.260 . S
C506 O497 1.240 . S
C506 O498 1.252 . S
O507 In496 2.294 . S
O507 C500 1.240 . S
O508 In496 2.326 . S
O508 C500 1.252 . S
In509 O510 2.294 . S
In509 O511 2.326 . S
In509 O515 2.266 . S
In509 O516 2.326 . S
In509 O517 2.266 . S
In509 O518 2.326 . S
In509 O520 2.294 . S
In509 O521 2.326 . S
O510 In509 2.294 . S
O510 C519 1.240 . S
O511 In509 2.326 . S
O511 C519 1.252 . S
C512 O515 1.252 . S
C512 O516 1.260 . S
C513 O520 1.240 . S
C513 O521 1.252 . S
C514 O517 1.252 . S
C514 O518 1.260 . S
O515 In509 2.266 . S
O515 C512 1.252 . S
O516 In509 2.326 . S
O516 C512 1.260 . S
O517 In509 2.266 . S
O517 C514 1.252 . S
O518 In509 2.326 . S
O518 C514 1.260 . S
C519 O510 1.240 . S
C519 O511 1.252 . S
O520 In509 2.294 . S
O520 C513 1.240 . S
O521 In509 2.326 . S
O521 C513 1.252 . S
In522 O523 2.294 . S
In522 O524 2.326 . S
In522 O528 2.266 . S
In522 O529 2.326 . S
In522 O530 2.266 . S
In522 O531 2.326 . S
In522 O533 2.294 . S
In522 O534 2.326 . S
O523 In522 2.294 . S
O523 C532 1.240 . S
O524 In522 2.326 . S
O524 C532 1.252 . S
C525 O528 1.252 . S
C525 O529 1.260 . S
C526 O533 1.240 . S
C526 O534 1.252 . S
C527 O530 1.252 . S
C527 O531 1.260 . S
O528 In522 2.266 . S
O528 C525 1.252 . S
O529 In522 2.326 . S
O529 C525 1.260 . S
O530 In522 2.266 . S
O530 C527 1.252 . S
O531 In522 2.326 . S
O531 C527 1.260 . S
C532 O523 1.240 . S
C532 O524 1.252 . S
O533 In522 2.294 . S
O533 C526 1.240 . S
O534 In522 2.326 . S
O534 C526 1.252 . S
In535 O536 2.294 . S
In535 O537 2.326 . S
In535 O541 2.266 . S
In535 O542 2.326 . S
In535 O543 2.266 . S
In535 O544 2.326 . S
In535 O546 2.294 . S
In535 O547 2.326 . S
O536 In535 2.294 . S
O536 C545 1.240 . S
O537 In535 2.326 . S
O537 C545 1.252 . S
C538 O541 1.252 . S
C538 O542 1.260 . S
C539 O546 1.240 . S
C539 O547 1.252 . S
C540 O543 1.252 . S
C540 O544 1.260 . S
O541 In535 2.266 . S
O541 C538 1.252 . S
O542 In535 2.326 . S
O542 C538 1.260 . S
O543 In535 2.266 . S
O543 C540 1.252 . S
O544 In535 2.326 . S
O544 C540 1.260 . S
C545 O536 1.240 . S
C545 O537 1.252 . S
O546 In535 2.294 . S
O546 C539 1.240 . S
O547 In535 2.326 . S
O547 C539 1.252 . S
In548 O549 2.294 . S
In548 O550 2.326 . S
In548 O554 2.266 . S
In548 O555 2.326 . S
In548 O556 2.266 . S
In548 O557 2.326 . S
In548 O559 2.294 . S
In548 O560 2.326 . S
O549 In548 2.294 . S
O549 C558 1.240 . S
O550 In548 2.326 . S
O550 C558 1.252 . S
C551 O554 1.252 . S
C551 O555 1.260 . S
C552 O559 1.240 . S
C552 O560 1.252 . S
C553 O556 1.252 . S
C553 O557 1.260 . S
O554 In548 2.266 . S
O554 C551 1.252 . S
O555 In548 2.326 . S
O555 C551 1.260 . S
O556 In548 2.266 . S
O556 C553 1.252 . S
O557 In548 2.326 . S
O557 C553 1.260 . S
C558 O549 1.240 . S
C558 O550 1.252 . S
O559 In548 2.294 . S
O559 C552 1.240 . S
O560 In548 2.326 . S
O560 C552 1.252 . S
In561 O562 2.294 . S
In561 O563 2.326 . S
In561 O567 2.266 . S
In561 O568 2.326 . S
In561 O569 2.266 . S
In561 O570 2.326 . S
In561 O572 2.294 . S
In561 O573 2.326 . S
O562 In561 2.294 . S
O562 C571 1.240 . S
O563 In561 2.326 . S
O563 C571 1.252 . S
C564 O567 1.252 . S
C564 O568 1.260 . S
C565 O572 1.240 . S
C565 O573 1.252 . S
C566 O569 1.252 . S
C566 O570 1.260 . S
O567 In561 2.266 . S
O567 C564 1.252 . S
O568 In561 2.326 . S
O568 C564 1.260 . S
O569 In561 2.266 . S
O569 C566 1.252 . S
O570 In561 2.326 . S
O570 C566 1.260 . S
C571 O562 1.240 . S
C571 O563 1.252 . S
O572 In561 2.294 . S
O572 C565 1.240 . S
O573 In561 2.326 . S
O573 C565 1.252 . S
In574 O575 2.294 . S
In574 O576 2.326 . S
In574 O580 2.266 1_554 S
In574 O581 2.326 1_554 S
In574 O582 2.266 1_554 S
In574 O583 2.326 1_554 S
In574 O585 2.294 . S
In574 O586 2.326 . S
O575 In574 2.294 . S
O575 C584 1.240 . S
O576 In574 2.326 . S
O576 C584 1.252 . S
C577 O580 1.252 . S
C577 O581 1.260 . S
C578 O585 1.240 . S
C578 O586 1.252 . S
C579 O582 1.252 . S
C579 O583 1.260 . S
O580 In574 2.266 1_556 S
O580 C577 1.252 . S
O581 In574 2.326 1_556 S
O581 C577 1.260 . S
O582 In574 2.266 1_556 S
O582 C579 1.252 . S
O583 In574 2.326 1_556 S
O583 C579 1.260 . S
C584 O575 1.240 . S
C584 O576 1.252 . S
O585 In574 2.294 . S
O585 C578 1.240 . S
O586 In574 2.326 . S
O586 C578 1.252 . S
In587 O588 2.294 . S
In587 O589 2.326 . S
In587 O593 2.266 . S
In587 O594 2.326 . S
In587 O595 2.266 . S
In587 O596 2.326 . S
In587 O598 2.294 . S
In587 O599 2.326 . S
O588 In587 2.294 . S
O588 C597 1.240 . S
O589 In587 2.326 . S
O589 C597 1.252 . S
C590 O593 1.252 . S
C590 O594 1.260 . S
C591 O598 1.240 . S
C591 O599 1.252 . S
C592 O595 1.252 . S
C592 O596 1.260 . S
O593 In587 2.266 . S
O593 C590 1.252 . S
O594 In587 2.326 . S
O594 C590 1.260 . S
O595 In587 2.266 . S
O595 C592 1.252 . S
O596 In587 2.326 . S
O596 C592 1.260 . S
C597 O588 1.240 . S
C597 O589 1.252 . S
O598 In587 2.294 . S
O598 C591 1.240 . S
O599 In587 2.326 . S
O599 C591 1.252 . S
C600 C601 1.349 . S
C600 C602 1.327 . S
C600 H625 0.950 . S
C601 C600 1.349 . S
C601 C617 1.349 . S
C602 C600 1.327 . S
C602 C621 1.429 . S
C602 H626 0.950 . S
C603 C620 1.574 . S
C603 C622 1.368 . S
C603 H627 0.949 . S
H604 C608 0.949 . S
C605 C606 1.349 . S
C605 C607 1.327 . S
C605 H628 0.950 . S
C606 C605 1.349 . S
C606 C618 1.349 . S
C607 C605 1.327 . S
C607 C623 1.429 . S
C607 H629 0.950 . S
C608 H604 0.949 . S
C608 C616 1.574 . S
C608 C624 1.368 . S
H609 C617 0.950 . S
H610 C615 0.950 . S
H611 C616 0.949 . S
H612 C618 0.950 . S
H613 C619 0.950 . S
H614 C620 0.949 . S
C615 H610 0.950 . S
C615 C617 1.327 . S
C615 C621 1.429 . S
C616 C608 1.574 . S
C616 H611 0.949 . S
C616 C622 1.368 . S
C617 C601 1.349 . S
C617 H609 0.950 . S
C617 C615 1.327 . S
C618 C606 1.349 . S
C618 H612 0.950 . S
C618 C619 1.327 . S
C619 H613 0.950 . S
C619 C618 1.327 . S
C619 C623 1.429 . S
C620 C603 1.574 . S
C620 H614 0.949 . S
C620 C624 1.368 . S
C621 C602 1.429 . S
C621 C615 1.429 . S
C621 C622 1.523 . S
C622 C603 1.368 . S
C622 C616 1.368 . S
C622 C621 1.523 . S
C623 C607 1.429 . S
C623 C619 1.429 . S
C623 C624 1.523 . S
C624 C608 1.368 . S
C624 C620 1.368 . S
C624 C623 1.523 . S
H625 C600 0.950 . S
H626 C602 0.950 . S
H627 C603 0.949 . S
H628 C605 0.950 . S
H629 C607 0.950 . S
C630 C631 1.349 . S
C630 C632 1.327 . S
C630 H655 0.950 . S
C631 C630 1.349 . S
C631 C647 1.349 . S
C632 C630 1.327 . S
C632 C651 1.429 . S
C632 H656 0.950 . S
C633 C650 1.574 . S
C633 C652 1.368 . S
C633 H657 0.949 . S
H634 C638 0.949 . S
C635 C636 1.349 . S
C635 C637 1.327 . S
C635 H658 0.950 . S
C636 C635 1.349 . S
C636 C648 1.349 . S
C637 C635 1.327 . S
C637 C653 1.429 . S
C637 H659 0.950 . S
C638 H634 0.949 . S
C638 C646 1.574 . S
C638 C654 1.368 . S
H639 C647 0.950 . S
H640 C645 0.950 . S
H641 C646 0.949 . S
H642 C648 0.950 . S
H643 C649 0.950 . S
H644 C650 0.949 . S
C645 H640 0.950 . S
C645 C647 1.327 . S
C645 C651 1.429 . S
C646 C638 1.574 . S
C646 H641 0.949 . S
C646 C652 1.368 . S
C647 C631 1.349 . S
C647 H639 0.950 . S
C647 C645 1.327 . S
C648 C636 1.349 . S
C648 H642 0.950 . S
C648 C649 1.327 . S
C649 H643 0.950 . S
C649 C648 1.327 . S
C649 C653 1.429 . S
C650 C633 1.574 . S
C650 H644 0.949 . S
C650 C654 1.368 . S
C651 C632 1.429 . S
C651 C645 1.429 . S
C651 C652 1.523 . S
C652 C633 1.368 . S
C652 C646 1.368 . S
C652 C651 1.523 . S
C653 C637 1.429 . S
C653 C649 1.429 . S
C653 C654 1.523 . S
C654 C638 1.368 . S
C654 C650 1.368 . S
C654 C653 1.523 . S
H655 C630 0.950 . S
H656 C632 0.950 . S
H657 C633 0.949 . S
H658 C635 0.950 . S
H659 C637 0.950 . S
C660 C661 1.349 . S
C660 C662 1.327 . S
C660 H685 0.950 . S
C661 C660 1.349 . S
C661 C677 1.349 . S
C662 C660 1.327 . S
C662 C681 1.429 . S
C662 H686 0.950 . S
C663 C680 1.574 . S
C663 C682 1.368 . S
C663 H687 0.949 . S
H664 C668 0.949 . S
C665 C666 1.349 . S
C665 C667 1.327 . S
C665 H688 0.950 . S
C666 C665 1.349 . S
C666 C678 1.349 . S
C667 C665 1.327 . S
C667 C683 1.429 . S
C667 H689 0.950 . S
C668 H664 0.949 . S
C668 C676 1.574 . S
C668 C684 1.368 . S
H669 C677 0.950 . S
H670 C675 0.950 . S
H671 C676 0.949 . S
H672 C678 0.950 . S
H673 C679 0.950 . S
H674 C680 0.949 . S
C675 H670 0.950 . S
C675 C677 1.327 . S
C675 C681 1.429 . S
C676 C668 1.574 . S
C676 H671 0.949 . S
C676 C682 1.368 . S
C677 C661 1.349 . S
C677 H669 0.950 . S
C677 C675 1.327 . S
C678 C666 1.349 . S
C678 H672 0.950 . S
C678 C679 1.327 . S
C679 H673 0.950 . S
C679 C678 1.327 . S
C679 C683 1.429 . S
C680 C663 1.574 . S
C680 H674 0.949 . S
C680 C684 1.368 . S
C681 C662 1.429 . S
C681 C675 1.429 . S
C681 C682 1.523 . S
C682 C663 1.368 . S
C682 C676 1.368 . S
C682 C681 1.523 . S
C683 C667 1.429 . S
C683 C679 1.429 . S
C683 C684 1.523 . S
C684 C668 1.368 . S
C684 C680 1.368 . S
C684 C683 1.523 . S
H685 C660 0.950 . S
H686 C662 0.950 . S
H687 C663 0.949 . S
H688 C665 0.950 . S
H689 C667 0.950 . S
C690 C691 1.349 . S
C690 C692 1.327 . S
C690 H715 0.950 . S
C691 C690 1.349 . S
C691 C707 1.349 . S
C692 C690 1.327 . S
C692 C711 1.429 . S
C692 H716 0.950 . S
C693 C710 1.574 . S
C693 C712 1.368 . S
C693 H717 0.949 . S
H694 C698 0.949 . S
C695 C696 1.349 . S
C695 C697 1.327 . S
C695 H718 0.950 1_554 S
C696 C695 1.349 . S
C696 C708 1.349 . S
C697 C695 1.327 . S
C697 C713 1.429 . S
C697 H719 0.987 . S
C698 H694 0.949 . S
C698 C706 1.574 . S
C698 C714 1.368 . S
H699 C707 0.950 . S
H700 C705 0.950 . S
H701 C706 0.949 . S
H702 C708 0.950 . S
H703 C709 0.950 . S
H704 C710 0.949 . S
C705 H700 0.950 . S
C705 C707 1.327 . S
C705 C711 1.429 . S
C706 C698 1.574 . S
C706 H701 0.949 . S
C706 C712 1.368 . S
C707 C691 1.349 . S
C707 H699 0.950 . S
C707 C705 1.327 . S
C708 C696 1.349 . S
C708 H702 0.950 . S
C708 C709 1.327 . S
C709 H703 0.950 . S
C709 C708 1.327 . S
C709 C713 1.429 . S
C710 C693 1.574 . S
C710 H704 0.949 . S
C710 C714 1.368 . S
C711 C692 1.429 . S
C711 C705 1.429 . S
C711 C712 1.523 . S
C712 C693 1.368 . S
C712 C706 1.368 . S
C712 C711 1.523 . S
C713 C697 1.429 . S
C713 C709 1.429 . S
C713 C714 1.523 . S
C714 C698 1.368 . S
C714 C710 1.368 . S
C714 C713 1.523 . S
H715 C690 0.950 . S
H716 C692 0.950 . S
H717 C693 0.949 . S
H718 C695 0.950 1_556 S
H719 C697 0.987 . S
C720 C721 1.349 . S
C720 C722 1.327 . S
C720 H745 0.950 . S
C721 C720 1.349 . S
C721 C737 1.349 . S
C722 C720 1.327 . S
C722 C741 1.429 . S
C722 H746 0.950 . S
C723 C740 1.574 . S
C723 C742 1.368 . S
C723 H747 0.949 . S
H724 C728 0.949 . S
C725 C726 1.349 . S
C725 C727 1.327 . S
C725 H748 0.950 . S
C726 C725 1.349 . S
C726 C738 1.349 . S
C727 C725 1.327 . S
C727 C743 1.429 . S
C727 H749 0.950 . S
C728 H724 0.949 . S
C728 C736 1.574 . S
C728 C744 1.368 . S
H729 C737 0.950 . S
H730 C735 0.950 . S
H731 C736 0.949 . S
H732 C738 0.950 1_554 S
H733 C739 0.950 . S
H734 C740 0.949 . S
C735 H730 0.950 . S
C735 C737 1.327 . S
C735 C741 1.429 . S
C736 C728 1.574 . S
C736 H731 0.949 . S
C736 C742 1.368 . S
C737 C721 1.349 . S
C737 H729 0.950 . S
C737 C735 1.327 . S
C738 C726 1.349 . S
C738 H732 0.950 1_556 S
C738 C739 1.327 . S
C739 H733 0.950 . S
C739 C738 1.327 . S
C739 C743 1.429 . S
C740 C723 1.574 . S
C740 H734 0.949 . S
C740 C744 1.368 . S
C741 C722 1.429 . S
C741 C735 1.429 . S
C741 C742 1.523 . S
C742 C723 1.368 . S
C742 C736 1.368 . S
C742 C741 1.523 . S
C743 C727 1.429 . S
C743 C739 1.429 . S
C743 C744 1.523 . S
C744 C728 1.368 . S
C744 C740 1.368 . S
C744 C743 1.523 . S
H745 C720 0.950 . S
H746 C722 0.950 . S
H747 C723 0.949 . S
H748 C725 0.950 . S
H749 C727 0.950 . S
C750 C751 1.349 . S
C750 C752 1.327 . S
C750 H775 0.950 . S
C751 C750 1.349 . S
C751 C767 1.349 . S
C752 C750 1.327 . S
C752 C771 1.429 . S
C752 H776 0.950 . S
C753 C770 1.574 . S
C753 C772 1.368 . S
C753 H777 0.949 . S
H754 C758 0.949 . S
C755 C756 1.349 . S
C755 C757 1.327 . S
C755 H778 0.950 . S
C756 C755 1.349 . S
C756 C768 1.349 . S
C757 C755 1.327 . S
C757 C773 1.429 . S
C757 H779 0.950 . S
C758 H754 0.949 . S
C758 C766 1.574 . S
C758 C774 1.368 . S
H759 C767 0.950 . S
H760 C765 0.950 . S
H761 C766 0.949 . S
H762 C768 0.950 . S
H763 C769 0.950 . S
H764 C770 0.949 . S
C765 H760 0.950 . S
C765 C767 1.327 . S
C765 C771 1.429 . S
C766 C758 1.574 . S
C766 H761 0.949 . S
C766 C772 1.368 . S
C767 C751 1.349 . S
C767 H759 0.950 . S
C767 C765 1.327 . S
C768 C756 1.349 . S
C768 H762 0.950 . S
C768 C769 1.327 . S
C769 H763 0.950 . S
C769 C768 1.327 . S
C769 C773 1.429 . S
C770 C753 1.574 . S
C770 H764 0.949 . S
C770 C774 1.368 . S
C771 C752 1.429 . S
C771 C765 1.429 . S
C771 C772 1.523 . S
C772 C753 1.368 . S
C772 C766 1.368 . S
C772 C771 1.523 . S
C773 C757 1.429 . S
C773 C769 1.429 . S
C773 C774 1.523 . S
C774 C758 1.368 . S
C774 C770 1.368 . S
C774 C773 1.523 . S
H775 C750 0.950 . S
H776 C752 0.950 . S
H777 C753 0.949 . S
H778 C755 0.950 . S
H779 C757 0.950 . S
C780 C781 1.349 . S
C780 C782 1.327 . S
C780 H805 0.950 . S
C781 C780 1.349 . S
C781 C797 1.349 . S
C782 C780 1.327 . S
C782 C801 1.429 . S
C782 H806 0.950 . S
C783 C800 1.574 . S
C783 C802 1.368 . S
C783 H807 0.949 . S
H784 C788 0.949 . S
C785 C786 1.349 . S
C785 C787 1.327 . S
C785 H808 0.950 . S
C786 C785 1.349 . S
C786 C798 1.349 . S
C787 C785 1.327 . S
C787 C803 1.429 . S
C787 H809 0.950 . S
C788 H784 0.949 . S
C788 C796 1.574 . S
C788 C804 1.368 . S
H789 C797 0.950 . S
H790 C795 0.950 . S
H791 C796 0.949 . S
H792 C798 0.950 . S
H793 C799 0.950 . S
H794 C800 0.949 . S
C795 H790 0.950 . S
C795 C797 1.327 . S
C795 C801 1.429 . S
C796 C788 1.574 . S
C796 H791 0.949 . S
C796 C802 1.368 . S
C797 C781 1.349 . S
C797 H789 0.950 . S
C797 C795 1.327 . S
C798 C786 1.349 . S
C798 H792 0.950 . S
C798 C799 1.327 . S
C799 H793 0.950 . S
C799 C798 1.327 . S
C799 C803 1.429 . S
C800 C783 1.574 . S
C800 H794 0.949 . S
C800 C804 1.368 . S
C801 C782 1.429 . S
C801 C795 1.429 . S
C801 C802 1.523 . S
C802 C783 1.368 . S
C802 C796 1.368 . S
C802 C801 1.523 . S
C803 C787 1.429 . S
C803 C799 1.429 . S
C803 C804 1.523 . S
C804 C788 1.368 . S
C804 C800 1.368 . S
C804 C803 1.523 . S
H805 C780 0.950 . S
H806 C782 0.950 . S
H807 C783 0.949 . S
H808 C785 0.950 . S
H809 C787 0.950 . S
C810 C811 1.349 . S
C810 C812 1.327 . S
C810 H835 0.950 . S
C811 C810 1.349 . S
C811 C827 1.349 . S
C812 C810 1.327 . S
C812 C831 1.429 . S
C812 H836 0.950 . S
C813 C830 1.574 . S
C813 C832 1.368 . S
C813 H837 0.949 . S
H814 C818 0.949 . S
C815 C816 1.349 . S
C815 C817 1.327 . S
C815 H838 0.950 . S
C816 C815 1.349 . S
C816 C828 1.349 . S
C817 C815 1.327 . S
C817 C833 1.429 . S
C817 H839 0.950 . S
C818 H814 0.949 . S
C818 C826 1.574 . S
C818 C834 1.368 . S
H819 C827 0.950 . S
H820 C825 0.950 . S
H821 C826 0.949 . S
H822 C828 0.950 . S
H823 C829 0.950 . S
H824 C830 0.949 . S
C825 H820 0.950 . S
C825 C827 1.327 . S
C825 C831 1.429 . S
C826 C818 1.574 . S
C826 H821 0.949 . S
C826 C832 1.368 . S
C827 C811 1.349 . S
C827 H819 0.950 . S
C827 C825 1.327 . S
C828 C816 1.349 . S
C828 H822 0.950 . S
C828 C829 1.327 . S
C829 H823 0.950 . S
C829 C828 1.327 . S
C829 C833 1.429 . S
C830 C813 1.574 . S
C830 H824 0.949 . S
C830 C834 1.368 . S
C831 C812 1.429 . S
C831 C825 1.429 . S
C831 C832 1.523 . S
C832 C813 1.368 . S
C832 C826 1.368 . S
C832 C831 1.523 . S
C833 C817 1.429 . S
C833 C829 1.429 . S
C833 C834 1.523 . S
C834 C818 1.368 . S
C834 C830 1.368 . S
C834 C833 1.523 . S
H835 C810 0.950 . S
H836 C812 0.950 . S
H837 C813 0.949 . S
H838 C815 0.950 . S
H839 C817 0.950 . S
C840 C841 1.349 . S
C840 C842 1.327 . S
C840 H865 0.950 . S
C841 C840 1.349 . S
C841 C857 1.349 . S
C842 C840 1.327 . S
C842 C861 1.429 . S
C842 H866 0.950 . S
C843 C860 1.574 . S
C843 C862 1.368 . S
C843 H867 0.949 . S
H844 C848 0.949 . S
C845 C846 1.349 . S
C845 C847 1.327 . S
C845 H868 0.950 . S
C846 C845 1.349 . S
C846 C858 1.349 . S
C847 C845 1.327 . S
C847 C863 1.429 . S
C847 H869 0.950 . S
C848 H844 0.949 . S
C848 C856 1.574 . S
C848 C864 1.368 . S
H849 C857 0.950 . S
H850 C855 0.950 . S
H851 C856 0.949 . S
H852 C858 0.950 . S
H853 C859 0.950 . S
H854 C860 0.949 . S
C855 H850 0.950 . S
C855 C857 1.327 . S
C855 C861 1.429 . S
C856 C848 1.574 . S
C856 H851 0.949 . S
C856 C862 1.368 . S
C857 C841 1.349 . S
C857 H849 0.950 . S
C857 C855 1.327 . S
C858 C846 1.349 . S
C858 H852 0.950 . S
C858 C859 1.327 . S
C859 H853 0.950 . S
C859 C858 1.327 . S
C859 C863 1.429 . S
C860 C843 1.574 . S
C860 H854 0.949 . S
C860 C864 1.368 . S
C861 C842 1.429 . S
C861 C855 1.429 . S
C861 C862 1.523 . S
C862 C843 1.368 . S
C862 C856 1.368 . S
C862 C861 1.523 . S
C863 C847 1.429 . S
C863 C859 1.429 . S
C863 C864 1.523 . S
C864 C848 1.368 . S
C864 C860 1.368 . S
C864 C863 1.523 . S
H865 C840 0.950 . S
H866 C842 0.950 . S
H867 C843 0.949 . S
H868 C845 0.950 . S
H869 C847 0.950 . S
C870 C871 1.349 . S
C870 C872 1.327 . S
C870 H895 0.950 . S
C871 C870 1.349 . S
C871 C887 1.349 . S
C872 C870 1.327 . S
C872 C891 1.429 . S
C872 H896 0.950 . S
C873 C890 1.574 . S
C873 C892 1.368 . S
C873 H897 0.949 . S
H874 C878 0.949 . S
C875 C876 1.349 . S
C875 C877 1.327 . S
C875 H898 0.950 1_554 S
C876 C875 1.349 . S
C876 C888 1.349 . S
C877 C875 1.327 . S
C877 C893 1.429 . S
C877 H899 1.004 . S
C878 H874 0.949 . S
C878 C886 1.574 . S
C878 C894 1.368 . S
H879 C887 0.950 . S
H880 C885 0.950 . S
H881 C886 0.949 . S
H882 C888 0.950 . S
H883 C889 0.950 . S
H884 C890 0.949 . S
C885 H880 0.950 . S
C885 C887 1.327 . S
C885 C891 1.429 . S
C886 C878 1.574 . S
C886 H881 0.949 . S
C886 C892 1.368 . S
C887 C871 1.349 . S
C887 H879 0.950 . S
C887 C885 1.327 . S
C888 C876 1.349 . S
C888 H882 0.950 . S
C888 C889 1.327 . S
C889 H883 0.950 . S
C889 C888 1.327 . S
C889 C893 1.429 . S
C890 C873 1.574 . S
C890 H884 0.949 . S
C890 C894 1.368 . S
C891 C872 1.429 . S
C891 C885 1.429 . S
C891 C892 1.523 . S
C892 C873 1.368 . S
C892 C886 1.368 . S
C892 C891 1.523 . S
C893 C877 1.429 . S
C893 C889 1.429 . S
C893 C894 1.523 . S
C894 C878 1.368 . S
C894 C890 1.368 . S
C894 C893 1.523 . S
H895 C870 0.950 . S
H896 C872 0.950 . S
H897 C873 0.949 . S
H898 C875 0.950 1_556 S
H899 C877 1.004 . S
C900 C901 1.349 . S
C900 C902 1.327 . S
C900 H925 0.950 . S
C901 C900 1.349 . S
C901 C917 1.349 . S
C902 C900 1.327 . S
C902 C921 1.429 . S
C902 H926 0.950 . S
C903 C920 1.574 . S
C903 C922 1.368 . S
C903 H927 0.949 . S
H904 C908 0.949 . S
C905 C906 1.349 . S
C905 C907 1.327 . S
C905 H928 0.950 . S
C906 C905 1.349 . S
C906 C918 1.349 . S
C907 C905 1.327 . S
C907 C923 1.429 . S
C907 H929 0.950 . S
C908 H904 0.949 . S
C908 C916 1.574 . S
C908 C924 1.368 . S
H909 C917 0.950 . S
H910 C915 0.950 . S
H911 C916 0.949 . S
H912 C918 0.950 . S
H913 C919 0.950 . S
H914 C920 0.949 . S
C915 H910 0.950 . S
C915 C917 1.327 . S
C915 C921 1.429 . S
C916 C908 1.574 . S
C916 H911 0.949 . S
C916 C922 1.368 . S
C917 C901 1.349 . S
C917 H909 0.950 . S
C917 C915 1.327 . S
C918 C906 1.349 . S
C918 H912 0.950 . S
C918 C919 1.327 . S
C919 H913 0.950 . S
C919 C918 1.327 . S
C919 C923 1.429 . S
C920 C903 1.574 . S
C920 H914 0.949 . S
C920 C924 1.368 . S
C921 C902 1.429 . S
C921 C915 1.429 . S
C921 C922 1.523 . S
C922 C903 1.368 . S
C922 C916 1.368 . S
C922 C921 1.523 . S
C923 C907 1.429 . S
C923 C919 1.429 . S
C923 C924 1.523 . S
C924 C908 1.368 . S
C924 C920 1.368 . S
C924 C923 1.523 . S
H925 C900 0.950 . S
H926 C902 0.950 . S
H927 C903 0.949 . S
H928 C905 0.950 . S
H929 C907 0.950 . S
C930 C931 1.349 . S
C930 C932 1.327 . S
C930 H955 0.950 . S
C931 C930 1.349 . S
C931 C947 1.349 . S
C932 C930 1.327 . S
C932 C951 1.429 . S
C932 H956 0.950 . S
C933 C950 1.574 . S
C933 C952 1.368 . S
C933 H957 0.949 . S
H934 C938 0.949 . S
C935 C936 1.349 . S
C935 C937 1.327 . S
C935 H958 0.950 . S
C936 C935 1.349 . S
C936 C948 1.349 . S
C937 C935 1.327 . S
C937 C953 1.429 . S
C937 H959 0.950 . S
C938 H934 0.949 . S
C938 C946 1.574 . S
C938 C954 1.368 . S
H939 C947 0.950 . S
H940 C945 0.950 . S
H941 C946 0.949 . S
H942 C948 0.950 . S
H943 C949 0.950 . S
H944 C950 0.949 . S
C945 H940 0.950 . S
C945 C947 1.327 . S
C945 C951 1.429 . S
C946 C938 1.574 . S
C946 H941 0.949 . S
C946 C952 1.368 . S
C947 C931 1.349 . S
C947 H939 0.950 . S
C947 C945 1.327 . S
C948 C936 1.349 . S
C948 H942 0.950 . S
C948 C949 1.327 . S
C949 H943 0.950 . S
C949 C948 1.327 . S
C949 C953 1.429 . S
C950 C933 1.574 . S
C950 H944 0.949 . S
C950 C954 1.368 . S
C951 C932 1.429 . S
C951 C945 1.429 . S
C951 C952 1.523 . S
C952 C933 1.368 . S
C952 C946 1.368 . S
C952 C951 1.523 . S
C953 C937 1.429 . S
C953 C949 1.429 . S
C953 C954 1.523 . S
C954 C938 1.368 . S
C954 C950 1.368 . S
C954 C953 1.523 . S
H955 C930 0.950 . S
H956 C932 0.950 . S
H957 C933 0.949 . S
H958 C935 0.950 . S
H959 C937 0.950 . S
C960 C961 1.349 . S
C960 C962 1.327 . S
C960 H985 0.950 . S
C961 C960 1.349 . S
C961 C977 1.349 . S
C962 C960 1.327 . S
C962 C981 1.429 . S
C962 H986 0.950 . S
C963 C980 1.574 . S
C963 C982 1.368 . S
C963 H987 0.949 . S
H964 C968 0.949 . S
C965 C966 1.349 . S
C965 C967 1.327 . S
C965 H988 0.950 . S
C966 C965 1.349 . S
C966 C978 1.349 . S
C967 C965 1.327 . S
C967 C983 1.429 . S
C967 H989 0.950 . S
C968 H964 0.949 . S
C968 C976 1.574 . S
C968 C984 1.368 . S
H969 C977 0.950 . S
H970 C975 0.950 . S
H971 C976 0.949 . S
H972 C978 0.950 . S
H973 C979 0.950 . S
H974 C980 0.949 . S
C975 H970 0.950 . S
C975 C977 1.327 . S
C975 C981 1.429 . S
C976 C968 1.574 . S
C976 H971 0.949 . S
C976 C982 1.368 . S
C977 C961 1.349 . S
C977 H969 0.950 . S
C977 C975 1.327 . S
C978 C966 1.349 . S
C978 H972 0.950 . S
C978 C979 1.327 . S
C979 H973 0.950 . S
C979 C978 1.327 . S
C979 C983 1.429 . S
C980 C963 1.574 . S
C980 H974 0.949 . S
C980 C984 1.368 . S
C981 C962 1.429 . S
C981 C975 1.429 . S
C981 C982 1.523 . S
C982 C963 1.368 . S
C982 C976 1.368 . S
C982 C981 1.523 . S
C983 C967 1.429 . S
C983 C979 1.429 . S
C983 C984 1.523 . S
C984 C968 1.368 . S
C984 C980 1.368 . S
C984 C983 1.523 . S
H985 C960 0.950 . S
H986 C962 0.950 . S
H987 C963 0.949 . S
H988 C965 0.950 . S
H989 C967 0.950 . S
C990 C991 1.349 . S
C990 C992 1.327 . S
C990 H1015 0.950 . S
C991 C990 1.349 . S
C991 C1007 1.349 . S
C992 C990 1.327 . S
C992 C1011 1.429 . S
C992 H1016 0.950 . S
C993 C1010 1.574 . S
C993 C1012 1.368 . S
C993 H1017 0.949 . S
H994 C998 0.949 . S
C995 C996 1.349 . S
C995 C997 1.327 . S
C995 H1018 0.950 . S
C996 C995 1.349 . S
C996 C1008 1.349 . S
C997 C995 1.327 . S
C997 C1013 1.429 . S
C997 H1019 0.950 . S
C998 H994 0.949 . S
C998 C1006 1.574 . S
C998 C1014 1.368 . S
H999 C1007 0.950 . S
H1000 C1005 0.950 . S
H1001 C1006 0.949 . S
H1002 C1008 0.950 . S
H1003 C1009 0.950 . S
H1004 C1010 0.949 . S
C1005 H1000 0.950 . S
C1005 C1007 1.327 . S
C1005 C1011 1.429 . S
C1006 C998 1.574 . S
C1006 H1001 0.949 . S
C1006 C1012 1.368 . S
C1007 C991 1.349 . S
C1007 H999 0.950 . S
C1007 C1005 1.327 . S
C1008 C996 1.349 . S
C1008 H1002 0.950 . S
C1008 C1009 1.327 . S
C1009 H1003 0.950 . S
C1009 C1008 1.327 . S
C1009 C1013 1.429 . S
C1010 C993 1.574 . S
C1010 H1004 0.949 . S
C1010 C1014 1.368 . S
C1011 C992 1.429 . S
C1011 C1005 1.429 . S
C1011 C1012 1.523 . S
C1012 C993 1.368 . S
C1012 C1006 1.368 . S
C1012 C1011 1.523 . S
C1013 C997 1.429 . S
C1013 C1009 1.429 . S
C1013 C1014 1.523 . S
C1014 C998 1.368 . S
C1014 C1010 1.368 . S
C1014 C1013 1.523 . S
H1015 C990 0.950 . S
H1016 C992 0.950 . S
H1017 C993 0.949 . S
H1018 C995 0.950 . S
H1019 C997 0.950 . S
C1020 C1021 1.349 . S
C1020 C1022 1.327 . S
C1020 H1045 0.950 . S
C1021 C1020 1.349 . S
C1021 C1037 1.349 . S
C1022 C1020 1.327 . S
C1022 C1041 1.429 . S
C1022 H1046 0.950 . S
C1023 C1040 1.574 . S
C1023 C1042 1.368 . S
C1023 H1047 0.949 . S
H1024 C1028 0.949 . S
C1025 C1026 1.349 . S
C1025 C1027 1.327 . S
C1025 H1048 0.950 . S
C1026 C1025 1.349 . S
C1026 C1038 1.349 . S
C1027 C1025 1.327 . S
C1027 C1043 1.429 . S
C1027 H1049 0.950 . S
C1028 H1024 0.949 . S
C1028 C1036 1.574 . S
C1028 C1044 1.368 . S
H1029 C1037 0.950 . S
H1030 C1035 0.950 . S
H1031 C1036 0.949 . S
H1032 C1038 0.917 1_554 S
H1033 C1039 0.950 . S
H1034 C1040 0.949 . S
C1035 H1030 0.950 . S
C1035 C1037 1.327 . S
C1035 C1041 1.429 . S
C1036 C1028 1.574 . S
C1036 H1031 0.949 . S
C1036 C1042 1.368 . S
C1037 C1021 1.349 . S
C1037 H1029 0.950 . S
C1037 C1035 1.327 . S
C1038 C1026 1.349 . S
C1038 H1032 0.917 1_556 S
C1038 C1039 1.327 . S
C1039 H1033 0.950 . S
C1039 C1038 1.327 . S
C1039 C1043 1.429 . S
C1040 C1023 1.574 . S
C1040 H1034 0.949 . S
C1040 C1044 1.368 . S
C1041 C1022 1.429 . S
C1041 C1035 1.429 . S
C1041 C1042 1.523 . S
C1042 C1023 1.368 . S
C1042 C1036 1.368 . S
C1042 C1041 1.523 . S
C1043 C1027 1.429 . S
C1043 C1039 1.429 . S
C1043 C1044 1.523 . S
C1044 C1028 1.368 . S
C1044 C1040 1.368 . S
C1044 C1043 1.523 . S
H1045 C1020 0.950 . S
H1046 C1022 0.950 . S
H1047 C1023 0.949 . S
H1048 C1025 0.950 . S
H1049 C1027 0.950 . S
C1050 C1051 1.349 . S
C1050 C1052 1.327 . S
C1050 H1075 0.950 . S
C1051 C1050 1.349 . S
C1051 C1067 1.349 . S
C1052 C1050 1.327 . S
C1052 C1071 1.429 . S
C1052 H1076 0.950 . S
C1053 C1070 1.574 . S
C1053 C1072 1.368 . S
C1053 H1077 0.949 . S
H1054 C1058 0.949 . S
C1055 C1056 1.349 . S
C1055 C1057 1.327 . S
C1055 H1078 0.950 . S
C1056 C1055 1.349 . S
C1056 C1068 1.349 . S
C1057 C1055 1.327 . S
C1057 C1073 1.429 . S
C1057 H1079 0.950 . S
C1058 H1054 0.949 . S
C1058 C1066 1.574 . S
C1058 C1074 1.368 . S
H1059 C1067 0.950 . S
H1060 C1065 0.950 . S
H1061 C1066 0.949 . S
H1062 C1068 0.950 . S
H1063 C1069 0.950 . S
H1064 C1070 0.949 . S
C1065 H1060 0.950 . S
C1065 C1067 1.327 . S
C1065 C1071 1.429 . S
C1066 C1058 1.574 . S
C1066 H1061 0.949 . S
C1066 C1072 1.368 . S
C1067 C1051 1.349 . S
C1067 H1059 0.950 . S
C1067 C1065 1.327 . S
C1068 C1056 1.349 . S
C1068 H1062 0.950 . S
C1068 C1069 1.327 . S
C1069 H1063 0.950 . S
C1069 C1068 1.327 . S
C1069 C1073 1.429 . S
C1070 C1053 1.574 . S
C1070 H1064 0.949 . S
C1070 C1074 1.368 . S
C1071 C1052 1.429 . S
C1071 C1065 1.429 . S
C1071 C1072 1.523 . S
C1072 C1053 1.368 . S
C1072 C1066 1.368 . S
C1072 C1071 1.523 . S
C1073 C1057 1.429 . S
C1073 C1069 1.429 . S
C1073 C1074 1.523 . S
C1074 C1058 1.368 . S
C1074 C1070 1.368 . S
C1074 C1073 1.523 . S
H1075 C1050 0.950 . S
H1076 C1052 0.950 . S
H1077 C1053 0.949 . S
H1078 C1055 0.950 . S
H1079 C1057 0.950 . S
C1080 C1081 1.349 . S
C1080 C1082 1.327 . S
C1080 H1105 0.950 . S
C1081 C1080 1.349 . S
C1081 C1097 1.349 . S
C1082 C1080 1.327 . S
C1082 C1101 1.429 . S
C1082 H1106 0.950 . S
C1083 C1100 1.574 . S
C1083 C1102 1.368 . S
C1083 H1107 0.949 . S
H1084 C1088 0.949 . S
C1085 C1086 1.349 . S
C1085 C1087 1.327 . S
C1085 H1108 0.950 . S
C1086 C1085 1.349 . S
C1086 C1098 1.349 . S
C1087 C1085 1.327 . S
C1087 C1103 1.429 . S
C1087 H1109 0.950 . S
C1088 H1084 0.949 . S
C1088 C1096 1.574 . S
C1088 C1104 1.368 . S
H1089 C1097 0.950 . S
H1090 C1095 0.950 . S
H1091 C1096 0.949 . S
H1092 C1098 0.950 . S
H1093 C1099 0.950 . S
H1094 C1100 0.949 . S
C1095 H1090 0.950 . S
C1095 C1097 1.327 . S
C1095 C1101 1.429 . S
C1096 C1088 1.574 . S
C1096 H1091 0.949 . S
C1096 C1102 1.368 . S
C1097 C1081 1.349 . S
C1097 H1089 0.950 . S
C1097 C1095 1.327 . S
C1098 C1086 1.349 . S
C1098 H1092 0.950 . S
C1098 C1099 1.327 . S
C1099 H1093 0.950 . S
C1099 C1098 1.327 . S
C1099 C1103 1.429 . S
C1100 C1083 1.574 . S
C1100 H1094 0.949 . S
C1100 C1104 1.368 . S
C1101 C1082 1.429 . S
C1101 C1095 1.429 . S
C1101 C1102 1.523 . S
C1102 C1083 1.368 . S
C1102 C1096 1.368 . S
C1102 C1101 1.523 . S
C1103 C1087 1.429 . S
C1103 C1099 1.429 . S
C1103 C1104 1.523 . S
C1104 C1088 1.368 . S
C1104 C1100 1.368 . S
C1104 C1103 1.523 . S
H1105 C1080 0.950 . S
H1106 C1082 0.950 . S
H1107 C1083 0.949 . S
H1108 C1085 0.950 . S
H1109 C1087 0.950 . S
C1110 C1111 1.349 . S
C1110 C1112 1.327 . S
C1110 H1135 0.950 . S
C1111 C1110 1.349 . S
C1111 C1127 1.349 . S
C1112 C1110 1.327 . S
C1112 C1131 1.429 . S
C1112 H1136 0.950 . S
C1113 C1130 1.574 . S
C1113 C1132 1.368 . S
C1113 H1137 0.949 . S
H1114 C1118 0.949 . S
C1115 C1116 1.349 . S
C1115 C1117 1.327 . S
C1115 H1138 0.950 . S
C1116 C1115 1.349 . S
C1116 C1128 1.349 . S
C1117 C1115 1.327 . S
C1117 C1133 1.429 . S
C1117 H1139 0.950 . S
C1118 H1114 0.949 . S
C1118 C1126 1.574 . S
C1118 C1134 1.368 . S
H1119 C1127 0.950 . S
H1120 C1125 0.950 . S
H1121 C1126 0.949 . S
H1122 C1128 0.950 . S
H1123 C1129 0.950 . S
H1124 C1130 0.949 . S
C1125 H1120 0.950 . S
C1125 C1127 1.327 . S
C1125 C1131 1.429 . S
C1126 C1118 1.574 . S
C1126 H1121 0.949 . S
C1126 C1132 1.368 . S
C1127 C1111 1.349 . S
C1127 H1119 0.950 . S
C1127 C1125 1.327 . S
C1128 C1116 1.349 . S
C1128 H1122 0.950 . S
C1128 C1129 1.327 . S
C1129 H1123 0.950 . S
C1129 C1128 1.327 . S
C1129 C1133 1.429 . S
C1130 C1113 1.574 . S
C1130 H1124 0.949 . S
C1130 C1134 1.368 . S
C1131 C1112 1.429 . S
C1131 C1125 1.429 . S
C1131 C1132 1.523 . S
C1132 C1113 1.368 . S
C1132 C1126 1.368 . S
C1132 C1131 1.523 . S
C1133 C1117 1.429 . S
C1133 C1129 1.429 . S
C1133 C1134 1.523 . S
C1134 C1118 1.368 . S
C1134 C1130 1.368 . S
C1134 C1133 1.523 . S
H1135 C1110 0.950 . S
H1136 C1112 0.950 . S
H1137 C1113 0.949 . S
H1138 C1115 0.950 . S
H1139 C1117 0.950 . S
C1140 C1141 1.349 . S
C1140 C1142 1.327 . S
C1140 H1165 0.950 . S
C1141 C1140 1.349 . S
C1141 C1157 1.349 . S
C1142 C1140 1.327 . S
C1142 C1161 1.429 . S
C1142 H1166 0.950 . S
C1143 C1160 1.574 . S
C1143 C1162 1.368 . S
C1143 H1167 0.949 . S
H1144 C1148 0.949 . S
C1145 C1146 1.349 . S
C1145 C1147 1.327 . S
C1145 H1168 0.950 . S
C1146 C1145 1.349 . S
C1146 C1158 1.349 . S
C1147 C1145 1.327 . S
C1147 C1163 1.429 . S
C1147 H1169 0.950 . S
C1148 H1144 0.949 . S
C1148 C1156 1.574 . S
C1148 C1164 1.368 . S
H1149 C1157 0.950 . S
H1150 C1155 0.950 . S
H1151 C1156 0.949 . S
H1152 C1158 0.950 . S
H1153 C1159 0.950 . S
H1154 C1160 0.949 . S
C1155 H1150 0.950 . S
C1155 C1157 1.327 . S
C1155 C1161 1.429 . S
C1156 C1148 1.574 . S
C1156 H1151 0.949 . S
C1156 C1162 1.368 . S
C1157 C1141 1.349 . S
C1157 H1149 0.950 . S
C1157 C1155 1.327 . S
C1158 C1146 1.349 . S
C1158 H1152 0.950 . S
C1158 C1159 1.327 . S
C1159 H1153 0.950 . S
C1159 C1158 1.327 . S
C1159 C1163 1.429 . S
C1160 C1143 1.574 . S
C1160 H1154 0.949 . S
C1160 C1164 1.368 . S
C1161 C1142 1.429 . S
C1161 C1155 1.429 . S
C1161 C1162 1.523 . S
C1162 C1143 1.368 . S
C1162 C1156 1.368 . S
C1162 C1161 1.523 . S
C1163 C1147 1.429 . S
C1163 C1159 1.429 . S
C1163 C1164 1.523 . S
C1164 C1148 1.368 . S
C1164 C1160 1.368 . S
C1164 C1163 1.523 . S
H1165 C1140 0.950 . S
H1166 C1142 0.950 . S
H1167 C1143 0.949 . S
H1168 C1145 0.950 . S
H1169 C1147 0.950 . S
C1170 C1171 1.349 . S
C1170 C1172 1.327 . S
C1170 H1195 0.950 . S
C1171 C1170 1.349 . S
C1171 C1187 1.349 . S
C1172 C1170 1.327 . S
C1172 C1191 1.429 . S
C1172 H1196 0.950 . S
C1173 C1190 1.574 . S
C1173 C1192 1.368 . S
C1173 H1197 0.949 . S
H1174 C1178 0.949 . S
C1175 C1176 1.349 . S
C1175 C1177 1.327 . S
C1175 H1198 0.950 . S
C1176 C1175 1.349 . S
C1176 C1188 1.349 . S
C1177 C1175 1.327 . S
C1177 C1193 1.429 . S
C1177 H1199 0.950 . S
C1178 H1174 0.949 . S
C1178 C1186 1.574 . S
C1178 C1194 1.368 . S
H1179 C1187 0.950 . S
H1180 C1185 0.950 . S
H1181 C1186 0.949 . S
H1182 C1188 0.950 . S
H1183 C1189 0.950 . S
H1184 C1190 0.949 . S
C1185 H1180 0.950 . S
C1185 C1187 1.327 . S
C1185 C1191 1.429 . S
C1186 C1178 1.574 . S
C1186 H1181 0.949 . S
C1186 C1192 1.368 . S
C1187 C1171 1.349 . S
C1187 H1179 0.950 . S
C1187 C1185 1.327 . S
C1188 C1176 1.349 . S
C1188 H1182 0.950 . S
C1188 C1189 1.327 . S
C1189 H1183 0.950 . S
C1189 C1188 1.327 . S
C1189 C1193 1.429 . S
C1190 C1173 1.574 . S
C1190 H1184 0.949 . S
C1190 C1194 1.368 . S
C1191 C1172 1.429 . S
C1191 C1185 1.429 . S
C1191 C1192 1.523 . S
C1192 C1173 1.368 . S
C1192 C1186 1.368 . S
C1192 C1191 1.523 . S
C1193 C1177 1.429 . S
C1193 C1189 1.429 . S
C1193 C1194 1.523 . S
C1194 C1178 1.368 . S
C1194 C1190 1.368 . S
C1194 C1193 1.523 . S
H1195 C1170 0.950 . S
H1196 C1172 0.950 . S
H1197 C1173 0.949 . S
H1198 C1175 0.950 . S
H1199 C1177 0.950 . S
C1200 C1201 1.349 . S
C1200 C1202 1.327 . S
C1200 H1225 0.950 . S
C1201 C1200 1.349 . S
C1201 C1217 1.349 . S
C1202 C1200 1.327 . S
C1202 C1221 1.429 . S
C1202 H1226 0.950 . S
C1203 C1220 1.574 . S
C1203 C1222 1.368 . S
C1203 H1227 0.949 . S
H1204 C1208 0.949 . S
C1205 C1206 1.349 . S
C1205 C1207 1.327 . S
C1205 H1228 0.950 . S
C1206 C1205 1.349 . S
C1206 C1218 1.349 . S
C1207 C1205 1.327 . S
C1207 C1223 1.429 . S
C1207 H1229 0.950 . S
C1208 H1204 0.949 . S
C1208 C1216 1.574 . S
C1208 C1224 1.368 . S
H1209 C1217 0.950 . S
H1210 C1215 0.950 . S
H1211 C1216 0.949 . S
H1212 C1218 0.950 . S
H1213 C1219 0.950 . S
H1214 C1220 0.949 . S
C1215 H1210 0.950 . S
C1215 C1217 1.327 . S
C1215 C1221 1.429 . S
C1216 C1208 1.574 . S
C1216 H1211 0.949 . S
C1216 C1222 1.368 . S
C1217 C1201 1.349 . S
C1217 H1209 0.950 . S
C1217 C1215 1.327 . S
C1218 C1206 1.349 . S
C1218 H1212 0.950 . S
C1218 C1219 1.327 . S
C1219 H1213 0.950 . S
C1219 C1218 1.327 . S
C1219 C1223 1.429 . S
C1220 C1203 1.574 . S
C1220 H1214 0.949 . S
C1220 C1224 1.368 . S
C1221 C1202 1.429 . S
C1221 C1215 1.429 . S
C1221 C1222 1.523 . S
C1222 C1203 1.368 . S
C1222 C1216 1.368 . S
C1222 C1221 1.523 . S
C1223 C1207 1.429 . S
C1223 C1219 1.429 . S
C1223 C1224 1.523 . S
C1224 C1208 1.368 . S
C1224 C1220 1.368 . S
C1224 C1223 1.523 . S
H1225 C1200 0.950 . S
H1226 C1202 0.950 . S
H1227 C1203 0.949 . S
H1228 C1205 0.950 . S
H1229 C1207 0.950 . S
C1230 C1231 1.349 . S
C1230 C1232 1.327 . S
C1230 H1255 0.950 . S
C1231 C1230 1.349 . S
C1231 C1247 1.349 . S
C1232 C1230 1.327 . S
C1232 C1251 1.429 . S
C1232 H1256 0.950 . S
C1233 C1250 1.574 . S
C1233 C1252 1.368 . S
C1233 H1257 0.949 . S
H1234 C1238 0.949 . S
C1235 C1236 1.349 . S
C1235 C1237 1.327 . S
C1235 H1258 0.950 . S
C1236 C1235 1.349 . S
C1236 C1248 1.349 . S
C1237 C1235 1.327 . S
C1237 C1253 1.429 . S
C1237 H1259 0.950 . S
C1238 H1234 0.949 . S
C1238 C1246 1.574 . S
C1238 C1254 1.368 . S
H1239 C1247 0.950 . S
H1240 C1245 0.950 . S
H1241 C1246 0.949 . S
H1242 C1248 0.950 . S
H1243 C1249 0.950 . S
H1244 C1250 0.949 . S
C1245 H1240 0.950 . S
C1245 C1247 1.327 . S
C1245 C1251 1.429 . S
C1246 C1238 1.574 . S
C1246 H1241 0.949 . S
C1246 C1252 1.368 . S
C1247 C1231 1.349 . S
C1247 H1239 0.950 . S
C1247 C1245 1.327 . S
C1248 C1236 1.349 . S
C1248 H1242 0.950 . S
C1248 C1249 1.327 . S
C1249 H1243 0.950 . S
C1249 C1248 1.327 . S
C1249 C1253 1.429 . S
C1250 C1233 1.574 . S
C1250 H1244 0.949 . S
C1250 C1254 1.368 . S
C1251 C1232 1.429 . S
C1251 C1245 1.429 . S
C1251 C1252 1.523 . S
C1252 C1233 1.368 . S
C1252 C1246 1.368 . S
C1252 C1251 1.523 . S
C1253 C1237 1.429 . S
C1253 C1249 1.429 . S
C1253 C1254 1.523 . S
C1254 C1238 1.368 . S
C1254 C1250 1.368 . S
C1254 C1253 1.523 . S
H1255 C1230 0.950 . S
H1256 C1232 0.950 . S
H1257 C1233 0.949 . S
H1258 C1235 0.950 . S
H1259 C1237 0.950 . S
C1260 C1261 1.349 . S
C1260 C1262 1.327 . S
C1260 H1285 0.950 . S
C1261 C1260 1.349 . S
C1261 C1277 1.349 . S
C1262 C1260 1.327 . S
C1262 C1281 1.429 . S
C1262 H1286 0.950 . S
C1263 C1280 1.574 . S
C1263 C1282 1.368 . S
C1263 H1287 0.949 . S
H1264 C1268 0.949 . S
C1265 C1266 1.349 . S
C1265 C1267 1.327 . S
C1265 H1288 0.950 . S
C1266 C1265 1.349 . S
C1266 C1278 1.349 . S
C1267 C1265 1.327 . S
C1267 C1283 1.429 . S
C1267 H1289 0.950 . S
C1268 H1264 0.949 . S
C1268 C1276 1.574 . S
C1268 C1284 1.368 . S
H1269 C1277 0.950 . S
H1270 C1275 0.950 . S
H1271 C1276 0.949 . S
H1272 C1278 0.950 . S
H1273 C1279 0.950 . S
H1274 C1280 0.949 . S
C1275 H1270 0.950 . S
C1275 C1277 1.327 . S
C1275 C1281 1.429 . S
C1276 C1268 1.574 . S
C1276 H1271 0.949 . S
C1276 C1282 1.368 . S
C1277 C1261 1.349 . S
C1277 H1269 0.950 . S
C1277 C1275 1.327 . S
C1278 C1266 1.349 . S
C1278 H1272 0.950 . S
C1278 C1279 1.327 . S
C1279 H1273 0.950 . S
C1279 C1278 1.327 . S
C1279 C1283 1.429 . S
C1280 C1263 1.574 . S
C1280 H1274 0.949 . S
C1280 C1284 1.368 . S
C1281 C1262 1.429 . S
C1281 C1275 1.429 . S
C1281 C1282 1.523 . S
C1282 C1263 1.368 . S
C1282 C1276 1.368 . S
C1282 C1281 1.523 . S
C1283 C1267 1.429 . S
C1283 C1279 1.429 . S
C1283 C1284 1.523 . S
C1284 C1268 1.368 . S
C1284 C1280 1.368 . S
C1284 C1283 1.523 . S
H1285 C1260 0.950 . S
H1286 C1262 0.950 . S
H1287 C1263 0.949 . S
H1288 C1265 0.950 . S
H1289 C1267 0.950 . S
C1290 C1291 1.349 . S
C1290 C1292 1.327 . S
C1290 H1315 0.950 . S
C1291 C1290 1.349 . S
C1291 C1307 1.349 . S
C1292 C1290 1.327 . S
C1292 C1311 1.429 . S
C1292 H1316 0.950 . S
C1293 C1310 1.574 . S
C1293 C1312 1.368 . S
C1293 H1317 0.949 . S
H1294 C1298 0.949 . S
C1295 C1296 1.349 . S
C1295 C1297 1.327 . S
C1295 H1318 0.950 . S
C1296 C1295 1.349 . S
C1296 C1308 1.349 . S
C1297 C1295 1.327 . S
C1297 C1313 1.429 . S
C1297 H1319 0.950 . S
C1298 H1294 0.949 . S
C1298 C1306 1.574 . S
C1298 C1314 1.368 . S
H1299 C1307 0.950 . S
H1300 C1305 0.950 . S
H1301 C1306 0.949 . S
H1302 C1308 0.950 . S
H1303 C1309 0.950 . S
H1304 C1310 0.949 . S
C1305 H1300 0.950 . S
C1305 C1307 1.327 . S
C1305 C1311 1.429 . S
C1306 C1298 1.574 . S
C1306 H1301 0.949 . S
C1306 C1312 1.368 . S
C1307 C1291 1.349 . S
C1307 H1299 0.950 . S
C1307 C1305 1.327 . S
C1308 C1296 1.349 . S
C1308 H1302 0.950 . S
C1308 C1309 1.327 . S
C1309 H1303 0.950 . S
C1309 C1308 1.327 . S
C1309 C1313 1.429 . S
C1310 C1293 1.574 . S
C1310 H1304 0.949 . S
C1310 C1314 1.368 . S
C1311 C1292 1.429 . S
C1311 C1305 1.429 . S
C1311 C1312 1.523 . S
C1312 C1293 1.368 . S
C1312 C1306 1.368 . S
C1312 C1311 1.523 . S
C1313 C1297 1.429 . S
C1313 C1309 1.429 . S
C1313 C1314 1.523 . S
C1314 C1298 1.368 . S
C1314 C1310 1.368 . S
C1314 C1313 1.523 . S
H1315 C1290 0.950 . S
H1316 C1292 0.950 . S
H1317 C1293 0.949 . S
H1318 C1295 0.950 . S
H1319 C1297 0.950 . S
C1320 C1321 1.349 . S
C1320 C1322 1.327 . S
C1320 H1345 0.950 . S
C1321 C1320 1.349 . S
C1321 C1337 1.349 . S
C1322 C1320 1.327 . S
C1322 C1341 1.429 . S
C1322 H1346 0.950 . S
C1323 C1340 1.574 . S
C1323 C1342 1.368 . S
C1323 H1347 0.949 . S
H1324 C1328 0.949 . S
C1325 C1326 1.349 . S
C1325 C1327 1.327 . S
C1325 H1348 0.950 . S
C1326 C1325 1.349 . S
C1326 C1338 1.349 . S
C1327 C1325 1.327 . S
C1327 C1343 1.429 . S
C1327 H1349 0.950 . S
C1328 H1324 0.949 . S
C1328 C1336 1.574 . S
C1328 C1344 1.368 . S
H1329 C1337 0.950 . S
H1330 C1335 0.950 . S
H1331 C1336 0.949 . S
H1332 C1338 0.950 . S
H1333 C1339 0.950 . S
H1334 C1340 0.949 . S
C1335 H1330 0.950 . S
C1335 C1337 1.327 . S
C1335 C1341 1.429 . S
C1336 C1328 1.574 . S
C1336 H1331 0.949 . S
C1336 C1342 1.368 . S
C1337 C1321 1.349 . S
C1337 H1329 0.950 . S
C1337 C1335 1.327 . S
C1338 C1326 1.349 . S
C1338 H1332 0.950 . S
C1338 C1339 1.327 . S
C1339 H1333 0.950 . S
C1339 C1338 1.327 . S
C1339 C1343 1.429 . S
C1340 C1323 1.574 . S
C1340 H1334 0.949 . S
C1340 C1344 1.368 . S
C1341 C1322 1.429 . S
C1341 C1335 1.429 . S
C1341 C1342 1.523 . S
C1342 C1323 1.368 . S
C1342 C1336 1.368 . S
C1342 C1341 1.523 . S
C1343 C1327 1.429 . S
C1343 C1339 1.429 . S
C1343 C1344 1.523 . S
C1344 C1328 1.368 . S
C1344 C1340 1.368 . S
C1344 C1343 1.523 . S
H1345 C1320 0.950 . S
H1346 C1322 0.950 . S
H1347 C1323 0.949 . S
H1348 C1325 0.950 . S
H1349 C1327 0.950 . S
C1350 C1351 1.349 . S
C1350 C1352 1.327 . S
C1350 H1375 0.950 . S
C1351 C1350 1.349 . S
C1351 C1367 1.349 . S
C1352 C1350 1.327 . S
C1352 C1371 1.429 . S
C1352 H1376 0.950 . S
C1353 C1370 1.574 . S
C1353 C1372 1.368 . S
C1353 H1377 0.949 . S
H1354 C1358 0.949 . S
C1355 C1356 1.349 . S
C1355 C1357 1.327 . S
C1355 H1378 0.950 . S
C1356 C1355 1.349 . S
C1356 C1368 1.349 . S
C1357 C1355 1.327 . S
C1357 C1373 1.429 . S
C1357 H1379 0.950 . S
C1358 H1354 0.949 . S
C1358 C1366 1.574 . S
C1358 C1374 1.368 . S
H1359 C1367 0.950 . S
H1360 C1365 0.950 . S
H1361 C1366 0.949 . S
H1362 C1368 0.950 . S
H1363 C1369 0.950 . S
H1364 C1370 0.949 . S
C1365 H1360 0.950 . S
C1365 C1367 1.327 . S
C1365 C1371 1.429 . S
C1366 C1358 1.574 . S
C1366 H1361 0.949 . S
C1366 C1372 1.368 . S
C1367 C1351 1.349 . S
C1367 H1359 0.950 . S
C1367 C1365 1.327 . S
C1368 C1356 1.349 . S
C1368 H1362 0.950 . S
C1368 C1369 1.327 . S
C1369 H1363 0.950 . S
C1369 C1368 1.327 . S
C1369 C1373 1.429 . S
C1370 C1353 1.574 . S
C1370 H1364 0.949 . S
C1370 C1374 1.368 . S
C1371 C1352 1.429 . S
C1371 C1365 1.429 . S
C1371 C1372 1.523 . S
C1372 C1353 1.368 . S
C1372 C1366 1.368 . S
C1372 C1371 1.523 . S
C1373 C1357 1.429 . S
C1373 C1369 1.429 . S
C1373 C1374 1.523 . S
C1374 C1358 1.368 . S
C1374 C1370 1.368 . S
C1374 C1373 1.523 . S
H1375 C1350 0.950 . S
H1376 C1352 0.950 . S
H1377 C1353 0.949 . S
H1378 C1355 0.950 . S
H1379 C1357 0.950 . S
C1380 C1381 1.349 . S
C1380 C1382 1.327 . S
C1380 H1405 0.950 . S
C1381 C1380 1.349 . S
C1381 C1397 1.349 . S
C1382 C1380 1.327 . S
C1382 C1401 1.429 . S
C1382 H1406 0.950 . S
C1383 C1400 1.574 . S
C1383 C1402 1.368 . S
C1383 H1407 0.949 . S
H1384 C1388 0.949 . S
C1385 C1386 1.349 . S
C1385 C1387 1.327 . S
C1385 H1408 0.950 . S
C1386 C1385 1.349 . S
C1386 C1398 1.349 . S
C1387 C1385 1.327 . S
C1387 C1403 1.429 . S
C1387 H1409 0.950 . S
C1388 H1384 0.949 . S
C1388 C1396 1.574 . S
C1388 C1404 1.368 . S
H1389 C1397 0.950 . S
H1390 C1395 0.950 . S
H1391 C1396 0.949 . S
H1392 C1398 0.950 . S
H1393 C1399 0.950 . S
H1394 C1400 0.949 . S
C1395 H1390 0.950 . S
C1395 C1397 1.327 . S
C1395 C1401 1.429 . S
C1396 C1388 1.574 . S
C1396 H1391 0.949 . S
C1396 C1402 1.368 . S
C1397 C1381 1.349 . S
C1397 H1389 0.950 . S
C1397 C1395 1.327 . S
C1398 C1386 1.349 . S
C1398 H1392 0.950 . S
C1398 C1399 1.327 . S
C1399 H1393 0.950 . S
C1399 C1398 1.327 . S
C1399 C1403 1.429 . S
C1400 C1383 1.574 . S
C1400 H1394 0.949 . S
C1400 C1404 1.368 . S
C1401 C1382 1.429 . S
C1401 C1395 1.429 . S
C1401 C1402 1.523 . S
C1402 C1383 1.368 . S
C1402 C1396 1.368 . S
C1402 C1401 1.523 . S
C1403 C1387 1.429 . S
C1403 C1399 1.429 . S
C1403 C1404 1.523 . S
C1404 C1388 1.368 . S
C1404 C1400 1.368 . S
C1404 C1403 1.523 . S
H1405 C1380 0.950 . S
H1406 C1382 0.950 . S
H1407 C1383 0.949 . S
H1408 C1385 0.950 . S
H1409 C1387 0.950 . S
C1410 C1411 1.349 . S
C1410 C1412 1.327 . S
C1410 H1435 0.950 . S
C1411 C1410 1.349 . S
C1411 C1427 1.349 . S
C1412 C1410 1.327 . S
C1412 C1431 1.429 . S
C1412 H1436 0.950 . S
C1413 C1430 1.574 . S
C1413 C1432 1.368 . S
C1413 H1437 0.949 . S
H1414 C1418 0.949 . S
C1415 C1416 1.349 . S
C1415 C1417 1.327 . S
C1415 H1438 0.950 . S
C1416 C1415 1.349 . S
C1416 C1428 1.349 . S
C1417 C1415 1.327 . S
C1417 C1433 1.429 . S
C1417 H1439 0.950 . S
C1418 H1414 0.949 . S
C1418 C1426 1.574 . S
C1418 C1434 1.368 . S
H1419 C1427 0.950 . S
H1420 C1425 0.950 . S
H1421 C1426 0.949 . S
H1422 C1428 0.950 . S
H1423 C1429 0.950 . S
H1424 C1430 0.949 . S
C1425 H1420 0.950 . S
C1425 C1427 1.327 . S
C1425 C1431 1.429 . S
C1426 C1418 1.574 . S
C1426 H1421 0.949 . S
C1426 C1432 1.368 . S
C1427 C1411 1.349 . S
C1427 H1419 0.950 . S
C1427 C1425 1.327 . S
C1428 C1416 1.349 . S
C1428 H1422 0.950 . S
C1428 C1429 1.327 . S
C1429 H1423 0.950 . S
C1429 C1428 1.327 . S
C1429 C1433 1.429 . S
C1430 C1413 1.574 . S
C1430 H1424 0.949 . S
C1430 C1434 1.368 . S
C1431 C1412 1.429 . S
C1431 C1425 1.429 . S
C1431 C1432 1.523 . S
C1432 C1413 1.368 . S
C1432 C1426 1.368 . S
C1432 C1431 1.523 . S
C1433 C1417 1.429 . S
C1433 C1429 1.429 . S
C1433 C1434 1.523 . S
C1434 C1418 1.368 . S
C1434 C1430 1.368 . S
C1434 C1433 1.523 . S
H1435 C1410 0.950 . S
H1436 C1412 0.950 . S
H1437 C1413 0.949 . S
H1438 C1415 0.950 . S
H1439 C1417 0.950 . S
C1440 C1441 1.349 . S
C1440 C1442 1.327 . S
C1440 H1465 0.950 . S
C1441 C1440 1.349 . S
C1441 C1457 1.349 . S
C1442 C1440 1.327 . S
C1442 C1461 1.429 . S
C1442 H1466 0.950 . S
C1443 C1460 1.574 . S
C1443 C1462 1.368 . S
C1443 H1467 0.949 . S
H1444 C1448 0.949 . S
C1445 C1446 1.349 . S
C1445 C1447 1.327 . S
C1445 H1468 0.950 . S
C1446 C1445 1.349 . S
C1446 C1458 1.349 . S
C1447 C1445 1.327 . S
C1447 C1463 1.429 . S
C1447 H1469 0.950 . S
C1448 H1444 0.949 . S
C1448 C1456 1.574 . S
C1448 C1464 1.368 . S
H1449 C1457 0.950 . S
H1450 C1455 0.950 . S
H1451 C1456 0.949 . S
H1452 C1458 0.950 . S
H1453 C1459 0.950 . S
H1454 C1460 0.949 . S
C1455 H1450 0.950 . S
C1455 C1457 1.327 . S
C1455 C1461 1.429 . S
C1456 C1448 1.574 . S
C1456 H1451 0.949 . S
C1456 C1462 1.368 . S
C1457 C1441 1.349 . S
C1457 H1449 0.950 . S
C1457 C1455 1.327 . S
C1458 C1446 1.349 . S
C1458 H1452 0.950 . S
C1458 C1459 1.327 . S
C1459 H1453 0.950 . S
C1459 C1458 1.327 . S
C1459 C1463 1.429 . S
C1460 C1443 1.574 . S
C1460 H1454 0.949 . S
C1460 C1464 1.368 . S
C1461 C1442 1.429 . S
C1461 C1455 1.429 . S
C1461 C1462 1.523 . S
C1462 C1443 1.368 . S
C1462 C1456 1.368 . S
C1462 C1461 1.523 . S
C1463 C1447 1.429 . S
C1463 C1459 1.429 . S
C1463 C1464 1.523 . S
C1464 C1448 1.368 . S
C1464 C1460 1.368 . S
C1464 C1463 1.523 . S
H1465 C1440 0.950 . S
H1466 C1442 0.950 . S
H1467 C1443 0.949 . S
H1468 C1445 0.950 . S
H1469 C1447 0.950 . S
C1470 C1471 1.349 . S
C1470 C1472 1.327 . S
C1470 H1495 0.950 . S
C1471 C1470 1.349 . S
C1471 C1487 1.349 . S
C1472 C1470 1.327 . S
C1472 C1491 1.429 . S
C1472 H1496 0.950 . S
C1473 C1490 1.574 . S
C1473 C1492 1.368 . S
C1473 H1497 0.949 . S
H1474 C1478 0.949 . S
C1475 C1476 1.349 . S
C1475 C1477 1.327 . S
C1475 H1498 0.950 . S
C1476 C1475 1.349 . S
C1476 C1488 1.349 . S
C1477 C1475 1.327 . S
C1477 C1493 1.429 . S
C1477 H1499 0.950 . S
C1478 H1474 0.949 . S
C1478 C1486 1.574 . S
C1478 C1494 1.368 . S
H1479 C1487 0.950 . S
H1480 C1485 0.950 . S
H1481 C1486 0.949 . S
H1482 C1488 0.950 . S
H1483 C1489 0.950 . S
H1484 C1490 0.949 . S
C1485 H1480 0.950 . S
C1485 C1487 1.327 . S
C1485 C1491 1.429 . S
C1486 C1478 1.574 . S
C1486 H1481 0.949 . S
C1486 C1492 1.368 . S
C1487 C1471 1.349 . S
C1487 H1479 0.950 . S
C1487 C1485 1.327 . S
C1488 C1476 1.349 . S
C1488 H1482 0.950 . S
C1488 C1489 1.327 . S
C1489 H1483 0.950 . S
C1489 C1488 1.327 . S
C1489 C1493 1.429 . S
C1490 C1473 1.574 . S
C1490 H1484 0.949 . S
C1490 C1494 1.368 . S
C1491 C1472 1.429 . S
C1491 C1485 1.429 . S
C1491 C1492 1.523 . S
C1492 C1473 1.368 . S
C1492 C1486 1.368 . S
C1492 C1491 1.523 . S
C1493 C1477 1.429 . S
C1493 C1489 1.429 . S
C1493 C1494 1.523 . S
C1494 C1478 1.368 . S
C1494 C1490 1.368 . S
C1494 C1493 1.523 . S
H1495 C1470 0.950 . S
H1496 C1472 0.950 . S
H1497 C1473 0.949 . S
H1498 C1475 0.950 . S
H1499 C1477 0.950 . S
C1500 C1501 1.349 . S
C1500 C1502 1.327 . S
C1500 H1525 0.950 . S
C1501 C1500 1.349 . S
C1501 C1517 1.349 . S
C1502 C1500 1.327 . S
C1502 C1521 1.429 . S
C1502 H1526 0.950 . S
C1503 C1520 1.574 . S
C1503 C1522 1.368 . S
C1503 H1527 0.949 . S
H1504 C1508 0.949 . S
C1505 C1506 1.349 . S
C1505 C1507 1.327 . S
C1505 H1528 0.950 . S
C1506 C1505 1.349 . S
C1506 C1518 1.349 . S
C1507 C1505 1.327 . S
C1507 C1523 1.429 . S
C1507 H1529 0.950 . S
C1508 H1504 0.949 . S
C1508 C1516 1.574 . S
C1508 C1524 1.368 . S
H1509 C1517 0.950 . S
H1510 C1515 0.950 . S
H1511 C1516 0.949 . S
H1512 C1518 0.950 . S
H1513 C1519 0.950 . S
H1514 C1520 0.949 . S
C1515 H1510 0.950 . S
C1515 C1517 1.327 . S
C1515 C1521 1.429 . S
C1516 C1508 1.574 . S
C1516 H1511 0.949 . S
C1516 C1522 1.368 . S
C1517 C1501 1.349 . S
C1517 H1509 0.950 . S
C1517 C1515 1.327 . S
C1518 C1506 1.349 . S
C1518 H1512 0.950 . S
C1518 C1519 1.327 . S
C1519 H1513 0.950 . S
C1519 C1518 1.327 . S
C1519 C1523 1.429 . S
C1520 C1503 1.574 . S
C1520 H1514 0.949 . S
C1520 C1524 1.368 . S
C1521 C1502 1.429 . S
C1521 C1515 1.429 . S
C1521 C1522 1.523 . S
C1522 C1503 1.368 . S
C1522 C1516 1.368 . S
C1522 C1521 1.523 . S
C1523 C1507 1.429 . S
C1523 C1519 1.429 . S
C1523 C1524 1.523 . S
C1524 C1508 1.368 . S
C1524 C1520 1.368 . S
C1524 C1523 1.523 . S
H1525 C1500 0.950 . S
H1526 C1502 0.950 . S
H1527 C1503 0.949 . S
H1528 C1505 0.950 . S
H1529 C1507 0.950 . S
C1530 C1531 1.349 . S
C1530 C1532 1.327 . S
C1530 H1555 0.950 . S
C1531 C1530 1.349 . S
C1531 C1547 1.349 . S
C1532 C1530 1.327 . S
C1532 C1551 1.429 . S
C1532 H1556 0.950 . S
C1533 C1550 1.574 . S
C1533 C1552 1.368 . S
C1533 H1557 0.949 . S
H1534 C1538 0.949 . S
C1535 C1536 1.349 . S
C1535 C1537 1.327 . S
C1535 H1558 0.950 . S
C1536 C1535 1.349 . S
C1536 C1548 1.349 . S
C1537 C1535 1.327 . S
C1537 C1553 1.429 . S
C1537 H1559 0.950 . S
C1538 H1534 0.949 . S
C1538 C1546 1.574 . S
C1538 C1554 1.368 . S
H1539 C1547 0.950 . S
H1540 C1545 0.950 . S
H1541 C1546 0.949 . S
H1542 C1548 0.950 . S
H1543 C1549 0.950 . S
H1544 C1550 0.949 . S
C1545 H1540 0.950 . S
C1545 C1547 1.327 . S
C1545 C1551 1.429 . S
C1546 C1538 1.574 . S
C1546 H1541 0.949 . S
C1546 C1552 1.368 . S
C1547 C1531 1.349 . S
C1547 H1539 0.950 . S
C1547 C1545 1.327 . S
C1548 C1536 1.349 . S
C1548 H1542 0.950 . S
C1548 C1549 1.327 . S
C1549 H1543 0.950 . S
C1549 C1548 1.327 . S
C1549 C1553 1.429 . S
C1550 C1533 1.574 . S
C1550 H1544 0.949 . S
C1550 C1554 1.368 . S
C1551 C1532 1.429 . S
C1551 C1545 1.429 . S
C1551 C1552 1.523 . S
C1552 C1533 1.368 . S
C1552 C1546 1.368 . S
C1552 C1551 1.523 . S
C1553 C1537 1.429 . S
C1553 C1549 1.429 . S
C1553 C1554 1.523 . S
C1554 C1538 1.368 . S
C1554 C1550 1.368 . S
C1554 C1553 1.523 . S
H1555 C1530 0.950 . S
H1556 C1532 0.950 . S
H1557 C1533 0.949 . S
H1558 C1535 0.950 . S
H1559 C1537 0.950 . S
C606 C512 1.369 . S
C601 C35 1.284 . S
C636 C526 1.362 . S
C631 C115 1.285 . S
C666 C539 1.368 . S
C661 C177 1.292 . S
C691 C221 1.285 . S
C696 C506 1.373 . S
C721 C283 1.294 . S
C726 C499 1.381 . S
C751 C363 1.296 . S
C756 C519 1.374 . S
C786 C527 1.370 . S
C781 C407 1.284 . S
C816 C540 1.375 . S
C811 C469 1.288 . S
C841 C159 1.283 . S
C846 C566 1.369 . S
C876 C584 1.362 . S
C871 C239 1.286 . S
C901 C53 1.291 . S
C906 C591 1.368 . S
C936 C558 1.373 . S
C931 C97 1.286 . S
C961 C425 1.303 . S
C966 C551 1.381 . S
C991 C487 1.296 . S
C996 C565 1.374 . S
C1026 C577 1.370 . S
C1021 C301 1.294 . S
C1051 C345 1.288 . S
C1056 C592 1.375 . S
C1086 C525 1.973 . S
C1081 C29 1.964 . S
C1116 C538 1.977 . S
C1111 C109 1.939 . S
C1141 C171 1.931 . S
C1146 C501 1.969 . S
C1171 C215 1.954 . S
C1176 C513 1.958 . S
C1201 C277 1.946 . S
C1206 C545 1.950 . S
C1236 C500 1.954 . S
C1231 C357 1.923 . S
C1266 C514 1.970 . S
C1261 C401 1.960 . S
C1296 C532 1.958 . S
C1291 C463 1.955 . S
C1326 C579 1.974 . S
C1321 C153 1.964 . S
C1356 C590 1.977 . S
C1351 C233 1.939 . S
C1381 C47 1.932 . S
C1386 C553 1.969 . S
C1416 C571 1.958 . S
C1411 C91 1.954 . S
C1446 C597 1.950 . S
C1441 C419 1.919 . S
C1471 C481 1.922 . S
C1476 C552 1.954 . S
C1506 C564 1.970 . S
C1501 C295 1.932 . S
C1536 C578 1.958 . S
C1531 C339 1.955 . S
