# Generated by pormake.
# Topology pyr, (3,6)-cn, num edge types: 1
# Building blocks:
#     Node 0, Type 0, BuildingBlock: KAKCAD_clean_linker_0, # of connection points: 3
#     Node 1, Type 0, BuildingBlock: KAKCAD_clean_linker_0, # of connection points: 3
#     Node 2, Type 0, BuildingBlock: KAKCAD_clean_linker_0, # of connection points: 3
#     Node 3, Type 0, BuildingBlock: KAKCAD_clean_linker_0, # of connection points: 3
#     Node 4, Type 0, BuildingBlock: KAKCAD_clean_linker_0, # of connection points: 3
#     Node 5, Type 0, BuildingBlock: KAKCAD_clean_linker_0, # of connection points: 3
#     Node 6, Type 0, BuildingBlock: KAKCAD_clean_linker_0, # of connection points: 3
#     Node 7, Type 0, BuildingBlock: KAKCAD_clean_linker_0, # of connection points: 3
#     Node 8, Type 1, BuildingBlock: MIFKUJ_clean_sbu_0, # of connection points: 6
#     Node 9, Type 1, BuildingBlock: MIFKUJ_clean_sbu_0, # of connection points: 6
#     Node 10, Type 1, BuildingBlock: MIFKUJ_clean_sbu_0, # of connection points: 6
#     Node 11, Type 1, BuildingBlock: MIFKUJ_clean_sbu_0, # of connection points: 6
#     Edge 12, Type (0, 1), BuildingBlock: TEMPAE_clean_linker_10, # of connection points: 2
#     Edge 13, Type (0, 1), BuildingBlock: TEMPAE_clean_linker_10, # of connection points: 2
#     Edge 14, Type (0, 1), BuildingBlock: TEMPAE_clean_linker_10, # of connection points: 2
#     Edge 15, Type (0, 1), BuildingBlock: TEMPAE_clean_linker_10, # of connection points: 2
#     Edge 16, Type (0, 1), BuildingBlock: TEMPAE_clean_linker_10, # of connection points: 2
#     Edge 17, Type (0, 1), BuildingBlock: TEMPAE_clean_linker_10, # of connection points: 2
#     Edge 18, Type (0, 1), BuildingBlock: TEMPAE_clean_linker_10, # of connection points: 2
#     Edge 19, Type (0, 1), BuildingBlock: TEMPAE_clean_linker_10, # of connection points: 2
#     Edge 20, Type (0, 1), BuildingBlock: TEMPAE_clean_linker_10, # of connection points: 2
#     Edge 21, Type (0, 1), BuildingBlock: TEMPAE_clean_linker_10, # of connection points: 2
#     Edge 22, Type (0, 1), BuildingBlock: TEMPAE_clean_linker_10, # of connection points: 2
#     Edge 23, Type (0, 1), BuildingBlock: TEMPAE_clean_linker_10, # of connection points: 2
#     Edge 24, Type (0, 1), BuildingBlock: TEMPAE_clean_linker_10, # of connection points: 2
#     Edge 25, Type (0, 1), BuildingBlock: TEMPAE_clean_linker_10, # of connection points: 2
#     Edge 26, Type (0, 1), BuildingBlock: TEMPAE_clean_linker_10, # of connection points: 2
#     Edge 27, Type (0, 1), BuildingBlock: TEMPAE_clean_linker_10, # of connection points: 2
#     Edge 28, Type (0, 1), BuildingBlock: TEMPAE_clean_linker_10, # of connection points: 2
#     Edge 29, Type (0, 1), BuildingBlock: TEMPAE_clean_linker_10, # of connection points: 2
#     Edge 30, Type (0, 1), BuildingBlock: TEMPAE_clean_linker_10, # of connection points: 2
#     Edge 31, Type (0, 1), BuildingBlock: TEMPAE_clean_linker_10, # of connection points: 2
#     Edge 32, Type (0, 1), BuildingBlock: TEMPAE_clean_linker_10, # of connection points: 2
#     Edge 33, Type (0, 1), BuildingBlock: TEMPAE_clean_linker_10, # of connection points: 2
#     Edge 34, Type (0, 1), BuildingBlock: TEMPAE_clean_linker_10, # of connection points: 2
#     Edge 35, Type (0, 1), BuildingBlock: TEMPAE_clean_linker_10, # of connection points: 2
# Relax obj value: 0.027
# Max RMSD: 0.079
# Mean RMSD: 0.047
data_MOF--net-pyr--node1-MIFKUJ_clean_sbu_0--node2-KAKCAD_clean_linker_0--edge1-TEMPAE_clean_linker_10
_symmetry_space_group_name_H-M    P1
_symmetry_Int_Tables_number       1
_symmetry_cell_setting            triclinic
loop_
_symmetry_equiv_pos_as_xyz
'x, y, z'
_cell_length_a     48.687527
_cell_length_b     43.650936
_cell_length_c     47.106524
_cell_angle_alpha  86.487094
_cell_angle_beta   88.467738
_cell_angle_gamma 96.031389
loop_
_atom_site_label
_atom_site_type_symbol
_atom_site_fract_x
_atom_site_fract_y
_atom_site_fract_z
_atom_type_partial_charge
C0 C 0.14482 0.12665 0.29236 0.0
C1 C 0.16028 0.11831 0.3158 0.0
C2 C 0.15752 0.14417 0.269 0.0
C3 C 0.186 0.15366 0.26851 0.0
C4 C 0.20161 0.14507 0.29179 0.0
C5 C 0.1888 0.1277 0.31537 0.0
C6 C 0.19912 0.17248 0.24362 0.0
C7 C 0.18641 0.19747 0.2319 0.0
C8 C 0.19728 0.21406 0.20699 0.0
C9 C 0.22169 0.20603 0.19426 0.0
C10 C 0.23459 0.18076 0.20545 0.0
C11 C 0.22318 0.16427 0.23037 0.0
C12 C 0.25854 0.17007 0.18998 0.0
C13 C 0.26005 0.17182 0.16 0.0
C14 C 0.2794 0.15666 0.20494 0.0
C15 C 0.30063 0.14442 0.19031 0.0
C16 C 0.30176 0.146 0.16049 0.0
C17 C 0.18179 0.23788 0.19289 0.0
C18 C 0.15307 0.23203 0.19014 0.0
C19 C 0.19556 0.26573 0.18084 0.0
C20 C 0.18096 0.28703 0.16585 0.0
C21 C 0.15235 0.28075 0.16252 0.0
C22 C 0.13852 0.25323 0.17513 0.0
C23 C 0.28162 0.1602 0.14543 0.0
H24 H 0.12274 0.12004 0.29226 0.0
H25 H 0.14506 0.15017 0.25119 0.0
H26 H 0.2236 0.15219 0.29191 0.0
H27 H 0.20117 0.12147 0.33317 0.0
H28 H 0.16777 0.20382 0.24205 0.0
H29 H 0.23208 0.14398 0.23872 0.0
H30 H 0.23006 0.21885 0.17499 0.0
H31 H 0.24413 0.18126 0.14764 0.0
H32 H 0.27926 0.15538 0.22797 0.0
H33 H 0.31615 0.13367 0.20227 0.0
H34 H 0.14191 0.2106 0.19888 0.0
H35 H 0.21766 0.27093 0.18279 0.0
H36 H 0.28205 0.16133 0.12237 0.0
H37 H 0.11644 0.24794 0.17315 0.0
H38 H 0.19217 0.30799 0.15618 0.0
C39 C 0.35826 0.88502 0.78101 0.0
C40 C 0.3871 0.89062 0.78321 0.0
C41 C 0.3468 0.87357 0.75636 0.0
C42 C 0.36386 0.8677 0.73316 0.0
C43 C 0.39266 0.87381 0.73522 0.0
C44 C 0.40411 0.88486 0.75995 0.0
C45 C 0.35182 0.85499 0.70702 0.0
C46 C 0.32703 0.8644 0.69658 0.0
C47 C 0.31573 0.85263 0.67181 0.0
C48 C 0.32956 0.83125 0.65732 0.0
C49 C 0.35442 0.82173 0.6673 0.0
C50 C 0.36525 0.83351 0.69222 0.0
C51 C 0.36932 0.79967 0.65168 0.0
C52 C 0.35519 0.77248 0.64258 0.0
C53 C 0.39793 0.80557 0.64604 0.0
C54 C 0.41216 0.78468 0.6317 0.0
C55 C 0.39816 0.75721 0.62289 0.0
C56 C 0.28981 0.86326 0.66077 0.0
C57 C 0.26724 0.86591 0.67938 0.0
C58 C 0.28763 0.87135 0.63164 0.0
C59 C 0.26355 0.88224 0.62139 0.0
C60 C 0.24106 0.8851 0.64002 0.0
C61 C 0.24309 0.87662 0.66909 0.0
C62 C 0.36947 0.7514 0.62848 0.0
H63 H 0.34448 0.88952 0.79832 0.0
H64 H 0.32455 0.86886 0.75571 0.0
H65 H 0.40648 0.87011 0.71766 0.0
H66 H 0.4264 0.88838 0.76094 0.0
H67 H 0.31689 0.88165 0.70724 0.0
H68 H 0.38398 0.82537 0.70035 0.0
H69 H 0.32106 0.82214 0.63814 0.0
H70 H 0.33318 0.76721 0.64692 0.0
H71 H 0.40927 0.82657 0.65249 0.0
H72 H 0.43412 0.79023 0.6273 0.0
H73 H 0.26824 0.85961 0.7019 0.0
H74 H 0.30476 0.8698 0.61682 0.0
H75 H 0.35807 0.73027 0.62245 0.0
H76 H 0.22618 0.8788 0.684 0.0
H77 H 0.26249 0.88834 0.59884 0.0
C78 C 0.75604 0.41825 0.85362 0.0
C79 C 0.77374 0.39805 0.86604 0.0
C80 C 0.73144 0.4068 0.84132 0.0
C81 C 0.72391 0.37481 0.8409 0.0
C82 C 0.74183 0.35466 0.85294 0.0
C83 C 0.76623 0.36608 0.86547 0.0
C84 C 0.69731 0.36235 0.82854 0.0
C85 C 0.68692 0.3769 0.80409 0.0
C86 C 0.66217 0.36459 0.7923 0.0
C87 C 0.64756 0.33769 0.80538 0.0
C88 C 0.65741 0.32299 0.82982 0.0
C89 C 0.68218 0.33547 0.84122 0.0
C90 C 0.6419 0.2945 0.84351 0.0
C91 C 0.61335 0.2931 0.84953 0.0
C92 C 0.65569 0.26859 0.85095 0.0
C93 C 0.64124 0.24185 0.86413 0.0
C94 C 0.61277 0.24059 0.87053 0.0
C95 C 0.65154 0.37939 0.76608 0.0
C96 C 0.64856 0.41114 0.76396 0.0
C97 C 0.64343 0.36154 0.74328 0.0
C98 C 0.6324 0.37503 0.71901 0.0
C99 C 0.62881 0.40661 0.71713 0.0
C100 C 0.63706 0.42455 0.73985 0.0
C101 C 0.59897 0.26651 0.86312 0.0
H102 H 0.76125 0.44301 0.85318 0.0
H103 H 0.71814 0.42311 0.83253 0.0
H104 H 0.73712 0.32989 0.85264 0.0
H105 H 0.77904 0.3497 0.87504 0.0
H106 H 0.69846 0.39726 0.79366 0.0
H107 H 0.6893 0.32447 0.8605 0.0
H108 H 0.62849 0.32809 0.79645 0.0
H109 H 0.60223 0.31279 0.84418 0.0
H110 H 0.67766 0.26895 0.8464 0.0
H111 H 0.65245 0.22231 0.86977 0.0
H112 H 0.65451 0.42542 0.78126 0.0
H113 H 0.64562 0.33706 0.74424 0.0
H114 H 0.577 0.26611 0.86767 0.0
H115 H 0.63468 0.44898 0.73893 0.0
H116 H 0.62607 0.36057 0.70195 0.0
C117 C 0.8581 0.59096 0.21142 0.0
C118 C 0.88705 0.59325 0.20771 0.0
C119 C 0.84578 0.60497 0.23373 0.0
C120 C 0.86205 0.62136 0.2532 0.0
C121 C 0.891 0.62309 0.24983 0.0
C122 C 0.9033 0.60946 0.22732 0.0
C123 C 0.84896 0.63716 0.27652 0.0
C124 C 0.82412 0.62393 0.29041 0.0
C125 C 0.81139 0.63907 0.31197 0.0
C126 C 0.82406 0.66768 0.31968 0.0
C127 C 0.84909 0.68096 0.30659 0.0
C128 C 0.86125 0.66573 0.2849 0.0
C129 C 0.8628 0.71039 0.31628 0.0
C130 C 0.8473 0.73489 0.32186 0.0
C131 C 0.89123 0.71356 0.3215 0.0
C132 C 0.90366 0.74019 0.333 0.0
C133 C 0.88797 0.76432 0.33934 0.0
C134 C 0.78496 0.62522 0.32656 0.0
C135 C 0.76414 0.60908 0.3114 0.0
C136 C 0.78001 0.62875 0.35573 0.0
C137 C 0.75474 0.61728 0.36913 0.0
C138 C 0.73394 0.60151 0.35388 0.0
C139 C 0.73899 0.59719 0.32497 0.0
C140 C 0.85974 0.76155 0.33322 0.0
H141 H 0.84484 0.5783 0.19708 0.0
H142 H 0.82345 0.60336 0.23535 0.0
H143 H 0.9043 0.635 0.26461 0.0
H144 H 0.92562 0.61215 0.22507 0.0
H145 H 0.81501 0.60145 0.28493 0.0
H146 H 0.88005 0.67659 0.27416 0.0
H147 H 0.81452 0.67967 0.33614 0.0
H148 H 0.82542 0.73328 0.31778 0.0
H149 H 0.90369 0.69501 0.31758 0.0
H150 H 0.9255 0.74176 0.33724 0.0
H151 H 0.76697 0.60623 0.28888 0.0
H152 H 0.7957 0.6403 0.36835 0.0
H153 H 0.84701 0.77958 0.33808 0.0
H154 H 0.72321 0.58525 0.31269 0.0
H155 H 0.75153 0.62051 0.39156 0.0
C156 C 0.83433 0.83266 0.69889 0.0
C157 C 0.84334 0.86447 0.69737 0.0
C158 C 0.82075 0.81835 0.72347 0.0
C159 C 0.81546 0.83565 0.74676 0.0
C160 C 0.82354 0.86753 0.74496 0.0
C161 C 0.83751 0.88176 0.72062 0.0
C162 C 0.80321 0.82039 0.77367 0.0
C163 C 0.81524 0.79564 0.78684 0.0
C164 C 0.8059 0.78324 0.81401 0.0
C165 C 0.78365 0.79521 0.82753 0.0
C166 C 0.77136 0.81993 0.81453 0.0
C167 C 0.78124 0.83233 0.78753 0.0
C168 C 0.74954 0.83415 0.82997 0.0
C169 C 0.72803 0.81571 0.84527 0.0
C170 C 0.75059 0.86643 0.83013 0.0
C171 C 0.73066 0.88 0.84538 0.0
C172 C 0.70925 0.86161 0.86083 0.0
C173 C 0.82113 0.75993 0.82927 0.0
C174 C 0.83068 0.73554 0.815 0.0
C175 C 0.82763 0.76304 0.85791 0.0
C176 C 0.8437 0.74257 0.87184 0.0
C177 C 0.8537 0.71855 0.85744 0.0
C178 C 0.84677 0.71501 0.82897 0.0
C179 C 0.70803 0.82932 0.86051 0.0
H180 H 0.83798 0.81873 0.68121 0.0
H181 H 0.81453 0.79373 0.72439 0.0
H182 H 0.82002 0.88127 0.76284 0.0
H183 H 0.84457 0.90612 0.72052 0.0
H184 H 0.83304 0.78739 0.77665 0.0
H185 H 0.77201 0.85151 0.77732 0.0
H186 H 0.77653 0.78598 0.84864 0.0
H187 H 0.72663 0.79078 0.84539 0.0
H188 H 0.76711 0.88125 0.81885 0.0
H189 H 0.73194 0.90495 0.84494 0.0
H190 H 0.82587 0.73248 0.79297 0.0
H191 H 0.82093 0.78184 0.86939 0.0
H192 H 0.69184 0.81458 0.87237 0.0
H193 H 0.8543 0.6968 0.81729 0.0
H194 H 0.84837 0.74561 0.89391 0.0
C195 C 0.63971 0.10103 0.2378 0.0
C196 C 0.62564 0.12072 0.22007 0.0
C197 C 0.65101 0.11131 0.26296 0.0
C198 C 0.64873 0.1416 0.27072 0.0
C199 C 0.63536 0.1615 0.2524 0.0
C200 C 0.6238 0.15111 0.22748 0.0
C201 C 0.65953 0.15223 0.29814 0.0
C202 C 0.68439 0.14304 0.30848 0.0
C203 C 0.69433 0.15252 0.33467 0.0
C204 C 0.6794 0.17221 0.35017 0.0
C205 C 0.65466 0.182 0.34001 0.0
C206 C 0.64474 0.17146 0.31423 0.0
C207 C 0.63909 0.20331 0.35611 0.0
C208 C 0.63671 0.20037 0.38602 0.0
C209 C 0.62639 0.22684 0.34151 0.0
C210 C 0.61149 0.24671 0.35637 0.0
C211 C 0.60916 0.24377 0.38621 0.0
C212 C 0.72006 0.14143 0.34595 0.0
C213 C 0.72561 0.11082 0.34285 0.0
C214 C 0.7391 0.1611 0.36015 0.0
C215 C 0.76295 0.15032 0.37116 0.0
C216 C 0.76843 0.11967 0.3681 0.0
C217 C 0.74953 0.10014 0.35365 0.0
C218 C 0.622 0.2205 0.40091 0.0
H219 H 0.64122 0.07741 0.23264 0.0
H220 H 0.66084 0.09522 0.27669 0.0
H221 H 0.63377 0.18518 0.25731 0.0
H222 H 0.6134 0.16687 0.21393 0.0
H223 H 0.6963 0.12886 0.29588 0.0
H224 H 0.62504 0.17775 0.30695 0.0
H225 H 0.68702 0.17988 0.37021 0.0
H226 H 0.64587 0.18226 0.39794 0.0
H227 H 0.62825 0.23022 0.31855 0.0
H228 H 0.60221 0.2648 0.34452 0.0
H229 H 0.71128 0.09489 0.33237 0.0
H230 H 0.73569 0.18492 0.36262 0.0
H231 H 0.62035 0.2176 0.42392 0.0
H232 H 0.75326 0.07654 0.35049 0.0
H233 H 0.77692 0.16593 0.38239 0.0
C234 C 0.23797 0.59204 0.17017 0.0
C235 C 0.23432 0.59658 0.14075 0.0
C236 C 0.26265 0.60357 0.18234 0.0
C237 C 0.28439 0.6196 0.1653 0.0
C238 C 0.28089 0.62315 0.13571 0.0
C239 C 0.25615 0.61205 0.12367 0.0
C240 C 0.3103 0.63347 0.1781 0.0
C241 C 0.32209 0.61861 0.20153 0.0
C242 C 0.34679 0.63169 0.21302 0.0
C243 C 0.35971 0.6599 0.20055 0.0
C244 C 0.34842 0.67508 0.17716 0.0
C245 C 0.32351 0.66191 0.16652 0.0
C246 C 0.36284 0.70437 0.16338 0.0
C247 C 0.37643 0.72695 0.17968 0.0
C248 C 0.36334 0.70983 0.13361 0.0
C249 C 0.37689 0.73709 0.12052 0.0
C250 C 0.39061 0.7596 0.13676 0.0
C251 C 0.35938 0.61614 0.23795 0.0
C252 C 0.34282 0.60164 0.2609 0.0
C253 C 0.38827 0.61675 0.23949 0.0
C254 C 0.40029 0.60412 0.26354 0.0
C255 C 0.38381 0.59013 0.28676 0.0
C256 C 0.35487 0.58877 0.28494 0.0
C257 C 0.3902 0.75414 0.16654 0.0
H258 H 0.22143 0.58029 0.18389 0.0
H259 H 0.26436 0.60058 0.20519 0.0
H260 H 0.29733 0.63453 0.12168 0.0
H261 H 0.25415 0.61541 0.10087 0.0
H262 H 0.31249 0.59643 0.21034 0.0
H263 H 0.31411 0.67422 0.14932 0.0
H264 H 0.37876 0.67007 0.20903 0.0
H265 H 0.37626 0.72378 0.20266 0.0
H266 H 0.35349 0.69286 0.12026 0.0
H267 H 0.37635 0.74059 0.09759 0.0
H268 H 0.32053 0.60085 0.26061 0.0
H269 H 0.40175 0.62717 0.22209 0.0
H270 H 0.40076 0.77075 0.17977 0.0
H271 H 0.34143 0.5778 0.30215 0.0
H272 H 0.42261 0.606 0.26413 0.0
C273 C 0.15082 0.23987 0.64867 0.0
C274 C 0.12322 0.23861 0.64041 0.0
C275 C 0.16282 0.26502 0.66254 0.0
C276 C 0.14752 0.28954 0.66861 0.0
C277 C 0.11973 0.28808 0.66092 0.0
C278 C 0.10774 0.26292 0.6468 0.0
C279 C 0.16105 0.31689 0.68205 0.0
C280 C 0.18743 0.32989 0.67216 0.0
C281 C 0.20135 0.35497 0.68506 0.0
C282 C 0.18832 0.36714 0.70823 0.0
C283 C 0.16167 0.35482 0.71816 0.0
C284 C 0.1481 0.32977 0.70481 0.0
C285 C 0.14817 0.36798 0.74266 0.0
C286 C 0.16292 0.37436 0.76723 0.0
C287 C 0.12054 0.37446 0.74159 0.0
C288 C 0.10802 0.38734 0.76446 0.0
C289 C 0.12274 0.39376 0.78912 0.0
C290 C 0.22924 0.3685 0.67389 0.0
C291 C 0.24848 0.34942 0.6639 0.0
C292 C 0.23655 0.40061 0.67218 0.0
C293 C 0.26221 0.41331 0.66034 0.0
C294 C 0.28115 0.39425 0.64967 0.0
C295 C 0.27399 0.36212 0.65182 0.0
C296 C 0.15034 0.38694 0.79021 0.0
H297 H 0.16339 0.22168 0.64384 0.0
H298 H 0.18419 0.26534 0.66846 0.0
H299 H 0.10749 0.3067 0.66521 0.0
H300 H 0.08636 0.26247 0.6409 0.0
H301 H 0.19689 0.32076 0.65386 0.0
H302 H 0.12784 0.31968 0.71273 0.0
H303 H 0.19887 0.38633 0.71854 0.0
H304 H 0.18413 0.36922 0.76884 0.0
H305 H 0.10875 0.3701 0.72281 0.0
H306 H 0.08691 0.39271 0.76259 0.0
H307 H 0.24381 0.32455 0.66529 0.0
H308 H 0.22223 0.41608 0.6794 0.0
H309 H 0.1622 0.39092 0.80901 0.0
H310 H 0.28787 0.34668 0.64364 0.0
H311 H 0.26716 0.43812 0.65954 0.0
Zn312 Zn 0.03197 0.99245 0.52677 0.0
Zn313 Zn 0.97153 0.99808 0.47834 0.0
C314 C 0.06101 0.05283 0.53231 0.0
O315 O 0.08007 0.04136 0.51716 0.0
C316 C 0.94571 0.94487 0.45566 0.0
O317 O 0.9266 0.95193 0.47363 0.0
O318 O 0.06315 0.9706 0.54283 0.0
O319 O 0.99695 0.97289 0.54633 0.0
O320 O 0.96201 0.98037 0.51817 0.0
C321 C 0.07161 0.97564 0.56759 0.0
O322 O 0.05934 0.99479 0.58283 0.0
O323 O 0.03811 0.03651 0.53801 0.0
C324 C 0.93759 0.02835 0.43981 0.0
O325 O 0.9543 0.01739 0.42153 0.0
O326 O 0.94115 0.02357 0.46629 0.0
O327 O 0.00741 0.02465 0.46961 0.0
O328 O 0.03501 0.99073 0.48431 0.0
O329 O 0.9687 0.96176 0.45349 0.0
C330 C 0.97126 0.97068 0.54165 0.0
C331 C 0.03118 0.0152 0.46973 0.0
Zn332 Zn 0.52258 0.98446 0.99526 0.0
Zn333 Zn 0.48091 0.01972 0.01768 0.0
C334 C 0.49046 0.94758 0.95809 0.0
O335 O 0.50438 0.92658 0.9705 0.0
C336 C 0.52089 0.0551 0.04935 0.0
O337 O 0.5117 0.07767 0.03383 0.0
O338 O 0.55507 0.96344 0.9828 0.0
O339 O 0.53577 0.03004 0.99104 0.0
O340 O 0.49443 0.04096 0.97958 0.0
C341 C 0.56457 0.97118 0.95771 0.0
O342 O 0.55342 0.99266 0.94259 0.0
O343 O 0.49407 0.97512 0.9657 0.0
C344 C 0.44636 0.04075 0.0596 0.0
O345 O 0.46219 0.02491 0.07568 0.0
O346 O 0.44979 0.04173 0.03269 0.0
O347 O 0.46665 0.97442 0.02086 0.0
O348 O 0.50771 0.96305 0.03277 0.0
O349 O 0.51131 0.02741 0.0458 0.0
C350 C 0.52051 0.04749 0.97764 0.0
C351 C 0.48163 0.95649 0.03406 0.0
Zn352 Zn 0.51536 0.47564 0.48768 0.0
Zn353 Zn 0.49852 0.52887 0.5193 0.0
C354 C 0.55168 0.5122 0.44709 0.0
O355 O 0.53284 0.50109 0.42991 0.0
C356 C 0.46133 0.49709 0.56061 0.0
O357 O 0.47776 0.51421 0.57641 0.0
O358 O 0.52317 0.43682 0.46957 0.0
O359 O 0.51761 0.46694 0.53028 0.0
O360 O 0.53358 0.51494 0.53605 0.0
C361 C 0.51822 0.40956 0.48089 0.0
O362 O 0.50544 0.40511 0.50596 0.0
O363 O 0.54826 0.50564 0.47374 0.0
C364 C 0.49324 0.59479 0.52643 0.0
O365 O 0.50416 0.59996 0.50055 0.0
O366 O 0.4904 0.56746 0.53785 0.0
O367 O 0.49511 0.53773 0.47678 0.0
O368 O 0.48048 0.48945 0.47056 0.0
O369 O 0.46649 0.49805 0.53393 0.0
C370 C 0.53218 0.48644 0.54408 0.0
C371 C 0.48086 0.51796 0.46297 0.0
Zn372 Zn 0.99281 0.52075 0.97831 0.0
Zn373 Zn 0.02205 0.47328 0.021 0.0
C374 C 0.95398 0.49036 0.94406 0.0
O375 O 0.971 0.50709 0.92566 0.0
C376 C 0.05534 0.5127 0.05577 0.0
O377 O 0.03596 0.50102 0.07448 0.0
O378 O 0.98308 0.55973 0.95811 0.0
O379 O 0.99396 0.53087 0.01973 0.0
O380 O 0.9854 0.48311 0.03736 0.0
C381 C 0.9607 0.56877 0.96727 0.0
O382 O 0.94767 0.55368 0.98952 0.0
O383 O 0.95957 0.49024 0.97036 0.0
C384 C 0.05651 0.42926 0.038 0.0
O385 O 0.07101 0.44465 0.0168 0.0
O386 O 0.03254 0.43653 0.04402 0.0
O387 O 0.02538 0.46202 0.98016 0.0
O388 O 0.02637 0.50808 0.95783 0.0
O389 O 0.05308 0.50607 0.0299 0.0
C390 C 0.98281 0.51157 0.03898 0.0
C391 C 0.03203 0.48028 0.95843 0.0
C392 C 0.12692 0.0751 0.33681 0.0
C393 C 0.14619 0.10053 0.34078 0.0
C394 C 0.1108 0.06029 0.35969 0.0
C395 C 0.11402 0.07123 0.3872 0.0
C396 C 0.13446 0.09587 0.39163 0.0
C397 C 0.15038 0.11025 0.3683 0.0
C398 C 0.08937 0.03389 0.35415 0.0
C399 C 0.13849 0.10809 0.42069 0.0
C400 C 0.04889 0.0576 0.43384 0.0
C401 C 0.05344 0.03093 0.45041 0.0
C402 C 0.06896 0.07162 0.41396 0.0
C403 C 0.0942 0.05865 0.41056 0.0
C404 C 0.09942 0.03249 0.428 0.0
C405 C 0.07895 0.01891 0.44776 0.0
C406 C 0.0627 0.09965 0.39584 0.0
C407 C 0.12618 0.01817 0.42504 0.0
H408 H 0.12399 0.06727 0.31559 0.0
H409 H 0.16519 0.13001 0.37138 0.0
H410 H 0.09149 0.01373 0.36914 0.0
H411 H 0.06839 0.04094 0.3578 0.0
H412 H 0.09104 0.0266 0.33204 0.0
H413 H 0.15733 0.12475 0.42122 0.0
H414 H 0.12034 0.11991 0.42683 0.0
H415 H 0.13998 0.08888 0.43693 0.0
H416 H 0.02937 0.06725 0.43594 0.0
H417 H 0.08273 0.99846 0.46068 0.0
H418 H 0.06153 0.09395 0.37324 0.0
H419 H 0.07953 0.11869 0.39709 0.0
H420 H 0.04287 0.10805 0.40241 0.0
H421 H 0.12734 0.008 0.40409 0.0
H422 H 0.12811 0.99975 0.442 0.0
H423 H 0.14407 0.03603 0.42577 0.0
C424 C 0.38801 0.8906 0.83661 0.0
C425 C 0.39956 0.90166 0.8098 0.0
C426 C 0.40062 0.89932 0.86177 0.0
C427 C 0.42565 0.91911 0.86013 0.0
C428 C 0.43704 0.93099 0.83324 0.0
C429 C 0.42372 0.9224 0.80846 0.0
C430 C 0.38762 0.88656 0.89009 0.0
C431 C 0.46385 0.95194 0.83058 0.0
C432 C 0.45334 0.95932 0.9245 0.0
C433 C 0.47264 0.93967 0.93411 0.0
C434 C 0.43725 0.95249 0.90092 0.0
C435 C 0.44099 0.92573 0.88633 0.0
C436 C 0.46024 0.90569 0.89615 0.0
C437 C 0.47563 0.91276 0.92007 0.0
C438 C 0.41651 0.97405 0.89141 0.0
C439 C 0.46516 0.87718 0.88093 0.0
H440 H 0.36955 0.87433 0.83799 0.0
H441 H 0.43248 0.9317 0.78795 0.0
H442 H 0.40096 0.87034 0.90041 0.0
H443 H 0.38585 0.90546 0.90453 0.0
H444 H 0.36677 0.8741 0.88785 0.0
H445 H 0.46946 0.96007 0.80816 0.0
H446 H 0.46239 0.97235 0.84322 0.0
H447 H 0.48082 0.93949 0.83929 0.0
H448 H 0.45084 0.98006 0.93541 0.0
H449 H 0.49062 0.89756 0.92728 0.0
H450 H 0.39582 0.961 0.89004 0.0
H451 H 0.42251 0.98462 0.86982 0.0
H452 H 0.4149 0.99282 0.90607 0.0
H453 H 0.44554 0.86193 0.87992 0.0
H454 H 0.48063 0.8638 0.89151 0.0
H455 H 0.47256 0.88387 0.8587 0.0
C456 C 0.62489 0.4149 0.66422 0.0
C457 C 0.61588 0.42048 0.69178 0.0
C458 C 0.61214 0.4268 0.64011 0.0
C459 C 0.58946 0.44425 0.64359 0.0
C460 C 0.58042 0.45015 0.67139 0.0
C461 C 0.59388 0.43843 0.69512 0.0
C462 C 0.62277 0.42042 0.61089 0.0
C463 C 0.55605 0.46817 0.67611 0.0
C464 C 0.56821 0.49515 0.58086 0.0
C465 C 0.54676 0.47596 0.56966 0.0
C466 C 0.58239 0.48511 0.60478 0.0
C467 C 0.57462 0.45539 0.6182 0.0
C468 C 0.55272 0.43612 0.6072 0.0
C469 C 0.53926 0.4465 0.58298 0.0
C470 C 0.6059 0.50619 0.61552 0.0
C471 C 0.54344 0.40448 0.62108 0.0
H472 H 0.64204 0.40127 0.66153 0.0
H473 H 0.58667 0.44254 0.71638 0.0
H474 H 0.60651 0.40638 0.59987 0.0
H475 H 0.62781 0.44241 0.59781 0.0
H476 H 0.64148 0.4079 0.61175 0.0
H477 H 0.55193 0.47129 0.699 0.0
H478 H 0.55971 0.49124 0.66459 0.0
H479 H 0.53728 0.456 0.66737 0.0
H480 H 0.57423 0.51788 0.57064 0.0
H481 H 0.52259 0.43158 0.57463 0.0
H482 H 0.62516 0.49469 0.61515 0.0
H483 H 0.60148 0.51102 0.63793 0.0
H484 H 0.60956 0.52848 0.6026 0.0
H485 H 0.56071 0.38982 0.62056 0.0
H486 H 0.52558 0.39268 0.61043 0.0
H487 H 0.53754 0.40638 0.64377 0.0
C488 C 0.92536 0.56643 0.18642 0.0
C489 C 0.90029 0.57937 0.18326 0.0
C490 C 0.93869 0.55464 0.16329 0.0
C491 C 0.92646 0.55519 0.13636 0.0
C492 C 0.90086 0.56746 0.13312 0.0
C493 C 0.88824 0.57963 0.15648 0.0
C494 C 0.96612 0.54206 0.16757 0.0
C495 C 0.88699 0.56817 0.10483 0.0
C496 C 0.97233 0.55375 0.06993 0.0
C497 C 0.96836 0.52253 0.06393 0.0
C498 C 0.95903 0.56458 0.09355 0.0
C499 C 0.94088 0.54383 0.11138 0.0
C500 C 0.93659 0.51232 0.10531 0.0
C501 C 0.95057 0.502 0.08181 0.0
C502 C 0.96454 0.59823 0.09953 0.0
C503 C 0.91705 0.48959 0.12352 0.0
H504 H 0.93466 0.56547 0.20705 0.0
H505 H 0.86915 0.58997 0.15353 0.0
H506 H 0.96479 0.51769 0.16183 0.0
H507 H 0.98224 0.55534 0.1533 0.0
H508 H 0.97285 0.54318 0.18986 0.0
H509 H 0.86634 0.57676 0.10623 0.0
H510 H 0.9001 0.5833 0.08893 0.0
H511 H 0.88451 0.5447 0.0968 0.0
H512 H 0.98617 0.56975 0.05633 0.0
H513 H 0.94728 0.47788 0.07721 0.0
H514 H 0.97269 0.60037 0.12117 0.0
H515 H 0.94499 0.60919 0.099 0.0
H516 H 0.9796 0.61124 0.0839 0.0
H517 H 0.92393 0.48852 0.14578 0.0
H518 H 0.91568 0.46598 0.11573 0.0
H519 H 0.89607 0.49737 0.12386 0.0
C520 C 0.34167 0.14941 0.12577 0.0
C521 C 0.32323 0.13161 0.14505 0.0
C522 C 0.36212 0.13582 0.11094 0.0
C523 C 0.3635 0.10361 0.11503 0.0
C524 C 0.34451 0.08551 0.13415 0.0
C525 C 0.32478 0.09984 0.14923 0.0
C526 C 0.38246 0.15594 0.09127 0.0
C527 C 0.34498 0.05101 0.13862 0.0
C528 C 0.40108 0.06283 0.05925 0.0
C529 C 0.42554 0.05789 0.07297 0.0
C530 C 0.38065 0.07783 0.07265 0.0
C531 C 0.38528 0.08884 0.09997 0.0
C532 C 0.41039 0.08478 0.11344 0.0
C533 C 0.43006 0.06893 0.09993 0.0
C534 C 0.35384 0.08113 0.05796 0.0
C535 C 0.41638 0.09691 0.14224 0.0
H536 H 0.34033 0.17402 0.12269 0.0
H537 H 0.31021 0.08617 0.16398 0.0
H538 H 0.40381 0.15405 0.09834 0.0
H539 H 0.38136 0.14796 0.06939 0.0
H540 H 0.37861 0.18061 0.09057 0.0
H541 H 0.3279 0.04012 0.15317 0.0
H542 H 0.34334 0.04023 0.11791 0.0
H543 H 0.3649 0.04582 0.14768 0.0
H544 H 0.39758 0.05414 0.03843 0.0
H545 H 0.44916 0.06542 0.11039 0.0
H546 H 0.35014 0.10578 0.05558 0.0
H547 H 0.33638 0.06883 0.07114 0.0
H548 H 0.35365 0.07169 0.03658 0.0
H549 H 0.41372 0.12187 0.14189 0.0
H550 H 0.43766 0.09367 0.14888 0.0
H551 H 0.4015 0.08488 0.15853 0.0
C552 C 0.21787 0.9237 0.61028 0.0
C553 C 0.21575 0.89744 0.62924 0.0
C554 C 0.19418 0.93601 0.60027 0.0
C555 C 0.16772 0.92159 0.6093 0.0
C556 C 0.16542 0.89494 0.62828 0.0
C557 C 0.18948 0.88324 0.6381 0.0
C558 C 0.19749 0.96461 0.58024 0.0
C559 C 0.13756 0.8788 0.6382 0.0
C560 C 0.1073 0.9699 0.60424 0.0
C561 C 0.09563 0.96104 0.5787 0.0
C562 C 0.13063 0.95706 0.61456 0.0
C563 C 0.14247 0.93466 0.59908 0.0
C564 C 0.13054 0.92525 0.57351 0.0
C565 C 0.10732 0.93864 0.56357 0.0
C566 C 0.14286 0.96781 0.64184 0.0
C567 C 0.14247 0.90127 0.55651 0.0
H568 H 0.23812 0.935 0.60367 0.0
H569 H 0.18774 0.86274 0.65251 0.0
H570 H 0.187 0.95987 0.56011 0.0
H571 H 0.1875 0.98339 0.58986 0.0
H572 H 0.21952 0.97292 0.57513 0.0
H573 H 0.13933 0.85809 0.65268 0.0
H574 H 0.12561 0.89489 0.6495 0.0
H575 H 0.12553 0.87161 0.6196 0.0
H576 H 0.09845 0.98723 0.61605 0.0
H577 H 0.09839 0.93158 0.54386 0.0
H578 H 0.16447 0.97826 0.63762 0.0
H579 H 0.14349 0.94785 0.65747 0.0
H580 H 0.13095 0.98507 0.65156 0.0
H581 H 0.16398 0.90961 0.5493 0.0
H582 H 0.13024 0.89577 0.53755 0.0
H583 H 0.14328 0.8797 0.57006 0.0
C584 C 0.80114 0.43699 0.89459 0.0
C585 C 0.79993 0.41017 0.87942 0.0
C586 C 0.8258 0.44902 0.90664 0.0
C587 C 0.84989 0.43371 0.90385 0.0
C588 C 0.84869 0.40625 0.8892 0.0
C589 C 0.82388 0.39498 0.87701 0.0
C590 C 0.82623 0.47853 0.92183 0.0
C591 C 0.87384 0.38912 0.88581 0.0
C592 C 0.91976 0.48127 0.90609 0.0
C593 C 0.92769 0.47473 0.93408 0.0
C594 C 0.89456 0.46818 0.89614 0.0
C595 C 0.87678 0.44758 0.91445 0.0
C596 C 0.88475 0.44048 0.94265 0.0
C597 C 0.91003 0.45432 0.95221 0.0
C598 C 0.8868 0.47673 0.86606 0.0
C599 C 0.86654 0.41833 0.9627 0.0
H600 H 0.78274 0.44866 0.89714 0.0
H601 H 0.82348 0.37455 0.86503 0.0
H602 H 0.83363 0.47494 0.94373 0.0
H603 H 0.84088 0.49673 0.91054 0.0
H604 H 0.80554 0.48705 0.9231 0.0
H605 H 0.86899 0.36685 0.87586 0.0
H606 H 0.88988 0.40357 0.87236 0.0
H607 H 0.88285 0.38447 0.90683 0.0
H608 H 0.9331 0.49717 0.8919 0.0
H609 H 0.91597 0.44913 0.97384 0.0
H610 H 0.86703 0.48725 0.86632 0.0
H611 H 0.88361 0.45572 0.85393 0.0
H612 H 0.90284 0.49326 0.85458 0.0
H613 H 0.84624 0.4272 0.96602 0.0
H614 H 0.87591 0.4147 0.98372 0.0
H615 H 0.86255 0.39569 0.95323 0.0
C616 C 0.69586 0.55915 0.36591 0.0
C617 C 0.70699 0.58981 0.36813 0.0
C618 C 0.67057 0.54769 0.37964 0.0
C619 C 0.6558 0.56754 0.39553 0.0
C620 C 0.66684 0.59863 0.39759 0.0
C621 C 0.69244 0.60931 0.38408 0.0
C622 C 0.65972 0.51427 0.37729 0.0
C623 C 0.6515 0.62067 0.41382 0.0
C624 C 0.57896 0.54256 0.40722 0.0
C625 C 0.57778 0.52914 0.4351 0.0
C626 C 0.60406 0.55614 0.39445 0.0
C627 C 0.62869 0.55573 0.40972 0.0
C628 C 0.62752 0.54287 0.43814 0.0
C629 C 0.60201 0.53 0.4506 0.0
C630 C 0.60432 0.57024 0.36434 0.0
C631 C 0.65336 0.54162 0.45502 0.0
H632 H 0.70721 0.54399 0.3538 0.0
H633 H 0.70091 0.63311 0.38558 0.0
H634 H 0.65636 0.50247 0.39884 0.0
H635 H 0.63946 0.51274 0.36697 0.0
H636 H 0.67406 0.50168 0.36479 0.0
H637 H 0.66279 0.64419 0.41317 0.0
H638 H 0.63084 0.6223 0.4048 0.0
H639 H 0.6481 0.61189 0.43637 0.0
H640 H 0.56025 0.54216 0.39521 0.0
H641 H 0.60126 0.51948 0.4721 0.0
H642 H 0.61618 0.55676 0.35007 0.0
H643 H 0.61478 0.59414 0.3632 0.0
H644 H 0.58316 0.5708 0.35619 0.0
H645 H 0.6675 0.52714 0.44448 0.0
H646 H 0.64881 0.53193 0.4772 0.0
H647 H 0.66449 0.56506 0.45564 0.0
C648 C 0.14146 0.33412 0.14778 0.0
C649 C 0.13709 0.30221 0.145 0.0
C650 C 0.12748 0.35459 0.13083 0.0
C651 C 0.10887 0.34279 0.11058 0.0
C652 C 0.10424 0.31058 0.10784 0.0
C653 C 0.1184 0.29067 0.12511 0.0
C654 C 0.1328 0.38882 0.13441 0.0
C655 C 0.0847 0.29721 0.08631 0.0
C656 C 0.05608 0.39365 0.08173 0.0
C657 C 0.06901 0.40583 0.05592 0.0
C658 C 0.06878 0.37298 0.09975 0.0
C659 C 0.09488 0.3642 0.09161 0.0
C660 C 0.10777 0.37597 0.06535 0.0
C661 C 0.0947 0.39671 0.04785 0.0
C662 C 0.05449 0.36091 0.12767 0.0
C663 C 0.13553 0.36692 0.05588 0.0
H664 H 0.15569 0.34305 0.16334 0.0
H665 H 0.11528 0.26604 0.12263 0.0
H666 H 0.14162 0.40087 0.11427 0.0
H667 H 0.11308 0.39836 0.13924 0.0
H668 H 0.14728 0.39417 0.1517 0.0
H669 H 0.08283 0.27157 0.08744 0.0
H670 H 0.06387 0.30472 0.08976 0.0
H671 H 0.09207 0.30593 0.06452 0.0
H672 H 0.03628 0.40073 0.08815 0.0
H673 H 0.10478 0.40597 0.02789 0.0
H674 H 0.06763 0.36779 0.14558 0.0
H675 H 0.05145 0.33532 0.1288 0.0
H676 H 0.03407 0.36969 0.13067 0.0
H677 H 0.15132 0.37403 0.07141 0.0
H678 H 0.14246 0.37762 0.03454 0.0
H679 H 0.13454 0.34147 0.05522 0.0
C680 C 0.58056 0.21478 0.90931 0.0
C681 C 0.59767 0.21245 0.88528 0.0
C682 C 0.56715 0.18827 0.92422 0.0
C683 C 0.57058 0.15873 0.91461 0.0
C684 C 0.58734 0.15632 0.88996 0.0
C685 C 0.60086 0.18318 0.87575 0.0
C686 C 0.54985 0.19182 0.95066 0.0
C687 C 0.59119 0.12532 0.87876 0.0
C688 C 0.55993 0.08851 0.9672 0.0
C689 C 0.53304 0.07603 0.96154 0.0
C690 C 0.57221 0.11558 0.95235 0.0
C691 C 0.55746 0.1303 0.9309 0.0
C692 C 0.53033 0.11774 0.92498 0.0
C693 C 0.51834 0.09091 0.94057 0.0
C694 C 0.60096 0.12848 0.95969 0.0
C695 C 0.5141 0.13247 0.90199 0.0
H696 H 0.57826 0.23735 0.91689 0.0
H697 H 0.61386 0.18133 0.85701 0.0
H698 H 0.52853 0.18069 0.94851 0.0
H699 H 0.55862 0.17999 0.96932 0.0
H700 H 0.54883 0.21641 0.95501 0.0
H701 H 0.60375 0.12749 0.85855 0.0
H702 H 0.60156 0.11121 0.89475 0.0
H703 H 0.57079 0.11256 0.87507 0.0
H704 H 0.57133 0.0773 0.98357 0.0
H705 H 0.4976 0.08131 0.93602 0.0
H706 H 0.60084 0.15265 0.96571 0.0
H707 H 0.61517 0.1289 0.94083 0.0
H708 H 0.60932 0.11479 0.97749 0.0
H709 H 0.51143 0.15659 0.90671 0.0
H710 H 0.49336 0.11971 0.89982 0.0
H711 H 0.52563 0.13341 0.88126 0.0
C712 C 0.89411 0.82133 0.34548 0.0
C713 C 0.90049 0.79154 0.35375 0.0
C714 C 0.90372 0.84683 0.36062 0.0
C715 C 0.91999 0.84242 0.38471 0.0
C716 C 0.92737 0.8126 0.39252 0.0
C717 C 0.91755 0.78754 0.37693 0.0
C718 C 0.89557 0.87829 0.35149 0.0
C719 C 0.94458 0.80691 0.41813 0.0
C720 C 0.9583 0.91269 0.41578 0.0
C721 C 0.93988 0.91826 0.43783 0.0
C722 C 0.95222 0.88801 0.39831 0.0
C723 C 0.92722 0.86842 0.40314 0.0
C724 C 0.90875 0.87375 0.42558 0.0
C725 C 0.91527 0.8986 0.44257 0.0
C726 C 0.97237 0.88308 0.37454 0.0
C727 C 0.88195 0.85332 0.43155 0.0
H728 H 0.88126 0.82464 0.32734 0.0
H729 H 0.92233 0.76455 0.38364 0.0
H730 H 0.88161 0.88595 0.36801 0.0
H731 H 0.91409 0.89549 0.34928 0.0
H732 H 0.88482 0.87831 0.33098 0.0
H733 H 0.95053 0.783 0.41989 0.0
H734 H 0.96362 0.82334 0.41709 0.0
H735 H 0.93272 0.81087 0.43777 0.0
H736 H 0.97733 0.92781 0.41194 0.0
H737 H 0.90095 0.90262 0.45961 0.0
H738 H 0.96221 0.88498 0.3538 0.0
H739 H 0.97886 0.85948 0.3771 0.0
H740 H 0.99108 0.90006 0.37384 0.0
H741 H 0.86885 0.85417 0.41267 0.0
H742 H 0.87008 0.86026 0.45013 0.0
H743 H 0.88617 0.82899 0.43569 0.0
C744 C 0.43994 0.72864 0.61675 0.0
C745 C 0.41348 0.73456 0.60822 0.0
C746 C 0.45445 0.70706 0.60339 0.0
C747 C 0.44209 0.69066 0.5812 0.0
C748 C 0.41548 0.69659 0.57236 0.0
C749 C 0.40159 0.71858 0.58584 0.0
C750 C 0.48284 0.70148 0.61332 0.0
C751 C 0.40152 0.6794 0.5489 0.0
C752 C 0.48596 0.6505 0.53003 0.0
C753 C 0.48175 0.61981 0.5413 0.0
C754 C 0.47365 0.67396 0.54313 0.0
C755 C 0.45652 0.66648 0.56788 0.0
C756 C 0.45254 0.63563 0.57958 0.0
C757 C 0.46532 0.61274 0.56626 0.0
C758 C 0.47864 0.70668 0.53026 0.0
C759 C 0.43424 0.62665 0.60581 0.0
H760 H 0.44917 0.74047 0.63428 0.0
H761 H 0.38139 0.72334 0.57874 0.0
H762 H 0.48257 0.67735 0.62229 0.0
H763 H 0.49795 0.70454 0.59505 0.0
H764 H 0.49015 0.71729 0.62979 0.0
H765 H 0.38091 0.68694 0.54433 0.0
H766 H 0.41462 0.68293 0.5291 0.0
H767 H 0.39892 0.65426 0.55491 0.0
H768 H 0.49868 0.65617 0.51082 0.0
H769 H 0.46185 0.58908 0.5751 0.0
H770 H 0.48675 0.72237 0.54647 0.0
H771 H 0.45885 0.71457 0.52319 0.0
H772 H 0.4935 0.70894 0.51175 0.0
H773 H 0.44155 0.64039 0.62371 0.0
H774 H 0.43374 0.60175 0.61255 0.0
H775 H 0.41284 0.63183 0.60163 0.0
C776 C 0.87993 0.86358 0.659 0.0
C777 C 0.86002 0.87935 0.67237 0.0
C778 C 0.8971 0.878 0.63665 0.0
C779 C 0.89473 0.90915 0.62787 0.0
C780 C 0.87442 0.92508 0.64086 0.0
C781 C 0.8571 0.90988 0.66273 0.0
C782 C 0.91823 0.86011 0.62292 0.0
C783 C 0.87148 0.95844 0.6322 0.0
C784 C 0.95844 0.95465 0.59246 0.0
C785 C 0.95153 0.95545 0.56376 0.0
C786 C 0.9399 0.94008 0.61361 0.0
C787 C 0.91416 0.92538 0.60573 0.0
C788 C 0.90715 0.92593 0.57677 0.0
C789 C 0.92582 0.94127 0.55614 0.0
C790 C 0.94784 0.94045 0.64437 0.0
C791 C 0.88014 0.90992 0.56754 0.0
H792 H 0.88271 0.84018 0.66651 0.0
H793 H 0.84142 0.92208 0.67249 0.0
H794 H 0.91629 0.86147 0.59947 0.0
H795 H 0.93935 0.87042 0.62739 0.0
H796 H 0.91601 0.83542 0.63074 0.0
H797 H 0.85436 0.96738 0.64415 0.0
H798 H 0.89101 0.97293 0.63598 0.0
H799 H 0.86767 0.96113 0.60912 0.0
H800 H 0.97823 0.96577 0.59842 0.0
H801 H 0.92051 0.9416 0.53393 0.0
H802 H 0.94863 0.9165 0.65341 0.0
H803 H 0.932 0.95072 0.65701 0.0
H804 H 0.96825 0.95378 0.64698 0.0
H805 H 0.87864 0.88498 0.57429 0.0
H806 H 0.87793 0.91237 0.54412 0.0
H807 H 0.86255 0.9195 0.578 0.0
C808 C 0.58447 0.11417 0.1898 0.0
C809 C 0.61205 0.10939 0.19439 0.0
C810 C 0.57114 0.10379 0.16563 0.0
C811 C 0.58589 0.08866 0.14535 0.0
C812 C 0.61377 0.08372 0.14988 0.0
C813 C 0.62648 0.09395 0.17453 0.0
C814 C 0.54126 0.10909 0.16178 0.0
C815 C 0.63024 0.06808 0.12852 0.0
C816 C 0.54166 0.04086 0.09561 0.0
C817 C 0.54007 0.0622 0.07238 0.0
C818 C 0.5573 0.04878 0.11919 0.0
C819 C 0.57203 0.07853 0.11926 0.0
C820 C 0.57166 0.09953 0.09518 0.0
C821 C 0.55548 0.0912 0.07212 0.0
C822 C 0.55693 0.02588 0.1446 0.0
C823 C 0.5875 0.13126 0.09423 0.0
H824 H 0.57321 0.12576 0.20535 0.0
H825 H 0.64788 0.09043 0.17802 0.0
H826 H 0.53934 0.12387 0.14208 0.0
H827 H 0.52862 0.08678 0.15935 0.0
H828 H 0.53251 0.12034 0.17999 0.0
H829 H 0.65162 0.06573 0.13534 0.0
H830 H 0.61985 0.04478 0.12521 0.0
H831 H 0.6313 0.0815 0.10767 0.0
H832 H 0.5297 0.01844 0.09593 0.0
H833 H 0.55453 0.10764 0.05405 0.0
H834 H 0.54618 0.0348 0.16294 0.0
H835 H 0.5783 0.02289 0.15096 0.0
H836 H 0.54624 0.00295 0.14033 0.0
H837 H 0.57825 0.14531 0.11005 0.0
H838 H 0.58733 0.14358 0.07289 0.0
H839 H 0.60926 0.12958 0.09998 0.0
C840 C 0.38554 0.58112 0.34013 0.0
C841 C 0.3969 0.57774 0.31289 0.0
C842 C 0.39829 0.57072 0.36486 0.0
C843 C 0.42323 0.55689 0.36248 0.0
C844 C 0.43468 0.55312 0.33511 0.0
C845 C 0.42132 0.56335 0.31074 0.0
C846 C 0.38526 0.57497 0.3936 0.0
C847 C 0.46128 0.53862 0.33157 0.0
C848 C 0.47096 0.55829 0.42539 0.0
C849 C 0.46582 0.52796 0.4375 0.0
C850 C 0.45729 0.56796 0.40103 0.0
C851 C 0.43769 0.54695 0.38857 0.0
C852 C 0.43219 0.5164 0.40086 0.0
C853 C 0.44642 0.50723 0.42503 0.0
C854 C 0.46405 0.60062 0.38843 0.0
C855 C 0.41122 0.49338 0.38849 0.0
H856 H 0.36696 0.59255 0.34221 0.0
H857 H 0.43008 0.56002 0.28991 0.0
H858 H 0.38186 0.55251 0.40622 0.0
H859 H 0.3994 0.59062 0.40563 0.0
H860 H 0.36518 0.58479 0.39186 0.0
H861 H 0.46746 0.53723 0.30885 0.0
H862 H 0.47818 0.55224 0.34209 0.0
H863 H 0.45909 0.51499 0.34205 0.0
H864 H 0.48598 0.57447 0.43476 0.0
H865 H 0.4422 0.48379 0.43427 0.0
H866 H 0.44509 0.61266 0.38792 0.0
H867 H 0.47192 0.60034 0.36613 0.0
H868 H 0.47979 0.61412 0.40062 0.0
H869 H 0.39081 0.50253 0.38789 0.0
H870 H 0.40886 0.47073 0.4009 0.0
H871 H 0.41748 0.4897 0.36624 0.0
C872 C 0.12454 0.42936 0.82932 0.0
C873 C 0.10941 0.40743 0.81362 0.0
C874 C 0.11244 0.44193 0.85276 0.0
C875 C 0.08436 0.43273 0.86056 0.0
C876 C 0.06883 0.41098 0.84461 0.0
C877 C 0.08156 0.39846 0.8215 0.0
C878 C 0.12977 0.4649 0.86934 0.0
C879 C 0.03879 0.40071 0.85211 0.0
C880 C 0.0588 0.44137 0.93638 0.0
C881 C 0.04598 0.46867 0.93346 0.0
C882 C 0.07168 0.42969 0.91293 0.0
C883 C 0.07138 0.44539 0.88575 0.0
C884 C 0.05846 0.47296 0.88264 0.0
C885 C 0.04611 0.4844 0.90657 0.0
C886 C 0.08557 0.40048 0.91726 0.0
C887 C 0.05738 0.49015 0.85396 0.0
H888 H 0.1459 0.43692 0.82319 0.0
H889 H 0.06973 0.38122 0.80988 0.0
H890 H 0.12042 0.48701 0.86911 0.0
H891 H 0.13031 0.4561 0.8919 0.0
H892 H 0.15134 0.46957 0.86061 0.0
H893 H 0.02928 0.38457 0.83691 0.0
H894 H 0.03679 0.38906 0.87378 0.0
H895 H 0.02691 0.42104 0.85237 0.0
H896 H 0.05893 0.42915 0.95711 0.0
H897 H 0.03609 0.50539 0.90409 0.0
H898 H 0.10755 0.4048 0.90991 0.0
H899 H 0.07554 0.38234 0.90434 0.0
H900 H 0.08466 0.39154 0.9399 0.0
H901 H 0.07861 0.49689 0.84503 0.0
H902 H 0.04659 0.51126 0.85511 0.0
H903 H 0.04652 0.47488 0.83889 0.0
C904 C 0.69636 0.90123 0.89348 0.0
C905 C 0.68827 0.87624 0.87713 0.0
C906 C 0.67672 0.91628 0.90795 0.0
C907 C 0.64832 0.90606 0.90601 0.0
C908 C 0.64003 0.88042 0.89007 0.0
C909 C 0.66014 0.86579 0.87581 0.0
C910 C 0.68632 0.94348 0.92485 0.0
C911 C 0.6099 0.86893 0.88751 0.0
C912 C 0.59728 0.9306 0.96024 0.0
C913 C 0.58666 0.95509 0.945 0.0
C914 C 0.61747 0.91445 0.94787 0.0
C915 C 0.62722 0.92306 0.91964 0.0
C916 C 0.61678 0.94793 0.90426 0.0
C917 C 0.59662 0.96365 0.91713 0.0
C918 C 0.6282 0.88803 0.96488 0.0
C919 C 0.62674 0.95779 0.87411 0.0
H920 H 0.71813 0.90906 0.89492 0.0
H921 H 0.65379 0.84666 0.86298 0.0
H922 H 0.67821 0.96459 0.91562 0.0
H923 H 0.67807 0.93959 0.94711 0.0
H924 H 0.70921 0.94773 0.92514 0.0
H925 H 0.60698 0.84781 0.87544 0.0
H926 H 0.59989 0.8638 0.90895 0.0
H927 H 0.59905 0.88715 0.87655 0.0
H928 H 0.58964 0.92382 0.98178 0.0
H929 H 0.58852 0.98255 0.90521 0.0
H930 H 0.65095 0.89235 0.96646 0.0
H931 H 0.62383 0.86637 0.95389 0.0
H932 H 0.61875 0.88452 0.98672 0.0
H933 H 0.64943 0.96416 0.87338 0.0
H934 H 0.61667 0.97777 0.86517 0.0
H935 H 0.6225 0.93831 0.86024 0.0
C936 C 0.81911 0.12658 0.37816 0.0
C937 C 0.7937 0.10797 0.37991 0.0
C938 C 0.84317 0.11543 0.3886 0.0
C939 C 0.84188 0.08484 0.40079 0.0
C940 C 0.81629 0.06605 0.4029 0.0
C941 C 0.79252 0.07791 0.39263 0.0
C942 C 0.87006 0.13621 0.38617 0.0
C943 C 0.81409 0.03324 0.41564 0.0
C944 C 0.90664 0.04346 0.40109 0.0
C945 C 0.91399 0.04431 0.42964 0.0
C946 C 0.88345 0.05695 0.39134 0.0
C947 C 0.86739 0.072 0.41054 0.0
C948 C 0.8751 0.07368 0.43921 0.0
C949 C 0.89822 0.05963 0.44848 0.0
C950 C 0.87573 0.0544 0.36067 0.0
C951 C 0.85867 0.08989 0.4602 0.0
H952 H 0.82033 0.1497 0.36809 0.0
H953 H 0.77292 0.06356 0.39462 0.0
H954 H 0.87941 0.13766 0.40734 0.0
H955 H 0.88496 0.12639 0.37199 0.0
H956 H 0.86731 0.15993 0.37756 0.0
H957 H 0.7926 0.02177 0.41595 0.0
H958 H 0.82756 0.01956 0.40326 0.0
H959 H 0.8214 0.03287 0.43775 0.0
H960 H 0.91866 0.0316 0.38641 0.0
H961 H 0.90387 0.06053 0.47054 0.0
H962 H 0.87441 0.07769 0.3503 0.0
H963 H 0.85504 0.04124 0.35968 0.0
H964 H 0.89082 0.04269 0.34829 0.0
H965 H 0.85678 0.11389 0.45188 0.0
H966 H 0.86825 0.0906 0.48132 0.0
H967 H 0.83744 0.07791 0.46306 0.0
C968 C 0.1949 0.60546 0.10906 0.0
C969 C 0.20778 0.58563 0.12778 0.0
C970 C 0.16994 0.59551 0.09644 0.0
C971 C 0.15774 0.56478 0.10226 0.0
C972 C 0.17076 0.54459 0.12102 0.0
C973 C 0.19546 0.55534 0.13375 0.0
C974 C 0.15651 0.61797 0.07706 0.0
C975 C 0.15869 0.51152 0.12749 0.0
C976 C 0.081 0.54288 0.09201 0.0
C977 C 0.08112 0.52924 0.0658 0.0
C978 C 0.10566 0.55544 0.10363 0.0
C979 C 0.13122 0.55378 0.08901 0.0
C980 C 0.13141 0.54068 0.06221 0.0
C981 C 0.10635 0.52884 0.0508 0.0
C982 C 0.10441 0.56979 0.13194 0.0
C983 C 0.1582 0.53807 0.04609 0.0
H984 H 0.2042 0.629 0.1046 0.0
H985 H 0.20546 0.53985 0.148 0.0
H986 H 0.15442 0.60904 0.05559 0.0
H987 H 0.13538 0.62044 0.08539 0.0
H988 H 0.16848 0.64116 0.07493 0.0
H989 H 0.17167 0.49855 0.14193 0.0
H990 H 0.13775 0.51085 0.13753 0.0
H991 H 0.15643 0.49953 0.10744 0.0
H992 H 0.06156 0.54335 0.10368 0.0
H993 H 0.10664 0.51802 0.03069 0.0
H994 H 0.11563 0.59334 0.13028 0.0
H995 H 0.11475 0.5559 0.14812 0.0
H996 H 0.08283 0.5713 0.13958 0.0
H997 H 0.17026 0.56107 0.0427 0.0
H998 H 0.15481 0.5283 0.02508 0.0
H999 H 0.17095 0.52304 0.0588 0.0
C1000 C 0.30961 0.43538 0.61868 0.0
C1001 C 0.30804 0.40784 0.63598 0.0
C1002 C 0.33479 0.44867 0.6059 0.0
C1003 C 0.35902 0.43388 0.61012 0.0
C1004 C 0.35756 0.40582 0.62709 0.0
C1005 C 0.33217 0.39327 0.63998 0.0
C1006 C 0.33553 0.47878 0.58815 0.0
C1007 C 0.3829 0.38925 0.63194 0.0
C1008 C 0.41965 0.45832 0.55803 0.0
C1009 C 0.43601 0.47927 0.57358 0.0
C1010 C 0.39485 0.44273 0.5699 0.0
C1011 C 0.38606 0.44858 0.59778 0.0
C1012 C 0.40272 0.46936 0.61369 0.0
C1013 C 0.42754 0.48426 0.60148 0.0
C1014 C 0.37785 0.42036 0.55246 0.0
C1015 C 0.39396 0.4765 0.64336 0.0
H1016 H 0.29107 0.44654 0.61494 0.0
H1017 H 0.33134 0.37223 0.65357 0.0
H1018 H 0.34977 0.49671 0.59749 0.0
H1019 H 0.3436 0.476 0.56632 0.0
H1020 H 0.31482 0.48717 0.58669 0.0
H1021 H 0.378 0.36673 0.64426 0.0
H1022 H 0.39287 0.38518 0.61125 0.0
H1023 H 0.39821 0.40382 0.64367 0.0
H1024 H 0.42614 0.45425 0.53652 0.0
H1025 H 0.43998 0.50048 0.61364 0.0
H1026 H 0.35757 0.42887 0.54827 0.0
H1027 H 0.37369 0.39759 0.56446 0.0
H1028 H 0.38826 0.41711 0.53175 0.0
H1029 H 0.37411 0.48687 0.64274 0.0
H1030 H 0.40956 0.4927 0.65313 0.0
H1031 H 0.39046 0.45493 0.65729 0.0
C1032 C 0.86719 0.6656 0.8694 0.0
C1033 C 0.87154 0.69753 0.87213 0.0
C1034 C 0.88324 0.64543 0.88414 0.0
C1035 C 0.9041 0.65753 0.902 0.0
C1036 C 0.90901 0.68978 0.90433 0.0
C1037 C 0.89267 0.7094 0.88934 0.0
C1038 C 0.87741 0.61112 0.88117 0.0
C1039 C 0.93113 0.7035 0.92311 0.0
C1040 C 0.92348 0.6036 0.96246 0.0
C1041 C 0.94773 0.59343 0.95145 0.0
C1042 C 0.90938 0.62492 0.94676 0.0
C1043 C 0.91978 0.6363 0.91937 0.0
C1044 C 0.94464 0.62677 0.9084 0.0
C1045 C 0.95838 0.60544 0.92463 0.0
C1046 C 0.88299 0.63469 0.95922 0.0
C1047 C 0.9563 0.63848 0.87926 0.0
H1048 H 0.85074 0.65631 0.85631 0.0
H1049 H 0.89643 0.73412 0.89111 0.0
H1050 H 0.89662 0.60139 0.87472 0.0
H1051 H 0.87017 0.59942 0.90201 0.0
H1052 H 0.86148 0.60557 0.86529 0.0
H1053 H 0.93315 0.72914 0.92156 0.0
H1054 H 0.92622 0.69529 0.94561 0.0
H1055 H 0.95138 0.69573 0.91723 0.0
H1056 H 0.91518 0.59451 0.98322 0.0
H1057 H 0.97708 0.5976 0.91597 0.0
H1058 H 0.86544 0.62748 0.94572 0.0
H1059 H 0.88451 0.66021 0.95952 0.0
H1060 H 0.87824 0.62453 0.98122 0.0
H1061 H 0.9416 0.63095 0.86283 0.0
H1062 H 0.97651 0.62996 0.87441 0.0
H1063 H 0.959 0.66409 0.87759 0.0
C1064 C 0.41959 0.78809 0.09645 0.0
C1065 C 0.40516 0.78863 0.12262 0.0
C1066 C 0.43254 0.81531 0.08237 0.0
C1067 C 0.43143 0.84385 0.09486 0.0
C1068 C 0.41741 0.84456 0.1215 0.0
C1069 C 0.40433 0.81702 0.13496 0.0
C1070 C 0.44715 0.81356 0.05391 0.0
C1071 C 0.41592 0.8745 0.13563 0.0
C1072 C 0.48434 0.91082 0.06857 0.0
C1073 C 0.46882 0.9279 0.04995 0.0
C1074 C 0.47238 0.88365 0.0836 0.0
C1075 C 0.44431 0.87305 0.07965 0.0
C1076 C 0.42857 0.89016 0.06085 0.0
C1077 C 0.44095 0.91744 0.04638 0.0
C1078 C 0.48976 0.86626 0.1037 0.0
C1079 C 0.39868 0.87949 0.05577 0.0
H1080 H 0.42087 0.76628 0.08694 0.0
H1081 H 0.39297 0.81787 0.15494 0.0
H1082 H 0.43763 0.82789 0.03741 0.0
H1083 H 0.46914 0.82302 0.05489 0.0
H1084 H 0.44628 0.78956 0.04714 0.0
H1085 H 0.40538 0.87097 0.15697 0.0
H1086 H 0.43703 0.88617 0.13797 0.0
H1087 H 0.40459 0.8903 0.12211 0.0
H1088 H 0.50585 0.9188 0.07155 0.0
H1089 H 0.42881 0.93038 0.03195 0.0
H1090 H 0.49102 0.84261 0.09674 0.0
H1091 H 0.47997 0.86388 0.12538 0.0
H1092 H 0.51108 0.87791 0.10488 0.0
H1093 H 0.39702 0.85619 0.04737 0.0
H1094 H 0.3893 0.89541 0.04047 0.0
H1095 H 0.38647 0.8776 0.07614 0.0
C1096 C 0.09571 0.21734 0.60033 0.0
C1097 C 0.11106 0.21224 0.62464 0.0
C1098 C 0.0858 0.19275 0.58415 0.0
C1099 C 0.09127 0.16234 0.59258 0.0
C1100 C 0.10615 0.15698 0.6175 0.0
C1101 C 0.11589 0.18197 0.63318 0.0
C1102 C 0.07008 0.19939 0.55768 0.0
C1103 C 0.11221 0.12487 0.62736 0.0
C1104 C 0.04911 0.09218 0.56591 0.0
C1105 C 0.06739 0.08264 0.5455 0.0
C1106 C 0.05623 0.11865 0.58079 0.0
C1107 C 0.08218 0.13609 0.57503 0.0
C1108 C 0.10023 0.1273 0.55363 0.0
C1109 C 0.09264 0.10066 0.53918 0.0
C1110 C 0.03642 0.12726 0.60344 0.0
C1111 C 0.12801 0.14541 0.54671 0.0
H1112 H 0.09216 0.24071 0.59346 0.0
H1113 H 0.12741 0.17783 0.65216 0.0
H1114 H 0.08178 0.19316 0.53872 0.0
H1115 H 0.04983 0.18505 0.55863 0.0
H1116 H 0.06647 0.22408 0.55473 0.0
H1117 H 0.12326 0.12449 0.64769 0.0
H1118 H 0.09268 0.1093 0.63029 0.0
H1119 H 0.12507 0.11538 0.61093 0.0
H1120 H 0.02954 0.07844 0.57095 0.0
H1121 H 0.10683 0.09359 0.52334 0.0
H1122 H 0.03265 0.1518 0.59988 0.0
H1123 H 0.04564 0.12463 0.62462 0.0
H1124 H 0.01627 0.11267 0.60392 0.0
H1125 H 0.12554 0.17019 0.54214 0.0
H1126 H 0.13874 0.13687 0.52813 0.0
H1127 H 0.14136 0.14377 0.56534 0.0
C1128 C 0.56774 0.27235 0.3929 0.0
C1129 C 0.59376 0.26542 0.40181 0.0
C1130 C 0.55364 0.29415 0.40639 0.0
C1131 C 0.56602 0.30962 0.42913 0.0
C1132 C 0.59203 0.30221 0.43862 0.0
C1133 C 0.60553 0.28006 0.42493 0.0
C1134 C 0.5258 0.30116 0.39589 0.0
C1135 C 0.60604 0.31845 0.46259 0.0
C1136 C 0.54644 0.38945 0.44251 0.0
C1137 C 0.52902 0.38358 0.46689 0.0
C1138 C 0.5584 0.36554 0.42993 0.0
C1139 C 0.55261 0.3349 0.44182 0.0
C1140 C 0.53455 0.32865 0.46602 0.0
C1141 C 0.52305 0.35311 0.47836 0.0
C1142 C 0.57769 0.37318 0.40423 0.0
C1143 C 0.52769 0.2962 0.47907 0.0
H1144 H 0.55845 0.26076 0.37524 0.0
H1145 H 0.62575 0.27494 0.43169 0.0
H1146 H 0.51037 0.29894 0.41385 0.0
H1147 H 0.52721 0.32534 0.38677 0.0
H1148 H 0.51817 0.28559 0.37934 0.0
H1149 H 0.6256 0.30897 0.46833 0.0
H1150 H 0.61074 0.34341 0.45631 0.0
H1151 H 0.59206 0.31644 0.48175 0.0
H1152 H 0.55125 0.41291 0.4335 0.0
H1153 H 0.50956 0.34836 0.49714 0.0
H1154 H 0.57008 0.35989 0.38616 0.0
H1155 H 0.59848 0.36641 0.40908 0.0
H1156 H 0.57979 0.39816 0.3974 0.0
H1157 H 0.5193 0.28078 0.46278 0.0
H1158 H 0.51238 0.29503 0.49713 0.0
H1159 H 0.54674 0.2871 0.48686 0.0
loop_
_geom_bond_atom_site_label_1
_geom_bond_atom_site_label_2
_geom_bond_distance
_geom_bond_site_symmetry_2
_ccdc_geom_bond_type
C0 C1 1.386 . S
C0 C2 1.397 . S
C0 H24 0.931 . S
C1 C0 1.386 . S
C1 C5 1.397 . S
C2 C0 1.397 . S
C2 C3 1.384 . S
C2 H25 0.930 . S
C3 C2 1.384 . S
C3 C4 1.377 . S
C3 C6 1.481 . S
C4 C3 1.377 . S
C4 C5 1.389 . S
C4 H26 0.929 . S
C5 C1 1.397 . S
C5 C4 1.389 . S
C5 H27 0.931 . S
C6 C3 1.481 . S
C6 C7 1.387 . S
C6 C11 1.390 . S
C7 C6 1.387 . S
C7 C8 1.401 . S
C7 H28 0.930 . S
C8 C7 1.401 . S
C8 C9 1.376 . S
C8 C17 1.511 . S
C9 C8 1.376 . S
C9 C10 1.392 . S
C9 H30 0.931 . S
C10 C9 1.392 . S
C10 C11 1.361 . S
C10 C12 1.500 . S
C11 C6 1.390 . S
C11 C10 1.361 . S
C11 H29 0.931 . S
C12 C10 1.500 . S
C12 C13 1.371 . S
C12 C14 1.365 . S
C13 C12 1.371 . S
C13 C23 1.386 . S
C13 H31 0.931 . S
C14 C12 1.365 . S
C14 C15 1.409 . S
C14 H32 0.929 . S
C15 C14 1.409 . S
C15 C16 1.380 . S
C15 H33 0.930 . S
C16 C15 1.380 . S
C16 C23 1.357 . S
C17 C8 1.511 . S
C17 C18 1.341 . S
C17 C19 1.371 . S
C18 C17 1.341 . S
C18 C22 1.394 . S
C18 H34 0.930 . S
C19 C17 1.371 . S
C19 C20 1.392 . S
C19 H35 0.931 . S
C20 C19 1.392 . S
C20 C21 1.331 . S
C20 H38 0.932 . S
C21 C20 1.331 . S
C21 C22 1.336 . S
C22 C18 1.394 . S
C22 C21 1.336 . S
C22 H37 0.929 . S
C23 C13 1.386 . S
C23 C16 1.357 . S
C23 H36 0.928 . S
H24 C0 0.931 . S
H25 C2 0.930 . S
H26 C4 0.929 . S
H27 C5 0.931 . S
H28 C7 0.930 . S
H29 C11 0.931 . S
H30 C9 0.931 . S
H31 C13 0.931 . S
H32 C14 0.929 . S
H33 C15 0.930 . S
H34 C18 0.930 . S
H35 C19 0.931 . S
H36 C23 0.928 . S
H37 C22 0.929 . S
H38 C20 0.932 . S
C39 C40 1.386 . S
C39 C41 1.397 . S
C39 H63 0.931 . S
C40 C39 1.386 . S
C40 C44 1.397 . S
C41 C39 1.397 . S
C41 C42 1.384 . S
C41 H64 0.930 . S
C42 C41 1.384 . S
C42 C43 1.377 . S
C42 C45 1.481 . S
C43 C42 1.377 . S
C43 C44 1.389 . S
C43 H65 0.929 . S
C44 C40 1.397 . S
C44 C43 1.389 . S
C44 H66 0.931 . S
C45 C42 1.481 . S
C45 C46 1.387 . S
C45 C50 1.390 . S
C46 C45 1.387 . S
C46 C47 1.401 . S
C46 H67 0.930 . S
C47 C46 1.401 . S
C47 C48 1.376 . S
C47 C56 1.511 . S
C48 C47 1.376 . S
C48 C49 1.392 . S
C48 H69 0.931 . S
C49 C48 1.392 . S
C49 C50 1.361 . S
C49 C51 1.500 . S
C50 C45 1.390 . S
C50 C49 1.361 . S
C50 H68 0.931 . S
C51 C49 1.500 . S
C51 C52 1.371 . S
C51 C53 1.365 . S
C52 C51 1.371 . S
C52 C62 1.386 . S
C52 H70 0.931 . S
C53 C51 1.365 . S
C53 C54 1.409 . S
C53 H71 0.929 . S
C54 C53 1.409 . S
C54 C55 1.380 . S
C54 H72 0.930 . S
C55 C54 1.380 . S
C55 C62 1.357 . S
C56 C47 1.511 . S
C56 C57 1.341 . S
C56 C58 1.371 . S
C57 C56 1.341 . S
C57 C61 1.394 . S
C57 H73 0.930 . S
C58 C56 1.371 . S
C58 C59 1.392 . S
C58 H74 0.931 . S
C59 C58 1.392 . S
C59 C60 1.331 . S
C59 H77 0.932 . S
C60 C59 1.331 . S
C60 C61 1.336 . S
C61 C57 1.394 . S
C61 C60 1.336 . S
C61 H76 0.929 . S
C62 C52 1.386 . S
C62 C55 1.357 . S
C62 H75 0.928 . S
H63 C39 0.931 . S
H64 C41 0.930 . S
H65 C43 0.929 . S
H66 C44 0.931 . S
H67 C46 0.930 . S
H68 C50 0.931 . S
H69 C48 0.931 . S
H70 C52 0.931 . S
H71 C53 0.929 . S
H72 C54 0.930 . S
H73 C57 0.930 . S
H74 C58 0.931 . S
H75 C62 0.928 . S
H76 C61 0.929 . S
H77 C59 0.932 . S
C78 C79 1.386 . S
C78 C80 1.397 . S
C78 H102 0.931 . S
C79 C78 1.386 . S
C79 C83 1.397 . S
C80 C78 1.397 . S
C80 C81 1.384 . S
C80 H103 0.930 . S
C81 C80 1.384 . S
C81 C82 1.377 . S
C81 C84 1.481 . S
C82 C81 1.377 . S
C82 C83 1.389 . S
C82 H104 0.929 . S
C83 C79 1.397 . S
C83 C82 1.389 . S
C83 H105 0.931 . S
C84 C81 1.481 . S
C84 C85 1.387 . S
C84 C89 1.390 . S
C85 C84 1.387 . S
C85 C86 1.401 . S
C85 H106 0.930 . S
C86 C85 1.401 . S
C86 C87 1.376 . S
C86 C95 1.511 . S
C87 C86 1.376 . S
C87 C88 1.392 . S
C87 H108 0.931 . S
C88 C87 1.392 . S
C88 C89 1.361 . S
C88 C90 1.500 . S
C89 C84 1.390 . S
C89 C88 1.361 . S
C89 H107 0.931 . S
C90 C88 1.500 . S
C90 C91 1.371 . S
C90 C92 1.365 . S
C91 C90 1.371 . S
C91 C101 1.386 . S
C91 H109 0.931 . S
C92 C90 1.365 . S
C92 C93 1.409 . S
C92 H110 0.929 . S
C93 C92 1.409 . S
C93 C94 1.380 . S
C93 H111 0.930 . S
C94 C93 1.380 . S
C94 C101 1.357 . S
C95 C86 1.511 . S
C95 C96 1.341 . S
C95 C97 1.371 . S
C96 C95 1.341 . S
C96 C100 1.394 . S
C96 H112 0.930 . S
C97 C95 1.371 . S
C97 C98 1.392 . S
C97 H113 0.931 . S
C98 C97 1.392 . S
C98 C99 1.331 . S
C98 H116 0.932 . S
C99 C98 1.331 . S
C99 C100 1.336 . S
C100 C96 1.394 . S
C100 C99 1.336 . S
C100 H115 0.929 . S
C101 C91 1.386 . S
C101 C94 1.357 . S
C101 H114 0.928 . S
H102 C78 0.931 . S
H103 C80 0.930 . S
H104 C82 0.929 . S
H105 C83 0.931 . S
H106 C85 0.930 . S
H107 C89 0.931 . S
H108 C87 0.931 . S
H109 C91 0.931 . S
H110 C92 0.929 . S
H111 C93 0.930 . S
H112 C96 0.930 . S
H113 C97 0.931 . S
H114 C101 0.928 . S
H115 C100 0.929 . S
H116 C98 0.932 . S
C117 C118 1.386 . S
C117 C119 1.397 . S
C117 H141 0.931 . S
C118 C117 1.386 . S
C118 C122 1.397 . S
C119 C117 1.397 . S
C119 C120 1.384 . S
C119 H142 0.930 . S
C120 C119 1.384 . S
C120 C121 1.377 . S
C120 C123 1.481 . S
C121 C120 1.377 . S
C121 C122 1.389 . S
C121 H143 0.929 . S
C122 C118 1.397 . S
C122 C121 1.389 . S
C122 H144 0.931 . S
C123 C120 1.481 . S
C123 C124 1.387 . S
C123 C128 1.390 . S
C124 C123 1.387 . S
C124 C125 1.401 . S
C124 H145 0.930 . S
C125 C124 1.401 . S
C125 C126 1.376 . S
C125 C134 1.511 . S
C126 C125 1.376 . S
C126 C127 1.392 . S
C126 H147 0.931 . S
C127 C126 1.392 . S
C127 C128 1.361 . S
C127 C129 1.500 . S
C128 C123 1.390 . S
C128 C127 1.361 . S
C128 H146 0.931 . S
C129 C127 1.500 . S
C129 C130 1.371 . S
C129 C131 1.365 . S
C130 C129 1.371 . S
C130 C140 1.386 . S
C130 H148 0.931 . S
C131 C129 1.365 . S
C131 C132 1.409 . S
C131 H149 0.929 . S
C132 C131 1.409 . S
C132 C133 1.380 . S
C132 H150 0.930 . S
C133 C132 1.380 . S
C133 C140 1.357 . S
C134 C125 1.511 . S
C134 C135 1.341 . S
C134 C136 1.371 . S
C135 C134 1.341 . S
C135 C139 1.394 . S
C135 H151 0.930 . S
C136 C134 1.371 . S
C136 C137 1.392 . S
C136 H152 0.931 . S
C137 C136 1.392 . S
C137 C138 1.331 . S
C137 H155 0.932 . S
C138 C137 1.331 . S
C138 C139 1.336 . S
C139 C135 1.394 . S
C139 C138 1.336 . S
C139 H154 0.929 . S
C140 C130 1.386 . S
C140 C133 1.357 . S
C140 H153 0.928 . S
H141 C117 0.931 . S
H142 C119 0.930 . S
H143 C121 0.929 . S
H144 C122 0.931 . S
H145 C124 0.930 . S
H146 C128 0.931 . S
H147 C126 0.931 . S
H148 C130 0.931 . S
H149 C131 0.929 . S
H150 C132 0.930 . S
H151 C135 0.930 . S
H152 C136 0.931 . S
H153 C140 0.928 . S
H154 C139 0.929 . S
H155 C137 0.932 . S
C156 C157 1.386 . S
C156 C158 1.397 . S
C156 H180 0.931 . S
C157 C156 1.386 . S
C157 C161 1.397 . S
C158 C156 1.397 . S
C158 C159 1.384 . S
C158 H181 0.930 . S
C159 C158 1.384 . S
C159 C160 1.377 . S
C159 C162 1.481 . S
C160 C159 1.377 . S
C160 C161 1.389 . S
C160 H182 0.929 . S
C161 C157 1.397 . S
C161 C160 1.389 . S
C161 H183 0.931 . S
C162 C159 1.481 . S
C162 C163 1.387 . S
C162 C167 1.390 . S
C163 C162 1.387 . S
C163 C164 1.401 . S
C163 H184 0.930 . S
C164 C163 1.401 . S
C164 C165 1.376 . S
C164 C173 1.511 . S
C165 C164 1.376 . S
C165 C166 1.392 . S
C165 H186 0.931 . S
C166 C165 1.392 . S
C166 C167 1.361 . S
C166 C168 1.500 . S
C167 C162 1.390 . S
C167 C166 1.361 . S
C167 H185 0.931 . S
C168 C166 1.500 . S
C168 C169 1.371 . S
C168 C170 1.365 . S
C169 C168 1.371 . S
C169 C179 1.386 . S
C169 H187 0.931 . S
C170 C168 1.365 . S
C170 C171 1.409 . S
C170 H188 0.929 . S
C171 C170 1.409 . S
C171 C172 1.380 . S
C171 H189 0.930 . S
C172 C171 1.380 . S
C172 C179 1.357 . S
C173 C164 1.511 . S
C173 C174 1.341 . S
C173 C175 1.371 . S
C174 C173 1.341 . S
C174 C178 1.394 . S
C174 H190 0.930 . S
C175 C173 1.371 . S
C175 C176 1.392 . S
C175 H191 0.931 . S
C176 C175 1.392 . S
C176 C177 1.331 . S
C176 H194 0.932 . S
C177 C176 1.331 . S
C177 C178 1.336 . S
C178 C174 1.394 . S
C178 C177 1.336 . S
C178 H193 0.929 . S
C179 C169 1.386 . S
C179 C172 1.357 . S
C179 H192 0.928 . S
H180 C156 0.931 . S
H181 C158 0.930 . S
H182 C160 0.929 . S
H183 C161 0.931 . S
H184 C163 0.930 . S
H185 C167 0.931 . S
H186 C165 0.931 . S
H187 C169 0.931 . S
H188 C170 0.929 . S
H189 C171 0.930 . S
H190 C174 0.930 . S
H191 C175 0.931 . S
H192 C179 0.928 . S
H193 C178 0.929 . S
H194 C176 0.932 . S
C195 C196 1.386 . S
C195 C197 1.397 . S
C195 H219 0.931 . S
C196 C195 1.386 . S
C196 C200 1.397 . S
C197 C195 1.397 . S
C197 C198 1.384 . S
C197 H220 0.930 . S
C198 C197 1.384 . S
C198 C199 1.377 . S
C198 C201 1.481 . S
C199 C198 1.377 . S
C199 C200 1.389 . S
C199 H221 0.929 . S
C200 C196 1.397 . S
C200 C199 1.389 . S
C200 H222 0.931 . S
C201 C198 1.481 . S
C201 C202 1.387 . S
C201 C206 1.390 . S
C202 C201 1.387 . S
C202 C203 1.401 . S
C202 H223 0.930 . S
C203 C202 1.401 . S
C203 C204 1.376 . S
C203 C212 1.511 . S
C204 C203 1.376 . S
C204 C205 1.392 . S
C204 H225 0.931 . S
C205 C204 1.392 . S
C205 C206 1.361 . S
C205 C207 1.500 . S
C206 C201 1.390 . S
C206 C205 1.361 . S
C206 H224 0.931 . S
C207 C205 1.500 . S
C207 C208 1.371 . S
C207 C209 1.365 . S
C208 C207 1.371 . S
C208 C218 1.386 . S
C208 H226 0.931 . S
C209 C207 1.365 . S
C209 C210 1.409 . S
C209 H227 0.929 . S
C210 C209 1.409 . S
C210 C211 1.380 . S
C210 H228 0.930 . S
C211 C210 1.380 . S
C211 C218 1.357 . S
C212 C203 1.511 . S
C212 C213 1.341 . S
C212 C214 1.371 . S
C213 C212 1.341 . S
C213 C217 1.394 . S
C213 H229 0.930 . S
C214 C212 1.371 . S
C214 C215 1.392 . S
C214 H230 0.931 . S
C215 C214 1.392 . S
C215 C216 1.331 . S
C215 H233 0.932 . S
C216 C215 1.331 . S
C216 C217 1.336 . S
C217 C213 1.394 . S
C217 C216 1.336 . S
C217 H232 0.929 . S
C218 C208 1.386 . S
C218 C211 1.357 . S
C218 H231 0.928 . S
H219 C195 0.931 . S
H220 C197 0.930 . S
H221 C199 0.929 . S
H222 C200 0.931 . S
H223 C202 0.930 . S
H224 C206 0.931 . S
H225 C204 0.931 . S
H226 C208 0.931 . S
H227 C209 0.929 . S
H228 C210 0.930 . S
H229 C213 0.930 . S
H230 C214 0.931 . S
H231 C218 0.928 . S
H232 C217 0.929 . S
H233 C215 0.932 . S
C234 C235 1.386 . S
C234 C236 1.397 . S
C234 H258 0.931 . S
C235 C234 1.386 . S
C235 C239 1.397 . S
C236 C234 1.397 . S
C236 C237 1.384 . S
C236 H259 0.930 . S
C237 C236 1.384 . S
C237 C238 1.377 . S
C237 C240 1.481 . S
C238 C237 1.377 . S
C238 C239 1.389 . S
C238 H260 0.929 . S
C239 C235 1.397 . S
C239 C238 1.389 . S
C239 H261 0.931 . S
C240 C237 1.481 . S
C240 C241 1.387 . S
C240 C245 1.390 . S
C241 C240 1.387 . S
C241 C242 1.401 . S
C241 H262 0.930 . S
C242 C241 1.401 . S
C242 C243 1.376 . S
C242 C251 1.511 . S
C243 C242 1.376 . S
C243 C244 1.392 . S
C243 H264 0.931 . S
C244 C243 1.392 . S
C244 C245 1.361 . S
C244 C246 1.500 . S
C245 C240 1.390 . S
C245 C244 1.361 . S
C245 H263 0.931 . S
C246 C244 1.500 . S
C246 C247 1.371 . S
C246 C248 1.365 . S
C247 C246 1.371 . S
C247 C257 1.386 . S
C247 H265 0.931 . S
C248 C246 1.365 . S
C248 C249 1.409 . S
C248 H266 0.929 . S
C249 C248 1.409 . S
C249 C250 1.380 . S
C249 H267 0.930 . S
C250 C249 1.380 . S
C250 C257 1.357 . S
C251 C242 1.511 . S
C251 C252 1.341 . S
C251 C253 1.371 . S
C252 C251 1.341 . S
C252 C256 1.394 . S
C252 H268 0.930 . S
C253 C251 1.371 . S
C253 C254 1.392 . S
C253 H269 0.931 . S
C254 C253 1.392 . S
C254 C255 1.331 . S
C254 H272 0.932 . S
C255 C254 1.331 . S
C255 C256 1.336 . S
C256 C252 1.394 . S
C256 C255 1.336 . S
C256 H271 0.929 . S
C257 C247 1.386 . S
C257 C250 1.357 . S
C257 H270 0.928 . S
H258 C234 0.931 . S
H259 C236 0.930 . S
H260 C238 0.929 . S
H261 C239 0.931 . S
H262 C241 0.930 . S
H263 C245 0.931 . S
H264 C243 0.931 . S
H265 C247 0.931 . S
H266 C248 0.929 . S
H267 C249 0.930 . S
H268 C252 0.930 . S
H269 C253 0.931 . S
H270 C257 0.928 . S
H271 C256 0.929 . S
H272 C254 0.932 . S
C273 C274 1.386 . S
C273 C275 1.397 . S
C273 H297 0.931 . S
C274 C273 1.386 . S
C274 C278 1.397 . S
C275 C273 1.397 . S
C275 C276 1.384 . S
C275 H298 0.930 . S
C276 C275 1.384 . S
C276 C277 1.377 . S
C276 C279 1.481 . S
C277 C276 1.377 . S
C277 C278 1.389 . S
C277 H299 0.929 . S
C278 C274 1.397 . S
C278 C277 1.389 . S
C278 H300 0.931 . S
C279 C276 1.481 . S
C279 C280 1.387 . S
C279 C284 1.390 . S
C280 C279 1.387 . S
C280 C281 1.401 . S
C280 H301 0.930 . S
C281 C280 1.401 . S
C281 C282 1.376 . S
C281 C290 1.511 . S
C282 C281 1.376 . S
C282 C283 1.392 . S
C282 H303 0.931 . S
C283 C282 1.392 . S
C283 C284 1.361 . S
C283 C285 1.500 . S
C284 C279 1.390 . S
C284 C283 1.361 . S
C284 H302 0.931 . S
C285 C283 1.500 . S
C285 C286 1.371 . S
C285 C287 1.365 . S
C286 C285 1.371 . S
C286 C296 1.386 . S
C286 H304 0.931 . S
C287 C285 1.365 . S
C287 C288 1.409 . S
C287 H305 0.929 . S
C288 C287 1.409 . S
C288 C289 1.380 . S
C288 H306 0.930 . S
C289 C288 1.380 . S
C289 C296 1.357 . S
C290 C281 1.511 . S
C290 C291 1.341 . S
C290 C292 1.371 . S
C291 C290 1.341 . S
C291 C295 1.394 . S
C291 H307 0.930 . S
C292 C290 1.371 . S
C292 C293 1.392 . S
C292 H308 0.931 . S
C293 C292 1.392 . S
C293 C294 1.331 . S
C293 H311 0.932 . S
C294 C293 1.331 . S
C294 C295 1.336 . S
C295 C291 1.394 . S
C295 C294 1.336 . S
C295 H310 0.929 . S
C296 C286 1.386 . S
C296 C289 1.357 . S
C296 H309 0.928 . S
H297 C273 0.931 . S
H298 C275 0.930 . S
H299 C277 0.929 . S
H300 C278 0.931 . S
H301 C280 0.930 . S
H302 C284 0.931 . S
H303 C282 0.931 . S
H304 C286 0.931 . S
H305 C287 0.929 . S
H306 C288 0.930 . S
H307 C291 0.930 . S
H308 C292 0.931 . S
H309 C296 0.928 . S
H310 C295 0.929 . S
H311 C293 0.932 . S
Zn312 O318 1.969 1_545 S
Zn312 O319 1.965 1_545 S
Zn312 O323 2.024 . S
Zn312 O328 1.969 . S
Zn313 O320 1.969 . S
Zn313 O326 1.969 1_565 S
Zn313 O327 1.934 1_665 S
Zn313 O329 2.024 . S
C314 O315 1.229 . S
C314 O323 1.058 . S
O315 C314 1.229 . S
C316 O317 1.229 . S
C316 O329 1.058 . S
O317 C316 1.229 . S
O318 Zn312 1.969 1_565 S
O318 C321 1.267 . S
O319 Zn312 1.965 1_565 S
O319 C330 1.260 1_455 S
O320 Zn313 1.969 . S
O320 C330 1.258 . S
C321 O318 1.267 . S
C321 O322 1.228 . S
O322 C321 1.228 . S
O323 Zn312 2.024 . S
O323 C314 1.058 . S
C324 O325 1.228 . S
C324 O326 1.267 . S
O325 C324 1.228 . S
O326 Zn313 1.969 1_545 S
O326 C324 1.267 . S
O327 Zn313 1.934 1_445 S
O327 C331 1.301 . S
O328 Zn312 1.969 . S
O328 C331 1.258 . S
O329 Zn313 2.024 . S
O329 C316 1.058 . S
C330 O319 1.260 1_655 S
C330 O320 1.258 . S
C331 O327 1.301 . S
C331 O328 1.258 . S
Zn332 O338 1.969 . S
Zn332 O339 1.965 1_565 S
Zn332 O343 2.024 . S
Zn332 O348 1.993 . S
Zn333 O340 1.969 . S
Zn333 O346 1.969 . S
Zn333 O347 1.965 1_545 S
Zn333 O349 2.024 . S
C334 O335 1.229 . S
C334 O343 1.058 . S
O335 C334 1.229 . S
C336 O337 1.229 . S
C336 O349 1.058 . S
O337 C336 1.229 . S
O338 Zn332 1.969 . S
O338 C341 1.267 . S
O339 Zn332 1.965 1_545 S
O339 C350 1.260 . S
O340 Zn333 1.969 . S
O340 C350 1.258 1_554 S
C341 O338 1.267 . S
C341 O342 1.228 . S
O342 C341 1.228 . S
O343 Zn332 2.024 . S
O343 C334 1.058 . S
C344 O345 1.228 . S
C344 O346 1.267 . S
O345 C344 1.228 . S
O346 Zn333 1.969 . S
O346 C344 1.267 . S
O347 Zn333 1.965 1_565 S
O347 C351 1.260 . S
O348 Zn332 1.993 . S
O348 C351 1.232 1_556 S
O349 Zn333 2.024 . S
O349 C336 1.058 . S
C350 O339 1.260 . S
C350 O340 1.258 1_556 S
C351 O347 1.260 . S
C351 O348 1.232 1_554 S
Zn352 O358 1.969 . S
Zn352 O359 1.965 . S
Zn352 O363 2.024 . S
Zn352 O368 1.969 . S
Zn353 O360 1.969 . S
Zn353 O366 1.969 . S
Zn353 O367 1.965 . S
Zn353 O369 2.024 . S
C354 O355 1.229 . S
C354 O363 1.058 . S
O355 C354 1.229 . S
C356 O357 1.229 . S
C356 O369 1.058 . S
O357 C356 1.229 . S
O358 Zn352 1.969 . S
O358 C361 1.267 . S
O359 Zn352 1.965 . S
O359 C370 1.260 . S
O360 Zn353 1.969 . S
O360 C370 1.258 . S
C361 O358 1.267 . S
C361 O362 1.228 . S
O362 C361 1.228 . S
O363 Zn352 2.024 . S
O363 C354 1.058 . S
C364 O365 1.228 . S
C364 O366 1.267 . S
O365 C364 1.228 . S
O366 Zn353 1.969 . S
O366 C364 1.267 . S
O367 Zn353 1.965 . S
O367 C371 1.260 . S
O368 Zn352 1.969 . S
O368 C371 1.258 . S
O369 Zn353 2.024 . S
O369 C356 1.058 . S
C370 O359 1.260 . S
C370 O360 1.258 . S
C371 O367 1.260 . S
C371 O368 1.258 . S
Zn372 O378 1.969 . S
Zn372 O379 1.965 1_556 S
Zn372 O383 2.024 . S
Zn372 O388 1.969 1_655 S
Zn373 O380 1.969 . S
Zn373 O386 1.969 . S
Zn373 O387 1.965 1_554 S
Zn373 O389 2.024 . S
C374 O375 1.229 . S
C374 O383 1.058 . S
O375 C374 1.229 . S
C376 O377 1.229 . S
C376 O389 1.058 . S
O377 C376 1.229 . S
O378 Zn372 1.969 . S
O378 C381 1.267 . S
O379 Zn372 1.965 1_554 S
O379 C390 1.260 . S
O380 Zn373 1.969 . S
O380 C390 1.258 1_455 S
C381 O378 1.267 . S
C381 O382 1.228 . S
O382 C381 1.228 . S
O383 Zn372 2.024 . S
O383 C374 1.058 . S
C384 O385 1.228 . S
C384 O386 1.267 . S
O385 C384 1.228 . S
O386 Zn373 1.969 . S
O386 C384 1.267 . S
O387 Zn373 1.965 1_556 S
O387 C391 1.260 . S
O388 Zn372 1.969 1_455 S
O388 C391 1.258 . S
O389 Zn373 2.024 . S
O389 C376 1.058 . S
C390 O379 1.260 . S
C390 O380 1.258 1_655 S
C391 O387 1.260 . S
C391 O388 1.258 . S
C392 C393 1.391 . S
C392 C394 1.394 . S
C392 H408 0.931 . S
C393 C392 1.391 . S
C393 C397 1.376 . S
C394 C392 1.394 . S
C394 C395 1.369 . S
C394 C398 1.531 . S
C395 C394 1.369 . S
C395 C396 1.410 . S
C395 C403 1.503 . S
C396 C395 1.410 . S
C396 C397 1.392 . S
C396 C399 1.511 . S
C397 C393 1.376 . S
C397 C396 1.392 . S
C397 H409 0.929 . S
C398 C394 1.531 . S
C398 H410 0.960 . S
C398 H411 0.962 . S
C398 H412 0.960 . S
C399 C396 1.511 . S
C399 H413 0.961 . S
C399 H414 0.961 . S
C399 H415 0.961 . S
C400 C401 1.370 . S
C400 C402 1.363 . S
C400 H416 0.931 . S
C401 C400 1.370 . S
C401 C405 1.408 . S
C402 C400 1.363 . S
C402 C403 1.370 . S
C402 C406 1.524 . S
C403 C395 1.503 . S
C403 C402 1.370 . S
C403 C404 1.403 . S
C404 C403 1.403 . S
C404 C405 1.404 . S
C404 C407 1.539 . S
C405 C401 1.408 . S
C405 C404 1.404 . S
C405 H417 0.910 1_545 S
C406 C402 1.524 . S
C406 H418 0.956 . S
C406 H419 0.961 . S
C406 H420 0.961 . S
C407 C404 1.539 . S
C407 H421 0.958 . S
C407 H422 0.961 1_545 S
C407 H423 0.960 . S
H408 C392 0.931 . S
H409 C397 0.929 . S
H410 C398 0.960 . S
H411 C398 0.962 . S
H412 C398 0.960 . S
H413 C399 0.961 . S
H414 C399 0.961 . S
H415 C399 0.961 . S
H416 C400 0.931 . S
H417 C405 0.910 1_565 S
H418 C406 0.956 . S
H419 C406 0.961 . S
H420 C406 0.961 . S
H421 C407 0.958 . S
H422 C407 0.961 1_565 S
H423 C407 0.960 . S
C424 C425 1.391 . S
C424 C426 1.394 . S
C424 H440 0.931 . S
C425 C424 1.391 . S
C425 C429 1.376 . S
C426 C424 1.394 . S
C426 C427 1.369 . S
C426 C430 1.531 . S
C427 C426 1.369 . S
C427 C428 1.410 . S
C427 C435 1.503 . S
C428 C427 1.410 . S
C428 C429 1.392 . S
C428 C431 1.511 . S
C429 C425 1.376 . S
C429 C428 1.392 . S
C429 H441 0.929 . S
C430 C426 1.531 . S
C430 H442 0.960 . S
C430 H443 0.962 . S
C430 H444 0.960 . S
C431 C428 1.511 . S
C431 H445 0.961 . S
C431 H446 0.961 . S
C431 H447 0.961 . S
C432 C433 1.370 . S
C432 C434 1.363 . S
C432 H448 0.931 . S
C433 C432 1.370 . S
C433 C437 1.408 . S
C434 C432 1.363 . S
C434 C435 1.370 . S
C434 C438 1.524 . S
C435 C427 1.503 . S
C435 C434 1.370 . S
C435 C436 1.403 . S
C436 C435 1.403 . S
C436 C437 1.404 . S
C436 C439 1.539 . S
C437 C433 1.408 . S
C437 C436 1.404 . S
C437 H449 0.930 . S
C438 C434 1.524 . S
C438 H450 0.956 . S
C438 H451 0.961 . S
C438 H452 0.961 . S
C439 C436 1.539 . S
C439 H453 0.958 . S
C439 H454 0.961 . S
C439 H455 0.960 . S
H440 C424 0.931 . S
H441 C429 0.929 . S
H442 C430 0.960 . S
H443 C430 0.962 . S
H444 C430 0.960 . S
H445 C431 0.961 . S
H446 C431 0.961 . S
H447 C431 0.961 . S
H448 C432 0.931 . S
H449 C437 0.930 . S
H450 C438 0.956 . S
H451 C438 0.961 . S
H452 C438 0.961 . S
H453 C439 0.958 . S
H454 C439 0.961 . S
H455 C439 0.960 . S
C456 C457 1.391 . S
C456 C458 1.394 . S
C456 H472 0.931 . S
C457 C456 1.391 . S
C457 C461 1.376 . S
C458 C456 1.394 . S
C458 C459 1.369 . S
C458 C462 1.531 . S
C459 C458 1.369 . S
C459 C460 1.410 . S
C459 C467 1.503 . S
C460 C459 1.410 . S
C460 C461 1.392 . S
C460 C463 1.511 . S
C461 C457 1.376 . S
C461 C460 1.392 . S
C461 H473 0.929 . S
C462 C458 1.531 . S
C462 H474 0.960 . S
C462 H475 0.962 . S
C462 H476 0.960 . S
C463 C460 1.511 . S
C463 H477 0.961 . S
C463 H478 0.961 . S
C463 H479 0.961 . S
C464 C465 1.370 . S
C464 C466 1.363 . S
C464 H480 0.931 . S
C465 C464 1.370 . S
C465 C469 1.408 . S
C466 C464 1.363 . S
C466 C467 1.370 . S
C466 C470 1.524 . S
C467 C459 1.503 . S
C467 C466 1.370 . S
C467 C468 1.403 . S
C468 C467 1.403 . S
C468 C469 1.404 . S
C468 C471 1.539 . S
C469 C465 1.408 . S
C469 C468 1.404 . S
C469 H481 0.930 . S
C470 C466 1.524 . S
C470 H482 0.956 . S
C470 H483 0.961 . S
C470 H484 0.961 . S
C471 C468 1.539 . S
C471 H485 0.958 . S
C471 H486 0.961 . S
C471 H487 0.960 . S
H472 C456 0.931 . S
H473 C461 0.929 . S
H474 C462 0.960 . S
H475 C462 0.962 . S
H476 C462 0.960 . S
H477 C463 0.961 . S
H478 C463 0.961 . S
H479 C463 0.961 . S
H480 C464 0.931 . S
H481 C469 0.930 . S
H482 C470 0.956 . S
H483 C470 0.961 . S
H484 C470 0.961 . S
H485 C471 0.958 . S
H486 C471 0.961 . S
H487 C471 0.960 . S
C488 C489 1.391 . S
C488 C490 1.394 . S
C488 H504 0.931 . S
C489 C488 1.391 . S
C489 C493 1.376 . S
C490 C488 1.394 . S
C490 C491 1.369 . S
C490 C494 1.531 . S
C491 C490 1.369 . S
C491 C492 1.410 . S
C491 C499 1.503 . S
C492 C491 1.410 . S
C492 C493 1.392 . S
C492 C495 1.511 . S
C493 C489 1.376 . S
C493 C492 1.392 . S
C493 H505 0.929 . S
C494 C490 1.531 . S
C494 H506 0.960 . S
C494 H507 0.962 . S
C494 H508 0.960 . S
C495 C492 1.511 . S
C495 H509 0.961 . S
C495 H510 0.961 . S
C495 H511 0.961 . S
C496 C497 1.370 . S
C496 C498 1.363 . S
C496 H512 0.931 . S
C497 C496 1.370 . S
C497 C501 1.408 . S
C498 C496 1.363 . S
C498 C499 1.370 . S
C498 C502 1.524 . S
C499 C491 1.503 . S
C499 C498 1.370 . S
C499 C500 1.403 . S
C500 C499 1.403 . S
C500 C501 1.404 . S
C500 C503 1.539 . S
C501 C497 1.408 . S
C501 C500 1.404 . S
C501 H513 0.930 . S
C502 C498 1.524 . S
C502 H514 0.956 . S
C502 H515 0.961 . S
C502 H516 0.961 . S
C503 C500 1.539 . S
C503 H517 0.958 . S
C503 H518 0.961 . S
C503 H519 0.960 . S
H504 C488 0.931 . S
H505 C493 0.929 . S
H506 C494 0.960 . S
H507 C494 0.962 . S
H508 C494 0.960 . S
H509 C495 0.961 . S
H510 C495 0.961 . S
H511 C495 0.961 . S
H512 C496 0.931 . S
H513 C501 0.930 . S
H514 C502 0.956 . S
H515 C502 0.961 . S
H516 C502 0.961 . S
H517 C503 0.958 . S
H518 C503 0.961 . S
H519 C503 0.960 . S
C520 C521 1.391 . S
C520 C522 1.394 . S
C520 H536 0.931 . S
C521 C520 1.391 . S
C521 C525 1.376 . S
C522 C520 1.394 . S
C522 C523 1.369 . S
C522 C526 1.531 . S
C523 C522 1.369 . S
C523 C524 1.410 . S
C523 C531 1.503 . S
C524 C523 1.410 . S
C524 C525 1.392 . S
C524 C527 1.511 . S
C525 C521 1.376 . S
C525 C524 1.392 . S
C525 H537 0.929 . S
C526 C522 1.531 . S
C526 H538 0.960 . S
C526 H539 0.962 . S
C526 H540 0.960 . S
C527 C524 1.511 . S
C527 H541 0.961 . S
C527 H542 0.961 . S
C527 H543 0.961 . S
C528 C529 1.370 . S
C528 C530 1.363 . S
C528 H544 0.931 . S
C529 C528 1.370 . S
C529 C533 1.408 . S
C530 C528 1.363 . S
C530 C531 1.370 . S
C530 C534 1.524 . S
C531 C523 1.503 . S
C531 C530 1.370 . S
C531 C532 1.403 . S
C532 C531 1.403 . S
C532 C533 1.404 . S
C532 C535 1.539 . S
C533 C529 1.408 . S
C533 C532 1.404 . S
C533 H545 0.930 . S
C534 C530 1.524 . S
C534 H546 0.956 . S
C534 H547 0.961 . S
C534 H548 0.961 . S
C535 C532 1.539 . S
C535 H549 0.958 . S
C535 H550 0.961 . S
C535 H551 0.960 . S
H536 C520 0.931 . S
H537 C525 0.929 . S
H538 C526 0.960 . S
H539 C526 0.962 . S
H540 C526 0.960 . S
H541 C527 0.961 . S
H542 C527 0.961 . S
H543 C527 0.961 . S
H544 C528 0.931 . S
H545 C533 0.930 . S
H546 C534 0.956 . S
H547 C534 0.961 . S
H548 C534 0.961 . S
H549 C535 0.958 . S
H550 C535 0.961 . S
H551 C535 0.960 . S
C552 C553 1.391 . S
C552 C554 1.394 . S
C552 H568 0.931 . S
C553 C552 1.391 . S
C553 C557 1.376 . S
C554 C552 1.394 . S
C554 C555 1.369 . S
C554 C558 1.531 . S
C555 C554 1.369 . S
C555 C556 1.410 . S
C555 C563 1.503 . S
C556 C555 1.410 . S
C556 C557 1.392 . S
C556 C559 1.511 . S
C557 C553 1.376 . S
C557 C556 1.392 . S
C557 H569 0.929 . S
C558 C554 1.531 . S
C558 H570 0.960 . S
C558 H571 0.962 . S
C558 H572 0.960 . S
C559 C556 1.511 . S
C559 H573 0.961 . S
C559 H574 0.961 . S
C559 H575 0.961 . S
C560 C561 1.370 . S
C560 C562 1.363 . S
C560 H576 0.931 . S
C561 C560 1.370 . S
C561 C565 1.408 . S
C562 C560 1.363 . S
C562 C563 1.370 . S
C562 C566 1.524 . S
C563 C555 1.503 . S
C563 C562 1.370 . S
C563 C564 1.403 . S
C564 C563 1.403 . S
C564 C565 1.404 . S
C564 C567 1.539 . S
C565 C561 1.408 . S
C565 C564 1.404 . S
C565 H577 0.930 . S
C566 C562 1.524 . S
C566 H578 0.956 . S
C566 H579 0.961 . S
C566 H580 0.961 . S
C567 C564 1.539 . S
C567 H581 0.958 . S
C567 H582 0.961 . S
C567 H583 0.960 . S
H568 C552 0.931 . S
H569 C557 0.929 . S
H570 C558 0.960 . S
H571 C558 0.962 . S
H572 C558 0.960 . S
H573 C559 0.961 . S
H574 C559 0.961 . S
H575 C559 0.961 . S
H576 C560 0.931 . S
H577 C565 0.930 . S
H578 C566 0.956 . S
H579 C566 0.961 . S
H580 C566 0.961 . S
H581 C567 0.958 . S
H582 C567 0.961 . S
H583 C567 0.960 . S
C584 C585 1.391 . S
C584 C586 1.394 . S
C584 H600 0.931 . S
C585 C584 1.391 . S
C585 C589 1.376 . S
C586 C584 1.394 . S
C586 C587 1.369 . S
C586 C590 1.531 . S
C587 C586 1.369 . S
C587 C588 1.410 . S
C587 C595 1.503 . S
C588 C587 1.410 . S
C588 C589 1.392 . S
C588 C591 1.511 . S
C589 C585 1.376 . S
C589 C588 1.392 . S
C589 H601 0.929 . S
C590 C586 1.531 . S
C590 H602 0.960 . S
C590 H603 0.962 . S
C590 H604 0.960 . S
C591 C588 1.511 . S
C591 H605 0.961 . S
C591 H606 0.961 . S
C591 H607 0.961 . S
C592 C593 1.370 . S
C592 C594 1.363 . S
C592 H608 0.931 . S
C593 C592 1.370 . S
C593 C597 1.408 . S
C594 C592 1.363 . S
C594 C595 1.370 . S
C594 C598 1.524 . S
C595 C587 1.503 . S
C595 C594 1.370 . S
C595 C596 1.403 . S
C596 C595 1.403 . S
C596 C597 1.404 . S
C596 C599 1.539 . S
C597 C593 1.408 . S
C597 C596 1.404 . S
C597 H609 0.930 . S
C598 C594 1.524 . S
C598 H610 0.956 . S
C598 H611 0.961 . S
C598 H612 0.961 . S
C599 C596 1.539 . S
C599 H613 0.958 . S
C599 H614 0.961 . S
C599 H615 0.960 . S
H600 C584 0.931 . S
H601 C589 0.929 . S
H602 C590 0.960 . S
H603 C590 0.962 . S
H604 C590 0.960 . S
H605 C591 0.961 . S
H606 C591 0.961 . S
H607 C591 0.961 . S
H608 C592 0.931 . S
H609 C597 0.930 . S
H610 C598 0.956 . S
H611 C598 0.961 . S
H612 C598 0.961 . S
H613 C599 0.958 . S
H614 C599 0.961 . S
H615 C599 0.960 . S
C616 C617 1.391 . S
C616 C618 1.394 . S
C616 H632 0.931 . S
C617 C616 1.391 . S
C617 C621 1.376 . S
C618 C616 1.394 . S
C618 C619 1.369 . S
C618 C622 1.531 . S
C619 C618 1.369 . S
C619 C620 1.410 . S
C619 C627 1.503 . S
C620 C619 1.410 . S
C620 C621 1.392 . S
C620 C623 1.511 . S
C621 C617 1.376 . S
C621 C620 1.392 . S
C621 H633 0.929 . S
C622 C618 1.531 . S
C622 H634 0.960 . S
C622 H635 0.962 . S
C622 H636 0.960 . S
C623 C620 1.511 . S
C623 H637 0.961 . S
C623 H638 0.961 . S
C623 H639 0.961 . S
C624 C625 1.370 . S
C624 C626 1.363 . S
C624 H640 0.931 . S
C625 C624 1.370 . S
C625 C629 1.408 . S
C626 C624 1.363 . S
C626 C627 1.370 . S
C626 C630 1.524 . S
C627 C619 1.503 . S
C627 C626 1.370 . S
C627 C628 1.403 . S
C628 C627 1.403 . S
C628 C629 1.404 . S
C628 C631 1.539 . S
C629 C625 1.408 . S
C629 C628 1.404 . S
C629 H641 0.930 . S
C630 C626 1.524 . S
C630 H642 0.956 . S
C630 H643 0.961 . S
C630 H644 0.961 . S
C631 C628 1.539 . S
C631 H645 0.958 . S
C631 H646 0.961 . S
C631 H647 0.960 . S
H632 C616 0.931 . S
H633 C621 0.929 . S
H634 C622 0.960 . S
H635 C622 0.962 . S
H636 C622 0.960 . S
H637 C623 0.961 . S
H638 C623 0.961 . S
H639 C623 0.961 . S
H640 C624 0.931 . S
H641 C629 0.930 . S
H642 C630 0.956 . S
H643 C630 0.961 . S
H644 C630 0.961 . S
H645 C631 0.958 . S
H646 C631 0.961 . S
H647 C631 0.960 . S
C648 C649 1.391 . S
C648 C650 1.394 . S
C648 H664 0.931 . S
C649 C648 1.391 . S
C649 C653 1.376 . S
C650 C648 1.394 . S
C650 C651 1.369 . S
C650 C654 1.531 . S
C651 C650 1.369 . S
C651 C652 1.410 . S
C651 C659 1.503 . S
C652 C651 1.410 . S
C652 C653 1.392 . S
C652 C655 1.511 . S
C653 C649 1.376 . S
C653 C652 1.392 . S
C653 H665 0.929 . S
C654 C650 1.531 . S
C654 H666 0.960 . S
C654 H667 0.962 . S
C654 H668 0.960 . S
C655 C652 1.511 . S
C655 H669 0.961 . S
C655 H670 0.961 . S
C655 H671 0.961 . S
C656 C657 1.370 . S
C656 C658 1.363 . S
C656 H672 0.931 . S
C657 C656 1.370 . S
C657 C661 1.408 . S
C658 C656 1.363 . S
C658 C659 1.370 . S
C658 C662 1.524 . S
C659 C651 1.503 . S
C659 C658 1.370 . S
C659 C660 1.403 . S
C660 C659 1.403 . S
C660 C661 1.404 . S
C660 C663 1.539 . S
C661 C657 1.408 . S
C661 C660 1.404 . S
C661 H673 0.930 . S
C662 C658 1.524 . S
C662 H674 0.956 . S
C662 H675 0.961 . S
C662 H676 0.961 . S
C663 C660 1.539 . S
C663 H677 0.958 . S
C663 H678 0.961 . S
C663 H679 0.960 . S
H664 C648 0.931 . S
H665 C653 0.929 . S
H666 C654 0.960 . S
H667 C654 0.962 . S
H668 C654 0.960 . S
H669 C655 0.961 . S
H670 C655 0.961 . S
H671 C655 0.961 . S
H672 C656 0.931 . S
H673 C661 0.930 . S
H674 C662 0.956 . S
H675 C662 0.961 . S
H676 C662 0.961 . S
H677 C663 0.958 . S
H678 C663 0.961 . S
H679 C663 0.960 . S
C680 C681 1.391 . S
C680 C682 1.394 . S
C680 H696 0.931 . S
C681 C680 1.391 . S
C681 C685 1.376 . S
C682 C680 1.394 . S
C682 C683 1.369 . S
C682 C686 1.531 . S
C683 C682 1.369 . S
C683 C684 1.410 . S
C683 C691 1.503 . S
C684 C683 1.410 . S
C684 C685 1.392 . S
C684 C687 1.511 . S
C685 C681 1.376 . S
C685 C684 1.392 . S
C685 H697 0.929 . S
C686 C682 1.531 . S
C686 H698 0.960 . S
C686 H699 0.962 . S
C686 H700 0.960 . S
C687 C684 1.511 . S
C687 H701 0.961 . S
C687 H702 0.961 . S
C687 H703 0.961 . S
C688 C689 1.370 . S
C688 C690 1.363 . S
C688 H704 0.931 . S
C689 C688 1.370 . S
C689 C693 1.408 . S
C690 C688 1.363 . S
C690 C691 1.370 . S
C690 C694 1.524 . S
C691 C683 1.503 . S
C691 C690 1.370 . S
C691 C692 1.403 . S
C692 C691 1.403 . S
C692 C693 1.404 . S
C692 C695 1.539 . S
C693 C689 1.408 . S
C693 C692 1.404 . S
C693 H705 0.930 . S
C694 C690 1.524 . S
C694 H706 0.956 . S
C694 H707 0.961 . S
C694 H708 0.961 . S
C695 C692 1.539 . S
C695 H709 0.958 . S
C695 H710 0.961 . S
C695 H711 0.960 . S
H696 C680 0.931 . S
H697 C685 0.929 . S
H698 C686 0.960 . S
H699 C686 0.962 . S
H700 C686 0.960 . S
H701 C687 0.961 . S
H702 C687 0.961 . S
H703 C687 0.961 . S
H704 C688 0.931 . S
H705 C693 0.930 . S
H706 C694 0.956 . S
H707 C694 0.961 . S
H708 C694 0.961 . S
H709 C695 0.958 . S
H710 C695 0.961 . S
H711 C695 0.960 . S
C712 C713 1.391 . S
C712 C714 1.394 . S
C712 H728 0.931 . S
C713 C712 1.391 . S
C713 C717 1.376 . S
C714 C712 1.394 . S
C714 C715 1.369 . S
C714 C718 1.531 . S
C715 C714 1.369 . S
C715 C716 1.410 . S
C715 C723 1.503 . S
C716 C715 1.410 . S
C716 C717 1.392 . S
C716 C719 1.511 . S
C717 C713 1.376 . S
C717 C716 1.392 . S
C717 H729 0.929 . S
C718 C714 1.531 . S
C718 H730 0.960 . S
C718 H731 0.962 . S
C718 H732 0.960 . S
C719 C716 1.511 . S
C719 H733 0.961 . S
C719 H734 0.961 . S
C719 H735 0.961 . S
C720 C721 1.370 . S
C720 C722 1.363 . S
C720 H736 0.931 . S
C721 C720 1.370 . S
C721 C725 1.408 . S
C722 C720 1.363 . S
C722 C723 1.370 . S
C722 C726 1.524 . S
C723 C715 1.503 . S
C723 C722 1.370 . S
C723 C724 1.403 . S
C724 C723 1.403 . S
C724 C725 1.404 . S
C724 C727 1.539 . S
C725 C721 1.408 . S
C725 C724 1.404 . S
C725 H737 0.930 . S
C726 C722 1.524 . S
C726 H738 0.956 . S
C726 H739 0.961 . S
C726 H740 0.961 . S
C727 C724 1.539 . S
C727 H741 0.958 . S
C727 H742 0.961 . S
C727 H743 0.960 . S
H728 C712 0.931 . S
H729 C717 0.929 . S
H730 C718 0.960 . S
H731 C718 0.962 . S
H732 C718 0.960 . S
H733 C719 0.961 . S
H734 C719 0.961 . S
H735 C719 0.961 . S
H736 C720 0.931 . S
H737 C725 0.930 . S
H738 C726 0.956 . S
H739 C726 0.961 . S
H740 C726 0.961 . S
H741 C727 0.958 . S
H742 C727 0.961 . S
H743 C727 0.960 . S
C744 C745 1.391 . S
C744 C746 1.394 . S
C744 H760 0.931 . S
C745 C744 1.391 . S
C745 C749 1.376 . S
C746 C744 1.394 . S
C746 C747 1.369 . S
C746 C750 1.531 . S
C747 C746 1.369 . S
C747 C748 1.410 . S
C747 C755 1.503 . S
C748 C747 1.410 . S
C748 C749 1.392 . S
C748 C751 1.511 . S
C749 C745 1.376 . S
C749 C748 1.392 . S
C749 H761 0.929 . S
C750 C746 1.531 . S
C750 H762 0.960 . S
C750 H763 0.962 . S
C750 H764 0.960 . S
C751 C748 1.511 . S
C751 H765 0.961 . S
C751 H766 0.961 . S
C751 H767 0.961 . S
C752 C753 1.370 . S
C752 C754 1.363 . S
C752 H768 0.931 . S
C753 C752 1.370 . S
C753 C757 1.408 . S
C754 C752 1.363 . S
C754 C755 1.370 . S
C754 C758 1.524 . S
C755 C747 1.503 . S
C755 C754 1.370 . S
C755 C756 1.403 . S
C756 C755 1.403 . S
C756 C757 1.404 . S
C756 C759 1.539 . S
C757 C753 1.408 . S
C757 C756 1.404 . S
C757 H769 0.930 . S
C758 C754 1.524 . S
C758 H770 0.956 . S
C758 H771 0.961 . S
C758 H772 0.961 . S
C759 C756 1.539 . S
C759 H773 0.958 . S
C759 H774 0.961 . S
C759 H775 0.960 . S
H760 C744 0.931 . S
H761 C749 0.929 . S
H762 C750 0.960 . S
H763 C750 0.962 . S
H764 C750 0.960 . S
H765 C751 0.961 . S
H766 C751 0.961 . S
H767 C751 0.961 . S
H768 C752 0.931 . S
H769 C757 0.930 . S
H770 C758 0.956 . S
H771 C758 0.961 . S
H772 C758 0.961 . S
H773 C759 0.958 . S
H774 C759 0.961 . S
H775 C759 0.960 . S
C776 C777 1.391 . S
C776 C778 1.394 . S
C776 H792 0.931 . S
C777 C776 1.391 . S
C777 C781 1.376 . S
C778 C776 1.394 . S
C778 C779 1.369 . S
C778 C782 1.531 . S
C779 C778 1.369 . S
C779 C780 1.410 . S
C779 C787 1.503 . S
C780 C779 1.410 . S
C780 C781 1.392 . S
C780 C783 1.511 . S
C781 C777 1.376 . S
C781 C780 1.392 . S
C781 H793 0.929 . S
C782 C778 1.531 . S
C782 H794 0.960 . S
C782 H795 0.962 . S
C782 H796 0.960 . S
C783 C780 1.511 . S
C783 H797 0.961 . S
C783 H798 0.961 . S
C783 H799 0.961 . S
C784 C785 1.370 . S
C784 C786 1.363 . S
C784 H800 0.931 . S
C785 C784 1.370 . S
C785 C789 1.408 . S
C786 C784 1.363 . S
C786 C787 1.370 . S
C786 C790 1.524 . S
C787 C779 1.503 . S
C787 C786 1.370 . S
C787 C788 1.403 . S
C788 C787 1.403 . S
C788 C789 1.404 . S
C788 C791 1.539 . S
C789 C785 1.408 . S
C789 C788 1.404 . S
C789 H801 0.930 . S
C790 C786 1.524 . S
C790 H802 0.956 . S
C790 H803 0.961 . S
C790 H804 0.961 . S
C791 C788 1.539 . S
C791 H805 0.958 . S
C791 H806 0.961 . S
C791 H807 0.960 . S
H792 C776 0.931 . S
H793 C781 0.929 . S
H794 C782 0.960 . S
H795 C782 0.962 . S
H796 C782 0.960 . S
H797 C783 0.961 . S
H798 C783 0.961 . S
H799 C783 0.961 . S
H800 C784 0.931 . S
H801 C789 0.930 . S
H802 C790 0.956 . S
H803 C790 0.961 . S
H804 C790 0.961 . S
H805 C791 0.958 . S
H806 C791 0.961 . S
H807 C791 0.960 . S
C808 C809 1.391 . S
C808 C810 1.394 . S
C808 H824 0.931 . S
C809 C808 1.391 . S
C809 C813 1.376 . S
C810 C808 1.394 . S
C810 C811 1.369 . S
C810 C814 1.531 . S
C811 C810 1.369 . S
C811 C812 1.410 . S
C811 C819 1.503 . S
C812 C811 1.410 . S
C812 C813 1.392 . S
C812 C815 1.511 . S
C813 C809 1.376 . S
C813 C812 1.392 . S
C813 H825 0.929 . S
C814 C810 1.531 . S
C814 H826 0.960 . S
C814 H827 0.962 . S
C814 H828 0.960 . S
C815 C812 1.511 . S
C815 H829 0.961 . S
C815 H830 0.961 . S
C815 H831 0.961 . S
C816 C817 1.370 . S
C816 C818 1.363 . S
C816 H832 0.931 . S
C817 C816 1.370 . S
C817 C821 1.408 . S
C818 C816 1.363 . S
C818 C819 1.370 . S
C818 C822 1.524 . S
C819 C811 1.503 . S
C819 C818 1.370 . S
C819 C820 1.403 . S
C820 C819 1.403 . S
C820 C821 1.404 . S
C820 C823 1.539 . S
C821 C817 1.408 . S
C821 C820 1.404 . S
C821 H833 0.930 . S
C822 C818 1.524 . S
C822 H834 0.956 . S
C822 H835 0.961 . S
C822 H836 0.961 . S
C823 C820 1.539 . S
C823 H837 0.958 . S
C823 H838 0.961 . S
C823 H839 0.960 . S
H824 C808 0.931 . S
H825 C813 0.929 . S
H826 C814 0.960 . S
H827 C814 0.962 . S
H828 C814 0.960 . S
H829 C815 0.961 . S
H830 C815 0.961 . S
H831 C815 0.961 . S
H832 C816 0.931 . S
H833 C821 0.930 . S
H834 C822 0.956 . S
H835 C822 0.961 . S
H836 C822 0.961 . S
H837 C823 0.958 . S
H838 C823 0.961 . S
H839 C823 0.960 . S
C840 C841 1.391 . S
C840 C842 1.394 . S
C840 H856 0.931 . S
C841 C840 1.391 . S
C841 C845 1.376 . S
C842 C840 1.394 . S
C842 C843 1.369 . S
C842 C846 1.531 . S
C843 C842 1.369 . S
C843 C844 1.410 . S
C843 C851 1.503 . S
C844 C843 1.410 . S
C844 C845 1.392 . S
C844 C847 1.511 . S
C845 C841 1.376 . S
C845 C844 1.392 . S
C845 H857 0.929 . S
C846 C842 1.531 . S
C846 H858 0.960 . S
C846 H859 0.962 . S
C846 H860 0.960 . S
C847 C844 1.511 . S
C847 H861 0.961 . S
C847 H862 0.961 . S
C847 H863 0.961 . S
C848 C849 1.370 . S
C848 C850 1.363 . S
C848 H864 0.931 . S
C849 C848 1.370 . S
C849 C853 1.408 . S
C850 C848 1.363 . S
C850 C851 1.370 . S
C850 C854 1.524 . S
C851 C843 1.503 . S
C851 C850 1.370 . S
C851 C852 1.403 . S
C852 C851 1.403 . S
C852 C853 1.404 . S
C852 C855 1.539 . S
C853 C849 1.408 . S
C853 C852 1.404 . S
C853 H865 0.930 . S
C854 C850 1.524 . S
C854 H866 0.956 . S
C854 H867 0.961 . S
C854 H868 0.961 . S
C855 C852 1.539 . S
C855 H869 0.958 . S
C855 H870 0.961 . S
C855 H871 0.960 . S
H856 C840 0.931 . S
H857 C845 0.929 . S
H858 C846 0.960 . S
H859 C846 0.962 . S
H860 C846 0.960 . S
H861 C847 0.961 . S
H862 C847 0.961 . S
H863 C847 0.961 . S
H864 C848 0.931 . S
H865 C853 0.930 . S
H866 C854 0.956 . S
H867 C854 0.961 . S
H868 C854 0.961 . S
H869 C855 0.958 . S
H870 C855 0.961 . S
H871 C855 0.960 . S
C872 C873 1.391 . S
C872 C874 1.394 . S
C872 H888 0.931 . S
C873 C872 1.391 . S
C873 C877 1.376 . S
C874 C872 1.394 . S
C874 C875 1.369 . S
C874 C878 1.531 . S
C875 C874 1.369 . S
C875 C876 1.410 . S
C875 C883 1.503 . S
C876 C875 1.410 . S
C876 C877 1.392 . S
C876 C879 1.511 . S
C877 C873 1.376 . S
C877 C876 1.392 . S
C877 H889 0.929 . S
C878 C874 1.531 . S
C878 H890 0.960 . S
C878 H891 0.962 . S
C878 H892 0.960 . S
C879 C876 1.511 . S
C879 H893 0.961 . S
C879 H894 0.961 . S
C879 H895 0.961 . S
C880 C881 1.370 . S
C880 C882 1.363 . S
C880 H896 0.931 . S
C881 C880 1.370 . S
C881 C885 1.408 . S
C882 C880 1.363 . S
C882 C883 1.370 . S
C882 C886 1.524 . S
C883 C875 1.503 . S
C883 C882 1.370 . S
C883 C884 1.403 . S
C884 C883 1.403 . S
C884 C885 1.404 . S
C884 C887 1.539 . S
C885 C881 1.408 . S
C885 C884 1.404 . S
C885 H897 0.930 . S
C886 C882 1.524 . S
C886 H898 0.956 . S
C886 H899 0.961 . S
C886 H900 0.961 . S
C887 C884 1.539 . S
C887 H901 0.958 . S
C887 H902 0.961 . S
C887 H903 0.960 . S
H888 C872 0.931 . S
H889 C877 0.929 . S
H890 C878 0.960 . S
H891 C878 0.962 . S
H892 C878 0.960 . S
H893 C879 0.961 . S
H894 C879 0.961 . S
H895 C879 0.961 . S
H896 C880 0.931 . S
H897 C885 0.930 . S
H898 C886 0.956 . S
H899 C886 0.961 . S
H900 C886 0.961 . S
H901 C887 0.958 . S
H902 C887 0.961 . S
H903 C887 0.960 . S
C904 C905 1.391 . S
C904 C906 1.394 . S
C904 H920 0.931 . S
C905 C904 1.391 . S
C905 C909 1.376 . S
C906 C904 1.394 . S
C906 C907 1.369 . S
C906 C910 1.531 . S
C907 C906 1.369 . S
C907 C908 1.410 . S
C907 C915 1.503 . S
C908 C907 1.410 . S
C908 C909 1.392 . S
C908 C911 1.511 . S
C909 C905 1.376 . S
C909 C908 1.392 . S
C909 H921 0.929 . S
C910 C906 1.531 . S
C910 H922 0.960 . S
C910 H923 0.962 . S
C910 H924 0.960 . S
C911 C908 1.511 . S
C911 H925 0.961 . S
C911 H926 0.961 . S
C911 H927 0.961 . S
C912 C913 1.370 . S
C912 C914 1.363 . S
C912 H928 0.931 . S
C913 C912 1.370 . S
C913 C917 1.408 . S
C914 C912 1.363 . S
C914 C915 1.370 . S
C914 C918 1.524 . S
C915 C907 1.503 . S
C915 C914 1.370 . S
C915 C916 1.403 . S
C916 C915 1.403 . S
C916 C917 1.404 . S
C916 C919 1.539 . S
C917 C913 1.408 . S
C917 C916 1.404 . S
C917 H929 0.930 . S
C918 C914 1.524 . S
C918 H930 0.956 . S
C918 H931 0.961 . S
C918 H932 0.961 . S
C919 C916 1.539 . S
C919 H933 0.958 . S
C919 H934 0.961 . S
C919 H935 0.960 . S
H920 C904 0.931 . S
H921 C909 0.929 . S
H922 C910 0.960 . S
H923 C910 0.962 . S
H924 C910 0.960 . S
H925 C911 0.961 . S
H926 C911 0.961 . S
H927 C911 0.961 . S
H928 C912 0.931 . S
H929 C917 0.930 . S
H930 C918 0.956 . S
H931 C918 0.961 . S
H932 C918 0.961 . S
H933 C919 0.958 . S
H934 C919 0.961 . S
H935 C919 0.960 . S
C936 C937 1.391 . S
C936 C938 1.394 . S
C936 H952 0.931 . S
C937 C936 1.391 . S
C937 C941 1.376 . S
C938 C936 1.394 . S
C938 C939 1.369 . S
C938 C942 1.531 . S
C939 C938 1.369 . S
C939 C940 1.410 . S
C939 C947 1.503 . S
C940 C939 1.410 . S
C940 C941 1.392 . S
C940 C943 1.511 . S
C941 C937 1.376 . S
C941 C940 1.392 . S
C941 H953 0.929 . S
C942 C938 1.531 . S
C942 H954 0.960 . S
C942 H955 0.962 . S
C942 H956 0.960 . S
C943 C940 1.511 . S
C943 H957 0.961 . S
C943 H958 0.961 . S
C943 H959 0.961 . S
C944 C945 1.370 . S
C944 C946 1.363 . S
C944 H960 0.931 . S
C945 C944 1.370 . S
C945 C949 1.408 . S
C946 C944 1.363 . S
C946 C947 1.370 . S
C946 C950 1.524 . S
C947 C939 1.503 . S
C947 C946 1.370 . S
C947 C948 1.403 . S
C948 C947 1.403 . S
C948 C949 1.404 . S
C948 C951 1.539 . S
C949 C945 1.408 . S
C949 C948 1.404 . S
C949 H961 0.930 . S
C950 C946 1.524 . S
C950 H962 0.956 . S
C950 H963 0.961 . S
C950 H964 0.961 . S
C951 C948 1.539 . S
C951 H965 0.958 . S
C951 H966 0.961 . S
C951 H967 0.960 . S
H952 C936 0.931 . S
H953 C941 0.929 . S
H954 C942 0.960 . S
H955 C942 0.962 . S
H956 C942 0.960 . S
H957 C943 0.961 . S
H958 C943 0.961 . S
H959 C943 0.961 . S
H960 C944 0.931 . S
H961 C949 0.930 . S
H962 C950 0.956 . S
H963 C950 0.961 . S
H964 C950 0.961 . S
H965 C951 0.958 . S
H966 C951 0.961 . S
H967 C951 0.960 . S
C968 C969 1.391 . S
C968 C970 1.394 . S
C968 H984 0.931 . S
C969 C968 1.391 . S
C969 C973 1.376 . S
C970 C968 1.394 . S
C970 C971 1.369 . S
C970 C974 1.531 . S
C971 C970 1.369 . S
C971 C972 1.410 . S
C971 C979 1.503 . S
C972 C971 1.410 . S
C972 C973 1.392 . S
C972 C975 1.511 . S
C973 C969 1.376 . S
C973 C972 1.392 . S
C973 H985 0.929 . S
C974 C970 1.531 . S
C974 H986 0.960 . S
C974 H987 0.962 . S
C974 H988 0.960 . S
C975 C972 1.511 . S
C975 H989 0.961 . S
C975 H990 0.961 . S
C975 H991 0.961 . S
C976 C977 1.370 . S
C976 C978 1.363 . S
C976 H992 0.931 . S
C977 C976 1.370 . S
C977 C981 1.408 . S
C978 C976 1.363 . S
C978 C979 1.370 . S
C978 C982 1.524 . S
C979 C971 1.503 . S
C979 C978 1.370 . S
C979 C980 1.403 . S
C980 C979 1.403 . S
C980 C981 1.404 . S
C980 C983 1.539 . S
C981 C977 1.408 . S
C981 C980 1.404 . S
C981 H993 0.930 . S
C982 C978 1.524 . S
C982 H994 0.956 . S
C982 H995 0.961 . S
C982 H996 0.961 . S
C983 C980 1.539 . S
C983 H997 0.958 . S
C983 H998 0.961 . S
C983 H999 0.960 . S
H984 C968 0.931 . S
H985 C973 0.929 . S
H986 C974 0.960 . S
H987 C974 0.962 . S
H988 C974 0.960 . S
H989 C975 0.961 . S
H990 C975 0.961 . S
H991 C975 0.961 . S
H992 C976 0.931 . S
H993 C981 0.930 . S
H994 C982 0.956 . S
H995 C982 0.961 . S
H996 C982 0.961 . S
H997 C983 0.958 . S
H998 C983 0.961 . S
H999 C983 0.960 . S
C1000 C1001 1.391 . S
C1000 C1002 1.394 . S
C1000 H1016 0.931 . S
C1001 C1000 1.391 . S
C1001 C1005 1.376 . S
C1002 C1000 1.394 . S
C1002 C1003 1.369 . S
C1002 C1006 1.531 . S
C1003 C1002 1.369 . S
C1003 C1004 1.410 . S
C1003 C1011 1.503 . S
C1004 C1003 1.410 . S
C1004 C1005 1.392 . S
C1004 C1007 1.511 . S
C1005 C1001 1.376 . S
C1005 C1004 1.392 . S
C1005 H1017 0.929 . S
C1006 C1002 1.531 . S
C1006 H1018 0.960 . S
C1006 H1019 0.962 . S
C1006 H1020 0.960 . S
C1007 C1004 1.511 . S
C1007 H1021 0.961 . S
C1007 H1022 0.961 . S
C1007 H1023 0.961 . S
C1008 C1009 1.370 . S
C1008 C1010 1.363 . S
C1008 H1024 0.931 . S
C1009 C1008 1.370 . S
C1009 C1013 1.408 . S
C1010 C1008 1.363 . S
C1010 C1011 1.370 . S
C1010 C1014 1.524 . S
C1011 C1003 1.503 . S
C1011 C1010 1.370 . S
C1011 C1012 1.403 . S
C1012 C1011 1.403 . S
C1012 C1013 1.404 . S
C1012 C1015 1.539 . S
C1013 C1009 1.408 . S
C1013 C1012 1.404 . S
C1013 H1025 0.930 . S
C1014 C1010 1.524 . S
C1014 H1026 0.956 . S
C1014 H1027 0.961 . S
C1014 H1028 0.961 . S
C1015 C1012 1.539 . S
C1015 H1029 0.958 . S
C1015 H1030 0.961 . S
C1015 H1031 0.960 . S
H1016 C1000 0.931 . S
H1017 C1005 0.929 . S
H1018 C1006 0.960 . S
H1019 C1006 0.962 . S
H1020 C1006 0.960 . S
H1021 C1007 0.961 . S
H1022 C1007 0.961 . S
H1023 C1007 0.961 . S
H1024 C1008 0.931 . S
H1025 C1013 0.930 . S
H1026 C1014 0.956 . S
H1027 C1014 0.961 . S
H1028 C1014 0.961 . S
H1029 C1015 0.958 . S
H1030 C1015 0.961 . S
H1031 C1015 0.960 . S
C1032 C1033 1.391 . S
C1032 C1034 1.394 . S
C1032 H1048 0.931 . S
C1033 C1032 1.391 . S
C1033 C1037 1.376 . S
C1034 C1032 1.394 . S
C1034 C1035 1.369 . S
C1034 C1038 1.531 . S
C1035 C1034 1.369 . S
C1035 C1036 1.410 . S
C1035 C1043 1.503 . S
C1036 C1035 1.410 . S
C1036 C1037 1.392 . S
C1036 C1039 1.511 . S
C1037 C1033 1.376 . S
C1037 C1036 1.392 . S
C1037 H1049 0.929 . S
C1038 C1034 1.531 . S
C1038 H1050 0.960 . S
C1038 H1051 0.962 . S
C1038 H1052 0.960 . S
C1039 C1036 1.511 . S
C1039 H1053 0.961 . S
C1039 H1054 0.961 . S
C1039 H1055 0.961 . S
C1040 C1041 1.370 . S
C1040 C1042 1.363 . S
C1040 H1056 0.931 . S
C1041 C1040 1.370 . S
C1041 C1045 1.408 . S
C1042 C1040 1.363 . S
C1042 C1043 1.370 . S
C1042 C1046 1.524 . S
C1043 C1035 1.503 . S
C1043 C1042 1.370 . S
C1043 C1044 1.403 . S
C1044 C1043 1.403 . S
C1044 C1045 1.404 . S
C1044 C1047 1.539 . S
C1045 C1041 1.408 . S
C1045 C1044 1.404 . S
C1045 H1057 0.930 . S
C1046 C1042 1.524 . S
C1046 H1058 0.956 . S
C1046 H1059 0.961 . S
C1046 H1060 0.961 . S
C1047 C1044 1.539 . S
C1047 H1061 0.958 . S
C1047 H1062 0.961 . S
C1047 H1063 0.960 . S
H1048 C1032 0.931 . S
H1049 C1037 0.929 . S
H1050 C1038 0.960 . S
H1051 C1038 0.962 . S
H1052 C1038 0.960 . S
H1053 C1039 0.961 . S
H1054 C1039 0.961 . S
H1055 C1039 0.961 . S
H1056 C1040 0.931 . S
H1057 C1045 0.930 . S
H1058 C1046 0.956 . S
H1059 C1046 0.961 . S
H1060 C1046 0.961 . S
H1061 C1047 0.958 . S
H1062 C1047 0.961 . S
H1063 C1047 0.960 . S
C1064 C1065 1.391 . S
C1064 C1066 1.394 . S
C1064 H1080 0.931 . S
C1065 C1064 1.391 . S
C1065 C1069 1.376 . S
C1066 C1064 1.394 . S
C1066 C1067 1.369 . S
C1066 C1070 1.531 . S
C1067 C1066 1.369 . S
C1067 C1068 1.410 . S
C1067 C1075 1.503 . S
C1068 C1067 1.410 . S
C1068 C1069 1.392 . S
C1068 C1071 1.511 . S
C1069 C1065 1.376 . S
C1069 C1068 1.392 . S
C1069 H1081 0.929 . S
C1070 C1066 1.531 . S
C1070 H1082 0.960 . S
C1070 H1083 0.962 . S
C1070 H1084 0.960 . S
C1071 C1068 1.511 . S
C1071 H1085 0.961 . S
C1071 H1086 0.961 . S
C1071 H1087 0.961 . S
C1072 C1073 1.370 . S
C1072 C1074 1.363 . S
C1072 H1088 0.931 . S
C1073 C1072 1.370 . S
C1073 C1077 1.408 . S
C1074 C1072 1.363 . S
C1074 C1075 1.370 . S
C1074 C1078 1.524 . S
C1075 C1067 1.503 . S
C1075 C1074 1.370 . S
C1075 C1076 1.403 . S
C1076 C1075 1.403 . S
C1076 C1077 1.404 . S
C1076 C1079 1.539 . S
C1077 C1073 1.408 . S
C1077 C1076 1.404 . S
C1077 H1089 0.930 . S
C1078 C1074 1.524 . S
C1078 H1090 0.956 . S
C1078 H1091 0.961 . S
C1078 H1092 0.961 . S
C1079 C1076 1.539 . S
C1079 H1093 0.958 . S
C1079 H1094 0.961 . S
C1079 H1095 0.960 . S
H1080 C1064 0.931 . S
H1081 C1069 0.929 . S
H1082 C1070 0.960 . S
H1083 C1070 0.962 . S
H1084 C1070 0.960 . S
H1085 C1071 0.961 . S
H1086 C1071 0.961 . S
H1087 C1071 0.961 . S
H1088 C1072 0.931 . S
H1089 C1077 0.930 . S
H1090 C1078 0.956 . S
H1091 C1078 0.961 . S
H1092 C1078 0.961 . S
H1093 C1079 0.958 . S
H1094 C1079 0.961 . S
H1095 C1079 0.960 . S
C1096 C1097 1.391 . S
C1096 C1098 1.394 . S
C1096 H1112 0.931 . S
C1097 C1096 1.391 . S
C1097 C1101 1.376 . S
C1098 C1096 1.394 . S
C1098 C1099 1.369 . S
C1098 C1102 1.531 . S
C1099 C1098 1.369 . S
C1099 C1100 1.410 . S
C1099 C1107 1.503 . S
C1100 C1099 1.410 . S
C1100 C1101 1.392 . S
C1100 C1103 1.511 . S
C1101 C1097 1.376 . S
C1101 C1100 1.392 . S
C1101 H1113 0.929 . S
C1102 C1098 1.531 . S
C1102 H1114 0.960 . S
C1102 H1115 0.962 . S
C1102 H1116 0.960 . S
C1103 C1100 1.511 . S
C1103 H1117 0.961 . S
C1103 H1118 0.961 . S
C1103 H1119 0.961 . S
C1104 C1105 1.370 . S
C1104 C1106 1.363 . S
C1104 H1120 0.931 . S
C1105 C1104 1.370 . S
C1105 C1109 1.408 . S
C1106 C1104 1.363 . S
C1106 C1107 1.370 . S
C1106 C1110 1.524 . S
C1107 C1099 1.503 . S
C1107 C1106 1.370 . S
C1107 C1108 1.403 . S
C1108 C1107 1.403 . S
C1108 C1109 1.404 . S
C1108 C1111 1.539 . S
C1109 C1105 1.408 . S
C1109 C1108 1.404 . S
C1109 H1121 0.930 . S
C1110 C1106 1.524 . S
C1110 H1122 0.956 . S
C1110 H1123 0.961 . S
C1110 H1124 0.961 . S
C1111 C1108 1.539 . S
C1111 H1125 0.958 . S
C1111 H1126 0.961 . S
C1111 H1127 0.960 . S
H1112 C1096 0.931 . S
H1113 C1101 0.929 . S
H1114 C1102 0.960 . S
H1115 C1102 0.962 . S
H1116 C1102 0.960 . S
H1117 C1103 0.961 . S
H1118 C1103 0.961 . S
H1119 C1103 0.961 . S
H1120 C1104 0.931 . S
H1121 C1109 0.930 . S
H1122 C1110 0.956 . S
H1123 C1110 0.961 . S
H1124 C1110 0.961 . S
H1125 C1111 0.958 . S
H1126 C1111 0.961 . S
H1127 C1111 0.960 . S
C1128 C1129 1.391 . S
C1128 C1130 1.394 . S
C1128 H1144 0.931 . S
C1129 C1128 1.391 . S
C1129 C1133 1.376 . S
C1130 C1128 1.394 . S
C1130 C1131 1.369 . S
C1130 C1134 1.531 . S
C1131 C1130 1.369 . S
C1131 C1132 1.410 . S
C1131 C1139 1.503 . S
C1132 C1131 1.410 . S
C1132 C1133 1.392 . S
C1132 C1135 1.511 . S
C1133 C1129 1.376 . S
C1133 C1132 1.392 . S
C1133 H1145 0.929 . S
C1134 C1130 1.531 . S
C1134 H1146 0.960 . S
C1134 H1147 0.962 . S
C1134 H1148 0.960 . S
C1135 C1132 1.511 . S
C1135 H1149 0.961 . S
C1135 H1150 0.961 . S
C1135 H1151 0.961 . S
C1136 C1137 1.370 . S
C1136 C1138 1.363 . S
C1136 H1152 0.931 . S
C1137 C1136 1.370 . S
C1137 C1141 1.408 . S
C1138 C1136 1.363 . S
C1138 C1139 1.370 . S
C1138 C1142 1.524 . S
C1139 C1131 1.503 . S
C1139 C1138 1.370 . S
C1139 C1140 1.403 . S
C1140 C1139 1.403 . S
C1140 C1141 1.404 . S
C1140 C1143 1.539 . S
C1141 C1137 1.408 . S
C1141 C1140 1.404 . S
C1141 H1153 0.930 . S
C1142 C1138 1.524 . S
C1142 H1154 0.956 . S
C1142 H1155 0.961 . S
C1142 H1156 0.961 . S
C1143 C1140 1.539 . S
C1143 H1157 0.958 . S
C1143 H1158 0.961 . S
C1143 H1159 0.960 . S
H1144 C1128 0.931 . S
H1145 C1133 0.929 . S
H1146 C1134 0.960 . S
H1147 C1134 0.962 . S
H1148 C1134 0.960 . S
H1149 C1135 0.961 . S
H1150 C1135 0.961 . S
H1151 C1135 0.961 . S
H1152 C1136 0.931 . S
H1153 C1141 0.930 . S
H1154 C1142 0.956 . S
H1155 C1142 0.961 . S
H1156 C1142 0.961 . S
H1157 C1143 0.958 . S
H1158 C1143 0.961 . S
H1159 C1143 0.960 . S
C393 C1 1.517 . S
C401 C331 1.503 . S
C425 C40 1.295 . S
C433 C334 1.241 . S
C465 C370 1.747 . S
C457 C99 1.765 . S
C489 C118 1.655 . S
C497 C390 1.647 . S
C529 C344 1.695 . S
C521 C16 1.742 . S
C561 C321 1.518 . S
C553 C60 1.530 . S
C593 C374 1.575 . S
C585 C79 1.671 . S
C625 C354 1.390 . S
C617 C138 1.434 . S
C649 C21 1.345 . S
C657 C384 1.326 . S
C689 C350 1.630 . S
C681 C94 1.643 . S
C713 C133 1.625 . S
C721 C316 1.583 . S
C745 C55 1.339 . S
C753 C364 1.301 . S
C785 C330 1.490 . S
C777 C157 1.548 . S
C809 C196 1.305 . S
C817 C336 1.254 . S
C841 C255 1.777 . S
C849 C371 1.759 . S
C873 C289 1.642 . S
C881 C391 1.634 . S
C905 C172 1.738 . S
C913 C341 1.691 . S
C945 C324 1.519 . S
C937 C216 1.529 . S
C977 C376 1.555 . S
C969 C235 1.676 . S
C1009 C356 1.354 . S
C1001 C294 1.460 . S
C1033 C177 1.361 . S
C1041 C381 1.332 . S
C1073 C351 1.617 . S
C1065 C250 1.637 . S
C1105 C314 1.584 . S
C1097 C274 1.629 . S
C1129 C211 1.331 . S
C1137 C361 1.305 . S
