# Generated by pormake.
# Topology dag, (6,3)-cn, num edge types: 1
# Building blocks:
#     Node 0, Type 0, BuildingBlock: OJICUG_clean_sbu_0, # of connection points: 6
#     Node 1, Type 0, BuildingBlock: OJICUG_clean_sbu_0, # of connection points: 6
#     Node 2, Type 0, BuildingBlock: OJICUG_clean_sbu_0, # of connection points: 6
#     Node 3, Type 0, BuildingBlock: OJICUG_clean_sbu_0, # of connection points: 6
#     Node 4, Type 1, BuildingBlock: MIDCAF_clean_linker_0, # of connection points: 3
#     Node 5, Type 1, BuildingBlock: MIDCAF_clean_linker_0, # of connection points: 3
#     Node 6, Type 1, BuildingBlock: MIDCAF_clean_linker_0, # of connection points: 3
#     Node 7, Type 1, BuildingBlock: MIDCAF_clean_linker_0, # of connection points: 3
#     Node 8, Type 1, BuildingBlock: MIDCAF_clean_linker_0, # of connection points: 3
#     Node 9, Type 1, BuildingBlock: MIDCAF_clean_linker_0, # of connection points: 3
#     Node 10, Type 1, BuildingBlock: MIDCAF_clean_linker_0, # of connection points: 3
#     Node 11, Type 1, BuildingBlock: MIDCAF_clean_linker_0, # of connection points: 3
#     Edge 12, Type (0, 1), BuildingBlock: CIFDUS_clean_linker_0, # of connection points: 2
#     Edge 13, Type (0, 1), BuildingBlock: CIFDUS_clean_linker_0, # of connection points: 2
#     Edge 14, Type (0, 1), BuildingBlock: CIFDUS_clean_linker_0, # of connection points: 2
#     Edge 15, Type (0, 1), BuildingBlock: CIFDUS_clean_linker_0, # of connection points: 2
#     Edge 16, Type (0, 1), BuildingBlock: CIFDUS_clean_linker_0, # of connection points: 2
#     Edge 17, Type (0, 1), BuildingBlock: CIFDUS_clean_linker_0, # of connection points: 2
#     Edge 18, Type (0, 1), BuildingBlock: CIFDUS_clean_linker_0, # of connection points: 2
#     Edge 19, Type (0, 1), BuildingBlock: CIFDUS_clean_linker_0, # of connection points: 2
#     Edge 20, Type (0, 1), BuildingBlock: CIFDUS_clean_linker_0, # of connection points: 2
#     Edge 21, Type (0, 1), BuildingBlock: CIFDUS_clean_linker_0, # of connection points: 2
#     Edge 22, Type (0, 1), BuildingBlock: CIFDUS_clean_linker_0, # of connection points: 2
#     Edge 23, Type (0, 1), BuildingBlock: CIFDUS_clean_linker_0, # of connection points: 2
#     Edge 24, Type (0, 1), BuildingBlock: CIFDUS_clean_linker_0, # of connection points: 2
#     Edge 25, Type (0, 1), BuildingBlock: CIFDUS_clean_linker_0, # of connection points: 2
#     Edge 26, Type (0, 1), BuildingBlock: CIFDUS_clean_linker_0, # of connection points: 2
#     Edge 27, Type (0, 1), BuildingBlock: CIFDUS_clean_linker_0, # of connection points: 2
#     Edge 28, Type (0, 1), BuildingBlock: CIFDUS_clean_linker_0, # of connection points: 2
#     Edge 29, Type (0, 1), BuildingBlock: CIFDUS_clean_linker_0, # of connection points: 2
#     Edge 30, Type (0, 1), BuildingBlock: CIFDUS_clean_linker_0, # of connection points: 2
#     Edge 31, Type (0, 1), BuildingBlock: CIFDUS_clean_linker_0, # of connection points: 2
#     Edge 32, Type (0, 1), BuildingBlock: CIFDUS_clean_linker_0, # of connection points: 2
#     Edge 33, Type (0, 1), BuildingBlock: CIFDUS_clean_linker_0, # of connection points: 2
#     Edge 34, Type (0, 1), BuildingBlock: CIFDUS_clean_linker_0, # of connection points: 2
#     Edge 35, Type (0, 1), BuildingBlock: CIFDUS_clean_linker_0, # of connection points: 2
# Relax obj value: 0.257
# Max RMSD: 0.201
# Mean RMSD: 0.166
data_MOF--net-dag--node1-OJICUG_clean_sbu_0--node2-MIDCAF_clean_linker_0--edge1-CIFDUS_clean_linker_0
_symmetry_space_group_name_H-M    P1
_symmetry_Int_Tables_number       1
_symmetry_cell_setting            triclinic
loop_
_symmetry_equiv_pos_as_xyz
'x, y, z'
_cell_length_a     41.111539
_cell_length_b     39.275096
_cell_length_c     40.29543
_cell_angle_alpha  89.820323
_cell_angle_beta   95.161092
_cell_angle_gamma 89.836424
loop_
_atom_site_label
_atom_site_type_symbol
_atom_site_fract_x
_atom_site_fract_y
_atom_site_fract_z
_atom_type_partial_charge
Sc0 Sc 0.16515 0.88949 0.04254 0.0
Sc1 Sc 0.18293 0.81546 0.99931 0.0
Sc2 Sc 0.24685 0.8687 0.03381 0.0
O3 O 0.19838 0.85779 0.0251 0.0
C4 C 0.21846 0.94243 0.02038 0.0
C5 C 0.13352 0.87354 0.96954 0.0
C6 C 0.24291 0.83904 0.9597 0.0
C7 C 0.13114 0.81744 0.05293 0.0
C8 C 0.21865 0.88671 0.10332 0.0
C9 C 0.24455 0.78847 0.04668 0.0
O10 O 0.19147 0.93489 0.03156 0.0
O11 O 0.14612 0.84388 0.96854 0.0
O12 O 0.25768 0.85505 0.98395 0.0
O13 O 0.13414 0.84928 0.05721 0.0
O14 O 0.24249 0.88377 0.08536 0.0
O15 O 0.21834 0.78348 0.0279 0.0
O16 O 0.189 0.8869 0.09156 0.0
O17 O 0.14788 0.80087 0.03346 0.0
O18 O 0.2572 0.8178 0.05147 0.0
O19 O 0.13904 0.89357 0.99416 0.0
O20 O 0.24064 0.9206 0.01647 0.0
O21 O 0.21562 0.82444 0.96162 0.0
Sc22 Sc 0.73784 0.64218 0.51958 0.0
Sc23 Sc 0.67641 0.694 0.47688 0.0
Sc24 Sc 0.65477 0.62303 0.52294 0.0
O25 O 0.68976 0.6531 0.50638 0.0
C26 C 0.70919 0.56781 0.5077 0.0
C27 C 0.73894 0.66591 0.44379 0.0
C28 C 0.62783 0.63595 0.44743 0.0
C29 C 0.73496 0.72326 0.52636 0.0
C30 C 0.70471 0.62834 0.58734 0.0
C31 C 0.62162 0.69655 0.52755 0.0
O32 O 0.73266 0.58877 0.50706 0.0
O33 O 0.71195 0.68181 0.44294 0.0
O34 O 0.6308 0.61788 0.47375 0.0
O35 O 0.74755 0.6942 0.53347 0.0
O36 O 0.67603 0.62575 0.57306 0.0
O37 O 0.63889 0.71103 0.50711 0.0
O38 O 0.72985 0.63223 0.57142 0.0
O39 O 0.70976 0.72728 0.50589 0.0
O40 O 0.62432 0.66513 0.53479 0.0
O41 O 0.75199 0.65105 0.46978 0.0
O42 O 0.68073 0.57682 0.51413 0.0
O43 O 0.64156 0.66477 0.44503 0.0
Sc44 Sc 0.8133 0.21098 0.0788 0.0
Sc45 Sc 0.75697 0.14729 0.04954 0.0
Sc46 Sc 0.83901 0.14406 0.03091 0.0
O47 O 0.80293 0.16737 0.05314 0.0
C48 C 0.8601 0.22008 0.02024 0.0
C49 C 0.74677 0.2275 0.03521 0.0
C50 C 0.77928 0.13284 0.97666 0.0
C51 C 0.75932 0.17938 0.12198 0.0
C52 C 0.87332 0.16389 0.10292 0.0
C53 C 0.80116 0.08123 0.06113 0.0
O54 O 0.84724 0.23044 0.0458 0.0
O55 O 0.73686 0.19665 0.03425 0.0
O56 O 0.80942 0.1374 0.98499 0.0
O57 O 0.78142 0.20032 0.1162 0.0
O58 O 0.87235 0.14859 0.07503 0.0
O59 O 0.77428 0.09672 0.06403 0.0
O60 O 0.85245 0.18639 0.10956 0.0
O61 O 0.74888 0.15673 0.10129 0.0
O62 O 0.82535 0.09525 0.04907 0.0
O63 O 0.7743 0.23666 0.04952 0.0
O64 O 0.85702 0.18974 0.00988 0.0
O65 O 0.75762 0.13407 0.99728 0.0
Sc66 Sc 0.35618 0.35823 0.54462 0.0
Sc67 Sc 0.27502 0.33913 0.55779 0.0
Sc68 Sc 0.33929 0.28277 0.58646 0.0
O69 O 0.32342 0.3266 0.56295 0.0
C70 C 0.38899 0.2865 0.5306 0.0
C71 C 0.29886 0.3601 0.48685 0.0
C72 C 0.2756 0.25914 0.54167 0.0
C73 C 0.30587 0.41171 0.57218 0.0
C74 C 0.38979 0.33864 0.61662 0.0
C75 C 0.28176 0.3052 0.63006 0.0
O76 O 0.38494 0.31818 0.52567 0.0
O77 O 0.27644 0.35518 0.5062 0.0
O78 O 0.30345 0.25295 0.55705 0.0
O79 O 0.33239 0.40329 0.56048 0.0
O80 O 0.37605 0.30968 0.61805 0.0
O81 O 0.26754 0.32529 0.60858 0.0
O82 O 0.38505 0.35877 0.59182 0.0
O83 O 0.28275 0.39076 0.57483 0.0
O84 O 0.3072 0.28844 0.62491 0.0
O85 O 0.32911 0.35996 0.49668 0.0
O86 O 0.37404 0.27005 0.55163 0.0
O87 O 0.26254 0.28864 0.54029 0.0
C88 C 0.99834 0.06192 0.25347 0.0
C89 C 0.98625 0.0945 0.26 0.0
C90 C 0.99867 0.11153 0.28898 0.0
C91 C 0.02414 0.09717 0.30988 0.0
H92 H 0.08429 0.10885 0.3998 0.0
H93 H 0.11194 0.1493 0.43819 0.0
H94 H 0.20508 0.10531 0.41971 0.0
H95 H 0.17736 0.06409 0.38222 0.0
H96 H 0.17941 0.00272 0.33071 0.0
H97 H 0.20887 0.96136 0.29926 0.0
H98 H 0.11697 0.9239 0.25323 0.0
H99 H 0.08774 0.96461 0.28458 0.0
H100 H 0.03311 0.02293 0.26776 0.0
H101 H 0.98873 0.04788 0.23167 0.0
H102 H 0.98983 0.13667 0.29464 0.0
H103 H 0.03411 0.11165 0.33123 0.0
N104 N 0.08241 0.07084 0.34683 0.0
N105 N 0.12775 0.03413 0.34999 0.0
N106 N 0.08362 0.02503 0.31001 0.0
C107 C 0.11216 0.06161 0.3616 0.0
C108 C 0.1134 0.01546 0.32443 0.0
C109 C 0.06794 0.05271 0.321 0.0
C110 C 0.12865 0.08347 0.38771 0.0
C111 C 0.11065 0.10755 0.40423 0.0
C112 C 0.12651 0.13086 0.4261 0.0
C113 C 0.16076 0.13088 0.43167 0.0
C114 C 0.17866 0.10583 0.41624 0.0
C115 C 0.16275 0.08225 0.39462 0.0
C116 C 0.13122 0.98722 0.30982 0.0
C117 C 0.16552 0.98509 0.31443 0.0
C118 C 0.18242 0.96153 0.29635 0.0
C119 C 0.1653 0.9394 0.27372 0.0
C120 C 0.13096 0.94022 0.27077 0.0
C121 C 0.11415 0.96387 0.28852 0.0
C122 C 0.03764 0.06547 0.30218 0.0
C123 C 0.0237 0.04756 0.2743 0.0
C124 C 0.32776 0.63584 0.59301 0.0
C125 C 0.31605 0.61059 0.61362 0.0
C126 C 0.30625 0.61998 0.64486 0.0
C127 C 0.31084 0.65338 0.6564 0.0
H128 H 0.28775 0.72656 0.72506 0.0
H129 H 0.26437 0.7486 0.77363 0.0
H130 H 0.33578 0.8293 0.78124 0.0
H131 H 0.35996 0.80674 0.73251 0.0
H132 H 0.43427 0.77044 0.69422 0.0
H133 H 0.48974 0.77081 0.67646 0.0
H134 H 0.45031 0.75689 0.5744 0.0
H135 H 0.39534 0.75655 0.59211 0.0
H136 H 0.34334 0.68736 0.58874 0.0
H137 H 0.33474 0.62954 0.56847 0.0
H138 H 0.29715 0.60106 0.66129 0.0
H139 H 0.30509 0.65937 0.68144 0.0
N140 N 0.32565 0.72332 0.67906 0.0
N141 N 0.36701 0.7648 0.68327 0.0
N142 N 0.3643 0.72479 0.64002 0.0
C143 C 0.33974 0.75096 0.69475 0.0
C144 C 0.37912 0.75189 0.65557 0.0
C145 C 0.33774 0.71023 0.6516 0.0
C146 C 0.32579 0.76487 0.72465 0.0
C147 C 0.29862 0.74904 0.73688 0.0
C148 C 0.28498 0.76185 0.76472 0.0
C149 C 0.29796 0.79095 0.78113 0.0
C150 C 0.32531 0.80674 0.76921 0.0
C151 C 0.33907 0.79386 0.74121 0.0
C152 C 0.41063 0.76313 0.64455 0.0
C153 C 0.43749 0.76891 0.66788 0.0
C154 C 0.46922 0.7688 0.65774 0.0
C155 C 0.47442 0.76339 0.62409 0.0
C156 C 0.44722 0.7613 0.60045 0.0
C157 C 0.41568 0.76097 0.61061 0.0
C158 C 0.32547 0.67776 0.63692 0.0
C159 C 0.33256 0.669 0.60458 0.0
C160 C 0.77869 0.72272 0.24399 0.0
C161 C 0.79558 0.69742 0.26336 0.0
C162 C 0.82595 0.68603 0.25415 0.0
C163 C 0.83903 0.69968 0.22602 0.0
H164 H 0.93105 0.72385 0.17755 0.0
H165 H 0.98644 0.72072 0.15956 0.0
H166 H 0.94771 0.7396 0.05801 0.0
H167 H 0.89276 0.74332 0.07596 0.0
H168 H 0.84879 0.81925 0.08153 0.0
H169 H 0.83155 0.87646 0.06465 0.0
H170 H 0.76604 0.87907 0.14253 0.0
H171 H 0.78295 0.82147 0.15944 0.0
H172 H 0.7778 0.75591 0.20211 0.0
H173 H 0.75557 0.73261 0.25074 0.0
H174 H 0.83949 0.66648 0.26855 0.0
H175 H 0.86251 0.6905 0.21959 0.0
N176 N 0.864 0.72924 0.16631 0.0
N177 N 0.86008 0.77135 0.1246 0.0
N178 N 0.82037 0.76826 0.16242 0.0
C179 C 0.87598 0.74423 0.13946 0.0
C180 C 0.83235 0.78367 0.13599 0.0
C181 C 0.83574 0.74089 0.17756 0.0
C182 C 0.90775 0.73409 0.12815 0.0
C183 C 0.93435 0.72623 0.15128 0.0
C184 C 0.96599 0.7246 0.14103 0.0
C185 C 0.97132 0.73005 0.10743 0.0
C186 C 0.94432 0.73501 0.08399 0.0
C187 C 0.91289 0.73733 0.0943 0.0
C188 C 0.81775 0.81591 0.12228 0.0
C189 C 0.83035 0.83168 0.09483 0.0
C190 C 0.82054 0.86454 0.08517 0.0
C191 C 0.79792 0.88242 0.10269 0.0
C192 C 0.78353 0.86587 0.12859 0.0
C193 C 0.79335 0.83289 0.13832 0.0
C194 C 0.82206 0.72516 0.2068 0.0
C195 C 0.79168 0.73633 0.21614 0.0
C196 C 0.68476 0.41575 0.92812 0.0
C197 C 0.66596 0.38981 0.94098 0.0
C198 C 0.63251 0.38797 0.93033 0.0
C199 C 0.61842 0.41083 0.90657 0.0
H200 H 0.54134 0.41574 0.83329 0.0
H201 H 0.49594 0.39528 0.79546 0.0
H202 H 0.50716 0.48171 0.73086 0.0
H203 H 0.55134 0.50268 0.76886 0.0
H204 H 0.61645 0.57355 0.82834 0.0
H205 H 0.63912 0.61432 0.79087 0.0
H206 H 0.70217 0.53522 0.7578 0.0
H207 H 0.68122 0.49583 0.79731 0.0
H208 H 0.68608 0.45787 0.89462 0.0
H209 H 0.71069 0.41763 0.93542 0.0
H210 H 0.61722 0.36866 0.94017 0.0
H211 H 0.59267 0.40833 0.89858 0.0
N212 N 0.59327 0.45162 0.85021 0.0
N213 N 0.59791 0.49809 0.81451 0.0
N214 N 0.64049 0.48549 0.85539 0.0
C215 C 0.58055 0.47112 0.8243 0.0
C216 C 0.62763 0.50551 0.83001 0.0
C217 C 0.62307 0.45883 0.8661 0.0
C218 C 0.55028 0.46075 0.80406 0.0
C219 C 0.53373 0.43068 0.8113 0.0
C220 C 0.50786 0.41878 0.78947 0.0
C221 C 0.49802 0.43665 0.75993 0.0
C222 C 0.5137 0.46743 0.75352 0.0
C223 C 0.53933 0.47939 0.77534 0.0
C224 C 0.64721 0.53182 0.81548 0.0
C225 C 0.63622 0.56559 0.81405 0.0
C226 C 0.64896 0.5887 0.79224 0.0
C227 C 0.67182 0.57794 0.77036 0.0
C228 C 0.68482 0.54477 0.7742 0.0
C229 C 0.67276 0.522 0.79679 0.0
C230 C 0.63743 0.43619 0.89304 0.0
C231 C 0.67064 0.43874 0.90452 0.0
C232 C 0.5779 0.21027 0.50172 0.0
C233 C 0.55116 0.20239 0.47891 0.0
C234 C 0.55654 0.19528 0.4457 0.0
C235 C 0.58782 0.19839 0.43497 0.0
H236 H 0.65588 0.16801 0.36595 0.0
H237 H 0.66975 0.14941 0.31119 0.0
H238 H 0.74206 0.22888 0.31109 0.0
H239 H 0.72817 0.24782 0.36541 0.0
H240 H 0.71281 0.31614 0.41078 0.0
H241 H 0.72034 0.37512 0.42909 0.0
H242 H 0.69023 0.34777 0.52557 0.0
H243 H 0.68202 0.28925 0.50716 0.0
H244 H 0.62876 0.22246 0.50852 0.0
H245 H 0.57435 0.21615 0.52741 0.0
H246 H 0.53625 0.18914 0.4277 0.0
H247 H 0.59092 0.19481 0.4088 0.0
N248 N 0.65482 0.20868 0.41595 0.0
N249 N 0.6945 0.25164 0.41584 0.0
N250 N 0.65922 0.24957 0.4583 0.0
C251 C 0.68029 0.22317 0.40185 0.0
C252 C 0.68419 0.26483 0.44425 0.0
C253 C 0.64439 0.22162 0.44436 0.0
C254 C 0.69059 0.20978 0.37001 0.0
C255 C 0.67492 0.18141 0.35441 0.0
C256 C 0.68294 0.17057 0.32309 0.0
C257 C 0.70666 0.18796 0.30671 0.0
C258 C 0.72322 0.21537 0.32288 0.0
C259 C 0.71531 0.22615 0.35412 0.0
C260 C 0.6962 0.29816 0.45731 0.0
C261 C 0.70862 0.32255 0.43617 0.0
C262 C 0.71298 0.35636 0.44667 0.0
C263 C 0.70518 0.36625 0.47854 0.0
C264 C 0.69564 0.34113 0.50058 0.0
C265 C 0.69106 0.30754 0.49005 0.0
C266 C 0.61397 0.20943 0.45716 0.0
C267 C 0.60899 0.21406 0.49088 0.0
C268 C 0.2215 0.28668 0.82902 0.0
C269 C 0.20179 0.30323 0.8035 0.0
C270 C 0.16943 0.31151 0.80892 0.0
C271 C 0.15668 0.30214 0.83859 0.0
H272 H 0.06818 0.2901 0.88064 0.0
H273 H 0.00987 0.29317 0.88854 0.0
H274 H 0.03167 0.27068 0.99316 0.0
H275 H 0.08957 0.26729 0.9853 0.0
H276 H 0.1381 0.19837 0.98979 0.0
H277 H 0.15677 0.14513 0.01474 0.0
H278 H 0.23956 0.14546 0.95575 0.0
H279 H 0.21994 0.1987 0.92943 0.0
H280 H 0.22435 0.26361 0.87732 0.0
H281 H 0.24678 0.28063 0.82596 0.0
H282 H 0.1535 0.32397 0.7897 0.0
H283 H 0.13133 0.308 0.84147 0.0
N284 N 0.13139 0.28198 0.90021 0.0
N285 N 0.13292 0.2444 0.94553 0.0
N286 N 0.17686 0.24624 0.91246 0.0
C287 C 0.11719 0.269 0.92657 0.0
C288 C 0.16268 0.23273 0.93869 0.0
C289 C 0.16146 0.27111 0.89329 0.0
C290 C 0.08331 0.27804 0.93232 0.0
C291 C 0.06054 0.28679 0.90548 0.0
C292 C 0.02722 0.28843 0.90993 0.0
C293 C 0.0163 0.28206 0.9414 0.0
C294 C 0.03938 0.27606 0.96868 0.0
C295 C 0.07253 0.27384 0.96414 0.0
C296 C 0.17726 0.20282 0.95723 0.0
C297 C 0.16052 0.18749 0.98225 0.0
C298 C 0.17146 0.15687 0.99689 0.0
C299 C 0.19973 0.14076 0.98731 0.0
C300 C 0.21741 0.15685 0.96339 0.0
C301 C 0.20628 0.18754 0.94848 0.0
C302 C 0.17594 0.28407 0.8634 0.0
C303 C 0.20869 0.27704 0.85855 0.0
C304 C 0.34316 0.61486 0.1427 0.0
C305 C 0.30895 0.61776 0.13983 0.0
C306 C 0.29083 0.59577 0.15871 0.0
C307 C 0.30678 0.57276 0.18138 0.0
H308 H 0.29573 0.49249 0.25781 0.0
H309 H 0.27419 0.44854 0.29334 0.0
H310 H 0.37204 0.40921 0.31598 0.0
H311 H 0.39298 0.45202 0.28049 0.0
H312 H 0.438 0.51988 0.30813 0.0
H313 H 0.4853 0.54404 0.33903 0.0
H314 H 0.49053 0.62169 0.26343 0.0
H315 H 0.4418 0.59807 0.23276 0.0
H316 H 0.38547 0.59152 0.16778 0.0
H317 H 0.35782 0.63073 0.12788 0.0
H318 H 0.26444 0.59745 0.15716 0.0
H319 H 0.2923 0.55714 0.19662 0.0
N320 N 0.34422 0.52351 0.22583 0.0
N321 N 0.39058 0.51622 0.26362 0.0
N322 N 0.38852 0.56139 0.22574 0.0
C323 C 0.36063 0.50559 0.25106 0.0
C324 C 0.40466 0.54414 0.25137 0.0
C325 C 0.35844 0.5512 0.2127 0.0
C326 C 0.34607 0.4759 0.26673 0.0
C327 C 0.31233 0.47375 0.2697 0.0
C328 C 0.30007 0.44877 0.29022 0.0
C329 C 0.32135 0.42537 0.30769 0.0
C330 C 0.35474 0.42634 0.30267 0.0
C331 C 0.36688 0.45123 0.28252 0.0
C332 C 0.43585 0.55708 0.26795 0.0
C333 C 0.44928 0.54189 0.29773 0.0
C334 C 0.47675 0.55568 0.31544 0.0
C335 C 0.49197 0.58481 0.30373 0.0
C336 C 0.47921 0.59947 0.27338 0.0
C337 C 0.45139 0.58579 0.2557 0.0
C338 C 0.34107 0.57161 0.18572 0.0
C339 C 0.35902 0.59226 0.16551 0.0
C340 C 0.84451 0.06051 0.80167 0.0
C341 C 0.81071 0.05919 0.80457 0.0
C342 C 0.79241 0.03296 0.78814 0.0
C343 C 0.80797 0.00767 0.77068 0.0
H344 H 0.80046 0.92444 0.69639 0.0
H345 H 0.77869 0.88203 0.65595 0.0
H346 H 0.87668 0.84658 0.64494 0.0
H347 H 0.89826 0.88808 0.68553 0.0
H348 H 0.95029 0.89328 0.74982 0.0
H349 H 0.99894 0.87455 0.78432 0.0
H350 H 0.98023 0.95043 0.85778 0.0
H351 H 0.93269 0.96984 0.82308 0.0
H352 H 0.88625 0.03634 0.78428 0.0
H353 H 0.85957 0.0799 0.81435 0.0
H354 H 0.76631 0.03134 0.78978 0.0
H355 H 0.79363 0.98687 0.75955 0.0
N356 N 0.84712 0.95879 0.73215 0.0
N357 N 0.89399 0.924 0.73824 0.0
N358 N 0.88955 0.97047 0.77349 0.0
C359 C 0.86441 0.93164 0.722 0.0
C360 C 0.90664 0.94316 0.76413 0.0
C361 C 0.85999 0.9786 0.75769 0.0
C362 C 0.85103 0.90925 0.69462 0.0
C363 C 0.81733 0.90786 0.68499 0.0
C364 C 0.80487 0.88365 0.66175 0.0
C365 C 0.82594 0.86058 0.64767 0.0
C366 C 0.85974 0.8634 0.65595 0.0
C367 C 0.8721 0.88731 0.6792 0.0
C368 C 0.93749 0.93307 0.78363 0.0
C369 C 0.9568 0.9062 0.77318 0.0
C370 C 0.98459 0.89531 0.79305 0.0
C371 C 0.99358 0.91095 0.82386 0.0
C372 C 0.97452 0.93818 0.83393 0.0
C373 C 0.947 0.94921 0.81403 0.0
C374 C 0.84208 0.00801 0.76991 0.0
C375 C 0.85995 0.03525 0.78467 0.0
H376 H 0.19291 0.85165 0.15156 0.0
H377 H 0.25572 0.93634 0.13478 0.0
H378 H 0.24937 0.95765 0.19099 0.0
H379 H 0.21621 0.95828 0.23901 0.0
H380 H 0.15246 0.87374 0.25473 0.0
H381 H 0.16925 0.84589 0.20498 0.0
C382 C 0.20618 0.87405 0.16081 0.0
C383 C 0.22453 0.89264 0.13932 0.0
C384 C 0.20167 0.88647 0.19262 0.0
C385 C 0.24166 0.9216 0.15117 0.0
C386 C 0.23766 0.93397 0.18311 0.0
C387 C 0.20692 0.93319 0.23229 0.0
C388 C 0.18248 0.91849 0.25005 0.0
C389 C 0.2163 0.91756 0.2033 0.0
C390 C 0.17068 0.88595 0.24097 0.0
C391 C 0.18026 0.87001 0.21253 0.0
H392 H 0.60083 0.68686 0.58868 0.0
H393 H 0.58711 0.75167 0.50193 0.0
H394 H 0.54224 0.78117 0.52593 0.0
H395 H 0.50368 0.7847 0.56938 0.0
H396 H 0.51821 0.71977 0.65608 0.0
H397 H 0.56651 0.69489 0.63475 0.0
C398 C 0.58813 0.70761 0.57514 0.0
C399 C 0.59684 0.71671 0.54336 0.0
C400 C 0.56263 0.72457 0.58918 0.0
C401 C 0.58071 0.7441 0.52637 0.0
C402 C 0.55502 0.76091 0.54005 0.0
C403 C 0.51776 0.76549 0.5838 0.0
C404 C 0.50723 0.75403 0.61419 0.0
C405 C 0.54531 0.75084 0.57113 0.0
C406 C 0.52591 0.72937 0.63281 0.0
C407 C 0.55335 0.71479 0.62044 0.0
H408 H 0.75348 0.03496 0.07295 0.0
H409 H 0.85803 0.04617 0.07265 0.0
H410 H 0.86576 0.98617 0.08555 0.0
H411 H 0.84341 0.93026 0.09546 0.0
H412 H 0.73942 0.91708 0.09598 0.0
H413 H 0.73092 0.9781 0.08479 0.0
C414 C 0.77793 0.02429 0.07599 0.0
C415 C 0.80506 0.04511 0.07151 0.0
C416 C 0.78235 0.98939 0.08327 0.0
C417 C 0.83661 0.03081 0.07554 0.0
C418 C 0.84114 0.99643 0.08296 0.0
C419 C 0.81883 0.94065 0.09277 0.0
C420 C 0.79206 0.91917 0.09597 0.0
C421 C 0.81423 0.97545 0.08643 0.0
C422 C 0.76042 0.93316 0.09346 0.0
C423 C 0.75558 0.96799 0.08703 0.0
H424 H 0.39512 0.40302 0.63906 0.0
H425 H 0.43057 0.30109 0.66009 0.0
H426 H 0.46622 0.32219 0.70765 0.0
H427 H 0.48917 0.37026 0.74115 0.0
H428 H 0.45048 0.47147 0.72177 0.0
H429 H 0.41421 0.44992 0.6755 0.0
C430 C 0.41075 0.38544 0.65402 0.0
C431 C 0.41075 0.35069 0.64584 0.0
C432 C 0.43054 0.39761 0.68153 0.0
C433 C 0.4304 0.32801 0.66586 0.0
C434 C 0.45073 0.34007 0.69299 0.0
C435 C 0.47235 0.38753 0.7273 0.0
C436 C 0.47299 0.42258 0.73472 0.0
C437 C 0.45119 0.37489 0.70088 0.0
C438 C 0.45113 0.44454 0.71618 0.0
C439 C 0.43026 0.43223 0.68977 0.0
H440 H 0.66978 0.51521 0.52037 0.0
H441 H 0.76112 0.53786 0.48012 0.0
H442 H 0.76854 0.47736 0.46796 0.0
H443 H 0.74817 0.41787 0.4679 0.0
H444 H 0.65658 0.39706 0.50855 0.0
H445 H 0.65042 0.45695 0.52162 0.0
C446 C 0.69136 0.50708 0.50888 0.0
C447 C 0.71473 0.53118 0.50097 0.0
C448 C 0.69551 0.47245 0.50215 0.0
C449 C 0.7427 0.5199 0.48648 0.0
C450 C 0.74693 0.4853 0.47947 0.0
C451 C 0.72693 0.42652 0.47964 0.0
C452 C 0.70305 0.40286 0.4875 0.0
C453 C 0.72337 0.46132 0.48704 0.0
C454 C 0.67569 0.41448 0.50284 0.0
C455 C 0.67197 0.44883 0.51009 0.0
H456 H 0.88256 0.21352 0.95911 0.0
H457 H 0.88967 0.27737 0.04648 0.0
H458 H 0.93639 0.30671 0.02662 0.0
H459 H 0.98056 0.30743 0.9893 0.0
H460 H 0.97407 0.24268 0.90274 0.0
H461 H 0.92145 0.22115 0.91696 0.0
C462 C 0.89393 0.2343 0.97349 0.0
C463 C 0.88311 0.24268 0.00458 0.0
C464 C 0.92107 0.25081 0.96216 0.0
C465 C 0.89767 0.27015 0.02259 0.0
C466 C 0.92454 0.28686 0.01135 0.0
C467 C 0.96717 0.2892 0.97319 0.0
C468 C 0.98128 0.27632 0.94531 0.0
C469 C 0.93728 0.27638 0.98192 0.0
C470 C 0.96363 0.25306 0.9243 0.0
C471 C 0.9337 0.24046 0.93261 0.0
H472 H 0.32137 0.33155 0.43269 0.0
H473 H 0.25767 0.41051 0.46322 0.0
H474 H 0.25454 0.4356 0.40723 0.0
H475 H 0.2782 0.44035 0.35334 0.0
H476 H 0.34013 0.35967 0.32229 0.0
H477 H 0.33525 0.32961 0.3746 0.0
C478 C 0.30605 0.35367 0.42667 0.0
C479 C 0.29002 0.36946 0.45182 0.0
C480 C 0.30444 0.36785 0.39457 0.0
C481 C 0.27009 0.39795 0.44402 0.0
C482 C 0.26855 0.41242 0.41214 0.0
C483 C 0.28967 0.41561 0.35741 0.0
C484 C 0.31036 0.40285 0.33429 0.0
C485 C 0.28675 0.39837 0.38764 0.0
C486 C 0.32491 0.37064 0.3401 0.0
C487 C 0.32213 0.35338 0.37001 0.0
H488 H 0.09783 0.83522 0.92311 0.0
H489 H 0.11902 0.93913 0.95211 0.0
H490 H 0.07981 0.95976 0.90762 0.0
H491 H 0.03759 0.94849 0.86254 0.0
H492 H 0.013 0.84476 0.83583 0.0
H493 H 0.05611 0.82399 0.87658 0.0
C494 C 0.09406 0.86237 0.91947 0.0
C495 C 0.11115 0.88556 0.94108 0.0
C496 C 0.07094 0.87414 0.89417 0.0
C497 C 0.10591 0.92068 0.9361 0.0
C498 C 0.08355 0.93255 0.9106 0.0
C499 C 0.04149 0.92131 0.8657 0.0
C500 C 0.0218 0.89829 0.84629 0.0
C501 C 0.06554 0.90951 0.88989 0.0
C502 C 0.02791 0.86315 0.85015 0.0
C503 C 0.05238 0.8512 0.87371 0.0
H504 H 0.79827 0.16097 0.92049 0.0
H505 H 0.74181 0.0786 0.9563 0.0
H506 H 0.74148 0.05018 0.90224 0.0
H507 H 0.76701 0.04387 0.84951 0.0
H508 H 0.82243 0.12724 0.81347 0.0
H509 H 0.81293 0.16048 0.86269 0.0
C510 C 0.78498 0.13735 0.91598 0.0
C511 C 0.77041 0.12161 0.94221 0.0
C512 C 0.78519 0.12112 0.88504 0.0
C513 C 0.75309 0.09116 0.9363 0.0
C514 C 0.7532 0.07477 0.90552 0.0
C515 C 0.77596 0.06977 0.85173 0.0
C516 C 0.79629 0.08262 0.8283 0.0
C517 C 0.77055 0.08875 0.88028 0.0
C518 C 0.80755 0.11634 0.83164 0.0
C519 C 0.80214 0.13539 0.85979 0.0
H520 H 0.42544 0.23157 0.55187 0.0
H521 H 0.4092 0.30246 0.46997 0.0
H522 H 0.45558 0.27848 0.44409 0.0
H523 H 0.50443 0.24236 0.44821 0.0
H524 H 0.52389 0.17519 0.53246 0.0
H525 H 0.47236 0.19233 0.55387 0.0
C526 C 0.43169 0.24129 0.52804 0.0
C527 C 0.41406 0.26884 0.51291 0.0
C528 C 0.45908 0.22816 0.51388 0.0
C529 C 0.4226 0.28144 0.48221 0.0
C530 C 0.4491 0.26775 0.46742 0.0
C531 C 0.49689 0.2308 0.47076 0.0
C532 C 0.51766 0.20742 0.48868 0.0
C533 C 0.46804 0.2418 0.4835 0.0
C534 C 0.50812 0.19317 0.51828 0.0
C535 C 0.4788 0.20309 0.53055 0.0
H536 H 0.20764 0.99732 0.05747 0.0
H537 H 0.24013 0.96743 0.96311 0.0
H538 H 0.24003 0.02723 0.94514 0.0
H539 H 0.22458 0.08697 0.95439 0.0
H540 H 0.19566 0.11666 0.05066 0.0
H541 H 0.20057 0.05788 0.06981 0.0
C542 C 0.21515 0.00406 0.03316 0.0
C543 C 0.2235 0.97827 0.01142 0.0
C544 C 0.21534 0.03831 0.02328 0.0
C545 C 0.23363 0.98705 0.98018 0.0
C546 C 0.23339 0.02116 0.9699 0.0
C547 C 0.22018 0.08086 0.97985 0.0
C548 C 0.2089 0.10627 0.0007 0.0
C549 C 0.22349 0.04693 0.99097 0.0
C550 C 0.20332 0.09757 0.03363 0.0
C551 C 0.20628 0.06394 0.04472 0.0
H552 H 0.58942 0.67097 0.40012 0.0
H553 H 0.62119 0.56973 0.42998 0.0
H554 H 0.58494 0.54533 0.38512 0.0
H555 H 0.54151 0.55228 0.34037 0.0
H556 H 0.50507 0.65281 0.31376 0.0
H557 H 0.54656 0.67796 0.35339 0.0
C558 C 0.5886 0.64362 0.39647 0.0
C559 C 0.6077 0.62215 0.41843 0.0
C560 C 0.56693 0.62963 0.37115 0.0
C561 C 0.60638 0.58674 0.41361 0.0
C562 C 0.58574 0.57277 0.38793 0.0
C563 C 0.54248 0.57971 0.34326 0.0
C564 C 0.51982 0.60049 0.32436 0.0
C565 C 0.56538 0.5939 0.36708 0.0
C566 C 0.52226 0.63608 0.32776 0.0
C567 C 0.54579 0.65052 0.35071 0.0
H568 H 0.34945 0.46267 0.56798 0.0
H569 H 0.25379 0.44184 0.59944 0.0
H570 H 0.24819 0.50164 0.61509 0.0
H571 H 0.27064 0.56024 0.61926 0.0
H572 H 0.36649 0.57915 0.5874 0.0
H573 H 0.37158 0.51967 0.57223 0.0
C574 C 0.32728 0.47099 0.57828 0.0
C575 C 0.30209 0.44765 0.58247 0.0
C576 C 0.32416 0.50522 0.58697 0.0
C577 C 0.27362 0.45919 0.59591 0.0
C578 C 0.27038 0.49341 0.60484 0.0
C579 C 0.29259 0.55124 0.60901 0.0
C580 C 0.31793 0.57424 0.60402 0.0
C581 C 0.2955 0.51671 0.60039 0.0
C582 C 0.34627 0.56222 0.59075 0.0
C583 C 0.34936 0.52813 0.58231 0.0
H584 H 0.096 0.7612 0.03288 0.0
H585 H 0.11 0.8342 0.11266 0.0
H586 H 0.06436 0.80982 0.13922 0.0
H587 H 0.01675 0.77238 0.13646 0.0
H588 H -0.00038 0.70225 0.05477 0.0
H589 H 0.05031 0.72048 0.03244 0.0
C590 C 0.08937 0.77132 0.05637 0.0
C591 C 0.10616 0.79962 0.07065 0.0
C592 C 0.06241 0.7578 0.07105 0.0
C593 C 0.09719 0.81268 0.10098 0.0
C594 C 0.07112 0.79873 0.11621 0.0
C595 C 0.02461 0.76043 0.11428 0.0
C596 C 0.00465 0.73593 0.09734 0.0
C597 C 0.05303 0.77192 0.10102 0.0
C598 C 0.01469 0.72117 0.0682 0.0
C599 C 0.04355 0.73169 0.05539 0.0
H600 H 0.6597 0.64501 0.6289 0.0
H601 H 0.75735 0.60482 0.6281 0.0
H602 H 0.75793 0.59046 0.68747 0.0
H603 H 0.72749 0.58247 0.73713 0.0
H604 H 0.62788 0.61902 0.73432 0.0
H605 H 0.6319 0.64272 0.67947 0.0
C606 C 0.68131 0.63344 0.64178 0.0
C607 C 0.70816 0.62528 0.62405 0.0
C608 C 0.68115 0.62466 0.67542 0.0
C609 C 0.73627 0.61112 0.64121 0.0
C610 C 0.73652 0.60275 0.67508 0.0
C611 C 0.70672 0.59582 0.72466 0.0
C612 C 0.67733 0.59844 0.74012 0.0
C613 C 0.70858 0.60826 0.6921 0.0
C614 C 0.65105 0.61676 0.72371 0.0
C615 C 0.65309 0.63003 0.69191 0.0
H616 H 0.87314 0.16938 0.17058 0.0
H617 H 0.93124 0.13377 0.09349 0.0
H618 H 0.97135 0.11003 0.13537 0.0
H619 H 0.98885 0.09699 0.19339 0.0
H620 H 0.93109 0.13079 0.27124 0.0
H621 H 0.89208 0.15791 0.22963 0.0
C622 C 0.89481 0.15685 0.16302 0.0
C623 C 0.89907 0.15325 0.12893 0.0
C624 C 0.91769 0.14267 0.18732 0.0
C625 C 0.92719 0.13669 0.11953 0.0
C626 C 0.95016 0.12305 0.14345 0.0
C627 C 0.96757 0.11004 0.20126 0.0
C628 C 0.96258 0.11146 0.23526 0.0
C629 C 0.94536 0.12534 0.17732 0.0
C630 C 0.9354 0.1293 0.24516 0.0
C631 C 0.9131 0.14474 0.22139 0.0
H632 H 0.22374 0.72224 0.04857 0.0
H633 H 0.30246 0.78871 0.08539 0.0
H634 H 0.32893 0.74184 0.11671 0.0
H635 H 0.32932 0.68285 0.13518 0.0
H636 H 0.25178 0.61519 0.09872 0.0
H637 H 0.22506 0.66188 0.06616 0.0
C638 C 0.24677 0.72646 0.06329 0.0
C639 C 0.26094 0.75913 0.06454 0.0
C640 C 0.26201 0.69927 0.08153 0.0
C641 C 0.2908 0.764 0.0839 0.0
C642 C 0.30605 0.73717 0.10191 0.0
C643 C 0.30685 0.67806 0.11968 0.0
C644 C 0.29274 0.64547 0.11919 0.0
C645 C 0.29181 0.70482 0.10104 0.0
C646 C 0.2631 0.64008 0.09969 0.0
C647 C 0.24789 0.66673 0.08097 0.0
H648 H 0.78674 0.72407 0.57313 0.0
H649 H 0.71558 0.79029 0.52029 0.0
H650 H 0.73762 0.83883 0.55275 0.0
H651 H 0.77644 0.86219 0.59736 0.0
H652 H 0.84607 0.7946 0.6505 0.0
H653 H 0.82532 0.74703 0.61648 0.0
C654 C 0.77605 0.7491 0.56844 0.0
C655 C 0.74946 0.75336 0.54425 0.0
C656 C 0.78857 0.77675 0.58733 0.0
C657 C 0.73607 0.78614 0.53871 0.0
C658 C 0.74861 0.81394 0.55734 0.0
C659 C 0.78695 0.83701 0.60151 0.0
C660 C 0.81295 0.83208 0.62629 0.0
C661 C 0.77468 0.80949 0.58196 0.0
C662 C 0.82647 0.79932 0.63122 0.0
C663 C 0.81449 0.77199 0.61191 0.0
H664 H 0.74398 0.13138 0.16778 0.0
H665 H 0.74093 0.23907 0.1462 0.0
H666 H 0.72244 0.25087 0.20069 0.0
H667 H 0.71105 0.23151 0.25568 0.0
H668 H 0.7158 0.12459 0.28004 0.0
H669 H 0.72931 0.11142 0.22334 0.0
C670 C 0.73869 0.15726 0.17498 0.0
C671 C 0.74393 0.18436 0.15323 0.0
C672 C 0.72874 0.16403 0.20691 0.0
C673 C 0.73729 0.21787 0.16275 0.0
C674 C 0.72678 0.22467 0.19387 0.0
C675 C 0.71518 0.20531 0.24864 0.0
C676 C 0.71301 0.17914 0.2721 0.0
C677 C 0.72321 0.19809 0.21641 0.0
C678 C 0.71747 0.14521 0.26237 0.0
C679 C 0.72528 0.1377 0.23001 0.0
H680 H 0.24221 0.34815 0.66177 0.0
H681 H 0.29128 0.25074 0.67131 0.0
H682 H 0.27094 0.24188 0.72544 0.0
H683 H 0.23931 0.26121 0.76992 0.0
H684 H 0.19171 0.35935 0.76279 0.0
H685 H 0.21101 0.36826 0.70771 0.0
C686 C 0.24828 0.32496 0.67568 0.0
C687 C 0.26827 0.30021 0.66251 0.0
C688 C 0.23681 0.32011 0.70721 0.0
C689 C 0.27614 0.27036 0.68093 0.0
C690 C 0.26449 0.26519 0.7119 0.0
C691 C 0.23357 0.28485 0.75665 0.0
C692 C 0.2143 0.30965 0.77061 0.0
C693 C 0.24499 0.28993 0.72533 0.0
C694 C 0.20635 0.3397 0.75253 0.0
C695 C 0.21747 0.34487 0.72109 0.0
H696 H 0.7106 0.66384 0.38102 0.0
H697 H 0.80474 0.66684 0.43743 0.0
H698 H 0.83141 0.67374 0.38575 0.0
H699 H 0.82696 0.685 0.32502 0.0
H700 H 0.73231 0.68012 0.26937 0.0
H701 H 0.70684 0.66774 0.32032 0.0
C702 C 0.737 0.6657 0.38196 0.0
C703 C 0.75569 0.66541 0.41289 0.0
C704 C 0.75201 0.66956 0.35233 0.0
C705 C 0.78988 0.66712 0.41382 0.0
C706 C 0.80508 0.67122 0.38432 0.0
C707 C 0.80088 0.68047 0.32396 0.0
C708 C 0.78148 0.68421 0.29352 0.0
C709 C 0.78629 0.67329 0.35347 0.0
C710 C 0.74769 0.67825 0.2926 0.0
C711 C 0.73309 0.67107 0.32169 0.0
H712 H 0.75291 0.29619 0.04083 0.0
H713 H 0.69384 0.21828 0.98988 0.0
H714 H 0.66255 0.26184 0.95752 0.0
H715 H 0.65452 0.32161 0.94101 0.0
H716 H 0.71292 0.39953 0.99266 0.0
H717 H 0.7422 0.35618 0.02719 0.0
C718 C 0.73309 0.28867 0.02277 0.0
C719 C 0.72598 0.25395 0.01763 0.0
C720 C 0.71526 0.31379 0.00417 0.0
C721 C 0.69992 0.24478 0.99438 0.0
C722 C 0.68206 0.26967 0.97576 0.0
C723 C 0.6732 0.32923 0.96025 0.0
C724 C 0.68165 0.36379 0.96404 0.0
C725 C 0.68984 0.30421 0.98012 0.0
C726 C 0.7063 0.37307 0.98879 0.0
C727 C 0.72296 0.34832 0.00866 0.0
H728 H 0.21936 0.26346 0.50103 0.0
H729 H 0.2911 0.19111 0.54306 0.0
H730 H 0.26126 0.14488 0.51374 0.0
H731 H 0.21506 0.12513 0.47572 0.0
H732 H 0.145 0.19838 0.43222 0.0
H733 H 0.17366 0.24397 0.46326 0.0
C734 C 0.22852 0.2376 0.50395 0.0
C735 C 0.25748 0.23088 0.52426 0.0
C736 C 0.21142 0.21121 0.48694 0.0
C737 C 0.26893 0.19712 0.52754 0.0
C738 C 0.25186 0.17063 0.51081 0.0
C739 C 0.20616 0.15109 0.47289 0.0
C740 C 0.17779 0.1582 0.45177 0.0
C741 C 0.22315 0.17741 0.49033 0.0
C742 C 0.16637 0.19197 0.44877 0.0
C743 C 0.18292 0.21817 0.46628 0.0
H744 H 0.21271 0.82638 0.89857 0.0
H745 H 0.30777 0.84492 0.94964 0.0
H746 H 0.33331 0.83396 0.8981 0.0
H747 H 0.32871 0.81441 0.83963 0.0
H748 H 0.2331 0.79726 0.78905 0.0
H749 H 0.20776 0.81226 0.8394 0.0
C750 C 0.23902 0.82821 0.89844 0.0
C751 C 0.25833 0.836 0.92801 0.0
C752 C 0.25347 0.82185 0.86886 0.0
C753 C 0.29234 0.83888 0.92723 0.0
C754 C 0.30696 0.83248 0.8978 0.0
C755 C 0.30232 0.81455 0.83947 0.0
C756 C 0.28288 0.80412 0.81075 0.0
C757 C 0.2878 0.82331 0.8686 0.0
C758 C 0.24869 0.80437 0.81103 0.0
C759 C 0.23414 0.81309 0.83977 0.0
loop_
_geom_bond_atom_site_label_1
_geom_bond_atom_site_label_2
_geom_bond_distance
_geom_bond_site_symmetry_2
_ccdc_geom_bond_type
Sc0 O3 2.025 . S
Sc0 O10 2.109 . S
Sc0 O13 2.105 . S
Sc0 O16 2.105 . S
Sc0 O19 2.105 1_554 S
Sc1 O3 2.025 1_556 S
Sc1 O11 2.105 . S
Sc1 O15 2.105 1_556 S
Sc1 O17 2.105 1_556 S
Sc1 O21 2.105 . S
Sc2 O3 2.025 . S
Sc2 O12 2.105 1_554 S
Sc2 O14 2.105 . S
Sc2 O18 2.105 . S
Sc2 O20 2.105 . S
O3 Sc0 2.025 . S
O3 Sc1 2.025 1_554 S
O3 Sc2 2.025 . S
C4 O10 1.265 1_556 S
C4 O20 1.268 1_556 S
C5 O11 1.268 . S
C5 O19 1.268 . S
C6 O12 1.268 . S
C6 O21 1.268 . S
C7 O13 1.268 . S
C7 O17 1.268 . S
C8 O14 1.268 . S
C8 O16 1.268 . S
C9 O15 1.268 . S
C9 O18 1.268 . S
O10 Sc0 2.109 . S
O10 C4 1.265 1_554 S
O11 Sc1 2.105 . S
O11 C5 1.268 . S
O12 Sc2 2.105 1_556 S
O12 C6 1.268 . S
O13 Sc0 2.105 . S
O13 C7 1.268 . S
O14 Sc2 2.105 . S
O14 C8 1.268 . S
O15 Sc1 2.105 1_554 S
O15 C9 1.268 . S
O16 Sc0 2.105 . S
O16 C8 1.268 . S
O17 Sc1 2.105 1_554 S
O17 C7 1.268 . S
O18 Sc2 2.105 . S
O18 C9 1.268 . S
O19 Sc0 2.105 1_556 S
O19 C5 1.268 . S
O20 Sc2 2.105 . S
O20 C4 1.268 1_554 S
O21 Sc1 2.105 . S
O21 C6 1.268 . S
Sc22 O25 2.025 . S
Sc22 O32 2.105 . S
Sc22 O35 2.105 . S
Sc22 O38 2.105 . S
Sc22 O41 2.105 . S
Sc23 O25 2.025 . S
Sc23 O33 2.105 . S
Sc23 O37 2.105 . S
Sc23 O39 2.105 . S
Sc23 O43 2.105 . S
Sc24 O25 2.025 . S
Sc24 O34 2.105 . S
Sc24 O36 2.105 . S
Sc24 O40 2.105 . S
Sc24 O42 2.105 . S
O25 Sc22 2.025 . S
O25 Sc23 2.025 . S
O25 Sc24 2.025 . S
C26 O32 1.268 . S
C26 O42 1.268 . S
C27 O33 1.268 . S
C27 O41 1.268 . S
C28 O34 1.268 . S
C28 O43 1.268 . S
C29 O35 1.268 . S
C29 O39 1.268 . S
C30 O36 1.268 . S
C30 O38 1.268 . S
C31 O37 1.268 . S
C31 O40 1.268 . S
O32 Sc22 2.105 . S
O32 C26 1.268 . S
O33 Sc23 2.105 . S
O33 C27 1.268 . S
O34 Sc24 2.105 . S
O34 C28 1.268 . S
O35 Sc22 2.105 . S
O35 C29 1.268 . S
O36 Sc24 2.105 . S
O36 C30 1.268 . S
O37 Sc23 2.105 . S
O37 C31 1.268 . S
O38 Sc22 2.105 . S
O38 C30 1.268 . S
O39 Sc23 2.105 . S
O39 C29 1.268 . S
O40 Sc24 2.105 . S
O40 C31 1.268 . S
O41 Sc22 2.105 . S
O41 C27 1.268 . S
O42 Sc24 2.105 . S
O42 C26 1.268 . S
O43 Sc23 2.105 . S
O43 C28 1.268 . S
Sc44 O47 2.025 . S
Sc44 O54 2.105 . S
Sc44 O57 2.105 . S
Sc44 O60 2.105 . S
Sc44 O63 2.105 . S
Sc45 O47 2.025 . S
Sc45 O55 2.105 . S
Sc45 O59 2.105 . S
Sc45 O61 2.105 . S
Sc45 O65 2.105 . S
Sc46 O47 2.025 . S
Sc46 O56 2.105 . S
Sc46 O58 2.105 . S
Sc46 O62 2.105 . S
Sc46 O64 2.105 . S
O47 Sc44 2.025 . S
O47 Sc45 2.025 . S
O47 Sc46 2.025 . S
C48 O54 1.268 . S
C48 O64 1.268 . S
C49 O55 1.268 . S
C49 O63 1.268 . S
C50 O56 1.268 1_556 S
C50 O65 1.268 1_556 S
C51 O57 1.268 . S
C51 O61 1.268 . S
C52 O58 1.268 . S
C52 O60 1.268 . S
C53 O59 1.268 . S
C53 O62 1.268 . S
O54 Sc44 2.105 . S
O54 C48 1.268 . S
O55 Sc45 2.105 . S
O55 C49 1.268 . S
O56 Sc46 2.105 . S
O56 C50 1.268 1_554 S
O57 Sc44 2.105 . S
O57 C51 1.268 . S
O58 Sc46 2.105 . S
O58 C52 1.268 . S
O59 Sc45 2.105 . S
O59 C53 1.268 . S
O60 Sc44 2.105 . S
O60 C52 1.268 . S
O61 Sc45 2.105 . S
O61 C51 1.268 . S
O62 Sc46 2.105 . S
O62 C53 1.268 . S
O63 Sc44 2.105 . S
O63 C49 1.268 . S
O64 Sc46 2.105 . S
O64 C48 1.268 . S
O65 Sc45 2.105 . S
O65 C50 1.268 1_554 S
Sc66 O69 2.025 . S
Sc66 O76 2.105 . S
Sc66 O79 2.105 . S
Sc66 O82 2.105 . S
Sc66 O85 2.105 . S
Sc67 O69 2.025 . S
Sc67 O77 2.105 . S
Sc67 O81 2.105 . S
Sc67 O83 2.105 . S
Sc67 O87 2.105 . S
Sc68 O69 2.025 . S
Sc68 O78 2.105 . S
Sc68 O80 2.105 . S
Sc68 O84 2.105 . S
Sc68 O86 2.105 . S
O69 Sc66 2.025 . S
O69 Sc67 2.025 . S
O69 Sc68 2.025 . S
C70 O76 1.268 . S
C70 O86 1.268 . S
C71 O77 1.268 . S
C71 O85 1.268 . S
C72 O78 1.268 . S
C72 O87 1.268 . S
C73 O79 1.268 . S
C73 O83 1.268 . S
C74 O80 1.268 . S
C74 O82 1.268 . S
C75 O81 1.268 . S
C75 O84 1.268 . S
O76 Sc66 2.105 . S
O76 C70 1.268 . S
O77 Sc67 2.105 . S
O77 C71 1.268 . S
O78 Sc68 2.105 . S
O78 C72 1.268 . S
O79 Sc66 2.105 . S
O79 C73 1.268 . S
O80 Sc68 2.105 . S
O80 C74 1.268 . S
O81 Sc67 2.105 . S
O81 C75 1.268 . S
O82 Sc66 2.105 . S
O82 C74 1.268 . S
O83 Sc67 2.105 . S
O83 C73 1.268 . S
O84 Sc68 2.105 . S
O84 C75 1.268 . S
O85 Sc66 2.105 . S
O85 C71 1.268 . S
O86 Sc68 2.105 . S
O86 C70 1.268 . S
O87 Sc67 2.105 . S
O87 C72 1.268 . S
C88 C89 1.384 1_455 S
C88 H101 0.947 . S
C88 C123 1.382 . S
C89 C88 1.384 1_655 S
C89 C90 1.378 1_655 S
C90 C89 1.378 1_455 S
C90 C91 1.378 . S
C90 H102 0.952 . S
C91 C90 1.378 . S
C91 H103 0.950 . S
C91 C122 1.383 . S
H92 C111 0.947 . S
H93 C112 0.946 . S
H94 C114 0.953 . S
H95 C115 0.945 . S
H96 C117 0.952 1_545 S
H97 C118 0.949 . S
H98 C120 0.950 . S
H99 C121 0.948 1_545 S
H100 C123 0.951 . S
H101 C88 0.947 . S
H102 C90 0.952 . S
H103 C91 0.950 . S
N104 C107 1.382 . S
N104 C109 1.363 . S
N105 C107 1.371 . S
N105 C108 1.372 . S
N106 C108 1.361 . S
N106 C109 1.377 . S
C107 N104 1.382 . S
C107 N105 1.371 . S
C107 C110 1.480 . S
C108 N105 1.372 . S
C108 N106 1.361 . S
C108 C116 1.457 . S
C109 N104 1.363 . S
C109 N106 1.377 . S
C109 C122 1.479 . S
C110 C107 1.480 . S
C110 C111 1.383 . S
C110 C115 1.385 . S
C111 H92 0.947 . S
C111 C110 1.383 . S
C111 C112 1.388 . S
C112 H93 0.946 . S
C112 C111 1.388 . S
C112 C113 1.384 . S
C113 C112 1.384 . S
C113 C114 1.377 . S
C114 H94 0.953 . S
C114 C113 1.377 . S
C114 C115 1.369 . S
C115 H95 0.945 . S
C115 C110 1.385 . S
C115 C114 1.369 . S
C116 C108 1.457 . S
C116 C117 1.372 1_545 S
C116 C121 1.364 1_545 S
C117 H96 0.952 1_565 S
C117 C116 1.372 1_565 S
C117 C118 1.389 . S
C118 H97 0.949 . S
C118 C117 1.389 . S
C118 C119 1.387 . S
C119 C118 1.387 . S
C119 C120 1.372 . S
C120 H98 0.950 . S
C120 C119 1.372 . S
C120 C121 1.379 . S
C121 H99 0.948 1_565 S
C121 C116 1.364 1_565 S
C121 C120 1.379 . S
C122 C91 1.383 . S
C122 C109 1.479 . S
C122 C123 1.398 . S
C123 C88 1.382 . S
C123 H100 0.951 . S
C123 C122 1.398 . S
C124 C125 1.384 . S
C124 H137 0.947 . S
C124 C159 1.382 . S
C125 C124 1.384 . S
C125 C126 1.378 . S
C126 C125 1.378 . S
C126 C127 1.378 . S
C126 H138 0.952 . S
C127 C126 1.378 . S
C127 H139 0.950 . S
C127 C158 1.383 . S
H128 C147 0.947 . S
H129 C148 0.946 . S
H130 C150 0.953 . S
H131 C151 0.945 . S
H132 C153 0.952 . S
H133 C154 0.949 . S
H134 C156 0.950 . S
H135 C157 0.948 . S
H136 C159 0.951 . S
H137 C124 0.947 . S
H138 C126 0.952 . S
H139 C127 0.950 . S
N140 C143 1.382 . S
N140 C145 1.363 . S
N141 C143 1.371 . S
N141 C144 1.372 . S
N142 C144 1.361 . S
N142 C145 1.377 . S
C143 N140 1.382 . S
C143 N141 1.371 . S
C143 C146 1.480 . S
C144 N141 1.372 . S
C144 N142 1.361 . S
C144 C152 1.457 . S
C145 N140 1.363 . S
C145 N142 1.377 . S
C145 C158 1.479 . S
C146 C143 1.480 . S
C146 C147 1.383 . S
C146 C151 1.385 . S
C147 H128 0.947 . S
C147 C146 1.383 . S
C147 C148 1.388 . S
C148 H129 0.946 . S
C148 C147 1.388 . S
C148 C149 1.384 . S
C149 C148 1.384 . S
C149 C150 1.377 . S
C150 H130 0.953 . S
C150 C149 1.377 . S
C150 C151 1.369 . S
C151 H131 0.945 . S
C151 C146 1.385 . S
C151 C150 1.369 . S
C152 C144 1.457 . S
C152 C153 1.372 . S
C152 C157 1.364 . S
C153 H132 0.952 . S
C153 C152 1.372 . S
C153 C154 1.389 . S
C154 H133 0.949 . S
C154 C153 1.389 . S
C154 C155 1.387 . S
C155 C154 1.387 . S
C155 C156 1.372 . S
C156 H134 0.950 . S
C156 C155 1.372 . S
C156 C157 1.379 . S
C157 H135 0.948 . S
C157 C152 1.364 . S
C157 C156 1.379 . S
C158 C127 1.383 . S
C158 C145 1.479 . S
C158 C159 1.398 . S
C159 C124 1.382 . S
C159 H136 0.951 . S
C159 C158 1.398 . S
C160 C161 1.384 . S
C160 H173 0.947 . S
C160 C195 1.382 . S
C161 C160 1.384 . S
C161 C162 1.378 . S
C162 C161 1.378 . S
C162 C163 1.378 . S
C162 H174 0.952 . S
C163 C162 1.378 . S
C163 H175 0.950 . S
C163 C194 1.383 . S
H164 C183 0.947 . S
H165 C184 0.946 . S
H166 C186 0.953 . S
H167 C187 0.945 . S
H168 C189 0.952 . S
H169 C190 0.949 . S
H170 C192 0.950 . S
H171 C193 0.948 . S
H172 C195 0.951 . S
H173 C160 0.947 . S
H174 C162 0.952 . S
H175 C163 0.950 . S
N176 C179 1.382 . S
N176 C181 1.363 . S
N177 C179 1.371 . S
N177 C180 1.372 . S
N178 C180 1.361 . S
N178 C181 1.377 . S
C179 N176 1.382 . S
C179 N177 1.371 . S
C179 C182 1.480 . S
C180 N177 1.372 . S
C180 N178 1.361 . S
C180 C188 1.457 . S
C181 N176 1.363 . S
C181 N178 1.377 . S
C181 C194 1.479 . S
C182 C179 1.480 . S
C182 C183 1.383 . S
C182 C187 1.385 . S
C183 H164 0.947 . S
C183 C182 1.383 . S
C183 C184 1.388 . S
C184 H165 0.946 . S
C184 C183 1.388 . S
C184 C185 1.384 . S
C185 C184 1.384 . S
C185 C186 1.377 . S
C186 H166 0.953 . S
C186 C185 1.377 . S
C186 C187 1.369 . S
C187 H167 0.945 . S
C187 C182 1.385 . S
C187 C186 1.369 . S
C188 C180 1.457 . S
C188 C189 1.372 . S
C188 C193 1.364 . S
C189 H168 0.952 . S
C189 C188 1.372 . S
C189 C190 1.389 . S
C190 H169 0.949 . S
C190 C189 1.389 . S
C190 C191 1.387 . S
C191 C190 1.387 . S
C191 C192 1.372 . S
C192 H170 0.950 . S
C192 C191 1.372 . S
C192 C193 1.379 . S
C193 H171 0.948 . S
C193 C188 1.364 . S
C193 C192 1.379 . S
C194 C163 1.383 . S
C194 C181 1.479 . S
C194 C195 1.398 . S
C195 C160 1.382 . S
C195 H172 0.951 . S
C195 C194 1.398 . S
C196 C197 1.384 . S
C196 H209 0.947 . S
C196 C231 1.382 . S
C197 C196 1.384 . S
C197 C198 1.378 . S
C198 C197 1.378 . S
C198 C199 1.378 . S
C198 H210 0.952 . S
C199 C198 1.378 . S
C199 H211 0.950 . S
C199 C230 1.383 . S
H200 C219 0.947 . S
H201 C220 0.946 . S
H202 C222 0.953 . S
H203 C223 0.945 . S
H204 C225 0.952 . S
H205 C226 0.949 . S
H206 C228 0.950 . S
H207 C229 0.948 . S
H208 C231 0.951 . S
H209 C196 0.947 . S
H210 C198 0.952 . S
H211 C199 0.950 . S
N212 C215 1.382 . S
N212 C217 1.363 . S
N213 C215 1.371 . S
N213 C216 1.372 . S
N214 C216 1.361 . S
N214 C217 1.377 . S
C215 N212 1.382 . S
C215 N213 1.371 . S
C215 C218 1.480 . S
C216 N213 1.372 . S
C216 N214 1.361 . S
C216 C224 1.457 . S
C217 N212 1.363 . S
C217 N214 1.377 . S
C217 C230 1.479 . S
C218 C215 1.480 . S
C218 C219 1.383 . S
C218 C223 1.385 . S
C219 H200 0.947 . S
C219 C218 1.383 . S
C219 C220 1.388 . S
C220 H201 0.946 . S
C220 C219 1.388 . S
C220 C221 1.384 . S
C221 C220 1.384 . S
C221 C222 1.377 . S
C222 H202 0.953 . S
C222 C221 1.377 . S
C222 C223 1.369 . S
C223 H203 0.945 . S
C223 C218 1.385 . S
C223 C222 1.369 . S
C224 C216 1.457 . S
C224 C225 1.372 . S
C224 C229 1.364 . S
C225 H204 0.952 . S
C225 C224 1.372 . S
C225 C226 1.389 . S
C226 H205 0.949 . S
C226 C225 1.389 . S
C226 C227 1.387 . S
C227 C226 1.387 . S
C227 C228 1.372 . S
C228 H206 0.950 . S
C228 C227 1.372 . S
C228 C229 1.379 . S
C229 H207 0.948 . S
C229 C224 1.364 . S
C229 C228 1.379 . S
C230 C199 1.383 . S
C230 C217 1.479 . S
C230 C231 1.398 . S
C231 C196 1.382 . S
C231 H208 0.951 . S
C231 C230 1.398 . S
C232 C233 1.384 . S
C232 H245 0.947 . S
C232 C267 1.382 . S
C233 C232 1.384 . S
C233 C234 1.378 . S
C234 C233 1.378 . S
C234 C235 1.378 . S
C234 H246 0.952 . S
C235 C234 1.378 . S
C235 H247 0.950 . S
C235 C266 1.383 . S
H236 C255 0.947 . S
H237 C256 0.946 . S
H238 C258 0.953 . S
H239 C259 0.945 . S
H240 C261 0.952 . S
H241 C262 0.949 . S
H242 C264 0.950 . S
H243 C265 0.948 . S
H244 C267 0.951 . S
H245 C232 0.947 . S
H246 C234 0.952 . S
H247 C235 0.950 . S
N248 C251 1.382 . S
N248 C253 1.363 . S
N249 C251 1.371 . S
N249 C252 1.372 . S
N250 C252 1.361 . S
N250 C253 1.377 . S
C251 N248 1.382 . S
C251 N249 1.371 . S
C251 C254 1.480 . S
C252 N249 1.372 . S
C252 N250 1.361 . S
C252 C260 1.457 . S
C253 N248 1.363 . S
C253 N250 1.377 . S
C253 C266 1.479 . S
C254 C251 1.480 . S
C254 C255 1.383 . S
C254 C259 1.385 . S
C255 H236 0.947 . S
C255 C254 1.383 . S
C255 C256 1.388 . S
C256 H237 0.946 . S
C256 C255 1.388 . S
C256 C257 1.384 . S
C257 C256 1.384 . S
C257 C258 1.377 . S
C258 H238 0.953 . S
C258 C257 1.377 . S
C258 C259 1.369 . S
C259 H239 0.945 . S
C259 C254 1.385 . S
C259 C258 1.369 . S
C260 C252 1.457 . S
C260 C261 1.372 . S
C260 C265 1.364 . S
C261 H240 0.952 . S
C261 C260 1.372 . S
C261 C262 1.389 . S
C262 H241 0.949 . S
C262 C261 1.389 . S
C262 C263 1.387 . S
C263 C262 1.387 . S
C263 C264 1.372 . S
C264 H242 0.950 . S
C264 C263 1.372 . S
C264 C265 1.379 . S
C265 H243 0.948 . S
C265 C260 1.364 . S
C265 C264 1.379 . S
C266 C235 1.383 . S
C266 C253 1.479 . S
C266 C267 1.398 . S
C267 C232 1.382 . S
C267 H244 0.951 . S
C267 C266 1.398 . S
C268 C269 1.384 . S
C268 H281 0.947 . S
C268 C303 1.382 . S
C269 C268 1.384 . S
C269 C270 1.378 . S
C270 C269 1.378 . S
C270 C271 1.378 . S
C270 H282 0.952 . S
C271 C270 1.378 . S
C271 H283 0.950 . S
C271 C302 1.383 . S
H272 C291 0.947 . S
H273 C292 0.946 . S
H274 C294 0.953 . S
H275 C295 0.945 . S
H276 C297 0.952 . S
H277 C298 0.949 . S
H278 C300 0.950 . S
H279 C301 0.948 . S
H280 C303 0.951 . S
H281 C268 0.947 . S
H282 C270 0.952 . S
H283 C271 0.950 . S
N284 C287 1.382 . S
N284 C289 1.363 . S
N285 C287 1.371 . S
N285 C288 1.372 . S
N286 C288 1.361 . S
N286 C289 1.377 . S
C287 N284 1.382 . S
C287 N285 1.371 . S
C287 C290 1.480 . S
C288 N285 1.372 . S
C288 N286 1.361 . S
C288 C296 1.457 . S
C289 N284 1.363 . S
C289 N286 1.377 . S
C289 C302 1.479 . S
C290 C287 1.480 . S
C290 C291 1.383 . S
C290 C295 1.385 . S
C291 H272 0.947 . S
C291 C290 1.383 . S
C291 C292 1.388 . S
C292 H273 0.946 . S
C292 C291 1.388 . S
C292 C293 1.384 . S
C293 C292 1.384 . S
C293 C294 1.377 . S
C294 H274 0.953 . S
C294 C293 1.377 . S
C294 C295 1.369 . S
C295 H275 0.945 . S
C295 C290 1.385 . S
C295 C294 1.369 . S
C296 C288 1.457 . S
C296 C297 1.372 . S
C296 C301 1.364 . S
C297 H276 0.952 . S
C297 C296 1.372 . S
C297 C298 1.389 . S
C298 H277 0.949 . S
C298 C297 1.389 . S
C298 C299 1.387 . S
C299 C298 1.387 . S
C299 C300 1.372 . S
C300 H278 0.950 . S
C300 C299 1.372 . S
C300 C301 1.379 . S
C301 H279 0.948 . S
C301 C296 1.364 . S
C301 C300 1.379 . S
C302 C271 1.383 . S
C302 C289 1.479 . S
C302 C303 1.398 . S
C303 C268 1.382 . S
C303 H280 0.951 . S
C303 C302 1.398 . S
C304 C305 1.384 . S
C304 H317 0.947 . S
C304 C339 1.382 . S
C305 C304 1.384 . S
C305 C306 1.378 . S
C306 C305 1.378 . S
C306 C307 1.378 . S
C306 H318 0.952 . S
C307 C306 1.378 . S
C307 H319 0.950 . S
C307 C338 1.383 . S
H308 C327 0.947 . S
H309 C328 0.946 . S
H310 C330 0.953 . S
H311 C331 0.945 . S
H312 C333 0.952 . S
H313 C334 0.949 . S
H314 C336 0.950 . S
H315 C337 0.948 . S
H316 C339 0.951 . S
H317 C304 0.947 . S
H318 C306 0.952 . S
H319 C307 0.950 . S
N320 C323 1.382 . S
N320 C325 1.363 . S
N321 C323 1.371 . S
N321 C324 1.372 . S
N322 C324 1.361 . S
N322 C325 1.377 . S
C323 N320 1.382 . S
C323 N321 1.371 . S
C323 C326 1.480 . S
C324 N321 1.372 . S
C324 N322 1.361 . S
C324 C332 1.457 . S
C325 N320 1.363 . S
C325 N322 1.377 . S
C325 C338 1.479 . S
C326 C323 1.480 . S
C326 C327 1.383 . S
C326 C331 1.385 . S
C327 H308 0.947 . S
C327 C326 1.383 . S
C327 C328 1.388 . S
C328 H309 0.946 . S
C328 C327 1.388 . S
C328 C329 1.384 . S
C329 C328 1.384 . S
C329 C330 1.377 . S
C330 H310 0.953 . S
C330 C329 1.377 . S
C330 C331 1.369 . S
C331 H311 0.945 . S
C331 C326 1.385 . S
C331 C330 1.369 . S
C332 C324 1.457 . S
C332 C333 1.372 . S
C332 C337 1.364 . S
C333 H312 0.952 . S
C333 C332 1.372 . S
C333 C334 1.389 . S
C334 H313 0.949 . S
C334 C333 1.389 . S
C334 C335 1.387 . S
C335 C334 1.387 . S
C335 C336 1.372 . S
C336 H314 0.950 . S
C336 C335 1.372 . S
C336 C337 1.379 . S
C337 H315 0.948 . S
C337 C332 1.364 . S
C337 C336 1.379 . S
C338 C307 1.383 . S
C338 C325 1.479 . S
C338 C339 1.398 . S
C339 C304 1.382 . S
C339 H316 0.951 . S
C339 C338 1.398 . S
C340 C341 1.384 . S
C340 H353 0.947 . S
C340 C375 1.382 . S
C341 C340 1.384 . S
C341 C342 1.378 . S
C342 C341 1.378 . S
C342 C343 1.401 . S
C342 H354 0.952 . S
C343 C342 1.401 . S
C343 H355 0.933 1_545 S
C343 C374 1.377 1_545 S
H344 C363 0.947 . S
H345 C364 0.946 . S
H346 C366 0.953 . S
H347 C367 0.945 . S
H348 C369 0.952 . S
H349 C370 0.949 . S
H350 C372 0.950 . S
H351 C373 0.948 . S
H352 C375 0.951 . S
H353 C340 0.947 . S
H354 C342 0.952 . S
H355 C343 0.933 1_565 S
N356 C359 1.382 . S
N356 C361 1.363 . S
N357 C359 1.371 . S
N357 C360 1.372 . S
N358 C360 1.361 . S
N358 C361 1.377 . S
C359 N356 1.382 . S
C359 N357 1.371 . S
C359 C362 1.480 . S
C360 N357 1.372 . S
C360 N358 1.361 . S
C360 C368 1.457 . S
C361 N356 1.363 . S
C361 N358 1.377 . S
C361 C374 1.479 . S
C362 C359 1.480 . S
C362 C363 1.383 . S
C362 C367 1.385 . S
C363 H344 0.947 . S
C363 C362 1.383 . S
C363 C364 1.388 . S
C364 H345 0.946 . S
C364 C363 1.388 . S
C364 C365 1.384 . S
C365 C364 1.384 . S
C365 C366 1.377 . S
C366 H346 0.953 . S
C366 C365 1.377 . S
C366 C367 1.369 . S
C367 H347 0.945 . S
C367 C362 1.385 . S
C367 C366 1.369 . S
C368 C360 1.457 . S
C368 C369 1.372 . S
C368 C373 1.364 . S
C369 H348 0.952 . S
C369 C368 1.372 . S
C369 C370 1.389 . S
C370 H349 0.949 . S
C370 C369 1.389 . S
C370 C371 1.383 1_655 S
C371 C370 1.383 1_455 S
C371 C372 1.366 1_455 S
C372 H350 0.950 . S
C372 C371 1.366 1_655 S
C372 C373 1.379 . S
C373 H351 0.948 . S
C373 C368 1.364 . S
C373 C372 1.379 . S
C374 C343 1.377 1_565 S
C374 C361 1.479 . S
C374 C375 1.398 1_565 S
C375 C340 1.382 . S
C375 H352 0.951 . S
C375 C374 1.398 1_545 S
H376 C382 0.930 . S
H377 C385 0.930 . S
H378 C386 0.930 . S
H379 C387 0.930 . S
H380 C390 0.930 . S
H381 C391 0.930 . S
C382 H376 0.930 . S
C382 C383 1.355 . S
C382 C384 1.415 . S
C383 C382 1.355 . S
C383 C385 1.419 . S
C384 C382 1.415 . S
C384 C389 1.425 . S
C384 C391 1.409 . S
C385 H377 0.930 . S
C385 C383 1.419 . S
C385 C386 1.362 . S
C386 H378 0.930 . S
C386 C385 1.362 . S
C386 C389 1.409 . S
C387 H379 0.930 . S
C387 C388 1.355 . S
C387 C389 1.415 . S
C388 C387 1.355 . S
C388 C390 1.419 . S
C389 C384 1.425 . S
C389 C386 1.409 . S
C389 C387 1.415 . S
C390 H380 0.930 . S
C390 C388 1.419 . S
C390 C391 1.362 . S
C391 H381 0.930 . S
C391 C384 1.409 . S
C391 C390 1.362 . S
H392 C398 0.930 . S
H393 C401 0.930 . S
H394 C402 0.930 . S
H395 C403 0.930 . S
H396 C406 0.930 . S
H397 C407 0.930 . S
C398 H392 0.930 . S
C398 C399 1.355 . S
C398 C400 1.415 . S
C399 C398 1.355 . S
C399 C401 1.419 . S
C400 C398 1.415 . S
C400 C405 1.425 . S
C400 C407 1.409 . S
C401 H393 0.930 . S
C401 C399 1.419 . S
C401 C402 1.362 . S
C402 H394 0.930 . S
C402 C401 1.362 . S
C402 C405 1.409 . S
C403 H395 0.930 . S
C403 C404 1.355 . S
C403 C405 1.415 . S
C404 C403 1.355 . S
C404 C406 1.419 . S
C405 C400 1.425 . S
C405 C402 1.409 . S
C405 C403 1.415 . S
C406 H396 0.930 . S
C406 C404 1.419 . S
C406 C407 1.362 . S
C407 H397 0.930 . S
C407 C400 1.409 . S
C407 C406 1.362 . S
H408 C414 0.930 . S
H409 C417 0.930 . S
H410 C418 0.930 1_565 S
H411 C419 0.930 . S
H412 C422 0.930 . S
H413 C423 0.930 . S
C414 H408 0.930 . S
C414 C415 1.355 . S
C414 C416 1.415 1_545 S
C415 C414 1.355 . S
C415 C417 1.419 . S
C416 C414 1.415 1_565 S
C416 C421 1.425 . S
C416 C423 1.409 . S
C417 H409 0.930 . S
C417 C415 1.419 . S
C417 C418 1.362 . S
C418 H410 0.930 1_545 S
C418 C417 1.362 . S
C418 C421 1.409 1_545 S
C419 H411 0.930 . S
C419 C420 1.355 . S
C419 C421 1.415 . S
C420 C419 1.355 . S
C420 C422 1.419 . S
C421 C416 1.425 . S
C421 C418 1.409 1_565 S
C421 C419 1.415 . S
C422 H412 0.930 . S
C422 C420 1.419 . S
C422 C423 1.362 . S
C423 H413 0.930 . S
C423 C416 1.409 . S
C423 C422 1.362 . S
H424 C430 0.930 . S
H425 C433 0.930 . S
H426 C434 0.930 . S
H427 C435 0.930 . S
H428 C438 0.930 . S
H429 C439 0.930 . S
C430 H424 0.930 . S
C430 C431 1.355 . S
C430 C432 1.415 . S
C431 C430 1.355 . S
C431 C433 1.419 . S
C432 C430 1.415 . S
C432 C437 1.425 . S
C432 C439 1.409 . S
C433 H425 0.930 . S
C433 C431 1.419 . S
C433 C434 1.362 . S
C434 H426 0.930 . S
C434 C433 1.362 . S
C434 C437 1.409 . S
C435 H427 0.930 . S
C435 C436 1.355 . S
C435 C437 1.415 . S
C436 C435 1.355 . S
C436 C438 1.419 . S
C437 C432 1.425 . S
C437 C434 1.409 . S
C437 C435 1.415 . S
C438 H428 0.930 . S
C438 C436 1.419 . S
C438 C439 1.362 . S
C439 H429 0.930 . S
C439 C432 1.409 . S
C439 C438 1.362 . S
H440 C446 0.930 . S
H441 C449 0.930 . S
H442 C450 0.930 . S
H443 C451 0.930 . S
H444 C454 0.930 . S
H445 C455 0.930 . S
C446 H440 0.930 . S
C446 C447 1.355 . S
C446 C448 1.415 . S
C447 C446 1.355 . S
C447 C449 1.419 . S
C448 C446 1.415 . S
C448 C453 1.425 . S
C448 C455 1.409 . S
C449 H441 0.930 . S
C449 C447 1.419 . S
C449 C450 1.362 . S
C450 H442 0.930 . S
C450 C449 1.362 . S
C450 C453 1.409 . S
C451 H443 0.930 . S
C451 C452 1.355 . S
C451 C453 1.415 . S
C452 C451 1.355 . S
C452 C454 1.419 . S
C453 C448 1.425 . S
C453 C450 1.409 . S
C453 C451 1.415 . S
C454 H444 0.930 . S
C454 C452 1.419 . S
C454 C455 1.362 . S
C455 H445 0.930 . S
C455 C448 1.409 . S
C455 C454 1.362 . S
H456 C462 0.930 . S
H457 C465 0.930 . S
H458 C466 0.930 . S
H459 C467 0.930 1_554 S
H460 C470 0.930 . S
H461 C471 0.930 . S
C462 H456 0.930 . S
C462 C463 1.355 1_556 S
C462 C464 1.415 . S
C463 C462 1.355 1_554 S
C463 C465 1.419 . S
C464 C462 1.415 . S
C464 C469 1.438 . S
C464 C471 1.409 . S
C465 H457 0.930 . S
C465 C463 1.419 . S
C465 C466 1.362 . S
C466 H458 0.930 . S
C466 C465 1.362 . S
C466 C469 1.391 1_554 S
C467 H459 0.930 1_556 S
C467 C468 1.355 1_655 S
C467 C469 1.421 . S
C468 C467 1.355 1_455 S
C468 C470 1.419 . S
C469 C464 1.438 . S
C469 C466 1.391 1_556 S
C469 C467 1.421 . S
C470 H460 0.930 . S
C470 C468 1.419 . S
C470 C471 1.362 1_455 S
C471 H461 0.930 . S
C471 C464 1.409 . S
C471 C470 1.362 1_655 S
H472 C478 0.930 . S
H473 C481 0.930 . S
H474 C482 0.930 . S
H475 C483 0.930 . S
H476 C486 0.930 . S
H477 C487 0.930 . S
C478 H472 0.930 . S
C478 C479 1.355 . S
C478 C480 1.415 . S
C479 C478 1.355 . S
C479 C481 1.419 . S
C480 C478 1.415 . S
C480 C485 1.425 . S
C480 C487 1.409 . S
C481 H473 0.930 . S
C481 C479 1.419 . S
C481 C482 1.362 . S
C482 H474 0.930 . S
C482 C481 1.362 . S
C482 C485 1.409 . S
C483 H475 0.930 . S
C483 C484 1.355 . S
C483 C485 1.415 . S
C484 C483 1.355 . S
C484 C486 1.419 . S
C485 C480 1.425 . S
C485 C482 1.409 . S
C485 C483 1.415 . S
C486 H476 0.930 . S
C486 C484 1.419 . S
C486 C487 1.362 . S
C487 H477 0.930 . S
C487 C480 1.409 . S
C487 C486 1.362 . S
H488 C494 0.930 . S
H489 C497 0.930 . S
H490 C498 0.930 . S
H491 C499 0.930 . S
H492 C502 0.930 1_655 S
H493 C503 0.930 . S
C494 H488 0.930 . S
C494 C495 1.355 . S
C494 C496 1.415 . S
C495 C494 1.355 . S
C495 C497 1.419 . S
C496 C494 1.415 . S
C496 C501 1.425 . S
C496 C503 1.409 . S
C497 H489 0.930 . S
C497 C495 1.419 . S
C497 C498 1.362 . S
C498 H490 0.930 . S
C498 C497 1.362 . S
C498 C501 1.409 . S
C499 H491 0.930 . S
C499 C500 1.355 . S
C499 C501 1.415 . S
C500 C499 1.355 . S
C500 C502 1.419 . S
C501 C496 1.425 . S
C501 C498 1.409 . S
C501 C499 1.415 . S
C502 H492 0.930 1_455 S
C502 C500 1.419 . S
C502 C503 1.362 . S
C503 H493 0.930 . S
C503 C496 1.409 . S
C503 C502 1.362 . S
H504 C510 0.930 . S
H505 C513 0.930 . S
H506 C514 0.930 . S
H507 C515 0.930 . S
H508 C518 0.930 . S
H509 C519 0.930 . S
C510 H504 0.930 . S
C510 C511 1.355 . S
C510 C512 1.415 . S
C511 C510 1.355 . S
C511 C513 1.419 . S
C512 C510 1.415 . S
C512 C517 1.425 . S
C512 C519 1.409 . S
C513 H505 0.930 . S
C513 C511 1.419 . S
C513 C514 1.362 . S
C514 H506 0.930 . S
C514 C513 1.362 . S
C514 C517 1.409 . S
C515 H507 0.930 . S
C515 C516 1.355 . S
C515 C517 1.415 . S
C516 C515 1.355 . S
C516 C518 1.419 . S
C517 C512 1.425 . S
C517 C514 1.409 . S
C517 C515 1.415 . S
C518 H508 0.930 . S
C518 C516 1.419 . S
C518 C519 1.362 . S
C519 H509 0.930 . S
C519 C512 1.409 . S
C519 C518 1.362 . S
H520 C526 0.930 . S
H521 C529 0.930 . S
H522 C530 0.930 . S
H523 C531 0.930 . S
H524 C534 0.930 . S
H525 C535 0.930 . S
C526 H520 0.930 . S
C526 C527 1.355 . S
C526 C528 1.415 . S
C527 C526 1.355 . S
C527 C529 1.419 . S
C528 C526 1.415 . S
C528 C533 1.425 . S
C528 C535 1.409 . S
C529 H521 0.930 . S
C529 C527 1.419 . S
C529 C530 1.362 . S
C530 H522 0.930 . S
C530 C529 1.362 . S
C530 C533 1.409 . S
C531 H523 0.930 . S
C531 C532 1.355 . S
C531 C533 1.415 . S
C532 C531 1.355 . S
C532 C534 1.419 . S
C533 C528 1.425 . S
C533 C530 1.409 . S
C533 C531 1.415 . S
C534 H524 0.930 . S
C534 C532 1.419 . S
C534 C535 1.362 . S
C535 H525 0.930 . S
C535 C528 1.409 . S
C535 C534 1.362 . S
H536 C542 0.930 . S
H537 C545 0.930 . S
H538 C546 0.931 1_545 S
H539 C547 0.930 . S
H540 C550 0.930 . S
H541 C551 0.930 . S
C542 H536 0.930 . S
C542 C543 1.355 . S
C542 C544 1.415 1_565 S
C543 C542 1.355 . S
C543 C545 1.419 . S
C544 C542 1.415 1_545 S
C544 C549 1.425 . S
C544 C551 1.409 . S
C545 H537 0.930 . S
C545 C543 1.419 . S
C545 C546 1.362 . S
C546 H538 0.931 1_565 S
C546 C545 1.362 . S
C546 C549 1.409 1_565 S
C547 H539 0.930 . S
C547 C548 1.355 . S
C547 C549 1.415 . S
C548 C547 1.355 . S
C548 C550 1.419 . S
C549 C544 1.425 . S
C549 C546 1.409 1_545 S
C549 C547 1.415 . S
C550 H540 0.930 . S
C550 C548 1.419 . S
C550 C551 1.362 . S
C551 H541 0.930 . S
C551 C544 1.409 . S
C551 C550 1.362 . S
H552 C558 0.930 . S
H553 C561 0.930 . S
H554 C562 0.930 . S
H555 C563 0.930 . S
H556 C566 0.930 . S
H557 C567 0.930 . S
C558 H552 0.930 . S
C558 C559 1.355 . S
C558 C560 1.415 . S
C559 C558 1.355 . S
C559 C561 1.419 . S
C560 C558 1.415 . S
C560 C565 1.425 . S
C560 C567 1.409 . S
C561 H553 0.930 . S
C561 C559 1.419 . S
C561 C562 1.362 . S
C562 H554 0.930 . S
C562 C561 1.362 . S
C562 C565 1.409 . S
C563 H555 0.930 . S
C563 C564 1.355 . S
C563 C565 1.415 . S
C564 C563 1.355 . S
C564 C566 1.419 . S
C565 C560 1.425 . S
C565 C562 1.409 . S
C565 C563 1.415 . S
C566 H556 0.930 . S
C566 C564 1.419 . S
C566 C567 1.362 . S
C567 H557 0.930 . S
C567 C560 1.409 . S
C567 C566 1.362 . S
H568 C574 0.930 . S
H569 C577 0.930 . S
H570 C578 0.930 . S
H571 C579 0.930 . S
H572 C582 0.930 . S
H573 C583 0.930 . S
C574 H568 0.930 . S
C574 C575 1.355 . S
C574 C576 1.415 . S
C575 C574 1.355 . S
C575 C577 1.419 . S
C576 C574 1.415 . S
C576 C581 1.425 . S
C576 C583 1.409 . S
C577 H569 0.930 . S
C577 C575 1.419 . S
C577 C578 1.362 . S
C578 H570 0.930 . S
C578 C577 1.362 . S
C578 C581 1.409 . S
C579 H571 0.930 . S
C579 C580 1.355 . S
C579 C581 1.415 . S
C580 C579 1.355 . S
C580 C582 1.419 . S
C581 C576 1.425 . S
C581 C578 1.409 . S
C581 C579 1.415 . S
C582 H572 0.930 . S
C582 C580 1.419 . S
C582 C583 1.362 . S
C583 H573 0.930 . S
C583 C576 1.409 . S
C583 C582 1.362 . S
H584 C590 0.930 . S
H585 C593 0.930 . S
H586 C594 0.930 . S
H587 C595 0.930 1_655 S
H588 C598 0.930 . S
H589 C599 0.930 . S
C590 H584 0.930 . S
C590 C591 1.355 . S
C590 C592 1.415 . S
C591 C590 1.355 . S
C591 C593 1.419 . S
C592 C590 1.415 . S
C592 C597 1.425 . S
C592 C599 1.409 . S
C593 H585 0.930 . S
C593 C591 1.419 . S
C593 C594 1.362 . S
C594 H586 0.930 . S
C594 C593 1.362 . S
C594 C597 1.409 . S
C595 H587 0.930 1_455 S
C595 C596 1.355 1_455 S
C595 C597 1.415 . S
C596 C595 1.355 1_655 S
C596 C598 1.419 1_655 S
C597 C592 1.425 . S
C597 C594 1.409 . S
C597 C595 1.415 . S
C598 H588 0.930 . S
C598 C596 1.419 1_455 S
C598 C599 1.362 . S
C599 H589 0.930 . S
C599 C592 1.409 . S
C599 C598 1.362 . S
H600 C606 0.930 . S
H601 C609 0.930 . S
H602 C610 0.930 . S
H603 C611 0.930 . S
H604 C614 0.930 . S
H605 C615 0.930 . S
C606 H600 0.930 . S
C606 C607 1.355 . S
C606 C608 1.415 . S
C607 C606 1.355 . S
C607 C609 1.419 . S
C608 C606 1.415 . S
C608 C613 1.425 . S
C608 C615 1.409 . S
C609 H601 0.930 . S
C609 C607 1.419 . S
C609 C610 1.362 . S
C610 H602 0.930 . S
C610 C609 1.362 . S
C610 C613 1.409 . S
C611 H603 0.930 . S
C611 C612 1.355 . S
C611 C613 1.415 . S
C612 C611 1.355 . S
C612 C614 1.419 . S
C613 C608 1.425 . S
C613 C610 1.409 . S
C613 C611 1.415 . S
C614 H604 0.930 . S
C614 C612 1.419 . S
C614 C615 1.362 . S
C615 H605 0.930 . S
C615 C608 1.409 . S
C615 C614 1.362 . S
H616 C622 0.930 . S
H617 C625 0.930 . S
H618 C626 0.930 . S
H619 C627 0.930 . S
H620 C630 0.930 . S
H621 C631 0.930 . S
C622 H616 0.930 . S
C622 C623 1.355 . S
C622 C624 1.415 . S
C623 C622 1.355 . S
C623 C625 1.419 . S
C624 C622 1.415 . S
C624 C629 1.425 . S
C624 C631 1.409 . S
C625 H617 0.930 . S
C625 C623 1.419 . S
C625 C626 1.362 . S
C626 H618 0.930 . S
C626 C625 1.362 . S
C626 C629 1.409 . S
C627 H619 0.930 . S
C627 C628 1.355 . S
C627 C629 1.415 . S
C628 C627 1.355 . S
C628 C630 1.419 . S
C629 C624 1.425 . S
C629 C626 1.409 . S
C629 C627 1.415 . S
C630 H620 0.930 . S
C630 C628 1.419 . S
C630 C631 1.362 . S
C631 H621 0.930 . S
C631 C624 1.409 . S
C631 C630 1.362 . S
H632 C638 0.930 . S
H633 C641 0.930 . S
H634 C642 0.930 . S
H635 C643 0.930 . S
H636 C646 0.930 . S
H637 C647 0.930 . S
C638 H632 0.930 . S
C638 C639 1.355 . S
C638 C640 1.415 . S
C639 C638 1.355 . S
C639 C641 1.419 . S
C640 C638 1.415 . S
C640 C645 1.425 . S
C640 C647 1.409 . S
C641 H633 0.930 . S
C641 C639 1.419 . S
C641 C642 1.362 . S
C642 H634 0.930 . S
C642 C641 1.362 . S
C642 C645 1.409 . S
C643 H635 0.930 . S
C643 C644 1.355 . S
C643 C645 1.415 . S
C644 C643 1.355 . S
C644 C646 1.419 . S
C645 C640 1.425 . S
C645 C642 1.409 . S
C645 C643 1.415 . S
C646 H636 0.930 . S
C646 C644 1.419 . S
C646 C647 1.362 . S
C647 H637 0.930 . S
C647 C640 1.409 . S
C647 C646 1.362 . S
H648 C654 0.930 . S
H649 C657 0.930 . S
H650 C658 0.930 . S
H651 C659 0.930 . S
H652 C662 0.930 . S
H653 C663 0.930 . S
C654 H648 0.930 . S
C654 C655 1.355 . S
C654 C656 1.415 . S
C655 C654 1.355 . S
C655 C657 1.419 . S
C656 C654 1.415 . S
C656 C661 1.425 . S
C656 C663 1.409 . S
C657 H649 0.930 . S
C657 C655 1.419 . S
C657 C658 1.362 . S
C658 H650 0.930 . S
C658 C657 1.362 . S
C658 C661 1.409 . S
C659 H651 0.930 . S
C659 C660 1.355 . S
C659 C661 1.415 . S
C660 C659 1.355 . S
C660 C662 1.419 . S
C661 C656 1.425 . S
C661 C658 1.409 . S
C661 C659 1.415 . S
C662 H652 0.930 . S
C662 C660 1.419 . S
C662 C663 1.362 . S
C663 H653 0.930 . S
C663 C656 1.409 . S
C663 C662 1.362 . S
H664 C670 0.930 . S
H665 C673 0.930 . S
H666 C674 0.930 . S
H667 C675 0.930 . S
H668 C678 0.930 . S
H669 C679 0.930 . S
C670 H664 0.930 . S
C670 C671 1.355 . S
C670 C672 1.415 . S
C671 C670 1.355 . S
C671 C673 1.419 . S
C672 C670 1.415 . S
C672 C677 1.425 . S
C672 C679 1.409 . S
C673 H665 0.930 . S
C673 C671 1.419 . S
C673 C674 1.362 . S
C674 H666 0.930 . S
C674 C673 1.362 . S
C674 C677 1.409 . S
C675 H667 0.930 . S
C675 C676 1.355 . S
C675 C677 1.415 . S
C676 C675 1.355 . S
C676 C678 1.419 . S
C677 C672 1.425 . S
C677 C674 1.409 . S
C677 C675 1.415 . S
C678 H668 0.930 . S
C678 C676 1.419 . S
C678 C679 1.362 . S
C679 H669 0.930 . S
C679 C672 1.409 . S
C679 C678 1.362 . S
H680 C686 0.930 . S
H681 C689 0.930 . S
H682 C690 0.930 . S
H683 C691 0.930 . S
H684 C694 0.930 . S
H685 C695 0.930 . S
C686 H680 0.930 . S
C686 C687 1.355 . S
C686 C688 1.415 . S
C687 C686 1.355 . S
C687 C689 1.419 . S
C688 C686 1.415 . S
C688 C693 1.425 . S
C688 C695 1.409 . S
C689 H681 0.930 . S
C689 C687 1.419 . S
C689 C690 1.362 . S
C690 H682 0.930 . S
C690 C689 1.362 . S
C690 C693 1.409 . S
C691 H683 0.930 . S
C691 C692 1.355 . S
C691 C693 1.415 . S
C692 C691 1.355 . S
C692 C694 1.419 . S
C693 C688 1.425 . S
C693 C690 1.409 . S
C693 C691 1.415 . S
C694 H684 0.930 . S
C694 C692 1.419 . S
C694 C695 1.362 . S
C695 H685 0.930 . S
C695 C688 1.409 . S
C695 C694 1.362 . S
H696 C702 0.930 . S
H697 C705 0.930 . S
H698 C706 0.930 . S
H699 C707 0.930 . S
H700 C710 0.930 . S
H701 C711 0.930 . S
C702 H696 0.930 . S
C702 C703 1.355 . S
C702 C704 1.415 . S
C703 C702 1.355 . S
C703 C705 1.419 . S
C704 C702 1.415 . S
C704 C709 1.425 . S
C704 C711 1.409 . S
C705 H697 0.930 . S
C705 C703 1.419 . S
C705 C706 1.362 . S
C706 H698 0.930 . S
C706 C705 1.362 . S
C706 C709 1.409 . S
C707 H699 0.930 . S
C707 C708 1.355 . S
C707 C709 1.415 . S
C708 C707 1.355 . S
C708 C710 1.419 . S
C709 C704 1.425 . S
C709 C706 1.409 . S
C709 C707 1.415 . S
C710 H700 0.930 . S
C710 C708 1.419 . S
C710 C711 1.362 . S
C711 H701 0.930 . S
C711 C704 1.409 . S
C711 C710 1.362 . S
H712 C718 0.930 . S
H713 C721 0.930 . S
H714 C722 0.930 . S
H715 C723 0.930 . S
H716 C726 0.930 1_554 S
H717 C727 0.930 . S
C718 H712 0.930 . S
C718 C719 1.355 . S
C718 C720 1.429 . S
C719 C718 1.355 . S
C719 C721 1.419 1_554 S
C720 C718 1.429 . S
C720 C725 1.401 1_554 S
C720 C727 1.419 . S
C721 H713 0.930 . S
C721 C719 1.419 1_556 S
C721 C722 1.362 . S
C722 H714 0.930 . S
C722 C721 1.362 . S
C722 C725 1.409 . S
C723 H715 0.930 . S
C723 C724 1.355 . S
C723 C725 1.415 . S
C724 C723 1.355 . S
C724 C726 1.419 . S
C725 C720 1.401 1_556 S
C725 C722 1.409 . S
C725 C723 1.415 . S
C726 H716 0.930 1_556 S
C726 C724 1.419 . S
C726 C727 1.362 1_556 S
C727 H717 0.930 . S
C727 C720 1.419 . S
C727 C726 1.362 1_554 S
H728 C734 0.930 . S
H729 C737 0.930 . S
H730 C738 0.930 . S
H731 C739 0.930 . S
H732 C742 0.930 . S
H733 C743 0.930 . S
C734 H728 0.930 . S
C734 C735 1.355 . S
C734 C736 1.415 . S
C735 C734 1.355 . S
C735 C737 1.419 . S
C736 C734 1.415 . S
C736 C741 1.425 . S
C736 C743 1.409 . S
C737 H729 0.930 . S
C737 C735 1.419 . S
C737 C738 1.362 . S
C738 H730 0.930 . S
C738 C737 1.362 . S
C738 C741 1.409 . S
C739 H731 0.930 . S
C739 C740 1.355 . S
C739 C741 1.415 . S
C740 C739 1.355 . S
C740 C742 1.419 . S
C741 C736 1.425 . S
C741 C738 1.409 . S
C741 C739 1.415 . S
C742 H732 0.930 . S
C742 C740 1.419 . S
C742 C743 1.362 . S
C743 H733 0.930 . S
C743 C736 1.409 . S
C743 C742 1.362 . S
H744 C750 0.930 . S
H745 C753 0.930 . S
H746 C754 0.930 . S
H747 C755 0.930 . S
H748 C758 0.930 . S
H749 C759 0.930 . S
C750 H744 0.930 . S
C750 C751 1.355 . S
C750 C752 1.415 . S
C751 C750 1.355 . S
C751 C753 1.419 . S
C752 C750 1.415 . S
C752 C757 1.425 . S
C752 C759 1.409 . S
C753 H745 0.930 . S
C753 C751 1.419 . S
C753 C754 1.362 . S
C754 H746 0.930 . S
C754 C753 1.362 . S
C754 C757 1.409 . S
C755 H747 0.930 . S
C755 C756 1.355 . S
C755 C757 1.415 . S
C756 C755 1.355 . S
C756 C758 1.419 . S
C757 C752 1.425 . S
C757 C754 1.409 . S
C757 C755 1.415 . S
C758 H748 0.930 . S
C758 C756 1.419 . S
C758 C759 1.362 . S
C759 H749 0.930 . S
C759 C752 1.409 . S
C759 C758 1.362 . S
C383 C8 1.617 . S
C388 C119 1.503 . S
C399 C31 1.875 . S
C404 C155 1.704 . S
C415 C53 1.516 . S
C420 C191 1.457 . S
C436 C221 1.518 . S
C431 C74 1.651 . S
C452 C263 1.473 . S
C447 C26 1.489 . S
C463 C48 1.843 . S
C468 C293 1.709 . S
C479 C71 1.608 . S
C484 C329 1.479 . S
C495 C5 1.673 . S
C500 C371 1.495 . S
C511 C50 1.620 . S
C516 C341 1.447 . S
C532 C233 1.798 . S
C527 C70 1.869 . S
C548 C299 1.478 . S
C543 C4 1.507 . S
C559 C28 1.680 . S
C564 C335 1.517 . S
C580 C125 1.491 . S
C575 C73 1.455 . S
C591 C7 1.874 . S
C596 C185 1.726 . S
C612 C227 1.428 . S
C607 C30 1.647 . S
C628 C89 1.577 . S
C623 C52 1.639 . S
C644 C305 1.426 . S
C639 C9 1.454 . S
C660 C365 1.322 . S
C655 C29 1.397 . S
C671 C51 1.637 . S
C676 C257 1.604 . S
C692 C269 1.586 . S
C687 C75 1.614 . S
C708 C161 1.536 . S
C703 C27 1.629 . S
C719 C49 1.443 . S
C724 C197 1.419 . S
C740 C113 1.342 . S
C735 C72 1.401 . S
C756 C149 1.603 . S
C751 C6 1.648 . S
