# Generated by pormake.
# Topology zzz, (3,6)-cn, num edge types: 1
# Building blocks:
#     Node 0, Type 0, BuildingBlock: VETTIZ_charged_linker_0, # of connection points: 3
#     Node 1, Type 0, BuildingBlock: VETTIZ_charged_linker_0, # of connection points: 3
#     Node 2, Type 0, BuildingBlock: VETTIZ_charged_linker_0, # of connection points: 3
#     Node 3, Type 0, BuildingBlock: VETTIZ_charged_linker_0, # of connection points: 3
#     Node 4, Type 0, BuildingBlock: VETTIZ_charged_linker_0, # of connection points: 3
#     Node 5, Type 0, BuildingBlock: VETTIZ_charged_linker_0, # of connection points: 3
#     Node 6, Type 0, BuildingBlock: VETTIZ_charged_linker_0, # of connection points: 3
#     Node 7, Type 0, BuildingBlock: VETTIZ_charged_linker_0, # of connection points: 3
#     Node 8, Type 1, BuildingBlock: FUNLAD_clean_sbu_0, # of connection points: 6
#     Node 9, Type 1, BuildingBlock: FUNLAD_clean_sbu_0, # of connection points: 6
#     Node 10, Type 1, BuildingBlock: FUNLAD_clean_sbu_0, # of connection points: 6
#     Node 11, Type 1, BuildingBlock: FUNLAD_clean_sbu_0, # of connection points: 6
#     Edge 12, Type (0, 1), BuildingBlock: ZUJKAS_clean_linker_0, # of connection points: 2
#     Edge 13, Type (0, 1), BuildingBlock: ZUJKAS_clean_linker_0, # of connection points: 2
#     Edge 14, Type (0, 1), BuildingBlock: ZUJKAS_clean_linker_0, # of connection points: 2
#     Edge 15, Type (0, 1), BuildingBlock: ZUJKAS_clean_linker_0, # of connection points: 2
#     Edge 16, Type (0, 1), BuildingBlock: ZUJKAS_clean_linker_0, # of connection points: 2
#     Edge 17, Type (0, 1), BuildingBlock: ZUJKAS_clean_linker_0, # of connection points: 2
#     Edge 18, Type (0, 1), BuildingBlock: ZUJKAS_clean_linker_0, # of connection points: 2
#     Edge 19, Type (0, 1), BuildingBlock: ZUJKAS_clean_linker_0, # of connection points: 2
#     Edge 20, Type (0, 1), BuildingBlock: ZUJKAS_clean_linker_0, # of connection points: 2
#     Edge 21, Type (0, 1), BuildingBlock: ZUJKAS_clean_linker_0, # of connection points: 2
#     Edge 22, Type (0, 1), BuildingBlock: ZUJKAS_clean_linker_0, # of connection points: 2
#     Edge 23, Type (0, 1), BuildingBlock: ZUJKAS_clean_linker_0, # of connection points: 2
#     Edge 24, Type (0, 1), BuildingBlock: ZUJKAS_clean_linker_0, # of connection points: 2
#     Edge 25, Type (0, 1), BuildingBlock: ZUJKAS_clean_linker_0, # of connection points: 2
#     Edge 26, Type (0, 1), BuildingBlock: ZUJKAS_clean_linker_0, # of connection points: 2
#     Edge 27, Type (0, 1), BuildingBlock: ZUJKAS_clean_linker_0, # of connection points: 2
#     Edge 28, Type (0, 1), BuildingBlock: ZUJKAS_clean_linker_0, # of connection points: 2
#     Edge 29, Type (0, 1), BuildingBlock: ZUJKAS_clean_linker_0, # of connection points: 2
#     Edge 30, Type (0, 1), BuildingBlock: ZUJKAS_clean_linker_0, # of connection points: 2
#     Edge 31, Type (0, 1), BuildingBlock: ZUJKAS_clean_linker_0, # of connection points: 2
#     Edge 32, Type (0, 1), BuildingBlock: ZUJKAS_clean_linker_0, # of connection points: 2
#     Edge 33, Type (0, 1), BuildingBlock: ZUJKAS_clean_linker_0, # of connection points: 2
#     Edge 34, Type (0, 1), BuildingBlock: ZUJKAS_clean_linker_0, # of connection points: 2
#     Edge 35, Type (0, 1), BuildingBlock: ZUJKAS_clean_linker_0, # of connection points: 2
# Relax obj value: 0.295
# Max RMSD: 0.223
# Mean RMSD: 0.194
data_MOF--net-zzz--node1-FUNLAD_clean_sbu_0--node2-VETTIZ_charged_linker_0--edge1-ZUJKAS_clean_linker_0
_symmetry_space_group_name_H-M    P1
_symmetry_Int_Tables_number       1
_symmetry_cell_setting            triclinic
loop_
_symmetry_equiv_pos_as_xyz
'x, y, z'
_cell_length_a     70.695561
_cell_length_b     75.660105
_cell_length_c     27.861482
_cell_angle_alpha  87.452811
_cell_angle_beta   87.287999
_cell_angle_gamma 92.151394
loop_
_atom_site_label
_atom_site_type_symbol
_atom_site_fract_x
_atom_site_fract_y
_atom_site_fract_z
_atom_type_partial_charge
C0 C 0.82912 0.4615 0.31443 0.0
C1 C 0.84644 0.45654 0.3331 0.0
C2 C 0.85707 0.4438 0.30963 0.0
C3 C 0.83405 0.44196 0.24846 0.0
C4 C 0.82308 0.45383 0.2724 0.0
C5 C 0.80491 0.45707 0.2476 0.0
H6 H 0.75115 0.44255 0.05605 0.0
C7 C 0.82452 0.43709 0.20476 0.0
C8 C 0.80719 0.44558 0.2043 0.0
H9 H 0.73753 0.4743 0.17722 0.0
H10 H 0.76709 0.46681 0.21243 0.0
H11 H 0.79188 0.45621 0.0408 0.0
H12 H 0.76829 0.40934 0.117 0.0
H13 H 0.78844 0.40325 0.08295 0.0
H14 H 0.7689 0.41265 0.05273 0.0
H15 H 0.78589 0.43659 0.01017 0.0
H16 H 0.80901 0.44031 0.03353 0.0
C17 C 0.80463 0.47698 0.23251 0.0
C18 C 0.7881 0.45037 0.28207 0.0
C19 C 0.86108 0.40509 0.0764 0.0
C20 C 0.85714 0.40135 0.02885 0.0
C21 C 0.83852 0.40303 0.01378 0.0
C22 C 0.82443 0.40964 0.04438 0.0
C23 C 0.82906 0.41483 0.09036 0.0
C24 C 0.84694 0.41194 0.10629 0.0
C25 C 0.84951 0.41875 0.15556 0.0
C26 C 0.83052 0.42698 0.16552 0.0
C27 C 0.81866 0.42467 0.1272 0.0
C28 C 0.8661 0.43284 0.1517 0.0
C29 C 0.85254 0.40272 0.19069 0.0
C30 C 0.75431 0.44765 0.09064 0.0
C31 C 0.74187 0.45885 0.11413 0.0
C32 C 0.7469 0.46565 0.15834 0.0
C33 C 0.76402 0.46123 0.1788 0.0
C34 C 0.77632 0.45001 0.1546 0.0
C35 C 0.77129 0.44345 0.11127 0.0
C36 C 0.78624 0.43234 0.08926 0.0
C37 C 0.8009 0.43281 0.12712 0.0
C38 C 0.79514 0.44323 0.16537 0.0
C39 C 0.79364 0.44166 0.0408 0.0
C40 C 0.77761 0.41339 0.08479 0.0
H41 H 0.85988 0.4271 0.25122 0.0
H42 H 0.82053 0.47107 0.33212 0.0
H43 H 0.79168 0.43813 0.30276 0.0
H44 H 0.77534 0.44662 0.26295 0.0
H45 H 0.78442 0.46047 0.30836 0.0
H46 H 0.81884 0.4819 0.21768 0.0
H47 H 0.80077 0.48495 0.2638 0.0
H48 H 0.79482 0.47979 0.20377 0.0
H49 H 0.8753 0.40411 0.08889 0.0
H50 H 0.83509 0.40002 0.97747 0.0
H51 H 0.81071 0.41119 0.03024 0.0
H52 H 0.86515 0.44165 0.11891 0.0
H53 H 0.88 0.42647 0.14935 0.0
H54 H 0.86614 0.44176 0.18189 0.0
H55 H 0.84659 0.39016 0.17722 0.0
H56 H 0.84508 0.40397 0.22619 0.0
H57 H 0.86784 0.40091 0.19589 0.0
H58 H 0.87051 0.43987 0.32297 0.0
C59 C 0.85095 0.43648 0.26768 0.0
C60 C 0.95957 0.80836 1.00067 0.0
C61 C 0.96125 0.82668 0.00707 0.0
C62 C 0.95481 0.83331 0.05115 0.0
C63 C 0.94743 0.8035 0.08328 0.0
C64 C 0.95262 0.79704 0.03921 0.0
C65 C 0.95063 0.77716 0.03958 0.0
H66 H 0.94216 0.69871 0.16584 0.0
C67 C 0.94325 0.78828 0.1175 0.0
C68 C 0.94505 0.7728 0.09238 0.0
H69 H 0.94475 0.70893 0.0117 0.0
H70 H 0.94464 0.74021 0.02232 0.0
H71 H 0.97113 0.73186 0.19199 0.0
H72 H 0.90988 0.73 0.18767 0.0
H73 H 0.91736 0.73861 0.24195 0.0
H74 H 0.92213 0.71611 0.22898 0.0
H75 H 0.95645 0.71856 0.23511 0.0
H76 H 0.96098 0.74187 0.24244 0.0
C77 C 0.97018 0.76994 0.0249 0.0
C78 C 0.93457 0.77206 0.00599 0.0
C79 C 0.9331 0.80044 0.29289 0.0
C80 C 0.93348 0.79007 0.33557 0.0
C81 C 0.93528 0.77163 0.33329 0.0
C82 C 0.93651 0.76369 0.28837 0.0
C83 C 0.93646 0.77443 0.24567 0.0
C84 C 0.93497 0.79253 0.24886 0.0
C85 C 0.93759 0.80242 0.20122 0.0
C86 C 0.94007 0.78732 0.1681 0.0
C87 C 0.93917 0.77084 0.19381 0.0
C88 C 0.95578 0.81466 0.20199 0.0
C89 C 0.9192 0.81226 0.19177 0.0
C90 C 0.94268 0.70781 0.13465 0.0
C91 C 0.9435 0.70145 0.08783 0.0
C92 C 0.94399 0.71357 0.04797 0.0
C93 C 0.944 0.73174 0.05417 0.0
C94 C 0.94349 0.73801 0.10075 0.0
C95 C 0.94231 0.72622 0.14025 0.0
C96 C 0.94059 0.73572 0.18679 0.0
C97 C 0.94076 0.755 0.16825 0.0
C98 C 0.94306 0.7561 0.11777 0.0
C99 C 0.9581 0.73178 0.21605 0.0
C100 C 0.92154 0.72981 0.21314 0.0
H101 H 0.94352 0.82772 0.12194 0.0
H102 H 0.96397 0.80294 0.96678 0.0
H103 H 0.92546 0.78337 0.9977 0.0
H104 H 0.92468 0.7616 0.02284 0.0
H105 H 0.9404 0.76754 0.97111 0.0
H106 H 0.98154 0.77644 0.045 0.0
H107 H 0.97362 0.77257 0.98586 0.0
H108 H 0.9711 0.75561 0.03285 0.0
H109 H 0.93249 0.81473 0.29373 0.0
H110 H 0.93595 0.76347 0.36606 0.0
H111 H 0.93793 0.74961 0.28849 0.0
H112 H 0.96532 0.8103 0.23051 0.0
H113 H 0.95223 0.82854 0.20877 0.0
H114 H 0.96474 0.81449 0.16838 0.0
H115 H 0.90647 0.80381 0.20365 0.0
H116 H 0.91751 0.81554 0.1532 0.0
H117 H 0.91867 0.82462 0.2118 0.0
H118 H 0.95596 0.84735 0.05714 0.0
C119 C 0.94782 0.82184 0.08908 0.0
C120 C 0.80766 0.00784 0.071 0.0
C121 C 0.81482 0.01284 0.0237 0.0
C122 C 0.8026 0.02106 0.99179 0.0
C123 C 0.77781 0.02138 0.0544 0.0
C124 C 0.78902 0.01227 0.08561 0.0
C125 C 0.77848 0.00827 0.13398 0.0
H126 H 0.70095 0.02602 0.28002 0.0
C127 C 0.76011 0.02573 0.08057 0.0
C128 C 0.7603 0.01836 0.12786 0.0
H129 H 0.74219 0.98708 0.31111 0.0
H130 H 0.75955 0.99531 0.23471 0.0
H131 H 0.72849 0.05658 0.23208 0.0
H132 H 0.69542 0.01372 0.1787 0.0
H133 H 0.6925 0.0319 0.13918 0.0
H134 H 0.68525 0.03321 0.20157 0.0
H135 H 0.70349 0.05785 0.22511 0.0
H136 H 0.72057 0.06481 0.17698 0.0
C137 C 0.79029 0.01553 0.17437 0.0
C138 C 0.77435 0.98808 0.13944 0.0
C139 C 0.71069 0.06054 0.99379 0.0
C140 C 0.69367 0.06793 0.01011 0.0
C141 C 0.68985 0.0688 0.06008 0.0
C142 C 0.70164 0.06088 0.09296 0.0
C143 C 0.71754 0.05205 0.07592 0.0
C144 C 0.72247 0.05286 0.02737 0.0
C145 C 0.74086 0.04407 0.01663 0.0
C146 C 0.7452 0.03659 0.06643 0.0
C147 C 0.73124 0.04098 0.10052 0.0
C148 C 0.75572 0.05861 0.99707 0.0
C149 C 0.73711 0.02911 0.98163 0.0
C150 C 0.71392 0.01945 0.271 0.0
C151 C 0.72035 0.00614 0.3019 0.0
C152 C 0.73697 0.99747 0.28787 0.0
C153 C 0.74691 0.00216 0.24346 0.0
C154 C 0.73982 0.01525 0.21225 0.0
C155 C 0.72347 0.02349 0.22666 0.0
C156 C 0.71637 0.03559 0.1883 0.0
C157 C 0.73098 0.03336 0.14791 0.0
C158 C 0.74511 0.02175 0.16176 0.0
C159 C 0.71709 0.05471 0.20635 0.0
C160 C 0.69632 0.02845 0.1762 0.0
H161 H 0.77604 0.03177 0.98055 0.0
H162 H 0.81648 0.00112 0.09614 0.0
H163 H 0.76984 0.9828 0.10495 0.0
H164 H 0.76264 0.98444 0.16598 0.0
H165 H 0.7872 0.98111 0.14986 0.0
H166 H 0.79448 0.0297 0.16622 0.0
H167 H 0.8034 0.00805 0.17814 0.0
H168 H 0.78233 0.01474 0.20949 0.0
H169 H 0.71431 0.05984 0.95575 0.0
H170 H 0.67727 0.075 0.07386 0.0
H171 H 0.69744 0.06134 0.13035 0.0
H172 H 0.75136 0.07214 0.00556 0.0
H173 H 0.7579 0.05841 0.95736 0.0
H174 H 0.76956 0.05729 0.01366 0.0
H175 H 0.72359 0.02166 0.99228 0.0
H176 H 0.74812 0.01913 0.98167 0.0
H177 H 0.73601 0.0346 0.94426 0.0
H178 H 0.80725 0.02437 0.95475 0.0
C179 C 0.78435 0.02538 0.00681 0.0
C180 C 0.56825 0.69439 0.31551 0.0
C181 C 0.56663 0.67609 0.32759 0.0
C182 C 0.56059 0.66432 0.29336 0.0
C183 C 0.5573 0.68873 0.23595 0.0
C184 C 0.56362 0.70043 0.26901 0.0
C185 C 0.56461 0.71931 0.24827 0.0
H186 H 0.5543 0.77498 0.05215 0.0
C187 C 0.55323 0.69886 0.19156 0.0
C188 C 0.55761 0.71684 0.19788 0.0
H189 H 0.57259 0.7896 0.19102 0.0
H190 H 0.56845 0.75885 0.22103 0.0
H191 H 0.57632 0.73839 0.04489 0.0
H192 H 0.52 0.75129 0.09293 0.0
H193 H 0.51766 0.73076 0.06657 0.0
H194 H 0.52658 0.74993 0.0303 0.0
H195 H 0.559 0.74674 0.00551 0.0
H196 H 0.5602 0.72342 0.02022 0.0
C197 C 0.58549 0.72618 0.24693 0.0
C198 C 0.55101 0.73031 0.2788 0.0
C199 C 0.52621 0.66584 0.05448 0.0
C200 C 0.52065 0.67115 0.00849 0.0
C201 C 0.52231 0.68922 0.99378 0.0
C202 C 0.52969 0.70176 0.02431 0.0
C203 C 0.53538 0.69616 0.07012 0.0
C204 C 0.53348 0.67846 0.08441 0.0
C205 C 0.54 0.6748 0.13419 0.0
C206 C 0.54596 0.69329 0.14791 0.0
C207 C 0.54336 0.7057 0.11028 0.0
C208 C 0.55708 0.66251 0.13049 0.0
C209 C 0.52272 0.66707 0.16586 0.0
C210 C 0.55764 0.77152 0.08887 0.0
C211 C 0.56414 0.78451 0.11903 0.0
C212 C 0.56774 0.77967 0.16709 0.0
C213 C 0.56538 0.76186 0.18428 0.0
C214 C 0.55911 0.74891 0.15315 0.0
C215 C 0.55509 0.75401 0.10654 0.0
C216 C 0.54756 0.73899 0.07882 0.0
C217 C 0.54827 0.7238 0.11569 0.0
C218 C 0.55518 0.72949 0.1593 0.0
C219 C 0.56133 0.73672 0.03478 0.0
C220 C 0.52694 0.74287 0.06604 0.0
H221 H 0.55126 0.66076 0.22381 0.0
H222 H 0.57293 0.70366 0.34142 0.0
H223 H 0.53752 0.72262 0.28831 0.0
H224 H 0.54687 0.74249 0.25943 0.0
H225 H 0.55743 0.73392 0.31283 0.0
H226 H 0.59503 0.71596 0.23326 0.0
H227 H 0.58979 0.72938 0.28349 0.0
H228 H 0.5883 0.73797 0.22262 0.0
H229 H 0.52483 0.65209 0.06721 0.0
H230 H 0.51821 0.69361 0.95835 0.0
H231 H 0.5308 0.71529 0.01092 0.0
H232 H 0.56486 0.6643 0.09482 0.0
H233 H 0.55239 0.64834 0.13531 0.0
H234 H 0.56794 0.66548 0.15664 0.0
H235 H 0.50943 0.67328 0.15526 0.0
H236 H 0.52368 0.66972 0.20433 0.0
H237 H 0.52079 0.65257 0.16205 0.0
H238 H 0.55927 0.65021 0.30223 0.0
C239 C 0.55591 0.67051 0.24782 0.0
C240 C 0.29176 0.54147 0.2422 0.0
C241 C 0.29989 0.5475 0.28403 0.0
C242 C 0.29027 0.5599 0.31138 0.0
C243 C 0.26463 0.55962 0.25692 0.0
C244 C 0.27423 0.54787 0.22905 0.0
C245 C 0.26354 0.54328 0.18535 0.0
H246 H 0.18463 0.55297 0.05772 0.0
C247 C 0.24665 0.5634 0.23457 0.0
C248 C 0.246 0.55417 0.19196 0.0
H249 H 0.23172 0.52005 0.02495 0.0
H250 H 0.24748 0.53018 0.09494 0.0
H251 H 0.18047 0.54201 0.16094 0.0
H252 H 0.20939 0.58771 0.09166 0.0
H253 H 0.19669 0.59485 0.14268 0.0
H254 H 0.18409 0.58429 0.09623 0.0
H255 H 0.16815 0.56161 0.14598 0.0
H256 H 0.17872 0.55835 0.20325 0.0
C257 C 0.25859 0.52315 0.18868 0.0
C258 C 0.27579 0.54959 0.13992 0.0
C259 C 0.19619 0.5957 0.32758 0.0
C260 C 0.17721 0.59903 0.31841 0.0
C261 C 0.17091 0.59676 0.27172 0.0
C262 C 0.18278 0.58989 0.2361 0.0
C263 C 0.2011 0.58503 0.24729 0.0
C264 C 0.2078 0.58859 0.29174 0.0
C265 C 0.22759 0.58235 0.29728 0.0
C266 C 0.23111 0.57347 0.24993 0.0
C267 C 0.21552 0.57504 0.22103 0.0
C268 C 0.22715 0.56888 0.34097 0.0
C269 C 0.24104 0.59881 0.30173 0.0
C270 C 0.19855 0.54823 0.06487 0.0
C271 C 0.20709 0.53593 0.0354 0.0
C272 C 0.22489 0.52959 0.04713 0.0
C273 C 0.23398 0.53549 0.0877 0.0
C274 C 0.22504 0.54766 0.11721 0.0
C275 C 0.2076 0.55377 0.10536 0.0
C276 C 0.19941 0.56564 0.14196 0.0
C277 C 0.21497 0.56608 0.17744 0.0
C278 C 0.23004 0.5556 0.16293 0.0
C279 C 0.18067 0.55662 0.16416 0.0
C280 C 0.19709 0.58411 0.11709 0.0
H281 H 0.26613 0.57527 0.3207 0.0
H282 H 0.29892 0.5321 0.22015 0.0
H283 H 0.28278 0.56275 0.14502 0.0
H284 H 0.26742 0.55143 0.1078 0.0
H285 H 0.28708 0.54016 0.13208 0.0
H286 H 0.25459 0.51859 0.22645 0.0
H287 H 0.27087 0.51551 0.17633 0.0
H288 H 0.24624 0.51947 0.16794 0.0
H289 H 0.20156 0.59762 0.36281 0.0
H290 H 0.15637 0.59913 0.26351 0.0
H291 H 0.17689 0.58781 0.20196 0.0
H292 H 0.21459 0.55958 0.34049 0.0
H293 H 0.22627 0.57575 0.37537 0.0
H294 H 0.23951 0.56045 0.34129 0.0
H295 H 0.2351 0.61101 0.28573 0.0
H296 H 0.25482 0.59761 0.28173 0.0
H297 H 0.24361 0.60124 0.33994 0.0
H298 H 0.2961 0.56462 0.34396 0.0
C299 C 0.27278 0.56601 0.298 0.0
C300 C 0.09548 0.19438 0.40319 0.0
C301 C 0.09404 0.17586 0.4004 0.0
C302 C 0.10077 0.16814 0.35809 0.0
C303 C 0.10662 0.19717 0.31948 0.0
C304 C 0.10191 0.20479 0.36229 0.0
C305 C 0.10334 0.22471 0.35738 0.0
H306 H 0.09854 0.29844 0.21504 0.0
C307 C 0.109 0.21135 0.28148 0.0
C308 C 0.10738 0.22757 0.30321 0.0
H309 H 0.10714 0.29408 0.36762 0.0
H310 H 0.1106 0.26264 0.36336 0.0
H311 H 0.13329 0.27056 0.18806 0.0
H312 H 0.0725 0.26136 0.20722 0.0
H313 H 0.0812 0.25168 0.15456 0.0
H314 H 0.08307 0.27534 0.15858 0.0
H315 H 0.11723 0.2802 0.14716 0.0
H316 H 0.12476 0.25788 0.14145 0.0
C317 C 0.12016 0.23129 0.3867 0.0
C318 C 0.08402 0.23197 0.37386 0.0
C319 C 0.10602 0.19309 0.11027 0.0
C320 C 0.10223 0.20198 0.06688 0.0
C321 C 0.10183 0.22062 0.06507 0.0
C322 C 0.10412 0.23011 0.10709 0.0
C323 C 0.10676 0.22078 0.15109 0.0
C324 C 0.10791 0.20257 0.15161 0.0
C325 C 0.10949 0.19436 0.20101 0.0
C326 C 0.10912 0.21061 0.23073 0.0
C327 C 0.10769 0.22616 0.20165 0.0
C328 C 0.1289 0.18556 0.2028 0.0
C329 C 0.092 0.18142 0.21251 0.0
C330 C 0.10115 0.29059 0.24733 0.0
C331 C 0.10235 0.29856 0.2919 0.0
C332 C 0.10612 0.28813 0.33311 0.0
C333 C 0.108 0.26991 0.33072 0.0
C334 C 0.10601 0.26195 0.28674 0.0
C335 C 0.10345 0.27221 0.24545 0.0
C336 C 0.10361 0.2612 0.20146 0.0
C337 C 0.10652 0.24277 0.22366 0.0
C338 C 0.10717 0.24339 0.27394 0.0
C339 C 0.12052 0.26779 0.16733 0.0
C340 C 0.08414 0.26246 0.17882 0.0
H341 H 0.11143 0.17205 0.28617 0.0
H342 H 0.09092 0.20059 0.43581 0.0
H343 H 0.0723 0.22531 0.35537 0.0
H344 H 0.08308 0.24629 0.36585 0.0
H345 H 0.08129 0.22963 0.41326 0.0
H346 H 0.12905 0.2203 0.399 0.0
H347 H 0.11511 0.23794 0.41941 0.0
H348 H 0.13001 0.24055 0.36485 0.0
H349 H 0.10656 0.17878 0.11264 0.0
H350 H 0.09899 0.22775 0.03177 0.0
H351 H 0.1032 0.24424 0.10406 0.0
H352 H 0.14017 0.19395 0.18273 0.0
H353 H 0.12837 0.17247 0.18628 0.0
H354 H 0.1338 0.1839 0.23977 0.0
H355 H 0.08075 0.1831 0.18624 0.0
H356 H 0.08473 0.1837 0.24762 0.0
H357 H 0.09602 0.16738 0.21198 0.0
H358 H 0.09992 0.15392 0.35492 0.0
C359 C 0.10718 0.1787 0.3178 0.0
C360 C 0.31888 0.99661 0.09988 0.0
C361 C 0.33743 0.99251 0.08375 0.0
C362 C 0.34838 0.98214 0.11391 0.0
C363 C 0.32294 0.97997 0.17527 0.0
C364 C 0.31182 0.99001 0.14597 0.0
C365 C 0.29233 0.99222 0.17006 0.0
H366 H 0.23378 0.97469 0.37214 0.0
C367 C 0.31201 0.97499 0.22055 0.0
C368 C 0.29385 0.98191 0.21824 0.0
H369 H 0.21935 0.00388 0.24304 0.0
H370 H 0.25091 0.99954 0.20734 0.0
H371 H 0.25242 0.94385 0.32057 0.0
H372 H 0.27536 0.99153 0.3774 0.0
H373 H 0.29002 0.9744 0.39469 0.0
H374 H 0.26539 0.97322 0.41459 0.0
H375 H 0.25527 0.94587 0.38374 0.0
H376 H 0.27399 0.93816 0.34452 0.0
C377 C 0.2773 0.98368 0.13903 0.0
C378 C 0.28967 0.01211 0.17683 0.0
C379 C 0.34548 0.9428 0.35353 0.0
C380 C 0.33979 0.93659 0.40058 0.0
C381 C 0.32047 0.9373 0.41551 0.0
C382 C 0.30743 0.945 0.3853 0.0
C383 C 0.31365 0.95201 0.33939 0.0
C384 C 0.33225 0.95028 0.32377 0.0
C385 C 0.33633 0.95793 0.27356 0.0
C386 C 0.31725 0.96526 0.26223 0.0
C387 C 0.30412 0.96193 0.30097 0.0
C388 C 0.34162 0.9425 0.24109 0.0
C389 C 0.35193 0.97285 0.27551 0.0
C390 C 0.2371 0.97998 0.33584 0.0
C391 C 0.22376 0.98942 0.31043 0.0
C392 C 0.22927 0.99654 0.26375 0.0
C393 C 0.24758 0.99393 0.24292 0.0
C394 C 0.26058 0.98412 0.26898 0.0
C395 C 0.25503 0.97739 0.3147 0.0
C396 C 0.27012 0.96725 0.33813 0.0
C397 C 0.2858 0.96882 0.29927 0.0
C398 C 0.28046 0.9788 0.25838 0.0
C399 C 0.26265 0.94779 0.3477 0.0
C400 C 0.27553 0.97692 0.3838 0.0
H401 H 0.35063 0.96826 0.18013 0.0
H402 H 0.31014 0.00452 0.07715 0.0
H403 H 0.30237 0.01821 0.19262 0.0
H404 H 0.27752 0.01454 0.20161 0.0
H405 H 0.28761 0.01919 0.14177 0.0
H406 H 0.28167 0.9704 0.12822 0.0
H407 H 0.27548 0.99197 0.10577 0.0
H408 H 0.26339 0.98157 0.15848 0.0
H409 H 0.36014 0.94274 0.34054 0.0
H410 H 0.31548 0.93227 0.45103 0.0
H411 H 0.29309 0.94557 0.39939 0.0
H412 H 0.33586 0.92948 0.25661 0.0
H413 H 0.35723 0.94154 0.23626 0.0
H414 H 0.33547 0.94373 0.20532 0.0
H415 H 0.3499 0.98038 0.30866 0.0
H416 H 0.35168 0.98292 0.24567 0.0
H417 H 0.36626 0.96732 0.27573 0.0
H418 H 0.36265 0.97892 0.10231 0.0
C419 C 0.34131 0.97592 0.15924 0.0
C420 C 0.47188 0.30546 0.07262 0.0
C421 C 0.46955 0.32383 0.06621 0.0
C422 C 0.47162 0.33471 0.1054 0.0
C423 C 0.48025 0.30961 0.1551 0.0
C424 C 0.47688 0.29856 0.11795 0.0
C425 C 0.47916 0.27935 0.13342 0.0
H426 H 0.50866 0.2205 0.30413 0.0
C427 C 0.48714 0.29896 0.19569 0.0
C428 C 0.48637 0.28111 0.18384 0.0
H429 H 0.47983 0.20811 0.17591 0.0
H430 H 0.47876 0.23958 0.15365 0.0
H431 H 0.53599 0.25166 0.25748 0.0
H432 H 0.4817 0.25083 0.33414 0.0
H433 H 0.49591 0.26776 0.35697 0.0
H434 H 0.50323 0.24527 0.36194 0.0
H435 H 0.5337 0.24887 0.32177 0.0
H436 H 0.53612 0.27056 0.29175 0.0
C437 C 0.49401 0.27135 0.09916 0.0
C438 C 0.45942 0.2697 0.13456 0.0
C439 C 0.51418 0.33066 0.33535 0.0
C440 C 0.52414 0.3249 0.37516 0.0
C441 C 0.52762 0.3068 0.38199 0.0
C442 C 0.52097 0.29452 0.34981 0.0
C443 C 0.51092 0.30048 0.31014 0.0
C444 C 0.50792 0.31831 0.30322 0.0
C445 C 0.49812 0.32247 0.25766 0.0
C446 C 0.49537 0.30409 0.23867 0.0
C447 C 0.50271 0.2913 0.26972 0.0
C448 C 0.51194 0.33451 0.22455 0.0
C449 C 0.47894 0.33077 0.27105 0.0
C450 C 0.50234 0.22453 0.27087 0.0
C451 C 0.49453 0.21189 0.24144 0.0
C452 C 0.48596 0.21767 0.19909 0.0
C453 C 0.48527 0.23588 0.18644 0.0
C454 C 0.49286 0.24837 0.21702 0.0
C455 C 0.50116 0.24251 0.25848 0.0
C456 C 0.50756 0.25737 0.28844 0.0
C457 C 0.5013 0.27318 0.25902 0.0
C458 C 0.49298 0.26799 0.21666 0.0
C459 C 0.52945 0.25714 0.29047 0.0
C460 C 0.49671 0.25526 0.33818 0.0
H461 H 0.47872 0.33683 0.17758 0.0
H462 H 0.46998 0.2968 0.04316 0.0
H463 H 0.44793 0.27888 0.14319 0.0
H464 H 0.45773 0.25902 0.16297 0.0
H465 H 0.4566 0.26415 0.09923 0.0
H466 H 0.50704 0.28011 0.09508 0.0
H467 H 0.4884 0.26987 0.06292 0.0
H468 H 0.49845 0.25828 0.11253 0.0
H469 H 0.51165 0.34458 0.3288 0.0
H470 H 0.53529 0.30214 0.41253 0.0
H471 H 0.5239 0.28088 0.3571 0.0
H472 H 0.52676 0.33023 0.2271 0.0
H473 H 0.51162 0.3485 0.23503 0.0
H474 H 0.50914 0.33401 0.18606 0.0
H475 H 0.47344 0.32617 0.30776 0.0
H476 H 0.46759 0.32679 0.24721 0.0
H477 H 0.48038 0.34544 0.2704 0.0
H478 H 0.46987 0.34886 0.10116 0.0
C479 C 0.47694 0.32772 0.14965 0.0
C480 C 0.03504 0.97201 0.72857 0.0
N481 N 1.00096 0.97349 0.61059 0.0
C482 C 0.01239 0.96069 0.59456 0.0
C483 C 1.00479 0.9459 0.57312 0.0
C484 C 0.98516 0.94405 0.56832 0.0
C485 C 0.97367 0.95765 0.58402 0.0
C486 C 0.98192 0.97237 0.60505 0.0
Zn487 Zn 0.01332 0.99234 0.65137 0.0
C488 C 0.98915 0.99863 0.74059 0.0
N489 N 0.04142 0.02686 0.74463 0.0
C490 C 0.06018 0.02742 0.75392 0.0
C491 C 0.03015 0.04036 0.75655 0.0
C492 C 0.03775 0.05549 0.77622 0.0
C493 C 0.05712 0.05674 0.78456 0.0
C494 C 0.06835 0.04229 0.77453 0.0
Zn495 Zn 0.02919 0.00792 0.70396 0.0
O496 O 0.02473 0.97143 0.69248 0.0
C497 C 0.05336 0.00166 0.61477 0.0
O498 O 0.04 0.98688 0.74451 0.0
H499 H 0.0153 0.03978 0.74887 0.0
H500 H 0.0274 0.96151 0.60028 0.0
H501 H 0.06894 0.01664 0.74375 0.0
O502 O 0.03801 0.99388 0.60381 0.0
O503 O 0.05403 0.00877 0.65531 0.0
H504 H 0.97303 0.98258 0.61841 0.0
O505 O 0.01782 0.02865 0.66296 0.0
O506 O 1.00241 0.01352 0.61063 0.0
O507 O 1.00447 0.00646 0.75162 0.0
O508 O 0.98856 0.99148 0.7001 0.0
C509 C 0.00739 0.02827 0.62718 0.0
H510 H 0.01417 0.93564 0.56234 0.0
H511 H 0.95847 0.9568 0.58067 0.0
H512 H 0.02861 0.06627 0.78414 0.0
H513 H 0.08337 0.04282 0.78064 0.0
C514 C 0.50299 0.97597 0.63511 0.0
N515 N 0.51462 0.03059 0.61268 0.0
C516 C 0.51634 0.02782 0.56477 0.0
C517 C 0.51239 0.04118 0.53093 0.0
C518 C 0.50649 0.05762 0.54632 0.0
C519 C 0.50463 0.06005 0.5961 0.0
C520 C 0.50881 0.04632 0.62876 0.0
Zn521 Zn 0.5214 0.01054 0.66028 0.0
C522 C 0.49326 0.00499 0.74392 0.0
N523 N 0.53564 0.96755 0.75555 0.0
C524 C 0.54034 0.95153 0.73919 0.0
C525 C 0.53505 0.97052 0.80342 0.0
C526 C 0.53914 0.95708 0.83694 0.0
C527 C 0.54389 0.94035 0.82121 0.0
C528 C 0.54452 0.93771 0.7715 0.0
Zn529 Zn 0.52883 0.98761 0.70813 0.0
O530 O 0.50506 0.99232 0.62267 0.0
C531 C 0.55702 0.99314 0.62486 0.0
O532 O 0.51156 0.96985 0.67092 0.0
H533 H 0.53131 0.98334 0.81574 0.0
H534 H 0.52099 0.01524 0.55264 0.0
H535 H 0.54068 0.94942 0.70103 0.0
O536 O 0.54603 0.00568 0.6158 0.0
O537 O 0.55312 0.9828 0.66163 0.0
H538 H 0.50749 0.04825 0.66698 0.0
O539 O 0.54577 0.00574 0.74442 0.0
O540 O 0.53806 0.02844 0.69857 0.0
O541 O 0.50461 0.99281 0.75361 0.0
O542 O 0.49672 0.01496 0.70619 0.0
C543 C 0.54733 0.02221 0.73302 0.0
H544 H 0.51434 0.03873 0.49306 0.0
H545 H 0.49988 0.07238 0.60977 0.0
H546 H 0.53872 0.95984 0.87477 0.0
H547 H 0.54786 0.92498 0.75768 0.0
C548 C 0.53886 0.47586 0.63032 0.0
N549 N 0.48612 0.49932 0.62346 0.0
C550 C 0.48973 0.50165 0.57514 0.0
C551 C 0.47486 0.50272 0.54403 0.0
C552 C 0.45601 0.50136 0.56269 0.0
C553 C 0.45271 0.4987 0.61271 0.0
C554 C 0.46803 0.49773 0.64255 0.0
Zn555 Zn 0.50852 0.49899 0.66761 0.0
C556 C 0.50515 0.46993 0.74292 0.0
N557 N 0.55631 0.49861 0.75637 0.0
C558 C 0.5745 0.49955 0.73786 0.0
C559 C 0.55242 0.49681 0.80469 0.0
C560 C 0.56706 0.49561 0.83639 0.0
C561 C 0.58599 0.49619 0.81837 0.0
C562 C 0.58962 0.49837 0.76834 0.0
Zn563 Zn 0.53402 0.49899 0.71191 0.0
O564 O 0.52251 0.48146 0.62238 0.0
C565 C 0.53751 0.52805 0.63694 0.0
O566 O 0.54756 0.48127 0.6661 0.0
H567 H 0.53787 0.4961 0.81874 0.0
H568 H 0.50421 0.50294 0.56066 0.0
H569 H 0.57729 0.50094 0.69935 0.0
O570 O 0.52151 0.52114 0.62756 0.0
O571 O 0.54659 0.52126 0.67107 0.0
H572 H 0.46547 0.49586 0.68106 0.0
O573 O 0.52001 0.51649 0.75702 0.0
O574 O 0.49494 0.51673 0.71343 0.0
O575 O 0.52116 0.47693 0.75181 0.0
O576 O 0.49594 0.47663 0.7089 0.0
C577 C 0.50366 0.5221 0.74922 0.0
H578 H 0.47812 0.50503 0.50585 0.0
H579 H 0.43844 0.49735 0.62868 0.0
H580 H 0.56357 0.49422 0.87467 0.0
H581 H 0.60396 0.49869 0.75276 0.0
C582 C 0.03998 0.52743 0.62945 0.0
N583 N 0.03841 0.47214 0.61784 0.0
C584 C 0.03762 0.47558 0.5696 0.0
C585 C 0.04356 0.46314 0.53707 0.0
C586 C 0.05022 0.44692 0.5543 0.0
C587 C 0.05107 0.4438 0.60424 0.0
C588 C 0.04514 0.45667 0.63549 0.0
Zn589 Zn 0.02834 0.4903 0.66427 0.0
C590 C 0.05482 0.4989 0.73949 0.0
N591 N 0.00637 0.52893 0.75755 0.0
C592 C 0.99831 0.54385 0.74054 0.0
C593 C 0.00799 0.52566 0.80559 0.0
C594 C 1.00147 0.53767 0.8386 0.0
C595 C 0.99315 0.55324 0.82215 0.0
C596 C 0.99157 0.55623 0.77234 0.0
Zn597 Zn 0.01657 0.51091 0.71089 0.0
O598 O 0.04156 0.51121 0.62042 0.0
C599 C 0.99017 0.50231 0.63543 0.0
O600 O 0.03 0.53151 0.66617 0.0
H601 H 0.01438 0.51369 0.81843 0.0
H602 H 0.03209 0.4879 0.55626 0.0
H603 H 0.99721 0.54622 0.70223 0.0
O604 O 1.00346 0.49206 0.62504 0.0
O605 O 0.99172 0.51225 0.67079 0.0
H606 H 0.04572 0.45421 0.67392 0.0
O607 O 1.00332 0.4901 0.75461 0.0
O608 O 0.01478 0.46971 0.70916 0.0
O609 O 0.04156 0.50918 0.74997 0.0
O610 O 0.05316 0.4889 0.70428 0.0
C611 C 1.00474 0.47387 0.74569 0.0
H612 H 0.0425 0.46601 0.49888 0.0
H613 H 0.05632 0.43154 0.619 0.0
H614 H 1.00278 0.53471 0.87665 0.0
H615 H 0.98548 0.56815 0.75797 0.0
H616 H 0.20086 0.01839 0.30588 0.0
H617 H 0.17066 0.02215 0.35069 0.0
H618 H 0.17331 0.96939 0.41463 0.0
H619 H 0.20239 0.96509 0.3676 0.0
H620 H 0.13914 0.97436 0.39601 0.0
H621 H 0.16425 0.03374 0.48777 0.0
H622 H 0.16482 0.03697 0.42357 0.0
H623 H 0.17991 0.02115 0.4509 0.0
C624 C 0.19484 0.00749 0.32886 0.0
C625 C 0.20442 0.99156 0.33367 0.0
C626 C 0.17768 0.00977 0.35523 0.0
C627 C 0.16986 0.99628 0.38757 0.0
C628 C 0.17901 0.98015 0.39063 0.0
H629 H 0.09092 0.00665 0.63402 0.0
H630 H 0.11855 0.00573 0.57765 0.0
C631 C 0.19588 0.97777 0.36389 0.0
C632 C 0.1522 0.99861 0.4184 0.0
H633 H 0.13208 0.02457 0.50295 0.0
C634 C 0.13765 0.98538 0.41934 0.0
C635 C 0.1502 0.0128 0.44967 0.0
C636 C 0.16569 0.02688 0.45342 0.0
C637 C 0.12149 0.98573 0.45076 0.0
C638 C 0.11919 0.00019 0.48094 0.0
C639 C 0.13363 0.01354 0.47969 0.0
C640 C 0.10225 0.00143 0.51499 0.0
C641 C 0.1075 0.9701 0.45257 0.0
C642 C 0.08374 0.99974 0.49884 0.0
C643 C 0.06797 0.99984 0.53123 0.0
C644 C 0.07022 0.00221 0.58047 0.0
C645 C 0.08867 0.00474 0.59638 0.0
C646 C 0.1045 0.00425 0.56406 0.0
H647 H 0.11421 0.95801 0.43972 0.0
H648 H 0.1014 0.96713 0.48962 0.0
H649 H 0.09581 0.97309 0.42868 0.0
H650 H 0.08144 0.99824 0.46109 0.0
H651 H 0.05395 0.99816 0.51758 0.0
H652 H 0.52451 0.19337 0.27066 0.0
H653 H 0.52357 0.1642 0.31227 0.0
H654 H 0.46356 0.1586 0.29222 0.0
H655 H 0.46443 0.18799 0.25067 0.0
H656 H 0.47341 0.15392 0.38821 0.0
H657 H 0.51743 0.11313 0.27027 0.0
H658 H 0.52865 0.13415 0.28122 0.0
H659 H 0.50724 0.13338 0.24886 0.0
C660 C 0.5112 0.18572 0.27409 0.0
C661 C 0.49454 0.19292 0.25744 0.0
C662 C 0.5107 0.16902 0.29765 0.0
C663 C 0.49353 0.15915 0.30504 0.0
C664 C 0.47698 0.16595 0.28659 0.0
H665 H 0.4897 0.05518 0.45967 0.0
H666 H 0.48481 0.07904 0.39984 0.0
C667 C 0.47751 0.18266 0.2626 0.0
C668 C 0.49266 0.14277 0.33659 0.0
H669 H 0.51297 0.10283 0.35308 0.0
C670 C 0.48183 0.14263 0.38019 0.0
C671 C 0.50354 0.12799 0.32601 0.0
C672 C 0.51473 0.12705 0.27882 0.0
C673 C 0.48229 0.12848 0.41444 0.0
C674 C 0.49404 0.11418 0.40504 0.0
C675 C 0.50415 0.1139 0.36048 0.0
C676 C 0.49661 0.09976 0.44175 0.0
C677 C 0.47038 0.12903 0.46069 0.0
C678 C 0.50501 0.10348 0.485 0.0
C679 C 0.50802 0.08987 0.51908 0.0
C680 C 0.5027 0.07221 0.51063 0.0
C681 C 0.4942 0.06856 0.46722 0.0
C682 C 0.49129 0.08219 0.43304 0.0
H683 H 0.45859 0.13823 0.45709 0.0
H684 H 0.46436 0.11565 0.47215 0.0
H685 H 0.4794 0.13373 0.48944 0.0
H686 H 0.50957 0.11691 0.49203 0.0
H687 H 0.51493 0.09317 0.55156 0.0
H688 H 0.32992 0.56656 0.31582 0.0
H689 H 0.35767 0.55524 0.35412 0.0
H690 H 0.3386 0.50178 0.32894 0.0
H691 H 0.31049 0.51308 0.29117 0.0
H692 H 0.34695 0.50694 0.42412 0.0
H693 H 0.40594 0.53358 0.3009 0.0
H694 H 0.38979 0.55022 0.31789 0.0
H695 H 0.38168 0.53215 0.28326 0.0
C696 C 0.33176 0.5524 0.31788 0.0
C697 C 0.318 0.5407 0.30067 0.0
C698 C 0.34771 0.54596 0.33939 0.0
C699 C 0.35031 0.52768 0.34395 0.0
C700 C 0.33692 0.51595 0.32546 0.0
H701 H 0.45254 0.48837 0.47286 0.0
H702 H 0.42678 0.49277 0.41837 0.0
C703 C 0.32095 0.52241 0.30366 0.0
C704 C 0.3661 0.52094 0.3719 0.0
H705 H 0.41405 0.5249 0.38117 0.0
C706 C 0.36165 0.51064 0.41437 0.0
C707 C 0.38528 0.52562 0.35893 0.0
C708 C 0.391 0.53585 0.31249 0.0
C709 C 0.37579 0.50561 0.44537 0.0
C710 C 0.39484 0.51122 0.43387 0.0
C711 C 0.3994 0.52078 0.39024 0.0
C712 C 0.41012 0.50798 0.46753 0.0
C713 C 0.3702 0.49446 0.4904 0.0
C714 C 0.40936 0.5152 0.51309 0.0
C715 C 0.4241 0.51282 0.54418 0.0
C716 C 0.43997 0.50324 0.53026 0.0
C717 C 0.44064 0.49598 0.48457 0.0
C718 C 0.42589 0.49839 0.45346 0.0
H719 H 0.35646 0.48709 0.48706 0.0
H720 H 0.38119 0.48483 0.49872 0.0
H721 H 0.36858 0.5032 0.52114 0.0
H722 H 0.39753 0.523 0.52425 0.0
H723 H 0.42327 0.5189 0.57864 0.0
H724 H 0.12755 0.32434 0.31506 0.0
H725 H 0.11984 0.35286 0.34795 0.0
H726 H 0.06096 0.34291 0.32025 0.0
H727 H 0.06882 0.31463 0.28578 0.0
H728 H 0.07174 0.37878 0.30957 0.0
H729 H 0.09437 0.34894 0.48219 0.0
H730 H 0.11268 0.35034 0.43517 0.0
H731 H 0.09188 0.3363 0.42937 0.0
C732 C 0.11311 0.32862 0.31431 0.0
C733 C 0.09876 0.31743 0.29785 0.0
C734 C 0.10867 0.34478 0.33357 0.0
C735 C 0.08975 0.34977 0.33777 0.0
C736 C 0.07564 0.33928 0.31759 0.0
H737 H 0.04124 0.41147 0.56219 0.0
H738 H 0.05052 0.38875 0.50699 0.0
C739 C 0.08013 0.3232 0.29768 0.0
C740 C 0.0844 0.36469 0.36786 0.0
H741 H 0.08522 0.37857 0.48274 0.0
C742 C 0.07472 0.3788 0.3474 0.0
C743 C 0.08794 0.36448 0.41751 0.0
C744 C 0.09711 0.34914 0.44257 0.0
C745 C 0.06861 0.39278 0.3752 0.0
C746 C 0.07262 0.39278 0.42454 0.0
C747 C 0.08227 0.37864 0.44487 0.0
C748 C 0.06641 0.4069 0.45651 0.0
C749 C 0.05743 0.40711 0.35181 0.0
C750 C 0.07232 0.42468 0.44671 0.0
C751 C 0.06696 0.43772 0.4782 0.0
C752 C 0.05583 0.43317 0.52047 0.0
C753 C 0.05001 0.41536 0.53025 0.0
C754 C 0.05523 0.40238 0.49859 0.0
H755 H 0.05118 0.40273 0.31825 0.0
H756 H 0.04583 0.41125 0.37663 0.0
H757 H 0.06699 0.41883 0.34226 0.0
H758 H 0.08137 0.42844 0.41519 0.0
H759 H 0.07185 0.4513 0.47001 0.0
H760 H 0.83812 0.03623 0.96976 0.0
H761 H 0.86848 0.03113 0.92962 0.0
H762 H 0.86857 0.97912 0.99963 0.0
H763 H 0.83716 0.98379 0.03788 0.0
H764 H 0.9019 0.02591 0.95554 0.0
H765 H 0.87821 0.96581 0.86435 0.0
H766 H 0.8619 0.97911 0.89717 0.0
H767 H 0.87608 0.96358 0.92877 0.0
C768 C 0.84444 0.02359 0.97646 0.0
C769 C 0.83485 0.01024 0.00617 0.0
C770 C 0.86199 0.02073 0.95364 0.0
C771 C 0.87079 0.00454 0.96025 0.0
C772 C 0.86188 0.99153 0.99244 0.0
H773 H 0.98824 0.00216 0.83789 0.0
H774 H 0.96052 0.00188 0.89384 0.0
C775 C 0.84403 0.99431 0.015 0.0
C776 C 0.88907 0.00166 0.93259 0.0
H777 H 0.91023 0.97529 0.85068 0.0
C778 C 0.9037 0.01478 0.93276 0.0
C779 C 0.89148 0.98728 0.90214 0.0
C780 C 0.87605 0.97322 0.89759 0.0
C781 C 0.92024 0.01427 0.90275 0.0
C782 C 0.92283 0.99975 0.87294 0.0
C783 C 0.90841 0.98639 0.87355 0.0
C784 C 0.93995 0.99857 0.83943 0.0
C785 C 0.93426 0.02986 0.90172 0.0
C786 C 0.9379 0.99576 0.79027 0.0
C787 C 0.95384 0.99538 0.75832 0.0
C788 C 0.97221 0.99803 0.77463 0.0
C789 C 0.97428 0.00039 0.82395 0.0
C790 C 0.95838 0.00037 0.85602 0.0
H791 H 0.92752 0.04195 0.91441 0.0
H792 H 0.94578 0.02679 0.92608 0.0
H793 H 0.94061 0.03287 0.86493 0.0
H794 H 0.92392 0.99421 0.77633 0.0
H795 H 0.95174 0.99347 0.72061 0.0
H796 H 0.58631 0.79628 0.04142 0.0
H797 H 0.58562 0.82504 0.99798 0.0
H798 H 0.5458 0.84267 0.10609 0.0
H799 H 0.54687 0.81392 0.15033 0.0
H800 H 0.55351 0.8363 0.96002 0.0
H801 H 0.58061 0.88645 0.08183 0.0
H802 H 0.5844 0.8631 0.09112 0.0
H803 H 0.56196 0.87192 0.10847 0.0
C804 C 0.57787 0.80651 0.05661 0.0
C805 C 0.56669 0.80297 0.09921 0.0
C806 C 0.57742 0.8229 0.03173 0.0
C807 C 0.56571 0.83607 0.04876 0.0
C808 C 0.55523 0.83287 0.09269 0.0
H809 H 0.52576 0.93198 0.90907 0.0
H810 H 0.53162 0.90729 0.96548 0.0
C811 C 0.55582 0.81646 0.11794 0.0
C812 C 0.56285 0.8521 0.01752 0.0
H813 H 0.56597 0.89735 0.01173 0.0
C814 C 0.55638 0.84964 0.97129 0.0
C815 C 0.56638 0.86951 0.03237 0.0
C816 C 0.57388 0.87297 0.08099 0.0
C817 C 0.55328 0.86404 0.93959 0.0
C818 C 0.55698 0.88144 0.9542 0.0
C819 C 0.56323 0.88398 1.0006 0.0
C820 C 0.55436 0.89708 0.9215 0.0
C821 C 0.54576 0.86053 0.89096 0.0
C822 C 0.56545 0.89971 0.87847 0.0
C823 C 0.56221 0.91384 0.84621 0.0
C824 C 0.54784 0.92569 0.8564 0.0
C825 C 0.53707 0.92324 0.90021 0.0
C826 C 0.54035 0.9091 0.93248 0.0
H827 H 0.53949 0.84688 0.88967 0.0
H828 H 0.53483 0.87009 0.88152 0.0
H829 H 0.55756 0.86212 0.8632 0.0
H830 H 0.57655 0.89073 0.86968 0.0
H831 H 0.57102 0.91551 0.81334 0.0
H832 H 0.72663 0.4916 0.10518 0.0
H833 H 0.69926 0.49978 0.05919 0.0
H834 H 0.68991 0.44525 0.02467 0.0
H835 H 0.71706 0.43698 0.07064 0.0
H836 H 0.69224 0.46928 0.94427 0.0
H837 H 0.64166 0.49038 0.08762 0.0
H838 H 0.66516 0.50038 0.08683 0.0
H839 H 0.66164 0.47704 0.10044 0.0
C840 C 0.71847 0.48132 0.08867 0.0
C841 C 0.72407 0.46366 0.09132 0.0
C842 C 0.70287 0.48601 0.06236 0.0
C843 C 0.69254 0.47311 0.03864 0.0
C844 C 0.69773 0.45542 0.04257 0.0
H845 H 0.58687 0.47361 0.89775 0.0
H846 H 0.61291 0.46947 0.95121 0.0
C847 C 0.71328 0.45073 0.06875 0.0
C848 C 0.67707 0.47804 0.00712 0.0
H849 H 0.63264 0.4943 0.00724 0.0
C850 C 0.67923 0.47481 0.95797 0.0
C851 C 0.66009 0.48514 0.02522 0.0
C852 C 0.65683 0.48834 0.07796 0.0
C853 C 0.66481 0.47838 0.92641 0.0
C854 C 0.64787 0.4856 0.9444 0.0
C855 C 0.64572 0.4889 0.99353 0.0
C856 C 0.63188 0.48895 0.9131 0.0
C857 C 0.6676 0.47393 0.87435 0.0
C858 C 0.63383 0.50147 0.87431 0.0
C859 C 0.61892 0.50394 0.84371 0.0
C860 C 0.60174 0.49399 0.8515 0.0
C861 C 0.59978 0.48168 0.891 0.0
C862 C 0.61467 0.47923 0.92153 0.0
H863 H 0.67962 0.46508 0.86858 0.0
H864 H 0.65457 0.46741 0.86146 0.0
H865 H 0.67067 0.48631 0.85205 0.0
H866 H 0.64691 0.5093 0.86764 0.0
H867 H 0.62081 0.51373 0.81414 0.0
H868 H 0.97099 0.67906 0.11365 0.0
H869 H 0.97744 0.65061 0.07792 0.0
H870 H 0.92541 0.6531 0.00357 0.0
H871 H 0.91911 0.68154 0.03853 0.0
H872 H 0.95638 0.61624 0.06795 0.0
H873 H 0.96906 0.65649 0.89689 0.0
H874 H 0.9676 0.66625 0.95481 0.0
H875 H 0.94638 0.65907 0.92708 0.0
C876 C 0.96064 0.67316 0.09109 0.0
C877 C 0.94461 0.68243 0.07859 0.0
C878 C 0.96436 0.65699 0.07054 0.0
C879 C 0.95207 0.64997 0.03743 0.0
C880 C 0.93519 0.65844 0.02853 0.0
H881 H 0.96075 0.57199 0.81999 0.0
H882 H 0.95033 0.59436 0.87513 0.0
C883 C 0.93155 0.6746 0.04869 0.0
C884 C 0.95787 0.63514 0.00774 0.0
H885 H 0.97002 0.62548 0.89204 0.0
C886 C 0.95941 0.61821 0.02953 0.0
C887 C 0.96192 0.63782 0.95765 0.0
C888 C 0.96134 0.6559 0.93264 0.0
C889 C 0.96446 0.60376 1.00216 0.0
C890 C 0.96834 0.60645 0.95198 0.0
C891 C 0.96692 0.62342 0.93043 0.0
C892 C 0.9741 0.59197 0.92081 0.0
C893 C 0.96519 0.58568 0.02696 0.0
C894 C 0.99099 0.58328 0.92801 0.0
C895 C 0.99705 0.57055 0.89638 0.0
C896 C 0.9864 0.56637 0.85668 0.0
C897 C 0.96941 0.57504 0.84981 0.0
C898 C 0.96336 0.58774 0.88149 0.0
H899 H 0.95714 0.58494 0.06227 0.0
H900 H 0.95941 0.57526 0.00427 0.0
H901 H 0.98016 0.58281 0.03344 0.0
H902 H 0.99976 0.58666 0.95735 0.0
H903 H 0.01035 0.56435 0.90229 0.0
H904 H 0.10321 0.14353 0.43838 0.0
H905 H 0.08196 0.1223 0.48501 0.0
H906 H 0.03927 0.16143 0.49387 0.0
H907 H 0.06024 0.1826 0.44594 0.0
H908 H 0.06227 0.12206 0.57461 0.0
H909 H 0.01361 0.121 0.42324 0.0
H910 H 0.03713 0.13121 0.41694 0.0
H911 H 0.01839 0.14218 0.44785 0.0
C912 C 0.08941 0.1477 0.45091 0.0
C913 C 0.0833 0.16463 0.43801 0.0
C914 C 0.07731 0.13559 0.4776 0.0
C915 C 0.05891 0.1402 0.4918 0.0
C916 C 0.05329 0.15754 0.48234 0.0
H917 H 0.99569 0.05801 0.66751 0.0
H918 H 1.00287 0.08808 0.63401 0.0
C919 C 0.0654 0.16968 0.45555 0.0
C920 C 0.04538 0.12637 0.51334 0.0
H921 H 0.00641 0.10087 0.48875 0.0
C922 C 0.04987 0.11758 0.55637 0.0
C923 C 0.02937 0.12049 0.48887 0.0
C924 C 0.02433 0.12907 0.44148 0.0
C925 C 0.0392 0.10262 0.57485 0.0
C926 C 0.02331 0.09657 0.55005 0.0
C927 C 0.01844 0.10571 0.50784 0.0
C928 C 0.01313 0.07961 0.56469 0.0
C929 C 0.04574 0.09284 0.6192 0.0
C930 C 0.01468 0.06513 0.53504 0.0
C931 C 0.01004 0.04797 0.55368 0.0
C932 C 1.00404 0.04524 0.60221 0.0
C933 C 1.00028 0.05989 0.62989 0.0
C934 C 1.00458 0.07702 0.61101 0.0
H935 H 0.0603 0.09722 0.62802 0.0
H936 H 0.03605 0.09537 0.65044 0.0
H937 H 0.04552 0.07835 0.61439 0.0
H938 H 0.02114 0.06691 0.49901 0.0
H939 H 0.01326 0.03685 0.53194 0.0
H940 H 0.37304 0.91967 0.38225 0.0
H941 H 0.40012 0.91897 0.43277 0.0
H942 H 0.36644 0.93967 0.54902 0.0
H943 H 0.33986 0.94205 0.49737 0.0
H944 H 0.39542 0.95993 0.53075 0.0
H945 H 0.42154 0.89224 0.5411 0.0
H946 H 0.41909 0.89916 0.47949 0.0
H947 H 0.3984 0.89689 0.52005 0.0
C948 C 0.37129 0.92395 0.4187 0.0
C949 C 0.35433 0.9314 0.43504 0.0
C950 C 0.38675 0.92316 0.44803 0.0
C951 C 0.38539 0.92924 0.49489 0.0
C952 C 0.36788 0.93493 0.51294 0.0
H953 H 0.48374 0.94591 0.67161 0.0
H954 H 0.45547 0.93196 0.63911 0.0
C955 C 0.35256 0.93614 0.48328 0.0
C956 C 0.40282 0.93285 0.52119 0.0
H957 H 0.44523 0.91609 0.55065 0.0
C958 C 0.40608 0.95016 0.53594 0.0
C959 C 0.41679 0.92018 0.52838 0.0
C960 C 0.41365 0.90104 0.51685 0.0
C961 C 0.42313 0.95537 0.55553 0.0
C962 C 0.43767 0.94313 0.55901 0.0
C963 C 0.43419 0.92555 0.54677 0.0
C964 C 0.45663 0.94881 0.57416 0.0
C965 C 0.42549 0.97408 0.57177 0.0
C966 C 0.46711 0.96222 0.54716 0.0
C967 C 0.48301 0.97033 0.56579 0.0
C968 C 0.48892 0.96492 0.61137 0.0
C969 C 0.47947 0.95035 0.63637 0.0
C970 C 0.46334 0.94238 0.61792 0.0
H971 H 0.41157 0.97995 0.57972 0.0
H972 H 0.43389 0.97455 0.60442 0.0
H973 H 0.43306 0.98244 0.54268 0.0
H974 H 0.46232 0.96712 0.51285 0.0
H975 H 0.49016 0.98139 0.54548 0.0
H976 H 0.56007 0.33004 0.40534 0.0
H977 H 0.57165 0.35391 0.45501 0.0
H978 H 0.51502 0.37293 0.46965 0.0
H979 H 0.50348 0.34936 0.41987 0.0
H980 H 0.56471 0.39293 0.42841 0.0
H981 H 0.53685 0.369 0.61033 0.0
H982 H 0.54194 0.35424 0.56245 0.0
H983 H 0.52059 0.36638 0.56318 0.0
C984 C 0.55011 0.33918 0.41993 0.0
C985 C 0.53092 0.33796 0.4089 0.0
C986 C 0.55672 0.35277 0.44801 0.0
C987 C 0.54413 0.36502 0.46609 0.0
C988 C 0.52488 0.36346 0.45631 0.0
H989 H 0.52847 0.46669 0.54175 0.0
H990 H 0.53622 0.4398 0.50114 0.0
C991 C 0.51834 0.35008 0.4278 0.0
C992 C 0.55094 0.38033 0.49229 0.0
H993 H 0.54361 0.40022 0.5985 0.0
C994 C 0.56059 0.39442 0.46597 0.0
C995 C 0.54565 0.3821 0.54126 0.0
C996 C 0.53582 0.36708 0.57122 0.0
C997 C 0.56371 0.4108 0.48652 0.0
C998 C 0.55694 0.41304 0.5343 0.0
C999 C 0.54873 0.39848 0.56176 0.0
C1000 C 0.55553 0.43075 0.55417 0.0
C1001 C 0.57342 0.42583 0.45632 0.0
C1002 C 0.56407 0.4347 0.59704 0.0
C1003 C 0.55973 0.45016 0.62026 0.0
C1004 C 0.54647 0.46165 0.60137 0.0
C1005 C 0.53871 0.45808 0.55717 0.0
C1006 C 0.54323 0.44277 0.53375 0.0
H1007 H 0.58281 0.42083 0.42726 0.0
H1008 H 0.56253 0.43384 0.43919 0.0
H1009 H 0.58193 0.43461 0.47868 0.0
H1010 H 0.57345 0.42546 0.61352 0.0
H1011 H 0.56584 0.45253 0.65443 0.0
H1012 H 0.14709 0.62113 0.31958 0.0
H1013 H 0.12046 0.62023 0.37937 0.0
H1014 H 0.1488 0.5818 0.46631 0.0
H1015 H 0.17518 0.58263 0.40745 0.0
H1016 H 0.0988 0.59156 0.39668 0.0
H1017 H 0.12581 0.60998 0.56993 0.0
H1018 H 0.13886 0.61555 0.51361 0.0
H1019 H 0.1412 0.59428 0.54427 0.0
C1020 C 0.14783 0.61286 0.35212 0.0
C1021 C 0.16325 0.60191 0.35861 0.0
C1022 C 0.13265 0.61243 0.38634 0.0
C1023 C 0.13269 0.60111 0.4277 0.0
C1024 C 0.14863 0.59106 0.43557 0.0
H1025 H 0.06055 0.52295 0.54612 0.0
H1026 H 0.07948 0.54516 0.4974 0.0
C1027 C 0.16377 0.59151 0.4016 0.0
C1028 C 0.11511 0.59719 0.45813 0.0
H1029 H 0.1005 0.58632 0.57447 0.0
C1030 C 0.09896 0.59096 0.43563 0.0
C1031 C 0.11502 0.59671 0.50897 0.0
C1032 C 0.13112 0.6047 0.53544 0.0
C1033 C 0.08365 0.58253 0.46239 0.0
C1034 C 0.08471 0.57997 0.51274 0.0
C1035 C 0.09988 0.58791 0.53569 0.0
C1036 C 0.07185 0.56707 0.54089 0.0
C1037 C 0.06688 0.57569 0.43619 0.0
C1038 C 0.06151 0.57193 0.58216 0.0
C1039 C 0.0507 0.55915 0.61048 0.0
C1040 C 0.05028 0.54129 0.59822 0.0
C1041 C 0.0605 0.53657 0.55656 0.0
C1042 C 0.07122 0.5493 0.52836 0.0
H1043 H 0.06479 0.58407 0.40323 0.0
H1044 H 0.06953 0.56209 0.42486 0.0
H1045 H 0.05365 0.57528 0.45943 0.0
H1046 H 0.062 0.58554 0.59271 0.0
H1047 H 0.04302 0.56319 0.64247 0.0
H1048 H 0.99373 0.82123 0.9535 0.0
H1049 H 0.01178 0.84271 0.89925 0.0
H1050 H 0.96932 0.88119 0.9243 0.0
H1051 H 0.9509 0.85964 0.97711 0.0
H1052 H 0.98164 0.8801 0.82888 0.0
H1053 H 0.04225 0.8849 0.94863 0.0
H1054 H 0.036 0.86311 0.92991 0.0
H1055 H 0.01972 0.87434 0.96821 0.0
C1056 C 0.98805 0.83415 0.94663 0.0
C1057 C 0.97096 0.83881 0.96981 0.0
C1058 C 0.99851 0.84646 0.9162 0.0
C1059 C 0.99207 0.86362 0.90873 0.0
C1060 C 0.97461 0.86804 0.93006 0.0
H1061 H 0.03545 0.96613 0.8256 0.0
H1062 H 0.0293 0.93732 0.86817 0.0
C1063 C 0.96414 0.85576 0.96033 0.0
C1064 C 1.0035 0.87725 0.87942 0.0
H1065 H 0.04415 0.90321 0.87773 0.0
C1066 C 0.99541 0.88503 0.83913 0.0
C1067 C 0.02137 0.88371 0.89344 0.0
C1068 C 0.03035 0.87622 0.9376 0.0
C1069 C 1.0044 0.8995 0.81318 0.0
C1070 C 0.02226 0.90603 0.82721 0.0
C1071 C 0.0306 0.89798 0.86682 0.0
C1072 C 0.03134 0.92232 0.80386 0.0
C1073 C 0.99419 0.90822 0.77254 0.0
C1074 C 0.03589 0.92321 0.75428 0.0
C1075 C 0.03912 0.93962 0.72993 0.0
C1076 C 0.03829 0.95528 0.75509 0.0
C1077 C 0.03624 0.95422 0.80549 0.0
C1078 C 0.03266 0.93779 0.82977 0.0
H1079 H 0.97898 0.90389 0.7732 0.0
H1080 H 0.99514 0.92286 0.77423 0.0
H1081 H 1.00087 0.90463 0.73765 0.0
H1082 H 0.03536 0.91135 0.73389 0.0
H1083 H 0.04083 0.94013 0.69102 0.0
H1084 H 0.69833 0.08346 0.91838 0.0
H1085 H 0.67395 0.08644 0.85905 0.0
H1086 H 0.63153 0.0656 0.96504 0.0
H1087 H 0.65548 0.06223 0.02356 0.0
H1088 H 0.65414 0.05813 0.82896 0.0
H1089 H 0.60314 0.10467 0.9009 0.0
H1090 H 0.62707 0.10376 0.92088 0.0
H1091 H 0.60861 0.08878 0.94732 0.0
C1092 C 0.68375 0.07979 0.92922 0.0
C1093 C 0.67892 0.07263 0.97591 0.0
C1094 C 0.66982 0.08165 0.8954 0.0
C1095 C 0.65085 0.0766 0.90789 0.0
C1096 C 0.64593 0.07018 0.95496 0.0
H1097 H 0.56883 0.01258 0.80752 0.0
H1098 H 0.59425 0.02989 0.84141 0.0
C1099 C 0.65976 0.06823 0.98853 0.0
C1100 C 0.63662 0.07505 0.87082 0.0
H1101 H 0.58949 0.08034 0.85559 0.0
C1102 C 0.64019 0.0635 0.83372 0.0
C1103 C 0.61846 0.08218 0.87656 0.0
C1104 C 0.61419 0.09569 0.91332 0.0
C1105 C 0.62557 0.05743 0.80569 0.0
C1106 C 0.60697 0.06297 0.81534 0.0
C1107 C 0.60375 0.07591 0.8489 0.0
C1108 C 0.59057 0.05341 0.79637 0.0
C1109 C 0.62983 0.04419 0.76812 0.0
C1110 C 0.57972 0.06118 0.76092 0.0
C1111 C 0.56509 0.05128 0.74126 0.0
C1112 C 0.56112 0.03354 0.75715 0.0
C1113 C 0.57155 0.02615 0.79422 0.0
C1114 C 0.58613 0.03599 0.81357 0.0
H1115 H 0.64508 0.04485 0.75622 0.0
H1116 H 0.62625 0.03063 0.78358 0.0
H1117 H 0.6212 0.04644 0.73629 0.0
H1118 H 0.58293 0.07468 0.74754 0.0
H1119 H 0.55728 0.05734 0.71277 0.0
H1120 H 0.53515 0.63907 0.99241 0.0
H1121 H 0.52208 0.61564 0.94493 0.0
H1122 H 0.47698 0.64907 0.90351 0.0
H1123 H 0.48987 0.67271 0.952 0.0
H1124 H 0.4795 0.60198 0.959 0.0
H1125 H 0.50494 0.62809 0.77592 0.0
H1126 H 0.51768 0.634 0.82792 0.0
H1127 H 0.49471 0.64247 0.81929 0.0
C1128 C 0.52241 0.64146 0.97337 0.0
C1129 C 0.51341 0.65765 0.9763 0.0
C1130 C 0.51501 0.62809 0.94619 0.0
C1131 C 0.49856 0.63066 0.92114 0.0
C1132 C 0.48972 0.64693 0.92274 0.0
H1133 H 0.47595 0.54503 0.72712 0.0
H1134 H 0.46781 0.5716 0.76985 0.0
C1135 C 0.49714 0.66039 0.95013 0.0
C1136 C 0.49082 0.61592 0.89427 0.0
H1137 H 0.49528 0.59795 0.78458 0.0
C1138 C 0.48242 0.60121 0.92059 0.0
C1139 C 0.49451 0.61511 0.84423 0.0
C1140 C 0.50344 0.63071 0.81481 0.0
C1141 C 0.47895 0.58517 0.89865 0.0
C1142 C 0.48437 0.58382 0.84952 0.0
C1143 C 0.49118 0.59901 0.82232 0.0
C1144 C 0.48636 0.56644 0.82799 0.0
C1145 C 0.47043 0.56957 0.92881 0.0
C1146 C 0.49924 0.55467 0.84698 0.0
C1147 C 0.50401 0.53965 0.82265 0.0
C1148 C 0.49598 0.53611 0.77877 0.0
C1149 C 0.48228 0.54738 0.76104 0.0
C1150 C 0.47764 0.56256 0.78529 0.0
H1151 H 0.461 0.57399 0.95861 0.0
H1152 H 0.4622 0.56043 0.90682 0.0
H1153 H 0.48196 0.56216 0.94511 0.0
H1154 H 0.50646 0.5576 0.87931 0.0
H1155 H 0.5146 0.53121 0.83721 0.0
H1156 H 0.88768 0.38013 0.03785 0.0
H1157 H 0.91691 0.38169 0.98634 0.0
H1158 H 0.89195 0.41956 0.89038 0.0
H1159 H 0.86281 0.41769 0.94046 0.0
H1160 H 0.91514 0.39859 0.84138 0.0
H1161 H 0.95114 0.42468 0.99893 0.0
H1162 H 0.94143 0.4024 0.00561 0.0
H1163 H 0.92587 0.42056 0.99995 0.0
C1164 C 0.88834 0.38843 0.00507 0.0
C1165 C 0.87303 0.3989 0.99339 0.0
C1166 C 0.90505 0.38939 0.97586 0.0
C1167 C 0.9068 0.40111 0.93522 0.0
C1168 C 0.89098 0.41044 0.92159 0.0
H1169 H 0.9802 0.47915 0.82129 0.0
H1170 H 0.95977 0.45727 0.86689 0.0
C1171 C 0.87425 0.40932 0.95026 0.0
C1172 C 0.92539 0.40559 0.90977 0.0
H1173 H 0.96712 0.4285 0.92413 0.0
C1174 C 0.92673 0.40479 0.85946 0.0
C1175 C 0.94047 0.4137 0.93359 0.0
C1176 C 0.93972 0.41554 0.98741 0.0
C1177 C 0.94194 0.41319 0.832 0.0
C1178 C 0.95643 0.42218 0.85573 0.0
C1179 C 0.95593 0.4216 0.90617 0.0
C1180 C 0.9702 0.43483 0.82951 0.0
C1181 C 0.94153 0.41361 0.77784 0.0
C1182 C 0.98317 0.42947 0.7938 0.0
C1183 C 0.99483 0.44208 0.76707 0.0
C1184 C 0.99379 0.46019 0.77608 0.0
C1185 C 0.98134 0.46535 0.81323 0.0
C1186 C 0.96967 0.45282 0.8395 0.0
H1187 H 0.92787 0.40822 0.76539 0.0
H1188 H 0.94392 0.42737 0.7626 0.0
H1189 H 0.95304 0.40553 0.76317 0.0
H1190 H 0.98408 0.41561 0.78615 0.0
H1191 H 1.00439 0.43769 0.7389 0.0
H1192 H 0.07569 0.17538 0.06831 0.0
H1193 H 0.07026 0.15417 0.00676 0.0
H1194 H 0.11144 0.18288 0.91075 0.0
H1195 H 0.11734 0.2041 0.9736 0.0
H1196 H 0.05833 0.15705 0.91625 0.0
H1197 H 0.13178 0.13302 0.91607 0.0
H1198 H 0.12269 0.14734 0.96103 0.0
H1199 H 0.12954 0.15621 0.90164 0.0
C1200 C 0.08351 0.17726 0.03394 0.0
C1201 C 0.09712 0.19122 0.02587 0.0
C1202 C 0.08036 0.16515 0.99873 0.0
C1203 C 0.0907 0.1667 0.95446 0.0
C1204 C 0.10359 0.18121 0.94507 0.0
H1205 H 0.05436 0.09008 0.74584 0.0
H1206 H 0.06456 0.11796 0.77982 0.0
C1207 C 0.10679 0.19343 0.98065 0.0
C1208 C 0.08811 0.15256 0.91971 0.0
H1209 H 0.11015 0.1179 0.86951 0.0
C1210 C 0.06971 0.14863 0.90542 0.0
C1211 C 0.10293 0.14142 0.90629 0.0
C1212 C 0.12284 0.14455 0.92223 0.0
C1213 C 0.06553 0.13353 0.87977 0.0
C1214 C 0.08032 0.12231 0.86657 0.0
C1215 C 0.09886 0.12655 0.87943 0.0
C1216 C 0.07652 0.10551 0.84232 0.0
C1217 C 0.04511 0.12927 0.86954 0.0
C1218 C 0.08088 0.08921 0.86455 0.0
C1219 C 0.0754 0.07325 0.84463 0.0
C1220 C 0.06532 0.07337 0.80242 0.0
C1221 C 0.06185 0.08967 0.7789 0.0
C1222 C 0.06758 0.10558 0.79838 0.0
H1223 H 0.03515 0.13658 0.89263 0.0
H1224 H 0.04271 0.13314 0.83151 0.0
H1225 H 0.04163 0.11487 0.87531 0.0
H1226 H 0.08787 0.08883 0.89834 0.0
H1227 H 0.07823 0.06085 0.86336 0.0
H1228 H 0.35258 0.02534 0.05674 0.0
H1229 H 0.3762 0.03228 0.99031 0.0
H1230 H 0.36812 0.97939 0.94122 0.0
H1231 H 0.34446 0.97264 0.00695 0.0
H1232 H 0.40914 0.01587 0.98297 0.0
H1233 H 0.37263 0.00716 0.81421 0.0
H1234 H 0.35988 0.00968 0.87106 0.0
H1235 H 0.36833 0.98842 0.85546 0.0
C1236 C 0.35519 0.01555 0.03026 0.0
C1237 C 0.34635 0.9986 0.03626 0.0
C1238 C 0.36887 0.01942 0.99264 0.0
C1239 C 0.37393 0.00643 0.96022 0.0
C1240 C 0.36424 0.98983 0.96472 0.0
H1241 H 0.48276 0.98639 0.82804 0.0
H1242 H 0.45393 0.98863 0.87878 0.0
C1243 C 0.35063 0.98597 1.00228 0.0
C1244 C 0.39089 0.00928 0.92608 0.0
H1245 H 0.40661 0.00457 0.80938 0.0
C1246 C 0.40848 0.01366 0.94488 0.0
C1247 C 0.39019 0.00657 0.87617 0.0
C1248 C 0.3717 0.00288 0.85294 0.0
C1249 C 0.42537 0.01462 0.91583 0.0
C1250 C 0.42482 0.01081 0.86659 0.0
C1251 C 0.40714 0.00725 0.84721 0.0
C1252 C 0.4425 0.00971 0.83533 0.0
C1253 C 0.44369 0.01962 0.93835 0.0
C1254 C 0.44563 0.02055 0.79316 0.0
C1255 C 0.46221 0.01928 0.76377 0.0
C1256 C 0.47593 0.00699 0.77567 0.0
C1257 C 0.47264 0.9961 0.81778 0.0
C1258 C 0.45614 0.99742 0.84709 0.0
H1259 H 0.44115 0.02724 0.97108 0.0
H1260 H 0.4509 0.0074 0.94919 0.0
H1261 H 0.45336 0.02765 0.91262 0.0
H1262 H 0.43529 0.03007 0.78308 0.0
H1263 H 0.46418 0.0278 0.73152 0.0
H1264 H 0.49384 0.32541 0.98757 0.0
H1265 H 0.49459 0.34816 0.92188 0.0
H1266 H 0.44019 0.36547 0.97347 0.0
H1267 H 0.43971 0.3431 0.03992 0.0
H1268 H 0.47193 0.36108 0.847 0.0
H1269 H 0.47674 0.40727 0.99611 0.0
H1270 H 0.47851 0.38368 0.00546 0.0
H1271 H 0.45575 0.39309 0.99894 0.0
C1272 C 0.4817 0.33358 0.98358 0.0
C1273 C 0.46673 0.33258 0.01869 0.0
C1274 C 0.48218 0.34664 0.94624 0.0
C1275 C 0.46766 0.35879 0.94352 0.0
C1276 C 0.45171 0.35646 0.97546 0.0
H1277 H 0.4723 0.45001 0.73229 0.0
H1278 H 0.46136 0.4228 0.77839 0.0
C1279 C 0.45134 0.34358 0.01308 0.0
C1280 C 0.47055 0.37521 0.91232 0.0
H1281 H 0.47782 0.41997 0.91764 0.0
C1282 C 0.47305 0.37399 0.86228 0.0
C1283 C 0.47232 0.39203 0.93249 0.0
C1284 C 0.47087 0.39418 0.98618 0.0
C1285 C 0.47743 0.38913 0.83195 0.0
C1286 C 0.47914 0.4059 0.85224 0.0
C1287 C 0.47634 0.40712 0.90214 0.0
C1288 C 0.4855 0.42221 0.82333 0.0
C1289 C 0.48093 0.38699 0.77874 0.0
C1290 C 0.50244 0.43112 0.83398 0.0
C1291 C 0.5086 0.44666 0.80817 0.0
C1292 C 0.49794 0.45374 0.77105 0.0
C1293 C 0.48085 0.4449 0.7606 0.0
C1294 C 0.47466 0.42928 0.78663 0.0
H1295 H 0.48259 0.37291 0.77014 0.0
H1296 H 0.46875 0.39203 0.75931 0.0
H1297 H 0.49385 0.39478 0.76509 0.0
H1298 H 0.51099 0.42597 0.86227 0.0
H1299 H 0.52183 0.45307 0.81728 0.0
H1300 H 0.1889 0.5552 0.9681 0.0
H1301 H 0.16659 0.54412 0.91109 0.0
H1302 H 0.17908 0.49044 0.95316 0.0
H1303 H 0.20123 0.50148 0.01127 0.0
H1304 H 0.16869 0.5213 0.83335 0.0
H1305 H 0.12183 0.49347 0.98678 0.0
H1306 H 0.14164 0.50856 0.99508 0.0
H1307 H 0.1456 0.48583 0.98316 0.0
C1308 C 0.18709 0.54103 0.96475 0.0
C1309 C 0.19661 0.5292 0.99458 0.0
C1310 C 0.1744 0.53472 0.93202 0.0
C1311 C 0.17093 0.51647 0.92853 0.0
C1312 C 0.18136 0.50458 0.95586 0.0
H1313 H 0.08733 0.48083 0.72307 0.0
H1314 H 0.11649 0.48262 0.76731 0.0
C1315 C 0.19413 0.51091 0.98868 0.0
C1316 C 0.15522 0.51018 0.89931 0.0
H1317 H 0.11015 0.49205 0.90965 0.0
C1318 C 0.15599 0.51464 0.84978 0.0
C1319 C 0.13859 0.5017 0.9211 0.0
C1320 C 0.13668 0.49719 0.97448 0.0
C1321 C 0.14036 0.51131 0.82169 0.0
C1322 C 0.12361 0.50316 0.84371 0.0
C1323 C 0.12306 0.4982 0.89289 0.0
C1324 C 0.10589 0.50131 0.81761 0.0
C1325 C 0.14152 0.51735 0.76925 0.0
C1326 C 0.09014 0.51086 0.83199 0.0
C1327 C 0.0735 0.50984 0.80702 0.0
C1328 C 0.07221 0.49914 0.76719 0.0
C1329 C 0.08788 0.48924 0.75348 0.0
C1330 C 0.10458 0.49031 0.77852 0.0
H1331 H 0.1543 0.52602 0.75974 0.0
H1332 H 0.14211 0.50561 0.7468 0.0
H1333 H 0.12874 0.52465 0.76004 0.0
H1334 H 0.09084 0.51939 0.86214 0.0
H1335 H 0.06172 0.5176 0.81871 0.0
H1336 H 0.90583 0.8091 0.37663 0.0
H1337 H 0.91098 0.83333 0.43062 0.0
H1338 H 0.9686 0.81801 0.44601 0.0
H1339 H 0.96332 0.79354 0.39267 0.0
H1340 H 0.95077 0.83332 0.53106 0.0
H1341 H 0.94487 0.87364 0.36092 0.0
H1342 H 0.92465 0.85933 0.37851 0.0
H1343 H 0.94688 0.84993 0.36212 0.0
C1344 C 0.91927 0.81038 0.39356 0.0
C1345 C 0.93416 0.79946 0.38083 0.0
C1346 C 0.92227 0.82432 0.42393 0.0
C1347 C 0.94029 0.82768 0.44139 0.0
C1348 C 0.9546 0.81566 0.43281 0.0
H1349 H 0.99831 0.92622 0.49113 0.0
H1350 H 0.98638 0.89787 0.46356 0.0
C1351 C 0.95154 0.8016 0.40268 0.0
C1352 C 0.94504 0.845 0.46171 0.0
H1353 H 0.95077 0.88911 0.43034 0.0
C1354 C 0.95063 0.84556 0.50929 0.0
C1355 C 0.94519 0.86089 0.4328 0.0
C1356 C 0.94024 0.86101 0.38063 0.0
C1357 C 0.95634 0.86165 0.52877 0.0
C1358 C 0.95629 0.87754 0.49994 0.0
C1359 C 0.95063 0.87694 0.45246 0.0
C1360 C 0.96317 0.89481 0.51709 0.0
C1361 C 0.96299 0.86146 0.57943 0.0
C1362 C 0.95383 0.9027 0.55574 0.0
C1363 C 0.96063 0.91896 0.57162 0.0
C1364 C 0.97689 0.92759 0.54909 0.0
C1365 C 0.9859 0.91982 0.50964 0.0
C1366 C 0.97907 0.90364 0.49376 0.0
H1367 H 0.96582 0.84786 0.59324 0.0
H1368 H 0.97609 0.86993 0.5813 0.0
H1369 H 0.95188 0.86685 0.60349 0.0
H1370 H 0.94132 0.89627 0.57369 0.0
H1371 H 0.95346 0.92452 0.60232 0.0
H1372 H 0.70527 0.97323 0.33117 0.0
H1373 H 0.67954 0.96662 0.39266 0.0
H1374 H 0.68192 0.02112 0.43189 0.0
H1375 H 0.70766 0.02766 0.3712 0.0
H1376 H 0.67505 0.99729 0.51157 0.0
H1377 H 0.62628 0.98364 0.36556 0.0
H1378 H 0.64676 0.9703 0.36754 0.0
H1379 H 0.64968 0.99369 0.35371 0.0
C1380 C 0.7007 0.98363 0.35403 0.0
C1381 C 0.70847 0.00097 0.34631 0.0
C1382 C 0.68582 0.97991 0.38871 0.0
C1383 C 0.67847 0.99347 0.41627 0.0
C1384 C 0.68721 0.01045 0.41099 0.0
H1385 H 0.56832 0.01217 0.54193 0.0
H1386 H 0.59787 0.01043 0.49356 0.0
C1387 C 0.70197 0.01417 0.37634 0.0
C1388 C 0.66085 0.99054 0.44789 0.0
H1389 H 0.61299 0.98236 0.44459 0.0
C1390 C 0.66151 0.99381 0.49707 0.0
C1391 C 0.64309 0.98629 0.42885 0.0
C1392 C 0.64125 0.9834 0.376 0.0
C1393 C 0.64495 0.99315 0.52747 0.0
C1394 C 0.6272 0.98895 0.50836 0.0
C1395 C 0.62658 0.98544 0.45935 0.0
C1396 C 0.60898 0.98937 0.53769 0.0
C1397 C 0.6465 0.99769 0.57936 0.0
C1398 C 0.60511 0.97788 0.57834 0.0
C1399 C 0.58811 0.97882 0.6062 0.0
C1400 C 0.57459 0.99125 0.59397 0.0
C1401 C 0.57837 0.00245 0.55263 0.0
C1402 C 0.5953 0.00147 0.52481 0.0
H1403 H 0.66045 0.00414 0.58593 0.0
H1404 H 0.63515 0.00663 0.59043 0.0
H1405 H 0.6448 0.98537 0.60254 0.0
H1406 H 0.61526 0.9682 0.58859 0.0
H1407 H 0.58569 0.96995 0.63766 0.0
H1408 H 0.54219 0.67239 0.40527 0.0
H1409 H 0.54369 0.64992 0.47068 0.0
H1410 H 0.60041 0.63842 0.42071 0.0
H1411 H 0.59865 0.66067 0.35456 0.0
H1412 H 0.57722 0.61002 0.42078 0.0
H1413 H 0.56747 0.63985 0.5972 0.0
H1414 H 0.54993 0.64682 0.55675 0.0
H1415 H 0.57453 0.65287 0.54294 0.0
C1416 C 0.55534 0.66574 0.40996 0.0
C1417 C 0.57044 0.66842 0.37559 0.0
C1418 C 0.55619 0.65284 0.4473 0.0
C1419 C 0.57222 0.64249 0.45093 0.0
C1420 C 0.58795 0.64629 0.41888 0.0
H1421 H 0.5685 0.54935 0.65488 0.0
H1422 H 0.57946 0.57707 0.61136 0.0
C1423 C 0.58704 0.65912 0.38141 0.0
C1424 C 0.57112 0.62585 0.48168 0.0
H1425 H 0.55816 0.6087 0.59454 0.0
C1426 C 0.57344 0.6098 0.459 0.0
C1427 C 0.56625 0.62546 0.5316 0.0
C1428 C 0.5646 0.6422 0.55862 0.0
C1429 C 0.57008 0.59343 0.48418 0.0
C1430 C 0.56396 0.59304 0.53325 0.0
C1431 C 0.56263 0.60903 0.55673 0.0
C1432 C 0.55764 0.57621 0.55959 0.0
C1433 C 0.57273 0.57665 0.45774 0.0
C1434 C 0.5417 0.56663 0.54502 0.0
C1435 C 0.53541 0.55087 0.56969 0.0
C1436 C 0.54492 0.54433 0.6096 0.0
C1437 C 0.56094 0.55394 0.6241 0.0
C1438 C 0.56718 0.56982 0.59945 0.0
H1439 H 0.58239 0.57897 0.42525 0.0
H1440 H 0.57854 0.56618 0.48139 0.0
H1441 H 0.55881 0.57171 0.44593 0.0
H1442 H 0.53398 0.57146 0.51476 0.0
H1443 H 0.52298 0.54388 0.55763 0.0
H1444 H 0.86147 0.44032 0.4109 0.0
H1445 H 0.88059 0.45414 0.47057 0.0
H1446 H 0.8688 0.50579 0.40996 0.0
H1447 H 0.8499 0.4919 0.34916 0.0
H1448 H 0.90632 0.50113 0.41424 0.0
H1449 H 0.87195 0.48094 0.59103 0.0
H1450 H 0.87474 0.46216 0.5547 0.0
H1451 H 0.85969 0.47961 0.53578 0.0
C1452 C 0.86258 0.45464 0.41099 0.0
C1453 C 0.8543 0.46503 0.37522 0.0
C1454 C 0.87337 0.46254 0.44545 0.0
C1455 C 0.876 0.48103 0.44515 0.0
C1456 C 0.86685 0.49151 0.41111 0.0
H1457 H 0.95703 0.51929 0.65321 0.0
H1458 H 0.92816 0.51763 0.60764 0.0
C1459 C 0.85597 0.48357 0.37658 0.0
C1460 C 0.8904 0.48898 0.47573 0.0
H1461 H 0.9061 0.48698 0.58983 0.0
C1462 C 0.90605 0.4984 0.45282 0.0
C1463 C 0.89001 0.48564 0.52617 0.0
C1464 C 0.87307 0.4767 0.55337 0.0
C1465 C 0.92187 0.5034 0.47838 0.0
C1466 C 0.92218 0.49861 0.52797 0.0
C1467 C 0.90598 0.4904 0.55162 0.0
C1468 C 0.93976 0.50045 0.55462 0.0
C1469 C 0.93837 0.51329 0.45171 0.0
C1470 C 0.95575 0.49124 0.54013 0.0
C1471 C 0.97215 0.4921 0.566 0.0
C1472 C 0.97293 0.50217 0.60715 0.0
C1473 C 0.95692 0.51149 0.62155 0.0
C1474 C 0.94042 0.51054 0.59564 0.0
H1475 H 0.93374 0.5208 0.41943 0.0
H1476 H 0.94555 0.52265 0.4752 0.0
H1477 H 0.94881 0.50367 0.4394 0.0
H1478 H 0.95542 0.48307 0.50919 0.0
H1479 H 0.98417 0.4847 0.55395 0.0
loop_
_geom_bond_atom_site_label_1
_geom_bond_atom_site_label_2
_geom_bond_distance
_geom_bond_site_symmetry_2
_ccdc_geom_bond_type
C0 C1 1.391 . S
C0 C4 1.391 . S
C0 H42 0.948 . S
C1 C0 1.391 . S
C1 C2 1.391 . S
C2 C1 1.391 . S
C2 H58 0.947 . S
C2 C59 1.392 . S
C3 C4 1.391 . S
C3 C7 1.397 . S
C3 C59 1.419 . S
C4 C0 1.391 . S
C4 C3 1.391 . S
C4 C5 1.399 . S
C5 C4 1.399 . S
C5 C8 1.396 . S
C5 C17 1.453 . S
C5 C18 1.684 . S
H6 C30 0.948 . S
C7 C3 1.397 . S
C7 C8 1.394 . S
C7 C26 1.723 . S
C8 C5 1.396 . S
C8 C7 1.394 . S
C8 C38 1.723 . S
H9 C32 0.947 . S
H10 C33 0.948 . S
H11 C39 0.982 . S
H12 C40 0.979 1_554 S
H13 C40 0.980 . S
H14 C40 0.983 . S
H15 C39 0.979 1_556 S
H16 C39 0.977 1_556 S
C17 C5 1.453 . S
C17 H46 0.982 . S
C17 H47 0.979 . S
C17 H48 0.977 . S
C18 C5 1.684 . S
C18 H43 0.979 . S
C18 H44 0.980 . S
C18 H45 0.983 . S
C19 C20 1.391 1_554 S
C19 C24 1.391 . S
C19 H49 0.948 . S
C20 C19 1.391 1_556 S
C20 C21 1.391 . S
C21 C20 1.391 . S
C21 C22 1.392 . S
C21 H50 0.947 . S
C22 C21 1.392 . S
C22 C23 1.419 1_556 S
C22 H51 0.948 . S
C23 C22 1.419 1_554 S
C23 C24 1.391 . S
C23 C27 1.397 . S
C24 C19 1.391 . S
C24 C23 1.391 . S
C24 C25 1.399 . S
C25 C24 1.399 . S
C25 C26 1.396 . S
C25 C28 1.453 . S
C25 C29 1.684 . S
C26 C7 1.723 . S
C26 C25 1.396 . S
C26 C27 1.394 . S
C27 C23 1.397 . S
C27 C26 1.394 . S
C27 C37 1.723 . S
C28 C25 1.453 . S
C28 H52 0.982 . S
C28 H53 0.979 . S
C28 H54 0.977 . S
C29 C25 1.684 . S
C29 H55 0.979 . S
C29 H56 0.980 . S
C29 H57 0.983 . S
C30 H6 0.948 . S
C30 C31 1.391 . S
C30 C35 1.391 . S
C31 C30 1.391 . S
C31 C32 1.391 . S
C32 H9 0.947 . S
C32 C31 1.391 . S
C32 C33 1.392 . S
C33 H10 0.948 . S
C33 C32 1.392 . S
C33 C34 1.419 . S
C34 C33 1.419 . S
C34 C35 1.391 . S
C34 C38 1.397 . S
C35 C30 1.391 . S
C35 C34 1.391 . S
C35 C36 1.399 . S
C36 C35 1.399 . S
C36 C37 1.396 . S
C36 C39 1.453 . S
C36 C40 1.684 1_554 S
C37 C27 1.723 . S
C37 C36 1.396 . S
C37 C38 1.394 . S
C38 C8 1.723 . S
C38 C34 1.397 . S
C38 C37 1.394 . S
C39 H11 0.982 . S
C39 H15 0.979 1_554 S
C39 H16 0.977 1_554 S
C39 C36 1.453 . S
C40 H12 0.979 1_556 S
C40 H13 0.980 . S
C40 H14 0.983 . S
C40 C36 1.684 1_556 S
H41 C59 0.948 . S
H42 C0 0.948 . S
H43 C18 0.979 . S
H44 C18 0.980 . S
H45 C18 0.983 . S
H46 C17 0.982 . S
H47 C17 0.979 . S
H48 C17 0.977 . S
H49 C19 0.948 . S
H50 C21 0.947 . S
H51 C22 0.948 . S
H52 C28 0.982 . S
H53 C28 0.979 . S
H54 C28 0.977 . S
H55 C29 0.979 . S
H56 C29 0.980 . S
H57 C29 0.983 . S
H58 C2 0.947 . S
C59 C2 1.392 . S
C59 C3 1.419 . S
C59 H41 0.948 . S
C60 C61 1.391 . S
C60 C64 1.391 . S
C60 H102 0.948 . S
C61 C60 1.391 . S
C61 C62 1.391 . S
C62 C61 1.391 . S
C62 H118 0.947 . S
C62 C119 1.392 . S
C63 C64 1.391 . S
C63 C67 1.397 . S
C63 C119 1.419 . S
C64 C60 1.391 . S
C64 C63 1.391 . S
C64 C65 1.399 . S
C65 C64 1.399 . S
C65 C68 1.396 . S
C65 C77 1.453 . S
C65 C78 1.684 . S
H66 C90 0.948 1_554 S
C67 C63 1.397 . S
C67 C68 1.394 . S
C67 C86 1.723 1_556 S
C68 C65 1.396 . S
C68 C67 1.394 . S
C68 C98 1.723 . S
H69 C92 0.947 . S
H70 C93 0.948 . S
H71 C99 0.982 . S
H72 C100 0.979 . S
H73 C100 0.980 . S
H74 C100 0.983 . S
H75 C99 0.979 . S
H76 C99 0.977 . S
C77 C65 1.453 . S
C77 H106 0.982 . S
C77 H107 0.979 . S
C77 H108 0.977 . S
C78 C65 1.684 . S
C78 H103 0.979 . S
C78 H104 0.980 . S
C78 H105 0.983 . S
C79 C80 1.391 . S
C79 C84 1.391 . S
C79 H109 0.948 . S
C80 C79 1.391 . S
C80 C81 1.391 . S
C81 C80 1.391 . S
C81 C82 1.392 . S
C81 H110 0.947 . S
C82 C81 1.392 . S
C82 C83 1.419 . S
C82 H111 0.948 . S
C83 C82 1.419 . S
C83 C84 1.391 . S
C83 C87 1.397 . S
C84 C79 1.391 . S
C84 C83 1.391 . S
C84 C85 1.399 . S
C85 C84 1.399 . S
C85 C86 1.396 . S
C85 C88 1.453 . S
C85 C89 1.684 . S
C86 C67 1.723 1_554 S
C86 C85 1.396 . S
C86 C87 1.394 . S
C87 C83 1.397 . S
C87 C86 1.394 . S
C87 C97 1.723 . S
C88 C85 1.453 . S
C88 H112 0.982 . S
C88 H113 0.979 . S
C88 H114 0.977 . S
C89 C85 1.684 . S
C89 H115 0.979 . S
C89 H116 0.980 . S
C89 H117 0.983 . S
C90 H66 0.948 1_556 S
C90 C91 1.391 . S
C90 C95 1.391 1_556 S
C91 C90 1.391 . S
C91 C92 1.391 . S
C92 H69 0.947 . S
C92 C91 1.391 . S
C92 C93 1.392 . S
C93 H70 0.948 . S
C93 C92 1.392 . S
C93 C94 1.419 . S
C94 C93 1.419 . S
C94 C95 1.391 1_556 S
C94 C98 1.397 . S
C95 C90 1.391 1_554 S
C95 C94 1.391 1_554 S
C95 C96 1.399 . S
C96 C95 1.399 . S
C96 C97 1.396 . S
C96 C99 1.453 . S
C96 C100 1.684 . S
C97 C87 1.723 . S
C97 C96 1.396 . S
C97 C98 1.394 1_554 S
C98 C68 1.723 . S
C98 C94 1.397 . S
C98 C97 1.394 1_556 S
C99 H71 0.982 . S
C99 H75 0.979 . S
C99 H76 0.977 . S
C99 C96 1.453 . S
C100 H72 0.979 . S
C100 H73 0.980 . S
C100 H74 0.983 . S
C100 C96 1.684 . S
H101 C119 0.948 . S
H102 C60 0.948 . S
H103 C78 0.979 . S
H104 C78 0.980 . S
H105 C78 0.983 . S
H106 C77 0.982 . S
H107 C77 0.979 . S
H108 C77 0.977 . S
H109 C79 0.948 . S
H110 C81 0.947 . S
H111 C82 0.948 . S
H112 C88 0.982 . S
H113 C88 0.979 . S
H114 C88 0.977 . S
H115 C89 0.979 . S
H116 C89 0.980 . S
H117 C89 0.983 . S
H118 C62 0.947 . S
C119 C62 1.392 . S
C119 C63 1.419 . S
C119 H101 0.948 . S
C120 C121 1.391 . S
C120 C124 1.391 . S
C120 H162 0.948 . S
C121 C120 1.391 . S
C121 C122 1.391 1_554 S
C122 C121 1.391 1_556 S
C122 H178 0.947 . S
C122 C179 1.392 . S
C123 C124 1.399 . S
C123 C127 1.392 1_565 S
C123 C179 1.429 1_554 S
C124 C120 1.391 . S
C124 C123 1.399 . S
C124 C125 1.399 . S
C125 C124 1.399 . S
C125 C128 1.387 1_565 S
C125 C137 1.453 1_565 S
C125 C138 1.684 . S
H126 C150 0.948 . S
C127 C123 1.392 1_545 S
C127 C128 1.390 . S
C127 C146 1.722 . S
C128 C125 1.387 1_545 S
C128 C127 1.390 . S
C128 C158 1.725 . S
H129 C152 0.947 . S
H130 C153 0.948 . S
H131 C159 0.982 . S
H132 C160 0.979 . S
H133 C160 0.980 . S
H134 C160 0.983 . S
H135 C159 0.979 . S
H136 C159 0.977 . S
C137 C125 1.453 1_545 S
C137 H166 0.982 . S
C137 H167 0.979 . S
C137 H168 0.977 . S
C138 C125 1.684 . S
C138 H163 0.979 . S
C138 H164 0.980 . S
C138 H165 0.983 . S
C139 C140 1.391 . S
C139 C144 1.391 . S
C139 H169 0.948 . S
C140 C139 1.391 . S
C140 C141 1.391 . S
C141 C140 1.391 . S
C141 C142 1.392 1_556 S
C141 H170 0.947 . S
C142 C141 1.392 1_554 S
C142 C143 1.422 . S
C142 H171 0.948 . S
C143 C142 1.422 . S
C143 C144 1.403 1_554 S
C143 C147 1.395 1_565 S
C144 C139 1.391 . S
C144 C143 1.403 1_556 S
C144 C145 1.399 . S
C145 C144 1.399 . S
C145 C146 1.387 1_566 S
C145 C148 1.453 1_565 S
C145 C149 1.684 . S
C146 C127 1.722 . S
C146 C145 1.387 1_544 S
C146 C147 1.396 . S
C147 C143 1.395 1_545 S
C147 C146 1.396 . S
C147 C157 1.719 . S
C148 C145 1.453 1_545 S
C148 H172 0.982 . S
C148 H173 0.979 . S
C148 H174 0.977 . S
C149 C145 1.684 . S
C149 H175 0.979 . S
C149 H176 0.980 . S
C149 H177 0.983 . S
C150 H126 0.948 . S
C150 C151 1.391 . S
C150 C155 1.391 . S
C151 C150 1.391 . S
C151 C152 1.391 . S
C152 H129 0.947 . S
C152 C151 1.391 . S
C152 C153 1.392 . S
C153 H130 0.948 . S
C153 C152 1.392 . S
C153 C154 1.425 . S
C154 C153 1.425 . S
C154 C155 1.397 . S
C154 C158 1.398 1_565 S
C155 C150 1.391 . S
C155 C154 1.397 . S
C155 C156 1.399 . S
C156 C155 1.399 . S
C156 C157 1.392 1_565 S
C156 C159 1.453 1_565 S
C156 C160 1.684 . S
C157 C147 1.719 . S
C157 C156 1.392 1_545 S
C157 C158 1.392 . S
C158 C128 1.725 . S
C158 C154 1.398 1_545 S
C158 C157 1.392 . S
C159 H131 0.982 . S
C159 H135 0.979 . S
C159 H136 0.977 . S
C159 C156 1.453 1_545 S
C160 H132 0.979 . S
C160 H133 0.980 . S
C160 H134 0.983 . S
C160 C156 1.684 . S
H161 C179 0.948 . S
H162 C120 0.948 . S
H163 C138 0.979 . S
H164 C138 0.980 . S
H165 C138 0.983 . S
H166 C137 0.982 . S
H167 C137 0.979 . S
H168 C137 0.977 . S
H169 C139 0.948 . S
H170 C141 0.947 . S
H171 C142 0.948 . S
H172 C148 0.982 . S
H173 C148 0.979 . S
H174 C148 0.977 . S
H175 C149 0.979 . S
H176 C149 0.980 . S
H177 C149 0.983 . S
H178 C122 0.947 . S
C179 C122 1.392 . S
C179 C123 1.429 1_556 S
C179 H161 0.948 . S
C180 C181 1.391 . S
C180 C184 1.391 . S
C180 H222 0.948 . S
C181 C180 1.391 . S
C181 C182 1.391 . S
C182 C181 1.391 . S
C182 H238 0.947 . S
C182 C239 1.392 . S
C183 C184 1.391 . S
C183 C187 1.397 . S
C183 C239 1.419 . S
C184 C180 1.391 . S
C184 C183 1.391 . S
C184 C185 1.399 . S
C185 C184 1.399 . S
C185 C188 1.396 . S
C185 C197 1.453 . S
C185 C198 1.684 . S
H186 C210 0.948 1_556 S
C187 C183 1.397 . S
C187 C188 1.394 . S
C187 C206 1.723 . S
C188 C185 1.396 . S
C188 C187 1.394 . S
C188 C218 1.723 . S
H189 C212 0.947 . S
H190 C213 0.948 . S
H191 C219 0.982 . S
H192 C220 0.979 . S
H193 C220 0.980 . S
H194 C220 0.983 . S
H195 C219 0.979 . S
H196 C219 0.977 . S
C197 C185 1.453 . S
C197 H226 0.982 . S
C197 H227 0.979 . S
C197 H228 0.977 . S
C198 C185 1.684 . S
C198 H223 0.979 . S
C198 H224 0.980 . S
C198 H225 0.983 . S
C199 C200 1.391 . S
C199 C204 1.391 1_556 S
C199 H229 0.948 . S
C200 C199 1.391 . S
C200 C201 1.391 . S
C201 C200 1.391 . S
C201 C202 1.392 . S
C201 H230 0.947 . S
C202 C201 1.392 . S
C202 C203 1.419 . S
C202 H231 0.948 . S
C203 C202 1.419 . S
C203 C204 1.391 1_556 S
C203 C207 1.397 1_556 S
C204 C199 1.391 1_554 S
C204 C203 1.391 1_554 S
C204 C205 1.399 . S
C205 C204 1.399 . S
C205 C206 1.396 . S
C205 C208 1.453 . S
C205 C209 1.684 . S
C206 C187 1.723 . S
C206 C205 1.396 . S
C206 C207 1.394 . S
C207 C203 1.397 1_554 S
C207 C206 1.394 . S
C207 C217 1.723 . S
C208 C205 1.453 . S
C208 H232 0.982 . S
C208 H233 0.979 . S
C208 H234 0.977 . S
C209 C205 1.684 . S
C209 H235 0.979 . S
C209 H236 0.980 . S
C209 H237 0.983 . S
C210 H186 0.948 1_554 S
C210 C211 1.391 . S
C210 C215 1.391 . S
C211 C210 1.391 . S
C211 C212 1.391 . S
C212 H189 0.947 . S
C212 C211 1.391 . S
C212 C213 1.392 . S
C213 H190 0.948 . S
C213 C212 1.392 . S
C213 C214 1.419 . S
C214 C213 1.419 . S
C214 C215 1.391 . S
C214 C218 1.397 . S
C215 C210 1.391 . S
C215 C214 1.391 . S
C215 C216 1.399 1_554 S
C216 C215 1.399 1_556 S
C216 C217 1.396 1_556 S
C216 C219 1.453 . S
C216 C220 1.684 . S
C217 C207 1.723 . S
C217 C216 1.396 1_554 S
C217 C218 1.394 . S
C218 C188 1.723 . S
C218 C214 1.397 . S
C218 C217 1.394 . S
C219 H191 0.982 . S
C219 H195 0.979 . S
C219 H196 0.977 . S
C219 C216 1.453 . S
C220 H192 0.979 . S
C220 H193 0.980 . S
C220 H194 0.983 . S
C220 C216 1.684 . S
H221 C239 0.948 . S
H222 C180 0.948 . S
H223 C198 0.979 . S
H224 C198 0.980 . S
H225 C198 0.983 . S
H226 C197 0.982 . S
H227 C197 0.979 . S
H228 C197 0.977 . S
H229 C199 0.948 . S
H230 C201 0.947 . S
H231 C202 0.948 . S
H232 C208 0.982 . S
H233 C208 0.979 . S
H234 C208 0.977 . S
H235 C209 0.979 . S
H236 C209 0.980 . S
H237 C209 0.983 . S
H238 C182 0.947 . S
C239 C182 1.392 . S
C239 C183 1.419 . S
C239 H221 0.948 . S
C240 C241 1.391 . S
C240 C244 1.391 . S
C240 H282 0.948 . S
C241 C240 1.391 . S
C241 C242 1.391 . S
C242 C241 1.391 . S
C242 H298 0.947 . S
C242 C299 1.392 . S
C243 C244 1.391 . S
C243 C247 1.397 . S
C243 C299 1.419 . S
C244 C240 1.391 . S
C244 C243 1.391 . S
C244 C245 1.399 . S
C245 C244 1.399 . S
C245 C248 1.396 . S
C245 C257 1.453 . S
C245 C258 1.684 . S
H246 C270 0.948 . S
C247 C243 1.397 . S
C247 C248 1.394 . S
C247 C266 1.723 . S
C248 C245 1.396 . S
C248 C247 1.394 . S
C248 C278 1.723 . S
H249 C272 0.947 . S
H250 C273 0.948 . S
H251 C279 0.982 . S
H252 C280 0.979 . S
H253 C280 0.980 . S
H254 C280 0.983 . S
H255 C279 0.979 . S
H256 C279 0.977 . S
C257 C245 1.453 . S
C257 H286 0.982 . S
C257 H287 0.979 . S
C257 H288 0.977 . S
C258 C245 1.684 . S
C258 H283 0.979 . S
C258 H284 0.980 . S
C258 H285 0.983 . S
C259 C260 1.391 . S
C259 C264 1.391 . S
C259 H289 0.948 . S
C260 C259 1.391 . S
C260 C261 1.391 . S
C261 C260 1.391 . S
C261 C262 1.392 . S
C261 H290 0.947 . S
C262 C261 1.392 . S
C262 C263 1.419 . S
C262 H291 0.948 . S
C263 C262 1.419 . S
C263 C264 1.391 . S
C263 C267 1.397 . S
C264 C259 1.391 . S
C264 C263 1.391 . S
C264 C265 1.399 . S
C265 C264 1.399 . S
C265 C266 1.396 . S
C265 C268 1.453 . S
C265 C269 1.684 . S
C266 C247 1.723 . S
C266 C265 1.396 . S
C266 C267 1.394 . S
C267 C263 1.397 . S
C267 C266 1.394 . S
C267 C277 1.723 . S
C268 C265 1.453 . S
C268 H292 0.982 . S
C268 H293 0.979 . S
C268 H294 0.977 . S
C269 C265 1.684 . S
C269 H295 0.979 . S
C269 H296 0.980 . S
C269 H297 0.983 . S
C270 H246 0.948 . S
C270 C271 1.391 . S
C270 C275 1.391 . S
C271 C270 1.391 . S
C271 C272 1.391 . S
C272 H249 0.947 . S
C272 C271 1.391 . S
C272 C273 1.392 . S
C273 H250 0.948 . S
C273 C272 1.392 . S
C273 C274 1.419 . S
C274 C273 1.419 . S
C274 C275 1.391 . S
C274 C278 1.397 . S
C275 C270 1.391 . S
C275 C274 1.391 . S
C275 C276 1.399 . S
C276 C275 1.399 . S
C276 C277 1.396 . S
C276 C279 1.453 . S
C276 C280 1.684 . S
C277 C267 1.723 . S
C277 C276 1.396 . S
C277 C278 1.394 . S
C278 C248 1.723 . S
C278 C274 1.397 . S
C278 C277 1.394 . S
C279 H251 0.982 . S
C279 H255 0.979 . S
C279 H256 0.977 . S
C279 C276 1.453 . S
C280 H252 0.979 . S
C280 H253 0.980 . S
C280 H254 0.983 . S
C280 C276 1.684 . S
H281 C299 0.948 . S
H282 C240 0.948 . S
H283 C258 0.979 . S
H284 C258 0.980 . S
H285 C258 0.983 . S
H286 C257 0.982 . S
H287 C257 0.979 . S
H288 C257 0.977 . S
H289 C259 0.948 . S
H290 C261 0.947 . S
H291 C262 0.948 . S
H292 C268 0.982 . S
H293 C268 0.979 . S
H294 C268 0.977 . S
H295 C269 0.979 . S
H296 C269 0.980 . S
H297 C269 0.983 . S
H298 C242 0.947 . S
C299 C242 1.392 . S
C299 C243 1.419 . S
C299 H281 0.948 . S
C300 C301 1.391 . S
C300 C304 1.391 . S
C300 H342 0.948 . S
C301 C300 1.391 . S
C301 C302 1.391 . S
C302 C301 1.391 . S
C302 H358 0.947 . S
C302 C359 1.392 . S
C303 C304 1.391 . S
C303 C307 1.397 . S
C303 C359 1.419 . S
C304 C300 1.391 . S
C304 C303 1.391 . S
C304 C305 1.399 . S
C305 C304 1.399 . S
C305 C308 1.396 . S
C305 C317 1.453 . S
C305 C318 1.684 . S
H306 C330 0.948 . S
C307 C303 1.397 . S
C307 C308 1.394 . S
C307 C326 1.723 . S
C308 C305 1.396 . S
C308 C307 1.394 . S
C308 C338 1.723 . S
H309 C332 0.947 . S
H310 C333 0.948 . S
H311 C339 0.982 . S
H312 C340 0.979 . S
H313 C340 0.980 . S
H314 C340 0.983 . S
H315 C339 0.979 . S
H316 C339 0.977 . S
C317 C305 1.453 . S
C317 H346 0.982 . S
C317 H347 0.979 . S
C317 H348 0.977 . S
C318 C305 1.684 . S
C318 H343 0.979 . S
C318 H344 0.980 . S
C318 H345 0.983 . S
C319 C320 1.391 . S
C319 C324 1.391 . S
C319 H349 0.948 . S
C320 C319 1.391 . S
C320 C321 1.391 . S
C321 C320 1.391 . S
C321 C322 1.392 . S
C321 H350 0.947 . S
C322 C321 1.392 . S
C322 C323 1.419 . S
C322 H351 0.948 . S
C323 C322 1.419 . S
C323 C324 1.391 . S
C323 C327 1.397 . S
C324 C319 1.391 . S
C324 C323 1.391 . S
C324 C325 1.399 . S
C325 C324 1.399 . S
C325 C326 1.396 . S
C325 C328 1.453 . S
C325 C329 1.684 . S
C326 C307 1.723 . S
C326 C325 1.396 . S
C326 C327 1.394 . S
C327 C323 1.397 . S
C327 C326 1.394 . S
C327 C337 1.723 . S
C328 C325 1.453 . S
C328 H352 0.982 . S
C328 H353 0.979 . S
C328 H354 0.977 . S
C329 C325 1.684 . S
C329 H355 0.979 . S
C329 H356 0.980 . S
C329 H357 0.983 . S
C330 H306 0.948 . S
C330 C331 1.391 . S
C330 C335 1.391 . S
C331 C330 1.391 . S
C331 C332 1.391 . S
C332 H309 0.947 . S
C332 C331 1.391 . S
C332 C333 1.392 . S
C333 H310 0.948 . S
C333 C332 1.392 . S
C333 C334 1.419 . S
C334 C333 1.419 . S
C334 C335 1.391 . S
C334 C338 1.397 . S
C335 C330 1.391 . S
C335 C334 1.391 . S
C335 C336 1.399 . S
C336 C335 1.399 . S
C336 C337 1.396 . S
C336 C339 1.453 . S
C336 C340 1.684 . S
C337 C327 1.723 . S
C337 C336 1.396 . S
C337 C338 1.394 . S
C338 C308 1.723 . S
C338 C334 1.397 . S
C338 C337 1.394 . S
C339 H311 0.982 . S
C339 H315 0.979 . S
C339 H316 0.977 . S
C339 C336 1.453 . S
C340 H312 0.979 . S
C340 H313 0.980 . S
C340 H314 0.983 . S
C340 C336 1.684 . S
H341 C359 0.948 . S
H342 C300 0.948 . S
H343 C318 0.979 . S
H344 C318 0.980 . S
H345 C318 0.983 . S
H346 C317 0.982 . S
H347 C317 0.979 . S
H348 C317 0.977 . S
H349 C319 0.948 . S
H350 C321 0.947 . S
H351 C322 0.948 . S
H352 C328 0.982 . S
H353 C328 0.979 . S
H354 C328 0.977 . S
H355 C329 0.979 . S
H356 C329 0.980 . S
H357 C329 0.983 . S
H358 C302 0.947 . S
C359 C302 1.392 . S
C359 C303 1.419 . S
C359 H341 0.948 . S
C360 C361 1.391 . S
C360 C364 1.391 . S
C360 H402 0.948 . S
C361 C360 1.391 . S
C361 C362 1.391 . S
C362 C361 1.391 . S
C362 H418 0.947 . S
C362 C419 1.392 . S
C363 C364 1.400 . S
C363 C367 1.398 1_545 S
C363 C419 1.422 . S
C364 C360 1.391 . S
C364 C363 1.400 . S
C364 C365 1.399 . S
C365 C364 1.399 . S
C365 C368 1.390 1_545 S
C365 C377 1.453 1_545 S
C365 C378 1.684 . S
H366 C390 0.948 . S
C367 C363 1.398 1_565 S
C367 C368 1.395 . S
C367 C386 1.723 . S
C368 C365 1.390 1_565 S
C368 C367 1.395 . S
C368 C398 1.718 . S
H369 C392 0.947 . S
H370 C393 0.948 . S
H371 C399 0.982 . S
H372 C400 0.979 . S
H373 C400 0.980 . S
H374 C400 0.983 . S
H375 C399 0.979 . S
H376 C399 0.977 . S
C377 C365 1.453 1_565 S
C377 H406 0.982 . S
C377 H407 0.979 . S
C377 H408 0.977 . S
C378 C365 1.684 . S
C378 H403 0.979 . S
C378 H404 0.980 . S
C378 H405 0.983 . S
C379 C380 1.391 . S
C379 C384 1.391 . S
C379 H409 0.948 . S
C380 C379 1.391 . S
C380 C381 1.391 . S
C381 C380 1.391 . S
C381 C382 1.392 . S
C381 H410 0.947 . S
C382 C381 1.392 . S
C382 C383 1.429 . S
C382 H411 0.948 . S
C383 C382 1.429 . S
C383 C384 1.396 . S
C383 C387 1.394 1_545 S
C384 C379 1.391 . S
C384 C383 1.396 . S
C384 C385 1.399 . S
C385 C384 1.399 . S
C385 C386 1.390 1_545 S
C385 C388 1.453 1_545 S
C385 C389 1.684 . S
C386 C367 1.723 . S
C386 C385 1.390 1_565 S
C386 C387 1.389 . S
C387 C383 1.394 1_565 S
C387 C386 1.389 . S
C387 C397 1.724 . S
C388 C385 1.453 1_565 S
C388 H412 0.982 . S
C388 H413 0.979 . S
C388 H414 0.977 . S
C389 C385 1.684 . S
C389 H415 0.979 . S
C389 H416 0.980 . S
C389 H417 0.983 . S
C390 H366 0.948 . S
C390 C391 1.391 . S
C390 C395 1.391 . S
C391 C390 1.391 . S
C391 C392 1.391 . S
C392 H369 0.947 . S
C392 C391 1.391 . S
C392 C393 1.392 . S
C393 H370 0.948 . S
C393 C392 1.392 . S
C393 C394 1.426 . S
C394 C393 1.426 . S
C394 C395 1.403 . S
C394 C398 1.392 1_545 S
C395 C390 1.391 . S
C395 C394 1.403 . S
C395 C396 1.399 . S
C396 C395 1.399 . S
C396 C397 1.385 1_545 S
C396 C399 1.453 1_545 S
C396 C400 1.684 . S
C397 C387 1.724 . S
C397 C396 1.385 1_565 S
C397 C398 1.394 . S
C398 C368 1.718 . S
C398 C394 1.392 1_565 S
C398 C397 1.394 . S
C399 H371 0.982 . S
C399 H375 0.979 . S
C399 H376 0.977 . S
C399 C396 1.453 1_565 S
C400 H372 0.979 . S
C400 H373 0.980 . S
C400 H374 0.983 . S
C400 C396 1.684 . S
H401 C419 0.948 . S
H402 C360 0.948 . S
H403 C378 0.979 . S
H404 C378 0.980 . S
H405 C378 0.983 . S
H406 C377 0.982 . S
H407 C377 0.979 . S
H408 C377 0.977 . S
H409 C379 0.948 . S
H410 C381 0.947 . S
H411 C382 0.948 . S
H412 C388 0.982 . S
H413 C388 0.979 . S
H414 C388 0.977 . S
H415 C389 0.979 . S
H416 C389 0.980 . S
H417 C389 0.983 . S
H418 C362 0.947 . S
C419 C362 1.392 . S
C419 C363 1.422 . S
C419 H401 0.948 . S
C420 C421 1.391 . S
C420 C424 1.391 . S
C420 H462 0.948 . S
C421 C420 1.391 . S
C421 C422 1.391 . S
C422 C421 1.391 . S
C422 H478 0.947 . S
C422 C479 1.392 . S
C423 C424 1.391 . S
C423 C427 1.397 . S
C423 C479 1.419 . S
C424 C420 1.391 . S
C424 C423 1.391 . S
C424 C425 1.399 . S
C425 C424 1.399 . S
C425 C428 1.396 . S
C425 C437 1.453 . S
C425 C438 1.684 . S
H426 C450 0.948 . S
C427 C423 1.397 . S
C427 C428 1.394 . S
C427 C446 1.723 . S
C428 C425 1.396 . S
C428 C427 1.394 . S
C428 C458 1.723 . S
H429 C452 0.947 . S
H430 C453 0.948 . S
H431 C459 0.982 . S
H432 C460 0.979 . S
H433 C460 0.980 . S
H434 C460 0.983 . S
H435 C459 0.979 . S
H436 C459 0.977 . S
C437 C425 1.453 . S
C437 H466 0.982 . S
C437 H467 0.979 . S
C437 H468 0.977 . S
C438 C425 1.684 . S
C438 H463 0.979 . S
C438 H464 0.980 . S
C438 H465 0.983 . S
C439 C440 1.391 . S
C439 C444 1.391 . S
C439 H469 0.948 . S
C440 C439 1.391 . S
C440 C441 1.391 . S
C441 C440 1.391 . S
C441 C442 1.392 . S
C441 H470 0.947 . S
C442 C441 1.392 . S
C442 C443 1.419 . S
C442 H471 0.948 . S
C443 C442 1.419 . S
C443 C444 1.391 . S
C443 C447 1.397 . S
C444 C439 1.391 . S
C444 C443 1.391 . S
C444 C445 1.399 . S
C445 C444 1.399 . S
C445 C446 1.396 . S
C445 C448 1.453 . S
C445 C449 1.684 . S
C446 C427 1.723 . S
C446 C445 1.396 . S
C446 C447 1.394 . S
C447 C443 1.397 . S
C447 C446 1.394 . S
C447 C457 1.723 . S
C448 C445 1.453 . S
C448 H472 0.982 . S
C448 H473 0.979 . S
C448 H474 0.977 . S
C449 C445 1.684 . S
C449 H475 0.979 . S
C449 H476 0.980 . S
C449 H477 0.983 . S
C450 H426 0.948 . S
C450 C451 1.391 . S
C450 C455 1.391 . S
C451 C450 1.391 . S
C451 C452 1.391 . S
C452 H429 0.947 . S
C452 C451 1.391 . S
C452 C453 1.392 . S
C453 H430 0.948 . S
C453 C452 1.392 . S
C453 C454 1.419 . S
C454 C453 1.419 . S
C454 C455 1.391 . S
C454 C458 1.397 . S
C455 C450 1.391 . S
C455 C454 1.391 . S
C455 C456 1.399 . S
C456 C455 1.399 . S
C456 C457 1.396 . S
C456 C459 1.453 . S
C456 C460 1.684 . S
C457 C447 1.723 . S
C457 C456 1.396 . S
C457 C458 1.394 . S
C458 C428 1.723 . S
C458 C454 1.397 . S
C458 C457 1.394 . S
C459 H431 0.982 . S
C459 H435 0.979 . S
C459 H436 0.977 . S
C459 C456 1.453 . S
C460 H432 0.979 . S
C460 H433 0.980 . S
C460 H434 0.983 . S
C460 C456 1.684 . S
H461 C479 0.948 . S
H462 C420 0.948 . S
H463 C438 0.979 . S
H464 C438 0.980 . S
H465 C438 0.983 . S
H466 C437 0.982 . S
H467 C437 0.979 . S
H468 C437 0.977 . S
H469 C439 0.948 . S
H470 C441 0.947 . S
H471 C442 0.948 . S
H472 C448 0.982 . S
H473 C448 0.979 . S
H474 C448 0.977 . S
H475 C449 0.979 . S
H476 C449 0.980 . S
H477 C449 0.983 . S
H478 C422 0.947 . S
C479 C422 1.392 . S
C479 C423 1.419 . S
C479 H461 0.948 . S
C480 O496 1.251 . S
C480 O498 1.254 . S
N481 C482 1.333 . S
N481 C486 1.307 1_455 S
N481 Zn487 2.020 . S
C482 N481 1.333 . S
C482 C483 1.379 1_455 S
C482 H500 0.952 . S
C483 C482 1.379 1_655 S
C483 C484 1.390 . S
C483 H510 0.954 . S
C484 C483 1.390 . S
C484 C485 1.357 . S
C485 C484 1.357 . S
C485 C486 1.370 . S
C485 H511 0.950 . S
C486 N481 1.307 1_655 S
C486 C485 1.370 . S
C486 H504 0.948 . S
Zn487 N481 2.020 . S
Zn487 O496 2.039 . S
Zn487 O502 2.034 . S
Zn487 O506 2.025 1_565 S
Zn487 O508 2.024 1_455 S
C488 O507 1.246 . S
C488 O508 1.249 1_545 S
N489 C490 1.307 . S
N489 C491 1.333 . S
N489 Zn495 2.020 . S
C490 N489 1.307 . S
C490 C494 1.370 . S
C490 H501 0.948 . S
C491 N489 1.333 . S
C491 C492 1.379 . S
C491 H499 0.952 . S
C492 C491 1.379 . S
C492 C493 1.390 . S
C492 H512 0.949 . S
C493 C492 1.390 . S
C493 C494 1.357 . S
C494 C490 1.370 . S
C494 C493 1.357 . S
C494 H513 0.950 . S
Zn495 N489 2.020 . S
Zn495 O498 2.025 1_545 S
Zn495 O503 2.024 . S
Zn495 O505 2.039 . S
Zn495 O507 2.034 1_455 S
O496 C480 1.251 . S
O496 Zn487 2.039 . S
C497 O502 1.246 . S
C497 O503 1.249 1_565 S
O498 C480 1.254 . S
O498 Zn495 2.025 1_565 S
H499 C491 0.952 . S
H500 C482 0.952 . S
H501 C490 0.948 . S
O502 Zn487 2.034 . S
O502 C497 1.246 . S
O503 Zn495 2.024 . S
O503 C497 1.249 1_545 S
H504 C486 0.948 . S
O505 Zn495 2.039 . S
O505 C509 1.251 . S
O506 Zn487 2.025 1_545 S
O506 C509 1.254 . S
O507 C488 1.246 . S
O507 Zn495 2.034 1_655 S
O508 Zn487 2.024 1_655 S
O508 C488 1.249 1_565 S
C509 O505 1.251 . S
C509 O506 1.254 . S
H510 C483 0.954 . S
H511 C485 0.950 . S
H512 C492 0.949 . S
H513 C494 0.950 . S
C514 O530 1.251 1_565 S
C514 O532 1.254 . S
N515 C516 1.333 . S
N515 C520 1.307 . S
N515 Zn521 2.020 . S
C516 N515 1.333 . S
C516 C517 1.379 . S
C516 H534 0.952 . S
C517 C516 1.379 . S
C517 C518 1.390 . S
C517 H544 0.949 . S
C518 C517 1.390 . S
C518 C519 1.357 . S
C519 C518 1.357 . S
C519 C520 1.370 . S
C519 H545 0.950 . S
C520 N515 1.307 . S
C520 C519 1.370 . S
C520 H538 0.948 . S
Zn521 N515 2.020 . S
Zn521 O530 2.039 . S
Zn521 O536 2.034 . S
Zn521 O540 2.025 . S
Zn521 O542 2.024 . S
C522 O541 1.246 1_545 S
C522 O542 1.249 . S
N523 C524 1.307 . S
N523 C525 1.333 . S
N523 Zn529 2.020 . S
C524 N523 1.307 . S
C524 C528 1.370 . S
C524 H535 0.948 . S
C525 N523 1.333 . S
C525 C526 1.379 . S
C525 H533 0.952 . S
C526 C525 1.379 . S
C526 C527 1.390 . S
C526 H546 0.949 . S
C527 C526 1.390 . S
C527 C528 1.357 . S
C528 C524 1.370 . S
C528 C527 1.357 . S
C528 H547 0.950 . S
Zn529 N523 2.020 . S
Zn529 O532 2.025 . S
Zn529 O537 2.024 . S
Zn529 O539 2.039 . S
Zn529 O541 2.034 . S
O530 C514 1.251 1_545 S
O530 Zn521 2.039 . S
C531 O536 1.246 1_565 S
C531 O537 1.249 . S
O532 C514 1.254 . S
O532 Zn529 2.025 . S
H533 C525 0.952 . S
H534 C516 0.952 . S
H535 C524 0.948 . S
O536 Zn521 2.034 . S
O536 C531 1.246 1_545 S
O537 Zn529 2.024 . S
O537 C531 1.249 . S
H538 C520 0.948 . S
O539 Zn529 2.039 . S
O539 C543 1.251 1_565 S
O540 Zn521 2.025 . S
O540 C543 1.254 . S
O541 C522 1.246 1_565 S
O541 Zn529 2.034 . S
O542 Zn521 2.024 . S
O542 C522 1.249 . S
C543 O539 1.251 1_545 S
C543 O540 1.254 . S
H544 C517 0.949 . S
H545 C519 0.950 . S
H546 C526 0.949 . S
H547 C528 0.950 . S
C548 O564 1.251 . S
C548 O566 1.254 . S
N549 C550 1.333 . S
N549 C554 1.307 . S
N549 Zn555 2.020 . S
C550 N549 1.333 . S
C550 C551 1.379 . S
C550 H568 0.952 . S
C551 C550 1.379 . S
C551 C552 1.390 . S
C551 H578 0.949 . S
C552 C551 1.390 . S
C552 C553 1.357 . S
C553 C552 1.357 . S
C553 C554 1.370 . S
C553 H579 0.950 . S
C554 N549 1.307 . S
C554 C553 1.370 . S
C554 H572 0.948 . S
Zn555 N549 2.020 . S
Zn555 O564 2.039 . S
Zn555 O570 2.034 . S
Zn555 O574 2.025 . S
Zn555 O576 2.024 . S
C556 O575 1.246 . S
C556 O576 1.249 . S
N557 C558 1.307 . S
N557 C559 1.333 . S
N557 Zn563 2.020 . S
C558 N557 1.307 . S
C558 C562 1.370 . S
C558 H569 0.948 . S
C559 N557 1.333 . S
C559 C560 1.379 . S
C559 H567 0.952 . S
C560 C559 1.379 . S
C560 C561 1.390 . S
C560 H580 0.949 . S
C561 C560 1.390 . S
C561 C562 1.357 . S
C562 C558 1.370 . S
C562 C561 1.357 . S
C562 H581 0.950 . S
Zn563 N557 2.020 . S
Zn563 O566 2.025 . S
Zn563 O571 2.024 . S
Zn563 O573 2.039 . S
Zn563 O575 2.034 . S
O564 C548 1.251 . S
O564 Zn555 2.039 . S
C565 O570 1.246 . S
C565 O571 1.249 . S
O566 C548 1.254 . S
O566 Zn563 2.025 . S
H567 C559 0.952 . S
H568 C550 0.952 . S
H569 C558 0.948 . S
O570 Zn555 2.034 . S
O570 C565 1.246 . S
O571 Zn563 2.024 . S
O571 C565 1.249 . S
H572 C554 0.948 . S
O573 Zn563 2.039 . S
O573 C577 1.251 . S
O574 Zn555 2.025 . S
O574 C577 1.254 . S
O575 C556 1.246 . S
O575 Zn563 2.034 . S
O576 Zn555 2.024 . S
O576 C556 1.249 . S
C577 O573 1.251 . S
C577 O574 1.254 . S
H578 C551 0.949 . S
H579 C553 0.950 . S
H580 C560 0.949 . S
H581 C562 0.950 . S
C582 O598 1.251 . S
C582 O600 1.254 . S
N583 C584 1.333 . S
N583 C588 1.307 . S
N583 Zn589 2.020 . S
C584 N583 1.333 . S
C584 C585 1.379 . S
C584 H602 0.952 . S
C585 C584 1.379 . S
C585 C586 1.390 . S
C585 H612 0.949 . S
C586 C585 1.390 . S
C586 C587 1.357 . S
C587 C586 1.357 . S
C587 C588 1.370 . S
C587 H613 0.950 . S
C588 N583 1.307 . S
C588 C587 1.370 . S
C588 H606 0.948 . S
Zn589 N583 2.020 . S
Zn589 O598 2.039 . S
Zn589 O604 2.034 . S
Zn589 O608 2.049 . S
Zn589 O610 2.024 . S
C590 O609 1.246 . S
C590 O610 1.249 . S
N591 C592 1.307 . S
N591 C593 1.333 1_455 S
N591 Zn597 2.020 . S
C592 N591 1.307 . S
C592 C596 1.370 . S
C592 H603 0.948 . S
C593 N591 1.333 1_655 S
C593 C594 1.379 . S
C593 H601 0.952 . S
C594 C593 1.379 . S
C594 C595 1.390 . S
C594 H614 0.949 . S
C595 C594 1.390 . S
C595 C596 1.357 1_655 S
C596 C592 1.370 . S
C596 C595 1.357 1_455 S
C596 H615 0.950 . S
Zn597 N591 2.020 . S
Zn597 O600 2.025 . S
Zn597 O605 2.024 1_455 S
Zn597 O607 2.039 1_455 S
Zn597 O609 2.034 . S
O598 C582 1.251 . S
O598 Zn589 2.039 . S
C599 O604 1.246 1_655 S
C599 O605 1.249 . S
O600 C582 1.254 . S
O600 Zn597 2.025 . S
H601 C593 0.952 . S
H602 C584 0.952 . S
H603 C592 0.948 . S
O604 Zn589 2.034 . S
O604 C599 1.246 1_455 S
O605 Zn597 2.024 1_655 S
O605 C599 1.249 . S
H606 C588 0.948 . S
O607 Zn597 2.039 1_655 S
O607 C611 1.251 . S
O608 Zn589 2.049 . S
O608 C611 1.235 1_455 S
O609 C590 1.246 . S
O609 Zn597 2.034 . S
O610 Zn589 2.024 . S
O610 C590 1.249 . S
C611 O607 1.251 . S
C611 O608 1.235 1_655 S
H612 C585 0.949 . S
H613 C587 0.950 . S
H614 C594 0.949 . S
H615 C596 0.950 . S
H616 C624 0.929 . S
H617 C626 0.930 . S
H618 C628 0.930 . S
H619 C631 0.929 . S
H620 C634 0.930 . S
H621 C636 0.960 . S
H622 C636 0.960 . S
H623 C636 0.960 . S
C624 H616 0.929 . S
C624 C625 1.376 1_545 S
C624 C626 1.384 . S
C625 C624 1.376 1_565 S
C625 C631 1.391 . S
C626 H617 0.930 . S
C626 C624 1.384 . S
C626 C627 1.372 1_545 S
C627 C626 1.372 1_565 S
C627 C628 1.400 . S
C627 C632 1.490 . S
C628 H618 0.930 . S
C628 C627 1.400 . S
C628 C631 1.386 . S
H629 C645 0.930 . S
H630 C646 0.931 . S
C631 H619 0.929 . S
C631 C625 1.391 . S
C631 C628 1.386 . S
C632 C627 1.490 . S
C632 C634 1.395 . S
C632 C635 1.403 1_565 S
H633 C639 0.930 . S
C634 H620 0.930 . S
C634 C632 1.395 . S
C634 C637 1.403 . S
C635 C632 1.403 1_545 S
C635 C636 1.524 . S
C635 C639 1.400 . S
C636 H621 0.960 . S
C636 H622 0.960 . S
C636 H623 0.960 . S
C636 C635 1.524 . S
C637 C634 1.403 . S
C637 C638 1.392 . S
C637 C641 1.495 . S
C638 C637 1.392 . S
C638 C639 1.385 1_565 S
C638 C640 1.478 . S
C639 H633 0.930 . S
C639 C635 1.400 . S
C639 C638 1.385 1_545 S
C640 C638 1.478 . S
C640 C642 1.381 . S
C640 C646 1.383 . S
C641 C637 1.495 . S
C641 H647 0.959 . S
C641 H648 0.961 . S
C641 H649 0.960 . S
C642 C640 1.381 . S
C642 C643 1.394 . S
C642 H650 0.930 . S
C643 C642 1.394 . S
C643 C644 1.383 . S
C643 H651 0.939 . S
C644 C643 1.383 . S
C644 C645 1.377 . S
C645 H629 0.930 . S
C645 C644 1.377 . S
C645 C646 1.379 . S
C646 H630 0.931 . S
C646 C640 1.383 . S
C646 C645 1.379 . S
H647 C641 0.959 . S
H648 C641 0.961 . S
H649 C641 0.960 . S
H650 C642 0.930 . S
H651 C643 0.939 . S
H652 C660 0.929 . S
H653 C662 0.930 . S
H654 C664 0.930 . S
H655 C667 0.929 . S
H656 C670 0.930 . S
H657 C672 0.960 . S
H658 C672 0.960 . S
H659 C672 0.960 . S
C660 H652 0.929 . S
C660 C661 1.377 . S
C660 C662 1.384 . S
C661 C660 1.377 . S
C661 C667 1.390 . S
C662 H653 0.930 . S
C662 C660 1.384 . S
C662 C663 1.372 . S
C663 C662 1.372 . S
C663 C664 1.400 . S
C663 C668 1.490 . S
C664 H654 0.930 . S
C664 C663 1.400 . S
C664 C667 1.386 . S
H665 C681 0.930 . S
H666 C682 0.931 . S
C667 H655 0.929 . S
C667 C661 1.390 . S
C667 C664 1.386 . S
C668 C663 1.490 . S
C668 C670 1.395 . S
C668 C671 1.403 . S
H669 C675 0.930 . S
C670 H656 0.930 . S
C670 C668 1.395 . S
C670 C673 1.403 . S
C671 C668 1.403 . S
C671 C672 1.524 . S
C671 C675 1.400 . S
C672 H657 0.960 . S
C672 H658 0.960 . S
C672 H659 0.960 . S
C672 C671 1.524 . S
C673 C670 1.403 . S
C673 C674 1.392 . S
C673 C677 1.495 . S
C674 C673 1.392 . S
C674 C675 1.385 . S
C674 C676 1.478 . S
C675 H669 0.930 . S
C675 C671 1.400 . S
C675 C674 1.385 . S
C676 C674 1.478 . S
C676 C678 1.381 . S
C676 C682 1.383 . S
C677 C673 1.495 . S
C677 H683 0.959 . S
C677 H684 0.961 . S
C677 H685 0.960 . S
C678 C676 1.381 . S
C678 C679 1.394 . S
C678 H686 0.930 . S
C679 C678 1.394 . S
C679 C680 1.383 . S
C679 H687 0.929 . S
C680 C679 1.383 . S
C680 C681 1.377 . S
C681 H665 0.930 . S
C681 C680 1.377 . S
C681 C682 1.379 . S
C682 H666 0.931 . S
C682 C676 1.383 . S
C682 C681 1.379 . S
H683 C677 0.959 . S
H684 C677 0.961 . S
H685 C677 0.960 . S
H686 C678 0.930 . S
H687 C679 0.929 . S
H688 C696 0.929 . S
H689 C698 0.930 . S
H690 C700 0.930 . S
H691 C703 0.929 . S
H692 C706 0.930 . S
H693 C708 0.960 . S
H694 C708 0.960 . S
H695 C708 0.960 . S
C696 H688 0.929 . S
C696 C697 1.377 . S
C696 C698 1.384 . S
C697 C696 1.377 . S
C697 C703 1.390 . S
C698 H689 0.930 . S
C698 C696 1.384 . S
C698 C699 1.372 . S
C699 C698 1.372 . S
C699 C700 1.400 . S
C699 C704 1.490 . S
C700 H690 0.930 . S
C700 C699 1.400 . S
C700 C703 1.386 . S
H701 C717 0.930 . S
H702 C718 0.931 . S
C703 H691 0.929 . S
C703 C697 1.390 . S
C703 C700 1.386 . S
C704 C699 1.490 . S
C704 C706 1.395 . S
C704 C707 1.403 . S
H705 C711 0.930 . S
C706 H692 0.930 . S
C706 C704 1.395 . S
C706 C709 1.403 . S
C707 C704 1.403 . S
C707 C708 1.524 . S
C707 C711 1.400 . S
C708 H693 0.960 . S
C708 H694 0.960 . S
C708 H695 0.960 . S
C708 C707 1.524 . S
C709 C706 1.403 . S
C709 C710 1.392 . S
C709 C713 1.495 . S
C710 C709 1.392 . S
C710 C711 1.385 . S
C710 C712 1.478 . S
C711 H705 0.930 . S
C711 C707 1.400 . S
C711 C710 1.385 . S
C712 C710 1.478 . S
C712 C714 1.381 . S
C712 C718 1.383 . S
C713 C709 1.495 . S
C713 H719 0.959 . S
C713 H720 0.961 . S
C713 H721 0.960 . S
C714 C712 1.381 . S
C714 C715 1.394 . S
C714 H722 0.930 . S
C715 C714 1.394 . S
C715 C716 1.383 . S
C715 H723 0.929 . S
C716 C715 1.383 . S
C716 C717 1.377 . S
C717 H701 0.930 . S
C717 C716 1.377 . S
C717 C718 1.379 . S
C718 H702 0.931 . S
C718 C712 1.383 . S
C718 C717 1.379 . S
H719 C713 0.959 . S
H720 C713 0.961 . S
H721 C713 0.960 . S
H722 C714 0.930 . S
H723 C715 0.929 . S
H724 C732 0.929 . S
H725 C734 0.930 . S
H726 C736 0.930 . S
H727 C739 0.929 . S
H728 C742 0.930 . S
H729 C744 0.960 . S
H730 C744 0.960 . S
H731 C744 0.960 . S
C732 H724 0.929 . S
C732 C733 1.377 . S
C732 C734 1.384 . S
C733 C732 1.377 . S
C733 C739 1.390 . S
C734 H725 0.930 . S
C734 C732 1.384 . S
C734 C735 1.372 . S
C735 C734 1.372 . S
C735 C736 1.400 . S
C735 C740 1.490 . S
C736 H726 0.930 . S
C736 C735 1.400 . S
C736 C739 1.386 . S
H737 C753 0.930 . S
H738 C754 0.931 . S
C739 H727 0.929 . S
C739 C733 1.390 . S
C739 C736 1.386 . S
C740 C735 1.490 . S
C740 C742 1.395 . S
C740 C743 1.403 . S
H741 C747 0.930 . S
C742 H728 0.930 . S
C742 C740 1.395 . S
C742 C745 1.403 . S
C743 C740 1.403 . S
C743 C744 1.524 . S
C743 C747 1.400 . S
C744 H729 0.960 . S
C744 H730 0.960 . S
C744 H731 0.960 . S
C744 C743 1.524 . S
C745 C742 1.403 . S
C745 C746 1.392 . S
C745 C749 1.495 . S
C746 C745 1.392 . S
C746 C747 1.385 . S
C746 C748 1.478 . S
C747 H741 0.930 . S
C747 C743 1.400 . S
C747 C746 1.385 . S
C748 C746 1.478 . S
C748 C750 1.381 . S
C748 C754 1.383 . S
C749 C745 1.495 . S
C749 H755 0.959 . S
C749 H756 0.961 . S
C749 H757 0.960 . S
C750 C748 1.381 . S
C750 C751 1.394 . S
C750 H758 0.930 . S
C751 C750 1.394 . S
C751 C752 1.383 . S
C751 H759 0.929 . S
C752 C751 1.383 . S
C752 C753 1.377 . S
C753 H737 0.930 . S
C753 C752 1.377 . S
C753 C754 1.379 . S
C754 H738 0.931 . S
C754 C748 1.383 . S
C754 C753 1.379 . S
H755 C749 0.959 . S
H756 C749 0.961 . S
H757 C749 0.960 . S
H758 C750 0.930 . S
H759 C751 0.929 . S
H760 C768 0.929 . S
H761 C770 0.930 . S
H762 C772 0.930 . S
H763 C775 0.930 . S
H764 C778 0.930 . S
H765 C780 0.960 . S
H766 C780 0.960 . S
H767 C780 0.960 . S
C768 H760 0.929 . S
C768 C769 1.378 . S
C768 C770 1.384 . S
C769 C768 1.378 . S
C769 C775 1.390 1_556 S
C770 H761 0.930 . S
C770 C768 1.384 . S
C770 C771 1.372 . S
C771 C770 1.372 . S
C771 C772 1.400 . S
C771 C776 1.490 . S
C772 H762 0.930 . S
C772 C771 1.400 . S
C772 C775 1.385 1_556 S
H773 C789 0.930 . S
H774 C790 0.931 . S
C775 H763 0.930 . S
C775 C769 1.390 1_554 S
C775 C772 1.385 1_554 S
C776 C771 1.490 . S
C776 C778 1.395 . S
C776 C779 1.403 1_545 S
H777 C783 0.930 . S
C778 H764 0.930 . S
C778 C776 1.395 . S
C778 C781 1.403 . S
C779 C776 1.403 1_565 S
C779 C780 1.524 . S
C779 C783 1.400 . S
C780 H765 0.960 . S
C780 H766 0.960 . S
C780 H767 0.960 . S
C780 C779 1.524 . S
C781 C778 1.403 . S
C781 C782 1.392 . S
C781 C785 1.495 . S
C782 C781 1.392 . S
C782 C783 1.385 1_545 S
C782 C784 1.478 . S
C783 H777 0.930 . S
C783 C779 1.400 . S
C783 C782 1.385 1_565 S
C784 C782 1.478 . S
C784 C786 1.381 . S
C784 C790 1.383 . S
C785 C781 1.495 . S
C785 H791 0.959 . S
C785 H792 0.961 . S
C785 H793 0.960 . S
C786 C784 1.381 . S
C786 C787 1.394 . S
C786 H794 0.930 . S
C787 C786 1.394 . S
C787 C788 1.383 . S
C787 H795 0.929 . S
C788 C787 1.383 . S
C788 C789 1.377 . S
C789 H773 0.930 . S
C789 C788 1.377 . S
C789 C790 1.379 . S
C790 H774 0.931 . S
C790 C784 1.383 . S
C790 C789 1.379 . S
H791 C785 0.959 . S
H792 C785 0.961 . S
H793 C785 0.960 . S
H794 C786 0.930 . S
H795 C787 0.929 . S
H796 C804 0.929 . S
H797 C806 0.930 . S
H798 C808 0.930 . S
H799 C811 0.929 . S
H800 C814 0.930 . S
H801 C816 0.960 . S
H802 C816 0.960 1_554 S
H803 C816 0.960 . S
C804 H796 0.929 . S
C804 C805 1.377 1_556 S
C804 C806 1.384 . S
C805 C804 1.377 1_554 S
C805 C811 1.390 . S
C806 H797 0.930 . S
C806 C804 1.384 . S
C806 C807 1.372 . S
C807 C806 1.372 . S
C807 C808 1.400 . S
C807 C812 1.490 . S
C808 H798 0.930 . S
C808 C807 1.400 . S
C808 C811 1.386 1_556 S
H809 C825 0.930 . S
H810 C826 0.931 . S
C811 H799 0.929 . S
C811 C805 1.390 . S
C811 C808 1.386 1_554 S
C812 C807 1.490 . S
C812 C814 1.395 . S
C812 C815 1.403 . S
H813 C819 0.930 . S
C814 H800 0.930 . S
C814 C812 1.395 . S
C814 C817 1.403 . S
C815 C812 1.403 . S
C815 C816 1.524 . S
C815 C819 1.400 . S
C816 H801 0.960 . S
C816 H802 0.960 1_556 S
C816 H803 0.960 . S
C816 C815 1.524 . S
C817 C814 1.403 . S
C817 C818 1.392 . S
C817 C821 1.495 . S
C818 C817 1.392 . S
C818 C819 1.385 . S
C818 C820 1.478 . S
C819 H813 0.930 . S
C819 C815 1.400 . S
C819 C818 1.385 . S
C820 C818 1.478 . S
C820 C822 1.381 . S
C820 C826 1.383 . S
C821 C817 1.495 . S
C821 H827 0.959 . S
C821 H828 0.961 . S
C821 H829 0.960 . S
C822 C820 1.381 . S
C822 C823 1.394 . S
C822 H830 0.930 . S
C823 C822 1.394 . S
C823 C824 1.383 . S
C823 H831 0.929 . S
C824 C823 1.383 . S
C824 C825 1.377 . S
C825 H809 0.930 . S
C825 C824 1.377 . S
C825 C826 1.379 . S
C826 H810 0.931 . S
C826 C820 1.383 . S
C826 C825 1.379 . S
H827 C821 0.959 . S
H828 C821 0.961 . S
H829 C821 0.960 . S
H830 C822 0.930 . S
H831 C823 0.929 . S
H832 C840 0.929 1_556 S
H833 C842 0.930 . S
H834 C844 0.930 . S
H835 C847 0.929 . S
H836 C850 0.930 . S
H837 C852 0.960 . S
H838 C852 0.960 . S
H839 C852 0.960 1_554 S
C840 H832 0.929 1_554 S
C840 C841 1.377 . S
C840 C842 1.384 1_554 S
C841 C840 1.377 . S
C841 C847 1.390 . S
C842 H833 0.930 . S
C842 C840 1.384 1_556 S
C842 C843 1.372 . S
C843 C842 1.372 . S
C843 C844 1.400 1_556 S
C843 C848 1.490 . S
C844 H834 0.930 . S
C844 C843 1.400 1_554 S
C844 C847 1.386 . S
H845 C861 0.930 . S
H846 C862 0.931 . S
C847 H835 0.929 . S
C847 C841 1.390 . S
C847 C844 1.386 . S
C848 C843 1.490 . S
C848 C850 1.395 . S
C848 C851 1.403 . S
H849 C855 0.930 . S
C850 H836 0.930 . S
C850 C848 1.395 . S
C850 C853 1.403 . S
C851 C848 1.403 . S
C851 C852 1.524 . S
C851 C855 1.400 . S
C852 H837 0.960 . S
C852 H838 0.960 . S
C852 H839 0.960 1_556 S
C852 C851 1.524 . S
C853 C850 1.403 . S
C853 C854 1.392 . S
C853 C857 1.495 . S
C854 C853 1.392 . S
C854 C855 1.385 . S
C854 C856 1.478 . S
C855 H849 0.930 . S
C855 C851 1.400 . S
C855 C854 1.385 . S
C856 C854 1.478 . S
C856 C858 1.381 . S
C856 C862 1.383 . S
C857 C853 1.495 . S
C857 H863 0.959 . S
C857 H864 0.961 . S
C857 H865 0.960 . S
C858 C856 1.381 . S
C858 C859 1.394 . S
C858 H866 0.930 . S
C859 C858 1.394 . S
C859 C860 1.383 . S
C859 H867 0.929 . S
C860 C859 1.383 . S
C860 C861 1.377 . S
C861 H845 0.930 . S
C861 C860 1.377 . S
C861 C862 1.379 . S
C862 H846 0.931 . S
C862 C856 1.383 . S
C862 C861 1.379 . S
H863 C857 0.959 . S
H864 C857 0.961 . S
H865 C857 0.960 . S
H866 C858 0.930 . S
H867 C859 0.929 . S
H868 C876 0.929 . S
H869 C878 0.930 . S
H870 C880 0.930 . S
H871 C883 0.929 . S
H872 C886 0.930 . S
H873 C888 0.960 . S
H874 C888 0.960 . S
H875 C888 0.960 . S
C876 H868 0.929 . S
C876 C877 1.377 . S
C876 C878 1.384 . S
C877 C876 1.377 . S
C877 C883 1.390 . S
C878 H869 0.930 . S
C878 C876 1.384 . S
C878 C879 1.372 . S
C879 C878 1.372 . S
C879 C880 1.400 . S
C879 C884 1.490 . S
C880 H870 0.930 . S
C880 C879 1.400 . S
C880 C883 1.386 . S
H881 C897 0.930 . S
H882 C898 0.931 . S
C883 H871 0.929 . S
C883 C877 1.390 . S
C883 C880 1.386 . S
C884 C879 1.490 . S
C884 C886 1.395 . S
C884 C887 1.403 . S
H885 C891 0.930 . S
C886 H872 0.930 . S
C886 C884 1.395 . S
C886 C889 1.403 . S
C887 C884 1.403 . S
C887 C888 1.524 . S
C887 C891 1.400 . S
C888 H873 0.960 . S
C888 H874 0.960 . S
C888 H875 0.960 . S
C888 C887 1.524 . S
C889 C886 1.403 . S
C889 C890 1.392 . S
C889 C893 1.495 . S
C890 C889 1.392 . S
C890 C891 1.385 . S
C890 C892 1.478 . S
C891 H885 0.930 . S
C891 C887 1.400 . S
C891 C890 1.385 . S
C892 C890 1.478 . S
C892 C894 1.381 . S
C892 C898 1.383 . S
C893 C889 1.495 . S
C893 H899 0.959 . S
C893 H900 0.961 . S
C893 H901 0.960 . S
C894 C892 1.381 . S
C894 C895 1.391 1_655 S
C894 H902 0.930 1_655 S
C895 C894 1.391 1_455 S
C895 C896 1.378 1_455 S
C895 H903 0.938 . S
C896 C895 1.378 1_655 S
C896 C897 1.377 . S
C897 H881 0.930 . S
C897 C896 1.377 . S
C897 C898 1.379 . S
C898 H882 0.931 . S
C898 C892 1.383 . S
C898 C897 1.379 . S
H899 C893 0.959 . S
H900 C893 0.961 . S
H901 C893 0.960 . S
H902 C894 0.930 1_455 S
H903 C895 0.938 . S
H904 C912 0.929 . S
H905 C914 0.930 . S
H906 C916 0.930 . S
H907 C919 0.929 . S
H908 C922 0.930 . S
H909 C924 0.960 . S
H910 C924 0.960 . S
H911 C924 0.960 . S
C912 H904 0.929 . S
C912 C913 1.377 . S
C912 C914 1.384 . S
C913 C912 1.377 . S
C913 C919 1.390 . S
C914 H905 0.930 . S
C914 C912 1.384 . S
C914 C915 1.372 . S
C915 C914 1.372 . S
C915 C916 1.400 . S
C915 C920 1.490 . S
C916 H906 0.930 . S
C916 C915 1.400 . S
C916 C919 1.386 . S
H917 C933 0.930 1_655 S
H918 C934 0.931 . S
C919 H907 0.929 . S
C919 C913 1.390 . S
C919 C916 1.386 . S
C920 C915 1.490 . S
C920 C922 1.395 . S
C920 C923 1.403 . S
H921 C927 0.930 . S
C922 H908 0.930 . S
C922 C920 1.395 . S
C922 C925 1.403 . S
C923 C920 1.403 . S
C923 C924 1.524 . S
C923 C927 1.400 . S
C924 H909 0.960 . S
C924 H910 0.960 . S
C924 H911 0.960 . S
C924 C923 1.524 . S
C925 C922 1.403 . S
C925 C926 1.392 . S
C925 C929 1.495 . S
C926 C925 1.392 . S
C926 C927 1.385 . S
C926 C928 1.478 . S
C927 H921 0.930 . S
C927 C923 1.400 . S
C927 C926 1.385 . S
C928 C926 1.478 . S
C928 C930 1.381 . S
C928 C934 1.383 . S
C929 C925 1.495 . S
C929 H935 0.959 . S
C929 H936 0.961 . S
C929 H937 0.960 . S
C930 C928 1.381 . S
C930 C931 1.394 . S
C930 H938 0.930 . S
C931 C930 1.394 . S
C931 C932 1.383 . S
C931 H939 0.929 . S
C932 C931 1.383 . S
C932 C933 1.377 . S
C933 H917 0.930 1_455 S
C933 C932 1.377 . S
C933 C934 1.379 . S
C934 H918 0.931 . S
C934 C928 1.383 . S
C934 C933 1.379 . S
H935 C929 0.959 . S
H936 C929 0.961 . S
H937 C929 0.960 . S
H938 C930 0.930 . S
H939 C931 0.929 . S
H940 C948 0.929 . S
H941 C950 0.930 . S
H942 C952 0.930 . S
H943 C955 0.929 . S
H944 C958 0.930 . S
H945 C960 0.960 . S
H946 C960 0.960 . S
H947 C960 0.960 . S
C948 H940 0.929 . S
C948 C949 1.371 1_565 S
C948 C950 1.384 . S
C949 C948 1.371 1_545 S
C949 C955 1.394 . S
C950 H941 0.930 . S
C950 C948 1.384 . S
C950 C951 1.372 . S
C951 C950 1.372 . S
C951 C952 1.400 1_565 S
C951 C956 1.490 . S
C952 H942 0.930 . S
C952 C951 1.400 1_545 S
C952 C955 1.386 . S
H953 C969 0.928 1_545 S
H954 C970 0.932 1_545 S
C955 H943 0.929 . S
C955 C949 1.394 . S
C955 C952 1.386 . S
C956 C951 1.490 . S
C956 C958 1.395 1_565 S
C956 C959 1.403 . S
H957 C963 0.930 . S
C958 H944 0.930 . S
C958 C956 1.395 1_545 S
C958 C961 1.403 . S
C959 C956 1.403 . S
C959 C960 1.524 . S
C959 C963 1.400 . S
C960 H945 0.960 . S
C960 H946 0.960 . S
C960 H947 0.960 . S
C960 C959 1.524 . S
C961 C958 1.403 . S
C961 C962 1.392 1_545 S
C961 C965 1.495 . S
C962 C961 1.392 1_565 S
C962 C963 1.385 . S
C962 C964 1.478 . S
C963 H957 0.930 . S
C963 C959 1.400 . S
C963 C962 1.385 . S
C964 C962 1.478 . S
C964 C966 1.381 . S
C964 C970 1.382 . S
C965 C961 1.495 . S
C965 H971 0.959 . S
C965 H972 0.961 . S
C965 H973 0.960 . S
C966 C964 1.381 . S
C966 C967 1.394 . S
C966 H974 0.930 . S
C967 C966 1.394 . S
C967 C968 1.383 . S
C967 H975 0.929 . S
C968 C967 1.383 . S
C968 C969 1.377 . S
C969 H953 0.928 1_565 S
C969 C968 1.377 . S
C969 C970 1.379 . S
C970 H954 0.932 1_565 S
C970 C964 1.382 . S
C970 C969 1.379 . S
H971 C965 0.959 . S
H972 C965 0.961 . S
H973 C965 0.960 . S
H974 C966 0.930 . S
H975 C967 0.929 . S
H976 C984 0.929 . S
H977 C986 0.930 . S
H978 C988 0.930 . S
H979 C991 0.929 . S
H980 C994 0.930 . S
H981 C996 0.960 . S
H982 C996 0.960 . S
H983 C996 0.960 . S
C984 H976 0.929 . S
C984 C985 1.377 . S
C984 C986 1.384 . S
C985 C984 1.377 . S
C985 C991 1.390 . S
C986 H977 0.930 . S
C986 C984 1.384 . S
C986 C987 1.372 . S
C987 C986 1.372 . S
C987 C988 1.400 . S
C987 C992 1.490 . S
C988 H978 0.930 . S
C988 C987 1.400 . S
C988 C991 1.386 . S
H989 C1005 0.930 . S
H990 C1006 0.931 . S
C991 H979 0.929 . S
C991 C985 1.390 . S
C991 C988 1.386 . S
C992 C987 1.490 . S
C992 C994 1.395 . S
C992 C995 1.403 . S
H993 C999 0.930 . S
C994 H980 0.930 . S
C994 C992 1.395 . S
C994 C997 1.403 . S
C995 C992 1.403 . S
C995 C996 1.524 . S
C995 C999 1.400 . S
C996 H981 0.960 . S
C996 H982 0.960 . S
C996 H983 0.960 . S
C996 C995 1.524 . S
C997 C994 1.403 . S
C997 C998 1.392 . S
C997 C1001 1.495 . S
C998 C997 1.392 . S
C998 C999 1.385 . S
C998 C1000 1.478 . S
C999 H993 0.930 . S
C999 C995 1.400 . S
C999 C998 1.385 . S
C1000 C998 1.478 . S
C1000 C1002 1.381 . S
C1000 C1006 1.383 . S
C1001 C997 1.495 . S
C1001 H1007 0.959 . S
C1001 H1008 0.961 . S
C1001 H1009 0.960 . S
C1002 C1000 1.381 . S
C1002 C1003 1.394 . S
C1002 H1010 0.930 . S
C1003 C1002 1.394 . S
C1003 C1004 1.383 . S
C1003 H1011 0.929 . S
C1004 C1003 1.383 . S
C1004 C1005 1.377 . S
C1005 H989 0.930 . S
C1005 C1004 1.377 . S
C1005 C1006 1.379 . S
C1006 H990 0.931 . S
C1006 C1000 1.383 . S
C1006 C1005 1.379 . S
H1007 C1001 0.959 . S
H1008 C1001 0.961 . S
H1009 C1001 0.960 . S
H1010 C1002 0.930 . S
H1011 C1003 0.929 . S
H1012 C1020 0.929 . S
H1013 C1022 0.930 . S
H1014 C1024 0.930 . S
H1015 C1027 0.929 . S
H1016 C1030 0.930 . S
H1017 C1032 0.960 . S
H1018 C1032 0.960 . S
H1019 C1032 0.960 . S
C1020 H1012 0.929 . S
C1020 C1021 1.377 . S
C1020 C1022 1.384 . S
C1021 C1020 1.377 . S
C1021 C1027 1.390 . S
C1022 H1013 0.930 . S
C1022 C1020 1.384 . S
C1022 C1023 1.372 . S
C1023 C1022 1.372 . S
C1023 C1024 1.400 . S
C1023 C1028 1.490 . S
C1024 H1014 0.930 . S
C1024 C1023 1.400 . S
C1024 C1027 1.386 . S
H1025 C1041 0.930 . S
H1026 C1042 0.931 . S
C1027 H1015 0.929 . S
C1027 C1021 1.390 . S
C1027 C1024 1.386 . S
C1028 C1023 1.490 . S
C1028 C1030 1.395 . S
C1028 C1031 1.403 . S
H1029 C1035 0.930 . S
C1030 H1016 0.930 . S
C1030 C1028 1.395 . S
C1030 C1033 1.403 . S
C1031 C1028 1.403 . S
C1031 C1032 1.524 . S
C1031 C1035 1.400 . S
C1032 H1017 0.960 . S
C1032 H1018 0.960 . S
C1032 H1019 0.960 . S
C1032 C1031 1.524 . S
C1033 C1030 1.403 . S
C1033 C1034 1.392 . S
C1033 C1037 1.495 . S
C1034 C1033 1.392 . S
C1034 C1035 1.385 . S
C1034 C1036 1.478 . S
C1035 H1029 0.930 . S
C1035 C1031 1.400 . S
C1035 C1034 1.385 . S
C1036 C1034 1.478 . S
C1036 C1038 1.381 . S
C1036 C1042 1.383 . S
C1037 C1033 1.495 . S
C1037 H1043 0.959 . S
C1037 H1044 0.961 . S
C1037 H1045 0.960 . S
C1038 C1036 1.381 . S
C1038 C1039 1.394 . S
C1038 H1046 0.930 . S
C1039 C1038 1.394 . S
C1039 C1040 1.383 . S
C1039 H1047 0.929 . S
C1040 C1039 1.383 . S
C1040 C1041 1.377 . S
C1041 H1025 0.930 . S
C1041 C1040 1.377 . S
C1041 C1042 1.379 . S
C1042 H1026 0.931 . S
C1042 C1036 1.383 . S
C1042 C1041 1.379 . S
H1043 C1037 0.959 . S
H1044 C1037 0.961 . S
H1045 C1037 0.960 . S
H1046 C1038 0.930 . S
H1047 C1039 0.929 . S
H1048 C1056 0.929 . S
H1049 C1058 0.930 . S
H1050 C1060 0.930 . S
H1051 C1063 0.929 . S
H1052 C1066 0.930 . S
H1053 C1068 0.960 . S
H1054 C1068 0.960 . S
H1055 C1068 0.960 . S
C1056 H1048 0.929 . S
C1056 C1057 1.377 . S
C1056 C1058 1.384 . S
C1057 C1056 1.377 . S
C1057 C1063 1.390 . S
C1058 H1049 0.930 . S
C1058 C1056 1.384 . S
C1058 C1059 1.372 . S
C1059 C1058 1.372 . S
C1059 C1060 1.400 . S
C1059 C1064 1.490 . S
C1060 H1050 0.930 . S
C1060 C1059 1.400 . S
C1060 C1063 1.386 . S
H1061 C1077 0.930 . S
H1062 C1078 0.931 . S
C1063 H1051 0.929 . S
C1063 C1057 1.390 . S
C1063 C1060 1.386 . S
C1064 C1059 1.490 . S
C1064 C1066 1.395 . S
C1064 C1067 1.403 . S
H1065 C1071 0.930 . S
C1066 H1052 0.930 . S
C1066 C1064 1.395 . S
C1066 C1069 1.403 . S
C1067 C1064 1.403 . S
C1067 C1068 1.524 . S
C1067 C1071 1.400 . S
C1068 H1053 0.960 . S
C1068 H1054 0.960 . S
C1068 H1055 0.960 . S
C1068 C1067 1.524 . S
C1069 C1066 1.403 . S
C1069 C1070 1.392 . S
C1069 C1073 1.495 . S
C1070 C1069 1.392 . S
C1070 C1071 1.385 . S
C1070 C1072 1.478 . S
C1071 H1065 0.930 . S
C1071 C1067 1.400 . S
C1071 C1070 1.385 . S
C1072 C1070 1.478 . S
C1072 C1074 1.381 1_655 S
C1072 C1078 1.383 . S
C1073 C1069 1.495 . S
C1073 H1079 0.959 . S
C1073 H1080 0.961 . S
C1073 H1081 0.960 . S
C1074 C1072 1.381 1_455 S
C1074 C1075 1.394 . S
C1074 H1082 0.930 . S
C1075 C1074 1.394 . S
C1075 C1076 1.383 . S
C1075 H1083 0.929 . S
C1076 C1075 1.383 . S
C1076 C1077 1.377 . S
C1077 H1061 0.930 . S
C1077 C1076 1.377 . S
C1077 C1078 1.379 1_455 S
C1078 H1062 0.931 . S
C1078 C1072 1.383 . S
C1078 C1077 1.379 1_655 S
H1079 C1073 0.959 . S
H1080 C1073 0.961 . S
H1081 C1073 0.960 . S
H1082 C1074 0.930 . S
H1083 C1075 0.929 . S
H1084 C1092 0.929 . S
H1085 C1094 0.930 . S
H1086 C1096 0.930 . S
H1087 C1099 0.929 . S
H1088 C1102 0.930 . S
H1089 C1104 0.960 . S
H1090 C1104 0.960 . S
H1091 C1104 0.960 . S
C1092 H1084 0.929 . S
C1092 C1093 1.375 1_545 S
C1092 C1094 1.384 . S
C1093 C1092 1.375 1_565 S
C1093 C1099 1.391 . S
C1094 H1085 0.930 . S
C1094 C1092 1.384 . S
C1094 C1095 1.372 . S
C1095 C1094 1.372 . S
C1095 C1096 1.400 1_545 S
C1095 C1100 1.490 . S
C1096 H1086 0.930 . S
C1096 C1095 1.400 1_565 S
C1096 C1099 1.386 . S
H1097 C1113 0.930 1_565 S
H1098 C1114 0.946 . S
C1099 H1087 0.929 . S
C1099 C1093 1.391 . S
C1099 C1096 1.386 . S
C1100 C1095 1.490 . S
C1100 C1102 1.395 1_545 S
C1100 C1103 1.403 . S
H1101 C1107 0.930 . S
C1102 H1088 0.930 . S
C1102 C1100 1.395 1_565 S
C1102 C1105 1.403 . S
C1103 C1100 1.403 . S
C1103 C1104 1.524 . S
C1103 C1107 1.400 . S
C1104 H1089 0.960 . S
C1104 H1090 0.960 . S
C1104 H1091 0.960 . S
C1104 C1103 1.524 . S
C1105 C1102 1.403 . S
C1105 C1106 1.392 1_565 S
C1105 C1109 1.495 . S
C1106 C1105 1.392 1_545 S
C1106 C1107 1.385 . S
C1106 C1108 1.478 . S
C1107 H1101 0.930 . S
C1107 C1103 1.400 . S
C1107 C1106 1.385 . S
C1108 C1106 1.478 . S
C1108 C1110 1.381 . S
C1108 C1114 1.375 1_545 S
C1109 C1105 1.495 . S
C1109 H1115 0.959 . S
C1109 H1116 0.961 . S
C1109 H1117 0.960 . S
C1110 C1108 1.381 . S
C1110 C1111 1.394 . S
C1110 H1118 0.930 . S
C1111 C1110 1.394 . S
C1111 C1112 1.383 . S
C1111 H1119 0.929 . S
C1112 C1111 1.383 . S
C1112 C1113 1.377 . S
C1113 H1097 0.930 1_545 S
C1113 C1112 1.377 . S
C1113 C1114 1.375 1_545 S
C1114 H1098 0.946 . S
C1114 C1108 1.375 1_565 S
C1114 C1113 1.375 1_565 S
H1115 C1109 0.959 . S
H1116 C1109 0.961 . S
H1117 C1109 0.960 . S
H1118 C1110 0.930 . S
H1119 C1111 0.929 . S
H1120 C1128 0.929 . S
H1121 C1130 0.930 . S
H1122 C1132 0.930 . S
H1123 C1135 0.929 . S
H1124 C1138 0.930 . S
H1125 C1140 0.960 . S
H1126 C1140 0.960 . S
H1127 C1140 0.960 . S
C1128 H1120 0.929 . S
C1128 C1129 1.377 . S
C1128 C1130 1.384 . S
C1129 C1128 1.377 . S
C1129 C1135 1.390 . S
C1130 H1121 0.930 . S
C1130 C1128 1.384 . S
C1130 C1131 1.372 . S
C1131 C1130 1.372 . S
C1131 C1132 1.400 . S
C1131 C1136 1.490 . S
C1132 H1122 0.930 . S
C1132 C1131 1.400 . S
C1132 C1135 1.386 . S
H1133 C1149 0.930 . S
H1134 C1150 0.931 . S
C1135 H1123 0.929 . S
C1135 C1129 1.390 . S
C1135 C1132 1.386 . S
C1136 C1131 1.490 . S
C1136 C1138 1.395 . S
C1136 C1139 1.403 . S
H1137 C1143 0.930 . S
C1138 H1124 0.930 . S
C1138 C1136 1.395 . S
C1138 C1141 1.403 . S
C1139 C1136 1.403 . S
C1139 C1140 1.524 . S
C1139 C1143 1.400 . S
C1140 H1125 0.960 . S
C1140 H1126 0.960 . S
C1140 H1127 0.960 . S
C1140 C1139 1.524 . S
C1141 C1138 1.403 . S
C1141 C1142 1.392 . S
C1141 C1145 1.495 . S
C1142 C1141 1.392 . S
C1142 C1143 1.385 . S
C1142 C1144 1.478 . S
C1143 H1137 0.930 . S
C1143 C1139 1.400 . S
C1143 C1142 1.385 . S
C1144 C1142 1.478 . S
C1144 C1146 1.381 . S
C1144 C1150 1.383 . S
C1145 C1141 1.495 . S
C1145 H1151 0.959 . S
C1145 H1152 0.961 . S
C1145 H1153 0.960 . S
C1146 C1144 1.381 . S
C1146 C1147 1.394 . S
C1146 H1154 0.930 . S
C1147 C1146 1.394 . S
C1147 C1148 1.383 . S
C1147 H1155 0.929 . S
C1148 C1147 1.383 . S
C1148 C1149 1.377 . S
C1149 H1133 0.930 . S
C1149 C1148 1.377 . S
C1149 C1150 1.379 . S
C1150 H1134 0.931 . S
C1150 C1144 1.383 . S
C1150 C1149 1.379 . S
H1151 C1145 0.959 . S
H1152 C1145 0.961 . S
H1153 C1145 0.960 . S
H1154 C1146 0.930 . S
H1155 C1147 0.929 . S
H1156 C1164 0.929 . S
H1157 C1166 0.930 . S
H1158 C1168 0.930 . S
H1159 C1171 0.929 . S
H1160 C1174 0.930 . S
H1161 C1176 0.960 . S
H1162 C1176 0.960 . S
H1163 C1176 0.960 . S
C1164 H1156 0.929 . S
C1164 C1165 1.377 . S
C1164 C1166 1.384 . S
C1165 C1164 1.377 . S
C1165 C1171 1.390 . S
C1166 H1157 0.930 . S
C1166 C1164 1.384 . S
C1166 C1167 1.372 . S
C1167 C1166 1.372 . S
C1167 C1168 1.400 . S
C1167 C1172 1.490 . S
C1168 H1158 0.930 . S
C1168 C1167 1.400 . S
C1168 C1171 1.386 . S
H1169 C1185 0.930 . S
H1170 C1186 0.931 . S
C1171 H1159 0.929 . S
C1171 C1165 1.390 . S
C1171 C1168 1.386 . S
C1172 C1167 1.490 . S
C1172 C1174 1.395 . S
C1172 C1175 1.403 . S
H1173 C1179 0.930 . S
C1174 H1160 0.930 . S
C1174 C1172 1.395 . S
C1174 C1177 1.403 . S
C1175 C1172 1.403 . S
C1175 C1176 1.524 . S
C1175 C1179 1.400 . S
C1176 H1161 0.960 . S
C1176 H1162 0.960 . S
C1176 H1163 0.960 . S
C1176 C1175 1.524 . S
C1177 C1174 1.403 . S
C1177 C1178 1.392 . S
C1177 C1181 1.495 . S
C1178 C1177 1.392 . S
C1178 C1179 1.385 . S
C1178 C1180 1.478 . S
C1179 H1173 0.930 . S
C1179 C1175 1.400 . S
C1179 C1178 1.385 . S
C1180 C1178 1.478 . S
C1180 C1182 1.381 . S
C1180 C1186 1.383 . S
C1181 C1177 1.495 . S
C1181 H1187 0.959 . S
C1181 H1188 0.961 . S
C1181 H1189 0.960 . S
C1182 C1180 1.381 . S
C1182 C1183 1.394 . S
C1182 H1190 0.930 . S
C1183 C1182 1.394 . S
C1183 C1184 1.383 . S
C1183 H1191 0.929 . S
C1184 C1183 1.383 . S
C1184 C1185 1.377 . S
C1185 H1169 0.930 . S
C1185 C1184 1.377 . S
C1185 C1186 1.379 . S
C1186 H1170 0.931 . S
C1186 C1180 1.383 . S
C1186 C1185 1.379 . S
H1187 C1181 0.959 . S
H1188 C1181 0.961 . S
H1189 C1181 0.960 . S
H1190 C1182 0.930 . S
H1191 C1183 0.929 . S
H1192 C1200 0.929 . S
H1193 C1202 0.930 . S
H1194 C1204 0.930 . S
H1195 C1207 0.929 . S
H1196 C1210 0.930 . S
H1197 C1212 0.960 1_556 S
H1198 C1212 0.960 . S
H1199 C1212 0.966 . S
C1200 H1192 0.929 . S
C1200 C1201 1.377 . S
C1200 C1202 1.384 . S
C1201 C1200 1.377 . S
C1201 C1207 1.390 . S
C1202 H1193 0.930 . S
C1202 C1200 1.384 . S
C1202 C1203 1.372 . S
C1203 C1202 1.372 . S
C1203 C1204 1.400 . S
C1203 C1208 1.490 . S
C1204 H1194 0.930 . S
C1204 C1203 1.400 . S
C1204 C1207 1.386 . S
H1205 C1221 0.930 . S
H1206 C1222 0.931 . S
C1207 H1195 0.929 . S
C1207 C1201 1.390 . S
C1207 C1204 1.386 . S
C1208 C1203 1.490 . S
C1208 C1210 1.395 . S
C1208 C1211 1.403 . S
H1209 C1215 0.930 . S
C1210 H1196 0.930 . S
C1210 C1208 1.395 . S
C1210 C1213 1.403 . S
C1211 C1208 1.403 . S
C1211 C1212 1.524 . S
C1211 C1215 1.400 1_554 S
C1212 H1197 0.960 1_554 S
C1212 H1198 0.960 . S
C1212 H1199 0.966 . S
C1212 C1211 1.524 . S
C1213 C1210 1.403 . S
C1213 C1214 1.392 1_554 S
C1213 C1217 1.495 . S
C1214 C1213 1.392 1_556 S
C1214 C1215 1.385 . S
C1214 C1216 1.478 . S
C1215 H1209 0.930 . S
C1215 C1211 1.400 1_556 S
C1215 C1214 1.385 . S
C1216 C1214 1.478 . S
C1216 C1218 1.381 . S
C1216 C1222 1.383 . S
C1217 C1213 1.495 . S
C1217 H1223 0.959 . S
C1217 H1224 0.961 . S
C1217 H1225 0.960 . S
C1218 C1216 1.381 . S
C1218 C1219 1.394 . S
C1218 H1226 0.930 1_556 S
C1219 C1218 1.394 . S
C1219 C1220 1.383 . S
C1219 H1227 0.929 . S
C1220 C1219 1.383 . S
C1220 C1221 1.377 . S
C1221 H1205 0.930 . S
C1221 C1220 1.377 . S
C1221 C1222 1.379 . S
C1222 H1206 0.931 . S
C1222 C1216 1.383 . S
C1222 C1221 1.379 . S
H1223 C1217 0.959 . S
H1224 C1217 0.961 . S
H1225 C1217 0.960 . S
H1226 C1218 0.930 1_554 S
H1227 C1219 0.929 . S
H1228 C1236 0.929 . S
H1229 C1238 0.930 . S
H1230 C1240 0.930 . S
H1231 C1243 0.929 . S
H1232 C1246 0.930 1_554 S
H1233 C1248 0.960 . S
H1234 C1248 0.960 1_545 S
H1235 C1248 0.960 . S
C1236 H1228 0.929 . S
C1236 C1237 1.411 . S
C1236 C1238 1.384 . S
C1237 C1236 1.411 . S
C1237 C1243 1.356 1_545 S
C1238 H1229 0.930 . S
C1238 C1236 1.384 . S
C1238 C1239 1.372 1_554 S
C1239 C1238 1.372 1_556 S
C1239 C1240 1.400 1_545 S
C1239 C1244 1.490 . S
C1240 H1230 0.930 . S
C1240 C1239 1.400 1_565 S
C1240 C1243 1.386 1_556 S
H1241 C1257 0.930 . S
H1242 C1258 0.931 . S
C1243 H1231 0.929 . S
C1243 C1237 1.356 1_565 S
C1243 C1240 1.386 1_554 S
C1244 C1239 1.490 . S
C1244 C1246 1.395 . S
C1244 C1247 1.402 1_545 S
H1245 C1251 0.930 1_565 S
C1246 H1232 0.930 1_556 S
C1246 C1244 1.395 . S
C1246 C1249 1.403 . S
C1247 C1244 1.402 1_565 S
C1247 C1248 1.524 . S
C1247 C1251 1.400 1_565 S
C1248 H1233 0.960 . S
C1248 H1234 0.960 1_565 S
C1248 H1235 0.960 . S
C1248 C1247 1.524 . S
C1249 C1246 1.403 . S
C1249 C1250 1.392 . S
C1249 C1253 1.495 . S
C1250 C1249 1.392 . S
C1250 C1251 1.385 . S
C1250 C1252 1.478 . S
C1251 H1245 0.930 1_545 S
C1251 C1247 1.400 1_545 S
C1251 C1250 1.385 . S
C1252 C1250 1.478 . S
C1252 C1254 1.381 . S
C1252 C1258 1.383 1_545 S
C1253 C1249 1.495 . S
C1253 H1259 0.959 1_556 S
C1253 H1260 0.930 1_545 S
C1253 H1261 0.960 . S
C1254 C1252 1.381 . S
C1254 C1255 1.394 . S
C1254 H1262 0.930 . S
C1255 C1254 1.394 . S
C1255 C1256 1.383 . S
C1255 H1263 0.929 . S
C1256 C1255 1.383 . S
C1256 C1257 1.377 1_545 S
C1257 H1241 0.930 . S
C1257 C1256 1.377 1_565 S
C1257 C1258 1.379 . S
C1258 H1242 0.931 . S
C1258 C1252 1.383 1_565 S
C1258 C1257 1.379 . S
H1259 C1253 0.959 1_554 S
H1260 C1253 0.930 1_565 S
H1261 C1253 0.960 . S
H1262 C1254 0.930 . S
H1263 C1255 0.929 . S
H1264 C1272 0.929 . S
H1265 C1274 0.930 . S
H1266 C1276 0.930 . S
H1267 C1279 0.929 . S
H1268 C1282 0.930 . S
H1269 C1284 0.960 . S
H1270 C1284 0.960 1_554 S
H1271 C1284 0.960 . S
C1272 H1264 0.929 . S
C1272 C1273 1.377 . S
C1272 C1274 1.384 . S
C1273 C1272 1.377 . S
C1273 C1279 1.390 . S
C1274 H1265 0.930 . S
C1274 C1272 1.384 . S
C1274 C1275 1.372 1_554 S
C1275 C1274 1.372 1_556 S
C1275 C1276 1.400 . S
C1275 C1280 1.490 . S
C1276 H1266 0.930 . S
C1276 C1275 1.400 . S
C1276 C1279 1.386 1_556 S
H1277 C1293 0.930 . S
H1278 C1294 0.931 . S
C1279 H1267 0.929 . S
C1279 C1273 1.390 . S
C1279 C1276 1.386 1_554 S
C1280 C1275 1.490 . S
C1280 C1282 1.395 . S
C1280 C1283 1.403 . S
H1281 C1287 0.930 . S
C1282 H1268 0.930 . S
C1282 C1280 1.395 . S
C1282 C1285 1.403 . S
C1283 C1280 1.403 . S
C1283 C1284 1.524 . S
C1283 C1287 1.400 . S
C1284 H1269 0.960 . S
C1284 H1270 0.960 1_556 S
C1284 H1271 0.960 . S
C1284 C1283 1.524 . S
C1285 C1282 1.403 . S
C1285 C1286 1.392 . S
C1285 C1289 1.495 . S
C1286 C1285 1.392 . S
C1286 C1287 1.385 . S
C1286 C1288 1.478 . S
C1287 H1281 0.930 . S
C1287 C1283 1.400 . S
C1287 C1286 1.385 . S
C1288 C1286 1.478 . S
C1288 C1290 1.381 . S
C1288 C1294 1.383 . S
C1289 C1285 1.495 . S
C1289 H1295 0.959 . S
C1289 H1296 0.961 . S
C1289 H1297 0.960 . S
C1290 C1288 1.381 . S
C1290 C1291 1.394 . S
C1290 H1298 0.930 . S
C1291 C1290 1.394 . S
C1291 C1292 1.383 . S
C1291 H1299 0.929 . S
C1292 C1291 1.383 . S
C1292 C1293 1.377 . S
C1293 H1277 0.930 . S
C1293 C1292 1.377 . S
C1293 C1294 1.379 . S
C1294 H1278 0.931 . S
C1294 C1288 1.383 . S
C1294 C1293 1.379 . S
H1295 C1289 0.959 . S
H1296 C1289 0.961 . S
H1297 C1289 0.960 . S
H1298 C1290 0.930 . S
H1299 C1291 0.929 . S
H1300 C1308 0.929 . S
H1301 C1310 0.930 . S
H1302 C1312 0.930 . S
H1303 C1315 0.929 . S
H1304 C1318 0.930 . S
H1305 C1320 0.960 . S
H1306 C1320 0.960 . S
H1307 C1320 0.960 1_554 S
C1308 H1300 0.929 . S
C1308 C1309 1.377 1_556 S
C1308 C1310 1.384 . S
C1309 C1308 1.377 1_554 S
C1309 C1315 1.390 . S
C1310 H1301 0.930 . S
C1310 C1308 1.384 . S
C1310 C1311 1.372 . S
C1311 C1310 1.372 . S
C1311 C1312 1.400 1_556 S
C1311 C1316 1.490 . S
C1312 H1302 0.930 . S
C1312 C1311 1.400 1_554 S
C1312 C1315 1.386 . S
H1313 C1329 0.930 . S
H1314 C1330 0.931 . S
C1315 H1303 0.929 . S
C1315 C1309 1.390 . S
C1315 C1312 1.386 . S
C1316 C1311 1.490 . S
C1316 C1318 1.395 . S
C1316 C1319 1.403 . S
H1317 C1323 0.930 . S
C1318 H1304 0.930 . S
C1318 C1316 1.395 . S
C1318 C1321 1.403 . S
C1319 C1316 1.403 . S
C1319 C1320 1.524 . S
C1319 C1323 1.400 . S
C1320 H1305 0.960 . S
C1320 H1306 0.960 . S
C1320 H1307 0.960 1_556 S
C1320 C1319 1.524 . S
C1321 C1318 1.403 . S
C1321 C1322 1.392 . S
C1321 C1325 1.495 . S
C1322 C1321 1.392 . S
C1322 C1323 1.385 . S
C1322 C1324 1.478 . S
C1323 H1317 0.930 . S
C1323 C1319 1.400 . S
C1323 C1322 1.385 . S
C1324 C1322 1.478 . S
C1324 C1326 1.381 . S
C1324 C1330 1.383 . S
C1325 C1321 1.495 . S
C1325 H1331 0.959 . S
C1325 H1332 0.961 . S
C1325 H1333 0.960 . S
C1326 C1324 1.381 . S
C1326 C1327 1.394 . S
C1326 H1334 0.930 . S
C1327 C1326 1.394 . S
C1327 C1328 1.383 . S
C1327 H1335 0.929 . S
C1328 C1327 1.383 . S
C1328 C1329 1.377 . S
C1329 H1313 0.930 . S
C1329 C1328 1.377 . S
C1329 C1330 1.379 . S
C1330 H1314 0.931 . S
C1330 C1324 1.383 . S
C1330 C1329 1.379 . S
H1331 C1325 0.959 . S
H1332 C1325 0.961 . S
H1333 C1325 0.960 . S
H1334 C1326 0.930 . S
H1335 C1327 0.929 . S
H1336 C1344 0.929 . S
H1337 C1346 0.930 . S
H1338 C1348 0.930 . S
H1339 C1351 0.929 . S
H1340 C1354 0.930 . S
H1341 C1356 0.960 . S
H1342 C1356 0.960 . S
H1343 C1356 0.960 . S
C1344 H1336 0.929 . S
C1344 C1345 1.377 . S
C1344 C1346 1.384 . S
C1345 C1344 1.377 . S
C1345 C1351 1.390 . S
C1346 H1337 0.930 . S
C1346 C1344 1.384 . S
C1346 C1347 1.372 . S
C1347 C1346 1.372 . S
C1347 C1348 1.400 . S
C1347 C1352 1.490 . S
C1348 H1338 0.930 . S
C1348 C1347 1.400 . S
C1348 C1351 1.386 . S
H1349 C1365 0.930 . S
H1350 C1366 0.931 . S
C1351 H1339 0.929 . S
C1351 C1345 1.390 . S
C1351 C1348 1.386 . S
C1352 C1347 1.490 . S
C1352 C1354 1.395 . S
C1352 C1355 1.403 . S
H1353 C1359 0.930 . S
C1354 H1340 0.930 . S
C1354 C1352 1.395 . S
C1354 C1357 1.403 . S
C1355 C1352 1.403 . S
C1355 C1356 1.524 . S
C1355 C1359 1.400 . S
C1356 H1341 0.960 . S
C1356 H1342 0.960 . S
C1356 H1343 0.960 . S
C1356 C1355 1.524 . S
C1357 C1354 1.403 . S
C1357 C1358 1.392 . S
C1357 C1361 1.495 . S
C1358 C1357 1.392 . S
C1358 C1359 1.385 . S
C1358 C1360 1.478 . S
C1359 H1353 0.930 . S
C1359 C1355 1.400 . S
C1359 C1358 1.385 . S
C1360 C1358 1.478 . S
C1360 C1362 1.381 . S
C1360 C1366 1.383 . S
C1361 C1357 1.495 . S
C1361 H1367 0.959 . S
C1361 H1368 0.961 . S
C1361 H1369 0.960 . S
C1362 C1360 1.381 . S
C1362 C1363 1.394 . S
C1362 H1370 0.930 . S
C1363 C1362 1.394 . S
C1363 C1364 1.383 . S
C1363 H1371 0.929 . S
C1364 C1363 1.383 . S
C1364 C1365 1.377 . S
C1365 H1349 0.930 . S
C1365 C1364 1.377 . S
C1365 C1366 1.379 . S
C1366 H1350 0.931 . S
C1366 C1360 1.383 . S
C1366 C1365 1.379 . S
H1367 C1361 0.959 . S
H1368 C1361 0.961 . S
H1369 C1361 0.960 . S
H1370 C1362 0.930 . S
H1371 C1363 0.929 . S
H1372 C1380 0.929 . S
H1373 C1382 0.930 . S
H1374 C1384 0.930 . S
H1375 C1387 0.929 . S
H1376 C1390 0.930 . S
H1377 C1392 0.960 . S
H1378 C1392 0.960 . S
H1379 C1392 0.960 . S
C1380 H1372 0.929 . S
C1380 C1381 1.397 . S
C1380 C1382 1.384 . S
C1381 C1380 1.397 . S
C1381 C1387 1.370 1_565 S
C1382 H1373 0.930 . S
C1382 C1380 1.384 . S
C1382 C1383 1.372 . S
C1383 C1382 1.372 . S
C1383 C1384 1.400 1_565 S
C1383 C1388 1.490 . S
C1384 H1374 0.930 . S
C1384 C1383 1.400 1_545 S
C1384 C1387 1.386 . S
H1385 C1401 0.930 . S
H1386 C1402 0.931 . S
C1387 H1375 0.929 . S
C1387 C1381 1.370 1_545 S
C1387 C1384 1.386 . S
C1388 C1383 1.490 . S
C1388 C1390 1.395 . S
C1388 C1391 1.403 1_565 S
H1389 C1395 0.930 . S
C1390 H1376 0.930 . S
C1390 C1388 1.395 . S
C1390 C1393 1.403 . S
C1391 C1388 1.403 1_545 S
C1391 C1392 1.524 . S
C1391 C1395 1.400 . S
C1392 H1377 0.960 . S
C1392 H1378 0.960 . S
C1392 H1379 0.960 . S
C1392 C1391 1.524 . S
C1393 C1390 1.403 . S
C1393 C1394 1.392 . S
C1393 C1397 1.495 . S
C1394 C1393 1.392 . S
C1394 C1395 1.385 1_565 S
C1394 C1396 1.478 . S
C1395 H1389 0.930 . S
C1395 C1391 1.400 . S
C1395 C1394 1.385 1_545 S
C1396 C1394 1.478 . S
C1396 C1398 1.381 . S
C1396 C1402 1.383 1_565 S
C1397 C1393 1.495 . S
C1397 H1403 0.959 . S
C1397 H1404 0.961 . S
C1397 H1405 0.960 . S
C1398 C1396 1.381 . S
C1398 C1399 1.394 . S
C1398 H1406 0.930 . S
C1399 C1398 1.394 . S
C1399 C1400 1.383 . S
C1399 H1407 0.929 . S
C1400 C1399 1.383 . S
C1400 C1401 1.377 1_565 S
C1401 H1385 0.930 . S
C1401 C1400 1.377 1_545 S
C1401 C1402 1.379 . S
C1402 H1386 0.931 . S
C1402 C1396 1.383 1_545 S
C1402 C1401 1.379 . S
H1403 C1397 0.959 . S
H1404 C1397 0.961 . S
H1405 C1397 0.960 . S
H1406 C1398 0.930 . S
H1407 C1399 0.929 . S
H1408 C1416 0.929 . S
H1409 C1418 0.930 . S
H1410 C1420 0.930 . S
H1411 C1423 0.929 . S
H1412 C1426 0.930 . S
H1413 C1428 0.960 . S
H1414 C1428 0.960 . S
H1415 C1428 0.960 . S
C1416 H1408 0.929 . S
C1416 C1417 1.377 . S
C1416 C1418 1.384 . S
C1417 C1416 1.377 . S
C1417 C1423 1.390 . S
C1418 H1409 0.930 . S
C1418 C1416 1.384 . S
C1418 C1419 1.372 . S
C1419 C1418 1.372 . S
C1419 C1420 1.400 . S
C1419 C1424 1.490 . S
C1420 H1410 0.930 . S
C1420 C1419 1.400 . S
C1420 C1423 1.386 . S
H1421 C1437 0.930 . S
H1422 C1438 0.931 . S
C1423 H1411 0.929 . S
C1423 C1417 1.390 . S
C1423 C1420 1.386 . S
C1424 C1419 1.490 . S
C1424 C1426 1.395 . S
C1424 C1427 1.403 . S
H1425 C1431 0.930 . S
C1426 H1412 0.930 . S
C1426 C1424 1.395 . S
C1426 C1429 1.403 . S
C1427 C1424 1.403 . S
C1427 C1428 1.524 . S
C1427 C1431 1.400 . S
C1428 H1413 0.960 . S
C1428 H1414 0.960 . S
C1428 H1415 0.960 . S
C1428 C1427 1.524 . S
C1429 C1426 1.403 . S
C1429 C1430 1.392 . S
C1429 C1433 1.495 . S
C1430 C1429 1.392 . S
C1430 C1431 1.385 . S
C1430 C1432 1.478 . S
C1431 H1425 0.930 . S
C1431 C1427 1.400 . S
C1431 C1430 1.385 . S
C1432 C1430 1.478 . S
C1432 C1434 1.381 . S
C1432 C1438 1.383 . S
C1433 C1429 1.495 . S
C1433 H1439 0.959 . S
C1433 H1440 0.961 . S
C1433 H1441 0.960 . S
C1434 C1432 1.381 . S
C1434 C1435 1.394 . S
C1434 H1442 0.930 . S
C1435 C1434 1.394 . S
C1435 C1436 1.383 . S
C1435 H1443 0.929 . S
C1436 C1435 1.383 . S
C1436 C1437 1.377 . S
C1437 H1421 0.930 . S
C1437 C1436 1.377 . S
C1437 C1438 1.379 . S
C1438 H1422 0.931 . S
C1438 C1432 1.383 . S
C1438 C1437 1.379 . S
H1439 C1433 0.959 . S
H1440 C1433 0.961 . S
H1441 C1433 0.960 . S
H1442 C1434 0.930 . S
H1443 C1435 0.929 . S
H1444 C1452 0.929 . S
H1445 C1454 0.930 . S
H1446 C1456 0.930 . S
H1447 C1459 0.929 . S
H1448 C1462 0.930 . S
H1449 C1464 0.960 . S
H1450 C1464 0.960 . S
H1451 C1464 0.960 . S
C1452 H1444 0.929 . S
C1452 C1453 1.377 . S
C1452 C1454 1.384 . S
C1453 C1452 1.377 . S
C1453 C1459 1.390 . S
C1454 H1445 0.930 . S
C1454 C1452 1.384 . S
C1454 C1455 1.372 . S
C1455 C1454 1.372 . S
C1455 C1456 1.400 . S
C1455 C1460 1.490 . S
C1456 H1446 0.930 . S
C1456 C1455 1.400 . S
C1456 C1459 1.386 . S
H1457 C1473 0.930 . S
H1458 C1474 0.931 . S
C1459 H1447 0.929 . S
C1459 C1453 1.390 . S
C1459 C1456 1.386 . S
C1460 C1455 1.490 . S
C1460 C1462 1.395 . S
C1460 C1463 1.403 . S
H1461 C1467 0.930 . S
C1462 H1448 0.930 . S
C1462 C1460 1.395 . S
C1462 C1465 1.403 . S
C1463 C1460 1.403 . S
C1463 C1464 1.524 . S
C1463 C1467 1.400 . S
C1464 H1449 0.960 . S
C1464 H1450 0.960 . S
C1464 H1451 0.960 . S
C1464 C1463 1.524 . S
C1465 C1462 1.403 . S
C1465 C1466 1.392 . S
C1465 C1469 1.495 . S
C1466 C1465 1.392 . S
C1466 C1467 1.385 . S
C1466 C1468 1.478 . S
C1467 H1461 0.930 . S
C1467 C1463 1.400 . S
C1467 C1466 1.385 . S
C1468 C1466 1.478 . S
C1468 C1470 1.381 . S
C1468 C1474 1.383 . S
C1469 C1465 1.495 . S
C1469 H1475 0.959 . S
C1469 H1476 0.961 . S
C1469 H1477 0.960 . S
C1470 C1468 1.381 . S
C1470 C1471 1.394 . S
C1470 H1478 0.930 . S
C1471 C1470 1.394 . S
C1471 C1472 1.383 . S
C1471 H1479 0.929 . S
C1472 C1471 1.383 . S
C1472 C1473 1.377 . S
C1473 H1457 0.930 . S
C1473 C1472 1.377 . S
C1473 C1474 1.379 . S
C1474 H1458 0.931 . S
C1474 C1468 1.383 . S
C1474 C1473 1.379 . S
H1475 C1469 0.959 . S
H1476 C1469 0.961 . S
H1477 C1469 0.960 . S
H1478 C1470 0.930 . S
H1479 C1471 0.929 . S
C625 C391 1.837 1_565 S
C644 C497 1.823 . S
C680 C518 1.696 . S
C661 C451 1.704 . S
C716 C552 1.459 . S
C697 C241 1.355 . S
C752 C586 1.662 . S
C733 C331 1.559 . S
C788 C488 1.833 . S
C769 C121 1.723 1_546 S
C805 C211 1.667 . S
C824 C527 1.707 . S
C841 C31 1.466 . S
C860 C561 1.447 . S
C877 C91 1.606 . S
C896 C595 1.661 . S
C932 C509 0.401 . S
C913 C301 0.887 . S
C968 C514 0.167 . S
C949 C380 0.139 . S
C1004 C548 0.373 . S
C985 C440 0.250 . S
C1021 C260 0.498 . S
C1040 C582 0.280 . S
C1057 C61 0.698 . S
C1076 C480 0.397 . S
C1112 C543 0.104 . S
C1093 C140 0.493 . S
C1148 C577 0.356 . S
C1129 C200 0.465 . S
C1165 C20 0.292 . S
C1184 C611 0.249 . S
C1201 C320 1.642 . S
C1220 C493 1.693 . S
C1237 C361 1.885 . S
C1256 C522 2.094 . S
C1292 C556 1.828 . S
C1273 C421 1.656 . S
C1328 C590 1.848 . S
C1309 C271 1.832 . S
C1345 C80 1.692 . S
C1364 C484 1.695 . S
C1400 C531 2.087 . S
C1381 C151 2.063 . S
C1436 C565 1.832 . S
C1417 C181 1.625 . S
C1453 C1 1.676 . S
C1472 C599 1.845 . S
