# Generated by pormake.
# Topology anh, (6,3)-cn, num edge types: 1
# Building blocks:
#     Node 0, Type 0, BuildingBlock: VOLQOD_clean_sbu_1, # of connection points: 6
#     Node 1, Type 0, BuildingBlock: VOLQOD_clean_sbu_1, # of connection points: 6
#     Node 2, Type 0, BuildingBlock: VOLQOD_clean_sbu_1, # of connection points: 6
#     Node 3, Type 1, BuildingBlock: PAMTOO_clean_linker_0, # of connection points: 3
#     Node 4, Type 1, BuildingBlock: PAMTOO_clean_linker_0, # of connection points: 3
#     Node 5, Type 1, BuildingBlock: PAMTOO_clean_linker_0, # of connection points: 3
#     Node 6, Type 1, BuildingBlock: PAMTOO_clean_linker_0, # of connection points: 3
#     Node 7, Type 1, BuildingBlock: PAMTOO_clean_linker_0, # of connection points: 3
#     Node 8, Type 1, BuildingBlock: PAMTOO_clean_linker_0, # of connection points: 3
#     Edge 9, Type (0, 1), BuildingBlock: OJICUG_clean_linker_0, # of connection points: 2
#     Edge 10, Type (0, 1), BuildingBlock: OJICUG_clean_linker_0, # of connection points: 2
#     Edge 11, Type (0, 1), BuildingBlock: OJICUG_clean_linker_0, # of connection points: 2
#     Edge 12, Type (0, 1), BuildingBlock: OJICUG_clean_linker_0, # of connection points: 2
#     Edge 13, Type (0, 1), BuildingBlock: OJICUG_clean_linker_0, # of connection points: 2
#     Edge 14, Type (0, 1), BuildingBlock: OJICUG_clean_linker_0, # of connection points: 2
#     Edge 15, Type (0, 1), BuildingBlock: OJICUG_clean_linker_0, # of connection points: 2
#     Edge 16, Type (0, 1), BuildingBlock: OJICUG_clean_linker_0, # of connection points: 2
#     Edge 17, Type (0, 1), BuildingBlock: OJICUG_clean_linker_0, # of connection points: 2
#     Edge 18, Type (0, 1), BuildingBlock: OJICUG_clean_linker_0, # of connection points: 2
#     Edge 19, Type (0, 1), BuildingBlock: OJICUG_clean_linker_0, # of connection points: 2
#     Edge 20, Type (0, 1), BuildingBlock: OJICUG_clean_linker_0, # of connection points: 2
#     Edge 21, Type (0, 1), BuildingBlock: OJICUG_clean_linker_0, # of connection points: 2
#     Edge 22, Type (0, 1), BuildingBlock: OJICUG_clean_linker_0, # of connection points: 2
#     Edge 23, Type (0, 1), BuildingBlock: OJICUG_clean_linker_0, # of connection points: 2
#     Edge 24, Type (0, 1), BuildingBlock: OJICUG_clean_linker_0, # of connection points: 2
#     Edge 25, Type (0, 1), BuildingBlock: OJICUG_clean_linker_0, # of connection points: 2
#     Edge 26, Type (0, 1), BuildingBlock: OJICUG_clean_linker_0, # of connection points: 2
# Relax obj value: 0.161
# Max RMSD: 0.219
# Mean RMSD: 0.134
data_MOF--net-anh--node1-VOLQOD_clean_sbu_1--node2-PAMTOO_clean_linker_0--edge1-OJICUG_clean_linker_0
_symmetry_space_group_name_H-M    P1
_symmetry_Int_Tables_number       1
_symmetry_cell_setting            triclinic
loop_
_symmetry_equiv_pos_as_xyz
'x, y, z'
_cell_length_a     22.144761
_cell_length_b     21.963081
_cell_length_c     40.97072
_cell_angle_alpha  84.656617
_cell_angle_beta   92.32895
_cell_angle_gamma 120.79361
loop_
_atom_site_label
_atom_site_type_symbol
_atom_site_fract_x
_atom_site_fract_y
_atom_site_fract_z
_atom_type_partial_charge
O0 O 0.10754 0.58529 0.23841 0.0
Zn1 Zn 0.10944 0.60834 0.1893 0.0
O2 O 0.1159 0.53838 0.16547 0.0
Zn3 Zn 0.03305 0.48618 0.13892 0.0
Zn4 Zn 0.1236 0.47107 0.19746 0.0
Zn5 Zn 0.19643 0.58583 0.13574 0.0
O6 O 0.05529 0.49574 0.09097 0.0
O7 O 0.16864 0.5777 0.08784 0.0
O8 O 0.02169 0.61169 0.1767 0.0
O9 O 0.97151 0.52657 0.14218 0.0
O10 O 0.97365 0.38342 0.15573 0.0
O11 O 0.03256 0.37707 0.19983 0.0
O12 O 0.20503 0.45944 0.18638 0.0
O13 O 0.19521 0.70543 0.18007 0.0
O14 O 0.25395 0.53939 0.14363 0.0
O15 O 0.25715 0.68953 0.14398 0.0
C16 C 0.12215 0.54373 0.25613 0.0
C17 C 0.11075 0.53692 0.07406 0.0
C18 C 0.97893 0.34935 0.18146 0.0
C19 C 0.97214 0.57457 0.15749 0.0
C20 C 0.25201 0.49087 0.16398 0.0
C21 C 0.24968 0.72946 0.16209 0.0
O22 O 0.13489 0.50081 0.24331 0.0
O23 O 0.54308 0.05055 0.42361 0.0
Zn24 Zn 0.51278 0.04569 0.47056 0.0
O25 O 0.57467 0.03141 0.50187 0.0
Zn26 Zn 0.62419 0.11051 0.52876 0.0
Zn27 Zn 0.64443 0.02346 0.47854 0.0
Zn28 Zn 0.51994 0.94661 0.53072 0.0
O29 O 0.62131 0.07916 0.5766 0.0
O30 O 0.53435 0.96665 0.57835 0.0
O31 O 0.50907 0.13346 0.48014 0.0
O32 O 0.57585 0.1657 0.52465 0.0
O33 O 0.72412 0.17755 0.51313 0.0
O34 O 0.73724 0.11568 0.47701 0.0
O35 O 0.65274 0.93923 0.49735 0.0
O36 O 0.4136 0.96064 0.47508 0.0
O37 O 0.55237 0.87855 0.5258 0.0
O38 O 0.41748 0.89665 0.51951 0.0
C39 C 0.58168 0.0295 0.41236 0.0
C40 C 0.57933 0.02073 0.59278 0.0
C41 C 0.76085 0.17195 0.49181 0.0
C42 C 0.53426 0.17214 0.50422 0.0
C43 C 0.60696 0.88331 0.51397 0.0
C44 C 0.38345 0.90681 0.49597 0.0
O45 O 0.61801 0.01157 0.43132 0.0
O46 O 0.54607 0.47669 0.76338 0.0
Zn47 Zn 0.51938 0.44349 0.81116 0.0
O48 O 0.59421 0.50855 0.83943 0.0
Zn49 Zn 0.55782 0.55008 0.86663 0.0
Zn50 Zn 0.673 0.58535 0.81299 0.0
Zn51 Zn 0.62601 0.45604 0.86871 0.0
O52 O 0.5808 0.54359 0.91404 0.0
O53 O 0.61817 0.467 0.91666 0.0
O54 O 0.4256 0.43546 0.82099 0.0
O55 O 0.45397 0.50078 0.8635 0.0
O56 O 0.59308 0.65171 0.85129 0.0
O57 O 0.67767 0.67955 0.81548 0.0
O58 O 0.76594 0.59217 0.82641 0.0
O59 O 0.50795 0.34543 0.81784 0.0
O60 O 0.72734 0.49364 0.8601 0.0
O61 O 0.57659 0.35312 0.86022 0.0
C62 C 0.60298 0.52424 0.74892 0.0
C63 C 0.60196 0.50626 0.93061 0.0
C64 C 0.64065 0.69658 0.83117 0.0
C65 C 0.40851 0.45952 0.84391 0.0
C66 C 0.77669 0.54792 0.84429 0.0
C67 C 0.53328 0.31738 0.83847 0.0
O68 O 0.65628 0.56685 0.76506 0.0
H69 H 0.73345 0.12194 0.2797 0.0
H70 H 0.51811 0.97489 0.25788 0.0
H71 H 0.66497 0.08987 0.17917 0.0
H72 H 0.51493 0.04109 0.15691 0.0
C73 C 0.49144 0.00713 0.18003 0.0
O74 O 0.53795 0.98888 0.19449 0.0
H75 H 0.48013 0.03795 0.19639 0.0
C76 C 0.69297 0.09722 0.26162 0.0
C77 C 0.70944 0.11445 0.22787 0.0
C78 C 0.62395 0.04891 0.27266 0.0
C79 C 0.57121 0.0139 0.24976 0.0
C80 C 0.58722 0.02767 0.21623 0.0
C81 C 0.65532 0.07861 0.20531 0.0
H82 H 0.63419 0.6673 0.60674 0.0
H83 H 0.5837 0.45193 0.59811 0.0
H84 H 0.5952 0.58462 0.51212 0.0
H85 H 0.49074 0.43373 0.50285 0.0
C86 C 0.5052 0.41155 0.52528 0.0
O87 O 0.57302 0.4598 0.53405 0.0
H88 H 0.46719 0.40071 0.54514 0.0
C89 C 0.62348 0.62466 0.59179 0.0
C90 C 0.61732 0.63409 0.55771 0.0
C91 C 0.61065 0.55881 0.60685 0.0
C92 C 0.59342 0.50301 0.58712 0.0
C93 C 0.58858 0.5129 0.55303 0.0
C94 C 0.60042 0.5781 0.53845 0.0
H95 H 0.00869 0.57025 0.93113 0.0
H96 H 0.17178 0.51969 0.92466 0.0
H97 H 0.06291 0.53429 0.83803 0.0
H98 H 0.10926 0.42691 0.83281 0.0
C99 C 0.14079 0.44127 0.85562 0.0
O100 O 0.16104 0.51028 0.86117 0.0
H101 H 0.10748 0.40309 0.87617 0.0
C102 C 0.0413 0.55909 0.91666 0.0
C103 C 0.03051 0.55507 0.88272 0.0
C104 C 0.0917 0.54582 0.93224 0.0
C105 C 0.13303 0.53067 0.91317 0.0
C106 C 0.12237 0.52646 0.87929 0.0
C107 C 0.07129 0.53858 0.86416 0.0
H108 H 0.00476 0.40475 0.39406 0.0
H109 H 0.1538 0.62405 0.40689 0.0
H110 H 0.01935 0.49052 0.48683 0.0
H111 H 0.06991 0.64952 0.49226 0.0
C112 C 0.10854 0.66708 0.47192 0.0
O113 O 0.12523 0.61533 0.46889 0.0
H114 H 0.08421 0.67613 0.44905 0.0
C115 C 0.02757 0.44832 0.40961 0.0
C116 C 0.00363 0.43754 0.44226 0.0
C117 C 0.08001 0.5157 0.3963 0.0
C118 C 0.11198 0.57217 0.41643 0.0
C119 C 0.09073 0.56198 0.44912 0.0
C120 C 0.03612 0.49566 0.46178 0.0
H121 H 0.62506 0.91567 0.73423 0.0
H122 H 0.57412 0.0783 0.74233 0.0
H123 H 0.61181 0.97825 0.82916 0.0
H124 H 0.49974 0.01366 0.84008 0.0
C125 C 0.51145 0.05003 0.81742 0.0
O126 O 0.57808 0.07189 0.80624 0.0
H127 H 0.47114 0.02029 0.79885 0.0
C128 C 0.61675 0.94888 0.74925 0.0
C129 C 0.62152 0.94105 0.78356 0.0
C130 C 0.59995 -0.00169 0.73408 0.0
C131 C 0.58793 0.04042 0.75354 0.0
C132 C 0.59135 0.03227 0.78772 0.0
C133 C 0.60867 0.98329 0.80267 0.0
H134 H 0.74587 0.55569 0.06869 0.0
H135 H 0.53334 0.50771 0.08066 0.0
H136 H 0.66725 0.54898 0.16429 0.0
H137 H 0.50494 0.43821 0.18081 0.0
C138 C 0.48943 0.45157 0.15626 0.0
O139 O 0.54237 0.5177 0.14396 0.0
H140 H 0.48015 0.40967 0.14002 0.0
C141 C 0.7038 0.54823 0.08427 0.0
C142 C 0.7151 0.5554 0.11808 0.0
C143 C 0.63841 0.5308 0.07043 0.0
C144 C 0.58423 0.52127 0.0908 0.0
C145 C 0.59468 0.52695 0.12458 0.0
C146 C 0.65978 0.54392 0.13817 0.0
C147 C 0.3419 0.48576 0.13173 0.0
C148 C 0.30728 0.4729 0.16176 0.0
H149 H 0.42535 0.48713 0.10655 0.0
C150 C 0.32893 0.44709 0.18971 0.0
H151 H 0.32575 0.50482 0.10971 0.0
C152 C 0.38685 0.4381 0.18794 0.0
C153 C 0.42305 0.45382 0.15812 0.0
H154 H 0.30306 0.43673 0.21316 0.0
H155 H 0.40444 0.42074 0.21 0.0
C156 C 0.39875 0.47558 0.12987 0.0
C157 C 0.83498 0.25601 0.44602 0.0
C158 C 0.82639 0.23602 0.47975 0.0
H159 H 0.89345 0.33572 0.40801 0.0
C160 C 0.87707 0.28094 0.50133 0.0
H161 H 0.79559 0.22286 0.42894 0.0
C162 C 0.93589 0.34491 0.48922 0.0
C163 C 0.94365 0.3668 0.45534 0.0
H164 H 0.87124 0.26652 0.52751 0.0
H165 H 0.97481 0.37705 0.50661 0.0
C166 C 0.89192 0.32098 0.43402 0.0
C167 C 0.68885 0.81278 0.79674 0.0
C168 C 0.64585 0.76627 0.82282 0.0
H169 H 0.71591 0.90545 0.76425 0.0
C170 C 0.60117 0.78291 0.83833 0.0
H171 H 0.72419 0.80192 0.78436 0.0
C172 C 0.59587 0.84172 0.82658 0.0
C173 C 0.63532 0.88548 0.79911 0.0
H174 H 0.56747 0.74849 0.85861 0.0
H175 H 0.55792 0.85045 0.83793 0.0
C176 C 0.68365 0.87179 0.78503 0.0
C177 C 0.84986 0.53738 0.17079 0.0
C178 C 0.91176 0.58415 0.15306 0.0
H179 H 0.73842 0.49158 0.17352 0.0
C180 C 0.91037 0.62769 0.12618 0.0
H181 H 0.85002 0.50223 0.19115 0.0
C182 C 0.84673 0.62155 0.11595 0.0
C183 C 0.78366 0.57121 0.13231 0.0
H184 H 0.95764 0.66308 0.1119 0.0
H185 H 0.84638 0.65379 0.09434 0.0
C186 C 0.78618 0.53118 0.1606 0.0
C187 C 0.27659 0.84796 0.46069 0.0
C188 C 0.30921 0.85117 0.4912 0.0
H189 H 0.18766 0.78683 0.4306 0.0
C190 C 0.27246 0.79674 0.51614 0.0
H191 H 0.3036 0.8887 0.44088 0.0
C192 C 0.20593 0.73899 0.51028 0.0
C193 C 0.17483 0.7344 0.4794 0.0
H194 H 0.29599 0.79757 0.53992 0.0
H195 H 0.17977 0.69647 0.5295 0.0
C196 C 0.21027 0.78973 0.45476 0.0
C197 C 0.54274 0.21141 0.85879 0.0
C198 C 0.51863 0.24444 0.83504 0.0
H199 H 0.5589 0.12391 0.87172 0.0
C200 C 0.48706 0.2102 0.80651 0.0
H201 H 0.56744 0.2363 0.88102 0.0
C202 C 0.48262 0.14602 0.80123 0.0
C203 C 0.50856 0.11434 0.8246 0.0
H204 H 0.46849 0.23438 0.78759 0.0
H205 H 0.46064 0.12207 0.77849 0.0
C206 C 0.53788 0.1471 0.85357 0.0
C207 C 0.6763 0.82799 0.53574 0.0
C208 C 0.61581 0.82159 0.52032 0.0
H209 H 0.72375 0.77232 0.56048 0.0
C210 C 0.55886 0.75396 0.51495 0.0
H211 H 0.72032 0.87984 0.54047 0.0
C212 C 0.56126 0.69324 0.52571 0.0
C213 C 0.61999 0.69913 0.54276 0.0
H214 H 0.51155 0.74808 0.50329 0.0
H215 H 0.51575 0.6415 0.52217 0.0
C216 C 0.67802 0.76687 0.54733 0.0
C217 C 0.9013 0.61726 0.86219 0.0
C218 C 0.84744 0.55815 0.8476 0.0
H219 H 0.00239 0.66231 0.88526 0.0
C220 C 0.8575 0.50217 0.84145 0.0
H221 H 0.89389 0.66037 0.8676 0.0
C222 C 0.91941 0.5037 0.85097 0.0
C223 C 0.97149 0.56044 0.86757 0.0
H224 H 0.81607 0.45573 0.83056 0.0
H225 H 0.92462 0.45841 0.84721 0.0
C226 C 0.96279 0.61805 0.87246 0.0
C227 C 0.36609 0.83383 0.14287 0.0
C228 C 0.30781 0.80383 0.16422 0.0
H229 H 0.4694 0.92224 0.13106 0.0
C230 C 0.30796 0.84381 0.18919 0.0
H231 H 0.36775 0.80457 0.12339 0.0
C232 C 0.36628 0.91089 0.19357 0.0
C233 C 0.42504 0.93984 0.17273 0.0
H234 H 0.26416 0.82225 0.20618 0.0
H235 H 0.3663 0.93931 0.21381 0.0
C236 C 0.42414 0.90119 0.14711 0.0
C237 C 0.51879 0.24681 0.54104 0.0
C238 C 0.51665 0.22691 0.50918 0.0
H239 H 0.51545 0.32011 0.57083 0.0
C240 C 0.50361 0.26371 0.48261 0.0
H241 H 0.52816 0.21896 0.56203 0.0
C242 C 0.49705 0.32226 0.48773 0.0
C243 C 0.50197 0.34352 0.51954 0.0
H244 H 0.50205 0.24956 0.45783 0.0
H245 H 0.4904 0.35222 0.46682 0.0
C246 C 0.51123 0.30433 0.54616 0.0
C247 C 0.3126 0.44996 0.87767 0.0
C248 C 0.33568 0.44397 0.84729 0.0
H249 H 0.23245 0.45273 0.9039 0.0
C250 C 0.29143 0.43063 0.82 0.0
H251 H 0.34539 0.45984 0.89919 0.0
C252 C 0.22697 0.42743 0.82273 0.0
C253 C 0.20552 0.43627 0.85289 0.0
H254 H 0.30812 0.42629 0.79627 0.0
H255 H 0.19492 0.42015 0.80111 0.0
C256 C 0.24809 0.44586 0.88044 0.0
C257 C 0.87359 0.22927 0.17409 0.0
C258 C 0.91531 0.28416 0.19411 0.0
H259 H 0.77839 0.13028 0.16957 0.0
C260 C 0.8911 0.28164 0.22552 0.0
H261 H 0.89124 0.23064 0.14961 0.0
C262 C 0.82488 0.22691 0.23632 0.0
C263 C 0.78193 0.17124 0.21651 0.0
H264 H 0.92168 0.32454 0.24107 0.0
H265 H 0.80688 0.23058 0.25979 0.0
C266 C 0.80826 0.17246 0.18546 0.0
C267 C 0.04114 0.50394 0.02231 0.0
C268 C 0.10685 0.5385 0.03775 0.0
H269 H 0.98511 0.47911 0.97711 0.0
C270 C 0.16805 0.5751 0.01813 0.0
H271 H -0.00711 0.47523 0.03657 0.0
C272 C 0.16346 0.57711 0.98386 0.0
C273 C 0.09759 0.54338 0.96855 0.0
H274 H 0.21951 0.60219 0.02922 0.0
H275 H 0.21134 0.60599 0.96933 0.0
C276 C 0.0366 0.50657 0.98817 0.0
C277 C 0.54421 0.04089 0.35428 0.0
C278 C 0.58789 0.02886 0.3765 0.0
H279 H 0.52088 0.05565 0.30377 0.0
C280 C 0.63995 0.01838 0.36409 0.0
H281 H 0.50341 0.0488 0.36301 0.0
C282 C 0.64998 0.02259 0.33039 0.0
C283 C 0.6078 0.03666 0.30823 0.0
H284 H 0.67445 0.00871 0.3804 0.0
H285 H 0.69159 0.01595 0.32161 0.0
C286 C 0.55384 0.04433 0.32042 0.0
C287 C 0.55372 0.47871 0.69419 0.0
C288 C 0.60681 0.53122 0.71255 0.0
H289 H 0.51361 0.44607 0.64647 0.0
C290 C 0.66291 0.59131 0.69576 0.0
H291 H 0.50989 0.43163 0.70629 0.0
C292 C 0.66486 0.59959 0.66149 0.0
C293 C 0.6112 0.54765 0.64318 0.0
H294 H 0.70477 0.63278 0.70908 0.0
H295 H 0.70825 0.6469 0.64927 0.0
C296 C 0.55609 0.48668 0.6599 0.0
C297 C 0.62207 0.07672 0.64595 0.0
C298 C 0.58343 0.01529 0.62899 0.0
H299 H 0.65721 0.11942 0.69257 0.0
C300 C 0.54928 0.94846 0.64696 0.0
H301 H 0.64879 0.12903 0.63285 0.0
C302 C 0.55454 0.9431 0.68107 0.0
C303 C 0.59342 0.00444 0.69796 0.0
H304 H 0.51911 0.9001 0.63468 0.0
H305 H 0.52779 0.89088 0.69428 0.0
C306 C 0.62663 0.07135 0.68013 0.0
C307 C 0.64188 0.47821 0.9852 0.0
C308 C 0.60905 0.51005 0.96659 0.0
H309 H 0.67649 0.45948 0.03263 0.0
C310 C 0.58434 0.5472 0.9826 0.0
H311 H 0.66142 0.44914 0.97368 0.0
C312 C 0.593 0.55308 0.01634 0.0
C313 C 0.62696 0.52238 0.03481 0.0
H314 H 0.55865 0.57227 0.96905 0.0
H315 H 0.57444 0.58299 0.02786 0.0
C316 C 0.65092 0.48451 0.01893 0.0
C317 C 0.11986 0.48565 0.31213 0.0
C318 C 0.11905 0.5412 0.29237 0.0
H319 H 0.1086 0.43432 0.36047 0.0
C320 C 0.11075 0.59139 0.30752 0.0
H321 H 0.12628 0.4461 0.30134 0.0
C322 C 0.10098 0.58469 0.34147 0.0
C323 C 0.09864 0.52732 0.36095 0.0
H324 H 0.11011 0.63495 0.29308 0.0
H325 H 0.09239 0.6228 0.35232 0.0
C326 C 0.10941 0.47861 0.346 0.0
loop_
_geom_bond_atom_site_label_1
_geom_bond_atom_site_label_2
_geom_bond_distance
_geom_bond_site_symmetry_2
_ccdc_geom_bond_type
O0 Zn1 1.953 . S
O0 C16 1.225 . S
Zn1 O0 1.953 . S
Zn1 O2 1.949 . S
Zn1 O8 1.919 1_455 S
Zn1 O13 1.924 . S
O2 Zn1 1.949 . S
O2 Zn3 1.923 1_455 S
O2 Zn4 1.950 . S
O2 Zn5 1.945 . S
Zn3 O2 1.923 1_655 S
Zn3 O6 1.933 . S
Zn3 O9 1.941 . S
Zn3 O10 1.965 . S
Zn4 O2 1.950 . S
Zn4 O11 1.938 1_455 S
Zn4 O12 1.906 . S
Zn4 O22 1.953 . S
Zn5 O2 1.945 . S
Zn5 O7 1.932 . S
Zn5 O14 1.977 . S
Zn5 O15 1.910 . S
O6 Zn3 1.933 . S
O6 C17 1.226 1_655 S
O7 Zn5 1.932 . S
O7 C17 1.307 . S
O8 Zn1 1.919 1_655 S
O8 C19 1.253 . S
O9 Zn3 1.941 . S
O9 C19 1.283 . S
O10 Zn3 1.965 . S
O10 C18 1.303 . S
O11 Zn4 1.938 1_655 S
O11 C18 1.247 . S
O12 Zn4 1.906 . S
O12 C20 1.304 . S
O13 Zn1 1.924 . S
O13 C21 1.311 . S
O14 Zn5 1.977 . S
O14 C20 1.272 . S
O15 Zn5 1.910 . S
O15 C21 1.231 . S
C16 O0 1.225 . S
C16 O22 1.298 . S
C17 O6 1.226 1_455 S
C17 O7 1.307 . S
C18 O10 1.303 . S
C18 O11 1.247 . S
C19 O8 1.253 . S
C19 O9 1.283 . S
C20 O12 1.304 . S
C20 O14 1.272 . S
C21 O13 1.311 . S
C21 O15 1.231 . S
O22 Zn4 1.953 . S
O22 C16 1.298 . S
O23 Zn24 1.953 . S
O23 C39 1.225 . S
Zn24 O23 1.953 . S
Zn24 O25 1.949 . S
Zn24 O31 1.919 . S
Zn24 O36 1.924 1_545 S
O25 Zn24 1.949 . S
O25 Zn26 1.923 . S
O25 Zn27 1.950 . S
O25 Zn28 1.945 1_545 S
Zn26 O25 1.923 . S
Zn26 O29 1.933 . S
Zn26 O32 1.941 . S
Zn26 O33 1.965 . S
Zn27 O25 1.950 . S
Zn27 O34 1.938 . S
Zn27 O35 1.906 1_545 S
Zn27 O45 1.953 . S
Zn28 O25 1.945 1_565 S
Zn28 O30 1.932 . S
Zn28 O37 1.977 . S
Zn28 O38 1.910 . S
O29 Zn26 1.933 . S
O29 C40 1.226 . S
O30 Zn28 1.932 . S
O30 C40 1.307 1_565 S
O31 Zn24 1.919 . S
O31 C42 1.253 . S
O32 Zn26 1.941 . S
O32 C42 1.283 . S
O33 Zn26 1.965 . S
O33 C41 1.303 . S
O34 Zn27 1.938 . S
O34 C41 1.247 . S
O35 Zn27 1.906 1_565 S
O35 C43 1.304 . S
O36 Zn24 1.924 1_565 S
O36 C44 1.311 . S
O37 Zn28 1.977 . S
O37 C43 1.272 . S
O38 Zn28 1.910 . S
O38 C44 1.231 . S
C39 O23 1.225 . S
C39 O45 1.298 . S
C40 O29 1.226 . S
C40 O30 1.307 1_545 S
C41 O33 1.303 . S
C41 O34 1.247 . S
C42 O31 1.253 . S
C42 O32 1.283 . S
C43 O35 1.304 . S
C43 O37 1.272 . S
C44 O36 1.311 . S
C44 O38 1.231 . S
O45 Zn27 1.953 . S
O45 C39 1.298 . S
O46 Zn47 1.953 . S
O46 C62 1.225 . S
Zn47 O46 1.953 . S
Zn47 O48 1.949 . S
Zn47 O54 1.919 . S
Zn47 O59 1.924 . S
O48 Zn47 1.949 . S
O48 Zn49 1.923 . S
O48 Zn50 1.950 . S
O48 Zn51 1.945 . S
Zn49 O48 1.923 . S
Zn49 O52 1.933 . S
Zn49 O55 1.941 . S
Zn49 O56 1.965 . S
Zn50 O48 1.950 . S
Zn50 O57 1.938 . S
Zn50 O58 1.906 . S
Zn50 O68 1.953 . S
Zn51 O48 1.945 . S
Zn51 O53 1.932 . S
Zn51 O60 1.977 . S
Zn51 O61 1.910 . S
O52 Zn49 1.933 . S
O52 C63 1.226 . S
O53 Zn51 1.932 . S
O53 C63 1.307 . S
O54 Zn47 1.919 . S
O54 C65 1.253 . S
O55 Zn49 1.941 . S
O55 C65 1.283 . S
O56 Zn49 1.965 . S
O56 C64 1.303 . S
O57 Zn50 1.938 . S
O57 C64 1.247 . S
O58 Zn50 1.906 . S
O58 C66 1.304 . S
O59 Zn47 1.924 . S
O59 C67 1.311 . S
O60 Zn51 1.977 . S
O60 C66 1.272 . S
O61 Zn51 1.910 . S
O61 C67 1.231 . S
C62 O46 1.225 . S
C62 O68 1.298 . S
C63 O52 1.226 . S
C63 O53 1.307 . S
C64 O56 1.303 . S
C64 O57 1.247 . S
C65 O54 1.253 . S
C65 O55 1.283 . S
C66 O58 1.304 . S
C66 O60 1.272 . S
C67 O59 1.311 . S
C67 O61 1.231 . S
O68 Zn50 1.953 . S
O68 C62 1.298 . S
H69 C76 0.929 . S
H70 C79 0.930 . S
H71 C81 0.929 . S
H72 C73 0.969 . S
C73 H72 0.969 . S
C73 O74 1.550 . S
C73 H75 0.973 . S
O74 C73 1.550 . S
O74 C80 1.412 1_565 S
H75 C73 0.973 . S
C76 H69 0.929 . S
C76 C77 1.400 . S
C76 C78 1.364 . S
C77 C76 1.400 . S
C77 C81 1.377 . S
C78 C76 1.364 . S
C78 C79 1.374 1_545 S
C79 H70 0.930 . S
C79 C78 1.374 1_565 S
C79 C80 1.383 1_565 S
C80 O74 1.412 1_545 S
C80 C79 1.383 1_545 S
C80 C81 1.394 . S
C81 H71 0.929 . S
C81 C77 1.377 . S
C81 C80 1.394 . S
H82 C89 0.929 . S
H83 C92 0.930 . S
H84 C94 0.929 . S
H85 C86 0.969 . S
C86 H85 0.969 . S
C86 O87 1.550 . S
C86 H88 0.973 . S
O87 C86 1.550 . S
O87 C93 1.412 . S
H88 C86 0.973 . S
C89 H82 0.929 . S
C89 C90 1.400 . S
C89 C91 1.364 . S
C90 C89 1.400 . S
C90 C94 1.377 . S
C91 C89 1.364 . S
C91 C92 1.374 . S
C92 H83 0.930 . S
C92 C91 1.374 . S
C92 C93 1.383 . S
C93 O87 1.412 . S
C93 C92 1.383 . S
C93 C94 1.394 . S
C94 H84 0.929 . S
C94 C90 1.377 . S
C94 C93 1.394 . S
H95 C102 0.929 1_655 S
H96 C105 0.930 . S
H97 C107 0.929 . S
H98 C99 0.969 . S
C99 H98 0.969 . S
C99 O100 1.550 . S
C99 H101 0.973 . S
O100 C99 1.550 . S
O100 C106 1.412 . S
H101 C99 0.973 . S
C102 H95 0.929 1_455 S
C102 C103 1.400 . S
C102 C104 1.364 . S
C103 C102 1.400 . S
C103 C107 1.377 . S
C104 C102 1.364 . S
C104 C105 1.374 . S
C105 H96 0.930 . S
C105 C104 1.374 . S
C105 C106 1.383 . S
C106 O100 1.412 . S
C106 C105 1.383 . S
C106 C107 1.394 . S
C107 H97 0.929 . S
C107 C103 1.377 . S
C107 C106 1.394 . S
H108 C115 0.929 1_655 S
H109 C118 0.930 . S
H110 C120 0.929 . S
H111 C112 0.969 . S
C112 H111 0.969 . S
C112 O113 1.550 . S
C112 H114 0.973 . S
O113 C112 1.550 . S
O113 C119 1.412 . S
H114 C112 0.973 . S
C115 H108 0.929 1_455 S
C115 C116 1.400 . S
C115 C117 1.364 . S
C116 C115 1.400 . S
C116 C120 1.377 . S
C117 C115 1.364 . S
C117 C118 1.374 . S
C118 H109 0.930 . S
C118 C117 1.374 . S
C118 C119 1.383 . S
C119 O113 1.412 . S
C119 C118 1.383 . S
C119 C120 1.394 . S
C120 H110 0.929 . S
C120 C116 1.377 . S
C120 C119 1.394 . S
H121 C128 0.929 . S
H122 C131 0.930 . S
H123 C133 0.929 1_565 S
H124 C125 0.969 . S
C125 H124 0.969 . S
C125 O126 1.550 . S
C125 H127 0.973 . S
O126 C125 1.550 . S
O126 C132 1.412 . S
H127 C125 0.973 . S
C128 H121 0.929 . S
C128 C129 1.400 . S
C128 C130 1.364 1_565 S
C129 C128 1.400 . S
C129 C133 1.375 1_565 S
C130 C128 1.364 1_545 S
C130 C131 1.374 . S
C131 H122 0.930 . S
C131 C130 1.374 . S
C131 C132 1.383 . S
C132 O126 1.412 . S
C132 C131 1.383 . S
C132 C133 1.396 . S
C133 H123 0.929 1_545 S
C133 C129 1.375 1_545 S
C133 C132 1.396 . S
H134 C141 0.929 . S
H135 C144 0.930 . S
H136 C146 0.929 . S
H137 C138 0.969 . S
C138 H137 0.969 . S
C138 O139 1.550 . S
C138 H140 0.973 . S
O139 C138 1.550 . S
O139 C145 1.412 . S
H140 C138 0.973 . S
C141 H134 0.929 . S
C141 C142 1.400 . S
C141 C143 1.364 . S
C142 C141 1.400 . S
C142 C146 1.377 . S
C143 C141 1.364 . S
C143 C144 1.374 . S
C144 H135 0.930 . S
C144 C143 1.374 . S
C144 C145 1.383 . S
C145 O139 1.412 . S
C145 C144 1.383 . S
C145 C146 1.394 . S
C146 H136 0.929 . S
C146 C142 1.377 . S
C146 C145 1.394 . S
C147 C148 1.387 . S
C147 H151 0.950 . S
C147 C156 1.390 . S
C148 C147 1.387 . S
C148 C150 1.387 . S
H149 C156 0.950 . S
C150 C148 1.387 . S
C150 C152 1.390 . S
C150 H154 0.950 . S
H151 C147 0.950 . S
C152 C150 1.390 . S
C152 C153 1.387 . S
C152 H155 0.950 . S
C153 C152 1.387 . S
C153 C156 1.387 . S
H154 C150 0.950 . S
H155 C152 0.950 . S
C156 C147 1.390 . S
C156 H149 0.950 . S
C156 C153 1.387 . S
C157 C158 1.387 . S
C157 H161 0.950 . S
C157 C166 1.390 . S
C158 C157 1.387 . S
C158 C160 1.387 . S
H159 C166 0.950 . S
C160 C158 1.387 . S
C160 C162 1.390 . S
C160 H164 0.950 . S
H161 C157 0.950 . S
C162 C160 1.390 . S
C162 C163 1.387 . S
C162 H165 0.950 1_655 S
C163 C162 1.387 . S
C163 C166 1.387 . S
H164 C160 0.950 . S
H165 C162 0.950 1_455 S
C166 C157 1.390 . S
C166 H159 0.950 . S
C166 C163 1.387 . S
C167 C168 1.387 . S
C167 H171 0.950 . S
C167 C176 1.390 . S
C168 C167 1.387 . S
C168 C170 1.387 . S
H169 C176 0.950 . S
C170 C168 1.387 . S
C170 C172 1.390 . S
C170 H174 0.950 . S
H171 C167 0.950 . S
C172 C170 1.390 . S
C172 C173 1.387 . S
C172 H175 0.950 . S
C173 C172 1.387 . S
C173 C176 1.387 . S
H174 C170 0.950 . S
H175 C172 0.950 . S
C176 C167 1.390 . S
C176 H169 0.950 . S
C176 C173 1.387 . S
C177 C178 1.387 . S
C177 H181 0.950 . S
C177 C186 1.390 . S
C178 C177 1.387 . S
C178 C180 1.387 . S
H179 C186 0.950 . S
C180 C178 1.387 . S
C180 C182 1.390 . S
C180 H184 0.950 . S
H181 C177 0.950 . S
C182 C180 1.390 . S
C182 C183 1.387 . S
C182 H185 0.950 . S
C183 C182 1.387 . S
C183 C186 1.387 . S
H184 C180 0.950 . S
H185 C182 0.950 . S
C186 C177 1.390 . S
C186 H179 0.950 . S
C186 C183 1.387 . S
C187 C188 1.387 . S
C187 H191 0.950 . S
C187 C196 1.390 . S
C188 C187 1.387 . S
C188 C190 1.387 . S
H189 C196 0.950 . S
C190 C188 1.387 . S
C190 C192 1.390 . S
C190 H194 0.950 . S
H191 C187 0.950 . S
C192 C190 1.390 . S
C192 C193 1.387 . S
C192 H195 0.950 . S
C193 C192 1.387 . S
C193 C196 1.387 . S
H194 C190 0.950 . S
H195 C192 0.950 . S
C196 C187 1.390 . S
C196 H189 0.950 . S
C196 C193 1.387 . S
C197 C198 1.387 . S
C197 H201 0.950 . S
C197 C206 1.390 . S
C198 C197 1.387 . S
C198 C200 1.387 . S
H199 C206 0.950 . S
C200 C198 1.387 . S
C200 C202 1.390 . S
C200 H204 0.950 . S
H201 C197 0.950 . S
C202 C200 1.390 . S
C202 C203 1.387 . S
C202 H205 0.950 . S
C203 C202 1.387 . S
C203 C206 1.387 . S
H204 C200 0.950 . S
H205 C202 0.950 . S
C206 C197 1.390 . S
C206 H199 0.950 . S
C206 C203 1.387 . S
C207 C208 1.387 . S
C207 H211 0.950 . S
C207 C216 1.390 . S
C208 C207 1.387 . S
C208 C210 1.387 . S
H209 C216 0.950 . S
C210 C208 1.387 . S
C210 C212 1.390 . S
C210 H214 0.950 . S
H211 C207 0.950 . S
C212 C210 1.390 . S
C212 C213 1.387 . S
C212 H215 0.950 . S
C213 C212 1.387 . S
C213 C216 1.387 . S
H214 C210 0.950 . S
H215 C212 0.950 . S
C216 C207 1.390 . S
C216 H209 0.950 . S
C216 C213 1.387 . S
C217 C218 1.387 . S
C217 H221 0.950 . S
C217 C226 1.390 . S
C218 C217 1.387 . S
C218 C220 1.387 . S
H219 C226 0.950 . S
C220 C218 1.387 . S
C220 C222 1.390 . S
C220 H224 0.950 . S
H221 C217 0.950 . S
C222 C220 1.390 . S
C222 C223 1.387 . S
C222 H225 0.950 . S
C223 C222 1.387 . S
C223 C226 1.387 . S
H224 C220 0.950 . S
H225 C222 0.950 . S
C226 C217 1.390 . S
C226 H219 0.950 . S
C226 C223 1.387 . S
C227 C228 1.387 . S
C227 H231 0.950 . S
C227 C236 1.390 . S
C228 C227 1.387 . S
C228 C230 1.387 . S
H229 C236 0.950 . S
C230 C228 1.387 . S
C230 C232 1.390 . S
C230 H234 0.950 . S
H231 C227 0.950 . S
C232 C230 1.390 . S
C232 C233 1.387 . S
C232 H235 0.950 . S
C233 C232 1.387 . S
C233 C236 1.387 . S
H234 C230 0.950 . S
H235 C232 0.950 . S
C236 C227 1.390 . S
C236 H229 0.950 . S
C236 C233 1.387 . S
C237 C238 1.387 . S
C237 H241 0.950 . S
C237 C246 1.390 . S
C238 C237 1.387 . S
C238 C240 1.387 . S
H239 C246 0.950 . S
C240 C238 1.387 . S
C240 C242 1.390 . S
C240 H244 0.950 . S
H241 C237 0.950 . S
C242 C240 1.390 . S
C242 C243 1.387 . S
C242 H245 0.950 . S
C243 C242 1.387 . S
C243 C246 1.387 . S
H244 C240 0.950 . S
H245 C242 0.950 . S
C246 C237 1.390 . S
C246 H239 0.950 . S
C246 C243 1.387 . S
C247 C248 1.387 . S
C247 H251 0.950 . S
C247 C256 1.390 . S
C248 C247 1.387 . S
C248 C250 1.387 . S
H249 C256 0.950 . S
C250 C248 1.387 . S
C250 C252 1.390 . S
C250 H254 0.950 . S
H251 C247 0.950 . S
C252 C250 1.390 . S
C252 C253 1.387 . S
C252 H255 0.950 . S
C253 C252 1.387 . S
C253 C256 1.387 . S
H254 C250 0.950 . S
H255 C252 0.950 . S
C256 C247 1.390 . S
C256 H249 0.950 . S
C256 C253 1.387 . S
C257 C258 1.387 . S
C257 H261 0.950 . S
C257 C266 1.390 . S
C258 C257 1.387 . S
C258 C260 1.387 . S
H259 C266 0.950 . S
C260 C258 1.387 . S
C260 C262 1.390 . S
C260 H264 0.950 . S
H261 C257 0.950 . S
C262 C260 1.390 . S
C262 C263 1.387 . S
C262 H265 0.950 . S
C263 C262 1.387 . S
C263 C266 1.387 . S
H264 C260 0.950 . S
H265 C262 0.950 . S
C266 C257 1.390 . S
C266 H259 0.950 . S
C266 C263 1.387 . S
C267 C268 1.387 . S
C267 H271 0.950 . S
C267 C276 1.390 1_554 S
C268 C267 1.387 . S
C268 C270 1.387 . S
H269 C276 0.950 . S
C270 C268 1.387 . S
C270 C272 1.390 1_554 S
C270 H274 0.950 . S
H271 C267 0.950 . S
C272 C270 1.390 1_556 S
C272 C273 1.387 . S
C272 H275 0.950 . S
C273 C272 1.387 . S
C273 C276 1.387 . S
H274 C270 0.950 . S
H275 C272 0.950 . S
C276 C267 1.390 1_556 S
C276 H269 0.950 . S
C276 C273 1.387 . S
C277 C278 1.387 . S
C277 H281 0.950 . S
C277 C286 1.390 . S
C278 C277 1.387 . S
C278 C280 1.387 1_545 S
H279 C286 0.950 . S
C280 C278 1.387 1_565 S
C280 C282 1.390 . S
C280 H284 0.950 . S
H281 C277 0.950 . S
C282 C280 1.390 . S
C282 C283 1.387 1_565 S
C282 H285 0.950 . S
C283 C282 1.387 1_545 S
C283 C286 1.387 . S
H284 C280 0.950 . S
H285 C282 0.950 . S
C286 C277 1.390 . S
C286 H279 0.950 . S
C286 C283 1.387 . S
C287 C288 1.387 . S
C287 H291 0.950 . S
C287 C296 1.390 . S
C288 C287 1.387 . S
C288 C290 1.387 . S
H289 C296 0.950 . S
C290 C288 1.387 . S
C290 C292 1.390 . S
C290 H294 0.950 . S
H291 C287 0.950 . S
C292 C290 1.390 . S
C292 C293 1.387 . S
C292 H295 0.950 . S
C293 C292 1.387 . S
C293 C296 1.387 . S
H294 C290 0.950 . S
H295 C292 0.950 . S
C296 C287 1.390 . S
C296 H289 0.950 . S
C296 C293 1.387 . S
C297 C298 1.387 . S
C297 H301 0.950 . S
C297 C306 1.390 . S
C298 C297 1.387 . S
C298 C300 1.387 1_545 S
H299 C306 0.950 . S
C300 C298 1.387 1_565 S
C300 C302 1.390 . S
C300 H304 0.950 . S
H301 C297 0.950 . S
C302 C300 1.390 . S
C302 C303 1.387 1_565 S
C302 H305 0.950 . S
C303 C302 1.387 1_545 S
C303 C306 1.387 . S
H304 C300 0.950 . S
H305 C302 0.950 . S
C306 C297 1.390 . S
C306 H299 0.950 . S
C306 C303 1.387 . S
C307 C308 1.387 . S
C307 H311 0.950 . S
C307 C316 1.390 1_556 S
C308 C307 1.387 . S
C308 C310 1.387 . S
H309 C316 0.950 . S
C310 C308 1.387 . S
C310 C312 1.390 1_556 S
C310 H314 0.950 . S
H311 C307 0.950 . S
C312 C310 1.390 1_554 S
C312 C313 1.387 . S
C312 H315 0.950 . S
C313 C312 1.387 . S
C313 C316 1.387 . S
H314 C310 0.950 . S
H315 C312 0.950 . S
C316 C307 1.390 1_554 S
C316 H309 0.950 . S
C316 C313 1.387 . S
C317 C318 1.387 . S
C317 H321 0.950 . S
C317 C326 1.390 . S
C318 C317 1.387 . S
C318 C320 1.387 . S
H319 C326 0.950 . S
C320 C318 1.387 . S
C320 C322 1.390 . S
C320 H324 0.950 . S
H321 C317 0.950 . S
C322 C320 1.390 . S
C322 C323 1.387 . S
C322 H325 0.950 . S
C323 C322 1.387 . S
C323 C326 1.387 . S
H324 C320 0.950 . S
H325 C322 0.950 . S
C326 C317 1.390 . S
C326 H319 0.950 . S
C326 C323 1.387 . S
C148 C20 1.347 . S
C153 C138 1.305 . S
C158 C41 1.445 . S
C163 C116 1.436 1_655 S
C168 C64 1.466 . S
C173 C129 1.458 . S
C178 C19 1.334 . S
C183 C142 1.407 . S
C193 C112 1.311 . S
C188 C44 1.397 . S
C203 C125 1.302 . S
C198 C67 1.390 . S
C208 C43 1.318 . S
C213 C90 1.405 . S
C218 C66 1.312 . S
C223 C103 1.399 1_655 S
C228 C21 1.402 . S
C233 C73 1.315 . S
C243 C86 1.308 . S
C238 C42 1.359 . S
C253 C99 1.308 . S
C248 C65 1.362 . S
C258 C18 1.398 . S
C263 C77 1.384 . S
C273 C104 1.516 . S
C268 C17 1.519 . S
C278 C39 1.531 . S
C283 C78 1.532 . S
C288 C62 1.540 . S
C293 C91 1.540 . S
C303 C130 1.519 . S
C298 C40 1.527 . S
C313 C143 1.538 . S
C308 C63 1.546 . S
C318 C16 1.523 . S
C323 C117 1.519 . S
