# Generated by pormake.
# Topology ptr, (4,4)-cn, num edge types: 1
# Building blocks:
#     Node 0, Type 0, BuildingBlock: QUQFOY_clean_sbu_1, # of connection points: 4
#     Node 1, Type 0, BuildingBlock: QUQFOY_clean_sbu_1, # of connection points: 4
#     Node 2, Type 0, BuildingBlock: QUQFOY_clean_sbu_1, # of connection points: 4
#     Node 3, Type 0, BuildingBlock: QUQFOY_clean_sbu_1, # of connection points: 4
#     Node 4, Type 0, BuildingBlock: QUQFOY_clean_sbu_1, # of connection points: 4
#     Node 5, Type 0, BuildingBlock: QUQFOY_clean_sbu_1, # of connection points: 4
#     Node 6, Type 0, BuildingBlock: QUQFOY_clean_sbu_1, # of connection points: 4
#     Node 7, Type 0, BuildingBlock: QUQFOY_clean_sbu_1, # of connection points: 4
#     Node 8, Type 0, BuildingBlock: QUQFOY_clean_sbu_1, # of connection points: 4
#     Node 9, Type 0, BuildingBlock: QUQFOY_clean_sbu_1, # of connection points: 4
#     Node 10, Type 0, BuildingBlock: QUQFOY_clean_sbu_1, # of connection points: 4
#     Node 11, Type 0, BuildingBlock: QUQFOY_clean_sbu_1, # of connection points: 4
#     Node 12, Type 0, BuildingBlock: QUQFOY_clean_sbu_1, # of connection points: 4
#     Node 13, Type 0, BuildingBlock: QUQFOY_clean_sbu_1, # of connection points: 4
#     Node 14, Type 0, BuildingBlock: QUQFOY_clean_sbu_1, # of connection points: 4
#     Node 15, Type 0, BuildingBlock: QUQFOY_clean_sbu_1, # of connection points: 4
#     Node 16, Type 0, BuildingBlock: QUQFOY_clean_sbu_1, # of connection points: 4
#     Node 17, Type 0, BuildingBlock: QUQFOY_clean_sbu_1, # of connection points: 4
#     Node 18, Type 1, BuildingBlock: KUFVIS_clean_linker_0, # of connection points: 4
#     Node 19, Type 1, BuildingBlock: KUFVIS_clean_linker_0, # of connection points: 4
#     Node 20, Type 1, BuildingBlock: KUFVIS_clean_linker_0, # of connection points: 4
#     Node 21, Type 1, BuildingBlock: KUFVIS_clean_linker_0, # of connection points: 4
#     Node 22, Type 1, BuildingBlock: KUFVIS_clean_linker_0, # of connection points: 4
#     Node 23, Type 1, BuildingBlock: KUFVIS_clean_linker_0, # of connection points: 4
#     Node 24, Type 1, BuildingBlock: KUFVIS_clean_linker_0, # of connection points: 4
#     Node 25, Type 1, BuildingBlock: KUFVIS_clean_linker_0, # of connection points: 4
#     Node 26, Type 1, BuildingBlock: KUFVIS_clean_linker_0, # of connection points: 4
#     Node 27, Type 1, BuildingBlock: KUFVIS_clean_linker_0, # of connection points: 4
#     Node 28, Type 1, BuildingBlock: KUFVIS_clean_linker_0, # of connection points: 4
#     Node 29, Type 1, BuildingBlock: KUFVIS_clean_linker_0, # of connection points: 4
#     Node 30, Type 1, BuildingBlock: KUFVIS_clean_linker_0, # of connection points: 4
#     Node 31, Type 1, BuildingBlock: KUFVIS_clean_linker_0, # of connection points: 4
#     Node 32, Type 1, BuildingBlock: KUFVIS_clean_linker_0, # of connection points: 4
#     Node 33, Type 1, BuildingBlock: KUFVIS_clean_linker_0, # of connection points: 4
#     Node 34, Type 1, BuildingBlock: KUFVIS_clean_linker_0, # of connection points: 4
#     Node 35, Type 1, BuildingBlock: KUFVIS_clean_linker_0, # of connection points: 4
#     Edge 36, Type (0, 1), BuildingBlock: XIVTED_clean_linker_0, # of connection points: 2
#     Edge 37, Type (0, 1), BuildingBlock: XIVTED_clean_linker_0, # of connection points: 2
#     Edge 38, Type (0, 1), BuildingBlock: XIVTED_clean_linker_0, # of connection points: 2
#     Edge 39, Type (0, 1), BuildingBlock: XIVTED_clean_linker_0, # of connection points: 2
#     Edge 40, Type (0, 1), BuildingBlock: XIVTED_clean_linker_0, # of connection points: 2
#     Edge 41, Type (0, 1), BuildingBlock: XIVTED_clean_linker_0, # of connection points: 2
#     Edge 42, Type (0, 1), BuildingBlock: XIVTED_clean_linker_0, # of connection points: 2
#     Edge 43, Type (0, 1), BuildingBlock: XIVTED_clean_linker_0, # of connection points: 2
#     Edge 44, Type (0, 1), BuildingBlock: XIVTED_clean_linker_0, # of connection points: 2
#     Edge 45, Type (0, 1), BuildingBlock: XIVTED_clean_linker_0, # of connection points: 2
#     Edge 46, Type (0, 1), BuildingBlock: XIVTED_clean_linker_0, # of connection points: 2
#     Edge 47, Type (0, 1), BuildingBlock: XIVTED_clean_linker_0, # of connection points: 2
#     Edge 48, Type (0, 1), BuildingBlock: XIVTED_clean_linker_0, # of connection points: 2
#     Edge 49, Type (0, 1), BuildingBlock: XIVTED_clean_linker_0, # of connection points: 2
#     Edge 50, Type (0, 1), BuildingBlock: XIVTED_clean_linker_0, # of connection points: 2
#     Edge 51, Type (0, 1), BuildingBlock: XIVTED_clean_linker_0, # of connection points: 2
#     Edge 52, Type (0, 1), BuildingBlock: XIVTED_clean_linker_0, # of connection points: 2
#     Edge 53, Type (0, 1), BuildingBlock: XIVTED_clean_linker_0, # of connection points: 2
#     Edge 54, Type (0, 1), BuildingBlock: XIVTED_clean_linker_0, # of connection points: 2
#     Edge 55, Type (0, 1), BuildingBlock: XIVTED_clean_linker_0, # of connection points: 2
#     Edge 56, Type (0, 1), BuildingBlock: XIVTED_clean_linker_0, # of connection points: 2
#     Edge 57, Type (0, 1), BuildingBlock: XIVTED_clean_linker_0, # of connection points: 2
#     Edge 58, Type (0, 1), BuildingBlock: XIVTED_clean_linker_0, # of connection points: 2
#     Edge 59, Type (0, 1), BuildingBlock: XIVTED_clean_linker_0, # of connection points: 2
#     Edge 60, Type (0, 1), BuildingBlock: XIVTED_clean_linker_0, # of connection points: 2
#     Edge 61, Type (0, 1), BuildingBlock: XIVTED_clean_linker_0, # of connection points: 2
#     Edge 62, Type (0, 1), BuildingBlock: XIVTED_clean_linker_0, # of connection points: 2
#     Edge 63, Type (0, 1), BuildingBlock: XIVTED_clean_linker_0, # of connection points: 2
#     Edge 64, Type (0, 1), BuildingBlock: XIVTED_clean_linker_0, # of connection points: 2
#     Edge 65, Type (0, 1), BuildingBlock: XIVTED_clean_linker_0, # of connection points: 2
#     Edge 66, Type (0, 1), BuildingBlock: XIVTED_clean_linker_0, # of connection points: 2
#     Edge 67, Type (0, 1), BuildingBlock: XIVTED_clean_linker_0, # of connection points: 2
#     Edge 68, Type (0, 1), BuildingBlock: XIVTED_clean_linker_0, # of connection points: 2
#     Edge 69, Type (0, 1), BuildingBlock: XIVTED_clean_linker_0, # of connection points: 2
#     Edge 70, Type (0, 1), BuildingBlock: XIVTED_clean_linker_0, # of connection points: 2
#     Edge 71, Type (0, 1), BuildingBlock: XIVTED_clean_linker_0, # of connection points: 2
#     Edge 72, Type (0, 1), BuildingBlock: XIVTED_clean_linker_0, # of connection points: 2
#     Edge 73, Type (0, 1), BuildingBlock: XIVTED_clean_linker_0, # of connection points: 2
#     Edge 74, Type (0, 1), BuildingBlock: XIVTED_clean_linker_0, # of connection points: 2
#     Edge 75, Type (0, 1), BuildingBlock: XIVTED_clean_linker_0, # of connection points: 2
#     Edge 76, Type (0, 1), BuildingBlock: XIVTED_clean_linker_0, # of connection points: 2
#     Edge 77, Type (0, 1), BuildingBlock: XIVTED_clean_linker_0, # of connection points: 2
#     Edge 78, Type (0, 1), BuildingBlock: XIVTED_clean_linker_0, # of connection points: 2
#     Edge 79, Type (0, 1), BuildingBlock: XIVTED_clean_linker_0, # of connection points: 2
#     Edge 80, Type (0, 1), BuildingBlock: XIVTED_clean_linker_0, # of connection points: 2
#     Edge 81, Type (0, 1), BuildingBlock: XIVTED_clean_linker_0, # of connection points: 2
#     Edge 82, Type (0, 1), BuildingBlock: XIVTED_clean_linker_0, # of connection points: 2
#     Edge 83, Type (0, 1), BuildingBlock: XIVTED_clean_linker_0, # of connection points: 2
#     Edge 84, Type (0, 1), BuildingBlock: XIVTED_clean_linker_0, # of connection points: 2
#     Edge 85, Type (0, 1), BuildingBlock: XIVTED_clean_linker_0, # of connection points: 2
#     Edge 86, Type (0, 1), BuildingBlock: XIVTED_clean_linker_0, # of connection points: 2
#     Edge 87, Type (0, 1), BuildingBlock: XIVTED_clean_linker_0, # of connection points: 2
#     Edge 88, Type (0, 1), BuildingBlock: XIVTED_clean_linker_0, # of connection points: 2
#     Edge 89, Type (0, 1), BuildingBlock: XIVTED_clean_linker_0, # of connection points: 2
#     Edge 90, Type (0, 1), BuildingBlock: XIVTED_clean_linker_0, # of connection points: 2
#     Edge 91, Type (0, 1), BuildingBlock: XIVTED_clean_linker_0, # of connection points: 2
#     Edge 92, Type (0, 1), BuildingBlock: XIVTED_clean_linker_0, # of connection points: 2
#     Edge 93, Type (0, 1), BuildingBlock: XIVTED_clean_linker_0, # of connection points: 2
#     Edge 94, Type (0, 1), BuildingBlock: XIVTED_clean_linker_0, # of connection points: 2
#     Edge 95, Type (0, 1), BuildingBlock: XIVTED_clean_linker_0, # of connection points: 2
#     Edge 96, Type (0, 1), BuildingBlock: XIVTED_clean_linker_0, # of connection points: 2
#     Edge 97, Type (0, 1), BuildingBlock: XIVTED_clean_linker_0, # of connection points: 2
#     Edge 98, Type (0, 1), BuildingBlock: XIVTED_clean_linker_0, # of connection points: 2
#     Edge 99, Type (0, 1), BuildingBlock: XIVTED_clean_linker_0, # of connection points: 2
#     Edge 100, Type (0, 1), BuildingBlock: XIVTED_clean_linker_0, # of connection points: 2
#     Edge 101, Type (0, 1), BuildingBlock: XIVTED_clean_linker_0, # of connection points: 2
#     Edge 102, Type (0, 1), BuildingBlock: XIVTED_clean_linker_0, # of connection points: 2
#     Edge 103, Type (0, 1), BuildingBlock: XIVTED_clean_linker_0, # of connection points: 2
#     Edge 104, Type (0, 1), BuildingBlock: XIVTED_clean_linker_0, # of connection points: 2
#     Edge 105, Type (0, 1), BuildingBlock: XIVTED_clean_linker_0, # of connection points: 2
#     Edge 106, Type (0, 1), BuildingBlock: XIVTED_clean_linker_0, # of connection points: 2
#     Edge 107, Type (0, 1), BuildingBlock: XIVTED_clean_linker_0, # of connection points: 2
# Relax obj value: 0.019
# Max RMSD: 0.075
# Mean RMSD: 0.059
data_MOF--net-ptr--node1-QUQFOY_clean_sbu_1--node2-KUFVIS_clean_linker_0--edge1-XIVTED_clean_linker_0
_symmetry_space_group_name_H-M    P1
_symmetry_Int_Tables_number       1
_symmetry_cell_setting            triclinic
loop_
_symmetry_equiv_pos_as_xyz
'x, y, z'
_cell_length_a     79.122947
_cell_length_b     79.245893
_cell_length_c     51.646453
_cell_angle_alpha  89.895798
_cell_angle_beta   90.036906
_cell_angle_gamma 119.99699
loop_
_atom_site_label
_atom_site_type_symbol
_atom_site_fract_x
_atom_site_fract_y
_atom_site_fract_z
_atom_type_partial_charge
O0 O 0.04752 0.41255 0.03192 0.0
Cd1 Cd 0.0515 0.40001 -0.00082 0.0
Cd2 Cd 1.0115 0.37917 0.00086 0.0
O3 O 1.01574 0.39305 0.03601 0.0
O4 O 0.07959 0.40729 -0.0001 0.0
O5 O 0.05538 0.37684 0.00245 0.0
C6 C 0.07394 0.38904 0.00245 0.0
C7 C 0.9897 0.34557 -0.00206 0.0
C8 C 0.03172 0.40714 0.04425 0.0
C9 C 0.03045 0.40683 0.95597 0.0
O10 O 1.01477 0.39573 0.96819 0.0
O11 O 0.04675 0.40949 0.9642 0.0
O12 O 0.98364 0.35783 0.00068 0.0
O13 O 1.00833 0.35237 -0.0027 0.0
O14 O 0.63336 0.64275 0.03215 0.0
Cd15 Cd 0.64547 0.6598 -0.00045 0.0
Cd16 Cd 0.66564 0.63935 -0.00117 0.0
O17 O 0.65202 0.62937 0.03411 0.0
O18 O 0.63814 0.68048 0.00179 0.0
O19 O 0.6687 0.68685 0.00262 0.0
C20 C 0.65645 0.69313 0.0036 0.0
C21 C 0.69876 0.64875 -0.0052 0.0
C22 C 0.63845 0.6317 0.04341 0.0
C23 C 0.63734 0.63272 0.95513 0.0
O24 O 0.64836 0.62756 0.96636 0.0
O25 O 0.63515 0.64637 0.96435 0.0
O26 O 0.68542 0.6307 -0.0033 0.0
O27 O 0.69333 0.66166 -0.00441 0.0
O28 O 0.42452 0.0349 0.96611 0.0
Cd29 Cd 0.41279 0.04076 -0.00168 0.0
Cd30 Cd 0.39217 1.00061 0.00059 0.0
O31 O 0.40546 1.00293 0.96535 0.0
O32 O 0.42028 0.06879 -0.00502 0.0
O33 O 0.38964 0.04477 -0.00497 0.0
C34 C 0.40197 0.06323 -0.00656 0.0
C35 C 0.35861 0.9786 0.00466 0.0
C36 C 0.41915 1.0185 0.95553 0.0
C37 C 0.42078 0.02243 0.0438 0.0
O38 O 0.40944 1.00608 0.03323 0.0
O39 O 0.42322 0.03815 0.03377 0.0
O40 O 0.37111 0.97273 0.00332 0.0
O41 O 0.36515 0.99715 0.00347 0.0
O42 O 1.01572 0.62653 0.96923 0.0
Cd43 Cd 1.01029 0.63825 0.00193 0.0
Cd44 Cd 0.05062 0.65772 0.00421 0.0
O45 O 0.04785 0.64481 0.9687 0.0
O46 O 0.98236 0.63138 -0.00072 0.0
O47 O 1.00679 0.66176 -0.00084 0.0
C48 C 0.98822 0.64974 -0.00202 0.0
C49 C 0.07364 0.69086 0.00895 0.0
C50 C 0.0321 0.6316 0.95864 0.0
C51 C 1.02811 0.6289 0.04688 0.0
O52 O 0.04457 0.63995 0.03634 0.0
O53 O 1.01256 0.62714 0.03709 0.0
O54 O 0.07883 0.67786 0.0074 0.0
O55 O 0.05522 0.68506 0.00755 0.0
O56 O 0.42564 0.39619 0.97076 0.0
Cd57 Cd 0.41258 0.37944 0.00336 0.0
Cd58 Cd 0.39299 0.39953 0.00273 0.0
O59 O 0.40695 0.40945 0.96757 0.0
O60 O 0.41818 0.35753 0.00224 0.0
O61 O 0.38835 0.35314 -0.00032 0.0
C62 C 0.3997 0.34578 -0.00034 0.0
C63 C 0.35935 0.38783 0.00592 0.0
C64 C 0.42069 0.40713 0.95888 0.0
C65 C 0.42045 0.40674 0.0474 0.0
O66 O 0.40975 0.41199 0.03551 0.0
O67 O 0.42254 0.3929 0.03868 0.0
O68 O 0.37171 0.40619 0.00368 0.0
O69 O 0.36607 0.37595 0.00592 0.0
O70 O 0.63883 1.00437 0.03313 0.0
Cd71 Cd 0.65187 1.0021 -0.00044 0.0
Cd72 Cd 0.6688 0.04214 0.00178 0.0
O73 O 0.65374 0.03645 0.03617 0.0
O74 O 0.6456 0.97433 -0.00095 0.0
O75 O 0.67572 0.99906 0.00212 0.0
C76 C 0.66398 0.98045 0.00143 0.0
C77 C 0.70212 0.06494 -0.0008 0.0
C78 C 0.64163 0.01965 0.0449 0.0
C79 C 0.6425 0.02186 0.95653 0.0
O80 O 0.65254 0.03774 0.96874 0.0
O81 O 0.64123 1.00613 0.96484 0.0
O82 O 0.68926 0.07032 0.00142 0.0
O83 O 0.69606 0.04646 -0.00077 0.0
O84 O 0.71171 0.74748 0.36567 0.0
Cd85 Cd 0.71788 0.73618 0.33328 0.0
Cd86 Cd 0.67761 0.71475 0.33129 0.0
O87 O 0.6798 0.72777 0.36662 0.0
O88 O 0.74617 0.74451 0.33627 0.0
O89 O 0.7228 0.71363 0.33642 0.0
C90 C 0.74118 0.72637 0.33783 0.0
C91 C 0.65574 0.68119 0.3274 0.0
C92 C 0.69523 0.74166 0.37639 0.0
C93 C 0.69885 0.74376 0.2882 0.0
O94 O 0.6826 0.73209 0.29883 0.0
O95 O 0.71477 0.74651 0.29801 0.0
O96 O 0.64973 0.69357 0.32891 0.0
O97 O 0.67435 0.68786 0.32821 0.0
O98 O 0.30362 0.97561 0.36784 0.0
Cd99 Cd 0.31696 0.99212 0.33517 0.0
Cd100 Cd 0.33633 0.97168 0.33725 0.0
O101 O 0.32213 0.96223 0.37225 0.0
O102 O 0.31075 1.01365 0.33529 0.0
O103 O 0.34079 1.01877 0.3388 0.0
C104 C 0.32913 0.02576 0.33815 0.0
C105 C 0.36982 0.98305 0.33391 0.0
C106 C 0.30834 0.96471 0.38028 0.0
C107 C 0.30944 0.96415 0.29197 0.0
O108 O 0.31987 0.9589 0.30453 0.0
O109 O 0.30742 0.97819 0.30001 0.0
O110 O 0.35739 0.96476 0.33667 0.0
O111 O 0.36324 0.99506 0.3338 0.0
O112 O 0.08999 0.36488 0.30012 0.0
Cd113 Cd 0.07851 0.37069 0.33278 0.0
Cd114 Cd 0.05902 0.33025 0.33597 0.0
O115 O 0.07185 0.33277 0.30037 0.0
O116 O 0.08555 0.39861 0.32968 0.0
O117 O 0.05505 0.37436 0.33013 0.0
C118 C 0.06718 0.39287 0.32867 0.0
C119 C 1.02599 0.30679 0.34134 0.0
C120 C 0.08494 0.34841 0.28991 0.0
C121 C 0.08806 0.35338 0.37818 0.0
O122 O 0.07695 0.33681 0.36805 0.0
O123 O 0.08982 0.36878 0.36795 0.0
O124 O 0.03928 0.30197 0.33977 0.0
O125 O 0.03143 0.32508 0.33954 0.0
O126 O 0.67939 0.96005 0.30345 0.0
Cd127 Cd 0.67597 0.97301 0.33623 0.0
Cd128 Cd 0.71569 0.99307 0.33449 0.0
O129 O 0.71122 0.97917 0.29936 0.0
O130 O 0.64807 0.96637 0.33621 0.0
O131 O 0.67267 0.99655 0.33267 0.0
C132 C 0.65405 0.98467 0.33333 0.0
C133 C 0.73723 0.02668 0.33729 0.0
C134 C 0.69514 0.96524 0.2911 0.0
C135 C 0.69679 0.96578 0.37947 0.0
O136 O 0.7125 0.97657 0.36715 0.0
O137 O 0.68061 0.96348 0.37128 0.0
O138 O 0.74346 1.01456 0.33447 0.0
O139 O 0.71858 0.01973 0.33807 0.0
O140 O 0.09136 0.73234 0.30022 0.0
Cd141 Cd 0.07978 0.71433 0.33219 0.0
Cd142 Cd 0.05821 0.73305 0.33442 0.0
O143 O 0.07162 0.74451 0.29941 0.0
O144 O 0.08866 0.69482 0.329 0.0
O145 O 0.05758 0.68671 0.32846 0.0
C146 C 0.0706 0.68144 0.32717 0.0
C147 C 1.02447 0.72069 0.33809 0.0
C148 C 0.08565 0.74315 0.28969 0.0
C149 C 0.08663 0.7401 0.37796 0.0
O150 O 0.07515 0.7449 0.36728 0.0
O151 O 0.08953 0.72714 0.36788 0.0
O152 O 0.03662 0.73915 0.337 0.0
O153 O 0.03149 0.70907 0.33687 0.0
O154 O 0.30424 0.33548 0.36828 0.0
Cd155 Cd 0.3162 0.33235 0.33446 0.0
Cd156 Cd 0.33628 0.37315 0.33746 0.0
O157 O 0.32053 0.3676 0.37145 0.0
O158 O 0.30885 0.30427 0.3341 0.0
O159 O 0.33941 0.32833 0.33619 0.0
C160 C 0.32714 0.30981 0.33606 0.0
C161 C 0.36953 0.39667 0.33596 0.0
C162 C 0.30784 0.35098 0.38012 0.0
C163 C 0.30954 0.35406 0.2916 0.0
O164 O 0.32121 0.36964 0.3035 0.0
O165 O 0.30585 0.33753 0.30033 0.0
O166 O 0.35626 0.40151 0.33791 0.0
O167 O 0.36394 0.3783 0.33584 0.0
O168 O 0.37474 0.07868 0.70151 0.0
Cd169 Cd 0.38103 0.06777 0.669 0.0
Cd170 Cd 0.34072 0.04354 0.66892 0.0
O171 O 0.3431 0.05772 0.70346 0.0
O172 O 0.40969 0.07732 0.67044 0.0
O173 O 0.38728 0.0461 0.67219 0.0
C174 C 0.4055 0.05943 0.67261 0.0
C175 C 0.31936 1.00976 0.66685 0.0
C176 C 0.35831 0.07231 0.71259 0.0
C177 C 0.35924 0.07208 0.62441 0.0
O178 O 0.34371 0.05908 0.63526 0.0
O179 O 0.37586 0.07712 0.63418 0.0
O180 O 0.31302 0.02187 0.66827 0.0
O181 O 0.33803 1.01681 0.66704 0.0
O182 O 0.96939 0.31154 0.69854 0.0
Cd183 Cd 0.98194 0.3282 0.66568 0.0
Cd184 Cd 1.00089 0.30704 0.66521 0.0
O185 O 0.98734 0.2974 0.70058 0.0
O186 O 0.97585 0.34979 0.66712 0.0
O187 O 1.00595 0.35481 0.66853 0.0
C188 C 0.99432 0.36185 0.66892 0.0
C189 C 0.0341 0.31701 0.66108 0.0
C190 C 0.97407 0.3002 0.70988 0.0
C191 C 0.9727 0.30051 0.62167 0.0
O192 O 0.98343 0.29502 0.63295 0.0
O193 O 0.97111 0.31457 0.63067 0.0
O194 O 1.02103 0.29887 0.66313 0.0
O195 O 1.02834 0.32966 0.66179 0.0
O196 O 0.75829 0.69936 0.63357 0.0
Cd197 Cd 0.74677 0.70546 0.66584 0.0
Cd198 Cd 0.72677 0.66472 0.66872 0.0
O199 O 0.73987 0.66728 0.63328 0.0
O200 O 0.75462 0.73357 0.66213 0.0
O201 O 0.72386 0.70989 0.66256 0.0
C202 C 0.73638 0.72828 0.66072 0.0
C203 C 0.69366 0.64134 0.67374 0.0
C204 C 0.75319 0.68296 0.62316 0.0
C205 C 0.75542 0.68774 0.71152 0.0
O206 O 0.7444 0.67125 0.70113 0.0
O207 O 0.75744 0.70325 0.70133 0.0
O208 O 0.70691 0.63645 0.67242 0.0
O209 O 0.69918 0.65965 0.67186 0.0
O210 O 0.35077 0.29423 0.63181 0.0
Cd211 Cd 0.34576 0.30583 0.66475 0.0
Cd212 Cd 0.38544 0.32849 0.66402 0.0
O213 O 0.3826 0.31415 0.62948 0.0
O214 O 0.31765 0.29855 0.66402 0.0
O215 O 0.34185 0.32905 0.66236 0.0
C216 C 0.32329 0.31685 0.66227 0.0
C217 C 0.40583 0.36235 0.66611 0.0
C218 C 0.36702 0.29993 0.62049 0.0
C219 C 0.36718 0.30045 0.7088 0.0
O220 O 0.38276 0.31312 0.69769 0.0
O221 O 0.3506 0.29585 0.6993 0.0
O222 O 0.41282 0.35078 0.66441 0.0
O223 O 0.38707 0.35469 0.66603 0.0
O224 O 0.7568 0.06006 0.63806 0.0
Cd225 Cd 0.74404 0.04346 0.67088 0.0
Cd226 Cd 0.72457 0.06387 0.67078 0.0
O227 O 0.73842 0.0737 0.63558 0.0
O228 O 0.74973 0.02161 0.66972 0.0
O229 O 0.71982 1.01707 0.6679 0.0
C230 C 0.73122 1.00976 0.6677 0.0
C231 C 0.69108 0.05312 0.67383 0.0
C232 C 0.75194 0.07119 0.62652 0.0
C233 C 0.75254 0.07103 0.71485 0.0
O234 O 0.74163 0.07623 0.70338 0.0
O235 O 0.75452 0.05718 0.70592 0.0
O236 O 0.70389 0.07135 0.67177 0.0
O237 O 0.69728 0.0408 0.67392 0.0
O238 O 0.96995 0.66992 0.70223 0.0
Cd239 Cd 0.98256 0.66698 0.66874 0.0
Cd240 Cd 1.00006 0.70735 0.67059 0.0
O241 O 0.98517 0.70203 0.7051 0.0
O242 O 0.97526 0.63891 0.66899 0.0
O243 O 1.00578 0.66296 0.67122 0.0
C244 C 0.99352 0.64445 0.67116 0.0
C245 C 0.03343 0.72991 0.6676 0.0
C246 C 0.97298 0.68529 0.71394 0.0
C247 C 0.9737 0.68686 0.62538 0.0
O248 O 0.98379 0.70277 0.63751 0.0
O249 O 0.97221 0.67109 0.63389 0.0
O250 O 1.0207 0.73545 0.6698 0.0
O251 O 1.02722 0.7114 0.66793 0.0
H252 H 0.26077 0.36023 0.11297 0.0
H253 H 0.21196 0.35363 0.06891 0.0
H254 H 0.21355 0.3601 0.15259 0.0
H255 H 0.18275 0.34457 0.15113 0.0
H256 H 0.13716 0.34798 0.11208 0.0
H257 H 0.18924 0.36189 0.07023 0.0
C258 C 0.2466 0.35926 0.11232 0.0
C259 C 0.23767 0.35972 0.13533 0.0
C260 C 0.23752 0.35743 0.08846 0.0
C261 C 0.21892 0.35569 0.08757 0.0
C262 C 0.20941 0.35608 0.11072 0.0
C263 C 0.21945 0.35862 0.13445 0.0
C264 C 0.18913 0.35355 0.11059 0.0
C265 C 0.17769 0.34792 0.1335 0.0
C266 C 0.15927 0.3464 0.13427 0.0
C267 C 0.15133 0.34895 0.11151 0.0
C268 C 0.16192 0.35408 0.08835 0.0
C269 C 0.18098 0.35694 0.08803 0.0
H270 H 0.69639 0.914 0.1112 0.0
H271 H 0.69619 0.86782 0.0682 0.0
H272 H 0.69012 0.86441 0.15199 0.0
H273 H 0.70341 0.84689 0.15102 0.0
H274 H 0.69828 0.79733 0.11184 0.0
H275 H 0.68592 0.83662 0.07014 0.0
C276 C 0.69579 0.90001 0.1109 0.0
C277 C 0.69407 0.89034 0.13416 0.0
C278 C 0.69591 0.89162 0.0872 0.0
C279 C 0.6952 0.87352 0.08677 0.0
C280 C 0.69379 0.86343 0.11017 0.0
C281 C 0.69232 0.87184 0.1337 0.0
C282 C 0.69461 0.84474 0.11042 0.0
C283 C 0.69977 0.8385 0.13338 0.0
C284 C 0.70074 0.82132 0.13403 0.0
C285 C 0.69768 0.81071 0.11132 0.0
C286 C 0.6927 0.81641 0.08827 0.0
C287 C 0.69062 0.83304 0.08794 0.0
H288 H 0.25716 0.91364 0.11112 0.0
H289 H 0.21179 0.86645 0.06852 0.0
H290 H 0.21366 0.86469 0.15257 0.0
H291 H 0.18309 0.84678 0.15154 0.0
H292 H 0.13902 0.79622 0.11361 0.0
H293 H 0.19013 0.83557 0.071 0.0
C294 C 0.24378 0.89962 0.11095 0.0
C295 C 0.23563 0.89035 0.13433 0.0
C296 C 0.23559 0.89073 0.08734 0.0
C297 C 0.21821 0.87257 0.08708 0.0
C298 C 0.20924 0.86292 0.11063 0.0
C299 C 0.21894 0.8718 0.13411 0.0
C300 C 0.18974 0.84415 0.11112 0.0
C301 C 0.17841 0.83811 0.13414 0.0
C302 C 0.16043 0.82073 0.13524 0.0
C303 C 0.15287 0.80976 0.1128 0.0
C304 C 0.16337 0.81532 0.08962 0.0
C305 C 0.18199 0.83213 0.08889 0.0
H306 H 0.35739 0.12574 0.88736 0.0
H307 H 0.37334 0.1784 0.92872 0.0
H308 H 0.35355 0.17137 0.84899 0.0
H309 H 0.37116 0.20247 0.84708 0.0
H310 H 0.37146 0.24975 0.88681 0.0
H311 H 0.36355 0.20031 0.93051 0.0
C312 C 0.35852 0.13995 0.88801 0.0
C313 C 0.35537 0.14773 0.8655 0.0
C314 C 0.36457 0.15077 0.91091 0.0
C315 C 0.36769 0.1699 0.91123 0.0
C316 C 0.36373 0.17788 0.88897 0.0
C317 C 0.35722 0.16626 0.86634 0.0
C318 C 0.36661 0.1982 0.88882 0.0
C319 C 0.36961 0.20843 0.86515 0.0
C320 C 0.37104 0.22678 0.86432 0.0
C321 C 0.37031 0.23552 0.88737 0.0
C322 C 0.36794 0.22615 0.91116 0.0
C323 C 0.366 0.20751 0.91196 0.0
H324 H 0.80545 0.12817 0.89002 0.0
H325 H 0.84524 0.17986 0.93102 0.0
H326 H 0.85526 0.17212 0.85027 0.0
H327 H 0.87281 0.20295 0.84878 0.0
H328 H 0.92285 0.24618 0.88885 0.0
H329 H 0.87656 0.20064 0.93257 0.0
C330 C 0.81892 0.1421 0.89031 0.0
C331 C 0.82953 0.14944 0.8675 0.0
C332 C 0.82477 0.15287 0.91323 0.0
C333 C 0.84153 0.17151 0.91331 0.0
C334 C 0.85319 0.17904 0.89071 0.0
C335 C 0.84683 0.16751 0.86792 0.0
C336 C 0.872 0.19846 0.89065 0.0
C337 C 0.88037 0.20822 0.86697 0.0
C338 C 0.89896 0.22487 0.86624 0.0
C339 C 0.90878 0.23286 0.88937 0.0
C340 C 0.90044 0.22452 0.91319 0.0
C341 C 0.88224 0.20722 0.9139 0.0
H342 H 0.80624 0.69063 0.89162 0.0
H343 H 0.84317 0.6753 0.93406 0.0
H344 H 0.85583 0.69433 0.85395 0.0
H345 H 0.86974 0.67737 0.85235 0.0
H346 H 0.91661 0.67685 0.89218 0.0
H347 H 0.87459 0.68392 0.93599 0.0
C348 C 0.81935 0.68951 0.8925 0.0
C349 C 0.83029 0.69243 0.87009 0.0
C350 C 0.82421 0.68377 0.91565 0.0
C351 C 0.84029 0.68071 0.91635 0.0
C352 C 0.85223 0.68443 0.89414 0.0
C353 C 0.84705 0.69071 0.87127 0.0
C354 C 0.86971 0.68151 0.89418 0.0
C355 C 0.87712 0.67879 0.87051 0.0
C356 C 0.89414 0.67752 0.86969 0.0
C357 C 0.90345 0.6779 0.89275 0.0
C358 C 0.89625 0.67984 0.91657 0.0
C359 C 0.8795 0.68178 0.91739 0.0
H360 H 0.92291 0.68553 0.44384 0.0
H361 H 0.8773 0.68618 0.39998 0.0
H362 H 0.87869 0.69065 0.48388 0.0
H363 H 0.84792 0.67687 0.48223 0.0
H364 H 0.80403 0.68345 0.44359 0.0
H365 H 0.85578 0.69592 0.40195 0.0
C366 C 0.9094 0.68593 0.44327 0.0
C367 C 0.90104 0.68715 0.4664 0.0
C368 C 0.90124 0.68625 0.41941 0.0
C369 C 0.88371 0.68677 0.41867 0.0
C370 C 0.87457 0.68757 0.44196 0.0
C371 C 0.88419 0.68875 0.46565 0.0
C372 C 0.85495 0.68658 0.442 0.0
C373 C 0.84336 0.68098 0.46478 0.0
C374 C 0.82533 0.68029 0.46558 0.0
C375 C 0.81794 0.68385 0.44302 0.0
C376 C 0.82873 0.68909 0.42005 0.0
C377 C 0.8474 0.69099 0.41965 0.0
H378 H 0.36916 0.24698 0.44439 0.0
H379 H 0.35357 0.19413 0.40374 0.0
H380 H 0.37151 0.20111 0.48434 0.0
H381 H 0.35448 0.17009 0.48619 0.0
H382 H 0.35441 0.12264 0.44732 0.0
H383 H 0.36281 0.17192 0.40287 0.0
C384 C 0.36782 0.23267 0.44409 0.0
C385 C 0.37038 0.22486 0.46698 0.0
C386 C 0.36216 0.22181 0.42121 0.0
C387 C 0.35887 0.20261 0.42129 0.0
C388 C 0.36226 0.19458 0.44397 0.0
C389 C 0.3683 0.20623 0.46663 0.0
C390 C 0.35935 0.17422 0.44445 0.0
C391 C 0.35614 0.16408 0.46825 0.0
C392 C 0.35467 0.14571 0.46938 0.0
C393 C 0.35556 0.13687 0.44653 0.0
C394 C 0.35816 0.14613 0.42263 0.0
C395 C 0.36016 0.1648 0.42151 0.0
H396 H 0.92015 0.2437 0.44704 0.0
H397 H 0.88106 0.19173 0.40597 0.0
H398 H 0.86967 0.19989 0.48594 0.0
H399 H 0.85295 0.16882 0.48766 0.0
H400 H 0.80311 0.12545 0.44727 0.0
H401 H 0.84938 0.17137 0.40391 0.0
C402 C 0.90668 0.22978 0.4466 0.0
C403 C 0.89569 0.22254 0.46915 0.0
C404 C 0.90124 0.21886 0.4238 0.0
C405 C 0.88448 0.20022 0.42354 0.0
C406 C 0.87248 0.19282 0.44587 0.0
C407 C 0.87841 0.20447 0.46853 0.0
C408 C 0.85378 0.17335 0.44582 0.0
C409 C 0.84542 0.16351 0.46945 0.0
C410 C 0.82688 0.14677 0.47007 0.0
C411 C 0.81713 0.13883 0.44687 0.0
C412 C 0.8255 0.14731 0.4231 0.0
C413 C 0.84365 0.16467 0.42251 0.0
H414 H 0.03167 0.45921 0.22366 0.0
H415 H 0.03282 0.50578 0.26691 0.0
H416 H 0.03672 0.50825 0.18289 0.0
H417 H 1.02353 0.52572 0.18434 0.0
H418 H 1.03004 0.57608 0.22284 0.0
H419 H 0.0423 0.5368 0.26472 0.0
C420 C 0.03217 0.47314 0.22402 0.0
C421 C 0.03325 0.48255 0.20076 0.0
C422 C 0.03268 0.48179 0.24775 0.0
C423 C 0.03327 0.49985 0.24827 0.0
C424 C 0.03396 0.50964 0.22486 0.0
C425 C 0.03492 0.50101 0.20124 0.0
C426 C 0.03308 0.52831 0.22464 0.0
C427 C 1.02759 0.53436 0.20178 0.0
C428 C 1.02691 0.55169 0.20091 0.0
C429 C 0.03044 0.56259 0.22344 0.0
C430 C 0.03559 0.55702 0.24645 0.0
C431 C 0.03744 0.54025 0.24696 0.0
H432 H 0.47189 0.46023 0.22643 0.0
H433 H 0.51196 0.5121 0.26687 0.0
H434 H 0.52108 0.50419 0.18581 0.0
H435 H 0.53878 0.53477 0.18388 0.0
H436 H 0.58874 0.57888 0.22295 0.0
H437 H 0.54288 0.53383 0.26778 0.0
C438 C 0.4853 0.47421 0.22649 0.0
C439 C 0.49562 0.48156 0.20348 0.0
C440 C 0.4914 0.48505 0.24934 0.0
C441 C 0.5081 0.50374 0.24917 0.0
C442 C 0.51947 0.51129 0.22633 0.0
C443 C 0.51289 0.49966 0.20364 0.0
C444 C 0.53818 0.53083 0.22587 0.0
C445 C 0.54639 0.54029 0.20198 0.0
C446 C 0.56488 0.55704 0.20087 0.0
C447 C 0.57477 0.56546 0.22379 0.0
C448 C 0.56656 0.55749 0.24781 0.0
C449 C 0.54846 0.54007 0.24894 0.0
H450 H 0.47389 0.02509 0.22236 0.0
H451 H 0.51159 1.01054 0.26422 0.0
H452 H 0.52247 0.02762 0.18326 0.0
H453 H 0.53743 1.01167 0.18211 0.0
H454 H 0.58462 1.01187 0.2222 0.0
H455 H 0.54272 1.01927 0.2656 0.0
C456 C 0.48697 0.02392 0.22295 0.0
C457 C 0.4974 0.0263 0.20019 0.0
C458 C 0.49231 1.01865 0.24611 0.0
C459 C 0.50836 1.01557 0.24643 0.0
C460 C 0.51985 1.01882 0.22387 0.0
C461 C 0.51412 0.02448 0.20092 0.0
C462 C 0.5375 1.01617 0.22386 0.0
C463 C 0.54488 1.01329 0.20026 0.0
C464 C 0.56196 1.0121 0.19955 0.0
C465 C 0.57141 1.01282 0.22265 0.0
C466 C 0.56427 1.01503 0.24637 0.0
C467 C 0.54748 1.01687 0.24705 0.0
H468 H 0.5894 0.02026 0.77704 0.0
H469 H 0.54391 0.02139 0.7335 0.0
H470 H 0.54539 0.02558 0.81745 0.0
H471 H 0.51452 1.01159 0.81563 0.0
H472 H 0.47092 1.01897 0.77756 0.0
H473 H 0.52278 0.03179 0.73587 0.0
C474 C 0.57596 0.02081 0.7766 0.0
C475 C 0.56766 0.022 0.7998 0.0
C476 C 0.56781 0.02125 0.75281 0.0
C477 C 0.55034 0.0219 0.75215 0.0
C478 C 0.54126 0.0227 0.7755 0.0
C479 C 0.55087 0.02372 0.79917 0.0
C480 C 0.5217 0.02182 0.77562 0.0
C481 C 0.51002 1.01594 0.79832 0.0
C482 C 0.49202 1.01532 0.79922 0.0
C483 C 0.48477 1.01926 0.77683 0.0
C484 C 0.49564 0.02481 0.75392 0.0
C485 C 0.51429 0.02661 0.75345 0.0
H486 H 0.03137 0.57935 0.78081 0.0
H487 H 1.02097 0.52903 0.73777 0.0
H488 H 0.03641 0.53463 0.81942 0.0
H489 H 1.02556 0.50448 0.81972 0.0
H490 H 0.03204 0.46198 0.77762 0.0
H491 H 1.0295 0.50718 0.73564 0.0
C492 C 0.03099 0.56548 0.78007 0.0
C493 C 0.03363 0.55754 0.80274 0.0
C494 C 1.02682 0.55538 0.75666 0.0
C495 C 1.02504 0.5368 0.75594 0.0
C496 C 1.02861 0.52867 0.77843 0.0
C497 C 0.03302 0.53957 0.80173 0.0
C498 C 1.02825 0.50935 0.7778 0.0
C499 C 1.02755 0.4995 0.80116 0.0
C500 C 1.02975 0.48301 0.80112 0.0
C501 C 0.03115 0.47521 0.77763 0.0
C502 C 0.03038 0.48354 0.75415 0.0
C503 C 1.02924 0.50071 0.75415 0.0
H504 H 0.58676 0.5788 0.77795 0.0
H505 H 0.5479 0.5267 0.73687 0.0
H506 H 0.536 0.53513 0.81647 0.0
H507 H 0.51935 0.50404 0.81835 0.0
H508 H 0.46955 0.46077 0.77786 0.0
H509 H 0.51613 0.50649 0.73457 0.0
C510 C 0.57329 0.56488 0.77742 0.0
C511 C 0.56213 0.55771 0.79984 0.0
C512 C 0.56801 0.55389 0.75468 0.0
C513 C 0.55122 0.53525 0.75436 0.0
C514 C 0.53906 0.52794 0.77657 0.0
C515 C 0.54484 0.53965 0.79916 0.0
C516 C 0.52034 0.50851 0.77649 0.0
C517 C 0.51186 0.49873 0.8001 0.0
C518 C 0.49328 0.48206 0.80068 0.0
C519 C 0.48358 0.47412 0.77744 0.0
C520 C 0.49207 0.48253 0.75366 0.0
C521 C 0.51028 0.49982 0.75315 0.0
H522 H 0.69577 0.79323 0.55373 0.0
H523 H 0.70773 0.84404 0.59693 0.0
H524 H 0.68955 0.83776 0.51641 0.0
H525 H 0.70286 0.86851 0.51581 0.0
H526 H 0.69678 0.91133 0.55788 0.0
H527 H 0.69759 0.86507 0.59968 0.0
C528 C 0.69615 0.80709 0.55472 0.0
C529 C 0.6928 0.81487 0.53239 0.0
C530 C 0.70112 0.8174 0.57803 0.0
C531 C 0.703 0.83602 0.57897 0.0
C532 C 0.69878 0.84397 0.55686 0.0
C533 C 0.69347 0.83286 0.53371 0.0
C534 C 0.69952 0.86343 0.55761 0.0
C535 C 0.70077 0.87353 0.5343 0.0
C536 C 0.69892 0.89023 0.53432 0.0
C537 C 0.69738 0.89794 0.55783 0.0
C538 C 0.69755 0.88926 0.58132 0.0
C539 C 0.69833 0.8719 0.58127 0.0
H540 H 0.13652 0.79327 0.55631 0.0
H541 H 0.17668 0.84383 0.59895 0.0
H542 H 0.18702 0.83725 0.51788 0.0
H543 H 0.20585 0.86769 0.51725 0.0
H544 H 0.25546 0.9098 0.55901 0.0
H545 H 0.20764 0.86477 0.60123 0.0
C546 C 0.15013 0.80706 0.55703 0.0
C547 C 0.16096 0.81468 0.53445 0.0
C548 C 0.15599 0.81738 0.5803 0.0
C549 C 0.17298 0.83585 0.58095 0.0
C550 C 0.18488 0.84363 0.55857 0.0
C551 C 0.17848 0.83253 0.53543 0.0
C552 C 0.20397 0.86281 0.55912 0.0
C553 C 0.21302 0.87264 0.53573 0.0
C554 C 0.23183 0.88898 0.53564 0.0
C555 C 0.24124 0.89667 0.55908 0.0
C556 C 0.23225 0.88834 0.58262 0.0
C557 C 0.21381 0.8713 0.58272 0.0
H558 H 0.14088 0.35753 0.55667 0.0
H559 H 0.17777 0.34224 0.59925 0.0
H560 H 0.19026 0.36085 0.51894 0.0
H561 H 0.20458 0.34435 0.51753 0.0
H562 H 0.25099 0.34323 0.55778 0.0
H563 H 0.20894 0.35045 0.60126 0.0
C564 C 0.15398 0.35638 0.55758 0.0
C565 C 0.16484 0.35915 0.53514 0.0
C566 C 0.15885 0.35073 0.58078 0.0
C567 C 0.17489 0.3476 0.58149 0.0
C568 C 0.18679 0.35119 0.55926 0.0
C569 C 0.18156 0.35735 0.53631 0.0
C570 C 0.20427 0.34824 0.5594 0.0
C571 C 0.2118 0.34562 0.53577 0.0
C572 C 0.22876 0.34422 0.5351 0.0
C573 C 0.23788 0.34439 0.55824 0.0
C574 C 0.23058 0.34627 0.582 0.0
C575 C 0.21391 0.34835 0.58269 0.0
H576 H 1.00212 0.39728 0.07909 0.0
H577 H 0.05837 0.49676 0.15937 0.0
H578 H 0.06125 0.44209 0.06212 0.0
H579 H 1.00636 0.44573 0.18647 0.0
H580 H 0.05795 0.4786 0.12059 0.0
H581 H 1.00195 0.41633 0.11611 0.0
C582 C 1.0151 0.41109 0.08319 0.0
C583 C 0.03175 0.41805 0.06751 0.0
C584 C 0.04661 0.47143 0.13501 0.0
C585 C 0.03156 0.44005 0.10972 0.0
C586 C 0.04677 0.48182 0.15697 0.0
C587 C 0.03244 0.47265 0.17611 0.0
C588 C 0.03189 0.45186 0.13214 0.0
C589 C 1.01778 0.45324 0.17223 0.0
C590 C 1.01498 0.42197 0.10432 0.0
C591 C 0.04813 0.43609 0.07376 0.0
N592 N 1.01788 0.44349 0.15072 0.0
N593 N 0.0476 0.4465 0.09432 0.0
H594 H 0.64816 0.61086 0.07654 0.0
H595 H 0.55017 0.56838 0.16052 0.0
H596 H 0.60408 0.62681 0.06306 0.0
H597 H 0.60124 0.56635 0.18491 0.0
H598 H 0.5678 0.58622 0.12139 0.0
H599 H 0.62944 0.59131 0.11363 0.0
C600 C 0.63458 0.61032 0.08141 0.0
C601 C 0.62774 0.62058 0.0667 0.0
C602 C 0.57509 0.58178 0.13528 0.0
C603 C 0.6061 0.598 0.10901 0.0
C604 C 0.56499 0.57149 0.15742 0.0
C605 C 0.57434 0.56601 0.17591 0.0
C606 C 0.59454 0.58637 0.13157 0.0
C607 C 0.5936 0.57049 0.17117 0.0
C608 C 0.62389 0.59913 0.10259 0.0
C609 C 0.60999 0.61926 0.07394 0.0
N610 N 0.60307 0.58041 0.1495 0.0
N611 N 0.59974 0.60811 0.09452 0.0
H612 H 0.42744 0.994 0.06277 0.0
H613 H 0.48529 0.05231 0.18819 0.0
H614 H 0.44056 0.05297 0.07731 0.0
H615 H 0.49044 1.00485 0.15625 0.0
H616 H 0.46719 0.05208 0.14946 0.0
H617 H 0.44807 0.99642 0.09945 0.0
C618 C 0.43453 1.00741 0.07378 0.0
C619 C 0.43223 0.0233 0.06696 0.0
C620 C 0.47251 0.0419 0.15079 0.0
C621 C 0.45592 0.02616 0.10894 0.0
C622 C 0.48285 0.04205 0.17282 0.0
C623 C 0.48939 0.02861 0.17532 0.0
C624 C 0.46836 0.02794 0.13143 0.0
C625 C 0.48581 1.01557 0.15493 0.0
C626 C 0.44644 1.00883 0.09458 0.0
C627 C 0.44193 0.04037 0.08185 0.0
N628 N 0.47532 1.01539 0.13398 0.0
N629 N 0.45327 0.04132 0.10223 0.0
H630 H 0.45497 0.04622 0.93777 0.0
H631 H 0.45335 0.99033 0.80971 0.0
H632 H 0.40775 0.98824 0.92129 0.0
H633 H 0.50668 0.03472 0.84454 0.0
H634 H 0.43543 0.99009 0.84862 0.0
H635 H 0.47311 0.04366 0.90118 0.0
C636 C 0.44835 0.03299 0.92636 0.0
C637 C 0.42978 1.01743 0.93257 0.0
C638 C 0.45109 0.99967 0.84787 0.0
C639 C 0.45053 1.01442 0.89068 0.0
C640 C 0.46129 0.99979 0.82575 0.0
C641 C 0.4815 1.01254 0.82401 0.0
C642 C 0.46112 1.0127 0.86811 0.0
C643 C 0.49114 0.02456 0.84524 0.0
C644 C 0.4588 0.03148 0.90562 0.0
C645 C 0.42203 1.00058 0.91719 0.0
N646 N 0.48082 0.02454 0.86627 0.0
N647 N 0.43238 0.99956 0.89683 0.0
H648 H 0.9998 0.41053 0.93801 0.0
H649 H 0.05785 0.47473 0.81528 0.0
H650 H 0.05995 0.42829 0.9217 0.0
H651 H 1.00385 0.46968 0.84174 0.0
H652 H 0.05809 0.45636 0.85316 0.0
H653 H 0.99994 0.43024 0.90139 0.0
C654 C 1.013 0.41845 0.92665 0.0
C655 C 1.02989 0.41771 0.93294 0.0
C656 C 0.04624 0.45936 0.85086 0.0
C657 C 0.03014 0.44036 0.8911 0.0
C658 C 0.04611 0.46984 0.82926 0.0
C659 C 0.03079 0.47366 0.82545 0.0
C660 C 0.03081 0.45241 0.86869 0.0
C661 C 1.01596 0.4671 0.84412 0.0
C662 C 1.01309 0.42981 0.90586 0.0
C663 C 0.04659 0.42841 0.91761 0.0
N664 N 1.01623 0.45661 0.86487 0.0
N665 N 0.04627 0.43923 0.89739 0.0
H666 H 0.63002 0.59702 0.93829 0.0
H667 H 0.57507 0.59626 0.80942 0.0
H668 H 0.61829 0.64339 0.92004 0.0
H669 H 0.56732 0.54375 0.84553 0.0
H670 H 0.59264 0.61473 0.84801 0.0
H671 H 0.60953 0.57832 0.90187 0.0
C672 C 0.62326 0.60334 0.92652 0.0
C673 C 0.62591 0.62183 0.93219 0.0
C674 C 0.58685 0.59913 0.84762 0.0
C675 C 0.60239 0.60044 0.89053 0.0
C676 C 0.57682 0.58861 0.82568 0.0
C677 C 0.56974 0.56848 0.82441 0.0
C678 C 0.59015 0.58949 0.86814 0.0
C679 C 0.57241 0.55923 0.84589 0.0
C680 C 0.61142 0.59257 0.90588 0.0
C681 C 0.61663 0.62919 0.91637 0.0
N682 N 0.58265 0.56985 0.86675 0.0
N683 N 0.60537 0.61852 0.89614 0.0
H684 H 0.06245 0.64299 0.92456 0.0
H685 H 1.01252 0.54238 0.84695 0.0
H686 H 1.004 0.59618 0.94018 0.0
H687 H 0.05882 0.59578 0.81464 0.0
H688 H 1.01263 0.56037 0.88561 0.0
H689 H 0.06425 0.62453 0.88773 0.0
C690 C 0.04997 0.62887 0.92021 0.0
C691 C 0.033 0.62116 0.93541 0.0
C692 C 1.02287 0.5681 0.87014 0.0
C693 C 0.03515 0.59985 0.89365 0.0
C694 C 1.02296 0.55782 0.84826 0.0
C695 C 0.03567 0.56764 0.82765 0.0
C696 C 0.03575 0.58829 0.87152 0.0
C697 C 0.04873 0.58771 0.83011 0.0
C698 C 0.05103 0.61835 0.89922 0.0
C699 C 1.01731 0.60277 0.92888 0.0
N700 N 0.04843 0.5974 0.85165 0.0
N701 N 1.0188 0.59268 0.90859 0.0
H702 H 0.45502 0.41146 0.93978 0.0
H703 H 0.45685 0.47291 0.81608 0.0
H704 H 0.41151 0.42796 0.92498 0.0
H705 H 0.50722 0.46978 0.841 0.0
H706 H 0.43937 0.45495 0.85482 0.0
H707 H 0.47354 0.43083 0.9023 0.0
C708 C 0.44929 0.41905 0.92859 0.0
C709 C 0.43164 0.41803 0.93554 0.0
C710 C 0.45428 0.45828 0.85198 0.0
C711 C 0.45282 0.44027 0.89268 0.0
C712 C 0.46425 0.4685 0.82987 0.0
C713 C 0.48347 0.47277 0.82538 0.0
C714 C 0.4635 0.45202 0.86966 0.0
C715 C 0.49244 0.46685 0.84387 0.0
C716 C 0.45995 0.43021 0.9073 0.0
C717 C 0.42503 0.4283 0.92039 0.0
N718 N 0.48231 0.45659 0.86514 0.0
N719 N 0.43558 0.43892 0.89966 0.0
H720 H 0.62293 0.99202 0.92197 0.0
H721 H 0.57836 0.04709 0.8411 0.0
H722 H 0.63626 0.05082 0.93846 0.0
H723 H 0.57789 0.99533 0.81441 0.0
H724 H 0.59618 0.04686 0.87998 0.0
H725 H 0.60338 0.9914 0.88493 0.0
C726 C 0.62181 1.00482 0.91777 0.0
C727 C 0.63134 0.02152 0.93331 0.0
C728 C 0.59209 0.03552 0.86563 0.0
C729 C 0.60877 0.02082 0.8911 0.0
C730 C 0.58182 0.03557 0.84361 0.0
C731 C 0.57678 0.02127 0.82454 0.0
C732 C 0.59714 0.02094 0.86864 0.0
C733 C 0.5817 1.00673 0.82858 0.0
C734 C 0.61063 1.00445 0.89663 0.0
C735 C 0.62929 0.03767 0.92694 0.0
N736 N 0.59162 1.00695 0.85014 0.0
N737 N 0.61818 0.03689 0.90639 0.0
H738 H 0.62044 0.98749 0.0755 0.0
H739 H 0.57053 0.03614 0.15778 0.0
H740 H 0.63521 0.0475 0.06633 0.0
H741 H 0.5742 0.98668 0.18536 0.0
H742 H 0.58944 0.03753 0.11941 0.0
H743 H 0.59928 0.9844 0.11197 0.0
C744 C 0.61929 1.00003 0.0812 0.0
C745 C 0.62969 1.01782 0.06792 0.0
C746 C 0.58597 0.02629 0.13378 0.0
C747 C 0.60524 1.01423 0.10923 0.0
C748 C 0.57502 0.02537 0.15548 0.0
C749 C 0.57087 1.0113 0.1747 0.0
C750 C 0.59256 1.01288 0.13115 0.0
C751 C 0.57722 0.99781 0.17099 0.0
C752 C 0.60721 0.99823 0.10198 0.0
C753 C 0.6276 0.03356 0.07613 0.0
N754 N 0.58778 0.99894 0.14964 0.0
N755 N 0.61552 0.03136 0.09615 0.0
H756 H 0.99779 0.61013 0.08118 0.0
H757 H 0.04642 0.55653 0.15556 0.0
H758 H 0.05549 0.62012 0.06411 0.0
H759 H 1.002 0.56547 0.19041 0.0
H760 H 0.04586 0.57448 0.11718 0.0
H761 H 0.99567 0.58914 0.11746 0.0
C762 C 1.01002 0.60796 0.08509 0.0
C763 C 1.02689 0.61699 0.06968 0.0
C764 C 0.03611 0.57234 0.13313 0.0
C765 C 1.02437 0.59272 0.11072 0.0
C766 C 0.03626 0.56192 0.15487 0.0
C767 C 1.02426 0.55956 0.17614 0.0
C768 C 1.0237 0.58025 0.13256 0.0
C769 C 1.01155 0.56708 0.17443 0.0
C770 C 1.00878 0.59597 0.10575 0.0
C771 C 0.04228 0.6136 0.0756 0.0
N772 N 1.01162 0.57713 0.15302 0.0
N773 N 0.0406 0.60166 0.09554 0.0
H774 H 0.42753 0.44243 0.06418 0.0
H775 H 0.48249 0.44301 0.19349 0.0
H776 H 0.43901 0.39603 0.08319 0.0
H777 H 0.48921 0.49544 0.15841 0.0
H778 H 0.46462 0.42461 0.15503 0.0
H779 H 0.44753 0.46104 0.10104 0.0
C780 C 0.43413 0.43608 0.0762 0.0
C781 C 0.43156 0.41761 0.07059 0.0
C782 C 0.4702 0.44018 0.15563 0.0
C783 C 0.45452 0.43889 0.11278 0.0
C784 C 0.48039 0.45066 0.17751 0.0
C785 C 0.48734 0.47076 0.17903 0.0
C786 C 0.46661 0.44981 0.13536 0.0
C787 C 0.48424 0.47999 0.15787 0.0
C788 C 0.44568 0.44679 0.09711 0.0
C789 C 0.44061 0.41021 0.08677 0.0
N790 N 0.47389 0.46941 0.13702 0.0
N791 N 0.45161 0.42083 0.10722 0.0
H792 H 0.66486 0.72935 0.41074 0.0
H793 H 0.71253 0.83035 0.48739 0.0
H794 H 0.72227 0.77771 0.39414 0.0
H795 H 0.66808 0.77639 0.52091 0.0
H796 H 0.71226 0.81256 0.44849 0.0
H797 H 0.66242 0.74756 0.44748 0.0
C798 C 0.67696 0.74376 0.41484 0.0
C799 C 0.69385 0.75198 0.39943 0.0
C800 C 0.70243 0.80465 0.46427 0.0
C801 C 0.69096 0.77297 0.44103 0.0
C802 C 0.70243 0.81482 0.4863 0.0
C803 C 0.69033 0.80479 0.50735 0.0
C804 C 0.69011 0.78436 0.46318 0.0
C805 C 0.6777 0.78461 0.50512 0.0
C806 C 0.67554 0.75413 0.43577 0.0
C807 C 0.70905 0.77073 0.40562 0.0
N808 N 0.67794 0.77503 0.48344 0.0
N809 N 0.7072 0.78063 0.42584 0.0
H810 H 0.27394 0.96092 0.39816 0.0
H811 H 0.26809 0.89705 0.52119 0.0
H812 H 0.3165 0.94345 0.41475 0.0
H813 H 0.2192 0.90238 0.49512 0.0
H814 H 0.2866 0.91531 0.48319 0.0
H815 H 0.25445 0.94133 0.4349 0.0
C816 C 0.27927 0.95308 0.4096 0.0
C817 C 0.29693 0.95387 0.40335 0.0
C818 C 0.27178 0.9124 0.48561 0.0
C819 C 0.27461 0.93136 0.44534 0.0
C820 C 0.26124 0.90199 0.50728 0.0
C821 C 0.24214 0.89828 0.51124 0.0
C822 C 0.26328 0.91938 0.46784 0.0
C823 C 0.23386 0.90488 0.49264 0.0
C824 C 0.26805 0.9418 0.43047 0.0
C825 C 0.303 0.94329 0.4188 0.0
N826 N 0.24456 0.9153 0.4718 0.0
N827 N 0.29189 0.93253 0.43909 0.0
H828 H 0.09599 0.32585 0.39718 0.0
H829 H 0.15219 0.38474 0.52288 0.0
H830 H 0.10751 0.38436 0.41123 0.0
H831 H 0.15916 0.33835 0.4909 0.0
H832 H 0.13436 0.38432 0.48375 0.0
H833 H 0.11693 0.32903 0.4338 0.0
C834 C 0.10281 0.33933 0.40806 0.0
C835 C 0.09994 0.35485 0.40115 0.0
C836 C 0.14005 0.37444 0.48516 0.0
C837 C 0.12399 0.35858 0.44309 0.0
C838 C 0.15023 0.3747 0.50741 0.0
C839 C 0.15717 0.36158 0.51005 0.0
C840 C 0.13645 0.36069 0.46569 0.0
C841 C 0.15421 0.34883 0.48952 0.0
C842 C 0.11491 0.34119 0.42883 0.0
C843 C 0.10932 0.37203 0.41587 0.0
N844 N 0.14384 0.34851 0.46836 0.0
N845 N 0.12083 0.3734 0.43626 0.0
H846 H 0.07346 0.31782 0.25632 0.0
H847 H 0.17425 0.36725 0.17859 0.0
H848 H 0.12031 0.37633 0.27096 0.0
H849 H 0.12084 0.32115 0.14609 0.0
H850 H 0.15613 0.36714 0.2171 0.0
H851 H 0.09189 0.31577 0.21951 0.0
C852 C 0.08758 0.33025 0.25175 0.0
C853 C 0.09531 0.34732 0.26668 0.0
C854 C 0.14842 0.35693 0.20163 0.0
C855 C 0.11658 0.34488 0.22497 0.0
C856 C 0.15877 0.35683 0.17982 0.0
C857 C 0.149 0.34418 0.15917 0.0
C858 C 0.12818 0.34415 0.20293 0.0
C859 C 0.12888 0.33118 0.16157 0.0
C860 C 0.09807 0.32905 0.23077 0.0
C861 C 0.1137 0.36295 0.25988 0.0
N862 N 0.1191 0.3315 0.18305 0.0
N863 N 0.12376 0.36131 0.23964 0.0
H864 H 0.6699 0.75004 0.27021 0.0
H865 H 0.72704 0.80944 0.14491 0.0
H866 H 0.72914 0.76419 0.25443 0.0
H867 H 0.67961 0.81401 0.17845 0.0
H868 H 0.72728 0.79113 0.18312 0.0
H869 H 0.67182 0.77097 0.23414 0.0
C870 C 0.68326 0.75741 0.25904 0.0
C871 C 0.69938 0.75532 0.26533 0.0
C872 C 0.717 0.79637 0.18227 0.0
C873 C 0.70166 0.77934 0.22408 0.0
C874 C 0.7169 0.80684 0.16056 0.0
C875 C 0.70333 0.81327 0.15866 0.0
C876 C 0.70315 0.79196 0.20195 0.0
C877 C 0.69042 0.80945 0.17933 0.0
C878 C 0.6844 0.7695 0.23861 0.0
C879 C 0.71637 0.76538 0.25028 0.0
N880 N 0.69047 0.79881 0.19999 0.0
N881 N 0.71703 0.77688 0.23027 0.0
H882 H 0.30484 0.92954 0.27409 0.0
H883 H 0.245 0.92705 0.14834 0.0
H884 H 0.28935 0.97345 0.25693 0.0
H885 H 0.24734 0.8768 0.17562 0.0
H886 H 0.26272 0.94493 0.18694 0.0
H887 H 0.28574 0.91084 0.23668 0.0
C888 C 0.29752 0.93532 0.26239 0.0
C889 C 0.29874 0.95314 0.26865 0.0
C890 C 0.25927 0.92996 0.18463 0.0
C891 C 0.27681 0.93173 0.22588 0.0
C892 C 0.24919 0.91977 0.16261 0.0
C893 C 0.24478 0.90047 0.15884 0.0
C894 C 0.26521 0.92087 0.20293 0.0
C895 C 0.25039 0.89164 0.17794 0.0
C896 C 0.28652 0.92455 0.24114 0.0
C897 C 0.28883 0.95981 0.25286 0.0
N898 N 0.2605 0.90198 0.1991 0.0
N899 N 0.27835 0.94913 0.23217 0.0
H900 H 0.72471 0.97499 0.25633 0.0
H901 H 0.66827 0.87609 0.1749 0.0
H902 H 0.66539 0.93047 0.2729 0.0
H903 H 0.72097 0.92696 0.14909 0.0
H904 H 0.6684 0.89409 0.21373 0.0
H905 H 0.72482 0.95607 0.2192 0.0
C906 C 0.71167 0.96127 0.25212 0.0
C907 C 0.69499 0.95436 0.26774 0.0
C908 C 0.67995 0.90126 0.19957 0.0
C909 C 0.6951 0.93247 0.22533 0.0
C910 C 0.67995 0.89096 0.17759 0.0
C911 C 0.69457 0.90013 0.1588 0.0
C912 C 0.6948 0.92074 0.20281 0.0
C913 C 0.70933 0.91945 0.16304 0.0
C914 C 0.71175 0.95045 0.23091 0.0
C915 C 0.67853 0.93643 0.26132 0.0
N916 N 0.70906 0.9291 0.18455 0.0
N917 N 0.67902 0.92606 0.24065 0.0
H918 H 0.07366 0.76165 0.25557 0.0
H919 H 0.17556 0.8161 0.18035 0.0
H920 H 0.12197 0.75254 0.27237 0.0
H921 H 0.12179 0.80679 0.1463 0.0
H922 H 0.1574 0.79814 0.21892 0.0
H923 H 0.09226 0.7828 0.21929 0.0
C924 C 0.08815 0.76406 0.25161 0.0
C925 C 0.09623 0.75521 0.26694 0.0
C926 C 0.14962 0.8002 0.2031 0.0
C927 C 0.11766 0.77966 0.22586 0.0
C928 C 0.15999 0.81063 0.18126 0.0
C929 C 0.15013 0.81288 0.16015 0.0
C930 C 0.12927 0.79217 0.20394 0.0
C931 C 0.12989 0.80526 0.16214 0.0
C932 C 0.09874 0.77613 0.23094 0.0
C933 C 0.11509 0.7589 0.26095 0.0
N934 N 0.1201 0.7952 0.18364 0.0
N935 N 0.1252 0.77092 0.24098 0.0
H936 H 0.31981 0.38583 0.26077 0.0
H937 H 0.22219 0.33504 0.17652 0.0
H938 H 0.2759 0.32526 0.26964 0.0
H939 H 0.275 0.38554 0.15022 0.0
H940 H 0.23961 0.33379 0.21518 0.0
H941 H 0.30172 0.38816 0.22382 0.0
C942 C 0.3064 0.373 0.25489 0.0
C943 C 0.29938 0.35529 0.26825 0.0
C944 C 0.24732 0.34521 0.20101 0.0
C945 C 0.27849 0.35799 0.2263 0.0
C946 C 0.23736 0.34605 0.17916 0.0
C947 C 0.24723 0.3604 0.16026 0.0
C948 C 0.26719 0.35899 0.20408 0.0
C949 C 0.26694 0.3742 0.16435 0.0
C950 C 0.2961 0.37436 0.23383 0.0
C951 C 0.28191 0.33915 0.25978 0.0
N952 N 0.27629 0.37317 0.18584 0.0
N953 N 0.27198 0.34092 0.23944 0.0
H954 H 0.2862 0.31903 0.41066 0.0
H955 H 0.23835 0.36912 0.4941 0.0
H956 H 0.30257 0.37952 0.40195 0.0
H957 H 0.24029 0.31842 0.52025 0.0
H958 H 0.25737 0.37061 0.45576 0.0
H959 H 0.26537 0.31639 0.44723 0.0
C960 C 0.28547 0.33178 0.41649 0.0
C961 C 0.29621 0.34956 0.40329 0.0
C962 C 0.2535 0.35909 0.46981 0.0
C963 C 0.27214 0.3465 0.4448 0.0
C964 C 0.2425 0.35812 0.49149 0.0
C965 C 0.2378 0.34364 0.51028 0.0
C966 C 0.2596 0.34533 0.4668 0.0
C967 C 0.24372 0.32986 0.50621 0.0
C968 C 0.27358 0.33025 0.43734 0.0
C969 C 0.29468 0.36558 0.41169 0.0
N970 N 0.25432 0.33103 0.4849 0.0
N971 N 0.28276 0.36364 0.43182 0.0
H972 H 0.66737 0.94548 0.41429 0.0
H973 H 0.72451 0.90232 0.4933 0.0
H974 H 0.72678 0.96084 0.3971 0.0
H975 H 0.67184 0.90002 0.5203 0.0
H976 H 0.72413 0.92067 0.45504 0.0
H977 H 0.66752 0.92605 0.45092 0.0
C978 C 0.68049 0.94484 0.41827 0.0
C979 C 0.69711 0.95488 0.40262 0.0
C980 C 0.71264 0.91608 0.46933 0.0
C981 C 0.69729 0.93243 0.44443 0.0
C982 C 0.71278 0.9055 0.49098 0.0
C983 C 0.69824 0.89977 0.50995 0.0
C984 C 0.69773 0.92071 0.46659 0.0
C985 C 0.68342 0.90435 0.5062 0.0
C986 C 0.68055 0.93372 0.43919 0.0
C987 C 0.71367 0.95345 0.40873 0.0
N988 N 0.68355 0.91454 0.48499 0.0
N989 N 0.71331 0.94236 0.42909 0.0
H990 H 0.10541 0.72885 0.41258 0.0
H991 H 0.15566 0.82965 0.48961 0.0
H992 H 0.09363 0.77542 0.39619 0.0
H993 H 0.14753 0.77626 0.52327 0.0
H994 H 0.13806 0.81149 0.45086 0.0
H995 H 0.12532 0.74739 0.44968 0.0
C996 C 0.10695 0.74293 0.41682 0.0
C997 C 0.09775 0.75056 0.40133 0.0
C998 C 0.14028 0.80379 0.46666 0.0
C999 C 0.12081 0.77195 0.44338 0.0
C1000 C 0.15049 0.81417 0.48859 0.0
C1001 C 0.15301 0.8044 0.50959 0.0
C1002 C 0.13277 0.78357 0.46562 0.0
C1003 C 0.14579 0.78428 0.50749 0.0
C1004 C 0.11832 0.75349 0.43797 0.0
C1005 C 0.1003 0.76891 0.40772 0.0
N1006 N 0.13599 0.7745 0.48589 0.0
N1007 N 0.1117 0.77903 0.42815 0.0
H1008 H 0.32794 0.06002 0.74704 0.0
H1009 H 0.37475 0.16251 0.82011 0.0
H1010 H 0.38471 0.10894 0.72913 0.0
H1011 H 0.33017 0.10913 0.8548 0.0
H1012 H 0.37434 0.14413 0.78187 0.0
H1013 H 0.32506 0.07874 0.78283 0.0
C1014 C 0.33981 0.07465 0.75067 0.0
C1015 C 0.35665 0.08288 0.73516 0.0
C1016 C 0.3645 0.13648 0.79774 0.0
C1017 C 0.35324 0.10443 0.77562 0.0
C1018 C 0.36455 0.14698 0.81941 0.0
C1019 C 0.35251 0.1373 0.84064 0.0
C1020 C 0.3522 0.11617 0.7972 0.0
C1021 C 0.33978 0.1171 0.83887 0.0
C1022 C 0.33813 0.08531 0.77103 0.0
C1023 C 0.37154 0.10193 0.74069 0.0
N1024 N 0.34 0.10717 0.81756 0.0
N1025 N 0.36944 0.11208 0.76037 0.0
H1026 H 0.98321 0.27902 0.74312 0.0
H1027 H 0.88483 0.23712 0.82615 0.0
H1028 H 0.93989 0.29596 0.72942 0.0
H1029 H 0.93527 0.23391 0.85051 0.0
H1030 H 0.90289 0.25533 0.78743 0.0
H1031 H 0.96415 0.25947 0.77999 0.0
C1032 C 0.96973 0.2787 0.74791 0.0
C1033 C 0.9632 0.28922 0.73318 0.0
C1034 C 0.90994 0.25055 0.80123 0.0
C1035 C 0.94114 0.26663 0.77526 0.0
C1036 C 0.8996 0.24005 0.82313 0.0
C1037 C 0.90865 0.23412 0.8415 0.0
C1038 C 0.92933 0.2549 0.79762 0.0
C1039 C 0.92786 0.23839 0.83687 0.0
C1040 C 0.95883 0.26751 0.76897 0.0
C1041 C 0.94557 0.28819 0.74033 0.0
N1042 N 0.93756 0.24851 0.81543 0.0
N1043 N 0.9351 0.27702 0.76079 0.0
H1044 H 0.76302 0.66004 0.73069 0.0
H1045 H 0.81734 0.71781 0.85795 0.0
H1046 H 0.77429 0.71841 0.74517 0.0
H1047 H 0.8251 0.67198 0.82566 0.0
H1048 H 0.79988 0.7176 0.81853 0.0
H1049 H 0.78336 0.66289 0.76789 0.0
C1050 C 0.76966 0.67341 0.74179 0.0
C1051 C 0.76691 0.689 0.73482 0.0
C1052 C 0.80565 0.70779 0.81996 0.0
C1053 C 0.79026 0.69235 0.77742 0.0
C1054 C 0.81561 0.70793 0.84238 0.0
C1055 C 0.82269 0.69492 0.84498 0.0
C1056 C 0.80241 0.69428 0.8003 0.0
C1057 C 0.82004 0.68237 0.82431 0.0
C1058 C 0.78141 0.67509 0.76288 0.0
C1059 C 0.77604 0.70604 0.74983 0.0
N1060 N 0.80989 0.68218 0.80298 0.0
N1061 N 0.78721 0.70723 0.77054 0.0
H1062 H 0.78855 0.71109 0.60469 0.0
H1063 H 0.7867 0.65527 0.47639 0.0
H1064 H 0.74191 0.65266 0.58901 0.0
H1065 H 0.84007 0.70013 0.51059 0.0
H1066 H 0.76894 0.65501 0.51549 0.0
H1067 H 0.80648 0.70884 0.56761 0.0
C1068 C 0.78201 0.69783 0.59335 0.0
C1069 C 0.76367 0.68205 0.59995 0.0
C1070 C 0.78457 0.66472 0.51455 0.0
C1071 C 0.78417 0.6794 0.55748 0.0
C1072 C 0.79469 0.66485 0.49231 0.0
C1073 C 0.81486 0.67771 0.49037 0.0
C1074 C 0.79466 0.67783 0.53468 0.0
C1075 C 0.82455 0.68988 0.51145 0.0
C1076 C 0.79234 0.69651 0.57232 0.0
C1077 C 0.75601 0.66517 0.58464 0.0
N1078 N 0.81432 0.68983 0.53261 0.0
N1079 N 0.76624 0.66433 0.56399 0.0
H1080 H 0.32776 0.06131 0.59249 0.0
H1081 H 0.37824 0.16083 0.51167 0.0
H1082 H 0.38746 0.10676 0.60413 0.0
H1083 H 0.32853 0.10822 0.48345 0.0
H1084 H 0.3789 0.14298 0.55018 0.0
H1085 H 0.32533 0.07984 0.55609 0.0
C1086 C 0.34037 0.07514 0.58734 0.0
C1087 C 0.35787 0.08244 0.60131 0.0
C1088 C 0.36775 0.1354 0.53564 0.0
C1089 C 0.35505 0.10385 0.56003 0.0
C1090 C 0.36725 0.14561 0.51386 0.0
C1091 C 0.35334 0.13594 0.49441 0.0
C1092 C 0.35411 0.11544 0.53809 0.0
C1093 C 0.33956 0.11615 0.49799 0.0
C1094 C 0.33896 0.0857 0.5666 0.0
C1095 C 0.37373 0.10048 0.59379 0.0
N1096 N 0.3403 0.10654 0.51939 0.0
N1097 N 0.37191 0.11061 0.57377 0.0
H1098 H 0.95419 0.31168 0.58641 0.0
H1099 H 0.90051 0.20846 0.51504 0.0
H1100 H 0.96382 0.26411 0.60576 0.0
H1101 H 0.90919 0.26123 0.47863 0.0
H1102 H 0.9184 0.22747 0.55307 0.0
H1103 H 0.93316 0.2923 0.55053 0.0
C1104 C 0.95194 0.2972 0.58307 0.0
C1105 C 0.96087 0.28954 0.59902 0.0
C1106 C 0.91622 0.23484 0.53685 0.0
C1107 C 0.93656 0.26724 0.55843 0.0
C1108 C 0.90583 0.22399 0.51531 0.0
C1109 C 0.90343 0.23333 0.49371 0.0
C1110 C 0.92407 0.25514 0.53686 0.0
C1111 C 0.91084 0.25353 0.49488 0.0
C1112 C 0.93993 0.28617 0.56264 0.0
C1113 C 0.95738 0.27068 0.59384 0.0
N1114 N 0.92089 0.26379 0.51609 0.0
N1115 N 0.94542 0.26013 0.57409 0.0
H1116 H 0.3391 0.26401 0.60345 0.0
H1117 H 0.39656 0.26315 0.47773 0.0
H1118 H 0.39726 0.31074 0.58619 0.0
H1119 H 0.34958 0.21097 0.51163 0.0
H1120 H 0.39662 0.2816 0.51585 0.0
H1121 H 0.34161 0.24527 0.56769 0.0
C1122 C 0.35236 0.27041 0.59203 0.0
C1123 C 0.36798 0.28902 0.59781 0.0
C1124 C 0.38649 0.26607 0.5151 0.0
C1125 C 0.37097 0.26755 0.55687 0.0
C1126 C 0.38648 0.25555 0.49341 0.0
C1127 C 0.37306 0.23552 0.4916 0.0
C1128 C 0.37273 0.25654 0.53484 0.0
C1129 C 0.36028 0.22635 0.51239 0.0
C1130 C 0.35384 0.25961 0.57175 0.0
C1131 C 0.38486 0.29646 0.58243 0.0
N1132 N 0.36025 0.23698 0.533 0.0
N1133 N 0.38587 0.28574 0.56256 0.0
H1134 H 0.7425 0.09196 0.59295 0.0
H1135 H 0.84118 0.13483 0.51034 0.0
H1136 H 0.78642 0.07594 0.60731 0.0
H1137 H 0.79034 0.13717 0.48558 0.0
H1138 H 0.82317 0.11655 0.54905 0.0
H1139 H 0.76148 0.1115 0.55603 0.0
C1140 C 0.7561 0.09248 0.58829 0.0
C1141 C 0.76282 0.08221 0.60322 0.0
C1142 C 0.81602 0.12114 0.53516 0.0
C1143 C 0.78478 0.10481 0.56108 0.0
C1144 C 0.82633 0.13168 0.51325 0.0
C1145 C 0.81717 0.13739 0.49477 0.0
C1146 C 0.79654 0.11654 0.53867 0.0
C1147 C 0.79786 0.13286 0.49929 0.0
C1148 C 0.76695 0.10367 0.5672 0.0
C1149 C 0.7806 0.08351 0.59625 0.0
N1150 N 0.7882 0.12271 0.52074 0.0
N1151 N 0.79102 0.09467 0.57574 0.0
H1152 H 0.95459 0.65708 0.59065 0.0
H1153 H 0.91125 0.71223 0.50763 0.0
H1154 H 0.96778 0.71589 0.60676 0.0
H1155 H 0.91158 0.66078 0.48133 0.0
H1156 H 0.92857 0.712 0.54701 0.0
H1157 H 0.93572 0.65659 0.55289 0.0
C1158 C 0.95357 0.66991 0.58623 0.0
C1159 C 0.96286 0.68657 0.60186 0.0
C1160 C 0.92479 0.70074 0.53263 0.0
C1161 C 0.9411 0.68603 0.55881 0.0
C1162 C 0.9148 0.70079 0.51031 0.0
C1163 C 0.91011 0.68656 0.49124 0.0
C1164 C 0.92988 0.68622 0.53593 0.0
C1165 C 0.91514 0.67213 0.4955 0.0
C1166 C 0.94279 0.66962 0.56467 0.0
C1167 C 0.96097 0.70276 0.59518 0.0
N1168 N 0.92475 0.67232 0.51737 0.0
N1169 N 0.95025 0.70206 0.57422 0.0
H1170 H 0.95199 0.65325 0.74469 0.0
H1171 H 0.90291 0.70202 0.82839 0.0
H1172 H 0.96688 0.7133 0.73567 0.0
H1173 H 0.90625 0.65214 0.85487 0.0
H1174 H 0.92173 0.70362 0.78981 0.0
H1175 H 0.93116 0.65024 0.78146 0.0
C1176 C 0.95093 0.66582 0.75049 0.0
C1177 C 0.96126 0.68359 0.73715 0.0
C1178 C 0.91822 0.69225 0.80399 0.0
C1179 C 0.93719 0.68011 0.77887 0.0
C1180 C 0.90732 0.69121 0.82581 0.0
C1181 C 0.90308 0.67695 0.84476 0.0
C1182 C 0.92467 0.67876 0.80099 0.0
C1183 C 0.90934 0.66342 0.84071 0.0
C1184 C 0.93904 0.66408 0.77145 0.0
C1185 C 0.95931 0.69938 0.74551 0.0
N1186 N 0.91983 0.66465 0.81926 0.0
N1187 N 0.9474 0.69724 0.76573 0.0
H1188 H 0.39866 0.31089 0.74057 0.0
H1189 H 0.34739 0.21178 0.82209 0.0
H1190 H 0.33865 0.26604 0.72935 0.0
H1191 H 0.39708 0.26435 0.85043 0.0
H1192 H 0.34686 0.22964 0.78352 0.0
H1193 H 0.40079 0.29241 0.77726 0.0
C1194 C 0.38592 0.2972 0.74586 0.0
C1195 C 0.36842 0.29005 0.73194 0.0
C1196 C 0.35796 0.23722 0.79811 0.0
C1197 C 0.3709 0.26871 0.77355 0.0
C1198 C 0.35839 0.227 0.81993 0.0
C1199 C 0.37228 0.23665 0.83941 0.0
C1200 C 0.37167 0.25715 0.79564 0.0
C1201 C 0.38607 0.25643 0.83587 0.0
C1202 C 0.38716 0.28667 0.76678 0.0
C1203 C 0.35239 0.2722 0.73965 0.0
N1204 N 0.38542 0.26605 0.81441 0.0
N1205 N 0.35405 0.26208 0.75983 0.0
H1206 H 0.77126 0.06028 0.75026 0.0
H1207 H 0.82372 0.16338 0.82205 0.0
H1208 H 0.76068 0.10722 0.73094 0.0
H1209 H 0.8163 0.11086 0.85772 0.0
H1210 H 0.80558 0.1443 0.78415 0.0
H1211 H 0.79201 0.07977 0.78623 0.0
C1212 C 0.77324 0.07464 0.75363 0.0
C1213 C 0.76413 0.08209 0.73764 0.0
C1214 C 0.80808 0.13699 0.80019 0.0
C1215 C 0.78814 0.10456 0.77839 0.0
C1216 C 0.8186 0.1479 0.82164 0.0
C1217 C 0.82146 0.13865 0.84299 0.0
C1218 C 0.80057 0.11675 0.79999 0.0
C1219 C 0.8143 0.1185 0.84167 0.0
C1220 C 0.78509 0.08575 0.77413 0.0
C1221 C 0.76727 0.10082 0.74289 0.0
N1222 N 0.80415 0.1082 0.82054 0.0
N1223 N 0.7791 0.11146 0.76271 0.0
H1224 H 0.06706 0.35179 0.00952 0.0
H1225 H 0.17479 0.38805 0.06124 0.0
H1226 H 0.11369 0.4116 0.00601 0.0
H1227 H 0.12777 0.32859 0.06512 0.0
H1228 H 0.15468 0.39589 0.03298 0.0
H1229 H 0.0907 0.34206 0.02242 0.0
C1230 C 0.0823 0.36285 0.01115 0.0
C1231 C 0.08833 0.38257 0.00703 0.0
C1232 C 0.14892 0.38101 0.03949 0.0
C1233 C 0.11553 0.37157 0.02198 0.0
C1234 C 0.1605 0.37652 0.05535 0.0
C1235 C 0.15285 0.35769 0.06551 0.0
C1236 C 0.12957 0.36656 0.03397 0.0
C1237 C 0.13413 0.34331 0.05768 0.0
C1238 C 0.09582 0.3573 0.01852 0.0
C1239 C 0.10832 0.39625 0.00926 0.0
N1240 N 0.12303 0.34809 0.04272 0.0
N1241 N 0.12115 0.39053 0.01689 0.0
H1242 H 0.69385 0.72359 0.00949 0.0
H1243 H 0.65824 0.79513 0.06233 0.0
H1244 H 0.63384 0.71015 0.00831 0.0
H1245 H 0.71792 0.8079 0.06403 0.0
H1246 H 0.64994 0.76698 0.03442 0.0
H1247 H 0.70376 0.75702 0.02199 0.0
C1248 C 0.68278 0.72772 0.01157 0.0
C1249 C 0.66297 0.71396 0.0082 0.0
C1250 C 0.66496 0.77621 0.04035 0.0
C1251 C 0.67418 0.75222 0.02266 0.0
C1252 C 0.66971 0.7924 0.056 0.0
C1253 C 0.68875 0.80373 0.06543 0.0
C1254 C 0.67937 0.77136 0.03434 0.0
C1255 C 0.70305 0.79943 0.0571 0.0
C1256 C 0.68844 0.74683 0.0187 0.0
C1257 C 0.64927 0.7202 0.01098 0.0
N1258 N 0.69802 0.78343 0.04238 0.0
N1259 N 0.6551 0.73878 0.01835 0.0
H1260 H 0.34048 0.93881 0.00396 0.0
H1261 H 0.24365 0.92597 0.06809 0.0
H1262 H 0.32879 0.98602 0.01459 0.0
H1263 H 0.25435 0.87849 0.05488 0.0
H1264 H 0.27147 0.94684 0.04037 0.0
H1265 H 0.30665 0.91565 0.01524 0.0
C1266 C 0.33075 0.94432 0.00843 0.0
C1267 C 0.33759 0.96444 0.00869 0.0
C1268 C 0.26746 0.93172 0.04287 0.0
C1269 C 0.29871 0.9379 0.02175 0.0
C1270 C 0.25141 0.91975 0.05842 0.0
C1271 C 0.24672 0.90051 0.06365 0.0
C1272 C 0.2791 0.92447 0.03287 0.0
C1273 C 0.25742 0.89321 0.0511 0.0
C1274 C 0.31138 0.93105 0.0148 0.0
C1275 C 0.32422 0.97066 0.01436 0.0
N1276 N 0.27337 0.90531 0.03671 0.0
N1277 N 0.30551 0.95747 0.02099 0.0
H1278 H 0.36456 0.05653 -0.01152 0.0
H1279 H 0.39958 0.16364 0.93535 0.0
H1280 H 0.42469 0.10274 -0.01248 0.0
H1281 H 0.33979 0.11704 0.93563 0.0
H1282 H 0.40836 0.14365 0.96235 0.0
H1283 H 0.3546 0.08012 0.97628 0.0
C1284 C 0.37566 0.07167 -0.01405 0.0
C1285 C 0.3955 0.0776 -0.01131 0.0
C1286 C 0.39323 0.13796 0.95705 0.0
C1287 C 0.38422 0.10474 0.97461 0.0
C1288 C 0.38821 0.14948 0.94192 0.0
C1289 C 0.36897 0.14191 0.93328 0.0
C1290 C 0.37889 0.11875 0.96336 0.0
C1291 C 0.3548 0.12334 0.94191 0.0
C1292 C 0.36997 0.08516 0.97902 0.0
C1293 C 0.40923 0.09746 0.98536 0.0
N1294 N 0.36008 0.11229 0.95613 0.0
N1295 N 0.40336 0.11025 0.97822 0.0
H1296 H 0.9499 0.32691 0.00171 0.0
H1297 H 0.93638 0.23263 0.92977 0.0
H1298 H 0.99724 0.31633 0.98507 0.0
H1299 H 0.88885 0.2423 0.94826 0.0
H1300 H 0.95775 0.25963 0.9582 0.0
H1301 H 0.92665 0.29332 -0.01019 0.0
C1302 C 0.95543 0.31746 -0.00416 0.0
C1303 C 0.97559 0.32457 -0.00599 0.0
C1304 C 0.94253 0.25556 0.95667 0.0
C1305 C 0.94895 0.28598 0.98019 0.0
C1306 C 0.93029 0.24 0.94068 0.0
C1307 C 0.91087 0.23529 0.93676 0.0
C1308 C 0.93537 0.26671 0.96844 0.0
C1309 C 0.90371 0.24543 0.95096 0.0
C1310 C 0.94211 0.29823 -0.01091 0.0
C1311 C 0.98185 0.31155 -0.01347 0.0
N1312 N 0.91607 0.26094 0.96578 0.0
N1313 N 0.96859 0.29299 0.97956 0.0
H1314 H 0.71414 0.62462 -0.00879 0.0
H1315 H 0.81732 0.70951 0.94144 0.0
H1316 H 0.73055 0.68537 -0.0115 0.0
H1317 H 0.79987 0.64865 0.93838 0.0
H1318 H 0.78844 0.70145 0.96749 0.0
H1319 H 0.74756 0.63356 0.97981 0.0
C1320 C 0.72481 0.63988 -0.01152 0.0
C1321 C 0.71944 0.65425 -0.00949 0.0
C1322 C 0.7911 0.68985 0.9617 0.0
C1323 C 0.75783 0.66458 0.97741 0.0
C1324 C 0.8077 0.69449 0.94711 0.0
C1325 C 0.81095 0.67971 0.93791 0.0
C1326 C 0.77746 0.67023 0.96682 0.0
C1327 C 0.79794 0.66045 0.94535 0.0
C1328 C 0.74393 0.64496 0.98199 0.0
C1329 C 0.73396 0.67377 -0.01308 0.0
N1330 N 0.78156 0.65621 0.95902 0.0
N1331 N 0.75242 0.67833 0.98032 0.0
H1332 H 0.99561 0.68696 -0.01169 0.0
H1333 H 0.88455 0.65035 0.9515 0.0
H1334 H 0.94836 0.62798 -0.00145 0.0
H1335 H 0.93241 0.70723 0.93261 0.0
H1336 H 0.9065 0.64461 0.97895 0.0
H1337 H 0.97177 0.69692 0.97709 0.0
C1338 C 0.98022 0.67615 -0.01149 0.0
C1339 C 0.97401 0.65655 -0.006 0.0
C1340 C 0.91211 0.65858 0.96942 0.0
C1341 C 0.94662 0.66784 0.9812 0.0
C1342 C 0.89949 0.66195 0.9541 0.0
C1343 C 0.90672 0.67931 0.93999 0.0
C1344 C 0.93209 0.67264 0.97036 0.0
C1345 C 0.92631 0.69371 0.94341 0.0
C1346 C 0.96661 0.68184 0.98211 0.0
C1347 C 0.95386 0.64321 -0.00588 0.0
N1348 N 0.9384 0.68995 0.9579 0.0
N1349 N 0.94093 0.64905 -0.01244 0.0
H1350 H 0.36232 0.31762 -0.0128 0.0
H1351 H 0.39567 0.24112 0.94889 0.0
H1352 H 0.41974 0.32595 0.00154 0.0
H1353 H 0.34142 0.2367 0.92516 0.0
H1354 H 0.40122 0.26766 0.97837 0.0
H1355 H 0.35136 0.28406 0.97398 0.0
C1356 C 0.37255 0.31232 -0.01207 0.0
C1357 C 0.39207 0.32473 -0.00492 0.0
C1358 C 0.38783 0.26054 0.96725 0.0
C1359 C 0.37964 0.28633 0.97993 0.0
C1360 C 0.38457 0.24524 0.95071 0.0
C1361 C 0.36809 0.23681 0.93469 0.0
C1362 C 0.37454 0.26745 0.96755 0.0
C1363 C 0.3543 0.24288 0.93732 0.0
C1364 C 0.36629 0.29315 0.98037 0.0
C1365 C 0.40463 0.317 -0.00418 0.0
N1366 N 0.35796 0.25804 0.9531 0.0
N1367 N 0.39827 0.2984 -0.01195 0.0
H1368 H 0.73303 0.05867 -0.00661 0.0
H1369 H 0.80307 0.16567 0.93887 0.0
H1370 H 0.7187 0.10455 -0.00524 0.0
H1371 H 0.81695 0.11961 0.93819 0.0
H1372 H 0.77514 0.14574 0.96726 0.0
H1373 H 0.76633 0.08254 0.98059 0.0
C1374 C 0.73694 0.0738 -0.00868 0.0
C1375 C 0.72295 0.07954 -0.00519 0.0
C1376 C 0.78458 0.14017 0.96146 0.0
C1377 C 0.76109 0.107 0.97993 0.0
C1378 C 0.80064 0.15166 0.94553 0.0
C1379 C 0.81224 0.14421 0.93627 0.0
C1380 C 0.7801 0.1211 0.9679 0.0
C1381 C 0.8083 0.12582 0.94499 0.0
C1382 C 0.75598 0.08746 0.98401 0.0
C1383 C 0.72893 0.0994 -0.00798 0.0
N1384 N 0.79241 0.11478 0.95998 0.0
N1385 N 0.74746 0.11235 0.98442 0.0
H1386 H 0.64302 0.94073 -0.00266 0.0
H1387 H 0.72377 0.92743 0.07042 0.0
H1388 H 0.70087 0.98806 0.01425 0.0
H1389 H 0.66656 0.87995 0.05195 0.0
H1390 H 0.71819 0.94868 0.04156 0.0
H1391 H 0.65346 0.91756 0.00946 0.0
C1392 C 0.65801 0.94627 0.00329 0.0
C1393 C 0.67101 0.96641 0.00516 0.0
C1394 C 0.70702 0.93349 0.04319 0.0
C1395 C 0.68305 0.93986 0.01926 0.0
C1396 C 0.71032 0.92132 0.05943 0.0
C1397 C 0.6956 0.90195 0.06347 0.0
C1398 C 0.68873 0.92631 0.03128 0.0
C1399 C 0.67831 0.89477 0.04916 0.0
C1400 C 0.66398 0.933 0.01018 0.0
C1401 C 0.6903 0.97269 0.01274 0.0
N1402 N 0.67518 0.90706 0.03409 0.0
N1403 N 0.69565 0.95947 0.01987 0.0
H1404 H 0.06779 0.72208 0.01361 0.0
H1405 H 0.17563 0.79264 0.06558 0.0
H1406 H 0.11316 0.70695 0.0145 0.0
H1407 H 0.13012 0.80737 0.0645 0.0
H1408 H 0.15509 0.76388 0.03896 0.0
H1409 H 0.09203 0.75553 0.02514 0.0
C1410 C 0.08287 0.72582 0.01599 0.0
C1411 C 0.08838 0.7116 0.01343 0.0
C1412 C 0.14977 0.77367 0.04396 0.0
C1413 C 0.11626 0.74991 0.02673 0.0
C1414 C 0.16162 0.7902 0.05884 0.0
C1415 C 0.15451 0.80232 0.0671 0.0
C1416 C 0.13068 0.76923 0.03758 0.0
C1417 C 0.13609 0.79835 0.05839 0.0
C1418 C 0.09674 0.74495 0.02254 0.0
C1419 C 0.10819 0.71737 0.01654 0.0
N1420 N 0.12469 0.782 0.04445 0.0
N1421 N 0.12135 0.73599 0.02331 0.0
H1422 H 0.32977 0.35065 0.01643 0.0
H1423 H 0.25501 0.38674 0.05316 0.0
H1424 H 0.3409 0.40926 0.00456 0.0
H1425 H 0.24659 0.33021 0.07273 0.0
H1426 H 0.28254 0.39248 0.02539 0.0
H1427 H 0.29601 0.34056 0.028 0.0
C1428 C 0.32507 0.36135 0.01593 0.0
C1429 C 0.33829 0.3809 0.00989 0.0
C1430 C 0.27434 0.37858 0.03516 0.0
C1431 C 0.29964 0.36946 0.02315 0.0
C1432 C 0.25845 0.37522 0.05068 0.0
C1433 C 0.24854 0.35796 0.06507 0.0
C1434 C 0.28039 0.36463 0.03429 0.0
C1435 C 0.25384 0.34365 0.06175 0.0
C1436 C 0.30578 0.35558 0.02254 0.0
C1437 C 0.33131 0.39409 0.0094 0.0
N1438 N 0.2696 0.34742 0.04705 0.0
N1439 N 0.31256 0.38818 0.01622 0.0
H1440 H 0.78071 0.75006 0.34259 0.0
H1441 H 0.79648 0.66386 0.39317 0.0
H1442 H 0.7357 0.6895 0.34374 0.0
H1443 H 0.84048 0.72449 0.39763 0.0
H1444 H 0.7765 0.6725 0.3662 0.0
H1445 H 0.80466 0.74059 0.3547 0.0
C1446 C 0.77587 0.73473 0.34512 0.0
C1447 C 0.75608 0.72056 0.34247 0.0
C1448 C 0.79072 0.68391 0.37249 0.0
C1449 C 0.78352 0.70962 0.35638 0.0
C1450 C 0.8022 0.67895 0.38762 0.0
C1451 C 0.82014 0.6935 0.39744 0.0
C1452 C 0.79709 0.70363 0.3675 0.0
C1453 C 0.8268 0.71286 0.39016 0.0
C1454 C 0.7896 0.72934 0.35202 0.0
C1455 C 0.75074 0.70094 0.34581 0.0
N1456 N 0.81512 0.71742 0.37597 0.0
N1457 N 0.76434 0.69608 0.35284 0.0
H1458 H 0.36618 0.05471 0.35059 0.0
H1459 H 0.33022 0.12979 0.38534 0.0
H1460 H 0.30828 0.04474 0.33518 0.0
H1461 H 0.38545 0.13655 0.40901 0.0
H1462 H 0.32522 0.10287 0.35697 0.0
H1463 H 0.37634 0.0883 0.36278 0.0
C1464 C 0.35567 0.05965 0.34942 0.0
C1465 C 0.33627 0.04678 0.34224 0.0
C1466 C 0.33869 0.11058 0.3678 0.0
C1467 C 0.34778 0.08522 0.35622 0.0
C1468 C 0.34164 0.12611 0.38368 0.0
C1469 C 0.35828 0.13536 0.39937 0.0
C1470 C 0.35243 0.10423 0.36785 0.0
C1471 C 0.37248 0.12979 0.39704 0.0
C1472 C 0.36148 0.07884 0.35639 0.0
C1473 C 0.32333 0.05406 0.34093 0.0
N1474 N 0.3691 0.11439 0.38194 0.0
N1475 N 0.32925 0.07269 0.34813 0.0
H1476 H 1.01062 0.26744 0.34697 0.0
H1477 H 0.90783 0.25065 0.3961 0.0
H1478 H 0.9943 0.31189 0.34703 0.0
H1479 H 0.92542 0.20743 0.40228 0.0
H1480 H 0.9365 0.27071 0.36928 0.0
H1481 H 0.97729 0.24333 0.35927 0.0
C1482 C 0.99999 0.27212 0.34932 0.0
C1483 C 1.00537 0.29181 0.34628 0.0
C1484 C 0.93391 0.25664 0.37592 0.0
C1485 C 0.96708 0.26418 0.36037 0.0
C1486 C 0.91741 0.2451 0.39094 0.0
C1487 C 0.91427 0.22736 0.4012 0.0
C1488 C 0.94753 0.25053 0.37145 0.0
C1489 C 0.92726 0.22093 0.39445 0.0
C1490 C 0.98093 0.25831 0.35632 0.0
C1491 C 0.99089 0.29694 0.34939 0.0
N1492 N 0.94353 0.23267 0.38033 0.0
N1493 N 0.97248 0.28326 0.3565 0.0
H1494 H 0.08916 0.43265 0.32937 0.0
H1495 H 1.00533 0.44649 0.26667 0.0
H1496 H 1.02997 0.38576 0.31915 0.0
H1497 H 0.0637 0.49367 0.28012 0.0
H1498 H 1.01217 0.42531 0.29391 0.0
H1499 H 0.07869 0.45601 0.31856 0.0
C1500 C 0.0739 0.42725 0.32508 0.0
C1501 C 0.06047 0.40716 0.3248 0.0
C1502 C 1.02335 0.44043 0.29158 0.0
C1503 C 0.04836 0.43394 0.31229 0.0
C1504 C 1.01934 0.45258 0.27632 0.0
C1505 C 0.03397 0.47183 0.27129 0.0
C1506 C 0.04225 0.44752 0.30149 0.0
C1507 C 0.052 0.47896 0.28376 0.0
C1508 C 0.06791 0.44064 0.31898 0.0
C1509 C 0.04086 0.40108 0.31937 0.0
N1510 N 0.05578 0.46669 0.29786 0.0
N1511 N 0.03545 0.4144 0.313 0.0
H1512 H 0.61591 0.6628 0.32958 0.0
H1513 H 0.60251 0.56614 0.26505 0.0
H1514 H 0.6633 0.65159 0.31684 0.0
H1515 H 0.55488 0.57616 0.28122 0.0
H1516 H 0.62392 0.59419 0.29196 0.0
H1517 H 0.59271 0.6289 0.31906 0.0
C1518 C 0.62145 0.65316 0.32479 0.0
C1519 C 0.64162 0.66015 0.32372 0.0
C1520 C 0.60867 0.58999 0.29028 0.0
C1521 C 0.61504 0.62119 0.31154 0.0
C1522 C 0.5964 0.57381 0.2752 0.0
C1523 C 0.57693 0.56886 0.27103 0.0
C1524 C 0.60148 0.60148 0.30089 0.0
C1525 C 0.56977 0.57944 0.28417 0.0
C1526 C 0.60816 0.63375 0.31887 0.0
C1527 C 0.6479 0.6469 0.31768 0.0
N1528 N 0.58214 0.59552 0.29809 0.0
N1529 N 0.63467 0.62813 0.31149 0.0
H1530 H 0.39982 0.02041 0.32609 0.0
H1531 H 0.47177 0.98496 0.27402 0.0
H1532 H 0.38744 0.96091 0.33055 0.0
H1533 H 0.48323 0.04403 0.26874 0.0
H1534 H 0.44407 0.9771 0.30275 0.0
H1535 H 0.43314 0.03044 0.3126 0.0
C1536 C 0.40417 1.00948 0.32455 0.0
C1537 C 0.39071 0.98975 0.3291 0.0
C1538 C 0.45292 0.99191 0.2958 0.0
C1539 C 0.42886 1.0011 0.31346 0.0
C1540 C 0.46884 0.99642 0.27966 0.0
C1541 C 0.47966 1.01512 0.26897 0.0
C1542 C 0.44781 1.00621 0.30109 0.0
C1543 C 0.47513 0.0294 0.27654 0.0
C1544 C 0.42322 1.01521 0.31684 0.0
C1545 C 0.39724 0.97626 0.32698 0.0
N1546 N 0.45939 0.02459 0.2918 0.0
N1547 N 0.41575 0.98214 0.319 0.0
H1548 H 0.61428 0.96348 0.33732 0.0
H1549 H 0.60023 0.04297 0.26218 0.0
H1550 H 0.66142 0.02125 0.31961 0.0
H1551 H 0.55292 0.98601 0.28199 0.0
H1552 H 0.62175 0.03783 0.29113 0.0
H1553 H 0.59091 0.97355 0.32464 0.0
C1554 C 0.61973 0.97838 0.33106 0.0
C1555 C 0.63987 0.99146 0.32915 0.0
C1556 C 0.60654 0.02663 0.28978 0.0
C1557 C 0.6131 1.00308 0.31441 0.0
C1558 C 0.59423 0.02969 0.2735 0.0
C1559 C 0.57481 1.01493 0.26992 0.0
C1560 C 0.59946 1.00852 0.30215 0.0
C1561 C 0.56777 0.9978 0.2845 0.0
C1562 C 0.60634 0.98413 0.32386 0.0
C1563 C 0.64604 1.01062 0.32117 0.0
N1564 N 0.58018 0.99489 0.29963 0.0
N1565 N 0.63272 1.01576 0.31374 0.0
H1566 H 0.09498 0.66641 0.3225 0.0
H1567 H 1.00995 0.56318 0.27374 0.0
H1568 H 0.03399 0.64956 0.3213 0.0
H1569 H 0.07102 0.58142 0.26824 0.0
H1570 H 1.01812 0.59181 0.30025 0.0
H1571 H 0.08617 0.63315 0.3108 0.0
C1572 C 0.0797 0.65568 0.32002 0.0
C1573 C 0.06521 0.66088 0.32256 0.0
C1574 C 1.02974 0.58936 0.29384 0.0
C1575 C 0.05504 0.62267 0.30916 0.0
C1576 C 1.02505 0.5729 0.27901 0.0
C1577 C 0.03985 0.56996 0.26903 0.0
C1578 C 0.04942 0.60316 0.29839 0.0
C1579 C 0.05921 0.58311 0.27588 0.0
C1580 C 0.07469 0.63666 0.31337 0.0
C1581 C 0.04567 0.64628 0.31931 0.0
N1582 N 0.06349 0.59935 0.2898 0.0
N1583 N 0.04118 0.62791 0.31254 0.0
H1584 H 0.3852 0.43625 0.33358 0.0
H1585 H 0.4857 0.45298 0.2756 0.0
H1586 H 0.40106 0.39157 0.32851 0.0
H1587 H 0.46823 0.49644 0.27404 0.0
H1588 H 0.45824 0.43292 0.30427 0.0
H1589 H 0.41829 0.46049 0.32054 0.0
C1590 C 0.39571 0.43155 0.33009 0.0
C1591 C 0.39023 0.41176 0.3318 0.0
C1592 C 0.46062 0.44704 0.29823 0.0
C1593 C 0.42822 0.43953 0.31675 0.0
C1594 C 0.47642 0.45857 0.28211 0.0
C1595 C 0.4792 0.47637 0.27262 0.0
C1596 C 0.44732 0.45322 0.30458 0.0
C1597 C 0.46664 0.48287 0.2812 0.0
C1598 C 0.41463 0.44543 0.32262 0.0
C1599 C 0.40455 0.40661 0.32721 0.0
N1600 N 0.45101 0.47114 0.29636 0.0
N1601 N 0.4228 0.42036 0.31961 0.0
H1602 H 0.36445 0.31645 0.34218 0.0
H1603 H 0.32789 0.20904 0.39482 0.0
H1604 H 0.30442 0.27012 0.33952 0.0
H1605 H 0.38768 0.25559 0.39712 0.0
H1606 H 0.31997 0.22907 0.36656 0.0
H1607 H 0.3741 0.29271 0.3548 0.0
C1608 C 0.35332 0.30125 0.34391 0.0
C1609 C 0.33357 0.29534 0.34013 0.0
C1610 C 0.33493 0.23474 0.37271 0.0
C1611 C 0.34449 0.26803 0.3548 0.0
C1612 C 0.33946 0.2232 0.38858 0.0
C1613 C 0.35842 0.23075 0.39831 0.0
C1614 C 0.34946 0.25396 0.36676 0.0
C1615 C 0.37286 0.24931 0.39003 0.0
C1616 C 0.35883 0.28767 0.35112 0.0
C1617 C 0.31981 0.2754 0.34249 0.0
N1618 N 0.36803 0.26039 0.37509 0.0
N1619 N 0.32549 0.26252 0.35 0.0
H1620 H 0.77703 0.04568 0.33332 0.0
H1621 H 0.78949 0.13901 0.40659 0.0
H1622 H 0.72933 0.05564 0.35029 0.0
H1623 H 0.83742 0.13005 0.38766 0.0
H1624 H 0.76838 0.11224 0.3777 0.0
H1625 H 0.80004 0.0793 0.3454 0.0
C1626 C 0.77138 0.055 0.3393 0.0
C1627 C 0.75119 0.04771 0.3412 0.0
C1628 C 0.78363 0.11641 0.37924 0.0
C1629 C 0.77754 0.08631 0.35522 0.0
C1630 C 0.79571 0.13184 0.3955 0.0
C1631 C 0.81517 0.13667 0.39943 0.0
C1632 C 0.79098 0.10552 0.36721 0.0
C1633 C 0.82252 0.12682 0.38498 0.0
C1634 C 0.78456 0.07425 0.34615 0.0
C1635 C 0.74476 0.06056 0.34879 0.0
N1636 N 0.81031 0.11142 0.3699 0.0
N1637 N 0.75788 0.07914 0.35587 0.0
H1638 H 0.99524 0.68302 0.34683 0.0
H1639 H 0.9185 0.71625 0.38502 0.0
H1640 H 1.00547 0.74157 0.33808 0.0
H1641 H 0.91101 0.65973 0.40236 0.0
H1642 H 0.94645 0.7231 0.35744 0.0
H1643 H 0.96117 0.67203 0.35784 0.0
C1644 C 0.99028 0.69352 0.34691 0.0
C1645 C 1.00333 0.7133 0.34192 0.0
C1646 C 0.93837 0.70897 0.36669 0.0
C1647 C 0.96433 0.70082 0.35448 0.0
C1648 C 0.92224 0.70497 0.38209 0.0
C1649 C 0.91252 0.68743 0.39593 0.0
C1650 C 0.94482 0.69535 0.36531 0.0
C1651 C 0.91817 0.67343 0.39193 0.0
C1652 C 0.97082 0.68724 0.35318 0.0
C1653 C 0.99602 0.72622 0.34214 0.0
N1654 N 0.93415 0.67781 0.37736 0.0
N1655 N 0.9771 0.7198 0.34858 0.0
H1656 H 0.44508 0.08399 0.67098 0.0
H1657 H 0.50925 0.06028 0.73065 0.0
H1658 H 0.40167 0.02383 0.68409 0.0
H1659 H 0.46206 1.00091 0.72836 0.0
H1660 H 0.49 0.07006 0.70437 0.0
H1661 H 0.47047 0.07662 0.68242 0.0
C1662 C 0.44089 0.06917 0.67622 0.0
C1663 C 0.42114 0.05458 0.67696 0.0
C1664 C 0.48387 0.05478 0.70878 0.0
C1665 C 0.45033 0.04594 0.69086 0.0
C1666 C 0.49509 0.0492 0.72365 0.0
C1667 C 0.48722 0.0298 0.73157 0.0
C1668 C 0.46458 0.04078 0.70193 0.0
C1669 C 0.46863 1.01604 0.72254 0.0
C1670 C 0.45549 0.06493 0.68297 0.0
C1671 C 0.41666 0.0356 0.6835 0.0
N1672 N 0.45787 0.02183 0.70858 0.0
N1673 N 0.43109 0.03191 0.69044 0.0
H1674 H 0.97361 0.38098 0.66677 0.0
H1675 H 0.05747 0.4751 0.73547 0.0
H1676 H 0.03169 0.39078 0.68009 0.0
H1677 H 1.0 0.46608 0.7204 0.0
H1678 H 0.05062 0.44791 0.70673 0.0
H1679 H 0.98485 0.41477 0.67854 0.0
C1680 C 0.9888 0.3903 0.6719 0.0
C1681 C 1.00166 0.38293 0.67284 0.0
C1682 C 0.03966 0.45216 0.70908 0.0
C1683 C 1.01463 0.42173 0.68649 0.0
C1684 C 0.04367 0.46783 0.72523 0.0
C1685 C 1.02926 0.47277 0.73025 0.0
C1686 C 1.02096 0.44114 0.69822 0.0
C1687 C 1.01153 0.46278 0.71686 0.0
C1688 C 0.99523 0.40965 0.67857 0.0
C1689 C 1.02122 0.39578 0.67934 0.0
N1690 N 1.00771 0.44715 0.70188 0.0
N1691 N 1.02704 0.41446 0.68627 0.0
H1692 H 0.67811 0.60198 0.67969 0.0
H1693 H 0.57497 0.58564 0.72658 0.0
H1694 H 0.662 0.64658 0.67869 0.0
H1695 H 0.59232 0.54231 0.73398 0.0
H1696 H 0.60394 0.60558 0.7002 0.0
H1697 H 0.64465 0.57799 0.69164 0.0
C1698 C 0.6675 0.60672 0.68174 0.0
C1699 C 0.67297 0.62641 0.67849 0.0
C1700 C 0.60123 0.59151 0.70701 0.0
C1701 C 0.63453 0.59892 0.69219 0.0
C1702 C 0.58457 0.58003 0.72178 0.0
C1703 C 0.58126 0.5623 0.73225 0.0
C1704 C 0.61486 0.58533 0.70301 0.0
C1705 C 0.59429 0.55581 0.72597 0.0
C1706 C 0.64837 0.59298 0.68854 0.0
C1707 C 0.65852 0.63162 0.68122 0.0
N1708 N 0.61072 0.56748 0.71209 0.0
N1709 N 0.64003 0.618 0.68814 0.0
H1710 H 0.69917 0.72215 0.65551 0.0
H1711 H 0.73586 0.82978 0.60292 0.0
H1712 H 0.75957 0.76774 0.65483 0.0
H1713 H 0.67587 0.78367 0.60224 0.0
H1714 H 0.74411 0.80936 0.6299 0.0
H1715 H 0.68973 0.74611 0.64323 0.0
C1716 C 0.71044 0.73722 0.65303 0.0
C1717 C 0.73021 0.74287 0.65587 0.0
C1718 C 0.72905 0.80387 0.6244 0.0
C1719 C 0.71951 0.77044 0.64171 0.0
C1720 C 0.72433 0.81564 0.60931 0.0
C1721 C 0.70519 0.80834 0.60046 0.0
C1722 C 0.7145 0.78468 0.63045 0.0
C1723 C 0.6908 0.78977 0.60877 0.0
C1724 C 0.70504 0.75093 0.64604 0.0
C1725 C 0.74416 0.76267 0.65259 0.0
N1726 N 0.69579 0.77848 0.62297 0.0
N1727 N 0.73856 0.77567 0.64542 0.0
H1728 H 0.27956 0.9907 0.67028 0.0
H1729 H 0.2679 0.89647 0.6006 0.0
H1730 H 0.32751 0.98069 0.65547 0.0
H1731 H 0.21985 0.90581 0.61704 0.0
H1732 H 0.28868 0.92352 0.62931 0.0
H1733 H 0.25672 0.9569 0.65889 0.0
C1734 C 0.2853 0.98133 0.66492 0.0
C1735 C 0.30552 0.98865 0.66343 0.0
C1736 C 0.27347 0.91937 0.62728 0.0
C1737 C 0.27934 0.94982 0.65018 0.0
C1738 C 0.26155 0.90377 0.61113 0.0
C1739 C 0.24218 0.89898 0.60649 0.0
C1740 C 0.26602 0.93045 0.63851 0.0
C1741 C 0.23469 0.90901 0.62026 0.0
C1742 C 0.27222 0.96197 0.65847 0.0
C1743 C 0.31206 0.97573 0.65666 0.0
N1744 N 0.24674 0.92456 0.63523 0.0
N1745 N 0.29902 0.95704 0.64992 0.0
H1746 H 0.06546 0.35396 0.65569 0.0
H1747 H 0.13591 0.31603 0.60547 0.0
H1748 H 0.05012 0.29349 0.65643 0.0
H1749 H 0.15078 0.37625 0.60498 0.0
H1750 H 0.1071 0.30812 0.63192 0.0
H1751 H 0.0989 0.36297 0.64413 0.0
C1752 C 0.06915 0.34258 0.65367 0.0
C1753 C 0.05487 0.32292 0.65671 0.0
C1754 C 0.11692 0.32316 0.62659 0.0
C1755 C 0.09318 0.33312 0.64335 0.0
C1756 C 0.13349 0.32768 0.6118 0.0
C1757 C 0.14566 0.3468 0.60311 0.0
C1758 C 0.11251 0.33787 0.6325 0.0
C1759 C 0.1417 0.36133 0.61136 0.0
C1760 C 0.08828 0.34774 0.6471 0.0
C1761 C 0.06059 0.30882 0.65404 0.0
N1762 N 0.12532 0.35654 0.62524 0.0
N1763 N 0.07921 0.31417 0.64723 0.0
H1764 H 0.33016 0.35394 0.65318 0.0
H1765 H 0.21902 0.31628 0.61609 0.0
H1766 H 0.28342 0.2947 0.66326 0.0
H1767 H 0.26636 0.37385 0.59895 0.0
H1768 H 0.24106 0.31058 0.6434 0.0
H1769 H 0.30602 0.36356 0.64238 0.0
C1770 C 0.31482 0.343 0.65345 0.0
C1771 C 0.30885 0.32342 0.65876 0.0
C1772 C 0.24652 0.32468 0.6343 0.0
C1773 C 0.2811 0.33434 0.64639 0.0
C1774 C 0.23385 0.32802 0.61906 0.0
C1775 C 0.24091 0.34559 0.60548 0.0
C1776 C 0.26641 0.33897 0.63567 0.0
C1777 C 0.26037 0.36017 0.60935 0.0
C1778 C 0.30102 0.3485 0.64729 0.0
C1779 C 0.28874 0.30991 0.65897 0.0
N1780 N 0.27253 0.35644 0.62374 0.0
N1781 N 0.27563 0.31557 0.6526 0.0
H1782 H 0.69356 0.98118 0.65738 0.0
H1783 H 0.72673 0.90504 0.61706 0.0
H1784 H 0.75155 0.9902 0.66872 0.0
H1785 H 0.67078 0.89869 0.59845 0.0
H1786 H 0.73303 0.9319 0.64632 0.0
H1787 H 0.6824 0.94736 0.64526 0.0
C1788 C 0.70389 0.97599 0.65767 0.0
C1789 C 0.7236 0.98865 0.66366 0.0
C1790 C 0.71913 0.92429 0.63641 0.0
C1791 C 0.71093 0.94995 0.64976 0.0
C1792 C 0.71544 0.90878 0.62001 0.0
C1793 C 0.69827 0.89976 0.60532 0.0
C1794 C 0.70556 0.93081 0.63793 0.0
C1795 C 0.68422 0.90536 0.60946 0.0
C1796 C 0.69751 0.95667 0.65075 0.0
C1797 C 0.73628 0.98106 0.66389 0.0
N1798 N 0.68832 0.92076 0.62501 0.0
N1799 N 0.72979 0.9623 0.65674 0.0
H1800 H 0.064 0.72322 0.66104 0.0
H1801 H 0.13485 0.83036 0.60701 0.0
H1802 H 0.05035 0.76955 0.6631 0.0
H1803 H 0.14739 0.78341 0.60387 0.0
H1804 H 0.10698 0.81045 0.63553 0.0
H1805 H 0.09725 0.74679 0.64763 0.0
C1806 C 0.06805 0.73839 0.65899 0.0
C1807 C 0.05427 0.74434 0.66286 0.0
C1808 C 0.11611 0.80467 0.62913 0.0
C1809 C 0.09234 0.77146 0.64729 0.0
C1810 C 0.13212 0.81613 0.61312 0.0
C1811 C 0.14333 0.80845 0.60317 0.0
C1812 C 0.1113 0.7854 0.63499 0.0
C1813 C 0.13903 0.7898 0.61121 0.0
C1814 C 0.08707 0.75187 0.65132 0.0
C1815 C 0.06043 0.76425 0.66008 0.0
N1816 N 0.12321 0.77881 0.62634 0.0
N1817 N 0.07891 0.77703 0.65215 0.0
H1818 H 0.03073 0.65106 0.67842 0.0
H1819 H 0.99323 0.54288 0.72877 0.0
H1820 H 0.97077 0.60475 0.6738 0.0
H1821 H 0.0528 0.58958 0.73409 0.0
H1822 H 0.98592 0.56332 0.70039 0.0
H1823 H 0.04018 0.62718 0.6911 0.0
C1824 C 1.01958 0.63584 0.67974 0.0
C1825 C 0.9999 0.62996 0.67541 0.0
C1826 C 1.00072 0.56894 0.70723 0.0
C1827 C 1.01058 0.6025 0.69011 0.0
C1828 C 1.00491 0.55718 0.72315 0.0
C1829 C 1.02361 0.56463 0.73371 0.0
C1830 C 1.01534 0.58828 0.70208 0.0
C1831 C 0.03819 0.58337 0.72628 0.0
C1832 C 1.02498 0.62218 0.68699 0.0
C1833 C 0.98611 0.61 0.67724 0.0
N1834 N 0.03369 0.59465 0.71126 0.0
N1835 N 0.99167 0.59704 0.68476 0.0
H1836 H 0.39611 0.39034 0.67712 0.0
H1837 H 0.50542 0.46768 0.71655 0.0
H1838 H 0.44571 0.38265 0.66406 0.0
H1839 H 0.45515 0.47199 0.73819 0.0
H1840 H 0.4849 0.44113 0.68681 0.0
H1841 H 0.4184 0.42416 0.68968 0.0
C1842 C 0.41169 0.39583 0.6765 0.0
C1843 C 0.41903 0.38353 0.66997 0.0
C1844 C 0.47844 0.44822 0.69754 0.0
C1845 C 0.44464 0.42221 0.68438 0.0
C1846 C 0.49022 0.46353 0.71424 0.0
C1847 C 0.48189 0.47187 0.7299 0.0
C1848 C 0.45822 0.44122 0.69666 0.0
C1849 C 0.46206 0.46581 0.72649 0.0
C1850 C 0.42442 0.41515 0.68369 0.0
C1851 C 0.43937 0.39151 0.66933 0.0
N1852 N 0.45082 0.45062 0.7106 0.0
N1853 N 0.45144 0.41024 0.67677 0.0
H1854 H 0.67374 0.07553 0.67143 0.0
H1855 H 0.57496 0.99336 0.7341 0.0
H1856 H 0.66058 1.01634 0.68408 0.0
H1857 H 0.58765 0.05217 0.72049 0.0
H1858 H 0.60297 0.99956 0.70726 0.0
H1859 H 0.63995 0.06574 0.68168 0.0
C1860 C 0.6637 0.06041 0.67612 0.0
C1861 C 0.67012 0.04679 0.67726 0.0
C1862 C 0.59936 1.01098 0.70946 0.0
C1863 C 0.63126 0.03546 0.68913 0.0
C1864 C 0.5832 1.00734 0.72448 0.0
C1865 C 0.57899 0.02226 0.72934 0.0
C1866 C 0.61159 0.02981 0.69963 0.0
C1867 C 0.59032 0.04024 0.71694 0.0
C1868 C 0.64435 0.05481 0.68192 0.0
C1869 C 0.65635 0.02737 0.6832 0.0
N1870 N 0.60635 0.04365 0.70308 0.0
N1871 N 0.63766 0.02235 0.68922 0.0
loop_
_geom_bond_atom_site_label_1
_geom_bond_atom_site_label_2
_geom_bond_distance
_geom_bond_site_symmetry_2
_ccdc_geom_bond_type
O0 Cd1 2.223 . S
O0 C8 1.315 . S
Cd1 O0 2.223 . S
Cd1 O4 2.297 . S
Cd1 O5 2.439 . S
Cd1 O11 2.240 1_554 S
Cd2 O3 2.240 . S
Cd2 O10 2.223 1_554 S
Cd2 O12 2.297 1_554 S
Cd2 O13 2.439 1_554 S
O3 Cd2 2.240 . S
O3 C8 1.279 1_655 S
O4 Cd1 2.297 . S
O4 C6 1.247 . S
O5 Cd1 2.439 . S
O5 C6 1.208 . S
C6 O4 1.247 . S
C6 O5 1.208 . S
C7 O12 1.247 . S
C7 O13 1.208 . S
C8 O0 1.315 . S
C8 O3 1.279 1_455 S
C9 O10 1.315 . S
C9 O11 1.279 1_655 S
O10 Cd2 2.223 1_556 S
O10 C9 1.315 . S
O11 Cd1 2.240 1_556 S
O11 C9 1.279 1_455 S
O12 Cd2 2.297 1_556 S
O12 C7 1.247 . S
O13 Cd2 2.439 1_556 S
O13 C7 1.208 . S
O14 Cd15 2.223 . S
O14 C22 1.315 . S
Cd15 O14 2.223 . S
Cd15 O18 2.297 . S
Cd15 O19 2.439 . S
Cd15 O25 2.240 1_554 S
Cd16 O17 2.240 . S
Cd16 O24 2.223 1_554 S
Cd16 O26 2.297 1_554 S
Cd16 O27 2.439 1_554 S
O17 Cd16 2.240 . S
O17 C22 1.279 . S
O18 Cd15 2.297 . S
O18 C20 1.247 . S
O19 Cd15 2.439 . S
O19 C20 1.208 . S
C20 O18 1.247 . S
C20 O19 1.208 . S
C21 O26 1.247 . S
C21 O27 1.208 . S
C22 O14 1.315 . S
C22 O17 1.279 . S
C23 O24 1.315 . S
C23 O25 1.279 . S
O24 Cd16 2.223 1_556 S
O24 C23 1.315 . S
O25 Cd15 2.240 1_556 S
O25 C23 1.279 . S
O26 Cd16 2.297 1_556 S
O26 C21 1.247 . S
O27 Cd16 2.439 1_556 S
O27 C21 1.208 . S
O28 Cd29 2.223 1_556 S
O28 C36 1.315 . S
Cd29 O28 2.223 1_554 S
Cd29 O32 2.297 1_554 S
Cd29 O33 2.439 1_554 S
Cd29 O39 2.240 . S
Cd30 O31 2.240 1_554 S
Cd30 O38 2.223 . S
Cd30 O40 2.297 . S
Cd30 O41 2.439 . S
O31 Cd30 2.240 1_556 S
O31 C36 1.279 1_565 S
O32 Cd29 2.297 1_556 S
O32 C34 1.247 . S
O33 Cd29 2.439 1_556 S
O33 C34 1.208 . S
C34 O32 1.247 . S
C34 O33 1.208 . S
C35 O40 1.247 . S
C35 O41 1.208 . S
C36 O28 1.315 . S
C36 O31 1.279 1_545 S
C37 O38 1.315 . S
C37 O39 1.279 1_565 S
O38 Cd30 2.223 . S
O38 C37 1.315 . S
O39 Cd29 2.240 . S
O39 C37 1.279 1_545 S
O40 Cd30 2.297 . S
O40 C35 1.247 . S
O41 Cd30 2.439 . S
O41 C35 1.208 . S
O42 Cd43 2.223 1_556 S
O42 C50 1.315 . S
Cd43 O42 2.223 1_554 S
Cd43 O46 2.297 1_554 S
Cd43 O47 2.439 1_554 S
Cd43 O53 2.240 . S
Cd44 O45 2.240 1_554 S
Cd44 O52 2.223 . S
Cd44 O54 2.297 . S
Cd44 O55 2.439 . S
O45 Cd44 2.240 1_556 S
O45 C50 1.279 1_455 S
O46 Cd43 2.297 1_556 S
O46 C48 1.247 . S
O47 Cd43 2.439 1_556 S
O47 C48 1.208 . S
C48 O46 1.247 . S
C48 O47 1.208 . S
C49 O54 1.247 . S
C49 O55 1.208 . S
C50 O42 1.315 . S
C50 O45 1.279 1_655 S
C51 O52 1.315 . S
C51 O53 1.279 1_455 S
O52 Cd44 2.223 . S
O52 C51 1.315 . S
O53 Cd43 2.240 . S
O53 C51 1.279 1_655 S
O54 Cd44 2.297 . S
O54 C49 1.247 . S
O55 Cd44 2.439 . S
O55 C49 1.208 . S
O56 Cd57 2.223 1_556 S
O56 C64 1.315 . S
Cd57 O56 2.223 1_554 S
Cd57 O60 2.297 1_554 S
Cd57 O61 2.439 1_554 S
Cd57 O67 2.240 . S
Cd58 O59 2.240 1_554 S
Cd58 O66 2.223 . S
Cd58 O68 2.297 . S
Cd58 O69 2.439 . S
O59 Cd58 2.240 1_556 S
O59 C64 1.279 . S
O60 Cd57 2.297 1_556 S
O60 C62 1.247 . S
O61 Cd57 2.439 1_556 S
O61 C62 1.208 . S
C62 O60 1.247 . S
C62 O61 1.208 . S
C63 O68 1.247 . S
C63 O69 1.208 . S
C64 O56 1.315 . S
C64 O59 1.279 . S
C65 O66 1.315 . S
C65 O67 1.279 . S
O66 Cd58 2.223 . S
O66 C65 1.315 . S
O67 Cd57 2.240 . S
O67 C65 1.279 . S
O68 Cd58 2.297 . S
O68 C63 1.247 . S
O69 Cd58 2.439 . S
O69 C63 1.208 . S
O70 Cd71 2.223 . S
O70 C78 1.315 . S
Cd71 O70 2.223 . S
Cd71 O74 2.297 . S
Cd71 O75 2.439 . S
Cd71 O81 2.240 1_554 S
Cd72 O73 2.240 . S
Cd72 O80 2.223 1_554 S
Cd72 O82 2.297 1_554 S
Cd72 O83 2.439 1_554 S
O73 Cd72 2.240 . S
O73 C78 1.279 1_545 S
O74 Cd71 2.297 . S
O74 C76 1.247 . S
O75 Cd71 2.439 . S
O75 C76 1.208 . S
C76 O74 1.247 . S
C76 O75 1.208 . S
C77 O82 1.247 . S
C77 O83 1.208 . S
C78 O70 1.315 . S
C78 O73 1.279 1_565 S
C79 O80 1.315 . S
C79 O81 1.279 1_545 S
O80 Cd72 2.223 1_556 S
O80 C79 1.315 . S
O81 Cd71 2.240 1_556 S
O81 C79 1.279 1_565 S
O82 Cd72 2.297 1_556 S
O82 C77 1.247 . S
O83 Cd72 2.439 1_556 S
O83 C77 1.208 . S
O84 Cd85 2.223 . S
O84 C92 1.315 . S
Cd85 O84 2.223 . S
Cd85 O88 2.297 . S
Cd85 O89 2.439 . S
Cd85 O95 2.240 . S
Cd86 O87 2.240 . S
Cd86 O94 2.223 . S
Cd86 O96 2.297 . S
Cd86 O97 2.439 . S
O87 Cd86 2.240 . S
O87 C92 1.279 . S
O88 Cd85 2.297 . S
O88 C90 1.247 . S
O89 Cd85 2.439 . S
O89 C90 1.208 . S
C90 O88 1.247 . S
C90 O89 1.208 . S
C91 O96 1.247 . S
C91 O97 1.208 . S
C92 O84 1.315 . S
C92 O87 1.279 . S
C93 O94 1.315 . S
C93 O95 1.279 . S
O94 Cd86 2.223 . S
O94 C93 1.315 . S
O95 Cd85 2.240 . S
O95 C93 1.279 . S
O96 Cd86 2.297 . S
O96 C91 1.247 . S
O97 Cd86 2.439 . S
O97 C91 1.208 . S
O98 Cd99 2.223 . S
O98 C106 1.315 . S
Cd99 O98 2.223 . S
Cd99 O102 2.297 1_565 S
Cd99 O103 2.439 1_565 S
Cd99 O109 2.240 . S
Cd100 O101 2.240 . S
Cd100 O108 2.223 . S
Cd100 O110 2.297 . S
Cd100 O111 2.439 . S
O101 Cd100 2.240 . S
O101 C106 1.279 . S
O102 Cd99 2.297 1_545 S
O102 C104 1.247 . S
O103 Cd99 2.439 1_545 S
O103 C104 1.208 . S
C104 O102 1.247 . S
C104 O103 1.208 . S
C105 O110 1.247 . S
C105 O111 1.208 . S
C106 O98 1.315 . S
C106 O101 1.279 . S
C107 O108 1.315 . S
C107 O109 1.279 . S
O108 Cd100 2.223 . S
O108 C107 1.315 . S
O109 Cd99 2.240 . S
O109 C107 1.279 . S
O110 Cd100 2.297 . S
O110 C105 1.247 . S
O111 Cd100 2.439 . S
O111 C105 1.208 . S
O112 Cd113 2.223 . S
O112 C120 1.315 . S
Cd113 O112 2.223 . S
Cd113 O116 2.297 . S
Cd113 O117 2.439 . S
Cd113 O123 2.240 . S
Cd114 O115 2.240 . S
Cd114 O122 2.223 . S
Cd114 O124 2.297 1_455 S
Cd114 O125 2.439 1_455 S
O115 Cd114 2.240 . S
O115 C120 1.279 . S
O116 Cd113 2.297 . S
O116 C118 1.247 . S
O117 Cd113 2.439 . S
O117 C118 1.208 . S
C118 O116 1.247 . S
C118 O117 1.208 . S
C119 O124 1.247 . S
C119 O125 1.208 . S
C120 O112 1.315 . S
C120 O115 1.279 . S
C121 O122 1.315 . S
C121 O123 1.279 . S
O122 Cd114 2.223 . S
O122 C121 1.315 . S
O123 Cd113 2.240 . S
O123 C121 1.279 . S
O124 Cd114 2.297 1_655 S
O124 C119 1.247 . S
O125 Cd114 2.439 1_655 S
O125 C119 1.208 . S
O126 Cd127 2.223 . S
O126 C134 1.315 . S
Cd127 O126 2.223 . S
Cd127 O130 2.297 . S
Cd127 O131 2.439 . S
Cd127 O137 2.240 . S
Cd128 O129 2.240 . S
Cd128 O136 2.223 . S
Cd128 O138 2.297 1_565 S
Cd128 O139 2.439 1_565 S
O129 Cd128 2.240 . S
O129 C134 1.279 . S
O130 Cd127 2.297 . S
O130 C132 1.247 . S
O131 Cd127 2.439 . S
O131 C132 1.208 . S
C132 O130 1.247 . S
C132 O131 1.208 . S
C133 O138 1.247 . S
C133 O139 1.208 . S
C134 O126 1.315 . S
C134 O129 1.279 . S
C135 O136 1.315 . S
C135 O137 1.279 . S
O136 Cd128 2.223 . S
O136 C135 1.315 . S
O137 Cd127 2.240 . S
O137 C135 1.279 . S
O138 Cd128 2.297 1_545 S
O138 C133 1.247 . S
O139 Cd128 2.439 1_545 S
O139 C133 1.208 . S
O140 Cd141 2.223 . S
O140 C148 1.315 . S
Cd141 O140 2.223 . S
Cd141 O144 2.297 . S
Cd141 O145 2.439 . S
Cd141 O151 2.240 . S
Cd142 O143 2.240 . S
Cd142 O150 2.223 . S
Cd142 O152 2.297 1_455 S
Cd142 O153 2.439 1_455 S
O143 Cd142 2.240 . S
O143 C148 1.279 . S
O144 Cd141 2.297 . S
O144 C146 1.247 . S
O145 Cd141 2.439 . S
O145 C146 1.208 . S
C146 O144 1.247 . S
C146 O145 1.208 . S
C147 O152 1.247 . S
C147 O153 1.208 . S
C148 O140 1.315 . S
C148 O143 1.279 . S
C149 O150 1.315 . S
C149 O151 1.279 . S
O150 Cd142 2.223 . S
O150 C149 1.315 . S
O151 Cd141 2.240 . S
O151 C149 1.279 . S
O152 Cd142 2.297 1_655 S
O152 C147 1.247 . S
O153 Cd142 2.439 1_655 S
O153 C147 1.208 . S
O154 Cd155 2.223 . S
O154 C162 1.315 . S
Cd155 O154 2.223 . S
Cd155 O158 2.297 . S
Cd155 O159 2.439 . S
Cd155 O165 2.240 . S
Cd156 O157 2.240 . S
Cd156 O164 2.223 . S
Cd156 O166 2.297 . S
Cd156 O167 2.439 . S
O157 Cd156 2.240 . S
O157 C162 1.279 . S
O158 Cd155 2.297 . S
O158 C160 1.247 . S
O159 Cd155 2.439 . S
O159 C160 1.208 . S
C160 O158 1.247 . S
C160 O159 1.208 . S
C161 O166 1.247 . S
C161 O167 1.208 . S
C162 O154 1.315 . S
C162 O157 1.279 . S
C163 O164 1.315 . S
C163 O165 1.279 . S
O164 Cd156 2.223 . S
O164 C163 1.315 . S
O165 Cd155 2.240 . S
O165 C163 1.279 . S
O166 Cd156 2.297 . S
O166 C161 1.247 . S
O167 Cd156 2.439 . S
O167 C161 1.208 . S
O168 Cd169 2.223 . S
O168 C176 1.315 . S
Cd169 O168 2.223 . S
Cd169 O172 2.297 . S
Cd169 O173 2.439 . S
Cd169 O179 2.240 . S
Cd170 O171 2.240 . S
Cd170 O178 2.223 . S
Cd170 O180 2.297 1_545 S
Cd170 O181 2.439 1_545 S
O171 Cd170 2.240 . S
O171 C176 1.279 . S
O172 Cd169 2.297 . S
O172 C174 1.247 . S
O173 Cd169 2.439 . S
O173 C174 1.208 . S
C174 O172 1.247 . S
C174 O173 1.208 . S
C175 O180 1.247 . S
C175 O181 1.208 . S
C176 O168 1.315 . S
C176 O171 1.279 . S
C177 O178 1.315 . S
C177 O179 1.279 . S
O178 Cd170 2.223 . S
O178 C177 1.315 . S
O179 Cd169 2.240 . S
O179 C177 1.279 . S
O180 Cd170 2.297 1_565 S
O180 C175 1.247 . S
O181 Cd170 2.439 1_565 S
O181 C175 1.208 . S
O182 Cd183 2.223 . S
O182 C190 1.315 . S
Cd183 O182 2.223 . S
Cd183 O186 2.297 . S
Cd183 O187 2.439 . S
Cd183 O193 2.240 . S
Cd184 O185 2.240 . S
Cd184 O192 2.223 . S
Cd184 O194 2.297 1_655 S
Cd184 O195 2.439 1_655 S
O185 Cd184 2.240 . S
O185 C190 1.279 . S
O186 Cd183 2.297 . S
O186 C188 1.247 . S
O187 Cd183 2.439 . S
O187 C188 1.208 . S
C188 O186 1.247 . S
C188 O187 1.208 . S
C189 O194 1.247 . S
C189 O195 1.208 . S
C190 O182 1.315 . S
C190 O185 1.279 . S
C191 O192 1.315 . S
C191 O193 1.279 . S
O192 Cd184 2.223 . S
O192 C191 1.315 . S
O193 Cd183 2.240 . S
O193 C191 1.279 . S
O194 Cd184 2.297 1_455 S
O194 C189 1.247 . S
O195 Cd184 2.439 1_455 S
O195 C189 1.208 . S
O196 Cd197 2.223 . S
O196 C204 1.315 . S
Cd197 O196 2.223 . S
Cd197 O200 2.297 . S
Cd197 O201 2.439 . S
Cd197 O207 2.240 . S
Cd198 O199 2.240 . S
Cd198 O206 2.223 . S
Cd198 O208 2.297 . S
Cd198 O209 2.439 . S
O199 Cd198 2.240 . S
O199 C204 1.279 . S
O200 Cd197 2.297 . S
O200 C202 1.247 . S
O201 Cd197 2.439 . S
O201 C202 1.208 . S
C202 O200 1.247 . S
C202 O201 1.208 . S
C203 O208 1.247 . S
C203 O209 1.208 . S
C204 O196 1.315 . S
C204 O199 1.279 . S
C205 O206 1.315 . S
C205 O207 1.279 . S
O206 Cd198 2.223 . S
O206 C205 1.315 . S
O207 Cd197 2.240 . S
O207 C205 1.279 . S
O208 Cd198 2.297 . S
O208 C203 1.247 . S
O209 Cd198 2.439 . S
O209 C203 1.208 . S
O210 Cd211 2.223 . S
O210 C218 1.315 . S
Cd211 O210 2.223 . S
Cd211 O214 2.297 . S
Cd211 O215 2.439 . S
Cd211 O221 2.240 . S
Cd212 O213 2.240 . S
Cd212 O220 2.223 . S
Cd212 O222 2.297 . S
Cd212 O223 2.439 . S
O213 Cd212 2.240 . S
O213 C218 1.279 . S
O214 Cd211 2.297 . S
O214 C216 1.247 . S
O215 Cd211 2.439 . S
O215 C216 1.208 . S
C216 O214 1.247 . S
C216 O215 1.208 . S
C217 O222 1.247 . S
C217 O223 1.208 . S
C218 O210 1.315 . S
C218 O213 1.279 . S
C219 O220 1.315 . S
C219 O221 1.279 . S
O220 Cd212 2.223 . S
O220 C219 1.315 . S
O221 Cd211 2.240 . S
O221 C219 1.279 . S
O222 Cd212 2.297 . S
O222 C217 1.247 . S
O223 Cd212 2.439 . S
O223 C217 1.208 . S
O224 Cd225 2.223 . S
O224 C232 1.315 . S
Cd225 O224 2.223 . S
Cd225 O228 2.297 1_545 S
Cd225 O229 2.439 1_545 S
Cd225 O235 2.240 . S
Cd226 O227 2.240 . S
Cd226 O234 2.223 . S
Cd226 O236 2.297 . S
Cd226 O237 2.439 . S
O227 Cd226 2.240 . S
O227 C232 1.279 . S
O228 Cd225 2.297 1_565 S
O228 C230 1.247 . S
O229 Cd225 2.439 1_565 S
O229 C230 1.208 . S
C230 O228 1.247 . S
C230 O229 1.208 . S
C231 O236 1.247 . S
C231 O237 1.208 . S
C232 O224 1.315 . S
C232 O227 1.279 . S
C233 O234 1.315 . S
C233 O235 1.279 . S
O234 Cd226 2.223 . S
O234 C233 1.315 . S
O235 Cd225 2.240 . S
O235 C233 1.279 . S
O236 Cd226 2.297 . S
O236 C231 1.247 . S
O237 Cd226 2.439 . S
O237 C231 1.208 . S
O238 Cd239 2.223 . S
O238 C246 1.315 . S
Cd239 O238 2.223 . S
Cd239 O242 2.297 . S
Cd239 O243 2.439 . S
Cd239 O249 2.240 . S
Cd240 O241 2.240 . S
Cd240 O248 2.223 . S
Cd240 O250 2.297 1_655 S
Cd240 O251 2.439 1_655 S
O241 Cd240 2.240 . S
O241 C246 1.279 . S
O242 Cd239 2.297 . S
O242 C244 1.247 . S
O243 Cd239 2.439 . S
O243 C244 1.208 . S
C244 O242 1.247 . S
C244 O243 1.208 . S
C245 O250 1.247 . S
C245 O251 1.208 . S
C246 O238 1.315 . S
C246 O241 1.279 . S
C247 O248 1.315 . S
C247 O249 1.279 . S
O248 Cd240 2.223 . S
O248 C247 1.315 . S
O249 Cd239 2.240 . S
O249 C247 1.279 . S
O250 Cd240 2.297 1_455 S
O250 C245 1.247 . S
O251 Cd240 2.439 1_455 S
O251 C245 1.208 . S
H252 C258 0.930 . S
H253 C261 0.931 . S
H254 C263 0.931 . S
H255 C265 0.930 . S
H256 C267 0.930 . S
H257 C269 0.931 . S
C258 H252 0.930 . S
C258 C259 1.380 . S
C258 C260 1.394 . S
C259 C258 1.380 . S
C259 C263 1.382 . S
C260 C258 1.394 . S
C260 C261 1.400 . S
C261 H253 0.931 . S
C261 C260 1.400 . S
C261 C262 1.375 . S
C262 C261 1.375 . S
C262 C263 1.415 . S
C262 C264 1.501 . S
C263 H254 0.931 . S
C263 C259 1.382 . S
C263 C262 1.415 . S
C264 C262 1.501 . S
C264 C265 1.384 . S
C264 C269 1.408 . S
C265 H255 0.930 . S
C265 C264 1.384 . S
C265 C266 1.389 . S
C266 C265 1.389 . S
C266 C267 1.405 . S
C267 H256 0.930 . S
C267 C266 1.405 . S
C267 C268 1.364 . S
C268 C267 1.364 . S
C268 C269 1.400 . S
C269 H257 0.931 . S
C269 C264 1.408 . S
C269 C268 1.400 . S
H270 C276 0.930 . S
H271 C279 0.931 . S
H272 C281 0.931 . S
H273 C283 0.930 . S
H274 C285 0.930 . S
H275 C287 0.931 . S
C276 H270 0.930 . S
C276 C277 1.380 . S
C276 C278 1.394 . S
C277 C276 1.380 . S
C277 C281 1.382 . S
C278 C276 1.394 . S
C278 C279 1.400 . S
C279 H271 0.931 . S
C279 C278 1.400 . S
C279 C280 1.375 . S
C280 C279 1.375 . S
C280 C281 1.415 . S
C280 C282 1.501 . S
C281 H272 0.931 . S
C281 C277 1.382 . S
C281 C280 1.415 . S
C282 C280 1.501 . S
C282 C283 1.384 . S
C282 C287 1.408 . S
C283 H273 0.930 . S
C283 C282 1.384 . S
C283 C284 1.389 . S
C284 C283 1.389 . S
C284 C285 1.405 . S
C285 H274 0.930 . S
C285 C284 1.405 . S
C285 C286 1.364 . S
C286 C285 1.364 . S
C286 C287 1.400 . S
C287 H275 0.931 . S
C287 C282 1.408 . S
C287 C286 1.400 . S
H288 C294 0.930 . S
H289 C297 0.931 . S
H290 C299 0.931 . S
H291 C301 0.930 . S
H292 C303 0.930 . S
H293 C305 0.931 . S
C294 H288 0.930 . S
C294 C295 1.380 . S
C294 C296 1.394 . S
C295 C294 1.380 . S
C295 C299 1.382 . S
C296 C294 1.394 . S
C296 C297 1.400 . S
C297 H289 0.931 . S
C297 C296 1.400 . S
C297 C298 1.375 . S
C298 C297 1.375 . S
C298 C299 1.415 . S
C298 C300 1.501 . S
C299 H290 0.931 . S
C299 C295 1.382 . S
C299 C298 1.415 . S
C300 C298 1.501 . S
C300 C301 1.384 . S
C300 C305 1.408 . S
C301 H291 0.930 . S
C301 C300 1.384 . S
C301 C302 1.389 . S
C302 C301 1.389 . S
C302 C303 1.405 . S
C303 H292 0.930 . S
C303 C302 1.405 . S
C303 C304 1.364 . S
C304 C303 1.364 . S
C304 C305 1.400 . S
C305 H293 0.931 . S
C305 C300 1.408 . S
C305 C304 1.400 . S
H306 C312 0.930 . S
H307 C315 0.931 . S
H308 C317 0.931 . S
H309 C319 0.930 . S
H310 C321 0.930 . S
H311 C323 0.931 . S
C312 H306 0.930 . S
C312 C313 1.380 . S
C312 C314 1.394 . S
C313 C312 1.380 . S
C313 C317 1.382 . S
C314 C312 1.394 . S
C314 C315 1.400 . S
C315 H307 0.931 . S
C315 C314 1.400 . S
C315 C316 1.375 . S
C316 C315 1.375 . S
C316 C317 1.415 . S
C316 C318 1.501 . S
C317 H308 0.931 . S
C317 C313 1.382 . S
C317 C316 1.415 . S
C318 C316 1.501 . S
C318 C319 1.384 . S
C318 C323 1.408 . S
C319 H309 0.930 . S
C319 C318 1.384 . S
C319 C320 1.389 . S
C320 C319 1.389 . S
C320 C321 1.405 . S
C321 H310 0.930 . S
C321 C320 1.405 . S
C321 C322 1.364 . S
C322 C321 1.364 . S
C322 C323 1.400 . S
C323 H311 0.931 . S
C323 C318 1.408 . S
C323 C322 1.400 . S
H324 C330 0.930 . S
H325 C333 0.931 . S
H326 C335 0.931 . S
H327 C337 0.930 . S
H328 C339 0.930 . S
H329 C341 0.931 . S
C330 H324 0.930 . S
C330 C331 1.380 . S
C330 C332 1.394 . S
C331 C330 1.380 . S
C331 C335 1.382 . S
C332 C330 1.394 . S
C332 C333 1.400 . S
C333 H325 0.931 . S
C333 C332 1.400 . S
C333 C334 1.375 . S
C334 C333 1.375 . S
C334 C335 1.415 . S
C334 C336 1.501 . S
C335 H326 0.931 . S
C335 C331 1.382 . S
C335 C334 1.415 . S
C336 C334 1.501 . S
C336 C337 1.384 . S
C336 C341 1.408 . S
C337 H327 0.930 . S
C337 C336 1.384 . S
C337 C338 1.389 . S
C338 C337 1.389 . S
C338 C339 1.405 . S
C339 H328 0.930 . S
C339 C338 1.405 . S
C339 C340 1.364 . S
C340 C339 1.364 . S
C340 C341 1.400 . S
C341 H329 0.931 . S
C341 C336 1.408 . S
C341 C340 1.400 . S
H342 C348 0.930 . S
H343 C351 0.931 . S
H344 C353 0.931 . S
H345 C355 0.930 . S
H346 C357 0.930 . S
H347 C359 0.931 . S
C348 H342 0.930 . S
C348 C349 1.380 . S
C348 C350 1.394 . S
C349 C348 1.380 . S
C349 C353 1.382 . S
C350 C348 1.394 . S
C350 C351 1.400 . S
C351 H343 0.931 . S
C351 C350 1.400 . S
C351 C352 1.375 . S
C352 C351 1.375 . S
C352 C353 1.415 . S
C352 C354 1.501 . S
C353 H344 0.931 . S
C353 C349 1.382 . S
C353 C352 1.415 . S
C354 C352 1.501 . S
C354 C355 1.384 . S
C354 C359 1.408 . S
C355 H345 0.930 . S
C355 C354 1.384 . S
C355 C356 1.389 . S
C356 C355 1.389 . S
C356 C357 1.405 . S
C357 H346 0.930 . S
C357 C356 1.405 . S
C357 C358 1.364 . S
C358 C357 1.364 . S
C358 C359 1.400 . S
C359 H347 0.931 . S
C359 C354 1.408 . S
C359 C358 1.400 . S
H360 C366 0.930 . S
H361 C369 0.931 . S
H362 C371 0.931 . S
H363 C373 0.930 . S
H364 C375 0.930 . S
H365 C377 0.931 . S
C366 H360 0.930 . S
C366 C367 1.380 . S
C366 C368 1.394 . S
C367 C366 1.380 . S
C367 C371 1.382 . S
C368 C366 1.394 . S
C368 C369 1.400 . S
C369 H361 0.931 . S
C369 C368 1.400 . S
C369 C370 1.375 . S
C370 C369 1.375 . S
C370 C371 1.415 . S
C370 C372 1.501 . S
C371 H362 0.931 . S
C371 C367 1.382 . S
C371 C370 1.415 . S
C372 C370 1.501 . S
C372 C373 1.384 . S
C372 C377 1.408 . S
C373 H363 0.930 . S
C373 C372 1.384 . S
C373 C374 1.389 . S
C374 C373 1.389 . S
C374 C375 1.405 . S
C375 H364 0.930 . S
C375 C374 1.405 . S
C375 C376 1.364 . S
C376 C375 1.364 . S
C376 C377 1.400 . S
C377 H365 0.931 . S
C377 C372 1.408 . S
C377 C376 1.400 . S
H378 C384 0.930 . S
H379 C387 0.931 . S
H380 C389 0.931 . S
H381 C391 0.930 . S
H382 C393 0.930 . S
H383 C395 0.931 . S
C384 H378 0.930 . S
C384 C385 1.380 . S
C384 C386 1.394 . S
C385 C384 1.380 . S
C385 C389 1.382 . S
C386 C384 1.394 . S
C386 C387 1.400 . S
C387 H379 0.931 . S
C387 C386 1.400 . S
C387 C388 1.375 . S
C388 C387 1.375 . S
C388 C389 1.415 . S
C388 C390 1.501 . S
C389 H380 0.931 . S
C389 C385 1.382 . S
C389 C388 1.415 . S
C390 C388 1.501 . S
C390 C391 1.384 . S
C390 C395 1.408 . S
C391 H381 0.930 . S
C391 C390 1.384 . S
C391 C392 1.389 . S
C392 C391 1.389 . S
C392 C393 1.405 . S
C393 H382 0.930 . S
C393 C392 1.405 . S
C393 C394 1.364 . S
C394 C393 1.364 . S
C394 C395 1.400 . S
C395 H383 0.931 . S
C395 C390 1.408 . S
C395 C394 1.400 . S
H396 C402 0.930 . S
H397 C405 0.931 . S
H398 C407 0.931 . S
H399 C409 0.930 . S
H400 C411 0.930 . S
H401 C413 0.931 . S
C402 H396 0.930 . S
C402 C403 1.380 . S
C402 C404 1.394 . S
C403 C402 1.380 . S
C403 C407 1.382 . S
C404 C402 1.394 . S
C404 C405 1.400 . S
C405 H397 0.931 . S
C405 C404 1.400 . S
C405 C406 1.375 . S
C406 C405 1.375 . S
C406 C407 1.415 . S
C406 C408 1.501 . S
C407 H398 0.931 . S
C407 C403 1.382 . S
C407 C406 1.415 . S
C408 C406 1.501 . S
C408 C409 1.384 . S
C408 C413 1.408 . S
C409 H399 0.930 . S
C409 C408 1.384 . S
C409 C410 1.389 . S
C410 C409 1.389 . S
C410 C411 1.405 . S
C411 H400 0.930 . S
C411 C410 1.405 . S
C411 C412 1.364 . S
C412 C411 1.364 . S
C412 C413 1.400 . S
C413 H401 0.931 . S
C413 C408 1.408 . S
C413 C412 1.400 . S
H414 C420 0.920 . S
H415 C423 0.931 . S
H416 C425 0.931 . S
H417 C427 0.930 . S
H418 C429 0.930 . S
H419 C431 0.940 1_655 S
C420 H414 0.920 . S
C420 C421 1.389 . S
C420 C422 1.396 1_655 S
C421 C420 1.389 . S
C421 C425 1.382 . S
C422 C420 1.396 1_455 S
C422 C423 1.400 . S
C423 H415 0.931 . S
C423 C422 1.400 . S
C423 C424 1.375 . S
C424 C423 1.375 . S
C424 C425 1.415 1_455 S
C424 C426 1.501 . S
C425 H416 0.931 . S
C425 C421 1.382 . S
C425 C424 1.415 1_655 S
C426 C424 1.501 . S
C426 C427 1.384 . S
C426 C431 1.419 . S
C427 H417 0.930 . S
C427 C426 1.384 . S
C427 C428 1.389 . S
C428 C427 1.389 . S
C428 C429 1.405 . S
C429 H418 0.930 . S
C429 C428 1.405 . S
C429 C430 1.360 . S
C430 C429 1.360 . S
C430 C431 1.394 . S
C431 H419 0.940 1_455 S
C431 C426 1.419 . S
C431 C430 1.394 . S
H432 C438 0.930 . S
H433 C441 0.931 . S
H434 C443 0.931 . S
H435 C445 0.930 . S
H436 C447 0.930 . S
H437 C449 0.931 . S
C438 H432 0.930 . S
C438 C439 1.380 . S
C438 C440 1.394 . S
C439 C438 1.380 . S
C439 C443 1.382 . S
C440 C438 1.394 . S
C440 C441 1.400 . S
C441 H433 0.931 . S
C441 C440 1.400 . S
C441 C442 1.375 . S
C442 C441 1.375 . S
C442 C443 1.415 . S
C442 C444 1.501 . S
C443 H434 0.931 . S
C443 C439 1.382 . S
C443 C442 1.415 . S
C444 C442 1.501 . S
C444 C445 1.384 . S
C444 C449 1.408 . S
C445 H435 0.930 . S
C445 C444 1.384 . S
C445 C446 1.389 . S
C446 C445 1.389 . S
C446 C447 1.405 . S
C447 H436 0.930 . S
C447 C446 1.405 . S
C447 C448 1.364 . S
C448 C447 1.364 . S
C448 C449 1.400 . S
C449 H437 0.931 . S
C449 C444 1.408 . S
C449 C448 1.400 . S
H450 C456 0.943 . S
H451 C459 0.931 . S
H452 C461 0.931 . S
H453 C463 0.930 . S
H454 C465 0.930 . S
H455 C467 0.920 1_545 S
C456 H450 0.943 . S
C456 C457 1.377 . S
C456 C458 1.384 1_545 S
C457 C456 1.377 . S
C457 C461 1.382 . S
C458 C456 1.384 1_565 S
C458 C459 1.400 . S
C459 H451 0.931 . S
C459 C458 1.400 . S
C459 C460 1.375 . S
C460 C459 1.375 . S
C460 C461 1.415 1_565 S
C460 C462 1.501 . S
C461 H452 0.931 . S
C461 C457 1.382 . S
C461 C460 1.415 1_545 S
C462 C460 1.501 . S
C462 C463 1.384 . S
C462 C467 1.401 . S
C463 H453 0.930 . S
C463 C462 1.384 . S
C463 C464 1.389 . S
C464 C463 1.389 . S
C464 C465 1.405 . S
C465 H454 0.930 . S
C465 C464 1.405 . S
C465 C466 1.372 . S
C466 C465 1.372 . S
C466 C467 1.407 . S
C467 H455 0.920 1_565 S
C467 C462 1.401 . S
C467 C466 1.407 . S
H468 C474 0.913 . S
H469 C477 0.931 . S
H470 C479 0.927 1_545 S
H471 C481 0.930 . S
H472 C483 0.930 . S
H473 C485 0.931 . S
C474 H468 0.913 . S
C474 C475 1.382 . S
C474 C476 1.416 1_545 S
C475 C474 1.382 . S
C475 C479 1.401 1_545 S
C476 C474 1.416 1_565 S
C476 C477 1.376 . S
C477 H469 0.931 . S
C477 C476 1.376 . S
C477 C478 1.375 . S
C478 C477 1.375 . S
C478 C479 1.414 . S
C478 C480 1.501 . S
C479 H470 0.927 1_565 S
C479 C475 1.401 1_565 S
C479 C478 1.414 . S
C480 C478 1.501 . S
C480 C481 1.384 . S
C480 C485 1.408 1_565 S
C481 H471 0.930 . S
C481 C480 1.384 . S
C481 C482 1.389 . S
C482 C481 1.389 . S
C482 C483 1.405 . S
C483 H472 0.930 . S
C483 C482 1.405 . S
C483 C484 1.364 1_565 S
C484 C483 1.364 1_545 S
C484 C485 1.400 . S
C485 H473 0.931 . S
C485 C480 1.408 1_545 S
C485 C484 1.400 . S
H486 C492 0.953 . S
H487 C495 0.931 . S
H488 C497 0.934 1_655 S
H489 C499 0.930 . S
H490 C501 0.930 . S
H491 C503 0.931 . S
C492 H486 0.953 . S
C492 C493 1.378 . S
C492 C494 1.367 1_655 S
C493 C492 1.378 . S
C493 C497 1.362 1_655 S
C494 C492 1.367 1_455 S
C494 C495 1.434 . S
C495 H487 0.931 . S
C495 C494 1.434 . S
C495 C496 1.375 . S
C496 C495 1.375 . S
C496 C497 1.417 . S
C496 C498 1.501 . S
C497 H488 0.934 1_455 S
C497 C493 1.362 1_455 S
C497 C496 1.417 . S
C498 C496 1.501 . S
C498 C499 1.384 . S
C498 C503 1.408 1_455 S
C499 H489 0.930 . S
C499 C498 1.384 . S
C499 C500 1.389 . S
C500 C499 1.389 . S
C500 C501 1.405 . S
C501 H490 0.930 . S
C501 C500 1.405 . S
C501 C502 1.364 1_455 S
C502 C501 1.364 1_655 S
C502 C503 1.400 . S
C503 H491 0.931 . S
C503 C498 1.408 1_655 S
C503 C502 1.400 . S
H504 C510 0.930 . S
H505 C513 0.931 . S
H506 C515 0.931 . S
H507 C517 0.930 . S
H508 C519 0.930 . S
H509 C521 0.931 . S
C510 H504 0.930 . S
C510 C511 1.380 . S
C510 C512 1.394 . S
C511 C510 1.380 . S
C511 C515 1.382 . S
C512 C510 1.394 . S
C512 C513 1.400 . S
C513 H505 0.931 . S
C513 C512 1.400 . S
C513 C514 1.375 . S
C514 C513 1.375 . S
C514 C515 1.415 . S
C514 C516 1.501 . S
C515 H506 0.931 . S
C515 C511 1.382 . S
C515 C514 1.415 . S
C516 C514 1.501 . S
C516 C517 1.384 . S
C516 C521 1.408 . S
C517 H507 0.930 . S
C517 C516 1.384 . S
C517 C518 1.389 . S
C518 C517 1.389 . S
C518 C519 1.405 . S
C519 H508 0.930 . S
C519 C518 1.405 . S
C519 C520 1.364 . S
C520 C519 1.364 . S
C520 C521 1.400 . S
C521 H509 0.931 . S
C521 C516 1.408 . S
C521 C520 1.400 . S
H522 C528 0.930 . S
H523 C531 0.931 . S
H524 C533 0.931 . S
H525 C535 0.930 . S
H526 C537 0.930 . S
H527 C539 0.931 . S
C528 H522 0.930 . S
C528 C529 1.380 . S
C528 C530 1.394 . S
C529 C528 1.380 . S
C529 C533 1.382 . S
C530 C528 1.394 . S
C530 C531 1.400 . S
C531 H523 0.931 . S
C531 C530 1.400 . S
C531 C532 1.375 . S
C532 C531 1.375 . S
C532 C533 1.415 . S
C532 C534 1.501 . S
C533 H524 0.931 . S
C533 C529 1.382 . S
C533 C532 1.415 . S
C534 C532 1.501 . S
C534 C535 1.384 . S
C534 C539 1.408 . S
C535 H525 0.930 . S
C535 C534 1.384 . S
C535 C536 1.389 . S
C536 C535 1.389 . S
C536 C537 1.405 . S
C537 H526 0.930 . S
C537 C536 1.405 . S
C537 C538 1.364 . S
C538 C537 1.364 . S
C538 C539 1.400 . S
C539 H527 0.931 . S
C539 C534 1.408 . S
C539 C538 1.400 . S
H540 C546 0.930 . S
H541 C549 0.931 . S
H542 C551 0.931 . S
H543 C553 0.930 . S
H544 C555 0.930 . S
H545 C557 0.931 . S
C546 H540 0.930 . S
C546 C547 1.380 . S
C546 C548 1.394 . S
C547 C546 1.380 . S
C547 C551 1.382 . S
C548 C546 1.394 . S
C548 C549 1.400 . S
C549 H541 0.931 . S
C549 C548 1.400 . S
C549 C550 1.375 . S
C550 C549 1.375 . S
C550 C551 1.415 . S
C550 C552 1.501 . S
C551 H542 0.931 . S
C551 C547 1.382 . S
C551 C550 1.415 . S
C552 C550 1.501 . S
C552 C553 1.384 . S
C552 C557 1.408 . S
C553 H543 0.930 . S
C553 C552 1.384 . S
C553 C554 1.389 . S
C554 C553 1.389 . S
C554 C555 1.405 . S
C555 H544 0.930 . S
C555 C554 1.405 . S
C555 C556 1.364 . S
C556 C555 1.364 . S
C556 C557 1.400 . S
C557 H545 0.931 . S
C557 C552 1.408 . S
C557 C556 1.400 . S
H558 C564 0.930 . S
H559 C567 0.931 . S
H560 C569 0.931 . S
H561 C571 0.930 . S
H562 C573 0.930 . S
H563 C575 0.931 . S
C564 H558 0.930 . S
C564 C565 1.380 . S
C564 C566 1.394 . S
C565 C564 1.380 . S
C565 C569 1.382 . S
C566 C564 1.394 . S
C566 C567 1.400 . S
C567 H559 0.931 . S
C567 C566 1.400 . S
C567 C568 1.375 . S
C568 C567 1.375 . S
C568 C569 1.415 . S
C568 C570 1.501 . S
C569 H560 0.931 . S
C569 C565 1.382 . S
C569 C568 1.415 . S
C570 C568 1.501 . S
C570 C571 1.384 . S
C570 C575 1.408 . S
C571 H561 0.930 . S
C571 C570 1.384 . S
C571 C572 1.389 . S
C572 C571 1.389 . S
C572 C573 1.405 . S
C573 H562 0.930 . S
C573 C572 1.405 . S
C573 C574 1.364 . S
C574 C573 1.364 . S
C574 C575 1.400 . S
C575 H563 0.931 . S
C575 C570 1.408 . S
C575 C574 1.400 . S
H576 C582 0.930 . S
H577 C586 0.930 . S
H578 C591 0.929 . S
H579 C589 0.929 . S
H580 C584 0.929 . S
H581 C590 0.929 . S
C582 H576 0.930 . S
C582 C583 1.365 1_655 S
C582 C590 1.378 . S
C583 C582 1.365 1_455 S
C583 C591 1.434 . S
C584 H580 0.929 . S
C584 C586 1.378 . S
C584 C588 1.350 1_455 S
C585 C588 1.463 . S
C585 C590 1.350 . S
C585 N593 1.427 1_655 S
C586 H577 0.930 . S
C586 C584 1.378 . S
C586 C587 1.367 1_455 S
C587 C586 1.367 1_655 S
C587 C589 1.433 . S
C588 C584 1.350 1_655 S
C588 C585 1.463 . S
C588 N592 1.427 . S
C589 H579 0.929 . S
C589 C587 1.433 . S
C589 N592 1.384 . S
C590 H581 0.929 . S
C590 C582 1.378 . S
C590 C585 1.350 . S
C591 H578 0.929 . S
C591 C583 1.434 . S
C591 N593 1.384 . S
N592 C588 1.427 . S
N592 C589 1.384 . S
N593 C585 1.427 1_455 S
N593 C591 1.384 . S
H594 C600 0.930 . S
H595 C604 0.930 . S
H596 C609 0.929 . S
H597 C607 0.929 . S
H598 C602 0.929 . S
H599 C608 0.929 . S
C600 H594 0.930 . S
C600 C601 1.367 . S
C600 C608 1.378 . S
C601 C600 1.367 . S
C601 C609 1.433 . S
C602 H598 0.929 . S
C602 C604 1.378 . S
C602 C606 1.350 . S
C603 C606 1.463 . S
C603 C608 1.350 . S
C603 N611 1.427 . S
C604 H595 0.930 . S
C604 C602 1.378 . S
C604 C605 1.367 . S
C605 C604 1.367 . S
C605 C607 1.433 . S
C606 C602 1.350 . S
C606 C603 1.463 . S
C606 N610 1.427 . S
C607 H597 0.929 . S
C607 C605 1.433 . S
C607 N610 1.384 . S
C608 H599 0.929 . S
C608 C600 1.378 . S
C608 C603 1.350 . S
C609 H596 0.929 . S
C609 C601 1.433 . S
C609 N611 1.384 . S
N610 C606 1.427 . S
N610 C607 1.384 . S
N611 C603 1.427 . S
N611 C609 1.384 . S
H612 C618 0.930 . S
H613 C622 0.930 . S
H614 C627 0.929 . S
H615 C625 0.929 . S
H616 C620 0.929 . S
H617 C626 0.929 . S
C618 H612 0.930 . S
C618 C619 1.398 . S
C618 C626 1.378 . S
C619 C618 1.398 . S
C619 C627 1.416 1_565 S
C620 H616 0.929 . S
C620 C622 1.378 . S
C620 C624 1.350 . S
C621 C624 1.463 . S
C621 C626 1.350 1_545 S
C621 N629 1.427 . S
C622 H613 0.930 . S
C622 C620 1.378 . S
C622 C623 1.367 . S
C623 C622 1.367 . S
C623 C625 1.433 1_545 S
C624 C620 1.350 . S
C624 C621 1.463 . S
C624 N628 1.427 1_545 S
C625 H615 0.929 . S
C625 C623 1.433 1_565 S
C625 N628 1.384 . S
C626 H617 0.929 . S
C626 C618 1.378 . S
C626 C621 1.350 1_565 S
C627 H614 0.929 . S
C627 C619 1.416 1_545 S
C627 N629 1.384 . S
N628 C624 1.427 1_565 S
N628 C625 1.384 . S
N629 C621 1.427 . S
N629 C627 1.384 . S
H630 C636 0.930 . S
H631 C640 0.930 . S
H632 C645 0.929 . S
H633 C643 0.929 . S
H634 C638 0.929 . S
H635 C644 0.929 . S
C636 H630 0.930 . S
C636 C637 1.393 . S
C636 C644 1.378 . S
C637 C636 1.393 . S
C637 C645 1.385 1_545 S
C638 H634 0.929 . S
C638 C640 1.378 . S
C638 C642 1.350 . S
C639 C642 1.491 . S
C639 C644 1.299 1_565 S
C639 N647 1.456 . S
C640 H631 0.930 . S
C640 C638 1.378 . S
C640 C641 1.367 . S
C641 C640 1.367 . S
C641 C643 1.433 1_565 S
C642 C638 1.350 . S
C642 C639 1.491 . S
C642 N646 1.427 1_565 S
C643 H633 0.929 . S
C643 C641 1.433 1_545 S
C643 N646 1.384 . S
C644 H635 0.929 . S
C644 C636 1.378 . S
C644 C639 1.299 1_545 S
C645 H632 0.929 . S
C645 C637 1.385 1_565 S
C645 N647 1.384 . S
N646 C642 1.427 1_545 S
N646 C643 1.384 . S
N647 C639 1.456 . S
N647 C645 1.384 . S
H648 C654 0.930 . S
H649 C658 0.930 . S
H650 C663 0.929 . S
H651 C661 0.929 . S
H652 C656 0.929 . S
H653 C662 0.929 . S
C654 H648 0.930 . S
C654 C655 1.408 . S
C654 C662 1.378 . S
C655 C654 1.408 . S
C655 C663 1.407 1_655 S
C656 H652 0.929 . S
C656 C658 1.378 . S
C656 C660 1.350 . S
C657 C660 1.444 . S
C657 C662 1.313 1_455 S
C657 N665 1.488 . S
C658 H649 0.930 . S
C658 C656 1.378 . S
C658 C659 1.367 . S
C659 C658 1.367 . S
C659 C661 1.433 1_455 S
C660 C656 1.350 . S
C660 C657 1.444 . S
C660 N664 1.427 1_455 S
C661 H651 0.929 . S
C661 C659 1.433 1_655 S
C661 N664 1.384 . S
C662 H653 0.929 . S
C662 C654 1.378 . S
C662 C657 1.313 1_655 S
C663 H650 0.929 . S
C663 C655 1.407 1_455 S
C663 N665 1.384 . S
N664 C660 1.427 1_655 S
N664 C661 1.384 . S
N665 C657 1.488 . S
N665 C663 1.384 . S
H666 C672 0.930 . S
H667 C676 0.930 . S
H668 C681 0.929 . S
H669 C679 0.929 . S
H670 C674 0.929 . S
H671 C680 0.929 . S
C672 H666 0.930 . S
C672 C673 1.367 . S
C672 C680 1.378 . S
C673 C672 1.367 . S
C673 C681 1.433 . S
C674 H670 0.929 . S
C674 C676 1.378 . S
C674 C678 1.350 . S
C675 C678 1.463 . S
C675 C680 1.350 . S
C675 N683 1.427 . S
C676 H667 0.930 . S
C676 C674 1.378 . S
C676 C677 1.367 . S
C677 C676 1.367 . S
C677 C679 1.433 . S
C678 C674 1.350 . S
C678 C675 1.463 . S
C678 N682 1.427 . S
C679 H669 0.929 . S
C679 C677 1.433 . S
C679 N682 1.384 . S
C680 H671 0.929 . S
C680 C672 1.378 . S
C680 C675 1.350 . S
C681 H668 0.929 . S
C681 C673 1.433 . S
C681 N683 1.384 . S
N682 C678 1.427 . S
N682 C679 1.384 . S
N683 C675 1.427 . S
N683 C681 1.384 . S
H684 C690 0.930 . S
H685 C694 0.930 . S
H686 C699 0.929 . S
H687 C697 0.929 . S
H688 C692 0.929 . S
H689 C698 0.929 . S
C690 H684 0.930 . S
C690 C691 1.347 1_455 S
C690 C698 1.378 . S
C691 C690 1.347 1_655 S
C691 C699 1.446 . S
C692 H688 0.929 . S
C692 C694 1.378 . S
C692 C696 1.350 . S
C693 C696 1.461 . S
C693 C698 1.348 1_655 S
C693 N701 1.430 . S
C694 H685 0.930 . S
C694 C692 1.378 . S
C694 C695 1.440 . S
C695 C694 1.440 . S
C695 C697 1.389 1_655 S
C696 C692 1.350 . S
C696 C693 1.461 . S
C696 N700 1.427 1_655 S
C697 H687 0.929 . S
C697 C695 1.389 1_455 S
C697 N700 1.384 . S
C698 H689 0.929 . S
C698 C690 1.378 . S
C698 C693 1.348 1_455 S
C699 H686 0.929 . S
C699 C691 1.446 . S
C699 N701 1.384 . S
N700 C696 1.427 1_455 S
N700 C697 1.384 . S
N701 C693 1.430 . S
N701 C699 1.384 . S
H702 C708 0.930 . S
H703 C712 0.930 . S
H704 C717 0.929 . S
H705 C715 0.929 . S
H706 C710 0.929 . S
H707 C716 0.929 . S
C708 H702 0.930 . S
C708 C709 1.367 . S
C708 C716 1.378 . S
C709 C708 1.367 . S
C709 C717 1.433 . S
C710 H706 0.929 . S
C710 C712 1.378 . S
C710 C714 1.350 . S
C711 C714 1.463 . S
C711 C716 1.350 . S
C711 N719 1.427 . S
C712 H703 0.930 . S
C712 C710 1.378 . S
C712 C713 1.367 . S
C713 C712 1.367 . S
C713 C715 1.433 . S
C714 C710 1.350 . S
C714 C711 1.463 . S
C714 N718 1.427 . S
C715 H705 0.929 . S
C715 C713 1.433 . S
C715 N718 1.384 . S
C716 H707 0.929 . S
C716 C708 1.378 . S
C716 C711 1.350 . S
C717 H704 0.929 . S
C717 C709 1.433 . S
C717 N719 1.384 . S
N718 C714 1.427 . S
N718 C715 1.384 . S
N719 C711 1.427 . S
N719 C717 1.384 . S
H720 C726 0.930 . S
H721 C730 0.930 . S
H722 C735 0.929 . S
H723 C733 0.929 . S
H724 C728 0.929 . S
H725 C734 0.929 . S
C726 H720 0.930 . S
C726 C727 1.357 1_565 S
C726 C734 1.378 . S
C727 C726 1.357 1_545 S
C727 C735 1.459 . S
C728 H724 0.929 . S
C728 C730 1.378 . S
C728 C732 1.350 . S
C729 C732 1.473 . S
C729 C734 1.334 1_545 S
C729 N737 1.434 . S
C730 H721 0.930 . S
C730 C728 1.378 . S
C730 C731 1.367 . S
C731 C730 1.367 . S
C731 C733 1.433 1_545 S
C732 C728 1.350 . S
C732 C729 1.473 . S
C732 N736 1.427 1_545 S
C733 H723 0.929 . S
C733 C731 1.433 1_565 S
C733 N736 1.384 . S
C734 H725 0.929 . S
C734 C726 1.378 . S
C734 C729 1.334 1_565 S
C735 H722 0.929 . S
C735 C727 1.459 . S
C735 N737 1.384 . S
N736 C732 1.427 1_565 S
N736 C733 1.384 . S
N737 C729 1.434 . S
N737 C735 1.384 . S
H738 C744 0.930 . S
H739 C748 0.930 . S
H740 C753 0.929 . S
H741 C751 0.929 . S
H742 C746 0.929 . S
H743 C752 0.929 . S
C744 H738 0.930 . S
C744 C745 1.367 . S
C744 C752 1.378 . S
C745 C744 1.367 . S
C745 C753 1.433 1_565 S
C746 H742 0.929 . S
C746 C748 1.378 . S
C746 C750 1.353 1_545 S
C747 C750 1.461 . S
C747 C752 1.350 . S
C747 N755 1.427 1_565 S
C748 H739 0.930 . S
C748 C746 1.378 . S
C748 C749 1.361 1_545 S
C749 C748 1.361 1_565 S
C749 C751 1.442 . S
C750 C746 1.353 1_565 S
C750 C747 1.461 . S
C750 N754 1.425 . S
C751 H741 0.929 . S
C751 C749 1.442 . S
C751 N754 1.384 . S
C752 H743 0.929 . S
C752 C744 1.378 . S
C752 C747 1.350 . S
C753 H740 0.929 . S
C753 C745 1.433 1_545 S
C753 N755 1.384 . S
N754 C750 1.425 . S
N754 C751 1.384 . S
N755 C747 1.427 1_545 S
N755 C753 1.384 . S
H756 C762 0.930 . S
H757 C766 0.930 . S
H758 C771 0.929 . S
H759 C769 0.929 . S
H760 C764 0.929 . S
H761 C770 0.929 . S
C762 H756 0.930 . S
C762 C763 1.352 1_655 S
C762 C770 1.378 . S
C763 C762 1.352 1_455 S
C763 C771 1.473 . S
C764 H760 0.929 . S
C764 C766 1.378 . S
C764 C768 1.350 . S
C765 C768 1.485 . S
C765 C770 1.317 1_455 S
C765 N773 1.443 . S
C766 H757 0.930 . S
C766 C764 1.378 . S
C766 C767 1.387 . S
C767 C766 1.387 . S
C767 C769 1.389 1_455 S
C768 C764 1.350 . S
C768 C765 1.485 . S
C768 N772 1.427 1_455 S
C769 H759 0.929 . S
C769 C767 1.389 1_655 S
C769 N772 1.384 . S
C770 H761 0.929 . S
C770 C762 1.378 . S
C770 C765 1.317 1_655 S
C771 H758 0.929 . S
C771 C763 1.473 . S
C771 N773 1.384 . S
N772 C768 1.427 1_655 S
N772 C769 1.384 . S
N773 C765 1.443 . S
N773 C771 1.384 . S
H774 C780 0.930 . S
H775 C784 0.930 . S
H776 C789 0.929 . S
H777 C787 0.929 . S
H778 C782 0.929 . S
H779 C788 0.929 . S
C780 H774 0.930 . S
C780 C781 1.367 . S
C780 C788 1.378 . S
C781 C780 1.367 . S
C781 C789 1.433 . S
C782 H778 0.929 . S
C782 C784 1.378 . S
C782 C786 1.350 . S
C783 C786 1.463 . S
C783 C788 1.350 . S
C783 N791 1.427 . S
C784 H775 0.930 . S
C784 C782 1.378 . S
C784 C785 1.367 . S
C785 C784 1.367 . S
C785 C787 1.433 . S
C786 C782 1.350 . S
C786 C783 1.463 . S
C786 N790 1.427 . S
C787 H777 0.929 . S
C787 C785 1.433 . S
C787 N790 1.384 . S
C788 H779 0.929 . S
C788 C780 1.378 . S
C788 C783 1.350 . S
C789 H776 0.929 . S
C789 C781 1.433 . S
C789 N791 1.384 . S
N790 C786 1.427 . S
N790 C787 1.384 . S
N791 C783 1.427 . S
N791 C789 1.384 . S
H792 C798 0.930 . S
H793 C802 0.930 . S
H794 C807 0.929 . S
H795 C805 0.929 . S
H796 C800 0.929 . S
H797 C806 0.929 . S
C798 H792 0.930 . S
C798 C799 1.367 . S
C798 C806 1.378 . S
C799 C798 1.367 . S
C799 C807 1.433 . S
C800 H796 0.929 . S
C800 C802 1.378 . S
C800 C804 1.350 . S
C801 C804 1.463 . S
C801 C806 1.350 . S
C801 N809 1.427 . S
C802 H793 0.930 . S
C802 C800 1.378 . S
C802 C803 1.367 . S
C803 C802 1.367 . S
C803 C805 1.433 . S
C804 C800 1.350 . S
C804 C801 1.463 . S
C804 N808 1.427 . S
C805 H795 0.929 . S
C805 C803 1.433 . S
C805 N808 1.384 . S
C806 H797 0.929 . S
C806 C798 1.378 . S
C806 C801 1.350 . S
C807 H794 0.929 . S
C807 C799 1.433 . S
C807 N809 1.384 . S
N808 C804 1.427 . S
N808 C805 1.384 . S
N809 C801 1.427 . S
N809 C807 1.384 . S
H810 C816 0.930 . S
H811 C820 0.930 . S
H812 C825 0.929 . S
H813 C823 0.929 . S
H814 C818 0.929 . S
H815 C824 0.929 . S
C816 H810 0.930 . S
C816 C817 1.367 . S
C816 C824 1.378 . S
C817 C816 1.367 . S
C817 C825 1.433 . S
C818 H814 0.929 . S
C818 C820 1.378 . S
C818 C822 1.350 . S
C819 C822 1.463 . S
C819 C824 1.350 . S
C819 N827 1.427 . S
C820 H811 0.930 . S
C820 C818 1.378 . S
C820 C821 1.367 . S
C821 C820 1.367 . S
C821 C823 1.433 . S
C822 C818 1.350 . S
C822 C819 1.463 . S
C822 N826 1.427 . S
C823 H813 0.929 . S
C823 C821 1.433 . S
C823 N826 1.384 . S
C824 H815 0.929 . S
C824 C816 1.378 . S
C824 C819 1.350 . S
C825 H812 0.929 . S
C825 C817 1.433 . S
C825 N827 1.384 . S
N826 C822 1.427 . S
N826 C823 1.384 . S
N827 C819 1.427 . S
N827 C825 1.384 . S
H828 C834 0.930 . S
H829 C838 0.930 . S
H830 C843 0.929 . S
H831 C841 0.929 . S
H832 C836 0.929 . S
H833 C842 0.929 . S
C834 H828 0.930 . S
C834 C835 1.367 . S
C834 C842 1.378 . S
C835 C834 1.367 . S
C835 C843 1.433 . S
C836 H832 0.929 . S
C836 C838 1.378 . S
C836 C840 1.350 . S
C837 C840 1.463 . S
C837 C842 1.350 . S
C837 N845 1.427 . S
C838 H829 0.930 . S
C838 C836 1.378 . S
C838 C839 1.367 . S
C839 C838 1.367 . S
C839 C841 1.433 . S
C840 C836 1.350 . S
C840 C837 1.463 . S
C840 N844 1.427 . S
C841 H831 0.929 . S
C841 C839 1.433 . S
C841 N844 1.384 . S
C842 H833 0.929 . S
C842 C834 1.378 . S
C842 C837 1.350 . S
C843 H830 0.929 . S
C843 C835 1.433 . S
C843 N845 1.384 . S
N844 C840 1.427 . S
N844 C841 1.384 . S
N845 C837 1.427 . S
N845 C843 1.384 . S
H846 C852 0.930 . S
H847 C856 0.930 . S
H848 C861 0.929 . S
H849 C859 0.929 . S
H850 C854 0.929 . S
H851 C860 0.929 . S
C852 H846 0.930 . S
C852 C853 1.367 . S
C852 C860 1.378 . S
C853 C852 1.367 . S
C853 C861 1.433 . S
C854 H850 0.929 . S
C854 C856 1.378 . S
C854 C858 1.350 . S
C855 C858 1.463 . S
C855 C860 1.350 . S
C855 N863 1.427 . S
C856 H847 0.930 . S
C856 C854 1.378 . S
C856 C857 1.367 . S
C857 C856 1.367 . S
C857 C859 1.433 . S
C858 C854 1.350 . S
C858 C855 1.463 . S
C858 N862 1.427 . S
C859 H849 0.929 . S
C859 C857 1.433 . S
C859 N862 1.384 . S
C860 H851 0.929 . S
C860 C852 1.378 . S
C860 C855 1.350 . S
C861 H848 0.929 . S
C861 C853 1.433 . S
C861 N863 1.384 . S
N862 C858 1.427 . S
N862 C859 1.384 . S
N863 C855 1.427 . S
N863 C861 1.384 . S
H864 C870 0.930 . S
H865 C874 0.930 . S
H866 C879 0.929 . S
H867 C877 0.929 . S
H868 C872 0.929 . S
H869 C878 0.929 . S
C870 H864 0.930 . S
C870 C871 1.367 . S
C870 C878 1.378 . S
C871 C870 1.367 . S
C871 C879 1.433 . S
C872 H868 0.929 . S
C872 C874 1.378 . S
C872 C876 1.350 . S
C873 C876 1.463 . S
C873 C878 1.350 . S
C873 N881 1.427 . S
C874 H865 0.930 . S
C874 C872 1.378 . S
C874 C875 1.367 . S
C875 C874 1.367 . S
C875 C877 1.433 . S
C876 C872 1.350 . S
C876 C873 1.463 . S
C876 N880 1.427 . S
C877 H867 0.929 . S
C877 C875 1.433 . S
C877 N880 1.384 . S
C878 H869 0.929 . S
C878 C870 1.378 . S
C878 C873 1.350 . S
C879 H866 0.929 . S
C879 C871 1.433 . S
C879 N881 1.384 . S
N880 C876 1.427 . S
N880 C877 1.384 . S
N881 C873 1.427 . S
N881 C879 1.384 . S
H882 C888 0.930 . S
H883 C892 0.930 . S
H884 C897 0.929 . S
H885 C895 0.929 . S
H886 C890 0.929 . S
H887 C896 0.929 . S
C888 H882 0.930 . S
C888 C889 1.367 . S
C888 C896 1.378 . S
C889 C888 1.367 . S
C889 C897 1.433 . S
C890 H886 0.929 . S
C890 C892 1.378 . S
C890 C894 1.350 . S
C891 C894 1.463 . S
C891 C896 1.350 . S
C891 N899 1.427 . S
C892 H883 0.930 . S
C892 C890 1.378 . S
C892 C893 1.367 . S
C893 C892 1.367 . S
C893 C895 1.433 . S
C894 C890 1.350 . S
C894 C891 1.463 . S
C894 N898 1.427 . S
C895 H885 0.929 . S
C895 C893 1.433 . S
C895 N898 1.384 . S
C896 H887 0.929 . S
C896 C888 1.378 . S
C896 C891 1.350 . S
C897 H884 0.929 . S
C897 C889 1.433 . S
C897 N899 1.384 . S
N898 C894 1.427 . S
N898 C895 1.384 . S
N899 C891 1.427 . S
N899 C897 1.384 . S
H900 C906 0.930 . S
H901 C910 0.930 . S
H902 C915 0.929 . S
H903 C913 0.929 . S
H904 C908 0.929 . S
H905 C914 0.929 . S
C906 H900 0.930 . S
C906 C907 1.367 . S
C906 C914 1.378 . S
C907 C906 1.367 . S
C907 C915 1.433 . S
C908 H904 0.929 . S
C908 C910 1.378 . S
C908 C912 1.350 . S
C909 C912 1.463 . S
C909 C914 1.350 . S
C909 N917 1.427 . S
C910 H901 0.930 . S
C910 C908 1.378 . S
C910 C911 1.367 . S
C911 C910 1.367 . S
C911 C913 1.433 . S
C912 C908 1.350 . S
C912 C909 1.463 . S
C912 N916 1.427 . S
C913 H903 0.929 . S
C913 C911 1.433 . S
C913 N916 1.384 . S
C914 H905 0.929 . S
C914 C906 1.378 . S
C914 C909 1.350 . S
C915 H902 0.929 . S
C915 C907 1.433 . S
C915 N917 1.384 . S
N916 C912 1.427 . S
N916 C913 1.384 . S
N917 C909 1.427 . S
N917 C915 1.384 . S
H918 C924 0.930 . S
H919 C928 0.930 . S
H920 C933 0.929 . S
H921 C931 0.929 . S
H922 C926 0.929 . S
H923 C932 0.929 . S
C924 H918 0.930 . S
C924 C925 1.367 . S
C924 C932 1.378 . S
C925 C924 1.367 . S
C925 C933 1.433 . S
C926 H922 0.929 . S
C926 C928 1.378 . S
C926 C930 1.350 . S
C927 C930 1.463 . S
C927 C932 1.350 . S
C927 N935 1.427 . S
C928 H919 0.930 . S
C928 C926 1.378 . S
C928 C929 1.367 . S
C929 C928 1.367 . S
C929 C931 1.433 . S
C930 C926 1.350 . S
C930 C927 1.463 . S
C930 N934 1.427 . S
C931 H921 0.929 . S
C931 C929 1.433 . S
C931 N934 1.384 . S
C932 H923 0.929 . S
C932 C924 1.378 . S
C932 C927 1.350 . S
C933 H920 0.929 . S
C933 C925 1.433 . S
C933 N935 1.384 . S
N934 C930 1.427 . S
N934 C931 1.384 . S
N935 C927 1.427 . S
N935 C933 1.384 . S
H936 C942 0.930 . S
H937 C946 0.930 . S
H938 C951 0.929 . S
H939 C949 0.929 . S
H940 C944 0.929 . S
H941 C950 0.929 . S
C942 H936 0.930 . S
C942 C943 1.367 . S
C942 C950 1.378 . S
C943 C942 1.367 . S
C943 C951 1.433 . S
C944 H940 0.929 . S
C944 C946 1.378 . S
C944 C948 1.350 . S
C945 C948 1.463 . S
C945 C950 1.350 . S
C945 N953 1.427 . S
C946 H937 0.930 . S
C946 C944 1.378 . S
C946 C947 1.367 . S
C947 C946 1.367 . S
C947 C949 1.433 . S
C948 C944 1.350 . S
C948 C945 1.463 . S
C948 N952 1.427 . S
C949 H939 0.929 . S
C949 C947 1.433 . S
C949 N952 1.384 . S
C950 H941 0.929 . S
C950 C942 1.378 . S
C950 C945 1.350 . S
C951 H938 0.929 . S
C951 C943 1.433 . S
C951 N953 1.384 . S
N952 C948 1.427 . S
N952 C949 1.384 . S
N953 C945 1.427 . S
N953 C951 1.384 . S
H954 C960 0.930 . S
H955 C964 0.930 . S
H956 C969 0.929 . S
H957 C967 0.929 . S
H958 C962 0.929 . S
H959 C968 0.929 . S
C960 H954 0.930 . S
C960 C961 1.367 . S
C960 C968 1.378 . S
C961 C960 1.367 . S
C961 C969 1.433 . S
C962 H958 0.929 . S
C962 C964 1.378 . S
C962 C966 1.350 . S
C963 C966 1.463 . S
C963 C968 1.350 . S
C963 N971 1.427 . S
C964 H955 0.930 . S
C964 C962 1.378 . S
C964 C965 1.367 . S
C965 C964 1.367 . S
C965 C967 1.433 . S
C966 C962 1.350 . S
C966 C963 1.463 . S
C966 N970 1.427 . S
C967 H957 0.929 . S
C967 C965 1.433 . S
C967 N970 1.384 . S
C968 H959 0.929 . S
C968 C960 1.378 . S
C968 C963 1.350 . S
C969 H956 0.929 . S
C969 C961 1.433 . S
C969 N971 1.384 . S
N970 C966 1.427 . S
N970 C967 1.384 . S
N971 C963 1.427 . S
N971 C969 1.384 . S
H972 C978 0.930 . S
H973 C982 0.930 . S
H974 C987 0.929 . S
H975 C985 0.929 . S
H976 C980 0.929 . S
H977 C986 0.929 . S
C978 H972 0.930 . S
C978 C979 1.367 . S
C978 C986 1.378 . S
C979 C978 1.367 . S
C979 C987 1.433 . S
C980 H976 0.929 . S
C980 C982 1.378 . S
C980 C984 1.350 . S
C981 C984 1.463 . S
C981 C986 1.350 . S
C981 N989 1.427 . S
C982 H973 0.930 . S
C982 C980 1.378 . S
C982 C983 1.367 . S
C983 C982 1.367 . S
C983 C985 1.433 . S
C984 C980 1.350 . S
C984 C981 1.463 . S
C984 N988 1.427 . S
C985 H975 0.929 . S
C985 C983 1.433 . S
C985 N988 1.384 . S
C986 H977 0.929 . S
C986 C978 1.378 . S
C986 C981 1.350 . S
C987 H974 0.929 . S
C987 C979 1.433 . S
C987 N989 1.384 . S
N988 C984 1.427 . S
N988 C985 1.384 . S
N989 C981 1.427 . S
N989 C987 1.384 . S
H990 C996 0.930 . S
H991 C1000 0.930 . S
H992 C1005 0.929 . S
H993 C1003 0.929 . S
H994 C998 0.929 . S
H995 C1004 0.929 . S
C996 H990 0.930 . S
C996 C997 1.367 . S
C996 C1004 1.378 . S
C997 C996 1.367 . S
C997 C1005 1.433 . S
C998 H994 0.929 . S
C998 C1000 1.378 . S
C998 C1002 1.350 . S
C999 C1002 1.463 . S
C999 C1004 1.350 . S
C999 N1007 1.427 . S
C1000 H991 0.930 . S
C1000 C998 1.378 . S
C1000 C1001 1.367 . S
C1001 C1000 1.367 . S
C1001 C1003 1.433 . S
C1002 C998 1.350 . S
C1002 C999 1.463 . S
C1002 N1006 1.427 . S
C1003 H993 0.929 . S
C1003 C1001 1.433 . S
C1003 N1006 1.384 . S
C1004 H995 0.929 . S
C1004 C996 1.378 . S
C1004 C999 1.350 . S
C1005 H992 0.929 . S
C1005 C997 1.433 . S
C1005 N1007 1.384 . S
N1006 C1002 1.427 . S
N1006 C1003 1.384 . S
N1007 C999 1.427 . S
N1007 C1005 1.384 . S
H1008 C1014 0.930 . S
H1009 C1018 0.930 . S
H1010 C1023 0.929 . S
H1011 C1021 0.929 . S
H1012 C1016 0.929 . S
H1013 C1022 0.929 . S
C1014 H1008 0.930 . S
C1014 C1015 1.367 . S
C1014 C1022 1.378 . S
C1015 C1014 1.367 . S
C1015 C1023 1.433 . S
C1016 H1012 0.929 . S
C1016 C1018 1.378 . S
C1016 C1020 1.350 . S
C1017 C1020 1.463 . S
C1017 C1022 1.350 . S
C1017 N1025 1.427 . S
C1018 H1009 0.930 . S
C1018 C1016 1.378 . S
C1018 C1019 1.367 . S
C1019 C1018 1.367 . S
C1019 C1021 1.433 . S
C1020 C1016 1.350 . S
C1020 C1017 1.463 . S
C1020 N1024 1.427 . S
C1021 H1011 0.929 . S
C1021 C1019 1.433 . S
C1021 N1024 1.384 . S
C1022 H1013 0.929 . S
C1022 C1014 1.378 . S
C1022 C1017 1.350 . S
C1023 H1010 0.929 . S
C1023 C1015 1.433 . S
C1023 N1025 1.384 . S
N1024 C1020 1.427 . S
N1024 C1021 1.384 . S
N1025 C1017 1.427 . S
N1025 C1023 1.384 . S
H1026 C1032 0.930 . S
H1027 C1036 0.930 . S
H1028 C1041 0.929 . S
H1029 C1039 0.929 . S
H1030 C1034 0.929 . S
H1031 C1040 0.929 . S
C1032 H1026 0.930 . S
C1032 C1033 1.367 . S
C1032 C1040 1.378 . S
C1033 C1032 1.367 . S
C1033 C1041 1.433 . S
C1034 H1030 0.929 . S
C1034 C1036 1.378 . S
C1034 C1038 1.350 . S
C1035 C1038 1.463 . S
C1035 C1040 1.350 . S
C1035 N1043 1.427 . S
C1036 H1027 0.930 . S
C1036 C1034 1.378 . S
C1036 C1037 1.367 . S
C1037 C1036 1.367 . S
C1037 C1039 1.433 . S
C1038 C1034 1.350 . S
C1038 C1035 1.463 . S
C1038 N1042 1.427 . S
C1039 H1029 0.929 . S
C1039 C1037 1.433 . S
C1039 N1042 1.384 . S
C1040 H1031 0.929 . S
C1040 C1032 1.378 . S
C1040 C1035 1.350 . S
C1041 H1028 0.929 . S
C1041 C1033 1.433 . S
C1041 N1043 1.384 . S
N1042 C1038 1.427 . S
N1042 C1039 1.384 . S
N1043 C1035 1.427 . S
N1043 C1041 1.384 . S
H1044 C1050 0.930 . S
H1045 C1054 0.930 . S
H1046 C1059 0.929 . S
H1047 C1057 0.929 . S
H1048 C1052 0.929 . S
H1049 C1058 0.929 . S
C1050 H1044 0.930 . S
C1050 C1051 1.367 . S
C1050 C1058 1.378 . S
C1051 C1050 1.367 . S
C1051 C1059 1.433 . S
C1052 H1048 0.929 . S
C1052 C1054 1.378 . S
C1052 C1056 1.350 . S
C1053 C1056 1.463 . S
C1053 C1058 1.350 . S
C1053 N1061 1.427 . S
C1054 H1045 0.930 . S
C1054 C1052 1.378 . S
C1054 C1055 1.367 . S
C1055 C1054 1.367 . S
C1055 C1057 1.433 . S
C1056 C1052 1.350 . S
C1056 C1053 1.463 . S
C1056 N1060 1.427 . S
C1057 H1047 0.929 . S
C1057 C1055 1.433 . S
C1057 N1060 1.384 . S
C1058 H1049 0.929 . S
C1058 C1050 1.378 . S
C1058 C1053 1.350 . S
C1059 H1046 0.929 . S
C1059 C1051 1.433 . S
C1059 N1061 1.384 . S
N1060 C1056 1.427 . S
N1060 C1057 1.384 . S
N1061 C1053 1.427 . S
N1061 C1059 1.384 . S
H1062 C1068 0.930 . S
H1063 C1072 0.930 . S
H1064 C1077 0.929 . S
H1065 C1075 0.929 . S
H1066 C1070 0.929 . S
H1067 C1076 0.929 . S
C1068 H1062 0.930 . S
C1068 C1069 1.367 . S
C1068 C1076 1.378 . S
C1069 C1068 1.367 . S
C1069 C1077 1.433 . S
C1070 H1066 0.929 . S
C1070 C1072 1.378 . S
C1070 C1074 1.350 . S
C1071 C1074 1.463 . S
C1071 C1076 1.350 . S
C1071 N1079 1.427 . S
C1072 H1063 0.930 . S
C1072 C1070 1.378 . S
C1072 C1073 1.367 . S
C1073 C1072 1.367 . S
C1073 C1075 1.433 . S
C1074 C1070 1.350 . S
C1074 C1071 1.463 . S
C1074 N1078 1.427 . S
C1075 H1065 0.929 . S
C1075 C1073 1.433 . S
C1075 N1078 1.384 . S
C1076 H1067 0.929 . S
C1076 C1068 1.378 . S
C1076 C1071 1.350 . S
C1077 H1064 0.929 . S
C1077 C1069 1.433 . S
C1077 N1079 1.384 . S
N1078 C1074 1.427 . S
N1078 C1075 1.384 . S
N1079 C1071 1.427 . S
N1079 C1077 1.384 . S
H1080 C1086 0.930 . S
H1081 C1090 0.930 . S
H1082 C1095 0.929 . S
H1083 C1093 0.929 . S
H1084 C1088 0.929 . S
H1085 C1094 0.929 . S
C1086 H1080 0.930 . S
C1086 C1087 1.367 . S
C1086 C1094 1.378 . S
C1087 C1086 1.367 . S
C1087 C1095 1.433 . S
C1088 H1084 0.929 . S
C1088 C1090 1.378 . S
C1088 C1092 1.350 . S
C1089 C1092 1.463 . S
C1089 C1094 1.350 . S
C1089 N1097 1.427 . S
C1090 H1081 0.930 . S
C1090 C1088 1.378 . S
C1090 C1091 1.367 . S
C1091 C1090 1.367 . S
C1091 C1093 1.433 . S
C1092 C1088 1.350 . S
C1092 C1089 1.463 . S
C1092 N1096 1.427 . S
C1093 H1083 0.929 . S
C1093 C1091 1.433 . S
C1093 N1096 1.384 . S
C1094 H1085 0.929 . S
C1094 C1086 1.378 . S
C1094 C1089 1.350 . S
C1095 H1082 0.929 . S
C1095 C1087 1.433 . S
C1095 N1097 1.384 . S
N1096 C1092 1.427 . S
N1096 C1093 1.384 . S
N1097 C1089 1.427 . S
N1097 C1095 1.384 . S
H1098 C1104 0.930 . S
H1099 C1108 0.930 . S
H1100 C1113 0.929 . S
H1101 C1111 0.929 . S
H1102 C1106 0.929 . S
H1103 C1112 0.929 . S
C1104 H1098 0.930 . S
C1104 C1105 1.367 . S
C1104 C1112 1.378 . S
C1105 C1104 1.367 . S
C1105 C1113 1.433 . S
C1106 H1102 0.929 . S
C1106 C1108 1.378 . S
C1106 C1110 1.350 . S
C1107 C1110 1.463 . S
C1107 C1112 1.350 . S
C1107 N1115 1.427 . S
C1108 H1099 0.930 . S
C1108 C1106 1.378 . S
C1108 C1109 1.367 . S
C1109 C1108 1.367 . S
C1109 C1111 1.433 . S
C1110 C1106 1.350 . S
C1110 C1107 1.463 . S
C1110 N1114 1.427 . S
C1111 H1101 0.929 . S
C1111 C1109 1.433 . S
C1111 N1114 1.384 . S
C1112 H1103 0.929 . S
C1112 C1104 1.378 . S
C1112 C1107 1.350 . S
C1113 H1100 0.929 . S
C1113 C1105 1.433 . S
C1113 N1115 1.384 . S
N1114 C1110 1.427 . S
N1114 C1111 1.384 . S
N1115 C1107 1.427 . S
N1115 C1113 1.384 . S
H1116 C1122 0.930 . S
H1117 C1126 0.930 . S
H1118 C1131 0.929 . S
H1119 C1129 0.929 . S
H1120 C1124 0.929 . S
H1121 C1130 0.929 . S
C1122 H1116 0.930 . S
C1122 C1123 1.367 . S
C1122 C1130 1.378 . S
C1123 C1122 1.367 . S
C1123 C1131 1.433 . S
C1124 H1120 0.929 . S
C1124 C1126 1.378 . S
C1124 C1128 1.350 . S
C1125 C1128 1.463 . S
C1125 C1130 1.350 . S
C1125 N1133 1.427 . S
C1126 H1117 0.930 . S
C1126 C1124 1.378 . S
C1126 C1127 1.367 . S
C1127 C1126 1.367 . S
C1127 C1129 1.433 . S
C1128 C1124 1.350 . S
C1128 C1125 1.463 . S
C1128 N1132 1.427 . S
C1129 H1119 0.929 . S
C1129 C1127 1.433 . S
C1129 N1132 1.384 . S
C1130 H1121 0.929 . S
C1130 C1122 1.378 . S
C1130 C1125 1.350 . S
C1131 H1118 0.929 . S
C1131 C1123 1.433 . S
C1131 N1133 1.384 . S
N1132 C1128 1.427 . S
N1132 C1129 1.384 . S
N1133 C1125 1.427 . S
N1133 C1131 1.384 . S
H1134 C1140 0.930 . S
H1135 C1144 0.930 . S
H1136 C1149 0.929 . S
H1137 C1147 0.929 . S
H1138 C1142 0.929 . S
H1139 C1148 0.929 . S
C1140 H1134 0.930 . S
C1140 C1141 1.367 . S
C1140 C1148 1.378 . S
C1141 C1140 1.367 . S
C1141 C1149 1.433 . S
C1142 H1138 0.929 . S
C1142 C1144 1.378 . S
C1142 C1146 1.350 . S
C1143 C1146 1.463 . S
C1143 C1148 1.350 . S
C1143 N1151 1.427 . S
C1144 H1135 0.930 . S
C1144 C1142 1.378 . S
C1144 C1145 1.367 . S
C1145 C1144 1.367 . S
C1145 C1147 1.433 . S
C1146 C1142 1.350 . S
C1146 C1143 1.463 . S
C1146 N1150 1.427 . S
C1147 H1137 0.929 . S
C1147 C1145 1.433 . S
C1147 N1150 1.384 . S
C1148 H1139 0.929 . S
C1148 C1140 1.378 . S
C1148 C1143 1.350 . S
C1149 H1136 0.929 . S
C1149 C1141 1.433 . S
C1149 N1151 1.384 . S
N1150 C1146 1.427 . S
N1150 C1147 1.384 . S
N1151 C1143 1.427 . S
N1151 C1149 1.384 . S
H1152 C1158 0.930 . S
H1153 C1162 0.930 . S
H1154 C1167 0.929 . S
H1155 C1165 0.929 . S
H1156 C1160 0.929 . S
H1157 C1166 0.929 . S
C1158 H1152 0.930 . S
C1158 C1159 1.367 . S
C1158 C1166 1.378 . S
C1159 C1158 1.367 . S
C1159 C1167 1.433 . S
C1160 H1156 0.929 . S
C1160 C1162 1.378 . S
C1160 C1164 1.350 . S
C1161 C1164 1.463 . S
C1161 C1166 1.350 . S
C1161 N1169 1.427 . S
C1162 H1153 0.930 . S
C1162 C1160 1.378 . S
C1162 C1163 1.367 . S
C1163 C1162 1.367 . S
C1163 C1165 1.433 . S
C1164 C1160 1.350 . S
C1164 C1161 1.463 . S
C1164 N1168 1.427 . S
C1165 H1155 0.929 . S
C1165 C1163 1.433 . S
C1165 N1168 1.384 . S
C1166 H1157 0.929 . S
C1166 C1158 1.378 . S
C1166 C1161 1.350 . S
C1167 H1154 0.929 . S
C1167 C1159 1.433 . S
C1167 N1169 1.384 . S
N1168 C1164 1.427 . S
N1168 C1165 1.384 . S
N1169 C1161 1.427 . S
N1169 C1167 1.384 . S
H1170 C1176 0.930 . S
H1171 C1180 0.930 . S
H1172 C1185 0.929 . S
H1173 C1183 0.929 . S
H1174 C1178 0.929 . S
H1175 C1184 0.929 . S
C1176 H1170 0.930 . S
C1176 C1177 1.367 . S
C1176 C1184 1.378 . S
C1177 C1176 1.367 . S
C1177 C1185 1.433 . S
C1178 H1174 0.929 . S
C1178 C1180 1.378 . S
C1178 C1182 1.350 . S
C1179 C1182 1.463 . S
C1179 C1184 1.350 . S
C1179 N1187 1.427 . S
C1180 H1171 0.930 . S
C1180 C1178 1.378 . S
C1180 C1181 1.367 . S
C1181 C1180 1.367 . S
C1181 C1183 1.433 . S
C1182 C1178 1.350 . S
C1182 C1179 1.463 . S
C1182 N1186 1.427 . S
C1183 H1173 0.929 . S
C1183 C1181 1.433 . S
C1183 N1186 1.384 . S
C1184 H1175 0.929 . S
C1184 C1176 1.378 . S
C1184 C1179 1.350 . S
C1185 H1172 0.929 . S
C1185 C1177 1.433 . S
C1185 N1187 1.384 . S
N1186 C1182 1.427 . S
N1186 C1183 1.384 . S
N1187 C1179 1.427 . S
N1187 C1185 1.384 . S
H1188 C1194 0.930 . S
H1189 C1198 0.930 . S
H1190 C1203 0.929 . S
H1191 C1201 0.929 . S
H1192 C1196 0.929 . S
H1193 C1202 0.929 . S
C1194 H1188 0.930 . S
C1194 C1195 1.367 . S
C1194 C1202 1.378 . S
C1195 C1194 1.367 . S
C1195 C1203 1.433 . S
C1196 H1192 0.929 . S
C1196 C1198 1.378 . S
C1196 C1200 1.350 . S
C1197 C1200 1.463 . S
C1197 C1202 1.350 . S
C1197 N1205 1.427 . S
C1198 H1189 0.930 . S
C1198 C1196 1.378 . S
C1198 C1199 1.367 . S
C1199 C1198 1.367 . S
C1199 C1201 1.433 . S
C1200 C1196 1.350 . S
C1200 C1197 1.463 . S
C1200 N1204 1.427 . S
C1201 H1191 0.929 . S
C1201 C1199 1.433 . S
C1201 N1204 1.384 . S
C1202 H1193 0.929 . S
C1202 C1194 1.378 . S
C1202 C1197 1.350 . S
C1203 H1190 0.929 . S
C1203 C1195 1.433 . S
C1203 N1205 1.384 . S
N1204 C1200 1.427 . S
N1204 C1201 1.384 . S
N1205 C1197 1.427 . S
N1205 C1203 1.384 . S
H1206 C1212 0.930 . S
H1207 C1216 0.930 . S
H1208 C1221 0.929 . S
H1209 C1219 0.929 . S
H1210 C1214 0.929 . S
H1211 C1220 0.929 . S
C1212 H1206 0.930 . S
C1212 C1213 1.367 . S
C1212 C1220 1.378 . S
C1213 C1212 1.367 . S
C1213 C1221 1.433 . S
C1214 H1210 0.929 . S
C1214 C1216 1.378 . S
C1214 C1218 1.350 . S
C1215 C1218 1.463 . S
C1215 C1220 1.350 . S
C1215 N1223 1.427 . S
C1216 H1207 0.930 . S
C1216 C1214 1.378 . S
C1216 C1217 1.367 . S
C1217 C1216 1.367 . S
C1217 C1219 1.433 . S
C1218 C1214 1.350 . S
C1218 C1215 1.463 . S
C1218 N1222 1.427 . S
C1219 H1209 0.929 . S
C1219 C1217 1.433 . S
C1219 N1222 1.384 . S
C1220 H1211 0.929 . S
C1220 C1212 1.378 . S
C1220 C1215 1.350 . S
C1221 H1208 0.929 . S
C1221 C1213 1.433 . S
C1221 N1223 1.384 . S
N1222 C1218 1.427 . S
N1222 C1219 1.384 . S
N1223 C1215 1.427 . S
N1223 C1221 1.384 . S
H1224 C1230 0.930 . S
H1225 C1234 0.930 . S
H1226 C1239 0.929 . S
H1227 C1237 0.929 . S
H1228 C1232 0.929 . S
H1229 C1238 0.929 . S
C1230 H1224 0.930 . S
C1230 C1231 1.367 . S
C1230 C1238 1.378 . S
C1231 C1230 1.367 . S
C1231 C1239 1.433 . S
C1232 H1228 0.929 . S
C1232 C1234 1.378 . S
C1232 C1236 1.350 . S
C1233 C1236 1.463 . S
C1233 C1238 1.350 . S
C1233 N1241 1.427 . S
C1234 H1225 0.930 . S
C1234 C1232 1.378 . S
C1234 C1235 1.367 . S
C1235 C1234 1.367 . S
C1235 C1237 1.433 . S
C1236 C1232 1.350 . S
C1236 C1233 1.463 . S
C1236 N1240 1.427 . S
C1237 H1227 0.929 . S
C1237 C1235 1.433 . S
C1237 N1240 1.384 . S
C1238 H1229 0.929 . S
C1238 C1230 1.378 . S
C1238 C1233 1.350 . S
C1239 H1226 0.929 . S
C1239 C1231 1.433 . S
C1239 N1241 1.384 . S
N1240 C1236 1.427 . S
N1240 C1237 1.384 . S
N1241 C1233 1.427 . S
N1241 C1239 1.384 . S
H1242 C1248 0.930 . S
H1243 C1252 0.930 . S
H1244 C1257 0.929 . S
H1245 C1255 0.929 . S
H1246 C1250 0.929 . S
H1247 C1256 0.929 . S
C1248 H1242 0.930 . S
C1248 C1249 1.367 . S
C1248 C1256 1.378 . S
C1249 C1248 1.367 . S
C1249 C1257 1.433 . S
C1250 H1246 0.929 . S
C1250 C1252 1.378 . S
C1250 C1254 1.350 . S
C1251 C1254 1.463 . S
C1251 C1256 1.350 . S
C1251 N1259 1.427 . S
C1252 H1243 0.930 . S
C1252 C1250 1.378 . S
C1252 C1253 1.367 . S
C1253 C1252 1.367 . S
C1253 C1255 1.433 . S
C1254 C1250 1.350 . S
C1254 C1251 1.463 . S
C1254 N1258 1.427 . S
C1255 H1245 0.929 . S
C1255 C1253 1.433 . S
C1255 N1258 1.384 . S
C1256 H1247 0.929 . S
C1256 C1248 1.378 . S
C1256 C1251 1.350 . S
C1257 H1244 0.929 . S
C1257 C1249 1.433 . S
C1257 N1259 1.384 . S
N1258 C1254 1.427 . S
N1258 C1255 1.384 . S
N1259 C1251 1.427 . S
N1259 C1257 1.384 . S
H1260 C1266 0.930 . S
H1261 C1270 0.930 . S
H1262 C1275 0.929 . S
H1263 C1273 0.929 . S
H1264 C1268 0.929 . S
H1265 C1274 0.929 . S
C1266 H1260 0.930 . S
C1266 C1267 1.367 . S
C1266 C1274 1.378 . S
C1267 C1266 1.367 . S
C1267 C1275 1.433 . S
C1268 H1264 0.929 . S
C1268 C1270 1.378 . S
C1268 C1272 1.350 . S
C1269 C1272 1.463 . S
C1269 C1274 1.350 . S
C1269 N1277 1.427 . S
C1270 H1261 0.930 . S
C1270 C1268 1.378 . S
C1270 C1271 1.367 . S
C1271 C1270 1.367 . S
C1271 C1273 1.433 . S
C1272 C1268 1.350 . S
C1272 C1269 1.463 . S
C1272 N1276 1.427 . S
C1273 H1263 0.929 . S
C1273 C1271 1.433 . S
C1273 N1276 1.384 . S
C1274 H1265 0.929 . S
C1274 C1266 1.378 . S
C1274 C1269 1.350 . S
C1275 H1262 0.929 . S
C1275 C1267 1.433 . S
C1275 N1277 1.384 . S
N1276 C1272 1.427 . S
N1276 C1273 1.384 . S
N1277 C1269 1.427 . S
N1277 C1275 1.384 . S
H1278 C1284 0.930 1_554 S
H1279 C1288 0.930 . S
H1280 C1293 0.929 . S
H1281 C1291 0.929 . S
H1282 C1286 0.929 . S
H1283 C1292 0.929 . S
C1284 H1278 0.930 1_556 S
C1284 C1285 1.367 . S
C1284 C1292 1.378 . S
C1285 C1284 1.367 . S
C1285 C1293 1.433 . S
C1286 H1282 0.929 . S
C1286 C1288 1.378 . S
C1286 C1290 1.350 . S
C1287 C1290 1.463 . S
C1287 C1292 1.350 . S
C1287 N1295 1.427 . S
C1288 H1279 0.930 . S
C1288 C1286 1.378 . S
C1288 C1289 1.367 . S
C1289 C1288 1.367 . S
C1289 C1291 1.433 . S
C1290 C1286 1.350 . S
C1290 C1287 1.463 . S
C1290 N1294 1.427 . S
C1291 H1281 0.929 . S
C1291 C1289 1.433 . S
C1291 N1294 1.384 . S
C1292 H1283 0.929 . S
C1292 C1284 1.378 . S
C1292 C1287 1.350 . S
C1293 H1280 0.929 . S
C1293 C1285 1.433 . S
C1293 N1295 1.384 . S
N1294 C1290 1.427 . S
N1294 C1291 1.384 . S
N1295 C1287 1.427 . S
N1295 C1293 1.384 . S
H1296 C1302 0.943 . S
H1297 C1306 0.930 . S
H1298 C1311 0.929 . S
H1299 C1309 0.929 . S
H1300 C1304 0.929 . S
H1301 C1310 0.929 . S
C1302 H1296 0.943 . S
C1302 C1303 1.367 . S
C1302 C1310 1.378 . S
C1303 C1302 1.367 . S
C1303 C1311 1.433 . S
C1304 H1300 0.929 . S
C1304 C1306 1.378 . S
C1304 C1308 1.350 . S
C1305 C1308 1.463 . S
C1305 C1310 1.350 . S
C1305 N1313 1.427 . S
C1306 H1297 0.930 . S
C1306 C1304 1.378 . S
C1306 C1307 1.367 . S
C1307 C1306 1.367 . S
C1307 C1309 1.433 . S
C1308 C1304 1.350 . S
C1308 C1305 1.463 . S
C1308 N1312 1.427 . S
C1309 H1299 0.929 . S
C1309 C1307 1.433 . S
C1309 N1312 1.384 . S
C1310 H1301 0.929 . S
C1310 C1302 1.378 . S
C1310 C1305 1.350 . S
C1311 H1298 0.929 . S
C1311 C1303 1.433 . S
C1311 N1313 1.384 . S
N1312 C1308 1.427 . S
N1312 C1309 1.384 . S
N1313 C1305 1.427 . S
N1313 C1311 1.384 . S
H1314 C1320 0.930 . S
H1315 C1324 0.930 . S
H1316 C1329 0.929 1_554 S
H1317 C1327 0.929 . S
H1318 C1322 0.929 . S
H1319 C1328 0.929 . S
C1320 H1314 0.930 . S
C1320 C1321 1.367 . S
C1320 C1328 1.378 . S
C1321 C1320 1.367 . S
C1321 C1329 1.433 . S
C1322 H1318 0.929 . S
C1322 C1324 1.378 . S
C1322 C1326 1.350 . S
C1323 C1326 1.463 . S
C1323 C1328 1.350 . S
C1323 N1331 1.427 . S
C1324 H1315 0.930 . S
C1324 C1322 1.378 . S
C1324 C1325 1.367 . S
C1325 C1324 1.367 . S
C1325 C1327 1.433 . S
C1326 C1322 1.350 . S
C1326 C1323 1.463 . S
C1326 N1330 1.427 . S
C1327 H1317 0.929 . S
C1327 C1325 1.433 . S
C1327 N1330 1.384 . S
C1328 H1319 0.929 . S
C1328 C1320 1.378 . S
C1328 C1323 1.350 . S
C1329 H1316 0.929 1_556 S
C1329 C1321 1.433 . S
C1329 N1331 1.384 . S
N1330 C1326 1.427 . S
N1330 C1327 1.384 . S
N1331 C1323 1.427 . S
N1331 C1329 1.384 . S
H1332 C1338 0.930 . S
H1333 C1342 0.930 . S
H1334 C1347 0.929 1_554 S
H1335 C1345 0.929 . S
H1336 C1340 0.929 . S
H1337 C1346 0.929 . S
C1338 H1332 0.930 . S
C1338 C1339 1.367 . S
C1338 C1346 1.378 . S
C1339 C1338 1.367 . S
C1339 C1347 1.433 . S
C1340 H1336 0.929 . S
C1340 C1342 1.378 . S
C1340 C1344 1.350 . S
C1341 C1344 1.463 . S
C1341 C1346 1.350 . S
C1341 N1349 1.427 . S
C1342 H1333 0.930 . S
C1342 C1340 1.378 . S
C1342 C1343 1.367 . S
C1343 C1342 1.367 . S
C1343 C1345 1.433 . S
C1344 C1340 1.350 . S
C1344 C1341 1.463 . S
C1344 N1348 1.427 . S
C1345 H1335 0.929 . S
C1345 C1343 1.433 . S
C1345 N1348 1.384 . S
C1346 H1337 0.929 . S
C1346 C1338 1.378 . S
C1346 C1341 1.350 . S
C1347 H1334 0.929 1_556 S
C1347 C1339 1.433 . S
C1347 N1349 1.384 . S
N1348 C1344 1.427 . S
N1348 C1345 1.384 . S
N1349 C1341 1.427 . S
N1349 C1347 1.384 . S
H1350 C1356 0.930 1_554 S
H1351 C1360 0.930 . S
H1352 C1365 0.929 . S
H1353 C1363 0.929 . S
H1354 C1358 0.929 . S
H1355 C1364 0.929 . S
C1356 H1350 0.930 1_556 S
C1356 C1357 1.367 . S
C1356 C1364 1.378 . S
C1357 C1356 1.367 . S
C1357 C1365 1.433 . S
C1358 H1354 0.929 . S
C1358 C1360 1.378 . S
C1358 C1362 1.350 . S
C1359 C1362 1.463 . S
C1359 C1364 1.350 . S
C1359 N1367 1.427 . S
C1360 H1351 0.930 . S
C1360 C1358 1.378 . S
C1360 C1361 1.367 . S
C1361 C1360 1.367 . S
C1361 C1363 1.433 . S
C1362 C1358 1.350 . S
C1362 C1359 1.463 . S
C1362 N1366 1.427 . S
C1363 H1353 0.929 . S
C1363 C1361 1.433 . S
C1363 N1366 1.384 . S
C1364 H1355 0.929 . S
C1364 C1356 1.378 . S
C1364 C1359 1.350 . S
C1365 H1352 0.929 . S
C1365 C1357 1.433 . S
C1365 N1367 1.384 . S
N1366 C1362 1.427 . S
N1366 C1363 1.384 . S
N1367 C1359 1.427 . S
N1367 C1365 1.384 . S
H1368 C1374 0.930 . S
H1369 C1378 0.930 . S
H1370 C1383 0.929 . S
H1371 C1381 0.929 . S
H1372 C1376 0.929 . S
H1373 C1382 0.929 . S
C1374 H1368 0.930 . S
C1374 C1375 1.367 . S
C1374 C1382 1.378 . S
C1375 C1374 1.367 . S
C1375 C1383 1.433 . S
C1376 H1372 0.929 . S
C1376 C1378 1.378 . S
C1376 C1380 1.350 . S
C1377 C1380 1.463 . S
C1377 C1382 1.350 . S
C1377 N1385 1.427 . S
C1378 H1369 0.930 . S
C1378 C1376 1.378 . S
C1378 C1379 1.367 . S
C1379 C1378 1.367 . S
C1379 C1381 1.433 . S
C1380 C1376 1.350 . S
C1380 C1377 1.463 . S
C1380 N1384 1.427 . S
C1381 H1371 0.929 . S
C1381 C1379 1.433 . S
C1381 N1384 1.384 . S
C1382 H1373 0.929 . S
C1382 C1374 1.378 . S
C1382 C1377 1.350 . S
C1383 H1370 0.929 . S
C1383 C1375 1.433 . S
C1383 N1385 1.384 . S
N1384 C1380 1.427 . S
N1384 C1381 1.384 . S
N1385 C1377 1.427 . S
N1385 C1383 1.384 . S
H1386 C1392 0.930 . S
H1387 C1396 0.930 . S
H1388 C1401 0.929 . S
H1389 C1399 0.929 . S
H1390 C1394 0.929 . S
H1391 C1400 0.929 . S
C1392 H1386 0.930 . S
C1392 C1393 1.367 . S
C1392 C1400 1.378 . S
C1393 C1392 1.367 . S
C1393 C1401 1.433 . S
C1394 H1390 0.929 . S
C1394 C1396 1.378 . S
C1394 C1398 1.350 . S
C1395 C1398 1.463 . S
C1395 C1400 1.350 . S
C1395 N1403 1.427 . S
C1396 H1387 0.930 . S
C1396 C1394 1.378 . S
C1396 C1397 1.367 . S
C1397 C1396 1.367 . S
C1397 C1399 1.433 . S
C1398 C1394 1.350 . S
C1398 C1395 1.463 . S
C1398 N1402 1.427 . S
C1399 H1389 0.929 . S
C1399 C1397 1.433 . S
C1399 N1402 1.384 . S
C1400 H1391 0.929 . S
C1400 C1392 1.378 . S
C1400 C1395 1.350 . S
C1401 H1388 0.929 . S
C1401 C1393 1.433 . S
C1401 N1403 1.384 . S
N1402 C1398 1.427 . S
N1402 C1399 1.384 . S
N1403 C1395 1.427 . S
N1403 C1401 1.384 . S
H1404 C1410 0.930 . S
H1405 C1414 0.930 . S
H1406 C1419 0.929 . S
H1407 C1417 0.929 . S
H1408 C1412 0.929 . S
H1409 C1418 0.929 . S
C1410 H1404 0.930 . S
C1410 C1411 1.367 . S
C1410 C1418 1.378 . S
C1411 C1410 1.367 . S
C1411 C1419 1.433 . S
C1412 H1408 0.929 . S
C1412 C1414 1.378 . S
C1412 C1416 1.350 . S
C1413 C1416 1.463 . S
C1413 C1418 1.350 . S
C1413 N1421 1.427 . S
C1414 H1405 0.930 . S
C1414 C1412 1.378 . S
C1414 C1415 1.367 . S
C1415 C1414 1.367 . S
C1415 C1417 1.433 . S
C1416 C1412 1.350 . S
C1416 C1413 1.463 . S
C1416 N1420 1.427 . S
C1417 H1407 0.929 . S
C1417 C1415 1.433 . S
C1417 N1420 1.384 . S
C1418 H1409 0.929 . S
C1418 C1410 1.378 . S
C1418 C1413 1.350 . S
C1419 H1406 0.929 . S
C1419 C1411 1.433 . S
C1419 N1421 1.384 . S
N1420 C1416 1.427 . S
N1420 C1417 1.384 . S
N1421 C1413 1.427 . S
N1421 C1419 1.384 . S
H1422 C1428 0.930 . S
H1423 C1432 0.930 . S
H1424 C1437 0.929 . S
H1425 C1435 0.929 . S
H1426 C1430 0.929 . S
H1427 C1436 0.929 . S
C1428 H1422 0.930 . S
C1428 C1429 1.367 . S
C1428 C1436 1.378 . S
C1429 C1428 1.367 . S
C1429 C1437 1.433 . S
C1430 H1426 0.929 . S
C1430 C1432 1.378 . S
C1430 C1434 1.350 . S
C1431 C1434 1.463 . S
C1431 C1436 1.350 . S
C1431 N1439 1.427 . S
C1432 H1423 0.930 . S
C1432 C1430 1.378 . S
C1432 C1433 1.367 . S
C1433 C1432 1.367 . S
C1433 C1435 1.433 . S
C1434 C1430 1.350 . S
C1434 C1431 1.463 . S
C1434 N1438 1.427 . S
C1435 H1425 0.929 . S
C1435 C1433 1.433 . S
C1435 N1438 1.384 . S
C1436 H1427 0.929 . S
C1436 C1428 1.378 . S
C1436 C1431 1.350 . S
C1437 H1424 0.929 . S
C1437 C1429 1.433 . S
C1437 N1439 1.384 . S
N1438 C1434 1.427 . S
N1438 C1435 1.384 . S
N1439 C1431 1.427 . S
N1439 C1437 1.384 . S
H1440 C1446 0.930 . S
H1441 C1450 0.930 . S
H1442 C1455 0.929 . S
H1443 C1453 0.929 . S
H1444 C1448 0.929 . S
H1445 C1454 0.929 . S
C1446 H1440 0.930 . S
C1446 C1447 1.367 . S
C1446 C1454 1.378 . S
C1447 C1446 1.367 . S
C1447 C1455 1.433 . S
C1448 H1444 0.929 . S
C1448 C1450 1.378 . S
C1448 C1452 1.350 . S
C1449 C1452 1.463 . S
C1449 C1454 1.350 . S
C1449 N1457 1.427 . S
C1450 H1441 0.930 . S
C1450 C1448 1.378 . S
C1450 C1451 1.367 . S
C1451 C1450 1.367 . S
C1451 C1453 1.433 . S
C1452 C1448 1.350 . S
C1452 C1449 1.463 . S
C1452 N1456 1.427 . S
C1453 H1443 0.929 . S
C1453 C1451 1.433 . S
C1453 N1456 1.384 . S
C1454 H1445 0.929 . S
C1454 C1446 1.378 . S
C1454 C1449 1.350 . S
C1455 H1442 0.929 . S
C1455 C1447 1.433 . S
C1455 N1457 1.384 . S
N1456 C1452 1.427 . S
N1456 C1453 1.384 . S
N1457 C1449 1.427 . S
N1457 C1455 1.384 . S
H1458 C1464 0.930 . S
H1459 C1468 0.930 . S
H1460 C1473 0.929 . S
H1461 C1471 0.929 . S
H1462 C1466 0.929 . S
H1463 C1472 0.929 . S
C1464 H1458 0.930 . S
C1464 C1465 1.367 . S
C1464 C1472 1.378 . S
C1465 C1464 1.367 . S
C1465 C1473 1.433 . S
C1466 H1462 0.929 . S
C1466 C1468 1.378 . S
C1466 C1470 1.350 . S
C1467 C1470 1.463 . S
C1467 C1472 1.350 . S
C1467 N1475 1.427 . S
C1468 H1459 0.930 . S
C1468 C1466 1.378 . S
C1468 C1469 1.367 . S
C1469 C1468 1.367 . S
C1469 C1471 1.433 . S
C1470 C1466 1.350 . S
C1470 C1467 1.463 . S
C1470 N1474 1.427 . S
C1471 H1461 0.929 . S
C1471 C1469 1.433 . S
C1471 N1474 1.384 . S
C1472 H1463 0.929 . S
C1472 C1464 1.378 . S
C1472 C1467 1.350 . S
C1473 H1460 0.929 . S
C1473 C1465 1.433 . S
C1473 N1475 1.384 . S
N1474 C1470 1.427 . S
N1474 C1471 1.384 . S
N1475 C1467 1.427 . S
N1475 C1473 1.384 . S
H1476 C1482 0.930 . S
H1477 C1486 0.930 . S
H1478 C1491 0.929 . S
H1479 C1489 0.929 . S
H1480 C1484 0.929 . S
H1481 C1490 0.929 . S
C1482 H1476 0.930 . S
C1482 C1483 1.367 . S
C1482 C1490 1.378 . S
C1483 C1482 1.367 . S
C1483 C1491 1.433 . S
C1484 H1480 0.929 . S
C1484 C1486 1.378 . S
C1484 C1488 1.350 . S
C1485 C1488 1.463 . S
C1485 C1490 1.350 . S
C1485 N1493 1.427 . S
C1486 H1477 0.930 . S
C1486 C1484 1.378 . S
C1486 C1487 1.367 . S
C1487 C1486 1.367 . S
C1487 C1489 1.433 . S
C1488 C1484 1.350 . S
C1488 C1485 1.463 . S
C1488 N1492 1.427 . S
C1489 H1479 0.929 . S
C1489 C1487 1.433 . S
C1489 N1492 1.384 . S
C1490 H1481 0.929 . S
C1490 C1482 1.378 . S
C1490 C1485 1.350 . S
C1491 H1478 0.929 . S
C1491 C1483 1.433 . S
C1491 N1493 1.384 . S
N1492 C1488 1.427 . S
N1492 C1489 1.384 . S
N1493 C1485 1.427 . S
N1493 C1491 1.384 . S
H1494 C1500 0.930 . S
H1495 C1504 0.930 . S
H1496 C1509 0.929 . S
H1497 C1507 0.929 . S
H1498 C1502 0.929 . S
H1499 C1508 0.929 . S
C1500 H1494 0.930 . S
C1500 C1501 1.367 . S
C1500 C1508 1.378 . S
C1501 C1500 1.367 . S
C1501 C1509 1.433 1_455 S
C1502 H1498 0.929 . S
C1502 C1504 1.378 . S
C1502 C1506 1.350 1_655 S
C1503 C1506 1.463 . S
C1503 C1508 1.350 . S
C1503 N1511 1.427 1_455 S
C1504 H1495 0.930 . S
C1504 C1502 1.378 . S
C1504 C1505 1.367 1_655 S
C1505 C1504 1.367 1_455 S
C1505 C1507 1.433 . S
C1506 C1502 1.350 1_455 S
C1506 C1503 1.463 . S
C1506 N1510 1.427 . S
C1507 H1497 0.929 . S
C1507 C1505 1.433 . S
C1507 N1510 1.384 . S
C1508 H1499 0.929 . S
C1508 C1500 1.378 . S
C1508 C1503 1.350 . S
C1509 H1496 0.929 . S
C1509 C1501 1.433 1_655 S
C1509 N1511 1.384 . S
N1510 C1506 1.427 . S
N1510 C1507 1.384 . S
N1511 C1503 1.427 1_655 S
N1511 C1509 1.384 . S
H1512 C1518 0.930 . S
H1513 C1522 0.930 . S
H1514 C1527 0.929 . S
H1515 C1525 0.929 . S
H1516 C1520 0.929 . S
H1517 C1526 0.929 . S
C1518 H1512 0.930 . S
C1518 C1519 1.367 . S
C1518 C1526 1.378 . S
C1519 C1518 1.367 . S
C1519 C1527 1.433 . S
C1520 H1516 0.929 . S
C1520 C1522 1.378 . S
C1520 C1524 1.350 . S
C1521 C1524 1.463 . S
C1521 C1526 1.350 . S
C1521 N1529 1.427 . S
C1522 H1513 0.930 . S
C1522 C1520 1.378 . S
C1522 C1523 1.367 . S
C1523 C1522 1.367 . S
C1523 C1525 1.433 . S
C1524 C1520 1.350 . S
C1524 C1521 1.463 . S
C1524 N1528 1.427 . S
C1525 H1515 0.929 . S
C1525 C1523 1.433 . S
C1525 N1528 1.384 . S
C1526 H1517 0.929 . S
C1526 C1518 1.378 . S
C1526 C1521 1.350 . S
C1527 H1514 0.929 . S
C1527 C1519 1.433 . S
C1527 N1529 1.384 . S
N1528 C1524 1.427 . S
N1528 C1525 1.384 . S
N1529 C1521 1.427 . S
N1529 C1527 1.384 . S
H1530 C1536 0.930 . S
H1531 C1540 0.930 . S
H1532 C1545 0.929 . S
H1533 C1543 0.929 . S
H1534 C1538 0.929 . S
H1535 C1544 0.929 . S
C1536 H1530 0.930 . S
C1536 C1537 1.367 1_545 S
C1536 C1544 1.378 . S
C1537 C1536 1.367 1_565 S
C1537 C1545 1.433 . S
C1538 H1534 0.929 . S
C1538 C1540 1.378 . S
C1538 C1542 1.350 . S
C1539 C1542 1.463 . S
C1539 C1544 1.350 1_565 S
C1539 N1547 1.427 . S
C1540 H1531 0.930 . S
C1540 C1538 1.378 . S
C1540 C1541 1.367 . S
C1541 C1540 1.367 . S
C1541 C1543 1.433 1_565 S
C1542 C1538 1.350 . S
C1542 C1539 1.463 . S
C1542 N1546 1.427 1_565 S
C1543 H1533 0.929 . S
C1543 C1541 1.433 1_545 S
C1543 N1546 1.384 . S
C1544 H1535 0.929 . S
C1544 C1536 1.378 . S
C1544 C1539 1.350 1_545 S
C1545 H1532 0.929 . S
C1545 C1537 1.433 . S
C1545 N1547 1.384 . S
N1546 C1542 1.427 1_545 S
N1546 C1543 1.384 . S
N1547 C1539 1.427 . S
N1547 C1545 1.384 . S
H1548 C1554 0.930 . S
H1549 C1558 0.930 . S
H1550 C1563 0.938 1_545 S
H1551 C1561 0.929 . S
H1552 C1556 0.929 . S
H1553 C1562 0.929 . S
C1554 H1548 0.930 . S
C1554 C1555 1.367 . S
C1554 C1562 1.378 . S
C1555 C1554 1.367 . S
C1555 C1563 1.454 . S
C1556 H1552 0.929 . S
C1556 C1558 1.378 . S
C1556 C1560 1.350 1_545 S
C1557 C1560 1.463 . S
C1557 C1562 1.350 . S
C1557 N1565 1.436 1_565 S
C1558 H1549 0.930 . S
C1558 C1556 1.378 . S
C1558 C1559 1.368 1_545 S
C1559 C1558 1.368 1_565 S
C1559 C1561 1.436 . S
C1560 C1556 1.350 1_565 S
C1560 C1557 1.463 . S
C1560 N1564 1.427 . S
C1561 H1551 0.929 . S
C1561 C1559 1.436 . S
C1561 N1564 1.384 . S
C1562 H1553 0.929 . S
C1562 C1554 1.378 . S
C1562 C1557 1.350 . S
C1563 H1550 0.938 1_565 S
C1563 C1555 1.454 . S
C1563 N1565 1.328 1_565 S
N1564 C1560 1.427 . S
N1564 C1561 1.384 . S
N1565 C1557 1.436 1_545 S
N1565 C1563 1.328 1_545 S
H1566 C1572 0.930 . S
H1567 C1576 0.930 . S
H1568 C1581 0.929 . S
H1569 C1579 0.929 . S
H1570 C1574 0.929 . S
H1571 C1580 0.929 . S
C1572 H1566 0.930 . S
C1572 C1573 1.367 . S
C1572 C1580 1.378 . S
C1573 C1572 1.367 . S
C1573 C1581 1.433 1_455 S
C1574 H1570 0.929 . S
C1574 C1576 1.378 . S
C1574 C1578 1.350 1_655 S
C1575 C1578 1.463 . S
C1575 C1580 1.350 . S
C1575 N1583 1.427 1_455 S
C1576 H1567 0.930 . S
C1576 C1574 1.378 . S
C1576 C1577 1.368 1_655 S
C1577 C1576 1.368 1_455 S
C1577 C1579 1.433 . S
C1578 C1574 1.350 1_455 S
C1578 C1575 1.463 . S
C1578 N1582 1.427 . S
C1579 H1569 0.929 . S
C1579 C1577 1.433 . S
C1579 N1582 1.384 . S
C1580 H1571 0.929 . S
C1580 C1572 1.378 . S
C1580 C1575 1.350 . S
C1581 H1568 0.929 . S
C1581 C1573 1.433 1_655 S
C1581 N1583 1.384 . S
N1582 C1578 1.427 . S
N1582 C1579 1.384 . S
N1583 C1575 1.427 1_655 S
N1583 C1581 1.384 . S
H1584 C1590 0.930 . S
H1585 C1594 0.930 . S
H1586 C1599 0.929 . S
H1587 C1597 0.929 . S
H1588 C1592 0.929 . S
H1589 C1598 0.929 . S
C1590 H1584 0.930 . S
C1590 C1591 1.367 . S
C1590 C1598 1.378 . S
C1591 C1590 1.367 . S
C1591 C1599 1.433 . S
C1592 H1588 0.929 . S
C1592 C1594 1.378 . S
C1592 C1596 1.350 . S
C1593 C1596 1.463 . S
C1593 C1598 1.350 . S
C1593 N1601 1.427 . S
C1594 H1585 0.930 . S
C1594 C1592 1.378 . S
C1594 C1595 1.367 . S
C1595 C1594 1.367 . S
C1595 C1597 1.433 . S
C1596 C1592 1.350 . S
C1596 C1593 1.463 . S
C1596 N1600 1.427 . S
C1597 H1587 0.929 . S
C1597 C1595 1.433 . S
C1597 N1600 1.384 . S
C1598 H1589 0.929 . S
C1598 C1590 1.378 . S
C1598 C1593 1.350 . S
C1599 H1586 0.929 . S
C1599 C1591 1.433 . S
C1599 N1601 1.384 . S
N1600 C1596 1.427 . S
N1600 C1597 1.384 . S
N1601 C1593 1.427 . S
N1601 C1599 1.384 . S
H1602 C1608 0.930 . S
H1603 C1612 0.930 . S
H1604 C1617 0.929 . S
H1605 C1615 0.929 . S
H1606 C1610 0.929 . S
H1607 C1616 0.929 . S
C1608 H1602 0.930 . S
C1608 C1609 1.367 . S
C1608 C1616 1.378 . S
C1609 C1608 1.367 . S
C1609 C1617 1.433 . S
C1610 H1606 0.929 . S
C1610 C1612 1.378 . S
C1610 C1614 1.350 . S
C1611 C1614 1.463 . S
C1611 C1616 1.350 . S
C1611 N1619 1.427 . S
C1612 H1603 0.930 . S
C1612 C1610 1.378 . S
C1612 C1613 1.367 . S
C1613 C1612 1.367 . S
C1613 C1615 1.433 . S
C1614 C1610 1.350 . S
C1614 C1611 1.463 . S
C1614 N1618 1.427 . S
C1615 H1605 0.929 . S
C1615 C1613 1.433 . S
C1615 N1618 1.384 . S
C1616 H1607 0.929 . S
C1616 C1608 1.378 . S
C1616 C1611 1.350 . S
C1617 H1604 0.929 . S
C1617 C1609 1.433 . S
C1617 N1619 1.384 . S
N1618 C1614 1.427 . S
N1618 C1615 1.384 . S
N1619 C1611 1.427 . S
N1619 C1617 1.384 . S
H1620 C1626 0.930 . S
H1621 C1630 0.930 . S
H1622 C1635 0.929 . S
H1623 C1633 0.929 . S
H1624 C1628 0.929 . S
H1625 C1634 0.929 . S
C1626 H1620 0.930 . S
C1626 C1627 1.367 . S
C1626 C1634 1.378 . S
C1627 C1626 1.367 . S
C1627 C1635 1.433 . S
C1628 H1624 0.929 . S
C1628 C1630 1.378 . S
C1628 C1632 1.350 . S
C1629 C1632 1.463 . S
C1629 C1634 1.350 . S
C1629 N1637 1.427 . S
C1630 H1621 0.930 . S
C1630 C1628 1.378 . S
C1630 C1631 1.367 . S
C1631 C1630 1.367 . S
C1631 C1633 1.433 . S
C1632 C1628 1.350 . S
C1632 C1629 1.463 . S
C1632 N1636 1.427 . S
C1633 H1623 0.929 . S
C1633 C1631 1.433 . S
C1633 N1636 1.384 . S
C1634 H1625 0.929 . S
C1634 C1626 1.378 . S
C1634 C1629 1.350 . S
C1635 H1622 0.929 . S
C1635 C1627 1.433 . S
C1635 N1637 1.384 . S
N1636 C1632 1.427 . S
N1636 C1633 1.384 . S
N1637 C1629 1.427 . S
N1637 C1635 1.384 . S
H1638 C1644 0.930 . S
H1639 C1648 0.930 . S
H1640 C1653 0.929 . S
H1641 C1651 0.929 . S
H1642 C1646 0.929 . S
H1643 C1652 0.929 . S
C1644 H1638 0.930 . S
C1644 C1645 1.367 . S
C1644 C1652 1.378 . S
C1645 C1644 1.367 . S
C1645 C1653 1.433 . S
C1646 H1642 0.929 . S
C1646 C1648 1.378 . S
C1646 C1650 1.350 . S
C1647 C1650 1.463 . S
C1647 C1652 1.350 . S
C1647 N1655 1.427 . S
C1648 H1639 0.930 . S
C1648 C1646 1.378 . S
C1648 C1649 1.367 . S
C1649 C1648 1.367 . S
C1649 C1651 1.433 . S
C1650 C1646 1.350 . S
C1650 C1647 1.463 . S
C1650 N1654 1.427 . S
C1651 H1641 0.929 . S
C1651 C1649 1.433 . S
C1651 N1654 1.384 . S
C1652 H1643 0.929 . S
C1652 C1644 1.378 . S
C1652 C1647 1.350 . S
C1653 H1640 0.929 . S
C1653 C1645 1.433 . S
C1653 N1655 1.384 . S
N1654 C1650 1.427 . S
N1654 C1651 1.384 . S
N1655 C1647 1.427 . S
N1655 C1653 1.384 . S
H1656 C1662 0.930 . S
H1657 C1666 0.936 . S
H1658 C1671 0.929 . S
H1659 C1669 0.929 . S
H1660 C1664 0.929 . S
H1661 C1670 0.929 . S
C1662 H1656 0.930 . S
C1662 C1663 1.367 . S
C1662 C1670 1.378 . S
C1663 C1662 1.367 . S
C1663 C1671 1.433 . S
C1664 H1660 0.929 . S
C1664 C1666 1.378 . S
C1664 C1668 1.350 . S
C1665 C1668 1.463 . S
C1665 C1670 1.350 . S
C1665 N1673 1.427 . S
C1666 H1657 0.936 . S
C1666 C1664 1.378 . S
C1666 C1667 1.367 . S
C1667 C1666 1.367 . S
C1667 C1669 1.433 . S
C1668 C1664 1.350 . S
C1668 C1665 1.463 . S
C1668 N1672 1.427 . S
C1669 H1659 0.929 . S
C1669 C1667 1.433 . S
C1669 N1672 1.384 . S
C1670 H1661 0.929 . S
C1670 C1662 1.378 . S
C1670 C1665 1.350 . S
C1671 H1658 0.929 . S
C1671 C1663 1.433 . S
C1671 N1673 1.384 . S
N1672 C1668 1.427 . S
N1672 C1669 1.384 . S
N1673 C1665 1.427 . S
N1673 C1671 1.384 . S
H1674 C1680 0.930 . S
H1675 C1684 0.930 . S
H1676 C1689 0.929 . S
H1677 C1687 0.929 . S
H1678 C1682 0.929 . S
H1679 C1688 0.929 . S
C1680 H1674 0.930 . S
C1680 C1681 1.367 . S
C1680 C1688 1.378 . S
C1681 C1680 1.367 . S
C1681 C1689 1.433 1_655 S
C1682 H1678 0.929 . S
C1682 C1684 1.378 . S
C1682 C1686 1.350 1_455 S
C1683 C1686 1.463 . S
C1683 C1688 1.350 . S
C1683 N1691 1.427 1_655 S
C1684 H1675 0.930 . S
C1684 C1682 1.378 . S
C1684 C1685 1.367 1_455 S
C1685 C1684 1.367 1_655 S
C1685 C1687 1.433 . S
C1686 C1682 1.350 1_655 S
C1686 C1683 1.463 . S
C1686 N1690 1.427 . S
C1687 H1677 0.929 . S
C1687 C1685 1.433 . S
C1687 N1690 1.384 . S
C1688 H1679 0.929 . S
C1688 C1680 1.378 . S
C1688 C1683 1.350 . S
C1689 H1676 0.929 . S
C1689 C1681 1.433 1_455 S
C1689 N1691 1.384 . S
N1690 C1686 1.427 . S
N1690 C1687 1.384 . S
N1691 C1683 1.427 1_455 S
N1691 C1689 1.384 . S
H1692 C1698 0.930 . S
H1693 C1702 0.930 . S
H1694 C1707 0.929 . S
H1695 C1705 0.929 . S
H1696 C1700 0.929 . S
H1697 C1706 0.929 . S
C1698 H1692 0.930 . S
C1698 C1699 1.367 . S
C1698 C1706 1.378 . S
C1699 C1698 1.367 . S
C1699 C1707 1.433 . S
C1700 H1696 0.929 . S
C1700 C1702 1.378 . S
C1700 C1704 1.350 . S
C1701 C1704 1.463 . S
C1701 C1706 1.350 . S
C1701 N1709 1.427 . S
C1702 H1693 0.930 . S
C1702 C1700 1.378 . S
C1702 C1703 1.367 . S
C1703 C1702 1.367 . S
C1703 C1705 1.433 . S
C1704 C1700 1.350 . S
C1704 C1701 1.463 . S
C1704 N1708 1.427 . S
C1705 H1695 0.929 . S
C1705 C1703 1.433 . S
C1705 N1708 1.384 . S
C1706 H1697 0.929 . S
C1706 C1698 1.378 . S
C1706 C1701 1.350 . S
C1707 H1694 0.929 . S
C1707 C1699 1.433 . S
C1707 N1709 1.384 . S
N1708 C1704 1.427 . S
N1708 C1705 1.384 . S
N1709 C1701 1.427 . S
N1709 C1707 1.384 . S
H1710 C1716 0.930 . S
H1711 C1720 0.930 . S
H1712 C1725 0.929 . S
H1713 C1723 0.929 . S
H1714 C1718 0.929 . S
H1715 C1724 0.929 . S
C1716 H1710 0.930 . S
C1716 C1717 1.367 . S
C1716 C1724 1.378 . S
C1717 C1716 1.367 . S
C1717 C1725 1.433 . S
C1718 H1714 0.929 . S
C1718 C1720 1.378 . S
C1718 C1722 1.350 . S
C1719 C1722 1.463 . S
C1719 C1724 1.350 . S
C1719 N1727 1.427 . S
C1720 H1711 0.930 . S
C1720 C1718 1.378 . S
C1720 C1721 1.367 . S
C1721 C1720 1.367 . S
C1721 C1723 1.433 . S
C1722 C1718 1.350 . S
C1722 C1719 1.463 . S
C1722 N1726 1.427 . S
C1723 H1713 0.929 . S
C1723 C1721 1.433 . S
C1723 N1726 1.384 . S
C1724 H1715 0.929 . S
C1724 C1716 1.378 . S
C1724 C1719 1.350 . S
C1725 H1712 0.929 . S
C1725 C1717 1.433 . S
C1725 N1727 1.384 . S
N1726 C1722 1.427 . S
N1726 C1723 1.384 . S
N1727 C1719 1.427 . S
N1727 C1725 1.384 . S
H1728 C1734 0.930 . S
H1729 C1738 0.930 . S
H1730 C1743 0.929 . S
H1731 C1741 0.929 . S
H1732 C1736 0.929 . S
H1733 C1742 0.929 . S
C1734 H1728 0.930 . S
C1734 C1735 1.367 . S
C1734 C1742 1.378 . S
C1735 C1734 1.367 . S
C1735 C1743 1.433 . S
C1736 H1732 0.929 . S
C1736 C1738 1.378 . S
C1736 C1740 1.350 . S
C1737 C1740 1.463 . S
C1737 C1742 1.350 . S
C1737 N1745 1.427 . S
C1738 H1729 0.930 . S
C1738 C1736 1.378 . S
C1738 C1739 1.367 . S
C1739 C1738 1.367 . S
C1739 C1741 1.433 . S
C1740 C1736 1.350 . S
C1740 C1737 1.463 . S
C1740 N1744 1.427 . S
C1741 H1731 0.929 . S
C1741 C1739 1.433 . S
C1741 N1744 1.384 . S
C1742 H1733 0.929 . S
C1742 C1734 1.378 . S
C1742 C1737 1.350 . S
C1743 H1730 0.929 . S
C1743 C1735 1.433 . S
C1743 N1745 1.384 . S
N1744 C1740 1.427 . S
N1744 C1741 1.384 . S
N1745 C1737 1.427 . S
N1745 C1743 1.384 . S
H1746 C1752 0.930 . S
H1747 C1756 0.930 . S
H1748 C1761 0.929 . S
H1749 C1759 0.929 . S
H1750 C1754 0.929 . S
H1751 C1760 0.929 . S
C1752 H1746 0.930 . S
C1752 C1753 1.367 . S
C1752 C1760 1.378 . S
C1753 C1752 1.367 . S
C1753 C1761 1.433 . S
C1754 H1750 0.929 . S
C1754 C1756 1.378 . S
C1754 C1758 1.350 . S
C1755 C1758 1.463 . S
C1755 C1760 1.350 . S
C1755 N1763 1.427 . S
C1756 H1747 0.930 . S
C1756 C1754 1.378 . S
C1756 C1757 1.367 . S
C1757 C1756 1.367 . S
C1757 C1759 1.433 . S
C1758 C1754 1.350 . S
C1758 C1755 1.463 . S
C1758 N1762 1.427 . S
C1759 H1749 0.929 . S
C1759 C1757 1.433 . S
C1759 N1762 1.384 . S
C1760 H1751 0.929 . S
C1760 C1752 1.378 . S
C1760 C1755 1.350 . S
C1761 H1748 0.929 . S
C1761 C1753 1.433 . S
C1761 N1763 1.384 . S
N1762 C1758 1.427 . S
N1762 C1759 1.384 . S
N1763 C1755 1.427 . S
N1763 C1761 1.384 . S
H1764 C1770 0.930 . S
H1765 C1774 0.930 . S
H1766 C1779 0.929 . S
H1767 C1777 0.929 . S
H1768 C1772 0.929 . S
H1769 C1778 0.929 . S
C1770 H1764 0.930 . S
C1770 C1771 1.367 . S
C1770 C1778 1.378 . S
C1771 C1770 1.367 . S
C1771 C1779 1.433 . S
C1772 H1768 0.929 . S
C1772 C1774 1.378 . S
C1772 C1776 1.350 . S
C1773 C1776 1.463 . S
C1773 C1778 1.350 . S
C1773 N1781 1.427 . S
C1774 H1765 0.930 . S
C1774 C1772 1.378 . S
C1774 C1775 1.367 . S
C1775 C1774 1.367 . S
C1775 C1777 1.433 . S
C1776 C1772 1.350 . S
C1776 C1773 1.463 . S
C1776 N1780 1.427 . S
C1777 H1767 0.929 . S
C1777 C1775 1.433 . S
C1777 N1780 1.384 . S
C1778 H1769 0.929 . S
C1778 C1770 1.378 . S
C1778 C1773 1.350 . S
C1779 H1766 0.929 . S
C1779 C1771 1.433 . S
C1779 N1781 1.384 . S
N1780 C1776 1.427 . S
N1780 C1777 1.384 . S
N1781 C1773 1.427 . S
N1781 C1779 1.384 . S
H1782 C1788 0.930 . S
H1783 C1792 0.930 . S
H1784 C1797 0.929 . S
H1785 C1795 0.929 . S
H1786 C1790 0.929 . S
H1787 C1796 0.929 . S
C1788 H1782 0.930 . S
C1788 C1789 1.367 . S
C1788 C1796 1.378 . S
C1789 C1788 1.367 . S
C1789 C1797 1.433 . S
C1790 H1786 0.929 . S
C1790 C1792 1.378 . S
C1790 C1794 1.350 . S
C1791 C1794 1.463 . S
C1791 C1796 1.350 . S
C1791 N1799 1.427 . S
C1792 H1783 0.930 . S
C1792 C1790 1.378 . S
C1792 C1793 1.367 . S
C1793 C1792 1.367 . S
C1793 C1795 1.433 . S
C1794 C1790 1.350 . S
C1794 C1791 1.463 . S
C1794 N1798 1.427 . S
C1795 H1785 0.929 . S
C1795 C1793 1.433 . S
C1795 N1798 1.384 . S
C1796 H1787 0.929 . S
C1796 C1788 1.378 . S
C1796 C1791 1.350 . S
C1797 H1784 0.929 . S
C1797 C1789 1.433 . S
C1797 N1799 1.384 . S
N1798 C1794 1.427 . S
N1798 C1795 1.384 . S
N1799 C1791 1.427 . S
N1799 C1797 1.384 . S
H1800 C1806 0.930 . S
H1801 C1810 0.930 . S
H1802 C1815 0.929 . S
H1803 C1813 0.929 . S
H1804 C1808 0.929 . S
H1805 C1814 0.929 . S
C1806 H1800 0.930 . S
C1806 C1807 1.367 . S
C1806 C1814 1.378 . S
C1807 C1806 1.367 . S
C1807 C1815 1.433 . S
C1808 H1804 0.929 . S
C1808 C1810 1.378 . S
C1808 C1812 1.350 . S
C1809 C1812 1.463 . S
C1809 C1814 1.350 . S
C1809 N1817 1.427 . S
C1810 H1801 0.930 . S
C1810 C1808 1.378 . S
C1810 C1811 1.367 . S
C1811 C1810 1.367 . S
C1811 C1813 1.433 . S
C1812 C1808 1.350 . S
C1812 C1809 1.463 . S
C1812 N1816 1.427 . S
C1813 H1803 0.929 . S
C1813 C1811 1.433 . S
C1813 N1816 1.384 . S
C1814 H1805 0.929 . S
C1814 C1806 1.378 . S
C1814 C1809 1.350 . S
C1815 H1802 0.929 . S
C1815 C1807 1.433 . S
C1815 N1817 1.384 . S
N1816 C1812 1.427 . S
N1816 C1813 1.384 . S
N1817 C1809 1.427 . S
N1817 C1815 1.384 . S
H1818 C1824 0.930 . S
H1819 C1828 0.930 . S
H1820 C1833 0.929 . S
H1821 C1831 0.929 . S
H1822 C1826 0.929 . S
H1823 C1832 0.929 . S
C1824 H1818 0.930 . S
C1824 C1825 1.367 1_455 S
C1824 C1832 1.378 . S
C1825 C1824 1.367 1_655 S
C1825 C1833 1.433 . S
C1826 H1822 0.929 . S
C1826 C1828 1.378 . S
C1826 C1830 1.350 . S
C1827 C1830 1.463 . S
C1827 C1832 1.350 1_655 S
C1827 N1835 1.427 . S
C1828 H1819 0.930 . S
C1828 C1826 1.378 . S
C1828 C1829 1.421 . S
C1829 C1828 1.421 . S
C1829 C1831 1.408 1_655 S
C1830 C1826 1.350 . S
C1830 C1827 1.463 . S
C1830 N1834 1.427 1_655 S
C1831 H1821 0.929 . S
C1831 C1829 1.408 1_455 S
C1831 N1834 1.384 . S
C1832 H1823 0.929 . S
C1832 C1824 1.378 . S
C1832 C1827 1.350 1_455 S
C1833 H1820 0.929 . S
C1833 C1825 1.433 . S
C1833 N1835 1.384 . S
N1834 C1830 1.427 1_455 S
N1834 C1831 1.384 . S
N1835 C1827 1.427 . S
N1835 C1833 1.384 . S
H1836 C1842 0.930 . S
H1837 C1846 0.930 . S
H1838 C1851 0.929 . S
H1839 C1849 0.929 . S
H1840 C1844 0.929 . S
H1841 C1850 0.929 . S
C1842 H1836 0.930 . S
C1842 C1843 1.367 . S
C1842 C1850 1.378 . S
C1843 C1842 1.367 . S
C1843 C1851 1.433 . S
C1844 H1840 0.929 . S
C1844 C1846 1.378 . S
C1844 C1848 1.350 . S
C1845 C1848 1.463 . S
C1845 C1850 1.350 . S
C1845 N1853 1.427 . S
C1846 H1837 0.930 . S
C1846 C1844 1.378 . S
C1846 C1847 1.367 . S
C1847 C1846 1.367 . S
C1847 C1849 1.433 . S
C1848 C1844 1.350 . S
C1848 C1845 1.463 . S
C1848 N1852 1.427 . S
C1849 H1839 0.929 . S
C1849 C1847 1.433 . S
C1849 N1852 1.384 . S
C1850 H1841 0.929 . S
C1850 C1842 1.378 . S
C1850 C1845 1.350 . S
C1851 H1838 0.929 . S
C1851 C1843 1.433 . S
C1851 N1853 1.384 . S
N1852 C1848 1.427 . S
N1852 C1849 1.384 . S
N1853 C1845 1.427 . S
N1853 C1851 1.384 . S
H1854 C1860 0.930 . S
H1855 C1864 0.930 . S
H1856 C1869 0.929 . S
H1857 C1867 0.929 . S
H1858 C1862 0.929 . S
H1859 C1868 0.929 . S
C1860 H1854 0.930 . S
C1860 C1861 1.367 . S
C1860 C1868 1.378 . S
C1861 C1860 1.367 . S
C1861 C1869 1.433 1_545 S
C1862 H1858 0.929 . S
C1862 C1864 1.378 . S
C1862 C1866 1.350 1_565 S
C1863 C1866 1.463 . S
C1863 C1868 1.350 . S
C1863 N1871 1.427 1_545 S
C1864 H1855 0.930 . S
C1864 C1862 1.378 . S
C1864 C1865 1.373 1_565 S
C1865 C1864 1.373 1_545 S
C1865 C1867 1.429 . S
C1866 C1862 1.350 1_545 S
C1866 C1863 1.463 . S
C1866 N1870 1.427 . S
C1867 H1857 0.929 . S
C1867 C1865 1.429 . S
C1867 N1870 1.384 . S
C1868 H1859 0.929 . S
C1868 C1860 1.378 . S
C1868 C1863 1.350 . S
C1869 H1856 0.929 . S
C1869 C1861 1.433 1_565 S
C1869 N1871 1.384 . S
N1870 C1866 1.427 . S
N1870 C1867 1.384 . S
N1871 C1863 1.427 1_565 S
N1871 C1869 1.384 . S
C583 C8 1.550 . S
C587 C421 1.524 . S
C601 C22 1.554 . S
C605 C446 1.534 . S
C623 C457 1.521 . S
C619 C37 1.536 . S
C637 C36 1.569 . S
C641 C482 1.530 . S
C655 C9 1.532 . S
C659 C500 1.536 . S
C673 C23 1.546 . S
C677 C511 1.526 . S
C691 C50 1.541 . S
C695 C493 1.496 . S
C713 C518 1.517 . S
C709 C64 1.526 . S
C731 C475 1.505 . S
C727 C79 1.521 . S
C745 C78 1.521 . S
C749 C464 1.513 . S
C767 C428 1.550 . S
C763 C51 1.518 . S
C781 C65 1.527 . S
C785 C439 1.515 . S
C799 C92 1.555 . S
C803 C529 1.534 . S
C817 C106 1.550 . S
C821 C554 1.540 . S
C839 C565 1.533 . S
C835 C121 1.548 . S
C853 C120 1.553 . S
C857 C266 1.536 . S
C871 C93 1.550 . S
C875 C284 1.530 . S
C889 C107 1.549 . S
C893 C295 1.524 . S
C907 C134 1.533 . S
C911 C277 1.520 . S
C925 C148 1.534 . S
C929 C302 1.527 . S
C947 C259 1.523 . S
C943 C163 1.527 . S
C965 C572 1.527 . S
C961 C162 1.529 . S
C983 C536 1.527 . S
C979 C135 1.536 . S
C1001 C547 1.526 . S
C997 C149 1.538 . S
C1015 C176 1.549 . S
C1019 C313 1.520 . S
C1033 C190 1.553 . S
C1037 C338 1.531 . S
C1051 C205 1.546 . S
C1055 C349 1.528 . S
C1069 C204 1.549 . S
C1073 C374 1.539 . S
C1091 C392 1.542 . S
C1087 C177 1.550 . S
C1109 C403 1.526 . S
C1105 C191 1.555 . S
C1127 C385 1.520 . S
C1123 C218 1.528 . S
C1145 C410 1.523 . S
C1141 C232 1.538 . S
C1159 C247 1.532 . S
C1163 C367 1.516 . S
C1181 C356 1.524 . S
C1177 C246 1.525 . S
C1195 C219 1.531 . S
C1199 C320 1.528 . S
C1217 C331 1.527 . S
C1213 C233 1.534 . S
C1235 C268 1.452 . S
C1231 C6 1.483 . S
C1249 C20 1.476 . S
C1253 C286 1.453 . S
C1271 C296 1.445 . S
C1267 C35 1.469 . S
C1289 C314 1.442 . S
C1285 C34 1.468 . S
C1307 C340 1.440 . S
C1303 C7 1.470 . S
C1325 C350 1.457 . S
C1321 C21 1.473 . S
C1339 C48 1.494 . S
C1343 C358 1.465 . S
C1357 C62 1.487 . S
C1361 C322 1.438 . S
C1375 C77 1.492 . S
C1379 C332 1.450 . S
C1393 C76 1.483 . S
C1397 C278 1.466 . S
C1415 C304 1.441 . S
C1411 C49 1.489 . S
C1429 C63 1.492 . S
C1433 C260 1.460 . S
C1451 C376 1.450 . S
C1447 C90 1.471 . S
C1465 C104 1.482 . S
C1469 C394 1.459 . S
C1483 C119 1.479 . S
C1487 C404 1.463 . S
C1505 C422 1.445 . S
C1501 C118 1.458 . S
C1519 C91 1.472 . S
C1523 C448 1.441 . S
C1537 C105 1.477 . S
C1541 C458 1.451 . S
C1555 C132 1.482 . S
C1559 C466 1.447 . S
C1573 C146 1.483 . S
C1577 C430 1.449 . S
C1595 C440 1.461 . S
C1591 C161 1.484 . S
C1609 C160 1.488 . S
C1613 C386 1.448 . S
C1627 C133 1.488 . S
C1631 C412 1.458 . S
C1649 C368 1.456 . S
C1645 C147 1.495 . S
C1667 C484 1.440 . S
C1663 C174 1.466 . S
C1681 C188 1.467 . S
C1685 C502 1.441 . S
C1699 C203 1.469 . S
C1703 C512 1.446 . S
C1721 C530 1.450 . S
C1717 C202 1.478 . S
C1739 C556 1.450 . S
C1735 C175 1.473 . S
C1753 C189 1.478 . S
C1757 C566 1.448 . S
C1771 C216 1.497 . S
C1775 C574 1.450 . S
C1789 C230 1.493 . S
C1793 C538 1.444 . S
C1811 C548 1.455 . S
C1807 C245 1.495 . S
C1829 C494 1.402 1_655 S
C1825 C244 1.480 . S
C1847 C520 1.459 . S
C1843 C217 1.492 . S
C1861 C231 1.479 . S
C1865 C476 1.473 1_545 S
