# Generated by pormake.
# Topology ptr, (4,4)-cn, num edge types: 1
# Building blocks:
#     Node 0, Type 0, BuildingBlock: NAHDIM_clean_sbu_0, # of connection points: 4
#     Node 1, Type 0, BuildingBlock: NAHDIM_clean_sbu_0, # of connection points: 4
#     Node 2, Type 0, BuildingBlock: NAHDIM_clean_sbu_0, # of connection points: 4
#     Node 3, Type 0, BuildingBlock: NAHDIM_clean_sbu_0, # of connection points: 4
#     Node 4, Type 0, BuildingBlock: NAHDIM_clean_sbu_0, # of connection points: 4
#     Node 5, Type 0, BuildingBlock: NAHDIM_clean_sbu_0, # of connection points: 4
#     Node 6, Type 0, BuildingBlock: NAHDIM_clean_sbu_0, # of connection points: 4
#     Node 7, Type 0, BuildingBlock: NAHDIM_clean_sbu_0, # of connection points: 4
#     Node 8, Type 0, BuildingBlock: NAHDIM_clean_sbu_0, # of connection points: 4
#     Node 9, Type 0, BuildingBlock: NAHDIM_clean_sbu_0, # of connection points: 4
#     Node 10, Type 0, BuildingBlock: NAHDIM_clean_sbu_0, # of connection points: 4
#     Node 11, Type 0, BuildingBlock: NAHDIM_clean_sbu_0, # of connection points: 4
#     Node 12, Type 0, BuildingBlock: NAHDIM_clean_sbu_0, # of connection points: 4
#     Node 13, Type 0, BuildingBlock: NAHDIM_clean_sbu_0, # of connection points: 4
#     Node 14, Type 0, BuildingBlock: NAHDIM_clean_sbu_0, # of connection points: 4
#     Node 15, Type 0, BuildingBlock: NAHDIM_clean_sbu_0, # of connection points: 4
#     Node 16, Type 0, BuildingBlock: NAHDIM_clean_sbu_0, # of connection points: 4
#     Node 17, Type 0, BuildingBlock: NAHDIM_clean_sbu_0, # of connection points: 4
#     Node 18, Type 1, BuildingBlock: AZAVOO_clean_linker_0, # of connection points: 4
#     Node 19, Type 1, BuildingBlock: AZAVOO_clean_linker_0, # of connection points: 4
#     Node 20, Type 1, BuildingBlock: AZAVOO_clean_linker_0, # of connection points: 4
#     Node 21, Type 1, BuildingBlock: AZAVOO_clean_linker_0, # of connection points: 4
#     Node 22, Type 1, BuildingBlock: AZAVOO_clean_linker_0, # of connection points: 4
#     Node 23, Type 1, BuildingBlock: AZAVOO_clean_linker_0, # of connection points: 4
#     Node 24, Type 1, BuildingBlock: AZAVOO_clean_linker_0, # of connection points: 4
#     Node 25, Type 1, BuildingBlock: AZAVOO_clean_linker_0, # of connection points: 4
#     Node 26, Type 1, BuildingBlock: AZAVOO_clean_linker_0, # of connection points: 4
#     Node 27, Type 1, BuildingBlock: AZAVOO_clean_linker_0, # of connection points: 4
#     Node 28, Type 1, BuildingBlock: AZAVOO_clean_linker_0, # of connection points: 4
#     Node 29, Type 1, BuildingBlock: AZAVOO_clean_linker_0, # of connection points: 4
#     Node 30, Type 1, BuildingBlock: AZAVOO_clean_linker_0, # of connection points: 4
#     Node 31, Type 1, BuildingBlock: AZAVOO_clean_linker_0, # of connection points: 4
#     Node 32, Type 1, BuildingBlock: AZAVOO_clean_linker_0, # of connection points: 4
#     Node 33, Type 1, BuildingBlock: AZAVOO_clean_linker_0, # of connection points: 4
#     Node 34, Type 1, BuildingBlock: AZAVOO_clean_linker_0, # of connection points: 4
#     Node 35, Type 1, BuildingBlock: AZAVOO_clean_linker_0, # of connection points: 4
#     Edge 36, Type (0, 1), BuildingBlock: AJUNOK_clean_linker_0, # of connection points: 2
#     Edge 37, Type (0, 1), BuildingBlock: AJUNOK_clean_linker_0, # of connection points: 2
#     Edge 38, Type (0, 1), BuildingBlock: AJUNOK_clean_linker_0, # of connection points: 2
#     Edge 39, Type (0, 1), BuildingBlock: AJUNOK_clean_linker_0, # of connection points: 2
#     Edge 40, Type (0, 1), BuildingBlock: AJUNOK_clean_linker_0, # of connection points: 2
#     Edge 41, Type (0, 1), BuildingBlock: AJUNOK_clean_linker_0, # of connection points: 2
#     Edge 42, Type (0, 1), BuildingBlock: AJUNOK_clean_linker_0, # of connection points: 2
#     Edge 43, Type (0, 1), BuildingBlock: AJUNOK_clean_linker_0, # of connection points: 2
#     Edge 44, Type (0, 1), BuildingBlock: AJUNOK_clean_linker_0, # of connection points: 2
#     Edge 45, Type (0, 1), BuildingBlock: AJUNOK_clean_linker_0, # of connection points: 2
#     Edge 46, Type (0, 1), BuildingBlock: AJUNOK_clean_linker_0, # of connection points: 2
#     Edge 47, Type (0, 1), BuildingBlock: AJUNOK_clean_linker_0, # of connection points: 2
#     Edge 48, Type (0, 1), BuildingBlock: AJUNOK_clean_linker_0, # of connection points: 2
#     Edge 49, Type (0, 1), BuildingBlock: AJUNOK_clean_linker_0, # of connection points: 2
#     Edge 50, Type (0, 1), BuildingBlock: AJUNOK_clean_linker_0, # of connection points: 2
#     Edge 51, Type (0, 1), BuildingBlock: AJUNOK_clean_linker_0, # of connection points: 2
#     Edge 52, Type (0, 1), BuildingBlock: AJUNOK_clean_linker_0, # of connection points: 2
#     Edge 53, Type (0, 1), BuildingBlock: AJUNOK_clean_linker_0, # of connection points: 2
#     Edge 54, Type (0, 1), BuildingBlock: AJUNOK_clean_linker_0, # of connection points: 2
#     Edge 55, Type (0, 1), BuildingBlock: AJUNOK_clean_linker_0, # of connection points: 2
#     Edge 56, Type (0, 1), BuildingBlock: AJUNOK_clean_linker_0, # of connection points: 2
#     Edge 57, Type (0, 1), BuildingBlock: AJUNOK_clean_linker_0, # of connection points: 2
#     Edge 58, Type (0, 1), BuildingBlock: AJUNOK_clean_linker_0, # of connection points: 2
#     Edge 59, Type (0, 1), BuildingBlock: AJUNOK_clean_linker_0, # of connection points: 2
#     Edge 60, Type (0, 1), BuildingBlock: AJUNOK_clean_linker_0, # of connection points: 2
#     Edge 61, Type (0, 1), BuildingBlock: AJUNOK_clean_linker_0, # of connection points: 2
#     Edge 62, Type (0, 1), BuildingBlock: AJUNOK_clean_linker_0, # of connection points: 2
#     Edge 63, Type (0, 1), BuildingBlock: AJUNOK_clean_linker_0, # of connection points: 2
#     Edge 64, Type (0, 1), BuildingBlock: AJUNOK_clean_linker_0, # of connection points: 2
#     Edge 65, Type (0, 1), BuildingBlock: AJUNOK_clean_linker_0, # of connection points: 2
#     Edge 66, Type (0, 1), BuildingBlock: AJUNOK_clean_linker_0, # of connection points: 2
#     Edge 67, Type (0, 1), BuildingBlock: AJUNOK_clean_linker_0, # of connection points: 2
#     Edge 68, Type (0, 1), BuildingBlock: AJUNOK_clean_linker_0, # of connection points: 2
#     Edge 69, Type (0, 1), BuildingBlock: AJUNOK_clean_linker_0, # of connection points: 2
#     Edge 70, Type (0, 1), BuildingBlock: AJUNOK_clean_linker_0, # of connection points: 2
#     Edge 71, Type (0, 1), BuildingBlock: AJUNOK_clean_linker_0, # of connection points: 2
#     Edge 72, Type (0, 1), BuildingBlock: AJUNOK_clean_linker_0, # of connection points: 2
#     Edge 73, Type (0, 1), BuildingBlock: AJUNOK_clean_linker_0, # of connection points: 2
#     Edge 74, Type (0, 1), BuildingBlock: AJUNOK_clean_linker_0, # of connection points: 2
#     Edge 75, Type (0, 1), BuildingBlock: AJUNOK_clean_linker_0, # of connection points: 2
#     Edge 76, Type (0, 1), BuildingBlock: AJUNOK_clean_linker_0, # of connection points: 2
#     Edge 77, Type (0, 1), BuildingBlock: AJUNOK_clean_linker_0, # of connection points: 2
#     Edge 78, Type (0, 1), BuildingBlock: AJUNOK_clean_linker_0, # of connection points: 2
#     Edge 79, Type (0, 1), BuildingBlock: AJUNOK_clean_linker_0, # of connection points: 2
#     Edge 80, Type (0, 1), BuildingBlock: AJUNOK_clean_linker_0, # of connection points: 2
#     Edge 81, Type (0, 1), BuildingBlock: AJUNOK_clean_linker_0, # of connection points: 2
#     Edge 82, Type (0, 1), BuildingBlock: AJUNOK_clean_linker_0, # of connection points: 2
#     Edge 83, Type (0, 1), BuildingBlock: AJUNOK_clean_linker_0, # of connection points: 2
#     Edge 84, Type (0, 1), BuildingBlock: AJUNOK_clean_linker_0, # of connection points: 2
#     Edge 85, Type (0, 1), BuildingBlock: AJUNOK_clean_linker_0, # of connection points: 2
#     Edge 86, Type (0, 1), BuildingBlock: AJUNOK_clean_linker_0, # of connection points: 2
#     Edge 87, Type (0, 1), BuildingBlock: AJUNOK_clean_linker_0, # of connection points: 2
#     Edge 88, Type (0, 1), BuildingBlock: AJUNOK_clean_linker_0, # of connection points: 2
#     Edge 89, Type (0, 1), BuildingBlock: AJUNOK_clean_linker_0, # of connection points: 2
#     Edge 90, Type (0, 1), BuildingBlock: AJUNOK_clean_linker_0, # of connection points: 2
#     Edge 91, Type (0, 1), BuildingBlock: AJUNOK_clean_linker_0, # of connection points: 2
#     Edge 92, Type (0, 1), BuildingBlock: AJUNOK_clean_linker_0, # of connection points: 2
#     Edge 93, Type (0, 1), BuildingBlock: AJUNOK_clean_linker_0, # of connection points: 2
#     Edge 94, Type (0, 1), BuildingBlock: AJUNOK_clean_linker_0, # of connection points: 2
#     Edge 95, Type (0, 1), BuildingBlock: AJUNOK_clean_linker_0, # of connection points: 2
#     Edge 96, Type (0, 1), BuildingBlock: AJUNOK_clean_linker_0, # of connection points: 2
#     Edge 97, Type (0, 1), BuildingBlock: AJUNOK_clean_linker_0, # of connection points: 2
#     Edge 98, Type (0, 1), BuildingBlock: AJUNOK_clean_linker_0, # of connection points: 2
#     Edge 99, Type (0, 1), BuildingBlock: AJUNOK_clean_linker_0, # of connection points: 2
#     Edge 100, Type (0, 1), BuildingBlock: AJUNOK_clean_linker_0, # of connection points: 2
#     Edge 101, Type (0, 1), BuildingBlock: AJUNOK_clean_linker_0, # of connection points: 2
#     Edge 102, Type (0, 1), BuildingBlock: AJUNOK_clean_linker_0, # of connection points: 2
#     Edge 103, Type (0, 1), BuildingBlock: AJUNOK_clean_linker_0, # of connection points: 2
#     Edge 104, Type (0, 1), BuildingBlock: AJUNOK_clean_linker_0, # of connection points: 2
#     Edge 105, Type (0, 1), BuildingBlock: AJUNOK_clean_linker_0, # of connection points: 2
#     Edge 106, Type (0, 1), BuildingBlock: AJUNOK_clean_linker_0, # of connection points: 2
#     Edge 107, Type (0, 1), BuildingBlock: AJUNOK_clean_linker_0, # of connection points: 2
# Relax obj value: 0.106
# Max RMSD: 0.294
# Mean RMSD: 0.174
data_MOF--net-ptr--node1-NAHDIM_clean_sbu_0--node2-AZAVOO_clean_linker_0--edge1-AJUNOK_clean_linker_0
_symmetry_space_group_name_H-M    P1
_symmetry_Int_Tables_number       1
_symmetry_cell_setting            triclinic
loop_
_symmetry_equiv_pos_as_xyz
'x, y, z'
_cell_length_a     65.27492
_cell_length_b     63.064933
_cell_length_c     53.049878
_cell_angle_alpha  95.000192
_cell_angle_beta   91.879515
_cell_angle_gamma 122.11993
loop_
_atom_site_label
_atom_site_type_symbol
_atom_site_fract_x
_atom_site_fract_y
_atom_site_fract_z
_atom_type_partial_charge
C0 C 0.02927 0.3485 0.05658 0.0
O1 O 0.00743 0.34031 0.0636 0.0
O2 O 0.98285 0.32855 0.00597 0.0
Zn3 Zn 0.00912 0.36339 0.02111 0.0
O4 O 0.99817 0.37733 0.04944 0.0
C5 C 0.00216 0.38271 0.97863 0.0
O6 O 0.98003 0.36392 0.98099 0.0
O7 O 0.03554 0.36031 0.03716 0.0
C8 C 0.98297 0.38405 0.04854 0.0
O9 O 0.97167 0.38185 0.02662 0.0
C10 C 0.96358 0.3144 0.01622 0.0
O11 O 0.9599 0.32284 0.038 0.0
O12 O 0.01959 0.38648 0.99377 0.0
C13 C 0.67146 0.64179 0.04512 0.0
O14 O 0.65939 0.65246 0.04008 0.0
O15 O 0.6374 0.6487 0.09064 0.0
Zn16 Zn 0.63068 0.61661 0.07108 0.0
O17 O 0.60752 0.60688 0.04007 0.0
C18 C 0.62254 0.59374 0.11725 0.0
O19 O 0.63948 0.61685 0.12688 0.0
O20 O 0.6624 0.62404 0.05904 0.0
C21 C 0.59255 0.58401 0.03113 0.0
O22 O 0.59151 0.56612 0.0431 0.0
C23 C 0.63061 0.66237 0.08202 0.0
O24 O 0.61751 0.65468 0.06 0.0
O25 O 0.61655 0.58901 0.09347 0.0
C26 C 0.36927 0.02966 0.0074 0.0
O27 O 0.36078 0.00662 0.99661 0.0
O28 O 0.36111 0.98627 0.04973 0.0
Zn29 Zn 0.39172 0.0124 0.03647 0.0
O30 O 0.40133 -0.00012 0.00556 0.0
C31 C 0.42368 0.00993 0.07044 0.0
O32 O 0.41501 0.98911 0.05473 0.0
O33 O 0.38497 0.03829 0.02653 0.0
C34 C 0.42247 0.01578 -0.00026 0.0
O35 O 0.43559 0.03745 0.01431 0.0
C36 C 0.34273 0.96564 0.03936 0.0
O37 O 0.34249 0.95756 0.0156 0.0
O38 O 0.41733 0.02518 0.06582 0.0
C39 C 0.96402 0.64671 0.0204 0.0
O40 O 0.98686 0.65667 0.01598 0.0
O41 O 0.00802 0.66542 0.06965 0.0
Zn42 Zn 0.98237 0.62985 0.05517 0.0
O43 O 0.99394 0.61539 0.0281 0.0
C44 C 0.98736 0.61437 0.1024 0.0
O45 O 0.00819 0.63596 0.10323 0.0
O46 O 0.956 0.63239 0.03785 0.0
C47 C 0.00761 0.60705 0.0317 0.0
O48 O 0.01649 0.60878 0.0549 0.0
C49 C 0.03012 0.67754 0.06502 0.0
O50 O 0.03794 0.66661 0.0494 0.0
O51 O 0.97188 0.60734 0.08331 0.0
C52 C 0.33364 0.37594 0.03497 0.0
O53 O 0.3508 0.37619 0.04879 0.0
O54 O 0.36238 0.35406 0.98368 0.0
Zn55 Zn 0.36879 0.38719 6e-05 0.0
O56 O 0.3931 0.40076 0.03084 0.0
C57 C 0.40111 0.43364 0.97975 0.0
O58 O 0.40995 0.44135 0.00365 0.0
O59 O 0.33695 0.38089 0.01213 0.0
C60 C 0.40868 0.39574 0.03783 0.0
O61 O 0.41181 0.38016 0.02285 0.0
C62 C 0.35199 0.33422 0.99461 0.0
O63 O 0.34661 0.33563 0.01806 0.0
O64 O 0.38229 0.41163 0.97397 0.0
C65 C 0.63752 0.97808 0.07557 0.0
O66 O 0.64948 0.00223 0.08404 0.0
O67 O 0.64022 0.02014 0.03395 0.0
Zn68 Zn 0.61145 0.9944 0.05006 0.0
O69 O 0.60308 0.00757 0.08146 0.0
C70 C 0.57477 0.99196 0.01763 0.0
O71 O 0.58044 0.01187 0.03354 0.0
O72 O 0.6189 0.96903 0.05982 0.0
C73 C 0.58221 0.99186 0.08804 0.0
O74 O 0.56842 0.97018 0.07365 0.0
C75 C 0.65994 0.04063 0.042 0.0
O76 O 0.66435 0.04929 0.06628 0.0
O77 O 0.58449 0.97958 0.02197 0.0
C78 C 0.69624 0.68603 0.38865 0.0
O79 O 0.67298 0.67455 0.3918 0.0
O80 O 0.65471 0.67065 0.33727 0.0
Zn81 Zn 0.67927 0.70507 0.35453 0.0
O82 O 0.66413 0.71503 0.38142 0.0
C83 C 0.69343 0.72584 0.30666 0.0
O84 O 0.68688 0.70275 0.29788 0.0
O85 O 0.70468 0.70174 0.37249 0.0
C86 C 0.65434 0.72763 0.37872 0.0
O87 O 0.65306 0.73457 0.3564 0.0
C88 C 0.63675 0.66492 0.3219 0.0
O89 O 0.63363 0.6828 0.3157 0.0
O90 O 0.69243 0.73097 0.33009 0.0
C91 C 0.34417 0.95889 0.40116 0.0
O92 O 0.34855 0.97419 0.42192 0.0
O93 O 0.30552 0.97967 0.41878 0.0
Zn94 Zn 0.29408 0.94396 0.40526 0.0
O95 O 0.26872 0.93088 0.37553 0.0
C96 C 0.28472 0.92944 0.45596 0.0
O97 O 0.30074 0.95353 0.46288 0.0
O98 O 0.32233 0.94367 0.39187 0.0
C99 C 0.25846 0.94157 0.36712 0.0
O100 O 0.26388 0.96348 0.37862 0.0
C101 C 0.31681 0.99732 0.40509 0.0
O102 O 0.32025 0.99186 0.38177 0.0
O103 O 0.27976 0.92118 0.43243 0.0
C104 C 0.0434 0.3627 0.33081 0.0
O105 O 0.03438 0.34 0.31877 0.0
O106 O 0.03022 0.31795 0.37698 0.0
Zn107 Zn 0.06134 0.34211 0.36281 0.0
O108 O 0.06913 0.32648 0.33281 0.0
C109 C 0.09343 0.34093 0.39885 0.0
O110 O 0.08381 0.31862 0.38559 0.0
O111 O 0.0571 0.36917 0.35126 0.0
C112 C 0.08999 0.34081 0.32539 0.0
O113 O 0.10443 0.36328 0.33816 0.0
C114 C 0.01076 0.29916 0.36553 0.0
O115 O 0.01003 0.2925 0.34119 0.0
O116 O 0.08744 0.35581 0.39183 0.0
C117 C 0.63991 0.97464 0.35283 0.0
O118 O 0.66333 0.98825 0.35048 0.0
O119 O 0.68266 0.99194 0.40469 0.0
Zn120 Zn 0.65854 0.95698 0.3877 0.0
O121 O 0.67523 0.94725 0.3624 0.0
C122 C 0.63802 0.93263 0.43376 0.0
O123 O 0.63684 0.95235 0.44119 0.0
O124 O 0.63233 0.95839 0.36846 0.0
C125 C 0.68421 0.93437 0.36768 0.0
O126 O 0.68329 0.92782 0.39064 0.0
C127 C 0.69529 0.99781 0.42576 0.0
O128 O 0.6927 0.97987 0.43878 0.0
O129 O 0.64566 0.93121 0.41236 0.0
C130 C 0.99138 0.69314 0.35943 0.0
O131 O 0.0022 0.68088 0.36274 0.0
O132 O 0.03133 0.69101 0.32079 0.0
Zn133 Zn 0.03575 0.72197 0.34078 0.0
O134 O 0.0554 0.72985 0.37409 0.0
C135 C 0.0475 0.74876 0.29688 0.0
O136 O 0.02877 0.72723 0.28594 0.0
O137 O 0.0026 0.71344 0.34921 0.0
C138 C 0.07829 0.74494 0.37767 0.0
O139 O 0.09033 0.75633 0.35868 0.0
C140 C 0.04285 0.68089 0.32703 0.0
O141 O 0.05923 0.69161 0.34669 0.0
O142 O 0.05294 0.75124 0.3206 0.0
C143 C 0.2961 0.30847 0.41519 0.0
O144 O 0.30103 0.32784 0.43153 0.0
O145 O 0.31017 0.35869 0.37097 0.0
Zn146 Zn 0.2798 0.33226 0.38472 0.0
O147 O 0.27085 0.34558 0.41557 0.0
C148 C 0.25473 0.33699 0.34493 0.0
O149 O 0.26978 0.36043 0.35518 0.0
O150 O 0.28554 0.30543 0.39343 0.0
C151 C 0.24856 0.33723 0.41777 0.0
O152 O 0.23226 0.32103 0.39944 0.0
C153 C 0.33195 0.36588 0.37786 0.0
O154 O 0.33668 0.35831 0.39828 0.0
O155 O 0.25408 0.31933 0.35545 0.0
C156 C 0.36701 0.02798 0.72232 0.0
O157 O 0.34409 0.01702 0.72679 0.0
O158 O 0.32193 0.00439 0.67132 0.0
Zn159 Zn 0.34685 0.04047 0.68449 0.0
O160 O 0.33323 0.05328 0.71087 0.0
C161 C 0.34051 0.0596 0.6408 0.0
O162 O 0.31789 0.0437 0.64506 0.0
O163 O 0.37393 0.04034 0.70332 0.0
C164 C 0.32893 0.07068 0.71045 0.0
O165 O 0.33286 0.08247 0.69023 0.0
C166 C 0.29932 0.99531 0.67147 0.0
O167 O 0.29165 0.00988 0.67987 0.0
O168 O 0.35748 0.06185 0.65556 0.0
C169 C 0.01258 0.30782 0.72065 0.0
O170 O -0.00019 0.3171 0.71331 0.0
O171 O 0.97177 0.31109 0.75876 0.0
Zn172 Zn 0.96911 0.28017 0.74089 0.0
O173 O 0.951 0.27059 0.7063 0.0
C174 C 0.95759 0.25754 0.78658 0.0
O175 O 0.97479 0.2807 0.79568 0.0
O176 O 0.0031 0.29002 0.73451 0.0
C177 C 0.92828 0.25926 0.70046 0.0
O178 O 0.91346 0.25172 0.71848 0.0
C179 C 0.96496 0.32409 0.74857 0.0
O180 O 0.95455 0.3167 0.72518 0.0
O181 O 0.95254 0.25204 0.76264 0.0
C182 C 0.70502 0.70526 0.6923 0.0
O183 O 0.69281 0.69195 0.71026 0.0
O184 O 0.69806 0.64984 0.7083 0.0
Zn185 Zn 0.72735 0.67574 0.69283 0.0
O186 O 0.73327 0.66124 0.66059 0.0
C187 C 0.75324 0.6993 0.74096 0.0
O188 O 0.73389 0.70047 0.74327 0.0
O189 O 0.72118 0.70219 0.68322 0.0
C190 C 0.7485 0.65459 0.65907 0.0
O191 O 0.76061 0.65576 0.67997 0.0
C192 C 0.67694 0.63561 0.69683 0.0
O193 O 0.67371 0.63556 0.67225 0.0
O194 O 0.75551 0.69016 0.71969 0.0
C195 C 0.30397 0.30961 0.68185 0.0
O196 O 0.3272 0.32067 0.67869 0.0
O197 O 0.34579 0.32452 0.73319 0.0
Zn198 Zn 0.32071 0.29012 0.71568 0.0
O199 O 0.33494 0.27843 0.68882 0.0
C200 C 0.32359 0.26061 0.7501 0.0
O201 O 0.34444 0.27009 0.74014 0.0
O202 O 0.29527 0.29371 0.69782 0.0
C203 C 0.32526 0.25506 0.68157 0.0
O204 O 0.30614 0.23855 0.69219 0.0
C205 C 0.3684 0.3353 0.73112 0.0
O206 O 0.37632 0.3234 0.71708 0.0
O207 O 0.30863 0.26626 0.74239 0.0
C208 C 0.65647 0.03136 0.69154 0.0
O209 O 0.66519 0.01764 0.69726 0.0
O210 O 0.68741 0.01486 0.65098 0.0
Zn211 Zn 0.698 0.04973 0.66703 0.0
O212 O 0.71893 0.05907 0.69966 0.0
C213 C 0.72829 0.06956 0.62756 0.0
O214 O 0.72774 0.04858 0.62894 0.0
O215 O 0.66783 0.04835 0.67711 0.0
C216 C 0.74051 0.06415 0.70285 0.0
O217 O 0.75184 0.06384 0.68294 0.0
C218 C 0.69024 -0.00052 0.6622 0.0
O219 O 0.70122 0.00648 0.68531 0.0
O220 O 0.71638 0.07486 0.64256 0.0
C221 C 0.96013 0.64033 0.74356 0.0
O222 O 0.97225 0.66401 0.75377 0.0
O223 O 0.97145 0.68427 0.69995 0.0
Zn224 Zn 0.94067 0.6613 0.7152 0.0
O225 O 0.93501 0.67784 0.74588 0.0
C226 C 0.91414 0.66683 0.67761 0.0
O227 O 0.93057 0.69025 0.68688 0.0
O228 O 0.94357 0.63325 0.72569 0.0
C229 C 0.91365 0.66501 0.75266 0.0
O230 O 0.89768 0.64369 0.73873 0.0
C231 C 0.99145 0.70315 0.71034 0.0
O232 O 0.99351 0.71088 0.73462 0.0
O233 O 0.91375 0.64906 0.68762 0.0
H234 H 0.15415 0.34503 0.9886 0.0
H235 H 0.29279 0.29593 0.18397 0.0
H236 H 0.15496 0.35765 0.12915 0.0
H237 H 0.12561 0.36617 0.11068 0.0
H238 H 0.06845 0.28811 0.1112 0.0
H239 H 0.0981 0.27965 0.12975 0.0
H240 H 0.18684 0.3557 0.09555 0.0
H241 H 0.17859 0.35866 0.05111 0.0
H242 H 0.12065 0.27986 0.04136 0.0
H243 H 0.12929 0.27711 0.08578 0.0
H244 H 0.22528 0.36101 0.13409 0.0
H245 H 0.25988 0.37682 0.10862 0.0
H246 H 0.22403 0.30474 0.06175 0.0
H247 H 0.18906 0.289 0.08738 0.0
H248 H 0.22744 0.349 0.1857 0.0
H249 H 0.26415 0.35026 0.19987 0.0
H250 H 0.23652 0.278 0.15534 0.0
H251 H 0.19969 0.27679 0.14165 0.0
H252 H 0.18437 0.34728 0.20962 0.0
H253 H 0.20067 0.35191 0.25312 0.0
H254 H 0.19193 0.27893 0.23882 0.0
H255 H 0.17391 0.27359 0.19551 0.0
H256 H 0.14786 0.35013 0.18069 0.0
H257 H 0.13028 0.35527 0.21893 0.0
H258 H 0.10344 0.27824 0.23073 0.0
H259 H 0.12087 0.27297 0.19205 0.0
O260 O 0.1572 0.34341 0.00609 0.0
O261 O 0.12751 0.30287 0.00212 0.0
O262 O 0.29156 0.33275 0.20165 0.0
O263 O 0.27837 0.29582 0.17877 0.0
C264 C 0.14727 0.31284 0.13853 0.0
C265 C 0.16353 0.31423 0.12083 0.0
C266 C 0.18459 0.31487 0.12907 0.0
C267 C 0.18833 0.31173 0.15447 0.0
C268 C 0.17157 0.30933 0.17203 0.0
C269 C 0.1511 0.31018 0.16412 0.0
C270 C 0.12858 0.31804 0.13068 0.0
C271 C 0.13603 0.34246 0.12558 0.0
C272 C 0.11935 0.34727 0.11497 0.0
C273 C 0.0949 0.32777 0.10949 0.0
C274 C 0.08723 0.30348 0.1155 0.0
C275 C 0.10403 0.29863 0.12606 0.0
C276 C 0.15887 0.3161 0.09375 0.0
C277 C 0.17256 0.33904 0.0837 0.0
C278 C 0.16772 0.3407 0.05834 0.0
C279 C 0.149 0.31947 0.04265 0.0
C280 C 0.13523 0.29655 0.05289 0.0
C281 C 0.14014 0.29491 0.07824 0.0
C282 C 0.2049 0.32379 0.11274 0.0
C283 C 0.22486 0.34864 0.11828 0.0
C284 C 0.2445 0.35766 0.1037 0.0
C285 C 0.24454 0.34201 0.08323 0.0
C286 C 0.22424 0.31726 0.07723 0.0
C287 C 0.20445 0.30819 0.09193 0.0
C288 C 0.21077 0.31264 0.16292 0.0
C289 C 0.22926 0.33336 0.17921 0.0
C290 C 0.25025 0.33409 0.18719 0.0
C291 C 0.25325 0.31419 0.17878 0.0
C292 C 0.23478 0.2936 0.16222 0.0
C293 C 0.21373 0.29285 0.15435 0.0
C294 C 0.17777 0.31002 0.19941 0.0
C295 C 0.18501 0.33182 0.2161 0.0
C296 C 0.1947 0.33462 0.24081 0.0
C297 C 0.19808 0.31604 0.24904 0.0
C298 C 0.18954 0.29354 0.23287 0.0
C299 C 0.17935 0.29052 0.20819 0.0
C300 C 0.13553 0.31112 0.18345 0.0
C301 C 0.13735 0.33401 0.19086 0.0
C302 C 0.1276 0.33704 0.21287 0.0
C303 C 0.11588 0.31724 0.22783 0.0
C304 C 0.11243 0.29374 0.21944 0.0
C305 C 0.12229 0.29072 0.19739 0.0
C306 C 0.14385 0.32131 0.01574 0.0
C307 C 0.27557 0.31491 0.18715 0.0
H308 H 0.64091 0.81693 0.01076 0.0
H309 H 0.72901 0.01283 0.24331 0.0
H310 H 0.64563 0.80179 0.14554 0.0
H311 H 0.63129 0.75894 0.12648 0.0
H312 H 0.70435 0.77503 0.13669 0.0
H313 H 0.71871 0.81819 0.15576 0.0
H314 H 0.64654 0.83997 0.12091 0.0
H315 H 0.63732 0.82894 0.07484 0.0
H316 H 0.7095 0.84362 0.06819 0.0
H317 H 0.71858 0.85492 0.11428 0.0
H318 H 0.6502 0.87654 0.16263 0.0
H319 H 0.63716 0.89965 0.139 0.0
H320 H 0.70413 0.93375 0.10299 0.0
H321 H 0.71714 0.91039 0.12681 0.0
H322 H 0.66763 0.88731 0.21876 0.0
H323 H 0.67184 0.9253 0.24089 0.0
H324 H 0.73764 0.97134 0.20514 0.0
H325 H 0.73342 0.93313 0.18346 0.0
H326 H 0.67087 0.84308 0.2365 0.0
H327 H 0.67289 0.85874 0.28079 0.0
H328 H 0.74333 0.92486 0.27412 0.0
H329 H 0.74162 0.90864 0.22981 0.0
H330 H 0.66107 0.79931 0.19945 0.0
H331 H 0.66326 0.77079 0.22629 0.0
H332 H 0.74022 0.82448 0.24404 0.0
H333 H 0.73809 0.8528 0.21652 0.0
O334 O 0.64498 0.8215 0.02893 0.0
O335 O 0.68226 0.82921 0.02657 0.0
O336 O 0.69319 0.97294 0.25296 0.0
O337 O 0.72683 0.9975 0.23468 0.0
C338 C 0.69123 0.83878 0.16361 0.0
C339 C 0.68905 0.85519 0.14886 0.0
C340 C 0.69184 0.87753 0.16081 0.0
C341 C 0.69836 0.88434 0.1872 0.0
C342 C 0.70177 0.86854 0.20184 0.0
C343 C 0.69791 0.84556 0.19007 0.0
C344 C 0.68323 0.81309 0.15177 0.0
C345 C 0.65859 0.79614 0.14344 0.0
C346 C 0.65042 0.77173 0.13267 0.0
C347 C 0.66672 0.76376 0.13026 0.0
C348 C 0.69142 0.78071 0.13867 0.0
C349 C 0.69964 0.80529 0.14937 0.0
C350 C 0.68334 0.84857 0.12087 0.0
C351 C 0.66042 0.84107 0.10944 0.0
C352 C 0.65516 0.83464 0.08313 0.0
C353 C 0.6727 0.83546 0.06781 0.0
C354 C 0.6956 0.84284 0.07941 0.0
C355 C 0.70084 0.84931 0.10572 0.0
C356 C 0.68459 0.89192 0.1464 0.0
C357 C 0.66203 0.88897 0.1496 0.0
C358 C 0.65453 0.90194 0.13597 0.0
C359 C 0.66953 0.91812 0.11899 0.0
C360 C 0.69224 0.92122 0.11591 0.0
C361 C 0.69968 0.90801 0.12944 0.0
C362 C 0.70035 0.90749 0.19971 0.0
C363 C 0.68297 0.90562 0.21579 0.0
C364 C 0.68539 0.92735 0.22836 0.0
C365 C 0.70513 0.95137 0.22484 0.0
C366 C 0.72226 0.95315 0.20833 0.0
C367 C 0.71988 0.93138 0.19586 0.0
C368 C 0.70609 0.87473 0.22991 0.0
C369 C 0.68729 0.86031 0.24489 0.0
C370 C 0.68843 0.86931 0.27018 0.0
C371 C 0.70826 0.89298 0.28074 0.0
C372 C 0.72791 0.90652 0.26633 0.0
C373 C 0.72695 0.89728 0.24113 0.0
C374 C 0.69948 0.828 0.20578 0.0
C375 C 0.6785 0.80473 0.20871 0.0
C376 C 0.67975 0.78852 0.22405 0.0
C377 C 0.7019 0.79552 0.23713 0.0
C378 C 0.72293 0.81878 0.23418 0.0
C379 C 0.72173 0.83488 0.21852 0.0
C380 C 0.66703 0.82856 0.03987 0.0
C381 C 0.70793 0.97451 0.23837 0.0
H382 H 0.13816 0.82838 0.99247 0.0
H383 H 0.33601 0.9976 0.19652 0.0
H384 H 0.11812 0.83841 0.12255 0.0
H385 H 0.08522 0.79668 0.10238 0.0
H386 H 0.11691 0.76204 0.1414 0.0
H387 H 0.14987 0.80371 0.16114 0.0
H388 H 0.16509 0.88191 0.09554 0.0
H389 H 0.15339 0.86539 0.05045 0.0
H390 H 0.15834 0.80167 0.0646 0.0
H391 H 0.17034 0.81859 0.10955 0.0
H392 H 0.21885 0.92953 0.12479 0.0
H393 H 0.25294 0.94893 0.09826 0.0
H394 H 0.25264 0.88008 0.08942 0.0
H395 H 0.2191 0.861 0.11645 0.0
H396 H 0.21519 0.93943 0.18626 0.0
H397 H 0.25531 0.97768 0.19841 0.0
H398 H 0.28888 0.93584 0.1784 0.0
H399 H 0.24867 0.89766 0.16679 0.0
H400 H 0.17217 0.90288 0.21924 0.0
H401 H 0.18544 0.91628 0.26497 0.0
H402 H 0.23509 0.89101 0.25801 0.0
H403 H 0.22169 0.87754 0.21274 0.0
H404 H 0.12069 0.85205 0.1827 0.0
H405 H 0.09162 0.82791 0.21293 0.0
H406 H 0.14197 0.81036 0.24438 0.0
H407 H 0.17066 0.83399 0.21392 0.0
O408 O 0.14295 0.83465 0.01036 0.0
O409 O 0.14565 0.80221 0.01866 0.0
O410 O 0.30177 0.00284 0.20445 0.0
O411 O 0.31992 0.98264 0.19243 0.0
C412 C 0.15866 0.84899 0.15139 0.0
C413 C 0.17509 0.86138 0.13323 0.0
C414 C 0.19819 0.88308 0.14113 0.0
C415 C 0.20464 0.89295 0.16713 0.0
C416 C 0.1881 0.88072 0.18527 0.0
C417 C 0.16505 0.85873 0.17739 0.0
C418 C 0.13628 0.824 0.14332 0.0
C419 C 0.11757 0.82173 0.1272 0.0
C420 C 0.09887 0.79798 0.11574 0.0
C421 C 0.0987 0.77628 0.12034 0.0
C422 C 0.11679 0.77855 0.13748 0.0
C423 C 0.13541 0.80224 0.14895 0.0
C424 C 0.16834 0.85134 0.10582 0.0
C425 C 0.16368 0.86442 0.08883 0.0
C426 C 0.15697 0.85492 0.0631 0.0
C427 C 0.15484 0.83216 0.05393 0.0
C428 C 0.15973 0.8192 0.07104 0.0
C429 C 0.16651 0.82877 0.09673 0.0
C430 C 0.21656 0.89391 0.12255 0.0
C431 C 0.22596 0.91857 0.11686 0.0
C432 C 0.24532 0.92956 0.10178 0.0
C433 C 0.25529 0.9159 0.092 0.0
C434 C 0.24508 0.89083 0.09665 0.0
C435 C 0.22596 0.87997 0.112 0.0
C436 C 0.22903 0.91584 0.17547 0.0
C437 C 0.23123 0.93855 0.1847 0.0
C438 C 0.25416 0.96036 0.19155 0.0
C439 C 0.27532 0.95985 0.18923 0.0
C440 C 0.27299 0.93693 0.18031 0.0
C441 C 0.25004 0.9151 0.17363 0.0
C442 C 0.19605 0.88932 0.21274 0.0
C443 C 0.18588 0.90025 0.22769 0.0
C444 C 0.19344 0.90787 0.25367 0.0
C445 C 0.211 0.90431 0.26497 0.0
C446 C 0.22117 0.89349 0.24985 0.0
C447 C 0.21374 0.88604 0.224 0.0
C448 C 0.14793 0.84509 0.19638 0.0
C449 C 0.12547 0.84312 0.19625 0.0
C450 C 0.10894 0.82938 0.21344 0.0
C451 C 0.11478 0.81767 0.23117 0.0
C452 C 0.13729 0.81972 0.23128 0.0
C453 C 0.15367 0.83319 0.21393 0.0
C454 C 0.14755 0.82202 0.02662 0.0
C455 C 0.29974 0.9831 0.19589 0.0
H456 H 0.29913 0.17676 0.0721 0.0
H457 H 0.33001 0.01405 0.86631 0.0
H458 H 0.27852 0.17415 0.93699 0.0
H459 H 0.28738 0.21595 0.95432 0.0
H460 H 0.35951 0.25031 0.92945 0.0
H461 H 0.35062 0.20874 0.91239 0.0
H462 H 0.27642 0.12815 0.96718 0.0
H463 H 0.27912 0.14271 0.01218 0.0
H464 H 0.35262 0.20491 0.00743 0.0
H465 H 0.34976 0.18996 0.96255 0.0
H466 H 0.28049 0.08043 0.9416 0.0
H467 H 0.29316 0.05682 0.96512 0.0
H468 H 0.36618 0.12255 0.97786 0.0
H469 H 0.35341 0.14604 0.95459 0.0
H470 H 0.27046 0.07314 0.87893 0.0
H471 H 0.27037 0.03498 0.8653 0.0
H472 H 0.34661 0.07406 0.89173 0.0
H473 H 0.34651 0.11214 0.90496 0.0
H474 H 0.27215 0.11222 0.84235 0.0
H475 H 0.27503 0.09751 0.79876 0.0
H476 H 0.34983 0.12273 0.81912 0.0
H477 H 0.34702 0.13767 0.86221 0.0
H478 H 0.27085 0.15721 0.8682 0.0
H479 H 0.27211 0.18141 0.83378 0.0
H480 H 0.34918 0.21257 0.83291 0.0
H481 H 0.34741 0.18741 0.86627 0.0
O482 O 0.29851 0.17124 0.05432 0.0
O483 O 0.3362 0.20294 0.05085 0.0
O484 O 0.28995 0.00909 0.85982 0.0
O485 O 0.3295 0.02883 0.87161 0.0
C486 C 0.3099 0.16346 0.91539 0.0
C487 C 0.3108 0.14934 0.93421 0.0
C488 C 0.31048 0.12711 0.92699 0.0
C489 C 0.30839 0.1185 0.90096 0.0
C490 C 0.30749 0.13264 0.88223 0.0
C491 C 0.30818 0.15507 0.88942 0.0
C492 C 0.3138 0.18855 0.92309 0.0
C493 C 0.29602 0.1908 0.93488 0.0
C494 C 0.30113 0.21455 0.94482 0.0
C495 C 0.32402 0.23627 0.94291 0.0
C496 C 0.34155 0.23392 0.93061 0.0
C497 C 0.33648 0.21024 0.92083 0.0
C498 C 0.31279 0.15814 0.96159 0.0
C499 C 0.29309 0.14489 0.97593 0.0
C500 C 0.29468 0.15327 0.00161 0.0
C501 C 0.31606 0.17504 0.01339 0.0
C502 C 0.33586 0.18813 0.99894 0.0
C503 C 0.33426 0.17969 0.97329 0.0
C504 C 0.31607 0.11485 0.94631 0.0
C505 C 0.29901 0.08991 0.95018 0.0
C506 C 0.30631 0.07646 0.96339 0.0
C507 C 0.33076 0.08779 0.97278 0.0
C508 C 0.34726 0.11341 0.9708 0.0
C509 C 0.33996 0.12685 0.95761 0.0
C510 C 0.30841 0.09529 0.89314 0.0
C511 C 0.2871 0.07337 0.88178 0.0
C512 C 0.2871 0.05162 0.87404 0.0
C513 C 0.3085 0.05147 0.87745 0.0
C514 C 0.32984 0.07353 0.88882 0.0
C515 C 0.3298 0.09526 0.89652 0.0
C516 C 0.30931 0.1257 0.85538 0.0
C517 C 0.28921 0.11486 0.83719 0.0
C518 C 0.29087 0.10657 0.81244 0.0
C519 C 0.31261 0.10895 0.80586 0.0
C520 C 0.33287 0.12059 0.82391 0.0
C521 C 0.33128 0.12906 0.84842 0.0
C522 C 0.30906 0.17071 0.86971 0.0
C523 C 0.28797 0.1694 0.86059 0.0
C524 C 0.28878 0.18336 0.8411 0.0
C525 C 0.3108 0.19908 0.83076 0.0
C526 C 0.33191 0.20048 0.8403 0.0
C527 C 0.331 0.18629 0.85945 0.0
C528 C 0.31763 0.18399 0.04063 0.0
C529 C 0.30865 0.02848 0.86908 0.0
H530 H 0.82488 0.18198 0.07348 0.0
H531 H 0.67743 0.97894 0.84934 0.0
H532 H 0.83284 0.18668 0.93792 0.0
H533 H 0.86488 0.22672 0.96142 0.0
H534 H 0.91509 0.20209 0.95577 0.0
H535 H 0.88262 0.16158 0.93228 0.0
H536 H 0.79456 0.15108 0.96471 0.0
H537 H 0.80191 0.16559 0.01028 0.0
H538 H 0.85428 0.14384 0.01741 0.0
H539 H 0.84654 0.12913 0.97185 0.0
H540 H 0.75444 0.11248 0.92238 0.0
H541 H 0.72162 0.09661 0.95032 0.0
H542 H 0.75483 0.06481 0.99183 0.0
H543 H 0.78781 0.08083 0.96367 0.0
H544 H 0.75776 0.10327 0.868 0.0
H545 H 0.71907 0.06716 0.84801 0.0
H546 H 0.73362 0.01691 0.88388 0.0
H547 H 0.77246 0.05322 0.90353 0.0
H548 H 0.80493 0.14418 0.85058 0.0
H549 H 0.79094 0.13107 0.80528 0.0
H550 H 0.79172 0.06353 0.80952 0.0
H551 H 0.80593 0.07675 0.85506 0.0
H552 H 0.84567 0.18642 0.88592 0.0
H553 H 0.87811 0.21426 0.86077 0.0
H554 H 0.89378 0.15651 0.84292 0.0
H555 H 0.86155 0.12878 0.8688 0.0
O556 O 0.82188 0.17565 0.05559 0.0
O557 O 0.84842 0.16386 0.05829 0.0
O558 O 0.6864 0.02018 0.83848 0.0
O559 O 0.69276 0.99354 0.85687 0.0
C560 C 0.83495 0.1463 0.922 0.0
C561 C 0.81637 0.13119 0.93714 0.0
C562 C 0.79438 0.1099 0.9256 0.0
C563 C 0.79156 0.10281 0.8991 0.0
C564 C 0.81067 0.11738 0.88409 0.0
C565 C 0.83231 0.1393 0.89553 0.0
C566 C 0.85542 0.17124 0.93374 0.0
C567 C 0.85078 0.18995 0.94169 0.0
C568 C 0.86897 0.21266 0.95516 0.0
C569 C 0.89215 0.21709 0.96075 0.0
C570 C 0.8972 0.19885 0.95178 0.0
C571 C 0.87882 0.17589 0.93839 0.0
C572 C 0.81977 0.13873 0.96506 0.0
C573 C 0.80732 0.1491 0.97622 0.0
C574 C 0.81169 0.15754 0.00223 0.0
C575 C 0.82869 0.15587 0.0175 0.0
C576 C 0.84104 0.14536 0.00622 0.0
C577 C 0.83662 0.13689 0.98022 0.0
C578 C 0.77327 0.09746 0.94078 0.0
C579 C 0.75434 0.10159 0.93713 0.0
C580 C 0.73571 0.09263 0.95314 0.0
C581 C 0.73569 0.0794 0.97309 0.0
C582 C 0.75453 0.07504 0.97659 0.0
C583 C 0.77318 0.08394 0.96046 0.0
C584 C 0.76803 0.08083 0.88698 0.0
C585 C 0.75267 0.08444 0.87133 0.0
C586 C 0.73052 0.06378 0.86002 0.0
C587 C 0.72327 0.03912 0.86429 0.0
C588 C 0.73867 0.03563 0.88014 0.0
C589 C 0.76085 0.05632 0.89141 0.0
C590 C 0.80652 0.11145 0.85603 0.0
C591 C 0.8029 0.12698 0.8416 0.0
C592 C 0.79488 0.1195 0.81585 0.0
C593 C 0.79051 0.09647 0.80421 0.0
C594 C 0.79534 0.08152 0.81824 0.0
C595 C 0.80334 0.08899 0.8441 0.0
C596 C 0.85159 0.15578 0.87962 0.0
C597 C 0.85631 0.17988 0.87692 0.0
C598 C 0.87478 0.19571 0.86256 0.0
C599 C 0.88861 0.18759 0.85034 0.0
C600 C 0.88343 0.16319 0.85238 0.0
C601 C 0.86511 0.14742 0.86708 0.0
C602 C 0.83364 0.16531 0.04502 0.0
C603 C 0.69969 0.01713 0.85238 0.0
H604 H 0.86366 0.68756 0.09365 0.0
H605 H 0.70947 0.70067 0.86668 0.0
H606 H 0.89811 0.72207 0.95724 0.0
H607 H 0.9261 0.71169 0.97598 0.0
H608 H 0.87338 0.63247 0.95325 0.0
H609 H 0.84539 0.64299 0.93491 0.0
H610 H 0.85907 0.72332 0.99676 0.0
H611 H 0.86468 0.7158 0.04022 0.0
H612 H 0.82516 0.63555 0.01568 0.0
H613 H 0.81952 0.64338 0.97237 0.0
H614 H 0.8109 0.72514 0.97953 0.0
H615 H 0.77719 0.71376 0.0062 0.0
H616 H 0.74697 0.63487 0.98099 0.0
H617 H 0.78048 0.64635 0.95448 0.0
H618 H 0.81483 0.74153 0.93376 0.0
H619 H 0.78368 0.74914 0.91877 0.0
H620 H 0.74098 0.67255 0.88123 0.0
H621 H 0.7722 0.66517 0.89658 0.0
H622 H 0.84114 0.74324 0.88811 0.0
H623 H 0.82707 0.74746 0.84643 0.0
H624 H 0.79679 0.6683 0.8229 0.0
H625 H 0.81076 0.6642 0.86452 0.0
H626 H 0.88469 0.73214 0.88883 0.0
H627 H 0.90283 0.7273 0.85062 0.0
H628 H 0.86267 0.64668 0.85238 0.0
H629 H 0.84411 0.65157 0.88984 0.0
O630 O 0.86113 0.6901 0.07636 0.0
O631 O 0.84098 0.64905 0.06271 0.0
O632 O 0.74365 0.73665 0.89434 0.0
O633 O 0.72171 0.69793 0.87349 0.0
C634 C 0.85162 0.68919 0.9371 0.0
C635 C 0.83607 0.68876 0.95518 0.0
C636 C 0.8175 0.69278 0.94827 0.0
C637 C 0.81543 0.69892 0.92381 0.0
C638 C 0.83118 0.6997 0.90575 0.0
C639 C 0.84902 0.69436 0.91224 0.0
C640 C 0.86996 0.6833 0.94439 0.0
C641 C 0.89291 0.70255 0.95575 0.0
C642 C 0.9088 0.69659 0.96645 0.0
C643 C 0.90189 0.67128 0.96591 0.0
C644 C 0.8791 0.6521 0.95391 0.0
C645 C 0.86326 0.65808 0.94321 0.0
C646 C 0.83907 0.68391 0.98148 0.0
C647 C 0.85163 0.70415 0.00086 0.0
C648 C 0.85481 0.69979 0.02564 0.0
C649 C 0.84544 0.67507 0.03142 0.0
C650 C 0.83267 0.65481 0.01188 0.0
C651 C 0.82946 0.65922 0.98713 0.0
C652 C 0.798 0.68653 0.96516 0.0
C653 C 0.79703 0.70544 0.97994 0.0
C654 C 0.7779 0.69893 0.99512 0.0
C655 C 0.75974 0.67344 0.99585 0.0
C656 C 0.76102 0.65461 0.9812 0.0
C657 C 0.77999 0.66112 0.96596 0.0
C658 C 0.79565 0.70279 0.91636 0.0
C659 C 0.79857 0.72635 0.9226 0.0
C660 C 0.78082 0.73066 0.9139 0.0
C661 C 0.75986 0.71146 0.89873 0.0
C662 C 0.75689 0.68774 0.89284 0.0
C663 C 0.77463 0.68344 0.90163 0.0
C664 C 0.82694 0.70342 0.87929 0.0
C665 C 0.83195 0.72698 0.87373 0.0
C666 C 0.82383 0.72932 0.85005 0.0
C667 C 0.81063 0.70812 0.83165 0.0
C668 C 0.80703 0.68494 0.83673 0.0
C669 C 0.81502 0.68258 0.86043 0.0
C670 C 0.86338 0.69223 0.8923 0.0
C671 C 0.88033 0.71354 0.88128 0.0
C672 C 0.89067 0.71075 0.85955 0.0
C673 C 0.88414 0.68661 0.84864 0.0
C674 C 0.86794 0.66548 0.8604 0.0
C675 C 0.85759 0.66826 0.88198 0.0
C676 C 0.84899 0.67052 0.05773 0.0
C677 C 0.74129 0.71618 0.88883 0.0
H678 H 0.81883 0.68772 0.32381 0.0
H679 H 0.95634 0.62664 0.50711 0.0
H680 H 0.81855 0.6925 0.46654 0.0
H681 H 0.78951 0.70183 0.44896 0.0
H682 H 0.73389 0.62228 0.43899 0.0
H683 H 0.76312 0.61315 0.45719 0.0
H684 H 0.85198 0.69164 0.42891 0.0
H685 H 0.84374 0.69737 0.38551 0.0
H686 H 0.78427 0.61926 0.37246 0.0
H687 H 0.79287 0.61376 0.41584 0.0
H688 H 0.89235 0.69183 0.46072 0.0
H689 H 0.92461 0.70141 0.43291 0.0
H690 H 0.87846 0.62834 0.3889 0.0
H691 H 0.84632 0.61863 0.41731 0.0
H692 H 0.89291 0.68177 0.51515 0.0
H693 H 0.92963 0.68213 0.52707 0.0
H694 H 0.8995 0.60989 0.4815 0.0
H695 H 0.86273 0.60962 0.47001 0.0
H696 H 0.84807 0.6802 0.5405 0.0
H697 H 0.86172 0.68352 0.5848 0.0
H698 H 0.856 0.61202 0.56948 0.0
H699 H 0.84052 0.60795 0.52542 0.0
H700 H 0.80747 0.67924 0.51545 0.0
H701 H 0.78712 0.67823 0.55366 0.0
H702 H 0.76771 0.60184 0.55844 0.0
H703 H 0.78759 0.60266 0.51977 0.0
O704 O 0.82189 0.685 0.34084 0.0
O705 O 0.7915 0.64473 0.33512 0.0
O706 O 0.95647 0.66386 0.52628 0.0
O707 O 0.94192 0.62687 0.50288 0.0
C708 C 0.81167 0.64695 0.4701 0.0
C709 C 0.82773 0.64888 0.45191 0.0
C710 C 0.8485 0.64855 0.45915 0.0
C711 C 0.85288 0.64545 0.48439 0.0
C712 C 0.83661 0.64312 0.50251 0.0
C713 C 0.81568 0.64337 0.49524 0.0
C714 C 0.7928 0.6522 0.46325 0.0
C715 C 0.79993 0.67716 0.46111 0.0
C716 C 0.78343 0.68243 0.45091 0.0
C717 C 0.75952 0.66278 0.44261 0.0
C718 C 0.75214 0.6378 0.44561 0.0
C719 C 0.76873 0.63254 0.45595 0.0
C720 C 0.82313 0.65224 0.42539 0.0
C721 C 0.83733 0.67575 0.41655 0.0
C722 C 0.83251 0.67899 0.3918 0.0
C723 C 0.81335 0.65876 0.3755 0.0
C724 C 0.79917 0.63522 0.3845 0.0
C725 C 0.80404 0.63201 0.40924 0.0
C726 C 0.8672 0.65443 0.44118 0.0
C727 C 0.88921 0.67792 0.44505 0.0
C728 C 0.90749 0.68343 0.42906 0.0
C729 C 0.90405 0.66554 0.40891 0.0
C730 C 0.88165 0.64229 0.40455 0.0
C731 C 0.86332 0.63677 0.42062 0.0
C732 C 0.87508 0.64556 0.49191 0.0
C733 C 0.8942 0.66595 0.50795 0.0
C734 C 0.91519 0.66614 0.51464 0.0
C735 C 0.91749 0.64601 0.50525 0.0
C736 C 0.89831 0.62567 0.4891 0.0
C737 C 0.87729 0.62546 0.4825 0.0
C738 C 0.84316 0.64377 0.52977 0.0
C739 C 0.84902 0.66486 0.54687 0.0
C740 C 0.85702 0.66684 0.57211 0.0
C741 C 0.85992 0.64804 0.58062 0.0
C742 C 0.85346 0.62656 0.56363 0.0
C743 C 0.84494 0.62435 0.5384 0.0
C744 C 0.79885 0.64094 0.51463 0.0
C745 C 0.79794 0.6619 0.52403 0.0
C746 C 0.78654 0.6614 0.546 0.0
C747 C 0.77618 0.64007 0.55906 0.0
C748 C 0.77583 0.61858 0.54881 0.0
C749 C 0.78697 0.61898 0.52667 0.0
C750 C 0.80818 0.6623 0.34927 0.0
C751 C 0.93983 0.64621 0.51217 0.0
H752 H 0.33957 0.15375 0.32448 0.0
H753 H 0.37786 0.33402 0.563 0.0
H754 H 0.31958 0.13118 0.45485 0.0
H755 H 0.31205 0.091 0.43474 0.0
H756 H 0.38295 0.11101 0.46552 0.0
H757 H 0.39101 0.15208 0.48481 0.0
H758 H 0.32095 0.16567 0.43017 0.0
H759 H 0.32159 0.15815 0.38434 0.0
H760 H 0.39848 0.18743 0.39524 0.0
H761 H 0.39764 0.19517 0.4411 0.0
H762 H 0.3127 0.19091 0.46228 0.0
H763 H 0.29825 0.21504 0.4432 0.0
H764 H 0.37242 0.27675 0.44155 0.0
H765 H 0.38688 0.25211 0.46034 0.0
H766 H 0.32166 0.21154 0.52002 0.0
H767 H 0.31996 0.24704 0.5399 0.0
H768 H 0.39697 0.29692 0.5342 0.0
H769 H 0.39839 0.26119 0.51445 0.0
H770 H 0.32348 0.17092 0.54606 0.0
H771 H 0.31752 0.1848 0.5881 0.0
H772 H 0.39305 0.24563 0.59818 0.0
H773 H 0.3987 0.23192 0.55568 0.0
H774 H 0.32459 0.12621 0.51147 0.0
H775 H 0.32148 0.09739 0.54116 0.0
H776 H 0.39304 0.1543 0.57679 0.0
H777 H 0.3967 0.18239 0.54574 0.0
O778 O 0.33979 0.15714 0.34268 0.0
O779 O 0.3793 0.17238 0.3493 0.0
O780 O 0.33836 0.29333 0.55718 0.0
O781 O 0.37797 0.3197 0.555 0.0
C782 C 0.36012 0.16911 0.4826 0.0
C783 C 0.35912 0.18561 0.46687 0.0
C784 C 0.35857 0.20643 0.47783 0.0
C785 C 0.36123 0.21218 0.50443 0.0
C786 C 0.36293 0.19621 0.52024 0.0
C787 C 0.362 0.1744 0.50939 0.0
C788 C 0.35607 0.14481 0.47078 0.0
C789 C 0.33376 0.12722 0.45679 0.0
C790 C 0.32941 0.10428 0.44546 0.0
C791 C 0.34707 0.09827 0.44841 0.0
C792 C 0.36921 0.11551 0.4629 0.0
C793 C 0.37379 0.13881 0.47387 0.0
C794 C 0.35934 0.1814 0.43893 0.0
C795 C 0.338 0.17087 0.42262 0.0
C796 C 0.33838 0.16639 0.39643 0.0
C797 C 0.36011 0.17226 0.3861 0.0
C798 C 0.38145 0.18275 0.40255 0.0
C799 C 0.38103 0.18723 0.42874 0.0
C800 C 0.35081 0.21957 0.46207 0.0
C801 C 0.32585 0.20924 0.45687 0.0
C802 C 0.31763 0.22303 0.44608 0.0
C803 C 0.33427 0.24757 0.44071 0.0
C804 C 0.35932 0.25774 0.44538 0.0
C805 C 0.36757 0.24372 0.45591 0.0
C806 C 0.36014 0.23388 0.51584 0.0
C807 C 0.33811 0.23018 0.52306 0.0
C808 C 0.3372 0.25047 0.5344 0.0
C809 C 0.35835 0.27484 0.53863 0.0
C810 C 0.38037 0.27843 0.53121 0.0
C811 C 0.38124 0.2581 0.51989 0.0
C812 C 0.36149 0.20048 0.54787 0.0
C813 C 0.33892 0.18673 0.55769 0.0
C814 C 0.33554 0.19474 0.58166 0.0
C815 C 0.35471 0.21662 0.59614 0.0
C816 C 0.37784 0.22907 0.58713 0.0
C817 C 0.38118 0.22111 0.56307 0.0
C818 C 0.361 0.15629 0.5262 0.0
C819 C 0.33991 0.13218 0.52515 0.0
C820 C 0.33806 0.11585 0.54233 0.0
C821 C 0.35705 0.12351 0.56128 0.0
C822 C 0.37833 0.14758 0.56206 0.0
C823 C 0.38035 0.16375 0.54453 0.0
C824 C 0.36042 0.16731 0.35828 0.0
C825 C 0.35752 0.29644 0.5508 0.0
H826 H 0.79581 0.15349 0.32663 0.0
H827 H 0.00917 0.32835 0.51984 0.0
H828 H 0.7877 0.16343 0.46155 0.0
H829 H 0.75228 0.12046 0.44934 0.0
H830 H 0.79269 0.09004 0.47858 0.0
H831 H 0.82765 0.13284 0.49108 0.0
H832 H 0.83187 0.20872 0.42883 0.0
H833 H 0.816 0.19138 0.38449 0.0
H834 H 0.825 0.1293 0.3941 0.0
H835 H 0.84113 0.14703 0.43829 0.0
H836 H 0.88701 0.25816 0.45433 0.0
H837 H 0.91973 0.27922 0.42652 0.0
H838 H 0.92184 0.21192 0.41336 0.0
H839 H 0.88957 0.19114 0.44151 0.0
H840 H 0.88835 0.26817 0.51652 0.0
H841 H 0.92845 0.30689 0.52701 0.0
H842 H 0.96216 0.26677 0.50064 0.0
H843 H 0.92201 0.22813 0.49067 0.0
H844 H 0.84683 0.2287 0.55221 0.0
H845 H 0.86235 0.24219 0.59737 0.0
H846 H 0.91626 0.22364 0.58412 0.0
H847 H 0.90065 0.21007 0.53932 0.0
H848 H 0.79744 0.18117 0.52092 0.0
H849 H 0.7699 0.15352 0.55039 0.0
H850 H 0.8217 0.13382 0.57104 0.0
H851 H 0.84903 0.16128 0.54149 0.0
O852 O 0.80234 0.16014 0.34415 0.0
O853 O 0.80715 0.12851 0.35013 0.0
O854 O 0.9749 0.33298 0.52969 0.0
O855 O 0.9931 0.31327 0.51609 0.0
C856 C 0.83218 0.1768 0.48335 0.0
C857 C 0.84648 0.18942 0.46385 0.0
C858 C 0.86948 0.21186 0.47013 0.0
C859 C 0.87783 0.22206 0.49592 0.0
C860 C 0.86318 0.20968 0.51537 0.0
C861 C 0.84028 0.18716 0.50902 0.0
C862 C 0.81016 0.15114 0.47712 0.0
C863 C 0.78874 0.14743 0.46545 0.0
C864 C 0.76866 0.12297 0.4584 0.0
C865 C 0.76989 0.10195 0.46276 0.0
C866 C 0.79119 0.10586 0.47512 0.0
C867 C 0.81115 0.13024 0.4822 0.0
C868 C 0.83745 0.17903 0.4368 0.0
C869 C 0.83047 0.19143 0.42127 0.0
C870 C 0.82137 0.18145 0.39598 0.0
C871 C 0.81913 0.15889 0.38577 0.0
C872 C 0.8264 0.14665 0.40137 0.0
C873 C 0.83555 0.1567 0.42664 0.0
C874 C 0.886 0.22317 0.45 0.0
C875 C 0.89424 0.24784 0.44507 0.0
C876 C 0.91289 0.25981 0.4293 0.0
C877 C 0.92332 0.24716 0.41809 0.0
C878 C 0.91396 0.22196 0.42173 0.0
C879 C 0.89553 0.21009 0.43771 0.0
C880 C 0.90226 0.2454 0.50267 0.0
C881 C 0.90443 0.26778 0.51313 0.0
C882 C 0.92734 0.28986 0.51904 0.0
C883 C 0.94852 0.28994 0.51458 0.0
C884 C 0.94625 0.2674 0.50427 0.0
C885 C 0.92333 0.24531 0.49848 0.0
C886 C 0.87286 0.21876 0.54245 0.0
C887 C 0.86206 0.2277 0.5591 0.0
C888 C 0.87085 0.2353 0.58478 0.0
C889 C 0.89068 0.23425 0.59404 0.0
C890 C 0.9013 0.22514 0.57732 0.0
C891 C 0.89243 0.21741 0.55178 0.0
C892 C 0.8252 0.17321 0.52917 0.0
C893 C 0.80297 0.17119 0.53215 0.0
C894 C 0.78732 0.15548 0.54891 0.0
C895 C 0.79366 0.14144 0.56266 0.0
C896 C 0.81635 0.14428 0.56037 0.0
C897 C 0.83201 0.16006 0.54373 0.0
C898 C 0.80921 0.14819 0.35897 0.0
C899 C 0.97291 0.3134 0.52061 0.0
H900 H 0.00742 0.53138 0.4054 0.0
H901 H 0.00719 0.35677 0.18717 0.0
H902 H 0.96523 0.5214 0.27163 0.0
H903 H 0.97739 0.56425 0.28957 0.0
H904 H 0.04669 0.59428 0.25874 0.0
H905 H 0.03453 0.55158 0.241 0.0
H906 H 0.96735 0.47737 0.30315 0.0
H907 H 0.9775 0.49471 0.34811 0.0
H908 H 0.05001 0.55125 0.3319 0.0
H909 H 0.0397 0.53349 0.28711 0.0
H910 H 0.96315 0.42546 0.27269 0.0
H911 H 0.97496 0.39979 0.29353 0.0
H912 H 0.05012 0.46112 0.29953 0.0
H913 H 0.03828 0.48661 0.27847 0.0
H914 H 0.94815 0.41432 0.21557 0.0
H915 H 0.94719 0.37598 0.20033 0.0
H916 H 0.02573 0.41813 0.20942 0.0
H917 H 0.0264 0.45634 0.22436 0.0
H918 H 0.94298 0.44339 0.18138 0.0
H919 H 0.94012 0.42124 0.13952 0.0
H920 H 0.01833 0.46454 0.14158 0.0
H921 H 0.0211 0.48648 0.18316 0.0
H922 H 0.94732 0.49968 0.20765 0.0
H923 H 0.94475 0.52731 0.17931 0.0
H924 H 0.01948 0.55784 0.16465 0.0
H925 H 0.02186 0.5301 0.19263 0.0
O926 O 0.00384 0.5247 0.38758 0.0
O927 O 0.04083 0.55346 0.37819 0.0
O928 O 0.96668 0.3509 0.18832 0.0
O929 O 0.00703 0.37163 0.1931 0.0
C930 C 0.99317 0.50778 0.24673 0.0
C931 C 0.99621 0.49406 0.26458 0.0
C932 C 0.99368 0.47087 0.25628 0.0
C933 C 0.98789 0.46132 0.23022 0.0
C934 C 0.98463 0.47496 0.2125 0.0
C935 C 0.98708 0.49807 0.22074 0.0
C936 C -0.00101 0.53354 0.25499 0.0
C937 C 0.98284 0.53731 0.26844 0.0
C938 C 0.98978 0.56165 0.27861 0.0
C939 C 0.01302 0.58232 0.27565 0.0
C940 C 0.02879 0.57853 0.26143 0.0
C941 C 0.0218 0.55429 0.25115 0.0
C942 C 0.00271 0.50431 0.29189 0.0
C943 C 0.98542 0.49344 0.3094 0.0
C944 C 0.99127 0.50342 0.33504 0.0
C945 C 0.01454 0.52443 0.34359 0.0
C946 C 0.0319 0.53511 0.32595 0.0
C947 C 0.02604 0.52506 0.30035 0.0
C948 C -0.00013 0.45782 0.27406 0.0
C949 C 0.98207 0.43357 0.27914 0.0
C950 C 0.98883 0.41894 0.29084 0.0
C951 C 0.01346 0.42847 0.29771 0.0
C952 C 0.03104 0.45345 0.29441 0.0
C953 C 0.02429 0.46801 0.28253 0.0
C954 C 0.98733 0.43803 0.22109 0.0
C955 C 0.96511 0.4152 0.21419 0.0
C956 C 0.96462 0.39335 0.20554 0.0
C957 C 0.9864 0.39399 0.2037 0.0
C958 C 0.00864 0.41696 0.21064 0.0
C959 C 0.00908 0.4388 0.21921 0.0
C960 C 0.98224 0.4665 0.18512 0.0
C961 C 0.95939 0.44868 0.1723 0.0
C962 C 0.95779 0.43604 0.14858 0.0
C963 C 0.97904 0.44113 0.13773 0.0
C964 C 0.00177 0.46031 0.14978 0.0
C965 C 0.00335 0.47292 0.17333 0.0
C966 C 0.98477 0.51298 0.20209 0.0
C967 C 0.96299 0.51212 0.19802 0.0
C968 C 0.96154 0.52782 0.18193 0.0
C969 C 0.98199 0.54475 0.17013 0.0
C970 C 0.00357 0.54507 0.17379 0.0
C971 C 0.00491 0.52922 0.18959 0.0
C972 C 0.02063 0.53514 0.37079 0.0
C973 C 0.986 0.37083 0.19457 0.0
H974 H 0.49612 0.51496 0.41119 0.0
H975 H 0.3453 0.3174 0.1915 0.0
H976 H 0.5024 0.52431 0.27458 0.0
H977 H 0.53528 0.56747 0.28981 0.0
H978 H 0.58781 0.54695 0.27623 0.0
H979 H 0.55456 0.5033 0.26177 0.0
H980 H 0.46645 0.48922 0.30205 0.0
H981 H 0.47382 0.50193 0.34796 0.0
H982 H 0.52758 0.48179 0.3518 0.0
H983 H 0.51978 0.46882 0.30587 0.0
H984 H 0.42695 0.45241 0.26429 0.0
H985 H 0.39477 0.43391 0.29279 0.0
H986 H 0.42757 0.39678 0.32456 0.0
H987 H 0.46037 0.41631 0.29651 0.0
H988 H 0.42751 0.44134 0.20595 0.0
H989 H 0.38784 0.40536 0.18788 0.0
H990 H 0.403 0.35515 0.22294 0.0
H991 H 0.4428 0.39129 0.24059 0.0
H992 H 0.47668 0.48285 0.18572 0.0
H993 H 0.46354 0.47052 0.14045 0.0
H994 H 0.45707 0.39928 0.14577 0.0
H995 H 0.47202 0.41256 0.191 0.0
H996 H 0.51473 0.52372 0.21919 0.0
H997 H 0.54622 0.55063 0.19267 0.0
H998 H 0.56283 0.49328 0.17714 0.0
H999 H 0.5314 0.46643 0.20415 0.0
O1000 O 0.4934 0.5097 0.39307 0.0
O1001 O 0.52095 0.49917 0.39399 0.0
O1002 O 0.35427 0.35854 0.18029 0.0
O1003 O 0.36103 0.33194 0.19818 0.0
C1004 C 0.50577 0.48504 0.25691 0.0
C1005 C 0.48798 0.47007 0.2728 0.0
C1006 C 0.46593 0.44833 0.26208 0.0
C1007 C 0.46207 0.44085 0.23559 0.0
C1008 C 0.48044 0.45516 0.21976 0.0
C1009 C 0.5023 0.47732 0.23047 0.0
C1010 C 0.52612 0.51064 0.26744 0.0
C1011 C 0.52098 0.529 0.27535 0.0
C1012 C 0.53975 0.55367 0.28372 0.0
C1013 C 0.56402 0.56048 0.28422 0.0
C1014 C 0.5692 0.54206 0.27636 0.0
C1015 C 0.55032 0.51723 0.26807 0.0
C1016 C 0.49233 0.47776 0.30071 0.0
C1017 C 0.4796 0.48729 0.31288 0.0
C1018 C 0.48395 0.49468 0.3391 0.0
C1019 C 0.50124 0.49281 0.35358 0.0
C1020 C 0.51409 0.48341 0.34123 0.0
C1021 C 0.50968 0.47599 0.31502 0.0
C1022 C 0.44574 0.43541 0.27821 0.0
C1023 C 0.42701 0.44005 0.27723 0.0
C1024 C 0.40865 0.42943 0.29344 0.0
C1025 C 0.40848 0.4136 0.31062 0.0
C1026 C 0.4273 0.40895 0.31153 0.0
C1027 C 0.44587 0.41986 0.29545 0.0
C1028 C 0.43809 0.41889 0.2244 0.0
C1029 C 0.42231 0.42253 0.20952 0.0
C1030 C 0.39962 0.40196 0.19931 0.0
C1031 C 0.39223 0.37735 0.20397 0.0
C1032 C 0.40811 0.37382 0.21897 0.0
C1033 C 0.43084 0.39442 0.22909 0.0
C1034 C 0.47539 0.44866 0.1917 0.0
C1035 C 0.47327 0.46495 0.17701 0.0
C1036 C 0.46541 0.45772 0.15123 0.0
C1037 C 0.45874 0.43371 0.1398 0.0
C1038 C 0.46207 0.41789 0.15415 0.0
C1039 C 0.47044 0.42537 0.17995 0.0
C1040 C 0.52101 0.49327 0.21383 0.0
C1041 C 0.52532 0.51705 0.21029 0.0
C1042 C 0.54325 0.53236 0.19518 0.0
C1043 C 0.55692 0.52399 0.18301 0.0
C1044 C 0.55241 0.50004 0.18626 0.0
C1045 C 0.53456 0.48478 0.20163 0.0
C1046 C 0.50586 0.50072 0.38142 0.0
C1047 C 0.36803 0.35546 0.19338 0.0
H1048 H 0.5344 0.00176 0.42989 0.0
H1049 H 0.34609 0.97406 0.23111 0.0
H1050 H 0.55672 0.03483 0.29772 0.0
H1051 H 0.58883 0.02935 0.31459 0.0
H1052 H 0.54854 0.95199 0.27942 0.0
H1053 H 0.51639 0.95754 0.26285 0.0
H1054 H 0.51418 0.03013 0.33444 0.0
H1055 H 0.5245 0.0253 0.37746 0.0
H1056 H 0.50485 0.94936 0.35118 0.0
H1057 H 0.49428 0.95435 0.30837 0.0
H1058 H 0.4653 0.02822 0.31073 0.0
H1059 H 0.43404 0.01791 0.34032 0.0
H1060 H 0.4181 0.94179 0.33582 0.0
H1061 H 0.44876 0.95198 0.30569 0.0
H1062 H 0.46704 0.03944 0.25249 0.0
H1063 H 0.42968 0.03821 0.24137 0.0
H1064 H 0.38764 0.95804 0.24654 0.0
H1065 H 0.42513 0.95948 0.25724 0.0
H1066 H 0.50596 0.04661 0.22074 0.0
H1067 H 0.49427 0.0511 0.17796 0.0
H1068 H 0.44216 0.97068 0.16464 0.0
H1069 H 0.45427 0.96634 0.20715 0.0
H1070 H 0.54546 0.04295 0.23027 0.0
H1071 H 0.56522 0.04288 0.19166 0.0
H1072 H 0.52177 0.96135 0.18106 0.0
H1073 H 0.5015 0.96171 0.21889 0.0
O1074 O 0.53012 0.00324 0.41277 0.0
O1075 O 0.51997 0.96439 0.39825 0.0
O1076 O 0.38363 0.01618 0.23203 0.0
O1077 O 0.36116 0.97509 0.23528 0.0
C1078 C 0.51315 0.99852 0.27297 0.0
C1079 C 0.49777 0.99592 0.29221 0.0
C1080 C 0.47668 0.99629 0.28664 0.0
C1081 C 0.47146 0.00027 0.26207 0.0
C1082 C 0.48718 0.00348 0.24305 0.0
C1083 C 0.50777 0.00215 0.24836 0.0
C1084 C 0.53444 0.99668 0.27881 0.0
C1085 C 0.55521 0.01695 0.29306 0.0
C1086 C 0.57346 0.01378 0.30267 0.0
C1087 C 0.57114 0.99026 0.29818 0.0
C1088 C 0.55072 0.97028 0.2831 0.0
C1089 C 0.53253 0.9735 0.27341 0.0
C1090 C 0.5037 0.99268 0.31831 0.0
C1091 C 0.51209 0.01247 0.33807 0.0
C1092 C 0.51799 0.00965 0.36259 0.0
C1093 C 0.51558 0.98697 0.36775 0.0
C1094 C 0.50699 0.9671 0.34786 0.0
C1095 C 0.50103 0.96993 0.32337 0.0
C1096 C 0.45921 0.99083 0.30605 0.0
C1097 C 0.45511 0.00938 0.31625 0.0
C1098 C 0.4374 0.00351 0.3332 0.0
C1099 C 0.42354 0.97899 0.34011 0.0
C1100 C 0.42826 0.96071 0.33047 0.0
C1101 C 0.44588 0.96655 0.31348 0.0
C1102 C 0.44876 -0.00042 0.25574 0.0
C1103 C 0.44974 0.02164 0.25116 0.0
C1104 C 0.42838 0.02088 0.24484 0.0
C1105 C 0.40565 0.99802 0.2431 0.0
C1106 C 0.4048 0.97596 0.24775 0.0
C1107 C 0.42618 0.97673 0.25394 0.0
C1108 C 0.4809 0.00617 0.21693 0.0
C1109 C 0.49216 0.03 0.20844 0.0
C1110 C 0.48537 0.03254 0.18417 0.0
C1111 C 0.46719 0.01126 0.16812 0.0
C1112 C 0.45632 0.98737 0.17658 0.0
C1113 C 0.46311 0.98486 0.20081 0.0
C1114 C 0.52226 0.00233 0.22741 0.0
C1115 C 0.54058 0.02513 0.21978 0.0
C1116 C 0.55187 0.02504 0.19783 0.0
C1117 C 0.54509 0.00209 0.18339 0.0
C1118 C 0.52725 0.97932 0.19169 0.0
C1119 C 0.51585 0.97945 0.2134 0.0
C1120 C 0.52199 0.98408 0.39379 0.0
C1121 C 0.38289 0.99708 0.23646 0.0
H1122 H 0.50015 0.05147 0.6697 0.0
H1123 H 0.6234 0.968 0.84851 0.0
H1124 H 0.49493 0.04977 0.80649 0.0
H1125 H 0.46449 0.05627 0.78688 0.0
H1126 H 0.41026 0.97691 0.78532 0.0
H1127 H 0.44082 0.97058 0.8051 0.0
H1128 H 0.53191 0.0496 0.77344 0.0
H1129 H 0.52465 0.05754 0.73073 0.0
H1130 H 0.46115 0.98172 0.71635 0.0
H1131 H 0.46881 0.97395 0.759 0.0
H1132 H 0.57047 0.04473 0.8026 0.0
H1133 H 0.60034 0.05184 0.77223 0.0
H1134 H 0.54832 0.98007 0.72877 0.0
H1135 H 0.51854 0.97294 0.75947 0.0
H1136 H 0.56871 0.03223 0.85838 0.0
H1137 H 0.60295 0.02834 0.87047 0.0
H1138 H 0.56912 0.95735 0.8217 0.0
H1139 H 0.5348 0.96131 0.81005 0.0
H1140 H 0.5296 0.03122 0.88721 0.0
H1141 H 0.5407 0.026 0.92968 0.0
H1142 H 0.51597 0.94855 0.90358 0.0
H1143 H 0.50525 0.95409 0.86093 0.0
H1144 H 0.49267 0.04047 0.86076 0.0
H1145 H 0.4737 0.04266 0.89915 0.0
H1146 H 0.44098 0.96271 0.90085 0.0
H1147 H 0.4598 0.96054 0.86211 0.0
O1148 O 0.50281 0.04786 0.68644 0.0
O1149 O 0.47026 0.00876 0.68007 0.0
O1150 O 0.6263 0.00618 0.86942 0.0
O1151 O 0.61003 0.96994 0.84411 0.0
C1152 C 0.48937 0.00513 0.8139 0.0
C1153 C 0.50501 0.00657 0.79538 0.0
C1154 C 0.5247 0.00412 0.80187 0.0
C1155 C 0.52825 -0.00079 0.82655 0.0
C1156 C 0.51221 0.99709 0.84485 0.0
C1157 C 0.49284 0.00025 0.8386 0.0
C1158 C 0.46999 0.00972 0.80719 0.0
C1159 C 0.47631 0.03394 0.80251 0.0
C1160 C 0.45903 0.03758 0.79118 0.0
C1161 C 0.43511 0.01708 0.78456 0.0
C1162 C 0.42851 0.99307 0.79055 0.0
C1163 C 0.44587 0.98943 0.80186 0.0
C1164 C 0.50095 0.01117 0.76922 0.0
C1165 C 0.51657 0.03468 0.76094 0.0
C1166 C 0.51232 0.03918 0.73658 0.0
C1167 C 0.4923 0.02026 0.72012 0.0
C1168 C 0.47672 0.99669 0.72853 0.0
C1169 C 0.48105 0.9922 0.75286 0.0
C1170 C 0.54248 0.00827 0.78325 0.0
C1171 C 0.56553 0.03061 0.78647 0.0
C1172 C 0.58241 0.03478 0.76898 0.0
C1173 C 0.57644 0.01665 0.74801 0.0
C1174 C 0.55325 0.99436 0.74474 0.0
C1175 C 0.53632 0.99024 0.7622 0.0
C1176 C 0.54923 0.99698 0.83346 0.0
C1177 C 0.56868 0.0158 0.85043 0.0
C1178 C 0.58824 0.01355 0.85725 0.0
C1179 C 0.58877 0.9925 0.84707 0.0
C1180 C 0.56929 0.97378 0.8299 0.0
C1181 C 0.54969 0.97601 0.82318 0.0
C1182 C 0.51672 0.99305 0.87105 0.0
C1183 C 0.52627 0.01304 0.89078 0.0
C1184 C 0.53254 0.01001 0.91499 0.0
C1185 C 0.52945 0.98695 0.91981 0.0
C1186 C 0.51897 0.96665 0.90023 0.0
C1187 C 0.51274 0.96972 0.87598 0.0
C1188 C 0.4776 0.00036 0.85868 0.0
C1189 C 0.48086 0.0233 0.86898 0.0
C1190 C 0.47026 0.02457 0.89101 0.0
C1191 C 0.45627 0.00291 0.90308 0.0
C1192 C 0.45174 0.97964 0.89186 0.0
C1193 C 0.46242 0.97838 0.86981 0.0
C1194 C 0.48771 0.02517 0.69433 0.0
C1195 C 0.60952 0.99004 0.85427 0.0
H1196 H 0.96164 0.46888 0.67559 0.0
H1197 H 0.03959 0.66878 0.9023 0.0
H1198 H 0.96356 0.45576 0.80896 0.0
H1199 H 0.95339 0.41417 0.78997 0.0
H1200 H 0.0275 0.43575 0.8082 0.0
H1201 H 0.03767 0.4776 0.82713 0.0
H1202 H 0.96308 0.49351 0.78474 0.0
H1203 H 0.95553 0.48159 0.7387 0.0
H1204 H 0.0291 0.49925 0.736 0.0
H1205 H 0.03649 0.51142 0.78206 0.0
H1206 H 0.96384 0.5291 0.82284 0.0
H1207 H 0.95219 0.55348 0.7995 0.0
H1208 H 0.02268 0.59211 0.77057 0.0
H1209 H 0.03426 0.56748 0.79408 0.0
H1210 H 0.9791 0.54321 0.87904 0.0
H1211 H 0.98179 0.58127 0.89871 0.0
H1212 H 0.05129 0.62715 0.86915 0.0
H1213 H 0.04853 0.58887 0.84995 0.0
H1214 H 0.98141 0.50206 0.90069 0.0
H1215 H 0.98172 0.52006 0.9436 0.0
H1216 H 0.05548 0.58172 0.93992 0.0
H1217 H 0.05514 0.56356 0.89694 0.0
H1218 H 0.9747 0.45505 0.86338 0.0
H1219 H 0.9744 0.42608 0.89106 0.0
H1220 H 0.04908 0.48173 0.91893 0.0
H1221 H 0.04985 0.50981 0.88931 0.0
O1222 O 0.96508 0.47387 0.69376 0.0
O1223 O 0.00305 0.48317 0.69341 0.0
O1224 O 0.00248 0.62896 0.90984 0.0
O1225 O 0.03806 0.65342 0.8947 0.0
C1226 C 0.00714 0.49484 0.83044 0.0
C1227 C 0.00502 0.51064 0.81467 0.0
C1228 C 0.00684 0.53279 0.82561 0.0
C1229 C 0.01239 0.54015 0.85201 0.0
C1230 C 0.01532 0.52482 0.86779 0.0
C1231 C 0.01224 0.50188 0.85708 0.0
C1232 C 0.00141 0.46973 0.81916 0.0
C1233 C 0.97766 0.45158 0.80867 0.0
C1234 C 0.97185 0.42788 0.79793 0.0
C1235 C 0.98965 0.42182 0.79775 0.0
C1236 C 0.01341 0.43993 0.80843 0.0
C1237 C 0.01926 0.46378 0.81909 0.0
C1238 C 0.00043 0.50364 0.78666 0.0
C1239 C 0.97763 0.49509 0.77413 0.0
C1240 C 0.97332 0.48814 0.74785 0.0
C1241 C 0.99173 0.48952 0.73365 0.0
C1242 C 0.01454 0.49801 0.74635 0.0
C1243 C 0.01882 0.50499 0.77263 0.0
C1244 C -0.00016 0.54662 0.81004 0.0
C1245 C 0.97663 0.54261 0.81119 0.0
C1246 C 0.96996 0.55634 0.79776 0.0
C1247 C 0.98648 0.57437 0.78308 0.0
C1248 C 0.00965 0.57817 0.7817 0.0
C1249 C 0.01626 0.56421 0.79502 0.0
C1250 C 0.01374 0.56333 0.86331 0.0
C1251 C 0.99494 0.56151 0.87695 0.0
C1252 C 0.9965 0.58327 0.8881 0.0
C1253 C 0.0168 0.60727 0.88556 0.0
C1254 C 0.03544 0.60898 0.87153 0.0
C1255 C 0.03391 0.58717 0.8605 0.0
C1256 C 0.01824 0.53154 0.89573 0.0
C1257 C 0.99799 0.51885 0.90955 0.0
C1258 C 0.99812 0.52922 0.93391 0.0
C1259 C 0.01857 0.55228 0.94485 0.0
C1260 C 0.03961 0.56379 0.93193 0.0
C1261 C 0.03943 0.55346 0.90746 0.0
C1262 C 0.01242 0.48437 0.87395 0.0
C1263 C 0.99121 0.46074 0.87492 0.0
C1264 C 0.99099 0.44433 0.89101 0.0
C1265 C 0.01177 0.4515 0.90711 0.0
C1266 C 0.03298 0.47532 0.90629 0.0
C1267 C 0.03336 0.49153 0.88965 0.0
C1268 C 0.98706 0.48202 0.70574 0.0
C1269 C 0.01859 0.63046 0.89746 0.0
H1270 H 0.47682 0.49519 0.65426 0.0
H1271 H 0.67589 0.6519 0.86628 0.0
H1272 H 0.45671 0.49718 0.78435 0.0
H1273 H 0.42377 0.4549 0.76544 0.0
H1274 H 0.45753 0.42215 0.80429 0.0
H1275 H 0.49057 0.46432 0.82257 0.0
H1276 H 0.50353 0.54433 0.75916 0.0
H1277 H 0.49179 0.52967 0.71372 0.0
H1278 H 0.49717 0.46539 0.72362 0.0
H1279 H 0.50919 0.48044 0.76894 0.0
H1280 H 0.55688 0.59212 0.79082 0.0
H1281 H 0.59012 0.61412 0.76379 0.0
H1282 H 0.59052 0.54622 0.7464 0.0
H1283 H 0.55796 0.52455 0.7741 0.0
H1284 H 0.55573 0.59908 0.85178 0.0
H1285 H 0.59632 0.63569 0.86635 0.0
H1286 H 0.62774 0.59296 0.84096 0.0
H1287 H 0.58708 0.55643 0.82685 0.0
H1288 H 0.51242 0.56178 0.88271 0.0
H1289 H 0.52479 0.5721 0.92873 0.0
H1290 H 0.57243 0.54455 0.9191 0.0
H1291 H 0.56004 0.53428 0.87342 0.0
H1292 H 0.46138 0.51383 0.84651 0.0
H1293 H 0.43497 0.49435 0.88045 0.0
H1294 H 0.48325 0.47258 0.90818 0.0
H1295 H 0.50916 0.49142 0.87399 0.0
O1296 O 0.48157 0.50069 0.67229 0.0
O1297 O 0.48447 0.4679 0.6784 0.0
O1298 O 0.64269 0.65909 0.87324 0.0
O1299 O 0.65965 0.6378 0.86066 0.0
C1300 C 0.49794 0.50904 0.81301 0.0
C1301 C 0.51403 0.52241 0.79492 0.0
C1302 C 0.53706 0.54425 0.80307 0.0
C1303 C 0.54383 0.55299 0.82929 0.0
C1304 C 0.52747 0.53999 0.84726 0.0
C1305 C 0.50443 0.51813 0.83911 0.0
C1306 C 0.47595 0.48375 0.80486 0.0
C1307 C 0.45668 0.48081 0.78913 0.0
C1308 C 0.43792 0.45673 0.77844 0.0
C1309 C 0.4382 0.43535 0.78346 0.0
C1310 C 0.457 0.43836 0.80005 0.0
C1311 C 0.4757 0.46236 0.81067 0.0
C1312 C 0.507 0.51335 0.76735 0.0
C1313 C 0.50218 0.52711 0.75145 0.0
C1314 C 0.49546 0.51867 0.72552 0.0
C1315 C 0.49347 0.49631 0.71504 0.0
C1316 C 0.49846 0.48264 0.73107 0.0
C1317 C 0.50525 0.49114 0.75698 0.0
C1318 C 0.55499 0.55674 0.78439 0.0
C1319 C 0.56398 0.58194 0.78098 0.0
C1320 C 0.58287 0.59443 0.76562 0.0
C1321 C 0.59272 0.58173 0.75319 0.0
C1322 C 0.58301 0.55624 0.75571 0.0
C1323 C 0.56442 0.54389 0.7714 0.0
C1324 C 0.56849 0.57518 0.83812 0.0
C1325 C 0.57142 0.59768 0.84944 0.0
C1326 C 0.59461 0.61855 0.8577 0.0
C1327 C 0.61529 0.61727 0.85476 0.0
C1328 C 0.61223 0.59462 0.84347 0.0
C1329 C 0.58904 0.57375 0.83532 0.0
C1330 C 0.53553 0.54752 0.87479 0.0
C1331 C 0.52564 0.55817 0.89059 0.0
C1332 C 0.53267 0.56401 0.91673 0.0
C1333 C 0.54951 0.55906 0.92729 0.0
C1334 C 0.5593 0.54838 0.91137 0.0
C1335 C 0.55244 0.54274 0.88534 0.0
C1336 C 0.48738 0.5044 0.8581 0.0
C1337 C 0.46606 0.50459 0.85976 0.0
C1338 C 0.45109 0.49357 0.87908 0.0
C1339 C 0.45744 0.48248 0.89707 0.0
C1340 C 0.4783 0.48149 0.89478 0.0
C1341 C 0.49304 0.49219 0.87532 0.0
C1342 C 0.48624 0.48736 0.6875 0.0
C1343 C 0.63998 0.63936 0.86346 0.0
H1344 H 0.64666 0.85324 0.73947 0.0
H1345 H 0.66774 0.68274 0.53394 0.0
H1346 H 0.61169 0.83744 0.60971 0.0
H1347 H 0.62113 0.87909 0.62832 0.0
H1348 H 0.68552 0.91477 0.58818 0.0
H1349 H 0.67654 0.87331 0.57034 0.0
H1350 H 0.61549 0.79573 0.63812 0.0
H1351 H 0.62233 0.81376 0.68265 0.0
H1352 H 0.69159 0.87768 0.66786 0.0
H1353 H 0.68468 0.85926 0.62352 0.0
H1354 H 0.61878 0.74786 0.61061 0.0
H1355 H 0.63416 0.72847 0.63739 0.0
H1356 H 0.70521 0.7972 0.64598 0.0
H1357 H 0.68999 0.81618 0.61872 0.0
H1358 H 0.60423 0.73745 0.54737 0.0
H1359 H 0.60565 0.70015 0.534 0.0
H1360 H 0.68275 0.74273 0.55731 0.0
H1361 H 0.68114 0.77996 0.57019 0.0
H1362 H 0.60011 0.7736 0.5109 0.0
H1363 H 0.6005 0.75651 0.46734 0.0
H1364 H 0.67647 0.784 0.48294 0.0
H1365 H 0.67618 0.80135 0.52586 0.0
H1366 H 0.59957 0.82469 0.54668 0.0
H1367 H 0.59658 0.85071 0.51668 0.0
H1368 H 0.66545 0.86883 0.49066 0.0
H1369 H 0.66853 0.84321 0.52081 0.0
O1370 O 0.64444 0.84631 0.72186 0.0
O1371 O 0.68013 0.87847 0.71339 0.0
O1372 O 0.627 0.67614 0.52737 0.0
O1373 O 0.66665 0.69717 0.53914 0.0
C1374 C 0.64067 0.82773 0.58142 0.0
C1375 C 0.64481 0.81562 0.60038 0.0
C1376 C 0.64542 0.79389 0.5934 0.0
C1377 C 0.64156 0.78403 0.56753 0.0
C1378 C 0.63785 0.79641 0.54857 0.0
C1379 C 0.63706 0.81807 0.55549 0.0
C1380 C 0.64344 0.8524 0.58871 0.0
C1381 C 0.62755 0.85428 0.60457 0.0
C1382 C 0.63296 0.87793 0.6152 0.0
C1383 C 0.6541 0.89989 0.60971 0.0
C1384 C 0.66907 0.89802 0.59252 0.0
C1385 C 0.66389 0.87441 0.58225 0.0
C1386 C 0.64948 0.82627 0.62758 0.0
C1387 C 0.63217 0.81355 0.6446 0.0
C1388 C 0.63611 0.82394 0.66998 0.0
C1389 C 0.65747 0.84722 0.67879 0.0
C1390 C 0.67492 0.85975 0.6617 0.0
C1391 C 0.671 0.8493 0.63636 0.0
C1392 C 0.65329 0.78338 0.61272 0.0
C1393 C 0.63754 0.75882 0.61864 0.0
C1394 C 0.64631 0.74783 0.63392 0.0
C1395 C 0.67092 0.76129 0.64338 0.0
C1396 C 0.68627 0.78634 0.63855 0.0
C1397 C 0.67754 0.79726 0.62325 0.0
C1398 C 0.64251 0.76131 0.56 0.0
C1399 C 0.62138 0.73864 0.54961 0.0
C1400 C 0.62226 0.71738 0.54199 0.0
C1401 C 0.64432 0.71844 0.54465 0.0
C1402 C 0.66546 0.74123 0.55506 0.0
C1403 C 0.66457 0.76249 0.56257 0.0
C1404 C 0.63805 0.78838 0.52153 0.0
C1405 C 0.61688 0.77626 0.50467 0.0
C1406 C 0.61711 0.76659 0.47996 0.0
C1407 C 0.63848 0.7689 0.47213 0.0
C1408 C 0.65979 0.78192 0.48873 0.0
C1409 C 0.65962 0.79175 0.51316 0.0
C1410 C 0.63411 0.83179 0.53571 0.0
C1411 C 0.61387 0.83409 0.5343 0.0
C1412 C 0.61226 0.84904 0.51734 0.0
C1413 C 0.63085 0.86181 0.5015 0.0
C1414 C 0.6508 0.85899 0.50254 0.0
C1415 C 0.6525 0.84426 0.51962 0.0
C1416 C 0.66146 0.85835 0.70569 0.0
C1417 C 0.64536 0.69593 0.53651 0.0
H1418 H 0.15081 0.82753 0.7537 0.0
H1419 H 0.01978 0.64754 0.51749 0.0
H1420 H 0.16606 0.85345 0.62297 0.0
H1421 H 0.19795 0.89538 0.64223 0.0
H1422 H 0.25218 0.88051 0.61784 0.0
H1423 H 0.21989 0.83739 0.60082 0.0
H1424 H 0.12793 0.81479 0.64385 0.0
H1425 H 0.13248 0.82208 0.69028 0.0
H1426 H 0.18931 0.80623 0.69152 0.0
H1427 H 0.18427 0.79854 0.64505 0.0
H1428 H 0.0895 0.77906 0.59731 0.0
H1429 H 0.05613 0.76051 0.62441 0.0
H1430 H 0.09151 0.73022 0.66475 0.0
H1431 H 0.1249 0.74859 0.63716 0.0
H1432 H 0.09354 0.77262 0.54292 0.0
H1433 H 0.05639 0.73577 0.52102 0.0
H1434 H 0.07411 0.68686 0.55488 0.0
H1435 H 0.11141 0.7239 0.57639 0.0
H1436 H 0.1422 0.81806 0.52721 0.0
H1437 H 0.12929 0.80714 0.48165 0.0
H1438 H 0.12789 0.73808 0.48294 0.0
H1439 H 0.1419 0.74958 0.52848 0.0
H1440 H 0.18005 0.85877 0.56435 0.0
H1441 H 0.21073 0.88766 0.53823 0.0
H1442 H 0.22893 0.8323 0.51738 0.0
H1443 H 0.19823 0.80345 0.54374 0.0
O1444 O 0.14942 0.82471 0.73533 0.0
O1445 O 0.17908 0.8172 0.73492 0.0
O1446 O 0.02592 0.68843 0.50936 0.0
O1447 O 0.03439 0.66245 0.52592 0.0
C1448 C 0.17064 0.81712 0.59835 0.0
C1449 C 0.15229 0.80045 0.61286 0.0
C1450 C 0.13075 0.77903 0.60054 0.0
C1451 C 0.12819 0.77334 0.57385 0.0
C1452 C 0.14701 0.78945 0.55936 0.0
C1453 C 0.16815 0.81145 0.57159 0.0
C1454 C 0.1906 0.84217 0.61087 0.0
C1455 C 0.18482 0.85892 0.6225 0.0
C1456 C 0.20309 0.88305 0.63313 0.0
C1457 C 0.22765 0.89132 0.63166 0.0
C1458 C 0.23348 0.87454 0.61991 0.0
C1459 C 0.21508 0.85 0.60991 0.0
C1460 C 0.15555 0.8058 0.64109 0.0
C1461 C 0.14124 0.81273 0.65418 0.0
C1462 C 0.14394 0.81698 0.68071 0.0
C1463 C 0.1612 0.81463 0.69463 0.0
C1464 C 0.1758 0.80811 0.68139 0.0
C1465 C 0.17299 0.80375 0.65486 0.0
C1466 C 0.10949 0.76499 0.61517 0.0
C1467 C 0.08981 0.76795 0.61162 0.0
C1468 C 0.07091 0.75755 0.62719 0.0
C1469 C 0.07151 0.74427 0.64677 0.0
C1470 C 0.09092 0.74075 0.64998 0.0
C1471 C 0.10978 0.75097 0.63416 0.0
C1472 C 0.10528 0.75093 0.56105 0.0
C1473 C 0.08943 0.75393 0.54548 0.0
C1474 C 0.06818 0.73285 0.53306 0.0
C1475 C 0.0623 0.70835 0.53616 0.0
C1476 C 0.07811 0.70544 0.55203 0.0
C1477 C 0.0994 0.72655 0.56438 0.0
C1478 C 0.14311 0.78467 0.53116 0.0
C1479 C 0.14003 0.80105 0.51753 0.0
C1480 C 0.13255 0.79477 0.49159 0.0
C1481 C 0.12759 0.7718 0.47905 0.0
C1482 C 0.13166 0.7559 0.49237 0.0
C1483 C 0.13962 0.76243 0.51825 0.0
C1484 C 0.18712 0.82914 0.55615 0.0
C1485 C 0.19091 0.85303 0.55445 0.0
C1486 C 0.20846 0.86951 0.53963 0.0
C1487 C 0.2224 0.8623 0.52614 0.0
C1488 C 0.21847 0.83831 0.52772 0.0
C1489 C 0.20101 0.82187 0.5427 0.0
C1490 C 0.16386 0.81892 0.72282 0.0
C1491 C 0.03976 0.68589 0.52296 0.0
H1492 H 0.21923 0.36616 0.76383 0.0
H1493 H 0.02795 0.34281 0.57139 0.0
H1494 H 0.23416 0.38517 0.63143 0.0
H1495 H 0.26326 0.37491 0.64715 0.0
H1496 H 0.21707 0.29871 0.60985 0.0
H1497 H 0.18799 0.30905 0.59429 0.0
H1498 H 0.19536 0.38938 0.66691 0.0
H1499 H 0.20754 0.3869 0.71014 0.0
H1500 H 0.18371 0.30888 0.68849 0.0
H1501 H 0.17131 0.31154 0.64545 0.0
H1502 H 0.14687 0.38824 0.6467 0.0
H1503 H 0.1155 0.37942 0.67581 0.0
H1504 H 0.09455 0.30149 0.66964 0.0
H1505 H 0.1261 0.31056 0.64114 0.0
H1506 H 0.14837 0.3973 0.585 0.0
H1507 H 0.11298 0.40009 0.57544 0.0
H1508 H 0.06559 0.32199 0.58741 0.0
H1509 H 0.10111 0.31938 0.5966 0.0
H1510 H 0.18434 0.3939 0.5463 0.0
H1511 H 0.17116 0.39248 0.50187 0.0
H1512 H 0.10926 0.31708 0.50417 0.0
H1513 H 0.12276 0.31843 0.54817 0.0
H1514 H 0.22675 0.38993 0.56803 0.0
H1515 H 0.2444 0.388 0.52822 0.0
H1516 H 0.18405 0.31134 0.50733 0.0
H1517 H 0.16659 0.3134 0.54691 0.0
O1518 O 0.21414 0.36667 0.74666 0.0
O1519 O 0.20171 0.32666 0.73454 0.0
O1520 O 0.06741 0.38245 0.56954 0.0
O1521 O 0.04225 0.34228 0.57521 0.0
C1522 C 0.18935 0.35238 0.60664 0.0
C1523 C 0.17575 0.3526 0.62675 0.0
C1524 C 0.15523 0.35411 0.62183 0.0
C1525 C 0.14886 0.35657 0.59703 0.0
C1526 C 0.16255 0.35654 0.57698 0.0
C1527 C 0.18261 0.35413 0.58175 0.0
C1528 C 0.20911 0.3479 0.61159 0.0
C1529 C 0.23071 0.3665 0.62605 0.0
C1530 C 0.24723 0.36061 0.63502 0.0
C1531 C 0.24232 0.33603 0.62966 0.0
C1532 C 0.22118 0.31776 0.61424 0.0
C1533 C 0.20475 0.3237 0.60515 0.0
C1534 C 0.18267 0.35073 0.65304 0.0
C1535 C 0.19274 0.37177 0.67159 0.0
C1536 C 0.19971 0.3703 0.69624 0.0
C1537 C 0.19668 0.34771 0.70275 0.0
C1538 C 0.18636 0.32658 0.6841 0.0
C1539 C 0.17934 0.32807 0.65949 0.0
C1540 C 0.13872 0.35004 0.64193 0.0
C1541 C 0.13584 0.36945 0.65216 0.0
C1542 C 0.11796 0.36437 0.66869 0.0
C1543 C 0.10274 0.33981 0.67514 0.0
C1544 C 0.10638 0.3207 0.66557 0.0
C1545 C 0.12428 0.32581 0.64917 0.0
C1546 C 0.1273 0.35823 0.59171 0.0
C1547 C 0.13033 0.38085 0.58558 0.0
C1548 C 0.11009 0.38238 0.58014 0.0
C1549 C 0.08644 0.36126 0.58071 0.0
C1550 C 0.08352 0.33861 0.58685 0.0
C1551 C 0.10378 0.3371 0.59222 0.0
C1552 C 0.15435 0.35636 0.55047 0.0
C1553 C 0.1679 0.37715 0.53717 0.0
C1554 C 0.16035 0.37634 0.51191 0.0
C1555 C 0.13914 0.35471 0.49969 0.0
C1556 C 0.12573 0.33392 0.5131 0.0
C1557 C 0.13327 0.33475 0.53826 0.0
C1558 C 0.19538 0.35184 0.56016 0.0
C1559 C 0.21766 0.37261 0.55503 0.0
C1560 C 0.22761 0.37152 0.53236 0.0
C1561 C 0.21525 0.34972 0.5146 0.0
C1562 C 0.19361 0.32855 0.5205 0.0
C1563 C 0.18377 0.3296 0.54312 0.0
C1564 C 0.20428 0.34627 0.7289 0.0
C1565 C 0.06487 0.36273 0.57482 0.0
C1566 C 0.96817 0.40974 0.0702 0.0
C1567 C 0.97983 0.39636 0.07186 0.0
C1568 C 0.96722 0.42367 0.09175 0.0
C1569 C 0.97797 0.4247 0.11554 0.0
H1570 H 0.96038 0.41012 0.05204 0.0
H1571 H 0.95875 0.43433 0.08967 0.0
S1572 S 0.0078 0.39064 0.13098 0.0
N1573 N 0.00023 0.38324 0.10004 0.0
N1574 N 0.99851 0.40959 0.14026 0.0
C1575 C 0.98861 0.41054 0.11775 0.0
C1576 C 0.98952 0.39631 0.09598 0.0
C1577 C 0.6093 0.5822 0.16028 0.0
C1578 C 0.60795 0.57459 0.13421 0.0
C1579 C 0.59325 0.56542 0.17614 0.0
C1580 C 0.57549 0.54034 0.16661 0.0
H1581 H 0.62215 0.60155 0.16837 0.0
H1582 H 0.59435 0.57228 0.1959 0.0
S1583 S 0.56557 0.51024 0.10043 0.0
N1584 N 0.58833 0.53964 0.10001 0.0
N1585 N 0.5582 0.50819 0.12999 0.0
C1586 C 0.57468 0.53207 0.14096 0.0
C1587 C 0.59091 0.54918 0.12471 0.0
C1588 C 0.4464 0.99746 0.09782 0.0
C1589 C 0.43777 0.0134 0.09465 0.0
C1590 C 0.45673 0.99759 0.12142 0.0
C1591 C 0.4589 0.0137 0.14279 0.0
H1592 H 0.44457 0.98419 0.08212 0.0
H1593 H 0.4626 0.98456 0.12309 0.0
S1594 S 0.44007 0.05985 0.14466 0.0
N1595 N 0.43305 0.04656 0.11485 0.0
N1596 N 0.45228 0.04655 0.15929 0.0
C1597 C 0.45127 0.03047 0.13976 0.0
C1598 C 0.44076 0.03039 0.11567 0.0
C1599 C 0.41518 0.99322 0.95586 0.0
C1600 C 0.43154 0.01112 0.97597 0.0
C1601 C 0.42328 0.99024 0.93238 0.0
C1602 C 0.44796 0.00511 0.92825 0.0
H1603 H 0.39591 0.98193 0.95799 0.0
H1604 H 0.41009 0.97672 0.91717 0.0
S1605 S 0.49853 0.05199 0.97564 0.0
N1606 N 0.4739 0.04215 0.99078 0.0
N1607 N 0.48896 0.0364 0.94678 0.0
C1608 C 0.46459 0.02222 0.94849 0.0
C1609 C 0.45642 0.02527 0.97231 0.0
C1610 C 0.98738 0.40549 0.95602 0.0
C1611 C 0.00578 0.40073 0.96069 0.0
C1612 C 0.98978 0.42223 0.93905 0.0
C1613 C 0.01049 0.43455 0.92563 0.0
H1614 H 0.97104 0.39644 0.96582 0.0
H1615 H 0.97526 0.42561 0.93653 0.0
S1616 S 0.06345 0.42757 0.93034 0.0
N1617 N 0.04536 0.40939 0.95065 0.0
N1618 N 0.04954 0.44019 0.91771 0.0
C1619 C 0.02908 0.42991 0.93009 0.0
C1620 C 0.02679 0.41313 0.94784 0.0
C1621 C 0.56639 0.55267 0.99382 0.0
C1622 C 0.57881 0.57766 0.00591 0.0
C1623 C 0.55603 0.54662 0.96868 0.0
C1624 C 0.55744 0.56525 0.95478 0.0
H1625 H 0.56544 0.53775 0.00344 0.0
H1626 H 0.5474 0.52732 0.95979 0.0
S1627 S 0.58581 0.63299 0.97806 0.0
N1628 N 0.59029 0.62086 0.00243 0.0
N1629 N 0.57075 0.60928 0.95511 0.0
C1630 C 0.56858 0.59 0.96694 0.0
C1631 C 0.57929 0.59626 0.99252 0.0
C1632 C 0.99596 0.58522 0.98737 0.0
C1633 C 0.01153 0.59361 0.00993 0.0
C1634 C 0.99832 0.57164 0.96667 0.0
C1635 C 0.01649 0.56609 0.96756 0.0
H1636 H 0.98156 0.58888 0.9857 0.0
H1637 H 0.98597 0.56565 0.94968 0.0
S1638 S 0.06245 0.58425 0.02149 0.0
N1639 N 0.04612 0.59566 0.03164 0.0
N1640 N 0.05066 0.57028 0.9923 0.0
C1641 C 0.03246 0.57461 0.98968 0.0
C1642 C 0.02991 0.58827 0.011 0.0
C1643 C 0.40444 0.44095 0.93396 0.0
C1644 C 0.41489 0.44855 0.95935 0.0
C1645 C 0.41804 0.45265 0.9139 0.0
C1646 C 0.44262 0.47215 0.9185 0.0
H1647 H 0.38578 0.42539 0.92944 0.0
H1648 H 0.40953 0.44577 0.8946 0.0
S1649 S 0.47822 0.50084 0.98125 0.0
N1650 N 0.45111 0.47831 0.98787 0.0
N1651 N 0.47651 0.49995 0.95003 0.0
C1652 C 0.45306 0.48068 0.94372 0.0
C1653 C 0.43922 0.469 0.96419 0.0
C1654 C 0.54449 0.99509 0.99104 0.0
C1655 C 0.56071 0.98694 0.99305 0.0
C1656 C 0.53357 0.99399 0.96736 0.0
C1657 C 0.53864 0.98487 0.94481 0.0
H1658 H 0.54066 0.00298 0.00783 0.0
H1659 H 0.52155 0.00092 0.96663 0.0
S1660 S 0.58026 0.96177 0.93964 0.0
N1661 N 0.58118 0.96926 0.97044 0.0
N1662 N 0.5611 0.96774 0.92593 0.0
C1663 C 0.55436 0.97608 0.94659 0.0
C1664 C 0.5653 0.97697 0.97072 0.0
C1665 C 0.5485 0.9834 0.11453 0.0
C1666 C 0.57357 0.99689 0.11192 0.0
C1667 C 0.53956 0.98577 0.1375 0.0
C1668 C 0.55533 0.00154 0.15892 0.0
H1669 H 0.53559 0.97065 0.09875 0.0
H1670 H 0.52008 0.97493 0.13853 0.0
S1671 S 0.62261 0.04108 0.16214 0.0
N1672 N 0.61413 0.02703 0.13259 0.0
N1673 N 0.59728 0.03109 0.17606 0.0
C1674 C 0.58045 0.01562 0.15648 0.0
C1675 C 0.58958 0.01337 0.13292 0.0
C1676 C 0.96634 0.57113 0.11635 0.0
C1677 C 0.98376 0.59721 0.12159 0.0
C1678 C 0.96514 0.5542 0.13266 0.0
C1679 C 0.98137 0.56281 0.15465 0.0
H1680 H 0.95421 0.5636 0.09902 0.0
H1681 H 0.95214 0.53418 0.12753 0.0
S1682 S 0.02775 0.62929 0.17907 0.0
N1683 N 0.01571 0.63091 0.15201 0.0
N1684 N 0.01346 0.59899 0.18235 0.0
C1685 C 0.99787 0.58884 0.16086 0.0
C1686 C -0.00094 0.60607 0.14441 0.0
C1687 C 0.44151 0.40393 0.07072 0.0
C1688 C 0.42176 0.40608 0.06365 0.0
C1689 C 0.45356 0.41297 0.09534 0.0
C1690 C 0.44623 0.42443 0.11373 0.0
H1691 H 0.44777 0.39524 0.05716 0.0
H1692 H 0.46877 0.41111 0.09997 0.0
S1693 S 0.39445 0.43295 0.10576 0.0
N1694 N 0.39501 0.41991 0.07767 0.0
N1695 N 0.4171 0.43596 0.12385 0.0
C1696 C 0.42631 0.42632 0.10708 0.0
C1697 C 0.41423 0.41742 0.08207 0.0
C1698 C 0.64804 0.72768 0.42478 0.0
C1699 C 0.64683 0.73625 0.40146 0.0
C1700 C 0.64417 0.73761 0.44736 0.0
C1701 C 0.63868 0.7563 0.44752 0.0
H1702 H 0.65283 0.71373 0.42586 0.0
H1703 H 0.64619 0.73115 0.46501 0.0
S1704 S 0.63148 0.78408 0.39186 0.0
N1705 N 0.63827 0.76371 0.37991 0.0
N1706 N 0.63085 0.78221 0.42272 0.0
C1707 C 0.63614 0.76422 0.42439 0.0
C1708 C 0.64023 0.75422 0.40125 0.0
C1709 C 0.25366 0.88664 0.46684 0.0
C1710 C 0.27078 0.91238 0.47493 0.0
C1711 C 0.23863 0.87042 0.48372 0.0
C1712 C 0.24005 0.87931 0.50933 0.0
H1713 H 0.25139 0.87896 0.44715 0.0
H1714 H 0.22524 0.85095 0.47647 0.0
S1715 S 0.28314 0.94425 0.54094 0.0
N1716 N 0.28927 0.9455 0.51096 0.0
N1717 N 0.26094 0.91484 0.54258 0.0
C1718 C 0.25761 0.90469 0.51798 0.0
C1719 C 0.27303 0.92125 0.50083 0.0
C1720 C 0.11328 0.32926 0.43115 0.0
C1721 C 0.10819 0.34691 0.42337 0.0
C1722 C 0.12414 0.33245 0.45553 0.0
C1723 C 0.13054 0.35351 0.47308 0.0
H1724 H 0.10814 0.31234 0.41863 0.0
H1725 H 0.12707 0.31801 0.46091 0.0
S1726 S 0.12281 0.40618 0.46192 0.0
N1727 N 0.11181 0.38711 0.43493 0.0
N1728 N 0.13214 0.39291 0.48083 0.0
C1729 C 0.12668 0.37194 0.46528 0.0
C1730 C 0.11553 0.36869 0.44041 0.0
C1731 C 0.07943 0.31371 0.28353 0.0
C1732 C 0.09714 0.33348 0.30151 0.0
C1733 C 0.08557 0.30807 0.25982 0.0
C1734 C 0.10959 0.3221 0.25332 0.0
H1735 H 0.06056 0.30295 0.28747 0.0
H1736 H 0.07138 0.29315 0.24625 0.0
S1737 S 0.16326 0.37329 0.29463 0.0
N1738 N 0.14016 0.36541 0.31183 0.0
N1739 N 0.1515 0.35476 0.26738 0.0
C1740 C 0.12759 0.34109 0.27145 0.0
C1741 C 0.12143 0.3468 0.29552 0.0
C1742 C 0.69179 0.73675 0.26273 0.0
C1743 C 0.69857 0.74469 0.28895 0.0
C1744 C 0.69357 0.7535 0.24593 0.0
C1745 C 0.70257 0.77887 0.25467 0.0
H1746 H 0.68416 0.71723 0.25519 0.0
H1747 H 0.68745 0.74646 0.22602 0.0
S1748 S 0.72412 0.80969 0.32104 0.0
N1749 N 0.71572 0.78012 0.32257 0.0
N1750 N 0.71911 0.81149 0.29083 0.0
C1751 C 0.71032 0.78736 0.28057 0.0
C1752 C 0.70831 0.7703 0.29775 0.0
C1753 C 0.24051 0.94664 0.32738 0.0
C1754 C 0.24301 0.93083 0.34267 0.0
C1755 C 0.22898 0.93761 0.30258 0.0
C1756 C 0.21951 0.91248 0.29232 0.0
H1757 H 0.24854 0.96642 0.33411 0.0
H1758 H 0.22853 0.95069 0.29096 0.0
S1759 S 0.2175 0.86238 0.32593 0.0
N1760 N 0.23236 0.88805 0.34673 0.0
N1761 N 0.21057 0.87117 0.30025 0.0
C1762 C 0.2204 0.8961 0.30797 0.0
C1763 C 0.23218 0.90524 0.33312 0.0
C1764 C 0.7006 0.93757 0.32545 0.0
C1765 C 0.69367 0.92524 0.34737 0.0
C1766 C 0.7069 0.92779 0.30458 0.0
C1767 C 0.70626 0.90518 0.30476 0.0
H1768 H 0.7005 0.95456 0.32408 0.0
H1769 H 0.71104 0.93729 0.28765 0.0
S1770 S 0.69116 0.86648 0.35796 0.0
N1771 N 0.68809 0.88998 0.36854 0.0
N1772 N 0.69966 0.87148 0.32896 0.0
C1773 C 0.70039 0.89319 0.32685 0.0
C1774 C 0.69423 0.90329 0.34829 0.0
C1775 C 0.05736 0.76565 0.25497 0.0
C1776 C 0.06389 0.76848 0.2812 0.0
C1777 C 0.07359 0.78228 0.23907 0.0
C1778 C 0.09701 0.80222 0.24874 0.0
H1779 H 0.03981 0.75008 0.24647 0.0
H1780 H 0.06811 0.7789 0.21888 0.0
S1781 S 0.12244 0.81962 0.31614 0.0
N1782 N 0.09501 0.79421 0.31631 0.0
N1783 N 0.1254 0.82521 0.28623 0.0
C1784 C 0.10347 0.80598 0.27499 0.0
C1785 C 0.08692 0.78921 0.29127 0.0
C1786 C 0.21784 0.30884 0.31433 0.0
C1787 C 0.2404 0.33167 0.32051 0.0
C1788 C 0.2041 0.30377 0.29115 0.0
C1789 C 0.2126 0.32131 0.27342 0.0
H1790 H 0.21063 0.29498 0.32761 0.0
H1791 H 0.18663 0.28617 0.28719 0.0
S1792 S 0.27198 0.38225 0.27912 0.0
N1793 N 0.27141 0.37101 0.30622 0.0
N1794 N 0.24595 0.36119 0.26255 0.0
C1795 C 0.23548 0.34378 0.27907 0.0
C1796 C 0.24929 0.34904 0.30266 0.0
C1797 C 0.25622 0.35174 0.46451 0.0
C1798 C 0.24075 0.34316 0.44184 0.0
C1799 C 0.24815 0.35462 0.488 0.0
C1800 C 0.22436 0.34902 0.48957 0.0
H1801 H 0.2744 0.35535 0.46428 0.0
H1802 H 0.26029 0.36037 0.50511 0.0
S1803 S 0.17801 0.32984 0.43562 0.0
N1804 N 0.20136 0.33175 0.42231 0.0
N1805 N 0.18637 0.33736 0.46643 0.0
C1806 C 0.20919 0.34181 0.46698 0.0
C1807 C 0.21734 0.33883 0.44311 0.0
C1808 C 0.63518 0.89282 0.44222 0.0
C1809 C 0.63341 0.91349 0.45102 0.0
C1810 C 0.63361 0.87582 0.45851 0.0
C1811 C 0.63001 0.87862 0.48422 0.0
H1812 H 0.63843 0.89 0.42268 0.0
H1813 H 0.63562 0.86054 0.451 0.0
S1814 S 0.62338 0.92879 0.51689 0.0
N1815 N 0.62707 0.93521 0.48724 0.0
N1816 N 0.62418 0.90313 0.51781 0.0
C1817 C 0.62739 0.89861 0.49319 0.0
C1818 C 0.62907 0.91607 0.47661 0.0
C1819 C 0.11529 0.77095 0.40859 0.0
C1820 C 0.0911 0.75035 0.40326 0.0
C1821 C 0.1273 0.7775 0.43306 0.0
C1822 C 0.11569 0.76341 0.45289 0.0
H1823 H 0.12487 0.78253 0.39395 0.0
H1824 H 0.14567 0.79387 0.43661 0.0
S1825 S 0.05287 0.70762 0.44922 0.0
N1826 N 0.05619 0.71568 0.42014 0.0
N1827 N 0.07903 0.72805 0.46595 0.0
C1828 C 0.09181 0.7425 0.44782 0.0
C1829 C 0.07945 0.73595 0.42304 0.0
C1830 C 0.32439 0.07059 0.75689 0.0
C1831 C 0.32225 0.0792 0.73391 0.0
C1832 C 0.32055 0.07988 0.77991 0.0
C1833 C 0.31411 0.09789 0.78086 0.0
H1834 H 0.32982 0.05711 0.75734 0.0
H1835 H 0.32303 0.07323 0.79721 0.0
S1836 S 0.30433 0.12536 0.72632 0.0
N1837 N 0.31196 0.10596 0.71355 0.0
N1838 N 0.30454 0.12323 0.75714 0.0
C1839 C 0.31088 0.10596 0.7581 0.0
C1840 C 0.31503 0.09669 0.73454 0.0
C1841 C 0.92396 0.21421 0.79376 0.0
C1842 C 0.94215 0.23909 0.80385 0.0
C1843 C 0.90729 0.19724 0.80915 0.0
C1844 C 0.90807 0.2046 0.83509 0.0
H1845 H 0.92212 0.20795 0.77368 0.0
H1846 H 0.8931 0.17857 0.80048 0.0
S1847 S 0.9533 0.2664 0.87159 0.0
N1848 N 0.96091 0.26939 0.84213 0.0
N1849 N 0.92939 0.23744 0.87077 0.0
C1850 C 0.92669 0.22892 0.84569 0.0
C1851 C 0.94381 0.24617 0.83015 0.0
C1852 C 0.78708 0.69771 0.76248 0.0
C1853 C 0.77009 0.705 0.76365 0.0
C1854 C 0.80087 0.69967 0.78441 0.0
C1855 C 0.79843 0.70929 0.80825 0.0
H1856 H 0.78912 0.6895 0.74468 0.0
H1857 H 0.81312 0.69305 0.78282 0.0
S1858 S 0.75762 0.73227 0.82164 0.0
N1859 N 0.7526 0.72342 0.79069 0.0
N1860 N 0.77841 0.72686 0.83178 0.0
C1861 C 0.7823 0.7176 0.80959 0.0
C1862 C 0.76817 0.71552 0.78732 0.0
C1863 C 0.74384 0.65134 0.61159 0.0
C1864 C 0.75425 0.64834 0.63365 0.0
C1865 C 0.75055 0.64801 0.58745 0.0
C1866 C 0.76765 0.64119 0.58436 0.0
H1867 H 0.73085 0.657 0.61294 0.0
H1868 H 0.74254 0.65113 0.57109 0.0
S1869 S 0.79997 0.6303 0.63543 0.0
N1870 N 0.78228 0.63749 0.65047 0.0
N1871 N 0.79474 0.63121 0.60501 0.0
C1872 C 0.77774 0.63741 0.60601 0.0
C1873 C 0.77108 0.64098 0.63067 0.0
C1874 C 0.32765 0.08007 0.61167 0.0
C1875 C 0.34564 0.07593 0.62048 0.0
C1876 C 0.33161 0.09545 0.59261 0.0
C1877 C 0.35364 0.10713 0.5813 0.0
H1878 H 0.31039 0.07166 0.61981 0.0
H1879 H 0.31735 0.09847 0.58695 0.0
S1880 S 0.40619 0.10126 0.59653 0.0
N1881 N 0.38618 0.08428 0.61612 0.0
N1882 N 0.39342 0.11274 0.57962 0.0
C1883 C 0.37177 0.10299 0.58972 0.0
C1884 C 0.36781 0.08749 0.60944 0.0
C1885 C 0.89378 0.23772 0.666 0.0
C1886 C 0.9188 0.25435 0.67337 0.0
C1887 C 0.88466 0.23181 0.64033 0.0
C1888 C 0.90023 0.24228 0.62114 0.0
H1889 H 0.88118 0.22875 0.68007 0.0
H1890 H 0.8654 0.2184 0.6354 0.0
S1891 S 0.96666 0.28894 0.63027 0.0
N1892 N 0.95869 0.2827 0.65922 0.0
N1893 N 0.94139 0.27151 0.61118 0.0
C1894 C 0.92508 0.25959 0.62824 0.0
C1895 C 0.93439 0.26565 0.6543 0.0
C1896 C 0.3285 0.22118 0.65769 0.0
C1897 C 0.3348 0.24641 0.66088 0.0
C1898 C 0.33585 0.21194 0.63729 0.0
C1899 C 0.34971 0.22754 0.61925 0.0
H1900 H 0.31754 0.20834 0.67088 0.0
H1901 H 0.33028 0.19229 0.63537 0.0
S1902 S 0.37064 0.29492 0.61864 0.0
N1903 N 0.3559 0.28691 0.64431 0.0
N1904 N 0.36921 0.26936 0.60566 0.0
C1905 C 0.3565 0.25292 0.62242 0.0
C1906 C 0.34917 0.26239 0.64331 0.0
C1907 C 0.75028 0.11262 0.61328 0.0
C1908 C 0.74374 0.0873 0.60986 0.0
C1909 C 0.76619 0.13006 0.59773 0.0
C1910 C 0.77614 0.12276 0.5783 0.0
H1911 H 0.7435 0.11918 0.62843 0.0
H1912 H 0.77118 0.14948 0.60126 0.0
S1913 S 0.76262 0.0583 0.5593 0.0
N1914 N 0.747 0.0555 0.58401 0.0
N1915 N 0.77681 0.08833 0.55491 0.0
C1916 C 0.76911 0.09741 0.57405 0.0
C1917 C 0.75294 0.07966 0.5898 0.0
C1918 C 0.90646 0.6805 0.63778 0.0
C1919 C 0.89878 0.66165 0.65397 0.0
C1920 C 0.89353 0.67591 0.61436 0.0
C1921 C 0.8722 0.65238 0.60626 0.0
H1922 H 0.92305 0.69879 0.64282 0.0
H1923 H 0.90073 0.69078 0.60219 0.0
S1924 S 0.84295 0.59749 0.64273 0.0
N1925 N 0.86771 0.61897 0.66103 0.0
N1926 N 0.84296 0.61054 0.61705 0.0
C1927 C 0.86383 0.63357 0.62259 0.0
C1928 C 0.87719 0.63817 0.64644 0.0
C1929 C 0.88231 0.6601 0.78125 0.0
C1930 C 0.90694 0.67266 0.77661 0.0
C1931 C 0.87521 0.66515 0.80442 0.0
C1932 C 0.89244 0.68293 0.82394 0.0
H1933 H 0.8683 0.64597 0.76699 0.0
H1934 H 0.85603 0.6549 0.80713 0.0
S1935 S 0.95919 0.72141 0.82149 0.0
N1936 N 0.94865 0.7042 0.7934 0.0
N1937 N 0.93515 0.7135 0.83715 0.0
C1938 C 0.91709 0.69614 0.81945 0.0
C1939 C 0.92438 0.69104 0.79575 0.0
C1940 C 0.32834 0.22888 0.76961 0.0
C1941 C 0.31807 0.24361 0.76981 0.0
C1942 C 0.32521 0.214 0.78897 0.0
C1943 C 0.312 0.21355 0.80957 0.0
H1944 H 0.33905 0.22893 0.7544 0.0
H1945 H 0.33345 0.20294 0.7879 0.0
S1946 S 0.28168 0.24909 0.81918 0.0
N1947 N 0.29383 0.25666 0.792 0.0
N1948 N 0.28859 0.22931 0.82901 0.0
C1949 C 0.30126 0.2279 0.80981 0.0
C1950 C 0.30415 0.2428 0.78979 0.0
C1951 C 0.77779 0.08009 0.73269 0.0
C1952 C 0.7528 0.07089 0.72893 0.0
C1953 C 0.79 0.08784 0.7572 0.0
C1954 C 0.77756 0.0866 0.77863 0.0
H1955 H 0.78813 0.08179 0.71659 0.0
H1956 H 0.80931 0.09532 0.75939 0.0
S1957 S 0.7121 0.0624 0.77984 0.0
N1958 N 0.71594 0.05975 0.74938 0.0
N1959 N 0.73915 0.07455 0.79516 0.0
C1960 C 0.75262 0.07687 0.77535 0.0
C1961 C 0.74015 0.06893 0.75056 0.0
C1962 C 0.06788 0.34919 0.06117 0.0
C1963 C 0.04582 0.34335 0.07067 0.0
C1964 C 0.0836 0.34402 0.07386 0.0
C1965 C 0.07781 0.33277 0.09647 0.0
H1966 H 0.07304 0.35766 0.0437 0.0
H1967 H 0.10032 0.34864 0.06579 0.0
S1968 S 0.02313 0.31501 0.13021 0.0
N1969 N 0.0195 0.32644 0.10478 0.0
N1970 N 0.0492 0.3168 0.12844 0.0
C1971 C 0.05601 0.32701 0.10634 0.0
C1972 C 0.04 0.33232 0.09351 0.0
C1973 C 0.63477 0.70417 0.08356 0.0
C1974 C 0.63934 0.68775 0.09535 0.0
C1975 C 0.64378 0.72872 0.09498 0.0
C1976 C 0.65774 0.73783 0.1186 0.0
H1977 H 0.6244 0.69819 0.06517 0.0
H1978 H 0.64002 0.7408 0.0851 0.0
S1979 S 0.67369 0.70226 0.15834 0.0
N1980 N 0.65805 0.68223 0.13269 0.0
N1981 N 0.67483 0.72847 0.15408 0.0
C1982 C 0.6622 0.72165 0.13085 0.0
C1983 C 0.653 0.69658 0.11927 0.0
C1984 C 0.29936 0.93081 0.04153 0.0
C1985 C 0.32089 0.95237 0.05349 0.0
C1986 C 0.27812 0.91896 0.05408 0.0
C1987 C 0.27763 0.92845 0.07886 0.0
H1988 H 0.29877 0.92316 0.02225 0.0
H1989 H 0.26187 0.90249 0.04423 0.0
S1990 S 0.32918 0.98286 0.11956 0.0
N1991 N 0.34046 0.98167 0.09246 0.0
N1992 N 0.30044 0.95939 0.11559 0.0
C1993 C 0.299 0.94953 0.09126 0.0
C1994 C 0.32066 0.96149 0.0787 0.0
C1995 C 0.36417 0.06646 0.01299 0.0
C1996 C 0.35958 0.04446 0.99819 0.0
C1997 C 0.35447 0.08022 0.00493 0.0
C1998 C 0.33974 0.07239 0.98187 0.0
H1999 H 0.37519 0.07304 0.03102 0.0
H2000 H 0.35844 0.09706 0.01683 0.0
S2001 S 0.32373 0.01736 0.93515 0.0
N2002 N 0.34017 0.01625 0.95869 0.0
N2003 N 0.3222 0.04224 0.94363 0.0
C2004 C 0.33529 0.05068 0.96674 0.0
C2005 C 0.34515 0.0367 0.97487 0.0
C2006 C 0.94987 0.28071 0.97953 0.0
C2007 C 0.94553 0.28884 0.00324 0.0
C2008 C 0.93286 0.25708 0.96622 0.0
C2009 C 0.91085 0.24082 0.97608 0.0
H2010 H 0.9664 0.2928 0.97091 0.0
H2011 H 0.93662 0.25181 0.94777 0.0
S2012 S 0.89125 0.25172 0.03804 0.0
N2013 N 0.91796 0.27775 0.03659 0.0
N2014 N 0.88603 0.23333 0.01137 0.0
C2015 C 0.90649 0.24823 -1e-05 0.0
C2016 C 0.92382 0.27224 0.01363 0.0
C2017 C 0.70343 0.66934 0.01801 0.0
C2018 C 0.69481 0.65025 0.03412 0.0
C2019 C 0.72488 0.67727 0.0064 0.0
C2020 C 0.73851 0.6664 0.01036 0.0
H2021 H 0.69338 0.67804 0.01393 0.0
H2022 H 0.73042 0.69149 0.99359 0.0
S2023 S 0.72525 0.61735 0.05231 0.0
N2024 N 0.70254 0.62171 0.05453 0.0
N2025 N 0.74297 0.6368 0.03261 0.0
C2026 C 0.7306 0.64785 0.02694 0.0
C2027 C 0.70874 0.63975 0.03885 0.0
C2028 C 0.92366 0.64135 0.00983 0.0
C2029 C 0.94837 0.65276 0.00577 0.0
C2030 C 0.90869 0.64719 0.99661 0.0
C2031 C 0.91788 0.66477 0.97893 0.0
H2032 H 0.91579 0.62788 0.02344 0.0
H2033 H 0.88985 0.63821 0.00058 0.0
S2034 S 0.98085 0.69925 0.96037 0.0
N2035 N 0.98112 0.68212 0.98205 0.0
N2036 N 0.95282 0.69287 0.9573 0.0
C2037 C 0.9424 0.67611 0.97443 0.0
C2038 C 0.95766 0.67015 0.98778 0.0
C2039 C 0.33412 0.28789 0.99352 0.0
C2040 C 0.34495 0.30951 0.98076 0.0
C2041 C 0.32691 0.26418 0.98097 0.0
C2042 C 0.33029 0.2612 0.9552 0.0
H2043 H 0.33126 0.28923 0.01345 0.0
H2044 H 0.31908 0.24815 0.99165 0.0
S2045 S 0.35647 0.31118 0.91258 0.0
N2046 N 0.35791 0.32603 0.94044 0.0
N2047 N 0.34416 0.28132 0.91695 0.0
C2048 C 0.34075 0.28245 0.94206 0.0
C2049 C 0.34812 0.30663 0.9548 0.0
C2050 C 0.70357 0.06762 0.0335 0.0
C2051 C 0.67889 0.0524 0.02424 0.0
C2052 C 0.72188 0.07633 0.01683 0.0
C2053 C 0.71613 0.07037 0.99035 0.0
H2054 H 0.70884 0.07218 0.05377 0.0
H2055 H 0.74069 0.08775 0.02471 0.0
S2056 S 0.65438 0.03212 0.95631 0.0
N2057 N 0.64971 0.03259 0.98669 0.0
N2058 N 0.68416 0.04884 0.95557 0.0
C2059 C 0.69157 0.05575 0.98081 0.0
C2060 C 0.67295 0.04681 0.9977 0.0
C2061 C 0.66868 0.97355 0.0985 0.0
C2062 C 0.64573 0.96205 0.08472 0.0
C2063 C 0.67664 0.95913 0.10868 0.0
C2064 C 0.66186 0.93271 0.10564 0.0
H2065 H 0.68057 0.9939 0.10178 0.0
H2066 H 0.69415 0.96876 0.11972 0.0
S2067 S 0.60105 0.89314 0.06986 0.0
N2068 N 0.60887 0.92242 0.0675 0.0
N2069 N 0.62393 0.89539 0.08685 0.0
C2070 C 0.63922 0.92087 0.09134 0.0
C2071 C 0.63114 0.93552 0.08078 0.0
C2072 C 0.07235 0.71387 0.07882 0.0
C2073 C 0.04714 0.70319 0.07845 0.0
C2074 C 0.08884 0.73752 0.09245 0.0
C2075 C 0.08076 0.75146 0.10601 0.0
H2076 H 0.07946 0.70377 0.06886 0.0
H2077 H 0.10811 0.74502 0.0923 0.0
S2078 S 0.01684 0.73252 0.11071 0.0
N2079 N 0.01494 0.70881 0.09252 0.0
N2080 N 0.04615 0.75329 0.1181 0.0
C2081 C 0.05571 0.74131 0.1055 0.0
C2082 C 0.03885 0.71714 0.09177 0.0
C2083 C 0.31058 0.36992 0.07273 0.0
C2084 C 0.31064 0.36863 0.04612 0.0
C2085 C 0.28912 0.36138 0.08436 0.0
C2086 C 0.26677 0.3511 0.0699 0.0
H2087 H 0.32726 0.37739 0.08481 0.0
H2088 H 0.28998 0.36244 0.10491 0.0
S2089 S 0.25689 0.34408 -0.00032 0.0
N2090 N 0.28642 0.35673 0.00557 0.0
N2091 N 0.24585 0.34067 0.02766 0.0
C2092 C 0.26646 0.34993 0.0433 0.0
C2093 C 0.28847 0.35882 0.03136 0.0
C2094 C 0.73581 0.68925 0.39657 0.0
C2095 C 0.71203 0.68009 0.40307 0.0
C2096 C 0.75096 0.68351 0.40948 0.0
C2097 C 0.74296 0.66844 0.42942 0.0
H2098 H 0.74277 0.70075 0.38121 0.0
H2099 H 0.76903 0.69069 0.40359 0.0
S2100 S 0.68288 0.64078 0.45485 0.0
N2101 N 0.68146 0.6557 0.43143 0.0
N2102 N 0.7102 0.6452 0.45574 0.0
C2103 C 0.71937 0.65932 0.43631 0.0
C2104 C 0.70386 0.66512 0.42316 0.0
C2105 C 0.33105 0.03087 0.44196 0.0
C2106 C 0.32599 0.02366 0.4155 0.0
C2107 C 0.33898 0.05548 0.45246 0.0
C2108 C 0.34172 0.07353 0.43687 0.0
H2109 H 0.32875 0.01737 0.45467 0.0
H2110 H 0.34222 0.06021 0.47293 0.0
S2111 S 0.3314 0.06464 0.36665 0.0
N2112 N 0.32499 0.03694 0.37398 0.0
N2113 N 0.33942 0.08306 0.39393 0.0
C2114 C 0.33712 0.06679 0.41046 0.0
C2115 C 0.3294 0.04187 0.3997 0.0
C2116 C 0.96735 0.26427 0.36726 0.0
C2117 C 0.98868 0.28598 0.37935 0.0
C2118 C 0.94614 0.25183 0.37978 0.0
C2119 C 0.94542 0.26087 0.40468 0.0
H2120 H 0.96699 0.25674 0.34799 0.0
H2121 H 0.93015 0.2351 0.3699 0.0
S2122 S 0.9962 0.31614 0.44537 0.0
N2123 N 0.00764 0.31548 0.41823 0.0
N2124 N 0.96774 0.29203 0.44143 0.0
C2125 C 0.96651 0.28237 0.41707 0.0
C2126 C 0.98815 0.29494 0.40451 0.0
C2127 C 0.0431 0.40242 0.33655 0.0
C2128 C 0.03631 0.37967 0.3216 0.0
C2129 C 0.03566 0.4182 0.32878 0.0
C2130 C 0.02102 0.41166 0.30592 0.0
H2131 H 0.05403 0.40802 0.35453 0.0
H2132 H 0.04114 0.43547 0.34086 0.0
S2133 S -3e-05 0.35556 0.25872 0.0
N2134 N 0.01519 0.35233 0.28195 0.0
N2135 N 0.00132 0.38204 0.26758 0.0
C2136 C 0.01453 0.38935 0.29053 0.0
C2137 C 0.02216 0.37334 0.2983 0.0
C2138 C 0.60091 0.63199 0.29246 0.0
C2139 C 0.61919 0.63816 0.31174 0.0
C2140 C 0.58349 0.60682 0.28327 0.0
C2141 C 0.58369 0.58687 0.29299 0.0
H2142 H 0.59988 0.64667 0.2845 0.0
H2143 H 0.56964 0.60292 0.26851 0.0
S2144 S 0.6274 0.59262 0.3437 0.0
N2145 N 0.63642 0.62201 0.34018 0.0
N2146 N 0.60342 0.57477 0.32298 0.0
C2147 C 0.60199 0.59268 0.31199 0.0
C2148 C 0.61979 0.6183 0.32136 0.0
C2149 C 0.38838 0.98229 0.39429 0.0
C2150 C 0.36446 0.96195 0.38666 0.0
C2151 C 0.40749 0.98743 0.37939 0.0
C2152 C 0.40346 0.97229 0.35642 0.0
H2153 H 0.39234 0.99484 0.41156 0.0
H2154 H 0.42552 0.00353 0.38576 0.0
S2155 S 0.34458 0.91638 0.32805 0.0
N2156 N 0.3381 0.92608 0.35476 0.0
N2157 N 0.37401 0.93601 0.32678 0.0
C2158 C 0.37984 0.95153 0.34885 0.0
C2159 C 0.36036 0.94628 0.36396 0.0
C2160 C 0.59756 0.96243 0.339 0.0
C2161 C 0.62278 0.97857 0.33794 0.0
C2162 C 0.581 0.96606 0.32563 0.0
C2163 C 0.58901 0.98604 0.31083 0.0
H2164 H 0.59049 0.94694 0.35037 0.0
H2165 H 0.56178 0.95344 0.32735 0.0
S2166 S 0.65284 0.03307 0.30071 0.0
N2167 N 0.65483 0.015 0.3201 0.0
N2168 N 0.62354 0.02163 0.29507 0.0
C2169 C 0.61406 0.00212 0.30928 0.0
C2170 C 0.63097 0.9984 0.32277 0.0
C2171 C 0.01555 0.6428 0.29579 0.0
C2172 C 0.03629 0.65624 0.31346 0.0
C2173 C 0.00809 0.61887 0.2836 0.0
C2174 C 0.02127 0.60767 0.2884 0.0
H2175 H 0.00471 0.65061 0.29155 0.0
H2176 H 0.99196 0.60909 0.27026 0.0
S2177 S 0.07661 0.63441 0.33289 0.0
N2178 N 0.06981 0.65622 0.33508 0.0
N2179 N 0.05569 0.61124 0.31199 0.0
C2180 C 0.04208 0.62082 0.30579 0.0
C2181 C 0.04962 0.6451 0.31837 0.0
C2182 C 0.37578 0.39154 0.36991 0.0
C2183 C 0.35116 0.37943 0.3608 0.0
C2184 C 0.39422 0.40272 0.35363 0.0
C2185 C 0.38871 0.40202 0.32759 0.0
H2186 H 0.38087 0.39228 0.38977 0.0
H2187 H 0.41295 0.412 0.36149 0.0
S2188 S 0.32714 0.37152 0.29382 0.0
N2189 N 0.32227 0.36705 0.32378 0.0
N2190 N 0.35692 0.38745 0.29321 0.0
C2191 C 0.3642 0.38996 0.31819 0.0
C2192 C 0.34543 0.37882 0.33478 0.0
C2193 C 0.32283 0.3004 0.4419 0.0
C2194 C 0.30537 0.29237 0.42107 0.0
C2195 C 0.33267 0.28616 0.44758 0.0
C2196 C 0.32525 0.26326 0.43278 0.0
H2197 H 0.32912 0.31791 0.45393 0.0
H2198 H 0.34576 0.29282 0.46404 0.0
S2199 S 0.28045 0.23385 0.37606 0.0
N2200 N 0.28135 0.26003 0.38537 0.0
N2201 N 0.29984 0.23323 0.3963 0.0
C2202 C 0.30794 0.25499 0.41187 0.0
C2203 C 0.29802 0.26957 0.40592 0.0
C2204 C 0.72377 0.03167 0.46042 0.0
C2205 C 0.71333 0.02469 0.4351 0.0
C2206 C 0.74154 0.05681 0.46944 0.0
C2207 C 0.7496 0.07591 0.45345 0.0
H2208 H 0.71828 0.01761 0.4734 0.0
H2209 H 0.74918 0.06132 0.48903 0.0
S2210 S 0.72869 0.06763 0.3854 0.0
N2211 N 0.71253 0.03909 0.39411 0.0
N2212 N 0.74625 0.08616 0.41102 0.0
C2213 C 0.73921 0.06929 0.42818 0.0
C2214 C 0.72102 0.04373 0.41901 0.0
C2215 C 0.95872 0.70057 0.37155 0.0
C2216 C 0.96759 0.68452 0.3695 0.0
C2217 C 0.93762 0.69391 0.38352 0.0
C2218 C 0.92449 0.67085 0.39364 0.0
H2219 H 0.96854 0.71881 0.36463 0.0
H2220 H 0.93179 0.70712 0.38534 0.0
S2221 S 0.93905 0.62141 0.39199 0.0
N2222 N 0.9607 0.64382 0.37748 0.0
N2223 N 0.92129 0.63159 0.40018 0.0
C2224 C 0.93258 0.6542 0.39088 0.0
C2225 C 0.95407 0.66097 0.37878 0.0
C2226 C 0.40794 0.03463 0.73227 0.0
C2227 C 0.38422 0.0256 0.73896 0.0
C2228 C 0.42435 0.03209 0.74734 0.0
C2229 C 0.41768 0.02043 0.76966 0.0
H2230 H 0.41384 0.04348 0.71509 0.0
H2231 H 0.44227 0.03887 0.7412 0.0
S2232 S 0.3585 0.99503 0.79668 0.0
N2233 N 0.35532 0.00541 0.77023 0.0
N2234 N 0.38636 0.00083 0.79846 0.0
C2235 C 0.39425 0.01168 0.77685 0.0
C2236 C 0.37749 0.01425 0.76155 0.0
C2237 C 0.96549 0.36405 0.74941 0.0
C2238 C 0.97063 0.34845 0.76207 0.0
C2239 C 0.97168 0.38771 0.76114 0.0
C2240 C 0.98331 0.39672 0.78592 0.0
H2241 H 0.95687 0.35813 0.73015 0.0
H2242 H 0.96763 0.39921 0.75058 0.0
S2243 S -0.00055 0.36291 0.8281 0.0
N2244 N 0.98721 0.34349 0.80141 0.0
N2245 N 0.99872 0.38803 0.82331 0.0
C2246 C 0.98824 0.3813 0.79901 0.0
C2247 C 0.98189 0.35713 0.78714 0.0
C2248 C 0.63363 0.60121 0.69948 0.0
C2249 C 0.65586 0.62155 0.71166 0.0
C2250 C 0.61321 0.58822 0.71303 0.0
C2251 C 0.61424 0.59551 0.73906 0.0
H2252 H 0.632 0.59521 0.67936 0.0
H2253 H 0.59644 0.57259 0.70306 0.0
S2254 S 0.6678 0.64715 0.78006 0.0
N2255 N 0.67753 0.64804 0.75159 0.0
N2256 N 0.639 0.62377 0.77672 0.0
C2257 C 0.63623 0.61569 0.75151 0.0
C2258 C 0.65709 0.62867 0.73789 0.0
C2259 C 0.67829 0.72244 0.68931 0.0
C2260 C 0.69806 0.72146 0.68087 0.0
C2261 C 0.66981 0.73567 0.67737 0.0
C2262 C 0.68092 0.74861 0.65671 0.0
H2263 H 0.66889 0.71247 0.70493 0.0
H2264 H 0.65434 0.73564 0.68423 0.0
S2265 S 0.73322 0.75224 0.62714 0.0
N2266 N 0.72868 0.73505 0.65056 0.0
N2267 N 0.71252 0.75967 0.62812 0.0
C2268 C 0.70092 0.74822 0.64832 0.0
C2269 C 0.70956 0.73473 0.6604 0.0
C2270 C 0.26033 0.96242 0.64705 0.0
C2271 C 0.28175 0.96883 0.66129 0.0
C2272 C 0.2433 0.93741 0.63709 0.0
C2273 C 0.24677 0.91777 0.64154 0.0
H2274 H 0.25685 0.97689 0.64324 0.0
H2275 H 0.22728 0.93346 0.62575 0.0
S2276 S 0.2995 0.92485 0.67915 0.0
N2277 N 0.30564 0.95391 0.67977 0.0
N2278 N 0.27301 0.90656 0.66215 0.0
C2279 C 0.26814 0.924 0.65598 0.0
C2280 C 0.28576 0.94962 0.66564 0.0
C2281 C 0.04392 0.33311 0.692 0.0
C2282 C 0.03665 0.31702 0.71113 0.0
C2283 C 0.06574 0.34108 0.68121 0.0
C2284 C 0.08129 0.3334 0.68917 0.0
H2285 H 0.03239 0.33915 0.68469 0.0
H2286 H 0.07001 0.3526 0.66584 0.0
S2287 S 0.0721 0.2935 0.74036 0.0
N2288 N 0.04761 0.29504 0.73877 0.0
N2289 N 0.08895 0.31039 0.7186 0.0
C2290 C 0.07478 0.3181 0.70892 0.0
C2291 C 0.05241 0.30985 0.71989 0.0
C2292 C 0.26326 0.30245 0.66904 0.0
C2293 C 0.28856 0.31617 0.66758 0.0
C2294 C 0.24839 0.30868 0.65625 0.0
C2295 C 0.25828 0.32897 0.64169 0.0
H2296 H 0.25483 0.28685 0.68026 0.0
H2297 H 0.22906 0.29787 0.65822 0.0
S2298 S 0.32306 0.37039 0.63078 0.0
N2299 N 0.32267 0.35071 0.64963 0.0
N2300 N 0.29456 0.36226 0.62577 0.0
C2301 C 0.2834 0.34266 0.63977 0.0
C2302 C 0.29857 0.33627 0.65263 0.0
C2303 C 0.67534 0.96878 0.62279 0.0
C2304 C 0.68056 0.97376 0.6494 0.0
C2305 C 0.66636 0.94468 0.61004 0.0
C2306 C 0.66188 0.92466 0.62351 0.0
H2307 H 0.67858 0.9837 0.61163 0.0
H2308 H 0.66297 0.94167 0.58951 0.0
S2309 S 0.67212 0.92739 0.69314 0.0
N2310 N 0.68035 0.9564 0.68873 0.0
N2311 N 0.66328 0.91105 0.66461 0.0
C2312 C 0.66669 0.92919 0.65005 0.0
C2313 C 0.67611 0.95377 0.66305 0.0
C2314 C 0.00828 0.70941 0.66826 0.0
C2315 C 0.01242 0.71493 0.69494 0.0
C2316 C 0.02752 0.71891 0.65293 0.0
C2317 C 0.05168 0.73413 0.66363 0.0
H2318 H 0.98997 0.69757 0.65904 0.0
H2319 H 0.02346 0.71411 0.6325 0.0
S2320 S 0.07264 0.75495 0.73213 0.0
N2321 N 0.04273 0.73715 0.73133 0.0
N2322 N 0.07897 0.75506 0.70224 0.0
C2323 C 0.05623 0.74004 0.69017 0.0
C2324 C 0.03658 0.73049 0.70588 0.0
C2325 C 0.98835 0.63269 0.76795 0.0
C2326 C 0.9666 0.62283 0.75233 0.0
C2327 C 0.99503 0.61687 0.77705 0.0
C2328 C 0.98011 0.59059 0.77106 0.0
H2329 H 0.00036 0.65284 0.77335 0.0
H2330 H 0.01166 0.62522 0.78947 0.0
S2331 S 0.9219 0.55513 0.73012 0.0
N2332 N 0.93054 0.585 0.73059 0.0
N2333 N 0.94319 0.55524 0.74795 0.0
C2334 C 0.95855 0.5804 0.75515 0.0
C2335 C 0.95179 0.59653 0.74568 0.0
C2336 C 0.41082 0.37143 0.74457 0.0
C2337 C 0.38566 0.36096 0.7445 0.0
C2338 C 0.4276 0.39546 0.75725 0.0
C2339 C 0.4199 0.41004 0.77023 0.0
H2340 H 0.4177 0.36097 0.73486 0.0
H2341 H 0.44681 0.4028 0.75671 0.0
S2342 S 0.35625 0.39166 0.77604 0.0
N2343 N 0.35391 0.36731 0.75865 0.0
N2344 N 0.38566 0.41249 0.78253 0.0
C2345 C 0.39489 0.4 0.77026 0.0
C2346 C 0.37772 0.37545 0.75744 0.0
C2347 C 0.61975 0.00479 0.71355 0.0
C2348 C 0.63458 0.0274 0.7031 0.0
C2349 C 0.60036 0.00113 0.72712 0.0
C2350 C 0.59515 0.02001 0.73096 0.0
H2351 H 0.62342 0.9899 0.71173 0.0
H2352 H 0.58998 0.98376 0.73554 0.0
S2353 S 0.62701 0.08182 0.70592 0.0
N2354 N 0.64172 0.06837 0.6962 0.0
N2355 N 0.60514 0.06143 0.72191 0.0
C2356 C 0.60916 0.04234 0.71985 0.0
C2357 C 0.62887 0.04602 0.7058 0.0
loop_
_geom_bond_atom_site_label_1
_geom_bond_atom_site_label_2
_geom_bond_distance
_geom_bond_site_symmetry_2
_ccdc_geom_bond_type
C0 O1 1.160 . S
C0 O7 1.185 . S
O1 C0 1.160 . S
O2 Zn3 1.899 1_655 S
O2 C10 1.284 . S
Zn3 O2 1.899 1_455 S
Zn3 O4 2.032 . S
Zn3 O7 2.086 . S
Zn3 O12 1.977 . S
O4 Zn3 2.032 . S
O4 C8 1.278 1_455 S
C5 O6 1.203 1_455 S
C5 O12 1.267 1_556 S
O6 C5 1.203 1_655 S
O7 C0 1.185 . S
O7 Zn3 2.086 . S
C8 O4 1.278 1_655 S
C8 O9 1.211 . S
O9 C8 1.211 . S
C10 O2 1.284 . S
C10 O11 1.273 . S
O11 C10 1.273 . S
O12 Zn3 1.977 . S
O12 C5 1.267 1_554 S
C13 O14 1.160 . S
C13 O20 1.185 . S
O14 C13 1.160 . S
O15 Zn16 1.899 . S
O15 C23 1.284 . S
Zn16 O15 1.899 . S
Zn16 O17 2.032 . S
Zn16 O20 2.086 . S
Zn16 O25 1.977 . S
O17 Zn16 2.032 . S
O17 C21 1.278 . S
C18 O19 1.203 . S
C18 O25 1.267 . S
O19 C18 1.203 . S
O20 C13 1.185 . S
O20 Zn16 2.086 . S
C21 O17 1.278 . S
C21 O22 1.211 . S
O22 C21 1.211 . S
C23 O15 1.284 . S
C23 O24 1.273 . S
O24 C23 1.273 . S
O25 Zn16 1.977 . S
O25 C18 1.267 . S
C26 O27 1.160 . S
C26 O33 1.185 . S
O27 C26 1.160 . S
O28 Zn29 1.899 1_565 S
O28 C36 1.284 . S
Zn29 O28 1.899 1_545 S
Zn29 O30 2.003 1_554 S
Zn29 O33 2.086 . S
Zn29 O38 1.977 . S
O30 Zn29 2.003 1_556 S
O30 C34 1.280 1_545 S
C31 O32 1.203 1_545 S
C31 O38 1.267 . S
O32 C31 1.203 1_565 S
O33 C26 1.185 . S
O33 Zn29 2.086 . S
C34 O30 1.280 1_565 S
C34 O35 1.211 1_556 S
O35 C34 1.211 1_554 S
C36 O28 1.284 . S
C36 O37 1.273 . S
O37 C36 1.273 . S
O38 Zn29 1.977 . S
O38 C31 1.267 . S
C39 O40 1.160 . S
C39 O46 1.185 . S
O40 C39 1.160 . S
O41 Zn42 1.899 1_455 S
O41 C49 1.284 . S
Zn42 O41 1.899 1_655 S
Zn42 O43 2.015 1_655 S
Zn42 O46 2.086 . S
Zn42 O51 1.977 . S
O43 Zn42 2.015 1_455 S
O43 C47 1.316 . S
C44 O45 1.203 1_655 S
C44 O51 1.267 . S
O45 C44 1.203 1_455 S
O46 C39 1.185 . S
O46 Zn42 2.086 . S
C47 O43 1.316 . S
C47 O48 1.211 . S
O48 C47 1.211 . S
C49 O41 1.284 . S
C49 O50 1.273 . S
O50 C49 1.273 . S
O51 Zn42 1.977 . S
O51 C44 1.267 . S
C52 O53 1.160 . S
C52 O59 1.185 . S
O53 C52 1.160 . S
O54 Zn55 1.899 1_556 S
O54 C62 1.284 . S
Zn55 O54 1.899 1_554 S
Zn55 O56 2.032 . S
Zn55 O59 2.086 . S
Zn55 O64 1.977 1_554 S
O56 Zn55 2.032 . S
O56 C60 1.278 . S
C57 O58 1.203 . S
C57 O64 1.267 . S
O58 C57 1.203 . S
O59 C52 1.185 . S
O59 Zn55 2.086 . S
C60 O56 1.278 . S
C60 O61 1.211 . S
O61 C60 1.211 . S
C62 O54 1.284 . S
C62 O63 1.260 1_556 S
O63 C62 1.260 1_554 S
O64 Zn55 1.977 1_556 S
O64 C57 1.267 . S
C65 O66 1.160 . S
C65 O72 1.185 . S
O66 C65 1.160 . S
O67 Zn68 1.899 1_545 S
O67 C75 1.284 . S
Zn68 O67 1.899 1_565 S
Zn68 O69 2.032 1_565 S
Zn68 O72 2.086 . S
Zn68 O77 1.977 . S
O69 Zn68 2.032 1_545 S
O69 C73 1.278 . S
C70 O71 1.203 1_565 S
C70 O77 1.267 . S
O71 C70 1.203 1_545 S
O72 C65 1.185 . S
O72 Zn68 2.086 . S
C73 O69 1.278 . S
C73 O74 1.211 . S
O74 C73 1.211 . S
C75 O67 1.284 . S
C75 O76 1.273 . S
O76 C75 1.273 . S
O77 Zn68 1.977 . S
O77 C70 1.267 . S
C78 O79 1.160 . S
C78 O85 1.185 . S
O79 C78 1.160 . S
O80 Zn81 1.899 . S
O80 C88 1.284 . S
Zn81 O80 1.899 . S
Zn81 O82 2.032 . S
Zn81 O85 2.086 . S
Zn81 O90 1.977 . S
O82 Zn81 2.032 . S
O82 C86 1.278 . S
C83 O84 1.203 . S
C83 O90 1.267 . S
O84 C83 1.203 . S
O85 C78 1.185 . S
O85 Zn81 2.086 . S
C86 O82 1.278 . S
C86 O87 1.211 . S
O87 C86 1.211 . S
C88 O80 1.284 . S
C88 O89 1.273 . S
O89 C88 1.273 . S
O90 Zn81 1.977 . S
O90 C83 1.267 . S
C91 O92 1.160 . S
C91 O98 1.185 . S
O92 C91 1.160 . S
O93 Zn94 1.899 . S
O93 C101 1.327 . S
Zn94 O93 1.899 . S
Zn94 O95 2.032 . S
Zn94 O98 2.086 . S
Zn94 O103 1.977 . S
O95 Zn94 2.032 . S
O95 C99 1.278 . S
C96 O97 1.203 . S
C96 O103 1.267 . S
O97 C96 1.203 . S
O98 C91 1.185 . S
O98 Zn94 2.086 . S
C99 O95 1.278 . S
C99 O100 1.211 . S
O100 C99 1.211 . S
C101 O93 1.327 . S
C101 O102 1.269 . S
O102 C101 1.269 . S
O103 Zn94 1.977 . S
O103 C96 1.267 . S
C104 O105 1.160 . S
C104 O111 1.185 . S
O105 C104 1.160 . S
O106 Zn107 1.899 . S
O106 C114 1.284 . S
Zn107 O106 1.899 . S
Zn107 O108 2.032 . S
Zn107 O111 2.086 . S
Zn107 O116 1.977 . S
O108 Zn107 2.032 . S
O108 C112 1.278 . S
C109 O110 1.203 . S
C109 O116 1.267 . S
O110 C109 1.203 . S
O111 C104 1.185 . S
O111 Zn107 2.086 . S
C112 O108 1.278 . S
C112 O113 1.211 . S
O113 C112 1.211 . S
C114 O106 1.284 . S
C114 O115 1.273 . S
O115 C114 1.273 . S
O116 Zn107 1.977 . S
O116 C109 1.267 . S
C117 O118 1.160 . S
C117 O124 1.185 . S
O118 C117 1.160 . S
O119 Zn120 1.899 . S
O119 C127 1.284 1_565 S
Zn120 O119 1.899 . S
Zn120 O121 2.032 . S
Zn120 O124 2.086 . S
Zn120 O129 1.977 . S
O121 Zn120 2.032 . S
O121 C125 1.278 . S
C122 O123 1.203 . S
C122 O129 1.267 . S
O123 C122 1.203 . S
O124 C117 1.185 . S
O124 Zn120 2.086 . S
C125 O121 1.278 . S
C125 O126 1.211 . S
O126 C125 1.211 . S
C127 O119 1.284 1_545 S
C127 O128 1.273 1_545 S
O128 C127 1.273 1_565 S
O129 Zn120 1.977 . S
O129 C122 1.267 . S
C130 O131 1.160 . S
C130 O137 1.185 1_655 S
O131 C130 1.160 . S
O132 Zn133 1.899 . S
O132 C140 1.284 . S
Zn133 O132 1.899 . S
Zn133 O134 2.032 . S
Zn133 O137 2.086 . S
Zn133 O142 1.977 . S
O134 Zn133 2.032 . S
O134 C138 1.278 . S
C135 O136 1.203 . S
C135 O142 1.267 . S
O136 C135 1.203 . S
O137 C130 1.185 1_455 S
O137 Zn133 2.086 . S
C138 O134 1.278 . S
C138 O139 1.211 . S
O139 C138 1.211 . S
C140 O132 1.284 . S
C140 O141 1.273 . S
O141 C140 1.273 . S
O142 Zn133 1.977 . S
O142 C135 1.267 . S
C143 O144 1.160 . S
C143 O150 1.185 . S
O144 C143 1.160 . S
O145 Zn146 1.899 . S
O145 C153 1.284 . S
Zn146 O145 1.899 . S
Zn146 O147 2.032 . S
Zn146 O150 2.086 . S
Zn146 O155 1.977 . S
O147 Zn146 2.032 . S
O147 C151 1.278 . S
C148 O149 1.203 . S
C148 O155 1.267 . S
O149 C148 1.203 . S
O150 C143 1.185 . S
O150 Zn146 2.086 . S
C151 O147 1.278 . S
C151 O152 1.211 . S
O152 C151 1.211 . S
C153 O145 1.284 . S
C153 O154 1.273 . S
O154 C153 1.273 . S
O155 Zn146 1.977 . S
O155 C148 1.267 . S
C156 O157 1.160 . S
C156 O163 1.185 . S
O157 C156 1.160 . S
O158 Zn159 1.899 . S
O158 C166 1.284 1_545 S
Zn159 O158 1.899 . S
Zn159 O160 2.032 . S
Zn159 O163 2.086 . S
Zn159 O168 1.977 . S
O160 Zn159 2.032 . S
O160 C164 1.278 . S
C161 O162 1.203 . S
C161 O168 1.267 . S
O162 C161 1.203 . S
O163 C156 1.185 . S
O163 Zn159 2.086 . S
C164 O160 1.278 . S
C164 O165 1.211 . S
O165 C164 1.211 . S
C166 O158 1.284 1_565 S
C166 O167 1.273 1_565 S
O167 C166 1.273 1_545 S
O168 Zn159 1.977 . S
O168 C161 1.267 . S
C169 O170 1.160 . S
C169 O176 1.192 . S
O170 C169 1.160 . S
O171 Zn172 1.899 . S
O171 C179 1.284 . S
Zn172 O171 1.899 . S
Zn172 O173 2.032 . S
Zn172 O176 2.066 1_655 S
Zn172 O181 1.977 . S
O173 Zn172 2.032 . S
O173 C177 1.278 . S
C174 O175 1.203 . S
C174 O181 1.267 . S
O175 C174 1.203 . S
O176 C169 1.192 . S
O176 Zn172 2.066 1_455 S
C177 O173 1.278 . S
C177 O178 1.211 . S
O178 C177 1.211 . S
C179 O171 1.284 . S
C179 O180 1.273 . S
O180 C179 1.273 . S
O181 Zn172 1.977 . S
O181 C174 1.267 . S
C182 O183 1.160 . S
C182 O189 1.185 . S
O183 C182 1.160 . S
O184 Zn185 1.899 . S
O184 C192 1.284 . S
Zn185 O184 1.899 . S
Zn185 O186 2.032 . S
Zn185 O189 2.086 . S
Zn185 O194 1.977 . S
O186 Zn185 2.032 . S
O186 C190 1.278 . S
C187 O188 1.203 . S
C187 O194 1.267 . S
O188 C187 1.203 . S
O189 C182 1.185 . S
O189 Zn185 2.086 . S
C190 O186 1.278 . S
C190 O191 1.211 . S
O191 C190 1.211 . S
C192 O184 1.284 . S
C192 O193 1.273 . S
O193 C192 1.273 . S
O194 Zn185 1.977 . S
O194 C187 1.267 . S
C195 O196 1.160 . S
C195 O202 1.185 . S
O196 C195 1.160 . S
O197 Zn198 1.899 . S
O197 C205 1.284 . S
Zn198 O197 1.899 . S
Zn198 O199 2.032 . S
Zn198 O202 2.086 . S
Zn198 O207 1.977 . S
O199 Zn198 2.032 . S
O199 C203 1.278 . S
C200 O201 1.203 . S
C200 O207 1.267 . S
O201 C200 1.203 . S
O202 C195 1.185 . S
O202 Zn198 2.086 . S
C203 O199 1.278 . S
C203 O204 1.211 . S
O204 C203 1.211 . S
C205 O197 1.284 . S
C205 O206 1.273 . S
O206 C205 1.273 . S
O207 Zn198 1.977 . S
O207 C200 1.267 . S
C208 O209 1.160 . S
C208 O215 1.185 . S
O209 C208 1.160 . S
O210 Zn211 1.899 . S
O210 C218 1.284 . S
Zn211 O210 1.899 . S
Zn211 O212 2.032 . S
Zn211 O215 2.086 . S
Zn211 O220 1.977 . S
O212 Zn211 2.032 . S
O212 C216 1.278 . S
C213 O214 1.203 . S
C213 O220 1.267 . S
O214 C213 1.203 . S
O215 C208 1.185 . S
O215 Zn211 2.086 . S
C216 O212 1.278 . S
C216 O217 1.211 . S
O217 C216 1.211 . S
C218 O210 1.284 . S
C218 O219 1.273 . S
O219 C218 1.273 . S
O220 Zn211 1.977 . S
O220 C213 1.267 . S
C221 O222 1.160 . S
C221 O228 1.185 . S
O222 C221 1.160 . S
O223 Zn224 1.899 . S
O223 C231 1.284 . S
Zn224 O223 1.899 . S
Zn224 O225 2.032 . S
Zn224 O228 2.086 . S
Zn224 O233 1.977 . S
O225 Zn224 2.032 . S
O225 C229 1.278 . S
C226 O227 1.203 . S
C226 O233 1.267 . S
O227 C226 1.203 . S
O228 C221 1.185 . S
O228 Zn224 2.086 . S
C229 O225 1.278 . S
C229 O230 1.211 . S
O230 C229 1.211 . S
C231 O223 1.284 . S
C231 O232 1.273 . S
O232 C231 1.273 . S
O233 Zn224 1.977 . S
O233 C226 1.267 . S
H234 O260 0.856 1_556 S
H235 O263 0.854 . S
H236 C271 0.930 . S
H237 C272 0.930 . S
H238 C274 0.930 . S
H239 C275 0.930 . S
H240 C277 0.931 . S
H241 C278 0.930 . S
H242 C280 0.930 . S
H243 C281 0.929 . S
H244 C283 0.930 . S
H245 C284 0.931 . S
H246 C286 0.930 . S
H247 C287 0.929 . S
H248 C289 0.931 . S
H249 C290 0.930 . S
H250 C292 0.930 . S
H251 C293 0.932 . S
H252 C295 0.930 . S
H253 C296 0.929 . S
H254 C298 0.931 . S
H255 C299 0.930 . S
H256 C301 0.929 . S
H257 C302 0.931 . S
H258 C304 0.930 . S
H259 C305 0.929 . S
O260 H234 0.856 1_554 S
O260 C306 1.300 . S
O261 C306 1.209 . S
O262 C307 1.199 . S
O263 H235 0.854 . S
O263 C307 1.297 . S
C264 C265 1.404 . S
C264 C269 1.397 . S
C264 C270 1.492 . S
C265 C264 1.404 . S
C265 C266 1.396 . S
C265 C276 1.492 . S
C266 C265 1.396 . S
C266 C267 1.397 . S
C266 C282 1.509 . S
C267 C266 1.397 . S
C267 C268 1.412 . S
C267 C288 1.485 . S
C268 C267 1.412 . S
C268 C269 1.388 . S
C268 C294 1.490 . S
C269 C264 1.397 . S
C269 C268 1.388 . S
C269 C300 1.519 . S
C270 C264 1.492 . S
C270 C271 1.363 . S
C270 C275 1.390 . S
C271 H236 0.930 . S
C271 C270 1.363 . S
C271 C272 1.372 . S
C272 H237 0.930 . S
C272 C271 1.372 . S
C272 C273 1.383 . S
C273 C272 1.383 . S
C273 C274 1.395 . S
C274 H238 0.930 . S
C274 C273 1.395 . S
C274 C275 1.362 . S
C275 H239 0.930 . S
C275 C270 1.390 . S
C275 C274 1.362 . S
C276 C265 1.492 . S
C276 C277 1.377 . S
C276 C281 1.397 . S
C277 H240 0.931 . S
C277 C276 1.377 . S
C277 C278 1.376 . S
C278 H241 0.930 . S
C278 C277 1.376 . S
C278 C279 1.376 . S
C279 C278 1.376 . S
C279 C280 1.378 . S
C279 C306 1.486 . S
C280 H242 0.930 . S
C280 C279 1.378 . S
C280 C281 1.376 . S
C281 H243 0.929 . S
C281 C276 1.397 . S
C281 C280 1.376 . S
C282 C266 1.509 . S
C282 C283 1.391 . S
C282 C287 1.386 . S
C283 H244 0.930 . S
C283 C282 1.391 . S
C283 C284 1.375 . S
C284 H245 0.931 . S
C284 C283 1.375 . S
C284 C285 1.375 . S
C285 C284 1.375 . S
C285 C286 1.361 . S
C286 H246 0.930 . S
C286 C285 1.361 . S
C286 C287 1.399 . S
C287 H247 0.929 . S
C287 C282 1.386 . S
C287 C286 1.399 . S
C288 C267 1.485 . S
C288 C289 1.394 . S
C288 C293 1.360 . S
C289 H248 0.931 . S
C289 C288 1.394 . S
C289 C290 1.372 . S
C290 H249 0.930 . S
C290 C289 1.372 . S
C290 C291 1.397 . S
C291 C290 1.397 . S
C291 C292 1.390 . S
C291 C307 1.476 . S
C292 H250 0.930 . S
C292 C291 1.390 . S
C292 C293 1.366 . S
C293 H251 0.932 . S
C293 C288 1.360 . S
C293 C292 1.366 . S
C294 C268 1.490 . S
C294 C295 1.380 . S
C294 C299 1.386 . S
C295 H252 0.930 . S
C295 C294 1.380 . S
C295 C296 1.381 . S
C296 H253 0.929 . S
C296 C295 1.381 . S
C296 C297 1.371 . S
C297 C296 1.371 . S
C297 C298 1.380 . S
C298 H254 0.931 . S
C298 C297 1.380 . S
C298 C299 1.387 . S
C299 H255 0.930 . S
C299 C294 1.386 . S
C299 C298 1.387 . S
C300 C269 1.519 . S
C300 C301 1.377 . S
C300 C305 1.361 . S
C301 H256 0.929 . S
C301 C300 1.377 . S
C301 C302 1.386 . S
C302 H257 0.931 . S
C302 C301 1.386 . S
C302 C303 1.363 . S
C303 C302 1.363 . S
C303 C304 1.385 . S
C304 H258 0.930 . S
C304 C303 1.385 . S
C304 C305 1.396 . S
C305 H259 0.929 . S
C305 C300 1.361 . S
C305 C304 1.396 . S
C306 O260 1.300 . S
C306 O261 1.209 . S
C306 C279 1.486 . S
C307 O262 1.199 . S
C307 O263 1.297 . S
C307 C291 1.476 . S
H308 O334 0.856 . S
H309 O337 0.888 . S
H310 C345 0.930 . S
H311 C346 0.930 . S
H312 C348 0.930 . S
H313 C349 0.930 . S
H314 C351 0.931 . S
H315 C352 0.930 . S
H316 C354 0.930 . S
H317 C355 0.929 . S
H318 C357 0.930 . S
H319 C358 0.931 . S
H320 C360 0.930 . S
H321 C361 0.929 . S
H322 C363 0.931 . S
H323 C364 0.930 . S
H324 C366 0.930 . S
H325 C367 0.932 . S
H326 C369 0.930 . S
H327 C370 0.929 . S
H328 C372 0.931 . S
H329 C373 0.930 . S
H330 C375 0.929 . S
H331 C376 0.931 . S
H332 C378 0.930 . S
H333 C379 0.929 . S
O334 H308 0.856 . S
O334 C380 1.300 . S
O335 C380 1.209 . S
O336 C381 1.199 . S
O337 H309 0.888 . S
O337 C381 1.278 1_545 S
C338 C339 1.404 . S
C338 C343 1.397 . S
C338 C344 1.492 . S
C339 C338 1.404 . S
C339 C340 1.396 . S
C339 C350 1.492 . S
C340 C339 1.396 . S
C340 C341 1.397 . S
C340 C356 1.509 . S
C341 C340 1.397 . S
C341 C342 1.412 . S
C341 C362 1.485 . S
C342 C341 1.412 . S
C342 C343 1.388 . S
C342 C368 1.490 . S
C343 C338 1.397 . S
C343 C342 1.388 . S
C343 C374 1.519 . S
C344 C338 1.492 . S
C344 C345 1.363 . S
C344 C349 1.390 . S
C345 H310 0.930 . S
C345 C344 1.363 . S
C345 C346 1.372 . S
C346 H311 0.930 . S
C346 C345 1.372 . S
C346 C347 1.383 . S
C347 C346 1.383 . S
C347 C348 1.395 . S
C348 H312 0.930 . S
C348 C347 1.395 . S
C348 C349 1.362 . S
C349 H313 0.930 . S
C349 C344 1.390 . S
C349 C348 1.362 . S
C350 C339 1.492 . S
C350 C351 1.377 . S
C350 C355 1.397 . S
C351 H314 0.931 . S
C351 C350 1.377 . S
C351 C352 1.376 . S
C352 H315 0.930 . S
C352 C351 1.376 . S
C352 C353 1.376 . S
C353 C352 1.376 . S
C353 C354 1.378 . S
C353 C380 1.486 . S
C354 H316 0.930 . S
C354 C353 1.378 . S
C354 C355 1.376 . S
C355 H317 0.929 . S
C355 C350 1.397 . S
C355 C354 1.376 . S
C356 C340 1.509 . S
C356 C357 1.391 . S
C356 C361 1.386 . S
C357 H318 0.930 . S
C357 C356 1.391 . S
C357 C358 1.375 . S
C358 H319 0.931 . S
C358 C357 1.375 . S
C358 C359 1.375 . S
C359 C358 1.375 . S
C359 C360 1.361 . S
C360 H320 0.930 . S
C360 C359 1.361 . S
C360 C361 1.399 . S
C361 H321 0.929 . S
C361 C356 1.386 . S
C361 C360 1.399 . S
C362 C341 1.485 . S
C362 C363 1.394 . S
C362 C367 1.360 . S
C363 H322 0.931 . S
C363 C362 1.394 . S
C363 C364 1.372 . S
C364 H323 0.930 . S
C364 C363 1.372 . S
C364 C365 1.397 . S
C365 C364 1.397 . S
C365 C366 1.390 . S
C365 C381 1.476 . S
C366 H324 0.930 . S
C366 C365 1.390 . S
C366 C367 1.366 . S
C367 H325 0.932 . S
C367 C362 1.360 . S
C367 C366 1.366 . S
C368 C342 1.490 . S
C368 C369 1.380 . S
C368 C373 1.386 . S
C369 H326 0.930 . S
C369 C368 1.380 . S
C369 C370 1.381 . S
C370 H327 0.929 . S
C370 C369 1.381 . S
C370 C371 1.371 . S
C371 C370 1.371 . S
C371 C372 1.380 . S
C372 H328 0.931 . S
C372 C371 1.380 . S
C372 C373 1.387 . S
C373 H329 0.930 . S
C373 C368 1.386 . S
C373 C372 1.387 . S
C374 C343 1.519 . S
C374 C375 1.377 . S
C374 C379 1.361 . S
C375 H330 0.929 . S
C375 C374 1.377 . S
C375 C376 1.386 . S
C376 H331 0.931 . S
C376 C375 1.386 . S
C376 C377 1.363 . S
C377 C376 1.363 . S
C377 C378 1.385 . S
C378 H332 0.930 . S
C378 C377 1.385 . S
C378 C379 1.396 . S
C379 H333 0.929 . S
C379 C374 1.361 . S
C379 C378 1.396 . S
C380 O334 1.300 . S
C380 O335 1.209 . S
C380 C353 1.486 . S
C381 O336 1.199 . S
C381 O337 1.278 1_565 S
C381 C365 1.476 . S
H382 O408 0.856 . S
H383 O411 0.858 . S
H384 C419 0.930 . S
H385 C420 0.930 . S
H386 C422 0.930 . S
H387 C423 0.930 . S
H388 C425 0.931 . S
H389 C426 0.930 . S
H390 C428 0.930 . S
H391 C429 0.929 . S
H392 C431 0.930 . S
H393 C432 0.931 . S
H394 C434 0.930 . S
H395 C435 0.929 . S
H396 C437 0.931 . S
H397 C438 0.930 . S
H398 C440 0.930 . S
H399 C441 0.932 . S
H400 C443 0.930 . S
H401 C444 0.929 . S
H402 C446 0.931 . S
H403 C447 0.930 . S
H404 C449 0.929 . S
H405 C450 0.931 . S
H406 C452 0.930 . S
H407 C453 0.929 . S
O408 H382 0.856 . S
O408 C454 1.300 . S
O409 C454 1.209 . S
O410 C455 1.199 1_545 S
O411 H383 0.858 . S
O411 C455 1.297 . S
C412 C413 1.404 . S
C412 C417 1.397 . S
C412 C418 1.492 . S
C413 C412 1.404 . S
C413 C414 1.396 . S
C413 C424 1.492 . S
C414 C413 1.396 . S
C414 C415 1.397 . S
C414 C430 1.509 . S
C415 C414 1.397 . S
C415 C416 1.412 . S
C415 C436 1.485 . S
C416 C415 1.412 . S
C416 C417 1.388 . S
C416 C442 1.490 . S
C417 C412 1.397 . S
C417 C416 1.388 . S
C417 C448 1.519 . S
C418 C412 1.492 . S
C418 C419 1.363 . S
C418 C423 1.390 . S
C419 H384 0.930 . S
C419 C418 1.363 . S
C419 C420 1.372 . S
C420 H385 0.930 . S
C420 C419 1.372 . S
C420 C421 1.383 . S
C421 C420 1.383 . S
C421 C422 1.395 . S
C422 H386 0.930 . S
C422 C421 1.395 . S
C422 C423 1.362 . S
C423 H387 0.930 . S
C423 C418 1.390 . S
C423 C422 1.362 . S
C424 C413 1.492 . S
C424 C425 1.377 . S
C424 C429 1.397 . S
C425 H388 0.931 . S
C425 C424 1.377 . S
C425 C426 1.376 . S
C426 H389 0.930 . S
C426 C425 1.376 . S
C426 C427 1.376 . S
C427 C426 1.376 . S
C427 C428 1.378 . S
C427 C454 1.486 . S
C428 H390 0.930 . S
C428 C427 1.378 . S
C428 C429 1.376 . S
C429 H391 0.929 . S
C429 C424 1.397 . S
C429 C428 1.376 . S
C430 C414 1.509 . S
C430 C431 1.391 . S
C430 C435 1.386 . S
C431 H392 0.930 . S
C431 C430 1.391 . S
C431 C432 1.375 . S
C432 H393 0.931 . S
C432 C431 1.375 . S
C432 C433 1.375 . S
C433 C432 1.375 . S
C433 C434 1.361 . S
C434 H394 0.930 . S
C434 C433 1.361 . S
C434 C435 1.399 . S
C435 H395 0.929 . S
C435 C430 1.386 . S
C435 C434 1.399 . S
C436 C415 1.485 . S
C436 C437 1.394 . S
C436 C441 1.360 . S
C437 H396 0.931 . S
C437 C436 1.394 . S
C437 C438 1.372 . S
C438 H397 0.930 . S
C438 C437 1.372 . S
C438 C439 1.397 . S
C439 C438 1.397 . S
C439 C440 1.390 . S
C439 C455 1.476 . S
C440 H398 0.930 . S
C440 C439 1.390 . S
C440 C441 1.366 . S
C441 H399 0.932 . S
C441 C436 1.360 . S
C441 C440 1.366 . S
C442 C416 1.490 . S
C442 C443 1.380 . S
C442 C447 1.386 . S
C443 H400 0.930 . S
C443 C442 1.380 . S
C443 C444 1.381 . S
C444 H401 0.929 . S
C444 C443 1.381 . S
C444 C445 1.371 . S
C445 C444 1.371 . S
C445 C446 1.380 . S
C446 H402 0.931 . S
C446 C445 1.380 . S
C446 C447 1.387 . S
C447 H403 0.930 . S
C447 C442 1.386 . S
C447 C446 1.387 . S
C448 C417 1.519 . S
C448 C449 1.377 . S
C448 C453 1.361 . S
C449 H404 0.929 . S
C449 C448 1.377 . S
C449 C450 1.386 . S
C450 H405 0.931 . S
C450 C449 1.386 . S
C450 C451 1.363 . S
C451 C450 1.363 . S
C451 C452 1.385 . S
C452 H406 0.930 . S
C452 C451 1.385 . S
C452 C453 1.396 . S
C453 H407 0.929 . S
C453 C448 1.361 . S
C453 C452 1.396 . S
C454 O408 1.300 . S
C454 O409 1.209 . S
C454 C427 1.486 . S
C455 O410 1.199 1_565 S
C455 O411 1.297 . S
C455 C439 1.476 . S
H456 O482 0.856 . S
H457 O485 0.854 . S
H458 C493 0.930 . S
H459 C494 0.930 . S
H460 C496 0.930 . S
H461 C497 0.930 . S
H462 C499 0.931 . S
H463 C500 0.931 . S
H464 C502 0.930 . S
H465 C503 0.929 . S
H466 C505 0.930 . S
H467 C506 0.931 . S
H468 C508 0.930 . S
H469 C509 0.929 . S
H470 C511 0.931 . S
H471 C512 0.930 . S
H472 C514 0.930 . S
H473 C515 0.932 . S
H474 C517 0.930 . S
H475 C518 0.929 . S
H476 C520 0.931 . S
H477 C521 0.930 . S
H478 C523 0.929 . S
H479 C524 0.931 . S
H480 C526 0.930 . S
H481 C527 0.929 . S
O482 H456 0.856 . S
O482 C528 1.300 . S
O483 C528 1.209 . S
O484 C529 1.199 . S
O485 H457 0.854 . S
O485 C529 1.297 . S
C486 C487 1.404 . S
C486 C491 1.397 . S
C486 C492 1.492 . S
C487 C486 1.404 . S
C487 C488 1.396 . S
C487 C498 1.492 . S
C488 C487 1.396 . S
C488 C489 1.397 . S
C488 C504 1.509 . S
C489 C488 1.397 . S
C489 C490 1.412 . S
C489 C510 1.485 . S
C490 C489 1.412 . S
C490 C491 1.388 . S
C490 C516 1.490 . S
C491 C486 1.397 . S
C491 C490 1.388 . S
C491 C522 1.519 . S
C492 C486 1.492 . S
C492 C493 1.363 . S
C492 C497 1.390 . S
C493 H458 0.930 . S
C493 C492 1.363 . S
C493 C494 1.372 . S
C494 H459 0.930 . S
C494 C493 1.372 . S
C494 C495 1.383 . S
C495 C494 1.383 . S
C495 C496 1.395 . S
C496 H460 0.930 . S
C496 C495 1.395 . S
C496 C497 1.362 . S
C497 H461 0.930 . S
C497 C492 1.390 . S
C497 C496 1.362 . S
C498 C487 1.492 . S
C498 C499 1.377 . S
C498 C503 1.397 . S
C499 H462 0.931 . S
C499 C498 1.377 . S
C499 C500 1.374 1_556 S
C500 H463 0.931 . S
C500 C499 1.374 1_554 S
C500 C501 1.377 . S
C501 C500 1.377 . S
C501 C502 1.378 1_554 S
C501 C528 1.486 . S
C502 H464 0.930 . S
C502 C501 1.378 1_556 S
C502 C503 1.376 . S
C503 H465 0.929 . S
C503 C498 1.397 . S
C503 C502 1.376 . S
C504 C488 1.509 . S
C504 C505 1.391 . S
C504 C509 1.386 . S
C505 H466 0.930 . S
C505 C504 1.391 . S
C505 C506 1.375 . S
C506 H467 0.931 . S
C506 C505 1.375 . S
C506 C507 1.375 . S
C507 C506 1.375 . S
C507 C508 1.361 . S
C508 H468 0.930 . S
C508 C507 1.361 . S
C508 C509 1.399 . S
C509 H469 0.929 . S
C509 C504 1.386 . S
C509 C508 1.399 . S
C510 C489 1.485 . S
C510 C511 1.394 . S
C510 C515 1.360 . S
C511 H470 0.931 . S
C511 C510 1.394 . S
C511 C512 1.372 . S
C512 H471 0.930 . S
C512 C511 1.372 . S
C512 C513 1.397 . S
C513 C512 1.397 . S
C513 C514 1.390 . S
C513 C529 1.476 . S
C514 H472 0.930 . S
C514 C513 1.390 . S
C514 C515 1.366 . S
C515 H473 0.932 . S
C515 C510 1.360 . S
C515 C514 1.366 . S
C516 C490 1.490 . S
C516 C517 1.380 . S
C516 C521 1.386 . S
C517 H474 0.930 . S
C517 C516 1.380 . S
C517 C518 1.381 . S
C518 H475 0.929 . S
C518 C517 1.381 . S
C518 C519 1.371 . S
C519 C518 1.371 . S
C519 C520 1.380 . S
C520 H476 0.931 . S
C520 C519 1.380 . S
C520 C521 1.387 . S
C521 H477 0.930 . S
C521 C516 1.386 . S
C521 C520 1.387 . S
C522 C491 1.519 . S
C522 C523 1.377 . S
C522 C527 1.361 . S
C523 H478 0.929 . S
C523 C522 1.377 . S
C523 C524 1.386 . S
C524 H479 0.931 . S
C524 C523 1.386 . S
C524 C525 1.363 . S
C525 C524 1.363 . S
C525 C526 1.385 . S
C526 H480 0.930 . S
C526 C525 1.385 . S
C526 C527 1.396 . S
C527 H481 0.929 . S
C527 C522 1.361 . S
C527 C526 1.396 . S
C528 O482 1.300 . S
C528 O483 1.209 . S
C528 C501 1.486 . S
C529 O484 1.199 . S
C529 O485 1.297 . S
C529 C513 1.476 . S
H530 O556 0.856 . S
H531 O559 0.854 . S
H532 C567 0.930 . S
H533 C568 0.930 . S
H534 C570 0.930 . S
H535 C571 0.930 . S
H536 C573 0.931 . S
H537 C574 0.930 . S
H538 C576 0.930 . S
H539 C577 0.929 . S
H540 C579 0.930 . S
H541 C580 0.931 . S
H542 C582 0.930 . S
H543 C583 0.929 . S
H544 C585 0.931 . S
H545 C586 0.930 . S
H546 C588 0.930 . S
H547 C589 0.932 . S
H548 C591 0.930 . S
H549 C592 0.929 . S
H550 C594 0.931 . S
H551 C595 0.930 . S
H552 C597 0.929 . S
H553 C598 0.931 . S
H554 C600 0.930 . S
H555 C601 0.929 . S
O556 H530 0.856 . S
O556 C602 1.300 . S
O557 C602 1.209 . S
O558 C603 1.199 . S
O559 H531 0.854 . S
O559 C603 1.297 1_565 S
C560 C561 1.404 . S
C560 C565 1.397 . S
C560 C566 1.492 . S
C561 C560 1.404 . S
C561 C562 1.396 . S
C561 C572 1.492 . S
C562 C561 1.396 . S
C562 C563 1.397 . S
C562 C578 1.509 . S
C563 C562 1.397 . S
C563 C564 1.412 . S
C563 C584 1.485 . S
C564 C563 1.412 . S
C564 C565 1.388 . S
C564 C590 1.490 . S
C565 C560 1.397 . S
C565 C564 1.388 . S
C565 C596 1.519 . S
C566 C560 1.492 . S
C566 C567 1.363 . S
C566 C571 1.390 . S
C567 H532 0.930 . S
C567 C566 1.363 . S
C567 C568 1.372 . S
C568 H533 0.930 . S
C568 C567 1.372 . S
C568 C569 1.383 . S
C569 C568 1.383 . S
C569 C570 1.395 . S
C570 H534 0.930 . S
C570 C569 1.395 . S
C570 C571 1.362 . S
C571 H535 0.930 . S
C571 C566 1.390 . S
C571 C570 1.362 . S
C572 C561 1.492 . S
C572 C573 1.377 . S
C572 C577 1.397 . S
C573 H536 0.931 . S
C573 C572 1.377 . S
C573 C574 1.376 1_556 S
C574 H537 0.930 . S
C574 C573 1.376 1_554 S
C574 C575 1.376 . S
C575 C574 1.376 . S
C575 C576 1.378 . S
C575 C602 1.486 . S
C576 H538 0.930 . S
C576 C575 1.378 . S
C576 C577 1.376 1_554 S
C577 H539 0.929 . S
C577 C572 1.397 . S
C577 C576 1.376 1_556 S
C578 C562 1.509 . S
C578 C579 1.391 . S
C578 C583 1.386 . S
C579 H540 0.930 . S
C579 C578 1.391 . S
C579 C580 1.375 . S
C580 H541 0.931 . S
C580 C579 1.375 . S
C580 C581 1.375 . S
C581 C580 1.375 . S
C581 C582 1.361 . S
C582 H542 0.930 . S
C582 C581 1.361 . S
C582 C583 1.399 . S
C583 H543 0.929 . S
C583 C578 1.386 . S
C583 C582 1.399 . S
C584 C563 1.485 . S
C584 C585 1.394 . S
C584 C589 1.360 . S
C585 H544 0.931 . S
C585 C584 1.394 . S
C585 C586 1.372 . S
C586 H545 0.930 . S
C586 C585 1.372 . S
C586 C587 1.397 . S
C587 C586 1.397 . S
C587 C588 1.390 . S
C587 C603 1.476 . S
C588 H546 0.930 . S
C588 C587 1.390 . S
C588 C589 1.366 . S
C589 H547 0.932 . S
C589 C584 1.360 . S
C589 C588 1.366 . S
C590 C564 1.490 . S
C590 C591 1.380 . S
C590 C595 1.386 . S
C591 H548 0.930 . S
C591 C590 1.380 . S
C591 C592 1.381 . S
C592 H549 0.929 . S
C592 C591 1.381 . S
C592 C593 1.371 . S
C593 C592 1.371 . S
C593 C594 1.380 . S
C594 H550 0.931 . S
C594 C593 1.380 . S
C594 C595 1.387 . S
C595 H551 0.930 . S
C595 C590 1.386 . S
C595 C594 1.387 . S
C596 C565 1.519 . S
C596 C597 1.377 . S
C596 C601 1.361 . S
C597 H552 0.929 . S
C597 C596 1.377 . S
C597 C598 1.386 . S
C598 H553 0.931 . S
C598 C597 1.386 . S
C598 C599 1.363 . S
C599 C598 1.363 . S
C599 C600 1.385 . S
C600 H554 0.930 . S
C600 C599 1.385 . S
C600 C601 1.396 . S
C601 H555 0.929 . S
C601 C596 1.361 . S
C601 C600 1.396 . S
C602 O556 1.300 . S
C602 O557 1.209 . S
C602 C575 1.486 . S
C603 O558 1.199 . S
C603 O559 1.297 1_545 S
C603 C587 1.476 . S
H604 O630 0.856 . S
H605 O633 0.854 . S
H606 C641 0.930 . S
H607 C642 0.930 . S
H608 C644 0.930 . S
H609 C645 0.930 . S
H610 C647 0.936 . S
H611 C648 0.930 . S
H612 C650 0.930 . S
H613 C651 0.929 . S
H614 C653 0.930 . S
H615 C654 0.924 1_554 S
H616 C656 0.930 . S
H617 C657 0.929 . S
H618 C659 0.931 . S
H619 C660 0.930 . S
H620 C662 0.930 . S
H621 C663 0.932 . S
H622 C665 0.930 . S
H623 C666 0.929 . S
H624 C668 0.931 . S
H625 C669 0.930 . S
H626 C671 0.929 . S
H627 C672 0.931 . S
H628 C674 0.930 . S
H629 C675 0.929 . S
O630 H604 0.856 . S
O630 C676 1.300 . S
O631 C676 1.209 . S
O632 C677 1.199 . S
O633 H605 0.854 . S
O633 C677 1.297 . S
C634 C635 1.404 . S
C634 C639 1.397 . S
C634 C640 1.492 . S
C635 C634 1.404 . S
C635 C636 1.396 . S
C635 C646 1.492 . S
C636 C635 1.396 . S
C636 C637 1.397 . S
C636 C652 1.509 . S
C637 C636 1.397 . S
C637 C638 1.412 . S
C637 C658 1.485 . S
C638 C637 1.412 . S
C638 C639 1.388 . S
C638 C664 1.490 . S
C639 C634 1.397 . S
C639 C638 1.388 . S
C639 C670 1.519 . S
C640 C634 1.492 . S
C640 C641 1.363 . S
C640 C645 1.390 . S
C641 H606 0.930 . S
C641 C640 1.363 . S
C641 C642 1.372 . S
C642 H607 0.930 . S
C642 C641 1.372 . S
C642 C643 1.383 . S
C643 C642 1.383 . S
C643 C644 1.395 . S
C644 H608 0.930 . S
C644 C643 1.395 . S
C644 C645 1.362 . S
C645 H609 0.930 . S
C645 C640 1.390 . S
C645 C644 1.362 . S
C646 C635 1.492 . S
C646 C647 1.394 . S
C646 C651 1.397 . S
C647 H610 0.936 . S
C647 C646 1.394 . S
C647 C648 1.354 1_556 S
C648 H611 0.930 . S
C648 C647 1.354 1_554 S
C648 C649 1.376 . S
C649 C648 1.376 . S
C649 C650 1.378 . S
C649 C676 1.486 . S
C650 H612 0.930 . S
C650 C649 1.378 . S
C650 C651 1.376 1_554 S
C651 H613 0.929 . S
C651 C646 1.397 . S
C651 C650 1.376 1_556 S
C652 C636 1.509 . S
C652 C653 1.391 . S
C652 C657 1.386 . S
C653 H614 0.930 . S
C653 C652 1.391 . S
C653 C654 1.375 . S
C654 H615 0.924 1_556 S
C654 C653 1.375 . S
C654 C655 1.366 1_556 S
C655 C654 1.366 1_554 S
C655 C656 1.353 1_554 S
C656 H616 0.930 . S
C656 C655 1.353 1_556 S
C656 C657 1.399 . S
C657 H617 0.929 . S
C657 C652 1.386 . S
C657 C656 1.399 . S
C658 C637 1.485 . S
C658 C659 1.394 . S
C658 C663 1.360 . S
C659 H618 0.931 . S
C659 C658 1.394 . S
C659 C660 1.372 . S
C660 H619 0.930 . S
C660 C659 1.372 . S
C660 C661 1.397 . S
C661 C660 1.397 . S
C661 C662 1.390 . S
C661 C677 1.476 . S
C662 H620 0.930 . S
C662 C661 1.390 . S
C662 C663 1.366 . S
C663 H621 0.932 . S
C663 C658 1.360 . S
C663 C662 1.366 . S
C664 C638 1.490 . S
C664 C665 1.380 . S
C664 C669 1.386 . S
C665 H622 0.930 . S
C665 C664 1.380 . S
C665 C666 1.381 . S
C666 H623 0.929 . S
C666 C665 1.381 . S
C666 C667 1.371 . S
C667 C666 1.371 . S
C667 C668 1.380 . S
C668 H624 0.931 . S
C668 C667 1.380 . S
C668 C669 1.387 . S
C669 H625 0.930 . S
C669 C664 1.386 . S
C669 C668 1.387 . S
C670 C639 1.519 . S
C670 C671 1.377 . S
C670 C675 1.361 . S
C671 H626 0.929 . S
C671 C670 1.377 . S
C671 C672 1.386 . S
C672 H627 0.931 . S
C672 C671 1.386 . S
C672 C673 1.363 . S
C673 C672 1.363 . S
C673 C674 1.385 . S
C674 H628 0.930 . S
C674 C673 1.385 . S
C674 C675 1.396 . S
C675 H629 0.929 . S
C675 C670 1.361 . S
C675 C674 1.396 . S
C676 O630 1.300 . S
C676 O631 1.209 . S
C676 C649 1.486 . S
C677 O632 1.199 . S
C677 O633 1.297 . S
C677 C661 1.476 . S
H678 O704 0.856 . S
H679 O707 0.854 . S
H680 C715 0.930 . S
H681 C716 0.930 . S
H682 C718 0.930 . S
H683 C719 0.930 . S
H684 C721 0.931 . S
H685 C722 0.930 . S
H686 C724 0.930 . S
H687 C725 0.929 . S
H688 C727 0.930 . S
H689 C728 0.931 . S
H690 C730 0.930 . S
H691 C731 0.929 . S
H692 C733 0.931 . S
H693 C734 0.930 . S
H694 C736 0.930 . S
H695 C737 0.932 . S
H696 C739 0.930 . S
H697 C740 0.929 . S
H698 C742 0.931 . S
H699 C743 0.930 . S
H700 C745 0.929 . S
H701 C746 0.931 . S
H702 C748 0.930 . S
H703 C749 0.929 . S
O704 H678 0.856 . S
O704 C750 1.300 . S
O705 C750 1.209 . S
O706 C751 1.199 . S
O707 H679 0.854 . S
O707 C751 1.297 . S
C708 C709 1.404 . S
C708 C713 1.397 . S
C708 C714 1.492 . S
C709 C708 1.404 . S
C709 C710 1.396 . S
C709 C720 1.492 . S
C710 C709 1.396 . S
C710 C711 1.397 . S
C710 C726 1.509 . S
C711 C710 1.397 . S
C711 C712 1.412 . S
C711 C732 1.485 . S
C712 C711 1.412 . S
C712 C713 1.388 . S
C712 C738 1.490 . S
C713 C708 1.397 . S
C713 C712 1.388 . S
C713 C744 1.519 . S
C714 C708 1.492 . S
C714 C715 1.363 . S
C714 C719 1.390 . S
C715 H680 0.930 . S
C715 C714 1.363 . S
C715 C716 1.372 . S
C716 H681 0.930 . S
C716 C715 1.372 . S
C716 C717 1.383 . S
C717 C716 1.383 . S
C717 C718 1.395 . S
C718 H682 0.930 . S
C718 C717 1.395 . S
C718 C719 1.362 . S
C719 H683 0.930 . S
C719 C714 1.390 . S
C719 C718 1.362 . S
C720 C709 1.492 . S
C720 C721 1.377 . S
C720 C725 1.397 . S
C721 H684 0.931 . S
C721 C720 1.377 . S
C721 C722 1.376 . S
C722 H685 0.930 . S
C722 C721 1.376 . S
C722 C723 1.376 . S
C723 C722 1.376 . S
C723 C724 1.378 . S
C723 C750 1.486 . S
C724 H686 0.930 . S
C724 C723 1.378 . S
C724 C725 1.376 . S
C725 H687 0.929 . S
C725 C720 1.397 . S
C725 C724 1.376 . S
C726 C710 1.509 . S
C726 C727 1.391 . S
C726 C731 1.386 . S
C727 H688 0.930 . S
C727 C726 1.391 . S
C727 C728 1.375 . S
C728 H689 0.931 . S
C728 C727 1.375 . S
C728 C729 1.375 . S
C729 C728 1.375 . S
C729 C730 1.361 . S
C730 H690 0.930 . S
C730 C729 1.361 . S
C730 C731 1.399 . S
C731 H691 0.929 . S
C731 C726 1.386 . S
C731 C730 1.399 . S
C732 C711 1.485 . S
C732 C733 1.394 . S
C732 C737 1.360 . S
C733 H692 0.931 . S
C733 C732 1.394 . S
C733 C734 1.372 . S
C734 H693 0.930 . S
C734 C733 1.372 . S
C734 C735 1.397 . S
C735 C734 1.397 . S
C735 C736 1.390 . S
C735 C751 1.476 . S
C736 H694 0.930 . S
C736 C735 1.390 . S
C736 C737 1.366 . S
C737 H695 0.932 . S
C737 C732 1.360 . S
C737 C736 1.366 . S
C738 C712 1.490 . S
C738 C739 1.380 . S
C738 C743 1.386 . S
C739 H696 0.930 . S
C739 C738 1.380 . S
C739 C740 1.381 . S
C740 H697 0.929 . S
C740 C739 1.381 . S
C740 C741 1.371 . S
C741 C740 1.371 . S
C741 C742 1.380 . S
C742 H698 0.931 . S
C742 C741 1.380 . S
C742 C743 1.387 . S
C743 H699 0.930 . S
C743 C738 1.386 . S
C743 C742 1.387 . S
C744 C713 1.519 . S
C744 C745 1.377 . S
C744 C749 1.361 . S
C745 H700 0.929 . S
C745 C744 1.377 . S
C745 C746 1.386 . S
C746 H701 0.931 . S
C746 C745 1.386 . S
C746 C747 1.363 . S
C747 C746 1.363 . S
C747 C748 1.385 . S
C748 H702 0.930 . S
C748 C747 1.385 . S
C748 C749 1.396 . S
C749 H703 0.929 . S
C749 C744 1.361 . S
C749 C748 1.396 . S
C750 O704 1.300 . S
C750 O705 1.209 . S
C750 C723 1.486 . S
C751 O706 1.199 . S
C751 O707 1.297 . S
C751 C735 1.476 . S
H752 O778 0.856 . S
H753 O781 0.854 . S
H754 C789 0.930 . S
H755 C790 0.930 . S
H756 C792 0.930 . S
H757 C793 0.930 . S
H758 C795 0.931 . S
H759 C796 0.930 . S
H760 C798 0.930 . S
H761 C799 0.929 . S
H762 C801 0.930 . S
H763 C802 0.931 . S
H764 C804 0.930 . S
H765 C805 0.929 . S
H766 C807 0.931 . S
H767 C808 0.930 . S
H768 C810 0.930 . S
H769 C811 0.932 . S
H770 C813 0.930 . S
H771 C814 0.929 . S
H772 C816 0.931 . S
H773 C817 0.930 . S
H774 C819 0.929 . S
H775 C820 0.931 . S
H776 C822 0.930 . S
H777 C823 0.929 . S
O778 H752 0.856 . S
O778 C824 1.300 . S
O779 C824 1.209 . S
O780 C825 1.199 . S
O781 H753 0.854 . S
O781 C825 1.297 . S
C782 C783 1.404 . S
C782 C787 1.397 . S
C782 C788 1.492 . S
C783 C782 1.404 . S
C783 C784 1.396 . S
C783 C794 1.492 . S
C784 C783 1.396 . S
C784 C785 1.397 . S
C784 C800 1.509 . S
C785 C784 1.397 . S
C785 C786 1.412 . S
C785 C806 1.485 . S
C786 C785 1.412 . S
C786 C787 1.388 . S
C786 C812 1.490 . S
C787 C782 1.397 . S
C787 C786 1.388 . S
C787 C818 1.519 . S
C788 C782 1.492 . S
C788 C789 1.363 . S
C788 C793 1.390 . S
C789 H754 0.930 . S
C789 C788 1.363 . S
C789 C790 1.372 . S
C790 H755 0.930 . S
C790 C789 1.372 . S
C790 C791 1.383 . S
C791 C790 1.383 . S
C791 C792 1.395 . S
C792 H756 0.930 . S
C792 C791 1.395 . S
C792 C793 1.362 . S
C793 H757 0.930 . S
C793 C788 1.390 . S
C793 C792 1.362 . S
C794 C783 1.492 . S
C794 C795 1.377 . S
C794 C799 1.397 . S
C795 H758 0.931 . S
C795 C794 1.377 . S
C795 C796 1.376 . S
C796 H759 0.930 . S
C796 C795 1.376 . S
C796 C797 1.376 . S
C797 C796 1.376 . S
C797 C798 1.378 . S
C797 C824 1.486 . S
C798 H760 0.930 . S
C798 C797 1.378 . S
C798 C799 1.376 . S
C799 H761 0.929 . S
C799 C794 1.397 . S
C799 C798 1.376 . S
C800 C784 1.509 . S
C800 C801 1.391 . S
C800 C805 1.386 . S
C801 H762 0.930 . S
C801 C800 1.391 . S
C801 C802 1.375 . S
C802 H763 0.931 . S
C802 C801 1.375 . S
C802 C803 1.375 . S
C803 C802 1.375 . S
C803 C804 1.361 . S
C804 H764 0.930 . S
C804 C803 1.361 . S
C804 C805 1.399 . S
C805 H765 0.929 . S
C805 C800 1.386 . S
C805 C804 1.399 . S
C806 C785 1.485 . S
C806 C807 1.394 . S
C806 C811 1.360 . S
C807 H766 0.931 . S
C807 C806 1.394 . S
C807 C808 1.372 . S
C808 H767 0.930 . S
C808 C807 1.372 . S
C808 C809 1.397 . S
C809 C808 1.397 . S
C809 C810 1.390 . S
C809 C825 1.476 . S
C810 H768 0.930 . S
C810 C809 1.390 . S
C810 C811 1.366 . S
C811 H769 0.932 . S
C811 C806 1.360 . S
C811 C810 1.366 . S
C812 C786 1.490 . S
C812 C813 1.380 . S
C812 C817 1.386 . S
C813 H770 0.930 . S
C813 C812 1.380 . S
C813 C814 1.381 . S
C814 H771 0.929 . S
C814 C813 1.381 . S
C814 C815 1.371 . S
C815 C814 1.371 . S
C815 C816 1.380 . S
C816 H772 0.931 . S
C816 C815 1.380 . S
C816 C817 1.387 . S
C817 H773 0.930 . S
C817 C812 1.386 . S
C817 C816 1.387 . S
C818 C787 1.519 . S
C818 C819 1.377 . S
C818 C823 1.361 . S
C819 H774 0.929 . S
C819 C818 1.377 . S
C819 C820 1.386 . S
C820 H775 0.931 . S
C820 C819 1.386 . S
C820 C821 1.363 . S
C821 C820 1.363 . S
C821 C822 1.385 . S
C822 H776 0.930 . S
C822 C821 1.385 . S
C822 C823 1.396 . S
C823 H777 0.929 . S
C823 C818 1.361 . S
C823 C822 1.396 . S
C824 O778 1.300 . S
C824 O779 1.209 . S
C824 C797 1.486 . S
C825 O780 1.199 . S
C825 O781 1.297 . S
C825 C809 1.476 . S
H826 O852 0.856 . S
H827 O855 0.854 . S
H828 C863 0.930 . S
H829 C864 0.930 . S
H830 C866 0.930 . S
H831 C867 0.930 . S
H832 C869 0.931 . S
H833 C870 0.930 . S
H834 C872 0.930 . S
H835 C873 0.929 . S
H836 C875 0.930 . S
H837 C876 0.931 . S
H838 C878 0.930 . S
H839 C879 0.929 . S
H840 C881 0.931 . S
H841 C882 0.930 . S
H842 C884 0.930 . S
H843 C885 0.932 . S
H844 C887 0.930 . S
H845 C888 0.929 . S
H846 C890 0.931 . S
H847 C891 0.930 . S
H848 C893 0.929 . S
H849 C894 0.931 . S
H850 C896 0.930 . S
H851 C897 0.929 . S
O852 H826 0.856 . S
O852 C898 1.300 . S
O853 C898 1.209 . S
O854 C899 1.199 . S
O855 H827 0.854 . S
O855 C899 1.297 . S
C856 C857 1.404 . S
C856 C861 1.397 . S
C856 C862 1.492 . S
C857 C856 1.404 . S
C857 C858 1.396 . S
C857 C868 1.492 . S
C858 C857 1.396 . S
C858 C859 1.397 . S
C858 C874 1.509 . S
C859 C858 1.397 . S
C859 C860 1.412 . S
C859 C880 1.485 . S
C860 C859 1.412 . S
C860 C861 1.388 . S
C860 C886 1.490 . S
C861 C856 1.397 . S
C861 C860 1.388 . S
C861 C892 1.519 . S
C862 C856 1.492 . S
C862 C863 1.363 . S
C862 C867 1.390 . S
C863 H828 0.930 . S
C863 C862 1.363 . S
C863 C864 1.372 . S
C864 H829 0.930 . S
C864 C863 1.372 . S
C864 C865 1.383 . S
C865 C864 1.383 . S
C865 C866 1.395 . S
C866 H830 0.930 . S
C866 C865 1.395 . S
C866 C867 1.362 . S
C867 H831 0.930 . S
C867 C862 1.390 . S
C867 C866 1.362 . S
C868 C857 1.492 . S
C868 C869 1.377 . S
C868 C873 1.397 . S
C869 H832 0.931 . S
C869 C868 1.377 . S
C869 C870 1.376 . S
C870 H833 0.930 . S
C870 C869 1.376 . S
C870 C871 1.376 . S
C871 C870 1.376 . S
C871 C872 1.378 . S
C871 C898 1.486 . S
C872 H834 0.930 . S
C872 C871 1.378 . S
C872 C873 1.376 . S
C873 H835 0.929 . S
C873 C868 1.397 . S
C873 C872 1.376 . S
C874 C858 1.509 . S
C874 C875 1.391 . S
C874 C879 1.386 . S
C875 H836 0.930 . S
C875 C874 1.391 . S
C875 C876 1.375 . S
C876 H837 0.931 . S
C876 C875 1.375 . S
C876 C877 1.375 . S
C877 C876 1.375 . S
C877 C878 1.361 . S
C878 H838 0.930 . S
C878 C877 1.361 . S
C878 C879 1.399 . S
C879 H839 0.929 . S
C879 C874 1.386 . S
C879 C878 1.399 . S
C880 C859 1.485 . S
C880 C881 1.394 . S
C880 C885 1.360 . S
C881 H840 0.931 . S
C881 C880 1.394 . S
C881 C882 1.372 . S
C882 H841 0.930 . S
C882 C881 1.372 . S
C882 C883 1.397 . S
C883 C882 1.397 . S
C883 C884 1.390 . S
C883 C899 1.476 . S
C884 H842 0.930 . S
C884 C883 1.390 . S
C884 C885 1.366 . S
C885 H843 0.932 . S
C885 C880 1.360 . S
C885 C884 1.366 . S
C886 C860 1.490 . S
C886 C887 1.380 . S
C886 C891 1.386 . S
C887 H844 0.930 . S
C887 C886 1.380 . S
C887 C888 1.381 . S
C888 H845 0.929 . S
C888 C887 1.381 . S
C888 C889 1.371 . S
C889 C888 1.371 . S
C889 C890 1.380 . S
C890 H846 0.931 . S
C890 C889 1.380 . S
C890 C891 1.387 . S
C891 H847 0.930 . S
C891 C886 1.386 . S
C891 C890 1.387 . S
C892 C861 1.519 . S
C892 C893 1.377 . S
C892 C897 1.361 . S
C893 H848 0.929 . S
C893 C892 1.377 . S
C893 C894 1.386 . S
C894 H849 0.931 . S
C894 C893 1.386 . S
C894 C895 1.363 . S
C895 C894 1.363 . S
C895 C896 1.385 . S
C896 H850 0.930 . S
C896 C895 1.385 . S
C896 C897 1.396 . S
C897 H851 0.929 . S
C897 C892 1.361 . S
C897 C896 1.396 . S
C898 O852 1.300 . S
C898 O853 1.209 . S
C898 C871 1.486 . S
C899 O854 1.199 . S
C899 O855 1.297 . S
C899 C883 1.476 . S
H900 O926 0.856 . S
H901 O929 0.854 . S
H902 C937 0.930 . S
H903 C938 0.930 . S
H904 C940 0.930 . S
H905 C941 0.930 . S
H906 C943 0.931 . S
H907 C944 0.930 1_655 S
H908 C946 0.930 . S
H909 C947 0.929 . S
H910 C949 0.930 . S
H911 C950 0.931 1_655 S
H912 C952 0.930 . S
H913 C953 0.929 . S
H914 C955 0.931 . S
H915 C956 0.930 . S
H916 C958 0.930 . S
H917 C959 0.932 . S
H918 C961 0.930 . S
H919 C962 0.929 . S
H920 C964 0.931 . S
H921 C965 0.930 . S
H922 C967 0.929 . S
H923 C968 0.931 . S
H924 C970 0.930 . S
H925 C971 0.929 . S
O926 H900 0.856 . S
O926 C972 1.300 . S
O927 C972 1.209 . S
O928 C973 1.199 1_655 S
O929 H901 0.854 . S
O929 C973 1.297 . S
C930 C931 1.404 . S
C930 C935 1.397 . S
C930 C936 1.492 . S
C931 C930 1.404 . S
C931 C932 1.396 . S
C931 C942 1.492 . S
C932 C931 1.396 . S
C932 C933 1.397 . S
C932 C948 1.509 . S
C933 C932 1.397 . S
C933 C934 1.432 . S
C933 C954 1.485 . S
C934 C933 1.432 . S
C934 C935 1.368 . S
C934 C960 1.491 1_455 S
C935 C930 1.397 . S
C935 C934 1.368 . S
C935 C966 1.496 1_455 S
C936 C930 1.492 . S
C936 C937 1.363 1_455 S
C936 C941 1.390 . S
C937 H902 0.930 . S
C937 C936 1.363 1_655 S
C937 C938 1.372 . S
C938 H903 0.930 . S
C938 C937 1.372 . S
C938 C939 1.383 . S
C939 C938 1.383 . S
C939 C940 1.395 1_655 S
C940 H904 0.930 . S
C940 C939 1.395 1_455 S
C940 C941 1.362 . S
C941 H905 0.930 . S
C941 C936 1.390 . S
C941 C940 1.362 . S
C942 C931 1.492 . S
C942 C943 1.377 1_455 S
C942 C947 1.397 . S
C943 H906 0.931 . S
C943 C942 1.377 1_655 S
C943 C944 1.376 1_655 S
C944 H907 0.930 1_455 S
C944 C943 1.376 1_455 S
C944 C945 1.376 . S
C945 C944 1.376 . S
C945 C946 1.378 . S
C945 C972 1.486 . S
C946 H908 0.930 . S
C946 C945 1.378 . S
C946 C947 1.376 . S
C947 H909 0.929 . S
C947 C942 1.397 . S
C947 C946 1.376 . S
C948 C932 1.509 . S
C948 C949 1.391 1_455 S
C948 C953 1.386 . S
C949 H910 0.930 . S
C949 C948 1.391 1_655 S
C949 C950 1.375 1_655 S
C950 H911 0.931 1_455 S
C950 C949 1.375 1_455 S
C950 C951 1.375 . S
C951 C950 1.375 . S
C951 C952 1.361 . S
C952 H912 0.930 . S
C952 C951 1.361 . S
C952 C953 1.399 . S
C953 H913 0.929 . S
C953 C948 1.386 . S
C953 C952 1.399 . S
C954 C933 1.485 . S
C954 C955 1.394 1_455 S
C954 C959 1.360 . S
C955 H914 0.931 . S
C955 C954 1.394 1_655 S
C955 C956 1.372 . S
C956 H915 0.930 . S
C956 C955 1.372 . S
C956 C957 1.397 1_655 S
C957 C956 1.397 1_455 S
C957 C958 1.390 . S
C957 C973 1.476 . S
C958 H916 0.930 . S
C958 C957 1.390 . S
C958 C959 1.366 . S
C959 H917 0.932 . S
C959 C954 1.360 . S
C959 C958 1.366 . S
C960 C934 1.491 1_655 S
C960 C961 1.380 . S
C960 C965 1.386 1_655 S
C961 H918 0.930 . S
C961 C960 1.380 . S
C961 C962 1.381 . S
C962 H919 0.929 . S
C962 C961 1.381 . S
C962 C963 1.371 . S
C963 C962 1.371 . S
C963 C964 1.380 1_655 S
C964 H920 0.931 . S
C964 C963 1.380 1_455 S
C964 C965 1.387 . S
C965 H921 0.930 . S
C965 C960 1.386 1_455 S
C965 C964 1.387 . S
C966 C935 1.496 1_655 S
C966 C967 1.434 . S
C966 C971 1.325 1_655 S
C967 H922 0.929 . S
C967 C966 1.434 . S
C967 C968 1.386 . S
C968 H923 0.931 . S
C968 C967 1.386 . S
C968 C969 1.363 . S
C969 C968 1.363 . S
C969 C970 1.385 1_655 S
C970 H924 0.930 . S
C970 C969 1.385 1_455 S
C970 C971 1.396 . S
C971 H925 0.929 . S
C971 C966 1.325 1_455 S
C971 C970 1.396 . S
C972 O926 1.300 . S
C972 O927 1.209 . S
C972 C945 1.486 . S
C973 O928 1.199 1_455 S
C973 O929 1.297 . S
C973 C957 1.476 . S
H974 O1000 0.856 . S
H975 O1003 0.854 . S
H976 C1011 0.930 . S
H977 C1012 0.930 . S
H978 C1014 0.930 . S
H979 C1015 0.930 . S
H980 C1017 0.931 . S
H981 C1018 0.930 . S
H982 C1020 0.930 . S
H983 C1021 0.929 . S
H984 C1023 0.930 . S
H985 C1024 0.931 . S
H986 C1026 0.930 . S
H987 C1027 0.929 . S
H988 C1029 0.931 . S
H989 C1030 0.930 . S
H990 C1032 0.930 . S
H991 C1033 0.932 . S
H992 C1035 0.930 . S
H993 C1036 0.929 . S
H994 C1038 0.931 . S
H995 C1039 0.930 . S
H996 C1041 0.929 . S
H997 C1042 0.931 . S
H998 C1044 0.930 . S
H999 C1045 0.929 . S
O1000 H974 0.856 . S
O1000 C1046 1.300 . S
O1001 C1046 1.209 . S
O1002 C1047 1.199 . S
O1003 H975 0.854 . S
O1003 C1047 1.297 . S
C1004 C1005 1.404 . S
C1004 C1009 1.397 . S
C1004 C1010 1.492 . S
C1005 C1004 1.404 . S
C1005 C1006 1.396 . S
C1005 C1016 1.492 . S
C1006 C1005 1.396 . S
C1006 C1007 1.397 . S
C1006 C1022 1.509 . S
C1007 C1006 1.397 . S
C1007 C1008 1.412 . S
C1007 C1028 1.485 . S
C1008 C1007 1.412 . S
C1008 C1009 1.388 . S
C1008 C1034 1.490 . S
C1009 C1004 1.397 . S
C1009 C1008 1.388 . S
C1009 C1040 1.519 . S
C1010 C1004 1.492 . S
C1010 C1011 1.363 . S
C1010 C1015 1.390 . S
C1011 H976 0.930 . S
C1011 C1010 1.363 . S
C1011 C1012 1.372 . S
C1012 H977 0.930 . S
C1012 C1011 1.372 . S
C1012 C1013 1.383 . S
C1013 C1012 1.383 . S
C1013 C1014 1.395 . S
C1014 H978 0.930 . S
C1014 C1013 1.395 . S
C1014 C1015 1.362 . S
C1015 H979 0.930 . S
C1015 C1010 1.390 . S
C1015 C1014 1.362 . S
C1016 C1005 1.492 . S
C1016 C1017 1.377 . S
C1016 C1021 1.397 . S
C1017 H980 0.931 . S
C1017 C1016 1.377 . S
C1017 C1018 1.376 . S
C1018 H981 0.930 . S
C1018 C1017 1.376 . S
C1018 C1019 1.376 . S
C1019 C1018 1.376 . S
C1019 C1020 1.378 . S
C1019 C1046 1.486 . S
C1020 H982 0.930 . S
C1020 C1019 1.378 . S
C1020 C1021 1.376 . S
C1021 H983 0.929 . S
C1021 C1016 1.397 . S
C1021 C1020 1.376 . S
C1022 C1006 1.509 . S
C1022 C1023 1.391 . S
C1022 C1027 1.386 . S
C1023 H984 0.930 . S
C1023 C1022 1.391 . S
C1023 C1024 1.375 . S
C1024 H985 0.931 . S
C1024 C1023 1.375 . S
C1024 C1025 1.375 . S
C1025 C1024 1.375 . S
C1025 C1026 1.361 . S
C1026 H986 0.930 . S
C1026 C1025 1.361 . S
C1026 C1027 1.399 . S
C1027 H987 0.929 . S
C1027 C1022 1.386 . S
C1027 C1026 1.399 . S
C1028 C1007 1.485 . S
C1028 C1029 1.394 . S
C1028 C1033 1.360 . S
C1029 H988 0.931 . S
C1029 C1028 1.394 . S
C1029 C1030 1.372 . S
C1030 H989 0.930 . S
C1030 C1029 1.372 . S
C1030 C1031 1.397 . S
C1031 C1030 1.397 . S
C1031 C1032 1.390 . S
C1031 C1047 1.476 . S
C1032 H990 0.930 . S
C1032 C1031 1.390 . S
C1032 C1033 1.366 . S
C1033 H991 0.932 . S
C1033 C1028 1.360 . S
C1033 C1032 1.366 . S
C1034 C1008 1.490 . S
C1034 C1035 1.380 . S
C1034 C1039 1.386 . S
C1035 H992 0.930 . S
C1035 C1034 1.380 . S
C1035 C1036 1.381 . S
C1036 H993 0.929 . S
C1036 C1035 1.381 . S
C1036 C1037 1.371 . S
C1037 C1036 1.371 . S
C1037 C1038 1.380 . S
C1038 H994 0.931 . S
C1038 C1037 1.380 . S
C1038 C1039 1.387 . S
C1039 H995 0.930 . S
C1039 C1034 1.386 . S
C1039 C1038 1.387 . S
C1040 C1009 1.519 . S
C1040 C1041 1.377 . S
C1040 C1045 1.361 . S
C1041 H996 0.929 . S
C1041 C1040 1.377 . S
C1041 C1042 1.386 . S
C1042 H997 0.931 . S
C1042 C1041 1.386 . S
C1042 C1043 1.363 . S
C1043 C1042 1.363 . S
C1043 C1044 1.385 . S
C1044 H998 0.930 . S
C1044 C1043 1.385 . S
C1044 C1045 1.396 . S
C1045 H999 0.929 . S
C1045 C1040 1.361 . S
C1045 C1044 1.396 . S
C1046 O1000 1.300 . S
C1046 O1001 1.209 . S
C1046 C1019 1.486 . S
C1047 O1002 1.199 . S
C1047 O1003 1.297 . S
C1047 C1031 1.476 . S
H1048 O1074 0.856 . S
H1049 O1077 0.854 . S
H1050 C1085 0.930 . S
H1051 C1086 0.930 . S
H1052 C1088 0.930 . S
H1053 C1089 0.930 . S
H1054 C1091 0.931 . S
H1055 C1092 0.910 1_545 S
H1056 C1094 0.930 . S
H1057 C1095 0.929 . S
H1058 C1097 0.930 . S
H1059 C1098 0.931 . S
H1060 C1100 0.930 . S
H1061 C1101 0.929 . S
H1062 C1103 0.931 . S
H1063 C1104 0.930 . S
H1064 C1106 0.930 . S
H1065 C1107 0.932 . S
H1066 C1109 0.930 . S
H1067 C1110 0.929 . S
H1068 C1112 0.931 . S
H1069 C1113 0.930 . S
H1070 C1115 0.929 . S
H1071 C1116 0.931 . S
H1072 C1118 0.930 . S
H1073 C1119 0.929 . S
O1074 H1048 0.856 . S
O1074 C1120 1.300 . S
O1075 C1120 1.209 . S
O1076 C1121 1.199 1_545 S
O1077 H1049 0.854 . S
O1077 C1121 1.297 . S
C1078 C1079 1.404 . S
C1078 C1083 1.416 . S
C1078 C1084 1.492 . S
C1079 C1078 1.404 . S
C1079 C1080 1.396 . S
C1079 C1090 1.492 . S
C1080 C1079 1.396 . S
C1080 C1081 1.397 . S
C1080 C1096 1.509 . S
C1081 C1080 1.397 . S
C1081 C1082 1.412 1_565 S
C1081 C1102 1.485 . S
C1082 C1081 1.412 1_545 S
C1082 C1083 1.362 1_545 S
C1082 C1108 1.490 . S
C1083 C1078 1.416 . S
C1083 C1082 1.362 1_565 S
C1083 C1114 1.535 1_565 S
C1084 C1078 1.492 . S
C1084 C1085 1.363 1_565 S
C1084 C1089 1.390 . S
C1085 H1050 0.930 . S
C1085 C1084 1.363 1_545 S
C1085 C1086 1.372 . S
C1086 H1051 0.930 . S
C1086 C1085 1.372 . S
C1086 C1087 1.383 . S
C1087 C1086 1.383 . S
C1087 C1088 1.395 1_545 S
C1088 H1052 0.930 . S
C1088 C1087 1.395 1_565 S
C1088 C1089 1.362 . S
C1089 H1053 0.930 . S
C1089 C1084 1.390 . S
C1089 C1088 1.362 . S
C1090 C1079 1.492 . S
C1090 C1091 1.377 1_565 S
C1090 C1095 1.397 . S
C1091 H1054 0.931 . S
C1091 C1090 1.377 1_545 S
C1091 C1092 1.364 1_545 S
C1092 H1055 0.910 1_565 S
C1092 C1091 1.364 1_565 S
C1092 C1093 1.408 . S
C1093 C1092 1.408 . S
C1093 C1094 1.378 . S
C1093 C1120 1.486 . S
C1094 H1056 0.930 . S
C1094 C1093 1.378 . S
C1094 C1095 1.376 . S
C1095 H1057 0.929 . S
C1095 C1090 1.397 . S
C1095 C1094 1.376 . S
C1096 C1080 1.509 . S
C1096 C1097 1.391 1_565 S
C1096 C1101 1.386 . S
C1097 H1058 0.930 . S
C1097 C1096 1.391 1_545 S
C1097 C1098 1.375 . S
C1098 H1059 0.931 . S
C1098 C1097 1.375 . S
C1098 C1099 1.375 1_545 S
C1099 C1098 1.375 1_565 S
C1099 C1100 1.361 . S
C1100 H1060 0.930 . S
C1100 C1099 1.361 . S
C1100 C1101 1.399 . S
C1101 H1061 0.929 . S
C1101 C1096 1.386 . S
C1101 C1100 1.399 . S
C1102 C1081 1.485 . S
C1102 C1103 1.394 1_565 S
C1102 C1107 1.360 . S
C1103 H1062 0.931 . S
C1103 C1102 1.394 1_545 S
C1103 C1104 1.372 . S
C1104 H1063 0.930 . S
C1104 C1103 1.372 . S
C1104 C1105 1.397 1_545 S
C1105 C1104 1.397 1_565 S
C1105 C1106 1.390 . S
C1105 C1121 1.476 . S
C1106 H1064 0.930 . S
C1106 C1105 1.390 . S
C1106 C1107 1.366 . S
C1107 H1065 0.932 . S
C1107 C1102 1.360 . S
C1107 C1106 1.366 . S
C1108 C1082 1.490 . S
C1108 C1109 1.380 . S
C1108 C1113 1.386 1_545 S
C1109 H1066 0.930 . S
C1109 C1108 1.380 . S
C1109 C1110 1.381 . S
C1110 H1067 0.929 . S
C1110 C1109 1.381 . S
C1110 C1111 1.371 . S
C1111 C1110 1.371 . S
C1111 C1112 1.380 1_545 S
C1112 H1068 0.931 . S
C1112 C1111 1.380 1_565 S
C1112 C1113 1.387 . S
C1113 H1069 0.930 . S
C1113 C1108 1.386 1_565 S
C1113 C1112 1.387 . S
C1114 C1083 1.535 1_545 S
C1114 C1115 1.379 . S
C1114 C1119 1.357 1_545 S
C1115 H1070 0.929 . S
C1115 C1114 1.379 . S
C1115 C1116 1.386 . S
C1116 H1071 0.931 . S
C1116 C1115 1.386 . S
C1116 C1117 1.363 1_545 S
C1117 C1116 1.363 1_565 S
C1117 C1118 1.385 . S
C1118 H1072 0.930 . S
C1118 C1117 1.385 . S
C1118 C1119 1.396 . S
C1119 H1073 0.929 . S
C1119 C1114 1.357 1_565 S
C1119 C1118 1.396 . S
C1120 O1074 1.300 . S
C1120 O1075 1.209 . S
C1120 C1093 1.486 . S
C1121 O1076 1.199 1_565 S
C1121 O1077 1.297 . S
C1121 C1105 1.476 . S
H1122 O1148 0.856 . S
H1123 O1151 0.854 . S
H1124 C1159 0.930 . S
H1125 C1160 0.930 . S
H1126 C1162 0.930 . S
H1127 C1163 0.930 . S
H1128 C1165 0.931 . S
H1129 C1166 0.930 . S
H1130 C1168 0.930 . S
H1131 C1169 0.929 . S
H1132 C1171 0.930 . S
H1133 C1172 0.931 . S
H1134 C1174 0.930 . S
H1135 C1175 0.929 . S
H1136 C1177 0.931 . S
H1137 C1178 0.930 . S
H1138 C1180 0.930 . S
H1139 C1181 0.932 . S
H1140 C1183 0.930 . S
H1141 C1184 0.929 . S
H1142 C1186 0.931 . S
H1143 C1187 0.930 . S
H1144 C1189 0.929 . S
H1145 C1190 0.931 . S
H1146 C1192 0.930 . S
H1147 C1193 0.929 . S
O1148 H1122 0.856 . S
O1148 C1194 1.300 . S
O1149 C1194 1.209 1_565 S
O1150 C1195 1.199 1_545 S
O1151 H1123 0.854 . S
O1151 C1195 1.297 . S
C1152 C1153 1.404 . S
C1152 C1157 1.396 1_545 S
C1152 C1158 1.492 . S
C1153 C1152 1.404 . S
C1153 C1154 1.396 . S
C1153 C1164 1.492 . S
C1154 C1153 1.396 . S
C1154 C1155 1.385 1_545 S
C1154 C1170 1.526 . S
C1155 C1154 1.385 1_565 S
C1155 C1156 1.400 . S
C1155 C1176 1.512 . S
C1156 C1155 1.400 . S
C1156 C1157 1.390 . S
C1156 C1182 1.490 . S
C1157 C1152 1.396 1_565 S
C1157 C1156 1.390 . S
C1157 C1188 1.518 . S
C1158 C1152 1.492 . S
C1158 C1159 1.363 . S
C1158 C1163 1.390 1_545 S
C1159 H1124 0.930 . S
C1159 C1158 1.363 . S
C1159 C1160 1.372 . S
C1160 H1125 0.930 . S
C1160 C1159 1.372 . S
C1160 C1161 1.383 . S
C1161 C1160 1.383 . S
C1161 C1162 1.395 1_545 S
C1162 H1126 0.930 . S
C1162 C1161 1.395 1_565 S
C1162 C1163 1.362 . S
C1163 H1127 0.930 . S
C1163 C1158 1.390 1_565 S
C1163 C1162 1.362 . S
C1164 C1153 1.492 . S
C1164 C1165 1.377 . S
C1164 C1169 1.397 1_545 S
C1165 H1128 0.931 . S
C1165 C1164 1.377 . S
C1165 C1166 1.376 . S
C1166 H1129 0.930 . S
C1166 C1165 1.376 . S
C1166 C1167 1.376 . S
C1167 C1166 1.376 . S
C1167 C1168 1.378 1_545 S
C1167 C1194 1.486 . S
C1168 H1130 0.930 . S
C1168 C1167 1.378 1_565 S
C1168 C1169 1.376 . S
C1169 H1131 0.929 . S
C1169 C1164 1.397 1_565 S
C1169 C1168 1.376 . S
C1170 C1154 1.526 . S
C1170 C1171 1.413 . S
C1170 C1175 1.350 1_545 S
C1171 H1132 0.930 . S
C1171 C1170 1.413 . S
C1171 C1172 1.375 . S
C1172 H1133 0.931 . S
C1172 C1171 1.375 . S
C1172 C1173 1.393 . S
C1173 C1172 1.393 . S
C1173 C1174 1.352 1_545 S
C1174 H1134 0.930 . S
C1174 C1173 1.352 1_565 S
C1174 C1175 1.399 . S
C1175 H1135 0.929 . S
C1175 C1170 1.350 1_565 S
C1175 C1174 1.399 . S
C1176 C1155 1.512 . S
C1176 C1177 1.394 1_565 S
C1176 C1181 1.360 . S
C1177 H1136 0.931 . S
C1177 C1176 1.394 1_545 S
C1177 C1178 1.372 . S
C1178 H1137 0.930 . S
C1178 C1177 1.372 . S
C1178 C1179 1.397 1_545 S
C1179 C1178 1.397 1_565 S
C1179 C1180 1.390 . S
C1179 C1195 1.476 . S
C1180 H1138 0.930 . S
C1180 C1179 1.390 . S
C1180 C1181 1.366 . S
C1181 H1139 0.932 . S
C1181 C1176 1.360 . S
C1181 C1180 1.366 . S
C1182 C1156 1.490 . S
C1182 C1183 1.380 1_565 S
C1182 C1187 1.386 . S
C1183 H1140 0.930 . S
C1183 C1182 1.380 1_545 S
C1183 C1184 1.381 . S
C1184 H1141 0.929 . S
C1184 C1183 1.381 . S
C1184 C1185 1.335 1_545 S
C1185 C1184 1.335 1_565 S
C1185 C1186 1.407 . S
C1186 H1142 0.931 . S
C1186 C1185 1.407 . S
C1186 C1187 1.387 . S
C1187 H1143 0.930 . S
C1187 C1182 1.386 . S
C1187 C1186 1.387 . S
C1188 C1157 1.518 . S
C1188 C1189 1.377 1_565 S
C1188 C1193 1.361 . S
C1189 H1144 0.929 . S
C1189 C1188 1.377 1_545 S
C1189 C1190 1.386 . S
C1190 H1145 0.931 . S
C1190 C1189 1.386 . S
C1190 C1191 1.363 1_545 S
C1191 C1190 1.363 1_565 S
C1191 C1192 1.385 . S
C1192 H1146 0.930 . S
C1192 C1191 1.385 . S
C1192 C1193 1.396 . S
C1193 H1147 0.929 . S
C1193 C1188 1.361 . S
C1193 C1192 1.396 . S
C1194 O1148 1.300 . S
C1194 O1149 1.209 1_545 S
C1194 C1167 1.486 . S
C1195 O1150 1.199 1_565 S
C1195 O1151 1.297 . S
C1195 C1179 1.476 . S
H1196 O1222 0.856 . S
H1197 O1225 0.854 . S
H1198 C1233 0.930 . S
H1199 C1234 0.930 . S
H1200 C1236 0.930 . S
H1201 C1237 0.930 . S
H1202 C1239 0.931 . S
H1203 C1240 0.930 . S
H1204 C1242 0.930 . S
H1205 C1243 0.929 . S
H1206 C1245 0.930 . S
H1207 C1246 0.931 . S
H1208 C1248 0.930 . S
H1209 C1249 0.929 . S
H1210 C1251 0.931 . S
H1211 C1252 0.930 . S
H1212 C1254 0.930 . S
H1213 C1255 0.932 . S
H1214 C1257 0.930 . S
H1215 C1258 0.929 . S
H1216 C1260 0.931 . S
H1217 C1261 0.930 . S
H1218 C1263 0.929 . S
H1219 C1264 0.931 . S
H1220 C1266 0.930 . S
H1221 C1267 0.929 . S
O1222 H1196 0.856 . S
O1222 C1268 1.300 . S
O1223 C1268 1.209 1_455 S
O1224 C1269 1.199 1_655 S
O1225 H1197 0.854 . S
O1225 C1269 1.297 . S
C1226 C1227 1.404 . S
C1226 C1231 1.397 . S
C1226 C1232 1.492 . S
C1227 C1226 1.404 . S
C1227 C1228 1.396 . S
C1227 C1238 1.492 . S
C1228 C1227 1.396 . S
C1228 C1229 1.393 . S
C1228 C1244 1.509 . S
C1229 C1228 1.393 . S
C1229 C1230 1.384 1_655 S
C1229 C1250 1.523 1_655 S
C1230 C1229 1.384 1_455 S
C1230 C1231 1.401 1_455 S
C1230 C1256 1.487 . S
C1231 C1226 1.397 . S
C1231 C1230 1.401 1_655 S
C1231 C1262 1.521 1_655 S
C1232 C1226 1.492 . S
C1232 C1233 1.363 . S
C1232 C1237 1.390 1_655 S
C1233 H1198 0.930 . S
C1233 C1232 1.363 . S
C1233 C1234 1.372 . S
C1234 H1199 0.930 . S
C1234 C1233 1.372 . S
C1234 C1235 1.383 . S
C1235 C1234 1.383 . S
C1235 C1236 1.395 1_655 S
C1236 H1200 0.930 . S
C1236 C1235 1.395 1_455 S
C1236 C1237 1.362 . S
C1237 H1201 0.930 . S
C1237 C1232 1.390 1_455 S
C1237 C1236 1.362 . S
C1238 C1227 1.492 . S
C1238 C1239 1.377 . S
C1238 C1243 1.397 1_655 S
C1239 H1202 0.931 . S
C1239 C1238 1.377 . S
C1239 C1240 1.376 . S
C1240 H1203 0.930 . S
C1240 C1239 1.376 . S
C1240 C1241 1.376 . S
C1241 C1240 1.376 . S
C1241 C1242 1.378 1_655 S
C1241 C1268 1.486 . S
C1242 H1204 0.930 . S
C1242 C1241 1.378 1_455 S
C1242 C1243 1.376 . S
C1243 H1205 0.929 . S
C1243 C1238 1.397 1_455 S
C1243 C1242 1.376 . S
C1244 C1228 1.509 . S
C1244 C1245 1.391 . S
C1244 C1249 1.386 1_655 S
C1245 H1206 0.930 . S
C1245 C1244 1.391 . S
C1245 C1246 1.375 . S
C1246 H1207 0.931 . S
C1246 C1245 1.375 . S
C1246 C1247 1.375 . S
C1247 C1246 1.375 . S
C1247 C1248 1.361 1_655 S
C1248 H1208 0.930 . S
C1248 C1247 1.361 1_455 S
C1248 C1249 1.399 . S
C1249 H1209 0.929 . S
C1249 C1244 1.386 1_455 S
C1249 C1248 1.399 . S
C1250 C1229 1.523 1_455 S
C1250 C1251 1.373 1_455 S
C1250 C1255 1.368 . S
C1251 H1210 0.931 . S
C1251 C1250 1.373 1_655 S
C1251 C1252 1.372 . S
C1252 H1211 0.930 . S
C1252 C1251 1.372 . S
C1252 C1253 1.397 1_655 S
C1253 C1252 1.397 1_455 S
C1253 C1254 1.390 . S
C1253 C1269 1.476 . S
C1254 H1212 0.930 . S
C1254 C1253 1.390 . S
C1254 C1255 1.366 . S
C1255 H1213 0.932 . S
C1255 C1250 1.368 . S
C1255 C1254 1.366 . S
C1256 C1230 1.487 . S
C1256 C1257 1.380 1_455 S
C1256 C1261 1.386 . S
C1257 H1214 0.930 . S
C1257 C1256 1.380 1_655 S
C1257 C1258 1.381 . S
C1258 H1215 0.929 . S
C1258 C1257 1.381 . S
C1258 C1259 1.371 1_655 S
C1259 C1258 1.371 1_455 S
C1259 C1260 1.380 . S
C1260 H1216 0.931 . S
C1260 C1259 1.380 . S
C1260 C1261 1.387 . S
C1261 H1217 0.930 . S
C1261 C1256 1.386 . S
C1261 C1260 1.387 . S
C1262 C1231 1.521 1_455 S
C1262 C1263 1.377 1_455 S
C1262 C1267 1.361 . S
C1263 H1218 0.929 . S
C1263 C1262 1.377 1_655 S
C1263 C1264 1.386 . S
C1264 H1219 0.931 . S
C1264 C1263 1.386 . S
C1264 C1265 1.363 1_655 S
C1265 C1264 1.363 1_455 S
C1265 C1266 1.385 . S
C1266 H1220 0.930 . S
C1266 C1265 1.385 . S
C1266 C1267 1.396 . S
C1267 H1221 0.929 . S
C1267 C1262 1.361 . S
C1267 C1266 1.396 . S
C1268 O1222 1.300 . S
C1268 O1223 1.209 1_655 S
C1268 C1241 1.486 . S
C1269 O1224 1.199 1_455 S
C1269 O1225 1.297 . S
C1269 C1253 1.476 . S
H1270 O1296 0.856 . S
H1271 O1299 0.854 . S
H1272 C1307 0.930 . S
H1273 C1308 0.930 . S
H1274 C1310 0.930 . S
H1275 C1311 0.930 . S
H1276 C1313 0.931 . S
H1277 C1314 0.930 . S
H1278 C1316 0.930 . S
H1279 C1317 0.929 . S
H1280 C1319 0.930 . S
H1281 C1320 0.931 . S
H1282 C1322 0.930 . S
H1283 C1323 0.929 . S
H1284 C1325 0.931 . S
H1285 C1326 0.930 . S
H1286 C1328 0.930 . S
H1287 C1329 0.932 . S
H1288 C1331 0.930 . S
H1289 C1332 0.929 . S
H1290 C1334 0.931 . S
H1291 C1335 0.930 . S
H1292 C1337 0.929 . S
H1293 C1338 0.931 . S
H1294 C1340 0.930 . S
H1295 C1341 0.929 . S
O1296 H1270 0.856 . S
O1296 C1342 1.300 . S
O1297 C1342 1.209 . S
O1298 C1343 1.199 . S
O1299 H1271 0.854 . S
O1299 C1343 1.297 . S
C1300 C1301 1.404 . S
C1300 C1305 1.397 . S
C1300 C1306 1.492 . S
C1301 C1300 1.404 . S
C1301 C1302 1.396 . S
C1301 C1312 1.492 . S
C1302 C1301 1.396 . S
C1302 C1303 1.397 . S
C1302 C1318 1.509 . S
C1303 C1302 1.397 . S
C1303 C1304 1.412 . S
C1303 C1324 1.485 . S
C1304 C1303 1.412 . S
C1304 C1305 1.388 . S
C1304 C1330 1.490 . S
C1305 C1300 1.397 . S
C1305 C1304 1.388 . S
C1305 C1336 1.519 . S
C1306 C1300 1.492 . S
C1306 C1307 1.363 . S
C1306 C1311 1.390 . S
C1307 H1272 0.930 . S
C1307 C1306 1.363 . S
C1307 C1308 1.372 . S
C1308 H1273 0.930 . S
C1308 C1307 1.372 . S
C1308 C1309 1.383 . S
C1309 C1308 1.383 . S
C1309 C1310 1.395 . S
C1310 H1274 0.930 . S
C1310 C1309 1.395 . S
C1310 C1311 1.362 . S
C1311 H1275 0.930 . S
C1311 C1306 1.390 . S
C1311 C1310 1.362 . S
C1312 C1301 1.492 . S
C1312 C1313 1.377 . S
C1312 C1317 1.397 . S
C1313 H1276 0.931 . S
C1313 C1312 1.377 . S
C1313 C1314 1.376 . S
C1314 H1277 0.930 . S
C1314 C1313 1.376 . S
C1314 C1315 1.376 . S
C1315 C1314 1.376 . S
C1315 C1316 1.378 . S
C1315 C1342 1.486 . S
C1316 H1278 0.930 . S
C1316 C1315 1.378 . S
C1316 C1317 1.376 . S
C1317 H1279 0.929 . S
C1317 C1312 1.397 . S
C1317 C1316 1.376 . S
C1318 C1302 1.509 . S
C1318 C1319 1.391 . S
C1318 C1323 1.386 . S
C1319 H1280 0.930 . S
C1319 C1318 1.391 . S
C1319 C1320 1.375 . S
C1320 H1281 0.931 . S
C1320 C1319 1.375 . S
C1320 C1321 1.375 . S
C1321 C1320 1.375 . S
C1321 C1322 1.361 . S
C1322 H1282 0.930 . S
C1322 C1321 1.361 . S
C1322 C1323 1.399 . S
C1323 H1283 0.929 . S
C1323 C1318 1.386 . S
C1323 C1322 1.399 . S
C1324 C1303 1.485 . S
C1324 C1325 1.394 . S
C1324 C1329 1.360 . S
C1325 H1284 0.931 . S
C1325 C1324 1.394 . S
C1325 C1326 1.372 . S
C1326 H1285 0.930 . S
C1326 C1325 1.372 . S
C1326 C1327 1.397 . S
C1327 C1326 1.397 . S
C1327 C1328 1.390 . S
C1327 C1343 1.476 . S
C1328 H1286 0.930 . S
C1328 C1327 1.390 . S
C1328 C1329 1.366 . S
C1329 H1287 0.932 . S
C1329 C1324 1.360 . S
C1329 C1328 1.366 . S
C1330 C1304 1.490 . S
C1330 C1331 1.380 . S
C1330 C1335 1.386 . S
C1331 H1288 0.930 . S
C1331 C1330 1.380 . S
C1331 C1332 1.381 . S
C1332 H1289 0.929 . S
C1332 C1331 1.381 . S
C1332 C1333 1.371 . S
C1333 C1332 1.371 . S
C1333 C1334 1.380 . S
C1334 H1290 0.931 . S
C1334 C1333 1.380 . S
C1334 C1335 1.387 . S
C1335 H1291 0.930 . S
C1335 C1330 1.386 . S
C1335 C1334 1.387 . S
C1336 C1305 1.519 . S
C1336 C1337 1.377 . S
C1336 C1341 1.361 . S
C1337 H1292 0.929 . S
C1337 C1336 1.377 . S
C1337 C1338 1.386 . S
C1338 H1293 0.931 . S
C1338 C1337 1.386 . S
C1338 C1339 1.363 . S
C1339 C1338 1.363 . S
C1339 C1340 1.385 . S
C1340 H1294 0.930 . S
C1340 C1339 1.385 . S
C1340 C1341 1.396 . S
C1341 H1295 0.929 . S
C1341 C1336 1.361 . S
C1341 C1340 1.396 . S
C1342 O1296 1.300 . S
C1342 O1297 1.209 . S
C1342 C1315 1.486 . S
C1343 O1298 1.199 . S
C1343 O1299 1.297 . S
C1343 C1327 1.476 . S
H1344 O1370 0.856 . S
H1345 O1373 0.854 . S
H1346 C1381 0.930 . S
H1347 C1382 0.930 . S
H1348 C1384 0.930 . S
H1349 C1385 0.930 . S
H1350 C1387 0.931 . S
H1351 C1388 0.930 . S
H1352 C1390 0.930 . S
H1353 C1391 0.929 . S
H1354 C1393 0.930 . S
H1355 C1394 0.931 . S
H1356 C1396 0.930 . S
H1357 C1397 0.929 . S
H1358 C1399 0.931 . S
H1359 C1400 0.930 . S
H1360 C1402 0.930 . S
H1361 C1403 0.932 . S
H1362 C1405 0.930 . S
H1363 C1406 0.929 . S
H1364 C1408 0.931 . S
H1365 C1409 0.930 . S
H1366 C1411 0.929 . S
H1367 C1412 0.931 . S
H1368 C1414 0.930 . S
H1369 C1415 0.929 . S
O1370 H1344 0.856 . S
O1370 C1416 1.300 . S
O1371 C1416 1.209 . S
O1372 C1417 1.199 . S
O1373 H1345 0.854 . S
O1373 C1417 1.297 . S
C1374 C1375 1.404 . S
C1374 C1379 1.397 . S
C1374 C1380 1.492 . S
C1375 C1374 1.404 . S
C1375 C1376 1.396 . S
C1375 C1386 1.492 . S
C1376 C1375 1.396 . S
C1376 C1377 1.397 . S
C1376 C1392 1.509 . S
C1377 C1376 1.397 . S
C1377 C1378 1.412 . S
C1377 C1398 1.485 . S
C1378 C1377 1.412 . S
C1378 C1379 1.388 . S
C1378 C1404 1.490 . S
C1379 C1374 1.397 . S
C1379 C1378 1.388 . S
C1379 C1410 1.519 . S
C1380 C1374 1.492 . S
C1380 C1381 1.363 . S
C1380 C1385 1.390 . S
C1381 H1346 0.930 . S
C1381 C1380 1.363 . S
C1381 C1382 1.372 . S
C1382 H1347 0.930 . S
C1382 C1381 1.372 . S
C1382 C1383 1.383 . S
C1383 C1382 1.383 . S
C1383 C1384 1.395 . S
C1384 H1348 0.930 . S
C1384 C1383 1.395 . S
C1384 C1385 1.362 . S
C1385 H1349 0.930 . S
C1385 C1380 1.390 . S
C1385 C1384 1.362 . S
C1386 C1375 1.492 . S
C1386 C1387 1.377 . S
C1386 C1391 1.397 . S
C1387 H1350 0.931 . S
C1387 C1386 1.377 . S
C1387 C1388 1.376 . S
C1388 H1351 0.930 . S
C1388 C1387 1.376 . S
C1388 C1389 1.376 . S
C1389 C1388 1.376 . S
C1389 C1390 1.378 . S
C1389 C1416 1.486 . S
C1390 H1352 0.930 . S
C1390 C1389 1.378 . S
C1390 C1391 1.376 . S
C1391 H1353 0.929 . S
C1391 C1386 1.397 . S
C1391 C1390 1.376 . S
C1392 C1376 1.509 . S
C1392 C1393 1.391 . S
C1392 C1397 1.386 . S
C1393 H1354 0.930 . S
C1393 C1392 1.391 . S
C1393 C1394 1.375 . S
C1394 H1355 0.931 . S
C1394 C1393 1.375 . S
C1394 C1395 1.375 . S
C1395 C1394 1.375 . S
C1395 C1396 1.361 . S
C1396 H1356 0.930 . S
C1396 C1395 1.361 . S
C1396 C1397 1.399 . S
C1397 H1357 0.929 . S
C1397 C1392 1.386 . S
C1397 C1396 1.399 . S
C1398 C1377 1.485 . S
C1398 C1399 1.394 . S
C1398 C1403 1.360 . S
C1399 H1358 0.931 . S
C1399 C1398 1.394 . S
C1399 C1400 1.372 . S
C1400 H1359 0.930 . S
C1400 C1399 1.372 . S
C1400 C1401 1.397 . S
C1401 C1400 1.397 . S
C1401 C1402 1.390 . S
C1401 C1417 1.476 . S
C1402 H1360 0.930 . S
C1402 C1401 1.390 . S
C1402 C1403 1.366 . S
C1403 H1361 0.932 . S
C1403 C1398 1.360 . S
C1403 C1402 1.366 . S
C1404 C1378 1.490 . S
C1404 C1405 1.380 . S
C1404 C1409 1.386 . S
C1405 H1362 0.930 . S
C1405 C1404 1.380 . S
C1405 C1406 1.381 . S
C1406 H1363 0.929 . S
C1406 C1405 1.381 . S
C1406 C1407 1.371 . S
C1407 C1406 1.371 . S
C1407 C1408 1.380 . S
C1408 H1364 0.931 . S
C1408 C1407 1.380 . S
C1408 C1409 1.387 . S
C1409 H1365 0.930 . S
C1409 C1404 1.386 . S
C1409 C1408 1.387 . S
C1410 C1379 1.519 . S
C1410 C1411 1.377 . S
C1410 C1415 1.361 . S
C1411 H1366 0.929 . S
C1411 C1410 1.377 . S
C1411 C1412 1.386 . S
C1412 H1367 0.931 . S
C1412 C1411 1.386 . S
C1412 C1413 1.363 . S
C1413 C1412 1.363 . S
C1413 C1414 1.385 . S
C1414 H1368 0.930 . S
C1414 C1413 1.385 . S
C1414 C1415 1.396 . S
C1415 H1369 0.929 . S
C1415 C1410 1.361 . S
C1415 C1414 1.396 . S
C1416 O1370 1.300 . S
C1416 O1371 1.209 . S
C1416 C1389 1.486 . S
C1417 O1372 1.199 . S
C1417 O1373 1.297 . S
C1417 C1401 1.476 . S
H1418 O1444 0.856 . S
H1419 O1447 0.854 . S
H1420 C1455 0.930 . S
H1421 C1456 0.930 . S
H1422 C1458 0.930 . S
H1423 C1459 0.930 . S
H1424 C1461 0.931 . S
H1425 C1462 0.930 . S
H1426 C1464 0.930 . S
H1427 C1465 0.929 . S
H1428 C1467 0.930 . S
H1429 C1468 0.931 . S
H1430 C1470 0.930 . S
H1431 C1471 0.929 . S
H1432 C1473 0.931 . S
H1433 C1474 0.930 . S
H1434 C1476 0.930 . S
H1435 C1477 0.932 . S
H1436 C1479 0.930 . S
H1437 C1480 0.929 . S
H1438 C1482 0.931 . S
H1439 C1483 0.930 . S
H1440 C1485 0.929 . S
H1441 C1486 0.931 . S
H1442 C1488 0.930 . S
H1443 C1489 0.929 . S
O1444 H1418 0.856 . S
O1444 C1490 1.300 . S
O1445 C1490 1.209 . S
O1446 C1491 1.199 . S
O1447 H1419 0.854 . S
O1447 C1491 1.297 . S
C1448 C1449 1.404 . S
C1448 C1453 1.397 . S
C1448 C1454 1.492 . S
C1449 C1448 1.404 . S
C1449 C1450 1.396 . S
C1449 C1460 1.492 . S
C1450 C1449 1.396 . S
C1450 C1451 1.397 . S
C1450 C1466 1.509 . S
C1451 C1450 1.397 . S
C1451 C1452 1.412 . S
C1451 C1472 1.485 . S
C1452 C1451 1.412 . S
C1452 C1453 1.388 . S
C1452 C1478 1.490 . S
C1453 C1448 1.397 . S
C1453 C1452 1.388 . S
C1453 C1484 1.519 . S
C1454 C1448 1.492 . S
C1454 C1455 1.363 . S
C1454 C1459 1.390 . S
C1455 H1420 0.930 . S
C1455 C1454 1.363 . S
C1455 C1456 1.372 . S
C1456 H1421 0.930 . S
C1456 C1455 1.372 . S
C1456 C1457 1.383 . S
C1457 C1456 1.383 . S
C1457 C1458 1.395 . S
C1458 H1422 0.930 . S
C1458 C1457 1.395 . S
C1458 C1459 1.362 . S
C1459 H1423 0.930 . S
C1459 C1454 1.390 . S
C1459 C1458 1.362 . S
C1460 C1449 1.492 . S
C1460 C1461 1.377 . S
C1460 C1465 1.397 . S
C1461 H1424 0.931 . S
C1461 C1460 1.377 . S
C1461 C1462 1.376 . S
C1462 H1425 0.930 . S
C1462 C1461 1.376 . S
C1462 C1463 1.376 . S
C1463 C1462 1.376 . S
C1463 C1464 1.378 . S
C1463 C1490 1.486 . S
C1464 H1426 0.930 . S
C1464 C1463 1.378 . S
C1464 C1465 1.376 . S
C1465 H1427 0.929 . S
C1465 C1460 1.397 . S
C1465 C1464 1.376 . S
C1466 C1450 1.509 . S
C1466 C1467 1.391 . S
C1466 C1471 1.386 . S
C1467 H1428 0.930 . S
C1467 C1466 1.391 . S
C1467 C1468 1.375 . S
C1468 H1429 0.931 . S
C1468 C1467 1.375 . S
C1468 C1469 1.375 . S
C1469 C1468 1.375 . S
C1469 C1470 1.361 . S
C1470 H1430 0.930 . S
C1470 C1469 1.361 . S
C1470 C1471 1.399 . S
C1471 H1431 0.929 . S
C1471 C1466 1.386 . S
C1471 C1470 1.399 . S
C1472 C1451 1.485 . S
C1472 C1473 1.394 . S
C1472 C1477 1.360 . S
C1473 H1432 0.931 . S
C1473 C1472 1.394 . S
C1473 C1474 1.372 . S
C1474 H1433 0.930 . S
C1474 C1473 1.372 . S
C1474 C1475 1.397 . S
C1475 C1474 1.397 . S
C1475 C1476 1.390 . S
C1475 C1491 1.476 . S
C1476 H1434 0.930 . S
C1476 C1475 1.390 . S
C1476 C1477 1.366 . S
C1477 H1435 0.932 . S
C1477 C1472 1.360 . S
C1477 C1476 1.366 . S
C1478 C1452 1.490 . S
C1478 C1479 1.380 . S
C1478 C1483 1.386 . S
C1479 H1436 0.930 . S
C1479 C1478 1.380 . S
C1479 C1480 1.381 . S
C1480 H1437 0.929 . S
C1480 C1479 1.381 . S
C1480 C1481 1.371 . S
C1481 C1480 1.371 . S
C1481 C1482 1.380 . S
C1482 H1438 0.931 . S
C1482 C1481 1.380 . S
C1482 C1483 1.387 . S
C1483 H1439 0.930 . S
C1483 C1478 1.386 . S
C1483 C1482 1.387 . S
C1484 C1453 1.519 . S
C1484 C1485 1.377 . S
C1484 C1489 1.361 . S
C1485 H1440 0.929 . S
C1485 C1484 1.377 . S
C1485 C1486 1.386 . S
C1486 H1441 0.931 . S
C1486 C1485 1.386 . S
C1486 C1487 1.363 . S
C1487 C1486 1.363 . S
C1487 C1488 1.385 . S
C1488 H1442 0.930 . S
C1488 C1487 1.385 . S
C1488 C1489 1.396 . S
C1489 H1443 0.929 . S
C1489 C1484 1.361 . S
C1489 C1488 1.396 . S
C1490 O1444 1.300 . S
C1490 O1445 1.209 . S
C1490 C1463 1.486 . S
C1491 O1446 1.199 . S
C1491 O1447 1.297 . S
C1491 C1475 1.476 . S
H1492 O1518 0.856 . S
H1493 O1521 0.854 . S
H1494 C1529 0.930 . S
H1495 C1530 0.930 . S
H1496 C1532 0.930 . S
H1497 C1533 0.930 . S
H1498 C1535 0.931 . S
H1499 C1536 0.930 . S
H1500 C1538 0.930 . S
H1501 C1539 0.929 . S
H1502 C1541 0.930 . S
H1503 C1542 0.931 . S
H1504 C1544 0.930 . S
H1505 C1545 0.929 . S
H1506 C1547 0.931 . S
H1507 C1548 0.930 . S
H1508 C1550 0.930 . S
H1509 C1551 0.932 . S
H1510 C1553 0.930 . S
H1511 C1554 0.929 . S
H1512 C1556 0.931 . S
H1513 C1557 0.930 . S
H1514 C1559 0.929 . S
H1515 C1560 0.931 . S
H1516 C1562 0.930 . S
H1517 C1563 0.929 . S
O1518 H1492 0.856 . S
O1518 C1564 1.300 . S
O1519 C1564 1.209 . S
O1520 C1565 1.199 . S
O1521 H1493 0.854 . S
O1521 C1565 1.297 . S
C1522 C1523 1.404 . S
C1522 C1527 1.397 . S
C1522 C1528 1.492 . S
C1523 C1522 1.404 . S
C1523 C1524 1.396 . S
C1523 C1534 1.492 . S
C1524 C1523 1.396 . S
C1524 C1525 1.397 . S
C1524 C1540 1.509 . S
C1525 C1524 1.397 . S
C1525 C1526 1.412 . S
C1525 C1546 1.485 . S
C1526 C1525 1.412 . S
C1526 C1527 1.388 . S
C1526 C1552 1.490 . S
C1527 C1522 1.397 . S
C1527 C1526 1.388 . S
C1527 C1558 1.519 . S
C1528 C1522 1.492 . S
C1528 C1529 1.363 . S
C1528 C1533 1.390 . S
C1529 H1494 0.930 . S
C1529 C1528 1.363 . S
C1529 C1530 1.372 . S
C1530 H1495 0.930 . S
C1530 C1529 1.372 . S
C1530 C1531 1.383 . S
C1531 C1530 1.383 . S
C1531 C1532 1.395 . S
C1532 H1496 0.930 . S
C1532 C1531 1.395 . S
C1532 C1533 1.362 . S
C1533 H1497 0.930 . S
C1533 C1528 1.390 . S
C1533 C1532 1.362 . S
C1534 C1523 1.492 . S
C1534 C1535 1.377 . S
C1534 C1539 1.397 . S
C1535 H1498 0.931 . S
C1535 C1534 1.377 . S
C1535 C1536 1.376 . S
C1536 H1499 0.930 . S
C1536 C1535 1.376 . S
C1536 C1537 1.376 . S
C1537 C1536 1.376 . S
C1537 C1538 1.378 . S
C1537 C1564 1.486 . S
C1538 H1500 0.930 . S
C1538 C1537 1.378 . S
C1538 C1539 1.376 . S
C1539 H1501 0.929 . S
C1539 C1534 1.397 . S
C1539 C1538 1.376 . S
C1540 C1524 1.509 . S
C1540 C1541 1.391 . S
C1540 C1545 1.386 . S
C1541 H1502 0.930 . S
C1541 C1540 1.391 . S
C1541 C1542 1.375 . S
C1542 H1503 0.931 . S
C1542 C1541 1.375 . S
C1542 C1543 1.375 . S
C1543 C1542 1.375 . S
C1543 C1544 1.361 . S
C1544 H1504 0.930 . S
C1544 C1543 1.361 . S
C1544 C1545 1.399 . S
C1545 H1505 0.929 . S
C1545 C1540 1.386 . S
C1545 C1544 1.399 . S
C1546 C1525 1.485 . S
C1546 C1547 1.394 . S
C1546 C1551 1.360 . S
C1547 H1506 0.931 . S
C1547 C1546 1.394 . S
C1547 C1548 1.372 . S
C1548 H1507 0.930 . S
C1548 C1547 1.372 . S
C1548 C1549 1.397 . S
C1549 C1548 1.397 . S
C1549 C1550 1.390 . S
C1549 C1565 1.476 . S
C1550 H1508 0.930 . S
C1550 C1549 1.390 . S
C1550 C1551 1.366 . S
C1551 H1509 0.932 . S
C1551 C1546 1.360 . S
C1551 C1550 1.366 . S
C1552 C1526 1.490 . S
C1552 C1553 1.380 . S
C1552 C1557 1.386 . S
C1553 H1510 0.930 . S
C1553 C1552 1.380 . S
C1553 C1554 1.381 . S
C1554 H1511 0.929 . S
C1554 C1553 1.381 . S
C1554 C1555 1.371 . S
C1555 C1554 1.371 . S
C1555 C1556 1.380 . S
C1556 H1512 0.931 . S
C1556 C1555 1.380 . S
C1556 C1557 1.387 . S
C1557 H1513 0.930 . S
C1557 C1552 1.386 . S
C1557 C1556 1.387 . S
C1558 C1527 1.519 . S
C1558 C1559 1.377 . S
C1558 C1563 1.361 . S
C1559 H1514 0.929 . S
C1559 C1558 1.377 . S
C1559 C1560 1.386 . S
C1560 H1515 0.931 . S
C1560 C1559 1.386 . S
C1560 C1561 1.363 . S
C1561 C1560 1.363 . S
C1561 C1562 1.385 . S
C1562 H1516 0.930 . S
C1562 C1561 1.385 . S
C1562 C1563 1.396 . S
C1563 H1517 0.929 . S
C1563 C1558 1.361 . S
C1563 C1562 1.396 . S
C1564 O1518 1.300 . S
C1564 O1519 1.209 . S
C1564 C1537 1.486 . S
C1565 O1520 1.199 . S
C1565 O1521 1.297 . S
C1565 C1549 1.476 . S
C1566 C1567 1.369 . S
C1566 C1568 1.419 . S
C1566 H1570 0.930 . S
C1567 C1566 1.369 . S
C1567 C1576 1.429 1_655 S
C1568 C1566 1.419 . S
C1568 C1569 1.363 . S
C1568 H1571 0.929 . S
C1569 C1568 1.363 . S
C1569 C1575 1.428 . S
H1570 C1566 0.930 . S
H1571 C1568 0.929 . S
S1572 N1573 1.613 . S
S1572 N1574 1.610 . S
N1573 S1572 1.613 . S
N1573 C1576 1.350 . S
N1574 S1572 1.610 . S
N1574 C1575 1.351 1_455 S
C1575 C1569 1.428 . S
C1575 N1574 1.351 1_655 S
C1575 C1576 1.434 1_655 S
C1576 C1567 1.429 1_455 S
C1576 N1573 1.350 . S
C1576 C1575 1.434 1_455 S
C1577 C1578 1.369 . S
C1577 C1579 1.419 . S
C1577 H1581 0.930 . S
C1578 C1577 1.369 . S
C1578 C1587 1.429 . S
C1579 C1577 1.419 . S
C1579 C1580 1.363 . S
C1579 H1582 0.929 . S
C1580 C1579 1.363 . S
C1580 C1586 1.428 . S
H1581 C1577 0.930 . S
H1582 C1579 0.929 . S
S1583 N1584 1.613 . S
S1583 N1585 1.610 . S
N1584 S1583 1.613 . S
N1584 C1587 1.350 . S
N1585 S1583 1.610 . S
N1585 C1586 1.351 . S
C1586 C1580 1.428 . S
C1586 N1585 1.351 . S
C1586 C1587 1.434 . S
C1587 C1578 1.429 . S
C1587 N1584 1.350 . S
C1587 C1586 1.434 . S
C1588 C1589 1.369 . S
C1588 C1590 1.419 . S
C1588 H1592 0.930 1_545 S
C1589 C1588 1.369 . S
C1589 C1598 1.429 . S
C1590 C1588 1.419 . S
C1590 C1591 1.363 . S
C1590 H1593 0.929 1_545 S
C1591 C1590 1.363 . S
C1591 C1597 1.428 . S
H1592 C1588 0.930 1_565 S
H1593 C1590 0.929 1_565 S
S1594 N1595 1.613 . S
S1594 N1596 1.610 . S
N1595 S1594 1.613 . S
N1595 C1598 1.350 . S
N1596 S1594 1.610 . S
N1596 C1597 1.351 . S
C1597 C1591 1.428 . S
C1597 N1596 1.351 . S
C1597 C1598 1.434 . S
C1598 C1589 1.429 . S
C1598 N1595 1.350 . S
C1598 C1597 1.434 . S
C1599 C1600 1.369 . S
C1599 C1601 1.419 . S
C1599 H1603 0.930 . S
C1600 C1599 1.369 . S
C1600 C1609 1.428 1_565 S
C1601 C1599 1.419 . S
C1601 C1602 1.363 . S
C1601 H1604 0.929 . S
C1602 C1601 1.363 . S
C1602 C1608 1.430 . S
H1603 C1599 0.930 . S
H1604 C1601 0.929 . S
S1605 N1606 1.613 . S
S1605 N1607 1.610 . S
N1606 S1605 1.613 . S
N1606 C1609 1.354 . S
N1607 S1605 1.610 . S
N1607 C1608 1.350 1_545 S
C1608 C1602 1.430 . S
C1608 N1607 1.350 1_565 S
C1608 C1609 1.430 1_565 S
C1609 C1600 1.428 1_545 S
C1609 N1606 1.354 . S
C1609 C1608 1.430 1_545 S
C1610 C1611 1.369 . S
C1610 C1612 1.419 . S
C1610 H1614 0.916 1_455 S
C1611 C1610 1.369 . S
C1611 C1620 1.429 . S
C1612 C1610 1.419 . S
C1612 C1613 1.363 . S
C1612 H1615 0.938 . S
C1613 C1612 1.363 . S
C1613 C1619 1.428 . S
H1614 C1610 0.916 1_655 S
H1615 C1612 0.938 . S
S1616 N1617 1.613 . S
S1616 N1618 1.610 . S
N1617 S1616 1.613 . S
N1617 C1620 1.350 . S
N1618 S1616 1.610 . S
N1618 C1619 1.351 . S
C1619 C1613 1.428 . S
C1619 N1618 1.351 . S
C1619 C1620 1.434 . S
C1620 C1611 1.429 . S
C1620 N1617 1.350 . S
C1620 C1619 1.434 . S
C1621 C1622 1.369 . S
C1621 C1623 1.419 1_554 S
C1621 H1625 0.930 . S
C1622 C1621 1.369 . S
C1622 C1631 1.429 1_554 S
C1623 C1621 1.419 1_556 S
C1623 C1624 1.363 . S
C1623 H1626 0.929 . S
C1624 C1623 1.363 . S
C1624 C1630 1.428 . S
H1625 C1621 0.930 . S
H1626 C1623 0.929 . S
S1627 N1628 1.613 . S
S1627 N1629 1.610 . S
N1628 S1627 1.613 . S
N1628 C1631 1.350 . S
N1629 S1627 1.610 . S
N1629 C1630 1.351 . S
C1630 C1624 1.428 . S
C1630 N1629 1.351 . S
C1630 C1631 1.434 . S
C1631 C1622 1.429 1_556 S
C1631 N1628 1.350 . S
C1631 C1630 1.434 . S
C1632 C1633 1.369 1_655 S
C1632 C1634 1.419 . S
C1632 H1636 0.930 . S
C1633 C1632 1.369 1_455 S
C1633 C1642 1.429 . S
C1634 C1632 1.419 . S
C1634 C1635 1.363 1_655 S
C1634 H1637 0.929 . S
C1635 C1634 1.363 1_455 S
C1635 C1641 1.428 . S
H1636 C1632 0.930 . S
H1637 C1634 0.929 . S
S1638 N1639 1.613 . S
S1638 N1640 1.610 . S
N1639 S1638 1.613 . S
N1639 C1642 1.350 . S
N1640 S1638 1.610 . S
N1640 C1641 1.351 . S
C1641 C1635 1.428 . S
C1641 N1640 1.351 . S
C1641 C1642 1.434 . S
C1642 C1633 1.429 . S
C1642 N1639 1.350 . S
C1642 C1641 1.434 . S
C1643 C1644 1.369 . S
C1643 C1645 1.419 . S
C1643 H1647 0.930 . S
C1644 C1643 1.369 . S
C1644 C1653 1.429 . S
C1645 C1643 1.419 . S
C1645 C1646 1.363 . S
C1645 H1648 0.929 . S
C1646 C1645 1.363 . S
C1646 C1652 1.428 . S
H1647 C1643 0.930 . S
H1648 C1645 0.929 . S
S1649 N1650 1.613 . S
S1649 N1651 1.610 . S
N1650 S1649 1.613 . S
N1650 C1653 1.350 . S
N1651 S1649 1.610 . S
N1651 C1652 1.351 . S
C1652 C1646 1.428 . S
C1652 N1651 1.351 . S
C1652 C1653 1.434 . S
C1653 C1644 1.429 . S
C1653 N1650 1.350 . S
C1653 C1652 1.434 . S
C1654 C1655 1.369 . S
C1654 C1656 1.419 . S
C1654 H1658 0.930 1_556 S
C1655 C1654 1.369 . S
C1655 C1664 1.429 . S
C1656 C1654 1.419 . S
C1656 C1657 1.363 . S
C1656 H1659 0.929 . S
C1657 C1656 1.363 . S
C1657 C1663 1.428 . S
H1658 C1654 0.930 1_554 S
H1659 C1656 0.929 . S
S1660 N1661 1.634 . S
S1660 N1662 1.578 1_565 S
N1661 S1660 1.634 . S
N1661 C1664 1.350 . S
N1662 S1660 1.578 1_545 S
N1662 C1663 1.351 1_545 S
C1663 C1657 1.428 . S
C1663 N1662 1.351 1_565 S
C1663 C1664 1.434 . S
C1664 C1655 1.429 . S
C1664 N1661 1.350 . S
C1664 C1663 1.434 . S
C1665 C1666 1.369 . S
C1665 C1667 1.419 . S
C1665 H1669 0.930 . S
C1666 C1665 1.369 . S
C1666 C1675 1.429 . S
C1667 C1665 1.419 . S
C1667 C1668 1.363 . S
C1667 H1670 0.929 1_545 S
C1668 C1667 1.363 . S
C1668 C1674 1.428 . S
H1669 C1665 0.930 . S
H1670 C1667 0.929 1_565 S
S1671 N1672 1.613 . S
S1671 N1673 1.610 . S
N1672 S1671 1.613 . S
N1672 C1675 1.350 . S
N1673 S1671 1.610 . S
N1673 C1674 1.351 . S
C1674 C1668 1.428 . S
C1674 N1673 1.351 . S
C1674 C1675 1.434 . S
C1675 C1666 1.429 . S
C1675 N1672 1.350 . S
C1675 C1674 1.434 . S
C1676 C1677 1.369 . S
C1676 C1678 1.419 . S
C1676 H1680 0.930 . S
C1677 C1676 1.369 . S
C1677 C1686 1.429 1_655 S
C1678 C1676 1.419 . S
C1678 C1679 1.363 . S
C1678 H1681 0.929 . S
C1679 C1678 1.363 . S
C1679 C1685 1.428 1_655 S
H1680 C1676 0.930 . S
H1681 C1678 0.929 . S
S1682 N1683 1.613 . S
S1682 N1684 1.610 . S
N1683 S1682 1.613 . S
N1683 C1686 1.350 . S
N1684 S1682 1.610 . S
N1684 C1685 1.351 . S
C1685 C1679 1.428 1_455 S
C1685 N1684 1.351 . S
C1685 C1686 1.434 . S
C1686 C1677 1.429 1_455 S
C1686 N1683 1.350 . S
C1686 C1685 1.434 . S
C1687 C1688 1.369 . S
C1687 C1689 1.419 . S
C1687 H1691 0.930 . S
C1688 C1687 1.369 . S
C1688 C1697 1.429 . S
C1689 C1687 1.419 . S
C1689 C1690 1.363 . S
C1689 H1692 0.929 . S
C1690 C1689 1.363 . S
C1690 C1696 1.428 . S
H1691 C1687 0.930 . S
H1692 C1689 0.929 . S
S1693 N1694 1.613 . S
S1693 N1695 1.610 . S
N1694 S1693 1.613 . S
N1694 C1697 1.350 . S
N1695 S1693 1.610 . S
N1695 C1696 1.351 . S
C1696 C1690 1.428 . S
C1696 N1695 1.351 . S
C1696 C1697 1.434 . S
C1697 C1688 1.429 . S
C1697 N1694 1.350 . S
C1697 C1696 1.434 . S
C1698 C1699 1.369 . S
C1698 C1700 1.419 . S
C1698 H1702 0.930 . S
C1699 C1698 1.369 . S
C1699 C1708 1.429 . S
C1700 C1698 1.419 . S
C1700 C1701 1.363 . S
C1700 H1703 0.929 . S
C1701 C1700 1.363 . S
C1701 C1707 1.428 . S
H1702 C1698 0.930 . S
H1703 C1700 0.929 . S
S1704 N1705 1.613 . S
S1704 N1706 1.610 . S
N1705 S1704 1.613 . S
N1705 C1708 1.350 . S
N1706 S1704 1.610 . S
N1706 C1707 1.351 . S
C1707 C1701 1.428 . S
C1707 N1706 1.351 . S
C1707 C1708 1.434 . S
C1708 C1699 1.429 . S
C1708 N1705 1.350 . S
C1708 C1707 1.434 . S
C1709 C1710 1.369 . S
C1709 C1711 1.419 . S
C1709 H1713 0.930 . S
C1710 C1709 1.369 . S
C1710 C1719 1.429 . S
C1711 C1709 1.419 . S
C1711 C1712 1.363 . S
C1711 H1714 0.929 . S
C1712 C1711 1.363 . S
C1712 C1718 1.428 . S
H1713 C1709 0.930 . S
H1714 C1711 0.929 . S
S1715 N1716 1.613 . S
S1715 N1717 1.610 . S
N1716 S1715 1.613 . S
N1716 C1719 1.350 . S
N1717 S1715 1.610 . S
N1717 C1718 1.351 . S
C1718 C1712 1.428 . S
C1718 N1717 1.351 . S
C1718 C1719 1.434 . S
C1719 C1710 1.429 . S
C1719 N1716 1.350 . S
C1719 C1718 1.434 . S
C1720 C1721 1.369 . S
C1720 C1722 1.419 . S
C1720 H1724 0.930 . S
C1721 C1720 1.369 . S
C1721 C1730 1.429 . S
C1722 C1720 1.419 . S
C1722 C1723 1.363 . S
C1722 H1725 0.929 . S
C1723 C1722 1.363 . S
C1723 C1729 1.428 . S
H1724 C1720 0.930 . S
H1725 C1722 0.929 . S
S1726 N1727 1.613 . S
S1726 N1728 1.610 . S
N1727 S1726 1.613 . S
N1727 C1730 1.350 . S
N1728 S1726 1.610 . S
N1728 C1729 1.351 . S
C1729 C1723 1.428 . S
C1729 N1728 1.351 . S
C1729 C1730 1.434 . S
C1730 C1721 1.429 . S
C1730 N1727 1.350 . S
C1730 C1729 1.434 . S
C1731 C1732 1.369 . S
C1731 C1733 1.419 . S
C1731 H1735 0.930 . S
C1732 C1731 1.369 . S
C1732 C1741 1.429 . S
C1733 C1731 1.419 . S
C1733 C1734 1.363 . S
C1733 H1736 0.929 . S
C1734 C1733 1.363 . S
C1734 C1740 1.428 . S
H1735 C1731 0.930 . S
H1736 C1733 0.929 . S
S1737 N1738 1.613 . S
S1737 N1739 1.610 . S
N1738 S1737 1.613 . S
N1738 C1741 1.350 . S
N1739 S1737 1.610 . S
N1739 C1740 1.351 . S
C1740 C1734 1.428 . S
C1740 N1739 1.351 . S
C1740 C1741 1.434 . S
C1741 C1732 1.429 . S
C1741 N1738 1.350 . S
C1741 C1740 1.434 . S
C1742 C1743 1.369 . S
C1742 C1744 1.419 . S
C1742 H1746 0.930 . S
C1743 C1742 1.369 . S
C1743 C1752 1.429 . S
C1744 C1742 1.419 . S
C1744 C1745 1.363 . S
C1744 H1747 0.929 . S
C1745 C1744 1.363 . S
C1745 C1751 1.428 . S
H1746 C1742 0.930 . S
H1747 C1744 0.929 . S
S1748 N1749 1.613 . S
S1748 N1750 1.610 . S
N1749 S1748 1.613 . S
N1749 C1752 1.350 . S
N1750 S1748 1.610 . S
N1750 C1751 1.351 . S
C1751 C1745 1.428 . S
C1751 N1750 1.351 . S
C1751 C1752 1.434 . S
C1752 C1743 1.429 . S
C1752 N1749 1.350 . S
C1752 C1751 1.434 . S
C1753 C1754 1.369 . S
C1753 C1755 1.419 . S
C1753 H1757 0.930 . S
C1754 C1753 1.369 . S
C1754 C1763 1.429 . S
C1755 C1753 1.419 . S
C1755 C1756 1.363 . S
C1755 H1758 0.929 . S
C1756 C1755 1.363 . S
C1756 C1762 1.428 . S
H1757 C1753 0.930 . S
H1758 C1755 0.929 . S
S1759 N1760 1.613 . S
S1759 N1761 1.610 . S
N1760 S1759 1.613 . S
N1760 C1763 1.350 . S
N1761 S1759 1.610 . S
N1761 C1762 1.351 . S
C1762 C1756 1.428 . S
C1762 N1761 1.351 . S
C1762 C1763 1.434 . S
C1763 C1754 1.429 . S
C1763 N1760 1.350 . S
C1763 C1762 1.434 . S
C1764 C1765 1.369 . S
C1764 C1766 1.419 . S
C1764 H1768 0.930 . S
C1765 C1764 1.369 . S
C1765 C1774 1.429 . S
C1766 C1764 1.419 . S
C1766 C1767 1.363 . S
C1766 H1769 0.929 . S
C1767 C1766 1.363 . S
C1767 C1773 1.428 . S
H1768 C1764 0.930 . S
H1769 C1766 0.929 . S
S1770 N1771 1.613 . S
S1770 N1772 1.610 . S
N1771 S1770 1.613 . S
N1771 C1774 1.350 . S
N1772 S1770 1.610 . S
N1772 C1773 1.351 . S
C1773 C1767 1.428 . S
C1773 N1772 1.351 . S
C1773 C1774 1.434 . S
C1774 C1765 1.429 . S
C1774 N1771 1.350 . S
C1774 C1773 1.434 . S
C1775 C1776 1.369 . S
C1775 C1777 1.419 . S
C1775 H1779 0.930 . S
C1776 C1775 1.369 . S
C1776 C1785 1.429 . S
C1777 C1775 1.419 . S
C1777 C1778 1.363 . S
C1777 H1780 0.929 . S
C1778 C1777 1.363 . S
C1778 C1784 1.428 . S
H1779 C1775 0.930 . S
H1780 C1777 0.929 . S
S1781 N1782 1.613 . S
S1781 N1783 1.610 . S
N1782 S1781 1.613 . S
N1782 C1785 1.350 . S
N1783 S1781 1.610 . S
N1783 C1784 1.351 . S
C1784 C1778 1.428 . S
C1784 N1783 1.351 . S
C1784 C1785 1.434 . S
C1785 C1776 1.429 . S
C1785 N1782 1.350 . S
C1785 C1784 1.434 . S
C1786 C1787 1.369 . S
C1786 C1788 1.419 . S
C1786 H1790 0.930 . S
C1787 C1786 1.369 . S
C1787 C1796 1.429 . S
C1788 C1786 1.419 . S
C1788 C1789 1.363 . S
C1788 H1791 0.929 . S
C1789 C1788 1.363 . S
C1789 C1795 1.428 . S
H1790 C1786 0.930 . S
H1791 C1788 0.929 . S
S1792 N1793 1.613 . S
S1792 N1794 1.610 . S
N1793 S1792 1.613 . S
N1793 C1796 1.350 . S
N1794 S1792 1.610 . S
N1794 C1795 1.351 . S
C1795 C1789 1.428 . S
C1795 N1794 1.351 . S
C1795 C1796 1.434 . S
C1796 C1787 1.429 . S
C1796 N1793 1.350 . S
C1796 C1795 1.434 . S
C1797 C1798 1.369 . S
C1797 C1799 1.419 . S
C1797 H1801 0.930 . S
C1798 C1797 1.369 . S
C1798 C1807 1.429 . S
C1799 C1797 1.419 . S
C1799 C1800 1.363 . S
C1799 H1802 0.929 . S
C1800 C1799 1.363 . S
C1800 C1806 1.428 . S
H1801 C1797 0.930 . S
H1802 C1799 0.929 . S
S1803 N1804 1.613 . S
S1803 N1805 1.610 . S
N1804 S1803 1.613 . S
N1804 C1807 1.350 . S
N1805 S1803 1.610 . S
N1805 C1806 1.351 . S
C1806 C1800 1.428 . S
C1806 N1805 1.351 . S
C1806 C1807 1.434 . S
C1807 C1798 1.429 . S
C1807 N1804 1.350 . S
C1807 C1806 1.434 . S
C1808 C1809 1.369 . S
C1808 C1810 1.419 . S
C1808 H1812 0.930 . S
C1809 C1808 1.369 . S
C1809 C1818 1.429 . S
C1810 C1808 1.419 . S
C1810 C1811 1.363 . S
C1810 H1813 0.929 . S
C1811 C1810 1.363 . S
C1811 C1817 1.428 . S
H1812 C1808 0.930 . S
H1813 C1810 0.929 . S
S1814 N1815 1.613 . S
S1814 N1816 1.610 . S
N1815 S1814 1.613 . S
N1815 C1818 1.350 . S
N1816 S1814 1.610 . S
N1816 C1817 1.351 . S
C1817 C1811 1.428 . S
C1817 N1816 1.351 . S
C1817 C1818 1.434 . S
C1818 C1809 1.429 . S
C1818 N1815 1.350 . S
C1818 C1817 1.434 . S
C1819 C1820 1.369 . S
C1819 C1821 1.419 . S
C1819 H1823 0.930 . S
C1820 C1819 1.369 . S
C1820 C1829 1.429 . S
C1821 C1819 1.419 . S
C1821 C1822 1.363 . S
C1821 H1824 0.929 . S
C1822 C1821 1.363 . S
C1822 C1828 1.428 . S
H1823 C1819 0.930 . S
H1824 C1821 0.929 . S
S1825 N1826 1.613 . S
S1825 N1827 1.610 . S
N1826 S1825 1.613 . S
N1826 C1829 1.350 . S
N1827 S1825 1.610 . S
N1827 C1828 1.351 . S
C1828 C1822 1.428 . S
C1828 N1827 1.351 . S
C1828 C1829 1.434 . S
C1829 C1820 1.429 . S
C1829 N1826 1.350 . S
C1829 C1828 1.434 . S
C1830 C1831 1.369 . S
C1830 C1832 1.419 . S
C1830 H1834 0.930 . S
C1831 C1830 1.369 . S
C1831 C1840 1.429 . S
C1832 C1830 1.419 . S
C1832 C1833 1.363 . S
C1832 H1835 0.929 . S
C1833 C1832 1.363 . S
C1833 C1839 1.428 . S
H1834 C1830 0.930 . S
H1835 C1832 0.929 . S
S1836 N1837 1.613 . S
S1836 N1838 1.610 . S
N1837 S1836 1.613 . S
N1837 C1840 1.350 . S
N1838 S1836 1.610 . S
N1838 C1839 1.351 . S
C1839 C1833 1.428 . S
C1839 N1838 1.351 . S
C1839 C1840 1.434 . S
C1840 C1831 1.429 . S
C1840 N1837 1.350 . S
C1840 C1839 1.434 . S
C1841 C1842 1.369 . S
C1841 C1843 1.419 . S
C1841 H1845 0.930 . S
C1842 C1841 1.369 . S
C1842 C1851 1.429 . S
C1843 C1841 1.419 . S
C1843 C1844 1.363 . S
C1843 H1846 0.929 . S
C1844 C1843 1.363 . S
C1844 C1850 1.428 . S
H1845 C1841 0.930 . S
H1846 C1843 0.929 . S
S1847 N1848 1.613 . S
S1847 N1849 1.610 . S
N1848 S1847 1.613 . S
N1848 C1851 1.350 . S
N1849 S1847 1.610 . S
N1849 C1850 1.351 . S
C1850 C1844 1.428 . S
C1850 N1849 1.351 . S
C1850 C1851 1.434 . S
C1851 C1842 1.429 . S
C1851 N1848 1.350 . S
C1851 C1850 1.434 . S
C1852 C1853 1.369 . S
C1852 C1854 1.419 . S
C1852 H1856 0.930 . S
C1853 C1852 1.369 . S
C1853 C1862 1.429 . S
C1854 C1852 1.419 . S
C1854 C1855 1.363 . S
C1854 H1857 0.929 . S
C1855 C1854 1.363 . S
C1855 C1861 1.428 . S
H1856 C1852 0.930 . S
H1857 C1854 0.929 . S
S1858 N1859 1.613 . S
S1858 N1860 1.610 . S
N1859 S1858 1.613 . S
N1859 C1862 1.350 . S
N1860 S1858 1.610 . S
N1860 C1861 1.351 . S
C1861 C1855 1.428 . S
C1861 N1860 1.351 . S
C1861 C1862 1.434 . S
C1862 C1853 1.429 . S
C1862 N1859 1.350 . S
C1862 C1861 1.434 . S
C1863 C1864 1.369 . S
C1863 C1865 1.419 . S
C1863 H1867 0.930 . S
C1864 C1863 1.369 . S
C1864 C1873 1.429 . S
C1865 C1863 1.419 . S
C1865 C1866 1.363 . S
C1865 H1868 0.929 . S
C1866 C1865 1.363 . S
C1866 C1872 1.428 . S
H1867 C1863 0.930 . S
H1868 C1865 0.929 . S
S1869 N1870 1.613 . S
S1869 N1871 1.610 . S
N1870 S1869 1.613 . S
N1870 C1873 1.350 . S
N1871 S1869 1.610 . S
N1871 C1872 1.351 . S
C1872 C1866 1.428 . S
C1872 N1871 1.351 . S
C1872 C1873 1.434 . S
C1873 C1864 1.429 . S
C1873 N1870 1.350 . S
C1873 C1872 1.434 . S
C1874 C1875 1.369 . S
C1874 C1876 1.419 . S
C1874 H1878 0.930 . S
C1875 C1874 1.369 . S
C1875 C1884 1.429 . S
C1876 C1874 1.419 . S
C1876 C1877 1.363 . S
C1876 H1879 0.929 . S
C1877 C1876 1.363 . S
C1877 C1883 1.428 . S
H1878 C1874 0.930 . S
H1879 C1876 0.929 . S
S1880 N1881 1.613 . S
S1880 N1882 1.610 . S
N1881 S1880 1.613 . S
N1881 C1884 1.350 . S
N1882 S1880 1.610 . S
N1882 C1883 1.351 . S
C1883 C1877 1.428 . S
C1883 N1882 1.351 . S
C1883 C1884 1.434 . S
C1884 C1875 1.429 . S
C1884 N1881 1.350 . S
C1884 C1883 1.434 . S
C1885 C1886 1.369 . S
C1885 C1887 1.419 . S
C1885 H1889 0.930 . S
C1886 C1885 1.369 . S
C1886 C1895 1.429 . S
C1887 C1885 1.419 . S
C1887 C1888 1.363 . S
C1887 H1890 0.929 . S
C1888 C1887 1.363 . S
C1888 C1894 1.428 . S
H1889 C1885 0.930 . S
H1890 C1887 0.929 . S
S1891 N1892 1.613 . S
S1891 N1893 1.610 . S
N1892 S1891 1.613 . S
N1892 C1895 1.350 . S
N1893 S1891 1.610 . S
N1893 C1894 1.351 . S
C1894 C1888 1.428 . S
C1894 N1893 1.351 . S
C1894 C1895 1.434 . S
C1895 C1886 1.429 . S
C1895 N1892 1.350 . S
C1895 C1894 1.434 . S
C1896 C1897 1.369 . S
C1896 C1898 1.419 . S
C1896 H1900 0.930 . S
C1897 C1896 1.369 . S
C1897 C1906 1.429 . S
C1898 C1896 1.419 . S
C1898 C1899 1.363 . S
C1898 H1901 0.929 . S
C1899 C1898 1.363 . S
C1899 C1905 1.428 . S
H1900 C1896 0.930 . S
H1901 C1898 0.929 . S
S1902 N1903 1.613 . S
S1902 N1904 1.610 . S
N1903 S1902 1.613 . S
N1903 C1906 1.350 . S
N1904 S1902 1.610 . S
N1904 C1905 1.351 . S
C1905 C1899 1.428 . S
C1905 N1904 1.351 . S
C1905 C1906 1.434 . S
C1906 C1897 1.429 . S
C1906 N1903 1.350 . S
C1906 C1905 1.434 . S
C1907 C1908 1.369 . S
C1907 C1909 1.419 . S
C1907 H1911 0.930 . S
C1908 C1907 1.369 . S
C1908 C1917 1.429 . S
C1909 C1907 1.419 . S
C1909 C1910 1.363 . S
C1909 H1912 0.929 . S
C1910 C1909 1.363 . S
C1910 C1916 1.428 . S
H1911 C1907 0.930 . S
H1912 C1909 0.929 . S
S1913 N1914 1.613 . S
S1913 N1915 1.610 . S
N1914 S1913 1.613 . S
N1914 C1917 1.350 . S
N1915 S1913 1.610 . S
N1915 C1916 1.351 . S
C1916 C1910 1.428 . S
C1916 N1915 1.351 . S
C1916 C1917 1.434 . S
C1917 C1908 1.429 . S
C1917 N1914 1.350 . S
C1917 C1916 1.434 . S
C1918 C1919 1.369 . S
C1918 C1920 1.419 . S
C1918 H1922 0.930 . S
C1919 C1918 1.369 . S
C1919 C1928 1.429 . S
C1920 C1918 1.419 . S
C1920 C1921 1.363 . S
C1920 H1923 0.929 . S
C1921 C1920 1.363 . S
C1921 C1927 1.428 . S
H1922 C1918 0.930 . S
H1923 C1920 0.929 . S
S1924 N1925 1.613 . S
S1924 N1926 1.610 . S
N1925 S1924 1.613 . S
N1925 C1928 1.350 . S
N1926 S1924 1.610 . S
N1926 C1927 1.351 . S
C1927 C1921 1.428 . S
C1927 N1926 1.351 . S
C1927 C1928 1.434 . S
C1928 C1919 1.429 . S
C1928 N1925 1.350 . S
C1928 C1927 1.434 . S
C1929 C1930 1.369 . S
C1929 C1931 1.419 . S
C1929 H1933 0.930 . S
C1930 C1929 1.369 . S
C1930 C1939 1.429 . S
C1931 C1929 1.419 . S
C1931 C1932 1.363 . S
C1931 H1934 0.929 . S
C1932 C1931 1.363 . S
C1932 C1938 1.428 . S
H1933 C1929 0.930 . S
H1934 C1931 0.929 . S
S1935 N1936 1.613 . S
S1935 N1937 1.610 . S
N1936 S1935 1.613 . S
N1936 C1939 1.350 . S
N1937 S1935 1.610 . S
N1937 C1938 1.351 . S
C1938 C1932 1.428 . S
C1938 N1937 1.351 . S
C1938 C1939 1.434 . S
C1939 C1930 1.429 . S
C1939 N1936 1.350 . S
C1939 C1938 1.434 . S
C1940 C1941 1.369 . S
C1940 C1942 1.419 . S
C1940 H1944 0.930 . S
C1941 C1940 1.369 . S
C1941 C1950 1.429 . S
C1942 C1940 1.419 . S
C1942 C1943 1.363 . S
C1942 H1945 0.929 . S
C1943 C1942 1.363 . S
C1943 C1949 1.428 . S
H1944 C1940 0.930 . S
H1945 C1942 0.929 . S
S1946 N1947 1.613 . S
S1946 N1948 1.610 . S
N1947 S1946 1.613 . S
N1947 C1950 1.350 . S
N1948 S1946 1.610 . S
N1948 C1949 1.351 . S
C1949 C1943 1.428 . S
C1949 N1948 1.351 . S
C1949 C1950 1.434 . S
C1950 C1941 1.429 . S
C1950 N1947 1.350 . S
C1950 C1949 1.434 . S
C1951 C1952 1.369 . S
C1951 C1953 1.419 . S
C1951 H1955 0.930 . S
C1952 C1951 1.369 . S
C1952 C1961 1.429 . S
C1953 C1951 1.419 . S
C1953 C1954 1.363 . S
C1953 H1956 0.929 . S
C1954 C1953 1.363 . S
C1954 C1960 1.428 . S
H1955 C1951 0.930 . S
H1956 C1953 0.929 . S
S1957 N1958 1.613 . S
S1957 N1959 1.610 . S
N1958 S1957 1.613 . S
N1958 C1961 1.350 . S
N1959 S1957 1.610 . S
N1959 C1960 1.351 . S
C1960 C1954 1.428 . S
C1960 N1959 1.351 . S
C1960 C1961 1.434 . S
C1961 C1952 1.429 . S
C1961 N1958 1.350 . S
C1961 C1960 1.434 . S
C1962 C1963 1.369 . S
C1962 C1964 1.419 . S
C1962 H1966 0.930 . S
C1963 C1962 1.369 . S
C1963 C1972 1.429 . S
C1964 C1962 1.419 . S
C1964 C1965 1.363 . S
C1964 H1967 0.929 . S
C1965 C1964 1.363 . S
C1965 C1971 1.428 . S
H1966 C1962 0.930 . S
H1967 C1964 0.929 . S
S1968 N1969 1.613 . S
S1968 N1970 1.610 . S
N1969 S1968 1.613 . S
N1969 C1972 1.350 . S
N1970 S1968 1.610 . S
N1970 C1971 1.351 . S
C1971 C1965 1.428 . S
C1971 N1970 1.351 . S
C1971 C1972 1.434 . S
C1972 C1963 1.429 . S
C1972 N1969 1.350 . S
C1972 C1971 1.434 . S
C1973 C1974 1.369 . S
C1973 C1975 1.419 . S
C1973 H1977 0.930 . S
C1974 C1973 1.369 . S
C1974 C1983 1.429 . S
C1975 C1973 1.419 . S
C1975 C1976 1.363 . S
C1975 H1978 0.929 . S
C1976 C1975 1.363 . S
C1976 C1982 1.428 . S
H1977 C1973 0.930 . S
H1978 C1975 0.929 . S
S1979 N1980 1.613 . S
S1979 N1981 1.610 . S
N1980 S1979 1.613 . S
N1980 C1983 1.350 . S
N1981 S1979 1.610 . S
N1981 C1982 1.351 . S
C1982 C1976 1.428 . S
C1982 N1981 1.351 . S
C1982 C1983 1.434 . S
C1983 C1974 1.429 . S
C1983 N1980 1.350 . S
C1983 C1982 1.434 . S
C1984 C1985 1.369 . S
C1984 C1986 1.419 . S
C1984 H1988 0.930 . S
C1985 C1984 1.369 . S
C1985 C1994 1.429 . S
C1986 C1984 1.419 . S
C1986 C1987 1.363 . S
C1986 H1989 0.929 . S
C1987 C1986 1.363 . S
C1987 C1993 1.428 . S
H1988 C1984 0.930 . S
H1989 C1986 0.929 . S
S1990 N1991 1.613 . S
S1990 N1992 1.610 . S
N1991 S1990 1.613 . S
N1991 C1994 1.350 . S
N1992 S1990 1.610 . S
N1992 C1993 1.351 . S
C1993 C1987 1.428 . S
C1993 N1992 1.351 . S
C1993 C1994 1.434 . S
C1994 C1985 1.429 . S
C1994 N1991 1.350 . S
C1994 C1993 1.434 . S
C1995 C1996 1.369 . S
C1995 C1997 1.419 . S
C1995 H1999 0.930 . S
C1996 C1995 1.369 . S
C1996 C2005 1.429 1_554 S
C1997 C1995 1.419 . S
C1997 C1998 1.363 1_554 S
C1997 H2000 0.929 . S
C1998 C1997 1.363 1_556 S
C1998 C2004 1.428 . S
H1999 C1995 0.930 . S
H2000 C1997 0.929 . S
S2001 N2002 1.613 . S
S2001 N2003 1.610 . S
N2002 S2001 1.613 . S
N2002 C2005 1.350 . S
N2003 S2001 1.610 . S
N2003 C2004 1.351 . S
C2004 C1998 1.428 . S
C2004 N2003 1.351 . S
C2004 C2005 1.434 . S
C2005 C1996 1.429 1_556 S
C2005 N2002 1.350 . S
C2005 C2004 1.434 . S
C2006 C2007 1.369 . S
C2006 C2008 1.419 . S
C2006 H2010 0.930 . S
C2007 C2006 1.369 . S
C2007 C2016 1.429 . S
C2008 C2006 1.419 . S
C2008 C2009 1.363 . S
C2008 H2011 0.929 . S
C2009 C2008 1.363 . S
C2009 C2015 1.428 . S
H2010 C2006 0.930 . S
H2011 C2008 0.929 . S
S2012 N2013 1.613 . S
S2012 N2014 1.610 . S
N2013 S2012 1.613 . S
N2013 C2016 1.350 . S
N2014 S2012 1.610 . S
N2014 C2015 1.351 . S
C2015 C2009 1.428 . S
C2015 N2014 1.351 . S
C2015 C2016 1.434 . S
C2016 C2007 1.429 . S
C2016 N2013 1.350 . S
C2016 C2015 1.434 . S
C2017 C2018 1.369 . S
C2017 C2019 1.419 . S
C2017 H2021 0.930 . S
C2018 C2017 1.369 . S
C2018 C2027 1.429 . S
C2019 C2017 1.419 . S
C2019 C2020 1.363 . S
C2019 H2022 0.929 . S
C2020 C2019 1.363 . S
C2020 C2026 1.428 . S
H2021 C2017 0.930 . S
H2022 C2019 0.929 . S
S2023 N2024 1.613 . S
S2023 N2025 1.610 . S
N2024 S2023 1.613 . S
N2024 C2027 1.350 . S
N2025 S2023 1.610 . S
N2025 C2026 1.351 . S
C2026 C2020 1.428 . S
C2026 N2025 1.351 . S
C2026 C2027 1.434 . S
C2027 C2018 1.429 . S
C2027 N2024 1.350 . S
C2027 C2026 1.434 . S
C2028 C2029 1.369 1_556 S
C2028 C2030 1.419 . S
C2028 H2032 0.930 . S
C2029 C2028 1.369 1_554 S
C2029 C2038 1.429 . S
C2030 C2028 1.419 . S
C2030 C2031 1.363 . S
C2030 H2033 0.929 . S
C2031 C2030 1.363 . S
C2031 C2037 1.448 . S
H2032 C2028 0.930 . S
H2033 C2030 0.929 . S
S2034 N2035 1.613 . S
S2034 N2036 1.610 . S
N2035 S2034 1.613 . S
N2035 C2038 1.350 . S
N2036 S2034 1.610 . S
N2036 C2037 1.343 1_554 S
C2037 C2031 1.448 . S
C2037 N2036 1.343 1_556 S
C2037 C2038 1.419 1_556 S
C2038 C2029 1.429 . S
C2038 N2035 1.350 . S
C2038 C2037 1.419 1_554 S
C2039 C2040 1.369 . S
C2039 C2041 1.419 . S
C2039 H2043 0.930 . S
C2040 C2039 1.369 . S
C2040 C2049 1.429 . S
C2041 C2039 1.419 . S
C2041 C2042 1.363 . S
C2041 H2044 0.929 . S
C2042 C2041 1.363 . S
C2042 C2048 1.428 . S
H2043 C2039 0.930 . S
H2044 C2041 0.929 . S
S2045 N2046 1.613 . S
S2045 N2047 1.610 . S
N2046 S2045 1.613 . S
N2046 C2049 1.350 . S
N2047 S2045 1.610 . S
N2047 C2048 1.351 . S
C2048 C2042 1.428 . S
C2048 N2047 1.351 . S
C2048 C2049 1.434 . S
C2049 C2040 1.429 . S
C2049 N2046 1.350 . S
C2049 C2048 1.434 . S
C2050 C2051 1.369 . S
C2050 C2052 1.419 . S
C2050 H2054 0.930 . S
C2051 C2050 1.369 . S
C2051 C2060 1.429 . S
C2052 C2050 1.419 . S
C2052 C2053 1.363 . S
C2052 H2055 0.929 . S
C2053 C2052 1.363 . S
C2053 C2059 1.428 1_554 S
H2054 C2050 0.930 . S
H2055 C2052 0.929 . S
S2056 N2057 1.613 . S
S2056 N2058 1.610 . S
N2057 S2056 1.613 . S
N2057 C2060 1.350 1_556 S
N2058 S2056 1.610 . S
N2058 C2059 1.351 . S
C2059 C2053 1.428 1_556 S
C2059 N2058 1.351 . S
C2059 C2060 1.434 1_556 S
C2060 C2051 1.429 . S
C2060 N2057 1.350 1_554 S
C2060 C2059 1.434 1_554 S
C2061 C2062 1.369 . S
C2061 C2063 1.419 . S
C2061 H2065 0.930 . S
C2062 C2061 1.369 . S
C2062 C2071 1.429 . S
C2063 C2061 1.419 . S
C2063 C2064 1.363 . S
C2063 H2066 0.929 . S
C2064 C2063 1.363 . S
C2064 C2070 1.428 . S
H2065 C2061 0.930 . S
H2066 C2063 0.929 . S
S2067 N2068 1.613 . S
S2067 N2069 1.610 . S
N2068 S2067 1.613 . S
N2068 C2071 1.350 . S
N2069 S2067 1.610 . S
N2069 C2070 1.351 . S
C2070 C2064 1.428 . S
C2070 N2069 1.351 . S
C2070 C2071 1.434 . S
C2071 C2062 1.429 . S
C2071 N2068 1.350 . S
C2071 C2070 1.434 . S
C2072 C2073 1.369 . S
C2072 C2074 1.419 . S
C2072 H2076 0.930 . S
C2073 C2072 1.369 . S
C2073 C2082 1.429 . S
C2074 C2072 1.419 . S
C2074 C2075 1.363 . S
C2074 H2077 0.929 . S
C2075 C2074 1.363 . S
C2075 C2081 1.428 . S
H2076 C2072 0.930 . S
H2077 C2074 0.929 . S
S2078 N2079 1.586 1_655 S
S2078 N2080 1.598 1_655 S
N2079 S2078 1.586 1_455 S
N2079 C2082 1.350 . S
N2080 S2078 1.598 1_455 S
N2080 C2081 1.351 . S
C2081 C2075 1.428 . S
C2081 N2080 1.351 . S
C2081 C2082 1.434 . S
C2082 C2073 1.429 . S
C2082 N2079 1.350 . S
C2082 C2081 1.434 . S
C2083 C2084 1.369 . S
C2083 C2085 1.419 . S
C2083 H2087 0.930 . S
C2084 C2083 1.369 . S
C2084 C2093 1.429 . S
C2085 C2083 1.419 . S
C2085 C2086 1.363 . S
C2085 H2088 0.929 . S
C2086 C2085 1.363 . S
C2086 C2092 1.428 . S
H2087 C2083 0.930 . S
H2088 C2085 0.929 . S
S2089 N2090 1.612 1_556 S
S2089 N2091 1.610 1_556 S
N2090 S2089 1.612 1_554 S
N2090 C2093 1.353 . S
N2091 S2089 1.610 1_554 S
N2091 C2092 1.351 . S
C2092 C2086 1.428 . S
C2092 N2091 1.351 . S
C2092 C2093 1.434 . S
C2093 C2084 1.429 . S
C2093 N2090 1.353 . S
C2093 C2092 1.434 . S
C2094 C2095 1.369 . S
C2094 C2096 1.419 . S
C2094 H2098 0.930 . S
C2095 C2094 1.369 . S
C2095 C2104 1.429 . S
C2096 C2094 1.419 . S
C2096 C2097 1.363 . S
C2096 H2099 0.929 . S
C2097 C2096 1.363 . S
C2097 C2103 1.428 . S
H2098 C2094 0.930 . S
H2099 C2096 0.929 . S
S2100 N2101 1.613 . S
S2100 N2102 1.610 . S
N2101 S2100 1.613 . S
N2101 C2104 1.350 . S
N2102 S2100 1.610 . S
N2102 C2103 1.351 . S
C2103 C2097 1.428 . S
C2103 N2102 1.351 . S
C2103 C2104 1.434 . S
C2104 C2095 1.429 . S
C2104 N2101 1.350 . S
C2104 C2103 1.434 . S
C2105 C2106 1.369 . S
C2105 C2107 1.419 . S
C2105 H2109 0.930 . S
C2106 C2105 1.369 . S
C2106 C2115 1.429 . S
C2107 C2105 1.419 . S
C2107 C2108 1.363 . S
C2107 H2110 0.929 . S
C2108 C2107 1.363 . S
C2108 C2114 1.428 . S
H2109 C2105 0.930 . S
H2110 C2107 0.929 . S
S2111 N2112 1.613 . S
S2111 N2113 1.610 . S
N2112 S2111 1.613 . S
N2112 C2115 1.350 . S
N2113 S2111 1.610 . S
N2113 C2114 1.351 . S
C2114 C2108 1.428 . S
C2114 N2113 1.351 . S
C2114 C2115 1.434 . S
C2115 C2106 1.429 . S
C2115 N2112 1.350 . S
C2115 C2114 1.434 . S
C2116 C2117 1.369 . S
C2116 C2118 1.419 . S
C2116 H2120 0.930 . S
C2117 C2116 1.369 . S
C2117 C2126 1.429 . S
C2118 C2116 1.419 . S
C2118 C2119 1.363 . S
C2118 H2121 0.929 . S
C2119 C2118 1.363 . S
C2119 C2125 1.428 . S
H2120 C2116 0.930 . S
H2121 C2118 0.929 . S
S2122 N2123 1.613 . S
S2122 N2124 1.610 . S
N2123 S2122 1.613 . S
N2123 C2126 1.350 . S
N2124 S2122 1.610 . S
N2124 C2125 1.351 . S
C2125 C2119 1.428 . S
C2125 N2124 1.351 . S
C2125 C2126 1.434 . S
C2126 C2117 1.429 . S
C2126 N2123 1.350 . S
C2126 C2125 1.434 . S
C2127 C2128 1.369 . S
C2127 C2129 1.419 . S
C2127 H2131 0.930 . S
C2128 C2127 1.369 . S
C2128 C2137 1.429 . S
C2129 C2127 1.419 . S
C2129 C2130 1.363 . S
C2129 H2132 0.929 . S
C2130 C2129 1.363 . S
C2130 C2136 1.428 . S
H2131 C2127 0.930 . S
H2132 C2129 0.929 . S
S2133 N2134 1.613 1_655 S
S2133 N2135 1.610 . S
N2134 S2133 1.613 1_455 S
N2134 C2137 1.350 . S
N2135 S2133 1.610 . S
N2135 C2136 1.351 1_655 S
C2136 C2130 1.428 . S
C2136 N2135 1.351 1_455 S
C2136 C2137 1.434 . S
C2137 C2128 1.429 . S
C2137 N2134 1.350 . S
C2137 C2136 1.434 . S
C2138 C2139 1.369 . S
C2138 C2140 1.419 . S
C2138 H2142 0.930 . S
C2139 C2138 1.369 . S
C2139 C2148 1.429 . S
C2140 C2138 1.419 . S
C2140 C2141 1.363 . S
C2140 H2143 0.929 . S
C2141 C2140 1.363 . S
C2141 C2147 1.428 . S
H2142 C2138 0.930 . S
H2143 C2140 0.929 . S
S2144 N2145 1.613 . S
S2144 N2146 1.610 . S
N2145 S2144 1.613 . S
N2145 C2148 1.350 . S
N2146 S2144 1.610 . S
N2146 C2147 1.351 . S
C2147 C2141 1.428 . S
C2147 N2146 1.351 . S
C2147 C2148 1.434 . S
C2148 C2139 1.429 . S
C2148 N2145 1.350 . S
C2148 C2147 1.434 . S
C2149 C2150 1.369 . S
C2149 C2151 1.419 . S
C2149 H2153 0.963 . S
C2150 C2149 1.369 . S
C2150 C2159 1.429 . S
C2151 C2149 1.419 . S
C2151 C2152 1.363 . S
C2151 H2154 0.929 1_565 S
C2152 C2151 1.363 . S
C2152 C2158 1.428 . S
H2153 C2149 0.963 . S
H2154 C2151 0.929 1_545 S
S2155 N2156 1.613 . S
S2155 N2157 1.610 . S
N2156 S2155 1.613 . S
N2156 C2159 1.350 . S
N2157 S2155 1.610 . S
N2157 C2158 1.351 . S
C2158 C2152 1.428 . S
C2158 N2157 1.351 . S
C2158 C2159 1.434 . S
C2159 C2150 1.429 . S
C2159 N2156 1.350 . S
C2159 C2158 1.434 . S
C2160 C2161 1.369 . S
C2160 C2162 1.419 . S
C2160 H2164 0.930 . S
C2161 C2160 1.369 . S
C2161 C2170 1.429 . S
C2162 C2160 1.419 . S
C2162 C2163 1.363 . S
C2162 H2165 0.929 . S
C2163 C2162 1.363 . S
C2163 C2169 1.428 1_565 S
H2164 C2160 0.930 . S
H2165 C2162 0.929 . S
S2166 N2167 1.613 . S
S2166 N2168 1.610 . S
N2167 S2166 1.613 . S
N2167 C2170 1.350 1_545 S
N2168 S2166 1.610 . S
N2168 C2169 1.351 . S
C2169 C2163 1.428 1_545 S
C2169 N2168 1.351 . S
C2169 C2170 1.434 1_545 S
C2170 C2161 1.429 . S
C2170 N2167 1.350 1_565 S
C2170 C2169 1.434 1_565 S
C2171 C2172 1.369 . S
C2171 C2173 1.419 1_455 S
C2171 H2175 0.930 . S
C2172 C2171 1.369 . S
C2172 C2181 1.429 . S
C2173 C2171 1.419 1_655 S
C2173 C2174 1.363 1_655 S
C2173 H2176 0.929 . S
C2174 C2173 1.363 1_455 S
C2174 C2180 1.428 . S
H2175 C2171 0.930 . S
H2176 C2173 0.929 . S
S2177 N2178 1.613 . S
S2177 N2179 1.610 . S
N2178 S2177 1.613 . S
N2178 C2181 1.350 . S
N2179 S2177 1.610 . S
N2179 C2180 1.351 . S
C2180 C2174 1.428 . S
C2180 N2179 1.351 . S
C2180 C2181 1.434 . S
C2181 C2172 1.429 . S
C2181 N2178 1.350 . S
C2181 C2180 1.434 . S
C2182 C2183 1.369 . S
C2182 C2184 1.419 . S
C2182 H2186 0.930 . S
C2183 C2182 1.369 . S
C2183 C2192 1.429 . S
C2184 C2182 1.419 . S
C2184 C2185 1.363 . S
C2184 H2187 0.929 . S
C2185 C2184 1.363 . S
C2185 C2191 1.428 . S
H2186 C2182 0.930 . S
H2187 C2184 0.929 . S
S2188 N2189 1.613 . S
S2188 N2190 1.610 . S
N2189 S2188 1.613 . S
N2189 C2192 1.350 . S
N2190 S2188 1.610 . S
N2190 C2191 1.351 . S
C2191 C2185 1.428 . S
C2191 N2190 1.351 . S
C2191 C2192 1.434 . S
C2192 C2183 1.429 . S
C2192 N2189 1.350 . S
C2192 C2191 1.434 . S
C2193 C2194 1.369 . S
C2193 C2195 1.419 . S
C2193 H2197 0.930 . S
C2194 C2193 1.369 . S
C2194 C2203 1.429 . S
C2195 C2193 1.419 . S
C2195 C2196 1.363 . S
C2195 H2198 0.929 . S
C2196 C2195 1.363 . S
C2196 C2202 1.428 . S
H2197 C2193 0.930 . S
H2198 C2195 0.929 . S
S2199 N2200 1.613 . S
S2199 N2201 1.610 . S
N2200 S2199 1.613 . S
N2200 C2203 1.350 . S
N2201 S2199 1.610 . S
N2201 C2202 1.351 . S
C2202 C2196 1.428 . S
C2202 N2201 1.351 . S
C2202 C2203 1.434 . S
C2203 C2194 1.429 . S
C2203 N2200 1.350 . S
C2203 C2202 1.434 . S
C2204 C2205 1.369 . S
C2204 C2206 1.419 . S
C2204 H2208 0.930 . S
C2205 C2204 1.369 . S
C2205 C2214 1.429 . S
C2206 C2204 1.419 . S
C2206 C2207 1.363 . S
C2206 H2209 0.929 . S
C2207 C2206 1.363 . S
C2207 C2213 1.428 . S
H2208 C2204 0.930 . S
H2209 C2206 0.929 . S
S2210 N2211 1.613 . S
S2210 N2212 1.610 . S
N2211 S2210 1.613 . S
N2211 C2214 1.350 . S
N2212 S2210 1.610 . S
N2212 C2213 1.351 . S
C2213 C2207 1.428 . S
C2213 N2212 1.351 . S
C2213 C2214 1.434 . S
C2214 C2205 1.429 . S
C2214 N2211 1.350 . S
C2214 C2213 1.434 . S
C2215 C2216 1.369 . S
C2215 C2217 1.419 . S
C2215 H2219 0.930 . S
C2216 C2215 1.369 . S
C2216 C2225 1.429 . S
C2217 C2215 1.419 . S
C2217 C2218 1.363 . S
C2217 H2220 0.929 . S
C2218 C2217 1.363 . S
C2218 C2224 1.428 . S
H2219 C2215 0.930 . S
H2220 C2217 0.929 . S
S2221 N2222 1.613 . S
S2221 N2223 1.610 . S
N2222 S2221 1.613 . S
N2222 C2225 1.350 . S
N2223 S2221 1.610 . S
N2223 C2224 1.351 . S
C2224 C2218 1.428 . S
C2224 N2223 1.351 . S
C2224 C2225 1.434 . S
C2225 C2216 1.429 . S
C2225 N2222 1.350 . S
C2225 C2224 1.434 . S
C2226 C2227 1.369 . S
C2226 C2228 1.419 . S
C2226 H2230 0.930 . S
C2227 C2226 1.369 . S
C2227 C2236 1.429 . S
C2228 C2226 1.419 . S
C2228 C2229 1.363 . S
C2228 H2231 0.929 . S
C2229 C2228 1.363 . S
C2229 C2235 1.428 . S
H2230 C2226 0.930 . S
H2231 C2228 0.929 . S
S2232 N2233 1.613 . S
S2232 N2234 1.610 . S
N2233 S2232 1.613 . S
N2233 C2236 1.350 . S
N2234 S2232 1.610 . S
N2234 C2235 1.351 . S
C2235 C2229 1.428 . S
C2235 N2234 1.351 . S
C2235 C2236 1.434 . S
C2236 C2227 1.429 . S
C2236 N2233 1.350 . S
C2236 C2235 1.434 . S
C2237 C2238 1.369 . S
C2237 C2239 1.419 . S
C2237 H2241 0.930 . S
C2238 C2237 1.369 . S
C2238 C2247 1.429 . S
C2239 C2237 1.419 . S
C2239 C2240 1.363 . S
C2239 H2242 0.929 . S
C2240 C2239 1.363 . S
C2240 C2246 1.428 . S
H2241 C2237 0.930 . S
H2242 C2239 0.929 . S
S2243 N2244 1.613 . S
S2243 N2245 1.610 . S
N2244 S2243 1.613 . S
N2244 C2247 1.350 . S
N2245 S2243 1.610 . S
N2245 C2246 1.351 . S
C2246 C2240 1.428 . S
C2246 N2245 1.351 . S
C2246 C2247 1.434 . S
C2247 C2238 1.429 . S
C2247 N2244 1.350 . S
C2247 C2246 1.434 . S
C2248 C2249 1.369 . S
C2248 C2250 1.419 . S
C2248 H2252 0.930 . S
C2249 C2248 1.369 . S
C2249 C2258 1.429 . S
C2250 C2248 1.419 . S
C2250 C2251 1.363 . S
C2250 H2253 0.929 . S
C2251 C2250 1.363 . S
C2251 C2257 1.428 . S
H2252 C2248 0.930 . S
H2253 C2250 0.929 . S
S2254 N2255 1.613 . S
S2254 N2256 1.610 . S
N2255 S2254 1.613 . S
N2255 C2258 1.350 . S
N2256 S2254 1.610 . S
N2256 C2257 1.351 . S
C2257 C2251 1.428 . S
C2257 N2256 1.351 . S
C2257 C2258 1.434 . S
C2258 C2249 1.429 . S
C2258 N2255 1.350 . S
C2258 C2257 1.434 . S
C2259 C2260 1.369 . S
C2259 C2261 1.419 . S
C2259 H2263 0.930 . S
C2260 C2259 1.369 . S
C2260 C2269 1.429 . S
C2261 C2259 1.419 . S
C2261 C2262 1.363 . S
C2261 H2264 0.929 . S
C2262 C2261 1.363 . S
C2262 C2268 1.428 . S
H2263 C2259 0.930 . S
H2264 C2261 0.929 . S
S2265 N2266 1.613 . S
S2265 N2267 1.610 . S
N2266 S2265 1.613 . S
N2266 C2269 1.350 . S
N2267 S2265 1.610 . S
N2267 C2268 1.351 . S
C2268 C2262 1.428 . S
C2268 N2267 1.351 . S
C2268 C2269 1.434 . S
C2269 C2260 1.429 . S
C2269 N2266 1.350 . S
C2269 C2268 1.434 . S
C2270 C2271 1.369 . S
C2270 C2272 1.419 . S
C2270 H2274 0.930 . S
C2271 C2270 1.369 . S
C2271 C2280 1.429 . S
C2272 C2270 1.419 . S
C2272 C2273 1.363 . S
C2272 H2275 0.929 . S
C2273 C2272 1.363 . S
C2273 C2279 1.428 . S
H2274 C2270 0.930 . S
H2275 C2272 0.929 . S
S2276 N2277 1.613 . S
S2276 N2278 1.610 . S
N2277 S2276 1.613 . S
N2277 C2280 1.350 . S
N2278 S2276 1.610 . S
N2278 C2279 1.351 . S
C2279 C2273 1.428 . S
C2279 N2278 1.351 . S
C2279 C2280 1.434 . S
C2280 C2271 1.429 . S
C2280 N2277 1.350 . S
C2280 C2279 1.434 . S
C2281 C2282 1.369 . S
C2281 C2283 1.419 . S
C2281 H2285 0.930 . S
C2282 C2281 1.369 . S
C2282 C2291 1.429 . S
C2283 C2281 1.419 . S
C2283 C2284 1.363 . S
C2283 H2286 0.929 . S
C2284 C2283 1.363 . S
C2284 C2290 1.428 . S
H2285 C2281 0.930 . S
H2286 C2283 0.929 . S
S2287 N2288 1.613 . S
S2287 N2289 1.610 . S
N2288 S2287 1.613 . S
N2288 C2291 1.350 . S
N2289 S2287 1.610 . S
N2289 C2290 1.351 . S
C2290 C2284 1.428 . S
C2290 N2289 1.351 . S
C2290 C2291 1.434 . S
C2291 C2282 1.429 . S
C2291 N2288 1.350 . S
C2291 C2290 1.434 . S
C2292 C2293 1.369 . S
C2292 C2294 1.419 . S
C2292 H2296 0.930 . S
C2293 C2292 1.369 . S
C2293 C2302 1.429 . S
C2294 C2292 1.419 . S
C2294 C2295 1.363 . S
C2294 H2297 0.929 . S
C2295 C2294 1.363 . S
C2295 C2301 1.428 . S
H2296 C2292 0.930 . S
H2297 C2294 0.929 . S
S2298 N2299 1.613 . S
S2298 N2300 1.610 . S
N2299 S2298 1.613 . S
N2299 C2302 1.350 . S
N2300 S2298 1.610 . S
N2300 C2301 1.351 . S
C2301 C2295 1.428 . S
C2301 N2300 1.351 . S
C2301 C2302 1.434 . S
C2302 C2293 1.429 . S
C2302 N2299 1.350 . S
C2302 C2301 1.434 . S
C2303 C2304 1.369 . S
C2303 C2305 1.419 . S
C2303 H2307 0.930 . S
C2304 C2303 1.369 . S
C2304 C2313 1.429 . S
C2305 C2303 1.419 . S
C2305 C2306 1.363 . S
C2305 H2308 0.929 . S
C2306 C2305 1.363 . S
C2306 C2312 1.428 . S
H2307 C2303 0.930 . S
H2308 C2305 0.929 . S
S2309 N2310 1.613 . S
S2309 N2311 1.610 . S
N2310 S2309 1.613 . S
N2310 C2313 1.350 . S
N2311 S2309 1.610 . S
N2311 C2312 1.351 . S
C2312 C2306 1.428 . S
C2312 N2311 1.351 . S
C2312 C2313 1.434 . S
C2313 C2304 1.429 . S
C2313 N2310 1.350 . S
C2313 C2312 1.434 . S
C2314 C2315 1.369 . S
C2314 C2316 1.419 . S
C2314 H2318 0.930 . S
C2315 C2314 1.369 . S
C2315 C2324 1.429 . S
C2316 C2314 1.419 . S
C2316 C2317 1.363 . S
C2316 H2319 0.929 . S
C2317 C2316 1.363 . S
C2317 C2323 1.428 . S
H2318 C2314 0.930 . S
H2319 C2316 0.929 . S
S2320 N2321 1.613 . S
S2320 N2322 1.610 . S
N2321 S2320 1.613 . S
N2321 C2324 1.350 . S
N2322 S2320 1.610 . S
N2322 C2323 1.351 . S
C2323 C2317 1.428 . S
C2323 N2322 1.351 . S
C2323 C2324 1.434 . S
C2324 C2315 1.429 . S
C2324 N2321 1.350 . S
C2324 C2323 1.434 . S
C2325 C2326 1.369 . S
C2325 C2327 1.419 . S
C2325 H2329 0.930 . S
C2326 C2325 1.369 . S
C2326 C2335 1.429 . S
C2327 C2325 1.419 . S
C2327 C2328 1.363 . S
C2327 H2330 0.929 1_655 S
C2328 C2327 1.363 . S
C2328 C2334 1.428 . S
H2329 C2325 0.930 . S
H2330 C2327 0.929 1_455 S
S2331 N2332 1.613 . S
S2331 N2333 1.610 . S
N2332 S2331 1.613 . S
N2332 C2335 1.350 . S
N2333 S2331 1.610 . S
N2333 C2334 1.351 . S
C2334 C2328 1.428 . S
C2334 N2333 1.351 . S
C2334 C2335 1.434 . S
C2335 C2326 1.429 . S
C2335 N2332 1.350 . S
C2335 C2334 1.434 . S
C2336 C2337 1.369 . S
C2336 C2338 1.419 . S
C2336 H2340 0.930 . S
C2337 C2336 1.369 . S
C2337 C2346 1.429 . S
C2338 C2336 1.419 . S
C2338 C2339 1.363 . S
C2338 H2341 0.929 . S
C2339 C2338 1.363 . S
C2339 C2345 1.428 . S
H2340 C2336 0.930 . S
H2341 C2338 0.929 . S
S2342 N2343 1.613 . S
S2342 N2344 1.610 . S
N2343 S2342 1.613 . S
N2343 C2346 1.350 . S
N2344 S2342 1.610 . S
N2344 C2345 1.351 . S
C2345 C2339 1.428 . S
C2345 N2344 1.351 . S
C2345 C2346 1.434 . S
C2346 C2337 1.429 . S
C2346 N2343 1.350 . S
C2346 C2345 1.434 . S
C2347 C2348 1.369 . S
C2347 C2349 1.418 . S
C2347 H2351 0.930 . S
C2348 C2347 1.369 . S
C2348 C2357 1.429 . S
C2349 C2347 1.418 . S
C2349 C2350 1.362 . S
C2349 H2352 0.930 1_545 S
C2350 C2349 1.362 . S
C2350 C2356 1.428 . S
H2351 C2347 0.930 . S
H2352 C2349 0.930 1_565 S
S2353 N2354 1.613 . S
S2353 N2355 1.610 . S
N2354 S2353 1.613 . S
N2354 C2357 1.350 . S
N2355 S2353 1.610 . S
N2355 C2356 1.351 . S
C2356 C2350 1.428 . S
C2356 N2355 1.351 . S
C2356 C2357 1.434 . S
C2357 C2348 1.429 . S
C2357 N2354 1.350 . S
C2357 C2356 1.434 . S
C1567 C8 1.270 . S
C1569 C963 1.232 . S
C1578 C18 1.536 . S
C1580 C1043 1.521 . S
C1591 C1111 1.354 . S
C1589 C31 1.354 . S
C1600 C34 1.677 . S
C1602 C1191 1.686 . S
C1611 C5 1.486 . S
C1613 C1265 1.537 . S
C1622 C21 1.633 . S
C1624 C1333 1.557 . S
C1633 C47 1.189 1_556 S
C1635 C1259 1.202 . S
C1646 C1339 1.446 . S
C1644 C57 1.377 . S
C1657 C1185 1.383 . S
C1655 C70 1.307 1_556 S
C1666 C73 1.637 . S
C1668 C1117 1.690 1_545 S
C1679 C969 1.529 . S
C1677 C44 1.421 . S
C1688 C60 1.440 . S
C1690 C1037 1.445 . S
C1699 C86 1.503 . S
C1701 C1407 1.404 . S
C1710 C96 1.594 . S
C1712 C1487 1.540 . S
C1723 C1555 1.536 . S
C1721 C109 1.671 . S
C1732 C112 1.957 . S
C1734 C303 1.854 . S
C1743 C83 1.724 . S
C1745 C377 1.672 . S
C1754 C99 1.686 . S
C1756 C445 1.580 . S
C1765 C125 1.176 . S
C1767 C371 1.185 . S
C1776 C135 1.429 . S
C1778 C451 1.483 . S
C1789 C297 1.413 . S
C1787 C148 1.403 . S
C1800 C1561 1.814 . S
C1798 C151 1.824 . S
C1811 C1413 1.531 . S
C1809 C122 1.500 . S
C1822 C1481 1.489 . S
C1820 C138 1.487 . S
C1831 C164 1.415 . S
C1833 C519 1.327 . S
C1842 C174 1.613 . S
C1844 C599 1.572 . S
C1853 C187 1.669 . S
C1855 C667 1.545 . S
C1864 C190 2.019 . S
C1866 C747 1.917 . S
C1877 C821 1.651 . S
C1875 C161 1.719 . S
C1888 C889 1.616 . S
C1886 C177 1.726 . S
C1899 C815 1.268 . S
C1897 C203 1.278 . S
C1910 C895 1.445 . S
C1908 C213 1.401 . S
C1919 C226 1.386 . S
C1921 C741 1.377 . S
C1932 C673 1.748 . S
C1930 C229 1.760 . S
C1941 C200 1.527 . S
C1943 C525 1.574 . S
C1954 C593 1.459 . S
C1952 C216 1.458 . S
C1965 C273 1.918 . S
C1963 C0 1.853 . S
C1974 C23 1.451 . S
C1976 C347 1.424 . S
C1987 C433 1.585 . S
C1985 C36 1.605 . S
C1998 C507 1.340 . S
C1996 C26 1.284 . S
C2009 C569 1.581 . S
C2007 C10 1.625 1_556 S
C2020 C655 1.578 . S
C2018 C13 1.481 . S
C2029 C39 2.036 . S
C2031 C643 2.055 . S
C2040 C62 1.729 . S
C2042 C495 1.589 . S
C2051 C75 1.903 . S
C2053 C581 1.814 1_554 S
C2062 C65 1.561 . S
C2064 C359 1.605 . S
C2075 C421 1.759 . S
C2073 C49 1.904 . S
C2084 C52 1.743 . S
C2086 C285 1.808 . S
C2097 C717 1.860 . S
C2095 C78 1.808 . S
C2106 C101 1.509 1_545 S
C2108 C791 1.517 . S
C2117 C114 1.609 1_655 S
C2119 C877 1.583 . S
C2130 C951 1.157 . S
C2128 C104 1.147 . S
C2139 C88 1.509 . S
C2141 C1013 1.483 . S
C2150 C91 1.329 . S
C2152 C1099 1.354 . S
C2161 C117 1.721 . S
C2163 C1087 1.721 1_565 S
C2172 C140 1.419 . S
C2174 C939 1.344 1_455 S
C2185 C1025 1.697 . S
C2183 C153 1.781 . S
C2194 C143 1.550 . S
C2196 C803 1.588 . S
C2205 C127 1.888 . S
C2207 C865 1.752 . S
C2218 C729 1.837 . S
C2216 C130 1.787 . S
C2229 C1161 1.686 . S
C2227 C156 1.685 . S
C2238 C179 1.241 . S
C2240 C1235 1.232 . S
C2249 C192 1.516 . S
C2251 C1321 1.494 . S
C2262 C1395 1.324 . S
C2260 C182 1.290 . S
C2273 C1457 1.601 . S
C2271 C166 1.629 . S
C2282 C169 1.535 . S
C2284 C1543 1.600 . S
C2293 C195 2.000 . S
C2295 C1531 2.005 . S
C2304 C218 1.812 1_565 S
C2306 C1383 1.677 . S
C2317 C1469 1.786 . S
C2315 C231 1.878 1_455 S
C2328 C1247 1.283 . S
C2326 C221 1.263 . S
C2339 C1309 1.648 . S
C2337 C205 1.772 . S
C2348 C208 1.432 . S
C2350 C1173 1.474 . S
