# Generated by pormake.
# Topology pyr, (3,6)-cn, num edge types: 1
# Building blocks:
#     Node 0, Type 0, BuildingBlock: BETDAH_clean_linker_0, # of connection points: 3
#     Node 1, Type 0, BuildingBlock: BETDAH_clean_linker_0, # of connection points: 3
#     Node 2, Type 0, BuildingBlock: BETDAH_clean_linker_0, # of connection points: 3
#     Node 3, Type 0, BuildingBlock: BETDAH_clean_linker_0, # of connection points: 3
#     Node 4, Type 0, BuildingBlock: BETDAH_clean_linker_0, # of connection points: 3
#     Node 5, Type 0, BuildingBlock: BETDAH_clean_linker_0, # of connection points: 3
#     Node 6, Type 0, BuildingBlock: BETDAH_clean_linker_0, # of connection points: 3
#     Node 7, Type 0, BuildingBlock: BETDAH_clean_linker_0, # of connection points: 3
#     Node 8, Type 1, BuildingBlock: PAMTUU_clean_sbu_0, # of connection points: 6
#     Node 9, Type 1, BuildingBlock: PAMTUU_clean_sbu_0, # of connection points: 6
#     Node 10, Type 1, BuildingBlock: PAMTUU_clean_sbu_0, # of connection points: 6
#     Node 11, Type 1, BuildingBlock: PAMTUU_clean_sbu_0, # of connection points: 6
#     Edge 12, Type (0, 1), None
#     Edge 13, Type (0, 1), None
#     Edge 14, Type (0, 1), None
#     Edge 15, Type (0, 1), None
#     Edge 16, Type (0, 1), None
#     Edge 17, Type (0, 1), None
#     Edge 18, Type (0, 1), None
#     Edge 19, Type (0, 1), None
#     Edge 20, Type (0, 1), None
#     Edge 21, Type (0, 1), None
#     Edge 22, Type (0, 1), None
#     Edge 23, Type (0, 1), None
#     Edge 24, Type (0, 1), None
#     Edge 25, Type (0, 1), None
#     Edge 26, Type (0, 1), None
#     Edge 27, Type (0, 1), None
#     Edge 28, Type (0, 1), None
#     Edge 29, Type (0, 1), None
#     Edge 30, Type (0, 1), None
#     Edge 31, Type (0, 1), None
#     Edge 32, Type (0, 1), None
#     Edge 33, Type (0, 1), None
#     Edge 34, Type (0, 1), None
#     Edge 35, Type (0, 1), None
# Relax obj value: 0.430
# Max RMSD: 0.249
# Mean RMSD: 0.148
data_MOF--net-pyr--node1-PAMTUU_clean_sbu_0--node2-BETDAH_clean_linker_0--edge1-none
_symmetry_space_group_name_H-M    P1
_symmetry_Int_Tables_number       1
_symmetry_cell_setting            triclinic
loop_
_symmetry_equiv_pos_as_xyz
'x, y, z'
_cell_length_a     17.234704
_cell_length_b     17.613951
_cell_length_c     17.211481
_cell_angle_alpha  90.815244
_cell_angle_beta   91.136733
_cell_angle_gamma 112.06665
loop_
_atom_site_label
_atom_site_type_symbol
_atom_site_fract_x
_atom_site_fract_y
_atom_site_fract_z
_atom_type_partial_charge
H0 H 0.59349 0.27334 0.41124 0.0
H1 H 0.63691 0.45218 0.23571 0.0
H2 H 0.4584 0.43597 0.40892 0.0
C3 C 0.58221 0.32541 0.38864 0.0
C4 C 0.52015 0.34956 0.41975 0.0
C5 C 0.61523 0.35495 0.31737 0.0
C6 C 0.61006 0.42805 0.29088 0.0
C7 C 0.55349 0.45773 0.32404 0.0
C8 C 0.50636 0.41648 0.38695 0.0
N9 N 0.53583 0.52057 0.28605 0.0
C10 C 0.45468 0.5187 0.28005 0.0
H11 H 0.27172 0.90608 0.93687 0.0
H12 H 1.03348 0.92566 0.90842 0.0
H13 H 0.1258 0.81502 0.72667 0.0
C14 C 0.21251 0.88952 0.90494 0.0
C15 C 0.20187 0.84898 0.83266 0.0
C16 C 0.15372 0.92046 0.93015 0.0
C17 C 0.07917 0.90175 0.88804 0.0
C18 C 0.06977 0.86659 0.81336 0.0
C19 C 0.13038 0.83815 0.78597 0.0
N20 N 1.014 0.88174 0.76044 0.0
C21 C 1.01045 0.95922 0.76449 0.0
H22 H 0.80931 0.41947 0.12145 0.0
H23 H 0.81754 0.63554 1.00258 0.0
H24 H 0.60287 0.41088 0.97016 0.0
C25 C 0.78131 0.44858 1.08058 0.0
C26 C 0.70134 0.4027 1.0461 0.0
C27 C 0.82487 0.53234 1.06603 0.0
C28 C 0.78731 0.57048 1.01237 0.0
C29 C 0.70834 0.52709 0.97459 0.0
C30 C 0.66576 0.44323 0.99348 0.0
N31 N 0.66165 0.57218 0.94003 0.0
C32 C 0.65697 0.59748 0.86238 0.0
H33 H 0.82353 0.91985 0.64438 0.0
H34 H 1.00852 0.95483 0.47044 0.0
H35 H 0.80429 0.7215 0.48337 0.0
C36 C 0.84727 0.89607 0.59587 0.0
C37 C 0.80463 0.81369 0.57013 0.0
C38 C 0.92116 0.94787 0.56094 0.0
C39 C 0.95261 0.91517 0.49865 0.0
C40 C 0.91237 0.83327 0.46997 0.0
C41 C 0.83797 0.78292 0.50654 0.0
N42 N 0.93805 0.81328 0.39504 0.0
C43 C 0.95381 0.74576 0.36236 0.0
H44 H 0.78266 0.92936 0.91243 0.0
H45 H 0.64415 0.84707 0.1206 0.0
H46 H 0.532 0.91817 0.92413 0.0
C47 C 0.72413 0.91065 0.94293 0.0
C48 C 0.6573 0.92607 0.91019 0.0
C49 C 0.72057 0.88303 1.01914 0.0
C50 C 0.64577 0.86277 1.05983 0.0
C51 C 0.57702 0.87471 1.0248 0.0
C52 C 0.58238 0.90266 0.94868 0.0
N53 N 0.51534 0.88485 1.07161 0.0
C54 C 0.5071 0.96006 1.06678 0.0
H55 H 0.05933 0.26563 0.4328 0.0
H56 H 0.11022 0.44411 0.61709 0.0
H57 H 0.99283 0.47681 0.40711 0.0
C58 C 0.06424 0.32627 0.45167 0.0
C59 C 1.02801 0.37053 0.40664 0.0
C60 C 0.09292 0.35197 0.52706 0.0
C61 C 0.09304 0.42685 0.55652 0.0
C62 C 0.05529 0.47071 0.51357 0.0
C63 C 1.02391 0.44306 0.43847 0.0
N64 N 1.03257 0.53064 0.55188 0.0
C65 C 0.9486 0.52041 0.5518 0.0
H66 H 0.32615 0.93061 0.19944 0.0
H67 H 0.32613 0.7213 0.32862 0.0
H68 H 0.5427 0.94625 0.3371 0.0
C69 C 0.35628 0.90373 0.2404 0.0
C70 C 0.43821 0.95125 0.26859 0.0
C71 C 0.31448 0.82056 0.2608 0.0
C72 C 0.35577 0.78523 0.31409 0.0
C73 C 0.43822 0.83058 0.34354 0.0
C74 C 0.47813 0.9127 0.31874 0.0
N75 N 0.49069 0.79281 0.38095 0.0
C76 C 0.48167 0.73935 0.4446 0.0
H77 H 0.30787 0.41388 0.70947 0.0
H78 H 0.32575 0.64097 0.81598 0.0
H79 H 0.11357 0.42214 0.86195 0.0
C80 C 0.28308 0.44697 0.74895 0.0
C81 C 0.20537 0.40518 0.78542 0.0
C82 C 0.32732 0.53203 0.75829 0.0
C83 C 0.29419 0.57546 0.80948 0.0
C84 C 0.21941 0.53713 0.8507 0.0
C85 C 0.17441 0.45142 0.83672 0.0
N86 N 0.1808 0.58969 0.88487 0.0
C87 C 0.15975 0.60113 0.96258 0.0
Tb88 Tb 0.14625 0.15918 0.66012 0.0
Tb89 Tb 0.97402 0.18301 0.71266 0.0
C90 C 0.97093 1.03231 0.59548 0.0
C91 C 0.35082 0.19795 0.58496 0.0
C92 C 0.46355 0.29828 0.47896 0.0
C93 C 0.44612 0.21331 0.48053 0.0
C94 C 0.39106 0.16398 0.53361 0.0
C95 C 0.36666 0.28199 0.58368 0.0
C96 C 0.42235 0.3317 0.53108 0.0
C97 C 0.28022 0.14339 0.62722 0.0
O98 O 0.12508 0.2374 0.57193 0.0
O99 O 1.03069 0.2796 0.63474 0.0
O100 O 0.07807 0.27522 0.78314 0.0
O101 O 0.18922 0.2841 0.70757 0.0
O102 O 0.8644 0.20048 0.67881 0.0
O103 O 0.89984 0.19926 0.80079 0.0
O104 O 0.96072 1.06462 0.75522 0.0
O105 O 0.09992 1.09841 0.76762 0.0
O106 O 0.0516 1.05119 0.6057 0.0
O107 O 0.93299 1.07972 0.62407 0.0
C108 C 0.08607 0.28813 0.58183 0.0
O109 O 0.26737 0.1699 0.69513 0.0
O110 O 0.21187 0.11307 0.58451 0.0
C111 C 0.15558 0.31631 0.76028 0.0
C112 C 0.76274 0.12463 0.76508 0.0
C113 C 0.67456 0.98698 0.84926 0.0
C114 C 0.66675 1.06204 0.86638 0.0
C115 C 0.71196 0.13129 0.82493 0.0
C116 C 0.75811 1.04694 0.73948 0.0
C117 C 0.7163 0.97863 0.78287 0.0
C118 C 0.83965 0.19383 0.75066 0.0
C119 C 1.02369 1.04431 0.77244 0.0
H120 H 0.47138 0.1832 0.43851 0.0
H121 H 0.37634 1.09848 0.5316 0.0
H122 H 0.33326 0.30863 0.62098 0.0
H123 H 0.43127 0.39578 0.53082 0.0
H124 H 0.63481 1.06957 0.91765 0.0
H125 H 0.71541 0.19086 0.84575 0.0
H126 H 0.7963 1.04059 0.6928 0.0
H127 H 0.72294 0.92125 0.7689 0.0
Tb128 Tb 0.65556 0.16294 0.16883 0.0
Tb129 Tb 0.48008 0.18647 0.12646 0.0
C130 C 0.52002 1.04477 1.0594 0.0
C131 C 0.86831 0.22622 0.22493 0.0
C132 C 0.98123 0.33189 0.33391 0.0
C133 C 1.00304 0.2741 0.29099 0.0
C134 C 0.94566 0.21988 0.23817 0.0
C135 C 0.8522 0.29173 0.25806 0.0
C136 C 0.90713 0.34313 0.31323 0.0
C137 C 0.79858 0.16001 0.18745 0.0
O138 O 0.69167 0.28763 0.1266 0.0
O139 O 0.57626 0.27166 1.05089 0.0
O140 O 0.54693 0.28521 0.20523 0.0
O141 O 0.63935 0.23728 0.265 0.0
O142 O 0.4009 0.20499 1.04202 0.0
O143 O 0.37354 0.20516 0.1649 0.0
O144 O 0.44682 1.0833 0.21122 0.0
O145 O 0.56686 1.05456 0.22333 0.0
O146 O 0.59684 1.09868 1.06202 0.0
O147 O 0.45927 1.06659 1.07925 0.0
C148 C 0.65457 0.31568 1.07317 0.0
O149 O 0.7373 0.12458 0.23417 0.0
O150 O 0.77197 0.17861 0.12175 0.0
C151 C 0.60434 0.29156 0.25823 0.0
C152 C 0.26676 0.12907 1.0763 0.0
C153 C 0.17923 0.98787 0.9881 0.0
C154 C 0.1716 1.06242 0.96974 0.0
C155 C 0.21609 0.13318 1.01337 0.0
C156 C 0.26344 1.05249 1.10148 0.0
C157 C 0.22267 0.98277 1.05597 0.0
C158 C 0.34397 0.1988 1.09339 0.0
C159 C 0.48668 1.03568 0.23594 0.0
H160 H 0.06166 0.26648 0.30212 0.0
H161 H 0.95965 0.17062 0.2114 0.0
H162 H 0.79358 0.29887 0.24658 0.0
H163 H 0.88702 0.38642 0.34357 0.0
H164 H 0.13879 1.06795 0.9172 0.0
H165 H 0.21894 0.19188 0.99244 0.0
H166 H 0.30168 1.04802 0.15031 0.0
H167 H 0.22914 0.92595 1.07115 0.0
Tb168 Tb 0.56554 0.59086 0.61338 0.0
Tb169 Tb 0.56104 0.74598 0.69619 0.0
C170 C 0.49915 0.70872 0.52112 0.0
C171 C 0.68971 0.4826 0.54879 0.0
C172 C 0.86165 0.50991 0.55113 0.0
C173 C 0.82046 0.5131 0.48106 0.0
C174 C 0.73522 0.50006 0.47999 0.0
C175 C 0.7315 0.47793 0.61872 0.0
C176 C 0.81683 0.49162 0.61978 0.0
C177 C 0.60363 0.4823 0.54948 0.0
O178 O 0.67691 0.69153 0.57352 0.0
O179 O 0.69404 0.78995 0.66679 0.0
O180 O 0.59681 0.68322 0.79334 0.0
O181 O 0.64074 0.59854 0.72115 0.0
O182 O 0.5373 0.85325 0.67776 0.0
O183 O 0.55676 0.8168 0.79268 0.0
O184 O 0.43342 0.65657 0.70941 0.0
O185 O 0.45033 0.53697 0.68165 0.0
O186 O 0.48329 0.63035 0.5342 0.0
O187 O 0.54754 0.76315 0.57132 0.0
C188 C 0.72263 0.7622 0.60656 0.0
O189 O 0.56735 0.47218 0.61639 0.0
O190 O 0.59217 0.54045 0.51083 0.0
C191 C 0.63272 0.62909 0.78925 0.0
C192 C 0.44114 0.8558 0.77092 0.0
C193 C 0.27582 0.83774 0.80201 0.0
C194 C 0.31703 0.79879 0.84805 0.0
C195 C 0.39881 0.80768 0.83271 0.0
C196 C 0.39884 0.8926 0.72312 0.0
C197 C 0.31653 0.88339 0.7384 0.0
C198 C 0.52551 0.86036 0.75131 0.0
C199 C 0.40717 0.57661 0.71415 0.0
H200 H 0.85429 0.52641 0.42733 0.0
H201 H 0.70561 0.50634 0.42584 0.0
H202 H 0.69908 0.46601 0.67317 0.0
H203 H 0.8478 0.48821 0.6743 0.0
H204 H 0.28725 0.76478 0.89838 0.0
H205 H 0.42881 0.77709 0.86986 0.0
H206 H 0.42969 0.92906 0.67442 0.0
H207 H 0.28663 0.91591 0.70348 0.0
Tb208 Tb 0.06789 0.75198 0.12727 0.0
Tb209 Tb 0.06916 0.5991 0.21377 0.0
C210 C 0.13555 0.63254 1.03574 0.0
C211 C 0.95736 0.88208 1.08402 0.0
C212 C 0.79966 0.88777 1.05692 0.0
C213 C 0.87273 0.95774 1.04616 0.0
C214 C 0.95136 0.95439 1.05841 0.0
C215 C 0.88497 0.81649 1.10576 0.0
C216 C 0.80602 0.81887 1.09142 0.0
C217 C 1.03668 0.87086 1.07955 0.0
O218 O 0.94822 0.65684 1.08908 0.0
O219 O 0.94161 0.54575 0.1601 0.0
O220 O 0.98782 0.63587 0.29356 0.0
O221 O 1.02806 0.76417 0.24545 0.0
O222 O 0.07322 0.48098 0.20928 0.0
O223 O 0.10729 0.55515 0.31398 0.0
O224 O 0.18114 0.70291 0.25737 0.0
O225 O 0.20091 0.79523 0.1619 0.0
O226 O 0.1254 0.70318 1.03581 0.0
O227 O 0.11868 0.58684 1.09781 0.0
C228 C 0.90865 0.58015 1.10765 0.0
O229 O 0.07544 0.87285 0.14552 0.0
O230 O 1.03475 0.80985 1.0349 0.0
C231 C 0.99026 0.71181 0.29868 0.0
C232 C 0.20051 0.49604 0.27297 0.0
C233 C 0.36875 0.51138 0.27738 0.0
C234 C 0.30821 0.44753 0.31606 0.0
C235 C 0.22459 0.4401 0.31405 0.0
C236 C 0.26121 0.55862 0.23242 0.0
C237 C 0.34494 0.56653 0.23493 0.0
C238 C 0.11447 0.49416 0.27549 0.0
C239 C 0.22892 0.77051 0.22437 0.0
H240 H 0.86894 1.01275 1.02194 0.0
H241 H 1.00678 1.00615 1.04336 0.0
H242 H 0.88913 0.76134 0.12876 0.0
H243 H 0.75062 0.76489 1.10137 0.0
H244 H 0.3253 0.40339 0.34803 0.0
H245 H 0.17957 0.39103 0.34485 0.0
H246 H 0.24419 0.60219 0.19963 0.0
H247 H 0.39087 0.61572 0.20401 0.0
loop_
_geom_bond_atom_site_label_1
_geom_bond_atom_site_label_2
_geom_bond_distance
_geom_bond_site_symmetry_2
_ccdc_geom_bond_type
H0 C3 0.929 . S
H1 C6 0.929 . S
H2 C8 0.930 . S
C3 H0 0.929 . S
C3 C4 1.398 . S
C3 C5 1.396 . S
C4 C3 1.398 . S
C4 C8 1.407 . S
C5 C3 1.396 . S
C5 C6 1.394 . S
C6 H1 0.929 . S
C6 C5 1.394 . S
C6 C7 1.382 . S
C7 C6 1.382 . S
C7 C8 1.392 . S
C7 N9 1.420 . S
C8 H2 0.930 . S
C8 C4 1.407 . S
C8 C7 1.392 . S
N9 C7 1.420 . S
N9 C10 1.244 . S
C10 N9 1.244 . S
H11 C14 0.929 . S
H12 C17 0.929 . S
H13 C19 0.930 . S
C14 H11 0.929 . S
C14 C15 1.398 . S
C14 C16 1.396 . S
C15 C14 1.398 . S
C15 C19 1.407 . S
C16 C14 1.396 . S
C16 C17 1.394 . S
C17 H12 0.929 . S
C17 C16 1.394 . S
C17 C18 1.382 . S
C18 C17 1.382 . S
C18 C19 1.392 . S
C18 N20 1.420 1_455 S
C19 H13 0.930 . S
C19 C15 1.407 . S
C19 C18 1.392 . S
N20 C18 1.420 1_655 S
N20 C21 1.244 . S
C21 N20 1.244 . S
H22 C25 0.929 1_554 S
H23 C28 0.929 . S
H24 C30 0.930 . S
C25 H22 0.929 1_556 S
C25 C26 1.398 . S
C25 C27 1.396 . S
C26 C25 1.398 . S
C26 C30 1.407 . S
C27 C25 1.396 . S
C27 C28 1.394 . S
C28 H23 0.929 . S
C28 C27 1.394 . S
C28 C29 1.382 . S
C29 C28 1.382 . S
C29 C30 1.392 . S
C29 N31 1.420 . S
C30 H24 0.930 . S
C30 C26 1.407 . S
C30 C29 1.392 . S
N31 C29 1.420 . S
N31 C32 1.244 . S
C32 N31 1.244 . S
H33 C36 0.929 . S
H34 C39 0.929 . S
H35 C41 0.930 . S
C36 H33 0.929 . S
C36 C37 1.398 . S
C36 C38 1.396 . S
C37 C36 1.398 . S
C37 C41 1.407 . S
C38 C36 1.396 . S
C38 C39 1.394 . S
C39 H34 0.929 . S
C39 C38 1.394 . S
C39 C40 1.382 . S
C40 C39 1.382 . S
C40 C41 1.392 . S
C40 N42 1.420 . S
C41 H35 0.930 . S
C41 C37 1.407 . S
C41 C40 1.392 . S
N42 C40 1.420 . S
N42 C43 1.244 . S
C43 N42 1.244 . S
H44 C47 0.929 . S
H45 C50 0.929 1_554 S
H46 C52 0.930 . S
C47 H44 0.929 . S
C47 C48 1.398 . S
C47 C49 1.396 . S
C48 C47 1.398 . S
C48 C52 1.407 . S
C49 C47 1.396 . S
C49 C50 1.394 . S
C50 H45 0.929 1_556 S
C50 C49 1.394 . S
C50 C51 1.382 . S
C51 C50 1.382 . S
C51 C52 1.392 . S
C51 N53 1.420 . S
C52 H46 0.930 . S
C52 C48 1.407 . S
C52 C51 1.392 . S
N53 C51 1.420 . S
N53 C54 1.244 . S
C54 N53 1.244 . S
H55 C58 0.929 . S
H56 C61 0.929 . S
H57 C63 0.930 . S
C58 H55 0.929 . S
C58 C59 1.398 1_455 S
C58 C60 1.396 . S
C59 C58 1.398 1_655 S
C59 C63 1.407 . S
C60 C58 1.396 . S
C60 C61 1.394 . S
C61 H56 0.929 . S
C61 C60 1.394 . S
C61 C62 1.382 1_455 S
C62 C61 1.382 1_655 S
C62 C63 1.392 . S
C62 N64 1.420 . S
C63 H57 0.930 . S
C63 C59 1.407 . S
C63 C62 1.392 . S
N64 C62 1.420 . S
N64 C65 1.244 . S
C65 N64 1.244 . S
H66 C69 0.929 . S
H67 C72 0.929 . S
H68 C74 0.930 . S
C69 H66 0.929 . S
C69 C70 1.398 . S
C69 C71 1.396 . S
C70 C69 1.398 . S
C70 C74 1.407 . S
C71 C69 1.396 . S
C71 C72 1.394 . S
C72 H67 0.929 . S
C72 C71 1.394 . S
C72 C73 1.382 . S
C73 C72 1.382 . S
C73 C74 1.392 . S
C73 N75 1.420 . S
C74 H68 0.930 . S
C74 C70 1.407 . S
C74 C73 1.392 . S
N75 C73 1.420 . S
N75 C76 1.244 . S
C76 N75 1.244 . S
H77 C80 0.929 . S
H78 C83 0.929 . S
H79 C85 0.930 . S
C80 H77 0.929 . S
C80 C81 1.398 . S
C80 C82 1.396 . S
C81 C80 1.398 . S
C81 C85 1.407 . S
C82 C80 1.396 . S
C82 C83 1.394 . S
C83 H78 0.929 . S
C83 C82 1.394 . S
C83 C84 1.382 . S
C84 C83 1.382 . S
C84 C85 1.392 . S
C84 N86 1.420 . S
C85 H79 0.930 . S
C85 C81 1.407 . S
C85 C84 1.392 . S
N86 C84 1.420 . S
N86 C87 1.244 . S
C87 N86 1.244 . S
Tb88 C97 2.764 . S
Tb88 O98 2.325 . S
Tb88 O101 2.303 . S
Tb88 O105 2.322 1_545 S
Tb88 O106 2.349 1_545 S
Tb88 O109 2.415 . S
Tb88 O110 2.399 . S
Tb89 O99 2.322 . S
Tb89 O100 2.348 1_655 S
Tb89 O102 2.415 1_545 S
Tb89 O103 2.399 . S
Tb89 O104 2.325 1_545 S
Tb89 O107 2.303 1_545 S
Tb89 C118 2.764 1_545 S
C90 O106 1.261 1_655 S
C90 O107 1.257 . S
C91 C94 1.358 . S
C91 C95 1.332 . S
C91 C97 1.504 . S
C92 C93 1.373 . S
C92 C96 1.308 . S
C93 C92 1.373 . S
C93 C94 1.429 . S
C93 H120 0.932 . S
C94 C91 1.358 . S
C94 C93 1.429 . S
C94 H121 0.930 . S
C95 C91 1.332 . S
C95 C96 1.394 . S
C95 H122 0.932 . S
C96 C92 1.308 . S
C96 C95 1.394 . S
C96 H123 0.929 . S
C97 Tb88 2.764 . S
C97 C91 1.504 . S
C97 O109 1.239 . S
C97 O110 1.263 . S
O98 Tb88 2.325 . S
O98 C108 1.236 1_455 S
O99 Tb89 2.322 . S
O99 C108 1.257 . S
O100 Tb89 2.348 1_455 S
O100 C111 1.265 . S
O101 Tb88 2.303 . S
O101 C111 1.257 . S
O102 Tb89 2.415 1_565 S
O102 C118 1.239 . S
O103 Tb89 2.399 . S
O103 C118 1.263 1_545 S
O104 Tb89 2.325 1_565 S
O104 C119 1.236 1_655 S
O105 Tb88 2.322 1_565 S
O105 C119 1.257 . S
O106 Tb88 2.349 1_565 S
O106 C90 1.261 1_455 S
O107 Tb89 2.303 1_565 S
O107 C90 1.257 . S
C108 O98 1.236 1_655 S
C108 O99 1.257 . S
O109 Tb88 2.415 . S
O109 C97 1.239 . S
O110 Tb88 2.399 . S
O110 C97 1.263 . S
C111 O100 1.265 . S
C111 O101 1.257 . S
C112 C115 1.358 . S
C112 C116 1.332 . S
C112 C118 1.504 . S
C113 C114 1.373 . S
C113 C117 1.308 . S
C114 C113 1.373 . S
C114 C115 1.429 . S
C114 H124 0.932 . S
C115 C112 1.358 . S
C115 C114 1.429 . S
C115 H125 0.930 . S
C116 C112 1.332 . S
C116 C117 1.394 . S
C116 H126 0.932 . S
C117 C113 1.308 . S
C117 C116 1.394 . S
C117 H127 0.929 . S
C118 Tb89 2.764 1_565 S
C118 O102 1.239 . S
C118 O103 1.263 1_565 S
C118 C112 1.504 . S
C119 O104 1.236 1_455 S
C119 O105 1.257 . S
H120 C93 0.932 . S
H121 C94 0.930 . S
H122 C95 0.932 . S
H123 C96 0.929 . S
H124 C114 0.932 . S
H125 C115 0.930 . S
H126 C116 0.932 . S
H127 C117 0.929 . S
Tb128 C137 2.764 . S
Tb128 O138 2.325 . S
Tb128 O141 2.303 . S
Tb128 O145 2.322 1_545 S
Tb128 O146 2.349 1_545 S
Tb128 O149 2.415 . S
Tb128 O150 2.399 . S
Tb129 O139 2.322 . S
Tb129 O140 2.349 1_556 S
Tb129 O142 2.415 1_545 S
Tb129 O143 2.399 1_545 S
Tb129 O144 2.325 1_546 S
Tb129 O147 2.303 1_545 S
Tb129 C158 2.764 1_545 S
C130 O146 1.261 1_556 S
C130 O147 1.257 . S
C131 C134 1.358 . S
C131 C135 1.332 . S
C131 C137 1.504 . S
C132 C133 1.373 . S
C132 C136 1.308 . S
C133 C132 1.373 . S
C133 C134 1.429 . S
C133 H160 0.932 1_655 S
C134 C131 1.358 . S
C134 C133 1.429 . S
C134 H161 0.930 . S
C135 C131 1.332 . S
C135 C136 1.394 . S
C135 H162 0.932 . S
C136 C132 1.308 . S
C136 C135 1.394 . S
C136 H163 0.929 . S
C137 Tb128 2.764 . S
C137 C131 1.504 . S
C137 O149 1.239 . S
C137 O150 1.263 . S
O138 Tb128 2.325 . S
O138 C148 1.236 . S
O139 Tb129 2.322 . S
O139 C148 1.257 1_556 S
O140 Tb129 2.349 1_554 S
O140 C151 1.261 . S
O141 Tb128 2.303 . S
O141 C151 1.257 . S
O142 Tb129 2.415 1_565 S
O142 C158 1.239 . S
O143 Tb129 2.399 1_565 S
O143 C158 1.263 . S
O144 Tb129 2.325 1_564 S
O144 C159 1.236 . S
O145 Tb128 2.322 1_565 S
O145 C159 1.257 . S
O146 Tb128 2.349 1_565 S
O146 C130 1.261 1_554 S
O147 Tb129 2.303 1_565 S
O147 C130 1.257 . S
C148 O138 1.236 . S
C148 O139 1.257 1_554 S
O149 Tb128 2.415 . S
O149 C137 1.239 . S
O150 Tb128 2.399 . S
O150 C137 1.263 . S
C151 O140 1.261 . S
C151 O141 1.257 . S
C152 C155 1.358 . S
C152 C156 1.332 . S
C152 C158 1.504 . S
C153 C154 1.373 . S
C153 C157 1.308 . S
C154 C153 1.373 . S
C154 C155 1.429 . S
C154 H164 0.932 . S
C155 C152 1.358 . S
C155 C154 1.429 . S
C155 H165 0.930 . S
C156 C152 1.332 . S
C156 C157 1.394 . S
C156 H166 0.932 . S
C157 C153 1.308 . S
C157 C156 1.394 . S
C157 H167 0.929 . S
C158 Tb129 2.764 1_565 S
C158 O142 1.239 . S
C158 O143 1.263 . S
C158 C152 1.504 . S
C159 O144 1.236 . S
C159 O145 1.257 . S
H160 C133 0.932 1_455 S
H161 C134 0.930 . S
H162 C135 0.932 . S
H163 C136 0.929 . S
H164 C154 0.932 . S
H165 C155 0.930 . S
H166 C156 0.932 . S
H167 C157 0.929 . S
Tb168 C177 2.764 . S
Tb168 O178 2.325 . S
Tb168 O181 2.303 . S
Tb168 O185 2.322 . S
Tb168 O186 2.349 . S
Tb168 O189 2.415 . S
Tb168 O190 2.399 . S
Tb169 O179 2.322 . S
Tb169 O180 2.349 . S
Tb169 O182 2.415 . S
Tb169 O183 2.399 . S
Tb169 O184 2.325 . S
Tb169 O187 2.303 . S
Tb169 C198 2.764 . S
C170 O186 1.261 . S
C170 O187 1.257 . S
C171 C174 1.358 . S
C171 C175 1.332 . S
C171 C177 1.504 . S
C172 C173 1.373 . S
C172 C176 1.308 . S
C173 C172 1.373 . S
C173 C174 1.429 . S
C173 H200 0.932 . S
C174 C171 1.358 . S
C174 C173 1.429 . S
C174 H201 0.930 . S
C175 C171 1.332 . S
C175 C176 1.394 . S
C175 H202 0.932 . S
C176 C172 1.308 . S
C176 C175 1.394 . S
C176 H203 0.929 . S
C177 Tb168 2.764 . S
C177 C171 1.504 . S
C177 O189 1.239 . S
C177 O190 1.263 . S
O178 Tb168 2.325 . S
O178 C188 1.236 . S
O179 Tb169 2.322 . S
O179 C188 1.257 . S
O180 Tb169 2.349 . S
O180 C191 1.261 . S
O181 Tb168 2.303 . S
O181 C191 1.257 . S
O182 Tb169 2.415 . S
O182 C198 1.239 . S
O183 Tb169 2.399 . S
O183 C198 1.263 . S
O184 Tb169 2.325 . S
O184 C199 1.236 . S
O185 Tb168 2.322 . S
O185 C199 1.257 . S
O186 Tb168 2.349 . S
O186 C170 1.261 . S
O187 Tb169 2.303 . S
O187 C170 1.257 . S
C188 O178 1.236 . S
C188 O179 1.257 . S
O189 Tb168 2.415 . S
O189 C177 1.239 . S
O190 Tb168 2.399 . S
O190 C177 1.263 . S
C191 O180 1.261 . S
C191 O181 1.257 . S
C192 C195 1.358 . S
C192 C196 1.332 . S
C192 C198 1.504 . S
C193 C194 1.373 . S
C193 C197 1.308 . S
C194 C193 1.373 . S
C194 C195 1.429 . S
C194 H204 0.932 . S
C195 C192 1.358 . S
C195 C194 1.429 . S
C195 H205 0.930 . S
C196 C192 1.332 . S
C196 C197 1.394 . S
C196 H206 0.932 . S
C197 C193 1.308 . S
C197 C196 1.394 . S
C197 H207 0.929 . S
C198 Tb169 2.764 . S
C198 O182 1.239 . S
C198 O183 1.263 . S
C198 C192 1.504 . S
C199 O184 1.236 . S
C199 O185 1.257 . S
H200 C173 0.932 . S
H201 C174 0.930 . S
H202 C175 0.932 . S
H203 C176 0.929 . S
H204 C194 0.932 . S
H205 C195 0.930 . S
H206 C196 0.932 . S
H207 C197 0.929 . S
Tb208 C217 2.764 1_455 S
Tb208 O218 2.325 1_455 S
Tb208 O221 2.303 1_556 S
Tb208 O225 2.322 1_556 S
Tb208 O226 2.349 . S
Tb208 O229 2.415 1_455 S
Tb208 O230 2.399 1_455 S
Tb209 O219 2.322 1_455 S
Tb209 O220 2.349 1_455 S
Tb209 O222 2.415 . S
Tb209 O223 2.399 . S
Tb209 O224 2.325 . S
Tb209 O227 2.303 1_554 S
Tb209 C238 2.764 . S
C210 O226 1.261 . S
C210 O227 1.257 . S
C211 C214 1.358 . S
C211 C215 1.332 . S
C211 C217 1.504 . S
C212 C213 1.373 . S
C212 C216 1.308 . S
C213 C212 1.373 . S
C213 C214 1.429 . S
C213 H240 0.932 . S
C214 C211 1.358 . S
C214 C213 1.429 . S
C214 H241 0.930 . S
C215 C211 1.332 . S
C215 C216 1.394 . S
C215 H242 0.932 . S
C216 C212 1.308 . S
C216 C215 1.394 . S
C216 H243 0.929 . S
C217 Tb208 2.764 1_655 S
C217 C211 1.504 . S
C217 O229 1.239 . S
C217 O230 1.263 . S
O218 Tb208 2.325 1_655 S
O218 C228 1.236 . S
O219 Tb209 2.322 1_655 S
O219 C228 1.257 1_554 S
O220 Tb209 2.349 1_655 S
O220 C231 1.261 . S
O221 Tb208 2.303 1_554 S
O221 C231 1.257 1_455 S
O222 Tb209 2.415 . S
O222 C238 1.239 . S
O223 Tb209 2.399 . S
O223 C238 1.263 . S
O224 Tb209 2.325 . S
O224 C239 1.236 . S
O225 Tb208 2.322 1_554 S
O225 C239 1.257 . S
O226 Tb208 2.349 . S
O226 C210 1.261 . S
O227 Tb209 2.303 1_556 S
O227 C210 1.257 . S
C228 O218 1.236 . S
C228 O219 1.257 1_556 S
O229 Tb208 2.415 1_655 S
O229 C217 1.239 . S
O230 Tb208 2.399 1_655 S
O230 C217 1.263 . S
C231 O220 1.261 . S
C231 O221 1.257 1_655 S
C232 C235 1.358 . S
C232 C236 1.332 . S
C232 C238 1.504 . S
C233 C234 1.373 . S
C233 C237 1.308 . S
C234 C233 1.373 . S
C234 C235 1.429 . S
C234 H244 0.932 . S
C235 C232 1.358 . S
C235 C234 1.429 . S
C235 H245 0.930 . S
C236 C232 1.332 . S
C236 C237 1.394 . S
C236 H246 0.932 . S
C237 C233 1.308 . S
C237 C236 1.394 . S
C237 H247 0.929 . S
C238 Tb209 2.764 . S
C238 O222 1.239 . S
C238 O223 1.263 . S
C238 C232 1.504 . S
C239 O224 1.236 . S
C239 O225 1.257 . S
H240 C213 0.932 . S
H241 C214 0.930 . S
H242 C215 0.932 . S
H243 C216 0.929 . S
H244 C234 0.932 . S
H245 C235 0.930 . S
H246 C236 0.932 . S
H247 C237 0.929 . S
C4 C92 1.237 . S
C16 C153 1.521 . S
C191 C32 3.352 . S
C43 C231 3.460 . S
C151 C5 2.341 . S
C119 C21 2.884 1_455 S
C228 C27 2.606 . S
C188 C37 2.599 . S
C10 C233 2.121 . S
C148 C26 3.879 1_554 S
C38 C90 2.933 . S
C15 C193 2.837 . S
C113 C48 0.896 . S
C59 C132 1.592 . S
C76 C170 3.639 . S
C87 C210 3.359 . S
C54 C130 2.722 . S
C108 C60 2.913 1_655 S
C239 C71 2.600 . S
C199 C82 2.712 . S
C49 C212 2.975 . S
C159 C70 3.025 . S
C111 C81 3.657 . S
C65 C172 2.086 . S
