# Generated by pormake.
# Topology pth, (4,4)-cn, num edge types: 1
# Building blocks:
#     Node 0, Type 0, BuildingBlock: AZAVOO_clean_sbu_0, # of connection points: 4
#     Node 1, Type 0, BuildingBlock: AZAVOO_clean_sbu_0, # of connection points: 4
#     Node 2, Type 0, BuildingBlock: AZAVOO_clean_sbu_0, # of connection points: 4
#     Node 3, Type 1, BuildingBlock: NAHDIM_clean_linker_0, # of connection points: 4
#     Node 4, Type 1, BuildingBlock: NAHDIM_clean_linker_0, # of connection points: 4
#     Node 5, Type 1, BuildingBlock: NAHDIM_clean_linker_0, # of connection points: 4
#     Edge 6, Type (0, 1), BuildingBlock: XIVTED_clean_linker_0, # of connection points: 2
#     Edge 7, Type (0, 1), BuildingBlock: XIVTED_clean_linker_0, # of connection points: 2
#     Edge 8, Type (0, 1), BuildingBlock: XIVTED_clean_linker_0, # of connection points: 2
#     Edge 9, Type (0, 1), BuildingBlock: XIVTED_clean_linker_0, # of connection points: 2
#     Edge 10, Type (0, 1), BuildingBlock: XIVTED_clean_linker_0, # of connection points: 2
#     Edge 11, Type (0, 1), BuildingBlock: XIVTED_clean_linker_0, # of connection points: 2
#     Edge 12, Type (0, 1), BuildingBlock: XIVTED_clean_linker_0, # of connection points: 2
#     Edge 13, Type (0, 1), BuildingBlock: XIVTED_clean_linker_0, # of connection points: 2
#     Edge 14, Type (0, 1), BuildingBlock: XIVTED_clean_linker_0, # of connection points: 2
#     Edge 15, Type (0, 1), BuildingBlock: XIVTED_clean_linker_0, # of connection points: 2
#     Edge 16, Type (0, 1), BuildingBlock: XIVTED_clean_linker_0, # of connection points: 2
#     Edge 17, Type (0, 1), BuildingBlock: XIVTED_clean_linker_0, # of connection points: 2
# Relax obj value: 0.086
# Max RMSD: 0.220
# Mean RMSD: 0.131
data_MOF--net-pth--node1-AZAVOO_clean_sbu_0--node2-NAHDIM_clean_linker_0--edge1-XIVTED_clean_linker_0
_symmetry_space_group_name_H-M    P1
_symmetry_Int_Tables_number       1
_symmetry_cell_setting            triclinic
loop_
_symmetry_equiv_pos_as_xyz
'x, y, z'
_cell_length_a     31.46731
_cell_length_b     32.076944
_cell_length_c     79.580197
_cell_angle_alpha  90.415824
_cell_angle_beta   93.205065
_cell_angle_gamma 121.92818
loop_
_atom_site_label
_atom_site_type_symbol
_atom_site_fract_x
_atom_site_fract_y
_atom_site_fract_z
_atom_type_partial_charge
Mg0 Mg 0.13502 0.11444 0.0436 0.0
O1 O 0.06203 0.06258 0.02763 0.0
O2 O 0.03855 0.10765 0.01342 0.0
Mg3 Mg 0.09657 0.18869 0.02016 0.0
C4 C 0.03179 0.06609 0.01724 0.0
C5 C 0.11052 0.00775 0.05239 0.0
O6 O 0.10387 0.00038 0.03594 0.0
O7 O 0.09339 0.13169 0.06242 0.0
O8 O 0.07572 0.18012 0.04752 0.0
O9 O 0.18012 0.12121 0.02141 0.0
O10 O 0.15297 0.17015 0.0272 0.0
C11 C 0.07561 0.15941 0.06119 0.0
C12 C 0.17601 0.15807 0.01739 0.0
O13 O 0.12411 0.04981 0.05877 0.0
Mg14 Mg 0.98327 0.05245 0.35954 0.0
O15 O 0.04928 0.0681 0.37795 0.0
O16 O 0.07954 0.14078 0.39134 0.0
Mg17 Mg 0.03374 0.17263 0.38103 0.0
C18 C 0.08018 0.10182 0.3887 0.0
C19 C 0.95855 0.96614 0.33427 0.0
O20 O 0.92861 0.97924 0.32741 0.0
O21 O 0.03657 0.10678 0.34117 0.0
O22 O 0.06346 0.1785 0.35492 0.0
O23 O 0.93086 0.02004 0.38031 0.0
O24 O 0.96997 0.09812 0.37391 0.0
C25 C 0.06256 0.15375 0.3421 0.0
C26 C 0.94095 0.06413 0.38356 0.0
O27 O 0.98589 0.98932 0.34751 0.0
Mg28 Mg 0.9826 0.01397 0.69237 0.0
O29 O 0.03925 0.07652 0.71065 0.0
O30 O 0.00091 0.08843 0.73119 0.0
Mg31 Mg 0.91696 0.03009 0.72611 0.0
C32 C 0.04061 0.09959 0.72397 0.0
C33 C 0.08462 0.04066 0.6809 0.0
O34 O 0.08773 0.03429 0.6971 0.0
O35 O 0.95873 0.0647 0.68117 0.0
O36 O 0.91618 0.06893 0.70205 0.0
O37 O 0.98698 0.95899 0.70809 0.0
O38 O 0.93314 0.98223 0.71138 0.0
C39 C 0.93199 0.07953 0.68728 0.0
C40 C 0.95132 0.95628 0.71631 0.0
O41 O 0.04437 0.03568 0.67425 0.0
C42 C 0.8993 0.62078 0.30056 0.0
C43 C 0.94145 0.66188 0.29112 0.0
C44 C 0.95299 0.63543 0.26401 0.0
C45 C 0.0054 0.65949 0.2644 0.0
C46 C 0.0283 0.64118 0.25464 0.0
C47 C 0.99799 0.59773 0.24442 0.0
C48 C 0.94507 0.57431 0.24363 0.0
C49 C 0.92329 0.5941 0.25324 0.0
C50 C 0.08482 0.66773 0.2555 0.0
C51 C 0.91151 0.52765 0.23303 0.0
C52 C 0.10262 0.32236 0.27391 0.0
C53 C 0.09903 0.35307 0.26087 0.0
C54 C 0.09742 0.42879 0.26107 0.0
C55 C 0.04874 0.40922 0.25352 0.0
C56 C 0.03398 0.44021 0.24666 0.0
C57 C 0.06841 0.49168 0.24749 0.0
C58 C 0.11606 0.51159 0.25617 0.0
C59 C 0.12981 0.47977 0.26295 0.0
C60 C 0.98234 0.41787 0.23786 0.0
C61 C 0.1533 0.56633 0.25754 0.0
C62 C 0.14862 0.45773 0.1524 0.0
C63 C 0.09654 0.43418 0.1534 0.0
C64 C 0.07462 0.46154 0.15662 0.0
C65 C 0.10564 0.51325 0.15921 0.0
C66 C 0.15748 0.53724 0.15679 0.0
C67 C 0.17822 0.50902 0.1532 0.0
C68 C 0.01882 0.43489 0.15839 0.0
C69 C 0.19149 0.59231 0.15919 0.0
C70 C 0.92562 0.72123 0.13279 0.0
C71 C 0.97884 0.73192 0.13172 0.0
C72 C 0.99582 0.66657 0.13516 0.0
C73 C 0.96785 0.61535 0.13541 0.0
C74 C 0.98512 0.59021 0.14512 0.0
C75 C 0.0323 0.61713 0.15438 0.0
C76 C 0.0621 0.66889 0.15337 0.0
C77 C 0.04334 0.69315 0.14385 0.0
C78 C 0.9525 0.53498 0.14575 0.0
C79 C 0.11344 0.69855 0.1625 0.0
C80 C 0.02155 0.57509 0.23548 0.0
C81 C 0.03508 0.54652 0.24483 0.0
C82 C 0.0571 0.52371 0.23733 0.0
C83 C 0.0664 0.5297 0.22009 0.0
C84 C 0.08961 0.50812 0.21231 0.0
C85 C 0.09694 0.51247 0.19525 0.0
C86 C 0.08091 0.53816 0.18518 0.0
C87 C 0.08588 0.5404 0.16762 0.0
C88 C 0.07058 0.567 0.15797 0.0
C89 C 0.04968 0.59117 0.16544 0.0
C90 C 0.04362 0.5886 0.183 0.0
C91 C 0.02206 0.61171 0.19095 0.0
C92 C 0.01564 0.6082 0.20818 0.0
C93 C 0.02958 0.58061 0.21809 0.0
C94 C 0.05188 0.55756 0.21037 0.0
C95 C 0.05907 0.5617 0.19285 0.0
C96 C 0.20218 0.38714 0.16445 0.0
C97 C 0.15575 0.38621 0.15697 0.0
O98 O 0.93021 0.65126 0.27393 0.0
O99 O 0.97602 0.68922 0.12639 0.0
O100 O 0.17168 0.4323 0.15087 0.0
O101 O 0.11451 0.40015 0.26683 0.0
H102 H 0.97662 0.66321 0.2952 0.0
H103 H 0.89588 0.58527 0.29743 0.0
H104 H 0.86284 0.61722 0.29695 0.0
H105 H 0.90762 0.62837 0.31439 0.0
H106 H 0.02834 0.69252 0.27234 0.0
H107 H 0.88282 0.57626 0.25291 0.0
H108 H 0.09704 0.64496 0.26204 0.0
H109 H 0.103 0.70404 0.26237 0.0
H110 H 0.09813 0.67323 0.24259 0.0
H111 H 0.87109 0.5122 0.23469 0.0
H112 H 0.92066 0.49956 0.23634 0.0
H113 H 0.9181 0.53512 0.21952 0.0
H114 H 0.06508 0.3346 0.25195 0.0
H115 H 0.06301 0.29006 0.27475 0.0
H116 H 0.10403 0.33972 0.28651 0.0
H117 H 0.16415 0.31262 0.266 0.0
H118 H 0.02211 0.36997 0.25288 0.0
H119 H 0.16681 0.49456 0.26919 0.0
H120 H 0.98575 0.42262 0.22409 0.0
H121 H 0.96395 0.43707 0.24225 0.0
H122 H 0.95791 0.37801 0.24003 0.0
H123 H 0.18751 0.5762 0.26564 0.0
H124 H 0.1356 0.58526 0.26278 0.0
H125 H 0.16458 0.58018 0.24479 0.0
H126 H 0.13063 0.37832 0.1674 0.0
H127 H 0.07313 0.39448 0.15205 0.0
H128 H 0.21822 0.52681 0.15197 0.0
H129 H 0.01173 0.43233 0.17196 0.0
H130 H 0.99885 0.39703 0.1526 0.0
H131 H 0.0029 0.45541 0.15246 0.0
H132 H 0.23028 0.60565 0.15575 0.0
H133 H 0.19303 0.60339 0.17257 0.0
H134 H 0.17618 0.61062 0.15139 0.0
H135 H 0.99757 0.74408 0.14466 0.0
H136 H 0.92681 0.75486 0.13715 0.0
H137 H 0.90557 0.69224 0.14195 0.0
H138 H 0.90421 0.70821 0.12032 0.0
H139 H 0.93157 0.59522 0.12841 0.0
H140 H 0.06581 0.73277 0.14313 0.0
H141 H 0.94663 0.52409 0.15904 0.0
H142 H 0.97168 0.51802 0.14015 0.0
H143 H 0.91532 0.51989 0.1388 0.0
H144 H 0.13421 0.73749 0.15886 0.0
H145 H 0.13594 0.68212 0.15983 0.0
H146 H 0.10956 0.69779 0.17629 0.0
H147 H 0.02795 0.5416 0.25807 0.0
H148 H 0.10229 0.48738 0.21929 0.0
H149 H 0.11504 0.49495 0.19008 0.0
H150 H 0.07434 0.56837 0.14449 0.0
H151 H 0.00978 0.63271 0.18393 0.0
H152 H 0.99898 0.62683 0.21362 0.0
H153 H 0.22774 0.3926 0.15445 0.0
H154 H 0.19146 0.35243 0.17073 0.0
H155 H 0.22285 0.41786 0.17406 0.0
C156 C 0.35113 0.99505 0.62806 0.0
C157 C 0.3578 0.04312 0.62187 0.0
C158 C 0.39285 0.05721 0.59497 0.0
C159 C 0.42311 0.10708 0.59181 0.0
C160 C 0.46529 0.12416 0.58239 0.0
C161 C 0.47749 0.09043 0.57629 0.0
C162 C 0.44663 0.03984 0.57948 0.0
C163 C 0.4041 0.02374 0.58861 0.0
C164 C 0.49689 0.17818 0.57905 0.0
C165 C 0.45886 0.0029 0.57344 0.0
C166 C 0.86113 0.32373 0.61822 0.0
C167 C 0.81958 0.26932 0.61749 0.0
C168 C 0.75954 0.22678 0.59396 0.0
C169 C 0.7306 0.17558 0.59448 0.0
C170 C 0.68203 0.14882 0.58649 0.0
C171 C 0.6625 0.17422 0.57784 0.0
C172 C 0.69146 0.22626 0.57775 0.0
C173 C 0.73998 0.25193 0.58573 0.0
C174 C 0.65218 0.09349 0.58684 0.0
C175 C 0.67173 0.25467 0.56884 0.0
C176 C 0.74699 0.16862 0.47912 0.0
C177 C 0.71228 0.11834 0.481 0.0
C178 C 0.66351 0.10197 0.48549 0.0
C179 C 0.6492 0.13649 0.48792 0.0
C180 C 0.68253 0.18636 0.48443 0.0
C181 C 0.73109 0.20175 0.48002 0.0
C182 C 0.62824 0.04826 0.4886 0.0
C183 C 0.66801 0.22393 0.48649 0.0
C184 C 0.25064 0.9845 0.47696 0.0
C185 C 0.29018 0.0313 0.4689 0.0
C186 C 0.37195 0.04086 0.46865 0.0
C187 C 0.38918 0.00889 0.47057 0.0
C188 C 0.43625 0.02491 0.47885 0.0
C189 C 0.46699 0.0744 0.48495 0.0
C190 C 0.45107 0.1077 0.48195 0.0
C191 C 0.40353 0.09048 0.47388 0.0
C192 C 0.45234 0.98863 0.48165 0.0
C193 C 0.48366 0.16116 0.48769 0.0
C194 C 0.52285 0.10804 0.56677 0.0
C195 C 0.56953 0.13032 0.5759 0.0
C196 C 0.61358 0.14661 0.56777 0.0
C197 C 0.61106 0.13908 0.55013 0.0
C198 C 0.65431 0.15241 0.54171 0.0
C199 C 0.65181 0.14624 0.52433 0.0
C200 C 0.60607 0.12716 0.5146 0.0
C201 C 0.60355 0.12226 0.49684 0.0
C202 C 0.55784 0.10449 0.48749 0.0
C203 C 0.51401 0.09064 0.4955 0.0
C204 C 0.51556 0.09389 0.51331 0.0
C205 C 0.472 0.07898 0.52183 0.0
C206 C 0.47418 0.08336 0.53932 0.0
C207 C 0.52001 0.10293 0.54899 0.0
C208 C 0.56428 0.11809 0.54068 0.0
C209 C 0.56192 0.11288 0.52285 0.0
C210 C 0.87119 0.20512 0.49218 0.0
C211 C 0.82381 0.16633 0.48179 0.0
O212 O 0.35311 0.04136 0.60443 0.0
O213 O 0.32456 0.0229 0.46192 0.0
O214 O 0.79606 0.18676 0.47672 0.0
O215 O 0.8072 0.25197 0.60088 0.0
H216 H 0.39602 0.07391 0.62648 0.0
H217 H 0.38124 0.99035 0.62363 0.0
H218 H 0.31416 0.9631 0.62321 0.0
H219 H 0.35362 0.99564 0.64206 0.0
H220 H 0.41367 0.13249 0.59679 0.0
H221 H 0.38005 0.98515 0.59112 0.0
H222 H 0.53419 0.1945 0.58602 0.0
H223 H 0.47929 0.19856 0.58303 0.0
H224 H 0.50312 0.18323 0.56542 0.0
H225 H 0.43432 0.96606 0.57855 0.0
H226 H 0.49861 0.01581 0.57719 0.0
H227 H 0.4541 0.99915 0.55949 0.0
H228 H 0.78655 0.2665 0.62318 0.0
H229 H 0.87145 0.33835 0.6315 0.0
H230 H 0.84778 0.34495 0.6112 0.0
H231 H 0.89501 0.32916 0.61248 0.0
H232 H 0.74648 0.15672 0.60092 0.0
H233 H 0.76305 0.29165 0.58545 0.0
H234 H 0.64262 0.07737 0.57376 0.0
H235 H 0.61636 0.08089 0.59272 0.0
H236 H 0.67293 0.07925 0.59397 0.0
H237 H 0.69578 0.2948 0.57192 0.0
H238 H 0.63296 0.24143 0.57227 0.0
H239 H 0.67023 0.24856 0.55502 0.0
H240 H 0.80282 0.13545 0.49025 0.0
H241 H 0.72333 0.09193 0.47932 0.0
H242 H 0.75774 0.24027 0.47809 0.0
H243 H 0.62228 0.04373 0.50225 0.0
H244 H 0.64299 0.02534 0.48455 0.0
H245 H 0.59114 0.03454 0.48178 0.0
H246 H 0.69529 0.25958 0.48116 0.0
H247 H 0.66631 0.23037 0.5001 0.0
H248 H 0.63015 0.21 0.48026 0.0
H249 H 0.30871 0.06036 0.4792 0.0
H250 H 0.22245 0.99034 0.4825 0.0
H251 H 0.26896 0.97475 0.48718 0.0
H252 H 0.23115 0.9532 0.46752 0.0
H253 H 0.36474 0.97082 0.4662 0.0
H254 H 0.39081 0.1156 0.47177 0.0
H255 H 0.45918 0.98633 0.49536 0.0
H256 H 0.48817 0.00152 0.47574 0.0
H257 H 0.42382 0.95127 0.47631 0.0
H258 H 0.469 0.18349 0.48242 0.0
H259 H 0.52255 0.1767 0.48392 0.0
H260 H 0.48545 0.16437 0.50165 0.0
H261 H 0.57166 0.13551 0.58948 0.0
H262 H 0.69065 0.16767 0.54847 0.0
H263 H 0.68648 0.1572 0.51863 0.0
H264 H 0.55644 0.1018 0.47385 0.0
H265 H 0.43566 0.06375 0.51507 0.0
H266 H 0.4395 0.07159 0.54515 0.0
H267 H 0.89429 0.18972 0.49631 0.0
H268 H 0.8606 0.21677 0.50358 0.0
H269 H 0.89407 0.23803 0.48476 0.0
C270 C 0.78542 0.62679 0.77734 0.0
C271 C 0.76993 0.66121 0.78419 0.0
C272 C 0.73592 0.64843 0.81141 0.0
C273 C 0.70359 0.66588 0.80922 0.0
C274 C 0.66029 0.64638 0.81817 0.0
C275 C 0.64885 0.60805 0.82927 0.0
C276 C 0.68263 0.59178 0.83195 0.0
C277 C 0.72642 0.61307 0.8232 0.0
C278 C 0.62595 0.66557 0.81531 0.0
C279 C 0.67138 0.55031 0.84339 0.0
C280 C 0.29491 0.31183 0.76899 0.0
C281 C 0.34537 0.35128 0.77583 0.0
C282 C 0.38579 0.41232 0.79898 0.0
C283 C 0.42124 0.40175 0.80554 0.0
C284 C 0.4625 0.43612 0.8162 0.0
C285 C 0.46847 0.48203 0.82028 0.0
C286 C 0.43285 0.49282 0.8136 0.0
C287 C 0.39144 0.45736 0.80325 0.0
C288 C 0.49914 0.42299 0.8234 0.0
C289 C 0.43824 0.54154 0.81755 0.0
C290 C 0.33834 0.4218 0.9125 0.0
C291 C 0.37725 0.41267 0.91488 0.0
C292 C 0.42723 0.45011 0.913 0.0
C293 C 0.43832 0.49745 0.90873 0.0
C294 C 0.39988 0.50787 0.90806 0.0
C295 C 0.35024 0.46977 0.91 0.0
C296 C 0.46768 0.43824 0.91435 0.0
C297 C 0.41064 0.55825 0.90395 0.0
C298 C 0.81547 0.7721 0.92977 0.0
C299 C 0.78218 0.78369 0.9396 0.0
C300 C 0.70145 0.70695 0.93743 0.0
C301 C 0.68775 0.65783 0.9372 0.0
C302 C 0.64559 0.62189 0.92721 0.0
C303 C 0.61594 0.63554 0.9176 0.0
C304 C 0.62802 0.68475 0.91861 0.0
C305 C 0.67084 0.72004 0.92849 0.0
C306 C 0.63355 0.56969 0.92654 0.0
C307 C 0.59627 0.70024 0.90898 0.0
C308 C 0.59928 0.58139 0.8366 0.0
C309 C 0.55789 0.54741 0.826 0.0
C310 C 0.51065 0.5178 0.83216 0.0
C311 C 0.50435 0.52151 0.84943 0.0
C312 C 0.45785 0.49063 0.85617 0.0
C313 C 0.45201 0.49413 0.87317 0.0
C314 C 0.49242 0.52876 0.88416 0.0
C315 C 0.48678 0.532 0.90154 0.0
C316 C 0.52737 0.56716 0.91212 0.0
C317 C 0.57408 0.59905 0.90577 0.0
C318 C 0.58067 0.59566 0.88845 0.0
C319 C 0.62735 0.62633 0.88168 0.0
C320 C 0.63348 0.62218 0.86467 0.0
C321 C 0.59324 0.58709 0.85378 0.0
C322 C 0.54568 0.55654 0.86025 0.0
C323 C 0.53955 0.56048 0.87762 0.0
C324 C 0.21905 0.31315 0.89892 0.0
C325 C 0.26908 0.33547 0.90938 0.0
O326 O 0.775 0.66341 0.80163 0.0
O327 O 0.74449 0.74106 0.94627 0.0
O328 O 0.28907 0.38545 0.91205 0.0
O329 O 0.3448 0.37915 0.7891 0.0
H330 H 0.72975 0.64443 0.77962 0.0
H331 H 0.75935 0.58885 0.78134 0.0
H332 H 0.82403 0.63834 0.78221 0.0
H333 H 0.78356 0.62616 0.76334 0.0
H334 H 0.71184 0.6941 0.80028 0.0
H335 H 0.75199 0.6002 0.8248 0.0
H336 H 0.5919 0.63811 0.80747 0.0
H337 H 0.64432 0.70079 0.80875 0.0
H338 H 0.61368 0.67114 0.8275 0.0
H339 H 0.69889 0.53874 0.84273 0.0
H340 H 0.63318 0.518 0.84002 0.0
H341 H 0.67229 0.56213 0.85661 0.0
H342 H 0.37407 0.34104 0.77726 0.0
H343 H 0.28768 0.33661 0.74333 0.0
H344 H 0.26828 0.30499 0.77906 0.0
H345 H 0.29379 0.27638 0.77078 0.0
H346 H 0.41598 0.36616 0.80278 0.0
H347 H 0.3635 0.46487 0.79826 0.0
H348 H 0.50245 0.42717 0.83737 0.0
H349 H 0.53686 0.44862 0.81891 0.0
H350 H 0.48773 0.38477 0.81975 0.0
H351 H 0.41079 0.54642 0.80981 0.0
H352 H 0.47678 0.57222 0.81535 0.0
H353 H 0.43228 0.544 0.83104 0.0
H354 H 0.29404 0.32907 0.90184 0.0
H355 H 0.36873 0.37615 0.91767 0.0
H356 H 0.32009 0.47674 0.90864 0.0
H357 H 0.47983 0.43728 0.90159 0.0
H358 H 0.4545 0.40213 0.91998 0.0
H359 H 0.50095 0.46729 0.92211 0.0
H360 H 0.37849 0.56235 0.90622 0.0
H361 H 0.41865 0.56464 0.89048 0.0
H362 H 0.44439 0.58697 0.91162 0.0
H363 H 0.76574 0.79887 0.93069 0.0
H364 H 0.84617 0.80608 0.9245 0.0
H365 H 0.79282 0.74543 0.91913 0.0
H366 H 0.83211 0.75586 0.93805 0.0
H367 H 0.71131 0.64808 0.94438 0.0
H368 H 0.68034 0.75778 0.92922 0.0
H369 H 0.63302 0.55795 0.91333 0.0
H370 H 0.59558 0.54478 0.93098 0.0
H371 H 0.66111 0.56531 0.93442 0.0
H372 H 0.60748 0.73848 0.91251 0.0
H373 H 0.55608 0.675 0.91129 0.0
H374 H 0.6 0.69783 0.89527 0.0
H375 H 0.5627 0.54333 0.81282 0.0
H376 H 0.42541 0.46311 0.84841 0.0
H377 H 0.41523 0.46913 0.87754 0.0
H378 H 0.52266 0.5695 0.92542 0.0
H379 H 0.6598 0.65373 0.88947 0.0
H380 H 0.6702 0.64669 0.86015 0.0
H381 H 0.20235 0.27311 0.89646 0.0
H382 H 0.22514 0.33094 0.88662 0.0
H383 H 0.1922 0.31877 0.90556 0.0
H384 H 0.08831 0.14074 0.09426 0.0
H385 H 0.13768 0.39389 0.12268 0.0
H386 H 0.03714 0.2181 0.06337 0.0
H387 H 0.10998 0.28643 0.1599 0.0
H388 H 0.09965 0.32849 0.10091 0.0
H389 H 0.09273 0.18932 0.11892 0.0
C390 C 0.07664 0.16685 0.0927 0.0
C391 C 0.06375 0.17632 0.07661 0.0
C392 C 0.10134 0.31911 0.11388 0.0
C393 C 0.06976 0.23244 0.10465 0.0
C394 C 0.12342 0.35659 0.12637 0.0
C395 C 0.12819 0.34593 0.14321 0.0
C396 C 0.08492 0.2707 0.1181 0.0
C397 C 0.10816 0.29644 0.14704 0.0
C398 C 0.07931 0.19465 0.10679 0.0
C399 C 0.04858 0.21035 0.07543 0.0
N400 N 0.08839 0.26073 0.13454 0.0
N401 N 0.05328 0.23808 0.08917 0.0
H402 H 0.89162 0.00628 0.40984 0.0
H403 H 0.86108 0.21495 0.45286 0.0
H404 H 0.94584 0.1498 0.39023 0.0
H405 H 0.8194 0.07906 0.47644 0.0
H406 H 0.88762 0.18852 0.42891 0.0
H407 H 0.86046 0.02916 0.43365 0.0
C408 C 0.89701 0.04252 0.41055 0.0
C409 C 0.92172 0.07632 0.39811 0.0
C410 C 0.87247 0.16425 0.43926 0.0
C411 C 0.88608 0.10253 0.42512 0.0
C412 C 0.85716 0.17931 0.45289 0.0
C413 C 0.83763 0.14892 0.46654 0.0
C414 C 0.86849 0.1185 0.43927 0.0
C415 C 0.83392 0.10334 0.46607 0.0
C416 C 0.87929 0.05556 0.42412 0.0
C417 C 0.92759 0.12273 0.39961 0.0
N418 N 0.84922 0.08944 0.45264 0.0
N419 N 0.90991 0.13438 0.41283 0.0
H420 H 0.86479 0.92845 0.73136 0.0
H421 H 0.87327 0.72521 0.78639 0.0
H422 H 0.98853 0.90589 0.7325 0.0
H423 H 0.7362 0.71385 0.76743 0.0
H424 H 0.92144 0.80403 0.77286 0.0
H425 H 0.82339 0.86277 0.75109 0.0
C426 C 0.88368 0.91029 0.73598 0.0
C427 C 0.92991 0.92222 0.73013 0.0
C428 C 0.88082 0.78431 0.77177 0.0
C429 C 0.88272 0.84717 0.75267 0.0
C430 C 0.85335 0.73935 0.77942 0.0
C431 C 0.80065 0.71222 0.77754 0.0
C432 C 0.85537 0.80273 0.76256 0.0
C433 C 0.77675 0.73305 0.76887 0.0
C434 C 0.85989 0.87267 0.74717 0.0
C435 C 0.95265 0.89747 0.73656 0.0
N436 N 0.80428 0.77692 0.7616 0.0
N437 N 0.92865 0.86082 0.74742 0.0
H438 H 0.067 0.90987 0.04355 0.0
H439 H 0.04665 0.82971 0.13931 0.0
H440 H 0.126 0.01191 0.08669 0.0
H441 H 0.97279 0.72643 0.0969 0.0
H442 H 0.085 0.8967 0.11989 0.0
H443 H 0.04113 0.84207 0.06256 0.0
C444 C 0.07494 0.9181 0.057 0.0
C445 C 0.09838 0.96666 0.06354 0.0
C446 C 0.06087 0.85936 0.11479 0.0
C447 C 0.06877 0.88925 0.08534 0.0
C448 C 0.03919 0.82114 0.12588 0.0
C449 C 0.00699 0.77248 0.11969 0.0
C450 C 0.04994 0.84897 0.09735 0.0
C451 C 0.99789 0.76342 0.10216 0.0
C452 C 0.06004 0.87935 0.06784 0.0
C453 C 0.10772 0.97507 0.08107 0.0
N454 N 0.0191 0.80133 0.0916 0.0
N455 N 0.09269 0.93678 0.09135 0.0
H456 H 0.09753 0.02677 0.38577 0.0
H457 H 0.27779 0.10982 0.47012 0.0
H458 H 0.14531 0.16001 0.41515 0.0
H459 H 0.2458 0.98698 0.43763 0.0
H460 H 0.23162 0.13028 0.44957 0.0
H461 H 0.15348 0.01283 0.40402 0.0
C462 C 0.11994 0.05327 0.39599 0.0
C463 C 0.11637 0.09451 0.39897 0.0
C464 C 0.23502 0.09909 0.44683 0.0
C465 C 0.18045 0.07855 0.41998 0.0
C466 C 0.26145 0.08748 0.45855 0.0
C467 C 0.26567 0.04672 0.45554 0.0
C468 C 0.21208 0.06941 0.43205 0.0
C469 C 0.24347 0.01877 0.44039 0.0
C470 C 0.15196 0.04528 0.4064 0.0
C471 C 0.1466 0.12763 0.41238 0.0
N472 N 0.21733 0.03043 0.42926 0.0
N473 N 0.17705 0.11873 0.42244 0.0
H474 H 0.13389 0.12013 0.71731 0.0
H475 H 0.2889 0.40599 0.76898 0.0
H476 H 0.05961 0.1755 0.74571 0.0
H477 H 0.37194 0.3189 0.74445 0.0
H478 H 0.19446 0.31768 0.75811 0.0
H479 H 0.2147 0.19255 0.72678 0.0
C480 C 0.13453 0.1474 0.7256 0.0
C481 C 0.08979 0.14173 0.73069 0.0
C482 C 0.22964 0.3209 0.75589 0.0
C483 C 0.18233 0.22501 0.74141 0.0
C484 C 0.28736 0.37661 0.76166 0.0
C485 C 0.34207 0.36932 0.76029 0.0
C486 C 0.2304 0.27046 0.74646 0.0
C487 C 0.33967 0.32175 0.74613 0.0
C488 C 0.18076 0.18872 0.73102 0.0
C489 C 0.09313 0.17828 0.74152 0.0
N490 N 0.28284 0.27491 0.74203 0.0
N491 N 0.13869 0.21872 0.74641 0.0
H492 H 0.87486 0.11597 0.69625 0.0
H493 H 0.88227 0.23835 0.60833 0.0
H494 H 0.95498 0.10993 0.65488 0.0
H495 H 0.79694 0.23556 0.64932 0.0
H496 H 0.91096 0.19283 0.62509 0.0
H497 H 0.84813 0.16165 0.67924 0.0
C498 C 0.88704 0.12433 0.68359 0.0
C499 C 0.91727 0.10889 0.67701 0.0
C500 C 0.88579 0.20198 0.63039 0.0
C501 C 0.8864 0.1615 0.65735 0.0
C502 C 0.86934 0.22778 0.62082 0.0
C503 C 0.83659 0.24001 0.62739 0.0
C504 C 0.86975 0.18873 0.64669 0.0
C505 C 0.82166 0.22631 0.64373 0.0
C506 C 0.8716 0.15045 0.67385 0.0
C507 C 0.9317 0.12101 0.66049 0.0
N508 N 0.83828 0.20137 0.6528 0.0
N509 N 0.91608 0.14658 0.65121 0.0
H510 H 0.0066 0.97062 0.02072 0.0
H511 H 0.81645 0.77188 0.97089 0.0
H512 H 0.96142 0.05829 0.99334 0.0
H513 H 0.82071 0.88285 0.93952 0.0
H514 H 0.87197 0.83578 0.99221 0.0
H515 H 0.94313 0.89834 0.00396 0.0
C516 C 0.98277 0.97457 0.01136 0.0
C517 C 0.98969 0.02084 0.00843 0.0
C518 C 0.86127 0.84651 0.98066 0.0
C519 C 0.91568 0.93751 0.98922 0.0
C520 C 0.82894 0.8098 0.96858 0.0
C521 C 0.81352 0.82208 0.95352 0.0
C522 C 0.87902 0.89604 0.97753 0.0
C523 C 0.83128 0.87176 0.95103 0.0
C524 C 0.94602 0.93295 0.00181 0.0
C525 C 0.95769 0.02353 0.99606 0.0
N526 N 0.86301 0.90682 0.96289 0.0
N527 N 0.92248 0.9826 0.98685 0.0
H528 H 0.01811 0.93138 0.34474 0.0
H529 H 0.88557 0.70014 0.27896 0.0
H530 H 0.90086 0.90472 0.30725 0.0
H531 H 0.00921 0.73284 0.31437 0.0
H532 H 0.89211 0.77625 0.28847 0.0
H533 H 0.01689 0.86004 0.3332 0.0
C534 C 0.99218 0.91062 0.33405 0.0
C535 C 0.95937 0.92398 0.327 0.0
C536 C 0.91817 0.76707 0.29404 0.0
C537 C 0.95772 0.84202 0.31372 0.0
C538 C 0.91457 0.72378 0.28856 0.0
C539 C 0.94748 0.71066 0.2957 0.0
C540 C 0.95451 0.79716 0.30691 0.0
C541 C 0.9836 0.74198 0.30838 0.0
C542 C 0.99154 0.86987 0.32744 0.0
C543 C 0.92673 0.89573 0.31311 0.0
N544 N 0.98609 0.78368 0.3136 0.0
N545 N 0.92658 0.85597 0.30698 0.0
H546 H 0.08225 0.02508 0.64673 0.0
H547 H 0.368 0.0958 0.6506 0.0
H548 H 0.18164 0.07645 0.6919 0.0
H549 H 0.25941 0.00696 0.60994 0.0
H550 H 0.30356 0.10269 0.66382 0.0
H551 H 0.15057 0.03211 0.63097 0.0
C552 C 0.11858 0.03846 0.65327 0.0
C553 C 0.12623 0.04977 0.67066 0.0
C554 C 0.29394 0.08217 0.6519 0.0
C555 C 0.20417 0.05794 0.65279 0.0
C556 C 0.33074 0.07845 0.64433 0.0
C557 C 0.31923 0.05144 0.62904 0.0
C558 C 0.24502 0.05844 0.6442 0.0
C559 C 0.27005 0.02879 0.6216 0.0
C560 C 0.15739 0.0422 0.6443 0.0
C561 C 0.17395 0.0668 0.67853 0.0
N562 N 0.23469 0.03276 0.62926 0.0
N563 N 0.21101 0.07023 0.66956 0.0
H564 H 0.1873 0.24544 0.01018 0.0
H565 H 0.2801 0.25842 0.91781 0.0
H566 H 0.2082 0.13325 0.98946 0.0
H567 H 0.23753 0.35493 0.93829 0.0
H568 H 0.26153 0.21536 0.94439 0.0
H569 H 0.21386 0.28953 0.98453 0.0
C570 C 0.19729 0.22985 0.00016 0.0
C571 C 0.1947 0.18509 0.00187 0.0
C572 C 0.25671 0.24622 0.94308 0.0
C573 C 0.22573 0.23604 0.97225 0.0
C574 C 0.26745 0.27084 0.92799 0.0
C575 C 0.26118 0.31077 0.92601 0.0
C576 C 0.23939 0.26166 0.95619 0.0
C577 C 0.24375 0.32491 0.9394 0.0
C578 C 0.21267 0.25527 0.98548 0.0
C579 C 0.20935 0.16749 0.98859 0.0
N580 N 0.23359 0.30045 0.95389 0.0
N581 N 0.22403 0.19294 0.97422 0.0
H582 H 0.04215 0.12065 0.30897 0.0
H583 H 0.20876 0.41851 0.27633 0.0
H584 H 0.13857 0.24977 0.34126 0.0
H585 H 0.07928 0.26516 0.23949 0.0
H586 H 0.19732 0.35026 0.30174 0.0
H587 H 0.07159 0.17172 0.28439 0.0
C588 C 0.07037 0.15944 0.31088 0.0
C589 C 0.08743 0.18115 0.32719 0.0
C590 C 0.17736 0.3369 0.28948 0.0
C591 C 0.12075 0.23941 0.29926 0.0
C592 C 0.18687 0.3792 0.27366 0.0
C593 C 0.13866 0.34962 0.25567 0.0
C594 C 0.13284 0.27266 0.28526 0.0
C595 C 0.10515 0.28246 0.25047 0.0
C596 C 0.08685 0.18856 0.29686 0.0
C597 C 0.12388 0.23164 0.32892 0.0
N598 N 0.10254 0.251 0.26678 0.0
N599 N 0.13893 0.25917 0.31512 0.0
loop_
_geom_bond_atom_site_label_1
_geom_bond_atom_site_label_2
_geom_bond_distance
_geom_bond_site_symmetry_2
_ccdc_geom_bond_type
Mg0 O1 2.028 . S
Mg0 O7 1.986 . S
Mg0 O9 2.114 . S
Mg0 O10 2.251 . S
Mg0 O13 2.010 . S
O1 Mg0 2.028 . S
O1 C4 1.250 . S
O2 Mg3 2.028 . S
O2 C4 1.248 . S
Mg3 O2 2.028 . S
Mg3 O8 2.032 . S
Mg3 O10 2.079 . S
C4 O1 1.250 . S
C4 O2 1.248 . S
C5 O6 1.264 . S
C5 O13 1.249 . S
O6 C5 1.264 . S
O7 Mg0 1.986 . S
O7 C11 1.246 . S
O8 Mg3 2.032 . S
O8 C11 1.259 . S
O9 Mg0 2.114 . S
O9 C12 1.252 . S
O10 Mg0 2.251 . S
O10 Mg3 2.079 . S
O10 C12 1.273 . S
C11 O7 1.246 . S
C11 O8 1.259 . S
C12 O9 1.252 . S
C12 O10 1.273 . S
O13 Mg0 2.010 . S
O13 C5 1.249 . S
Mg14 O15 2.028 1_655 S
Mg14 O21 1.986 1_655 S
Mg14 O23 2.111 1_545 S
Mg14 O24 2.251 . S
Mg14 O27 2.010 1_545 S
O15 Mg14 2.028 1_455 S
O15 C18 1.250 . S
O16 Mg17 2.028 . S
O16 C18 1.248 . S
Mg17 O16 2.028 . S
Mg17 O22 2.032 . S
Mg17 O24 2.079 1_455 S
C18 O15 1.250 . S
C18 O16 1.248 . S
C19 O20 1.264 . S
C19 O27 1.249 . S
O20 C19 1.264 . S
O21 Mg14 1.986 1_455 S
O21 C25 1.246 . S
O22 Mg17 2.032 . S
O22 C25 1.259 . S
O23 Mg14 2.111 1_565 S
O23 C26 1.242 1_565 S
O24 Mg14 2.251 . S
O24 Mg17 2.079 1_655 S
O24 C26 1.273 . S
C25 O21 1.246 . S
C25 O22 1.259 . S
C26 O23 1.242 1_545 S
C26 O24 1.273 . S
O27 Mg14 2.010 1_565 S
O27 C19 1.249 . S
Mg28 O29 2.028 . S
Mg28 O35 1.986 . S
Mg28 O37 2.114 1_545 S
Mg28 O38 2.251 1_455 S
Mg28 O41 2.010 . S
O29 Mg28 2.028 . S
O29 C32 1.250 . S
O30 Mg31 2.028 1_455 S
O30 C32 1.248 . S
Mg31 O30 2.028 1_655 S
Mg31 O36 2.032 . S
Mg31 O38 2.079 . S
C32 O29 1.250 . S
C32 O30 1.248 . S
C33 O34 1.264 1_545 S
C33 O41 1.249 . S
O34 C33 1.264 1_565 S
O35 Mg28 1.986 . S
O35 C39 1.246 1_455 S
O36 Mg31 2.032 . S
O36 C39 1.259 . S
O37 Mg28 2.114 1_565 S
O37 C40 1.252 1_455 S
O38 Mg28 2.251 1_655 S
O38 Mg31 2.079 . S
O38 C40 1.273 1_545 S
C39 O35 1.246 1_655 S
C39 O36 1.259 . S
C40 O37 1.252 1_655 S
C40 O38 1.273 1_565 S
O41 Mg28 2.010 . S
O41 C33 1.249 . S
C42 C43 1.560 1_655 S
C42 H103 0.959 . S
C42 H104 0.959 . S
C42 H105 0.960 . S
C43 C42 1.560 1_455 S
C43 O98 1.426 1_455 S
C43 H102 0.980 . S
C44 C45 1.407 . S
C44 C49 1.418 1_455 S
C44 O98 1.334 1_455 S
C45 C44 1.407 . S
C45 C46 1.360 . S
C45 H106 0.929 . S
C46 C45 1.360 . S
C46 C47 1.401 . S
C46 C50 1.527 . S
C47 C46 1.401 . S
C47 C48 1.405 1_455 S
C47 C80 1.587 . S
C48 C47 1.405 1_655 S
C48 C49 1.332 . S
C48 C51 1.496 . S
C49 C44 1.418 1_655 S
C49 C48 1.332 . S
C49 H107 0.929 . S
C50 C46 1.527 . S
C50 H108 0.959 . S
C50 H109 0.961 . S
C50 H110 0.961 . S
C51 C48 1.496 . S
C51 H111 0.960 . S
C51 H112 0.960 . S
C51 H113 0.961 . S
C52 C53 1.517 . S
C52 H115 0.961 . S
C52 H116 0.960 . S
C52 H117 0.959 . S
C53 C52 1.517 . S
C53 O101 1.468 . S
C53 H114 0.980 . S
C54 C55 1.349 . S
C54 C59 1.367 . S
C54 O101 1.408 . S
C55 C54 1.349 . S
C55 C56 1.407 . S
C55 H118 0.930 . S
C56 C55 1.407 . S
C56 C57 1.449 . S
C56 C60 1.535 1_455 S
C57 C56 1.449 . S
C57 C58 1.384 . S
C57 C82 1.553 . S
C58 C57 1.384 . S
C58 C59 1.364 . S
C58 C61 1.450 . S
C59 C54 1.367 . S
C59 C58 1.364 . S
C59 H119 0.931 . S
C60 C56 1.535 1_655 S
C60 H120 0.959 . S
C60 H121 0.961 . S
C60 H122 0.959 . S
C61 C58 1.450 . S
C61 H123 0.960 . S
C61 H124 0.960 . S
C61 H125 0.960 . S
C62 C63 1.309 . S
C62 C67 1.304 . S
C62 O100 1.435 . S
C63 C62 1.309 . S
C63 C64 1.476 . S
C63 H127 0.930 . S
C64 C63 1.476 . S
C64 C65 1.400 . S
C64 C68 1.567 1_455 S
C65 C64 1.400 . S
C65 C66 1.373 . S
C65 C87 1.432 . S
C66 C65 1.373 . S
C66 C67 1.339 . S
C66 C69 1.530 . S
C67 C62 1.304 . S
C67 C66 1.339 . S
C67 H128 0.930 . S
C68 C64 1.567 1_655 S
C68 H129 0.961 . S
C68 H130 0.960 . S
C68 H131 0.958 . S
C69 C66 1.530 . S
C69 H132 0.961 . S
C69 H133 0.960 . S
C69 H134 0.960 . S
C70 C71 1.530 . S
C70 H136 0.961 . S
C70 H137 0.961 1_455 S
C70 H138 0.959 1_455 S
C71 C70 1.530 . S
C71 O99 1.412 . S
C71 H135 0.980 . S
C72 C73 1.288 1_455 S
C72 C77 1.377 . S
C72 O99 1.393 . S
C73 C72 1.288 1_655 S
C73 C74 1.369 1_655 S
C73 H139 0.932 . S
C74 C73 1.369 1_455 S
C74 C75 1.398 . S
C74 C78 1.527 1_455 S
C75 C74 1.398 . S
C75 C76 1.380 . S
C75 C89 1.497 . S
C76 C75 1.380 . S
C76 C77 1.383 . S
C76 C79 1.603 . S
C77 C72 1.377 . S
C77 C76 1.383 . S
C77 H140 0.929 . S
C78 C74 1.527 1_655 S
C78 H141 0.961 . S
C78 H142 0.959 . S
C78 H143 0.959 . S
C79 C76 1.603 . S
C79 H144 0.960 . S
C79 H145 0.962 . S
C79 H146 0.961 . S
C80 C47 1.587 . S
C80 C81 1.360 . S
C80 C93 1.412 . S
C81 C80 1.360 . S
C81 C82 1.365 . S
C81 H147 0.929 . S
C82 C57 1.553 . S
C82 C81 1.365 . S
C82 C83 1.404 . S
C83 C82 1.404 . S
C83 C84 1.395 . S
C83 C94 1.451 . S
C84 C83 1.395 . S
C84 C85 1.322 . S
C84 H148 0.930 . S
C85 C84 1.322 . S
C85 C86 1.459 . S
C85 H149 0.929 . S
C86 C85 1.459 . S
C86 C87 1.445 . S
C86 C95 1.395 . S
C87 C65 1.432 . S
C87 C86 1.445 . S
C87 C88 1.370 . S
C88 C87 1.370 . S
C88 C89 1.438 . S
C88 H150 0.930 . S
C89 C75 1.497 . S
C89 C88 1.438 . S
C89 C90 1.360 . S
C90 C89 1.360 . S
C90 C91 1.401 . S
C90 C95 1.446 . S
C91 C90 1.401 . S
C91 C92 1.347 . S
C91 H151 0.929 . S
C92 C91 1.347 . S
C92 C93 1.455 . S
C92 H152 0.930 . S
C93 C80 1.412 . S
C93 C92 1.455 . S
C93 C94 1.331 . S
C94 C83 1.451 . S
C94 C93 1.331 . S
C94 C95 1.497 . S
C95 C86 1.395 . S
C95 C90 1.446 . S
C95 C94 1.497 . S
C96 C97 1.582 . S
C96 H153 0.962 . S
C96 H154 0.959 . S
C96 H155 0.958 . S
C97 C96 1.582 . S
C97 O100 1.458 . S
C97 H126 0.980 . S
O98 C43 1.426 1_655 S
O98 C44 1.334 1_655 S
O99 C71 1.412 . S
O99 C72 1.393 . S
O100 C62 1.435 . S
O100 C97 1.458 . S
O101 C53 1.468 . S
O101 C54 1.408 . S
H102 C43 0.980 . S
H103 C42 0.959 . S
H104 C42 0.959 . S
H105 C42 0.960 . S
H106 C45 0.929 . S
H107 C49 0.929 . S
H108 C50 0.959 . S
H109 C50 0.961 . S
H110 C50 0.961 . S
H111 C51 0.960 . S
H112 C51 0.960 . S
H113 C51 0.961 . S
H114 C53 0.980 . S
H115 C52 0.961 . S
H116 C52 0.960 . S
H117 C52 0.959 . S
H118 C55 0.930 . S
H119 C59 0.931 . S
H120 C60 0.959 . S
H121 C60 0.961 . S
H122 C60 0.959 . S
H123 C61 0.960 . S
H124 C61 0.960 . S
H125 C61 0.960 . S
H126 C97 0.980 . S
H127 C63 0.930 . S
H128 C67 0.930 . S
H129 C68 0.961 . S
H130 C68 0.960 . S
H131 C68 0.958 . S
H132 C69 0.961 . S
H133 C69 0.960 . S
H134 C69 0.960 . S
H135 C71 0.980 . S
H136 C70 0.961 . S
H137 C70 0.961 1_655 S
H138 C70 0.959 1_655 S
H139 C73 0.932 . S
H140 C77 0.929 . S
H141 C78 0.961 . S
H142 C78 0.959 . S
H143 C78 0.959 . S
H144 C79 0.960 . S
H145 C79 0.962 . S
H146 C79 0.961 . S
H147 C81 0.929 . S
H148 C84 0.930 . S
H149 C85 0.929 . S
H150 C88 0.930 . S
H151 C91 0.929 . S
H152 C92 0.930 . S
H153 C96 0.962 . S
H154 C96 0.959 . S
H155 C96 0.958 . S
C156 C157 1.560 . S
C156 H217 0.959 . S
C156 H218 0.959 . S
C156 H219 0.960 . S
C157 C156 1.560 . S
C157 O212 1.426 . S
C157 H216 0.980 . S
C158 C159 1.407 . S
C158 C163 1.418 . S
C158 O212 1.334 . S
C159 C158 1.407 . S
C159 C160 1.360 . S
C159 H220 0.929 . S
C160 C159 1.360 . S
C160 C161 1.401 . S
C160 C164 1.527 . S
C161 C160 1.401 . S
C161 C162 1.405 . S
C161 C194 1.587 . S
C162 C161 1.405 . S
C162 C163 1.332 . S
C162 C165 1.496 . S
C163 C158 1.418 . S
C163 C162 1.332 . S
C163 H221 0.929 1_545 S
C164 C160 1.527 . S
C164 H222 0.959 . S
C164 H223 0.961 . S
C164 H224 0.961 . S
C165 C162 1.496 . S
C165 H225 0.960 1_545 S
C165 H226 0.960 . S
C165 H227 0.961 . S
C166 C167 1.517 . S
C166 H229 0.961 . S
C166 H230 0.960 . S
C166 H231 0.959 . S
C167 C166 1.517 . S
C167 O215 1.468 . S
C167 H228 0.980 . S
C168 C169 1.349 . S
C168 C173 1.367 . S
C168 O215 1.408 . S
C169 C168 1.349 . S
C169 C170 1.407 . S
C169 H232 0.930 . S
C170 C169 1.407 . S
C170 C171 1.449 . S
C170 C174 1.535 . S
C171 C170 1.449 . S
C171 C172 1.384 . S
C171 C196 1.553 . S
C172 C171 1.384 . S
C172 C173 1.364 . S
C172 C175 1.450 . S
C173 C168 1.367 . S
C173 C172 1.364 . S
C173 H233 0.931 . S
C174 C170 1.535 . S
C174 H234 0.959 . S
C174 H235 0.961 . S
C174 H236 0.959 . S
C175 C172 1.450 . S
C175 H237 0.960 . S
C175 H238 0.960 . S
C175 H239 0.960 . S
C176 C177 1.309 . S
C176 C181 1.304 . S
C176 O214 1.435 . S
C177 C176 1.309 . S
C177 C178 1.476 . S
C177 H241 0.930 . S
C178 C177 1.476 . S
C178 C179 1.400 . S
C178 C182 1.567 . S
C179 C178 1.400 . S
C179 C180 1.373 . S
C179 C201 1.432 . S
C180 C179 1.373 . S
C180 C181 1.339 . S
C180 C183 1.530 . S
C181 C176 1.304 . S
C181 C180 1.339 . S
C181 H242 0.930 . S
C182 C178 1.567 . S
C182 H243 0.961 . S
C182 H244 0.960 . S
C182 H245 0.958 . S
C183 C180 1.530 . S
C183 H246 0.961 . S
C183 H247 0.960 . S
C183 H248 0.960 . S
C184 C185 1.530 . S
C184 H250 0.961 . S
C184 H251 0.961 . S
C184 H252 0.959 . S
C185 C184 1.530 . S
C185 O213 1.412 . S
C185 H249 0.980 . S
C186 C187 1.288 . S
C186 C191 1.377 . S
C186 O213 1.393 . S
C187 C186 1.288 . S
C187 C188 1.369 . S
C187 H253 0.932 1_545 S
C188 C187 1.369 . S
C188 C189 1.398 . S
C188 C192 1.527 1_545 S
C189 C188 1.398 . S
C189 C190 1.380 . S
C189 C203 1.497 . S
C190 C189 1.380 . S
C190 C191 1.383 . S
C190 C193 1.603 . S
C191 C186 1.377 . S
C191 C190 1.383 . S
C191 H254 0.929 . S
C192 C188 1.527 1_565 S
C192 H255 0.961 1_565 S
C192 H256 0.959 . S
C192 H257 0.959 . S
C193 C190 1.603 . S
C193 H258 0.960 . S
C193 H259 0.962 . S
C193 H260 0.961 . S
C194 C161 1.587 . S
C194 C195 1.360 . S
C194 C207 1.412 . S
C195 C194 1.360 . S
C195 C196 1.365 . S
C195 H261 0.929 . S
C196 C171 1.553 . S
C196 C195 1.365 . S
C196 C197 1.404 . S
C197 C196 1.404 . S
C197 C198 1.395 . S
C197 C208 1.451 . S
C198 C197 1.395 . S
C198 C199 1.322 . S
C198 H262 0.930 . S
C199 C198 1.322 . S
C199 C200 1.459 . S
C199 H263 0.929 . S
C200 C199 1.459 . S
C200 C201 1.445 . S
C200 C209 1.395 . S
C201 C179 1.432 . S
C201 C200 1.445 . S
C201 C202 1.370 . S
C202 C201 1.370 . S
C202 C203 1.438 . S
C202 H264 0.930 . S
C203 C189 1.497 . S
C203 C202 1.438 . S
C203 C204 1.360 . S
C204 C203 1.360 . S
C204 C205 1.401 . S
C204 C209 1.446 . S
C205 C204 1.401 . S
C205 C206 1.347 . S
C205 H265 0.929 . S
C206 C205 1.347 . S
C206 C207 1.455 . S
C206 H266 0.930 . S
C207 C194 1.412 . S
C207 C206 1.455 . S
C207 C208 1.331 . S
C208 C197 1.451 . S
C208 C207 1.331 . S
C208 C209 1.497 . S
C209 C200 1.395 . S
C209 C204 1.446 . S
C209 C208 1.497 . S
C210 C211 1.582 . S
C210 H267 0.962 . S
C210 H268 0.959 . S
C210 H269 0.958 . S
C211 C210 1.582 . S
C211 O214 1.458 . S
C211 H240 0.980 . S
O212 C157 1.426 . S
O212 C158 1.334 . S
O213 C185 1.412 . S
O213 C186 1.393 . S
O214 C176 1.435 . S
O214 C211 1.458 . S
O215 C167 1.468 . S
O215 C168 1.408 . S
H216 C157 0.980 . S
H217 C156 0.959 . S
H218 C156 0.959 . S
H219 C156 0.960 . S
H220 C159 0.929 . S
H221 C163 0.929 1_565 S
H222 C164 0.959 . S
H223 C164 0.961 . S
H224 C164 0.961 . S
H225 C165 0.960 1_565 S
H226 C165 0.960 . S
H227 C165 0.961 . S
H228 C167 0.980 . S
H229 C166 0.961 . S
H230 C166 0.960 . S
H231 C166 0.959 . S
H232 C169 0.930 . S
H233 C173 0.931 . S
H234 C174 0.959 . S
H235 C174 0.961 . S
H236 C174 0.959 . S
H237 C175 0.960 . S
H238 C175 0.960 . S
H239 C175 0.960 . S
H240 C211 0.980 . S
H241 C177 0.930 . S
H242 C181 0.930 . S
H243 C182 0.961 . S
H244 C182 0.960 . S
H245 C182 0.958 . S
H246 C183 0.961 . S
H247 C183 0.960 . S
H248 C183 0.960 . S
H249 C185 0.980 . S
H250 C184 0.961 . S
H251 C184 0.961 . S
H252 C184 0.959 . S
H253 C187 0.932 1_565 S
H254 C191 0.929 . S
H255 C192 0.961 1_545 S
H256 C192 0.959 . S
H257 C192 0.959 . S
H258 C193 0.960 . S
H259 C193 0.962 . S
H260 C193 0.961 . S
H261 C195 0.929 . S
H262 C198 0.930 . S
H263 C199 0.929 . S
H264 C202 0.930 . S
H265 C205 0.929 . S
H266 C206 0.930 . S
H267 C210 0.962 . S
H268 C210 0.959 . S
H269 C210 0.958 . S
C270 C271 1.560 . S
C270 H331 0.959 . S
C270 H332 0.959 . S
C270 H333 0.960 . S
C271 C270 1.560 . S
C271 O326 1.426 . S
C271 H330 0.980 . S
C272 C273 1.407 . S
C272 C277 1.418 . S
C272 O326 1.334 . S
C273 C272 1.407 . S
C273 C274 1.360 . S
C273 H334 0.929 . S
C274 C273 1.360 . S
C274 C275 1.401 . S
C274 C278 1.527 . S
C275 C274 1.401 . S
C275 C276 1.405 . S
C275 C308 1.587 . S
C276 C275 1.405 . S
C276 C277 1.332 . S
C276 C279 1.496 . S
C277 C272 1.418 . S
C277 C276 1.332 . S
C277 H335 0.929 . S
C278 C274 1.527 . S
C278 H336 0.959 . S
C278 H337 0.961 . S
C278 H338 0.961 . S
C279 C276 1.496 . S
C279 H339 0.960 . S
C279 H340 0.960 . S
C279 H341 0.961 . S
C280 C281 1.517 . S
C280 H343 0.961 . S
C280 H344 0.960 . S
C280 H345 0.959 . S
C281 C280 1.517 . S
C281 O329 1.468 . S
C281 H342 0.980 . S
C282 C283 1.349 . S
C282 C287 1.367 . S
C282 O329 1.408 . S
C283 C282 1.349 . S
C283 C284 1.407 . S
C283 H346 0.930 . S
C284 C283 1.407 . S
C284 C285 1.449 . S
C284 C288 1.535 . S
C285 C284 1.449 . S
C285 C286 1.384 . S
C285 C310 1.553 . S
C286 C285 1.384 . S
C286 C287 1.364 . S
C286 C289 1.450 . S
C287 C282 1.367 . S
C287 C286 1.364 . S
C287 H347 0.931 . S
C288 C284 1.535 . S
C288 H348 0.959 . S
C288 H349 0.961 . S
C288 H350 0.959 . S
C289 C286 1.450 . S
C289 H351 0.960 . S
C289 H352 0.960 . S
C289 H353 0.960 . S
C290 C291 1.309 . S
C290 C295 1.304 . S
C290 O328 1.435 . S
C291 C290 1.309 . S
C291 C292 1.476 . S
C291 H355 0.930 . S
C292 C291 1.476 . S
C292 C293 1.400 . S
C292 C296 1.567 . S
C293 C292 1.400 . S
C293 C294 1.373 . S
C293 C315 1.432 . S
C294 C293 1.373 . S
C294 C295 1.339 . S
C294 C297 1.530 . S
C295 C290 1.304 . S
C295 C294 1.339 . S
C295 H356 0.930 . S
C296 C292 1.567 . S
C296 H357 0.961 . S
C296 H358 0.960 . S
C296 H359 0.958 . S
C297 C294 1.530 . S
C297 H360 0.961 . S
C297 H361 0.960 . S
C297 H362 0.960 . S
C298 C299 1.530 . S
C298 H364 0.961 . S
C298 H365 0.961 . S
C298 H366 0.959 . S
C299 C298 1.530 . S
C299 O327 1.412 . S
C299 H363 0.980 . S
C300 C301 1.288 . S
C300 C305 1.377 . S
C300 O327 1.393 . S
C301 C300 1.288 . S
C301 C302 1.369 . S
C301 H367 0.932 . S
C302 C301 1.369 . S
C302 C303 1.398 . S
C302 C306 1.527 . S
C303 C302 1.398 . S
C303 C304 1.380 . S
C303 C317 1.497 . S
C304 C303 1.380 . S
C304 C305 1.383 . S
C304 C307 1.603 . S
C305 C300 1.377 . S
C305 C304 1.383 . S
C305 H368 0.929 . S
C306 C302 1.527 . S
C306 H369 0.961 . S
C306 H370 0.959 . S
C306 H371 0.959 . S
C307 C304 1.603 . S
C307 H372 0.960 . S
C307 H373 0.962 . S
C307 H374 0.961 . S
C308 C275 1.587 . S
C308 C309 1.360 . S
C308 C321 1.412 . S
C309 C308 1.360 . S
C309 C310 1.365 . S
C309 H375 0.929 . S
C310 C285 1.553 . S
C310 C309 1.365 . S
C310 C311 1.404 . S
C311 C310 1.404 . S
C311 C312 1.395 . S
C311 C322 1.451 . S
C312 C311 1.395 . S
C312 C313 1.322 . S
C312 H376 0.930 . S
C313 C312 1.322 . S
C313 C314 1.459 . S
C313 H377 0.929 . S
C314 C313 1.459 . S
C314 C315 1.445 . S
C314 C323 1.395 . S
C315 C293 1.432 . S
C315 C314 1.445 . S
C315 C316 1.370 . S
C316 C315 1.370 . S
C316 C317 1.438 . S
C316 H378 0.930 . S
C317 C303 1.497 . S
C317 C316 1.438 . S
C317 C318 1.360 . S
C318 C317 1.360 . S
C318 C319 1.401 . S
C318 C323 1.446 . S
C319 C318 1.401 . S
C319 C320 1.347 . S
C319 H379 0.929 . S
C320 C319 1.347 . S
C320 C321 1.455 . S
C320 H380 0.930 . S
C321 C308 1.412 . S
C321 C320 1.455 . S
C321 C322 1.331 . S
C322 C311 1.451 . S
C322 C321 1.331 . S
C322 C323 1.497 . S
C323 C314 1.395 . S
C323 C318 1.446 . S
C323 C322 1.497 . S
C324 C325 1.582 . S
C324 H381 0.962 . S
C324 H382 0.959 . S
C324 H383 0.958 . S
C325 C324 1.582 . S
C325 O328 1.458 . S
C325 H354 0.980 . S
O326 C271 1.426 . S
O326 C272 1.334 . S
O327 C299 1.412 . S
O327 C300 1.393 . S
O328 C290 1.435 . S
O328 C325 1.458 . S
O329 C281 1.468 . S
O329 C282 1.408 . S
H330 C271 0.980 . S
H331 C270 0.959 . S
H332 C270 0.959 . S
H333 C270 0.960 . S
H334 C273 0.929 . S
H335 C277 0.929 . S
H336 C278 0.959 . S
H337 C278 0.961 . S
H338 C278 0.961 . S
H339 C279 0.960 . S
H340 C279 0.960 . S
H341 C279 0.961 . S
H342 C281 0.980 . S
H343 C280 0.961 . S
H344 C280 0.960 . S
H345 C280 0.959 . S
H346 C283 0.930 . S
H347 C287 0.931 . S
H348 C288 0.959 . S
H349 C288 0.961 . S
H350 C288 0.959 . S
H351 C289 0.960 . S
H352 C289 0.960 . S
H353 C289 0.960 . S
H354 C325 0.980 . S
H355 C291 0.930 . S
H356 C295 0.930 . S
H357 C296 0.961 . S
H358 C296 0.960 . S
H359 C296 0.958 . S
H360 C297 0.961 . S
H361 C297 0.960 . S
H362 C297 0.960 . S
H363 C299 0.980 . S
H364 C298 0.961 . S
H365 C298 0.961 . S
H366 C298 0.959 . S
H367 C301 0.932 . S
H368 C305 0.929 . S
H369 C306 0.961 . S
H370 C306 0.959 . S
H371 C306 0.959 . S
H372 C307 0.960 . S
H373 C307 0.962 . S
H374 C307 0.961 . S
H375 C309 0.929 . S
H376 C312 0.930 . S
H377 C313 0.929 . S
H378 C316 0.930 . S
H379 C319 0.929 . S
H380 C320 0.930 . S
H381 C324 0.962 . S
H382 C324 0.959 . S
H383 C324 0.958 . S
H384 C390 0.930 . S
H385 C394 0.930 . S
H386 C399 0.929 . S
H387 C397 0.929 . S
H388 C392 0.929 . S
H389 C398 0.929 . S
C390 H384 0.930 . S
C390 C391 1.367 . S
C390 C398 1.378 . S
C391 C390 1.367 . S
C391 C399 1.433 . S
C392 H388 0.929 . S
C392 C394 1.378 . S
C392 C396 1.350 . S
C393 C396 1.463 . S
C393 C398 1.350 . S
C393 N401 1.427 . S
C394 H385 0.930 . S
C394 C392 1.378 . S
C394 C395 1.367 . S
C395 C394 1.367 . S
C395 C397 1.433 . S
C396 C392 1.350 . S
C396 C393 1.463 . S
C396 N400 1.427 . S
C397 H387 0.929 . S
C397 C395 1.433 . S
C397 N400 1.384 . S
C398 H389 0.929 . S
C398 C390 1.378 . S
C398 C393 1.350 . S
C399 H386 0.929 . S
C399 C391 1.433 . S
C399 N401 1.384 . S
N400 C396 1.427 . S
N400 C397 1.384 . S
N401 C393 1.427 . S
N401 C399 1.384 . S
H402 C408 0.951 . S
H403 C412 0.930 . S
H404 C417 0.929 . S
H405 C415 0.929 . S
H406 C410 0.929 . S
H407 C416 0.929 1_565 S
C408 H402 0.951 . S
C408 C409 1.357 1_565 S
C408 C416 1.367 1_565 S
C409 C408 1.357 1_545 S
C409 C417 1.433 . S
C410 H406 0.929 . S
C410 C412 1.378 . S
C410 C414 1.350 . S
C411 C414 1.463 . S
C411 C416 1.350 . S
C411 N419 1.427 . S
C412 H403 0.930 . S
C412 C410 1.378 . S
C412 C413 1.367 . S
C413 C412 1.367 . S
C413 C415 1.433 . S
C414 C410 1.350 . S
C414 C411 1.463 . S
C414 N418 1.427 . S
C415 H405 0.929 . S
C415 C413 1.433 . S
C415 N418 1.384 . S
C416 H407 0.929 1_545 S
C416 C408 1.367 1_545 S
C416 C411 1.350 . S
C417 H404 0.929 . S
C417 C409 1.433 . S
C417 N419 1.384 . S
N418 C414 1.427 . S
N418 C415 1.384 . S
N419 C411 1.427 . S
N419 C417 1.384 . S
H420 C426 0.930 . S
H421 C430 0.930 . S
H422 C435 0.929 . S
H423 C433 0.929 . S
H424 C428 0.929 . S
H425 C434 0.929 . S
C426 H420 0.930 . S
C426 C427 1.367 . S
C426 C434 1.378 . S
C427 C426 1.367 . S
C427 C435 1.433 . S
C428 H424 0.929 . S
C428 C430 1.378 . S
C428 C432 1.350 . S
C429 C432 1.463 . S
C429 C434 1.350 . S
C429 N437 1.427 . S
C430 H421 0.930 . S
C430 C428 1.378 . S
C430 C431 1.367 . S
C431 C430 1.367 . S
C431 C433 1.433 . S
C432 C428 1.350 . S
C432 C429 1.463 . S
C432 N436 1.427 . S
C433 H423 0.929 . S
C433 C431 1.433 . S
C433 N436 1.384 . S
C434 H425 0.929 . S
C434 C426 1.378 . S
C434 C429 1.350 . S
C435 H422 0.929 . S
C435 C427 1.433 . S
C435 N437 1.384 . S
N436 C432 1.427 . S
N436 C433 1.384 . S
N437 C429 1.427 . S
N437 C435 1.384 . S
H438 C444 0.930 . S
H439 C448 0.930 . S
H440 C453 0.929 . S
H441 C451 0.929 . S
H442 C446 0.929 . S
H443 C452 0.929 . S
C444 H438 0.930 . S
C444 C445 1.367 . S
C444 C452 1.378 . S
C445 C444 1.367 . S
C445 C453 1.433 . S
C446 H442 0.929 . S
C446 C448 1.378 . S
C446 C450 1.350 . S
C447 C450 1.463 . S
C447 C452 1.350 . S
C447 N455 1.427 . S
C448 H439 0.930 . S
C448 C446 1.378 . S
C448 C449 1.367 . S
C449 C448 1.367 . S
C449 C451 1.433 . S
C450 C446 1.350 . S
C450 C447 1.463 . S
C450 N454 1.427 . S
C451 H441 0.929 . S
C451 C449 1.433 . S
C451 N454 1.384 . S
C452 H443 0.929 . S
C452 C444 1.378 . S
C452 C447 1.350 . S
C453 H440 0.929 . S
C453 C445 1.433 . S
C453 N455 1.384 . S
N454 C450 1.427 . S
N454 C451 1.384 . S
N455 C447 1.427 . S
N455 C453 1.384 . S
H456 C462 0.930 . S
H457 C466 0.930 . S
H458 C471 0.929 . S
H459 C469 0.929 . S
H460 C464 0.929 . S
H461 C470 0.929 . S
C462 H456 0.930 . S
C462 C463 1.367 . S
C462 C470 1.378 . S
C463 C462 1.367 . S
C463 C471 1.433 . S
C464 H460 0.929 . S
C464 C466 1.378 . S
C464 C468 1.350 . S
C465 C468 1.463 . S
C465 C470 1.350 . S
C465 N473 1.427 . S
C466 H457 0.930 . S
C466 C464 1.378 . S
C466 C467 1.367 . S
C467 C466 1.367 . S
C467 C469 1.433 . S
C468 C464 1.350 . S
C468 C465 1.463 . S
C468 N472 1.427 . S
C469 H459 0.929 . S
C469 C467 1.433 . S
C469 N472 1.384 . S
C470 H461 0.929 . S
C470 C462 1.378 . S
C470 C465 1.350 . S
C471 H458 0.929 . S
C471 C463 1.433 . S
C471 N473 1.384 . S
N472 C468 1.427 . S
N472 C469 1.384 . S
N473 C465 1.427 . S
N473 C471 1.384 . S
H474 C480 0.930 . S
H475 C484 0.930 . S
H476 C489 0.929 . S
H477 C487 0.929 . S
H478 C482 0.929 . S
H479 C488 0.929 . S
C480 H474 0.930 . S
C480 C481 1.367 . S
C480 C488 1.378 . S
C481 C480 1.367 . S
C481 C489 1.433 . S
C482 H478 0.929 . S
C482 C484 1.378 . S
C482 C486 1.350 . S
C483 C486 1.463 . S
C483 C488 1.350 . S
C483 N491 1.427 . S
C484 H475 0.930 . S
C484 C482 1.378 . S
C484 C485 1.367 . S
C485 C484 1.367 . S
C485 C487 1.433 . S
C486 C482 1.350 . S
C486 C483 1.463 . S
C486 N490 1.427 . S
C487 H477 0.929 . S
C487 C485 1.433 . S
C487 N490 1.384 . S
C488 H479 0.929 . S
C488 C480 1.378 . S
C488 C483 1.350 . S
C489 H476 0.929 . S
C489 C481 1.433 . S
C489 N491 1.384 . S
N490 C486 1.427 . S
N490 C487 1.384 . S
N491 C483 1.427 . S
N491 C489 1.384 . S
H492 C498 0.930 . S
H493 C502 0.930 . S
H494 C507 0.936 . S
H495 C505 0.929 . S
H496 C500 0.929 . S
H497 C506 0.929 . S
C498 H492 0.930 . S
C498 C499 1.367 . S
C498 C506 1.378 . S
C499 C498 1.367 . S
C499 C507 1.433 . S
C500 H496 0.929 . S
C500 C502 1.378 . S
C500 C504 1.350 . S
C501 C504 1.463 . S
C501 C506 1.350 . S
C501 N509 1.427 . S
C502 H493 0.930 . S
C502 C500 1.378 . S
C502 C503 1.367 . S
C503 C502 1.367 . S
C503 C505 1.433 . S
C504 C500 1.350 . S
C504 C501 1.463 . S
C504 N508 1.427 . S
C505 H495 0.929 . S
C505 C503 1.433 . S
C505 N508 1.384 . S
C506 H497 0.929 . S
C506 C498 1.378 . S
C506 C501 1.350 . S
C507 H494 0.936 . S
C507 C499 1.433 . S
C507 N509 1.384 . S
N508 C504 1.427 . S
N508 C505 1.384 . S
N509 C501 1.427 . S
N509 C507 1.384 . S
H510 C516 0.930 1_455 S
H511 C520 0.930 . S
H512 C525 0.929 . S
H513 C523 0.929 . S
H514 C518 0.929 . S
H515 C524 0.929 . S
C516 H510 0.930 1_655 S
C516 C517 1.367 1_556 S
C516 C524 1.378 . S
C517 C516 1.367 1_554 S
C517 C525 1.433 . S
C518 H514 0.929 . S
C518 C520 1.378 . S
C518 C522 1.350 . S
C519 C522 1.463 . S
C519 C524 1.350 . S
C519 N527 1.427 1_556 S
C520 H511 0.930 . S
C520 C518 1.378 . S
C520 C521 1.367 . S
C521 C520 1.367 . S
C521 C523 1.433 . S
C522 C518 1.350 . S
C522 C519 1.463 . S
C522 N526 1.427 . S
C523 H513 0.929 . S
C523 C521 1.433 . S
C523 N526 1.384 . S
C524 H515 0.929 . S
C524 C516 1.378 . S
C524 C519 1.350 . S
C525 H512 0.929 . S
C525 C517 1.433 . S
C525 N527 1.384 . S
N526 C522 1.427 . S
N526 C523 1.384 . S
N527 C519 1.427 1_554 S
N527 C525 1.384 . S
H528 C534 0.930 . S
H529 C538 0.930 . S
H530 C543 0.929 . S
H531 C541 0.929 . S
H532 C536 0.929 . S
H533 C542 0.929 . S
C534 H528 0.930 . S
C534 C535 1.367 1_455 S
C534 C542 1.378 . S
C535 C534 1.367 1_655 S
C535 C543 1.433 . S
C536 H532 0.929 . S
C536 C538 1.378 . S
C536 C540 1.350 1_655 S
C537 C540 1.463 . S
C537 C542 1.350 . S
C537 N545 1.427 1_455 S
C538 H529 0.930 . S
C538 C536 1.378 . S
C538 C539 1.367 1_655 S
C539 C538 1.367 1_455 S
C539 C541 1.433 . S
C540 C536 1.350 1_455 S
C540 C537 1.463 . S
C540 N544 1.427 . S
C541 H531 0.929 . S
C541 C539 1.433 . S
C541 N544 1.384 . S
C542 H533 0.929 . S
C542 C534 1.378 . S
C542 C537 1.350 . S
C543 H530 0.929 . S
C543 C535 1.433 . S
C543 N545 1.384 . S
N544 C540 1.427 . S
N544 C541 1.384 . S
N545 C537 1.427 1_655 S
N545 C543 1.384 . S
H546 C552 0.930 . S
H547 C556 0.930 . S
H548 C561 0.929 . S
H549 C559 0.929 . S
H550 C554 0.929 . S
H551 C560 0.929 . S
C552 H546 0.930 . S
C552 C553 1.367 . S
C552 C560 1.378 . S
C553 C552 1.367 . S
C553 C561 1.433 . S
C554 H550 0.929 . S
C554 C556 1.378 . S
C554 C558 1.350 . S
C555 C558 1.463 . S
C555 C560 1.350 . S
C555 N563 1.427 . S
C556 H547 0.930 . S
C556 C554 1.378 . S
C556 C557 1.367 . S
C557 C556 1.367 . S
C557 C559 1.433 . S
C558 C554 1.350 . S
C558 C555 1.463 . S
C558 N562 1.427 . S
C559 H549 0.929 . S
C559 C557 1.433 . S
C559 N562 1.384 . S
C560 H551 0.929 . S
C560 C552 1.378 . S
C560 C555 1.350 . S
C561 H548 0.929 . S
C561 C553 1.433 . S
C561 N563 1.384 . S
N562 C558 1.427 . S
N562 C559 1.384 . S
N563 C555 1.427 . S
N563 C561 1.384 . S
H564 C570 0.910 1_554 S
H565 C574 0.930 . S
H566 C579 0.931 1_554 S
H567 C577 0.929 . S
H568 C572 0.929 . S
H569 C578 0.929 . S
C570 H564 0.910 1_556 S
C570 C571 1.347 1_556 S
C570 C578 1.422 . S
C571 C570 1.347 1_554 S
C571 C579 1.435 1_554 S
C572 H568 0.929 . S
C572 C574 1.378 . S
C572 C576 1.350 . S
C573 C576 1.463 . S
C573 C578 1.350 . S
C573 N581 1.427 . S
C574 H565 0.930 . S
C574 C572 1.378 . S
C574 C575 1.367 . S
C575 C574 1.367 . S
C575 C577 1.433 . S
C576 C572 1.350 . S
C576 C573 1.463 . S
C576 N580 1.427 . S
C577 H567 0.929 . S
C577 C575 1.433 . S
C577 N580 1.384 . S
C578 H569 0.929 . S
C578 C570 1.422 . S
C578 C573 1.350 . S
C579 H566 0.931 1_556 S
C579 C571 1.435 1_556 S
C579 N581 1.381 . S
N580 C576 1.427 . S
N580 C577 1.384 . S
N581 C573 1.427 . S
N581 C579 1.381 . S
H582 C588 0.930 1_655 S
H583 C592 0.930 . S
H584 C597 0.929 . S
H585 C595 0.955 . S
H586 C590 0.929 . S
H587 C596 0.929 1_655 S
C588 H582 0.930 1_455 S
C588 C589 1.367 . S
C588 C596 1.378 . S
C589 C588 1.367 . S
C589 C597 1.433 . S
C590 H586 0.929 . S
C590 C592 1.378 . S
C590 C594 1.350 . S
C591 C594 1.463 . S
C591 C596 1.350 . S
C591 N599 1.427 . S
C592 H583 0.930 . S
C592 C590 1.378 . S
C592 C593 1.367 . S
C593 C592 1.367 . S
C593 C595 1.417 1_455 S
C594 C590 1.350 . S
C594 C591 1.463 . S
C594 N598 1.427 . S
C595 H585 0.955 . S
C595 C593 1.417 1_655 S
C595 N598 1.374 1_655 S
C596 H587 0.929 1_455 S
C596 C588 1.378 . S
C596 C591 1.350 . S
C597 H584 0.929 . S
C597 C589 1.433 . S
C597 N599 1.384 . S
N598 C594 1.427 . S
N598 C595 1.374 1_455 S
N599 C591 1.427 . S
N599 C597 1.384 . S
C395 C97 1.096 . S
C391 C11 1.451 . S
C409 C26 1.586 . S
C413 C211 1.224 . S
C427 C40 1.228 . S
C431 C271 0.961 . S
C445 C5 1.158 1_565 S
C449 C71 1.042 . S
C467 C185 1.138 . S
C463 C18 1.456 . S
C481 C32 1.363 . S
C485 C281 0.826 . S
C503 C167 0.807 . S
C499 C39 1.244 . S
C517 C4 1.322 1_665 S
C521 C299 1.088 . S
C539 C43 0.944 . S
C535 C19 1.081 . S
C557 C157 0.877 . S
C553 C33 1.002 . S
C575 C325 1.150 . S
C571 C12 1.462 . S
C589 C25 1.364 . S
C593 C53 0.815 . S
