# Generated by pormake.
# Topology pth, (4,4)-cn, num edge types: 1
# Building blocks:
#     Node 0, Type 0, BuildingBlock: NAHDIM_clean_sbu_0, # of connection points: 4
#     Node 1, Type 0, BuildingBlock: NAHDIM_clean_sbu_0, # of connection points: 4
#     Node 2, Type 0, BuildingBlock: NAHDIM_clean_sbu_0, # of connection points: 4
#     Node 3, Type 1, BuildingBlock: MUDLON_clean_linker_0, # of connection points: 4
#     Node 4, Type 1, BuildingBlock: MUDLON_clean_linker_0, # of connection points: 4
#     Node 5, Type 1, BuildingBlock: MUDLON_clean_linker_0, # of connection points: 4
#     Edge 6, Type (0, 1), BuildingBlock: OJICUG_clean_linker_0, # of connection points: 2
#     Edge 7, Type (0, 1), BuildingBlock: OJICUG_clean_linker_0, # of connection points: 2
#     Edge 8, Type (0, 1), BuildingBlock: OJICUG_clean_linker_0, # of connection points: 2
#     Edge 9, Type (0, 1), BuildingBlock: OJICUG_clean_linker_0, # of connection points: 2
#     Edge 10, Type (0, 1), BuildingBlock: OJICUG_clean_linker_0, # of connection points: 2
#     Edge 11, Type (0, 1), BuildingBlock: OJICUG_clean_linker_0, # of connection points: 2
#     Edge 12, Type (0, 1), BuildingBlock: OJICUG_clean_linker_0, # of connection points: 2
#     Edge 13, Type (0, 1), BuildingBlock: OJICUG_clean_linker_0, # of connection points: 2
#     Edge 14, Type (0, 1), BuildingBlock: OJICUG_clean_linker_0, # of connection points: 2
#     Edge 15, Type (0, 1), BuildingBlock: OJICUG_clean_linker_0, # of connection points: 2
#     Edge 16, Type (0, 1), BuildingBlock: OJICUG_clean_linker_0, # of connection points: 2
#     Edge 17, Type (0, 1), BuildingBlock: OJICUG_clean_linker_0, # of connection points: 2
# Relax obj value: 0.059
# Max RMSD: 0.170
# Mean RMSD: 0.116
data_MOF--net-pth--node1-NAHDIM_clean_sbu_0--node2-MUDLON_clean_linker_0--edge1-OJICUG_clean_linker_0
_symmetry_space_group_name_H-M    P1
_symmetry_Int_Tables_number       1
_symmetry_cell_setting            triclinic
loop_
_symmetry_equiv_pos_as_xyz
'x, y, z'
_cell_length_a     26.913828
_cell_length_b     27.033985
_cell_length_c     53.293874
_cell_angle_alpha  91.875694
_cell_angle_beta   90.014832
_cell_angle_gamma 120.63357
loop_
_atom_site_label
_atom_site_type_symbol
_atom_site_fract_x
_atom_site_fract_y
_atom_site_fract_z
_atom_type_partial_charge
C0 C 0.96038 0.90392 0.071 0.0
O1 O 0.9067 0.89233 0.06971 0.0
O2 O 0.94682 0.02812 0.05525 0.0
Zn3 Zn 0.97113 0.98147 0.03396 0.0
O4 O 0.90634 0.92194 0.01171 0.0
C5 C 0.07296 0.08685 0.01896 0.0
O6 O 0.07072 0.10591 0.04167 0.0
O7 O -0.00248 0.9416 0.0569 0.0
C8 C 0.89821 0.93477 0.98996 0.0
O9 O 0.93034 0.98799 0.98293 0.0
C10 C 0.94336 0.06969 0.04676 0.0
O11 O 0.95027 0.07935 0.02265 0.0
O12 O 0.03664 0.03508 0.01219 0.0
C13 C 0.00601 0.10186 0.32244 0.0
O14 O 0.9528 0.05977 0.32564 0.0
O15 O 0.99559 0.96858 0.34309 0.0
Zn16 Zn 0.02069 0.04398 0.36164 0.0
O17 O 0.95851 0.04616 0.38139 0.0
C18 C 0.13018 0.06132 0.38321 0.0
O19 O 0.14003 0.04578 0.36102 0.0
O20 O 0.0462 0.10501 0.33618 0.0
C21 C 0.90726 0.00763 0.38635 0.0
O22 O 0.88645 0.95471 0.37742 0.0
C23 C 0.00355 0.92943 0.35126 0.0
O24 O 0.02437 0.93498 0.37414 0.0
O25 O 0.08455 0.06342 0.38653 0.0
C26 C 0.07739 0.97788 0.67394 0.0
O27 O 0.09293 0.9954 0.69742 0.0
O28 O 0.92219 0.98883 0.66701 0.0
Zn29 Zn 0.96895 0.96804 0.68903 0.0
O30 O 0.01232 0.03072 0.71573 0.0
C31 C 0.87438 0.89568 0.71792 0.0
O32 O 0.87069 0.94229 0.71748 0.0
O33 O 0.02599 0.96131 0.66677 0.0
C34 C 0.02236 0.01835 0.73724 0.0
O35 O 0.00393 0.96434 0.74189 0.0
C36 C 0.93142 0.03973 0.66598 0.0
O37 O 0.9725 0.08093 0.68019 0.0
O38 O 0.91457 0.89451 0.70588 0.0
H39 H 0.96715 0.70806 0.22086 0.0
N40 N 0.07741 0.73685 0.20828 0.0
H41 H 0.93947 0.74125 0.25856 0.0
H42 H 0.14325 0.79224 0.2484 0.0
H43 H 0.1159 0.82574 0.28626 0.0
H44 H 0.13729 0.8408 0.18981 0.0
H45 H 0.10981 0.87922 0.15494 0.0
H46 H 0.98116 0.67659 0.1779 0.0
H47 H 0.95391 0.71401 0.14267 0.0
H48 H 0.98857 0.62927 0.21965 0.0
H49 H 0.1596 0.72141 0.18938 0.0
H50 H 0.98761 0.53904 0.2138 0.0
H51 H 0.15806 0.63095 0.18223 0.0
H52 H 0.99363 0.3377 0.21891 0.0
H53 H 0.98007 0.27791 0.25454 0.0
H54 H 0.12733 0.26489 0.23194 0.0
H55 H 0.14123 0.32588 0.1965 0.0
H56 H 0.1213 0.36946 0.13828 0.0
H57 H 0.0776 0.29984 0.10286 0.0
H58 H 0.91725 0.2114 0.14263 0.0
H59 H 0.96092 0.28116 0.17778 0.0
H60 H 0.98159 0.38162 0.17672 0.0
H61 H 0.98178 0.47136 0.18274 0.0
H62 H 0.16295 0.55882 0.20387 0.0
N63 N 0.07488 0.36688 0.1825 0.0
H64 H 0.16286 0.46913 0.19652 0.0
C65 C 0.05771 0.74839 0.2317 0.0
C66 C -0.00023 0.73295 0.23516 0.0
C67 C 0.98394 0.75201 0.25673 0.0
C68 C 0.02555 0.78641 0.27529 0.0
C69 C 0.08269 0.79882 0.27243 0.0
C70 C 0.09851 0.78002 0.2508 0.0
C71 C 0.06159 0.75608 0.1864 0.0
C72 C 0.09753 0.81289 0.17937 0.0
C73 C 0.08184 0.83457 0.1594 0.0
C74 C 0.02962 0.79966 0.14602 0.0
C75 C 0.99408 0.74221 0.15278 0.0
C76 C 0.00982 0.7206 0.17281 0.0
C77 C 0.07483 0.68241 0.20531 0.0
C78 C 0.02602 0.63021 0.21177 0.0
C79 C 0.02527 0.57837 0.20812 0.0
C80 C 0.07286 0.57756 0.19762 0.0
C81 C 0.12114 0.6299 0.19087 0.0
C82 C 0.12206 0.68163 0.19478 0.0
C83 C 0.06874 0.33636 0.20505 0.0
C84 C 0.02356 0.32281 0.22181 0.0
C85 C 0.01557 0.28819 0.24208 0.0
C86 C 0.05242 0.26637 0.24597 0.0
C87 C 0.09859 0.28151 0.22963 0.0
C88 C 0.10651 0.31611 0.20936 0.0
C89 C 0.04496 0.33026 0.16077 0.0
C90 C 0.07638 0.33578 0.13907 0.0
C91 C 0.05125 0.29616 0.11885 0.0
C92 C 0.99409 0.24998 0.12009 0.0
C93 C 0.96155 0.24623 0.1413 0.0
C94 C 0.98658 0.28617 0.16142 0.0
C95 C 0.07275 0.41891 0.18577 0.0
C96 C 0.02154 0.4201 0.18234 0.0
C97 C 0.02155 0.47154 0.1861 0.0
C98 C 0.07245 0.52258 0.19371 0.0
C99 C 0.12324 0.52078 0.19749 0.0
C100 C 0.12329 0.46956 0.19346 0.0
H101 H 0.84821 0.19187 0.54561 0.0
N102 N 0.74228 0.12709 0.52647 0.0
H103 H 0.89125 0.17198 0.58147 0.0
H104 H 0.68605 0.03667 0.55756 0.0
H105 H 0.72809 0.01708 0.59381 0.0
H106 H 0.7225 0.01822 0.516 0.0
H107 H 0.75445 0.98746 0.47908 0.0
H108 H 0.78488 0.18459 0.48496 0.0
H109 H 0.81415 0.15311 0.44713 0.0
H110 H 0.72365 0.20794 0.54517 0.0
H111 H 0.63554 0.03507 0.51305 0.0
H112 H 0.63149 0.20412 0.54945 0.0
H113 H 0.54357 0.0319 0.51576 0.0
H114 H 0.36846 0.1676 0.5824 0.0
H115 H 0.30078 0.12576 0.61677 0.0
H116 H 0.21224 0.96279 0.57513 0.0
H117 H 0.27983 0.00502 0.54088 0.0
H118 H 0.33519 0.03351 0.50164 0.0
H119 H 0.28173 0.02289 0.46274 0.0
H120 H 0.28147 0.17896 0.48283 0.0
H121 H 0.33384 0.18842 0.52193 0.0
H122 H 0.46973 0.2056 0.52845 0.0
H123 H 0.56057 0.2065 0.52503 0.0
H124 H 0.47248 0.02677 0.54309 0.0
N125 N 0.36661 0.11786 0.53844 0.0
H126 H 0.38149 0.0257 0.54494 0.0
C127 C 0.76419 0.11605 0.54897 0.0
C128 C 0.82175 0.15403 0.55628 0.0
C129 C 0.84606 0.1427 0.57683 0.0
C130 C 0.81308 0.09291 0.5905 0.0
C131 C 0.75482 0.05546 0.58349 0.0
C132 C 0.73058 0.06683 0.56289 0.0
C133 C 0.75289 0.10453 0.50351 0.0
C134 C 0.74232 0.04793 0.50107 0.0
C135 C 0.76 0.03007 0.47972 0.0
C136 C 0.7878 0.06811 0.46026 0.0
C137 C 0.7943 0.12319 0.46204 0.0
C138 C 0.77731 0.14121 0.48352 0.0
C139 C 0.68671 0.12246 0.52847 0.0
C140 C 0.68433 0.16942 0.5388 0.0
C141 C 0.63163 0.1672 0.54102 0.0
C142 C 0.57995 0.11795 0.53263 0.0
C143 C 0.58232 0.07036 0.52261 0.0
C144 C 0.63512 0.07235 0.52076 0.0
C145 C 0.32897 0.0899 0.55904 0.0
C146 C 0.33485 0.12269 0.5809 0.0
C147 C 0.29637 0.09858 0.60053 0.0
C148 C 0.25103 0.04096 0.59862 0.0
C149 C 0.24633 0.00746 0.57701 0.0
C150 C 0.28505 0.0316 0.55742 0.0
C151 C 0.3381 0.11177 0.51471 0.0
C152 C 0.32385 0.06553 0.49759 0.0
C153 C 0.29366 0.05974 0.47528 0.0
C154 C 0.27714 0.09995 0.46977 0.0
C155 C 0.29281 0.14681 0.4867 0.0
C156 C 0.32288 0.15249 0.50895 0.0
C157 C 0.41914 0.11613 0.53729 0.0
C158 C 0.47028 0.16652 0.53167 0.0
C159 C 0.52217 0.16694 0.52992 0.0
C160 C 0.52418 0.11684 0.53408 0.0
C161 C 0.47258 0.06603 0.53955 0.0
C162 C 0.42043 0.0655 0.54092 0.0
H163 H 0.66818 0.72971 0.8648 0.0
N164 N 0.67235 0.63132 0.85636 0.0
H165 H 0.71661 0.80144 0.8988 0.0
H166 H 0.7319 0.62603 0.895 0.0
H167 H 0.78163 0.69838 0.92904 0.0
H168 H 0.77002 0.65383 0.83463 0.0
H169 H 0.81324 0.71081 0.79775 0.0
H170 H 0.61986 0.66965 0.82475 0.0
H171 H 0.66157 0.72479 0.78725 0.0
H172 H 0.58534 0.6363 0.88239 0.0
H173 H 0.62025 0.52919 0.8323 0.0
H174 H 0.48586 0.56072 0.88458 0.0
H175 H 0.51861 0.4542 0.83293 0.0
H176 H 0.17915 0.32178 0.90033 0.0
H177 H 0.14276 0.27118 0.93956 0.0
H178 H 0.26603 0.2142 0.93494 0.0
H179 H 0.3029 0.26539 0.8964 0.0
H180 H 0.2631 0.22462 0.85705 0.0
H181 H 0.20739 0.15401 0.82388 0.0
H182 H 0.1273 0.25183 0.80465 0.0
H183 H 0.18491 0.32381 0.83784 0.0
H184 H 0.29747 0.43267 0.87024 0.0
H185 H 0.39684 0.51011 0.86444 0.0
H186 H 0.45049 0.38417 0.85773 0.0
N187 N 0.25757 0.32071 0.87056 0.0
H188 H 0.35116 0.30781 0.8614 0.0
C189 C 0.69677 0.67246 0.8773 0.0
C190 C 0.69262 0.72234 0.87876 0.0
C191 C 0.72047 0.76345 0.89822 0.0
C192 C 0.75333 0.75586 0.91654 0.0
C193 C 0.75614 0.70525 0.9154 0.0
C194 C 0.72806 0.66402 0.89594 0.0
C195 C 0.69199 0.65751 0.83244 0.0
C196 C 0.74583 0.66841 0.82405 0.0
C197 C 0.77024 0.70073 0.80288 0.0
C198 C 0.74103 0.72271 0.78955 0.0
C199 C 0.68566 0.70932 0.7973 0.0
C200 C 0.66147 0.67732 0.81861 0.0
C201 C 0.61142 0.58856 0.85729 0.0
C202 C 0.57198 0.59695 0.87154 0.0
C203 C 0.51413 0.55342 0.87259 0.0
C204 C 0.49366 0.50089 0.859 0.0
C205 C 0.53275 0.49335 0.84416 0.0
C206 C 0.59089 0.53642 0.84357 0.0
C207 C 0.24325 0.29717 0.89518 0.0
C208 C 0.19909 0.2994 0.90812 0.0
C209 C 0.17851 0.27066 0.93048 0.0
C210 C 0.20144 0.23855 0.9401 0.0
C211 C 0.24734 0.23828 0.92775 0.0
C212 C 0.26842 0.26768 0.9056 0.0
C213 C 0.22833 0.27995 0.84996 0.0
C214 C 0.23439 0.23171 0.84562 0.0
C215 C 0.20188 0.19079 0.8267 0.0
C216 C 0.16247 0.19698 0.81176 0.0
C217 C 0.15759 0.246 0.8157 0.0
C218 C 0.19025 0.28702 0.83465 0.0
C219 C 0.31672 0.36456 0.86674 0.0
C220 C 0.33087 0.42208 0.86734 0.0
C221 C 0.38784 0.46624 0.86424 0.0
C222 C 0.43229 0.45377 0.86088 0.0
C223 C 0.41768 0.39576 0.85995 0.0
C224 C 0.3605 0.35165 0.86252 0.0
C225 C 0.93285 0.10137 0.08999 0.0
C226 C 0.94544 0.11376 0.06459 0.0
H227 H 0.93806 0.13491 0.12742 0.0
C228 C 0.96734 0.17051 0.05714 0.0
H229 H 0.9158 0.05803 0.09628 0.0
C230 C 0.98049 0.21468 0.07503 0.0
C231 C 0.97119 0.20275 0.10062 0.0
H232 H 0.97759 0.18146 0.03771 0.0
H233 H -0.00011 0.25847 0.06897 0.0
C234 C 0.94535 0.14538 0.10781 0.0
C235 C 0.8984 0.07961 0.4134 0.0
C236 C 0.8736 0.02285 0.40361 0.0
H237 H 0.89155 0.13787 0.43901 0.0
C238 C 0.81827 0.98138 0.41137 0.0
H239 H 0.94094 0.1128 0.40787 0.0
C240 C 0.78923 0.99618 0.42918 0.0
C241 C 0.81504 0.05269 0.43953 0.0
H242 H 0.79788 0.93735 0.40409 0.0
H243 H 0.74689 0.96324 0.43502 0.0
C244 C 0.86968 0.09424 0.43116 0.0
C245 C 0.79745 0.85414 0.75003 0.0
C246 C 0.83614 0.84833 0.73427 0.0
H247 H 0.73794 0.81978 0.77996 0.0
C248 C 0.84002 0.79855 0.7354 0.0
H249 H 0.79338 0.89196 0.74966 0.0
C250 C 0.80741 0.75649 0.75263 0.0
C251 C 0.77047 0.76349 0.76916 0.0
H252 H 0.86915 0.7926 0.72337 0.0
H253 H 0.81186 0.71893 0.75327 0.0
C254 C 0.76519 0.81238 0.76732 0.0
C255 C 0.03504 0.88764 0.09089 0.0
C256 C 0.97763 0.87517 0.08931 0.0
H257 H 0.09628 0.87281 0.10971 0.0
C258 C 0.93703 0.83596 0.10583 0.0
H259 H 0.06733 0.91743 0.07834 0.0
C260 C 0.9537 0.81067 0.12389 0.0
C261 C 0.01135 0.82395 0.12582 0.0
H262 H 0.89245 0.82543 0.10513 0.0
H263 H 0.92169 0.78192 0.13681 0.0
C264 C 0.05171 0.86229 0.10894 0.0
C265 C 0.21682 0.06455 0.40285 0.0
C266 C 0.16969 0.07321 0.40484 0.0
H267 H 0.28816 0.06655 0.42183 0.0
C268 C 0.15913 0.09176 0.42811 0.0
H269 H 0.22605 0.05021 0.38518 0.0
C270 C 0.19437 0.10086 0.44898 0.0
C271 C 0.24113 0.09168 0.44715 0.0
H272 H 0.12314 0.09874 0.43037 0.0
H273 H 0.18414 0.11393 0.46674 0.0
C274 C 0.25214 0.07355 0.42385 0.0
C275 C 0.06673 0.05006 0.78026 0.0
C276 C 0.05678 0.06427 0.7564 0.0
H277 H 0.10703 0.08066 0.81648 0.0
C278 C 0.08095 0.12259 0.75096 0.0
H279 H 0.04846 0.00557 0.78512 0.0
C280 C 0.115 0.16577 0.76894 0.0
C281 C 0.12557 0.15149 0.79269 0.0
H282 H 0.07415 0.13495 0.73273 0.0
H283 H 0.13392 0.21033 0.76407 0.0
C284 C 0.10066 0.09314 0.79819 0.0
C285 C 0.9093 0.1092 0.64604 0.0
C286 C 0.89842 0.0528 0.64787 0.0
H287 H 0.89011 0.16596 0.6268 0.0
C288 C 0.85709 0.00925 0.63158 0.0
H289 H 0.94064 0.14368 0.65841 0.0
C290 C 0.82845 0.02208 0.61339 0.0
C291 C 0.84036 0.07874 0.6111 0.0
H292 H 0.84766 0.96532 0.63248 0.0
H293 H 0.7983 0.98785 0.60059 0.0
C294 C 0.88056 0.12203 0.62785 0.0
C295 C 0.85175 0.90314 0.94727 0.0
C296 C 0.85731 0.88938 0.9719 0.0
H297 H 0.81533 0.87187 0.91047 0.0
C298 C 0.82599 0.83153 0.97861 0.0
H299 H 0.87534 0.94724 0.94146 0.0
C300 C 0.79121 0.78822 0.96082 0.0
C301 C 0.78695 0.80186 0.93598 0.0
H302 H 0.82917 0.81949 -0.00253 0.0
H303 H 0.76795 0.744 0.96649 0.0
C304 C 0.81704 0.85989 0.92951 0.0
C305 C 0.9746 0.87669 0.30951 0.0
C306 C -3e-05 0.88451 0.33346 0.0
H307 H 0.9627 0.83936 0.27242 0.0
C308 C 0.02776 0.85395 0.33907 0.0
H309 H 0.95268 0.89942 0.30464 0.0
C310 C 0.03364 0.81954 0.32052 0.0
C311 C 0.01129 0.81456 0.29613 0.0
H312 H 0.04767 0.85895 0.35736 0.0
H313 H 0.05736 0.79838 0.32502 0.0
C314 C 0.98005 0.84196 0.29107 0.0
C315 C 0.1802 0.01489 0.66211 0.0
C316 C 0.12133 0.9862 0.65519 0.0
H317 H 0.26746 0.05415 0.64966 0.0
C318 C 0.10545 0.97053 0.62976 0.0
H319 H 0.19393 0.02733 0.68155 0.0
C320 C 0.14762 0.986 0.61151 0.0
C321 C 0.20657 0.0176 0.61829 0.0
H322 H 0.06048 0.94826 0.62378 0.0
H323 H 0.13402 0.97569 0.59197 0.0
C324 C 0.22238 0.03057 0.64384 0.0
C325 C 0.13148 0.18606 0.00288 0.0
C326 C 0.11161 0.12692 0.00021 0.0
H327 H 0.1753 0.26799 0.98569 0.0
C328 C 0.125 0.10572 0.97845 0.0
H329 H 0.12141 0.20351 0.0194 0.0
C330 C 0.15637 0.14267 0.95941 0.0
C331 C 0.17407 0.20132 0.96158 0.0
H332 H 0.11021 0.06033 0.9759 0.0
H333 H 0.16474 0.12491 0.94251 0.0
C334 C 0.16196 0.22288 0.98359 0.0
C335 C 0.07516 0.18919 0.29909 0.0
C336 C 0.01835 0.14472 0.30323 0.0
H337 H 0.13048 0.26306 0.27794 0.0
C338 C 0.97298 0.14131 0.28876 0.0
H339 H 0.11104 0.19308 0.30998 0.0
C340 C 0.98411 0.18123 0.27045 0.0
C341 C 0.04088 0.2255 0.26615 0.0
H342 H 0.92872 0.10755 0.29144 0.0
H343 H 0.94825 0.17664 0.2593 0.0
C344 C 0.08632 0.22914 0.28069 0.0
loop_
_geom_bond_atom_site_label_1
_geom_bond_atom_site_label_2
_geom_bond_distance
_geom_bond_site_symmetry_2
_ccdc_geom_bond_type
C0 O1 1.160 . S
C0 O7 1.185 . S
O1 C0 1.160 . S
O2 Zn3 1.899 . S
O2 C10 1.284 1_455 S
Zn3 O2 1.899 . S
Zn3 O4 2.032 1_445 S
Zn3 O7 2.086 1_545 S
Zn3 O12 1.977 . S
O4 Zn3 2.032 1_665 S
O4 C8 1.241 1_554 S
C5 O6 1.203 . S
C5 O12 1.267 . S
O6 C5 1.203 . S
O7 C0 1.185 . S
O7 Zn3 2.086 1_565 S
C8 O4 1.241 1_556 S
C8 O9 1.237 1_565 S
O9 C8 1.237 1_545 S
C10 O2 1.284 1_655 S
C10 O11 1.273 . S
O11 C10 1.273 . S
O12 Zn3 1.977 . S
O12 C5 1.267 . S
C13 O14 1.160 . S
C13 O20 1.185 . S
O14 C13 1.160 . S
O15 Zn16 1.899 1_565 S
O15 C23 1.284 . S
Zn16 O15 1.899 1_545 S
Zn16 O17 2.032 1_455 S
Zn16 O20 2.086 . S
Zn16 O25 1.977 . S
O17 Zn16 2.032 1_655 S
O17 C21 1.278 . S
C18 O19 1.203 1_545 S
C18 O25 1.267 . S
O19 C18 1.203 1_565 S
O20 C13 1.185 . S
O20 Zn16 2.086 . S
C21 O17 1.278 . S
C21 O22 1.211 1_545 S
O22 C21 1.211 1_565 S
C23 O15 1.284 . S
C23 O24 1.273 1_455 S
O24 C23 1.273 1_655 S
O25 Zn16 1.977 . S
O25 C18 1.267 . S
C26 O27 1.160 1_565 S
C26 O33 1.185 . S
O27 C26 1.160 1_545 S
O28 Zn29 1.899 1_655 S
O28 C36 1.284 1_565 S
Zn29 O28 1.899 1_455 S
Zn29 O30 2.032 1_565 S
Zn29 O33 2.086 . S
Zn29 O38 1.977 1_455 S
O30 Zn29 2.032 1_545 S
O30 C34 1.278 . S
C31 O32 1.203 . S
C31 O38 1.267 . S
O32 C31 1.203 . S
O33 C26 1.185 . S
O33 Zn29 2.086 . S
C34 O30 1.278 . S
C34 O35 1.211 . S
O35 C34 1.211 . S
C36 O28 1.284 1_545 S
C36 O37 1.273 . S
O37 C36 1.273 . S
O38 Zn29 1.977 1_655 S
O38 C31 1.267 . S
H39 C66 0.929 . S
N40 C65 1.433 . S
N40 C71 1.435 . S
N40 C77 1.423 . S
H41 C67 0.930 . S
H42 C70 0.931 . S
H43 C69 0.929 . S
H44 C72 0.930 . S
H45 C73 0.932 . S
H46 C76 0.929 . S
H47 C75 0.931 . S
H48 C78 0.929 . S
H49 C82 0.939 . S
H50 C79 0.931 . S
H51 C81 0.929 1_455 S
H52 C84 0.929 . S
H53 C85 0.930 . S
H54 C87 0.929 . S
H55 C88 0.931 . S
H56 C90 0.930 . S
H57 C91 0.932 . S
H58 C93 0.931 . S
H59 C94 0.929 . S
H60 C96 0.929 . S
H61 C97 0.931 . S
H62 C99 0.929 1_455 S
N63 C83 1.433 . S
N63 C89 1.435 . S
N63 C95 1.423 . S
H64 C100 0.949 . S
C65 N40 1.433 . S
C65 C66 1.363 . S
C65 C70 1.370 1_655 S
C66 H39 0.929 . S
C66 C65 1.363 . S
C66 C67 1.385 . S
C67 H41 0.930 . S
C67 C66 1.385 . S
C67 C68 1.357 1_655 S
C68 C67 1.357 1_455 S
C68 C69 1.406 . S
C69 H43 0.929 . S
C69 C68 1.406 . S
C69 C70 1.391 . S
C70 H42 0.931 . S
C70 C65 1.370 1_455 S
C70 C69 1.391 . S
C71 N40 1.435 . S
C71 C72 1.358 1_655 S
C71 C76 1.371 . S
C72 H44 0.930 . S
C72 C71 1.358 1_455 S
C72 C73 1.405 . S
C73 H45 0.932 . S
C73 C72 1.405 . S
C73 C74 1.384 . S
C74 C73 1.384 . S
C74 C75 1.392 1_455 S
C75 H47 0.931 . S
C75 C74 1.392 1_655 S
C75 C76 1.382 . S
C76 H46 0.929 . S
C76 C71 1.371 . S
C76 C75 1.382 . S
C77 N40 1.423 . S
C77 C78 1.362 . S
C77 C82 1.372 1_655 S
C78 H48 0.929 . S
C78 C77 1.362 . S
C78 C79 1.376 . S
C79 H50 0.931 . S
C79 C78 1.376 . S
C79 C80 1.396 . S
C80 C79 1.396 . S
C80 C81 1.348 . S
C80 C98 1.472 . S
C81 H51 0.929 1_655 S
C81 C80 1.348 . S
C81 C82 1.452 1_655 S
C82 H49 0.939 . S
C82 C77 1.372 1_455 S
C82 C81 1.452 1_455 S
C83 N63 1.433 . S
C83 C84 1.363 . S
C83 C88 1.370 1_655 S
C84 H52 0.929 . S
C84 C83 1.363 . S
C84 C85 1.385 . S
C85 H53 0.930 . S
C85 C84 1.385 . S
C85 C86 1.357 1_655 S
C86 C85 1.357 1_455 S
C86 C87 1.406 . S
C87 H54 0.929 . S
C87 C86 1.406 . S
C87 C88 1.391 . S
C88 H55 0.931 . S
C88 C83 1.370 1_455 S
C88 C87 1.391 . S
C89 N63 1.435 . S
C89 C90 1.358 1_655 S
C89 C94 1.371 . S
C90 H56 0.930 . S
C90 C89 1.358 1_455 S
C90 C91 1.405 . S
C91 H57 0.932 . S
C91 C90 1.405 . S
C91 C92 1.382 . S
C92 C91 1.382 . S
C92 C93 1.394 1_455 S
C93 H58 0.931 . S
C93 C92 1.394 1_655 S
C93 C94 1.382 . S
C94 H59 0.929 . S
C94 C89 1.371 . S
C94 C93 1.382 . S
C95 N63 1.423 . S
C95 C96 1.362 . S
C95 C100 1.384 1_655 S
C96 H60 0.929 . S
C96 C95 1.362 . S
C96 C97 1.376 . S
C97 H61 0.931 . S
C97 C96 1.376 . S
C97 C98 1.396 . S
C98 C80 1.472 . S
C98 C97 1.396 . S
C98 C99 1.348 . S
C99 H62 0.929 1_655 S
C99 C98 1.348 . S
C99 C100 1.430 1_655 S
C100 H64 0.949 . S
C100 C95 1.384 1_455 S
C100 C99 1.430 1_455 S
H101 C128 0.929 . S
N102 C127 1.433 . S
N102 C133 1.435 . S
N102 C139 1.423 . S
H103 C129 0.930 . S
H104 C132 0.931 . S
H105 C131 0.929 . S
H106 C134 0.930 . S
H107 C135 0.932 . S
H108 C138 0.929 . S
H109 C137 0.931 . S
H110 C140 0.929 . S
H111 C144 0.932 1_565 S
H112 C141 0.931 . S
H113 C143 0.929 . S
H114 C146 0.929 . S
H115 C147 0.930 . S
H116 C149 0.929 . S
H117 C150 0.931 . S
H118 C152 0.930 . S
H119 C153 0.932 . S
H120 C155 0.931 . S
H121 C156 0.929 . S
H122 C158 0.929 . S
H123 C159 0.931 . S
H124 C161 0.929 . S
N125 C145 1.433 . S
N125 C151 1.435 . S
N125 C157 1.423 . S
H126 C162 0.932 1_565 S
C127 N102 1.433 . S
C127 C128 1.363 . S
C127 C132 1.370 1_545 S
C128 H101 0.929 . S
C128 C127 1.363 . S
C128 C129 1.385 . S
C129 H103 0.930 . S
C129 C128 1.385 . S
C129 C130 1.357 . S
C130 C129 1.357 . S
C130 C131 1.406 1_545 S
C131 H105 0.929 . S
C131 C130 1.406 1_565 S
C131 C132 1.391 . S
C132 H104 0.931 . S
C132 C127 1.370 1_565 S
C132 C131 1.391 . S
C133 N102 1.435 . S
C133 C134 1.358 1_545 S
C133 C138 1.371 . S
C134 H106 0.930 . S
C134 C133 1.358 1_565 S
C134 C135 1.405 . S
C135 H107 0.932 . S
C135 C134 1.405 . S
C135 C136 1.383 1_565 S
C136 C135 1.383 1_545 S
C136 C137 1.393 . S
C137 H109 0.931 . S
C137 C136 1.393 . S
C137 C138 1.382 . S
C138 H108 0.929 . S
C138 C133 1.371 . S
C138 C137 1.382 . S
C139 N102 1.423 . S
C139 C140 1.362 . S
C139 C144 1.388 . S
C140 H110 0.929 . S
C140 C139 1.362 . S
C140 C141 1.376 . S
C141 H112 0.931 . S
C141 C140 1.376 . S
C141 C142 1.396 . S
C142 C141 1.396 . S
C142 C143 1.348 . S
C142 C160 1.472 . S
C143 H113 0.929 . S
C143 C142 1.348 . S
C143 C144 1.443 . S
C144 H111 0.932 1_545 S
C144 C139 1.388 . S
C144 C143 1.443 . S
C145 N125 1.433 . S
C145 C146 1.363 . S
C145 C150 1.370 1_545 S
C146 H114 0.929 . S
C146 C145 1.363 . S
C146 C147 1.385 . S
C147 H115 0.930 . S
C147 C146 1.385 . S
C147 C148 1.357 . S
C148 C147 1.357 . S
C148 C149 1.406 1_545 S
C149 H116 0.929 . S
C149 C148 1.406 1_565 S
C149 C150 1.391 . S
C150 H117 0.931 . S
C150 C145 1.370 1_565 S
C150 C149 1.391 . S
C151 N125 1.435 . S
C151 C152 1.358 1_545 S
C151 C156 1.371 . S
C152 H118 0.930 . S
C152 C151 1.358 1_565 S
C152 C153 1.405 . S
C153 H119 0.932 . S
C153 C152 1.405 . S
C153 C154 1.383 1_565 S
C154 C153 1.383 1_545 S
C154 C155 1.393 . S
C155 H120 0.931 . S
C155 C154 1.393 . S
C155 C156 1.382 . S
C156 H121 0.929 . S
C156 C151 1.371 . S
C156 C155 1.382 . S
C157 N125 1.423 . S
C157 C158 1.362 . S
C157 C162 1.388 . S
C158 H122 0.929 . S
C158 C157 1.362 . S
C158 C159 1.376 . S
C159 H123 0.931 . S
C159 C158 1.376 . S
C159 C160 1.396 . S
C160 C142 1.472 . S
C160 C159 1.396 . S
C160 C161 1.348 . S
C161 H124 0.929 . S
C161 C160 1.348 . S
C161 C162 1.443 . S
C162 H126 0.932 1_545 S
C162 C157 1.388 . S
C162 C161 1.443 . S
H163 C190 0.929 . S
N164 C189 1.433 . S
N164 C195 1.435 . S
N164 C201 1.423 . S
H165 C191 0.930 . S
H166 C194 0.931 . S
H167 C193 0.929 . S
H168 C196 0.930 . S
H169 C197 0.932 . S
H170 C200 0.929 . S
H171 C199 0.931 . S
H172 C202 0.929 . S
H173 C206 0.932 . S
H174 C203 0.931 . S
H175 C205 0.929 . S
H176 C208 0.929 . S
H177 C209 0.930 . S
H178 C211 0.929 . S
H179 C212 0.931 . S
H180 C214 0.930 . S
H181 C215 0.932 . S
H182 C217 0.931 . S
H183 C218 0.929 . S
H184 C220 0.929 . S
H185 C221 0.931 . S
H186 C223 0.929 . S
N187 C207 1.433 . S
N187 C213 1.435 . S
N187 C219 1.423 . S
H188 C224 0.932 . S
C189 N164 1.433 . S
C189 C190 1.363 . S
C189 C194 1.370 . S
C190 H163 0.929 . S
C190 C189 1.363 . S
C190 C191 1.385 . S
C191 H165 0.930 . S
C191 C190 1.385 . S
C191 C192 1.357 . S
C192 C191 1.357 . S
C192 C193 1.406 . S
C193 H167 0.929 . S
C193 C192 1.406 . S
C193 C194 1.391 . S
C194 H166 0.931 . S
C194 C189 1.370 . S
C194 C193 1.391 . S
C195 N164 1.435 . S
C195 C196 1.358 . S
C195 C200 1.371 . S
C196 H168 0.930 . S
C196 C195 1.358 . S
C196 C197 1.405 . S
C197 H169 0.932 . S
C197 C196 1.405 . S
C197 C198 1.383 . S
C198 C197 1.383 . S
C198 C199 1.393 . S
C199 H171 0.931 . S
C199 C198 1.393 . S
C199 C200 1.382 . S
C200 H170 0.929 . S
C200 C195 1.371 . S
C200 C199 1.382 . S
C201 N164 1.423 . S
C201 C202 1.362 . S
C201 C206 1.388 . S
C202 H172 0.929 . S
C202 C201 1.362 . S
C202 C203 1.376 . S
C203 H174 0.931 . S
C203 C202 1.376 . S
C203 C204 1.396 . S
C204 C203 1.396 . S
C204 C205 1.348 . S
C204 C222 1.472 . S
C205 H175 0.929 . S
C205 C204 1.348 . S
C205 C206 1.443 . S
C206 H173 0.932 . S
C206 C201 1.388 . S
C206 C205 1.443 . S
C207 N187 1.433 . S
C207 C208 1.363 . S
C207 C212 1.370 . S
C208 H176 0.929 . S
C208 C207 1.363 . S
C208 C209 1.385 . S
C209 H177 0.930 . S
C209 C208 1.385 . S
C209 C210 1.357 . S
C210 C209 1.357 . S
C210 C211 1.406 . S
C211 H178 0.929 . S
C211 C210 1.406 . S
C211 C212 1.391 . S
C212 H179 0.931 . S
C212 C207 1.370 . S
C212 C211 1.391 . S
C213 N187 1.435 . S
C213 C214 1.358 . S
C213 C218 1.371 . S
C214 H180 0.930 . S
C214 C213 1.358 . S
C214 C215 1.405 . S
C215 H181 0.932 . S
C215 C214 1.405 . S
C215 C216 1.383 . S
C216 C215 1.383 . S
C216 C217 1.393 . S
C217 H182 0.931 . S
C217 C216 1.393 . S
C217 C218 1.382 . S
C218 H183 0.929 . S
C218 C213 1.371 . S
C218 C217 1.382 . S
C219 N187 1.423 . S
C219 C220 1.362 . S
C219 C224 1.388 . S
C220 H184 0.929 . S
C220 C219 1.362 . S
C220 C221 1.376 . S
C221 H185 0.931 . S
C221 C220 1.376 . S
C221 C222 1.396 . S
C222 C204 1.472 . S
C222 C221 1.396 . S
C222 C223 1.348 . S
C223 H186 0.929 . S
C223 C222 1.348 . S
C223 C224 1.443 . S
C224 H188 0.932 . S
C224 C219 1.388 . S
C224 C223 1.443 . S
C225 C226 1.387 1_455 S
C225 H229 0.950 . S
C225 C234 1.390 . S
C226 C225 1.387 1_655 S
C226 C228 1.387 . S
H227 C234 0.950 . S
C228 C226 1.387 . S
C228 C230 1.390 . S
C228 H232 0.950 . S
H229 C225 0.950 . S
C230 C228 1.390 . S
C230 C231 1.387 1_655 S
C230 H233 0.950 . S
C231 C230 1.387 1_455 S
C231 C234 1.387 . S
H232 C228 0.950 . S
H233 C230 0.950 . S
C234 C225 1.390 . S
C234 H227 0.950 . S
C234 C231 1.387 . S
C235 C236 1.387 . S
C235 H239 0.950 . S
C235 C244 1.390 . S
C236 C235 1.387 . S
C236 C238 1.387 1_545 S
H237 C244 0.950 . S
C238 C236 1.387 1_565 S
C238 C240 1.390 . S
C238 H242 0.950 . S
H239 C235 0.950 . S
C240 C238 1.390 . S
C240 C241 1.387 1_565 S
C240 H243 0.950 . S
C241 C240 1.387 1_545 S
C241 C244 1.387 . S
H242 C238 0.950 . S
H243 C240 0.950 . S
C244 C235 1.390 . S
C244 H237 0.950 . S
C244 C241 1.387 . S
C245 C246 1.387 . S
C245 H249 0.950 . S
C245 C254 1.390 . S
C246 C245 1.387 . S
C246 C248 1.387 . S
H247 C254 0.950 . S
C248 C246 1.387 . S
C248 C250 1.390 . S
C248 H252 0.950 . S
H249 C245 0.950 . S
C250 C248 1.390 . S
C250 C251 1.387 . S
C250 H253 0.950 . S
C251 C250 1.387 . S
C251 C254 1.387 . S
H252 C248 0.950 . S
H253 C250 0.950 . S
C254 C245 1.390 . S
C254 H247 0.950 . S
C254 C251 1.387 . S
C255 C256 1.387 . S
C255 H259 0.950 . S
C255 C264 1.390 . S
C256 C255 1.387 . S
C256 C258 1.387 1_455 S
H257 C264 0.950 . S
C258 C256 1.387 1_655 S
C258 C260 1.390 . S
C258 H262 0.950 . S
H259 C255 0.950 . S
C260 C258 1.390 . S
C260 C261 1.387 1_655 S
C260 H263 0.950 . S
C261 C260 1.387 1_455 S
C261 C264 1.387 . S
H262 C258 0.950 . S
H263 C260 0.950 . S
C264 C255 1.390 . S
C264 H257 0.950 . S
C264 C261 1.387 . S
C265 C266 1.387 1_565 S
C265 H269 0.950 . S
C265 C274 1.390 . S
C266 C265 1.387 1_545 S
C266 C268 1.387 . S
H267 C274 0.950 . S
C268 C266 1.387 . S
C268 C270 1.390 . S
C268 H272 0.950 . S
H269 C265 0.950 . S
C270 C268 1.390 . S
C270 C271 1.387 . S
C270 H273 0.950 . S
C271 C270 1.387 . S
C271 C274 1.387 1_545 S
H272 C268 0.950 . S
H273 C270 0.950 . S
C274 C265 1.390 . S
C274 H267 0.950 . S
C274 C271 1.387 1_565 S
C275 C276 1.387 . S
C275 H279 0.950 . S
C275 C284 1.390 . S
C276 C275 1.387 . S
C276 C278 1.387 . S
H277 C284 0.950 . S
C278 C276 1.387 . S
C278 C280 1.390 . S
C278 H282 0.950 . S
H279 C275 0.950 . S
C280 C278 1.390 . S
C280 C281 1.387 . S
C280 H283 0.950 . S
C281 C280 1.387 . S
C281 C284 1.387 . S
H282 C278 0.950 . S
H283 C280 0.950 . S
C284 C275 1.390 . S
C284 H277 0.950 . S
C284 C281 1.387 . S
C285 C286 1.387 . S
C285 H289 0.950 . S
C285 C294 1.390 . S
C286 C285 1.387 . S
C286 C288 1.387 1_545 S
H287 C294 0.950 . S
C288 C286 1.387 1_565 S
C288 C290 1.390 . S
C288 H292 0.950 . S
H289 C285 0.950 . S
C290 C288 1.390 . S
C290 C291 1.387 1_565 S
C290 H293 0.950 . S
C291 C290 1.387 1_545 S
C291 C294 1.387 . S
H292 C288 0.950 . S
H293 C290 0.950 . S
C294 C285 1.390 . S
C294 H287 0.950 . S
C294 C291 1.387 . S
C295 C296 1.387 . S
C295 H299 0.950 . S
C295 C304 1.390 . S
C296 C295 1.387 . S
C296 C298 1.386 . S
H297 C304 0.950 . S
C298 C296 1.386 . S
C298 C300 1.389 . S
C298 H302 0.952 1_556 S
H299 C295 0.950 . S
C300 C298 1.389 . S
C300 C301 1.387 . S
C300 H303 0.950 . S
C301 C300 1.387 . S
C301 C304 1.387 . S
H302 C298 0.952 1_554 S
H303 C300 0.950 . S
C304 C295 1.390 . S
C304 H297 0.950 . S
C304 C301 1.387 . S
C305 C306 1.387 1_655 S
C305 H309 0.950 . S
C305 C314 1.390 . S
C306 C305 1.387 1_455 S
C306 C308 1.387 . S
H307 C314 0.950 . S
C308 C306 1.387 . S
C308 C310 1.390 . S
C308 H312 0.950 . S
H309 C305 0.950 . S
C310 C308 1.390 . S
C310 C311 1.387 . S
C310 H313 0.950 . S
C311 C310 1.387 . S
C311 C314 1.387 1_455 S
H312 C308 0.950 . S
H313 C310 0.950 . S
C314 C305 1.390 . S
C314 H307 0.950 . S
C314 C311 1.387 1_655 S
C315 C316 1.387 1_545 S
C315 H319 0.950 . S
C315 C324 1.390 . S
C316 C315 1.387 1_565 S
C316 C318 1.387 . S
H317 C324 0.950 . S
C318 C316 1.387 . S
C318 C320 1.390 . S
C318 H322 0.950 . S
H319 C315 0.950 . S
C320 C318 1.390 . S
C320 C321 1.387 1_565 S
C320 H323 0.950 . S
C321 C320 1.387 1_545 S
C321 C324 1.387 . S
H322 C318 0.950 . S
H323 C320 0.950 . S
C324 C315 1.390 . S
C324 H317 0.950 . S
C324 C321 1.387 . S
C325 C326 1.387 . S
C325 H329 0.950 . S
C325 C334 1.390 . S
C326 C325 1.387 . S
C326 C328 1.387 . S
H327 C334 0.950 . S
C328 C326 1.387 . S
C328 C330 1.390 . S
C328 H332 0.950 . S
H329 C325 0.950 . S
C330 C328 1.390 . S
C330 C331 1.387 . S
C330 H333 0.950 . S
C331 C330 1.387 . S
C331 C334 1.387 . S
H332 C328 0.950 . S
H333 C330 0.950 . S
C334 C325 1.390 . S
C334 H327 0.950 . S
C334 C331 1.387 . S
C335 C336 1.387 . S
C335 H339 0.950 . S
C335 C344 1.390 . S
C336 C335 1.387 . S
C336 C338 1.387 . S
H337 C344 0.950 . S
C338 C336 1.387 . S
C338 C340 1.390 . S
C338 H342 0.950 . S
H339 C335 0.950 . S
C340 C338 1.390 . S
C340 C341 1.387 . S
C340 H343 0.950 1_455 S
C341 C340 1.387 . S
C341 C344 1.387 . S
H342 C338 0.950 . S
H343 C340 0.950 1_655 S
C344 C335 1.390 . S
C344 H337 0.950 . S
C344 C341 1.387 . S
C231 C92 1.343 . S
C226 C10 1.345 . S
C236 C21 1.341 . S
C241 C136 1.408 . S
C246 C31 1.338 . S
C251 C198 1.442 . S
C256 C0 1.310 . S
C261 C74 1.397 . S
C271 C154 1.396 . S
C266 C18 1.320 . S
C276 C34 1.319 . S
C281 C216 1.380 . S
C291 C130 1.484 . S
C286 C36 1.605 . S
C296 C8 1.652 . S
C301 C192 1.536 . S
C311 C68 1.508 . S
C306 C23 1.622 . S
C321 C148 1.497 . S
C316 C26 1.573 . S
C331 C210 1.602 . S
C326 C5 1.586 1_556 S
C336 C13 1.626 . S
C341 C86 1.560 . S
