# Generated by pormake.
# Topology nom, (4,4)-cn, num edge types: 1
# Building blocks:
#     Node 0, Type 0, BuildingBlock: MUDLON_clean_linker_0, # of connection points: 4
#     Node 1, Type 0, BuildingBlock: MUDLON_clean_linker_0, # of connection points: 4
#     Node 2, Type 0, BuildingBlock: MUDLON_clean_linker_0, # of connection points: 4
#     Node 3, Type 0, BuildingBlock: MUDLON_clean_linker_0, # of connection points: 4
#     Node 4, Type 0, BuildingBlock: MUDLON_clean_linker_0, # of connection points: 4
#     Node 5, Type 0, BuildingBlock: MUDLON_clean_linker_0, # of connection points: 4
#     Node 6, Type 1, BuildingBlock: TATPOV_clean_sbu_0, # of connection points: 4
#     Node 7, Type 1, BuildingBlock: TATPOV_clean_sbu_0, # of connection points: 4
#     Node 8, Type 1, BuildingBlock: TATPOV_clean_sbu_0, # of connection points: 4
#     Node 9, Type 1, BuildingBlock: TATPOV_clean_sbu_0, # of connection points: 4
#     Node 10, Type 1, BuildingBlock: TATPOV_clean_sbu_0, # of connection points: 4
#     Node 11, Type 1, BuildingBlock: TATPOV_clean_sbu_0, # of connection points: 4
#     Edge 12, Type (0, 1), BuildingBlock: XUDNAN_clean_linker_2, # of connection points: 2
#     Edge 13, Type (0, 1), BuildingBlock: XUDNAN_clean_linker_2, # of connection points: 2
#     Edge 14, Type (0, 1), BuildingBlock: XUDNAN_clean_linker_2, # of connection points: 2
#     Edge 15, Type (0, 1), BuildingBlock: XUDNAN_clean_linker_2, # of connection points: 2
#     Edge 16, Type (0, 1), BuildingBlock: XUDNAN_clean_linker_2, # of connection points: 2
#     Edge 17, Type (0, 1), BuildingBlock: XUDNAN_clean_linker_2, # of connection points: 2
#     Edge 18, Type (0, 1), BuildingBlock: XUDNAN_clean_linker_2, # of connection points: 2
#     Edge 19, Type (0, 1), BuildingBlock: XUDNAN_clean_linker_2, # of connection points: 2
#     Edge 20, Type (0, 1), BuildingBlock: XUDNAN_clean_linker_2, # of connection points: 2
#     Edge 21, Type (0, 1), BuildingBlock: XUDNAN_clean_linker_2, # of connection points: 2
#     Edge 22, Type (0, 1), BuildingBlock: XUDNAN_clean_linker_2, # of connection points: 2
#     Edge 23, Type (0, 1), BuildingBlock: XUDNAN_clean_linker_2, # of connection points: 2
#     Edge 24, Type (0, 1), BuildingBlock: XUDNAN_clean_linker_2, # of connection points: 2
#     Edge 25, Type (0, 1), BuildingBlock: XUDNAN_clean_linker_2, # of connection points: 2
#     Edge 26, Type (0, 1), BuildingBlock: XUDNAN_clean_linker_2, # of connection points: 2
#     Edge 27, Type (0, 1), BuildingBlock: XUDNAN_clean_linker_2, # of connection points: 2
#     Edge 28, Type (0, 1), BuildingBlock: XUDNAN_clean_linker_2, # of connection points: 2
#     Edge 29, Type (0, 1), BuildingBlock: XUDNAN_clean_linker_2, # of connection points: 2
#     Edge 30, Type (0, 1), BuildingBlock: XUDNAN_clean_linker_2, # of connection points: 2
#     Edge 31, Type (0, 1), BuildingBlock: XUDNAN_clean_linker_2, # of connection points: 2
#     Edge 32, Type (0, 1), BuildingBlock: XUDNAN_clean_linker_2, # of connection points: 2
#     Edge 33, Type (0, 1), BuildingBlock: XUDNAN_clean_linker_2, # of connection points: 2
#     Edge 34, Type (0, 1), BuildingBlock: XUDNAN_clean_linker_2, # of connection points: 2
#     Edge 35, Type (0, 1), BuildingBlock: XUDNAN_clean_linker_2, # of connection points: 2
# Relax obj value: 0.023
# Max RMSD: 0.119
# Mean RMSD: 0.104
data_MOF--net-nom--node1-TATPOV_clean_sbu_0--node2-MUDLON_clean_linker_0--edge1-XUDNAN_clean_linker_2
_symmetry_space_group_name_H-M    P1
_symmetry_Int_Tables_number       1
_symmetry_cell_setting            triclinic
loop_
_symmetry_equiv_pos_as_xyz
'x, y, z'
_cell_length_a     59.804297
_cell_length_b     61.270846
_cell_length_c     60.092545
_cell_angle_alpha  90.988432
_cell_angle_beta   90.417473
_cell_angle_gamma 120.34936
loop_
_atom_site_label
_atom_site_type_symbol
_atom_site_fract_x
_atom_site_fract_y
_atom_site_fract_z
_atom_type_partial_charge
H0 H 0.12357 0.55308 0.31387 0.0
N1 N 0.09038 0.56614 0.33281 0.0
H2 H 0.15503 0.57621 0.28507 0.0
H3 H 0.09462 0.60459 0.30982 0.0
H4 H 0.1259 0.62778 0.28083 0.0
H5 H 0.09685 0.59999 0.36399 0.0
H6 H 0.11988 0.60836 0.39959 0.0
H7 H 0.11105 0.53904 0.3497 0.0
H8 H 0.13625 0.54854 0.38438 0.0
H9 H 0.07686 0.52159 0.31088 0.0
H10 H 0.04674 0.56193 0.34738 0.0
H11 H 0.03278 0.48654 0.30367 0.0
H12 H 0.00275 0.52648 0.34166 0.0
H13 H 0.87603 0.37842 0.28469 0.0
H14 H 0.85518 0.36938 0.24802 0.0
H15 H 0.90361 0.44806 0.23155 0.0
H16 H 0.92299 0.45717 0.26841 0.0
H17 H 0.88223 0.44803 0.29914 0.0
H18 H 0.84629 0.44215 0.32208 0.0
H19 H 0.85562 0.38936 0.36222 0.0
H20 H 0.89182 0.39537 0.33897 0.0
H21 H 0.95083 0.41869 0.30977 0.0
H22 H 0.99534 0.45234 0.31837 0.0
H23 H 0.971 0.50771 0.31405 0.0
N24 N 0.9094 0.42323 0.3028 0.0
H25 H 0.92685 0.47414 0.30679 0.0
C26 C 0.10687 0.57731 0.31408 0.0
C27 C 0.12377 0.56919 0.30664 0.0
C28 C 0.14179 0.58245 0.29019 0.0
C29 C 0.14298 0.60384 0.28074 0.0
C30 C 0.12527 0.61121 0.28759 0.0
C31 C 0.10746 0.59808 0.30416 0.0
C32 C 0.10278 0.56935 0.35413 0.0
C33 C 0.10521 0.58858 0.36857 0.0
C34 C 0.11869 0.59349 0.38878 0.0
C35 C 0.13061 0.57957 0.39477 0.0
C36 C 0.12736 0.55966 0.38046 0.0
C37 C 0.11328 0.55439 0.36043 0.0
C38 C 0.06493 0.54453 0.32932 0.0
C39 C 0.06074 0.5228 0.31748 0.0
C40 C 0.03547 0.50264 0.31359 0.0
C41 C 0.014 0.50368 0.32184 0.0
C42 C 0.01859 0.52518 0.33445 0.0
C43 C 0.04373 0.5454 0.33795 0.0
C44 C 0.90108 0.41836 0.27964 0.0
C45 C 0.88238 0.39362 0.27301 0.0
C46 C 0.87054 0.3885 0.25195 0.0
C47 C 0.87746 0.40803 0.23675 0.0
C48 C 0.89724 0.43261 0.24295 0.0
C49 C 0.90869 0.43782 0.26419 0.0
C50 C 0.88986 0.42218 0.31745 0.0
C51 C 0.87699 0.43562 0.31314 0.0
C52 C 0.85639 0.43223 0.32631 0.0
C53 C 0.84809 0.41526 0.34396 0.0
C54 C 0.86143 0.40238 0.34861 0.0
C55 C 0.88217 0.4059 0.33548 0.0
C56 C 0.93543 0.44372 0.30762 0.0
C57 C 0.95522 0.43813 0.31082 0.0
C58 C 0.98067 0.45743 0.31556 0.0
C59 C 0.98692 0.48287 0.31698 0.0
C60 C 0.96698 0.48839 0.31363 0.0
C61 C 0.94154 0.46908 0.30928 0.0
H62 H 0.50322 0.89092 0.46673 0.0
N63 N 0.49855 0.93031 0.4562 0.0
H64 H 0.47804 0.85846 0.49363 0.0
H65 H 0.46684 0.93301 0.48781 0.0
H66 H 0.44244 0.9013 0.51535 0.0
H67 H 0.44661 0.91155 0.44865 0.0
H68 H 0.42265 0.89338 0.41394 0.0
H69 H 0.51703 0.92468 0.4176 0.0
H70 H 0.4929 0.90641 0.38241 0.0
H71 H 0.54566 0.96393 0.47158 0.0
H72 H 0.47361 0.95737 0.4497 0.0
H73 H 0.56403 0.00943 0.47793 0.0
H74 H 0.49211 0.00256 0.45461 0.0
H75 H 0.62071 0.14549 0.50149 0.0
H76 H 0.63035 0.16433 0.53895 0.0
H77 H 0.54822 0.12542 0.55232 0.0
H78 H 0.539 0.10875 0.51441 0.0
H79 H 0.52948 0.11783 0.47573 0.0
H80 H 0.52487 0.1495 0.45562 0.0
H81 H 0.60584 0.18599 0.43838 0.0
H82 H 0.60951 0.15303 0.45716 0.0
H83 H 0.59817 0.09345 0.46661 0.0
H84 H 0.57968 0.04803 0.45964 0.0
H85 H 0.50516 0.03508 0.48114 0.0
N86 N 0.57454 0.11712 0.4822 0.0
H87 H 0.52334 0.08017 0.48666 0.0
C88 C 0.48704 0.9144 0.47513 0.0
C89 C 0.4904 0.89354 0.47766 0.0
C90 C 0.47602 0.87504 0.49314 0.0
C91 C 0.45798 0.8771 0.50658 0.0
C92 C 0.4558 0.89886 0.505 0.0
C93 C 0.47003 0.91724 0.48936 0.0
C94 C 0.48382 0.91968 0.43573 0.0
C95 C 0.457 0.91061 0.43436 0.0
C96 C 0.44328 0.90028 0.41443 0.0
C97 C 0.45593 0.89861 0.39544 0.0
C98 C 0.48264 0.90735 0.39684 0.0
C99 C 0.49644 0.9179 0.41682 0.0
C100 C 0.50842 0.95708 0.45993 0.0
C101 C 0.53389 0.97232 0.46796 0.0
C102 C 0.54441 0.99837 0.47137 0.0
C103 C 0.52967 0.00986 0.46662 0.0
C104 C 0.50402 0.99447 0.45873 0.0
C105 C 0.49343 0.96842 0.45562 0.0
C106 C 0.57926 0.12535 0.5052 0.0
C107 C 0.60488 0.14091 0.51267 0.0
C108 C 0.6103 0.15153 0.53419 0.0
C109 C 0.5901 0.14645 0.5489 0.0
C110 C 0.56436 0.13022 0.54147 0.0
C111 C 0.55898 0.12013 0.51976 0.0
C112 C 0.56983 0.13282 0.46764 0.0
C113 C 0.54594 0.13201 0.4669 0.0
C114 C 0.54349 0.15054 0.45566 0.0
C115 C 0.56503 0.17067 0.44547 0.0
C116 C 0.58861 0.17071 0.44557 0.0
C117 C 0.59085 0.15191 0.45641 0.0
C118 C 0.56237 0.09038 0.47726 0.0
C119 C 0.57778 0.08073 0.46956 0.0
C120 C 0.56721 0.05472 0.46584 0.0
C121 C 0.5409 0.03769 0.46999 0.0
C122 C 0.5254 0.04751 0.47746 0.0
C123 C 0.53594 0.07354 0.48089 0.0
H124 H 0.47426 0.62525 0.65908 0.0
N125 N 0.47182 0.58269 0.67076 0.0
H126 H 0.44271 0.62992 0.63675 0.0
H127 H 0.43165 0.54476 0.64593 0.0
H128 H 0.40026 0.54926 0.62327 0.0
H129 H 0.42475 0.54691 0.68667 0.0
H130 H 0.4098 0.5441 0.72461 0.0
H131 H 0.49784 0.6127 0.70544 0.0
H132 H 0.48289 0.60996 0.7438 0.0
H133 H 0.51905 0.60051 0.65503 0.0
H134 H 0.45111 0.53121 0.67368 0.0
H135 H 0.54206 0.57744 0.64863 0.0
H136 H 0.47378 0.50808 0.66715 0.0
H137 H 0.61669 0.50649 0.63248 0.0
H138 H 0.62345 0.48921 0.5979 0.0
H139 H 0.54048 0.44361 0.58758 0.0
H140 H 0.534 0.46068 0.6225 0.0
H141 H 0.53026 0.44689 0.66038 0.0
H142 H 0.53066 0.41495 0.68382 0.0
H143 H 0.61081 0.4676 0.70184 0.0
H144 H 0.60955 0.49965 0.67935 0.0
H145 H 0.56977 0.52547 0.62295 0.0
H146 H 0.5434 0.54534 0.6249 0.0
H147 H 0.50994 0.50655 0.68574 0.0
N148 N 0.572 0.4935 0.65173 0.0
H149 H 0.5359 0.48657 0.68391 0.0
C150 C 0.45541 0.58479 0.65427 0.0
C151 C 0.45847 0.60869 0.65085 0.0
C152 C 0.44044 0.6113 0.63802 0.0
C153 C 0.41884 0.58992 0.62832 0.0
C154 C 0.41649 0.56605 0.63078 0.0
C155 C 0.4346 0.56348 0.64363 0.0
C156 C 0.46259 0.58004 0.69321 0.0
C157 C 0.43773 0.56065 0.69897 0.0
C158 C 0.42919 0.559 0.72075 0.0
C159 C 0.44522 0.57675 0.7372 0.0
C160 C 0.47006 0.59612 0.73143 0.0
C161 C 0.47867 0.59765 0.70963 0.0
C162 C 0.48347 0.56778 0.66489 0.0
C163 C 0.50899 0.58027 0.65738 0.0
C164 C 0.52204 0.56703 0.65369 0.0
C165 C 0.50977 0.54093 0.65751 0.0
C166 C 0.48387 0.52824 0.66436 0.0
C167 C 0.47081 0.54149 0.66798 0.0
C168 C 0.57498 0.48496 0.63 0.0
C169 C 0.60003 0.49302 0.62256 0.0
C170 C 0.6038 0.48315 0.60278 0.0
C171 C 0.58249 0.46497 0.58998 0.0
C172 C 0.5573 0.4573 0.59722 0.0
C173 C 0.55355 0.46716 0.61708 0.0
C174 C 0.56991 0.47581 0.66832 0.0
C175 C 0.54766 0.4517 0.66987 0.0
C176 C 0.54804 0.43335 0.68313 0.0
C177 C 0.57085 0.43847 0.69465 0.0
C178 C 0.5927 0.46294 0.69364 0.0
C179 C 0.59212 0.48137 0.68072 0.0
C180 C 0.55427 0.50325 0.65253 0.0
C181 C 0.55627 0.52059 0.63644 0.0
C182 C 0.54138 0.53224 0.63768 0.0
C183 C 0.52435 0.5273 0.65533 0.0
C184 C 0.52238 0.51023 0.67159 0.0
C185 C 0.53734 0.49861 0.67041 0.0
H186 H 0.11848 0.59193 0.81016 0.0
N187 N 0.09768 0.54383 0.79276 0.0
H188 H 0.15346 0.61203 0.83788 0.0
H189 H 0.11863 0.52203 0.81585 0.0
H190 H 0.1548 0.54228 0.8424 0.0
H191 H 0.13226 0.54169 0.76697 0.0
H192 H 0.15417 0.56773 0.73527 0.0
H193 H 0.08541 0.57662 0.77244 0.0
H194 H 0.10562 0.60124 0.7398 0.0
H195 H 0.0739 0.56788 0.81164 0.0
H196 H 0.06037 0.49633 0.78511 0.0
H197 H 0.02802 0.54929 0.81896 0.0
H198 H 0.01422 0.47709 0.79321 0.0
H199 H 0.88294 0.49062 0.84474 0.0
H200 H 0.86162 0.47518 0.88037 0.0
H201 H 0.8897 0.42265 0.88232 0.0
H202 H 0.91117 0.43841 0.84673 0.0
H203 H 0.89049 0.42344 0.8114 0.0
H204 H 0.8548 0.39626 0.78577 0.0
H205 H 0.84856 0.46066 0.7667 0.0
H206 H 0.88422 0.48773 0.79261 0.0
H207 H 0.94849 0.50512 0.84759 0.0
H208 H 0.9944 0.52102 0.84215 0.0
H209 H 0.97623 0.47693 0.7809 0.0
N210 N 0.90846 0.47355 0.82104 0.0
H211 H 0.9306 0.46028 0.78667 0.0
C212 C 0.11569 0.55528 0.81121 0.0
C213 C 0.12561 0.58071 0.8178 0.0
C214 C 0.14599 0.59233 0.83341 0.0
C215 C 0.15723 0.57893 0.84237 0.0
C216 C 0.14647 0.55319 0.83631 0.0
C217 C 0.12585 0.54153 0.82101 0.0
C218 C 0.10707 0.55691 0.77211 0.0
C219 C 0.12618 0.55447 0.7609 0.0
C220 C 0.1386 0.56935 0.74265 0.0
C221 C 0.13184 0.58681 0.73482 0.0
C222 C 0.11187 0.58849 0.74556 0.0
C223 C 0.09989 0.57401 0.76418 0.0
C224 C 0.07063 0.53347 0.79766 0.0
C225 C 0.06114 0.54809 0.80753 0.0
C226 C 0.03476 0.5373 0.8119 0.0
C227 C 0.0173 0.51161 0.80676 0.0
C228 C 0.02697 0.497 0.7971 0.0
C229 C 0.05333 0.50789 0.79256 0.0
C230 C 0.8985 0.46566 0.84308 0.0
C231 C 0.88478 0.47605 0.85306 0.0
C232 C 0.87267 0.46723 0.87339 0.0
C233 C 0.87391 0.44763 0.88408 0.0
C234 C 0.88816 0.43756 0.87432 0.0
C235 C 0.90048 0.44657 0.85403 0.0
C236 C 0.88982 0.45764 0.80406 0.0
C237 C 0.88153 0.43174 0.80167 0.0
C238 C 0.86116 0.41623 0.78699 0.0
C239 C 0.8488 0.42631 0.77434 0.0
C240 C 0.85787 0.4524 0.77606 0.0
C241 C 0.87814 0.46786 0.79086 0.0
C242 C 0.93544 0.48073 0.81812 0.0
C243 C 0.95425 0.49831 0.83325 0.0
C244 C 0.98064 0.50772 0.82994 0.0
C245 C 0.98911 0.5003 0.81106 0.0
C246 C 0.97044 0.4827 0.79588 0.0
C247 C 0.94401 0.47309 0.79927 0.0
H248 H 0.53569 0.13383 0.99119 0.0
N249 N 0.54409 0.10136 0.96842 0.0
H250 H 0.5662 0.16847 0.01592 0.0
H251 H 0.59019 0.10791 0.98435 0.0
H252 H 0.62133 0.14305 0.00819 0.0
H253 H 0.58862 0.11508 0.94551 0.0
H254 H 0.60058 0.13652 0.91033 0.0
H255 H 0.5148 0.11146 0.94201 0.0
H256 H 0.52724 0.13435 0.90706 0.0
H257 H 0.50055 0.06883 0.98783 0.0
H258 H 0.5667 0.07376 0.95494 0.0
H259 H 0.48187 0.0232 0.99102 0.0
H260 H 0.5477 0.02819 0.95699 0.0
H261 H 0.417 0.88755 0.99621 0.0
H262 H 0.40696 0.8666 0.03209 0.0
H263 H 0.48854 0.89507 0.0442 0.0
H264 H 0.49828 0.91572 0.00824 0.0
H265 H 0.50119 0.90207 0.97165 0.0
H266 H 0.49883 0.86935 0.94608 0.0
H267 H 0.42655 0.85797 0.91884 0.0
H268 H 0.42895 0.89044 0.94468 0.0
H269 H 0.44083 0.94064 0.96991 0.0
H270 H 0.46162 0.98659 0.96793 0.0
H271 H 0.53618 0.99317 0.98029 0.0
N272 N 0.463 0.91351 0.9777 0.0
H273 H 0.5151 0.94701 0.98107 0.0
C274 C 0.56068 0.11845 0.98584 0.0
C275 C 0.55412 0.13543 0.99536 0.0
C276 C 0.57172 0.15537 0.00924 0.0
C277 C 0.59645 0.15887 0.01374 0.0
C278 C 0.60244 0.14091 0.0052 0.0
C279 C 0.58468 0.12082 0.99142 0.0
C280 C 0.55054 0.11132 0.94635 0.0
C281 C 0.5747 0.11843 0.93701 0.0
C282 C 0.58174 0.13114 0.91695 0.0
C283 C 0.56504 0.13751 0.90596 0.0
C284 C 0.5405 0.12956 0.91492 0.0
C285 C 0.53336 0.11655 0.93491 0.0
C286 C 0.53476 0.07477 0.97091 0.0
C287 C 0.51099 0.06003 0.98125 0.0
C288 C 0.50027 0.03392 0.98285 0.0
C289 C 0.51303 0.02183 0.97392 0.0
C290 C 0.53734 0.03679 0.96415 0.0
C291 C 0.54818 0.063 0.96278 0.0
C292 C 0.45826 0.90319 -0.0004 0.0
C293 C 0.43267 0.88944 0.00677 0.0
C294 C 0.42703 0.87756 0.02725 0.0
C295 C 0.44699 0.87918 0.04099 0.0
C296 C 0.47274 0.89325 0.03388 0.0
C297 C 0.47835 0.90522 0.01337 0.0
C298 C 0.46502 0.89843 0.96014 0.0
C299 C 0.48513 0.8929 0.95989 0.0
C300 C 0.48374 0.87417 0.94531 0.0
C301 C 0.46242 0.86099 0.93057 0.0
C302 C 0.44334 0.86793 0.92983 0.0
C303 C 0.44462 0.88641 0.94457 0.0
C304 C 0.47634 0.94052 0.9758 0.0
C305 C 0.46168 0.95209 0.97204 0.0
C306 C 0.47361 0.97836 0.97116 0.0
C307 C 0.50061 0.99374 0.97429 0.0
C308 C 0.51539 0.98198 0.9777 0.0
C309 C 0.50336 0.95557 0.97835 0.0
H310 H 0.53007 0.41305 0.15151 0.0
N311 N 0.53689 0.45485 0.17172 0.0
H312 H 0.55861 0.40908 0.12485 0.0
H313 H 0.57902 0.49416 0.15209 0.0
H314 H 0.60829 0.49045 0.12649 0.0
H315 H 0.5847 0.48732 0.19049 0.0
H316 H 0.59908 0.48629 0.22816 0.0
H317 H 0.51055 0.42122 0.20272 0.0
H318 H 0.52517 0.41994 0.24083 0.0
H319 H 0.49017 0.44121 0.15558 0.0
H320 H 0.55981 0.50586 0.18206 0.0
H321 H 0.46948 0.46682 0.15336 0.0
H322 H 0.53907 0.53124 0.18072 0.0
H323 H 0.41623 0.52696 0.12504 0.0
H324 H 0.41347 0.54127 0.08795 0.0
H325 H 0.47703 0.61602 0.10558 0.0
H326 H 0.48075 0.60096 0.14176 0.0
H327 H 0.48374 0.59719 0.18132 0.0
H328 H 0.47489 0.62728 0.20112 0.0
H329 H 0.39268 0.57437 0.19407 0.0
H330 H 0.4018 0.54509 0.17351 0.0
H331 H 0.42916 0.50859 0.17416 0.0
H332 H 0.4522 0.48532 0.17786 0.0
H333 H 0.52265 0.55115 0.15681 0.0
N334 N 0.44728 0.55456 0.15869 0.0
H335 H 0.49949 0.5745 0.15408 0.0
C336 C 0.55236 0.45378 0.1539 0.0
C337 C 0.54685 0.43 0.14568 0.0
C338 C 0.56337 0.42779 0.13065 0.0
C339 C 0.58601 0.44941 0.12366 0.0
C340 C 0.59093 0.47336 0.13125 0.0
C341 C 0.57423 0.47554 0.1461 0.0
C342 C 0.54629 0.45443 0.19379 0.0
C343 C 0.57141 0.47259 0.20123 0.0
C344 C 0.57966 0.47201 0.22285 0.0
C345 C 0.56315 0.45316 0.23743 0.0
C346 C 0.53828 0.43464 0.22987 0.0
C347 C 0.52991 0.4354 0.20824 0.0
C348 C 0.5264 0.47135 0.16908 0.0
C349 C 0.501 0.46093 0.16085 0.0
C350 C 0.48915 0.47556 0.15986 0.0
C351 C 0.50245 0.50105 0.16723 0.0
C352 C 0.52826 0.51174 0.17484 0.0
C353 C 0.54015 0.49709 0.17571 0.0
C354 C 0.44828 0.5629 0.13627 0.0
C355 C 0.42982 0.54628 0.12064 0.0
C356 C 0.42812 0.55464 0.09957 0.0
C357 C 0.44463 0.58003 0.09385 0.0
C358 C 0.46402 0.59634 0.10925 0.0
C359 C 0.46601 0.58779 0.13016 0.0
C360 C 0.44332 0.56909 0.17564 0.0
C361 C 0.46386 0.59188 0.18454 0.0
C362 C 0.45875 0.60903 0.19591 0.0
C363 C 0.43304 0.60348 0.19868 0.0
C364 C 0.41268 0.57953 0.1917 0.0
C365 C 0.41782 0.56261 0.18022 0.0
C366 C 0.46252 0.54311 0.16379 0.0
C367 C 0.4497 0.51808 0.17081 0.0
C368 C 0.46284 0.50475 0.17258 0.0
C369 C 0.48919 0.51615 0.16716 0.0
C370 C 0.50239 0.54175 0.16114 0.0
C371 C 0.48918 0.55516 0.15954 0.0
Zn372 Zn 0.67187 0.44342 0.41326 0.0
Zn373 Zn 0.63682 0.39366 0.40789 0.0
O374 O 0.67228 0.39631 0.40354 0.0
O375 O 0.70114 0.43685 0.40724 0.0
O376 O 0.61178 0.35591 0.40766 0.0
O377 O 0.65988 0.4439 0.4444 0.0
O378 O 0.63013 0.40391 0.43885 0.0
C379 C 0.69577 0.41429 0.4035 0.0
C380 C 0.63418 0.43106 0.37702 0.0
O381 O 0.62551 0.40808 0.38221 0.0
O382 O 0.65318 0.44881 0.38776 0.0
C383 C 0.61536 0.33971 0.39723 0.0
O384 O 0.63539 0.34758 0.38418 0.0
C385 C 0.64048 0.42388 0.45116 0.0
Zn386 Zn 0.25054 0.69939 0.5625 0.0
Zn387 Zn 0.27111 0.66959 0.571 0.0
O388 O 0.30278 0.70543 0.56708 0.0
O389 O 0.28639 0.72969 0.55989 0.0
O390 O 0.28699 0.64815 0.57818 0.0
O391 O 0.23296 0.69018 0.59245 0.0
O392 O 0.24849 0.66485 0.59808 0.0
C393 C 0.30591 0.72707 0.56261 0.0
C394 C 0.23563 0.65816 0.53031 0.0
O395 O 0.24954 0.6528 0.54262 0.0
O396 O 0.23316 0.67706 0.53507 0.0
C397 C 0.3091 0.65308 0.57132 0.0
O398 O 0.32232 0.67272 0.55871 0.0
C399 C 0.23479 0.67428 0.60437 0.0
Zn400 Zn 0.56946 0.2382 0.72711 0.0
Zn401 Zn 0.62244 0.26848 0.73154 0.0
O402 O 0.60922 0.29334 0.73105 0.0
O403 O 0.56686 0.27018 0.72609 0.0
O404 O 0.66101 0.2915 0.73436 0.0
O405 O 0.57081 0.22308 0.7571 0.0
O406 O 0.6132 0.24794 0.75948 0.0
C407 C 0.58723 0.29162 0.72866 0.0
C408 C 0.59812 0.23112 0.69183 0.0
O409 O 0.61767 0.24779 0.70302 0.0
O410 O 0.57535 0.22398 0.69826 0.0
C411 C 0.67332 0.30691 0.71907 0.0
O412 O 0.66055 0.30712 0.70126 0.0
C413 C 0.59213 0.23069 0.7675 0.0
Zn414 Zn 0.34587 0.58754 0.91875 0.0
Zn415 Zn 0.37869 0.63678 0.91072 0.0
O416 O 0.34212 0.63206 0.90778 0.0
O417 O 0.315 0.59203 0.91459 0.0
O418 O 0.40138 0.67437 0.90701 0.0
O419 O 0.36202 0.59184 0.94916 0.0
O420 O 0.39052 0.63126 0.94135 0.0
C421 C 0.319 0.6137 0.90964 0.0
C422 C 0.3788 0.59685 0.88021 0.0
O423 O 0.38743 0.62012 0.88506 0.0
O424 O 0.36155 0.57978 0.89203 0.0
C425 C 0.39983 0.6853 0.88977 0.0
O426 O 0.38409 0.67152 0.87336 0.0
C427 C 0.3819 0.61277 0.95454 0.0
Zn428 Zn 0.77732 0.43551 0.06694 0.0
Zn429 Zn 0.74325 0.3849 0.06255 0.0
O430 O 0.71944 0.40005 0.06686 0.0
O431 O 0.74685 0.44122 0.06774 0.0
O432 O 0.71839 0.34714 0.05884 0.0
O433 O 0.79238 0.43432 0.03719 0.0
O434 O 0.76371 0.39369 0.03345 0.0
C435 C 0.72384 0.42271 0.06807 0.0
C436 C 0.78327 0.40644 0.10125 0.0
O437 O 0.76524 0.38804 0.09005 0.0
O438 O 0.79154 0.42899 0.09539 0.0
C439 C 0.72533 0.33137 0.06412 0.0
O440 O 0.74886 0.33982 0.07214 0.0
C441 C 0.7827 0.41379 0.02592 0.0
Zn442 Zn 0.3374 0.78975 0.21569 0.0
Zn443 Zn 0.36222 0.7649 0.2246 0.0
O444 O 0.3232 0.7374 0.22489 0.0
O445 O 0.30307 0.75739 0.21446 0.0
O446 O 0.37999 0.74462 0.22956 0.0
O447 O 0.35731 0.80321 0.18776 0.0
O448 O 0.37697 0.78176 0.19437 0.0
C449 C 0.30231 0.73719 0.21996 0.0
C450 C 0.36742 0.80641 0.25684 0.0
O451 O 0.37391 0.79022 0.25124 0.0
O452 O 0.35168 0.80922 0.2447 0.0
C453 C 0.37399 0.72614 0.21611 0.0
O454 O 0.35692 0.72143 0.20013 0.0
C455 C 0.37339 0.79657 0.18211 0.0
H456 H 0.19471 0.61985 0.28432 0.0
H457 H 0.138 0.6241 0.24206 0.0
H458 H 0.17316 0.65486 0.21856 0.0
H459 H 0.23962 0.68309 0.28533 0.0
H460 H 0.268 0.67994 0.2848 0.0
H461 H 0.2384 0.65521 0.29606 0.0
H462 H 0.23932 0.62263 0.26859 0.0
H463 H 0.26909 0.64731 0.25727 0.0
H464 H 0.24153 0.62834 0.23914 0.0
H465 H 0.21407 0.68929 0.20326 0.0
H466 H 0.2581 0.72487 0.19677 0.0
H467 H 0.28879 0.69783 0.24815 0.0
C468 C 0.18965 0.62658 0.26966 0.0
C469 C 0.16363 0.6195 0.26491 0.0
C470 C 0.15782 0.62935 0.24601 0.0
C471 C 0.17764 0.64667 0.23249 0.0
C472 C 0.20316 0.65381 0.238 0.0
C473 C 0.20923 0.64393 0.25601 0.0
C474 C 0.23833 0.6566 0.25959 0.0
C475 C 0.24655 0.66947 0.28281 0.0
C476 C 0.24761 0.63758 0.25592 0.0
C477 C 0.24763 0.67587 0.24134 0.0
C478 C 0.227 0.67369 0.22891 0.0
C479 C 0.23042 0.69086 0.21253 0.0
C480 C 0.25548 0.71106 0.20903 0.0
C481 C 0.27683 0.71391 0.2218 0.0
C482 C 0.27289 0.69573 0.23778 0.0
H483 H 0.59149 0.201 0.41017 0.0
H484 H 0.53673 0.1914 0.46161 0.0
H485 H 0.53872 0.23068 0.45042 0.0
H486 H 0.63218 0.26484 0.4207 0.0
H487 H 0.64082 0.27329 0.39216 0.0
H488 H 0.6312 0.24189 0.40092 0.0
H489 H 0.59517 0.223 0.3703 0.0
H490 H 0.60473 0.25444 0.3614 0.0
H491 H 0.57167 0.23314 0.36902 0.0
H492 H 0.55087 0.27366 0.43739 0.0
H493 H 0.57328 0.31748 0.42429 0.0
H494 H 0.62202 0.30062 0.38275 0.0
C495 C 0.5796 0.20688 0.41894 0.0
C496 C 0.56375 0.19271 0.43671 0.0
C497 C 0.54851 0.2013 0.44757 0.0
C498 C 0.54961 0.22378 0.44141 0.0
C499 C 0.56605 0.23762 0.42435 0.0
C500 C 0.58076 0.22949 0.41323 0.0
C501 C 0.59906 0.24924 0.39728 0.0
C502 C 0.62749 0.25782 0.40313 0.0
C503 C 0.59224 0.23936 0.37306 0.0
C504 C 0.59308 0.27014 0.40184 0.0
C505 C 0.5736 0.26284 0.41717 0.0
C506 C 0.56588 0.27947 0.42513 0.0
C507 C 0.57879 0.30437 0.41761 0.0
C508 C 0.5994 0.31253 0.40244 0.0
C509 C 0.60615 0.29493 0.39412 0.0
H510 H 0.4236 0.62721 0.60048 0.0
H511 H 0.3665 0.55882 0.63254 0.0
H512 H 0.33167 0.56557 0.6185 0.0
H513 H 0.39553 0.66338 0.61401 0.0
H514 H 0.40295 0.68009 0.58823 0.0
H515 H 0.42312 0.6682 0.59821 0.0
H516 H 0.41571 0.64316 0.56105 0.0
H517 H 0.39561 0.65511 0.55088 0.0
H518 H 0.3831 0.62149 0.55129 0.0
H519 H 0.30365 0.58238 0.60493 0.0
H520 H 0.2843 0.60705 0.59123 0.0
H521 H 0.35954 0.66445 0.56792 0.0
C522 C 0.40373 0.61345 0.60427 0.0
C523 C 0.3978 0.59239 0.6175 0.0
C524 C 0.37153 0.57482 0.62208 0.0
C525 C 0.3516 0.57858 0.61429 0.0
C526 C 0.35819 0.59987 0.6018 0.0
C527 C 0.3836 0.61688 0.59661 0.0
C528 C 0.38564 0.63903 0.58405 0.0
C529 C 0.40282 0.66415 0.5969 0.0
C530 C 0.3956 0.63973 0.56041 0.0
C531 C 0.35751 0.6322 0.58358 0.0
C532 C 0.34197 0.60946 0.59378 0.0
C533 C 0.31555 0.60001 0.59659 0.0
C534 C 0.30476 0.61421 0.58884 0.0
C535 C 0.32036 0.63759 0.57838 0.0
C536 C 0.34702 0.64648 0.57555 0.0
H537 H 0.80735 0.38124 0.78619 0.0
H538 H 0.837 0.43382 0.73196 0.0
H539 H 0.79617 0.40723 0.71058 0.0
H540 H 0.77132 0.32302 0.75176 0.0
H541 H 0.74511 0.30892 0.77111 0.0
H542 H 0.77755 0.33085 0.78106 0.0
H543 H 0.76116 0.35846 0.79983 0.0
H544 H 0.72875 0.33674 0.78986 0.0
H545 H 0.74398 0.36975 0.78327 0.0
H546 H 0.751 0.37627 0.6963 0.0
H547 H 0.70489 0.34386 0.69041 0.0
H548 H 0.70508 0.3119 0.7543 0.0
C549 C 0.80552 0.38683 0.76958 0.0
C550 C 0.82539 0.40946 0.76062 0.0
C551 C 0.82196 0.41655 0.73912 0.0
C552 C 0.79893 0.40152 0.72684 0.0
C553 C 0.77956 0.37949 0.73632 0.0
C554 C 0.78266 0.37215 0.75719 0.0
C555 C 0.75834 0.34857 0.76426 0.0
C556 C 0.76339 0.32654 0.76721 0.0
C557 C 0.74742 0.3537 0.78556 0.0
C558 C 0.74087 0.34402 0.74427 0.0
C559 C 0.75351 0.36189 0.72824 0.0
C560 C 0.74097 0.36205 0.70866 0.0
C561 C 0.71477 0.34358 0.70548 0.0
C562 C 0.70135 0.32532 0.72188 0.0
C563 C 0.71477 0.32549 0.74139 0.0
H564 H 0.46722 0.82208 0.94632 0.0
H565 H 0.44681 0.84777 0.88689 0.0
H566 H 0.43342 0.80664 0.86804 0.0
H567 H 0.48983 0.78202 0.91772 0.0
H568 H 0.47596 0.75834 0.93873 0.0
H569 H 0.48795 0.79113 0.94602 0.0
H570 H 0.44325 0.77918 0.96222 0.0
H571 H 0.43106 0.74648 0.95484 0.0
H572 H 0.41456 0.76228 0.94481 0.0
H573 H 0.41719 0.76105 0.85752 0.0
H574 H 0.39916 0.71481 0.85624 0.0
H575 H 0.43005 0.71907 0.9228 0.0
C576 C 0.46087 0.81941 0.92906 0.0
C577 C 0.45836 0.8382 0.91795 0.0
C578 C 0.44899 0.83363 0.89564 0.0
C579 C 0.44146 0.81039 0.8848 0.0
C580 C 0.44348 0.79197 0.89647 0.0
C581 C 0.45313 0.7963 0.91808 0.0
C582 C 0.45083 0.77262 0.92778 0.0
C583 C 0.47775 0.77625 0.93286 0.0
C584 C 0.43391 0.76468 0.94863 0.0
C585 C 0.43755 0.75404 0.90855 0.0
C586 C 0.43383 0.76561 0.89051 0.0
C587 C 0.42038 0.75187 0.8714 0.0
C588 C 0.41015 0.72558 0.87086 0.0
C589 C 0.41325 0.71328 0.88938 0.0
C590 C 0.42758 0.72789 0.90825 0.0
H591 H 0.60002 0.41298 0.12549 0.0
H592 H 0.61595 0.48061 0.09036 0.0
H593 H 0.65086 0.47905 0.07012 0.0
H594 H 0.66346 0.42723 0.13291 0.0
H595 H 0.65721 0.39547 0.12827 0.0
H596 H 0.63202 0.40054 0.13865 0.0
H597 H 0.60174 0.3736 0.10581 0.0
H598 H 0.62682 0.36829 0.09537 0.0
H599 H 0.61257 0.38162 0.07764 0.0
H600 H 0.68716 0.47313 0.05714 0.0
H601 H 0.72077 0.46173 0.05058 0.0
H602 H 0.67928 0.39608 0.09174 0.0
C603 C 0.61027 0.42708 0.11308 0.0
C604 C 0.60517 0.44699 0.10965 0.0
C605 C 0.61967 0.46539 0.09362 0.0
C606 C 0.63941 0.46455 0.08187 0.0
C607 C 0.64421 0.44496 0.08603 0.0
C608 C 0.62982 0.42635 0.10101 0.0
C609 C 0.63965 0.40798 0.10312 0.0
C610 C 0.64862 0.40782 0.12716 0.0
C611 C 0.61896 0.38129 0.095 0.0
C612 C 0.66233 0.41963 0.08748 0.0
C613 C 0.66457 0.44094 0.07778 0.0
C614 C 0.68529 0.45619 0.06424 0.0
C615 C 0.70431 0.44962 0.06068 0.0
C616 C 0.70236 0.42785 0.0704 0.0
C617 C 0.68086 0.41245 0.08366 0.0
H618 H 0.40635 0.85951 0.51269 0.0
H619 H 0.46802 0.84519 0.53109 0.0
H620 H 0.4362 0.80634 0.5499 0.0
H621 H 0.36914 0.83601 0.56443 0.0
H622 H 0.33861 0.82288 0.54953 0.0
H623 H 0.36675 0.85061 0.53943 0.0
H624 H 0.36076 0.82781 0.50124 0.0
H625 H 0.33282 0.79997 0.51124 0.0
H626 H 0.35955 0.7978 0.5001 0.0
H627 H 0.39653 0.76661 0.56334 0.0
H628 H 0.35296 0.73072 0.57148 0.0
H629 H 0.31832 0.77275 0.54548 0.0
C630 C 0.41343 0.84875 0.52127 0.0
C631 C 0.43978 0.85555 0.52042 0.0
C632 C 0.44792 0.8403 0.53131 0.0
C633 C 0.43001 0.81827 0.54217 0.0
C634 C 0.40408 0.81188 0.54221 0.0
C635 C 0.39592 0.82688 0.53227 0.0
C636 C 0.36686 0.81529 0.53355 0.0
C637 C 0.35994 0.8322 0.54758 0.0
C638 C 0.35428 0.8099 0.51014 0.0
C639 C 0.35981 0.79107 0.54528 0.0
C640 C 0.38149 0.78941 0.55026 0.0
C641 C 0.37947 0.76791 0.55984 0.0
C642 C 0.35464 0.7476 0.56435 0.0
C643 C 0.33221 0.74897 0.55929 0.0
C644 C 0.33504 0.77118 0.54987 0.0
H645 H 0.54759 0.38807 0.68217 0.0
H646 H 0.59877 0.44232 0.73276 0.0
H647 H 0.60682 0.40984 0.74813 0.0
H648 H 0.51948 0.33274 0.71931 0.0
H649 H 0.51727 0.3116 0.69705 0.0
H650 H 0.51419 0.33869 0.69104 0.0
H651 H 0.55139 0.35351 0.66284 0.0
H652 H 0.55485 0.32672 0.66895 0.0
H653 H 0.58236 0.35829 0.67198 0.0
H654 H 0.61391 0.37341 0.75467 0.0
H655 H 0.61538 0.33377 0.75479 0.0
H656 H 0.55616 0.30197 0.70269 0.0
C657 C 0.55983 0.39304 0.69693 0.0
C658 C 0.57271 0.41799 0.70605 0.0
C659 C 0.58907 0.42359 0.72508 0.0
C660 C 0.59363 0.40519 0.73408 0.0
C661 C 0.58122 0.38108 0.72422 0.0
C662 C 0.56421 0.3748 0.70639 0.0
C663 C 0.55389 0.3477 0.69849 0.0
C664 C 0.52446 0.33174 0.70167 0.0
C665 C 0.56106 0.34651 0.67413 0.0
C666 C 0.56838 0.33997 0.71425 0.0
C667 C 0.58416 0.35955 0.7289 0.0
C668 C 0.60118 0.35773 0.74367 0.0
C669 C 0.60199 0.33526 0.74354 0.0
C670 C 0.5856 0.31482 0.729 0.0
C671 C 0.56843 0.31715 0.71434 0.0
H672 H 0.17218 0.55998 0.87707 0.0
H673 H 0.1981 0.62745 0.83818 0.0
H674 H 0.24076 0.6469 0.85693 0.0
H675 H 0.21281 0.59144 0.92846 0.0
H676 H 0.21919 0.56594 0.93211 0.0
H677 H 0.18888 0.55967 0.91975 0.0
H678 H 0.19728 0.53902 0.88524 0.0
H679 H 0.22752 0.54526 0.89742 0.0
H680 H 0.2269 0.55686 0.87019 0.0
H681 H 0.28258 0.65641 0.87512 0.0
H682 H 0.31998 0.65434 0.89014 0.0
H683 H 0.26757 0.57976 0.91539 0.0
C684 C 0.18661 0.57903 0.87274 0.0
C685 C 0.18151 0.59214 0.85618 0.0
C686 C 0.20109 0.61712 0.85116 0.0
C687 C 0.22555 0.62836 0.86168 0.0
C688 C 0.23021 0.61447 0.87724 0.0
C689 C 0.21122 0.59036 0.88283 0.0
C690 C 0.22205 0.57809 0.8977 0.0
C691 C 0.21002 0.57353 0.92089 0.0
C692 C 0.21822 0.55337 0.88699 0.0
C693 C 0.25034 0.59853 0.89866 0.0
C694 C 0.25457 0.61964 0.88726 0.0
C695 C 0.27945 0.64017 0.88443 0.0
C696 C 0.3006 0.63881 0.89301 0.0
C697 C 0.29671 0.61689 0.90394 0.0
C698 C 0.27118 0.59685 0.90726 0.0
H699 H 0.60552 0.20725 0.01006 0.0
H700 H 0.63318 0.16334 0.04435 0.0
H701 H 0.66829 0.20262 0.06208 0.0
H702 H 0.66631 0.25951 -0.00134 0.0
H703 H 0.65674 0.28278 0.00325 0.0
H704 H 0.63304 0.25114 0.9942 0.0
H705 H 0.60479 0.24694 0.02816 0.0
H706 H 0.62834 0.27866 0.03727 0.0
H707 H 0.6188 0.25272 0.05582 0.0
H708 H 0.70192 0.24704 0.07424 0.0
H709 H 0.73071 0.29298 0.08079 0.0
H710 H 0.67987 0.30746 0.03962 0.0
C711 C 0.61854 0.20572 0.0217 0.0
C712 C 0.61647 0.1821 0.02584 0.0
C713 C 0.63446 0.18119 0.04073 0.0
C714 C 0.65438 0.20338 0.05099 0.0
C715 C 0.65596 0.22633 0.04631 0.0
C716 C 0.63839 0.22761 0.03215 0.0
C717 C 0.64477 0.25467 0.02935 0.0
C718 C 0.65057 0.26247 0.00492 0.0
C719 C 0.62287 0.25846 0.03818 0.0
C720 C 0.66892 0.2685 0.04392 0.0
C721 C 0.67505 0.25182 0.05357 0.0
C722 C 0.69715 0.26025 0.06695 0.0
C723 C 0.71342 0.28639 0.07051 0.0
C724 C 0.70748 0.30382 0.06081 0.0
C725 C 0.68479 0.29463 0.04748 0.0
H726 H 0.3971 0.61348 0.18107 0.0
H727 H 0.45653 0.63902 0.23288 0.0
H728 H 0.44763 0.67311 0.24376 0.0
H729 H 0.41046 0.67391 0.16475 0.0
H730 H 0.37698 0.6643 0.15951 0.0
H731 H 0.38752 0.64162 0.1566 0.0
H732 H 0.35289 0.61246 0.18458 0.0
H733 H 0.34213 0.63501 0.18749 0.0
H734 H 0.35201 0.62489 0.21176 0.0
H735 H 0.43209 0.70502 0.24831 0.0
H736 H 0.412 0.73173 0.2458 0.0
H737 H 0.36311 0.68432 0.19085 0.0
C738 C 0.40794 0.62587 0.19503 0.0
C739 C 0.42729 0.62334 0.20632 0.0
C740 C 0.44159 0.64057 0.22399 0.0
C741 C 0.4366 0.65992 0.23032 0.0
C742 C 0.41734 0.66181 0.21875 0.0
C743 C 0.40327 0.64518 0.20147 0.0
C744 C 0.38413 0.65147 0.19118 0.0
C745 C 0.39015 0.65823 0.16656 0.0
C746 C 0.35613 0.62966 0.19393 0.0
C747 C 0.38958 0.67434 0.20529 0.0
C748 C 0.40872 0.68006 0.22117 0.0
C749 C 0.41705 0.70063 0.23596 0.0
C750 C 0.40553 0.7157 0.23441 0.0
C751 C 0.38597 0.71016 0.21813 0.0
C752 C 0.37799 0.68913 0.20349 0.0
H753 H 0.83486 0.44952 0.35949 0.0
H754 H 0.80811 0.3692 0.35623 0.0
H755 H 0.76722 0.36018 0.3739 0.0
H756 H 0.80494 0.44951 0.41282 0.0
H757 H 0.79691 0.47268 0.40381 0.0
H758 H 0.825 0.47282 0.39297 0.0
H759 H 0.80754 0.46984 0.35275 0.0
H760 H 0.7794 0.4696 0.36344 0.0
H761 H 0.77559 0.44434 0.34506 0.0
H762 H 0.72747 0.35976 0.38838 0.0
H763 H 0.69284 0.36814 0.3999 0.0
H764 H 0.74607 0.44878 0.39397 0.0
C765 C 0.82051 0.43005 0.36272 0.0
C766 C 0.8247 0.41007 0.35655 0.0
C767 C 0.80549 0.38484 0.36112 0.0
C768 C 0.78215 0.37953 0.37106 0.0
C769 C 0.77844 0.39966 0.37651 0.0
C770 C 0.79721 0.42444 0.37269 0.0
C771 C 0.78803 0.44256 0.37911 0.0
C772 C 0.80471 0.46045 0.39832 0.0
C773 C 0.78761 0.45745 0.35889 0.0
C774 C 0.76091 0.42408 0.38661 0.0
C775 C 0.75574 0.39943 0.3851 0.0
C776 C 0.73142 0.37901 0.38994 0.0
C777 C 0.71186 0.38396 0.39641 0.0
C778 C 0.71677 0.40912 0.39799 0.0
C779 C 0.74175 0.42935 0.39323 0.0
H780 H 0.16132 0.62694 0.41375 0.0
H781 H 0.13679 0.54782 0.42313 0.0
H782 H 0.16365 0.55966 0.45749 0.0
H783 H 0.2263 0.65434 0.43564 0.0
H784 H 0.22567 0.68048 0.44924 0.0
H785 H 0.20639 0.666 0.42437 0.0
H786 H 0.16508 0.65775 0.44514 0.0
H787 H 0.18423 0.67232 0.47002 0.0
H788 H 0.15685 0.64059 0.4707 0.0
H789 H 0.19302 0.58049 0.49147 0.0
H790 H 0.21918 0.60788 0.52341 0.0
H791 H 0.22059 0.6722 0.49288 0.0
C792 C 0.16125 0.61192 0.42302 0.0
C793 C 0.14682 0.58638 0.41553 0.0
C794 C 0.14796 0.56759 0.42816 0.0
C795 C 0.16308 0.57411 0.44781 0.0
C796 C 0.17679 0.59945 0.45472 0.0
C797 C 0.17577 0.61799 0.44278 0.0
C798 C 0.19097 0.64363 0.45433 0.0
C799 C 0.21368 0.6622 0.44004 0.0
C800 C 0.17321 0.65418 0.46041 0.0
C801 C 0.2005 0.63662 0.47483 0.0
C802 C 0.19255 0.61116 0.47462 0.0
C803 C 0.19928 0.60044 0.49182 0.0
C804 C 0.21419 0.61612 0.50983 0.0
C805 C 0.22172 0.64207 0.51063 0.0
C806 C 0.21491 0.65237 0.49279 0.0
H807 H 0.56098 0.16188 0.5727 0.0
H808 H 0.63214 0.15913 0.57666 0.0
H809 H 0.64252 0.1816 0.61301 0.0
H810 H 0.58412 0.22197 0.59861 0.0
H811 H 0.55492 0.21277 0.61382 0.0
H812 H 0.55335 0.1971 0.58774 0.0
H813 H 0.53058 0.15368 0.60685 0.0
H814 H 0.53187 0.16919 0.63296 0.0
H815 H 0.54563 0.14898 0.63097 0.0
H816 H 0.646 0.20601 0.64838 0.0
H817 H 0.64017 0.22671 0.68173 0.0
H818 H 0.56486 0.20962 0.65611 0.0
C819 C 0.57856 0.1655 0.58125 0.0
C820 C 0.5958 0.15879 0.57149 0.0
C821 C 0.61883 0.16452 0.58335 0.0
C822 C 0.62484 0.17715 0.60415 0.0
C823 C 0.60748 0.18359 0.6131 0.0
C824 C 0.58462 0.17761 0.60218 0.0
C825 C 0.56885 0.18595 0.61569 0.0
C826 C 0.5651 0.20562 0.60322 0.0
C827 C 0.54269 0.16308 0.62199 0.0
C828 C 0.58651 0.1977 0.63588 0.0
C829 C 0.60884 0.19643 0.63395 0.0
C830 C 0.62848 0.20688 0.65018 0.0
C831 C 0.62505 0.21868 0.66899 0.0
C832 C 0.60199 0.21957 0.67154 0.0
C833 C 0.58255 0.20895 0.65472 0.0
H834 H 0.44932 0.61546 0.76388 0.0
H835 H 0.41923 0.53446 0.76212 0.0
H836 H 0.40074 0.53126 0.79934 0.0
H837 H 0.46577 0.62562 0.82362 0.0
H838 H 0.45609 0.64898 0.82671 0.0
H839 H 0.46838 0.64515 0.80054 0.0
H840 H 0.42667 0.63801 0.7804 0.0
H841 H 0.4142 0.64169 0.80649 0.0
H842 H 0.39553 0.61341 0.78957 0.0
H843 H 0.38354 0.53636 0.83547 0.0
H844 H 0.36887 0.54941 0.86865 0.0
H845 H 0.41046 0.62732 0.84733 0.0
C846 C 0.43927 0.59714 0.77153 0.0
C847 C 0.43571 0.57519 0.76015 0.0
C848 C 0.42198 0.55146 0.77049 0.0
C849 C 0.41155 0.54948 0.79165 0.0
C850 C 0.41508 0.57141 0.80227 0.0
C851 C 0.42868 0.59481 0.79264 0.0
C852 C 0.4287 0.61524 0.80724 0.0
C853 C 0.45638 0.63491 0.81499 0.0
C854 C 0.41548 0.62782 0.7952 0.0
C855 C 0.41266 0.59958 0.82642 0.0
C856 C 0.40514 0.57438 0.82324 0.0
C857 C 0.38948 0.55607 0.83826 0.0
C858 C 0.38119 0.56369 0.85703 0.0
C859 C 0.38855 0.58941 0.86065 0.0
C860 C 0.40467 0.60757 0.84515 0.0
H861 H 0.8716 0.47404 0.9204 0.0
H862 H 0.84348 0.39779 0.89465 0.0
H863 H 0.81733 0.38052 0.92838 0.0
H864 H 0.87599 0.46083 0.97838 0.0
H865 H 0.86562 0.48212 0.98845 0.0
H866 H 0.88268 0.4882 0.96264 0.0
H867 H 0.84493 0.48938 0.94231 0.0
H868 H 0.8277 0.48317 0.96803 0.0
H869 H 0.81248 0.46271 0.944 0.0
H870 H 0.79241 0.37177 0.9642 0.0
H871 H 0.77281 0.37223 0.00019 0.0
H872 H 0.81795 0.45432 0.00232 0.0
C873 C 0.85998 0.4537 0.92188 0.0
C874 C 0.85955 0.43724 0.90493 0.0
C875 C 0.84431 0.41074 0.90757 0.0
C876 C 0.82928 0.40077 0.92659 0.0
C877 C 0.82988 0.41756 0.94286 0.0
C878 C 0.84503 0.44346 0.94077 0.0
C879 C 0.84221 0.45746 0.96054 0.0
C880 C 0.86817 0.47307 0.97325 0.0
C881 C 0.83117 0.47416 0.95328 0.0
C882 C 0.82288 0.43541 0.97399 0.0
C883 C 0.81592 0.41253 0.96352 0.0
C884 C 0.79785 0.38957 0.97261 0.0
C885 C 0.78676 0.39003 0.99302 0.0
C886 C 0.79389 0.41329 0.00413 0.0
C887 C 0.81218 0.4362 0.99436 0.0
H888 H 0.41251 0.87675 0.0719 0.0
H889 H 0.46715 0.85149 0.05855 0.0
H890 H 0.45503 0.82788 0.09362 0.0
H891 H 0.42276 0.8845 0.13145 0.0
H892 H 0.38913 0.87336 0.13693 0.0
H893 H 0.40299 0.88886 0.11125 0.0
H894 H 0.3674 0.84998 0.08895 0.0
H895 H 0.35349 0.83433 0.11454 0.0
H896 H 0.36297 0.81909 0.09382 0.0
H897 H 0.43529 0.80561 0.12989 0.0
H898 H 0.41077 0.78795 0.16441 0.0
H899 H 0.36925 0.82799 0.1529 0.0
C900 C 0.42192 0.86622 0.07631 0.0
C901 C 0.44074 0.86592 0.06248 0.0
C902 C 0.45286 0.8522 0.06902 0.0
C903 C 0.446 0.83862 0.08883 0.0
C904 C 0.42709 0.83907 0.10193 0.0
C905 C 0.41535 0.85266 0.09595 0.0
C906 C 0.39543 0.84998 0.11267 0.0
C907 C 0.40304 0.8757 0.12373 0.0
C908 C 0.36822 0.8376 0.10184 0.0
C909 C 0.39756 0.83256 0.12894 0.0
C910 C 0.41591 0.82645 0.12257 0.0
C911 C 0.42094 0.81036 0.13507 0.0
C912 C 0.4069 0.80039 0.15461 0.0
C913 C 0.38809 0.80657 0.1614 0.0
C914 C 0.38348 0.82286 0.14827 0.0
H915 H 0.56077 0.41359 0.26038 0.0
H916 H 0.5858 0.49342 0.26637 0.0
H917 H 0.60374 0.49525 0.30389 0.0
H918 H 0.54402 0.3986 0.3196 0.0
H919 H 0.55608 0.37696 0.32032 0.0
H920 H 0.54294 0.38117 0.29474 0.0
H921 H 0.58563 0.39255 0.27484 0.0
H922 H 0.59894 0.38849 0.30034 0.0
H923 H 0.61593 0.41796 0.28599 0.0
H924 H 0.62185 0.48966 0.33882 0.0
H925 H 0.63921 0.477 0.37003 0.0
H926 H 0.60258 0.4004 0.34236 0.0
C927 C 0.56956 0.43128 0.26984 0.0
C928 C 0.57194 0.45339 0.26056 0.0
C929 C 0.58398 0.47634 0.27317 0.0
C930 C 0.59407 0.47753 0.29451 0.0
C931 C 0.5919 0.45557 0.30303 0.0
C932 C 0.57989 0.43282 0.29121 0.0
C933 C 0.58165 0.41248 0.30383 0.0
C934 C 0.55456 0.39103 0.30999 0.0
C935 C 0.59642 0.40228 0.29045 0.0
C936 C 0.59702 0.42754 0.32433 0.0
C937 C 0.6025 0.45229 0.3235 0.0
C938 C 0.61749 0.47028 0.33981 0.0
C939 C 0.62736 0.46289 0.35743 0.0
C940 C 0.62224 0.43769 0.35866 0.0
C941 C 0.60658 0.41971 0.34199 0.0
H942 H 0.45733 0.86398 0.36652 0.0
H943 H 0.4211 0.90935 0.37664 0.0
H944 H 0.39487 0.89071 0.34231 0.0
H945 H 0.46027 0.8678 0.30613 0.0
H946 H 0.45304 0.83565 0.30198 0.0
H947 H 0.46953 0.85302 0.3271 0.0
H948 H 0.43408 0.81758 0.35066 0.0
H949 H 0.4174 0.80017 0.32562 0.0
H950 H 0.40058 0.80827 0.34593 0.0
H951 H 0.37225 0.86708 0.30766 0.0
H952 H 0.35439 0.83986 0.27411 0.0
H953 H 0.40487 0.8092 0.28594 0.0
C954 C 0.44408 0.87017 0.36133 0.0
C955 C 0.44117 0.88807 0.37425 0.0
C956 C 0.4234 0.89547 0.36711 0.0
C957 C 0.40852 0.88508 0.34761 0.0
C958 C 0.41161 0.86729 0.33541 0.0
C959 C 0.42894 0.85988 0.3419 0.0
C960 C 0.42802 0.84002 0.32588 0.0
C961 C 0.45428 0.84971 0.3146 0.0
C962 C 0.41951 0.81503 0.33774 0.0
C963 C 0.40742 0.83742 0.30944 0.0
C964 C 0.39832 0.85341 0.31529 0.0
C965 C 0.37924 0.8545 0.30284 0.0
C966 C 0.36921 0.83892 0.28379 0.0
C967 C 0.3782 0.82234 0.27732 0.0
C968 C 0.39755 0.82161 0.29043 0.0
H969 H 0.61911 0.48907 0.55816 0.0
H970 H 0.55559 0.41526 0.57563 0.0
H971 H 0.56374 0.39635 0.54226 0.0
H972 H 0.60882 0.48143 0.49906 0.0
H973 H 0.64291 0.49823 0.49307 0.0
H974 H 0.63157 0.5058 0.51807 0.0
H975 H 0.66295 0.4976 0.54167 0.0
H976 H 0.67429 0.48987 0.51674 0.0
H977 H 0.6615 0.46756 0.53891 0.0
H978 H 0.57927 0.38555 0.50693 0.0
H979 H 0.60017 0.384 0.47205 0.0
H980 H 0.65423 0.4648 0.47889 0.0
C981 C 0.60698 0.4689 0.55508 0.0
C982 C 0.58669 0.45366 0.56952 0.0
C983 C 0.57102 0.42739 0.56464 0.0
C984 C 0.57563 0.41644 0.54583 0.0
C985 C 0.596 0.432 0.53211 0.0
C986 C 0.61137 0.45767 0.53649 0.0
C987 C 0.63202 0.47028 0.51919 0.0
C988 C 0.62861 0.4901 0.5066 0.0
C989 C 0.6593 0.48201 0.52976 0.0
C990 C 0.62589 0.4477 0.50434 0.0
C991 C 0.60507 0.42577 0.51203 0.0
C992 C 0.59564 0.4026 0.50078 0.0
C993 C 0.60766 0.40191 0.48101 0.0
C994 C 0.62891 0.42425 0.47276 0.0
C995 C 0.63817 0.44733 0.48478 0.0
H996 H 0.15372 0.5768 0.69849 0.0
H997 H 0.14355 0.63601 0.72901 0.0
H998 H 0.16815 0.66443 0.69882 0.0
H999 H 0.21997 0.61838 0.68332 0.0
H1000 H 0.21707 0.60127 0.65774 0.0
H1001 H 0.19717 0.58488 0.68101 0.0
H1002 H 0.15589 0.56865 0.65622 0.0
H1003 H 0.17565 0.58494 0.63287 0.0
H1004 H 0.1505 0.59105 0.64154 0.0
H1005 H 0.19344 0.68639 0.66494 0.0
H1006 H 0.21931 0.70078 0.63077 0.0
H1007 H 0.21662 0.62882 0.62461 0.0
C1008 C 0.15677 0.59577 0.69907 0.0
C1009 C 0.14629 0.60388 0.71622 0.0
C1010 C 0.15063 0.6289 0.71588 0.0
C1011 C 0.16486 0.64536 0.69888 0.0
C1012 C 0.17502 0.63676 0.68245 0.0
C1013 C 0.17136 0.61263 0.68251 0.0
C1014 C 0.18509 0.60832 0.66333 0.0
C1015 C 0.20607 0.6029 0.67187 0.0
C1016 C 0.16562 0.58698 0.64756 0.0
C1017 C 0.19697 0.6338 0.65242 0.0
C1018 C 0.19072 0.64985 0.66359 0.0
C1019 C 0.19865 0.67407 0.65616 0.0
C1020 C 0.21329 0.68206 0.63675 0.0
C1021 C 0.22016 0.66601 0.62522 0.0
C1022 C 0.21201 0.64165 0.6333 0.0
H1023 H 0.53682 0.13456 0.86823 0.0
H1024 H 0.61341 0.17795 0.89907 0.0
H1025 H 0.62851 0.20563 0.86679 0.0
H1026 H 0.55764 0.13851 0.81152 0.0
H1027 H 0.53174 0.14206 0.8001 0.0
H1028 H 0.52696 0.12488 0.82533 0.0
H1029 H 0.51392 0.15432 0.84567 0.0
H1030 H 0.51867 0.1716 0.82051 0.0
H1031 H 0.5357 0.18807 0.84579 0.0
H1032 H 0.63545 0.22889 0.8317 0.0
H1033 H 0.63369 0.24684 0.79585 0.0
H1034 H 0.55225 0.18966 0.78799 0.0
C1035 C 0.55674 0.14992 0.86824 0.0
C1036 C 0.57398 0.15381 0.88614 0.0
C1037 C 0.59995 0.17411 0.88538 0.0
C1038 C 0.6087 0.19011 0.86718 0.0
C1039 C 0.59123 0.18573 0.84988 0.0
C1040 C 0.5658 0.16622 0.85023 0.0
C1041 C 0.55096 0.16605 0.82959 0.0
C1042 C 0.54126 0.14141 0.81582 0.0
C1043 C 0.52849 0.17027 0.83577 0.0
C1044 C 0.57206 0.18857 0.81767 0.0
C1045 C 0.59514 0.19954 0.82967 0.0
C1046 C 0.61749 0.22049 0.82212 0.0
C1047 C 0.61628 0.23053 0.8017 0.0
C1048 C 0.59282 0.2197 0.78907 0.0
C1049 C 0.57044 0.19844 0.79726 0.0
H1050 H 0.3985 0.56593 0.07229 0.0
H1051 H 0.4816 0.61626 0.06696 0.0
H1052 H 0.47428 0.6331 0.03237 0.0
H1053 H 0.38704 0.54951 0.01459 0.0
H1054 H 0.35592 0.54752 0.01414 0.0
H1055 H 0.36784 0.54118 0.03934 0.0
H1056 H 0.36228 0.57541 0.06036 0.0
H1057 H 0.35062 0.58208 0.03513 0.0
H1058 H 0.37798 0.60719 0.05017 0.0
H1059 H 0.45758 0.644 0.9978 0.0
H1060 H 0.4334 0.64474 0.96445 0.0
H1061 H 0.36202 0.58496 0.99167 0.0
C1062 C 0.4153 0.58027 0.06383 0.0
C1063 C 0.44066 0.58975 0.07253 0.0
C1064 C 0.46193 0.60894 0.06094 0.0
C1065 C 0.45799 0.61859 0.04122 0.0
C1066 C 0.43269 0.60877 0.0332 0.0
C1067 C 0.41177 0.58983 0.04404 0.0
C1068 C 0.38665 0.58139 0.03142 0.0
C1069 C 0.37361 0.55324 0.02445 0.0
C1070 C 0.36831 0.58685 0.04509 0.0
C1071 C 0.39671 0.59827 0.01156 0.0
C1072 C 0.42325 0.6143 0.01303 0.0
C1073 C 0.4368 0.63153 0.99647 0.0
C1074 C 0.42292 0.63191 0.97767 0.0
C1075 C 0.3959 0.61485 0.9755 0.0
C1076 C 0.38269 0.59816 0.99286 0.0
H1077 H 0.86496 0.43956 0.21465 0.0
H1078 H 0.85727 0.36521 0.20962 0.0
H1079 H 0.83126 0.35626 0.17508 0.0
H1080 H 0.80251 0.42266 0.19408 0.0
H1081 H 0.81343 0.4511 0.17855 0.0
H1082 H 0.83111 0.45158 0.20311 0.0
H1083 H 0.87312 0.46869 0.18036 0.0
H1084 H 0.85563 0.46851 0.15576 0.0
H1085 H 0.87313 0.45168 0.15559 0.0
H1086 H 0.80462 0.35488 0.14173 0.0
H1087 H 0.78278 0.36261 0.11036 0.0
H1088 H 0.81095 0.439 0.13584 0.0
C1089 C 0.8583 0.42154 0.20617 0.0
C1090 C 0.86318 0.40307 0.21508 0.0
C1091 C 0.85346 0.37954 0.20349 0.0
C1092 C 0.83877 0.37431 0.18375 0.0
C1093 C 0.83419 0.39289 0.17563 0.0
C1094 C 0.84398 0.41615 0.18632 0.0
C1095 C 0.83677 0.43308 0.17391 0.0
C1096 C 0.81995 0.44 0.18827 0.0
C1097 C 0.86111 0.45689 0.16593 0.0
C1098 C 0.82129 0.41567 0.15457 0.0
C1099 C 0.81978 0.39247 0.15599 0.0
C1100 C 0.80585 0.37304 0.14035 0.0
C1101 C 0.79342 0.37757 0.12266 0.0
C1102 C 0.79529 0.40144 0.1206 0.0
C1103 C 0.80937 0.42065 0.13685 0.0
loop_
_geom_bond_atom_site_label_1
_geom_bond_atom_site_label_2
_geom_bond_distance
_geom_bond_site_symmetry_2
_ccdc_geom_bond_type
H0 C27 0.929 . S
N1 C26 1.433 . S
N1 C32 1.435 . S
N1 C38 1.423 . S
H2 C28 0.930 . S
H3 C31 0.931 . S
H4 C30 0.929 . S
H5 C33 0.930 . S
H6 C34 0.932 . S
H7 C37 0.929 . S
H8 C36 0.931 . S
H9 C39 0.929 . S
H10 C43 0.932 . S
H11 C40 0.931 . S
H12 C42 0.929 . S
H13 C45 0.929 . S
H14 C46 0.930 . S
H15 C48 0.929 . S
H16 C49 0.931 . S
H17 C51 0.930 . S
H18 C52 0.932 . S
H19 C54 0.931 . S
H20 C55 0.929 . S
H21 C57 0.929 . S
H22 C58 0.931 . S
H23 C60 0.929 . S
N24 C44 1.433 . S
N24 C50 1.435 . S
N24 C56 1.423 . S
H25 C61 0.932 . S
C26 N1 1.433 . S
C26 C27 1.363 . S
C26 C31 1.370 . S
C27 H0 0.929 . S
C27 C26 1.363 . S
C27 C28 1.385 . S
C28 H2 0.930 . S
C28 C27 1.385 . S
C28 C29 1.357 . S
C29 C28 1.357 . S
C29 C30 1.406 . S
C30 H4 0.929 . S
C30 C29 1.406 . S
C30 C31 1.391 . S
C31 H3 0.931 . S
C31 C26 1.370 . S
C31 C30 1.391 . S
C32 N1 1.435 . S
C32 C33 1.358 . S
C32 C37 1.371 . S
C33 H5 0.930 . S
C33 C32 1.358 . S
C33 C34 1.405 . S
C34 H6 0.932 . S
C34 C33 1.405 . S
C34 C35 1.383 . S
C35 C34 1.383 . S
C35 C36 1.393 . S
C36 H8 0.931 . S
C36 C35 1.393 . S
C36 C37 1.382 . S
C37 H7 0.929 . S
C37 C32 1.371 . S
C37 C36 1.382 . S
C38 N1 1.423 . S
C38 C39 1.362 . S
C38 C43 1.388 . S
C39 H9 0.929 . S
C39 C38 1.362 . S
C39 C40 1.376 . S
C40 H11 0.931 . S
C40 C39 1.376 . S
C40 C41 1.396 . S
C41 C40 1.396 . S
C41 C42 1.348 . S
C41 C59 1.472 1_455 S
C42 H12 0.929 . S
C42 C41 1.348 . S
C42 C43 1.443 . S
C43 H10 0.932 . S
C43 C38 1.388 . S
C43 C42 1.443 . S
C44 N24 1.433 . S
C44 C45 1.363 . S
C44 C49 1.370 . S
C45 H13 0.929 . S
C45 C44 1.363 . S
C45 C46 1.385 . S
C46 H14 0.930 . S
C46 C45 1.385 . S
C46 C47 1.357 . S
C47 C46 1.357 . S
C47 C48 1.406 . S
C48 H15 0.929 . S
C48 C47 1.406 . S
C48 C49 1.391 . S
C49 H16 0.931 . S
C49 C44 1.370 . S
C49 C48 1.391 . S
C50 N24 1.435 . S
C50 C51 1.358 . S
C50 C55 1.371 . S
C51 H17 0.930 . S
C51 C50 1.358 . S
C51 C52 1.405 . S
C52 H18 0.932 . S
C52 C51 1.405 . S
C52 C53 1.383 . S
C53 C52 1.383 . S
C53 C54 1.393 . S
C54 H19 0.931 . S
C54 C53 1.393 . S
C54 C55 1.382 . S
C55 H20 0.929 . S
C55 C50 1.371 . S
C55 C54 1.382 . S
C56 N24 1.423 . S
C56 C57 1.362 . S
C56 C61 1.388 . S
C57 H21 0.929 . S
C57 C56 1.362 . S
C57 C58 1.376 . S
C58 H22 0.931 . S
C58 C57 1.376 . S
C58 C59 1.396 . S
C59 C41 1.472 1_655 S
C59 C58 1.396 . S
C59 C60 1.348 . S
C60 H23 0.929 . S
C60 C59 1.348 . S
C60 C61 1.443 . S
C61 H25 0.932 . S
C61 C56 1.388 . S
C61 C60 1.443 . S
H62 C89 0.929 . S
N63 C88 1.433 . S
N63 C94 1.435 . S
N63 C100 1.423 . S
H64 C90 0.930 . S
H65 C93 0.931 . S
H66 C92 0.929 . S
H67 C95 0.930 . S
H68 C96 0.932 . S
H69 C99 0.929 . S
H70 C98 0.931 . S
H71 C101 0.929 . S
H72 C105 0.932 . S
H73 C102 0.931 . S
H74 C104 0.929 1_545 S
H75 C107 0.929 . S
H76 C108 0.930 . S
H77 C110 0.929 . S
H78 C111 0.931 . S
H79 C113 0.930 . S
H80 C114 0.932 . S
H81 C116 0.931 . S
H82 C117 0.929 . S
H83 C119 0.929 . S
H84 C120 0.931 . S
H85 C122 0.929 . S
N86 C106 1.433 . S
N86 C112 1.435 . S
N86 C118 1.423 . S
H87 C123 0.932 . S
C88 N63 1.433 . S
C88 C89 1.363 . S
C88 C93 1.370 . S
C89 H62 0.929 . S
C89 C88 1.363 . S
C89 C90 1.385 . S
C90 H64 0.930 . S
C90 C89 1.385 . S
C90 C91 1.357 . S
C91 C90 1.357 . S
C91 C92 1.406 . S
C92 H66 0.929 . S
C92 C91 1.406 . S
C92 C93 1.391 . S
C93 H65 0.931 . S
C93 C88 1.370 . S
C93 C92 1.391 . S
C94 N63 1.435 . S
C94 C95 1.358 . S
C94 C99 1.371 . S
C95 H67 0.930 . S
C95 C94 1.358 . S
C95 C96 1.405 . S
C96 H68 0.932 . S
C96 C95 1.405 . S
C96 C97 1.383 . S
C97 C96 1.383 . S
C97 C98 1.393 . S
C98 H70 0.931 . S
C98 C97 1.393 . S
C98 C99 1.382 . S
C99 H69 0.929 . S
C99 C94 1.371 . S
C99 C98 1.382 . S
C100 N63 1.423 . S
C100 C101 1.362 . S
C100 C105 1.388 . S
C101 H71 0.929 . S
C101 C100 1.362 . S
C101 C102 1.376 . S
C102 H73 0.931 . S
C102 C101 1.376 . S
C102 C103 1.396 1_565 S
C103 C102 1.396 1_545 S
C103 C104 1.348 1_545 S
C103 C121 1.472 . S
C104 H74 0.929 1_565 S
C104 C103 1.348 1_565 S
C104 C105 1.443 . S
C105 H72 0.932 . S
C105 C100 1.388 . S
C105 C104 1.443 . S
C106 N86 1.433 . S
C106 C107 1.363 . S
C106 C111 1.370 . S
C107 H75 0.929 . S
C107 C106 1.363 . S
C107 C108 1.385 . S
C108 H76 0.930 . S
C108 C107 1.385 . S
C108 C109 1.357 . S
C109 C108 1.357 . S
C109 C110 1.406 . S
C110 H77 0.929 . S
C110 C109 1.406 . S
C110 C111 1.391 . S
C111 H78 0.931 . S
C111 C106 1.370 . S
C111 C110 1.391 . S
C112 N86 1.435 . S
C112 C113 1.358 . S
C112 C117 1.371 . S
C113 H79 0.930 . S
C113 C112 1.358 . S
C113 C114 1.405 . S
C114 H80 0.932 . S
C114 C113 1.405 . S
C114 C115 1.383 . S
C115 C114 1.383 . S
C115 C116 1.393 . S
C116 H81 0.931 . S
C116 C115 1.393 . S
C116 C117 1.382 . S
C117 H82 0.929 . S
C117 C112 1.371 . S
C117 C116 1.382 . S
C118 N86 1.423 . S
C118 C119 1.362 . S
C118 C123 1.388 . S
C119 H83 0.929 . S
C119 C118 1.362 . S
C119 C120 1.376 . S
C120 H84 0.931 . S
C120 C119 1.376 . S
C120 C121 1.396 . S
C121 C103 1.472 . S
C121 C120 1.396 . S
C121 C122 1.348 . S
C122 H85 0.929 . S
C122 C121 1.348 . S
C122 C123 1.443 . S
C123 H87 0.932 . S
C123 C118 1.388 . S
C123 C122 1.443 . S
H124 C151 0.929 . S
N125 C150 1.433 . S
N125 C156 1.435 . S
N125 C162 1.423 . S
H126 C152 0.930 . S
H127 C155 0.931 . S
H128 C154 0.929 . S
H129 C157 0.930 . S
H130 C158 0.932 . S
H131 C161 0.929 . S
H132 C160 0.931 . S
H133 C163 0.929 . S
H134 C167 0.932 . S
H135 C164 0.931 . S
H136 C166 0.929 . S
H137 C169 0.929 . S
H138 C170 0.930 . S
H139 C172 0.929 . S
H140 C173 0.931 . S
H141 C175 0.930 . S
H142 C176 0.932 . S
H143 C178 0.931 . S
H144 C179 0.929 . S
H145 C181 0.929 . S
H146 C182 0.931 . S
H147 C184 0.929 . S
N148 C168 1.433 . S
N148 C174 1.435 . S
N148 C180 1.423 . S
H149 C185 0.932 . S
C150 N125 1.433 . S
C150 C151 1.363 . S
C150 C155 1.370 . S
C151 H124 0.929 . S
C151 C150 1.363 . S
C151 C152 1.385 . S
C152 H126 0.930 . S
C152 C151 1.385 . S
C152 C153 1.357 . S
C153 C152 1.357 . S
C153 C154 1.406 . S
C154 H128 0.929 . S
C154 C153 1.406 . S
C154 C155 1.391 . S
C155 H127 0.931 . S
C155 C150 1.370 . S
C155 C154 1.391 . S
C156 N125 1.435 . S
C156 C157 1.358 . S
C156 C161 1.371 . S
C157 H129 0.930 . S
C157 C156 1.358 . S
C157 C158 1.405 . S
C158 H130 0.932 . S
C158 C157 1.405 . S
C158 C159 1.383 . S
C159 C158 1.383 . S
C159 C160 1.393 . S
C160 H132 0.931 . S
C160 C159 1.393 . S
C160 C161 1.382 . S
C161 H131 0.929 . S
C161 C156 1.371 . S
C161 C160 1.382 . S
C162 N125 1.423 . S
C162 C163 1.362 . S
C162 C167 1.388 . S
C163 H133 0.929 . S
C163 C162 1.362 . S
C163 C164 1.376 . S
C164 H135 0.931 . S
C164 C163 1.376 . S
C164 C165 1.396 . S
C165 C164 1.396 . S
C165 C166 1.348 . S
C165 C183 1.472 . S
C166 H136 0.929 . S
C166 C165 1.348 . S
C166 C167 1.443 . S
C167 H134 0.932 . S
C167 C162 1.388 . S
C167 C166 1.443 . S
C168 N148 1.433 . S
C168 C169 1.363 . S
C168 C173 1.370 . S
C169 H137 0.929 . S
C169 C168 1.363 . S
C169 C170 1.385 . S
C170 H138 0.930 . S
C170 C169 1.385 . S
C170 C171 1.357 . S
C171 C170 1.357 . S
C171 C172 1.406 . S
C172 H139 0.929 . S
C172 C171 1.406 . S
C172 C173 1.391 . S
C173 H140 0.931 . S
C173 C168 1.370 . S
C173 C172 1.391 . S
C174 N148 1.435 . S
C174 C175 1.358 . S
C174 C179 1.371 . S
C175 H141 0.930 . S
C175 C174 1.358 . S
C175 C176 1.405 . S
C176 H142 0.932 . S
C176 C175 1.405 . S
C176 C177 1.383 . S
C177 C176 1.383 . S
C177 C178 1.393 . S
C178 H143 0.931 . S
C178 C177 1.393 . S
C178 C179 1.382 . S
C179 H144 0.929 . S
C179 C174 1.371 . S
C179 C178 1.382 . S
C180 N148 1.423 . S
C180 C181 1.362 . S
C180 C185 1.388 . S
C181 H145 0.929 . S
C181 C180 1.362 . S
C181 C182 1.376 . S
C182 H146 0.931 . S
C182 C181 1.376 . S
C182 C183 1.396 . S
C183 C165 1.472 . S
C183 C182 1.396 . S
C183 C184 1.348 . S
C184 H147 0.929 . S
C184 C183 1.348 . S
C184 C185 1.443 . S
C185 H149 0.932 . S
C185 C180 1.388 . S
C185 C184 1.443 . S
H186 C213 0.929 . S
N187 C212 1.433 . S
N187 C218 1.435 . S
N187 C224 1.423 . S
H188 C214 0.930 . S
H189 C217 0.931 . S
H190 C216 0.929 . S
H191 C219 0.930 . S
H192 C220 0.932 . S
H193 C223 0.929 . S
H194 C222 0.931 . S
H195 C225 0.929 . S
H196 C229 0.932 . S
H197 C226 0.931 . S
H198 C228 0.929 . S
H199 C231 0.929 . S
H200 C232 0.930 . S
H201 C234 0.929 . S
H202 C235 0.931 . S
H203 C237 0.930 . S
H204 C238 0.932 . S
H205 C240 0.931 . S
H206 C241 0.929 . S
H207 C243 0.929 . S
H208 C244 0.931 . S
H209 C246 0.929 . S
N210 C230 1.433 . S
N210 C236 1.435 . S
N210 C242 1.423 . S
H211 C247 0.932 . S
C212 N187 1.433 . S
C212 C213 1.363 . S
C212 C217 1.370 . S
C213 H186 0.929 . S
C213 C212 1.363 . S
C213 C214 1.385 . S
C214 H188 0.930 . S
C214 C213 1.385 . S
C214 C215 1.357 . S
C215 C214 1.357 . S
C215 C216 1.406 . S
C216 H190 0.929 . S
C216 C215 1.406 . S
C216 C217 1.391 . S
C217 H189 0.931 . S
C217 C212 1.370 . S
C217 C216 1.391 . S
C218 N187 1.435 . S
C218 C219 1.358 . S
C218 C223 1.371 . S
C219 H191 0.930 . S
C219 C218 1.358 . S
C219 C220 1.405 . S
C220 H192 0.932 . S
C220 C219 1.405 . S
C220 C221 1.383 . S
C221 C220 1.383 . S
C221 C222 1.393 . S
C222 H194 0.931 . S
C222 C221 1.393 . S
C222 C223 1.382 . S
C223 H193 0.929 . S
C223 C218 1.371 . S
C223 C222 1.382 . S
C224 N187 1.423 . S
C224 C225 1.362 . S
C224 C229 1.388 . S
C225 H195 0.929 . S
C225 C224 1.362 . S
C225 C226 1.376 . S
C226 H197 0.931 . S
C226 C225 1.376 . S
C226 C227 1.396 . S
C227 C226 1.396 . S
C227 C228 1.348 . S
C227 C245 1.472 1_455 S
C228 H198 0.929 . S
C228 C227 1.348 . S
C228 C229 1.443 . S
C229 H196 0.932 . S
C229 C224 1.388 . S
C229 C228 1.443 . S
C230 N210 1.433 . S
C230 C231 1.363 . S
C230 C235 1.370 . S
C231 H199 0.929 . S
C231 C230 1.363 . S
C231 C232 1.385 . S
C232 H200 0.930 . S
C232 C231 1.385 . S
C232 C233 1.357 . S
C233 C232 1.357 . S
C233 C234 1.406 . S
C234 H201 0.929 . S
C234 C233 1.406 . S
C234 C235 1.391 . S
C235 H202 0.931 . S
C235 C230 1.370 . S
C235 C234 1.391 . S
C236 N210 1.435 . S
C236 C237 1.358 . S
C236 C241 1.371 . S
C237 H203 0.930 . S
C237 C236 1.358 . S
C237 C238 1.405 . S
C238 H204 0.932 . S
C238 C237 1.405 . S
C238 C239 1.383 . S
C239 C238 1.383 . S
C239 C240 1.393 . S
C240 H205 0.931 . S
C240 C239 1.393 . S
C240 C241 1.382 . S
C241 H206 0.929 . S
C241 C236 1.371 . S
C241 C240 1.382 . S
C242 N210 1.423 . S
C242 C243 1.362 . S
C242 C247 1.388 . S
C243 H207 0.929 . S
C243 C242 1.362 . S
C243 C244 1.376 . S
C244 H208 0.931 . S
C244 C243 1.376 . S
C244 C245 1.396 . S
C245 C227 1.472 1_655 S
C245 C244 1.396 . S
C245 C246 1.348 . S
C246 H209 0.929 . S
C246 C245 1.348 . S
C246 C247 1.443 . S
C247 H211 0.932 . S
C247 C242 1.388 . S
C247 C246 1.443 . S
H248 C275 0.929 . S
N249 C274 1.433 . S
N249 C280 1.435 . S
N249 C286 1.423 . S
H250 C276 0.930 . S
H251 C279 0.931 . S
H252 C278 0.929 . S
H253 C281 0.930 . S
H254 C282 0.932 . S
H255 C285 0.929 . S
H256 C284 0.931 . S
H257 C287 0.929 . S
H258 C291 0.932 . S
H259 C288 0.931 . S
H260 C290 0.929 . S
H261 C293 0.929 . S
H262 C294 0.930 . S
H263 C296 0.929 . S
H264 C297 0.931 . S
H265 C299 0.930 1_554 S
H266 C300 0.932 . S
H267 C302 0.931 . S
H268 C303 0.929 . S
H269 C305 0.929 . S
H270 C306 0.957 1_554 S
H271 C308 0.929 . S
N272 C292 1.433 . S
N272 C298 1.435 1_554 S
N272 C304 1.423 1_554 S
H273 C309 0.932 . S
C274 N249 1.433 . S
C274 C275 1.363 . S
C274 C279 1.370 . S
C275 H248 0.929 . S
C275 C274 1.363 . S
C275 C276 1.385 . S
C276 H250 0.930 . S
C276 C275 1.385 . S
C276 C277 1.357 1_556 S
C277 C276 1.357 1_554 S
C277 C278 1.406 . S
C278 H252 0.929 . S
C278 C277 1.406 . S
C278 C279 1.391 1_554 S
C279 H251 0.931 . S
C279 C274 1.370 . S
C279 C278 1.391 1_556 S
C280 N249 1.435 . S
C280 C281 1.358 . S
C280 C285 1.371 . S
C281 H253 0.930 . S
C281 C280 1.358 . S
C281 C282 1.405 . S
C282 H254 0.932 . S
C282 C281 1.405 . S
C282 C283 1.383 . S
C283 C282 1.383 . S
C283 C284 1.393 . S
C284 H256 0.931 . S
C284 C283 1.393 . S
C284 C285 1.382 . S
C285 H255 0.929 . S
C285 C280 1.371 . S
C285 C284 1.382 . S
C286 N249 1.423 . S
C286 C287 1.362 . S
C286 C291 1.388 . S
C287 H257 0.929 . S
C287 C286 1.362 . S
C287 C288 1.376 . S
C288 H259 0.931 . S
C288 C287 1.376 . S
C288 C289 1.396 . S
C289 C288 1.396 . S
C289 C290 1.348 . S
C289 C307 1.472 1_545 S
C290 H260 0.929 . S
C290 C289 1.348 . S
C290 C291 1.443 . S
C291 H258 0.932 . S
C291 C286 1.388 . S
C291 C290 1.443 . S
C292 N272 1.433 . S
C292 C293 1.363 . S
C292 C297 1.370 . S
C293 H261 0.929 . S
C293 C292 1.363 . S
C293 C294 1.385 . S
C294 H262 0.930 . S
C294 C293 1.385 . S
C294 C295 1.357 . S
C295 C294 1.357 . S
C295 C296 1.406 . S
C296 H263 0.929 . S
C296 C295 1.406 . S
C296 C297 1.391 . S
C297 H264 0.931 . S
C297 C292 1.370 . S
C297 C296 1.391 . S
C298 N272 1.435 1_556 S
C298 C299 1.358 . S
C298 C303 1.371 . S
C299 H265 0.930 1_556 S
C299 C298 1.358 . S
C299 C300 1.405 . S
C300 H266 0.932 . S
C300 C299 1.405 . S
C300 C301 1.383 . S
C301 C300 1.383 . S
C301 C302 1.393 . S
C302 H267 0.931 . S
C302 C301 1.393 . S
C302 C303 1.382 . S
C303 H268 0.929 . S
C303 C298 1.371 . S
C303 C302 1.382 . S
C304 N272 1.423 1_556 S
C304 C305 1.362 1_556 S
C304 C309 1.388 . S
C305 H269 0.929 . S
C305 C304 1.362 1_554 S
C305 C306 1.376 1_554 S
C306 H270 0.957 1_556 S
C306 C305 1.376 1_556 S
C306 C307 1.396 . S
C307 C289 1.472 1_565 S
C307 C306 1.396 . S
C307 C308 1.348 . S
C308 H271 0.929 . S
C308 C307 1.348 . S
C308 C309 1.443 . S
C309 H273 0.932 . S
C309 C304 1.388 . S
C309 C308 1.443 . S
H310 C337 0.929 . S
N311 C336 1.433 . S
N311 C342 1.435 . S
N311 C348 1.423 . S
H312 C338 0.930 . S
H313 C341 0.931 . S
H314 C340 0.929 . S
H315 C343 0.930 . S
H316 C344 0.932 . S
H317 C347 0.929 . S
H318 C346 0.931 . S
H319 C349 0.929 . S
H320 C353 0.932 . S
H321 C350 0.931 . S
H322 C352 0.929 . S
H323 C355 0.929 . S
H324 C356 0.930 . S
H325 C358 0.929 . S
H326 C359 0.931 . S
H327 C361 0.930 . S
H328 C362 0.932 . S
H329 C364 0.931 . S
H330 C365 0.929 . S
H331 C367 0.929 . S
H332 C368 0.931 . S
H333 C370 0.929 . S
N334 C354 1.433 . S
N334 C360 1.435 . S
N334 C366 1.423 . S
H335 C371 0.932 . S
C336 N311 1.433 . S
C336 C337 1.363 . S
C336 C341 1.370 . S
C337 H310 0.929 . S
C337 C336 1.363 . S
C337 C338 1.385 . S
C338 H312 0.930 . S
C338 C337 1.385 . S
C338 C339 1.357 . S
C339 C338 1.357 . S
C339 C340 1.406 . S
C340 H314 0.929 . S
C340 C339 1.406 . S
C340 C341 1.391 . S
C341 H313 0.931 . S
C341 C336 1.370 . S
C341 C340 1.391 . S
C342 N311 1.435 . S
C342 C343 1.358 . S
C342 C347 1.371 . S
C343 H315 0.930 . S
C343 C342 1.358 . S
C343 C344 1.405 . S
C344 H316 0.932 . S
C344 C343 1.405 . S
C344 C345 1.383 . S
C345 C344 1.383 . S
C345 C346 1.393 . S
C346 H318 0.931 . S
C346 C345 1.393 . S
C346 C347 1.382 . S
C347 H317 0.929 . S
C347 C342 1.371 . S
C347 C346 1.382 . S
C348 N311 1.423 . S
C348 C349 1.362 . S
C348 C353 1.388 . S
C349 H319 0.929 . S
C349 C348 1.362 . S
C349 C350 1.376 . S
C350 H321 0.931 . S
C350 C349 1.376 . S
C350 C351 1.396 . S
C351 C350 1.396 . S
C351 C352 1.348 . S
C351 C369 1.472 . S
C352 H322 0.929 . S
C352 C351 1.348 . S
C352 C353 1.443 . S
C353 H320 0.932 . S
C353 C348 1.388 . S
C353 C352 1.443 . S
C354 N334 1.433 . S
C354 C355 1.363 . S
C354 C359 1.370 . S
C355 H323 0.929 . S
C355 C354 1.363 . S
C355 C356 1.385 . S
C356 H324 0.930 . S
C356 C355 1.385 . S
C356 C357 1.357 . S
C357 C356 1.357 . S
C357 C358 1.406 . S
C358 H325 0.929 . S
C358 C357 1.406 . S
C358 C359 1.391 . S
C359 H326 0.931 . S
C359 C354 1.370 . S
C359 C358 1.391 . S
C360 N334 1.435 . S
C360 C361 1.358 . S
C360 C365 1.371 . S
C361 H327 0.930 . S
C361 C360 1.358 . S
C361 C362 1.405 . S
C362 H328 0.932 . S
C362 C361 1.405 . S
C362 C363 1.383 . S
C363 C362 1.383 . S
C363 C364 1.393 . S
C364 H329 0.931 . S
C364 C363 1.393 . S
C364 C365 1.382 . S
C365 H330 0.929 . S
C365 C360 1.371 . S
C365 C364 1.382 . S
C366 N334 1.423 . S
C366 C367 1.362 . S
C366 C371 1.388 . S
C367 H331 0.929 . S
C367 C366 1.362 . S
C367 C368 1.376 . S
C368 H332 0.931 . S
C368 C367 1.376 . S
C368 C369 1.396 . S
C369 C351 1.472 . S
C369 C368 1.396 . S
C369 C370 1.348 . S
C370 H333 0.929 . S
C370 C369 1.348 . S
C370 C371 1.443 . S
C371 H335 0.932 . S
C371 C366 1.388 . S
C371 C370 1.443 . S
Zn372 O375 2.031 . S
Zn372 O377 2.049 . S
Zn372 O382 2.067 . S
Zn373 O374 1.962 . S
Zn373 O376 1.986 . S
Zn373 O378 1.996 . S
Zn373 O381 1.943 . S
O374 Zn373 1.962 . S
O374 C379 1.254 . S
O375 Zn372 2.031 . S
O375 C379 1.269 . S
O376 Zn373 1.986 . S
O376 C383 1.262 . S
O377 Zn372 2.049 . S
O377 C385 1.260 . S
O378 Zn373 1.996 . S
O378 C385 1.257 . S
C379 O374 1.254 . S
C379 O375 1.269 . S
C380 O381 1.249 . S
C380 O382 1.270 . S
O381 Zn373 1.943 . S
O381 C380 1.249 . S
O382 Zn372 2.067 . S
O382 C380 1.270 . S
C383 O376 1.262 . S
C383 O384 1.232 . S
O384 C383 1.232 . S
C385 O377 1.260 . S
C385 O378 1.257 . S
Zn386 O389 2.031 . S
Zn386 O391 2.049 . S
Zn386 O396 2.067 . S
Zn387 O388 1.962 . S
Zn387 O390 1.986 . S
Zn387 O392 1.996 . S
Zn387 O395 1.943 . S
O388 Zn387 1.962 . S
O388 C393 1.254 . S
O389 Zn386 2.031 . S
O389 C393 1.269 . S
O390 Zn387 1.986 . S
O390 C397 1.262 . S
O391 Zn386 2.049 . S
O391 C399 1.260 . S
O392 Zn387 1.996 . S
O392 C399 1.257 . S
C393 O388 1.254 . S
C393 O389 1.269 . S
C394 O395 1.249 . S
C394 O396 1.270 . S
O395 Zn387 1.943 . S
O395 C394 1.249 . S
O396 Zn386 2.067 . S
O396 C394 1.270 . S
C397 O390 1.262 . S
C397 O398 1.232 . S
O398 C397 1.232 . S
C399 O391 1.260 . S
C399 O392 1.257 . S
Zn400 O403 2.031 . S
Zn400 O405 2.049 . S
Zn400 O410 2.067 . S
Zn401 O402 1.962 . S
Zn401 O404 1.986 . S
Zn401 O406 1.996 . S
Zn401 O409 1.943 . S
O402 Zn401 1.962 . S
O402 C407 1.254 . S
O403 Zn400 2.031 . S
O403 C407 1.269 . S
O404 Zn401 1.986 . S
O404 C411 1.262 . S
O405 Zn400 2.049 . S
O405 C413 1.260 . S
O406 Zn401 1.996 . S
O406 C413 1.257 . S
C407 O402 1.254 . S
C407 O403 1.269 . S
C408 O409 1.249 . S
C408 O410 1.270 . S
O409 Zn401 1.943 . S
O409 C408 1.249 . S
O410 Zn400 2.067 . S
O410 C408 1.270 . S
C411 O404 1.262 . S
C411 O412 1.232 . S
O412 C411 1.232 . S
C413 O405 1.260 . S
C413 O406 1.257 . S
Zn414 O417 2.031 . S
Zn414 O419 2.049 . S
Zn414 O424 2.067 . S
Zn415 O416 1.962 . S
Zn415 O418 1.986 . S
Zn415 O420 1.996 . S
Zn415 O423 1.943 . S
O416 Zn415 1.962 . S
O416 C421 1.254 . S
O417 Zn414 2.031 . S
O417 C421 1.269 . S
O418 Zn415 1.986 . S
O418 C425 1.262 . S
O419 Zn414 2.049 . S
O419 C427 1.260 . S
O420 Zn415 1.996 . S
O420 C427 1.257 . S
C421 O416 1.254 . S
C421 O417 1.269 . S
C422 O423 1.249 . S
C422 O424 1.270 . S
O423 Zn415 1.943 . S
O423 C422 1.249 . S
O424 Zn414 2.067 . S
O424 C422 1.270 . S
C425 O418 1.262 . S
C425 O426 1.232 . S
O426 C425 1.232 . S
C427 O419 1.260 . S
C427 O420 1.257 . S
Zn428 O431 2.031 . S
Zn428 O433 2.049 . S
Zn428 O438 2.067 . S
Zn429 O430 1.962 . S
Zn429 O432 1.986 . S
Zn429 O434 1.996 . S
Zn429 O437 1.943 . S
O430 Zn429 1.962 . S
O430 C435 1.254 . S
O431 Zn428 2.031 . S
O431 C435 1.269 . S
O432 Zn429 1.986 . S
O432 C439 1.262 . S
O433 Zn428 2.049 . S
O433 C441 1.260 . S
O434 Zn429 1.996 . S
O434 C441 1.257 . S
C435 O430 1.254 . S
C435 O431 1.269 . S
C436 O437 1.249 . S
C436 O438 1.270 . S
O437 Zn429 1.943 . S
O437 C436 1.249 . S
O438 Zn428 2.067 . S
O438 C436 1.270 . S
C439 O432 1.262 . S
C439 O440 1.232 . S
O440 C439 1.232 . S
C441 O433 1.260 . S
C441 O434 1.257 . S
Zn442 O445 2.031 . S
Zn442 O447 2.049 . S
Zn442 O452 2.067 . S
Zn443 O444 1.962 . S
Zn443 O446 1.986 . S
Zn443 O448 1.996 . S
Zn443 O451 1.943 . S
O444 Zn443 1.962 . S
O444 C449 1.254 . S
O445 Zn442 2.031 . S
O445 C449 1.269 . S
O446 Zn443 1.986 . S
O446 C453 1.262 . S
O447 Zn442 2.049 . S
O447 C455 1.260 . S
O448 Zn443 1.996 . S
O448 C455 1.257 . S
C449 O444 1.254 . S
C449 O445 1.269 . S
C450 O451 1.249 . S
C450 O452 1.270 . S
O451 Zn443 1.943 . S
O451 C450 1.249 . S
O452 Zn442 2.067 . S
O452 C450 1.270 . S
C453 O446 1.262 . S
C453 O454 1.232 . S
O454 C453 1.232 . S
C455 O447 1.260 . S
C455 O448 1.257 . S
H456 C468 0.930 . S
H457 C470 0.930 . S
H458 C471 0.930 . S
H459 C475 0.959 . S
H460 C475 0.959 . S
H461 C475 0.961 . S
H462 C476 0.960 . S
H463 C476 0.961 . S
H464 C476 0.959 . S
H465 C479 0.929 . S
H466 C480 0.931 . S
H467 C482 0.930 . S
C468 H456 0.930 . S
C468 C469 1.399 . S
C468 C473 1.399 . S
C469 C468 1.399 . S
C469 C470 1.376 . S
C470 H457 0.930 . S
C470 C469 1.376 . S
C470 C471 1.388 . S
C471 H458 0.930 . S
C471 C470 1.388 . S
C471 C472 1.390 . S
C472 C471 1.390 . S
C472 C473 1.394 . S
C472 C478 1.465 . S
C473 C468 1.399 . S
C473 C472 1.394 . S
C473 C474 1.516 . S
C474 C473 1.516 . S
C474 C475 1.502 . S
C474 C476 1.561 . S
C474 C477 1.526 . S
C475 H459 0.959 . S
C475 H460 0.959 . S
C475 H461 0.961 . S
C475 C474 1.502 . S
C476 H462 0.960 . S
C476 H463 0.961 . S
C476 H464 0.959 . S
C476 C474 1.561 . S
C477 C474 1.526 . S
C477 C478 1.396 . S
C477 C482 1.390 . S
C478 C472 1.465 . S
C478 C477 1.396 . S
C478 C479 1.399 . S
C479 H465 0.929 . S
C479 C478 1.399 . S
C479 C480 1.385 . S
C480 H466 0.931 . S
C480 C479 1.385 . S
C480 C481 1.389 . S
C481 C480 1.389 . S
C481 C482 1.387 . S
C482 H467 0.930 . S
C482 C477 1.390 . S
C482 C481 1.387 . S
H483 C495 0.930 . S
H484 C497 0.930 . S
H485 C498 0.930 . S
H486 C502 0.959 . S
H487 C502 0.959 . S
H488 C502 0.961 . S
H489 C503 0.960 . S
H490 C503 0.961 . S
H491 C503 0.959 . S
H492 C506 0.929 . S
H493 C507 0.931 . S
H494 C509 0.930 . S
C495 H483 0.930 . S
C495 C496 1.399 . S
C495 C500 1.399 . S
C496 C495 1.399 . S
C496 C497 1.376 . S
C497 H484 0.930 . S
C497 C496 1.376 . S
C497 C498 1.388 . S
C498 H485 0.930 . S
C498 C497 1.388 . S
C498 C499 1.390 . S
C499 C498 1.390 . S
C499 C500 1.394 . S
C499 C505 1.465 . S
C500 C495 1.399 . S
C500 C499 1.394 . S
C500 C501 1.516 . S
C501 C500 1.516 . S
C501 C502 1.502 . S
C501 C503 1.561 . S
C501 C504 1.526 . S
C502 H486 0.959 . S
C502 H487 0.959 . S
C502 H488 0.961 . S
C502 C501 1.502 . S
C503 H489 0.960 . S
C503 H490 0.961 . S
C503 H491 0.959 . S
C503 C501 1.561 . S
C504 C501 1.526 . S
C504 C505 1.396 . S
C504 C509 1.390 . S
C505 C499 1.465 . S
C505 C504 1.396 . S
C505 C506 1.399 . S
C506 H492 0.929 . S
C506 C505 1.399 . S
C506 C507 1.385 . S
C507 H493 0.931 . S
C507 C506 1.385 . S
C507 C508 1.389 . S
C508 C507 1.389 . S
C508 C509 1.387 . S
C509 H494 0.930 . S
C509 C504 1.390 . S
C509 C508 1.387 . S
H510 C522 0.930 . S
H511 C524 0.930 . S
H512 C525 0.930 . S
H513 C529 0.959 . S
H514 C529 0.959 . S
H515 C529 0.961 . S
H516 C530 0.960 . S
H517 C530 0.961 . S
H518 C530 0.959 . S
H519 C533 0.929 . S
H520 C534 0.931 . S
H521 C536 0.930 . S
C522 H510 0.930 . S
C522 C523 1.399 . S
C522 C527 1.399 . S
C523 C522 1.399 . S
C523 C524 1.376 . S
C524 H511 0.930 . S
C524 C523 1.376 . S
C524 C525 1.388 . S
C525 H512 0.930 . S
C525 C524 1.388 . S
C525 C526 1.390 . S
C526 C525 1.390 . S
C526 C527 1.394 . S
C526 C532 1.465 . S
C527 C522 1.399 . S
C527 C526 1.394 . S
C527 C528 1.516 . S
C528 C527 1.516 . S
C528 C529 1.502 . S
C528 C530 1.561 . S
C528 C531 1.526 . S
C529 H513 0.959 . S
C529 H514 0.959 . S
C529 H515 0.961 . S
C529 C528 1.502 . S
C530 H516 0.960 . S
C530 H517 0.961 . S
C530 H518 0.959 . S
C530 C528 1.561 . S
C531 C528 1.526 . S
C531 C532 1.396 . S
C531 C536 1.390 . S
C532 C526 1.465 . S
C532 C531 1.396 . S
C532 C533 1.399 . S
C533 H519 0.929 . S
C533 C532 1.399 . S
C533 C534 1.385 . S
C534 H520 0.931 . S
C534 C533 1.385 . S
C534 C535 1.389 . S
C535 C534 1.389 . S
C535 C536 1.387 . S
C536 H521 0.930 . S
C536 C531 1.390 . S
C536 C535 1.387 . S
H537 C549 0.930 . S
H538 C551 0.930 . S
H539 C552 0.930 . S
H540 C556 0.959 . S
H541 C556 0.959 . S
H542 C556 0.961 . S
H543 C557 0.960 . S
H544 C557 0.961 . S
H545 C557 0.959 . S
H546 C560 0.929 . S
H547 C561 0.931 . S
H548 C563 0.930 . S
C549 H537 0.930 . S
C549 C550 1.399 . S
C549 C554 1.399 . S
C550 C549 1.399 . S
C550 C551 1.376 . S
C551 H538 0.930 . S
C551 C550 1.376 . S
C551 C552 1.388 . S
C552 H539 0.930 . S
C552 C551 1.388 . S
C552 C553 1.390 . S
C553 C552 1.390 . S
C553 C554 1.394 . S
C553 C559 1.465 . S
C554 C549 1.399 . S
C554 C553 1.394 . S
C554 C555 1.516 . S
C555 C554 1.516 . S
C555 C556 1.502 . S
C555 C557 1.561 . S
C555 C558 1.526 . S
C556 H540 0.959 . S
C556 H541 0.959 . S
C556 H542 0.961 . S
C556 C555 1.502 . S
C557 H543 0.960 . S
C557 H544 0.961 . S
C557 H545 0.959 . S
C557 C555 1.561 . S
C558 C555 1.526 . S
C558 C559 1.396 . S
C558 C563 1.390 . S
C559 C553 1.465 . S
C559 C558 1.396 . S
C559 C560 1.399 . S
C560 H546 0.929 . S
C560 C559 1.399 . S
C560 C561 1.385 . S
C561 H547 0.931 . S
C561 C560 1.385 . S
C561 C562 1.389 . S
C562 C561 1.389 . S
C562 C563 1.387 . S
C563 H548 0.930 . S
C563 C558 1.390 . S
C563 C562 1.387 . S
H564 C576 0.930 . S
H565 C578 0.930 . S
H566 C579 0.930 . S
H567 C583 0.959 . S
H568 C583 0.959 . S
H569 C583 0.961 . S
H570 C584 0.960 . S
H571 C584 0.961 . S
H572 C584 0.959 . S
H573 C587 0.929 . S
H574 C588 0.931 . S
H575 C590 0.930 . S
C576 H564 0.930 . S
C576 C577 1.399 . S
C576 C581 1.399 . S
C577 C576 1.399 . S
C577 C578 1.376 . S
C578 H565 0.930 . S
C578 C577 1.376 . S
C578 C579 1.388 . S
C579 H566 0.930 . S
C579 C578 1.388 . S
C579 C580 1.390 . S
C580 C579 1.390 . S
C580 C581 1.394 . S
C580 C586 1.465 . S
C581 C576 1.399 . S
C581 C580 1.394 . S
C581 C582 1.516 . S
C582 C581 1.516 . S
C582 C583 1.502 . S
C582 C584 1.561 . S
C582 C585 1.526 . S
C583 H567 0.959 . S
C583 H568 0.959 . S
C583 H569 0.961 . S
C583 C582 1.502 . S
C584 H570 0.960 . S
C584 H571 0.961 . S
C584 H572 0.959 . S
C584 C582 1.561 . S
C585 C582 1.526 . S
C585 C586 1.396 . S
C585 C590 1.390 . S
C586 C580 1.465 . S
C586 C585 1.396 . S
C586 C587 1.399 . S
C587 H573 0.929 . S
C587 C586 1.399 . S
C587 C588 1.385 . S
C588 H574 0.931 . S
C588 C587 1.385 . S
C588 C589 1.389 . S
C589 C588 1.389 . S
C589 C590 1.387 . S
C590 H575 0.930 . S
C590 C585 1.390 . S
C590 C589 1.387 . S
H591 C603 0.930 . S
H592 C605 0.930 . S
H593 C606 0.930 . S
H594 C610 0.959 . S
H595 C610 0.959 . S
H596 C610 0.961 . S
H597 C611 0.960 . S
H598 C611 0.961 . S
H599 C611 0.959 . S
H600 C614 0.929 . S
H601 C615 0.931 . S
H602 C617 0.930 . S
C603 H591 0.930 . S
C603 C604 1.399 . S
C603 C608 1.399 . S
C604 C603 1.399 . S
C604 C605 1.376 . S
C605 H592 0.930 . S
C605 C604 1.376 . S
C605 C606 1.388 . S
C606 H593 0.930 . S
C606 C605 1.388 . S
C606 C607 1.390 . S
C607 C606 1.390 . S
C607 C608 1.394 . S
C607 C613 1.465 . S
C608 C603 1.399 . S
C608 C607 1.394 . S
C608 C609 1.516 . S
C609 C608 1.516 . S
C609 C610 1.502 . S
C609 C611 1.561 . S
C609 C612 1.526 . S
C610 H594 0.959 . S
C610 H595 0.959 . S
C610 H596 0.961 . S
C610 C609 1.502 . S
C611 H597 0.960 . S
C611 H598 0.961 . S
C611 H599 0.959 . S
C611 C609 1.561 . S
C612 C609 1.526 . S
C612 C613 1.396 . S
C612 C617 1.390 . S
C613 C607 1.465 . S
C613 C612 1.396 . S
C613 C614 1.399 . S
C614 H600 0.929 . S
C614 C613 1.399 . S
C614 C615 1.385 . S
C615 H601 0.931 . S
C615 C614 1.385 . S
C615 C616 1.389 . S
C616 C615 1.389 . S
C616 C617 1.387 . S
C617 H602 0.930 . S
C617 C612 1.390 . S
C617 C616 1.387 . S
H618 C630 0.930 . S
H619 C632 0.930 . S
H620 C633 0.930 . S
H621 C637 0.959 . S
H622 C637 0.959 . S
H623 C637 0.961 . S
H624 C638 0.960 . S
H625 C638 0.961 . S
H626 C638 0.959 . S
H627 C641 0.929 . S
H628 C642 0.931 . S
H629 C644 0.930 . S
C630 H618 0.930 . S
C630 C631 1.399 . S
C630 C635 1.399 . S
C631 C630 1.399 . S
C631 C632 1.376 . S
C632 H619 0.930 . S
C632 C631 1.376 . S
C632 C633 1.388 . S
C633 H620 0.930 . S
C633 C632 1.388 . S
C633 C634 1.390 . S
C634 C633 1.390 . S
C634 C635 1.394 . S
C634 C640 1.465 . S
C635 C630 1.399 . S
C635 C634 1.394 . S
C635 C636 1.516 . S
C636 C635 1.516 . S
C636 C637 1.502 . S
C636 C638 1.561 . S
C636 C639 1.526 . S
C637 H621 0.959 . S
C637 H622 0.959 . S
C637 H623 0.961 . S
C637 C636 1.502 . S
C638 H624 0.960 . S
C638 H625 0.961 . S
C638 H626 0.959 . S
C638 C636 1.561 . S
C639 C636 1.526 . S
C639 C640 1.396 . S
C639 C644 1.390 . S
C640 C634 1.465 . S
C640 C639 1.396 . S
C640 C641 1.399 . S
C641 H627 0.929 . S
C641 C640 1.399 . S
C641 C642 1.385 . S
C642 H628 0.931 . S
C642 C641 1.385 . S
C642 C643 1.389 . S
C643 C642 1.389 . S
C643 C644 1.387 . S
C644 H629 0.930 . S
C644 C639 1.390 . S
C644 C643 1.387 . S
H645 C657 0.930 . S
H646 C659 0.930 . S
H647 C660 0.930 . S
H648 C664 0.959 . S
H649 C664 0.959 . S
H650 C664 0.961 . S
H651 C665 0.960 . S
H652 C665 0.961 . S
H653 C665 0.959 . S
H654 C668 0.929 . S
H655 C669 0.931 . S
H656 C671 0.930 . S
C657 H645 0.930 . S
C657 C658 1.399 . S
C657 C662 1.399 . S
C658 C657 1.399 . S
C658 C659 1.376 . S
C659 H646 0.930 . S
C659 C658 1.376 . S
C659 C660 1.388 . S
C660 H647 0.930 . S
C660 C659 1.388 . S
C660 C661 1.390 . S
C661 C660 1.390 . S
C661 C662 1.394 . S
C661 C667 1.465 . S
C662 C657 1.399 . S
C662 C661 1.394 . S
C662 C663 1.516 . S
C663 C662 1.516 . S
C663 C664 1.502 . S
C663 C665 1.561 . S
C663 C666 1.526 . S
C664 H648 0.959 . S
C664 H649 0.959 . S
C664 H650 0.961 . S
C664 C663 1.502 . S
C665 H651 0.960 . S
C665 H652 0.961 . S
C665 H653 0.959 . S
C665 C663 1.561 . S
C666 C663 1.526 . S
C666 C667 1.396 . S
C666 C671 1.390 . S
C667 C661 1.465 . S
C667 C666 1.396 . S
C667 C668 1.399 . S
C668 H654 0.929 . S
C668 C667 1.399 . S
C668 C669 1.385 . S
C669 H655 0.931 . S
C669 C668 1.385 . S
C669 C670 1.389 . S
C670 C669 1.389 . S
C670 C671 1.387 . S
C671 H656 0.930 . S
C671 C666 1.390 . S
C671 C670 1.387 . S
H672 C684 0.930 . S
H673 C686 0.930 . S
H674 C687 0.930 . S
H675 C691 0.959 . S
H676 C691 0.959 . S
H677 C691 0.961 . S
H678 C692 0.960 . S
H679 C692 0.961 . S
H680 C692 0.959 . S
H681 C695 0.929 . S
H682 C696 0.931 . S
H683 C698 0.930 . S
C684 H672 0.930 . S
C684 C685 1.399 . S
C684 C689 1.399 . S
C685 C684 1.399 . S
C685 C686 1.376 . S
C686 H673 0.930 . S
C686 C685 1.376 . S
C686 C687 1.388 . S
C687 H674 0.930 . S
C687 C686 1.388 . S
C687 C688 1.390 . S
C688 C687 1.390 . S
C688 C689 1.394 . S
C688 C694 1.465 . S
C689 C684 1.399 . S
C689 C688 1.394 . S
C689 C690 1.516 . S
C690 C689 1.516 . S
C690 C691 1.502 . S
C690 C692 1.561 . S
C690 C693 1.526 . S
C691 H675 0.959 . S
C691 H676 0.959 . S
C691 H677 0.961 . S
C691 C690 1.502 . S
C692 H678 0.960 . S
C692 H679 0.961 . S
C692 H680 0.959 . S
C692 C690 1.561 . S
C693 C690 1.526 . S
C693 C694 1.396 . S
C693 C698 1.390 . S
C694 C688 1.465 . S
C694 C693 1.396 . S
C694 C695 1.399 . S
C695 H681 0.929 . S
C695 C694 1.399 . S
C695 C696 1.385 . S
C696 H682 0.931 . S
C696 C695 1.385 . S
C696 C697 1.389 . S
C697 C696 1.389 . S
C697 C698 1.387 . S
C698 H683 0.930 . S
C698 C693 1.390 . S
C698 C697 1.387 . S
H699 C711 0.930 . S
H700 C713 0.930 . S
H701 C714 0.930 . S
H702 C718 0.959 . S
H703 C718 0.959 . S
H704 C718 0.961 . S
H705 C719 0.960 . S
H706 C719 0.961 . S
H707 C719 0.959 . S
H708 C722 0.929 . S
H709 C723 0.931 . S
H710 C725 0.930 . S
C711 H699 0.930 . S
C711 C712 1.399 . S
C711 C716 1.399 . S
C712 C711 1.399 . S
C712 C713 1.376 . S
C713 H700 0.930 . S
C713 C712 1.376 . S
C713 C714 1.388 . S
C714 H701 0.930 . S
C714 C713 1.388 . S
C714 C715 1.390 . S
C715 C714 1.390 . S
C715 C716 1.394 . S
C715 C721 1.465 . S
C716 C711 1.399 . S
C716 C715 1.394 . S
C716 C717 1.516 . S
C717 C716 1.516 . S
C717 C718 1.502 1_554 S
C717 C719 1.561 . S
C717 C720 1.526 . S
C718 H702 0.959 . S
C718 H703 0.959 . S
C718 H704 0.961 . S
C718 C717 1.502 1_556 S
C719 H705 0.960 . S
C719 H706 0.961 . S
C719 H707 0.959 . S
C719 C717 1.561 . S
C720 C717 1.526 . S
C720 C721 1.396 . S
C720 C725 1.390 . S
C721 C715 1.465 . S
C721 C720 1.396 . S
C721 C722 1.399 . S
C722 H708 0.929 . S
C722 C721 1.399 . S
C722 C723 1.385 . S
C723 H709 0.931 . S
C723 C722 1.385 . S
C723 C724 1.389 . S
C724 C723 1.389 . S
C724 C725 1.387 . S
C725 H710 0.930 . S
C725 C720 1.390 . S
C725 C724 1.387 . S
H726 C738 0.930 . S
H727 C740 0.930 . S
H728 C741 0.930 . S
H729 C745 0.959 . S
H730 C745 0.959 . S
H731 C745 0.961 . S
H732 C746 0.960 . S
H733 C746 0.961 . S
H734 C746 0.959 . S
H735 C749 0.929 . S
H736 C750 0.931 . S
H737 C752 0.930 . S
C738 H726 0.930 . S
C738 C739 1.399 . S
C738 C743 1.399 . S
C739 C738 1.399 . S
C739 C740 1.376 . S
C740 H727 0.930 . S
C740 C739 1.376 . S
C740 C741 1.388 . S
C741 H728 0.930 . S
C741 C740 1.388 . S
C741 C742 1.390 . S
C742 C741 1.390 . S
C742 C743 1.394 . S
C742 C748 1.465 . S
C743 C738 1.399 . S
C743 C742 1.394 . S
C743 C744 1.516 . S
C744 C743 1.516 . S
C744 C745 1.502 . S
C744 C746 1.561 . S
C744 C747 1.526 . S
C745 H729 0.959 . S
C745 H730 0.959 . S
C745 H731 0.961 . S
C745 C744 1.502 . S
C746 H732 0.960 . S
C746 H733 0.961 . S
C746 H734 0.959 . S
C746 C744 1.561 . S
C747 C744 1.526 . S
C747 C748 1.396 . S
C747 C752 1.390 . S
C748 C742 1.465 . S
C748 C747 1.396 . S
C748 C749 1.399 . S
C749 H735 0.929 . S
C749 C748 1.399 . S
C749 C750 1.385 . S
C750 H736 0.931 . S
C750 C749 1.385 . S
C750 C751 1.389 . S
C751 C750 1.389 . S
C751 C752 1.387 . S
C752 H737 0.930 . S
C752 C747 1.390 . S
C752 C751 1.387 . S
H753 C765 0.930 . S
H754 C767 0.930 . S
H755 C768 0.930 . S
H756 C772 0.959 . S
H757 C772 0.959 . S
H758 C772 0.961 . S
H759 C773 0.960 . S
H760 C773 0.961 . S
H761 C773 0.959 . S
H762 C776 0.929 . S
H763 C777 0.931 . S
H764 C779 0.930 . S
C765 H753 0.930 . S
C765 C766 1.399 . S
C765 C770 1.399 . S
C766 C765 1.399 . S
C766 C767 1.376 . S
C767 H754 0.930 . S
C767 C766 1.376 . S
C767 C768 1.388 . S
C768 H755 0.930 . S
C768 C767 1.388 . S
C768 C769 1.390 . S
C769 C768 1.390 . S
C769 C770 1.394 . S
C769 C775 1.465 . S
C770 C765 1.399 . S
C770 C769 1.394 . S
C770 C771 1.516 . S
C771 C770 1.516 . S
C771 C772 1.502 . S
C771 C773 1.561 . S
C771 C774 1.526 . S
C772 H756 0.959 . S
C772 H757 0.959 . S
C772 H758 0.961 . S
C772 C771 1.502 . S
C773 H759 0.960 . S
C773 H760 0.961 . S
C773 H761 0.959 . S
C773 C771 1.561 . S
C774 C771 1.526 . S
C774 C775 1.396 . S
C774 C779 1.390 . S
C775 C769 1.465 . S
C775 C774 1.396 . S
C775 C776 1.399 . S
C776 H762 0.929 . S
C776 C775 1.399 . S
C776 C777 1.385 . S
C777 H763 0.931 . S
C777 C776 1.385 . S
C777 C778 1.389 . S
C778 C777 1.389 . S
C778 C779 1.387 . S
C779 H764 0.930 . S
C779 C774 1.390 . S
C779 C778 1.387 . S
H780 C792 0.930 . S
H781 C794 0.930 . S
H782 C795 0.930 . S
H783 C799 0.959 . S
H784 C799 0.959 . S
H785 C799 0.961 . S
H786 C800 0.960 . S
H787 C800 0.961 . S
H788 C800 0.959 . S
H789 C803 0.929 . S
H790 C804 0.931 . S
H791 C806 0.930 . S
C792 H780 0.930 . S
C792 C793 1.399 . S
C792 C797 1.399 . S
C793 C792 1.399 . S
C793 C794 1.376 . S
C794 H781 0.930 . S
C794 C793 1.376 . S
C794 C795 1.388 . S
C795 H782 0.930 . S
C795 C794 1.388 . S
C795 C796 1.390 . S
C796 C795 1.390 . S
C796 C797 1.394 . S
C796 C802 1.465 . S
C797 C792 1.399 . S
C797 C796 1.394 . S
C797 C798 1.516 . S
C798 C797 1.516 . S
C798 C799 1.502 . S
C798 C800 1.561 . S
C798 C801 1.526 . S
C799 H783 0.959 . S
C799 H784 0.959 . S
C799 H785 0.961 . S
C799 C798 1.502 . S
C800 H786 0.960 . S
C800 H787 0.961 . S
C800 H788 0.959 . S
C800 C798 1.561 . S
C801 C798 1.526 . S
C801 C802 1.396 . S
C801 C806 1.390 . S
C802 C796 1.465 . S
C802 C801 1.396 . S
C802 C803 1.399 . S
C803 H789 0.929 . S
C803 C802 1.399 . S
C803 C804 1.385 . S
C804 H790 0.931 . S
C804 C803 1.385 . S
C804 C805 1.389 . S
C805 C804 1.389 . S
C805 C806 1.387 . S
C806 H791 0.930 . S
C806 C801 1.390 . S
C806 C805 1.387 . S
H807 C819 0.930 . S
H808 C821 0.930 . S
H809 C822 0.930 . S
H810 C826 0.959 . S
H811 C826 0.959 . S
H812 C826 0.961 . S
H813 C827 0.960 . S
H814 C827 0.961 . S
H815 C827 0.959 . S
H816 C830 0.929 . S
H817 C831 0.931 . S
H818 C833 0.930 . S
C819 H807 0.930 . S
C819 C820 1.399 . S
C819 C824 1.399 . S
C820 C819 1.399 . S
C820 C821 1.376 . S
C821 H808 0.930 . S
C821 C820 1.376 . S
C821 C822 1.388 . S
C822 H809 0.930 . S
C822 C821 1.388 . S
C822 C823 1.390 . S
C823 C822 1.390 . S
C823 C824 1.394 . S
C823 C829 1.465 . S
C824 C819 1.399 . S
C824 C823 1.394 . S
C824 C825 1.516 . S
C825 C824 1.516 . S
C825 C826 1.502 . S
C825 C827 1.561 . S
C825 C828 1.526 . S
C826 H810 0.959 . S
C826 H811 0.959 . S
C826 H812 0.961 . S
C826 C825 1.502 . S
C827 H813 0.960 . S
C827 H814 0.961 . S
C827 H815 0.959 . S
C827 C825 1.561 . S
C828 C825 1.526 . S
C828 C829 1.396 . S
C828 C833 1.390 . S
C829 C823 1.465 . S
C829 C828 1.396 . S
C829 C830 1.399 . S
C830 H816 0.929 . S
C830 C829 1.399 . S
C830 C831 1.385 . S
C831 H817 0.931 . S
C831 C830 1.385 . S
C831 C832 1.389 . S
C832 C831 1.389 . S
C832 C833 1.387 . S
C833 H818 0.930 . S
C833 C828 1.390 . S
C833 C832 1.387 . S
H834 C846 0.930 . S
H835 C848 0.930 . S
H836 C849 0.930 . S
H837 C853 0.959 . S
H838 C853 0.959 . S
H839 C853 0.961 . S
H840 C854 0.960 . S
H841 C854 0.961 . S
H842 C854 0.959 . S
H843 C857 0.929 . S
H844 C858 0.931 . S
H845 C860 0.930 . S
C846 H834 0.930 . S
C846 C847 1.399 . S
C846 C851 1.399 . S
C847 C846 1.399 . S
C847 C848 1.376 . S
C848 H835 0.930 . S
C848 C847 1.376 . S
C848 C849 1.388 . S
C849 H836 0.930 . S
C849 C848 1.388 . S
C849 C850 1.390 . S
C850 C849 1.390 . S
C850 C851 1.394 . S
C850 C856 1.465 . S
C851 C846 1.399 . S
C851 C850 1.394 . S
C851 C852 1.516 . S
C852 C851 1.516 . S
C852 C853 1.502 . S
C852 C854 1.561 . S
C852 C855 1.526 . S
C853 H837 0.959 . S
C853 H838 0.959 . S
C853 H839 0.961 . S
C853 C852 1.502 . S
C854 H840 0.960 . S
C854 H841 0.961 . S
C854 H842 0.959 . S
C854 C852 1.561 . S
C855 C852 1.526 . S
C855 C856 1.396 . S
C855 C860 1.390 . S
C856 C850 1.465 . S
C856 C855 1.396 . S
C856 C857 1.399 . S
C857 H843 0.929 . S
C857 C856 1.399 . S
C857 C858 1.385 . S
C858 H844 0.931 . S
C858 C857 1.385 . S
C858 C859 1.389 . S
C859 C858 1.389 . S
C859 C860 1.387 . S
C860 H845 0.930 . S
C860 C855 1.390 . S
C860 C859 1.387 . S
H861 C873 0.930 . S
H862 C875 0.930 . S
H863 C876 0.930 . S
H864 C880 0.959 . S
H865 C880 0.959 . S
H866 C880 0.961 1_556 S
H867 C881 0.960 . S
H868 C881 0.961 1_554 S
H869 C881 0.959 . S
H870 C884 0.929 . S
H871 C885 0.931 . S
H872 C887 0.930 . S
C873 H861 0.930 . S
C873 C874 1.399 . S
C873 C878 1.399 . S
C874 C873 1.399 . S
C874 C875 1.376 . S
C875 H862 0.930 . S
C875 C874 1.376 . S
C875 C876 1.388 . S
C876 H863 0.930 . S
C876 C875 1.388 . S
C876 C877 1.390 . S
C877 C876 1.390 . S
C877 C878 1.394 . S
C877 C883 1.465 . S
C878 C873 1.399 . S
C878 C877 1.394 . S
C878 C879 1.516 . S
C879 C878 1.516 . S
C879 C880 1.502 1_556 S
C879 C881 1.561 . S
C879 C882 1.526 . S
C880 H864 0.959 . S
C880 H865 0.959 . S
C880 H866 0.961 1_554 S
C880 C879 1.502 1_554 S
C881 H867 0.960 . S
C881 H868 0.961 1_556 S
C881 H869 0.959 . S
C881 C879 1.561 . S
C882 C879 1.526 . S
C882 C883 1.396 . S
C882 C887 1.390 1_556 S
C883 C877 1.465 . S
C883 C882 1.396 . S
C883 C884 1.399 . S
C884 H870 0.929 . S
C884 C883 1.399 . S
C884 C885 1.385 . S
C885 H871 0.931 . S
C885 C884 1.385 . S
C885 C886 1.389 1_556 S
C886 C885 1.389 1_554 S
C886 C887 1.387 . S
C887 H872 0.930 . S
C887 C882 1.390 1_554 S
C887 C886 1.387 . S
H888 C900 0.930 . S
H889 C902 0.930 . S
H890 C903 0.930 . S
H891 C907 0.959 . S
H892 C907 0.959 . S
H893 C907 0.961 . S
H894 C908 0.960 . S
H895 C908 0.961 . S
H896 C908 0.959 . S
H897 C911 0.929 . S
H898 C912 0.931 . S
H899 C914 0.930 . S
C900 H888 0.930 . S
C900 C901 1.399 . S
C900 C905 1.399 . S
C901 C900 1.399 . S
C901 C902 1.376 . S
C902 H889 0.930 . S
C902 C901 1.376 . S
C902 C903 1.388 . S
C903 H890 0.930 . S
C903 C902 1.388 . S
C903 C904 1.390 . S
C904 C903 1.390 . S
C904 C905 1.394 . S
C904 C910 1.465 . S
C905 C900 1.399 . S
C905 C904 1.394 . S
C905 C906 1.516 . S
C906 C905 1.516 . S
C906 C907 1.502 . S
C906 C908 1.561 . S
C906 C909 1.526 . S
C907 H891 0.959 . S
C907 H892 0.959 . S
C907 H893 0.961 . S
C907 C906 1.502 . S
C908 H894 0.960 . S
C908 H895 0.961 . S
C908 H896 0.959 . S
C908 C906 1.561 . S
C909 C906 1.526 . S
C909 C910 1.396 . S
C909 C914 1.390 . S
C910 C904 1.465 . S
C910 C909 1.396 . S
C910 C911 1.399 . S
C911 H897 0.929 . S
C911 C910 1.399 . S
C911 C912 1.385 . S
C912 H898 0.931 . S
C912 C911 1.385 . S
C912 C913 1.389 . S
C913 C912 1.389 . S
C913 C914 1.387 . S
C914 H899 0.930 . S
C914 C909 1.390 . S
C914 C913 1.387 . S
H915 C927 0.930 . S
H916 C929 0.930 . S
H917 C930 0.930 . S
H918 C934 0.959 . S
H919 C934 0.959 . S
H920 C934 0.961 . S
H921 C935 0.960 . S
H922 C935 0.961 . S
H923 C935 0.959 . S
H924 C938 0.929 . S
H925 C939 0.931 . S
H926 C941 0.930 . S
C927 H915 0.930 . S
C927 C928 1.399 . S
C927 C932 1.399 . S
C928 C927 1.399 . S
C928 C929 1.376 . S
C929 H916 0.930 . S
C929 C928 1.376 . S
C929 C930 1.388 . S
C930 H917 0.930 . S
C930 C929 1.388 . S
C930 C931 1.390 . S
C931 C930 1.390 . S
C931 C932 1.394 . S
C931 C937 1.465 . S
C932 C927 1.399 . S
C932 C931 1.394 . S
C932 C933 1.516 . S
C933 C932 1.516 . S
C933 C934 1.502 . S
C933 C935 1.561 . S
C933 C936 1.526 . S
C934 H918 0.959 . S
C934 H919 0.959 . S
C934 H920 0.961 . S
C934 C933 1.502 . S
C935 H921 0.960 . S
C935 H922 0.961 . S
C935 H923 0.959 . S
C935 C933 1.561 . S
C936 C933 1.526 . S
C936 C937 1.396 . S
C936 C941 1.390 . S
C937 C931 1.465 . S
C937 C936 1.396 . S
C937 C938 1.399 . S
C938 H924 0.929 . S
C938 C937 1.399 . S
C938 C939 1.385 . S
C939 H925 0.931 . S
C939 C938 1.385 . S
C939 C940 1.389 . S
C940 C939 1.389 . S
C940 C941 1.387 . S
C941 H926 0.930 . S
C941 C936 1.390 . S
C941 C940 1.387 . S
H942 C954 0.930 . S
H943 C956 0.930 . S
H944 C957 0.930 . S
H945 C961 0.959 . S
H946 C961 0.959 . S
H947 C961 0.961 . S
H948 C962 0.960 . S
H949 C962 0.961 . S
H950 C962 0.959 . S
H951 C965 0.929 . S
H952 C966 0.931 . S
H953 C968 0.930 . S
C954 H942 0.930 . S
C954 C955 1.399 . S
C954 C959 1.399 . S
C955 C954 1.399 . S
C955 C956 1.376 . S
C956 H943 0.930 . S
C956 C955 1.376 . S
C956 C957 1.388 . S
C957 H944 0.930 . S
C957 C956 1.388 . S
C957 C958 1.390 . S
C958 C957 1.390 . S
C958 C959 1.394 . S
C958 C964 1.465 . S
C959 C954 1.399 . S
C959 C958 1.394 . S
C959 C960 1.516 . S
C960 C959 1.516 . S
C960 C961 1.502 . S
C960 C962 1.561 . S
C960 C963 1.526 . S
C961 H945 0.959 . S
C961 H946 0.959 . S
C961 H947 0.961 . S
C961 C960 1.502 . S
C962 H948 0.960 . S
C962 H949 0.961 . S
C962 H950 0.959 . S
C962 C960 1.561 . S
C963 C960 1.526 . S
C963 C964 1.396 . S
C963 C968 1.390 . S
C964 C958 1.465 . S
C964 C963 1.396 . S
C964 C965 1.399 . S
C965 H951 0.929 . S
C965 C964 1.399 . S
C965 C966 1.385 . S
C966 H952 0.931 . S
C966 C965 1.385 . S
C966 C967 1.389 . S
C967 C966 1.389 . S
C967 C968 1.387 . S
C968 H953 0.930 . S
C968 C963 1.390 . S
C968 C967 1.387 . S
H969 C981 0.930 . S
H970 C983 0.930 . S
H971 C984 0.930 . S
H972 C988 0.959 . S
H973 C988 0.959 . S
H974 C988 0.961 . S
H975 C989 0.960 . S
H976 C989 0.961 . S
H977 C989 0.959 . S
H978 C992 0.929 . S
H979 C993 0.931 . S
H980 C995 0.930 . S
C981 H969 0.930 . S
C981 C982 1.399 . S
C981 C986 1.399 . S
C982 C981 1.399 . S
C982 C983 1.376 . S
C983 H970 0.930 . S
C983 C982 1.376 . S
C983 C984 1.388 . S
C984 H971 0.930 . S
C984 C983 1.388 . S
C984 C985 1.390 . S
C985 C984 1.390 . S
C985 C986 1.394 . S
C985 C991 1.465 . S
C986 C981 1.399 . S
C986 C985 1.394 . S
C986 C987 1.516 . S
C987 C986 1.516 . S
C987 C988 1.502 . S
C987 C989 1.561 . S
C987 C990 1.526 . S
C988 H972 0.959 . S
C988 H973 0.959 . S
C988 H974 0.961 . S
C988 C987 1.502 . S
C989 H975 0.960 . S
C989 H976 0.961 . S
C989 H977 0.959 . S
C989 C987 1.561 . S
C990 C987 1.526 . S
C990 C991 1.396 . S
C990 C995 1.390 . S
C991 C985 1.465 . S
C991 C990 1.396 . S
C991 C992 1.399 . S
C992 H978 0.929 . S
C992 C991 1.399 . S
C992 C993 1.385 . S
C993 H979 0.931 . S
C993 C992 1.385 . S
C993 C994 1.389 . S
C994 C993 1.389 . S
C994 C995 1.387 . S
C995 H980 0.930 . S
C995 C990 1.390 . S
C995 C994 1.387 . S
H996 C1008 0.930 . S
H997 C1010 0.930 . S
H998 C1011 0.930 . S
H999 C1015 0.959 . S
H1000 C1015 0.959 . S
H1001 C1015 0.961 . S
H1002 C1016 0.960 . S
H1003 C1016 0.961 . S
H1004 C1016 0.959 . S
H1005 C1019 0.929 . S
H1006 C1020 0.931 . S
H1007 C1022 0.930 . S
C1008 H996 0.930 . S
C1008 C1009 1.399 . S
C1008 C1013 1.399 . S
C1009 C1008 1.399 . S
C1009 C1010 1.376 . S
C1010 H997 0.930 . S
C1010 C1009 1.376 . S
C1010 C1011 1.388 . S
C1011 H998 0.930 . S
C1011 C1010 1.388 . S
C1011 C1012 1.390 . S
C1012 C1011 1.390 . S
C1012 C1013 1.394 . S
C1012 C1018 1.465 . S
C1013 C1008 1.399 . S
C1013 C1012 1.394 . S
C1013 C1014 1.516 . S
C1014 C1013 1.516 . S
C1014 C1015 1.502 . S
C1014 C1016 1.561 . S
C1014 C1017 1.526 . S
C1015 H999 0.959 . S
C1015 H1000 0.959 . S
C1015 H1001 0.961 . S
C1015 C1014 1.502 . S
C1016 H1002 0.960 . S
C1016 H1003 0.961 . S
C1016 H1004 0.959 . S
C1016 C1014 1.561 . S
C1017 C1014 1.526 . S
C1017 C1018 1.396 . S
C1017 C1022 1.390 . S
C1018 C1012 1.465 . S
C1018 C1017 1.396 . S
C1018 C1019 1.399 . S
C1019 H1005 0.929 . S
C1019 C1018 1.399 . S
C1019 C1020 1.385 . S
C1020 H1006 0.931 . S
C1020 C1019 1.385 . S
C1020 C1021 1.389 . S
C1021 C1020 1.389 . S
C1021 C1022 1.387 . S
C1022 H1007 0.930 . S
C1022 C1017 1.390 . S
C1022 C1021 1.387 . S
H1023 C1035 0.930 . S
H1024 C1037 0.930 . S
H1025 C1038 0.930 . S
H1026 C1042 0.959 . S
H1027 C1042 0.959 . S
H1028 C1042 0.961 . S
H1029 C1043 0.960 . S
H1030 C1043 0.961 . S
H1031 C1043 0.959 . S
H1032 C1046 0.929 . S
H1033 C1047 0.931 . S
H1034 C1049 0.930 . S
C1035 H1023 0.930 . S
C1035 C1036 1.399 . S
C1035 C1040 1.399 . S
C1036 C1035 1.399 . S
C1036 C1037 1.376 . S
C1037 H1024 0.930 . S
C1037 C1036 1.376 . S
C1037 C1038 1.388 . S
C1038 H1025 0.930 . S
C1038 C1037 1.388 . S
C1038 C1039 1.390 . S
C1039 C1038 1.390 . S
C1039 C1040 1.394 . S
C1039 C1045 1.465 . S
C1040 C1035 1.399 . S
C1040 C1039 1.394 . S
C1040 C1041 1.516 . S
C1041 C1040 1.516 . S
C1041 C1042 1.502 . S
C1041 C1043 1.561 . S
C1041 C1044 1.526 . S
C1042 H1026 0.959 . S
C1042 H1027 0.959 . S
C1042 H1028 0.961 . S
C1042 C1041 1.502 . S
C1043 H1029 0.960 . S
C1043 H1030 0.961 . S
C1043 H1031 0.959 . S
C1043 C1041 1.561 . S
C1044 C1041 1.526 . S
C1044 C1045 1.396 . S
C1044 C1049 1.390 . S
C1045 C1039 1.465 . S
C1045 C1044 1.396 . S
C1045 C1046 1.399 . S
C1046 H1032 0.929 . S
C1046 C1045 1.399 . S
C1046 C1047 1.385 . S
C1047 H1033 0.931 . S
C1047 C1046 1.385 . S
C1047 C1048 1.389 . S
C1048 C1047 1.389 . S
C1048 C1049 1.387 . S
C1049 H1034 0.930 . S
C1049 C1044 1.390 . S
C1049 C1048 1.387 . S
H1050 C1062 0.930 . S
H1051 C1064 0.930 . S
H1052 C1065 0.918 1_556 S
H1053 C1069 0.959 . S
H1054 C1069 0.959 . S
H1055 C1069 0.961 . S
H1056 C1070 0.960 . S
H1057 C1070 0.961 . S
H1058 C1070 0.959 . S
H1059 C1073 0.929 . S
H1060 C1074 0.931 . S
H1061 C1076 0.930 . S
C1062 H1050 0.930 . S
C1062 C1063 1.399 . S
C1062 C1067 1.399 . S
C1063 C1062 1.399 . S
C1063 C1064 1.376 . S
C1064 H1051 0.930 . S
C1064 C1063 1.376 . S
C1064 C1065 1.400 . S
C1065 H1052 0.918 1_554 S
C1065 C1064 1.400 . S
C1065 C1066 1.391 . S
C1066 C1065 1.391 . S
C1066 C1067 1.394 . S
C1066 C1072 1.465 1_554 S
C1067 C1062 1.399 . S
C1067 C1066 1.394 . S
C1067 C1068 1.516 . S
C1068 C1067 1.516 . S
C1068 C1069 1.502 . S
C1068 C1070 1.561 . S
C1068 C1071 1.526 1_554 S
C1069 H1053 0.959 . S
C1069 H1054 0.959 . S
C1069 H1055 0.961 . S
C1069 C1068 1.502 . S
C1070 H1056 0.960 . S
C1070 H1057 0.961 . S
C1070 H1058 0.959 . S
C1070 C1068 1.561 . S
C1071 C1068 1.526 1_556 S
C1071 C1072 1.396 . S
C1071 C1076 1.390 . S
C1072 C1066 1.465 1_556 S
C1072 C1071 1.396 . S
C1072 C1073 1.399 . S
C1073 H1059 0.929 . S
C1073 C1072 1.399 . S
C1073 C1074 1.385 . S
C1074 H1060 0.931 . S
C1074 C1073 1.385 . S
C1074 C1075 1.389 . S
C1075 C1074 1.389 . S
C1075 C1076 1.387 . S
C1076 H1061 0.930 . S
C1076 C1071 1.390 . S
C1076 C1075 1.387 . S
H1077 C1089 0.930 . S
H1078 C1091 0.930 . S
H1079 C1092 0.930 . S
H1080 C1096 0.959 . S
H1081 C1096 0.959 . S
H1082 C1096 0.961 . S
H1083 C1097 0.960 . S
H1084 C1097 0.961 . S
H1085 C1097 0.959 . S
H1086 C1100 0.929 . S
H1087 C1101 0.931 . S
H1088 C1103 0.930 . S
C1089 H1077 0.930 . S
C1089 C1090 1.399 . S
C1089 C1094 1.399 . S
C1090 C1089 1.399 . S
C1090 C1091 1.376 . S
C1091 H1078 0.930 . S
C1091 C1090 1.376 . S
C1091 C1092 1.388 . S
C1092 H1079 0.930 . S
C1092 C1091 1.388 . S
C1092 C1093 1.390 . S
C1093 C1092 1.390 . S
C1093 C1094 1.394 . S
C1093 C1099 1.465 . S
C1094 C1089 1.399 . S
C1094 C1093 1.394 . S
C1094 C1095 1.516 . S
C1095 C1094 1.516 . S
C1095 C1096 1.502 . S
C1095 C1097 1.561 . S
C1095 C1098 1.526 . S
C1096 H1080 0.959 . S
C1096 H1081 0.959 . S
C1096 H1082 0.961 . S
C1096 C1095 1.502 . S
C1097 H1083 0.960 . S
C1097 H1084 0.961 . S
C1097 H1085 0.959 . S
C1097 C1095 1.561 . S
C1098 C1095 1.526 . S
C1098 C1099 1.396 . S
C1098 C1103 1.390 . S
C1099 C1093 1.465 . S
C1099 C1098 1.396 . S
C1099 C1100 1.399 . S
C1100 H1086 0.929 . S
C1100 C1099 1.399 . S
C1100 C1101 1.385 . S
C1101 H1087 0.931 . S
C1101 C1100 1.385 . S
C1101 C1102 1.389 . S
C1102 C1101 1.389 . S
C1102 C1103 1.387 . S
C1103 H1088 0.930 . S
C1103 C1098 1.390 . S
C1103 C1102 1.387 . S
C481 C449 1.623 . S
C469 C29 1.577 . S
C496 C115 1.377 . S
C508 C383 1.399 . S
C523 C153 1.323 . S
C535 C397 1.427 . S
C550 C239 1.438 . S
C562 C411 1.406 . S
C589 C425 1.501 . S
C577 C301 1.546 . S
C604 C339 1.771 . S
C616 C435 1.835 . S
C631 C91 1.506 . S
C643 C393 1.627 . S
C658 C177 1.615 . S
C670 C407 1.616 . S
C685 C215 1.502 . S
C697 C421 1.638 . S
C724 C439 1.810 . S
C712 C277 1.769 . S
C751 C453 1.513 . S
C739 C363 1.468 . S
C778 C379 1.500 . S
C766 C53 1.469 . S
C793 C35 1.583 . S
C805 C394 1.514 . S
C820 C109 1.425 . S
C832 C408 1.563 . S
C859 C422 1.471 . S
C847 C159 1.535 . S
C874 C233 1.530 . S
C886 C441 1.660 . S
C913 C455 1.446 . S
C901 C295 1.299 . S
C940 C380 1.290 . S
C928 C345 1.385 . S
C967 C450 1.344 . S
C955 C97 1.429 . S
C982 C171 1.290 . S
C994 C385 1.321 . S
C1021 C399 1.366 . S
C1009 C221 1.420 . S
C1036 C283 1.287 . S
C1048 C413 1.295 . S
C1063 C357 1.441 . S
C1075 C427 1.419 . S
C1090 C47 1.583 . S
C1102 C436 1.700 . S
