# Generated by pormake.
# Topology zzz, (3,6)-cn, num edge types: 1
# Building blocks:
#     Node 0, Type 0, BuildingBlock: QEWDON_clean_linker_0, # of connection points: 3
#     Node 1, Type 0, BuildingBlock: QEWDON_clean_linker_0, # of connection points: 3
#     Node 2, Type 0, BuildingBlock: QEWDON_clean_linker_0, # of connection points: 3
#     Node 3, Type 0, BuildingBlock: QEWDON_clean_linker_0, # of connection points: 3
#     Node 4, Type 0, BuildingBlock: QEWDON_clean_linker_0, # of connection points: 3
#     Node 5, Type 0, BuildingBlock: QEWDON_clean_linker_0, # of connection points: 3
#     Node 6, Type 0, BuildingBlock: QEWDON_clean_linker_0, # of connection points: 3
#     Node 7, Type 0, BuildingBlock: QEWDON_clean_linker_0, # of connection points: 3
#     Node 8, Type 1, BuildingBlock: INOVEN_clean_sbu_0, # of connection points: 6
#     Node 9, Type 1, BuildingBlock: INOVEN_clean_sbu_0, # of connection points: 6
#     Node 10, Type 1, BuildingBlock: INOVEN_clean_sbu_0, # of connection points: 6
#     Node 11, Type 1, BuildingBlock: INOVEN_clean_sbu_0, # of connection points: 6
#     Edge 12, Type (0, 1), BuildingBlock: EZIPEK_clean_linker_0, # of connection points: 2
#     Edge 13, Type (0, 1), BuildingBlock: EZIPEK_clean_linker_0, # of connection points: 2
#     Edge 14, Type (0, 1), BuildingBlock: EZIPEK_clean_linker_0, # of connection points: 2
#     Edge 15, Type (0, 1), BuildingBlock: EZIPEK_clean_linker_0, # of connection points: 2
#     Edge 16, Type (0, 1), BuildingBlock: EZIPEK_clean_linker_0, # of connection points: 2
#     Edge 17, Type (0, 1), BuildingBlock: EZIPEK_clean_linker_0, # of connection points: 2
#     Edge 18, Type (0, 1), BuildingBlock: EZIPEK_clean_linker_0, # of connection points: 2
#     Edge 19, Type (0, 1), BuildingBlock: EZIPEK_clean_linker_0, # of connection points: 2
#     Edge 20, Type (0, 1), BuildingBlock: EZIPEK_clean_linker_0, # of connection points: 2
#     Edge 21, Type (0, 1), BuildingBlock: EZIPEK_clean_linker_0, # of connection points: 2
#     Edge 22, Type (0, 1), BuildingBlock: EZIPEK_clean_linker_0, # of connection points: 2
#     Edge 23, Type (0, 1), BuildingBlock: EZIPEK_clean_linker_0, # of connection points: 2
#     Edge 24, Type (0, 1), BuildingBlock: EZIPEK_clean_linker_0, # of connection points: 2
#     Edge 25, Type (0, 1), BuildingBlock: EZIPEK_clean_linker_0, # of connection points: 2
#     Edge 26, Type (0, 1), BuildingBlock: EZIPEK_clean_linker_0, # of connection points: 2
#     Edge 27, Type (0, 1), BuildingBlock: EZIPEK_clean_linker_0, # of connection points: 2
#     Edge 28, Type (0, 1), BuildingBlock: EZIPEK_clean_linker_0, # of connection points: 2
#     Edge 29, Type (0, 1), BuildingBlock: EZIPEK_clean_linker_0, # of connection points: 2
#     Edge 30, Type (0, 1), BuildingBlock: EZIPEK_clean_linker_0, # of connection points: 2
#     Edge 31, Type (0, 1), BuildingBlock: EZIPEK_clean_linker_0, # of connection points: 2
#     Edge 32, Type (0, 1), BuildingBlock: EZIPEK_clean_linker_0, # of connection points: 2
#     Edge 33, Type (0, 1), BuildingBlock: EZIPEK_clean_linker_0, # of connection points: 2
#     Edge 34, Type (0, 1), BuildingBlock: EZIPEK_clean_linker_0, # of connection points: 2
#     Edge 35, Type (0, 1), BuildingBlock: EZIPEK_clean_linker_0, # of connection points: 2
# Relax obj value: 0.231
# Max RMSD: 0.186
# Mean RMSD: 0.121
data_MOF--net-zzz--node1-INOVEN_clean_sbu_0--node2-QEWDON_clean_linker_0--edge1-EZIPEK_clean_linker_0
_symmetry_space_group_name_H-M    P1
_symmetry_Int_Tables_number       1
_symmetry_cell_setting            triclinic
loop_
_symmetry_equiv_pos_as_xyz
'x, y, z'
_cell_length_a     41.308873
_cell_length_b     41.358254
_cell_length_c     9.8888031
_cell_angle_alpha  89.966213
_cell_angle_beta   90.058805
_cell_angle_gamma 90.495667
loop_
_atom_site_label
_atom_site_type_symbol
_atom_site_fract_x
_atom_site_fract_y
_atom_site_fract_z
_atom_type_partial_charge
H0 H 0.75341 0.50795 0.3119 0.0
C1 C 0.77073 0.51504 0.3883 0.0
C2 C 0.80192 0.50475 0.36898 0.0
C3 C 0.7629 0.53593 0.49459 0.0
H4 H 0.84943 0.49982 0.45218 0.0
C5 C 0.82531 0.50919 0.46951 0.0
C6 C 0.8205 0.53037 0.57682 0.0
C7 C 0.78855 0.54413 0.59031 0.0
C8 C 0.728 0.54806 0.49661 0.0
H9 H 0.78404 0.56099 0.67159 0.0
C10 C 0.70772 0.54761 0.3773 0.0
C11 C 0.67375 0.55264 0.38276 0.0
C12 C 0.71337 0.55695 0.6189 0.0
H13 H 0.72718 0.5575 0.71197 0.0
C14 C 0.68035 0.56434 0.62366 0.0
H15 H 0.71772 0.54287 0.27854 0.0
C16 C 0.66083 0.56203 0.50796 0.0
H17 H 0.63559 0.56822 0.51597 0.0
H18 H 0.66957 0.57134 0.71891 0.0
H19 H 1.01467 0.75319 0.27722 0.0
C20 C 1.01859 0.76905 0.3626 0.0
C21 C 1.02621 0.80076 0.33429 0.0
C22 C 1.01257 0.75866 0.49488 0.0
H23 H 0.03737 0.84789 0.41258 0.0
C24 C 0.0305 0.82329 0.4384 0.0
C25 C 1.02269 0.8162 0.5721 0.0
C26 C 1.01351 0.78298 0.60169 0.0
C27 C 0.99953 0.72404 0.5043 0.0
H28 H 1.00699 0.77636 0.70404 0.0
C29 C 1.00927 0.69946 0.40903 0.0
C30 C 0.98876 0.67257 0.37436 0.0
C31 C 0.97168 0.71786 0.58094 0.0
H32 H 0.96339 0.7353 0.65454 0.0
C33 C 0.95212 0.69088 0.5529 0.0
H34 H 0.03139 0.70292 0.35188 0.0
C35 C 0.95951 0.66978 0.44658 0.0
H36 H 0.94201 0.65114 0.42059 0.0
H37 H 0.92984 0.68739 0.60876 0.0
H38 H 0.7981 1.00745 0.2769 0.0
C39 C 0.78372 1.01598 0.3608 0.0
C40 C 0.75199 1.0236 0.33454 0.0
C41 C 0.79637 1.01819 0.49197 0.0
H42 H 0.70658 0.0393 0.41563 0.0
C43 C 0.73126 0.03263 0.4392 0.0
C44 C 0.73952 1.0278 0.57341 0.0
C45 C 0.77325 1.02172 0.60214 0.0
C46 C 0.83298 1.01406 0.50343 0.0
H47 H 0.78099 1.01971 0.70628 0.0
C48 C 0.85408 1.01982 0.38931 0.0
C49 C 0.88743 1.01156 0.39023 0.0
C50 C 0.84711 1.00219 0.62226 0.0
H51 H 0.83261 0.99745 0.71122 0.0
C52 C 0.88008 0.99468 0.62585 0.0
H53 H 0.84484 0.03056 0.29757 0.0
C54 C 0.89967 0.99854 0.51125 0.0
H55 H 0.92424 0.99002 0.51612 0.0
H56 H 0.89038 0.98467 0.71735 0.0
H57 H 0.55356 0.79674 0.28243 0.0
C58 C 0.54502 0.78229 0.36648 0.0
C59 C 0.53606 0.75086 0.33895 0.0
C60 C 0.5435 0.79464 0.49827 0.0
H61 H 0.52004 0.70522 0.4195 0.0
C62 C 0.52755 0.72971 0.44353 0.0
C63 C 0.53246 0.73776 0.57807 0.0
C64 C 0.53925 0.77137 0.60764 0.0
C65 C 0.548 0.83125 0.51129 0.0
H66 H 0.54109 0.77893 0.71202 0.0
C67 C 0.54301 0.8525 0.39751 0.0
C68 C 0.55067 0.88596 0.40207 0.0
C69 C 0.55891 0.84542 0.63222 0.0
H70 H 0.56325 0.83081 0.72104 0.0
C71 C 0.56538 0.87874 0.63913 0.0
H72 H 0.53319 0.8435 0.30337 0.0
C73 C 0.5617 0.89868 0.5255 0.0
H74 H 0.56796 0.9241 0.53346 0.0
H75 H 0.57408 0.88915 0.73296 0.0
H76 H 0.29445 0.51941 0.30291 0.0
C77 C 0.27718 0.5148 0.22262 0.0
C78 C 0.24536 0.52271 0.24824 0.0
C79 C 0.28743 0.50766 0.09109 0.0
H80 H 0.19678 0.52504 0.17266 0.0
C81 C 0.22158 0.51859 0.14919 0.0
C82 C 0.22955 0.51048 0.0167 0.0
C83 C 0.26308 0.50547 0.98609 0.0
C84 C 0.32348 0.51141 0.06678 0.0
H85 H 0.27008 0.5013 0.88219 0.0
C86 C 0.34685 0.50602 0.17266 0.0
C87 C 0.37789 0.52115 0.17027 0.0
C88 C 0.33376 0.52831 0.95128 0.0
H89 H 0.31723 0.53325 0.86901 0.0
C90 C 0.36439 0.54258 0.94701 0.0
H91 H 0.34018 0.49216 0.2614 0.0
C92 C 0.38532 0.5403 0.05729 0.0
H93 H 0.40679 0.55481 0.05629 0.0
H94 H 0.37121 0.55733 0.86095 0.0
H95 H 1.01896 0.29413 0.27282 0.0
C96 C 1.027 0.27653 0.19927 0.0
C97 C 1.01845 0.24461 0.22058 0.0
C98 C 0.04222 0.28621 0.07938 0.0
H99 H 1.01967 0.19579 0.14818 0.0
C100 C 1.02672 0.22068 0.12763 0.0
C101 C 0.04128 0.2282 0.00467 0.0
C102 C 0.04889 0.26168 0.97864 0.0
C103 C 0.0442 0.32247 0.05812 0.0
H104 H 0.05906 0.26852 0.88184 0.0
C105 C 0.04914 0.34446 0.16958 0.0
C106 C 0.03979 0.37753 0.16173 0.0
C107 C 0.03305 0.33523 0.93548 0.0
H108 H 1.02828 0.31959 0.84978 0.0
C109 C 1.02483 0.36779 0.92565 0.0
H110 H 0.05789 0.33536 0.26548 0.0
C111 C 1.02742 0.38822 0.03769 0.0
H112 H 1.01928 0.41251 0.02792 0.0
H113 H 1.01494 0.377 0.8319 0.0
H114 H 0.26234 0.05633 0.27031 0.0
C115 C 0.27855 0.05394 0.1857 0.0
C116 C 0.311 0.05241 0.21721 0.0
C117 C 0.26744 0.04686 0.05484 0.0
H118 H 0.35955 0.04981 0.13923 0.0
C119 C 0.3341 0.05044 0.11424 0.0
C120 C 0.32565 0.0455 0.98024 0.0
C121 C 0.29169 0.04291 0.9495 0.0
C122 C 0.23179 0.03706 0.04342 0.0
H123 H 0.28466 0.03698 0.84713 0.0
C124 C 0.20833 0.04423 0.14768 0.0
C125 C 0.17871 1.02665 0.15971 0.0
C126 C 0.22231 1.01518 0.94207 0.0
H127 H 0.23846 1.00869 0.86082 0.0
C128 C 0.19271 0.99889 0.94984 0.0
H129 H 0.21317 0.06237 0.22369 0.0
C130 C 0.17206 1.00353 0.05948 0.0
H131 H 0.15135 0.98793 0.06805 0.0
H132 H 0.1865 0.98102 0.87391 0.0
H133 H 0.54008 0.26163 0.27911 0.0
C134 C 0.53267 0.27898 0.2031 0.0
C135 C 0.54168 0.31095 0.22095 0.0
C136 C 0.51815 0.26872 0.08246 0.0
H137 H 0.54111 0.35934 0.1433 0.0
C138 C 0.53398 0.33438 0.12479 0.0
C139 C 0.51976 0.3263 0.00181 0.0
C140 C 0.51218 0.29269 0.97841 0.0
C141 C 0.51787 0.23246 0.06247 0.0
H142 H 0.50269 0.28527 0.88108 0.0
C143 C 0.51025 0.21034 0.1712 0.0
C144 C 0.52216 0.17795 0.17202 0.0
C145 C 0.53511 0.22055 0.95158 0.0
H146 H 0.54237 0.23651 0.86993 0.0
C147 C 0.54736 0.1893 0.95372 0.0
H148 H 0.49749 0.21905 0.25935 0.0
C149 C 0.54149 0.16873 0.06271 0.0
H150 H 0.55372 0.14605 0.06485 0.0
H151 H 0.56364 0.18172 0.87499 0.0
Gd152 Gd 0.05887 1.02116 0.86804 0.0
Gd153 Gd 1.00965 1.02732 0.67195 0.0
C154 C 1.02714 0.95334 0.73852 0.0
C155 C 0.08995 1.00104 0.07341 0.0
C156 C 0.07721 0.97218 0.14007 0.0
C157 C 0.09758 0.94663 0.17583 0.0
C158 C 0.04423 0.9659 0.11815 0.0
C159 C 0.05314 0.90875 0.14121 0.0
C160 C 0.03336 0.93442 0.10528 0.0
C161 C 0.08509 0.9152 0.18379 0.0
C162 C 0.08479 0.0325 0.61689 0.0
C163 C 0.03807 0.09432 0.81535 0.0
C164 C 0.98418 0.04216 0.44373 0.0
C165 C 0.97167 0.07356 0.40291 0.0
C166 C 0.9514 0.09088 0.49078 0.0
C167 C 0.98644 0.08938 0.29354 0.0
C168 C 0.96624 0.1402 0.37656 0.0
C169 C 0.9837 0.12268 0.28024 0.0
C170 C 0.94864 0.1242 0.47717 0.0
C171 C 0.97515 1.02547 0.91095 0.0
O172 O 0.04506 0.96725 0.83396 0.0
O173 O 1.01106 0.9722 0.65437 0.0
O174 O 0.09955 0.99529 0.94995 0.0
O175 O 0.07148 1.02649 0.08101 0.0
O176 O 0.09457 0.0462 0.72769 0.0
O177 O 0.0613 1.01358 0.64613 0.0
O178 O 1.02219 0.08126 0.7116 0.0
O179 O 0.05282 0.075 0.90129 0.0
O180 O 0.96833 1.02694 0.53881 0.0
O181 O 1.0154 0.04243 0.4643 0.0
O182 O 0.96276 0.0282 0.7915 0.0
O183 O 1.00593 1.02375 0.90048 0.0
H184 H 0.12323 0.95039 0.18964 0.0
H185 H 1.02785 0.98497 0.08921 0.0
H186 H 1.00937 0.92985 0.06653 0.0
H187 H 0.10096 0.89574 0.21365 0.0
H188 H 0.93988 0.07926 0.57651 0.0
H189 H 1.00241 0.07644 0.22595 0.0
H190 H 0.99755 0.13506 0.2025 0.0
H191 H 0.93522 0.13774 0.55188 0.0
Gd192 Gd 0.53418 0.05195 0.8555 0.0
Gd193 Gd 0.52907 1.00118 0.69049 0.0
C194 C 0.60238 1.02306 0.72945 0.0
C195 C 0.5533 0.08567 0.05722 0.0
C196 C 0.57953 0.0738 0.14095 0.0
C197 C 0.6046 0.09432 0.18464 0.0
C198 C 0.58501 0.04065 0.12949 0.0
C199 C 0.64176 0.04923 0.16793 0.0
C200 C 0.61609 0.02923 0.13009 0.0
C201 C 0.63558 0.0816 0.20424 0.0
C202 C 0.51963 0.07741 0.6051 0.0
C203 C 0.46117 0.03252 0.82526 0.0
C204 C 0.50436 0.96371 0.51063 0.0
C205 C 0.47232 0.97371 0.46477 0.0
C206 C 0.44645 0.95266 0.43428 0.0
C207 C 0.46578 1.00613 0.48905 0.0
C208 C 0.40927 0.99805 0.45024 0.0
C209 C 0.43478 1.01682 0.49859 0.0
C210 C 0.41526 0.96544 0.41569 0.0
C211 C 0.54597 0.97783 0.93851 0.0
O212 O 0.58848 0.04052 0.82516 0.0
O213 O 0.58334 1.00558 0.65023 0.0
O214 O 0.56238 0.09227 0.93373 0.0
O215 O 0.527 0.06804 0.06068 0.0
O216 O 0.50767 0.08642 0.7196 0.0
O217 O 0.53867 0.05359 0.62755 0.0
O218 O 0.47526 1.00964 0.75347 0.0
O219 O 0.4799 0.05419 0.88277 0.0
O220 O 0.50482 0.95587 0.63792 0.0
O221 O 0.52759 0.98422 0.48111 0.0
O222 O 0.55829 0.9686 0.82455 0.0
O223 O 0.52552 1.00015 0.91457 0.0
H224 H 0.60088 0.12012 0.19332 0.0
H225 H 0.56596 1.02431 0.09895 0.0
H226 H 0.62025 1.00468 0.09942 0.0
H227 H 0.65514 0.09752 0.23566 0.0
H228 H 0.45001 0.92692 0.42646 0.0
H229 H 0.48438 1.02257 0.52273 0.0
H230 H 0.43125 0.04109 0.53525 0.0
H231 H 0.39601 0.94981 0.37915 0.0
Gd232 Gd 0.50084 0.53268 0.86393 0.0
Gd233 Gd 0.55044 0.52775 0.67333 0.0
C234 C 0.53098 0.6012 0.73947 0.0
C235 C 0.46721 0.55134 0.06375 0.0
C236 C 0.47852 0.57996 0.13543 0.0
C237 C 0.45747 0.60556 0.16327 0.0
C238 C 0.51178 0.58612 0.12519 0.0
C239 C 0.5027 0.64324 0.14766 0.0
C240 C 0.52293 0.61748 0.1182 0.0
C241 C 0.46989 0.63697 0.17732 0.0
C242 C 0.4756 0.52022 0.61264 0.0
C243 C 0.52301 0.46007 0.81382 0.0
C244 C 0.57801 0.51445 0.44737 0.0
C245 C 0.59017 0.48307 0.40355 0.0
C246 C 0.61076 0.46531 0.48881 0.0
C247 C 0.57462 0.46759 0.29506 0.0
C248 C 0.59406 0.41627 0.37671 0.0
C249 C 0.57653 0.43421 0.28169 0.0
C250 C 0.61263 0.43191 0.47533 0.0
C251 C 0.58461 0.53176 0.91278 0.0
O252 O 0.51332 0.58692 0.83458 0.0
O253 O 0.5475 0.58276 0.65553 0.0
O254 O 0.459 0.55771 0.93901 0.0
O255 O 0.48591 0.52608 0.07345 0.0
O256 O 0.46655 0.50612 0.72325 0.0
O257 O 0.49845 0.53995 0.6415 0.0
O258 O 0.53877 0.47343 0.71045 0.0
O259 O 0.50823 0.47918 0.89999 0.0
O260 O 0.59319 0.52829 0.54785 0.0
O261 O 0.54663 0.51497 0.46212 0.0
O262 O 0.59708 0.52885 0.79385 0.0
O263 O 0.55373 0.53235 0.90268 0.0
H264 H 0.43157 0.60171 0.16592 0.0
H265 H 0.52871 0.56712 0.10132 0.0
H266 H 0.54769 0.62191 0.09049 0.0
H267 H 0.4536 0.65648 0.20198 0.0
H268 H 0.62308 0.47665 0.57333 0.0
H269 H 0.55852 0.48086 0.22893 0.0
H270 H 0.56201 0.42216 0.20517 0.0
H271 H 0.62623 0.41808 0.54874 0.0
Gd272 Gd 1.02349 0.50205 0.86265 0.0
Gd273 Gd 0.03391 0.55402 0.66627 0.0
C274 C 0.95883 0.53338 0.71816 0.0
C275 C 1.00788 0.4733 0.08187 0.0
C276 C 0.98047 0.48382 0.16025 0.0
C277 C 0.96176 0.46135 0.23205 0.0
C278 C 0.9664 0.5123 0.11321 0.0
C279 C 0.9141 0.49297 0.18143 0.0
C280 C 0.93337 0.51556 0.11365 0.0
C281 C 0.92869 0.46675 0.24841 0.0
C282 C 0.0326 0.46968 0.62409 0.0
C283 C 0.09803 0.52339 0.81681 0.0
C284 C 0.05223 0.58525 0.4543 0.0
C285 C 0.08448 0.59713 0.4186 0.0
C286 C 0.10359 0.61258 0.5176 0.0
C287 C 0.09916 0.58435 0.30288 0.0
C288 C 0.15138 0.59315 0.40652 0.0
C289 C 0.13267 0.58217 0.29721 0.0
C290 C 0.13714 0.61051 0.51155 0.0
C291 C 1.02173 0.58651 0.90364 0.0
O292 O 0.97099 0.51652 0.81962 0.0
O293 O 0.97901 0.54814 0.63317 0.0
O294 O 0.99853 0.46331 0.96252 0.0
O295 O 0.03247 0.49346 0.07647 0.0
O296 O 0.02897 0.45654 0.74124 0.0
O297 O 0.03309 0.50047 0.63878 0.0
O298 O 0.08663 0.5438 0.72528 0.0
O299 O 0.07795 0.50503 0.88732 0.0
O300 O 0.03802 0.59922 0.55613 0.0
O301 O 0.04987 0.55378 0.45946 0.0
O302 O 0.03167 0.59919 0.79204 0.0
O303 O 1.02236 0.55564 0.88881 0.0
H304 H 0.97182 0.43852 0.26335 0.0
H305 H 0.98012 0.5295 0.05451 0.0
H306 H 0.92287 0.53547 0.05793 0.0
H307 H 0.91417 0.44909 0.30259 0.0
H308 H 0.0928 0.62274 0.60767 0.0
H309 H 0.08486 0.5723 0.2258 0.0
H310 H 0.14367 0.56872 0.21539 0.0
H311 H 0.15159 0.61909 0.5959 0.0
C312 C 0.13866 0.05861 0.31069 0.0
C313 C 0.1556 0.02955 0.28094 0.0
C314 C 0.12078 1.00129 0.44914 0.0
C315 C 0.10652 0.0309 0.49133 0.0
N316 N 0.10545 0.08898 0.4688 0.0
N317 N 0.16822 0.97559 0.35464 0.0
C318 C 0.11676 0.05992 0.4244 0.0
C319 C 0.1482 1.00166 0.36013 0.0
N320 N 0.14226 0.08467 0.22704 0.0
N321 N 0.10804 0.97246 0.49108 0.0
H322 H 0.18916 0.97531 0.29579 0.0
H323 H 0.16597 0.95579 0.41925 0.0
H324 H 0.0869 0.97056 0.54713 0.0
H325 H 0.11612 0.95019 0.45608 0.0
H326 H 0.12815 0.10535 0.23409 0.0
H327 H 0.15749 0.08456 0.14307 0.0
H328 H 0.11491 0.11112 0.43674 0.0
H329 H 0.08776 0.09097 0.54349 0.0
C330 C 0.50234 0.12378 0.27079 0.0
C331 C 0.51872 0.154 0.29011 0.0
C332 C 0.53688 0.1337 0.51438 0.0
C333 C 0.52308 0.10242 0.48982 0.0
N334 N 0.49971 0.06642 0.3274 0.0
N335 N 0.55624 0.18517 0.42432 0.0
C336 C 0.50761 0.09726 0.36302 0.0
C337 C 0.53703 0.15828 0.41089 0.0
N338 N 0.4821 0.12031 0.16235 0.0
N339 N 0.55029 0.1402 0.63733 0.0
H340 H 0.55697 0.20376 0.35322 0.0
H341 H 0.57345 0.18804 0.50046 0.0
H342 H 0.55465 0.12248 0.70961 0.0
H343 H 0.55603 0.16355 0.66819 0.0
H344 H 0.46746 0.10007 0.14624 0.0
H345 H 0.47798 0.13903 0.09382 0.0
H346 H 0.48607 0.05998 0.24308 0.0
H347 H 0.51143 0.04713 0.37321 0.0
C348 C 0.41941 0.49129 0.31939 0.0
C349 C 0.40206 0.51994 0.28788 0.0
C350 C 0.43856 0.5501 0.44397 0.0
C351 C 0.45335 0.52091 0.48855 0.0
N352 N 0.45528 0.46273 0.47329 0.0
N353 N 0.39082 0.57513 0.34704 0.0
C354 C 0.44282 0.49124 0.42776 0.0
C355 C 0.41046 0.54885 0.35831 0.0
N356 N 0.41457 0.46429 0.24218 0.0
N357 N 0.45152 0.57931 0.4801 0.0
H358 H 0.36981 0.57497 0.28837 0.0
H359 H 0.39354 0.59582 0.40608 0.0
H360 H 0.4732 0.58171 0.53232 0.0
H361 H 0.44302 0.6013 0.44395 0.0
H362 H 0.4289 0.44377 0.2489 0.0
H363 H 0.39772 0.46331 0.16366 0.0
H364 H 0.44575 0.44018 0.44715 0.0
H365 H 0.47429 0.4616 0.54262 0.0
C366 C 1.01629 0.39705 0.38772 0.0
C367 C 0.0396 0.40091 0.28271 0.0
C368 C 0.05798 0.4522 0.39493 0.0
C369 C 0.0334 0.44904 0.49528 0.0
N370 N 0.98388 0.42238 0.56205 0.0
N371 N 0.08014 0.43495 0.17817 0.0
C372 C 1.01134 0.42236 0.48492 0.0
C373 C 0.05956 0.42945 0.28394 0.0
N374 N 0.9981 0.36934 0.39414 0.0
N375 N 0.08089 0.47597 0.40883 0.0
H376 H 0.08398 0.41806 0.10174 0.0
H377 H 0.0921 0.45688 0.16207 0.0
H378 H 0.08044 0.49283 0.48705 0.0
H379 H 0.1015 0.47776 0.34876 0.0
H380 H 0.98424 0.36297 0.47811 0.0
H381 H 0.99837 0.35154 0.31981 0.0
H382 H 0.96496 0.40583 0.55016 0.0
H383 H 0.97805 0.44132 0.6268 0.0
C384 C 0.92586 0.98797 0.20996 0.0
C385 C 0.90938 1.0153 0.26462 0.0
C386 C 0.93704 0.04954 0.09015 0.0
C387 C 0.95452 1.02244 0.03994 0.0
N388 N 0.95933 0.9648 0.03308 0.0
N389 N 0.90168 0.07301 0.2613 0.0
C390 C 0.94749 0.99148 0.0964 0.0
C391 C 0.91529 0.04625 0.20418 0.0
N392 N 0.92072 0.95817 0.26619 0.0
N393 N 0.94106 0.07868 0.02692 0.0
H394 H 0.88742 0.0721 0.34798 0.0
H395 H 0.90648 0.09665 0.23134 0.0
H396 H 0.95832 0.08237 0.95174 0.0
H397 H 0.92686 0.09888 0.04413 0.0
H398 H 0.93573 0.93847 0.24993 0.0
H399 H 0.90177 0.95319 0.3327 0.0
H400 H 0.95157 0.94126 0.05285 0.0
H401 H 0.97574 0.96636 0.95346 0.0
C402 C 0.51953 0.91946 0.22689 0.0
C403 C 0.54939 0.90771 0.27717 0.0
C404 C 0.57717 0.94063 0.10135 0.0
C405 C 0.54748 0.95612 0.06479 0.0
N406 N 0.49135 0.96444 0.12621 0.0
N407 N 0.60751 0.90803 0.26203 0.0
C408 C 0.51896 0.94676 0.13716 0.0
C409 C 0.57842 0.91867 0.21417 0.0
N410 N 0.49142 0.90425 0.26233 0.0
N411 N 0.60448 0.94654 0.02753 0.0
H412 H 0.60944 0.88994 0.33509 0.0
H413 H 0.62969 0.91814 0.23423 0.0
H414 H 0.60614 0.96496 0.95639 0.0
H415 H 0.62534 0.93266 0.03419 0.0
H416 H 0.46962 0.90846 0.21231 0.0
H417 H 0.4904 0.88544 0.33241 0.0
H418 H 0.47015 0.95885 0.17811 0.0
H419 H 0.4905 0.98706 0.08111 0.0
C420 C 0.63303 0.57328 0.20518 0.0
C421 C 0.65136 0.54727 0.25985 0.0
C422 C 0.62402 0.51047 0.0935 0.0
C423 C 0.60531 0.53647 0.04087 0.0
N424 N 0.59802 0.59374 0.02787 0.0
N425 N 0.66164 0.49 0.26362 0.0
C426 C 0.61127 0.56805 0.09321 0.0
C427 C 0.64637 0.51562 0.20453 0.0
N428 N 0.63616 0.60336 0.26112 0.0
N429 N 0.62075 0.48068 0.03494 0.0
H430 H 0.67709 0.49238 0.3464 0.0
H431 H 0.65745 0.46593 0.23859 0.0
H432 H 0.6033 0.47566 0.9615 0.0
H433 H 0.63571 0.46115 0.05451 0.0
H434 H 0.62027 0.62219 0.2417 0.0
H435 H 0.65401 0.6093 0.33166 0.0
H436 H 0.60525 0.61764 0.04304 0.0
H437 H 0.58055 0.59085 0.95287 0.0
C438 C 0.99541 0.61512 0.2669 0.0
C439 C 0.99563 0.6497 0.2537 0.0
C440 C 1.0032 0.64087 0.0065 0.0
C441 C 1.01103 0.60744 0.02562 0.0
N442 N 1.01756 0.56451 0.18593 0.0
N443 N 0.99816 0.69483 0.09878 0.0
C444 C 1.00752 0.59506 0.159 0.0
C445 C 0.99981 0.6623 0.12029 0.0
N446 N 0.98417 0.60098 0.3825 0.0
N447 N 0.99517 0.65183 0.8804 0.0
H448 H 0.98877 0.71084 0.1694 0.0
H449 H 1.00651 0.70579 0.01031 0.0
H450 H 0.99112 0.63653 0.79846 0.0
H451 H 0.98714 0.67519 0.86126 0.0
H452 H 0.97796 0.57655 0.38779 0.0
H453 H 0.98007 0.61349 0.4719 0.0
H454 H 1.01243 0.55209 0.27464 0.0
H455 H 0.0329 0.55217 0.12126 0.0
C456 C 1.01125 0.21798 0.43423 0.0
C457 C 0.99664 0.23565 0.3309 0.0
C458 C 0.95271 0.19668 0.31259 0.0
C459 C 0.97216 0.17503 0.38759 0.0
N460 N 1.01979 0.1645 0.52336 0.0
N461 N 0.94826 0.25082 0.21685 0.0
C462 C 1.00081 0.18582 0.45456 0.0
C463 C 0.96484 0.22832 0.28941 0.0
N464 N 0.03689 0.23125 0.50163 0.0
N465 N 0.92465 0.18595 0.254 0.0
H466 H 0.95831 0.27365 0.19793 0.0
H467 H 0.92451 0.24784 0.18378 0.0
H468 H 0.91545 0.1627 0.27056 0.0
H469 H 0.91087 0.19958 0.18731 0.0
H470 H 0.04791 0.22038 0.58462 0.0
H471 H 0.04489 0.25472 0.47969 0.0
H472 H 0.04285 0.17026 0.55907 0.0
H473 H 1.01312 0.14042 0.5391 0.0
C474 C 0.34849 0.06438 0.39453 0.0
C475 C 0.32142 0.04612 0.35745 0.0
C476 C 0.34768 0.99887 0.45467 0.0
C477 C 0.37787 1.01457 0.43035 0.0
N478 N 0.40371 0.06202 0.32748 0.0
N479 N 0.29174 0.99585 0.38284 0.0
C480 C 0.37788 0.0479 0.39147 0.0
C481 C 0.3194 1.01348 0.40189 0.0
N482 N 0.34723 0.09719 0.39336 0.0
N483 N 0.3458 0.9711 0.52875 0.0
H484 H 0.27008 1.0063 0.35256 0.0
H485 H 0.29074 0.97081 0.39486 0.0
H486 H 0.3658 0.96149 0.57844 0.0
H487 H 0.32382 0.96007 0.55389 0.0
H488 H 0.36742 0.11149 0.41687 0.0
H489 H 0.32526 0.1091 0.37942 0.0
H490 H 0.40319 0.08575 0.29168 0.0
H491 H 0.42325 0.04876 0.29134 0.0
C492 C 0.54816 0.33863 0.43255 0.0
C493 C 0.56323 0.32062 0.33136 0.0
C494 C 0.60732 0.35955 0.31714 0.0
C495 C 0.58758 0.38152 0.38804 0.0
N496 N 0.53928 0.39243 0.51828 0.0
N497 N 0.61224 0.30775 0.21234 0.0
C498 C 0.55849 0.37093 0.452 0.0
C499 C 0.59508 0.32837 0.29096 0.0
N500 N 0.52224 0.32556 0.49859 0.0
N501 N 0.63639 0.36913 0.26463 0.0
H502 H 0.6037 0.28471 0.18651 0.0
H503 H 0.6037 0.28471 0.18651 0.0
H504 H 0.64596 0.39229 0.2797 0.0
H505 H 0.65077 0.35364 0.20746 0.0
H506 H 0.51081 0.33673 0.57972 0.0
H507 H 0.51438 0.30199 0.47766 0.0
H508 H 0.51602 0.38681 0.55203 0.0
H509 H 0.54609 0.41646 0.53431 0.0
C510 C 0.21494 0.5304 0.45454 0.0
C511 C 0.23752 0.54334 0.36387 0.0
C512 C 0.21049 0.59525 0.36267 0.0
C513 C 0.18376 0.57965 0.42445 0.0
N514 N 0.16018 0.53319 0.53747 0.0
N515 N 0.26579 0.59024 0.28179 0.0
C516 C 0.18632 0.54784 0.47842 0.0
C517 C 0.23862 0.57692 0.33799 0.0
N518 N 0.22018 0.50046 0.50743 0.0
N519 N 0.20765 0.62633 0.31746 0.0
H520 H 0.28649 0.57662 0.26431 0.0
H521 H 0.26889 0.61483 0.26331 0.0
H522 H 0.18724 0.64024 0.33731 0.0
H523 H 0.22485 0.63806 0.2579 0.0
H524 H 0.20562 0.48988 0.58142 0.0
H525 H 0.24115 0.48768 0.48373 0.0
H526 H 0.15916 0.50864 0.56026 0.0
H527 H 0.13872 0.54535 0.55748 0.0
C528 C 0.99856 0.83532 0.18187 0.0
C529 C 1.02331 0.8127 0.19515 0.0
C530 C 0.05978 0.84991 0.08374 0.0
C531 C 0.04009 0.8754 0.13397 0.0
N532 N 0.99051 0.88962 0.25543 0.0
N533 N 0.07422 0.79356 0.11737 0.0
C534 C 1.00839 0.86789 0.18369 0.0
C535 C 0.05251 0.81804 0.12667 0.0
N536 N 0.96732 0.82607 0.20343 0.0
N537 N 0.0851 0.85618 -0.00079 0.0
H538 H 0.06824 0.77026 0.15041 0.0
H539 H 0.09777 0.7967 0.08182 0.0
H540 H 0.0901 0.8794 0.96339 0.0
H541 H 0.09886 0.83802 0.95512 0.0
H542 H 0.94811 0.8422 0.19573 0.0
H543 H 0.96123 0.80172 0.21758 0.0
H544 H 0.96848 0.88349 0.30043 0.0
H545 H 0.99946 0.91189 0.28805 0.0
C546 C 0.73262 0.04505 0.12415 0.0
C547 C 0.73781 1.01719 0.20133 0.0
C548 C 0.68172 1.00478 0.21589 0.0
C549 C 0.67484 0.03609 0.16171 0.0
N550 N 0.69335 0.07917 0.01271 0.0
N551 N 0.72012 0.96322 0.25238 0.0
C552 C 0.7002 0.05405 0.09717 0.0
C553 C 0.71337 0.99359 0.2089 0.0
N554 N 0.75852 0.06419 0.09228 0.0
N555 N 0.66077 0.98741 0.29442 0.0
H556 H 0.74385 0.95512 0.26398 0.0
H557 H 0.74385 0.95512 0.26398 0.0
H558 H 0.63848 0.99575 0.3286 0.0
H559 H 0.63848 0.99575 0.3286 0.0
H560 H 0.75673 0.08694 0.048 0.0
H561 H 0.78206 0.05683 0.11498 0.0
H562 H 0.71101 0.09261 0.9624 0.0
H563 H 0.66976 0.08472 0.98378 0.0
C564 C 0.51013 0.73449 0.13046 0.0
C565 C 0.53931 0.73778 0.20205 0.0
C566 C 0.54836 0.68143 0.20554 0.0
C567 C 0.51694 0.67619 0.14834 0.0
N568 N 0.47463 0.69835 0.00578 0.0
N569 N 0.59334 0.71883 0.22501 0.0
C570 C 0.49995 0.70296 0.09231 0.0
C571 C 0.56161 0.71267 0.19791 0.0
N572 N 0.49113 0.76093 0.11329 0.0
N573 N 0.56241 0.65938 0.28978 0.0
H574 H 0.60187 0.74256 0.23548 0.0
H575 H 0.61064 0.70058 0.22609 0.0
H576 H 0.55047 0.63868 0.32436 0.0
H577 H 0.58388 0.66426 0.34184 0.0
H578 H 0.46761 0.75986 0.07539 0.0
H579 H 0.49927 0.78388 0.14251 0.0
H580 H 0.4623 0.71735 0.96039 0.0
H581 H 0.46816 0.67554 0.96939 0.0
C582 C 0.82551 0.4714 0.19322 0.0
C583 C 0.81367 0.50176 0.22992 0.0
C584 C 0.86469 0.52752 0.19893 0.0
C585 C 0.87874 0.49663 0.17731 0.0
N586 N 0.86979 0.44225 0.09144 0.0
N587 N 0.81559 0.5585 0.18165 0.0
C588 C 0.85823 0.46936 0.15241 0.0
C589 C 0.83091 0.52959 0.19068 0.0
N590 N 0.80642 0.44477 0.21116 0.0
N591 N 0.88219 0.55306 0.24901 0.0
H592 H 0.79042 0.55991 0.18953 0.0
H593 H 0.82778 0.57979 0.15531 0.0
H594 H 0.90599 0.55107 0.28286 0.0
H595 H 0.87159 0.57501 0.27454 0.0
H596 H 0.81476 0.42122 0.20015 0.0
H597 H 0.78235 0.44705 0.24212 0.0
H598 H 0.85502 0.42264 0.06595 0.0
H599 H 0.89327 0.44112 0.05303 0.0
C600 C 1.01589 0.18605 0.85101 0.0
C601 C 0.04457 0.19932 0.90894 0.0
C602 C 0.07093 0.14636 0.86767 0.0
C603 C 0.04052 0.13132 0.83517 0.0
N604 N 0.98294 0.13853 0.80326 0.0
N605 N 0.09993 0.19157 0.97234 0.0
C606 C 1.01278 0.15177 0.82731 0.0
C607 C 0.07233 0.17932 0.91549 0.0
N608 N 0.99135 0.20658 0.81905 0.0
N609 N 0.09884 0.12955 0.84814 0.0
H610 H 0.10212 0.21584 0.00016 0.0
H611 H 0.11988 0.17753 0.99724 0.0
H612 H 0.09907 0.10634 0.8075 0.0
H613 H 0.12184 0.13977 0.85803 0.0
H614 H 0.97097 0.1996 0.76388 0.0
H615 H 0.99329 0.23148 0.83535 0.0
H616 H 0.9615 0.15138 0.81268 0.0
H617 H 0.97919 0.11418 0.78239 0.0
C618 C 0.37136 1.00892 0.90944 0.0
C619 C 0.35476 0.03852 0.88879 0.0
C620 C 0.40618 0.06168 0.79716 0.0
C621 C 0.42397 0.03382 0.83942 0.0
N622 N 0.42231 0.98078 0.9404 0.0
N623 N 0.35599 0.0927 0.80448 0.0
C624 C 0.40603 1.00719 0.89431 0.0
C625 C 0.3721 0.06458 0.82799 0.0
N626 N 0.3536 0.9824 0.94676 0.0
N627 N 0.42169 0.0851 0.72376 0.0
H628 H 0.33102 0.09448 0.81872 0.0
H629 H 0.36714 0.11424 0.77513 0.0
H630 H 0.44606 0.08365 0.69807 0.0
H631 H 0.40997 0.10428 0.67708 0.0
H632 H 0.36295 0.95917 0.95357 0.0
H633 H 0.3285 0.98333 0.95847 0.0
H634 H 0.41174 0.96264 -0.00107 0.0
H635 H 0.44711 0.97792 0.92788 0.0
C636 C 0.4887 0.37505 0.91271 0.0
C637 C 0.51632 0.35491 0.90458 0.0
C638 C 0.54816 0.40253 0.82376 0.0
C639 C 0.52052 0.42304 0.83272 0.0
N640 N 0.46218 0.42483 0.84626 0.0
N641 N 0.56921 0.34759 0.81188 0.0
C642 C 0.4901 0.40801 0.86524 0.0
C643 C 0.54489 0.36817 0.84566 0.0
N644 N 0.46125 0.36296 0.97124 0.0
N645 N 0.57806 0.41581 0.80146 0.0
H646 H 0.56711 0.32267 0.82725 0.0
H647 H 0.58946 0.35464 0.75614 0.0
H648 H 0.58196 0.44044 0.78683 0.0
H649 H 0.59941 0.4027 0.80796 0.0
H650 H 0.44156 0.37718 0.99778 0.0
H651 H 0.45897 0.33868 -0.00104 0.0
H652 H 0.4392 0.41455 0.85607 0.0
H653 H 0.4619 0.44806 0.80595 0.0
C654 C 0.18176 0.4851 0.88992 0.0
C655 C 0.20156 0.51263 0.91641 0.0
C656 C 0.15477 0.54773 0.8636 0.0
C657 C 0.1345 0.52015 0.84012 0.0
N658 N 0.13247 0.46315 0.78902 0.0
N659 N 0.20955 0.56959 0.88601 0.0
C660 C 0.1492 0.48897 0.84066 0.0
C661 C 0.18884 0.54371 0.88751 0.0
N662 N 0.19377 0.45514 0.91653 0.0
N663 N 0.14132 0.57771 0.87266 0.0
H664 H 0.23432 0.56704 0.90386 0.0
H665 H 0.20289 0.59256 0.85357 0.0
H666 H 0.11663 0.58182 0.86155 0.0
H667 H 0.15418 0.59818 0.90354 0.0
H668 H 0.17969 0.43413 0.91587 0.0
H669 H 0.21784 0.45168 0.94498 0.0
H670 H 0.14268 0.44048 0.77456 0.0
H671 H 0.1094 0.46525 0.74711 0.0
C672 C 0.9947 0.86359 0.69471 0.0
C673 C 1.02356 0.84624 0.66564 0.0
C674 C 0.05465 0.89717 0.71124 0.0
C675 C 1.02577 0.91589 0.72395 0.0
N676 N 0.9674 0.91516 0.73134 0.0
N677 N 0.08211 0.84779 0.66798 0.0
C678 C 0.99556 0.89839 0.71801 0.0
C679 C 0.05342 0.86334 0.68254 0.0
N680 N 0.96635 0.84649 0.70153 0.0
N681 N 0.08468 0.91083 0.71978 0.0
H682 H 0.08387 0.82298 0.65018 0.0
H683 H 0.08387 0.82298 0.65018 0.0
H684 H 0.08922 0.93521 0.73906 0.0
H685 H 0.08922 0.93521 0.73906 0.0
H686 H 0.94447 0.85601 0.73389 0.0
H687 H 0.96542 0.82157 0.68591 0.0
H688 H 0.94448 0.90531 0.71545 0.0
H689 H 0.96683 0.93977 0.75296 0.0
C690 C 0.6917 0.05453 0.68968 0.0
C691 C 0.70977 1.02586 0.66697 0.0
C692 C 0.6582 0.9946 0.70305 0.0
C693 C 0.63965 1.02371 0.71118 0.0
N694 N 0.64081 0.08229 0.70984 0.0
N695 N 0.70958 0.96806 0.65351 0.0
C696 C 0.65714 0.05372 0.70605 0.0
C697 C 0.69277 0.99577 0.67754 0.0
N698 N 0.70696 0.0838 0.68823 0.0
N699 N 0.64295 0.96553 0.72201 0.0
H700 H 0.73472 0.96803 0.64338 0.0
H701 H 0.69889 0.94547 0.6388 0.0
H702 H 0.618 0.96313 0.73165 0.0
H703 H 0.655 0.94381 0.73625 0.0
H704 H 0.73202 0.08655 0.67895 0.0
H705 H 0.73202 0.08655 0.67895 0.0
H706 H 0.65261 0.1047 0.70759 0.0
H707 H 0.61565 0.08377 0.70898 0.0
C708 C 0.56155 0.69094 0.69372 0.0
C709 C 0.53223 0.70814 0.67275 0.0
C710 C 0.5019 0.65631 0.71016 0.0
C711 C 0.53139 0.63855 0.72449 0.0
N712 N 0.58943 0.64093 0.74953 0.0
N713 N 0.47458 0.70843 0.68755 0.0
C714 C 0.56118 0.6566 0.72266 0.0
C715 C 0.50252 0.69102 0.69115 0.0
N716 N 0.59011 0.70735 0.6772 0.0
N717 N 0.47312 0.63979 0.70596 0.0
H718 H 0.47482 0.73351 0.67496 0.0
H719 H 0.45174 0.69902 0.70912 0.0
H720 H 0.47109 0.61501 0.72169 0.0
H721 H 0.45117 0.65007 0.6788 0.0
H722 H 0.61268 0.69647 0.67213 0.0
H723 H 0.59102 0.73239 0.66449 0.0
H724 H 0.61131 0.65262 0.76944 0.0
H725 H 0.59087 0.61594 0.75839 0.0
C726 C 0.8717 0.5647 0.62869 0.0
C727 C 0.85157 0.53743 0.65864 0.0
C728 C 0.90105 0.508 0.72958 0.0
C729 C 0.92154 0.53537 0.70171 0.0
N730 N 0.92284 0.59317 0.66684 0.0
N731 N 0.84681 0.48763 0.78027 0.0
C732 C 0.90577 0.56477 0.66386 0.0
C733 C 0.86634 0.51092 0.7253 0.0
N734 N 0.85856 0.59032 0.56212 0.0
N735 N 0.91437 0.47826 0.74927 0.0
H736 H 0.8216 0.4894 0.77758 0.0
H737 H 0.85547 0.46879 0.83961 0.0
H738 H 0.93901 0.47383 0.74062 0.0
H739 H 0.90065 0.4571 0.75747 0.0
H740 H 0.87237 0.60927 0.52246 0.0
H741 H 0.83386 0.59162 0.54102 0.0
H742 H 0.9122 0.61566 0.65242 0.0
H743 H 0.94686 0.59462 0.6988 0.0
loop_
_geom_bond_atom_site_label_1
_geom_bond_atom_site_label_2
_geom_bond_distance
_geom_bond_site_symmetry_2
_ccdc_geom_bond_type
H0 C1 0.949 . S
C1 H0 0.949 . S
C1 C2 1.395 . S
C1 C3 1.391 . S
C2 C1 1.395 . S
C2 C5 1.390 . S
C3 C1 1.391 . S
C3 C7 1.387 . S
C3 C8 1.491 . S
H4 C5 0.950 . S
C5 C2 1.390 . S
C5 H4 0.950 . S
C5 C6 1.378 . S
C6 C5 1.378 . S
C6 C7 1.409 . S
C7 C3 1.387 . S
C7 C6 1.409 . S
C7 H9 0.951 . S
C8 C3 1.491 . S
C8 C10 1.382 . S
C8 C12 1.404 . S
H9 C7 0.951 . S
C10 C8 1.382 . S
C10 C11 1.390 . S
C10 H15 0.949 . S
C11 C10 1.390 . S
C11 C16 1.399 . S
C12 C8 1.404 . S
C12 H13 0.950 . S
C12 C14 1.375 . S
H13 C12 0.950 . S
C14 C12 1.375 . S
C14 C16 1.382 . S
C14 H18 0.950 . S
H15 C10 0.949 . S
C16 C11 1.399 . S
C16 C14 1.382 . S
C16 H17 0.952 . S
H17 C16 0.952 . S
H18 C14 0.950 . S
H19 C20 0.949 . S
C20 H19 0.949 . S
C20 C21 1.395 . S
C20 C22 1.391 . S
C21 C20 1.395 . S
C21 C24 1.390 1_655 S
C22 C20 1.391 . S
C22 C26 1.387 . S
C22 C27 1.491 . S
H23 C24 0.950 . S
C24 C21 1.390 1_455 S
C24 H23 0.950 . S
C24 C25 1.377 1_455 S
C25 C24 1.377 1_655 S
C25 C26 1.413 . S
C26 C22 1.387 . S
C26 C25 1.413 . S
C26 H28 0.951 . S
C27 C22 1.491 . S
C27 C29 1.382 . S
C27 C31 1.404 . S
H28 C26 0.951 . S
C29 C27 1.382 . S
C29 C30 1.390 . S
C29 H34 0.949 1_655 S
C30 C29 1.390 . S
C30 C35 1.399 . S
C31 C27 1.404 . S
C31 H32 0.950 . S
C31 C33 1.375 . S
H32 C31 0.950 . S
C33 C31 1.375 . S
C33 C35 1.382 . S
C33 H37 0.950 . S
H34 C29 0.949 1_455 S
C35 C30 1.399 . S
C35 C33 1.382 . S
C35 H36 0.952 . S
H36 C35 0.952 . S
H37 C33 0.950 . S
H38 C39 0.949 . S
C39 H38 0.949 . S
C39 C40 1.395 . S
C39 C41 1.391 . S
C40 C39 1.395 . S
C40 C43 1.390 1_565 S
C41 C39 1.391 . S
C41 C45 1.387 . S
C41 C46 1.491 . S
H42 C43 0.950 . S
C43 C40 1.390 1_545 S
C43 H42 0.950 . S
C43 C44 1.377 1_545 S
C44 C43 1.377 1_565 S
C44 C45 1.413 . S
C45 C41 1.387 . S
C45 C44 1.413 . S
C45 H47 0.951 . S
C46 C41 1.491 . S
C46 C48 1.382 . S
C46 C50 1.404 . S
H47 C45 0.951 . S
C48 C46 1.382 . S
C48 C49 1.390 . S
C48 H53 0.949 1_565 S
C49 C48 1.390 . S
C49 C54 1.399 . S
C50 C46 1.404 . S
C50 H51 0.950 . S
C50 C52 1.375 . S
H51 C50 0.950 . S
C52 C50 1.375 . S
C52 C54 1.382 . S
C52 H56 0.950 . S
H53 C48 0.949 1_545 S
C54 C49 1.399 . S
C54 C52 1.382 . S
C54 H55 0.952 . S
H55 C54 0.952 . S
H56 C52 0.950 . S
H57 C58 0.949 . S
C58 H57 0.949 . S
C58 C59 1.395 . S
C58 C60 1.391 . S
C59 C58 1.395 . S
C59 C62 1.390 . S
C60 C58 1.391 . S
C60 C64 1.387 . S
C60 C65 1.491 . S
H61 C62 0.950 . S
C62 C59 1.390 . S
C62 H61 0.950 . S
C62 C63 1.378 . S
C63 C62 1.378 . S
C63 C64 1.409 . S
C64 C60 1.387 . S
C64 C63 1.409 . S
C64 H66 0.951 . S
C65 C60 1.491 . S
C65 C67 1.382 . S
C65 C69 1.404 . S
H66 C64 0.951 . S
C67 C65 1.382 . S
C67 C68 1.390 . S
C67 H72 0.949 . S
C68 C67 1.390 . S
C68 C73 1.399 . S
C69 C65 1.404 . S
C69 H70 0.950 . S
C69 C71 1.375 . S
H70 C69 0.950 . S
C71 C69 1.375 . S
C71 C73 1.382 . S
C71 H75 0.950 . S
H72 C67 0.949 . S
C73 C68 1.399 . S
C73 C71 1.382 . S
C73 H74 0.952 . S
H74 C73 0.952 . S
H75 C71 0.950 . S
H76 C77 0.949 . S
C77 H76 0.949 . S
C77 C78 1.395 . S
C77 C79 1.391 1_554 S
C78 C77 1.395 . S
C78 C81 1.390 1_554 S
C79 C77 1.391 1_556 S
C79 C83 1.387 . S
C79 C84 1.491 . S
H80 C81 0.950 . S
C81 C78 1.390 1_556 S
C81 H80 0.950 . S
C81 C82 1.378 . S
C82 C81 1.378 . S
C82 C83 1.409 . S
C83 C79 1.387 . S
C83 C82 1.409 . S
C83 H85 0.951 . S
C84 C79 1.491 . S
C84 C86 1.382 1_556 S
C84 C88 1.404 . S
H85 C83 0.951 . S
C86 C84 1.382 1_554 S
C86 C87 1.390 . S
C86 H91 0.949 . S
C87 C86 1.390 . S
C87 C92 1.399 1_554 S
C88 C84 1.404 . S
C88 H89 0.950 . S
C88 C90 1.375 . S
H89 C88 0.950 . S
C90 C88 1.375 . S
C90 C92 1.382 . S
C90 H94 0.950 . S
H91 C86 0.949 . S
C92 C87 1.399 1_556 S
C92 C90 1.382 . S
C92 H93 0.952 . S
H93 C92 0.952 . S
H94 C90 0.950 . S
H95 C96 0.949 . S
C96 H95 0.949 . S
C96 C97 1.394 . S
C96 C98 1.391 1_554 S
C97 C96 1.394 . S
C97 C100 1.390 1_654 S
C98 C96 1.391 1_556 S
C98 C102 1.387 . S
C98 C103 1.491 . S
H99 C100 0.950 . S
C100 C97 1.390 1_456 S
C100 H99 0.950 . S
C100 C101 1.377 1_455 S
C101 C100 1.377 1_655 S
C101 C102 1.411 . S
C102 C98 1.387 . S
C102 C101 1.411 . S
C102 H104 0.951 . S
C103 C98 1.491 . S
C103 C105 1.382 1_556 S
C103 C107 1.404 . S
H104 C102 0.951 . S
C105 C103 1.382 1_554 S
C105 C106 1.390 . S
C105 H110 0.949 1_655 S
C106 C105 1.390 . S
C106 C111 1.399 1_554 S
C107 C103 1.404 . S
C107 H108 0.950 . S
C107 C109 1.375 . S
H108 C107 0.950 . S
C109 C107 1.375 . S
C109 C111 1.382 . S
C109 H113 0.950 . S
H110 C105 0.949 1_455 S
C111 C106 1.399 1_556 S
C111 C109 1.382 . S
C111 H112 0.952 . S
H112 C111 0.952 . S
H113 C109 0.950 . S
H114 C115 0.949 . S
C115 H114 0.949 . S
C115 C116 1.394 . S
C115 C117 1.391 1_554 S
C116 C115 1.394 . S
C116 C119 1.390 1_564 S
C117 C115 1.391 1_556 S
C117 C121 1.387 . S
C117 C122 1.491 . S
H118 C119 0.950 . S
C119 C116 1.390 1_546 S
C119 H118 0.950 . S
C119 C120 1.377 1_545 S
C120 C119 1.377 1_565 S
C120 C121 1.411 . S
C121 C117 1.387 . S
C121 C120 1.411 . S
C121 H123 0.951 . S
C122 C117 1.491 . S
C122 C124 1.382 1_556 S
C122 C126 1.404 . S
H123 C121 0.951 . S
C124 C122 1.382 1_554 S
C124 C125 1.390 . S
C124 H129 0.949 1_565 S
C125 C124 1.390 . S
C125 C130 1.399 1_554 S
C126 C122 1.404 . S
C126 H127 0.950 . S
C126 C128 1.375 . S
H127 C126 0.950 . S
C128 C126 1.375 . S
C128 C130 1.382 . S
C128 H132 0.950 . S
H129 C124 0.949 1_545 S
C130 C125 1.399 1_556 S
C130 C128 1.382 . S
C130 H131 0.952 . S
H131 C130 0.952 . S
H132 C128 0.950 . S
H133 C134 0.949 . S
C134 H133 0.949 . S
C134 C135 1.395 . S
C134 C136 1.391 1_554 S
C135 C134 1.395 . S
C135 C138 1.390 1_554 S
C136 C134 1.391 1_556 S
C136 C140 1.387 . S
C136 C141 1.491 . S
H137 C138 0.950 . S
C138 C135 1.390 1_556 S
C138 H137 0.950 . S
C138 C139 1.378 . S
C139 C138 1.378 . S
C139 C140 1.409 . S
C140 C136 1.387 . S
C140 C139 1.409 . S
C140 H142 0.951 . S
C141 C136 1.491 . S
C141 C143 1.382 1_556 S
C141 C145 1.404 . S
H142 C140 0.951 . S
C143 C141 1.382 1_554 S
C143 C144 1.390 . S
C143 H148 0.949 . S
C144 C143 1.390 . S
C144 C149 1.399 1_554 S
C145 C141 1.404 . S
C145 H146 0.950 . S
C145 C147 1.375 . S
H146 C145 0.950 . S
C147 C145 1.375 . S
C147 C149 1.382 . S
C147 H151 0.950 . S
H148 C143 0.949 . S
C149 C144 1.399 1_556 S
C149 C147 1.382 . S
C149 H150 0.952 . S
H150 C149 0.952 . S
H151 C147 0.950 . S
Gd152 C155 2.818 1_556 S
Gd152 O172 2.377 . S
Gd152 O174 2.448 1_556 S
Gd152 O175 2.506 1_556 S
Gd152 O176 2.435 . S
Gd152 O177 2.717 1_565 S
Gd152 O179 2.395 1_565 S
Gd152 O183 2.327 1_455 S
Gd153 C164 2.818 . S
Gd153 O173 2.395 1_545 S
Gd153 O177 2.327 1_655 S
Gd153 O178 2.377 . S
Gd153 O180 2.448 . S
Gd153 O181 2.506 . S
Gd153 O182 2.435 . S
Gd153 O183 2.717 1_545 S
C154 O172 1.240 1_655 S
C154 O173 1.240 . S
C155 Gd152 2.818 1_554 S
C155 C156 1.510 . S
C155 O174 1.249 . S
C155 O175 1.252 . S
C156 C155 1.510 . S
C156 C157 1.404 . S
C156 C158 1.352 . S
C157 C156 1.404 . S
C157 C161 1.389 . S
C157 H184 0.930 . S
C158 C156 1.352 . S
C158 C160 1.374 . S
C158 H185 0.931 1_455 S
C159 C160 1.359 . S
C159 C161 1.364 . S
C160 C158 1.374 . S
C160 C159 1.359 . S
C160 H186 0.931 1_455 S
C161 C157 1.389 . S
C161 C159 1.364 . S
C161 H187 0.931 . S
C162 O176 1.256 . S
C162 O177 1.257 1_565 S
C163 O178 1.240 1_455 S
C163 O179 1.240 . S
C164 Gd153 2.818 . S
C164 C165 1.510 . S
C164 O180 1.249 . S
C164 O181 1.252 . S
C165 C164 1.510 . S
C165 C166 1.404 . S
C165 C167 1.352 . S
C166 C165 1.404 . S
C166 C170 1.389 . S
C166 H188 0.930 . S
C167 C165 1.352 . S
C167 C169 1.374 . S
C167 H189 0.931 1_655 S
C168 C169 1.359 . S
C168 C170 1.364 . S
C169 C167 1.374 . S
C169 C168 1.359 . S
C169 H190 0.931 1_655 S
C170 C166 1.389 . S
C170 C168 1.364 . S
C170 H191 0.931 . S
C171 O182 1.256 . S
C171 O183 1.257 1_545 S
O172 Gd152 2.377 . S
O172 C154 1.240 1_455 S
O173 Gd153 2.395 1_565 S
O173 C154 1.240 . S
O174 Gd152 2.448 1_554 S
O174 C155 1.249 . S
O175 Gd152 2.506 1_554 S
O175 C155 1.252 . S
O176 Gd152 2.435 . S
O176 C162 1.256 . S
O177 Gd152 2.717 1_545 S
O177 Gd153 2.327 1_455 S
O177 C162 1.257 1_545 S
O178 Gd153 2.377 . S
O178 C163 1.240 1_655 S
O179 Gd152 2.395 1_545 S
O179 C163 1.240 . S
O180 Gd153 2.448 . S
O180 C164 1.249 . S
O181 Gd153 2.506 . S
O181 C164 1.252 . S
O182 Gd153 2.435 . S
O182 C171 1.256 . S
O183 Gd152 2.327 1_655 S
O183 Gd153 2.717 1_565 S
O183 C171 1.257 1_565 S
H184 C157 0.930 . S
H185 C158 0.931 1_655 S
H186 C160 0.931 1_655 S
H187 C161 0.931 . S
H188 C166 0.930 . S
H189 C167 0.931 1_455 S
H190 C169 0.931 1_455 S
H191 C170 0.931 . S
Gd192 C195 2.818 1_556 S
Gd192 O212 2.377 . S
Gd192 O214 2.448 1_556 S
Gd192 O215 2.506 1_556 S
Gd192 O216 2.435 . S
Gd192 O217 2.717 . S
Gd192 O219 2.395 . S
Gd192 O223 2.327 1_545 S
Gd193 C204 2.818 . S
Gd193 O213 2.395 . S
Gd193 O217 2.327 1_565 S
Gd193 O218 2.377 . S
Gd193 O220 2.448 . S
Gd193 O221 2.506 . S
Gd193 O222 2.435 . S
Gd193 O223 2.717 . S
C194 O212 1.240 1_565 S
C194 O213 1.240 . S
C195 Gd192 2.818 1_554 S
C195 C196 1.510 . S
C195 O214 1.249 . S
C195 O215 1.252 . S
C196 C195 1.510 . S
C196 C197 1.404 . S
C196 C198 1.352 . S
C197 C196 1.404 . S
C197 C201 1.389 . S
C197 H224 0.930 . S
C198 C196 1.352 . S
C198 C200 1.374 . S
C198 H225 0.931 1_545 S
C199 C200 1.359 . S
C199 C201 1.364 . S
C200 C198 1.374 . S
C200 C199 1.359 . S
C200 H226 0.931 1_545 S
C201 C197 1.389 . S
C201 C199 1.364 . S
C201 H227 0.931 . S
C202 O216 1.256 . S
C202 O217 1.257 . S
C203 O218 1.240 1_545 S
C203 O219 1.240 . S
C204 Gd193 2.818 . S
C204 C205 1.510 . S
C204 O220 1.249 . S
C204 O221 1.252 . S
C205 C204 1.510 . S
C205 C206 1.404 . S
C205 C207 1.352 . S
C206 C205 1.404 . S
C206 C210 1.389 . S
C206 H228 0.930 . S
C207 C205 1.352 . S
C207 C209 1.374 . S
C207 H229 0.931 1_565 S
C208 C209 1.359 . S
C208 C210 1.364 . S
C209 C207 1.374 . S
C209 C208 1.359 . S
C209 H230 0.931 1_565 S
C210 C206 1.389 . S
C210 C208 1.364 . S
C210 H231 0.931 . S
C211 O222 1.256 . S
C211 O223 1.257 . S
O212 Gd192 2.377 . S
O212 C194 1.240 1_545 S
O213 Gd193 2.395 . S
O213 C194 1.240 . S
O214 Gd192 2.448 1_554 S
O214 C195 1.249 . S
O215 Gd192 2.506 1_554 S
O215 C195 1.252 . S
O216 Gd192 2.435 . S
O216 C202 1.256 . S
O217 Gd192 2.717 . S
O217 Gd193 2.327 1_545 S
O217 C202 1.257 . S
O218 Gd193 2.377 . S
O218 C203 1.240 1_565 S
O219 Gd192 2.395 . S
O219 C203 1.240 . S
O220 Gd193 2.448 . S
O220 C204 1.249 . S
O221 Gd193 2.506 . S
O221 C204 1.252 . S
O222 Gd193 2.435 . S
O222 C211 1.256 . S
O223 Gd192 2.327 1_565 S
O223 Gd193 2.717 . S
O223 C211 1.257 . S
H224 C197 0.930 . S
H225 C198 0.931 1_565 S
H226 C200 0.931 1_565 S
H227 C201 0.931 . S
H228 C206 0.930 . S
H229 C207 0.931 1_545 S
H230 C209 0.931 1_545 S
H231 C210 0.931 . S
Gd232 C235 2.818 1_556 S
Gd232 O252 2.377 . S
Gd232 O254 2.448 1_556 S
Gd232 O255 2.506 1_556 S
Gd232 O256 2.435 . S
Gd232 O257 2.717 . S
Gd232 O259 2.395 . S
Gd232 O263 2.327 . S
Gd233 C244 2.818 . S
Gd233 O253 2.395 . S
Gd233 O257 2.327 . S
Gd233 O258 2.377 . S
Gd233 O260 2.448 . S
Gd233 O261 2.506 . S
Gd233 O262 2.435 . S
Gd233 O263 2.717 . S
C234 O252 1.240 . S
C234 O253 1.240 . S
C235 Gd232 2.818 1_554 S
C235 C236 1.510 . S
C235 O254 1.249 . S
C235 O255 1.252 . S
C236 C235 1.510 . S
C236 C237 1.404 . S
C236 C238 1.352 . S
C237 C236 1.404 . S
C237 C241 1.389 . S
C237 H264 0.930 . S
C238 C236 1.352 . S
C238 C240 1.374 . S
C238 H265 0.931 . S
C239 C240 1.359 . S
C239 C241 1.364 . S
C240 C238 1.374 . S
C240 C239 1.359 . S
C240 H266 0.931 . S
C241 C237 1.389 . S
C241 C239 1.364 . S
C241 H267 0.931 . S
C242 O256 1.256 . S
C242 O257 1.257 . S
C243 O258 1.240 . S
C243 O259 1.240 . S
C244 Gd233 2.818 . S
C244 C245 1.510 . S
C244 O260 1.249 . S
C244 O261 1.252 . S
C245 C244 1.510 . S
C245 C246 1.404 . S
C245 C247 1.352 . S
C246 C245 1.404 . S
C246 C250 1.389 . S
C246 H268 0.930 . S
C247 C245 1.352 . S
C247 C249 1.374 . S
C247 H269 0.931 . S
C248 C249 1.359 . S
C248 C250 1.364 . S
C249 C247 1.374 . S
C249 C248 1.359 . S
C249 H270 0.931 . S
C250 C246 1.389 . S
C250 C248 1.364 . S
C250 H271 0.931 . S
C251 O262 1.256 . S
C251 O263 1.257 . S
O252 Gd232 2.377 . S
O252 C234 1.240 . S
O253 Gd233 2.395 . S
O253 C234 1.240 . S
O254 Gd232 2.448 1_554 S
O254 C235 1.249 . S
O255 Gd232 2.506 1_554 S
O255 C235 1.252 . S
O256 Gd232 2.435 . S
O256 C242 1.256 . S
O257 Gd232 2.717 . S
O257 Gd233 2.327 . S
O257 C242 1.257 . S
O258 Gd233 2.377 . S
O258 C243 1.240 . S
O259 Gd232 2.395 . S
O259 C243 1.240 . S
O260 Gd233 2.448 . S
O260 C244 1.249 . S
O261 Gd233 2.506 . S
O261 C244 1.252 . S
O262 Gd233 2.435 . S
O262 C251 1.256 . S
O263 Gd232 2.327 . S
O263 Gd233 2.717 . S
O263 C251 1.257 . S
H264 C237 0.930 . S
H265 C238 0.931 . S
H266 C240 0.931 . S
H267 C241 0.931 . S
H268 C246 0.930 . S
H269 C247 0.931 . S
H270 C249 0.931 . S
H271 C250 0.931 . S
Gd272 C275 2.818 1_556 S
Gd272 O292 2.377 . S
Gd272 O294 2.448 1_556 S
Gd272 O295 2.506 1_556 S
Gd272 O296 2.435 . S
Gd272 O297 2.717 1_655 S
Gd272 O299 2.395 1_655 S
Gd272 O303 2.327 . S
Gd273 C284 2.818 . S
Gd273 O293 2.395 1_455 S
Gd273 O297 2.327 . S
Gd273 O298 2.377 . S
Gd273 O300 2.448 . S
Gd273 O301 2.506 . S
Gd273 O302 2.435 . S
Gd273 O303 2.717 1_455 S
C274 O292 1.240 . S
C274 O293 1.240 . S
C275 Gd272 2.818 1_554 S
C275 C276 1.510 . S
C275 O294 1.249 . S
C275 O295 1.252 . S
C276 C275 1.510 . S
C276 C277 1.404 . S
C276 C278 1.352 . S
C277 C276 1.404 . S
C277 C281 1.389 . S
C277 H304 0.930 . S
C278 C276 1.352 . S
C278 C280 1.374 . S
C278 H305 0.931 . S
C279 C280 1.359 . S
C279 C281 1.364 . S
C280 C278 1.374 . S
C280 C279 1.359 . S
C280 H306 0.931 . S
C281 C277 1.389 . S
C281 C279 1.364 . S
C281 H307 0.931 . S
C282 O296 1.256 . S
C282 O297 1.257 1_655 S
C283 O298 1.240 . S
C283 O299 1.240 . S
C284 Gd273 2.818 . S
C284 C285 1.510 . S
C284 O300 1.249 . S
C284 O301 1.252 . S
C285 C284 1.510 . S
C285 C286 1.404 . S
C285 C287 1.352 . S
C286 C285 1.404 . S
C286 C290 1.389 . S
C286 H308 0.930 . S
C287 C285 1.352 . S
C287 C289 1.374 . S
C287 H309 0.931 . S
C288 C289 1.359 . S
C288 C290 1.364 . S
C289 C287 1.374 . S
C289 C288 1.359 . S
C289 H310 0.931 . S
C290 C286 1.389 . S
C290 C288 1.364 . S
C290 H311 0.931 . S
C291 O302 1.256 . S
C291 O303 1.257 1_455 S
O292 Gd272 2.377 . S
O292 C274 1.240 . S
O293 Gd273 2.395 1_655 S
O293 C274 1.240 . S
O294 Gd272 2.448 1_554 S
O294 C275 1.249 . S
O295 Gd272 2.506 1_554 S
O295 C275 1.252 . S
O296 Gd272 2.435 . S
O296 C282 1.256 . S
O297 Gd272 2.717 1_455 S
O297 Gd273 2.327 . S
O297 C282 1.257 1_455 S
O298 Gd273 2.377 . S
O298 C283 1.240 . S
O299 Gd272 2.395 1_455 S
O299 C283 1.240 . S
O300 Gd273 2.448 . S
O300 C284 1.249 . S
O301 Gd273 2.506 . S
O301 C284 1.252 . S
O302 Gd273 2.435 . S
O302 C291 1.256 . S
O303 Gd272 2.327 . S
O303 Gd273 2.717 1_655 S
O303 C291 1.257 1_655 S
H304 C277 0.930 . S
H305 C278 0.931 . S
H306 C280 0.931 . S
H307 C281 0.931 . S
H308 C286 0.930 . S
H309 C287 0.931 . S
H310 C289 0.931 . S
H311 C290 0.931 . S
C312 C313 1.380 . S
C312 C318 1.379 . S
C312 N320 1.356 . S
C313 C312 1.380 . S
C313 C319 1.347 1_545 S
C314 C315 1.363 1_565 S
C314 C319 1.379 . S
C314 N321 1.356 . S
C315 C314 1.363 1_545 S
C315 C318 1.363 . S
N316 C318 1.356 . S
N316 H328 0.984 . S
N316 H329 0.985 . S
N317 C319 1.356 . S
N317 H322 0.984 . S
N317 H323 0.985 . S
C318 C312 1.379 . S
C318 C315 1.363 . S
C318 N316 1.356 . S
C319 C313 1.347 1_565 S
C319 C314 1.379 . S
C319 N317 1.356 . S
N320 C312 1.356 . S
N320 H326 0.984 . S
N320 H327 0.984 . S
N321 C314 1.356 . S
N321 H324 0.984 . S
N321 H325 0.985 . S
H322 N317 0.984 . S
H323 N317 0.985 . S
H324 N321 0.984 . S
H325 N321 0.985 . S
H326 N320 0.984 . S
H327 N320 0.984 . S
H328 N316 0.984 . S
H329 N316 0.985 . S
C330 C331 1.363 . S
C330 C336 1.379 . S
C330 N338 1.356 . S
C331 C330 1.363 . S
C331 C337 1.363 . S
C332 C333 1.363 . S
C332 C337 1.379 . S
C332 N339 1.356 . S
C333 C332 1.363 . S
C333 C336 1.363 . S
N334 C336 1.356 . S
N334 H346 0.984 . S
N334 H347 0.985 . S
N335 C337 1.356 . S
N335 H340 0.984 . S
N335 H341 0.985 . S
C336 C330 1.379 . S
C336 C333 1.363 . S
C336 N334 1.356 . S
C337 C331 1.363 . S
C337 C332 1.379 . S
C337 N335 1.356 . S
N338 C330 1.356 . S
N338 H344 0.984 . S
N338 H345 0.984 . S
N339 C332 1.356 . S
N339 H342 0.984 . S
N339 H343 0.985 . S
H340 N335 0.984 . S
H341 N335 0.985 . S
H342 N339 0.984 . S
H343 N339 0.985 . S
H344 N338 0.984 . S
H345 N338 0.984 . S
H346 N334 0.984 . S
H347 N334 0.985 . S
C348 C349 1.363 . S
C348 C354 1.379 . S
C348 N356 1.356 . S
C349 C348 1.363 . S
C349 C355 1.363 . S
C350 C351 1.363 . S
C350 C355 1.379 . S
C350 N357 1.356 . S
C351 C350 1.363 . S
C351 C354 1.363 . S
N352 C354 1.356 . S
N352 H364 0.984 . S
N352 H365 0.985 . S
N353 C355 1.356 . S
N353 H358 0.984 . S
N353 H359 0.985 . S
C354 C348 1.379 . S
C354 C351 1.363 . S
C354 N352 1.356 . S
C355 C349 1.363 . S
C355 C350 1.379 . S
C355 N353 1.356 . S
N356 C348 1.356 . S
N356 H362 0.984 . S
N356 H363 0.984 . S
N357 C350 1.356 . S
N357 H360 0.984 . S
N357 H361 0.985 . S
H358 N353 0.984 . S
H359 N353 0.985 . S
H360 N357 0.984 . S
H361 N357 0.985 . S
H362 N356 0.984 . S
H363 N356 0.984 . S
H364 N352 0.984 . S
H365 N352 0.985 . S
C366 C367 1.348 1_655 S
C366 C372 1.379 . S
C366 N374 1.356 . S
C367 C366 1.348 1_455 S
C367 C373 1.379 . S
C368 C369 1.363 . S
C368 C373 1.379 . S
C368 N375 1.356 . S
C369 C368 1.363 . S
C369 C372 1.363 1_455 S
N370 C372 1.356 . S
N370 H382 0.984 . S
N370 H383 0.985 . S
N371 C373 1.356 . S
N371 H376 0.984 . S
N371 H377 0.985 . S
C372 C366 1.379 . S
C372 C369 1.363 1_655 S
C372 N370 1.356 . S
C373 C367 1.379 . S
C373 C368 1.379 . S
C373 N371 1.356 . S
N374 C366 1.356 . S
N374 H380 0.984 . S
N374 H381 0.984 . S
N375 C368 1.356 . S
N375 H378 0.984 . S
N375 H379 0.985 . S
H376 N371 0.984 . S
H377 N371 0.985 . S
H378 N375 0.984 . S
H379 N375 0.985 . S
H380 N374 0.984 . S
H381 N374 0.984 . S
H382 N370 0.984 . S
H383 N370 0.985 . S
C384 C385 1.374 . S
C384 C390 1.379 . S
C384 N392 1.356 . S
C385 C384 1.374 . S
C385 C391 1.352 1_565 S
C386 C387 1.363 1_545 S
C386 C391 1.379 . S
C386 N393 1.356 1_554 S
C387 C386 1.363 1_565 S
C387 C390 1.363 . S
N388 C390 1.356 . S
N388 H400 0.984 . S
N388 H401 0.985 . S
N389 C391 1.356 . S
N389 H394 0.984 . S
N389 H395 0.985 . S
C390 C384 1.379 . S
C390 C387 1.363 . S
C390 N388 1.356 . S
C391 C385 1.352 1_545 S
C391 C386 1.379 . S
C391 N389 1.356 . S
N392 C384 1.356 . S
N392 H398 0.984 . S
N392 H399 0.984 . S
N393 C386 1.356 1_556 S
N393 H396 0.984 . S
N393 H397 0.985 . S
H394 N389 0.984 . S
H395 N389 0.985 . S
H396 N393 0.984 . S
H397 N393 0.985 . S
H398 N392 0.984 . S
H399 N392 0.984 . S
H400 N388 0.984 . S
H401 N388 0.985 . S
C402 C403 1.363 . S
C402 C408 1.379 . S
C402 N410 1.356 . S
C403 C402 1.363 . S
C403 C409 1.363 . S
C404 C405 1.363 . S
C404 C409 1.379 . S
C404 N411 1.356 1_554 S
C405 C404 1.363 . S
C405 C408 1.363 . S
N406 C408 1.356 . S
N406 H418 0.984 . S
N406 H419 0.985 . S
N407 C409 1.356 . S
N407 H412 0.984 . S
N407 H413 0.985 . S
C408 C402 1.379 . S
C408 C405 1.363 . S
C408 N406 1.356 . S
C409 C403 1.363 . S
C409 C404 1.379 . S
C409 N407 1.356 . S
N410 C402 1.356 . S
N410 H416 0.984 . S
N410 H417 0.984 . S
N411 C404 1.356 1_556 S
N411 H414 0.984 . S
N411 H415 0.985 . S
H412 N407 0.984 . S
H413 N407 0.985 . S
H414 N411 0.984 . S
H415 N411 0.985 . S
H416 N410 0.984 . S
H417 N410 0.984 . S
H418 N406 0.984 . S
H419 N406 0.985 . S
C420 C421 1.363 . S
C420 C426 1.379 . S
C420 N428 1.356 . S
C421 C420 1.363 . S
C421 C427 1.363 . S
C422 C423 1.363 . S
C422 C427 1.379 . S
C422 N429 1.356 1_554 S
C423 C422 1.363 . S
C423 C426 1.363 . S
N424 C426 1.356 . S
N424 H436 0.984 . S
N424 H437 0.985 . S
N425 C427 1.356 . S
N425 H430 0.984 . S
N425 H431 0.985 . S
C426 C420 1.379 . S
C426 C423 1.363 . S
C426 N424 1.356 . S
C427 C421 1.363 . S
C427 C422 1.379 . S
C427 N425 1.356 . S
N428 C420 1.356 . S
N428 H434 0.984 . S
N428 H435 0.984 . S
N429 C422 1.356 1_556 S
N429 H432 0.984 . S
N429 H433 0.985 . S
H430 N425 0.984 . S
H431 N425 0.985 . S
H432 N429 0.984 . S
H433 N429 0.985 . S
H434 N428 0.984 . S
H435 N428 0.984 . S
H436 N424 0.984 . S
H437 N424 0.985 . S
C438 C439 1.356 1_455 S
C438 C444 1.379 . S
C438 N446 1.356 . S
C439 C438 1.356 1_655 S
C439 C445 1.371 . S
C440 C441 1.363 . S
C440 C445 1.379 . S
C440 N447 1.356 1_554 S
C441 C440 1.363 . S
C441 C444 1.363 1_655 S
N442 C444 1.356 . S
N442 H454 0.984 . S
N442 H455 0.985 . S
N443 C445 1.356 . S
N443 H448 0.984 . S
N443 H449 0.985 . S
C444 C438 1.379 . S
C444 C441 1.363 1_455 S
C444 N442 1.356 . S
C445 C439 1.371 . S
C445 C440 1.379 . S
C445 N443 1.356 . S
N446 C438 1.356 . S
N446 H452 0.984 . S
N446 H453 0.984 . S
N447 C440 1.356 1_556 S
N447 H450 0.984 . S
N447 H451 0.985 . S
H448 N443 0.984 . S
H449 N443 0.985 . S
H450 N447 0.984 . S
H451 N447 0.985 . S
H452 N446 0.984 . S
H453 N446 0.984 . S
H454 N442 0.984 . S
H455 N442 0.985 . S
C456 C457 1.363 1_455 S
C456 C462 1.379 1_455 S
C456 N464 1.356 . S
C457 C456 1.363 1_655 S
C457 C463 1.363 . S
C458 C459 1.363 . S
C458 C463 1.379 . S
C458 N465 1.356 . S
C459 C458 1.363 . S
C459 C462 1.363 . S
N460 C462 1.356 . S
N460 H472 0.984 . S
N460 H473 0.985 . S
N461 C463 1.356 1_556 S
N461 H466 0.984 . S
N461 H467 0.985 . S
C462 C456 1.379 1_655 S
C462 C459 1.363 . S
C462 N460 1.356 . S
C463 C457 1.363 . S
C463 C458 1.379 . S
C463 N461 1.356 1_554 S
N464 C456 1.356 . S
N464 H470 0.984 . S
N464 H471 0.984 . S
N465 C458 1.356 . S
N465 H468 0.984 . S
N465 H469 0.985 1_554 S
H466 N461 0.984 . S
H467 N461 0.985 . S
H468 N465 0.984 . S
H469 N465 0.985 1_556 S
H470 N464 0.984 . S
H471 N464 0.984 . S
H472 N460 0.984 . S
H473 N460 0.985 . S
C474 C475 1.363 1_545 S
C474 C480 1.379 1_545 S
C474 N482 1.356 . S
C475 C474 1.363 1_565 S
C475 C481 1.363 . S
C476 C477 1.363 . S
C476 C481 1.379 . S
C476 N483 1.356 . S
C477 C476 1.363 . S
C477 C480 1.363 . S
N478 C480 1.356 . S
N478 H490 0.984 1_565 S
N478 H491 0.985 . S
N479 C481 1.356 . S
N479 H484 0.984 . S
N479 H485 0.985 . S
C480 C474 1.379 1_565 S
C480 C477 1.363 . S
C480 N478 1.356 . S
C481 C475 1.363 . S
C481 C476 1.379 . S
C481 N479 1.356 . S
N482 C474 1.356 . S
N482 H488 0.984 . S
N482 H489 0.984 . S
N483 C476 1.356 . S
N483 H486 0.984 . S
N483 H487 0.985 . S
H484 N479 0.984 . S
H485 N479 0.985 . S
H486 N483 0.984 . S
H487 N483 0.985 . S
H488 N482 0.984 . S
H489 N482 0.984 . S
H490 N478 0.984 1_545 S
H491 N478 0.985 . S
C492 C493 1.363 . S
C492 C498 1.379 . S
C492 N500 1.356 . S
C493 C492 1.363 . S
C493 C499 1.363 . S
C494 C495 1.363 . S
C494 C499 1.379 . S
C494 N501 1.356 . S
C495 C494 1.363 . S
C495 C498 1.363 . S
N496 C498 1.356 . S
N496 H508 0.984 . S
N496 H509 0.985 . S
N497 C499 1.356 1_556 S
N497 H502 0.984 . S
N497 H503 0.985 . S
C498 C492 1.379 . S
C498 C495 1.363 . S
C498 N496 1.356 . S
C499 C493 1.363 . S
C499 C494 1.379 . S
C499 N497 1.356 1_554 S
N500 C492 1.356 . S
N500 H506 0.984 . S
N500 H507 0.984 . S
N501 C494 1.356 . S
N501 H504 0.984 . S
N501 H505 0.985 1_554 S
H502 N497 0.984 . S
H503 N497 0.985 . S
H504 N501 0.984 . S
H505 N501 0.985 1_556 S
H506 N500 0.984 . S
H507 N500 0.984 . S
H508 N496 0.984 . S
H509 N496 0.985 . S
C510 C511 1.363 . S
C510 C516 1.379 . S
C510 N518 1.356 . S
C511 C510 1.363 . S
C511 C517 1.363 . S
C512 C513 1.363 . S
C512 C517 1.379 . S
C512 N519 1.356 . S
C513 C512 1.363 . S
C513 C516 1.363 . S
N514 C516 1.356 . S
N514 H526 0.984 . S
N514 H527 0.985 . S
N515 C517 1.356 . S
N515 H520 0.984 . S
N515 H521 0.985 . S
C516 C510 1.379 . S
C516 C513 1.363 . S
C516 N514 1.356 . S
C517 C511 1.363 . S
C517 C512 1.379 . S
C517 N515 1.356 . S
N518 C510 1.356 . S
N518 H524 0.984 . S
N518 H525 0.984 . S
N519 C512 1.356 . S
N519 H522 0.984 . S
N519 H523 0.985 . S
H520 N515 0.984 . S
H521 N515 0.985 . S
H522 N519 0.984 . S
H523 N519 0.985 . S
H524 N518 0.984 . S
H525 N518 0.984 . S
H526 N514 0.984 . S
H527 N514 0.985 . S
C528 C529 1.363 1_655 S
C528 C534 1.379 1_655 S
C528 N536 1.356 . S
C529 C528 1.363 1_455 S
C529 C535 1.363 . S
C530 C531 1.363 . S
C530 C535 1.379 . S
C530 N537 1.356 . S
C531 C530 1.363 . S
C531 C534 1.363 . S
N532 C534 1.356 . S
N532 H544 0.984 . S
N532 H545 0.985 . S
N533 C535 1.356 . S
N533 H538 0.984 . S
N533 H539 0.985 . S
C534 C528 1.379 1_455 S
C534 C531 1.363 . S
C534 N532 1.356 . S
C535 C529 1.363 . S
C535 C530 1.379 . S
C535 N533 1.356 . S
N536 C528 1.356 . S
N536 H542 0.984 . S
N536 H543 0.984 . S
N537 C530 1.356 . S
N537 H540 0.984 . S
N537 H541 0.985 . S
H538 N533 0.984 . S
H539 N533 0.985 . S
H540 N537 0.984 . S
H541 N537 0.985 . S
H542 N536 0.984 . S
H543 N536 0.984 . S
H544 N532 0.984 . S
H545 N532 0.985 . S
C546 C547 1.363 . S
C546 C552 1.379 . S
C546 N554 1.356 1_545 S
C547 C546 1.363 . S
C547 C553 1.363 . S
C548 C549 1.363 . S
C548 C553 1.379 . S
C548 N555 1.356 . S
C549 C548 1.363 . S
C549 C552 1.363 . S
N550 C552 1.356 . S
N550 H562 0.984 . S
N550 H563 0.985 . S
N551 C553 1.356 1_565 S
N551 H556 0.984 . S
N551 H557 0.986 . S
C552 C546 1.379 . S
C552 C549 1.363 . S
C552 N550 1.356 . S
C553 C547 1.363 . S
C553 C548 1.379 . S
C553 N551 1.356 1_545 S
N554 C546 1.356 1_565 S
N554 H560 0.984 1_565 S
N554 H561 0.984 . S
N555 C548 1.356 . S
N555 H558 0.984 . S
N555 H559 0.985 . S
H556 N551 0.984 . S
H557 N551 0.986 . S
H558 N555 0.984 . S
H559 N555 0.985 . S
H560 N554 0.984 1_545 S
H561 N554 0.984 . S
H562 N550 0.984 . S
H563 N550 0.985 . S
C564 C565 1.363 . S
C564 C570 1.379 . S
C564 N572 1.356 . S
C565 C564 1.363 . S
C565 C571 1.363 . S
C566 C567 1.363 . S
C566 C571 1.379 . S
C566 N573 1.356 . S
C567 C566 1.363 . S
C567 C570 1.363 . S
N568 C570 1.356 . S
N568 H580 0.984 . S
N568 H581 0.985 . S
N569 C571 1.356 . S
N569 H574 0.984 . S
N569 H575 0.985 . S
C570 C564 1.379 . S
C570 C567 1.363 . S
C570 N568 1.356 . S
C571 C565 1.363 . S
C571 C566 1.379 . S
C571 N569 1.356 . S
N572 C564 1.356 . S
N572 H578 0.984 . S
N572 H579 0.984 . S
N573 C566 1.356 . S
N573 H576 0.984 . S
N573 H577 0.985 . S
H574 N569 0.984 . S
H575 N569 0.985 . S
H576 N573 0.984 . S
H577 N573 0.985 . S
H578 N572 0.984 . S
H579 N572 0.984 . S
H580 N568 0.984 . S
H581 N568 0.985 . S
C582 C583 1.363 . S
C582 C588 1.379 . S
C582 N590 1.356 . S
C583 C582 1.363 . S
C583 C589 1.363 . S
C584 C585 1.363 . S
C584 C589 1.379 . S
C584 N591 1.356 . S
C585 C584 1.363 . S
C585 C588 1.363 . S
N586 C588 1.356 . S
N586 H598 0.984 . S
N586 H599 0.985 . S
N587 C589 1.356 . S
N587 H592 0.984 . S
N587 H593 0.985 . S
C588 C582 1.379 . S
C588 C585 1.363 . S
C588 N586 1.356 . S
C589 C583 1.363 . S
C589 C584 1.379 . S
C589 N587 1.356 . S
N590 C582 1.356 . S
N590 H596 0.984 . S
N590 H597 0.984 . S
N591 C584 1.356 . S
N591 H594 0.984 . S
N591 H595 0.985 . S
H592 N587 0.984 . S
H593 N587 0.985 . S
H594 N591 0.984 . S
H595 N591 0.985 . S
H596 N590 0.984 . S
H597 N590 0.984 . S
H598 N586 0.984 . S
H599 N586 0.985 . S
C600 C601 1.363 1_655 S
C600 C606 1.379 . S
C600 N608 1.356 . S
C601 C600 1.363 1_455 S
C601 C607 1.363 . S
C602 C603 1.363 . S
C602 C607 1.379 . S
C602 N609 1.352 1_556 S
C603 C602 1.363 . S
C603 C606 1.363 1_455 S
N604 C606 1.356 . S
N604 H616 0.984 . S
N604 H617 0.985 . S
N605 C607 1.356 . S
N605 H610 0.984 . S
N605 H611 0.985 1_556 S
C606 C600 1.379 . S
C606 C603 1.363 1_655 S
C606 N604 1.356 . S
C607 C601 1.363 . S
C607 C602 1.379 . S
C607 N605 1.356 . S
N608 C600 1.356 . S
N608 H614 0.984 . S
N608 H615 0.984 . S
N609 C602 1.352 1_554 S
N609 H612 0.984 1_554 S
N609 H613 0.989 . S
H610 N605 0.984 . S
H611 N605 0.985 1_554 S
H612 N609 0.984 1_556 S
H613 N609 0.989 . S
H614 N608 0.984 . S
H615 N608 0.984 . S
H616 N604 0.984 . S
H617 N604 0.985 . S
C618 C619 1.363 . S
C618 C624 1.379 . S
C618 N626 1.357 1_556 S
C619 C618 1.363 . S
C619 C625 1.363 . S
C620 C621 1.363 . S
C620 C625 1.379 . S
C620 N627 1.356 . S
C621 C620 1.363 . S
C621 C624 1.363 . S
N622 C624 1.356 1_554 S
N622 H634 0.984 . S
N622 H635 0.985 . S
N623 C625 1.356 . S
N623 H628 0.984 . S
N623 H629 0.985 . S
C624 C618 1.379 . S
C624 C621 1.363 . S
C624 N622 1.356 1_556 S
C625 C619 1.363 . S
C625 C620 1.379 . S
C625 N623 1.356 . S
N626 C618 1.357 1_554 S
N626 H632 0.984 1_545 S
N626 H633 0.984 1_544 S
N627 C620 1.356 . S
N627 H630 0.984 . S
N627 H631 0.985 . S
H628 N623 0.984 . S
H629 N623 0.985 . S
H630 N627 0.984 . S
H631 N627 0.985 . S
H632 N626 0.984 1_565 S
H633 N626 0.984 1_566 S
H634 N622 0.984 . S
H635 N622 0.985 . S
C636 C637 1.363 . S
C636 C642 1.379 . S
C636 N644 1.356 . S
C637 C636 1.363 . S
C637 C643 1.363 . S
C638 C639 1.363 . S
C638 C643 1.379 . S
C638 N645 1.356 . S
C639 C638 1.363 . S
C639 C642 1.363 . S
N640 C642 1.356 . S
N640 H652 0.984 1_556 S
N640 H653 0.985 . S
N641 C643 1.356 . S
N641 H646 0.984 . S
N641 H647 0.985 . S
C642 C636 1.379 . S
C642 C639 1.363 . S
C642 N640 1.356 . S
C643 C637 1.363 . S
C643 C638 1.379 . S
C643 N641 1.356 . S
N644 C636 1.356 . S
N644 H650 0.984 1_556 S
N644 H651 0.984 . S
N645 C638 1.356 . S
N645 H648 0.984 . S
N645 H649 0.985 . S
H646 N641 0.984 . S
H647 N641 0.985 . S
H648 N645 0.984 . S
H649 N645 0.985 . S
H650 N644 0.984 1_554 S
H651 N644 0.984 . S
H652 N640 0.984 1_554 S
H653 N640 0.985 . S
C654 C655 1.363 . S
C654 C660 1.379 . S
C654 N662 1.356 . S
C655 C654 1.363 . S
C655 C661 1.363 . S
C656 C657 1.363 . S
C656 C661 1.379 . S
C656 N663 1.356 . S
C657 C656 1.363 . S
C657 C660 1.363 . S
N658 C660 1.356 . S
N658 H670 0.984 . S
N658 H671 0.985 . S
N659 C661 1.356 . S
N659 H664 0.984 . S
N659 H665 0.985 . S
C660 C654 1.379 . S
C660 C657 1.363 . S
C660 N658 1.356 . S
C661 C655 1.363 . S
C661 C656 1.379 . S
C661 N659 1.356 . S
N662 C654 1.356 . S
N662 H668 0.984 . S
N662 H669 0.984 . S
N663 C656 1.356 . S
N663 H666 0.984 . S
N663 H667 0.985 . S
H664 N659 0.984 . S
H665 N659 0.985 . S
H666 N663 0.984 . S
H667 N663 0.985 . S
H668 N662 0.984 . S
H669 N662 0.984 . S
H670 N658 0.984 . S
H671 N658 0.985 . S
C672 C673 1.363 . S
C672 C678 1.379 . S
C672 N680 1.356 . S
C673 C672 1.363 . S
C673 C679 1.363 1_655 S
C674 C675 1.363 1_455 S
C674 C679 1.379 . S
C674 N681 1.356 . S
C675 C674 1.363 1_655 S
C675 C678 1.363 . S
N676 C678 1.356 . S
N676 H688 0.984 . S
N676 H689 0.985 . S
N677 C679 1.356 . S
N677 H682 0.984 . S
N677 H683 0.985 . S
C678 C672 1.379 . S
C678 C675 1.363 . S
C678 N676 1.356 . S
C679 C673 1.363 1_455 S
C679 C674 1.379 . S
C679 N677 1.356 . S
N680 C672 1.356 . S
N680 H686 0.984 1_556 S
N680 H687 0.984 . S
N681 C674 1.356 . S
N681 H684 0.984 . S
N681 H685 0.985 . S
H682 N677 0.984 . S
H683 N677 0.985 . S
H684 N681 0.984 . S
H685 N681 0.985 . S
H686 N680 0.984 1_554 S
H687 N680 0.984 . S
H688 N676 0.984 . S
H689 N676 0.985 . S
C690 C691 1.363 1_545 S
C690 C696 1.379 . S
C690 N698 1.356 . S
C691 C690 1.363 1_565 S
C691 C697 1.363 . S
C692 C693 1.363 . S
C692 C697 1.379 . S
C692 N699 1.356 . S
C693 C692 1.363 . S
C693 C696 1.363 1_565 S
N694 C696 1.356 . S
N694 H706 0.984 . S
N694 H707 0.985 . S
N695 C697 1.356 . S
N695 H700 0.984 . S
N695 H701 0.985 . S
C696 C690 1.379 . S
C696 C693 1.363 1_545 S
C696 N694 1.356 . S
C697 C691 1.363 . S
C697 C692 1.379 . S
C697 N695 1.356 . S
N698 C690 1.356 . S
N698 H704 0.984 . S
N698 H705 0.984 . S
N699 C692 1.356 . S
N699 H702 0.984 . S
N699 H703 0.985 . S
H700 N695 0.984 . S
H701 N695 0.985 . S
H702 N699 0.984 . S
H703 N699 0.985 . S
H704 N698 0.984 . S
H705 N698 0.984 . S
H706 N694 0.984 . S
H707 N694 0.985 . S
C708 C709 1.363 . S
C708 C714 1.379 . S
C708 N716 1.356 . S
C709 C708 1.363 . S
C709 C715 1.363 . S
C710 C711 1.363 . S
C710 C715 1.379 . S
C710 N717 1.356 . S
C711 C710 1.363 . S
C711 C714 1.363 . S
N712 C714 1.356 . S
N712 H724 0.984 . S
N712 H725 0.985 . S
N713 C715 1.356 . S
N713 H718 0.984 . S
N713 H719 0.985 . S
C714 C708 1.379 . S
C714 C711 1.363 . S
C714 N712 1.356 . S
C715 C709 1.363 . S
C715 C710 1.379 . S
C715 N713 1.356 . S
N716 C708 1.356 . S
N716 H722 0.984 . S
N716 H723 0.984 . S
N717 C710 1.356 . S
N717 H720 0.984 . S
N717 H721 0.985 . S
H718 N713 0.984 . S
H719 N713 0.985 . S
H720 N717 0.984 . S
H721 N717 0.985 . S
H722 N716 0.984 . S
H723 N716 0.984 . S
H724 N712 0.984 . S
H725 N712 0.985 . S
C726 C727 1.363 . S
C726 C732 1.379 . S
C726 N734 1.356 . S
C727 C726 1.363 . S
C727 C733 1.363 . S
C728 C729 1.363 . S
C728 C733 1.379 . S
C728 N735 1.356 . S
C729 C728 1.363 . S
C729 C732 1.363 . S
N730 C732 1.356 . S
N730 H742 0.984 . S
N730 H743 0.985 . S
N731 C733 1.356 . S
N731 H736 0.984 . S
N731 H737 0.985 . S
C732 C726 1.379 . S
C732 C729 1.363 . S
C732 N730 1.356 . S
C733 C727 1.363 . S
C733 C728 1.379 . S
C733 N731 1.356 . S
N734 C726 1.356 . S
N734 H740 0.984 . S
N734 H741 0.984 . S
N735 C728 1.356 . S
N735 H738 0.984 . S
N735 H739 0.985 . S
H736 N731 0.984 . S
H737 N731 0.985 . S
H738 N735 0.984 . S
H739 N735 0.985 . S
H740 N734 0.984 . S
H741 N734 0.984 . S
H742 N730 0.984 . S
H743 N730 0.985 . S
C313 C125 2.116 1_545 S
C315 C162 2.164 1_545 S
C333 C202 2.170 . S
C331 C144 2.127 . S
C351 C242 2.171 . S
C349 C87 2.131 . S
C369 C282 2.167 1_455 S
C367 C106 2.118 1_455 S
C387 C171 2.166 1_564 S
C385 C49 2.119 . S
C403 C68 2.112 . S
C405 C211 2.170 1_554 S
C421 C11 2.115 . S
C423 C251 2.170 1_554 S
C439 C30 2.119 . S
C441 C291 2.169 1_654 S
C459 C168 0.813 . S
C457 C97 0.809 . S
C477 C208 0.814 . S
C475 C116 0.812 . S
C495 C248 0.813 . S
C493 C135 0.811 . S
C511 C78 0.811 . S
C513 C288 0.808 . S
C529 C21 0.812 1_455 S
C531 C159 0.816 . S
C549 C199 0.814 . S
C547 C40 0.813 1_545 S
C567 C239 0.813 . S
C565 C59 0.812 . S
C583 C2 0.811 . S
C585 C279 0.815 . S
C601 C101 2.219 1_455 S
C603 C163 2.530 . S
C619 C120 2.213 1_545 S
C621 C203 2.528 . S
C639 C243 2.526 . S
C637 C139 2.212 . S
C657 C283 2.532 . S
C655 C82 2.214 . S
C673 C25 2.220 . S
C675 C154 2.539 . S
C693 C194 2.528 . S
C691 C44 2.211 . S
C711 C234 2.525 . S
C709 C63 2.207 . S
C727 C6 2.215 . S
C729 C274 2.536 . S
