# Generated by pormake.
# Topology tbo, (3,4)-cn, num edge types: 1
# Building blocks:
#     Node 0, Type 0, BuildingBlock: OLANEW_clean_sbu_2, # of connection points: 3
#     Node 1, Type 0, BuildingBlock: OLANEW_clean_sbu_2, # of connection points: 3
#     Node 2, Type 0, BuildingBlock: OLANEW_clean_sbu_2, # of connection points: 3
#     Node 3, Type 0, BuildingBlock: OLANEW_clean_sbu_2, # of connection points: 3
#     Node 4, Type 0, BuildingBlock: OLANEW_clean_sbu_2, # of connection points: 3
#     Node 5, Type 0, BuildingBlock: OLANEW_clean_sbu_2, # of connection points: 3
#     Node 6, Type 0, BuildingBlock: OLANEW_clean_sbu_2, # of connection points: 3
#     Node 7, Type 0, BuildingBlock: OLANEW_clean_sbu_2, # of connection points: 3
#     Node 8, Type 0, BuildingBlock: OLANEW_clean_sbu_2, # of connection points: 3
#     Node 9, Type 0, BuildingBlock: OLANEW_clean_sbu_2, # of connection points: 3
#     Node 10, Type 0, BuildingBlock: OLANEW_clean_sbu_2, # of connection points: 3
#     Node 11, Type 0, BuildingBlock: OLANEW_clean_sbu_2, # of connection points: 3
#     Node 12, Type 0, BuildingBlock: OLANEW_clean_sbu_2, # of connection points: 3
#     Node 13, Type 0, BuildingBlock: OLANEW_clean_sbu_2, # of connection points: 3
#     Node 14, Type 0, BuildingBlock: OLANEW_clean_sbu_2, # of connection points: 3
#     Node 15, Type 0, BuildingBlock: OLANEW_clean_sbu_2, # of connection points: 3
#     Node 16, Type 0, BuildingBlock: OLANEW_clean_sbu_2, # of connection points: 3
#     Node 17, Type 0, BuildingBlock: OLANEW_clean_sbu_2, # of connection points: 3
#     Node 18, Type 0, BuildingBlock: OLANEW_clean_sbu_2, # of connection points: 3
#     Node 19, Type 0, BuildingBlock: OLANEW_clean_sbu_2, # of connection points: 3
#     Node 20, Type 0, BuildingBlock: OLANEW_clean_sbu_2, # of connection points: 3
#     Node 21, Type 0, BuildingBlock: OLANEW_clean_sbu_2, # of connection points: 3
#     Node 22, Type 0, BuildingBlock: OLANEW_clean_sbu_2, # of connection points: 3
#     Node 23, Type 0, BuildingBlock: OLANEW_clean_sbu_2, # of connection points: 3
#     Node 24, Type 0, BuildingBlock: OLANEW_clean_sbu_2, # of connection points: 3
#     Node 25, Type 0, BuildingBlock: OLANEW_clean_sbu_2, # of connection points: 3
#     Node 26, Type 0, BuildingBlock: OLANEW_clean_sbu_2, # of connection points: 3
#     Node 27, Type 0, BuildingBlock: OLANEW_clean_sbu_2, # of connection points: 3
#     Node 28, Type 0, BuildingBlock: OLANEW_clean_sbu_2, # of connection points: 3
#     Node 29, Type 0, BuildingBlock: OLANEW_clean_sbu_2, # of connection points: 3
#     Node 30, Type 0, BuildingBlock: OLANEW_clean_sbu_2, # of connection points: 3
#     Node 31, Type 0, BuildingBlock: OLANEW_clean_sbu_2, # of connection points: 3
#     Node 32, Type 1, BuildingBlock: GIZVER_clean_linker_0, # of connection points: 4
#     Node 33, Type 1, BuildingBlock: GIZVER_clean_linker_0, # of connection points: 4
#     Node 34, Type 1, BuildingBlock: GIZVER_clean_linker_0, # of connection points: 4
#     Node 35, Type 1, BuildingBlock: GIZVER_clean_linker_0, # of connection points: 4
#     Node 36, Type 1, BuildingBlock: GIZVER_clean_linker_0, # of connection points: 4
#     Node 37, Type 1, BuildingBlock: GIZVER_clean_linker_0, # of connection points: 4
#     Node 38, Type 1, BuildingBlock: GIZVER_clean_linker_0, # of connection points: 4
#     Node 39, Type 1, BuildingBlock: GIZVER_clean_linker_0, # of connection points: 4
#     Node 40, Type 1, BuildingBlock: GIZVER_clean_linker_0, # of connection points: 4
#     Node 41, Type 1, BuildingBlock: GIZVER_clean_linker_0, # of connection points: 4
#     Node 42, Type 1, BuildingBlock: GIZVER_clean_linker_0, # of connection points: 4
#     Node 43, Type 1, BuildingBlock: GIZVER_clean_linker_0, # of connection points: 4
#     Node 44, Type 1, BuildingBlock: GIZVER_clean_linker_0, # of connection points: 4
#     Node 45, Type 1, BuildingBlock: GIZVER_clean_linker_0, # of connection points: 4
#     Node 46, Type 1, BuildingBlock: GIZVER_clean_linker_0, # of connection points: 4
#     Node 47, Type 1, BuildingBlock: GIZVER_clean_linker_0, # of connection points: 4
#     Node 48, Type 1, BuildingBlock: GIZVER_clean_linker_0, # of connection points: 4
#     Node 49, Type 1, BuildingBlock: GIZVER_clean_linker_0, # of connection points: 4
#     Node 50, Type 1, BuildingBlock: GIZVER_clean_linker_0, # of connection points: 4
#     Node 51, Type 1, BuildingBlock: GIZVER_clean_linker_0, # of connection points: 4
#     Node 52, Type 1, BuildingBlock: GIZVER_clean_linker_0, # of connection points: 4
#     Node 53, Type 1, BuildingBlock: GIZVER_clean_linker_0, # of connection points: 4
#     Node 54, Type 1, BuildingBlock: GIZVER_clean_linker_0, # of connection points: 4
#     Node 55, Type 1, BuildingBlock: GIZVER_clean_linker_0, # of connection points: 4
#     Edge 56, Type (0, 1), BuildingBlock: XIVTED_clean_linker_0, # of connection points: 2
#     Edge 57, Type (0, 1), BuildingBlock: XIVTED_clean_linker_0, # of connection points: 2
#     Edge 58, Type (0, 1), BuildingBlock: XIVTED_clean_linker_0, # of connection points: 2
#     Edge 59, Type (0, 1), BuildingBlock: XIVTED_clean_linker_0, # of connection points: 2
#     Edge 60, Type (0, 1), BuildingBlock: XIVTED_clean_linker_0, # of connection points: 2
#     Edge 61, Type (0, 1), BuildingBlock: XIVTED_clean_linker_0, # of connection points: 2
#     Edge 62, Type (0, 1), BuildingBlock: XIVTED_clean_linker_0, # of connection points: 2
#     Edge 63, Type (0, 1), BuildingBlock: XIVTED_clean_linker_0, # of connection points: 2
#     Edge 64, Type (0, 1), BuildingBlock: XIVTED_clean_linker_0, # of connection points: 2
#     Edge 65, Type (0, 1), BuildingBlock: XIVTED_clean_linker_0, # of connection points: 2
#     Edge 66, Type (0, 1), BuildingBlock: XIVTED_clean_linker_0, # of connection points: 2
#     Edge 67, Type (0, 1), BuildingBlock: XIVTED_clean_linker_0, # of connection points: 2
#     Edge 68, Type (0, 1), BuildingBlock: XIVTED_clean_linker_0, # of connection points: 2
#     Edge 69, Type (0, 1), BuildingBlock: XIVTED_clean_linker_0, # of connection points: 2
#     Edge 70, Type (0, 1), BuildingBlock: XIVTED_clean_linker_0, # of connection points: 2
#     Edge 71, Type (0, 1), BuildingBlock: XIVTED_clean_linker_0, # of connection points: 2
#     Edge 72, Type (0, 1), BuildingBlock: XIVTED_clean_linker_0, # of connection points: 2
#     Edge 73, Type (0, 1), BuildingBlock: XIVTED_clean_linker_0, # of connection points: 2
#     Edge 74, Type (0, 1), BuildingBlock: XIVTED_clean_linker_0, # of connection points: 2
#     Edge 75, Type (0, 1), BuildingBlock: XIVTED_clean_linker_0, # of connection points: 2
#     Edge 76, Type (0, 1), BuildingBlock: XIVTED_clean_linker_0, # of connection points: 2
#     Edge 77, Type (0, 1), BuildingBlock: XIVTED_clean_linker_0, # of connection points: 2
#     Edge 78, Type (0, 1), BuildingBlock: XIVTED_clean_linker_0, # of connection points: 2
#     Edge 79, Type (0, 1), BuildingBlock: XIVTED_clean_linker_0, # of connection points: 2
#     Edge 80, Type (0, 1), BuildingBlock: XIVTED_clean_linker_0, # of connection points: 2
#     Edge 81, Type (0, 1), BuildingBlock: XIVTED_clean_linker_0, # of connection points: 2
#     Edge 82, Type (0, 1), BuildingBlock: XIVTED_clean_linker_0, # of connection points: 2
#     Edge 83, Type (0, 1), BuildingBlock: XIVTED_clean_linker_0, # of connection points: 2
#     Edge 84, Type (0, 1), BuildingBlock: XIVTED_clean_linker_0, # of connection points: 2
#     Edge 85, Type (0, 1), BuildingBlock: XIVTED_clean_linker_0, # of connection points: 2
#     Edge 86, Type (0, 1), BuildingBlock: XIVTED_clean_linker_0, # of connection points: 2
#     Edge 87, Type (0, 1), BuildingBlock: XIVTED_clean_linker_0, # of connection points: 2
#     Edge 88, Type (0, 1), BuildingBlock: XIVTED_clean_linker_0, # of connection points: 2
#     Edge 89, Type (0, 1), BuildingBlock: XIVTED_clean_linker_0, # of connection points: 2
#     Edge 90, Type (0, 1), BuildingBlock: XIVTED_clean_linker_0, # of connection points: 2
#     Edge 91, Type (0, 1), BuildingBlock: XIVTED_clean_linker_0, # of connection points: 2
#     Edge 92, Type (0, 1), BuildingBlock: XIVTED_clean_linker_0, # of connection points: 2
#     Edge 93, Type (0, 1), BuildingBlock: XIVTED_clean_linker_0, # of connection points: 2
#     Edge 94, Type (0, 1), BuildingBlock: XIVTED_clean_linker_0, # of connection points: 2
#     Edge 95, Type (0, 1), BuildingBlock: XIVTED_clean_linker_0, # of connection points: 2
#     Edge 96, Type (0, 1), BuildingBlock: XIVTED_clean_linker_0, # of connection points: 2
#     Edge 97, Type (0, 1), BuildingBlock: XIVTED_clean_linker_0, # of connection points: 2
#     Edge 98, Type (0, 1), BuildingBlock: XIVTED_clean_linker_0, # of connection points: 2
#     Edge 99, Type (0, 1), BuildingBlock: XIVTED_clean_linker_0, # of connection points: 2
#     Edge 100, Type (0, 1), BuildingBlock: XIVTED_clean_linker_0, # of connection points: 2
#     Edge 101, Type (0, 1), BuildingBlock: XIVTED_clean_linker_0, # of connection points: 2
#     Edge 102, Type (0, 1), BuildingBlock: XIVTED_clean_linker_0, # of connection points: 2
#     Edge 103, Type (0, 1), BuildingBlock: XIVTED_clean_linker_0, # of connection points: 2
#     Edge 104, Type (0, 1), BuildingBlock: XIVTED_clean_linker_0, # of connection points: 2
#     Edge 105, Type (0, 1), BuildingBlock: XIVTED_clean_linker_0, # of connection points: 2
#     Edge 106, Type (0, 1), BuildingBlock: XIVTED_clean_linker_0, # of connection points: 2
#     Edge 107, Type (0, 1), BuildingBlock: XIVTED_clean_linker_0, # of connection points: 2
#     Edge 108, Type (0, 1), BuildingBlock: XIVTED_clean_linker_0, # of connection points: 2
#     Edge 109, Type (0, 1), BuildingBlock: XIVTED_clean_linker_0, # of connection points: 2
#     Edge 110, Type (0, 1), BuildingBlock: XIVTED_clean_linker_0, # of connection points: 2
#     Edge 111, Type (0, 1), BuildingBlock: XIVTED_clean_linker_0, # of connection points: 2
#     Edge 112, Type (0, 1), BuildingBlock: XIVTED_clean_linker_0, # of connection points: 2
#     Edge 113, Type (0, 1), BuildingBlock: XIVTED_clean_linker_0, # of connection points: 2
#     Edge 114, Type (0, 1), BuildingBlock: XIVTED_clean_linker_0, # of connection points: 2
#     Edge 115, Type (0, 1), BuildingBlock: XIVTED_clean_linker_0, # of connection points: 2
#     Edge 116, Type (0, 1), BuildingBlock: XIVTED_clean_linker_0, # of connection points: 2
#     Edge 117, Type (0, 1), BuildingBlock: XIVTED_clean_linker_0, # of connection points: 2
#     Edge 118, Type (0, 1), BuildingBlock: XIVTED_clean_linker_0, # of connection points: 2
#     Edge 119, Type (0, 1), BuildingBlock: XIVTED_clean_linker_0, # of connection points: 2
#     Edge 120, Type (0, 1), BuildingBlock: XIVTED_clean_linker_0, # of connection points: 2
#     Edge 121, Type (0, 1), BuildingBlock: XIVTED_clean_linker_0, # of connection points: 2
#     Edge 122, Type (0, 1), BuildingBlock: XIVTED_clean_linker_0, # of connection points: 2
#     Edge 123, Type (0, 1), BuildingBlock: XIVTED_clean_linker_0, # of connection points: 2
#     Edge 124, Type (0, 1), BuildingBlock: XIVTED_clean_linker_0, # of connection points: 2
#     Edge 125, Type (0, 1), BuildingBlock: XIVTED_clean_linker_0, # of connection points: 2
#     Edge 126, Type (0, 1), BuildingBlock: XIVTED_clean_linker_0, # of connection points: 2
#     Edge 127, Type (0, 1), BuildingBlock: XIVTED_clean_linker_0, # of connection points: 2
#     Edge 128, Type (0, 1), BuildingBlock: XIVTED_clean_linker_0, # of connection points: 2
#     Edge 129, Type (0, 1), BuildingBlock: XIVTED_clean_linker_0, # of connection points: 2
#     Edge 130, Type (0, 1), BuildingBlock: XIVTED_clean_linker_0, # of connection points: 2
#     Edge 131, Type (0, 1), BuildingBlock: XIVTED_clean_linker_0, # of connection points: 2
#     Edge 132, Type (0, 1), BuildingBlock: XIVTED_clean_linker_0, # of connection points: 2
#     Edge 133, Type (0, 1), BuildingBlock: XIVTED_clean_linker_0, # of connection points: 2
#     Edge 134, Type (0, 1), BuildingBlock: XIVTED_clean_linker_0, # of connection points: 2
#     Edge 135, Type (0, 1), BuildingBlock: XIVTED_clean_linker_0, # of connection points: 2
#     Edge 136, Type (0, 1), BuildingBlock: XIVTED_clean_linker_0, # of connection points: 2
#     Edge 137, Type (0, 1), BuildingBlock: XIVTED_clean_linker_0, # of connection points: 2
#     Edge 138, Type (0, 1), BuildingBlock: XIVTED_clean_linker_0, # of connection points: 2
#     Edge 139, Type (0, 1), BuildingBlock: XIVTED_clean_linker_0, # of connection points: 2
#     Edge 140, Type (0, 1), BuildingBlock: XIVTED_clean_linker_0, # of connection points: 2
#     Edge 141, Type (0, 1), BuildingBlock: XIVTED_clean_linker_0, # of connection points: 2
#     Edge 142, Type (0, 1), BuildingBlock: XIVTED_clean_linker_0, # of connection points: 2
#     Edge 143, Type (0, 1), BuildingBlock: XIVTED_clean_linker_0, # of connection points: 2
#     Edge 144, Type (0, 1), BuildingBlock: XIVTED_clean_linker_0, # of connection points: 2
#     Edge 145, Type (0, 1), BuildingBlock: XIVTED_clean_linker_0, # of connection points: 2
#     Edge 146, Type (0, 1), BuildingBlock: XIVTED_clean_linker_0, # of connection points: 2
#     Edge 147, Type (0, 1), BuildingBlock: XIVTED_clean_linker_0, # of connection points: 2
#     Edge 148, Type (0, 1), BuildingBlock: XIVTED_clean_linker_0, # of connection points: 2
#     Edge 149, Type (0, 1), BuildingBlock: XIVTED_clean_linker_0, # of connection points: 2
#     Edge 150, Type (0, 1), BuildingBlock: XIVTED_clean_linker_0, # of connection points: 2
#     Edge 151, Type (0, 1), BuildingBlock: XIVTED_clean_linker_0, # of connection points: 2
# Relax obj value: 0.018
# Max RMSD: 0.132
# Mean RMSD: 0.095
data_MOF--net-tbo--node1-OLANEW_clean_sbu_2--node2-GIZVER_clean_linker_0--edge1-XIVTED_clean_linker_0
_symmetry_space_group_name_H-M    P1
_symmetry_Int_Tables_number       1
_symmetry_cell_setting            triclinic
loop_
_symmetry_equiv_pos_as_xyz
'x, y, z'
_cell_length_a     78.055732
_cell_length_b     80.008318
_cell_length_c     77.006009
_cell_angle_alpha  97.666572
_cell_angle_beta   87.284304
_cell_angle_gamma 98.633294
loop_
_atom_site_label
_atom_site_type_symbol
_atom_site_fract_x
_atom_site_fract_y
_atom_site_fract_z
_atom_type_partial_charge
O0 O 0.20196 0.15495 0.15705 0.0
Cd1 Cd 0.1841 0.13587 0.17566 0.0
O2 O 0.18085 0.1697 0.15368 0.0
Cd3 Cd 0.16055 0.16031 0.17211 0.0
O4 O 0.13701 0.16756 0.1861 0.0
C5 C 0.1314 0.18003 0.18069 0.0
O6 O 0.13967 0.18683 0.16749 0.0
C7 C 0.1962 0.16648 0.15006 0.0
C8 C 0.20171 0.11594 0.19416 0.0
O9 O 0.19882 0.11175 0.1778 0.0
O10 O 0.19671 0.12972 0.20171 0.0
O11 O 0.86792 0.18126 0.15256 0.0
Cd12 Cd 0.84042 0.16626 0.14042 0.0
O13 O 0.87352 0.15928 0.16469 0.0
Cd14 Cd 0.84981 0.14141 0.15903 0.0
O15 O 0.83389 0.12076 0.17099 0.0
C16 C 0.84236 0.11198 0.17911 0.0
O17 O 0.85937 0.11533 0.17874 0.0
C18 C 0.8778 0.17454 0.16141 0.0
C19 C 0.82783 0.18173 0.114 0.0
O20 O 0.82565 0.1872 0.13025 0.0
O21 O 0.83615 0.16903 0.11012 0.0
O22 O 0.88737 0.83157 0.15635 0.0
Cd23 Cd 0.90534 0.84688 0.18031 0.0
O24 O 0.874 0.85332 0.15311 0.0
Cd25 Cd 0.88405 0.87143 0.17539 0.0
O26 O 0.87537 0.89194 0.19393 0.0
C27 C 0.86096 0.89587 0.19002 0.0
O28 O 0.85341 0.8878 0.17576 0.0
C29 C 0.87659 0.83803 0.14836 0.0
C30 C 0.9264 0.82583 0.19259 0.0
O31 O 0.91086 0.82637 0.19857 0.0
O32 O 0.93209 0.83531 0.18079 0.0
O33 O 0.20066 0.89747 0.14455 0.0
Cd34 Cd 0.181 0.87282 0.13139 0.0
O35 O 0.2127 0.88116 0.15984 0.0
Cd36 Cd 0.19205 0.85952 0.15614 0.0
O37 O 0.17076 0.84152 0.1652 0.0
C38 C 0.16588 0.84494 0.1811 0.0
O39 O 0.17365 0.85872 0.19041 0.0
C40 C 0.21237 0.8956 0.15477 0.0
C41 C 0.19778 0.85219 0.10604 0.0
O42 O 0.19902 0.85138 0.1224 0.0
O43 O 0.18863 0.86282 0.10149 0.0
O44 O 0.19126 0.87108 0.85715 0.0
Cd45 Cd 0.1722 0.84733 0.86844 0.0
O46 O 0.17564 0.89071 0.86879 0.0
Cd47 Cd 0.15398 0.87123 0.8741 0.0
O48 O 0.13217 0.85315 0.86308 0.0
C49 C 0.1294 0.85419 0.84715 0.0
O50 O 0.13941 0.86572 0.83918 0.0
C51 C 0.18912 0.88668 0.8603 0.0
C52 C 0.18908 0.8262 0.886 0.0
O53 O 0.18708 0.82323 0.86939 0.0
O54 O 0.18337 0.83933 0.89429 0.0
O55 O 0.18232 0.17038 0.89813 0.0
Cd56 Cd 0.16412 0.1558 0.87411 0.0
O57 O 0.16196 0.18142 0.91466 0.0
Cd58 Cd 0.14301 0.17651 0.89379 0.0
O59 O 0.12593 0.18545 0.87627 0.0
C60 C 0.11634 0.19616 0.88331 0.0
O61 O 0.11669 0.20047 0.90038 0.0
C62 C 0.17756 0.17858 0.9124 0.0
C63 C 0.1822 0.13182 0.8543 0.0
O64 O 0.1836 0.14719 0.85079 0.0
O65 O 0.17191 0.12762 0.86698 0.0
O66 O 0.8289 0.19034 0.83432 0.0
Cd67 Cd 0.83704 0.17134 0.80874 0.0
O68 O 0.84162 0.17347 0.84771 0.0
Cd69 Cd 0.85035 0.16058 0.86819 0.0
O70 O 0.85017 0.13316 0.86318 0.0
C71 C 0.85801 0.1281 0.84906 0.0
O72 O 0.86732 0.13955 0.84042 0.0
C73 C 0.83324 0.18601 0.84857 0.0
C74 C 0.87187 0.18035 0.8005 0.0
O75 O 0.86008 0.18528 0.79221 0.0
O76 O 0.86719 0.17079 0.81248 0.0
O77 O 0.88418 0.84792 0.83314 0.0
Cd78 Cd 0.85835 0.85892 0.84702 0.0
O79 O 0.88934 0.83551 0.85589 0.0
Cd80 Cd 0.86772 0.84155 0.87358 0.0
O81 O 0.8511 0.83399 0.89583 0.0
C82 C 0.85335 0.81987 0.90061 0.0
O83 O 0.86496 0.81138 0.89204 0.0
C84 C 0.89329 0.83904 0.84043 0.0
C85 C 0.84568 0.8832 0.82985 0.0
O86 O 0.85511 0.88781 0.84332 0.0
O87 O 0.84249 0.86725 0.82433 0.0
O88 O 0.19624 0.63983 0.64889 0.0
Cd89 Cd 0.17847 0.6232 0.66953 0.0
O90 O 0.19059 0.66508 0.66123 0.0
Cd91 Cd 0.16827 0.65769 0.6784 0.0
O92 O 0.1446 0.66578 0.69141 0.0
C93 C 0.14001 0.67887 0.68624 0.0
O94 O 0.14932 0.68593 0.67375 0.0
C95 C 0.19893 0.65601 0.64999 0.0
C96 C 0.19827 0.60301 0.68522 0.0
O97 O 0.19001 0.59706 0.67121 0.0
O98 O 0.1971 0.6184 0.69181 0.0
O99 O 0.87557 0.68747 0.64977 0.0
Cd100 Cd 0.84954 0.6735 0.63415 0.0
O101 O 0.87943 0.6647 0.66158 0.0
Cd102 Cd 0.856 0.64725 0.65365 0.0
O103 O 0.83955 0.62596 0.66409 0.0
C104 C 0.84768 0.61628 0.67141 0.0
O105 O 0.86471 0.61914 0.67106 0.0
C106 C 0.88436 0.68013 0.65916 0.0
C107 C 0.8367 0.69484 0.61342 0.0
O108 O 0.83203 0.69471 0.62959 0.0
O109 O 0.84751 0.68492 0.607 0.0
O110 O 0.89058 0.3458 0.65968 0.0
Cd111 Cd 0.90064 0.36576 0.68539 0.0
O112 O 0.87679 0.36311 0.64748 0.0
Cd113 Cd 0.8812 0.38433 0.66855 0.0
O114 O 0.87154 0.40419 0.6871 0.0
C115 C 0.85554 0.40514 0.68586 0.0
O116 O 0.84661 0.39455 0.6739 0.0
C117 C 0.88158 0.34859 0.6473 0.0
C118 C 0.92193 0.35094 0.70528 0.0
O119 O 0.90539 0.34726 0.70613 0.0
O120 O 0.92858 0.36184 0.69518 0.0
O121 O 0.17473 0.37886 0.6555 0.0
Cd122 Cd 0.15406 0.35722 0.63887 0.0
O123 O 0.17614 0.36202 0.67562 0.0
Cd124 Cd 0.1559 0.34145 0.66632 0.0
O125 O 0.13549 0.32486 0.67844 0.0
C126 C 0.12559 0.33291 0.68891 0.0
O127 O 0.12761 0.34962 0.69 0.0
C128 C 0.18104 0.37603 0.66957 0.0
C129 C 0.17164 0.33429 0.6171 0.0
O130 O 0.16739 0.33194 0.63295 0.0
O131 O 0.16734 0.34737 0.6114 0.0
O132 O 0.19458 0.38575 0.37104 0.0
Cd133 Cd 0.17485 0.36297 0.38299 0.0
O134 O 0.17509 0.39559 0.35691 0.0
Cd135 Cd 0.15345 0.37567 0.36127 0.0
O136 O 0.13102 0.35747 0.35165 0.0
C137 C 0.12654 0.35868 0.33625 0.0
O138 O 0.13532 0.37055 0.32774 0.0
C139 C 0.19063 0.39647 0.36165 0.0
C140 C 0.19301 0.34488 0.40284 0.0
O141 O 0.19164 0.34088 0.38623 0.0
O142 O 0.18563 0.35737 0.4102 0.0
O143 O 0.18872 0.66352 0.39676 0.0
Cd144 Cd 0.17743 0.65341 0.36755 0.0
O145 O 0.17653 0.68691 0.40077 0.0
Cd146 Cd 0.16209 0.68224 0.37647 0.0
O147 O 0.14656 0.68775 0.35548 0.0
C148 C 0.14374 0.70308 0.35621 0.0
O149 O 0.15021 0.71428 0.36917 0.0
C150 C 0.18628 0.67737 0.4061 0.0
C151 C 0.19663 0.62885 0.35069 0.0
O152 O 0.2022 0.6448 0.35119 0.0
O153 O 0.18182 0.62441 0.35792 0.0
O154 O 0.89885 0.69272 0.40959 0.0
Cd155 Cd 0.91788 0.67387 0.39377 0.0
O156 O 0.87818 0.67182 0.40205 0.0
Cd157 Cd 0.85263 0.65637 0.39922 0.0
O158 O 0.83527 0.63504 0.38598 0.0
C159 C 0.84154 0.6212 0.38213 0.0
O160 O 0.85721 0.62047 0.38726 0.0
C161 C 0.88278 0.68688 0.40954 0.0
C162 C 0.93915 0.68933 0.36857 0.0
O163 O 0.92316 0.68368 0.36573 0.0
O164 O 0.94517 0.68777 0.38338 0.0
O165 O 0.88034 0.35326 0.33274 0.0
Cd166 Cd 0.85736 0.36872 0.34703 0.0
O167 O 0.88344 0.33843 0.3544 0.0
Cd168 Cd 0.86395 0.34558 0.37433 0.0
O169 O 0.85085 0.3373 0.39833 0.0
C170 C 0.85965 0.32969 0.40745 0.0
O171 O 0.87571 0.32813 0.40237 0.0
C172 C 0.88778 0.34244 0.33917 0.0
C173 C 0.84627 0.39178 0.32688 0.0
O174 O 0.85794 0.39682 0.33835 0.0
O175 O 0.84002 0.37592 0.3248 0.0
O176 O 0.70665 0.14663 0.65296 0.0
Cd177 Cd 0.6877 0.13111 0.67376 0.0
O178 O 0.70054 0.17211 0.6639 0.0
Cd179 Cd 0.6789 0.16499 0.68201 0.0
O180 O 0.65654 0.1714 0.6987 0.0
C181 C 0.64268 0.17362 0.6918 0.0
O182 O 0.64163 0.171 0.67465 0.0
C183 C 0.70911 0.16275 0.6532 0.0
C184 C 0.70487 0.11051 0.69189 0.0
O185 O 0.69769 0.10459 0.67727 0.0
O186 O 0.70408 0.12613 0.69783 0.0
O187 O 0.37829 0.18456 0.65734 0.0
Cd188 Cd 0.34991 0.17185 0.64571 0.0
O189 O 0.38362 0.16137 0.66738 0.0
Cd190 Cd 0.35921 0.14475 0.66121 0.0
O191 O 0.34134 0.12417 0.67124 0.0
C192 C 0.34851 0.11384 0.67866 0.0
O193 O 0.36552 0.11574 0.67875 0.0
C194 C 0.38822 0.17687 0.66508 0.0
C195 C 0.33848 0.19056 0.62142 0.0
O196 O 0.33728 0.19529 0.63794 0.0
O197 O 0.34514 0.17698 0.61626 0.0
O198 O 0.37942 0.83894 0.66516 0.0
Cd199 Cd 0.38907 0.85864 0.69109 0.0
O200 O 0.36943 0.85752 0.65107 0.0
Cd201 Cd 0.37404 0.87869 0.6722 0.0
O202 O 0.3658 0.89951 0.69056 0.0
C203 C 0.35123 0.90357 0.6874 0.0
O204 O 0.34286 0.89543 0.67365 0.0
C205 C 0.37235 0.84241 0.65178 0.0
C206 C 0.4106 0.84424 0.71113 0.0
O207 O 0.39406 0.84091 0.71262 0.0
O208 O 0.41702 0.85444 0.70022 0.0
O209 O 0.67674 0.87614 0.65625 0.0
Cd210 Cd 0.65474 0.85526 0.64023 0.0
O211 O 0.69295 0.85761 0.6626 0.0
Cd212 Cd 0.67177 0.83662 0.65902 0.0
O213 O 0.64962 0.82214 0.67114 0.0
C214 C 0.63894 0.8311 0.67929 0.0
O215 O 0.64142 0.84762 0.6786 0.0
C216 C 0.69067 0.87296 0.66222 0.0
C217 C 0.67026 0.837 0.61183 0.0
O218 O 0.66604 0.83052 0.62602 0.0
O219 O 0.66667 0.85194 0.6108 0.0
O220 O 0.69126 0.86562 0.35126 0.0
Cd221 Cd 0.67442 0.84154 0.36396 0.0
O222 O 0.67415 0.88459 0.3609 0.0
Cd223 Cd 0.65284 0.86471 0.36624 0.0
O224 O 0.62937 0.84803 0.35675 0.0
C225 C 0.62418 0.85093 0.34218 0.0
O226 O 0.6329 0.86343 0.33451 0.0
C227 C 0.68815 0.88094 0.35325 0.0
C228 C 0.69528 0.82678 0.3845 0.0
O229 O 0.69436 0.82226 0.36793 0.0
O230 O 0.68625 0.8382 0.39143 0.0
O231 O 0.68545 0.16011 0.40615 0.0
Cd232 Cd 0.66764 0.14471 0.38215 0.0
O233 O 0.67525 0.18456 0.40784 0.0
Cd234 Cd 0.65756 0.17832 0.38592 0.0
O235 O 0.64103 0.18667 0.3675 0.0
C236 C 0.63066 0.19681 0.37406 0.0
O237 O 0.62991 0.20079 0.39117 0.0
C238 C 0.68524 0.17534 0.41335 0.0
C239 C 0.68564 0.12078 0.36217 0.0
O240 O 0.68522 0.13541 0.35729 0.0
O241 O 0.67741 0.11737 0.37636 0.0
O242 O 0.33359 0.23642 0.34822 0.0
Cd243 Cd 0.34099 0.23434 0.31714 0.0
O244 O 0.33982 0.2106 0.34769 0.0
Cd245 Cd 0.34379 0.18759 0.35822 0.0
O246 O 0.3443 0.16044 0.35117 0.0
C247 C 0.33535 0.14926 0.35939 0.0
O248 O 0.32651 0.15419 0.37362 0.0
C249 C 0.33516 0.22391 0.35627 0.0
C250 C 0.37666 0.2355 0.31441 0.0
O251 O 0.36967 0.24913 0.31749 0.0
O252 O 0.36675 0.22115 0.31199 0.0
O253 O 0.37551 0.85197 0.3407 0.0
Cd254 Cd 0.35366 0.8667 0.35816 0.0
O255 O 0.38108 0.8382 0.36231 0.0
Cd256 Cd 0.36203 0.84568 0.38253 0.0
O257 O 0.34841 0.83754 0.40628 0.0
C258 C 0.3573 0.83092 0.41624 0.0
O259 O 0.37376 0.83037 0.41218 0.0
C260 C 0.38403 0.84171 0.34671 0.0
C261 C 0.33762 0.88849 0.34049 0.0
O262 O 0.35129 0.89412 0.34929 0.0
O263 O 0.33174 0.87257 0.3398 0.0
O264 O 0.69898 0.65797 0.1594 0.0
Cd265 Cd 0.68516 0.64104 0.182 0.0
O266 O 0.67732 0.67231 0.1567 0.0
Cd267 Cd 0.65788 0.66387 0.1764 0.0
O268 O 0.63412 0.6711 0.19001 0.0
C269 C 0.62837 0.68329 0.1842 0.0
O270 O 0.6367 0.68994 0.17094 0.0
C271 C 0.69244 0.66888 0.15217 0.0
C272 C 0.7074 0.62129 0.19495 0.0
O273 O 0.69758 0.61509 0.18206 0.0
O274 O 0.70679 0.63677 0.20157 0.0
O275 O 0.36465 0.67997 0.1505 0.0
Cd276 Cd 0.34312 0.66143 0.13158 0.0
O277 O 0.37093 0.65767 0.16156 0.0
Cd278 Cd 0.34939 0.63847 0.1519 0.0
O279 O 0.33366 0.61661 0.16202 0.0
C280 C 0.34222 0.60656 0.16824 0.0
O281 O 0.35922 0.60927 0.1668 0.0
C282 C 0.37397 0.67352 0.16022 0.0
C283 C 0.32445 0.67769 0.11034 0.0
O284 O 0.31801 0.67334 0.12498 0.0
O285 O 0.33985 0.67472 0.1059 0.0
O286 O 0.39082 0.33758 0.16069 0.0
Cd287 Cd 0.40584 0.35682 0.18447 0.0
O288 O 0.38358 0.35747 0.14645 0.0
Cd289 Cd 0.3907 0.37813 0.16759 0.0
O290 O 0.38107 0.39719 0.18725 0.0
C291 C 0.36474 0.397 0.18724 0.0
O292 O 0.35565 0.38585 0.17586 0.0
C293 C 0.38396 0.34182 0.14758 0.0
C294 C 0.43217 0.34218 0.19746 0.0
O295 O 0.41622 0.33795 0.2018 0.0
O296 O 0.43586 0.35347 0.187 0.0
O297 O 0.68963 0.38323 0.15451 0.0
Cd298 Cd 0.67208 0.35616 0.14349 0.0
O299 O 0.71004 0.37011 0.16312 0.0
Cd300 Cd 0.69273 0.34631 0.16426 0.0
O301 O 0.67271 0.32982 0.17696 0.0
C302 C 0.66072 0.33742 0.18456 0.0
O303 O 0.66104 0.35368 0.18326 0.0
C304 C 0.70472 0.38375 0.16032 0.0
C305 C 0.68907 0.33876 0.1155 0.0
O306 O 0.69235 0.33793 0.13144 0.0
O307 O 0.6775 0.34773 0.11251 0.0
O308 O 0.69453 0.38892 0.87194 0.0
Cd309 Cd 0.67462 0.36823 0.88684 0.0
O310 O 0.67349 0.40204 0.86488 0.0
Cd311 Cd 0.65261 0.3819 0.8705 0.0
O312 O 0.63156 0.36228 0.86041 0.0
C313 C 0.62835 0.36237 0.84439 0.0
O314 O 0.63745 0.37398 0.83579 0.0
C315 C 0.68959 0.4012 0.86549 0.0
C316 C 0.69083 0.34512 0.90222 0.0
O317 O 0.68389 0.3409 0.88721 0.0
O318 O 0.69033 0.36029 0.90986 0.0
O319 O 0.67394 0.66122 0.89613 0.0
Cd320 Cd 0.65891 0.64791 0.86955 0.0
O321 O 0.657 0.68086 0.90361 0.0
Cd322 Cd 0.64086 0.67588 0.88049 0.0
O323 O 0.62486 0.68641 0.86323 0.0
C324 C 0.61677 0.69816 0.87076 0.0
O325 O 0.61809 0.70232 0.88779 0.0
C326 C 0.66979 0.67366 0.90673 0.0
C327 C 0.67958 0.62624 0.84988 0.0
O328 O 0.68071 0.64195 0.84761 0.0
O329 O 0.66843 0.62064 0.86126 0.0
O330 O 0.37989 0.68095 0.92107 0.0
Cd331 Cd 0.40725 0.67056 0.91243 0.0
O332 O 0.36615 0.65596 0.91098 0.0
Cd333 Cd 0.34499 0.63618 0.90157 0.0
O334 O 0.33361 0.61342 0.88482 0.0
C335 C 0.3175 0.60922 0.88219 0.0
O336 O 0.3065 0.61878 0.89025 0.0
C337 C 0.36566 0.67124 0.91789 0.0
C338 C 0.42549 0.69166 0.88974 0.0
O339 O 0.41496 0.67848 0.88381 0.0
O340 O 0.42763 0.69462 0.90633 0.0
O341 O 0.39178 0.35203 0.83515 0.0
Cd342 Cd 0.36868 0.36757 0.84897 0.0
O343 O 0.395 0.33823 0.85756 0.0
Cd344 Cd 0.37533 0.34634 0.87682 0.0
O345 O 0.3608 0.33992 0.9008 0.0
C346 C 0.36541 0.32758 0.90742 0.0
O347 O 0.37822 0.32019 0.89974 0.0
C348 C 0.3993 0.3416 0.8421 0.0
C349 C 0.3558 0.38831 0.82737 0.0
O350 O 0.3678 0.39452 0.8382 0.0
O351 O 0.35008 0.37235 0.8266 0.0
H352 H 0.29294 0.28646 0.02142 0.0
H353 H 0.24744 0.24874 0.01717 0.0
H354 H 0.28404 0.2526 0.97365 0.0
H355 H 0.26812 0.28794 0.04258 0.0
H356 H 0.24986 0.27158 0.04121 0.0
H357 H 0.29448 0.28441 0.05655 0.0
H358 H 0.28972 0.24613 0.09159 0.0
H359 H 0.2502 0.24547 0.05436 0.0
C360 C 0.28524 0.27571 0.01399 0.0
C361 C 0.29018 0.27041 -0.00339 0.0
C362 C 0.27013 0.26745 0.02165 0.0
C363 C 0.25962 0.25423 0.01152 0.0
C364 C 0.26422 0.24893 -0.00605 0.0
C365 C 0.28 0.25665 0.987 0.0
C366 C 0.26426 0.2739 0.03995 0.0
C367 C 0.27189 0.26547 0.05362 0.0
C368 C 0.2878 0.27284 0.06103 0.0
C369 C 0.29442 0.26606 0.07485 0.0
C370 C 0.28492 0.25142 0.08088 0.0
C371 C 0.26877 0.24408 0.07391 0.0
C372 C 0.26258 0.25099 0.05995 0.0
H373 H 0.76503 0.21793 0.00761 0.0
H374 H 0.73137 0.25582 0.00774 0.0
H375 H 0.76113 0.25499 0.053 0.0
H376 H 0.74317 0.2142 0.98576 0.0
H377 H 0.72609 0.22691 0.98883 0.0
H378 H 0.76879 0.22255 0.96789 0.0
H379 H 0.7648 0.25952 0.93287 0.0
H380 H 0.72821 0.25388 0.97575 0.0
C381 C 0.75981 0.22897 0.01422 0.0
C382 C 0.76511 0.23592 0.03123 0.0
C383 C 0.74752 0.23605 0.00578 0.0
C384 C 0.74082 0.25041 0.01427 0.0
C385 C 0.74594 0.25756 0.03119 0.0
C386 C 0.75795 0.25014 0.03955 0.0
C387 C 0.74044 0.22758 0.98838 0.0
C388 C 0.74786 0.23727 0.97354 0.0
C389 C 0.76255 0.23263 0.96399 0.0
C390 C 0.7687 0.24035 0.94907 0.0
C391 C 0.7606 0.25368 0.94456 0.0
C392 C 0.74615 0.25874 0.95423 0.0
C393 C 0.7397 0.25037 0.9686 0.0
H394 H 0.74176 0.74485 0.05296 0.0
H395 H 0.78581 0.78372 0.05075 0.0
H396 H 0.78145 0.75086 0.09116 0.0
H397 H 0.74025 0.77035 0.03854 0.0
H398 H 0.75876 0.78619 0.03727 0.0
H399 H 0.73689 0.74408 0.01782 0.0
H400 H 0.76678 0.74578 0.96954 0.0
H401 H 0.78119 0.7827 0.01419 0.0
C402 C 0.75415 0.75106 0.05803 0.0
C403 C 0.76078 0.74574 0.07273 0.0
C404 C 0.76305 0.76485 0.0502 0.0
C405 C 0.77903 0.77302 0.05679 0.0
C406 C 0.78588 0.76802 0.07153 0.0
C407 C 0.77673 0.75424 0.07928 0.0
C408 C 0.75456 0.77218 0.0363 0.0
C409 C 0.7588 0.76403 0.01811 0.0
C410 C 0.74791 0.74965 0.01036 0.0
C411 C 0.75072 0.74292 -0.00718 0.0
C412 C 0.76494 0.75043 0.98328 0.0
C413 C 0.77598 0.76479 0.99083 0.0
C414 C 0.7729 0.77147 0.00832 0.0
H415 H 0.24896 0.70961 0.01218 0.0
H416 H 0.22444 0.75338 0.00754 0.0
H417 H 0.25714 0.75338 0.05117 0.0
H418 H 0.22571 0.70732 0.99174 0.0
H419 H 0.21285 0.72413 0.99265 0.0
H420 H 0.25462 0.71003 0.97568 0.0
H421 H 0.25904 0.73993 0.93275 0.0
H422 H 0.21844 0.7448 0.97219 0.0
C423 C 0.24674 0.72248 0.01706 0.0
C424 C 0.25481 0.7309 0.03236 0.0
C425 C 0.23577 0.7306 0.00809 0.0
C426 C 0.23286 0.74721 0.0146 0.0
C427 C 0.2404 0.75565 0.03022 0.0
C428 C 0.25157 0.7474 0.03884 0.0
C429 C 0.22642 0.72135 0.99209 0.0
C430 C 0.23551 0.72675 0.97558 0.0
C431 C 0.24997 0.71934 0.96877 0.0
C432 C 0.25852 0.72397 0.9533 0.0
C433 C 0.25248 0.73631 0.9447 0.0
C434 C 0.23803 0.74398 0.95139 0.0
C435 C 0.2297 0.73918 0.96696 0.0
H436 H 0.01979 0.22461 0.24779 0.0
H437 H 0.01888 0.26914 0.28583 0.0
H438 H 0.065 0.26256 0.25444 0.0
H439 H -0.00319 0.22527 0.26995 0.0
H440 H -0.00184 0.24205 0.28776 0.0
H441 H 0.98315 0.22831 0.24239 0.0
H442 H 0.94474 0.26219 0.24841 0.0
H443 H 0.98412 0.2671 0.28674 0.0
C444 C 0.0261 0.23679 0.254 0.0
C445 C 0.04335 0.24264 0.24927 0.0
C446 C 0.0171 0.24643 0.26702 0.0
C447 C 0.02559 0.26193 0.27545 0.0
C448 C 0.04284 0.2679 0.27085 0.0
C449 C 0.05149 0.25831 0.25758 0.0
C450 C -0.00084 0.23939 0.27321 0.0
C451 C 0.9852 0.24699 0.26532 0.0
C452 C 0.97786 0.23912 0.24945 0.0
C453 C 0.96327 0.24457 0.24312 0.0
C454 C 0.95651 0.2585 0.25265 0.0
C455 C 0.96389 0.26678 0.26841 0.0
C456 C 0.97841 0.26103 0.27451 0.0
H457 H 0.80335 0.0253 0.27199 0.0
H458 H 0.76612 0.0277 0.31475 0.0
H459 H 0.76765 0.06169 0.27563 0.0
H460 H 0.80876 0.01653 0.30142 0.0
H461 H 0.79149 0.01453 0.31732 0.0
H462 H 0.81039 -0.00523 0.27616 0.0
H463 H 0.77885 0.94642 0.27889 0.0
H464 H 0.76713 -0.00916 0.31287 0.0
C465 C 0.79248 0.03077 0.27848 0.0
C466 C 0.78584 0.04374 0.27146 0.0
C467 C 0.78556 0.02514 0.29421 0.0
C468 C 0.77147 0.03219 0.30268 0.0
C469 C 0.76472 0.04534 0.29603 0.0
C470 C 0.77204 0.05096 0.28039 0.0
C471 C 0.79447 0.01311 0.30296 0.0
C472 C 0.78929 -0.00524 0.29536 0.0
C473 C 0.79933 0.98718 0.28175 0.0
C474 C 0.79531 0.96981 0.27551 0.0
C475 C 0.78123 0.96001 0.28312 0.0
C476 C 0.77091 0.96732 0.29667 0.0
C477 C 0.77491 0.98487 0.30251 0.0
H478 H 0.02632 0.72346 0.26473 0.0
H479 H 0.02008 0.75024 0.22124 0.0
H480 H 0.9827 0.75046 0.26401 0.0
H481 H 0.03912 0.7153 0.23422 0.0
H482 H 0.04015 0.72993 0.2185 0.0
H483 H 0.05725 0.722 0.26052 0.0
H484 H 0.10196 0.76024 0.25773 0.0
H485 H 0.06085 0.75618 0.22144 0.0
C486 C 0.01906 0.7314 0.25851 0.0
C487 C 0.00379 0.73642 0.26663 0.0
C488 C 0.02495 0.73627 0.24215 0.0
C489 C 0.0157 0.74671 0.23399 0.0
C490 C 0.00041 0.7519 0.24185 0.0
C491 C -0.00537 0.7467 0.25812 0.0
C492 C 0.04021 0.72908 0.23281 0.0
C493 C 0.05718 0.73815 0.24021 0.0
C494 C 0.06423 0.73265 0.25456 0.0
C495 C 0.08027 0.74073 0.26116 0.0
C496 C 0.08925 0.7544 0.25318 0.0
C497 C 0.08245 0.75998 0.23875 0.0
C498 C 0.06628 0.75192 0.23249 0.0
H499 H 0.25157 -0.00739 0.25389 0.0
H500 H 0.272 0.98406 0.30226 0.0
H501 H 0.27958 0.95038 0.25514 0.0
H502 H 0.23771 0.00088 0.28524 0.0
H503 H 0.25225 0.00423 0.30295 0.0
H504 H 0.23949 0.02122 0.2642 0.0
H505 H 0.27584 0.06719 0.27311 0.0
H506 H 0.27912 0.02545 0.30221 0.0
C507 C 0.25892 0.98535 0.26092 0.0
C508 C 0.26549 0.97102 0.25211 0.0
C509 C 0.26113 0.99009 0.27897 0.0
C510 C 0.2706 0.98069 0.28825 0.0
C511 C 0.27736 0.96634 0.27968 0.0
C512 C 0.2748 0.96171 0.26163 0.0
C513 C 0.25166 0.0039 0.28849 0.0
C514 C 0.25885 0.02123 0.28343 0.0
C515 C 0.25083 0.02834 0.27072 0.0
C516 C 0.25719 0.0448 0.26672 0.0
C517 C 0.27154 0.05416 0.27557 0.0
C518 C 0.27935 0.04743 0.28865 0.0
C519 C 0.27318 0.03079 0.29217 0.0
H520 H -0.00914 0.76558 0.78862 0.0
H521 H 0.98941 0.72697 0.74407 0.0
H522 H 0.95262 0.76247 0.74945 0.0
H523 H 0.00333 0.7393 0.78983 0.0
H524 H 0.00239 0.72315 0.77144 0.0
H525 H 0.02452 0.76639 0.78931 0.0
H526 H 0.07188 0.75962 0.76021 0.0
H527 H 0.02636 0.72251 0.75061 0.0
C528 C 0.98531 0.75985 0.77621 0.0
C529 C 0.97132 0.76625 0.76982 0.0
C530 C -0.00822 0.74561 0.76702 0.0
C531 C 0.98448 0.73803 0.75104 0.0
C532 C 0.97039 0.74409 0.74448 0.0
C533 C 0.96405 0.75831 0.7539 0.0
C534 C 0.00487 0.73719 0.77529 0.0
C535 C 0.02327 0.74394 0.77021 0.0
C536 C 0.03159 0.75922 0.77919 0.0
C537 C 0.0491 0.76503 0.77555 0.0
C538 C 0.05819 0.75552 0.76258 0.0
C539 C 0.05017 0.74013 0.75358 0.0
C540 C 0.03263 0.73445 0.75737 0.0
H541 H 0.26214 -0.00237 0.81523 0.0
H542 H 0.30287 0.00189 0.77569 0.0
H543 H 0.27296 0.95326 0.78063 0.0
H544 H 0.28391 0.02267 0.81718 0.0
H545 H 0.30233 0.02358 0.80257 0.0
H546 H 0.2617 0.03894 0.81309 0.0
H547 H 0.26518 0.06715 0.76898 0.0
H548 H 0.29865 0.02951 0.77107 0.0
C549 C 0.26938 -0.00824 0.80434 0.0
C550 C 0.26565 0.9741 0.79895 0.0
C551 C 0.28276 0.0019 0.79599 0.0
C552 C 0.29229 -0.00571 0.78194 0.0
C553 C 0.28835 0.97685 0.77605 0.0
C554 C 0.27518 0.96689 0.78467 0.0
C555 C 0.28796 0.02042 0.80311 0.0
C556 C 0.28048 0.03236 0.79284 0.0
C557 C 0.2671 0.04126 0.80026 0.0
C558 C 0.26163 0.054 0.79181 0.0
C559 C 0.26921 0.05722 0.77544 0.0
C560 C 0.28263 0.04856 0.76783 0.0
C561 C 0.28808 0.03602 0.77659 0.0
H562 H 0.00506 0.30373 0.78821 0.0
H563 H -0.00429 0.25646 0.81038 0.0
H564 H 0.96336 0.2649 0.76981 0.0
H565 H 0.01852 0.30139 0.81546 0.0
H566 H 0.01185 0.28314 0.82663 0.0
H567 H 0.03627 0.2954 0.78585 0.0
H568 H 0.07679 0.26583 0.79188 0.0
H569 H 0.03237 0.26421 0.82741 0.0
C570 C -0.00231 0.29117 0.78856 0.0
C571 C 0.98404 0.28536 0.77696 0.0
C572 C 0.00187 0.28078 0.8007 0.0
C573 C -0.00755 0.26444 0.80107 0.0
C574 C 0.97875 0.2585 0.78968 0.0
C575 C 0.97461 0.26908 0.77784 0.0
C576 C 0.01603 0.28721 0.81363 0.0
C577 C 0.03262 0.28055 0.80732 0.0
C578 C 0.04165 0.28648 0.79269 0.0
C579 C 0.0575 0.28113 0.78691 0.0
C580 C 0.06425 0.2695 0.79591 0.0
C581 C 0.05539 0.26339 0.81069 0.0
C582 C 0.03944 0.26889 0.81617 0.0
H583 H 0.74676 0.97742 0.74748 0.0
H584 H 0.7805 0.97904 0.7903 0.0
H585 H 0.77729 0.93719 0.74862 0.0
H586 H 0.74103 -0.00667 0.77626 0.0
H587 H 0.75575 -0.00494 0.79364 0.0
H588 H 0.74427 0.01471 0.75672 0.0
H589 H 0.78522 0.05707 0.76581 0.0
H590 H 0.78527 0.01249 0.79135 0.0
C591 C 0.7564 0.9719 0.75363 0.0
C592 C 0.76167 0.95657 0.74579 0.0
C593 C 0.76292 0.97987 0.76979 0.0
C594 C 0.77546 0.97278 0.77785 0.0
C595 C 0.78111 0.95749 0.77013 0.0
C596 C 0.77399 0.94951 0.75414 0.0
C597 C 0.75504 -0.00519 0.7792 0.0
C598 C 0.76411 0.01156 0.77413 0.0
C599 C 0.75648 0.02037 0.76258 0.0
C600 C 0.76394 0.03693 0.75959 0.0
C601 C 0.77949 0.04425 0.76781 0.0
C602 C 0.78724 0.03559 0.77935 0.0
C603 C 0.77956 0.01916 0.78225 0.0
H604 H 0.27319 0.71052 0.513 0.0
H605 H 0.31621 0.75113 0.51502 0.0
H606 H 0.27469 0.74986 0.47984 0.0
H607 H 0.30078 0.70712 0.52491 0.0
H608 H 0.31888 0.72364 0.52521 0.0
H609 H 0.28096 0.70559 0.54974 0.0
H610 H 0.29343 0.74044 0.59662 0.0
H611 H 0.32076 0.74887 0.54824 0.0
C612 C 0.27941 0.72242 0.50881 0.0
C613 C 0.27172 0.72964 0.49604 0.0
C614 C 0.29544 0.73014 0.51572 0.0
C615 C 0.3037 0.74535 0.5099 0.0
C616 C 0.29623 0.75272 0.49704 0.0
C617 C 0.28014 0.74483 0.4904 0.0
C618 C 0.30462 0.72116 0.52774 0.0
C619 C 0.30076 0.72696 0.5468 0.0
C620 C 0.28815 0.71712 0.55637 0.0
C621 C 0.28552 0.72163 0.57452 0.0
C622 C 0.2955 0.73641 0.58278 0.0
C623 C 0.30835 0.74612 0.57351 0.0
C624 C 0.31067 0.74157 0.55544 0.0
H625 H 0.76486 0.80118 0.51632 0.0
H626 H 0.80681 0.77383 0.52336 0.0
H627 H 0.76221 0.77044 0.55843 0.0
H628 H 0.79406 0.80979 0.50402 0.0
H629 H 0.81108 0.79757 0.50581 0.0
H630 H 0.77275 0.80121 0.48118 0.0
H631 H 0.78439 0.76312 0.43894 0.0
H632 H 0.81197 0.77041 0.48707 0.0
C633 C 0.77038 0.79253 0.52341 0.0
C634 C 0.76145 0.78634 0.53804 0.0
C635 C 0.78672 0.7881 0.5181 0.0
C636 C 0.794 0.7769 0.52723 0.0
C637 C 0.78522 0.77042 0.54183 0.0
C638 C 0.7689 0.77513 0.547 0.0
C639 C 0.79693 0.79654 0.50372 0.0
C640 C 0.79269 0.78671 0.48598 0.0
C641 C 0.77979 0.79089 0.47591 0.0
C642 C 0.77658 0.78245 0.45887 0.0
C643 C 0.7865 0.76958 0.45211 0.0
C644 C 0.79951 0.76531 0.46206 0.0
C645 C 0.80218 0.7737 0.47914 0.0
H646 H 0.82695 0.2539 0.5461 0.0
H647 H 0.78824 0.21011 0.54969 0.0
H648 H 0.8011 0.24646 0.59543 0.0
H649 H 0.82542 0.22777 0.52406 0.0
H650 H 0.80742 0.21123 0.5243 0.0
H651 H 0.82309 0.25412 0.51186 0.0
H652 H 0.78078 0.25158 0.47731 0.0
H653 H 0.7793 0.21458 0.51317 0.0
C654 C 0.81717 0.2467 0.55372 0.0
C655 C 0.81525 0.25172 0.57177 0.0
C656 C 0.8073 0.23178 0.54566 0.0
C657 C 0.79526 0.22196 0.55584 0.0
C658 C 0.793 0.22692 0.57397 0.0
C659 C 0.80287 0.24208 0.58162 0.0
C660 C 0.8112 0.2253 0.52677 0.0
C661 C 0.80204 0.23365 0.51415 0.0
C662 C 0.81039 0.24831 0.50728 0.0
C663 C 0.80274 0.25503 0.49405 0.0
C664 C 0.78639 0.2471 0.48814 0.0
C665 C 0.77782 0.23254 0.49491 0.0
C666 C 0.78566 0.22599 0.50806 0.0
H667 H 0.26225 0.29432 0.52909 0.0
H668 H 0.30625 0.26775 0.52782 0.0
H669 H 0.26352 0.25627 0.56358 0.0
H670 H 0.29059 0.30537 0.51569 0.0
H671 H 0.30746 0.29236 0.51225 0.0
H672 H 0.26833 0.30267 0.49445 0.0
H673 H 0.2705 0.26655 0.44793 0.0
H674 H 0.30375 0.2659 0.49057 0.0
C675 C 0.26841 0.28448 0.53359 0.0
C676 C 0.26066 0.27561 0.54721 0.0
C677 C 0.28469 0.28154 0.52637 0.0
C678 C 0.2934 0.26966 0.53291 0.0
C679 C 0.28573 0.26051 0.5463 0.0
C680 C 0.26925 0.26325 0.5531 0.0
C681 C 0.29314 0.29197 0.51253 0.0
C682 C 0.28627 0.28463 0.49472 0.0
C683 C 0.27334 0.29175 0.48727 0.0
C684 C 0.26772 0.28549 0.47021 0.0
C685 C 0.27463 0.27148 0.4611 0.0
C686 C 0.28778 0.26453 0.4682 0.0
C687 C 0.29341 0.27103 0.4851 0.0
H688 H 0.80403 0.53364 0.7664 0.0
H689 H 0.76711 0.54143 0.8088 0.0
H690 H 0.76701 0.5679 0.76376 0.0
H691 H 0.80928 0.52847 0.7972 0.0
H692 H 0.7921 0.52851 0.81327 0.0
H693 H 0.80818 0.50517 0.77182 0.0
H694 H 0.77978 0.45712 0.78242 0.0
H695 H 0.77107 0.50327 0.81496 0.0
C696 C 0.79297 0.53943 0.7719 0.0
C697 C 0.78617 0.551 0.76284 0.0
C698 C 0.78603 0.53579 0.78839 0.0
C699 C 0.77199 0.5437 0.79578 0.0
C700 C 0.76513 0.55543 0.78702 0.0
C701 C 0.7721 0.55869 0.77044 0.0
C702 C 0.79499 0.52527 0.79903 0.0
C703 C 0.78991 0.50637 0.79374 0.0
C704 C 0.79846 0.49793 0.77946 0.0
C705 C 0.79471 0.48018 0.77517 0.0
C706 C 0.78245 0.47087 0.78545 0.0
C707 C 0.77393 0.47903 0.79989 0.0
C708 C 0.77743 0.49686 0.80372 0.0
H709 H 0.27747 0.51839 0.72398 0.0
H710 H 0.29968 0.51296 0.77261 0.0
H711 H 0.26552 0.55018 0.7712 0.0
H712 H 0.30045 0.50154 0.72361 0.0
H713 H 0.31382 0.5049 0.7423 0.0
H714 H 0.27148 0.48088 0.72541 0.0
H715 H 0.27795 0.43588 0.74779 0.0
H716 H 0.31481 0.48147 0.75812 0.0
C717 C 0.2785 0.52189 0.73801 0.0
C718 C 0.26993 0.53512 0.7465 0.0
C719 C 0.28926 0.51385 0.74742 0.0
C720 C 0.29115 0.51894 0.76548 0.0
C721 C 0.28265 0.53208 0.77418 0.0
C722 C 0.27188 0.53985 0.76462 0.0
C723 C 0.30021 0.5012 0.73802 0.0
C724 C 0.29364 0.48322 0.74166 0.0
C725 C 0.27859 0.47442 0.73356 0.0
C726 C 0.27284 0.45732 0.73571 0.0
C727 C 0.28229 0.44912 0.74623 0.0
C728 C 0.29751 0.45759 0.75435 0.0
C729 C 0.30297 0.4748 0.75219 0.0
H730 H 0.3092 0.52461 0.26623 0.0
H731 H 0.27793 0.5344 0.31289 0.0
H732 H 0.27226 0.55992 0.26839 0.0
H733 H 0.31848 0.52057 0.29645 0.0
H734 H 0.30294 0.52049 0.31418 0.0
H735 H 0.31792 0.49629 0.27355 0.0
H736 H 0.28692 0.44935 0.28404 0.0
H737 H 0.27876 0.49659 0.3148 0.0
C738 C 0.29898 0.53089 0.27305 0.0
C739 C 0.29117 0.54246 0.26489 0.0
C740 C 0.29427 0.52789 0.29033 0.0
C741 C 0.28131 0.53627 0.29939 0.0
C742 C 0.27312 0.54754 0.29133 0.0
C743 C 0.27796 0.55045 0.2741 0.0
C744 C 0.30443 0.51735 0.29971 0.0
C745 C 0.29888 0.4985 0.29466 0.0
C746 C 0.30764 0.48949 0.28096 0.0
C747 C 0.30332 0.47174 0.27693 0.0
C748 C 0.29012 0.46308 0.28682 0.0
C749 C 0.28118 0.47191 0.30049 0.0
C750 C 0.28542 0.48969 0.30413 0.0
H751 H 0.78678 0.53298 0.22736 0.0
H752 H 0.80984 0.52667 0.27519 0.0
H753 H 0.77813 0.56617 0.27463 0.0
H754 H 0.81075 0.51662 0.22655 0.0
H755 H 0.82255 0.5169 0.24589 0.0
H756 H 0.78265 0.49688 0.22187 0.0
H757 H 0.77971 0.44999 0.24373 0.0
H758 H 0.8176 0.4929 0.26224 0.0
C759 C 0.78842 0.53662 0.24131 0.0
C760 C 0.78076 0.55039 0.25001 0.0
C761 C 0.79905 0.52814 0.25038 0.0
C762 C 0.8016 0.53322 0.26833 0.0
C763 C 0.79425 0.54705 0.27722 0.0
C764 C 0.78366 0.55535 0.26797 0.0
C765 C 0.80924 0.51499 0.2407 0.0
C766 C 0.80058 0.49709 0.24244 0.0
C767 C 0.78702 0.48966 0.23133 0.0
C768 C 0.77961 0.47271 0.23184 0.0
C769 C 0.78558 0.46315 0.24363 0.0
C770 C 0.79949 0.47011 0.25458 0.0
C771 C 0.8067 0.48732 0.25415 0.0
H772 H 0.53196 0.21962 0.75729 0.0
H773 H 0.52717 0.2659 0.79162 0.0
H774 H 0.57654 0.25781 0.76751 0.0
H775 H 0.50623 0.22139 0.77505 0.0
H776 H 0.50688 0.23745 0.79346 0.0
H777 H 0.49399 0.22563 0.74736 0.0
H778 H 0.45694 0.26089 0.7526 0.0
H779 H 0.49441 0.26358 0.79243 0.0
C780 C 0.53764 0.23213 0.76331 0.0
C781 C 0.55549 0.23754 0.76097 0.0
C782 C 0.52731 0.24233 0.77435 0.0
C783 C 0.53495 0.25819 0.78278 0.0
C784 C 0.55266 0.26393 0.78019 0.0
C785 C 0.56277 0.25358 0.76921 0.0
C786 C 0.50881 0.23541 0.77896 0.0
C787 C 0.49576 0.24385 0.77065 0.0
C788 C 0.48888 0.23655 0.7544 0.0
C789 C 0.47487 0.24265 0.74769 0.0
C790 C 0.4683 0.2567 0.75718 0.0
C791 C 0.47524 0.26445 0.77332 0.0
C792 C 0.48912 0.258 0.77986 0.0
H793 H 0.50737 0.8102 0.78432 0.0
H794 H 0.50888 0.77901 0.82515 0.0
H795 H 0.46143 0.777 0.79837 0.0
H796 H 0.53034 0.81707 0.80536 0.0
H797 H 0.52965 0.80582 0.82393 0.0
H798 H 0.54419 0.80668 0.77794 0.0
H799 H 0.57978 0.77094 0.78073 0.0
H800 H 0.54119 0.7784 0.82174 0.0
C801 C 0.50077 0.80077 0.79214 0.0
C802 C 0.48318 0.79418 0.78943 0.0
C803 C 0.50994 0.79552 0.8052 0.0
C804 C 0.5017 0.7831 0.81518 0.0
C805 C 0.48427 0.77616 0.8126 0.0
C806 C 0.47509 0.78177 0.79974 0.0
C807 C 0.52805 0.80408 0.80949 0.0
C808 C 0.54145 0.79373 0.8008 0.0
C809 C 0.54892 0.79721 0.78455 0.0
C810 C 0.56282 0.78911 0.77717 0.0
C811 C 0.56862 0.77674 0.78594 0.0
C812 C 0.5609 0.77268 0.80203 0.0
C813 C 0.5472 0.78121 0.80929 0.0
H814 H 0.51358 0.72438 0.24958 0.0
H815 H 0.51268 0.76786 0.289 0.0
H816 H 0.55904 0.76178 0.25791 0.0
H817 H 0.49048 0.72449 0.27158 0.0
H818 H 0.4918 0.74072 0.28987 0.0
H819 H 0.47603 0.72791 0.24485 0.0
H820 H 0.43788 0.76205 0.25249 0.0
H821 H 0.47852 0.76651 0.28941 0.0
C822 C 0.51991 0.73638 0.25617 0.0
C823 C 0.53728 0.7422 0.25185 0.0
C824 C 0.51083 0.74575 0.26938 0.0
C825 C 0.51939 0.76093 0.2784 0.0
C826 C 0.53674 0.76687 0.27418 0.0
C827 C 0.54545 0.75758 0.26071 0.0
C828 C 0.49284 0.73855 0.27531 0.0
C829 C 0.47886 0.74648 0.26782 0.0
C830 C 0.471 0.73875 0.25216 0.0
C831 C 0.45621 0.74432 0.24641 0.0
C832 C 0.44979 0.75828 0.25628 0.0
C833 C 0.45769 0.76645 0.27182 0.0
C834 C 0.47241 0.76057 0.27734 0.0
H835 H 0.53021 0.30313 0.26959 0.0
H836 H 0.51554 0.26804 0.30736 0.0
H837 H 0.48237 0.2686 0.26473 0.0
H838 H 0.54334 0.30772 0.29886 0.0
H839 H 0.53747 0.29276 0.31414 0.0
H840 H 0.56196 0.30012 0.27255 0.0
H841 H 0.59907 0.26746 0.28074 0.0
H842 H 0.55329 0.26895 0.31415 0.0
C843 C 0.5214 0.29261 0.27395 0.0
C844 C 0.50615 0.28619 0.26477 0.0
C845 C 0.52498 0.28591 0.2892 0.0
C846 C 0.5132 0.27274 0.29524 0.0
C847 C 0.49793 0.26632 0.28628 0.0
C848 C 0.49472 0.27286 0.27095 0.0
C849 C 0.54039 0.29386 0.30001 0.0
C850 C 0.55612 0.28554 0.29407 0.0
C851 C 0.56614 0.29072 0.27967 0.0
C852 C 0.58164 0.28424 0.2747 0.0
C853 C 0.58678 0.27198 0.28407 0.0
C854 C 0.57669 0.26635 0.2984 0.0
C855 C 0.56124 0.27311 0.30317 0.0
H856 H 0.23045 0.16519 0.13973 0.0
H857 H 0.23375 0.24099 0.08072 0.0
H858 H 0.18692 0.19058 0.13182 0.0
H859 H 0.27829 0.21662 0.08751 0.0
H860 H 0.21611 0.22093 0.09772 0.0
H861 H 0.248 0.18254 0.11951 0.0
C862 C 0.22456 0.17434 0.13374 0.0
C863 C 0.20717 0.17645 0.1376 0.0
C864 C 0.22972 0.21985 0.09542 0.0
C865 C 0.22716 0.1963 0.11442 0.0
C866 C 0.2398 0.23124 0.0855 0.0
C867 C 0.25761 0.23058 0.08262 0.0
C868 C 0.23741 0.20768 0.10268 0.0
C869 C 0.26469 0.2178 0.08958 0.0
C870 C 0.23458 0.18424 0.12218 0.0
C871 C 0.20025 0.18851 0.12937 0.0
N872 N 0.2546 0.20693 0.09936 0.0
N873 N 0.21025 0.19795 0.11826 0.0
H874 H 0.81985 0.1677 0.08035 0.0
H875 H 0.79039 0.25193 0.05388 0.0
H876 H 0.81928 0.21383 0.11634 0.0
H877 H 0.76755 0.20177 0.03098 0.0
H878 H 0.80709 0.23881 0.07293 0.0
H879 H 0.80639 0.18082 0.05835 0.0
C880 C 0.81705 0.18063 0.08356 0.0
C881 C 0.8206 0.18968 0.10022 0.0
C882 C 0.7985 0.2307 0.06363 0.0
C883 C 0.80552 0.20475 0.07511 0.0
C884 C 0.78889 0.23816 0.05278 0.0
C885 C 0.7772 0.22798 0.04098 0.0
C886 C 0.79672 0.2129 0.06255 0.0
C887 C 0.77636 0.21017 0.0398 0.0
C888 C 0.80932 0.18804 0.07105 0.0
C889 C 0.81665 0.20636 0.10371 0.0
N890 N 0.78592 0.20319 0.05053 0.0
N891 N 0.80939 0.21338 0.09125 0.0
H892 H 0.87419 0.8035 0.13784 0.0
H893 H 0.79455 0.80277 0.07601 0.0
H894 H 0.85452 0.84855 0.12697 0.0
H895 H 0.81262 0.75687 0.08682 0.0
H896 H 0.81868 0.81965 0.09205 0.0
H897 H 0.85397 0.78622 0.11685 0.0
C898 C 0.86579 0.80979 0.13091 0.0
C899 C 0.86596 0.8275 0.13432 0.0
C900 C 0.81749 0.80588 0.09081 0.0
C901 C 0.84275 0.8078 0.11036 0.0
C902 C 0.80375 0.79619 0.08149 0.0
C903 C 0.80148 0.77831 0.08002 0.0
C904 C 0.82908 0.79772 0.09891 0.0
C905 C 0.8137 0.77061 0.0878 0.0
C906 C 0.85421 0.7999 0.11896 0.0
C907 C 0.85477 0.83494 0.12492 0.0
N908 N 0.8269 0.78036 0.09701 0.0
N909 N 0.84357 0.82506 0.11349 0.0
H910 H 0.22619 0.83719 0.11009 0.0
H911 H 0.20895 0.76724 0.02962 0.0
H912 H 0.18826 0.84074 0.07229 0.0
H913 H 0.26055 0.78229 0.04968 0.0
H914 H 0.20034 0.79314 0.04565 0.0
H915 H 0.2383 0.8159 0.08918 0.0
C916 C 0.22051 0.83357 0.09732 0.0
C917 C 0.20616 0.84063 0.09291 0.0
C918 C 0.2136 0.79084 0.04632 0.0
C919 C 0.21974 0.81616 0.06913 0.0
C920 C 0.21862 0.77607 0.03707 0.0
C921 C 0.23553 0.77235 0.03834 0.0
C922 C 0.22542 0.80182 0.05725 0.0
C923 C 0.24725 0.78428 0.04863 0.0
C924 C 0.22747 0.82152 0.08539 0.0
C925 C 0.19934 0.83559 0.07617 0.0
N926 N 0.24189 0.79832 0.05792 0.0
N927 N 0.206 0.82342 0.06497 0.0
H928 H 0.2025 0.79739 0.87213 0.0
H929 H 0.22624 0.7738 0.96525 0.0
H930 H 0.19425 0.82835 0.92129 0.0
H931 H 0.23469 0.74318 0.91593 0.0
H932 H 0.2149 0.79416 0.94943 0.0
H933 H 0.21496 0.77777 0.88793 0.0
C934 C 0.20336 0.80011 0.88624 0.0
C935 C 0.19728 0.81455 0.89538 0.0
C936 C 0.21928 0.78301 0.94206 0.0
C937 C 0.21151 0.79205 0.91362 0.0
C938 C 0.22567 0.77132 0.9511 0.0
C939 C 0.23144 0.75671 0.94193 0.0
C940 C 0.21857 0.78009 0.92368 0.0
C941 C 0.23061 0.75434 0.92356 0.0
C942 C 0.21047 0.78888 0.89528 0.0
C943 C 0.19875 0.81739 0.91369 0.0
N944 N 0.22427 0.76586 0.91507 0.0
N945 N 0.20567 0.80623 0.92219 0.0
H946 H 0.17223 0.18846 0.94759 0.0
H947 H 0.25986 0.24821 0.95854 0.0
H948 H 0.21248 0.18617 0.90729 0.0
H949 H 0.23983 0.22193 0.0025 0.0
H950 H 0.23986 0.22869 0.9397 0.0
H951 H 0.19402 0.20366 0.96844 0.0
C952 C 0.18564 0.191 0.94319 0.0
C953 C 0.19056 0.18612 0.92567 0.0
C954 C 0.23999 0.22714 0.95346 0.0
C955 C 0.21523 0.20367 0.94922 0.0
C956 C 0.25158 0.23819 0.96431 0.0
C957 C 0.25198 0.23667 0.9823 0.0
C958 C 0.22818 0.21475 0.96057 0.0
C959 C 0.24003 0.22381 0.98884 0.0
C960 C 0.19802 0.19957 0.95508 0.0
C961 C 0.20811 0.18967 0.92066 0.0
N962 N 0.22847 0.21345 0.97801 0.0
N963 N 0.21976 0.19851 0.93229 0.0
H964 H 0.8244 0.17235 0.87906 0.0
H965 H 0.79441 0.25755 0.92951 0.0
H966 H 0.82859 0.21927 0.85631 0.0
H967 H 0.77361 0.20688 0.94093 0.0
H968 H 0.81319 0.245 0.90664 0.0
H969 H 0.81219 0.18643 0.90598 0.0
C970 C 0.82317 0.18572 0.87989 0.0
C971 C 0.8276 0.19471 0.8655 0.0
C972 C 0.80465 0.23671 0.91435 0.0
C973 C 0.81342 0.21078 0.89609 0.0
C974 C 0.79385 0.24383 0.92736 0.0
C975 C 0.78217 0.2333 0.9371 0.0
C976 C 0.80392 0.21894 0.91118 0.0
C977 C 0.78245 0.21561 0.93397 0.0
C978 C 0.81603 0.19369 0.89518 0.0
C979 C 0.82525 0.2119 0.86711 0.0
N980 N 0.79304 0.209 0.92122 0.0
N981 N 0.81827 0.21939 0.88213 0.0
H982 H 0.8297 0.83464 0.923 0.0
H983 H 0.79974 0.75057 0.96863 0.0
H984 H 0.85339 0.78885 0.91165 0.0
H985 H 0.78283 0.79882 0.98741 0.0
H986 H 0.81965 0.76459 0.94778 0.0
H987 H 0.81234 0.82199 0.94662 0.0
C988 C 0.83129 0.82196 0.92549 0.0
C989 C 0.84297 0.81277 0.91526 0.0
C990 C 0.81173 0.77218 0.95656 0.0
C991 C 0.82316 0.79822 0.94222 0.0
C992 C 0.80036 0.76417 0.96846 0.0
C993 C 0.78962 0.77355 0.97973 0.0
C994 C 0.81223 0.78969 0.95574 0.0
C995 C 0.791 0.79115 0.97903 0.0
C996 C 0.82142 0.81477 0.93901 0.0
C997 C 0.84453 0.79641 0.91913 0.0
N998 N 0.80196 0.79863 0.9671 0.0
N999 N 0.83469 0.78965 0.93221 0.0
H1000 H 0.11038 0.16919 0.20804 0.0
H1001 H 0.06353 0.25226 0.22136 0.0
H1002 H 0.11842 0.20809 0.17346 0.0
H1003 H 0.04688 0.20904 0.24915 0.0
H1004 H 0.0834 0.23584 0.20337 0.0
H1005 H 0.08688 0.18311 0.22316 0.0
C1006 C 0.10716 0.18058 0.20356 0.0
C1007 C 0.11648 0.18753 0.18952 0.0
C1008 C 0.07528 0.22983 0.21325 0.0
C1009 C 0.08969 0.20353 0.20679 0.0
C1010 C 0.06394 0.23922 0.22351 0.0
C1011 C 0.05358 0.232 0.23676 0.0
C1012 C 0.0765 0.21315 0.2164 0.0
C1013 C 0.05457 0.21503 0.23898 0.0
C1014 C 0.09372 0.18849 0.21217 0.0
C1015 C 0.11168 0.20229 0.18426 0.0
N1016 N 0.06599 0.20623 0.22905 0.0
N1017 N 0.09875 0.20983 0.19296 0.0
H1018 H 0.8073 0.10283 0.18467 0.0
H1019 H 0.82053 0.04975 0.26257 0.0
H1020 H 0.85709 0.09253 0.19911 0.0
H1021 H 0.77015 0.05437 0.24445 0.0
H1022 H 0.83397 0.06394 0.23819 0.0
H1023 H 0.79325 0.08394 0.20534 0.0
C1024 C 0.81527 0.09649 0.19205 0.0
C1025 C 0.83342 0.09939 0.19024 0.0
C1026 C 0.81996 0.06173 0.23944 0.0
C1027 C 0.81743 0.07785 0.21399 0.0
C1028 C 0.81225 0.05348 0.25332 0.0
C1029 C 0.79414 0.0509 0.25568 0.0
C1030 C 0.80954 0.06759 0.22784 0.0
C1031 C 0.78416 0.05635 0.24337 0.0
C1032 C 0.80724 0.0857 0.20386 0.0
C1033 C 0.84308 0.09078 0.20013 0.0
N1034 N 0.79199 0.06455 0.23008 0.0
N1035 N 0.83498 0.08053 0.21165 0.0
H1036 H 0.91656 0.80115 0.21386 0.0
H1037 H 0.01189 0.77907 0.22363 0.0
H1038 H 0.96121 0.82479 0.18626 0.0
H1039 H 0.96508 0.74822 0.23961 0.0
H1040 H -0.00589 0.79675 0.21066 0.0
H1041 H 0.93469 0.78272 0.22473 0.0
C1042 C 0.93019 0.80247 0.21008 0.0
C1043 C 0.93736 0.81455 0.19914 0.0
C1044 C 0.98777 0.78607 0.21697 0.0
C1045 C 0.95828 0.79345 0.21161 0.0
C1046 C -0.00209 0.77593 0.22431 0.0
C1047 C 0.98999 0.76225 0.23295 0.0
C1048 C 0.96961 0.78255 0.21836 0.0
C1049 C 0.97179 0.75887 0.2335 0.0
C1050 C 0.94054 0.79189 0.21625 0.0
C1051 C 0.95513 0.81564 0.19465 0.0
N1052 N 0.96226 0.76899 0.22644 0.0
N1053 N 0.96501 0.80528 0.20098 0.0
H1054 H 0.20666 0.92878 0.16098 0.0
H1055 H 0.28542 0.95516 0.22622 0.0
H1056 H 0.24441 0.89607 0.16768 0.0
H1057 H 0.23531 0.97203 0.23543 0.0
H1058 H 0.27558 0.94006 0.19789 0.0
H1059 H 0.22281 0.95143 0.18105 0.0
C1060 C 0.21863 0.92655 0.16624 0.0
C1061 C 0.22408 0.91047 0.16294 0.0
C1062 C 0.26694 0.94739 0.20604 0.0
C1063 C 0.24252 0.93621 0.18574 0.0
C1064 C 0.27245 0.9559 0.22228 0.0
C1065 C 0.26107 0.96461 0.23354 0.0
C1066 C 0.25004 0.94782 0.20088 0.0
C1067 C 0.24463 0.96558 0.22733 0.0
C1068 C 0.22775 0.93942 0.17774 0.0
C1069 C 0.23964 0.90823 0.17013 0.0
N1070 N 0.23956 0.95712 0.21151 0.0
N1071 N 0.24823 0.9209 0.18136 0.0
H1072 H 0.10559 0.82917 0.85939 0.0
H1073 H 0.07126 0.79134 0.76399 0.0
H1074 H 0.12205 0.85208 0.81255 0.0
H1075 H 0.04862 0.77289 0.81127 0.0
H1076 H 0.08933 0.81428 0.78179 0.0
H1077 H 0.08408 0.80888 0.84231 0.0
C1078 C 0.10464 0.82999 0.84555 0.0
C1079 C 0.11573 0.84228 0.83737 0.0
C1080 C 0.08029 0.80533 0.78831 0.0
C1081 C 0.0912 0.8191 0.81776 0.0
C1082 C 0.07 0.79223 0.77814 0.0
C1083 C 0.05849 0.78018 0.78617 0.0
C1084 C 0.07924 0.80629 0.80668 0.0
C1085 C 0.05726 0.78199 0.80456 0.0
C1086 C 0.09233 0.81843 0.83582 0.0
C1087 C 0.11385 0.84279 0.81941 0.0
N1088 N 0.06765 0.79469 0.8142 0.0
N1089 N 0.10193 0.83131 0.81021 0.0
H1090 H 0.18133 0.09785 0.85734 0.0
H1091 H 0.26328 0.0885 0.79256 0.0
H1092 H 0.20711 0.13786 0.82885 0.0
H1093 H 0.23208 0.04513 0.81176 0.0
H1094 H 0.2432 0.10675 0.80684 0.0
H1095 H 0.20003 0.07835 0.84182 0.0
C1096 C 0.19085 0.10252 0.84777 0.0
C1097 C 0.19268 0.11954 0.84443 0.0
C1098 C 0.24064 0.09323 0.80787 0.0
C1099 C 0.21416 0.09734 0.82675 0.0
C1100 C 0.25206 0.08272 0.79959 0.0
C1101 C 0.24927 0.06513 0.80068 0.0
C1102 C 0.22631 0.08624 0.81759 0.0
C1103 C 0.23479 0.0586 0.81057 0.0
C1104 C 0.2015 0.09137 0.83892 0.0
C1105 C 0.20522 0.12487 0.83188 0.0
N1106 N 0.22385 0.06916 0.81866 0.0
N1107 N 0.21552 0.11385 0.8236 0.0
H1108 H 0.88682 0.192 0.77087 0.0
H1109 H 0.96645 0.24451 0.81934 0.0
H1110 H 0.89869 0.18332 0.8228 0.0
H1111 H 0.96528 0.23492 0.76286 0.0
H1112 H 0.94314 0.22065 0.82099 0.0
H1113 H 0.91637 0.20647 0.76731 0.0
C1114 C 0.89575 0.19294 0.78143 0.0
C1115 C 0.8903 0.18666 0.79722 0.0
C1116 C 0.94825 0.22355 0.80824 0.0
C1117 C 0.924 0.20342 0.79338 0.0
C1118 C 0.96163 0.23712 0.80728 0.0
C1119 C 0.96755 0.24196 0.79093 0.0
C1120 C 0.94062 0.21497 0.79276 0.0
C1121 C 0.96073 0.23195 0.77575 0.0
C1122 C 0.91264 0.20112 0.77937 0.0
C1123 C 0.9024 0.18807 0.81044 0.0
N1124 N 0.94737 0.21916 0.77703 0.0
N1125 N 0.91862 0.19664 0.80837 0.0
H1126 H 0.83888 0.91492 0.844 0.0
H1127 H 0.80617 0.93879 0.75527 0.0
H1128 H 0.83541 0.88012 0.796 0.0
H1129 H 0.78414 0.95657 0.80567 0.0
H1130 H 0.8232 0.92178 0.76978 0.0
H1131 H 0.82484 0.9348 0.8297 0.0
C1132 C 0.83534 0.91155 0.83041 0.0
C1133 C 0.83824 0.89582 0.82117 0.0
C1134 C 0.81471 0.92952 0.77763 0.0
C1135 C 0.82251 0.91855 0.80476 0.0
C1136 C 0.80489 0.9392 0.76937 0.0
C1137 C 0.79334 0.94897 0.77915 0.0
C1138 C 0.81334 0.92982 0.79587 0.0
C1139 C 0.79284 0.94937 0.7975 0.0
C1140 C 0.82728 0.92285 0.82232 0.0
C1141 C 0.83331 0.89205 0.80363 0.0
N1142 N 0.80265 0.93989 0.80526 0.0
N1143 N 0.82577 0.90337 0.79597 0.0
H1144 H 0.22367 0.09306 0.18178 0.0
H1145 H 0.22447 0.05291 0.2708 0.0
H1146 H 0.19848 0.1135 0.22927 0.0
H1147 H 0.26928 0.05623 0.23587 0.0
H1148 H 0.21063 0.06991 0.25269 0.0
H1149 H 0.23683 0.07453 0.1987 0.0
C1150 C 0.2209 0.09363 0.19574 0.0
C1151 C 0.21005 0.1049 0.20416 0.0
C1152 C 0.22342 0.06677 0.24892 0.0
C1153 C 0.22466 0.0835 0.2234 0.0
C1154 C 0.23123 0.05697 0.25912 0.0
C1155 C 0.24795 0.05314 0.2547 0.0
C1156 C 0.23229 0.07246 0.23402 0.0
C1157 C 0.25633 0.0589 0.23961 0.0
C1158 C 0.22842 0.08309 0.20536 0.0
C1159 C 0.20688 0.10511 0.22229 0.0
N1160 N 0.24837 0.06821 0.22973 0.0
N1161 N 0.21402 0.09446 0.23128 0.0
H1162 H 0.21061 0.8823 0.83165 0.0
H1163 H 0.25785 0.97683 0.83455 0.0
H1164 H 0.19499 0.92117 0.87103 0.0
H1165 H 0.2439 0.94532 0.78578 0.0
H1166 H 0.23903 0.95614 0.85033 0.0
H1167 H 0.22838 0.90449 0.81705 0.0
C1168 C 0.21111 0.89548 0.83737 0.0
C1169 C 0.2013 0.8999 0.85256 0.0
C1170 C 0.2401 0.9539 0.83616 0.0
C1171 C 0.22163 0.92529 0.83594 0.0
C1172 C 0.25072 0.96575 0.82709 0.0
C1173 C 0.25275 0.9628 0.80872 0.0
C1174 C 0.23177 0.93885 0.82685 0.0
C1175 C 0.24327 0.94799 0.79992 0.0
C1176 C 0.22112 0.90812 0.82894 0.0
C1177 C 0.20233 0.91723 0.8593 0.0
N1178 N 0.23344 0.93648 0.80907 0.0
N1179 N 0.21241 0.92934 0.85099 0.0
H1180 H 0.09442 0.21919 0.89467 0.0
H1181 H 0.07314 0.23669 0.79848 0.0
H1182 H 0.11443 0.1926 0.84735 0.0
H1183 H 0.05576 0.26442 0.84642 0.0
H1184 H 0.08703 0.21927 0.81585 0.0
H1185 H 0.07863 0.23446 0.87694 0.0
C1186 C 0.09544 0.21648 0.88053 0.0
C1187 C 0.10586 0.20463 0.87251 0.0
C1188 C 0.0801 0.22911 0.82255 0.0
C1189 C 0.08778 0.22222 0.85202 0.0
C1190 C 0.07223 0.23913 0.81264 0.0
C1191 C 0.06324 0.25208 0.82096 0.0
C1192 C 0.07902 0.23207 0.84094 0.0
C1193 C 0.0623 0.25446 0.83938 0.0
C1194 C 0.08641 0.22525 0.87039 0.0
C1195 C 0.10659 0.20165 0.8541 0.0
N1196 N 0.07012 0.24461 0.8487 0.0
N1197 N 0.09774 0.21045 0.84448 0.0
H1198 H 0.86821 0.1145 0.81638 0.0
H1199 H 0.7915 0.0366 0.81453 0.0
H1200 H 0.83662 0.10165 0.8616 0.0
H1201 H 0.81644 0.0555 0.76834 0.0
H1202 H 0.81326 0.05535 0.83253 0.0
H1203 H 0.85487 0.08805 0.79968 0.0
C1204 C 0.85874 0.10596 0.82294 0.0
C1205 C 0.85322 0.1105 0.84032 0.0
C1206 C 0.81415 0.05519 0.81843 0.0
C1207 C 0.83783 0.08027 0.8212 0.0
C1208 C 0.8018 0.04439 0.80812 0.0
C1209 C 0.80204 0.04464 0.78991 0.0
C1210 C 0.82682 0.06634 0.81049 0.0
C1211 C 0.8156 0.05515 0.78236 0.0
C1212 C 0.85108 0.09088 0.81335 0.0
C1213 C 0.84105 0.09881 0.84815 0.0
N1214 N 0.82733 0.06573 0.79271 0.0
N1215 N 0.83355 0.08436 0.83844 0.0
H1216 H 0.91637 0.82135 0.85295 0.0
H1217 H 0.95776 0.7927 0.75859 0.0
H1218 H 0.90311 0.83928 0.80557 0.0
H1219 H 0.96548 0.77093 0.80549 0.0
H1220 H 0.94095 0.81277 0.77601 0.0
H1221 H 0.93776 0.80606 0.83624 0.0
C1222 C 0.91805 0.82222 0.83904 0.0
C1223 C 0.90774 0.83151 0.83064 0.0
C1224 C 0.94648 0.80371 0.7825 0.0
C1225 C 0.93229 0.81383 0.81133 0.0
C1226 C 0.95605 0.7922 0.77256 0.0
C1227 C 0.96299 0.77997 0.78052 0.0
C1228 C 0.94382 0.80303 0.80057 0.0
C1229 C 0.96058 0.78018 0.79874 0.0
C1230 C 0.93029 0.81344 0.82949 0.0
C1231 C 0.91068 0.83223 0.81259 0.0
N1232 N 0.95111 0.79141 0.80808 0.0
N1233 N 0.92257 0.82337 0.80351 0.0
H1234 H 0.82907 0.90464 0.18613 0.0
H1235 H 0.83072 0.97136 0.27356 0.0
H1236 H 0.87285 0.9161 0.22014 0.0
H1237 H 0.78432 0.94894 0.24604 0.0
H1238 H 0.84777 0.95485 0.25181 0.0
H1239 H 0.81397 0.92442 0.20573 0.0
C1240 C 0.83557 0.91138 0.19769 0.0
C1241 C 0.85223 0.90858 0.20155 0.0
C1242 C 0.83387 0.95366 0.25049 0.0
C1243 C 0.83491 0.93137 0.22412 0.0
C1244 C 0.82418 0.96316 0.26279 0.0
C1245 C 0.80609 0.96143 0.26159 0.0
C1246 C 0.8254 0.94254 0.23683 0.0
C1247 C 0.79821 0.95051 0.24751 0.0
C1248 C 0.8269 0.92267 0.2089 0.0
C1249 C 0.85998 0.91778 0.21671 0.0
N1250 N 0.8079 0.94148 0.23571 0.0
N1251 N 0.85123 0.92875 0.22749 0.0
H1252 H 0.15402 0.84796 0.21516 0.0
H1253 H 0.088 0.76067 0.20343 0.0
H1254 H 0.14658 0.81555 0.16579 0.0
H1255 H 0.10067 0.79008 0.25349 0.0
H1256 H 0.107 0.78213 0.18892 0.0
H1257 H 0.13231 0.82827 0.22888 0.0
C1258 C 0.14778 0.83673 0.20717 0.0
C1259 C 0.15221 0.83337 0.1893 0.0
C1260 C 0.10555 0.78393 0.20307 0.0
C1261 C 0.12728 0.81072 0.20499 0.0
C1262 C 0.0946 0.77176 0.21136 0.0
C1263 C 0.0928 0.77357 0.22971 0.0
C1264 C 0.11471 0.79806 0.2132 0.0
C1265 C 0.10185 0.78808 0.23933 0.0
C1266 C 0.13538 0.82547 0.21504 0.0
C1267 C 0.14363 0.81862 0.17962 0.0
N1268 N 0.11245 0.79973 0.23097 0.0
N1269 N 0.1316 0.80781 0.1876 0.0
H1270 H 0.90332 0.16319 0.17775 0.0
H1271 H 0.94729 0.25652 0.21704 0.0
H1272 H 0.88806 0.20926 0.16387 0.0
H1273 H 0.95739 0.20985 0.23433 0.0
H1274 H 0.92883 0.23965 0.19427 0.0
H1275 H 0.92667 0.1803 0.19484 0.0
C1276 C 0.90498 0.17692 0.17812 0.0
C1277 C 0.89353 0.18479 0.16951 0.0
C1278 C 0.93527 0.23313 0.20293 0.0
C1279 C 0.92028 0.20456 0.18931 0.0
C1280 C 0.94576 0.24274 0.21599 0.0
C1281 C 0.95386 0.23464 0.22777 0.0
C1282 C 0.93284 0.21526 0.2016 0.0
C1283 C 0.95162 0.21673 0.22551 0.0
C1284 C 0.91834 0.1867 0.18794 0.0
C1285 C 0.8965 0.20264 0.17036 0.0
N1286 N 0.94124 0.20769 0.21282 0.0
N1287 N 0.90946 0.21194 0.18027 0.0
H1288 H 0.20759 0.64517 0.6158 0.0
H1289 H 0.28841 0.71589 0.60868 0.0
H1290 H 0.21972 0.68636 0.65754 0.0
H1291 H 0.25434 0.70173 0.56478 0.0
H1292 H 0.26731 0.69964 0.62653 0.0
H1293 H 0.22877 0.66046 0.59649 0.0
C1294 C 0.2148 0.65734 0.62091 0.0
C1295 C 0.21193 0.66456 0.63826 0.0
C1296 C 0.26453 0.70012 0.61297 0.0
C1297 C 0.23618 0.68175 0.61651 0.0
C1298 C 0.27647 0.70956 0.60273 0.0
C1299 C 0.27308 0.71068 0.58516 0.0
C1300 C 0.24924 0.69123 0.60556 0.0
C1301 C 0.25764 0.70131 0.57818 0.0
C1302 C 0.22673 0.66605 0.6099 0.0
C1303 C 0.22149 0.6804 0.64423 0.0
N1304 N 0.2463 0.69193 0.5884 0.0
N1305 N 0.23333 0.68838 0.63343 0.0
H1306 H 0.84178 0.69628 0.57806 0.0
H1307 H 0.7852 0.77185 0.5776 0.0
H1308 H 0.81566 0.71899 0.62389 0.0
H1309 H 0.80418 0.74445 0.53023 0.0
H1310 H 0.79786 0.7536 0.59477 0.0
H1311 H 0.82976 0.71481 0.5604 0.0
C1312 C 0.83355 0.70517 0.58443 0.0
C1313 C 0.82971 0.70606 0.60251 0.0
C1314 C 0.79924 0.75152 0.58062 0.0
C1315 C 0.81597 0.72733 0.58235 0.0
C1316 C 0.79191 0.76189 0.57076 0.0
C1317 C 0.7934 0.75957 0.55237 0.0
C1318 C 0.80829 0.73873 0.57212 0.0
C1319 C 0.80274 0.74676 0.54436 0.0
C1320 C 0.82667 0.71572 0.57432 0.0
C1321 C 0.81896 0.71782 0.61001 0.0
N1322 N 0.8098 0.7368 0.55427 0.0
N1323 N 0.8125 0.72798 0.59992 0.0
H1324 H 0.88492 0.3148 0.64559 0.0
H1325 H 0.82375 0.28432 0.56319 0.0
H1326 H 0.86325 0.34999 0.61805 0.0
H1327 H 0.83376 0.25182 0.60081 0.0
H1328 H 0.84244 0.30816 0.57961 0.0
H1329 H 0.87081 0.29119 0.62539 0.0
C1330 C 0.87739 0.31761 0.63516 0.0
C1331 C 0.87513 0.33443 0.63366 0.0
C1332 C 0.84057 0.29578 0.58419 0.0
C1333 C 0.85884 0.30738 0.6105 0.0
C1334 C 0.82998 0.2822 0.57482 0.0
C1335 C 0.82706 0.26618 0.58082 0.0
C1336 C 0.84847 0.29317 0.59945 0.0
C1337 C 0.83545 0.26406 0.59593 0.0
C1338 C 0.86926 0.3041 0.62367 0.0
C1339 C 0.86524 0.33723 0.61981 0.0
N1340 N 0.84574 0.27738 0.60472 0.0
N1341 N 0.85736 0.32383 0.60883 0.0
H1342 H 0.1873 0.30891 0.62711 0.0
H1343 H 0.23246 0.28577 0.5334 0.0
H1344 H 0.17962 0.33333 0.58194 0.0
H1345 H 0.25248 0.27742 0.58242 0.0
H1346 H 0.20854 0.29785 0.54972 0.0
H1347 H 0.2066 0.29168 0.60933 0.0
C1348 C 0.18952 0.31053 0.61341 0.0
C1349 C 0.18199 0.32272 0.60604 0.0
C1350 C 0.21811 0.29316 0.55681 0.0
C1351 C 0.20401 0.30299 0.58564 0.0
C1352 C 0.2318 0.28633 0.54754 0.0
C1353 C 0.24469 0.28067 0.5565 0.0
C1354 C 0.21716 0.29418 0.57516 0.0
C1355 C 0.24284 0.28137 0.57483 0.0
C1356 C 0.20057 0.30072 0.60329 0.0
C1357 C 0.18529 0.32421 0.58819 0.0
N1358 N 0.22942 0.28809 0.58352 0.0
N1359 N 0.19613 0.31451 0.57859 0.0
H1360 H 0.21429 0.32163 0.39027 0.0
H1361 H 0.23929 0.3005 0.48362 0.0
H1362 H 0.19499 0.34694 0.43867 0.0
H1363 H 0.26969 0.29133 0.43588 0.0
H1364 H 0.22048 0.31491 0.46769 0.0
H1365 H 0.23184 0.30711 0.40706 0.0
C1366 C 0.21368 0.32409 0.40444 0.0
C1367 C 0.2032 0.33558 0.41306 0.0
C1368 C 0.23126 0.30966 0.46077 0.0
C1369 C 0.22331 0.31892 0.43243 0.0
C1370 C 0.24204 0.30148 0.46985 0.0
C1371 C 0.25599 0.29439 0.46107 0.0
C1372 C 0.2344 0.31063 0.44279 0.0
C1373 C 0.25883 0.29606 0.44317 0.0
C1374 C 0.22377 0.31583 0.41403 0.0
C1375 C 0.20296 0.33824 0.43149 0.0
N1376 N 0.24812 0.30388 0.43466 0.0
N1377 N 0.21285 0.32994 0.44058 0.0
H1378 H 0.20887 0.6608 0.42131 0.0
H1379 H 0.24317 0.74287 0.48788 0.0
H1380 H 0.18581 0.70712 0.42825 0.0
H1381 H 0.26468 0.69581 0.48311 0.0
H1382 H 0.21982 0.72877 0.46868 0.0
H1383 H 0.22714 0.67209 0.44633 0.0
C1384 C 0.20749 0.67326 0.4282 0.0
C1385 C 0.19591 0.6831 0.4225 0.0
C1386 C 0.2295 0.72144 0.47201 0.0
C1387 C 0.2169 0.69616 0.45113 0.0
C1388 C 0.24283 0.7295 0.48297 0.0
C1389 C 0.25596 0.72054 0.48698 0.0
C1390 C 0.22937 0.70433 0.46483 0.0
C1391 C 0.25479 0.70318 0.48042 0.0
C1392 C 0.21795 0.67971 0.4425 0.0
C1393 C 0.19464 0.69912 0.43204 0.0
N1394 N 0.24187 0.6957 0.46948 0.0
N1395 N 0.20514 0.70521 0.44575 0.0
H1396 H 0.88864 0.71386 0.4351 0.0
H1397 H 0.79119 0.73483 0.44073 0.0
H1398 H 0.84812 0.68496 0.40264 0.0
H1399 H 0.83452 0.76778 0.4656 0.0
H1400 H 0.81105 0.71511 0.42815 0.0
H1401 H 0.86813 0.73242 0.44816 0.0
C1402 C 0.87538 0.71131 0.43082 0.0
C1403 C 0.87004 0.6976 0.41797 0.0
C1404 C 0.81616 0.72665 0.43641 0.0
C1405 C 0.84643 0.71892 0.43282 0.0
C1406 C 0.80485 0.73794 0.44353 0.0
C1407 C 0.81114 0.75295 0.45436 0.0
C1408 C 0.83387 0.73039 0.44016 0.0
C1409 C 0.82896 0.75622 0.45766 0.0
C1410 C 0.86366 0.72193 0.43827 0.0
C1411 C 0.8527 0.69497 0.41289 0.0
N1412 N 0.83965 0.74505 0.45062 0.0
N1413 N 0.8415 0.70555 0.42032 0.0
H1414 H 0.82637 0.32903 0.42123 0.0
H1415 H 0.83732 0.26011 0.48448 0.0
H1416 H 0.87489 0.31141 0.42834 0.0
H1417 H 0.79012 0.28169 0.48223 0.0
H1418 H 0.85184 0.28051 0.46574 0.0
H1419 H 0.81326 0.31326 0.44488 0.0
C1420 C 0.83431 0.32197 0.42784 0.0
C1421 C 0.85174 0.32145 0.42267 0.0
C1422 C 0.83835 0.28092 0.46948 0.0
C1423 C 0.83679 0.30329 0.4497 0.0
C1424 C 0.83007 0.26934 0.48035 0.0
C1425 C 0.81239 0.26903 0.48487 0.0
C1426 C 0.8289 0.29224 0.46293 0.0
C1427 C 0.80367 0.28121 0.47883 0.0
C1428 C 0.82682 0.31297 0.44136 0.0
C1429 C 0.86139 0.31212 0.43177 0.0
N1430 N 0.81195 0.29217 0.46804 0.0
N1431 N 0.85376 0.30332 0.44471 0.0
H1432 H 0.12884 0.70796 0.67931 0.0
H1433 H 0.05219 0.70604 0.75233 0.0
H1434 H 0.11702 0.66769 0.71203 0.0
H1435 H 0.07256 0.75028 0.72735 0.0
H1436 H 0.07263 0.68987 0.73457 0.0
H1437 H 0.10523 0.72167 0.69384 0.0
C1438 C 0.12123 0.70193 0.6895 0.0
C1439 C 0.12505 0.68668 0.69453 0.0
C1440 C 0.0725 0.70307 0.73287 0.0
C1441 C 0.09784 0.7024 0.71127 0.0
C1442 C 0.06075 0.71225 0.74288 0.0
C1443 C 0.06074 0.72954 0.74134 0.0
C1444 C 0.08421 0.71121 0.72114 0.0
C1445 C 0.07225 0.73702 0.72906 0.0
C1446 C 0.10774 0.7098 0.69782 0.0
C1447 C 0.11463 0.67947 0.70779 0.0
N1448 N 0.08353 0.72784 0.71949 0.0
N1449 N 0.10153 0.68743 0.71575 0.0
H1450 H 0.8617 0.59538 0.69032 0.0
H1451 H 0.77111 0.55829 0.7336 0.0
H1452 H 0.81248 0.6077 0.67663 0.0
H1453 H 0.82104 0.55693 0.75482 0.0
H1454 H 0.78576 0.57167 0.70908 0.0
H1455 H 0.84657 0.57643 0.71019 0.0
C1456 C 0.84768 0.59399 0.69134 0.0
C1457 C 0.83837 0.60333 0.68192 0.0
C1458 C 0.79348 0.56826 0.71902 0.0
C1459 C 0.82095 0.5816 0.70476 0.0
C1460 C 0.78514 0.56065 0.73306 0.0
C1461 C 0.79482 0.55662 0.74648 0.0
C1462 C 0.81165 0.57177 0.71829 0.0
C1463 C 0.81299 0.55965 0.74479 0.0
C1464 C 0.83906 0.58317 0.70274 0.0
C1465 C 0.8202 0.60087 0.68373 0.0
N1466 N 0.82078 0.56715 0.73107 0.0
N1467 N 0.81209 0.59033 0.69504 0.0
H1468 H 0.95348 0.36377 0.71969 0.0
H1469 H 0.97225 0.27549 0.74363 0.0
H1470 H 0.9154 0.31854 0.71334 0.0
H1471 H 0.98348 0.32021 0.7817 0.0
H1472 H 0.95843 0.29224 0.72563 0.0
H1473 H 0.97122 0.34879 0.73646 0.0
C1474 C 0.94893 0.35069 0.72175 0.0
C1475 C 0.93295 0.34235 0.71524 0.0
C1476 C 0.96411 0.29837 0.73785 0.0
C1477 C 0.95324 0.32522 0.73375 0.0
C1478 C 0.97193 0.28885 0.7482 0.0
C1479 C 0.97864 0.29629 0.76453 0.0
C1480 C 0.96337 0.31561 0.74353 0.0
C1481 C 0.97845 0.31387 0.7693 0.0
C1482 C 0.95899 0.34224 0.73131 0.0
C1483 C 0.92758 0.32545 0.71827 0.0
N1484 N 0.97081 0.32295 0.75887 0.0
N1485 N 0.93779 0.31737 0.72714 0.0
H1486 H 0.19189 0.37617 0.70267 0.0
H1487 H 0.26399 0.45778 0.70166 0.0
H1488 H 0.199 0.40559 0.65909 0.0
H1489 H 0.24703 0.43447 0.74815 0.0
H1490 H 0.24054 0.43921 0.68557 0.0
H1491 H 0.21273 0.39732 0.71904 0.0
C1492 C 0.19786 0.38709 0.6965 0.0
C1493 C 0.19372 0.38905 0.67942 0.0
C1494 C 0.24188 0.43829 0.69933 0.0
C1495 C 0.21773 0.41346 0.69823 0.0
C1496 C 0.25519 0.44895 0.70856 0.0
C1497 C 0.25759 0.44757 0.72626 0.0
C1498 C 0.23099 0.4261 0.70783 0.0
C1499 C 0.24591 0.43575 0.73444 0.0
C1500 C 0.20972 0.39924 0.70593 0.0
C1501 C 0.20182 0.40356 0.67222 0.0
N1502 N 0.23324 0.4254 0.72514 0.0
N1503 N 0.21355 0.41518 0.68163 0.0
H1504 H 0.10461 0.3332 0.35005 0.0
H1505 H 0.06348 0.29433 0.25779 0.0
H1506 H 0.11603 0.35652 0.3026 0.0
H1507 H 0.04459 0.27625 0.30646 0.0
H1508 H 0.08231 0.31767 0.27424 0.0
H1509 H 0.08218 0.31253 0.33467 0.0
C1510 C 0.10235 0.33403 0.33644 0.0
C1511 C 0.11231 0.34656 0.32758 0.0
C1512 C 0.07392 0.30872 0.28137 0.0
C1513 C 0.08672 0.32293 0.3099 0.0
C1514 C 0.06319 0.2954 0.27197 0.0
C1515 C 0.05252 0.28333 0.28078 0.0
C1516 C 0.07419 0.30988 0.29973 0.0
C1517 C 0.05255 0.28536 0.29918 0.0
C1518 C 0.08952 0.32226 0.32768 0.0
C1519 C 0.10875 0.34706 0.30996 0.0
N1520 N 0.06337 0.29827 0.30804 0.0
N1521 N 0.09637 0.33536 0.30169 0.0
H1522 H 0.18554 0.59611 0.33599 0.0
H1523 H 0.2797 0.5697 0.32098 0.0
H1524 H 0.2318 0.63236 0.34654 0.0
H1525 H 0.23942 0.54928 0.28436 0.0
H1526 H 0.26058 0.58907 0.3361 0.0
H1527 H 0.20367 0.57512 0.32209 0.0
C1528 C 0.19949 0.59961 0.33544 0.0
C1529 C 0.20721 0.61599 0.34232 0.0
C1530 C 0.25591 0.58023 0.32485 0.0
C1531 C 0.22786 0.59206 0.32692 0.0
C1532 C 0.26671 0.56914 0.31634 0.0
C1533 C 0.26103 0.55792 0.30149 0.0
C1534 C 0.23921 0.57984 0.31867 0.0
C1535 C 0.2442 0.55778 0.2958 0.0
C1536 C 0.20977 0.58768 0.32749 0.0
C1537 C 0.22534 0.61991 0.34126 0.0
N1538 N 0.23379 0.56855 0.30446 0.0
N1539 N 0.23507 0.60797 0.33384 0.0
H1540 H 0.97385 0.68882 0.36237 0.0
H1541 H 0.00614 0.70568 0.27837 0.0
H1542 H 0.92987 0.70756 0.34399 0.0
H1543 H 0.98508 0.75273 0.29338 0.0
H1544 H -0.00736 0.69503 0.30475 0.0
H1545 H -0.00817 0.70069 0.33853 0.0
C1546 C 0.96804 0.69556 0.35341 0.0
C1547 C 0.95036 0.69714 0.35499 0.0
C1548 C -0.00879 0.70776 0.30227 0.0
C1549 C 0.97075 0.71083 0.32813 0.0
C1550 C -0.00102 0.71395 0.28724 0.0
C1551 C -0.00323 0.7302 0.28339 0.0
C1552 C 0.98081 0.71767 0.31333 0.0
C1553 C 0.98684 0.73997 0.29537 0.0
C1554 C 0.97825 0.7022 0.33983 0.0
C1555 C 0.94342 0.70594 0.34307 0.0
N1556 N 0.97896 0.73343 0.3096 0.0
N1557 N 0.95368 0.71261 0.3302 0.0
H1558 H 0.85196 0.42685 0.33212 0.0
H1559 H 0.8037 0.43657 0.24567 0.0
H1560 H 0.82634 0.38431 0.29781 0.0
H1561 H 0.81326 0.478 0.28773 0.0
H1562 H 0.8151 0.41798 0.2633 0.0
H1563 H 0.84104 0.44641 0.31475 0.0
C1564 C 0.8441 0.42162 0.32092 0.0
C1565 C 0.84006 0.40389 0.31643 0.0
C1566 C 0.81466 0.43111 0.26873 0.0
C1567 C 0.82765 0.42621 0.29647 0.0
C1568 C 0.808 0.44178 0.2587 0.0
C1569 C 0.80712 0.45891 0.26529 0.0
C1570 C 0.82081 0.43754 0.28548 0.0
C1571 C 0.81365 0.46493 0.28205 0.0
C1572 C 0.83783 0.4328 0.31107 0.0
C1573 C 0.82976 0.39785 0.30181 0.0
N1574 N 0.8202 0.45426 0.29158 0.0
N1575 N 0.824 0.40897 0.29234 0.0
H1576 H 0.20151 0.56915 0.67618 0.0
H1577 H 0.27031 0.56966 0.75027 0.0
H1578 H 0.21936 0.61299 0.71323 0.0
H1579 H 0.24714 0.52333 0.71966 0.0
H1580 H 0.25308 0.58582 0.73514 0.0
H1581 H 0.21929 0.5523 0.6903 0.0
C1582 C 0.20916 0.57524 0.68726 0.0
C1583 C 0.20891 0.59253 0.69353 0.0
C1584 C 0.25169 0.57212 0.73171 0.0
C1585 C 0.22934 0.57334 0.70968 0.0
C1586 C 0.26148 0.56283 0.74044 0.0
C1587 C 0.25998 0.54502 0.73649 0.0
C1588 C 0.24029 0.56365 0.71875 0.0
C1589 C 0.24872 0.53702 0.72316 0.0
C1590 C 0.2193 0.56561 0.69532 0.0
C1591 C 0.21909 0.59973 0.70794 0.0
N1592 N 0.23925 0.54639 0.71481 0.0
N1593 N 0.22888 0.59012 0.71547 0.0
H1594 H 0.22586 0.3983 0.36348 0.0
H1595 H 0.24834 0.47861 0.31013 0.0
H1596 H 0.18664 0.42378 0.34488 0.0
H1597 H 0.28404 0.4435 0.31556 0.0
H1598 H 0.22637 0.46163 0.32701 0.0
H1599 H 0.24818 0.41794 0.35027 0.0
C1600 C 0.22193 0.40813 0.35678 0.0
C1601 C 0.20432 0.40929 0.35519 0.0
C1602 C 0.23904 0.4577 0.32454 0.0
C1603 C 0.22985 0.43182 0.34002 0.0
C1604 C 0.25157 0.4674 0.31499 0.0
C1605 C 0.26795 0.46234 0.31132 0.0
C1606 C 0.24303 0.44298 0.33065 0.0
C1607 C 0.27148 0.4477 0.31788 0.0
C1608 C 0.23469 0.41928 0.34918 0.0
C1609 C 0.20004 0.42231 0.34633 0.0
N1610 N 0.25913 0.43855 0.32722 0.0
N1611 N 0.21271 0.43303 0.33904 0.0
H1612 H 0.1368 0.7351 0.35363 0.0
H1613 H 0.08199 0.70772 0.2664 0.0
H1614 H 0.12734 0.68331 0.32806 0.0
H1615 H 0.09656 0.75982 0.28948 0.0
H1616 H 0.09653 0.69815 0.29 0.0
H1617 H 0.12034 0.74399 0.33125 0.0
C1618 C 0.13124 0.72557 0.34332 0.0
C1619 C 0.13352 0.70842 0.34272 0.0
C1620 C 0.09649 0.71167 0.28992 0.0
C1621 C 0.11456 0.71856 0.31695 0.0
C1622 C 0.08809 0.71714 0.27653 0.0
C1623 C 0.08811 0.73461 0.27593 0.0
C1624 C 0.10491 0.72376 0.30287 0.0
C1625 C 0.09641 0.74624 0.28929 0.0
C1626 C 0.12183 0.73067 0.33051 0.0
C1627 C 0.12596 0.69667 0.32902 0.0
N1628 N 0.10448 0.74061 0.30217 0.0
N1629 N 0.11683 0.70195 0.31667 0.0
H1630 H 0.85377 0.59214 0.36741 0.0
H1631 H 0.77398 0.56127 0.3039 0.0
H1632 H 0.80886 0.618 0.36914 0.0
H1633 H 0.82581 0.5493 0.29232 0.0
H1634 H 0.78382 0.57683 0.33205 0.0
H1635 H 0.84053 0.57089 0.34434 0.0
C1636 C 0.84102 0.59324 0.36313 0.0
C1637 C 0.83253 0.60704 0.37003 0.0
C1638 C 0.79292 0.57058 0.3234 0.0
C1639 C 0.81732 0.58271 0.34362 0.0
C1640 C 0.78737 0.56175 0.30728 0.0
C1641 C 0.79912 0.55412 0.29551 0.0
C1642 C 0.8103 0.57161 0.32787 0.0
C1643 C 0.81619 0.55481 0.30091 0.0
C1644 C 0.8335 0.58111 0.34992 0.0
C1645 C 0.81596 0.60769 0.36403 0.0
N1646 N 0.82127 0.56351 0.31661 0.0
N1647 N 0.80894 0.59577 0.35104 0.0
H1648 H 0.89786 0.34357 0.30444 0.0
H1649 H 0.95871 0.27129 0.30412 0.0
H1650 H 0.90805 0.32105 0.35013 0.0
H1651 H 0.94892 0.29259 0.25754 0.0
H1652 H 0.94227 0.29149 0.32146 0.0
H1653 H 0.91829 0.32693 0.28733 0.0
C1654 C 0.90448 0.33527 0.31092 0.0
C1655 C 0.90109 0.33364 0.32875 0.0
C1656 C 0.9438 0.29186 0.30746 0.0
C1657 C 0.92445 0.31454 0.30924 0.0
C1658 C 0.95336 0.28039 0.29753 0.0
C1659 C 0.95524 0.28017 0.27928 0.0
C1660 C 0.93592 0.30322 0.29914 0.0
C1661 C 0.94763 0.29212 0.27153 0.0
C1662 C 0.91612 0.32575 0.30113 0.0
C1663 C 0.91009 0.32266 0.33641 0.0
N1664 N 0.93823 0.30308 0.28147 0.0
N1665 N 0.92124 0.31352 0.32662 0.0
H1666 H 0.8212 0.40847 0.68766 0.0
H1667 H 0.82967 0.48406 0.76758 0.0
H1668 H 0.86995 0.42993 0.71144 0.0
H1669 H 0.78106 0.4554 0.74964 0.0
H1670 H 0.84495 0.46699 0.74479 0.0
H1671 H 0.80665 0.42808 0.70809 0.0
C1672 C 0.82888 0.41735 0.69715 0.0
C1673 C 0.84683 0.41747 0.69789 0.0
C1674 C 0.83094 0.46451 0.74579 0.0
C1675 C 0.83017 0.44005 0.72139 0.0
C1676 C 0.82222 0.47433 0.75869 0.0
C1677 C 0.80409 0.47107 0.76053 0.0
C1678 C 0.82143 0.45145 0.73458 0.0
C1679 C 0.79506 0.45819 0.7488 0.0
C1680 C 0.82053 0.42855 0.70884 0.0
C1681 C 0.85607 0.42933 0.71046 0.0
N1682 N 0.80382 0.44884 0.73637 0.0
N1683 N 0.84763 0.44014 0.72175 0.0
H1684 H 0.12121 0.29903 0.69364 0.0
H1685 H 0.06207 0.3142 0.78026 0.0
H1686 H 0.10329 0.34675 0.713 0.0
H1687 H 0.07516 0.26471 0.75958 0.0
H1688 H 0.07707 0.326 0.75528 0.0
H1689 H 0.10401 0.28576 0.71695 0.0
C1690 C 0.11352 0.30667 0.70265 0.0
C1691 C 0.11378 0.32407 0.70144 0.0
C1692 C 0.07664 0.31254 0.75611 0.0
C1693 C 0.09427 0.30902 0.72818 0.0
C1694 C 0.068 0.30576 0.77037 0.0
C1695 C 0.0672 0.28839 0.77195 0.0
C1696 C 0.08471 0.30193 0.74328 0.0
C1697 C 0.07554 0.27819 0.75893 0.0
C1698 C 0.10376 0.2991 0.71599 0.0
C1699 C 0.10358 0.33334 0.71347 0.0
N1700 N 0.08395 0.28512 0.74511 0.0
N1701 N 0.09436 0.32573 0.72638 0.0
H1702 H 0.89666 0.71448 0.66157 0.0
H1703 H 0.96319 0.70944 0.7357 0.0
H1704 H 0.90706 0.66764 0.67823 0.0
H1705 H 0.95555 0.75678 0.71815 0.0
H1706 H 0.94492 0.69393 0.71241 0.0
H1707 H 0.92011 0.73015 0.67995 0.0
C1708 C 0.90398 0.70746 0.6689 0.0
C1709 C 0.89973 0.68972 0.66848 0.0
C1710 C 0.94735 0.7077 0.71351 0.0
C1711 C 0.9265 0.70758 0.6896 0.0
C1712 C 0.95796 0.71661 0.72676 0.0
C1713 C 0.96092 0.73451 0.72901 0.0
C1714 C 0.93944 0.71669 0.70243 0.0
C1715 C 0.95341 0.74301 0.71713 0.0
C1716 C 0.91735 0.71642 0.67942 0.0
C1717 C 0.90971 0.68132 0.67826 0.0
N1718 N 0.9429 0.73404 0.70446 0.0
N1719 N 0.92249 0.69032 0.68849 0.0
H1720 H 0.71758 0.15077 0.61926 0.0
H1721 H 0.79687 0.2225 0.6084 0.0
H1722 H 0.72972 0.19337 0.65949 0.0
H1723 H 0.76206 0.20597 0.5654 0.0
H1724 H 0.77659 0.20647 0.6272 0.0
H1725 H 0.73818 0.16558 0.59907 0.0
C1726 C 0.72469 0.16314 0.62387 0.0
C1727 C 0.72197 0.1709 0.64104 0.0
C1728 C 0.77346 0.20638 0.61362 0.0
C1729 C 0.74558 0.18758 0.61828 0.0
C1730 C 0.78494 0.21569 0.60284 0.0
C1731 C 0.7811 0.21609 0.58523 0.0
C1732 C 0.7582 0.19689 0.60675 0.0
C1733 C 0.76571 0.20612 0.5788 0.0
C1734 C 0.7363 0.17157 0.61235 0.0
C1735 C 0.73139 0.18699 0.64634 0.0
N1736 N 0.75483 0.19689 0.58955 0.0
N1737 N 0.74291 0.19472 0.63507 0.0
H1738 H 0.32586 0.17889 0.58876 0.0
H1739 H 0.31549 0.2702 0.56415 0.0
H1740 H 0.33671 0.22464 0.62537 0.0
H1741 H 0.27792 0.22627 0.54816 0.0
H1742 H 0.32975 0.25284 0.58144 0.0
H1743 H 0.31416 0.19551 0.56861 0.0
C1744 C 0.32593 0.19244 0.59246 0.0
C1745 C 0.33216 0.20042 0.60876 0.0
C1746 C 0.31851 0.24698 0.57396 0.0
C1747 C 0.31923 0.21941 0.58575 0.0
C1748 C 0.31049 0.2568 0.56403 0.0
C1749 C 0.2956 0.24957 0.55475 0.0
C1750 C 0.31178 0.22974 0.57429 0.0
C1751 C 0.28941 0.23223 0.55516 0.0
C1752 C 0.31921 0.20186 0.58103 0.0
C1753 C 0.3319 0.218 0.61298 0.0
N1754 N 0.29758 0.22284 0.56475 0.0
N1755 N 0.32564 0.22694 0.60149 0.0
H1756 H 0.35667 0.84486 0.62117 0.0
H1757 H 0.32592 0.74486 0.60279 0.0
H1758 H 0.37343 0.80824 0.65061 0.0
H1759 H 0.31765 0.77912 0.56628 0.0
H1760 H 0.34393 0.76816 0.62001 0.0
H1761 H 0.34317 0.82135 0.60029 0.0
C1762 C 0.3577 0.83191 0.62315 0.0
C1763 C 0.36607 0.82854 0.6378 0.0
C1764 C 0.33831 0.77063 0.60818 0.0
C1765 C 0.35049 0.8016 0.61402 0.0
C1766 C 0.32794 0.75735 0.59841 0.0
C1767 C 0.32013 0.76015 0.58323 0.0
C1768 C 0.34079 0.78697 0.6029 0.0
C1769 C 0.32342 0.77648 0.57795 0.0
C1770 C 0.34998 0.81849 0.61121 0.0
C1771 C 0.36704 0.81148 0.63961 0.0
N1772 N 0.33335 0.78937 0.5879 0.0
N1773 N 0.35919 0.79868 0.628 0.0
H1774 H 0.67584 0.80377 0.60806 0.0
H1775 H 0.75341 0.81876 0.53956 0.0
H1776 H 0.68755 0.84982 0.58362 0.0
H1777 H 0.73251 0.76877 0.55277 0.0
H1778 H 0.72844 0.82993 0.55423 0.0
H1779 H 0.6955 0.79025 0.58692 0.0
C1780 C 0.68239 0.81097 0.5981 0.0
C1781 C 0.6802 0.828 0.5977 0.0
C1782 C 0.72919 0.81647 0.55372 0.0
C1783 C 0.70287 0.81268 0.5736 0.0
C1784 C 0.74343 0.81002 0.54522 0.0
C1785 C 0.74522 0.79278 0.54502 0.0
C1786 C 0.71672 0.80569 0.56233 0.0
C1787 C 0.73192 0.78222 0.55293 0.0
C1788 C 0.69359 0.80324 0.58601 0.0
C1789 C 0.68892 0.83669 0.58445 0.0
N1790 N 0.71836 0.78889 0.56145 0.0
N1791 N 0.70007 0.82901 0.57308 0.0
H1792 H 0.72008 0.80668 0.37315 0.0
H1793 H 0.74507 0.79272 0.46919 0.0
H1794 H 0.69634 0.82965 0.42035 0.0
H1795 H 0.77839 0.78455 0.42338 0.0
H1796 H 0.72486 0.80295 0.4512 0.0
H1797 H 0.73922 0.79495 0.3911 0.0
C1798 C 0.71884 0.8092 0.38729 0.0
C1799 C 0.70662 0.81922 0.39525 0.0
C1800 C 0.73658 0.79886 0.44511 0.0
C1801 C 0.72845 0.80574 0.41588 0.0
C1802 C 0.74819 0.79308 0.45538 0.0
C1803 C 0.76359 0.78777 0.44788 0.0
C1804 C 0.74023 0.79921 0.42712 0.0
C1805 C 0.76663 0.78821 0.42978 0.0
C1806 C 0.72981 0.80254 0.39752 0.0
C1807 C 0.70562 0.82207 0.41365 0.0
N1808 N 0.75509 0.79382 0.42006 0.0
N1809 N 0.71637 0.81534 0.42334 0.0
H1810 H 0.70894 0.15989 0.42835 0.0
H1811 H 0.74954 0.24591 0.4863 0.0
H1812 H 0.68853 0.20751 0.43145 0.0
H1813 H 0.76959 0.19828 0.48437 0.0
H1814 H 0.72526 0.23124 0.46861 0.0
H1815 H 0.72953 0.1729 0.45097 0.0
C1816 C 0.7087 0.17304 0.43385 0.0
C1817 C 0.69706 0.18265 0.42784 0.0
C1818 C 0.73485 0.22393 0.47221 0.0
C1819 C 0.72065 0.19764 0.45376 0.0
C1820 C 0.7487 0.23231 0.48231 0.0
C1821 C 0.76166 0.22333 0.4867 0.0
C1822 C 0.73399 0.20645 0.4663 0.0
C1823 C 0.75984 0.20569 0.48136 0.0
C1824 C 0.72046 0.18047 0.44679 0.0
C1825 C 0.69733 0.19962 0.43555 0.0
N1826 N 0.74639 0.19786 0.47127 0.0
N1827 N 0.70899 0.20658 0.44799 0.0
H1828 H 0.31521 0.20099 0.37499 0.0
H1829 H 0.32265 0.26743 0.46228 0.0
H1830 H 0.3472 0.25013 0.38043 0.0
H1831 H 0.27486 0.23532 0.44715 0.0
H1832 H 0.33755 0.25301 0.43732 0.0
H1833 H 0.30606 0.20627 0.40611 0.0
C1834 C 0.32062 0.21266 0.38288 0.0
C1835 C 0.33178 0.22527 0.37527 0.0
C1836 C 0.3239 0.24881 0.43978 0.0
C1837 C 0.32179 0.23115 0.41051 0.0
C1838 C 0.31542 0.25692 0.45408 0.0
C1839 C 0.29746 0.2527 0.45659 0.0
C1840 C 0.31436 0.23636 0.42801 0.0
C1841 C 0.28869 0.23908 0.44546 0.0
C1842 C 0.3154 0.21566 0.40052 0.0
C1843 C 0.33841 0.24021 0.38587 0.0
N1844 N 0.29719 0.23154 0.43144 0.0
N1845 N 0.33327 0.24278 0.40296 0.0
H1846 H 0.37257 0.81408 0.43852 0.0
H1847 H 0.28347 0.77992 0.48653 0.0
H1848 H 0.32319 0.8281 0.42783 0.0
H1849 H 0.33103 0.75892 0.48871 0.0
H1850 H 0.29875 0.80127 0.46913 0.0
H1851 H 0.35843 0.79759 0.46101 0.0
C1852 C 0.35876 0.81383 0.44099 0.0
C1853 C 0.34903 0.82236 0.43111 0.0
C1854 C 0.30587 0.7921 0.47359 0.0
C1855 C 0.33272 0.80341 0.45692 0.0
C1856 C 0.29716 0.77987 0.4835 0.0
C1857 C 0.3059 0.76742 0.48896 0.0
C1858 C 0.3235 0.79196 0.46913 0.0
C1859 C 0.32373 0.76827 0.48494 0.0
C1860 C 0.35069 0.80437 0.45385 0.0
C1861 C 0.33119 0.82163 0.43503 0.0
N1862 N 0.33188 0.78021 0.47515 0.0
N1863 N 0.32359 0.81221 0.44754 0.0
H1864 H 0.64213 0.18408 0.72721 0.0
H1865 H 0.55057 0.21853 0.72857 0.0
H1866 H 0.61117 0.17935 0.68134 0.0
H1867 H 0.58644 0.23044 0.77089 0.0
H1868 H 0.57071 0.20101 0.71208 0.0
H1869 H 0.61988 0.19789 0.74445 0.0
C1870 C 0.6306 0.18581 0.72077 0.0
C1871 C 0.62861 0.18064 0.70275 0.0
C1872 C 0.57412 0.20744 0.725 0.0
C1873 C 0.60304 0.19655 0.72246 0.0
C1874 C 0.56261 0.21736 0.73442 0.0
C1875 C 0.56694 0.22613 0.75102 0.0
C1876 C 0.58997 0.20613 0.73234 0.0
C1877 C 0.58272 0.22418 0.758 0.0
C1878 C 0.6179 0.19376 0.73063 0.0
C1879 C 0.61333 0.18321 0.69517 0.0
N1880 N 0.59364 0.21445 0.74863 0.0
N1881 N 0.60117 0.19105 0.70504 0.0
H1882 H 0.31301 0.1068 0.68239 0.0
H1883 H 0.31768 0.05206 0.76054 0.0
H1884 H 0.36035 0.09195 0.69803 0.0
H1885 H 0.26938 0.05819 0.73873 0.0
H1886 H 0.33331 0.06496 0.73641 0.0
H1887 H 0.29656 0.08783 0.70169 0.0
C1888 C 0.31994 0.09943 0.68973 0.0
C1889 C 0.33811 0.10112 0.68871 0.0
C1890 C 0.31928 0.06331 0.73677 0.0
C1891 C 0.31938 0.07948 0.71091 0.0
C1892 C 0.3103 0.05578 0.75051 0.0
C1893 C 0.29213 0.05412 0.75183 0.0
C1894 C 0.31009 0.06943 0.72429 0.0
C1895 C 0.28339 0.05952 0.7385 0.0
C1896 C 0.31054 0.08859 0.70074 0.0
C1897 C 0.34637 0.09118 0.69848 0.0
N1898 N 0.29245 0.06712 0.72543 0.0
N1899 N 0.33697 0.08095 0.70928 0.0
H1900 H 0.44473 0.85513 0.71854 0.0
H1901 H 0.45637 0.77703 0.76892 0.0
H1902 H 0.40223 0.81589 0.72784 0.0
H1903 H 0.48661 0.82685 0.78059 0.0
H1904 H 0.43892 0.78888 0.74939 0.0
H1905 H 0.46299 0.84254 0.73677 0.0
C1906 C 0.43927 0.84382 0.72434 0.0
C1907 C 0.42191 0.83658 0.72175 0.0
C1908 C 0.44944 0.79714 0.75622 0.0
C1909 C 0.44276 0.82204 0.74237 0.0
C1910 C 0.45938 0.79043 0.76746 0.0
C1911 C 0.47304 0.80091 0.7766 0.0
C1912 C 0.45332 0.81438 0.75381 0.0
C1913 C 0.47649 0.81812 0.77369 0.0
C1914 C 0.44967 0.8367 0.73477 0.0
C1915 C 0.4155 0.82195 0.7296 0.0
N1916 N 0.46674 0.82428 0.76254 0.0
N1917 N 0.42595 0.8151 0.73949 0.0
H1918 H 0.7241 0.87163 0.67048 0.0
H1919 H 0.77646 0.93835 0.71769 0.0
H1920 H 0.68627 0.90613 0.67286 0.0
H1921 H 0.72734 0.95269 0.73752 0.0
H1922 H 0.76144 0.9195 0.69377 0.0
H1923 H 0.74354 0.89375 0.68766 0.0
C1924 C 0.72002 0.88399 0.67433 0.0
C1925 C 0.7035 0.88701 0.6703 0.0
C1926 C 0.75396 0.92675 0.70338 0.0
C1927 C 0.72576 0.91249 0.6899 0.0
C1928 C 0.76253 0.93756 0.71701 0.0
C1929 C 0.75314 0.94692 0.72986 0.0
C1930 C 0.73586 0.92527 0.70258 0.0
C1931 C 0.73517 0.94579 0.72796 0.0
C1932 C 0.73121 0.89669 0.68402 0.0
C1933 C 0.69889 0.90325 0.67566 0.0
N1934 N 0.72711 0.93506 0.71467 0.0
N1935 N 0.70984 0.91528 0.68547 0.0
H1936 H 0.60198 0.8248 0.35461 0.0
H1937 H 0.55746 0.79401 0.26257 0.0
H1938 H 0.61222 0.85221 0.30971 0.0
H1939 H 0.53883 0.77309 0.30989 0.0
H1940 H 0.57702 0.816 0.27995 0.0
H1941 H 0.57837 0.80607 0.33888 0.0
C1942 C 0.59922 0.82694 0.3415 0.0
C1943 C 0.6092 0.84002 0.33343 0.0
C1944 C 0.56851 0.80676 0.2866 0.0
C1945 C 0.58226 0.81862 0.31535 0.0
C1946 C 0.55734 0.79422 0.27667 0.0
C1947 C 0.54656 0.78173 0.28482 0.0
C1948 C 0.56911 0.80665 0.3048 0.0
C1949 C 0.54686 0.78257 0.30313 0.0
C1950 C 0.5857 0.81628 0.33255 0.0
C1951 C 0.60496 0.84225 0.31644 0.0
N1952 N 0.55814 0.79469 0.3125 0.0
N1953 N 0.59193 0.83158 0.30794 0.0
H1954 H 0.69657 0.11966 0.3278 0.0
H1955 H 0.75995 0.05225 0.33187 0.0
H1956 H 0.69768 0.09373 0.37332 0.0
H1957 H 0.73835 0.05911 0.28309 0.0
H1958 H 0.73915 0.06899 0.34773 0.0
H1959 H 0.71421 0.09961 0.31149 0.0
C1960 C 0.70049 0.10972 0.33434 0.0
C1961 C 0.69568 0.10836 0.35194 0.0
C1962 C 0.73891 0.06668 0.33356 0.0
C1963 C 0.716 0.08557 0.33344 0.0
C1964 C 0.75071 0.05699 0.32444 0.0
C1965 C 0.75108 0.05424 0.306 0.0
C1966 C 0.72758 0.07398 0.32423 0.0
C1967 C 0.73892 0.06117 0.29724 0.0
C1968 C 0.71047 0.09825 0.32501 0.0
C1969 C 0.70107 0.0952 0.35976 0.0
N1970 N 0.72783 0.07088 0.30641 0.0
N1971 N 0.71111 0.08443 0.35052 0.0
H1972 H 0.40004 0.26061 0.33057 0.0
H1973 H 0.47817 0.23726 0.27122 0.0
H1974 H 0.39639 0.2126 0.29699 0.0
H1975 H 0.48452 0.2715 0.31944 0.0
H1976 H 0.44922 0.22571 0.28161 0.0
H1977 H 0.43154 0.26343 0.32779 0.0
C1978 C 0.40592 0.25061 0.32268 0.0
C1979 C 0.39566 0.23649 0.31377 0.0
C1980 C 0.45716 0.23537 0.29015 0.0
C1981 C 0.4317 0.23966 0.31043 0.0
C1982 C 0.47367 0.24191 0.28425 0.0
C1983 C 0.48358 0.25549 0.29441 0.0
C1984 C 0.45048 0.24275 0.30612 0.0
C1985 C 0.47725 0.26107 0.31119 0.0
C1986 C 0.4239 0.25214 0.32123 0.0
C1987 C 0.4039 0.22376 0.30395 0.0
N1988 N 0.4609 0.25498 0.31635 0.0
N1989 N 0.42149 0.2258 0.30224 0.0
H1990 H 0.3097 0.87994 0.31922 0.0
H1991 H 0.30233 0.97607 0.30462 0.0
H1992 H 0.34506 0.92332 0.34167 0.0
H1993 H 0.27204 0.93156 0.27744 0.0
H1994 H 0.31703 0.95738 0.31985 0.0
H1995 H 0.29484 0.89903 0.3051 0.0
C1996 C 0.31437 0.89349 0.32117 0.0
C1997 C 0.3287 0.90001 0.33163 0.0
C1998 C 0.30718 0.95173 0.31054 0.0
C1999 C 0.31161 0.92205 0.3155 0.0
C2000 C 0.29872 0.96239 0.30192 0.0
C2001 C 0.28606 0.95538 0.2896 0.0
C2002 C 0.30281 0.93393 0.30692 0.0
C2003 C 0.28194 0.93754 0.28657 0.0
C2004 C 0.30586 0.90441 0.31309 0.0
C2005 C 0.33411 0.91772 0.33368 0.0
N2006 N 0.29027 0.92748 0.29514 0.0
N2007 N 0.32555 0.92812 0.32572 0.0
H2008 H 0.72139 0.11951 0.72305 0.0
H2009 H 0.74709 0.02685 0.72836 0.0
H2010 H 0.70834 0.07666 0.68326 0.0
H2011 H 0.75985 0.07053 0.76725 0.0
H2012 H 0.73254 0.04447 0.71166 0.0
H2013 H 0.73548 0.10146 0.73931 0.0
C2014 C 0.72149 0.1063 0.7177 0.0
C2015 C 0.71365 0.09962 0.70173 0.0
C2016 C 0.73858 0.05018 0.72383 0.0
C2017 C 0.72981 0.07876 0.72038 0.0
C2018 C 0.74682 0.04011 0.7334 0.0
C2019 C 0.7549 0.04723 0.74916 0.0
C2020 C 0.73832 0.06748 0.7301 0.0
C2021 C 0.75417 0.06453 0.75501 0.0
C2022 C 0.72955 0.09596 0.72702 0.0
C2023 C 0.71422 0.08237 0.6955 0.0
N2024 N 0.74607 0.07401 0.74551 0.0
N2025 N 0.72215 0.07254 0.70483 0.0
H2026 H 0.7106 0.87645 0.32546 0.0
H2027 H 0.76012 0.96995 0.33154 0.0
H2028 H 0.69307 0.91556 0.36329 0.0
H2029 H 0.74935 0.93922 0.28163 0.0
H2030 H 0.73907 0.94973 0.34565 0.0
H2031 H 0.72945 0.89851 0.31164 0.0
C2032 C 0.71084 0.88967 0.33096 0.0
C2033 C 0.70027 0.8942 0.34554 0.0
C2034 C 0.74131 0.94757 0.33159 0.0
C2035 C 0.72188 0.91941 0.32986 0.0
C2036 C 0.75323 0.95915 0.32346 0.0
C2037 C 0.7568 0.95626 0.3053 0.0
C2038 C 0.7332 0.93283 0.32159 0.0
C2039 C 0.74753 0.9418 0.29569 0.0
C2040 C 0.72148 0.90223 0.32298 0.0
C2041 C 0.70099 0.91156 0.35203 0.0
N2042 N 0.7364 0.93052 0.30398 0.0
N2043 N 0.71176 0.92357 0.34423 0.0
H2044 H 0.60791 0.21931 0.38429 0.0
H2045 H 0.59288 0.23838 0.28706 0.0
H2046 H 0.63077 0.19366 0.33802 0.0
H2047 H 0.57499 0.26708 0.33417 0.0
H2048 H 0.60466 0.22008 0.30512 0.0
H2049 H 0.59332 0.23485 0.36573 0.0
C2050 C 0.60979 0.21685 0.3702 0.0
C2051 C 0.6207 0.20522 0.36273 0.0
C2052 C 0.59805 0.23032 0.31148 0.0
C2053 C 0.60402 0.22311 0.34132 0.0
C2054 C 0.59139 0.24083 0.30118 0.0
C2055 C 0.58293 0.25435 0.30906 0.0
C2056 C 0.59627 0.23333 0.32982 0.0
C2057 C 0.58117 0.25671 0.32744 0.0
C2058 C 0.60146 0.22577 0.3596 0.0
C2059 C 0.62254 0.20254 0.34437 0.0
N2060 N 0.58783 0.24637 0.33715 0.0
N2061 N 0.61436 0.21149 0.3343 0.0
H2062 H 0.34921 0.13553 0.32837 0.0
H2063 H 0.28051 0.05085 0.32437 0.0
H2064 H 0.31441 0.12217 0.37126 0.0
H2065 H 0.30727 0.06982 0.27904 0.0
H2066 H 0.29854 0.07282 0.34326 0.0
H2067 H 0.33966 0.10761 0.31213 0.0
C2068 C 0.33978 0.12663 0.33452 0.0
C2069 C 0.33231 0.13135 0.35107 0.0
C2070 C 0.30067 0.072 0.32919 0.0
C2071 C 0.3213 0.0994 0.33247 0.0
C2072 C 0.29047 0.05937 0.31838 0.0
C2073 C 0.29227 0.05863 0.30008 0.0
C2074 C 0.31274 0.08398 0.32165 0.0
C2075 C 0.30527 0.07014 0.29308 0.0
C2076 C 0.33431 0.1107 0.3252 0.0
C2077 C 0.32032 0.11919 0.35844 0.0
N2078 N 0.31488 0.08247 0.30387 0.0
N2079 N 0.315 0.10384 0.34898 0.0
H2080 H 0.39159 0.84222 0.31135 0.0
H2081 H 0.45397 0.77091 0.30769 0.0
H2082 H 0.40586 0.82121 0.3565 0.0
H2083 H 0.44201 0.79226 0.26186 0.0
H2084 H 0.43813 0.79105 0.32586 0.0
H2085 H 0.41141 0.8257 0.2931 0.0
C2086 C 0.39897 0.83428 0.31746 0.0
C2087 C 0.39692 0.83303 0.33549 0.0
C2088 C 0.43906 0.79145 0.31184 0.0
C2089 C 0.41956 0.81407 0.31468 0.0
C2090 C 0.44828 0.78001 0.30143 0.0
C2091 C 0.44938 0.77981 0.28315 0.0
C2092 C 0.43069 0.80279 0.304 0.0
C2093 C 0.44133 0.79176 0.27586 0.0
C2094 C 0.41027 0.82483 0.30703 0.0
C2095 C 0.40686 0.82252 0.34266 0.0
N2096 N 0.43224 0.80267 0.28628 0.0
N2097 N 0.41763 0.81342 0.33225 0.0
H2098 H 0.36509 0.92402 0.71649 0.0
H2099 H 0.27545 0.95635 0.74717 0.0
H2100 H 0.31902 0.91247 0.68569 0.0
H2101 H 0.32362 0.97827 0.77167 0.0
H2102 H 0.29148 0.9402 0.72449 0.0
H2103 H 0.35055 0.94396 0.73694 0.0
C2104 C 0.35198 0.92574 0.71397 0.0
C2105 C 0.34322 0.91646 0.69941 0.0
C2106 C 0.29862 0.94866 0.7347 0.0
C2107 C 0.32653 0.93916 0.72276 0.0
C2108 C 0.28945 0.95785 0.74765 0.0
C2109 C 0.29824 0.96858 0.7613 0.0
C2110 C 0.31672 0.95 0.73551 0.0
C2111 C 0.3164 0.97017 0.76129 0.0
C2112 C 0.34371 0.93715 0.72561 0.0
C2113 C 0.32627 0.91926 0.69676 0.0
N2114 N 0.32505 0.9608 0.7487 0.0
N2115 N 0.31845 0.93023 0.70838 0.0
H2116 H 0.6315 0.79782 0.68598 0.0
H2117 H 0.57024 0.82153 0.7684 0.0
H2118 H 0.61566 0.84741 0.70006 0.0
H2119 H 0.57717 0.76958 0.74957 0.0
H2120 H 0.58644 0.83083 0.74288 0.0
H2121 H 0.61126 0.78677 0.70845 0.0
C2122 C 0.62364 0.80634 0.69364 0.0
C2123 C 0.6254 0.82362 0.69124 0.0
C2124 C 0.58432 0.81737 0.74421 0.0
C2125 C 0.60238 0.8111 0.71702 0.0
C2126 C 0.57492 0.81199 0.75877 0.0
C2127 C 0.57218 0.79468 0.76115 0.0
C2128 C 0.5913 0.80543 0.73193 0.0
C2129 C 0.5791 0.78307 0.74839 0.0
C2130 C 0.61211 0.80002 0.70647 0.0
C2131 C 0.61485 0.83404 0.70151 0.0
N2132 N 0.58843 0.78866 0.73437 0.0
N2133 N 0.60393 0.82766 0.71404 0.0
H2134 H 0.41308 0.16398 0.68094 0.0
H2135 H 0.46047 0.25559 0.72128 0.0
H2136 H 0.40001 0.2113 0.66794 0.0
H2137 H 0.46791 0.20803 0.73846 0.0
H2138 H 0.44194 0.23961 0.6981 0.0
H2139 H 0.43702 0.17995 0.69807 0.0
C2140 C 0.41536 0.17773 0.6815 0.0
C2141 C 0.40433 0.18631 0.67315 0.0
C2142 C 0.44782 0.23269 0.70681 0.0
C2143 C 0.43175 0.20474 0.69297 0.0
C2144 C 0.45836 0.2418 0.7201 0.0
C2145 C 0.46569 0.23319 0.73199 0.0
C2146 C 0.44458 0.21482 0.70538 0.0
C2147 C 0.46273 0.21528 0.72957 0.0
C2148 C 0.42905 0.18686 0.69134 0.0
C2149 C 0.40809 0.20415 0.67424 0.0
N2150 N 0.4523 0.20674 0.71667 0.0
N2151 N 0.42136 0.21279 0.68415 0.0
H2152 H 0.72656 0.66833 0.14123 0.0
H2153 H 0.72571 0.74134 0.07958 0.0
H2154 H 0.68139 0.69105 0.13256 0.0
H2155 H 0.77191 0.7203 0.08826 0.0
H2156 H 0.70899 0.72117 0.09714 0.0
H2157 H 0.7431 0.68556 0.12033 0.0
C2158 C 0.72008 0.67683 0.13487 0.0
C2159 C 0.70256 0.67829 0.13878 0.0
C2160 C 0.72276 0.72085 0.09513 0.0
C2161 C 0.72142 0.69805 0.11488 0.0
C2162 C 0.73233 0.73231 0.08494 0.0
C2163 C 0.7503 0.73256 0.08236 0.0
C2164 C 0.73115 0.70953 0.10296 0.0
C2165 C 0.75814 0.72072 0.09004 0.0
C2166 C 0.72954 0.68668 0.12296 0.0
C2167 C 0.69487 0.68953 0.1301 0.0
N2168 N 0.74854 0.70975 0.10005 0.0
N2169 N 0.70435 0.69898 0.11866 0.0
H2170 H 0.28922 0.67599 0.10986 0.0
H2171 H 0.28845 0.74149 0.04137 0.0
H2172 H 0.33641 0.69686 0.08415 0.0
H2173 H 0.24601 0.70108 0.04639 0.0
H2174 H 0.30583 0.72818 0.05993 0.0
H2175 H 0.27249 0.6882 0.08984 0.0
C2176 C 0.29606 0.68322 0.10007 0.0
C2177 C 0.31423 0.68543 0.09867 0.0
C2178 C 0.29277 0.72217 0.05684 0.0
C2179 C 0.29518 0.69951 0.07587 0.0
C2180 C 0.28288 0.72974 0.04631 0.0
C2181 C 0.26586 0.72227 0.04233 0.0
C2182 C 0.2854 0.70729 0.06381 0.0
C2183 C 0.25915 0.70711 0.04906 0.0
C2184 C 0.28651 0.69007 0.08859 0.0
C2185 C 0.32242 0.69482 0.08565 0.0
N2186 N 0.26887 0.7002 0.05967 0.0
N2187 N 0.31284 0.70165 0.07485 0.0
H2188 H 0.37177 0.30875 0.15186 0.0
H2189 H 0.32346 0.28484 0.06112 0.0
H2190 H 0.3742 0.34477 0.11446 0.0
H2191 H 0.30174 0.26858 0.1099 0.0
H2192 H 0.3477 0.30196 0.07731 0.0
H2193 H 0.3521 0.28846 0.13274 0.0
C2194 C 0.36847 0.31227 0.13947 0.0
C2195 C 0.37451 0.32855 0.13482 0.0
C2196 C 0.33766 0.29442 0.08431 0.0
C2197 C 0.35212 0.30534 0.11292 0.0
C2198 C 0.32372 0.28472 0.07514 0.0
C2199 C 0.31028 0.27518 0.08405 0.0
C2200 C 0.33841 0.29429 0.10243 0.0
C2201 C 0.31178 0.27532 0.10223 0.0
C2202 C 0.35717 0.30072 0.12864 0.0
C2203 C 0.36972 0.33242 0.11861 0.0
N2204 N 0.32555 0.28469 0.11076 0.0
N2205 N 0.35874 0.3209 0.10824 0.0
H2206 H 0.72098 0.32948 0.11656 0.0
H2207 H 0.71208 0.26353 0.0311 0.0
H2208 H 0.67835 0.32666 0.08211 0.0
H2209 H 0.76173 0.28474 0.05314 0.0
H2210 H 0.69892 0.28579 0.04953 0.0
H2211 H 0.73563 0.31207 0.09384 0.0
C2212 C 0.71475 0.32525 0.10414 0.0
C2213 C 0.69841 0.3294 0.10121 0.0
C2214 C 0.71273 0.28567 0.05012 0.0
C2215 C 0.715 0.30931 0.07523 0.0
C2216 C 0.7203 0.273 0.03956 0.0
C2217 C 0.73805 0.27208 0.04072 0.0
C2218 C 0.72292 0.29731 0.06209 0.0
C2219 C 0.74794 0.28464 0.05212 0.0
C2220 C 0.72316 0.3154 0.09115 0.0
C2221 C 0.69096 0.32372 0.08485 0.0
N2222 N 0.7402 0.29657 0.06253 0.0
N2223 N 0.69921 0.3137 0.07251 0.0
H2224 H 0.71556 0.35186 0.92724 0.0
H2225 H 0.7126 0.25554 0.94431 0.0
H2226 H 0.68441 0.31031 0.89641 0.0
H2227 H 0.75948 0.29162 0.95037 0.0
H2228 H 0.6987 0.27683 0.93205 0.0
H2229 H 0.72872 0.33109 0.94102 0.0
C2230 C 0.71146 0.33838 0.92341 0.0
C2231 C 0.69894 0.33278 0.91061 0.0
C2232 C 0.71199 0.28008 0.93618 0.0
C2233 C 0.71366 0.30907 0.92654 0.0
C2234 C 0.71985 0.26804 0.94327 0.0
C2235 C 0.73715 0.27192 0.94834 0.0
C2236 C 0.72142 0.29621 0.93452 0.0
C2237 C 0.7461 0.2882 0.94657 0.0
C2238 C 0.719 0.32657 0.93124 0.0
C2239 C 0.69412 0.31516 0.90613 0.0
N2240 N 0.7381 0.29981 0.93989 0.0
N2241 N 0.70138 0.30391 0.91418 0.0
H2242 H 0.70131 0.66567 0.91458 0.0
H2243 H 0.71535 0.74047 -0.00519 0.0
H2244 H 0.66288 0.6977 0.9339 0.0
H2245 H 0.75667 0.71501 0.9697 0.0
H2246 H 0.69455 0.72089 0.9764 0.0
H2247 H 0.72023 0.67982 0.93825 0.0
C2248 C 0.69674 0.67552 0.92391 0.0
C2249 C 0.68055 0.68064 0.92211 0.0
C2250 C 0.70815 0.71944 0.97506 0.0
C2251 C 0.70216 0.69687 0.94921 0.0
C2252 C 0.72002 0.73053 0.98568 0.0
C2253 C 0.73781 0.72946 0.9837 0.0
C2254 C 0.71407 0.70718 0.96233 0.0
C2255 C 0.7431 0.71644 0.97148 0.0
C2256 C 0.70758 0.68362 0.93739 0.0
C2257 C 0.67533 0.69345 0.93464 0.0
N2258 N 0.73131 0.7059 0.96115 0.0
N2259 N 0.68614 0.70119 0.94757 0.0
H2260 H 0.33331 0.65418 0.92531 0.0
H2261 H 0.2892 0.73941 0.9401 0.0
H2262 H 0.36056 0.70426 0.91943 0.0
H2263 H 0.26272 0.69029 0.95063 0.0
H2264 H 0.31474 0.72618 0.92996 0.0
H2265 H 0.3066 0.6666 0.9322 0.0
C2266 C 0.33362 0.66772 0.92515 0.0
C2267 C 0.34914 0.67816 0.92158 0.0
C2268 C 0.30333 0.71827 0.93444 0.0
C2269 C 0.31875 0.69253 0.92981 0.0
C2270 C 0.2887 0.72581 0.94012 0.0
C2271 C 0.27383 0.71597 0.94631 0.0
C2272 C 0.3031 0.70074 0.93489 0.0
C2273 C 0.27401 0.69842 0.94622 0.0
C2274 C 0.31841 0.67484 0.92927 0.0
C2275 C 0.34889 0.69573 0.92215 0.0
N2276 N 0.28842 0.69137 0.94065 0.0
N2277 N 0.33396 0.70235 0.92618 0.0
H2278 H 0.33943 0.34048 0.9281 0.0
H2279 H 0.31746 0.25854 0.9779 0.0
H2280 H 0.37022 0.29943 0.92206 0.0
H2281 H 0.29503 0.30445 -0.00632 0.0
H2282 H 0.33765 0.2738 0.95811 0.0
H2283 H 0.32339 0.32801 0.95257 0.0
C2284 C 0.34288 0.32891 0.93197 0.0
C2285 C 0.35611 0.32093 0.9229 0.0
C2286 C 0.32852 0.28065 0.96609 0.0
C2287 C 0.33778 0.30658 0.95084 0.0
C2288 C 0.31705 0.27195 0.97742 0.0
C2289 C 0.30462 0.28027 0.98743 0.0
C2290 C 0.32733 0.29774 0.96448 0.0
C2291 C 0.30454 0.29762 0.98628 0.0
C2292 C 0.33377 0.32184 0.94598 0.0
C2293 C 0.36008 0.30601 0.92857 0.0
N2294 N 0.31555 0.30573 0.9748 0.0
N2295 N 0.35087 0.29926 0.94203 0.0
H2296 H 0.61512 0.71091 0.17618 0.0
H2297 H 0.54035 0.70843 0.25114 0.0
H2298 H 0.60678 0.67235 0.21113 0.0
H2299 H 0.55835 0.75226 0.22466 0.0
H2300 H 0.56105 0.69264 0.23327 0.0
H2301 H 0.591 0.72382 0.19068 0.0
C2302 C 0.60817 0.70508 0.18686 0.0
C2303 C 0.61311 0.69057 0.19252 0.0
C2304 C 0.56032 0.70565 0.23126 0.0
C2305 C 0.58531 0.70536 0.20921 0.0
C2306 C 0.54841 0.7146 0.24131 0.0
C2307 C 0.54769 0.73168 0.23937 0.0
C2308 C 0.57145 0.71381 0.21908 0.0
C2309 C 0.55859 0.73915 0.22663 0.0
C2310 C 0.59438 0.7125 0.19516 0.0
C2311 C 0.6035 0.68358 0.2064 0.0
N2312 N 0.57003 0.7302 0.21703 0.0
N2313 N 0.59009 0.69108 0.21432 0.0
H2314 H 0.30743 0.59883 0.17634 0.0
H2315 H 0.32505 0.54673 0.25286 0.0
H2316 H 0.35733 0.58485 0.18511 0.0
H2317 H 0.27337 0.55099 0.23796 0.0
H2318 H 0.33667 0.55895 0.22679 0.0
H2319 H 0.29426 0.58002 0.19748 0.0
C2320 C 0.31558 0.59166 0.18252 0.0
C2321 C 0.33356 0.5936 0.17909 0.0
C2322 C 0.32276 0.55704 0.22908 0.0
C2323 C 0.3186 0.57218 0.20339 0.0
C2324 C 0.31605 0.54988 0.24396 0.0
C2325 C 0.29813 0.54785 0.24779 0.0
C2326 C 0.31156 0.56249 0.21796 0.0
C2327 C 0.28729 0.55261 0.2358 0.0
C2328 C 0.30805 0.58092 0.1946 0.0
C2329 C 0.34346 0.58391 0.18745 0.0
N2330 N 0.29418 0.5599 0.22156 0.0
N2331 N 0.33589 0.5738 0.19933 0.0
H2332 H 0.46574 0.35617 0.2048 0.0
H2333 H 0.48989 0.27114 0.23465 0.0
H2334 H 0.42953 0.30993 0.20583 0.0
H2335 H 0.50911 0.32054 0.26214 0.0
H2336 H 0.47399 0.285 0.21547 0.0
H2337 H 0.48746 0.34276 0.21813 0.0
C2338 C 0.46246 0.34315 0.20763 0.0
C2339 C 0.44581 0.33415 0.20438 0.0
C2340 C 0.48196 0.29279 0.22551 0.0
C2341 C 0.47055 0.31875 0.21904 0.0
C2342 C 0.49105 0.28492 0.23645 0.0
C2343 C 0.50053 0.29464 0.25034 0.0
C2344 C 0.48259 0.31053 0.2282 0.0
C2345 C 0.50193 0.3125 0.25169 0.0
C2346 C 0.4748 0.33557 0.21523 0.0
C2347 C 0.44216 0.31735 0.2083 0.0
N2348 N 0.49285 0.31989 0.24089 0.0
N2349 N 0.45444 0.31017 0.21536 0.0
H2350 H 0.73985 0.39119 0.15837 0.0
H2351 H 0.74452 0.46447 0.23546 0.0
H2352 H 0.69386 0.41321 0.17578 0.0
H2353 H 0.78726 0.46074 0.19837 0.0
H2354 H 0.72532 0.4458 0.21423 0.0
H2355 H 0.7576 0.41654 0.17291 0.0
C2356 C 0.73354 0.40155 0.16497 0.0
C2357 C 0.71543 0.40017 0.16595 0.0
C2358 C 0.73882 0.44941 0.2106 0.0
C2359 C 0.73553 0.42886 0.183 0.0
C2360 C 0.7497 0.45999 0.22268 0.0
C2361 C 0.76734 0.46406 0.21848 0.0
C2362 C 0.74584 0.44257 0.19454 0.0
C2363 C 0.77365 0.45786 0.20192 0.0
C2364 C 0.74364 0.41599 0.17324 0.0
C2365 C 0.70783 0.41388 0.17469 0.0
N2366 N 0.76296 0.44714 0.19063 0.0
N2367 N 0.71792 0.42754 0.18326 0.0
H2368 H 0.62091 0.35774 0.80965 0.0
H2369 H 0.54994 0.27515 0.81527 0.0
H2370 H 0.606 0.3371 0.85808 0.0
H2371 H 0.57487 0.28927 0.7671 0.0
H2372 H 0.56669 0.3004 0.83138 0.0
H2373 H 0.60051 0.33524 0.79419 0.0
C2374 C 0.61328 0.34853 0.81708 0.0
C2375 C 0.61529 0.34924 0.83519 0.0
C2376 C 0.56837 0.29803 0.81727 0.0
C2377 C 0.59183 0.3234 0.81749 0.0
C2378 C 0.55873 0.28372 0.80807 0.0
C2379 C 0.5611 0.28011 0.78985 0.0
C2380 C 0.58033 0.30885 0.80814 0.0
C2381 C 0.57279 0.29152 0.78117 0.0
C2382 C 0.60164 0.33566 0.80821 0.0
C2383 C 0.60496 0.33697 0.84409 0.0
N2384 N 0.582 0.30534 0.79039 0.0
N2385 N 0.5937 0.3245 0.83513 0.0
H2386 H 0.68033 0.59221 0.85126 0.0
H2387 H 0.76389 0.58945 0.78724 0.0
H2388 H 0.70539 0.63485 0.82605 0.0
H2389 H 0.73641 0.54468 0.80719 0.0
H2390 H 0.74247 0.60609 0.80167 0.0
H2391 H 0.70057 0.57446 0.83559 0.0
C2392 C 0.69003 0.59783 0.84238 0.0
C2393 C 0.69118 0.61507 0.83999 0.0
C2394 C 0.74102 0.59261 0.80285 0.0
C2395 C 0.71441 0.59485 0.82211 0.0
C2396 C 0.75322 0.58303 0.79448 0.0
C2397 C 0.75188 0.56553 0.79579 0.0
C2398 C 0.72735 0.58476 0.81279 0.0
C2399 C 0.73801 0.55812 0.80586 0.0
C2400 C 0.70158 0.58768 0.83345 0.0
C2401 C 0.70401 0.62164 0.82833 0.0
N2402 N 0.72628 0.56778 0.81399 0.0
N2403 N 0.71513 0.61156 0.81989 0.0
H2404 H 0.42296 0.6897 0.85408 0.0
H2405 H 0.48686 0.77704 0.84802 0.0
H2406 H 0.44853 0.72054 0.8984 0.0
H2407 H 0.4617 0.74686 0.80313 0.0
H2408 H 0.47308 0.75612 0.86649 0.0
H2409 H 0.43724 0.71006 0.83502 0.0
C2410 C 0.43162 0.70071 0.8598 0.0
C2411 C 0.43454 0.70343 0.87788 0.0
C2412 C 0.47056 0.75402 0.8526 0.0
C2413 C 0.45085 0.7268 0.85615 0.0
C2414 C 0.47851 0.76594 0.84202 0.0
C2415 C 0.47553 0.76364 0.82396 0.0
C2416 C 0.45949 0.73965 0.84514 0.0
C2417 C 0.46427 0.74918 0.817 0.0
C2418 C 0.43974 0.71234 0.84891 0.0
C2419 C 0.44588 0.71792 0.88455 0.0
N2420 N 0.45668 0.73771 0.8276 0.0
N2421 N 0.45359 0.72905 0.8737 0.0
H2422 H 0.36009 0.42332 0.83018 0.0
H2423 H 0.30414 0.42472 0.74613 0.0
H2424 H 0.33487 0.37813 0.79927 0.0
H2425 H 0.31474 0.46856 0.78534 0.0
H2426 H 0.319 0.40837 0.76352 0.0
H2427 H 0.34708 0.44087 0.81206 0.0
C2428 C 0.3519 0.41708 0.81954 0.0
C2429 C 0.34854 0.3992 0.81627 0.0
C2430 C 0.31809 0.42156 0.76836 0.0
C2431 C 0.33375 0.41921 0.79545 0.0
C2432 C 0.3095 0.43093 0.75846 0.0
C2433 C 0.30782 0.44802 0.7644 0.0
C2434 C 0.32532 0.42928 0.78431 0.0
C2435 C 0.31567 0.45544 0.78022 0.0
C2436 C 0.34445 0.42711 0.80926 0.0
C2437 C 0.33779 0.39184 0.80234 0.0
N2438 N 0.32402 0.44601 0.78966 0.0
N2439 N 0.33084 0.40186 0.79245 0.0
H2440 H 0.73152 0.63169 0.22024 0.0
H2441 H 0.7564 0.53872 0.22468 0.0
H2442 H 0.70952 0.58715 0.18618 0.0
H2443 H 0.78226 0.58507 0.25311 0.0
H2444 H 0.73906 0.5558 0.21025 0.0
H2445 H 0.74992 0.61441 0.23255 0.0
C2446 C 0.73057 0.61827 0.21531 0.0
C2447 C 0.71892 0.61088 0.20216 0.0
C2448 C 0.74856 0.5622 0.21963 0.0
C2449 C 0.74 0.59089 0.21629 0.0
C2450 C 0.75851 0.55246 0.22782 0.0
C2451 C 0.77065 0.56042 0.24034 0.0
C2452 C 0.75078 0.58002 0.22399 0.0
C2453 C 0.77277 0.57829 0.2439 0.0
C2454 C 0.74112 0.60838 0.22234 0.0
C2455 C 0.71832 0.59339 0.19629 0.0
N2456 N 0.76291 0.58742 0.23587 0.0
N2457 N 0.72865 0.58398 0.20345 0.0
H2458 H 0.68373 0.43047 0.85336 0.0
H2459 H 0.77959 0.4503 0.81291 0.0
H2460 H 0.72462 0.40126 0.86011 0.0
H2461 H 0.74149 0.48419 0.81303 0.0
H2462 H 0.7596 0.43236 0.83041 0.0
H2463 H 0.70461 0.45049 0.83896 0.0
C2464 C 0.69712 0.4283 0.85192 0.0
C2465 C 0.7024 0.41408 0.85789 0.0
C2466 C 0.7556 0.44375 0.82671 0.0
C2467 C 0.72637 0.43695 0.84129 0.0
C2468 C 0.76697 0.45395 0.81662 0.0
C2469 C 0.76211 0.46866 0.81134 0.0
C2470 C 0.73914 0.44818 0.8315 0.0
C2471 C 0.74575 0.47296 0.81682 0.0
C2472 C 0.70904 0.43977 0.8437 0.0
C2473 C 0.71994 0.41201 0.8557 0.0
N2474 N 0.73478 0.46268 0.82648 0.0
N2475 N 0.73125 0.42324 0.84747 0.0
H2476 H 0.59872 0.72411 0.88335 0.0
H2477 H 0.57269 0.74254 0.78906 0.0
H2478 H 0.61256 0.69452 0.83505 0.0
H2479 H 0.56543 0.77509 0.83745 0.0
H2480 H 0.5853 0.72344 0.80554 0.0
H2481 H 0.58411 0.74127 0.86663 0.0
C2482 C 0.59863 0.72115 0.86921 0.0
C2483 C 0.60698 0.70788 0.8606 0.0
C2484 C 0.58086 0.73473 0.81253 0.0
C2485 C 0.59023 0.72764 0.84128 0.0
C2486 C 0.57373 0.74568 0.80313 0.0
C2487 C 0.56793 0.76048 0.81185 0.0
C2488 C 0.58221 0.73856 0.83079 0.0
C2489 C 0.56941 0.76374 0.83014 0.0
C2490 C 0.59028 0.731 0.85965 0.0
C2491 C 0.60633 0.70465 0.84224 0.0
N2492 N 0.57641 0.75291 0.83895 0.0
N2493 N 0.59816 0.7145 0.83318 0.0
H2494 H 0.33693 0.58686 0.86359 0.0
H2495 H 0.26011 0.54295 0.80038 0.0
H2496 H 0.28449 0.59822 0.87048 0.0
H2497 H 0.31404 0.53781 0.79005 0.0
H2498 H 0.26774 0.55907 0.82892 0.0
H2499 H 0.32759 0.56476 0.8396 0.0
C2500 C 0.3234 0.58462 0.86016 0.0
C2501 C 0.31152 0.5946 0.86892 0.0
C2502 C 0.27785 0.55421 0.82049 0.0
C2503 C 0.30075 0.56928 0.84134 0.0
C2504 C 0.27353 0.54504 0.80418 0.0
C2505 C 0.28648 0.53918 0.79267 0.0
C2506 C 0.29527 0.55756 0.82534 0.0
C2507 C 0.30359 0.54197 0.79846 0.0
C2508 C 0.31808 0.57198 0.84644 0.0
C2509 C 0.29413 0.59096 0.864 0.0
N2510 N 0.30749 0.5511 0.8143 0.0
N2511 N 0.2893 0.5787 0.85041 0.0
H2512 H 0.41009 0.34231 0.80751 0.0
H2513 H 0.46872 0.2685 0.80888 0.0
H2514 H 0.4189 0.31997 0.85375 0.0
H2515 H 0.46185 0.2911 0.76227 0.0
H2516 H 0.45234 0.28901 0.82582 0.0
H2517 H 0.43053 0.32528 0.791 0.0
C2518 C 0.4164 0.33396 0.81424 0.0
C2519 C 0.41263 0.33251 0.83205 0.0
C2520 C 0.45451 0.2896 0.81191 0.0
C2521 C 0.436 0.31295 0.81321 0.0
C2522 C 0.46404 0.27795 0.80221 0.0
C2523 C 0.4667 0.278 0.78405 0.0
C2524 C 0.44745 0.3014 0.80344 0.0
C2525 C 0.45993 0.2904 0.77619 0.0
C2526 C 0.42806 0.32422 0.8048 0.0
C2527 C 0.42125 0.32146 0.84004 0.0
N2528 N 0.45053 0.30152 0.78589 0.0
N2529 N 0.43241 0.31209 0.83057 0.0
H2530 H 0.33005 0.3985 0.19086 0.0
H2531 H 0.33843 0.47496 0.26995 0.0
H2532 H 0.37918 0.42244 0.21226 0.0
H2533 H 0.28985 0.44636 0.25179 0.0
H2534 H 0.35378 0.4576 0.24752 0.0
H2535 H 0.31536 0.41751 0.21181 0.0
C2536 C 0.33779 0.40778 0.19995 0.0
C2537 C 0.3559 0.40881 0.19982 0.0
C2538 C 0.33976 0.45517 0.24842 0.0
C2539 C 0.33906 0.43074 0.22395 0.0
C2540 C 0.33099 0.46514 0.26113 0.0
C2541 C 0.31283 0.46205 0.26279 0.0
C2542 C 0.33029 0.44208 0.23722 0.0
C2543 C 0.30386 0.44904 0.25114 0.0
C2544 C 0.32936 0.41865 0.21195 0.0
C2545 C 0.36519 0.42116 0.21193 0.0
N2546 N 0.31267 0.43954 0.2389 0.0
N2547 N 0.35666 0.43163 0.22353 0.0
H2548 H 0.63494 0.35095 0.20416 0.0
H2549 H 0.60058 0.26709 0.24897 0.0
H2550 H 0.65683 0.3042 0.19148 0.0
H2551 H 0.58858 0.31737 0.26812 0.0
H2552 H 0.61908 0.27927 0.22578 0.0
H2553 H 0.61505 0.33741 0.22515 0.0
C2554 C 0.6355 0.33778 0.2057 0.0
C2555 C 0.64767 0.32874 0.19614 0.0
C2556 C 0.61231 0.28757 0.23505 0.0
C2557 C 0.62493 0.31314 0.2203 0.0
C2558 C 0.60184 0.28066 0.24833 0.0
C2559 C 0.59289 0.29118 0.26046 0.0
C2560 C 0.61378 0.3051 0.23389 0.0
C2561 C 0.59488 0.30866 0.25888 0.0
C2562 C 0.62416 0.33007 0.21776 0.0
C2563 C 0.64771 0.31167 0.19865 0.0
N2564 N 0.60507 0.31503 0.24586 0.0
N2565 N 0.63655 0.30442 0.21056 0.0
H2566 H 0.39781 0.66288 0.17936 0.0
H2567 H 0.43932 0.7564 0.22103 0.0
H2568 H 0.38215 0.70864 0.16511 0.0
H2569 H 0.45 0.70964 0.23763 0.0
H2570 H 0.42063 0.73959 0.19836 0.0
H2571 H 0.41939 0.68027 0.19835 0.0
C2572 C 0.39894 0.67662 0.18015 0.0
C2573 C 0.38798 0.68428 0.17069 0.0
C2574 C 0.42721 0.73305 0.20688 0.0
C2575 C 0.41283 0.7044 0.19266 0.0
C2576 C 0.43785 0.74263 0.21986 0.0
C2577 C 0.44628 0.73447 0.23134 0.0
C2578 C 0.42498 0.71517 0.20534 0.0
C2579 C 0.44404 0.71657 0.229 0.0
C2580 C 0.41132 0.68657 0.19104 0.0
C2581 C 0.39025 0.70217 0.17219 0.0
N2582 N 0.43357 0.70758 0.21637 0.0
N2583 N 0.40235 0.71164 0.18308 0.0
loop_
_geom_bond_atom_site_label_1
_geom_bond_atom_site_label_2
_geom_bond_distance
_geom_bond_site_symmetry_2
_ccdc_geom_bond_type
O0 Cd1 2.300 . S
O0 C7 1.275 . S
Cd1 O0 2.300 . S
Cd1 O9 2.381 . S
Cd1 O10 2.378 . S
O2 Cd3 2.385 . S
O2 C7 1.255 . S
Cd3 O2 2.385 . S
Cd3 O4 2.317 . S
O4 Cd3 2.317 . S
O4 C5 1.232 . S
C5 O4 1.232 . S
C5 O6 1.218 . S
O6 C5 1.218 . S
C7 O0 1.275 . S
C7 O2 1.255 . S
C8 O9 1.258 . S
C8 O10 1.256 . S
O9 Cd1 2.381 . S
O9 C8 1.258 . S
O10 Cd1 2.378 . S
O10 C8 1.256 . S
O11 Cd12 2.300 . S
O11 C18 1.275 . S
Cd12 O11 2.300 . S
Cd12 O20 2.381 . S
Cd12 O21 2.378 . S
O13 Cd14 2.385 . S
O13 C18 1.255 . S
Cd14 O13 2.385 . S
Cd14 O15 2.317 . S
O15 Cd14 2.317 . S
O15 C16 1.232 . S
C16 O15 1.232 . S
C16 O17 1.218 . S
O17 C16 1.218 . S
C18 O11 1.275 . S
C18 O13 1.255 . S
C19 O20 1.258 . S
C19 O21 1.256 . S
O20 Cd12 2.381 . S
O20 C19 1.258 . S
O21 Cd12 2.378 . S
O21 C19 1.256 . S
O22 Cd23 2.300 . S
O22 C29 1.275 . S
Cd23 O22 2.300 . S
Cd23 O31 2.381 . S
Cd23 O32 2.378 . S
O24 Cd25 2.385 . S
O24 C29 1.255 . S
Cd25 O24 2.385 . S
Cd25 O26 2.317 . S
O26 Cd25 2.317 . S
O26 C27 1.232 . S
C27 O26 1.232 . S
C27 O28 1.218 . S
O28 C27 1.218 . S
C29 O22 1.275 . S
C29 O24 1.255 . S
C30 O31 1.258 . S
C30 O32 1.256 . S
O31 Cd23 2.381 . S
O31 C30 1.258 . S
O32 Cd23 2.378 . S
O32 C30 1.256 . S
O33 Cd34 2.300 . S
O33 C40 1.275 . S
Cd34 O33 2.300 . S
Cd34 O42 2.381 . S
Cd34 O43 2.378 . S
O35 Cd36 2.385 . S
O35 C40 1.255 . S
Cd36 O35 2.385 . S
Cd36 O37 2.317 . S
O37 Cd36 2.317 . S
O37 C38 1.232 . S
C38 O37 1.232 . S
C38 O39 1.218 . S
O39 C38 1.218 . S
C40 O33 1.275 . S
C40 O35 1.255 . S
C41 O42 1.258 . S
C41 O43 1.256 . S
O42 Cd34 2.381 . S
O42 C41 1.258 . S
O43 Cd34 2.378 . S
O43 C41 1.256 . S
O44 Cd45 2.300 . S
O44 C51 1.275 . S
Cd45 O44 2.300 . S
Cd45 O53 2.381 . S
Cd45 O54 2.378 . S
O46 Cd47 2.385 . S
O46 C51 1.255 . S
Cd47 O46 2.385 . S
Cd47 O48 2.317 . S
O48 Cd47 2.317 . S
O48 C49 1.232 . S
C49 O48 1.232 . S
C49 O50 1.218 . S
O50 C49 1.218 . S
C51 O44 1.275 . S
C51 O46 1.255 . S
C52 O53 1.258 . S
C52 O54 1.256 . S
O53 Cd45 2.381 . S
O53 C52 1.258 . S
O54 Cd45 2.378 . S
O54 C52 1.256 . S
O55 Cd56 2.300 . S
O55 C62 1.275 . S
Cd56 O55 2.300 . S
Cd56 O64 2.381 . S
Cd56 O65 2.378 . S
O57 Cd58 2.385 . S
O57 C62 1.255 . S
Cd58 O57 2.385 . S
Cd58 O59 2.317 . S
O59 Cd58 2.317 . S
O59 C60 1.232 . S
C60 O59 1.232 . S
C60 O61 1.218 . S
O61 C60 1.218 . S
C62 O55 1.275 . S
C62 O57 1.255 . S
C63 O64 1.258 . S
C63 O65 1.256 . S
O64 Cd56 2.381 . S
O64 C63 1.258 . S
O65 Cd56 2.378 . S
O65 C63 1.256 . S
O66 Cd67 2.300 . S
O66 C73 1.275 . S
Cd67 O66 2.300 . S
Cd67 O75 2.381 . S
Cd67 O76 2.378 . S
O68 Cd69 2.385 . S
O68 C73 1.255 . S
Cd69 O68 2.385 . S
Cd69 O70 2.317 . S
O70 Cd69 2.317 . S
O70 C71 1.232 . S
C71 O70 1.232 . S
C71 O72 1.218 . S
O72 C71 1.218 . S
C73 O66 1.275 . S
C73 O68 1.255 . S
C74 O75 1.258 . S
C74 O76 1.256 . S
O75 Cd67 2.381 . S
O75 C74 1.258 . S
O76 Cd67 2.378 . S
O76 C74 1.256 . S
O77 Cd78 2.300 . S
O77 C84 1.275 . S
Cd78 O77 2.300 . S
Cd78 O86 2.381 . S
Cd78 O87 2.378 . S
O79 Cd80 2.385 . S
O79 C84 1.255 . S
Cd80 O79 2.385 . S
Cd80 O81 2.317 . S
O81 Cd80 2.317 . S
O81 C82 1.232 . S
C82 O81 1.232 . S
C82 O83 1.218 . S
O83 C82 1.218 . S
C84 O77 1.275 . S
C84 O79 1.255 . S
C85 O86 1.258 . S
C85 O87 1.256 . S
O86 Cd78 2.381 . S
O86 C85 1.258 . S
O87 Cd78 2.378 . S
O87 C85 1.256 . S
O88 Cd89 2.300 . S
O88 C95 1.275 . S
Cd89 O88 2.300 . S
Cd89 O97 2.381 . S
Cd89 O98 2.378 . S
O90 Cd91 2.385 . S
O90 C95 1.255 . S
Cd91 O90 2.385 . S
Cd91 O92 2.317 . S
O92 Cd91 2.317 . S
O92 C93 1.232 . S
C93 O92 1.232 . S
C93 O94 1.218 . S
O94 C93 1.218 . S
C95 O88 1.275 . S
C95 O90 1.255 . S
C96 O97 1.258 . S
C96 O98 1.256 . S
O97 Cd89 2.381 . S
O97 C96 1.258 . S
O98 Cd89 2.378 . S
O98 C96 1.256 . S
O99 Cd100 2.300 . S
O99 C106 1.275 . S
Cd100 O99 2.300 . S
Cd100 O108 2.381 . S
Cd100 O109 2.378 . S
O101 Cd102 2.385 . S
O101 C106 1.255 . S
Cd102 O101 2.385 . S
Cd102 O103 2.317 . S
O103 Cd102 2.317 . S
O103 C104 1.232 . S
C104 O103 1.232 . S
C104 O105 1.218 . S
O105 C104 1.218 . S
C106 O99 1.275 . S
C106 O101 1.255 . S
C107 O108 1.258 . S
C107 O109 1.256 . S
O108 Cd100 2.381 . S
O108 C107 1.258 . S
O109 Cd100 2.378 . S
O109 C107 1.256 . S
O110 Cd111 2.300 . S
O110 C117 1.275 . S
Cd111 O110 2.300 . S
Cd111 O119 2.381 . S
Cd111 O120 2.378 . S
O112 Cd113 2.385 . S
O112 C117 1.255 . S
Cd113 O112 2.385 . S
Cd113 O114 2.317 . S
O114 Cd113 2.317 . S
O114 C115 1.232 . S
C115 O114 1.232 . S
C115 O116 1.218 . S
O116 C115 1.218 . S
C117 O110 1.275 . S
C117 O112 1.255 . S
C118 O119 1.258 . S
C118 O120 1.256 . S
O119 Cd111 2.381 . S
O119 C118 1.258 . S
O120 Cd111 2.378 . S
O120 C118 1.256 . S
O121 Cd122 2.300 . S
O121 C128 1.275 . S
Cd122 O121 2.300 . S
Cd122 O130 2.381 . S
Cd122 O131 2.378 . S
O123 Cd124 2.385 . S
O123 C128 1.255 . S
Cd124 O123 2.385 . S
Cd124 O125 2.317 . S
O125 Cd124 2.317 . S
O125 C126 1.232 . S
C126 O125 1.232 . S
C126 O127 1.218 . S
O127 C126 1.218 . S
C128 O121 1.275 . S
C128 O123 1.255 . S
C129 O130 1.258 . S
C129 O131 1.256 . S
O130 Cd122 2.381 . S
O130 C129 1.258 . S
O131 Cd122 2.378 . S
O131 C129 1.256 . S
O132 Cd133 2.300 . S
O132 C139 1.275 . S
Cd133 O132 2.300 . S
Cd133 O141 2.381 . S
Cd133 O142 2.378 . S
O134 Cd135 2.385 . S
O134 C139 1.255 . S
Cd135 O134 2.385 . S
Cd135 O136 2.317 . S
O136 Cd135 2.317 . S
O136 C137 1.232 . S
C137 O136 1.232 . S
C137 O138 1.218 . S
O138 C137 1.218 . S
C139 O132 1.275 . S
C139 O134 1.255 . S
C140 O141 1.258 . S
C140 O142 1.256 . S
O141 Cd133 2.381 . S
O141 C140 1.258 . S
O142 Cd133 2.378 . S
O142 C140 1.256 . S
O143 Cd144 2.300 . S
O143 C150 1.275 . S
Cd144 O143 2.300 . S
Cd144 O152 2.381 . S
Cd144 O153 2.378 . S
O145 Cd146 2.385 . S
O145 C150 1.255 . S
Cd146 O145 2.385 . S
Cd146 O147 2.317 . S
O147 Cd146 2.317 . S
O147 C148 1.232 . S
C148 O147 1.232 . S
C148 O149 1.218 . S
O149 C148 1.218 . S
C150 O143 1.275 . S
C150 O145 1.255 . S
C151 O152 1.258 . S
C151 O153 1.256 . S
O152 Cd144 2.381 . S
O152 C151 1.258 . S
O153 Cd144 2.378 . S
O153 C151 1.256 . S
O154 Cd155 2.300 . S
O154 C161 1.275 . S
Cd155 O154 2.300 . S
Cd155 O163 2.381 . S
Cd155 O164 2.378 . S
O156 Cd157 2.385 . S
O156 C161 1.255 . S
Cd157 O156 2.385 . S
Cd157 O158 2.317 . S
O158 Cd157 2.317 . S
O158 C159 1.232 . S
C159 O158 1.232 . S
C159 O160 1.218 . S
O160 C159 1.218 . S
C161 O154 1.275 . S
C161 O156 1.255 . S
C162 O163 1.258 . S
C162 O164 1.256 . S
O163 Cd155 2.381 . S
O163 C162 1.258 . S
O164 Cd155 2.378 . S
O164 C162 1.256 . S
O165 Cd166 2.300 . S
O165 C172 1.275 . S
Cd166 O165 2.300 . S
Cd166 O174 2.381 . S
Cd166 O175 2.378 . S
O167 Cd168 2.385 . S
O167 C172 1.255 . S
Cd168 O167 2.385 . S
Cd168 O169 2.317 . S
O169 Cd168 2.317 . S
O169 C170 1.232 . S
C170 O169 1.232 . S
C170 O171 1.218 . S
O171 C170 1.218 . S
C172 O165 1.275 . S
C172 O167 1.255 . S
C173 O174 1.258 . S
C173 O175 1.256 . S
O174 Cd166 2.381 . S
O174 C173 1.258 . S
O175 Cd166 2.378 . S
O175 C173 1.256 . S
O176 Cd177 2.300 . S
O176 C183 1.275 . S
Cd177 O176 2.300 . S
Cd177 O185 2.381 . S
Cd177 O186 2.378 . S
O178 Cd179 2.385 . S
O178 C183 1.255 . S
Cd179 O178 2.385 . S
Cd179 O180 2.317 . S
O180 Cd179 2.317 . S
O180 C181 1.232 . S
C181 O180 1.232 . S
C181 O182 1.218 . S
O182 C181 1.218 . S
C183 O176 1.275 . S
C183 O178 1.255 . S
C184 O185 1.258 . S
C184 O186 1.256 . S
O185 Cd177 2.381 . S
O185 C184 1.258 . S
O186 Cd177 2.378 . S
O186 C184 1.256 . S
O187 Cd188 2.300 . S
O187 C194 1.275 . S
Cd188 O187 2.300 . S
Cd188 O196 2.381 . S
Cd188 O197 2.378 . S
O189 Cd190 2.385 . S
O189 C194 1.255 . S
Cd190 O189 2.385 . S
Cd190 O191 2.317 . S
O191 Cd190 2.317 . S
O191 C192 1.232 . S
C192 O191 1.232 . S
C192 O193 1.218 . S
O193 C192 1.218 . S
C194 O187 1.275 . S
C194 O189 1.255 . S
C195 O196 1.258 . S
C195 O197 1.256 . S
O196 Cd188 2.381 . S
O196 C195 1.258 . S
O197 Cd188 2.378 . S
O197 C195 1.256 . S
O198 Cd199 2.300 . S
O198 C205 1.275 . S
Cd199 O198 2.300 . S
Cd199 O207 2.381 . S
Cd199 O208 2.378 . S
O200 Cd201 2.385 . S
O200 C205 1.255 . S
Cd201 O200 2.385 . S
Cd201 O202 2.317 . S
O202 Cd201 2.317 . S
O202 C203 1.232 . S
C203 O202 1.232 . S
C203 O204 1.218 . S
O204 C203 1.218 . S
C205 O198 1.275 . S
C205 O200 1.255 . S
C206 O207 1.258 . S
C206 O208 1.256 . S
O207 Cd199 2.381 . S
O207 C206 1.258 . S
O208 Cd199 2.378 . S
O208 C206 1.256 . S
O209 Cd210 2.300 . S
O209 C216 1.275 . S
Cd210 O209 2.300 . S
Cd210 O218 2.381 . S
Cd210 O219 2.378 . S
O211 Cd212 2.385 . S
O211 C216 1.255 . S
Cd212 O211 2.385 . S
Cd212 O213 2.317 . S
O213 Cd212 2.317 . S
O213 C214 1.232 . S
C214 O213 1.232 . S
C214 O215 1.218 . S
O215 C214 1.218 . S
C216 O209 1.275 . S
C216 O211 1.255 . S
C217 O218 1.258 . S
C217 O219 1.256 . S
O218 Cd210 2.381 . S
O218 C217 1.258 . S
O219 Cd210 2.378 . S
O219 C217 1.256 . S
O220 Cd221 2.300 . S
O220 C227 1.275 . S
Cd221 O220 2.300 . S
Cd221 O229 2.381 . S
Cd221 O230 2.378 . S
O222 Cd223 2.385 . S
O222 C227 1.255 . S
Cd223 O222 2.385 . S
Cd223 O224 2.317 . S
O224 Cd223 2.317 . S
O224 C225 1.232 . S
C225 O224 1.232 . S
C225 O226 1.218 . S
O226 C225 1.218 . S
C227 O220 1.275 . S
C227 O222 1.255 . S
C228 O229 1.258 . S
C228 O230 1.256 . S
O229 Cd221 2.381 . S
O229 C228 1.258 . S
O230 Cd221 2.378 . S
O230 C228 1.256 . S
O231 Cd232 2.300 . S
O231 C238 1.275 . S
Cd232 O231 2.300 . S
Cd232 O240 2.381 . S
Cd232 O241 2.378 . S
O233 Cd234 2.385 . S
O233 C238 1.255 . S
Cd234 O233 2.385 . S
Cd234 O235 2.317 . S
O235 Cd234 2.317 . S
O235 C236 1.232 . S
C236 O235 1.232 . S
C236 O237 1.218 . S
O237 C236 1.218 . S
C238 O231 1.275 . S
C238 O233 1.255 . S
C239 O240 1.258 . S
C239 O241 1.256 . S
O240 Cd232 2.381 . S
O240 C239 1.258 . S
O241 Cd232 2.378 . S
O241 C239 1.256 . S
O242 Cd243 2.300 . S
O242 C249 1.275 . S
Cd243 O242 2.300 . S
Cd243 O251 2.381 . S
Cd243 O252 2.378 . S
O244 Cd245 2.385 . S
O244 C249 1.255 . S
Cd245 O244 2.385 . S
Cd245 O246 2.317 . S
O246 Cd245 2.317 . S
O246 C247 1.232 . S
C247 O246 1.232 . S
C247 O248 1.218 . S
O248 C247 1.218 . S
C249 O242 1.275 . S
C249 O244 1.255 . S
C250 O251 1.258 . S
C250 O252 1.256 . S
O251 Cd243 2.381 . S
O251 C250 1.258 . S
O252 Cd243 2.378 . S
O252 C250 1.256 . S
O253 Cd254 2.300 . S
O253 C260 1.275 . S
Cd254 O253 2.300 . S
Cd254 O262 2.381 . S
Cd254 O263 2.378 . S
O255 Cd256 2.385 . S
O255 C260 1.255 . S
Cd256 O255 2.385 . S
Cd256 O257 2.317 . S
O257 Cd256 2.317 . S
O257 C258 1.232 . S
C258 O257 1.232 . S
C258 O259 1.218 . S
O259 C258 1.218 . S
C260 O253 1.275 . S
C260 O255 1.255 . S
C261 O262 1.258 . S
C261 O263 1.256 . S
O262 Cd254 2.381 . S
O262 C261 1.258 . S
O263 Cd254 2.378 . S
O263 C261 1.256 . S
O264 Cd265 2.300 . S
O264 C271 1.275 . S
Cd265 O264 2.300 . S
Cd265 O273 2.381 . S
Cd265 O274 2.378 . S
O266 Cd267 2.385 . S
O266 C271 1.255 . S
Cd267 O266 2.385 . S
Cd267 O268 2.317 . S
O268 Cd267 2.317 . S
O268 C269 1.232 . S
C269 O268 1.232 . S
C269 O270 1.218 . S
O270 C269 1.218 . S
C271 O264 1.275 . S
C271 O266 1.255 . S
C272 O273 1.258 . S
C272 O274 1.256 . S
O273 Cd265 2.381 . S
O273 C272 1.258 . S
O274 Cd265 2.378 . S
O274 C272 1.256 . S
O275 Cd276 2.300 . S
O275 C282 1.275 . S
Cd276 O275 2.300 . S
Cd276 O284 2.381 . S
Cd276 O285 2.378 . S
O277 Cd278 2.385 . S
O277 C282 1.255 . S
Cd278 O277 2.385 . S
Cd278 O279 2.317 . S
O279 Cd278 2.317 . S
O279 C280 1.232 . S
C280 O279 1.232 . S
C280 O281 1.218 . S
O281 C280 1.218 . S
C282 O275 1.275 . S
C282 O277 1.255 . S
C283 O284 1.258 . S
C283 O285 1.256 . S
O284 Cd276 2.381 . S
O284 C283 1.258 . S
O285 Cd276 2.378 . S
O285 C283 1.256 . S
O286 Cd287 2.300 . S
O286 C293 1.275 . S
Cd287 O286 2.300 . S
Cd287 O295 2.381 . S
Cd287 O296 2.378 . S
O288 Cd289 2.385 . S
O288 C293 1.255 . S
Cd289 O288 2.385 . S
Cd289 O290 2.317 . S
O290 Cd289 2.317 . S
O290 C291 1.232 . S
C291 O290 1.232 . S
C291 O292 1.218 . S
O292 C291 1.218 . S
C293 O286 1.275 . S
C293 O288 1.255 . S
C294 O295 1.258 . S
C294 O296 1.256 . S
O295 Cd287 2.381 . S
O295 C294 1.258 . S
O296 Cd287 2.378 . S
O296 C294 1.256 . S
O297 Cd298 2.300 . S
O297 C304 1.275 . S
Cd298 O297 2.300 . S
Cd298 O306 2.381 . S
Cd298 O307 2.378 . S
O299 Cd300 2.385 . S
O299 C304 1.255 . S
Cd300 O299 2.385 . S
Cd300 O301 2.317 . S
O301 Cd300 2.317 . S
O301 C302 1.232 . S
C302 O301 1.232 . S
C302 O303 1.218 . S
O303 C302 1.218 . S
C304 O297 1.275 . S
C304 O299 1.255 . S
C305 O306 1.258 . S
C305 O307 1.256 . S
O306 Cd298 2.381 . S
O306 C305 1.258 . S
O307 Cd298 2.378 . S
O307 C305 1.256 . S
O308 Cd309 2.300 . S
O308 C315 1.275 . S
Cd309 O308 2.300 . S
Cd309 O317 2.381 . S
Cd309 O318 2.378 . S
O310 Cd311 2.385 . S
O310 C315 1.255 . S
Cd311 O310 2.385 . S
Cd311 O312 2.317 . S
O312 Cd311 2.317 . S
O312 C313 1.232 . S
C313 O312 1.232 . S
C313 O314 1.218 . S
O314 C313 1.218 . S
C315 O308 1.275 . S
C315 O310 1.255 . S
C316 O317 1.258 . S
C316 O318 1.256 . S
O317 Cd309 2.381 . S
O317 C316 1.258 . S
O318 Cd309 2.378 . S
O318 C316 1.256 . S
O319 Cd320 2.300 . S
O319 C326 1.275 . S
Cd320 O319 2.300 . S
Cd320 O328 2.381 . S
Cd320 O329 2.378 . S
O321 Cd322 2.385 . S
O321 C326 1.255 . S
Cd322 O321 2.385 . S
Cd322 O323 2.317 . S
O323 Cd322 2.317 . S
O323 C324 1.232 . S
C324 O323 1.232 . S
C324 O325 1.218 . S
O325 C324 1.218 . S
C326 O319 1.275 . S
C326 O321 1.255 . S
C327 O328 1.258 . S
C327 O329 1.256 . S
O328 Cd320 2.381 . S
O328 C327 1.258 . S
O329 Cd320 2.378 . S
O329 C327 1.256 . S
O330 Cd331 2.300 . S
O330 C337 1.275 . S
Cd331 O330 2.300 . S
Cd331 O339 2.381 . S
Cd331 O340 2.378 . S
O332 Cd333 2.385 . S
O332 C337 1.255 . S
Cd333 O332 2.385 . S
Cd333 O334 2.317 . S
O334 Cd333 2.317 . S
O334 C335 1.232 . S
C335 O334 1.232 . S
C335 O336 1.218 . S
O336 C335 1.218 . S
C337 O330 1.275 . S
C337 O332 1.255 . S
C338 O339 1.258 . S
C338 O340 1.256 . S
O339 Cd331 2.381 . S
O339 C338 1.258 . S
O340 Cd331 2.378 . S
O340 C338 1.256 . S
O341 Cd342 2.300 . S
O341 C348 1.275 . S
Cd342 O341 2.300 . S
Cd342 O350 2.381 . S
Cd342 O351 2.378 . S
O343 Cd344 2.385 . S
O343 C348 1.255 . S
Cd344 O343 2.385 . S
Cd344 O345 2.317 . S
O345 Cd344 2.317 . S
O345 C346 1.232 . S
C346 O345 1.232 . S
C346 O347 1.218 . S
O347 C346 1.218 . S
C348 O341 1.275 . S
C348 O343 1.255 . S
C349 O350 1.258 . S
C349 O351 1.256 . S
O350 Cd342 2.381 . S
O350 C349 1.258 . S
O351 Cd342 2.378 . S
O351 C349 1.256 . S
H352 C360 0.930 . S
H353 C363 0.930 . S
H354 C365 0.930 . S
H355 C366 0.970 . S
H356 C366 0.970 . S
H357 C368 0.930 . S
H358 C370 0.930 . S
H359 C372 0.930 . S
C360 H352 0.930 . S
C360 C361 1.382 . S
C360 C362 1.426 . S
C361 C360 1.382 . S
C361 C365 1.389 1_554 S
C362 C360 1.426 . S
C362 C363 1.375 . S
C362 C366 1.532 . S
C363 H353 0.930 . S
C363 C362 1.375 . S
C363 C364 1.416 . S
C364 C363 1.416 . S
C364 C365 1.371 1_554 S
C365 H354 0.930 . S
C365 C361 1.389 1_556 S
C365 C364 1.371 1_556 S
C366 H355 0.970 . S
C366 H356 0.970 . S
C366 C362 1.532 . S
C366 C367 1.499 . S
C367 C366 1.499 . S
C367 C368 1.370 . S
C367 C372 1.415 . S
C368 H357 0.930 . S
C368 C367 1.370 . S
C368 C369 1.407 . S
C369 C368 1.407 . S
C369 C370 1.365 . S
C370 H358 0.930 . S
C370 C369 1.365 . S
C370 C371 1.393 . S
C371 C370 1.393 . S
C371 C372 1.387 . S
C372 H359 0.930 . S
C372 C367 1.415 . S
C372 C371 1.387 . S
H373 C381 0.930 . S
H374 C384 0.930 . S
H375 C386 0.930 . S
H376 C387 0.970 . S
H377 C387 0.970 . S
H378 C389 0.930 . S
H379 C391 0.930 . S
H380 C393 0.930 . S
C381 H373 0.930 . S
C381 C382 1.382 . S
C381 C383 1.426 . S
C382 C381 1.382 . S
C382 C386 1.389 . S
C383 C381 1.426 . S
C383 C384 1.375 . S
C383 C387 1.532 1_554 S
C384 H374 0.930 . S
C384 C383 1.375 . S
C384 C385 1.416 . S
C385 C384 1.416 . S
C385 C386 1.371 . S
C386 H375 0.930 . S
C386 C382 1.389 . S
C386 C385 1.371 . S
C387 H376 0.970 . S
C387 H377 0.970 . S
C387 C383 1.532 1_556 S
C387 C388 1.499 . S
C388 C387 1.499 . S
C388 C389 1.370 . S
C388 C393 1.415 . S
C389 H378 0.930 . S
C389 C388 1.370 . S
C389 C390 1.407 . S
C390 C389 1.407 . S
C390 C391 1.365 . S
C391 H379 0.930 . S
C391 C390 1.365 . S
C391 C392 1.393 . S
C392 C391 1.393 . S
C392 C393 1.387 . S
C393 H380 0.930 . S
C393 C388 1.415 . S
C393 C392 1.387 . S
H394 C402 0.930 . S
H395 C405 0.930 . S
H396 C407 0.930 . S
H397 C408 0.970 . S
H398 C408 0.970 . S
H399 C410 0.930 . S
H400 C412 0.930 . S
H401 C414 0.930 . S
C402 H394 0.930 . S
C402 C403 1.382 . S
C402 C404 1.426 . S
C403 C402 1.382 . S
C403 C407 1.389 . S
C404 C402 1.426 . S
C404 C405 1.375 . S
C404 C408 1.532 . S
C405 H395 0.930 . S
C405 C404 1.375 . S
C405 C406 1.416 . S
C406 C405 1.416 . S
C406 C407 1.371 . S
C407 H396 0.930 . S
C407 C403 1.389 . S
C407 C406 1.371 . S
C408 H397 0.970 . S
C408 H398 0.970 . S
C408 C404 1.532 . S
C408 C409 1.499 . S
C409 C408 1.499 . S
C409 C410 1.370 . S
C409 C414 1.415 . S
C410 H399 0.930 . S
C410 C409 1.370 . S
C410 C411 1.407 . S
C411 C410 1.407 . S
C411 C412 1.365 1_554 S
C412 H400 0.930 . S
C412 C411 1.365 1_556 S
C412 C413 1.393 1_556 S
C413 C412 1.393 1_554 S
C413 C414 1.387 . S
C414 H401 0.930 . S
C414 C409 1.415 . S
C414 C413 1.387 . S
H415 C423 0.930 . S
H416 C426 0.930 . S
H417 C428 0.930 . S
H418 C429 0.970 . S
H419 C429 0.970 . S
H420 C431 0.930 . S
H421 C433 0.930 . S
H422 C435 0.930 . S
C423 H415 0.930 . S
C423 C424 1.382 . S
C423 C425 1.426 . S
C424 C423 1.382 . S
C424 C428 1.389 . S
C425 C423 1.426 . S
C425 C426 1.375 . S
C425 C429 1.532 1_554 S
C426 H416 0.930 . S
C426 C425 1.375 . S
C426 C427 1.416 . S
C427 C426 1.416 . S
C427 C428 1.371 . S
C428 H417 0.930 . S
C428 C424 1.389 . S
C428 C427 1.371 . S
C429 H418 0.970 . S
C429 H419 0.970 . S
C429 C425 1.532 1_556 S
C429 C430 1.499 . S
C430 C429 1.499 . S
C430 C431 1.370 . S
C430 C435 1.415 . S
C431 H420 0.930 . S
C431 C430 1.370 . S
C431 C432 1.407 . S
C432 C431 1.407 . S
C432 C433 1.365 . S
C433 H421 0.930 . S
C433 C432 1.365 . S
C433 C434 1.393 . S
C434 C433 1.393 . S
C434 C435 1.387 . S
C435 H422 0.930 . S
C435 C430 1.415 . S
C435 C434 1.387 . S
H436 C444 0.930 . S
H437 C447 0.930 . S
H438 C449 0.930 . S
H439 C450 0.969 1_655 S
H440 C450 0.970 . S
H441 C452 0.930 . S
H442 C454 0.930 . S
H443 C456 0.930 . S
C444 H436 0.930 . S
C444 C445 1.382 . S
C444 C446 1.426 . S
C445 C444 1.382 . S
C445 C449 1.389 . S
C446 C444 1.426 . S
C446 C447 1.375 . S
C446 C450 1.532 . S
C447 H437 0.930 . S
C447 C446 1.375 . S
C447 C448 1.416 . S
C448 C447 1.416 . S
C448 C449 1.371 . S
C449 H438 0.930 . S
C449 C445 1.389 . S
C449 C448 1.371 . S
C450 H439 0.969 1_455 S
C450 H440 0.970 . S
C450 C446 1.532 . S
C450 C451 1.499 1_455 S
C451 C450 1.499 1_655 S
C451 C452 1.370 . S
C451 C456 1.415 . S
C452 H441 0.930 . S
C452 C451 1.370 . S
C452 C453 1.407 . S
C453 C452 1.407 . S
C453 C454 1.365 . S
C454 H442 0.930 . S
C454 C453 1.365 . S
C454 C455 1.393 . S
C455 C454 1.393 . S
C455 C456 1.387 . S
C456 H443 0.930 . S
C456 C451 1.415 . S
C456 C455 1.387 . S
H457 C465 0.930 . S
H458 C468 0.930 . S
H459 C470 0.930 . S
H460 C471 0.970 . S
H461 C471 0.970 . S
H462 C473 0.930 . S
H463 C475 0.930 . S
H464 C477 0.930 . S
C465 H457 0.930 . S
C465 C466 1.382 . S
C465 C467 1.426 . S
C466 C465 1.382 . S
C466 C470 1.389 . S
C467 C465 1.426 . S
C467 C468 1.375 . S
C467 C471 1.532 . S
C468 H458 0.930 . S
C468 C467 1.375 . S
C468 C469 1.416 . S
C469 C468 1.416 . S
C469 C470 1.371 . S
C470 H459 0.930 . S
C470 C466 1.389 . S
C470 C469 1.371 . S
C471 H460 0.970 . S
C471 H461 0.970 . S
C471 C467 1.532 . S
C471 C472 1.499 1_545 S
C472 C471 1.499 1_565 S
C472 C473 1.370 . S
C472 C477 1.415 . S
C473 H462 0.930 . S
C473 C472 1.370 . S
C473 C474 1.407 . S
C474 C473 1.407 . S
C474 C475 1.365 . S
C475 H463 0.930 . S
C475 C474 1.365 . S
C475 C476 1.393 . S
C476 C475 1.393 . S
C476 C477 1.387 . S
C477 H464 0.930 . S
C477 C472 1.415 . S
C477 C476 1.387 . S
H478 C486 0.930 . S
H479 C489 0.930 . S
H480 C491 0.930 . S
H481 C492 0.970 . S
H482 C492 0.970 . S
H483 C494 0.930 . S
H484 C496 0.930 . S
H485 C498 0.930 . S
C486 H478 0.930 . S
C486 C487 1.382 . S
C486 C488 1.426 . S
C487 C486 1.382 . S
C487 C491 1.389 . S
C488 C486 1.426 . S
C488 C489 1.375 . S
C488 C492 1.532 . S
C489 H479 0.930 . S
C489 C488 1.375 . S
C489 C490 1.416 . S
C490 C489 1.416 . S
C490 C491 1.371 . S
C491 H480 0.930 . S
C491 C487 1.389 . S
C491 C490 1.371 . S
C492 H481 0.970 . S
C492 H482 0.970 . S
C492 C488 1.532 . S
C492 C493 1.499 . S
C493 C492 1.499 . S
C493 C494 1.370 . S
C493 C498 1.415 . S
C494 H483 0.930 . S
C494 C493 1.370 . S
C494 C495 1.407 . S
C495 C494 1.407 . S
C495 C496 1.365 . S
C496 H484 0.930 . S
C496 C495 1.365 . S
C496 C497 1.393 . S
C497 C496 1.393 . S
C497 C498 1.387 . S
C498 H485 0.930 . S
C498 C493 1.415 . S
C498 C497 1.387 . S
H499 C507 0.930 . S
H500 C510 0.930 1_545 S
H501 C512 0.930 . S
H502 C513 0.970 . S
H503 C513 0.970 . S
H504 C515 0.930 . S
H505 C517 0.930 . S
H506 C519 0.930 . S
C507 H499 0.930 . S
C507 C508 1.382 . S
C507 C509 1.414 1_565 S
C508 C507 1.382 . S
C508 C512 1.389 . S
C509 C507 1.414 1_545 S
C509 C510 1.367 1_545 S
C509 C513 1.552 . S
C510 H500 0.930 1_565 S
C510 C509 1.367 1_565 S
C510 C511 1.416 . S
C511 C510 1.416 . S
C511 C512 1.371 . S
C512 H501 0.930 . S
C512 C508 1.389 . S
C512 C511 1.371 . S
C513 H502 0.970 . S
C513 H503 0.970 . S
C513 C509 1.552 . S
C513 C514 1.499 . S
C514 C513 1.499 . S
C514 C515 1.370 . S
C514 C519 1.415 . S
C515 H504 0.930 . S
C515 C514 1.370 . S
C515 C516 1.407 . S
C516 C515 1.407 . S
C516 C517 1.365 . S
C517 H505 0.930 . S
C517 C516 1.365 . S
C517 C518 1.393 . S
C518 C517 1.393 . S
C518 C519 1.387 . S
C519 H506 0.930 . S
C519 C514 1.415 . S
C519 C518 1.387 . S
H520 C528 0.930 . S
H521 C531 0.930 . S
H522 C533 0.930 . S
H523 C534 0.970 . S
H524 C534 0.970 1_655 S
H525 C536 0.930 . S
H526 C538 0.930 . S
H527 C540 0.930 . S
C528 H520 0.930 . S
C528 C529 1.382 . S
C528 C530 1.426 . S
C529 C528 1.382 . S
C529 C533 1.389 . S
C530 C528 1.426 . S
C530 C531 1.375 . S
C530 C534 1.532 1_655 S
C531 H521 0.930 . S
C531 C530 1.375 . S
C531 C532 1.416 . S
C532 C531 1.416 . S
C532 C533 1.371 . S
C533 H522 0.930 . S
C533 C529 1.389 . S
C533 C532 1.371 . S
C534 H523 0.970 . S
C534 H524 0.970 1_455 S
C534 C530 1.532 1_455 S
C534 C535 1.499 . S
C535 C534 1.499 . S
C535 C536 1.370 . S
C535 C540 1.415 . S
C536 H525 0.930 . S
C536 C535 1.370 . S
C536 C537 1.407 . S
C537 C536 1.407 . S
C537 C538 1.365 . S
C538 H526 0.930 . S
C538 C537 1.365 . S
C538 C539 1.393 . S
C539 C538 1.393 . S
C539 C540 1.387 . S
C540 H527 0.930 . S
C540 C535 1.415 . S
C540 C539 1.387 . S
H541 C549 0.930 . S
H542 C552 0.930 . S
H543 C554 0.930 . S
H544 C555 0.970 . S
H545 C555 0.970 . S
H546 C557 0.930 . S
H547 C559 0.930 . S
H548 C561 0.930 . S
C549 H541 0.930 . S
C549 C550 1.382 . S
C549 C551 1.426 . S
C550 C549 1.382 . S
C550 C554 1.389 . S
C551 C549 1.426 . S
C551 C552 1.375 . S
C551 C555 1.532 1_565 S
C552 H542 0.930 . S
C552 C551 1.375 . S
C552 C553 1.416 . S
C553 C552 1.416 . S
C553 C554 1.371 . S
C554 H543 0.930 . S
C554 C550 1.389 . S
C554 C553 1.371 . S
C555 H544 0.970 . S
C555 H545 0.970 . S
C555 C551 1.532 1_545 S
C555 C556 1.499 . S
C556 C555 1.499 . S
C556 C557 1.370 . S
C556 C561 1.415 . S
C557 H546 0.930 . S
C557 C556 1.370 . S
C557 C558 1.407 . S
C558 C557 1.407 . S
C558 C559 1.365 . S
C559 H547 0.930 . S
C559 C558 1.365 . S
C559 C560 1.393 . S
C560 C559 1.393 . S
C560 C561 1.387 . S
C561 H548 0.930 . S
C561 C556 1.415 . S
C561 C560 1.387 . S
H562 C570 0.930 . S
H563 C573 0.930 . S
H564 C575 0.930 . S
H565 C576 0.970 . S
H566 C576 0.970 . S
H567 C578 0.930 . S
H568 C580 0.930 . S
H569 C582 0.930 . S
C570 H562 0.930 . S
C570 C571 1.382 . S
C570 C572 1.426 . S
C571 C570 1.382 . S
C571 C575 1.389 . S
C572 C570 1.426 . S
C572 C573 1.375 . S
C572 C576 1.532 . S
C573 H563 0.930 . S
C573 C572 1.375 . S
C573 C574 1.416 . S
C574 C573 1.416 . S
C574 C575 1.371 . S
C575 H564 0.930 . S
C575 C571 1.389 . S
C575 C574 1.371 . S
C576 H565 0.970 . S
C576 H566 0.970 . S
C576 C572 1.532 . S
C576 C577 1.499 . S
C577 C576 1.499 . S
C577 C578 1.370 . S
C577 C582 1.415 . S
C578 H567 0.930 . S
C578 C577 1.370 . S
C578 C579 1.407 . S
C579 C578 1.407 . S
C579 C580 1.365 . S
C580 H568 0.930 . S
C580 C579 1.365 . S
C580 C581 1.393 . S
C581 C580 1.393 . S
C581 C582 1.387 . S
C582 H569 0.930 . S
C582 C577 1.415 . S
C582 C581 1.387 . S
H583 C591 0.930 . S
H584 C594 0.912 1_545 S
H585 C596 0.930 . S
H586 C597 0.970 . S
H587 C597 0.970 . S
H588 C599 0.930 . S
H589 C601 0.930 . S
H590 C603 0.930 . S
C591 H583 0.930 . S
C591 C592 1.382 . S
C591 C593 1.426 1_565 S
C592 C591 1.382 . S
C592 C596 1.389 . S
C593 C591 1.426 1_545 S
C593 C594 1.362 1_545 S
C593 C597 1.532 . S
C594 H584 0.912 1_565 S
C594 C593 1.362 1_565 S
C594 C595 1.449 . S
C595 C594 1.449 . S
C595 C596 1.371 . S
C596 H585 0.930 . S
C596 C592 1.389 . S
C596 C595 1.371 . S
C597 H586 0.970 . S
C597 H587 0.970 . S
C597 C593 1.532 . S
C597 C598 1.499 . S
C598 C597 1.499 . S
C598 C599 1.370 . S
C598 C603 1.415 . S
C599 H588 0.930 . S
C599 C598 1.370 . S
C599 C600 1.407 . S
C600 C599 1.407 . S
C600 C601 1.365 . S
C601 H589 0.930 . S
C601 C600 1.365 . S
C601 C602 1.393 . S
C602 C601 1.393 . S
C602 C603 1.387 . S
C603 H590 0.930 . S
C603 C598 1.415 . S
C603 C602 1.387 . S
H604 C612 0.930 . S
H605 C615 0.930 . S
H606 C617 0.930 . S
H607 C618 0.970 . S
H608 C618 0.970 . S
H609 C620 0.930 . S
H610 C622 0.930 . S
H611 C624 0.930 . S
C612 H604 0.930 . S
C612 C613 1.382 . S
C612 C614 1.426 . S
C613 C612 1.382 . S
C613 C617 1.389 . S
C614 C612 1.426 . S
C614 C615 1.375 . S
C614 C618 1.532 . S
C615 H605 0.930 . S
C615 C614 1.375 . S
C615 C616 1.416 . S
C616 C615 1.416 . S
C616 C617 1.371 . S
C617 H606 0.930 . S
C617 C613 1.389 . S
C617 C616 1.371 . S
C618 H607 0.970 . S
C618 H608 0.970 . S
C618 C614 1.532 . S
C618 C619 1.499 . S
C619 C618 1.499 . S
C619 C620 1.370 . S
C619 C624 1.415 . S
C620 H609 0.930 . S
C620 C619 1.370 . S
C620 C621 1.407 . S
C621 C620 1.407 . S
C621 C622 1.365 . S
C622 H610 0.930 . S
C622 C621 1.365 . S
C622 C623 1.393 . S
C623 C622 1.393 . S
C623 C624 1.387 . S
C624 H611 0.930 . S
C624 C619 1.415 . S
C624 C623 1.387 . S
H625 C633 0.930 . S
H626 C636 0.930 . S
H627 C638 0.930 . S
H628 C639 0.970 . S
H629 C639 0.970 . S
H630 C641 0.930 . S
H631 C643 0.930 . S
H632 C645 0.930 . S
C633 H625 0.930 . S
C633 C634 1.382 . S
C633 C635 1.426 . S
C634 C633 1.382 . S
C634 C638 1.389 . S
C635 C633 1.426 . S
C635 C636 1.375 . S
C635 C639 1.532 . S
C636 H626 0.930 . S
C636 C635 1.375 . S
C636 C637 1.416 . S
C637 C636 1.416 . S
C637 C638 1.371 . S
C638 H627 0.930 . S
C638 C634 1.389 . S
C638 C637 1.371 . S
C639 H628 0.970 . S
C639 H629 0.970 . S
C639 C635 1.532 . S
C639 C640 1.499 . S
C640 C639 1.499 . S
C640 C641 1.370 . S
C640 C645 1.415 . S
C641 H630 0.930 . S
C641 C640 1.370 . S
C641 C642 1.407 . S
C642 C641 1.407 . S
C642 C643 1.365 . S
C643 H631 0.930 . S
C643 C642 1.365 . S
C643 C644 1.393 . S
C644 C643 1.393 . S
C644 C645 1.387 . S
C645 H632 0.930 . S
C645 C640 1.415 . S
C645 C644 1.387 . S
H646 C654 0.930 . S
H647 C657 0.930 . S
H648 C659 0.930 . S
H649 C660 0.970 . S
H650 C660 0.970 . S
H651 C662 0.930 . S
H652 C664 0.930 . S
H653 C666 0.930 . S
C654 H646 0.930 . S
C654 C655 1.382 . S
C654 C656 1.426 . S
C655 C654 1.382 . S
C655 C659 1.389 . S
C656 C654 1.426 . S
C656 C657 1.375 . S
C656 C660 1.532 . S
C657 H647 0.930 . S
C657 C656 1.375 . S
C657 C658 1.416 . S
C658 C657 1.416 . S
C658 C659 1.371 . S
C659 H648 0.930 . S
C659 C655 1.389 . S
C659 C658 1.371 . S
C660 H649 0.970 . S
C660 H650 0.970 . S
C660 C656 1.532 . S
C660 C661 1.499 . S
C661 C660 1.499 . S
C661 C662 1.370 . S
C661 C666 1.415 . S
C662 H651 0.930 . S
C662 C661 1.370 . S
C662 C663 1.407 . S
C663 C662 1.407 . S
C663 C664 1.365 . S
C664 H652 0.930 . S
C664 C663 1.365 . S
C664 C665 1.393 . S
C665 C664 1.393 . S
C665 C666 1.387 . S
C666 H653 0.930 . S
C666 C661 1.415 . S
C666 C665 1.387 . S
H667 C675 0.930 . S
H668 C678 0.930 . S
H669 C680 0.930 . S
H670 C681 0.970 . S
H671 C681 0.970 . S
H672 C683 0.930 . S
H673 C685 0.930 . S
H674 C687 0.930 . S
C675 H667 0.930 . S
C675 C676 1.382 . S
C675 C677 1.426 . S
C676 C675 1.382 . S
C676 C680 1.389 . S
C677 C675 1.426 . S
C677 C678 1.375 . S
C677 C681 1.532 . S
C678 H668 0.930 . S
C678 C677 1.375 . S
C678 C679 1.416 . S
C679 C678 1.416 . S
C679 C680 1.371 . S
C680 H669 0.930 . S
C680 C676 1.389 . S
C680 C679 1.371 . S
C681 H670 0.970 . S
C681 H671 0.970 . S
C681 C677 1.532 . S
C681 C682 1.499 . S
C682 C681 1.499 . S
C682 C683 1.370 . S
C682 C687 1.415 . S
C683 H672 0.930 . S
C683 C682 1.370 . S
C683 C684 1.407 . S
C684 C683 1.407 . S
C684 C685 1.365 . S
C685 H673 0.930 . S
C685 C684 1.365 . S
C685 C686 1.393 . S
C686 C685 1.393 . S
C686 C687 1.387 . S
C687 H674 0.930 . S
C687 C682 1.415 . S
C687 C686 1.387 . S
H688 C696 0.930 . S
H689 C699 0.930 . S
H690 C701 0.930 . S
H691 C702 0.970 . S
H692 C702 0.970 . S
H693 C704 0.930 . S
H694 C706 0.930 . S
H695 C708 0.930 . S
C696 H688 0.930 . S
C696 C697 1.382 . S
C696 C698 1.426 . S
C697 C696 1.382 . S
C697 C701 1.389 . S
C698 C696 1.426 . S
C698 C699 1.375 . S
C698 C702 1.532 . S
C699 H689 0.930 . S
C699 C698 1.375 . S
C699 C700 1.416 . S
C700 C699 1.416 . S
C700 C701 1.371 . S
C701 H690 0.930 . S
C701 C697 1.389 . S
C701 C700 1.371 . S
C702 H691 0.970 . S
C702 H692 0.970 . S
C702 C698 1.532 . S
C702 C703 1.499 . S
C703 C702 1.499 . S
C703 C704 1.370 . S
C703 C708 1.415 . S
C704 H693 0.930 . S
C704 C703 1.370 . S
C704 C705 1.407 . S
C705 C704 1.407 . S
C705 C706 1.365 . S
C706 H694 0.930 . S
C706 C705 1.365 . S
C706 C707 1.393 . S
C707 C706 1.393 . S
C707 C708 1.387 . S
C708 H695 0.930 . S
C708 C703 1.415 . S
C708 C707 1.387 . S
H709 C717 0.930 . S
H710 C720 0.930 . S
H711 C722 0.930 . S
H712 C723 0.970 . S
H713 C723 0.970 . S
H714 C725 0.930 . S
H715 C727 0.930 . S
H716 C729 0.930 . S
C717 H709 0.930 . S
C717 C718 1.382 . S
C717 C719 1.426 . S
C718 C717 1.382 . S
C718 C722 1.389 . S
C719 C717 1.426 . S
C719 C720 1.375 . S
C719 C723 1.532 . S
C720 H710 0.930 . S
C720 C719 1.375 . S
C720 C721 1.416 . S
C721 C720 1.416 . S
C721 C722 1.371 . S
C722 H711 0.930 . S
C722 C718 1.389 . S
C722 C721 1.371 . S
C723 H712 0.970 . S
C723 H713 0.970 . S
C723 C719 1.532 . S
C723 C724 1.499 . S
C724 C723 1.499 . S
C724 C725 1.370 . S
C724 C729 1.415 . S
C725 H714 0.930 . S
C725 C724 1.370 . S
C725 C726 1.407 . S
C726 C725 1.407 . S
C726 C727 1.365 . S
C727 H715 0.930 . S
C727 C726 1.365 . S
C727 C728 1.393 . S
C728 C727 1.393 . S
C728 C729 1.387 . S
C729 H716 0.930 . S
C729 C724 1.415 . S
C729 C728 1.387 . S
H730 C738 0.930 . S
H731 C741 0.930 . S
H732 C743 0.930 . S
H733 C744 0.970 . S
H734 C744 0.970 . S
H735 C746 0.930 . S
H736 C748 0.930 . S
H737 C750 0.930 . S
C738 H730 0.930 . S
C738 C739 1.382 . S
C738 C740 1.426 . S
C739 C738 1.382 . S
C739 C743 1.389 . S
C740 C738 1.426 . S
C740 C741 1.375 . S
C740 C744 1.532 . S
C741 H731 0.930 . S
C741 C740 1.375 . S
C741 C742 1.416 . S
C742 C741 1.416 . S
C742 C743 1.371 . S
C743 H732 0.930 . S
C743 C739 1.389 . S
C743 C742 1.371 . S
C744 H733 0.970 . S
C744 H734 0.970 . S
C744 C740 1.532 . S
C744 C745 1.499 . S
C745 C744 1.499 . S
C745 C746 1.370 . S
C745 C750 1.415 . S
C746 H735 0.930 . S
C746 C745 1.370 . S
C746 C747 1.407 . S
C747 C746 1.407 . S
C747 C748 1.365 . S
C748 H736 0.930 . S
C748 C747 1.365 . S
C748 C749 1.393 . S
C749 C748 1.393 . S
C749 C750 1.387 . S
C750 H737 0.930 . S
C750 C745 1.415 . S
C750 C749 1.387 . S
H751 C759 0.930 . S
H752 C762 0.930 . S
H753 C764 0.930 . S
H754 C765 0.970 . S
H755 C765 0.970 . S
H756 C767 0.930 . S
H757 C769 0.930 . S
H758 C771 0.930 . S
C759 H751 0.930 . S
C759 C760 1.382 . S
C759 C761 1.426 . S
C760 C759 1.382 . S
C760 C764 1.389 . S
C761 C759 1.426 . S
C761 C762 1.375 . S
C761 C765 1.532 . S
C762 H752 0.930 . S
C762 C761 1.375 . S
C762 C763 1.416 . S
C763 C762 1.416 . S
C763 C764 1.371 . S
C764 H753 0.930 . S
C764 C760 1.389 . S
C764 C763 1.371 . S
C765 H754 0.970 . S
C765 H755 0.970 . S
C765 C761 1.532 . S
C765 C766 1.499 . S
C766 C765 1.499 . S
C766 C767 1.370 . S
C766 C771 1.415 . S
C767 H756 0.930 . S
C767 C766 1.370 . S
C767 C768 1.407 . S
C768 C767 1.407 . S
C768 C769 1.365 . S
C769 H757 0.930 . S
C769 C768 1.365 . S
C769 C770 1.393 . S
C770 C769 1.393 . S
C770 C771 1.387 . S
C771 H758 0.930 . S
C771 C766 1.415 . S
C771 C770 1.387 . S
H772 C780 0.930 . S
H773 C783 0.930 . S
H774 C785 0.930 . S
H775 C786 0.970 . S
H776 C786 0.970 . S
H777 C788 0.930 . S
H778 C790 0.930 . S
H779 C792 0.930 . S
C780 H772 0.930 . S
C780 C781 1.382 . S
C780 C782 1.426 . S
C781 C780 1.382 . S
C781 C785 1.389 . S
C782 C780 1.426 . S
C782 C783 1.375 . S
C782 C786 1.532 . S
C783 H773 0.930 . S
C783 C782 1.375 . S
C783 C784 1.416 . S
C784 C783 1.416 . S
C784 C785 1.371 . S
C785 H774 0.930 . S
C785 C781 1.389 . S
C785 C784 1.371 . S
C786 H775 0.970 . S
C786 H776 0.970 . S
C786 C782 1.532 . S
C786 C787 1.499 . S
C787 C786 1.499 . S
C787 C788 1.370 . S
C787 C792 1.415 . S
C788 H777 0.930 . S
C788 C787 1.370 . S
C788 C789 1.407 . S
C789 C788 1.407 . S
C789 C790 1.365 . S
C790 H778 0.930 . S
C790 C789 1.365 . S
C790 C791 1.393 . S
C791 C790 1.393 . S
C791 C792 1.387 . S
C792 H779 0.930 . S
C792 C787 1.415 . S
C792 C791 1.387 . S
H793 C801 0.930 . S
H794 C804 0.930 . S
H795 C806 0.930 . S
H796 C807 0.970 . S
H797 C807 0.970 . S
H798 C809 0.930 . S
H799 C811 0.930 . S
H800 C813 0.930 . S
C801 H793 0.930 . S
C801 C802 1.382 . S
C801 C803 1.426 . S
C802 C801 1.382 . S
C802 C806 1.389 . S
C803 C801 1.426 . S
C803 C804 1.375 . S
C803 C807 1.532 . S
C804 H794 0.930 . S
C804 C803 1.375 . S
C804 C805 1.416 . S
C805 C804 1.416 . S
C805 C806 1.371 . S
C806 H795 0.930 . S
C806 C802 1.389 . S
C806 C805 1.371 . S
C807 H796 0.970 . S
C807 H797 0.970 . S
C807 C803 1.532 . S
C807 C808 1.499 . S
C808 C807 1.499 . S
C808 C809 1.370 . S
C808 C813 1.415 . S
C809 H798 0.930 . S
C809 C808 1.370 . S
C809 C810 1.407 . S
C810 C809 1.407 . S
C810 C811 1.365 . S
C811 H799 0.930 . S
C811 C810 1.365 . S
C811 C812 1.393 . S
C812 C811 1.393 . S
C812 C813 1.387 . S
C813 H800 0.930 . S
C813 C808 1.415 . S
C813 C812 1.387 . S
H814 C822 0.930 . S
H815 C825 0.930 . S
H816 C827 0.930 . S
H817 C828 0.970 . S
H818 C828 0.970 . S
H819 C830 0.930 . S
H820 C832 0.930 . S
H821 C834 0.930 . S
C822 H814 0.930 . S
C822 C823 1.382 . S
C822 C824 1.426 . S
C823 C822 1.382 . S
C823 C827 1.389 . S
C824 C822 1.426 . S
C824 C825 1.375 . S
C824 C828 1.532 . S
C825 H815 0.930 . S
C825 C824 1.375 . S
C825 C826 1.416 . S
C826 C825 1.416 . S
C826 C827 1.371 . S
C827 H816 0.930 . S
C827 C823 1.389 . S
C827 C826 1.371 . S
C828 H817 0.970 . S
C828 H818 0.970 . S
C828 C824 1.532 . S
C828 C829 1.499 . S
C829 C828 1.499 . S
C829 C830 1.370 . S
C829 C834 1.415 . S
C830 H819 0.930 . S
C830 C829 1.370 . S
C830 C831 1.407 . S
C831 C830 1.407 . S
C831 C832 1.365 . S
C832 H820 0.930 . S
C832 C831 1.365 . S
C832 C833 1.393 . S
C833 C832 1.393 . S
C833 C834 1.387 . S
C834 H821 0.930 . S
C834 C829 1.415 . S
C834 C833 1.387 . S
H835 C843 0.930 . S
H836 C846 0.930 . S
H837 C848 0.930 . S
H838 C849 0.970 . S
H839 C849 0.970 . S
H840 C851 0.930 . S
H841 C853 0.930 . S
H842 C855 0.930 . S
C843 H835 0.930 . S
C843 C844 1.382 . S
C843 C845 1.426 . S
C844 C843 1.382 . S
C844 C848 1.389 . S
C845 C843 1.426 . S
C845 C846 1.375 . S
C845 C849 1.532 . S
C846 H836 0.930 . S
C846 C845 1.375 . S
C846 C847 1.416 . S
C847 C846 1.416 . S
C847 C848 1.371 . S
C848 H837 0.930 . S
C848 C844 1.389 . S
C848 C847 1.371 . S
C849 H838 0.970 . S
C849 H839 0.970 . S
C849 C845 1.532 . S
C849 C850 1.499 . S
C850 C849 1.499 . S
C850 C851 1.370 . S
C850 C855 1.415 . S
C851 H840 0.930 . S
C851 C850 1.370 . S
C851 C852 1.407 . S
C852 C851 1.407 . S
C852 C853 1.365 . S
C853 H841 0.930 . S
C853 C852 1.365 . S
C853 C854 1.393 . S
C854 C853 1.393 . S
C854 C855 1.387 . S
C855 H842 0.930 . S
C855 C850 1.415 . S
C855 C854 1.387 . S
H856 C862 0.930 . S
H857 C866 0.930 . S
H858 C871 0.929 . S
H859 C869 0.929 . S
H860 C864 0.929 . S
H861 C870 0.929 . S
C862 H856 0.930 . S
C862 C863 1.367 . S
C862 C870 1.378 . S
C863 C862 1.367 . S
C863 C871 1.433 . S
C864 H860 0.929 . S
C864 C866 1.378 . S
C864 C868 1.350 . S
C865 C868 1.463 . S
C865 C870 1.350 . S
C865 N873 1.427 . S
C866 H857 0.930 . S
C866 C864 1.378 . S
C866 C867 1.367 . S
C867 C866 1.367 . S
C867 C869 1.433 . S
C868 C864 1.350 . S
C868 C865 1.463 . S
C868 N872 1.427 . S
C869 H859 0.929 . S
C869 C867 1.433 . S
C869 N872 1.384 . S
C870 H861 0.929 . S
C870 C862 1.378 . S
C870 C865 1.350 . S
C871 H858 0.929 . S
C871 C863 1.433 . S
C871 N873 1.384 . S
N872 C868 1.427 . S
N872 C869 1.384 . S
N873 C865 1.427 . S
N873 C871 1.384 . S
H874 C880 0.930 . S
H875 C884 0.930 . S
H876 C889 0.929 . S
H877 C887 0.929 . S
H878 C882 0.929 . S
H879 C888 0.929 . S
C880 H874 0.930 . S
C880 C881 1.367 . S
C880 C888 1.378 . S
C881 C880 1.367 . S
C881 C889 1.433 . S
C882 H878 0.929 . S
C882 C884 1.378 . S
C882 C886 1.350 . S
C883 C886 1.463 . S
C883 C888 1.350 . S
C883 N891 1.427 . S
C884 H875 0.930 . S
C884 C882 1.378 . S
C884 C885 1.367 . S
C885 C884 1.367 . S
C885 C887 1.433 . S
C886 C882 1.350 . S
C886 C883 1.463 . S
C886 N890 1.427 . S
C887 H877 0.929 . S
C887 C885 1.433 . S
C887 N890 1.384 . S
C888 H879 0.929 . S
C888 C880 1.378 . S
C888 C883 1.350 . S
C889 H876 0.929 . S
C889 C881 1.433 . S
C889 N891 1.384 . S
N890 C886 1.427 . S
N890 C887 1.384 . S
N891 C883 1.427 . S
N891 C889 1.384 . S
H892 C898 0.930 . S
H893 C902 0.930 . S
H894 C907 0.929 . S
H895 C905 0.929 . S
H896 C900 0.929 . S
H897 C906 0.929 . S
C898 H892 0.930 . S
C898 C899 1.367 . S
C898 C906 1.378 . S
C899 C898 1.367 . S
C899 C907 1.433 . S
C900 H896 0.929 . S
C900 C902 1.378 . S
C900 C904 1.350 . S
C901 C904 1.463 . S
C901 C906 1.350 . S
C901 N909 1.427 . S
C902 H893 0.930 . S
C902 C900 1.378 . S
C902 C903 1.367 . S
C903 C902 1.367 . S
C903 C905 1.433 . S
C904 C900 1.350 . S
C904 C901 1.463 . S
C904 N908 1.427 . S
C905 H895 0.929 . S
C905 C903 1.433 . S
C905 N908 1.384 . S
C906 H897 0.929 . S
C906 C898 1.378 . S
C906 C901 1.350 . S
C907 H894 0.929 . S
C907 C899 1.433 . S
C907 N909 1.384 . S
N908 C904 1.427 . S
N908 C905 1.384 . S
N909 C901 1.427 . S
N909 C907 1.384 . S
H910 C916 0.930 . S
H911 C920 0.930 . S
H912 C925 0.929 . S
H913 C923 0.929 . S
H914 C918 0.929 . S
H915 C924 0.929 . S
C916 H910 0.930 . S
C916 C917 1.367 . S
C916 C924 1.378 . S
C917 C916 1.367 . S
C917 C925 1.433 . S
C918 H914 0.929 . S
C918 C920 1.378 . S
C918 C922 1.350 . S
C919 C922 1.463 . S
C919 C924 1.350 . S
C919 N927 1.427 . S
C920 H911 0.930 . S
C920 C918 1.378 . S
C920 C921 1.367 . S
C921 C920 1.367 . S
C921 C923 1.433 . S
C922 C918 1.350 . S
C922 C919 1.463 . S
C922 N926 1.427 . S
C923 H913 0.929 . S
C923 C921 1.433 . S
C923 N926 1.384 . S
C924 H915 0.929 . S
C924 C916 1.378 . S
C924 C919 1.350 . S
C925 H912 0.929 . S
C925 C917 1.433 . S
C925 N927 1.384 . S
N926 C922 1.427 . S
N926 C923 1.384 . S
N927 C919 1.427 . S
N927 C925 1.384 . S
H928 C934 0.930 . S
H929 C938 0.930 . S
H930 C943 0.929 . S
H931 C941 0.929 . S
H932 C936 0.929 . S
H933 C942 0.929 . S
C934 H928 0.930 . S
C934 C935 1.367 . S
C934 C942 1.378 . S
C935 C934 1.367 . S
C935 C943 1.433 . S
C936 H932 0.929 . S
C936 C938 1.378 . S
C936 C940 1.350 . S
C937 C940 1.463 . S
C937 C942 1.350 . S
C937 N945 1.427 . S
C938 H929 0.930 . S
C938 C936 1.378 . S
C938 C939 1.367 . S
C939 C938 1.367 . S
C939 C941 1.433 . S
C940 C936 1.350 . S
C940 C937 1.463 . S
C940 N944 1.427 . S
C941 H931 0.929 . S
C941 C939 1.433 . S
C941 N944 1.384 . S
C942 H933 0.929 . S
C942 C934 1.378 . S
C942 C937 1.350 . S
C943 H930 0.929 . S
C943 C935 1.433 . S
C943 N945 1.384 . S
N944 C940 1.427 . S
N944 C941 1.384 . S
N945 C937 1.427 . S
N945 C943 1.384 . S
H946 C952 0.930 . S
H947 C956 0.930 . S
H948 C961 0.929 . S
H949 C959 0.929 . S
H950 C954 0.929 . S
H951 C960 0.929 . S
C952 H946 0.930 . S
C952 C953 1.367 . S
C952 C960 1.378 . S
C953 C952 1.367 . S
C953 C961 1.433 . S
C954 H950 0.929 . S
C954 C956 1.378 . S
C954 C958 1.350 . S
C955 C958 1.463 . S
C955 C960 1.350 . S
C955 N963 1.427 . S
C956 H947 0.930 . S
C956 C954 1.378 . S
C956 C957 1.367 . S
C957 C956 1.367 . S
C957 C959 1.433 . S
C958 C954 1.350 . S
C958 C955 1.463 . S
C958 N962 1.427 . S
C959 H949 0.929 . S
C959 C957 1.433 . S
C959 N962 1.384 . S
C960 H951 0.929 . S
C960 C952 1.378 . S
C960 C955 1.350 . S
C961 H948 0.929 . S
C961 C953 1.433 . S
C961 N963 1.384 . S
N962 C958 1.427 . S
N962 C959 1.384 . S
N963 C955 1.427 . S
N963 C961 1.384 . S
H964 C970 0.930 . S
H965 C974 0.930 . S
H966 C979 0.929 . S
H967 C977 0.929 . S
H968 C972 0.929 . S
H969 C978 0.929 . S
C970 H964 0.930 . S
C970 C971 1.367 . S
C970 C978 1.378 . S
C971 C970 1.367 . S
C971 C979 1.433 . S
C972 H968 0.929 . S
C972 C974 1.378 . S
C972 C976 1.350 . S
C973 C976 1.463 . S
C973 C978 1.350 . S
C973 N981 1.427 . S
C974 H965 0.930 . S
C974 C972 1.378 . S
C974 C975 1.367 . S
C975 C974 1.367 . S
C975 C977 1.433 . S
C976 C972 1.350 . S
C976 C973 1.463 . S
C976 N980 1.427 . S
C977 H967 0.929 . S
C977 C975 1.433 . S
C977 N980 1.384 . S
C978 H969 0.929 . S
C978 C970 1.378 . S
C978 C973 1.350 . S
C979 H966 0.929 . S
C979 C971 1.433 . S
C979 N981 1.384 . S
N980 C976 1.427 . S
N980 C977 1.384 . S
N981 C973 1.427 . S
N981 C979 1.384 . S
H982 C988 0.930 . S
H983 C992 0.930 . S
H984 C997 0.929 . S
H985 C995 0.929 . S
H986 C990 0.929 . S
H987 C996 0.929 . S
C988 H982 0.930 . S
C988 C989 1.367 . S
C988 C996 1.378 . S
C989 C988 1.367 . S
C989 C997 1.433 . S
C990 H986 0.929 . S
C990 C992 1.378 . S
C990 C994 1.350 . S
C991 C994 1.463 . S
C991 C996 1.350 . S
C991 N999 1.427 . S
C992 H983 0.930 . S
C992 C990 1.378 . S
C992 C993 1.367 . S
C993 C992 1.367 . S
C993 C995 1.433 . S
C994 C990 1.350 . S
C994 C991 1.463 . S
C994 N998 1.427 . S
C995 H985 0.929 . S
C995 C993 1.433 . S
C995 N998 1.384 . S
C996 H987 0.929 . S
C996 C988 1.378 . S
C996 C991 1.350 . S
C997 H984 0.929 . S
C997 C989 1.433 . S
C997 N999 1.384 . S
N998 C994 1.427 . S
N998 C995 1.384 . S
N999 C991 1.427 . S
N999 C997 1.384 . S
H1000 C1006 0.930 . S
H1001 C1010 0.930 . S
H1002 C1015 0.929 . S
H1003 C1013 0.929 . S
H1004 C1008 0.929 . S
H1005 C1014 0.929 . S
C1006 H1000 0.930 . S
C1006 C1007 1.367 . S
C1006 C1014 1.378 . S
C1007 C1006 1.367 . S
C1007 C1015 1.433 . S
C1008 H1004 0.929 . S
C1008 C1010 1.378 . S
C1008 C1012 1.350 . S
C1009 C1012 1.463 . S
C1009 C1014 1.350 . S
C1009 N1017 1.427 . S
C1010 H1001 0.930 . S
C1010 C1008 1.378 . S
C1010 C1011 1.367 . S
C1011 C1010 1.367 . S
C1011 C1013 1.433 . S
C1012 C1008 1.350 . S
C1012 C1009 1.463 . S
C1012 N1016 1.427 . S
C1013 H1003 0.929 . S
C1013 C1011 1.433 . S
C1013 N1016 1.384 . S
C1014 H1005 0.929 . S
C1014 C1006 1.378 . S
C1014 C1009 1.350 . S
C1015 H1002 0.929 . S
C1015 C1007 1.433 . S
C1015 N1017 1.384 . S
N1016 C1012 1.427 . S
N1016 C1013 1.384 . S
N1017 C1009 1.427 . S
N1017 C1015 1.384 . S
H1018 C1024 0.930 . S
H1019 C1028 0.930 . S
H1020 C1033 0.929 . S
H1021 C1031 0.929 . S
H1022 C1026 0.929 . S
H1023 C1032 0.929 . S
C1024 H1018 0.930 . S
C1024 C1025 1.367 . S
C1024 C1032 1.378 . S
C1025 C1024 1.367 . S
C1025 C1033 1.433 . S
C1026 H1022 0.929 . S
C1026 C1028 1.378 . S
C1026 C1030 1.350 . S
C1027 C1030 1.463 . S
C1027 C1032 1.350 . S
C1027 N1035 1.427 . S
C1028 H1019 0.930 . S
C1028 C1026 1.378 . S
C1028 C1029 1.367 . S
C1029 C1028 1.367 . S
C1029 C1031 1.433 . S
C1030 C1026 1.350 . S
C1030 C1027 1.463 . S
C1030 N1034 1.427 . S
C1031 H1021 0.929 . S
C1031 C1029 1.433 . S
C1031 N1034 1.384 . S
C1032 H1023 0.929 . S
C1032 C1024 1.378 . S
C1032 C1027 1.350 . S
C1033 H1020 0.929 . S
C1033 C1025 1.433 . S
C1033 N1035 1.384 . S
N1034 C1030 1.427 . S
N1034 C1031 1.384 . S
N1035 C1027 1.427 . S
N1035 C1033 1.384 . S
H1036 C1042 0.930 . S
H1037 C1046 0.929 1_455 S
H1038 C1051 0.929 . S
H1039 C1049 0.929 . S
H1040 C1044 0.929 . S
H1041 C1050 0.929 . S
C1042 H1036 0.930 . S
C1042 C1043 1.367 . S
C1042 C1050 1.378 . S
C1043 C1042 1.367 . S
C1043 C1051 1.433 . S
C1044 H1040 0.929 . S
C1044 C1046 1.378 . S
C1044 C1048 1.350 . S
C1045 C1048 1.463 . S
C1045 C1050 1.350 . S
C1045 N1053 1.427 . S
C1046 H1037 0.929 1_655 S
C1046 C1044 1.378 . S
C1046 C1047 1.367 1_655 S
C1047 C1046 1.367 1_455 S
C1047 C1049 1.433 . S
C1048 C1044 1.350 . S
C1048 C1045 1.463 . S
C1048 N1052 1.427 . S
C1049 H1039 0.929 . S
C1049 C1047 1.433 . S
C1049 N1052 1.384 1_455 S
C1050 H1041 0.929 . S
C1050 C1042 1.378 . S
C1050 C1045 1.350 . S
C1051 H1038 0.929 . S
C1051 C1043 1.433 . S
C1051 N1053 1.384 . S
N1052 C1048 1.427 . S
N1052 C1049 1.384 1_655 S
N1053 C1045 1.427 . S
N1053 C1051 1.384 . S
H1054 C1060 0.930 . S
H1055 C1064 0.930 . S
H1056 C1069 0.929 . S
H1057 C1067 0.929 . S
H1058 C1062 0.929 . S
H1059 C1068 0.929 . S
C1060 H1054 0.930 . S
C1060 C1061 1.367 . S
C1060 C1068 1.378 . S
C1061 C1060 1.367 . S
C1061 C1069 1.433 . S
C1062 H1058 0.929 . S
C1062 C1064 1.378 . S
C1062 C1066 1.350 . S
C1063 C1066 1.463 . S
C1063 C1068 1.350 . S
C1063 N1071 1.427 . S
C1064 H1055 0.930 . S
C1064 C1062 1.378 . S
C1064 C1065 1.367 . S
C1065 C1064 1.367 . S
C1065 C1067 1.433 . S
C1066 C1062 1.350 . S
C1066 C1063 1.463 . S
C1066 N1070 1.427 . S
C1067 H1057 0.929 . S
C1067 C1065 1.433 . S
C1067 N1070 1.384 . S
C1068 H1059 0.929 . S
C1068 C1060 1.378 . S
C1068 C1063 1.350 . S
C1069 H1056 0.929 . S
C1069 C1061 1.433 . S
C1069 N1071 1.384 . S
N1070 C1066 1.427 . S
N1070 C1067 1.384 . S
N1071 C1063 1.427 . S
N1071 C1069 1.384 . S
H1072 C1078 0.930 . S
H1073 C1082 0.930 . S
H1074 C1087 0.929 . S
H1075 C1085 0.929 . S
H1076 C1080 0.929 . S
H1077 C1086 0.929 . S
C1078 H1072 0.930 . S
C1078 C1079 1.367 . S
C1078 C1086 1.378 . S
C1079 C1078 1.367 . S
C1079 C1087 1.433 . S
C1080 H1076 0.929 . S
C1080 C1082 1.378 . S
C1080 C1084 1.350 . S
C1081 C1084 1.463 . S
C1081 C1086 1.350 . S
C1081 N1089 1.427 . S
C1082 H1073 0.930 . S
C1082 C1080 1.378 . S
C1082 C1083 1.367 . S
C1083 C1082 1.367 . S
C1083 C1085 1.433 . S
C1084 C1080 1.350 . S
C1084 C1081 1.463 . S
C1084 N1088 1.427 . S
C1085 H1075 0.929 . S
C1085 C1083 1.433 . S
C1085 N1088 1.384 . S
C1086 H1077 0.929 . S
C1086 C1078 1.378 . S
C1086 C1081 1.350 . S
C1087 H1074 0.929 . S
C1087 C1079 1.433 . S
C1087 N1089 1.384 . S
N1088 C1084 1.427 . S
N1088 C1085 1.384 . S
N1089 C1081 1.427 . S
N1089 C1087 1.384 . S
H1090 C1096 0.930 . S
H1091 C1100 0.930 . S
H1092 C1105 0.929 . S
H1093 C1103 0.929 . S
H1094 C1098 0.929 . S
H1095 C1104 0.929 . S
C1096 H1090 0.930 . S
C1096 C1097 1.367 . S
C1096 C1104 1.378 . S
C1097 C1096 1.367 . S
C1097 C1105 1.433 . S
C1098 H1094 0.929 . S
C1098 C1100 1.378 . S
C1098 C1102 1.350 . S
C1099 C1102 1.463 . S
C1099 C1104 1.350 . S
C1099 N1107 1.427 . S
C1100 H1091 0.930 . S
C1100 C1098 1.378 . S
C1100 C1101 1.367 . S
C1101 C1100 1.367 . S
C1101 C1103 1.433 . S
C1102 C1098 1.350 . S
C1102 C1099 1.463 . S
C1102 N1106 1.427 . S
C1103 H1093 0.929 . S
C1103 C1101 1.433 . S
C1103 N1106 1.384 . S
C1104 H1095 0.929 . S
C1104 C1096 1.378 . S
C1104 C1099 1.350 . S
C1105 H1092 0.929 . S
C1105 C1097 1.433 . S
C1105 N1107 1.384 . S
N1106 C1102 1.427 . S
N1106 C1103 1.384 . S
N1107 C1099 1.427 . S
N1107 C1105 1.384 . S
H1108 C1114 0.930 . S
H1109 C1118 0.896 1_455 S
H1110 C1123 0.929 . S
H1111 C1121 0.933 . S
H1112 C1116 0.929 . S
H1113 C1122 0.929 . S
C1114 H1108 0.930 . S
C1114 C1115 1.367 . S
C1114 C1122 1.378 . S
C1115 C1114 1.367 . S
C1115 C1123 1.433 . S
C1116 H1112 0.929 . S
C1116 C1118 1.441 . S
C1116 C1120 1.350 . S
C1117 C1120 1.463 . S
C1117 C1122 1.350 . S
C1117 N1125 1.427 . S
C1118 H1109 0.896 1_655 S
C1118 C1116 1.441 . S
C1118 C1119 1.342 1_655 S
C1119 C1118 1.342 1_455 S
C1119 C1121 1.438 . S
C1120 C1116 1.350 . S
C1120 C1117 1.463 . S
C1120 N1124 1.427 . S
C1121 H1111 0.933 . S
C1121 C1119 1.438 . S
C1121 N1124 1.376 1_455 S
C1122 H1113 0.929 . S
C1122 C1114 1.378 . S
C1122 C1117 1.350 . S
C1123 H1110 0.929 . S
C1123 C1115 1.433 . S
C1123 N1125 1.384 . S
N1124 C1120 1.427 . S
N1124 C1121 1.376 1_655 S
N1125 C1117 1.427 . S
N1125 C1123 1.384 . S
H1126 C1132 0.930 . S
H1127 C1136 0.930 . S
H1128 C1141 0.929 . S
H1129 C1139 0.929 . S
H1130 C1134 0.929 . S
H1131 C1140 0.929 . S
C1132 H1126 0.930 . S
C1132 C1133 1.367 . S
C1132 C1140 1.378 . S
C1133 C1132 1.367 . S
C1133 C1141 1.433 . S
C1134 H1130 0.929 . S
C1134 C1136 1.378 . S
C1134 C1138 1.350 . S
C1135 C1138 1.463 . S
C1135 C1140 1.350 . S
C1135 N1143 1.427 . S
C1136 H1127 0.930 . S
C1136 C1134 1.378 . S
C1136 C1137 1.367 . S
C1137 C1136 1.367 . S
C1137 C1139 1.433 . S
C1138 C1134 1.350 . S
C1138 C1135 1.463 . S
C1138 N1142 1.427 . S
C1139 H1129 0.929 . S
C1139 C1137 1.433 . S
C1139 N1142 1.384 . S
C1140 H1131 0.929 . S
C1140 C1132 1.378 . S
C1140 C1135 1.350 . S
C1141 H1128 0.929 . S
C1141 C1133 1.433 . S
C1141 N1143 1.384 . S
N1142 C1138 1.427 . S
N1142 C1139 1.384 . S
N1143 C1135 1.427 . S
N1143 C1141 1.384 . S
H1144 C1150 0.930 . S
H1145 C1154 0.930 . S
H1146 C1159 0.929 . S
H1147 C1157 0.929 . S
H1148 C1152 0.929 . S
H1149 C1158 0.929 . S
C1150 H1144 0.930 . S
C1150 C1151 1.367 . S
C1150 C1158 1.378 . S
C1151 C1150 1.367 . S
C1151 C1159 1.433 . S
C1152 H1148 0.929 . S
C1152 C1154 1.378 . S
C1152 C1156 1.350 . S
C1153 C1156 1.463 . S
C1153 C1158 1.350 . S
C1153 N1161 1.427 . S
C1154 H1145 0.930 . S
C1154 C1152 1.378 . S
C1154 C1155 1.367 . S
C1155 C1154 1.367 . S
C1155 C1157 1.433 . S
C1156 C1152 1.350 . S
C1156 C1153 1.463 . S
C1156 N1160 1.427 . S
C1157 H1147 0.929 . S
C1157 C1155 1.433 . S
C1157 N1160 1.384 . S
C1158 H1149 0.929 . S
C1158 C1150 1.378 . S
C1158 C1153 1.350 . S
C1159 H1146 0.929 . S
C1159 C1151 1.433 . S
C1159 N1161 1.384 . S
N1160 C1156 1.427 . S
N1160 C1157 1.384 . S
N1161 C1153 1.427 . S
N1161 C1159 1.384 . S
H1162 C1168 0.930 . S
H1163 C1172 0.930 . S
H1164 C1177 0.929 . S
H1165 C1175 0.929 . S
H1166 C1170 0.929 . S
H1167 C1176 0.929 . S
C1168 H1162 0.930 . S
C1168 C1169 1.367 . S
C1168 C1176 1.378 . S
C1169 C1168 1.367 . S
C1169 C1177 1.433 . S
C1170 H1166 0.929 . S
C1170 C1172 1.378 . S
C1170 C1174 1.350 . S
C1171 C1174 1.463 . S
C1171 C1176 1.350 . S
C1171 N1179 1.427 . S
C1172 H1163 0.930 . S
C1172 C1170 1.378 . S
C1172 C1173 1.367 . S
C1173 C1172 1.367 . S
C1173 C1175 1.433 . S
C1174 C1170 1.350 . S
C1174 C1171 1.463 . S
C1174 N1178 1.427 . S
C1175 H1165 0.929 . S
C1175 C1173 1.433 . S
C1175 N1178 1.384 . S
C1176 H1167 0.929 . S
C1176 C1168 1.378 . S
C1176 C1171 1.350 . S
C1177 H1164 0.929 . S
C1177 C1169 1.433 . S
C1177 N1179 1.384 . S
N1178 C1174 1.427 . S
N1178 C1175 1.384 . S
N1179 C1171 1.427 . S
N1179 C1177 1.384 . S
H1180 C1186 0.930 . S
H1181 C1190 0.930 . S
H1182 C1195 0.929 . S
H1183 C1193 0.929 . S
H1184 C1188 0.929 . S
H1185 C1194 0.929 . S
C1186 H1180 0.930 . S
C1186 C1187 1.367 . S
C1186 C1194 1.378 . S
C1187 C1186 1.367 . S
C1187 C1195 1.433 . S
C1188 H1184 0.929 . S
C1188 C1190 1.378 . S
C1188 C1192 1.350 . S
C1189 C1192 1.463 . S
C1189 C1194 1.350 . S
C1189 N1197 1.427 . S
C1190 H1181 0.930 . S
C1190 C1188 1.378 . S
C1190 C1191 1.367 . S
C1191 C1190 1.367 . S
C1191 C1193 1.433 . S
C1192 C1188 1.350 . S
C1192 C1189 1.463 . S
C1192 N1196 1.427 . S
C1193 H1183 0.929 . S
C1193 C1191 1.433 . S
C1193 N1196 1.384 . S
C1194 H1185 0.929 . S
C1194 C1186 1.378 . S
C1194 C1189 1.350 . S
C1195 H1182 0.929 . S
C1195 C1187 1.433 . S
C1195 N1197 1.384 . S
N1196 C1192 1.427 . S
N1196 C1193 1.384 . S
N1197 C1189 1.427 . S
N1197 C1195 1.384 . S
H1198 C1204 0.930 . S
H1199 C1208 0.930 . S
H1200 C1213 0.929 . S
H1201 C1211 0.929 . S
H1202 C1206 0.929 . S
H1203 C1212 0.929 . S
C1204 H1198 0.930 . S
C1204 C1205 1.367 . S
C1204 C1212 1.378 . S
C1205 C1204 1.367 . S
C1205 C1213 1.433 . S
C1206 H1202 0.929 . S
C1206 C1208 1.378 . S
C1206 C1210 1.350 . S
C1207 C1210 1.463 . S
C1207 C1212 1.350 . S
C1207 N1215 1.427 . S
C1208 H1199 0.930 . S
C1208 C1206 1.378 . S
C1208 C1209 1.367 . S
C1209 C1208 1.367 . S
C1209 C1211 1.433 . S
C1210 C1206 1.350 . S
C1210 C1207 1.463 . S
C1210 N1214 1.427 . S
C1211 H1201 0.929 . S
C1211 C1209 1.433 . S
C1211 N1214 1.384 . S
C1212 H1203 0.929 . S
C1212 C1204 1.378 . S
C1212 C1207 1.350 . S
C1213 H1200 0.929 . S
C1213 C1205 1.433 . S
C1213 N1215 1.384 . S
N1214 C1210 1.427 . S
N1214 C1211 1.384 . S
N1215 C1207 1.427 . S
N1215 C1213 1.384 . S
H1216 C1222 0.930 . S
H1217 C1226 0.930 . S
H1218 C1231 0.929 . S
H1219 C1229 0.929 . S
H1220 C1224 0.929 . S
H1221 C1230 0.929 . S
C1222 H1216 0.930 . S
C1222 C1223 1.367 . S
C1222 C1230 1.378 . S
C1223 C1222 1.367 . S
C1223 C1231 1.433 . S
C1224 H1220 0.929 . S
C1224 C1226 1.378 . S
C1224 C1228 1.350 . S
C1225 C1228 1.463 . S
C1225 C1230 1.350 . S
C1225 N1233 1.427 . S
C1226 H1217 0.930 . S
C1226 C1224 1.378 . S
C1226 C1227 1.367 . S
C1227 C1226 1.367 . S
C1227 C1229 1.433 . S
C1228 C1224 1.350 . S
C1228 C1225 1.463 . S
C1228 N1232 1.427 . S
C1229 H1219 0.929 . S
C1229 C1227 1.433 . S
C1229 N1232 1.384 . S
C1230 H1221 0.929 . S
C1230 C1222 1.378 . S
C1230 C1225 1.350 . S
C1231 H1218 0.929 . S
C1231 C1223 1.433 . S
C1231 N1233 1.384 . S
N1232 C1228 1.427 . S
N1232 C1229 1.384 . S
N1233 C1225 1.427 . S
N1233 C1231 1.384 . S
H1234 C1240 0.930 . S
H1235 C1244 0.930 . S
H1236 C1249 0.929 . S
H1237 C1247 0.929 . S
H1238 C1242 0.929 . S
H1239 C1248 0.929 . S
C1240 H1234 0.930 . S
C1240 C1241 1.367 . S
C1240 C1248 1.378 . S
C1241 C1240 1.367 . S
C1241 C1249 1.433 . S
C1242 H1238 0.929 . S
C1242 C1244 1.378 . S
C1242 C1246 1.350 . S
C1243 C1246 1.463 . S
C1243 C1248 1.350 . S
C1243 N1251 1.427 . S
C1244 H1235 0.930 . S
C1244 C1242 1.378 . S
C1244 C1245 1.367 . S
C1245 C1244 1.367 . S
C1245 C1247 1.433 . S
C1246 C1242 1.350 . S
C1246 C1243 1.463 . S
C1246 N1250 1.427 . S
C1247 H1237 0.929 . S
C1247 C1245 1.433 . S
C1247 N1250 1.384 . S
C1248 H1239 0.929 . S
C1248 C1240 1.378 . S
C1248 C1243 1.350 . S
C1249 H1236 0.929 . S
C1249 C1241 1.433 . S
C1249 N1251 1.384 . S
N1250 C1246 1.427 . S
N1250 C1247 1.384 . S
N1251 C1243 1.427 . S
N1251 C1249 1.384 . S
H1252 C1258 0.930 . S
H1253 C1262 0.930 . S
H1254 C1267 0.929 . S
H1255 C1265 0.929 . S
H1256 C1260 0.929 . S
H1257 C1266 0.929 . S
C1258 H1252 0.930 . S
C1258 C1259 1.367 . S
C1258 C1266 1.378 . S
C1259 C1258 1.367 . S
C1259 C1267 1.433 . S
C1260 H1256 0.929 . S
C1260 C1262 1.378 . S
C1260 C1264 1.350 . S
C1261 C1264 1.463 . S
C1261 C1266 1.350 . S
C1261 N1269 1.427 . S
C1262 H1253 0.930 . S
C1262 C1260 1.378 . S
C1262 C1263 1.367 . S
C1263 C1262 1.367 . S
C1263 C1265 1.433 . S
C1264 C1260 1.350 . S
C1264 C1261 1.463 . S
C1264 N1268 1.427 . S
C1265 H1255 0.929 . S
C1265 C1263 1.433 . S
C1265 N1268 1.384 . S
C1266 H1257 0.929 . S
C1266 C1258 1.378 . S
C1266 C1261 1.350 . S
C1267 H1254 0.929 . S
C1267 C1259 1.433 . S
C1267 N1269 1.384 . S
N1268 C1264 1.427 . S
N1268 C1265 1.384 . S
N1269 C1261 1.427 . S
N1269 C1267 1.384 . S
H1270 C1276 0.930 . S
H1271 C1280 0.930 . S
H1272 C1285 0.929 . S
H1273 C1283 0.929 . S
H1274 C1278 0.929 . S
H1275 C1284 0.929 . S
C1276 H1270 0.930 . S
C1276 C1277 1.367 . S
C1276 C1284 1.378 . S
C1277 C1276 1.367 . S
C1277 C1285 1.433 . S
C1278 H1274 0.929 . S
C1278 C1280 1.378 . S
C1278 C1282 1.350 . S
C1279 C1282 1.463 . S
C1279 C1284 1.350 . S
C1279 N1287 1.427 . S
C1280 H1271 0.930 . S
C1280 C1278 1.378 . S
C1280 C1281 1.367 . S
C1281 C1280 1.367 . S
C1281 C1283 1.433 . S
C1282 C1278 1.350 . S
C1282 C1279 1.463 . S
C1282 N1286 1.427 . S
C1283 H1273 0.929 . S
C1283 C1281 1.433 . S
C1283 N1286 1.384 . S
C1284 H1275 0.929 . S
C1284 C1276 1.378 . S
C1284 C1279 1.350 . S
C1285 H1272 0.929 . S
C1285 C1277 1.433 . S
C1285 N1287 1.384 . S
N1286 C1282 1.427 . S
N1286 C1283 1.384 . S
N1287 C1279 1.427 . S
N1287 C1285 1.384 . S
H1288 C1294 0.930 . S
H1289 C1298 0.930 . S
H1290 C1303 0.929 . S
H1291 C1301 0.929 . S
H1292 C1296 0.929 . S
H1293 C1302 0.929 . S
C1294 H1288 0.930 . S
C1294 C1295 1.367 . S
C1294 C1302 1.378 . S
C1295 C1294 1.367 . S
C1295 C1303 1.433 . S
C1296 H1292 0.929 . S
C1296 C1298 1.378 . S
C1296 C1300 1.350 . S
C1297 C1300 1.463 . S
C1297 C1302 1.350 . S
C1297 N1305 1.427 . S
C1298 H1289 0.930 . S
C1298 C1296 1.378 . S
C1298 C1299 1.367 . S
C1299 C1298 1.367 . S
C1299 C1301 1.433 . S
C1300 C1296 1.350 . S
C1300 C1297 1.463 . S
C1300 N1304 1.427 . S
C1301 H1291 0.929 . S
C1301 C1299 1.433 . S
C1301 N1304 1.384 . S
C1302 H1293 0.929 . S
C1302 C1294 1.378 . S
C1302 C1297 1.350 . S
C1303 H1290 0.929 . S
C1303 C1295 1.433 . S
C1303 N1305 1.384 . S
N1304 C1300 1.427 . S
N1304 C1301 1.384 . S
N1305 C1297 1.427 . S
N1305 C1303 1.384 . S
H1306 C1312 0.930 . S
H1307 C1316 0.930 . S
H1308 C1321 0.929 . S
H1309 C1319 0.929 . S
H1310 C1314 0.929 . S
H1311 C1320 0.929 . S
C1312 H1306 0.930 . S
C1312 C1313 1.367 . S
C1312 C1320 1.378 . S
C1313 C1312 1.367 . S
C1313 C1321 1.433 . S
C1314 H1310 0.929 . S
C1314 C1316 1.378 . S
C1314 C1318 1.350 . S
C1315 C1318 1.463 . S
C1315 C1320 1.350 . S
C1315 N1323 1.427 . S
C1316 H1307 0.930 . S
C1316 C1314 1.378 . S
C1316 C1317 1.367 . S
C1317 C1316 1.367 . S
C1317 C1319 1.433 . S
C1318 C1314 1.350 . S
C1318 C1315 1.463 . S
C1318 N1322 1.427 . S
C1319 H1309 0.929 . S
C1319 C1317 1.433 . S
C1319 N1322 1.384 . S
C1320 H1311 0.929 . S
C1320 C1312 1.378 . S
C1320 C1315 1.350 . S
C1321 H1308 0.929 . S
C1321 C1313 1.433 . S
C1321 N1323 1.384 . S
N1322 C1318 1.427 . S
N1322 C1319 1.384 . S
N1323 C1315 1.427 . S
N1323 C1321 1.384 . S
H1324 C1330 0.930 . S
H1325 C1334 0.930 . S
H1326 C1339 0.929 . S
H1327 C1337 0.929 . S
H1328 C1332 0.929 . S
H1329 C1338 0.929 . S
C1330 H1324 0.930 . S
C1330 C1331 1.367 . S
C1330 C1338 1.378 . S
C1331 C1330 1.367 . S
C1331 C1339 1.433 . S
C1332 H1328 0.929 . S
C1332 C1334 1.378 . S
C1332 C1336 1.350 . S
C1333 C1336 1.463 . S
C1333 C1338 1.350 . S
C1333 N1341 1.427 . S
C1334 H1325 0.930 . S
C1334 C1332 1.378 . S
C1334 C1335 1.367 . S
C1335 C1334 1.367 . S
C1335 C1337 1.433 . S
C1336 C1332 1.350 . S
C1336 C1333 1.463 . S
C1336 N1340 1.427 . S
C1337 H1327 0.929 . S
C1337 C1335 1.433 . S
C1337 N1340 1.384 . S
C1338 H1329 0.929 . S
C1338 C1330 1.378 . S
C1338 C1333 1.350 . S
C1339 H1326 0.929 . S
C1339 C1331 1.433 . S
C1339 N1341 1.384 . S
N1340 C1336 1.427 . S
N1340 C1337 1.384 . S
N1341 C1333 1.427 . S
N1341 C1339 1.384 . S
H1342 C1348 0.930 . S
H1343 C1352 0.930 . S
H1344 C1357 0.929 . S
H1345 C1355 0.929 . S
H1346 C1350 0.929 . S
H1347 C1356 0.929 . S
C1348 H1342 0.930 . S
C1348 C1349 1.367 . S
C1348 C1356 1.378 . S
C1349 C1348 1.367 . S
C1349 C1357 1.433 . S
C1350 H1346 0.929 . S
C1350 C1352 1.378 . S
C1350 C1354 1.350 . S
C1351 C1354 1.463 . S
C1351 C1356 1.350 . S
C1351 N1359 1.427 . S
C1352 H1343 0.930 . S
C1352 C1350 1.378 . S
C1352 C1353 1.367 . S
C1353 C1352 1.367 . S
C1353 C1355 1.433 . S
C1354 C1350 1.350 . S
C1354 C1351 1.463 . S
C1354 N1358 1.427 . S
C1355 H1345 0.929 . S
C1355 C1353 1.433 . S
C1355 N1358 1.384 . S
C1356 H1347 0.929 . S
C1356 C1348 1.378 . S
C1356 C1351 1.350 . S
C1357 H1344 0.929 . S
C1357 C1349 1.433 . S
C1357 N1359 1.384 . S
N1358 C1354 1.427 . S
N1358 C1355 1.384 . S
N1359 C1351 1.427 . S
N1359 C1357 1.384 . S
H1360 C1366 0.930 . S
H1361 C1370 0.930 . S
H1362 C1375 0.929 . S
H1363 C1373 0.929 . S
H1364 C1368 0.929 . S
H1365 C1374 0.929 . S
C1366 H1360 0.930 . S
C1366 C1367 1.367 . S
C1366 C1374 1.378 . S
C1367 C1366 1.367 . S
C1367 C1375 1.433 . S
C1368 H1364 0.929 . S
C1368 C1370 1.378 . S
C1368 C1372 1.350 . S
C1369 C1372 1.463 . S
C1369 C1374 1.350 . S
C1369 N1377 1.427 . S
C1370 H1361 0.930 . S
C1370 C1368 1.378 . S
C1370 C1371 1.367 . S
C1371 C1370 1.367 . S
C1371 C1373 1.433 . S
C1372 C1368 1.350 . S
C1372 C1369 1.463 . S
C1372 N1376 1.427 . S
C1373 H1363 0.929 . S
C1373 C1371 1.433 . S
C1373 N1376 1.384 . S
C1374 H1365 0.929 . S
C1374 C1366 1.378 . S
C1374 C1369 1.350 . S
C1375 H1362 0.929 . S
C1375 C1367 1.433 . S
C1375 N1377 1.384 . S
N1376 C1372 1.427 . S
N1376 C1373 1.384 . S
N1377 C1369 1.427 . S
N1377 C1375 1.384 . S
H1378 C1384 0.930 . S
H1379 C1388 0.930 . S
H1380 C1393 0.929 . S
H1381 C1391 0.929 . S
H1382 C1386 0.929 . S
H1383 C1392 0.929 . S
C1384 H1378 0.930 . S
C1384 C1385 1.367 . S
C1384 C1392 1.378 . S
C1385 C1384 1.367 . S
C1385 C1393 1.433 . S
C1386 H1382 0.929 . S
C1386 C1388 1.378 . S
C1386 C1390 1.350 . S
C1387 C1390 1.463 . S
C1387 C1392 1.350 . S
C1387 N1395 1.427 . S
C1388 H1379 0.930 . S
C1388 C1386 1.378 . S
C1388 C1389 1.367 . S
C1389 C1388 1.367 . S
C1389 C1391 1.433 . S
C1390 C1386 1.350 . S
C1390 C1387 1.463 . S
C1390 N1394 1.427 . S
C1391 H1381 0.929 . S
C1391 C1389 1.433 . S
C1391 N1394 1.384 . S
C1392 H1383 0.929 . S
C1392 C1384 1.378 . S
C1392 C1387 1.350 . S
C1393 H1380 0.929 . S
C1393 C1385 1.433 . S
C1393 N1395 1.384 . S
N1394 C1390 1.427 . S
N1394 C1391 1.384 . S
N1395 C1387 1.427 . S
N1395 C1393 1.384 . S
H1396 C1402 0.930 . S
H1397 C1406 0.930 . S
H1398 C1411 0.929 . S
H1399 C1409 0.929 . S
H1400 C1404 0.929 . S
H1401 C1410 0.929 . S
C1402 H1396 0.930 . S
C1402 C1403 1.367 . S
C1402 C1410 1.378 . S
C1403 C1402 1.367 . S
C1403 C1411 1.433 . S
C1404 H1400 0.929 . S
C1404 C1406 1.378 . S
C1404 C1408 1.350 . S
C1405 C1408 1.463 . S
C1405 C1410 1.350 . S
C1405 N1413 1.427 . S
C1406 H1397 0.930 . S
C1406 C1404 1.378 . S
C1406 C1407 1.367 . S
C1407 C1406 1.367 . S
C1407 C1409 1.433 . S
C1408 C1404 1.350 . S
C1408 C1405 1.463 . S
C1408 N1412 1.427 . S
C1409 H1399 0.929 . S
C1409 C1407 1.433 . S
C1409 N1412 1.384 . S
C1410 H1401 0.929 . S
C1410 C1402 1.378 . S
C1410 C1405 1.350 . S
C1411 H1398 0.929 . S
C1411 C1403 1.433 . S
C1411 N1413 1.384 . S
N1412 C1408 1.427 . S
N1412 C1409 1.384 . S
N1413 C1405 1.427 . S
N1413 C1411 1.384 . S
H1414 C1420 0.930 . S
H1415 C1424 0.930 . S
H1416 C1429 0.929 . S
H1417 C1427 0.929 . S
H1418 C1422 0.929 . S
H1419 C1428 0.929 . S
C1420 H1414 0.930 . S
C1420 C1421 1.367 . S
C1420 C1428 1.378 . S
C1421 C1420 1.367 . S
C1421 C1429 1.433 . S
C1422 H1418 0.929 . S
C1422 C1424 1.378 . S
C1422 C1426 1.350 . S
C1423 C1426 1.463 . S
C1423 C1428 1.350 . S
C1423 N1431 1.427 . S
C1424 H1415 0.930 . S
C1424 C1422 1.378 . S
C1424 C1425 1.367 . S
C1425 C1424 1.367 . S
C1425 C1427 1.433 . S
C1426 C1422 1.350 . S
C1426 C1423 1.463 . S
C1426 N1430 1.427 . S
C1427 H1417 0.929 . S
C1427 C1425 1.433 . S
C1427 N1430 1.384 . S
C1428 H1419 0.929 . S
C1428 C1420 1.378 . S
C1428 C1423 1.350 . S
C1429 H1416 0.929 . S
C1429 C1421 1.433 . S
C1429 N1431 1.384 . S
N1430 C1426 1.427 . S
N1430 C1427 1.384 . S
N1431 C1423 1.427 . S
N1431 C1429 1.384 . S
H1432 C1438 0.930 . S
H1433 C1442 0.930 . S
H1434 C1447 0.929 . S
H1435 C1445 0.929 . S
H1436 C1440 0.929 . S
H1437 C1446 0.929 . S
C1438 H1432 0.930 . S
C1438 C1439 1.367 . S
C1438 C1446 1.378 . S
C1439 C1438 1.367 . S
C1439 C1447 1.433 . S
C1440 H1436 0.929 . S
C1440 C1442 1.378 . S
C1440 C1444 1.350 . S
C1441 C1444 1.463 . S
C1441 C1446 1.350 . S
C1441 N1449 1.427 . S
C1442 H1433 0.930 . S
C1442 C1440 1.378 . S
C1442 C1443 1.367 . S
C1443 C1442 1.367 . S
C1443 C1445 1.433 . S
C1444 C1440 1.350 . S
C1444 C1441 1.463 . S
C1444 N1448 1.427 . S
C1445 H1435 0.929 . S
C1445 C1443 1.433 . S
C1445 N1448 1.384 . S
C1446 H1437 0.929 . S
C1446 C1438 1.378 . S
C1446 C1441 1.350 . S
C1447 H1434 0.929 . S
C1447 C1439 1.433 . S
C1447 N1449 1.384 . S
N1448 C1444 1.427 . S
N1448 C1445 1.384 . S
N1449 C1441 1.427 . S
N1449 C1447 1.384 . S
H1450 C1456 0.930 . S
H1451 C1460 0.930 . S
H1452 C1465 0.929 . S
H1453 C1463 0.929 . S
H1454 C1458 0.929 . S
H1455 C1464 0.929 . S
C1456 H1450 0.930 . S
C1456 C1457 1.367 . S
C1456 C1464 1.378 . S
C1457 C1456 1.367 . S
C1457 C1465 1.433 . S
C1458 H1454 0.929 . S
C1458 C1460 1.378 . S
C1458 C1462 1.350 . S
C1459 C1462 1.463 . S
C1459 C1464 1.350 . S
C1459 N1467 1.427 . S
C1460 H1451 0.930 . S
C1460 C1458 1.378 . S
C1460 C1461 1.367 . S
C1461 C1460 1.367 . S
C1461 C1463 1.433 . S
C1462 C1458 1.350 . S
C1462 C1459 1.463 . S
C1462 N1466 1.427 . S
C1463 H1453 0.929 . S
C1463 C1461 1.433 . S
C1463 N1466 1.384 . S
C1464 H1455 0.929 . S
C1464 C1456 1.378 . S
C1464 C1459 1.350 . S
C1465 H1452 0.929 . S
C1465 C1457 1.433 . S
C1465 N1467 1.384 . S
N1466 C1462 1.427 . S
N1466 C1463 1.384 . S
N1467 C1459 1.427 . S
N1467 C1465 1.384 . S
H1468 C1474 0.930 . S
H1469 C1478 0.930 . S
H1470 C1483 0.929 . S
H1471 C1481 0.929 . S
H1472 C1476 0.929 . S
H1473 C1482 0.929 . S
C1474 H1468 0.930 . S
C1474 C1475 1.367 . S
C1474 C1482 1.378 . S
C1475 C1474 1.367 . S
C1475 C1483 1.433 . S
C1476 H1472 0.929 . S
C1476 C1478 1.378 . S
C1476 C1480 1.350 . S
C1477 C1480 1.463 . S
C1477 C1482 1.350 . S
C1477 N1485 1.427 . S
C1478 H1469 0.930 . S
C1478 C1476 1.378 . S
C1478 C1479 1.367 1_655 S
C1479 C1478 1.367 1_455 S
C1479 C1481 1.433 . S
C1480 C1476 1.350 . S
C1480 C1477 1.463 . S
C1480 N1484 1.427 . S
C1481 H1471 0.929 . S
C1481 C1479 1.433 . S
C1481 N1484 1.384 1_455 S
C1482 H1473 0.929 . S
C1482 C1474 1.378 . S
C1482 C1477 1.350 . S
C1483 H1470 0.929 . S
C1483 C1475 1.433 . S
C1483 N1485 1.384 . S
N1484 C1480 1.427 . S
N1484 C1481 1.384 1_655 S
N1485 C1477 1.427 . S
N1485 C1483 1.384 . S
H1486 C1492 0.930 . S
H1487 C1496 0.930 . S
H1488 C1501 0.929 . S
H1489 C1499 0.929 . S
H1490 C1494 0.929 . S
H1491 C1500 0.929 . S
C1492 H1486 0.930 . S
C1492 C1493 1.367 . S
C1492 C1500 1.378 . S
C1493 C1492 1.367 . S
C1493 C1501 1.433 . S
C1494 H1490 0.929 . S
C1494 C1496 1.378 . S
C1494 C1498 1.350 . S
C1495 C1498 1.463 . S
C1495 C1500 1.350 . S
C1495 N1503 1.427 . S
C1496 H1487 0.930 . S
C1496 C1494 1.378 . S
C1496 C1497 1.367 . S
C1497 C1496 1.367 . S
C1497 C1499 1.433 . S
C1498 C1494 1.350 . S
C1498 C1495 1.463 . S
C1498 N1502 1.427 . S
C1499 H1489 0.929 . S
C1499 C1497 1.433 . S
C1499 N1502 1.384 . S
C1500 H1491 0.929 . S
C1500 C1492 1.378 . S
C1500 C1495 1.350 . S
C1501 H1488 0.929 . S
C1501 C1493 1.433 . S
C1501 N1503 1.384 . S
N1502 C1498 1.427 . S
N1502 C1499 1.384 . S
N1503 C1495 1.427 . S
N1503 C1501 1.384 . S
H1504 C1510 0.930 . S
H1505 C1514 0.930 . S
H1506 C1519 0.929 . S
H1507 C1517 0.929 . S
H1508 C1512 0.929 . S
H1509 C1518 0.929 . S
C1510 H1504 0.930 . S
C1510 C1511 1.367 . S
C1510 C1518 1.378 . S
C1511 C1510 1.367 . S
C1511 C1519 1.433 . S
C1512 H1508 0.929 . S
C1512 C1514 1.378 . S
C1512 C1516 1.350 . S
C1513 C1516 1.463 . S
C1513 C1518 1.350 . S
C1513 N1521 1.427 . S
C1514 H1505 0.930 . S
C1514 C1512 1.378 . S
C1514 C1515 1.367 . S
C1515 C1514 1.367 . S
C1515 C1517 1.433 . S
C1516 C1512 1.350 . S
C1516 C1513 1.463 . S
C1516 N1520 1.427 . S
C1517 H1507 0.929 . S
C1517 C1515 1.433 . S
C1517 N1520 1.384 . S
C1518 H1509 0.929 . S
C1518 C1510 1.378 . S
C1518 C1513 1.350 . S
C1519 H1506 0.929 . S
C1519 C1511 1.433 . S
C1519 N1521 1.384 . S
N1520 C1516 1.427 . S
N1520 C1517 1.384 . S
N1521 C1513 1.427 . S
N1521 C1519 1.384 . S
H1522 C1528 0.930 . S
H1523 C1532 0.930 . S
H1524 C1537 0.929 . S
H1525 C1535 0.929 . S
H1526 C1530 0.929 . S
H1527 C1536 0.929 . S
C1528 H1522 0.930 . S
C1528 C1529 1.367 . S
C1528 C1536 1.378 . S
C1529 C1528 1.367 . S
C1529 C1537 1.433 . S
C1530 H1526 0.929 . S
C1530 C1532 1.378 . S
C1530 C1534 1.350 . S
C1531 C1534 1.463 . S
C1531 C1536 1.350 . S
C1531 N1539 1.427 . S
C1532 H1523 0.930 . S
C1532 C1530 1.378 . S
C1532 C1533 1.367 . S
C1533 C1532 1.367 . S
C1533 C1535 1.433 . S
C1534 C1530 1.350 . S
C1534 C1531 1.463 . S
C1534 N1538 1.427 . S
C1535 H1525 0.929 . S
C1535 C1533 1.433 . S
C1535 N1538 1.384 . S
C1536 H1527 0.929 . S
C1536 C1528 1.378 . S
C1536 C1531 1.350 . S
C1537 H1524 0.929 . S
C1537 C1529 1.433 . S
C1537 N1539 1.384 . S
N1538 C1534 1.427 . S
N1538 C1535 1.384 . S
N1539 C1531 1.427 . S
N1539 C1537 1.384 . S
H1540 C1546 0.930 . S
H1541 C1550 0.930 1_455 S
H1542 C1555 0.929 . S
H1543 C1553 0.925 1_455 S
H1544 C1548 0.929 . S
H1545 C1554 0.929 . S
C1546 H1540 0.930 . S
C1546 C1547 1.367 . S
C1546 C1554 1.378 . S
C1547 C1546 1.367 . S
C1547 C1555 1.433 . S
C1548 H1544 0.929 . S
C1548 C1550 1.378 . S
C1548 C1552 1.350 . S
C1549 C1552 1.463 . S
C1549 C1554 1.350 . S
C1549 N1557 1.427 . S
C1550 H1541 0.930 1_655 S
C1550 C1548 1.378 . S
C1550 C1551 1.367 1_655 S
C1551 C1550 1.367 1_455 S
C1551 C1553 1.433 1_455 S
C1552 C1548 1.350 . S
C1552 C1549 1.463 . S
C1552 N1556 1.427 . S
C1553 H1543 0.925 1_655 S
C1553 C1551 1.433 1_655 S
C1553 N1556 1.384 . S
C1554 H1545 0.929 . S
C1554 C1546 1.378 . S
C1554 C1549 1.350 . S
C1555 H1542 0.929 . S
C1555 C1547 1.433 . S
C1555 N1557 1.384 . S
N1556 C1552 1.427 . S
N1556 C1553 1.384 . S
N1557 C1549 1.427 . S
N1557 C1555 1.384 . S
H1558 C1564 0.930 . S
H1559 C1568 0.930 . S
H1560 C1573 0.929 . S
H1561 C1571 0.929 . S
H1562 C1566 0.929 . S
H1563 C1572 0.929 . S
C1564 H1558 0.930 . S
C1564 C1565 1.367 . S
C1564 C1572 1.378 . S
C1565 C1564 1.367 . S
C1565 C1573 1.433 . S
C1566 H1562 0.929 . S
C1566 C1568 1.378 . S
C1566 C1570 1.350 . S
C1567 C1570 1.463 . S
C1567 C1572 1.350 . S
C1567 N1575 1.427 . S
C1568 H1559 0.930 . S
C1568 C1566 1.378 . S
C1568 C1569 1.367 . S
C1569 C1568 1.367 . S
C1569 C1571 1.433 . S
C1570 C1566 1.350 . S
C1570 C1567 1.463 . S
C1570 N1574 1.427 . S
C1571 H1561 0.929 . S
C1571 C1569 1.433 . S
C1571 N1574 1.384 . S
C1572 H1563 0.929 . S
C1572 C1564 1.378 . S
C1572 C1567 1.350 . S
C1573 H1560 0.929 . S
C1573 C1565 1.433 . S
C1573 N1575 1.384 . S
N1574 C1570 1.427 . S
N1574 C1571 1.384 . S
N1575 C1567 1.427 . S
N1575 C1573 1.384 . S
H1576 C1582 0.930 . S
H1577 C1586 0.930 . S
H1578 C1591 0.929 . S
H1579 C1589 0.929 . S
H1580 C1584 0.929 . S
H1581 C1590 0.929 . S
C1582 H1576 0.930 . S
C1582 C1583 1.367 . S
C1582 C1590 1.378 . S
C1583 C1582 1.367 . S
C1583 C1591 1.433 . S
C1584 H1580 0.929 . S
C1584 C1586 1.378 . S
C1584 C1588 1.350 . S
C1585 C1588 1.463 . S
C1585 C1590 1.350 . S
C1585 N1593 1.427 . S
C1586 H1577 0.930 . S
C1586 C1584 1.378 . S
C1586 C1587 1.367 . S
C1587 C1586 1.367 . S
C1587 C1589 1.433 . S
C1588 C1584 1.350 . S
C1588 C1585 1.463 . S
C1588 N1592 1.427 . S
C1589 H1579 0.929 . S
C1589 C1587 1.433 . S
C1589 N1592 1.384 . S
C1590 H1581 0.929 . S
C1590 C1582 1.378 . S
C1590 C1585 1.350 . S
C1591 H1578 0.929 . S
C1591 C1583 1.433 . S
C1591 N1593 1.384 . S
N1592 C1588 1.427 . S
N1592 C1589 1.384 . S
N1593 C1585 1.427 . S
N1593 C1591 1.384 . S
H1594 C1600 0.930 . S
H1595 C1604 0.930 . S
H1596 C1609 0.929 . S
H1597 C1607 0.929 . S
H1598 C1602 0.929 . S
H1599 C1608 0.929 . S
C1600 H1594 0.930 . S
C1600 C1601 1.367 . S
C1600 C1608 1.378 . S
C1601 C1600 1.367 . S
C1601 C1609 1.433 . S
C1602 H1598 0.929 . S
C1602 C1604 1.378 . S
C1602 C1606 1.350 . S
C1603 C1606 1.463 . S
C1603 C1608 1.350 . S
C1603 N1611 1.427 . S
C1604 H1595 0.930 . S
C1604 C1602 1.378 . S
C1604 C1605 1.367 . S
C1605 C1604 1.367 . S
C1605 C1607 1.433 . S
C1606 C1602 1.350 . S
C1606 C1603 1.463 . S
C1606 N1610 1.427 . S
C1607 H1597 0.929 . S
C1607 C1605 1.433 . S
C1607 N1610 1.384 . S
C1608 H1599 0.929 . S
C1608 C1600 1.378 . S
C1608 C1603 1.350 . S
C1609 H1596 0.929 . S
C1609 C1601 1.433 . S
C1609 N1611 1.384 . S
N1610 C1606 1.427 . S
N1610 C1607 1.384 . S
N1611 C1603 1.427 . S
N1611 C1609 1.384 . S
H1612 C1618 0.930 . S
H1613 C1622 0.930 . S
H1614 C1627 0.929 . S
H1615 C1625 0.929 . S
H1616 C1620 0.929 . S
H1617 C1626 0.929 . S
C1618 H1612 0.930 . S
C1618 C1619 1.367 . S
C1618 C1626 1.378 . S
C1619 C1618 1.367 . S
C1619 C1627 1.433 . S
C1620 H1616 0.929 . S
C1620 C1622 1.378 . S
C1620 C1624 1.350 . S
C1621 C1624 1.463 . S
C1621 C1626 1.350 . S
C1621 N1629 1.427 . S
C1622 H1613 0.930 . S
C1622 C1620 1.378 . S
C1622 C1623 1.367 . S
C1623 C1622 1.367 . S
C1623 C1625 1.433 . S
C1624 C1620 1.350 . S
C1624 C1621 1.463 . S
C1624 N1628 1.427 . S
C1625 H1615 0.929 . S
C1625 C1623 1.433 . S
C1625 N1628 1.384 . S
C1626 H1617 0.929 . S
C1626 C1618 1.378 . S
C1626 C1621 1.350 . S
C1627 H1614 0.929 . S
C1627 C1619 1.433 . S
C1627 N1629 1.384 . S
N1628 C1624 1.427 . S
N1628 C1625 1.384 . S
N1629 C1621 1.427 . S
N1629 C1627 1.384 . S
H1630 C1636 0.930 . S
H1631 C1640 0.930 . S
H1632 C1645 0.929 . S
H1633 C1643 0.929 . S
H1634 C1638 0.929 . S
H1635 C1644 0.929 . S
C1636 H1630 0.930 . S
C1636 C1637 1.367 . S
C1636 C1644 1.378 . S
C1637 C1636 1.367 . S
C1637 C1645 1.433 . S
C1638 H1634 0.929 . S
C1638 C1640 1.378 . S
C1638 C1642 1.350 . S
C1639 C1642 1.463 . S
C1639 C1644 1.350 . S
C1639 N1647 1.427 . S
C1640 H1631 0.930 . S
C1640 C1638 1.378 . S
C1640 C1641 1.367 . S
C1641 C1640 1.367 . S
C1641 C1643 1.433 . S
C1642 C1638 1.350 . S
C1642 C1639 1.463 . S
C1642 N1646 1.427 . S
C1643 H1633 0.929 . S
C1643 C1641 1.433 . S
C1643 N1646 1.384 . S
C1644 H1635 0.929 . S
C1644 C1636 1.378 . S
C1644 C1639 1.350 . S
C1645 H1632 0.929 . S
C1645 C1637 1.433 . S
C1645 N1647 1.384 . S
N1646 C1642 1.427 . S
N1646 C1643 1.384 . S
N1647 C1639 1.427 . S
N1647 C1645 1.384 . S
H1648 C1654 0.930 . S
H1649 C1658 0.930 . S
H1650 C1663 0.929 . S
H1651 C1661 0.929 . S
H1652 C1656 0.929 . S
H1653 C1662 0.929 . S
C1654 H1648 0.930 . S
C1654 C1655 1.367 . S
C1654 C1662 1.378 . S
C1655 C1654 1.367 . S
C1655 C1663 1.433 . S
C1656 H1652 0.929 . S
C1656 C1658 1.378 . S
C1656 C1660 1.350 . S
C1657 C1660 1.463 . S
C1657 C1662 1.350 . S
C1657 N1665 1.427 . S
C1658 H1649 0.930 . S
C1658 C1656 1.378 . S
C1658 C1659 1.367 . S
C1659 C1658 1.367 . S
C1659 C1661 1.433 . S
C1660 C1656 1.350 . S
C1660 C1657 1.463 . S
C1660 N1664 1.427 . S
C1661 H1651 0.929 . S
C1661 C1659 1.433 . S
C1661 N1664 1.384 . S
C1662 H1653 0.929 . S
C1662 C1654 1.378 . S
C1662 C1657 1.350 . S
C1663 H1650 0.929 . S
C1663 C1655 1.433 . S
C1663 N1665 1.384 . S
N1664 C1660 1.427 . S
N1664 C1661 1.384 . S
N1665 C1657 1.427 . S
N1665 C1663 1.384 . S
H1666 C1672 0.930 . S
H1667 C1676 0.930 . S
H1668 C1681 0.929 . S
H1669 C1679 0.929 . S
H1670 C1674 0.929 . S
H1671 C1680 0.929 . S
C1672 H1666 0.930 . S
C1672 C1673 1.367 . S
C1672 C1680 1.378 . S
C1673 C1672 1.367 . S
C1673 C1681 1.433 . S
C1674 H1670 0.929 . S
C1674 C1676 1.378 . S
C1674 C1678 1.350 . S
C1675 C1678 1.463 . S
C1675 C1680 1.350 . S
C1675 N1683 1.427 . S
C1676 H1667 0.930 . S
C1676 C1674 1.378 . S
C1676 C1677 1.367 . S
C1677 C1676 1.367 . S
C1677 C1679 1.433 . S
C1678 C1674 1.350 . S
C1678 C1675 1.463 . S
C1678 N1682 1.427 . S
C1679 H1669 0.929 . S
C1679 C1677 1.433 . S
C1679 N1682 1.384 . S
C1680 H1671 0.929 . S
C1680 C1672 1.378 . S
C1680 C1675 1.350 . S
C1681 H1668 0.929 . S
C1681 C1673 1.433 . S
C1681 N1683 1.384 . S
N1682 C1678 1.427 . S
N1682 C1679 1.384 . S
N1683 C1675 1.427 . S
N1683 C1681 1.384 . S
H1684 C1690 0.930 . S
H1685 C1694 0.930 . S
H1686 C1699 0.929 . S
H1687 C1697 0.929 . S
H1688 C1692 0.929 . S
H1689 C1698 0.929 . S
C1690 H1684 0.930 . S
C1690 C1691 1.367 . S
C1690 C1698 1.378 . S
C1691 C1690 1.367 . S
C1691 C1699 1.433 . S
C1692 H1688 0.929 . S
C1692 C1694 1.378 . S
C1692 C1696 1.350 . S
C1693 C1696 1.463 . S
C1693 C1698 1.350 . S
C1693 N1701 1.427 . S
C1694 H1685 0.930 . S
C1694 C1692 1.378 . S
C1694 C1695 1.367 . S
C1695 C1694 1.367 . S
C1695 C1697 1.433 . S
C1696 C1692 1.350 . S
C1696 C1693 1.463 . S
C1696 N1700 1.427 . S
C1697 H1687 0.929 . S
C1697 C1695 1.433 . S
C1697 N1700 1.384 . S
C1698 H1689 0.929 . S
C1698 C1690 1.378 . S
C1698 C1693 1.350 . S
C1699 H1686 0.929 . S
C1699 C1691 1.433 . S
C1699 N1701 1.384 . S
N1700 C1696 1.427 . S
N1700 C1697 1.384 . S
N1701 C1693 1.427 . S
N1701 C1699 1.384 . S
H1702 C1708 0.930 . S
H1703 C1712 0.930 . S
H1704 C1717 0.929 . S
H1705 C1715 0.929 . S
H1706 C1710 0.929 . S
H1707 C1716 0.929 . S
C1708 H1702 0.930 . S
C1708 C1709 1.367 . S
C1708 C1716 1.378 . S
C1709 C1708 1.367 . S
C1709 C1717 1.433 . S
C1710 H1706 0.929 . S
C1710 C1712 1.378 . S
C1710 C1714 1.350 . S
C1711 C1714 1.463 . S
C1711 C1716 1.350 . S
C1711 N1719 1.427 . S
C1712 H1703 0.930 . S
C1712 C1710 1.378 . S
C1712 C1713 1.367 . S
C1713 C1712 1.367 . S
C1713 C1715 1.433 . S
C1714 C1710 1.350 . S
C1714 C1711 1.463 . S
C1714 N1718 1.427 . S
C1715 H1705 0.929 . S
C1715 C1713 1.433 . S
C1715 N1718 1.384 . S
C1716 H1707 0.929 . S
C1716 C1708 1.378 . S
C1716 C1711 1.350 . S
C1717 H1704 0.929 . S
C1717 C1709 1.433 . S
C1717 N1719 1.384 . S
N1718 C1714 1.427 . S
N1718 C1715 1.384 . S
N1719 C1711 1.427 . S
N1719 C1717 1.384 . S
H1720 C1726 0.930 . S
H1721 C1730 0.930 . S
H1722 C1735 0.929 . S
H1723 C1733 0.929 . S
H1724 C1728 0.929 . S
H1725 C1734 0.929 . S
C1726 H1720 0.930 . S
C1726 C1727 1.367 . S
C1726 C1734 1.378 . S
C1727 C1726 1.367 . S
C1727 C1735 1.433 . S
C1728 H1724 0.929 . S
C1728 C1730 1.378 . S
C1728 C1732 1.350 . S
C1729 C1732 1.463 . S
C1729 C1734 1.350 . S
C1729 N1737 1.427 . S
C1730 H1721 0.930 . S
C1730 C1728 1.378 . S
C1730 C1731 1.367 . S
C1731 C1730 1.367 . S
C1731 C1733 1.433 . S
C1732 C1728 1.350 . S
C1732 C1729 1.463 . S
C1732 N1736 1.427 . S
C1733 H1723 0.929 . S
C1733 C1731 1.433 . S
C1733 N1736 1.384 . S
C1734 H1725 0.929 . S
C1734 C1726 1.378 . S
C1734 C1729 1.350 . S
C1735 H1722 0.929 . S
C1735 C1727 1.433 . S
C1735 N1737 1.384 . S
N1736 C1732 1.427 . S
N1736 C1733 1.384 . S
N1737 C1729 1.427 . S
N1737 C1735 1.384 . S
H1738 C1744 0.930 . S
H1739 C1748 0.930 . S
H1740 C1753 0.929 . S
H1741 C1751 0.929 . S
H1742 C1746 0.929 . S
H1743 C1752 0.929 . S
C1744 H1738 0.930 . S
C1744 C1745 1.367 . S
C1744 C1752 1.378 . S
C1745 C1744 1.367 . S
C1745 C1753 1.433 . S
C1746 H1742 0.929 . S
C1746 C1748 1.378 . S
C1746 C1750 1.350 . S
C1747 C1750 1.463 . S
C1747 C1752 1.350 . S
C1747 N1755 1.427 . S
C1748 H1739 0.930 . S
C1748 C1746 1.378 . S
C1748 C1749 1.367 . S
C1749 C1748 1.367 . S
C1749 C1751 1.433 . S
C1750 C1746 1.350 . S
C1750 C1747 1.463 . S
C1750 N1754 1.427 . S
C1751 H1741 0.929 . S
C1751 C1749 1.433 . S
C1751 N1754 1.384 . S
C1752 H1743 0.929 . S
C1752 C1744 1.378 . S
C1752 C1747 1.350 . S
C1753 H1740 0.929 . S
C1753 C1745 1.433 . S
C1753 N1755 1.384 . S
N1754 C1750 1.427 . S
N1754 C1751 1.384 . S
N1755 C1747 1.427 . S
N1755 C1753 1.384 . S
H1756 C1762 0.930 . S
H1757 C1766 0.930 . S
H1758 C1771 0.929 . S
H1759 C1769 0.929 . S
H1760 C1764 0.929 . S
H1761 C1770 0.929 . S
C1762 H1756 0.930 . S
C1762 C1763 1.367 . S
C1762 C1770 1.378 . S
C1763 C1762 1.367 . S
C1763 C1771 1.433 . S
C1764 H1760 0.929 . S
C1764 C1766 1.378 . S
C1764 C1768 1.350 . S
C1765 C1768 1.463 . S
C1765 C1770 1.350 . S
C1765 N1773 1.427 . S
C1766 H1757 0.930 . S
C1766 C1764 1.378 . S
C1766 C1767 1.367 . S
C1767 C1766 1.367 . S
C1767 C1769 1.433 . S
C1768 C1764 1.350 . S
C1768 C1765 1.463 . S
C1768 N1772 1.427 . S
C1769 H1759 0.929 . S
C1769 C1767 1.433 . S
C1769 N1772 1.384 . S
C1770 H1761 0.929 . S
C1770 C1762 1.378 . S
C1770 C1765 1.350 . S
C1771 H1758 0.929 . S
C1771 C1763 1.433 . S
C1771 N1773 1.384 . S
N1772 C1768 1.427 . S
N1772 C1769 1.384 . S
N1773 C1765 1.427 . S
N1773 C1771 1.384 . S
H1774 C1780 0.930 . S
H1775 C1784 0.930 . S
H1776 C1789 0.929 . S
H1777 C1787 0.929 . S
H1778 C1782 0.929 . S
H1779 C1788 0.929 . S
C1780 H1774 0.930 . S
C1780 C1781 1.367 . S
C1780 C1788 1.378 . S
C1781 C1780 1.367 . S
C1781 C1789 1.433 . S
C1782 H1778 0.929 . S
C1782 C1784 1.378 . S
C1782 C1786 1.350 . S
C1783 C1786 1.463 . S
C1783 C1788 1.350 . S
C1783 N1791 1.427 . S
C1784 H1775 0.930 . S
C1784 C1782 1.378 . S
C1784 C1785 1.367 . S
C1785 C1784 1.367 . S
C1785 C1787 1.433 . S
C1786 C1782 1.350 . S
C1786 C1783 1.463 . S
C1786 N1790 1.427 . S
C1787 H1777 0.929 . S
C1787 C1785 1.433 . S
C1787 N1790 1.384 . S
C1788 H1779 0.929 . S
C1788 C1780 1.378 . S
C1788 C1783 1.350 . S
C1789 H1776 0.929 . S
C1789 C1781 1.433 . S
C1789 N1791 1.384 . S
N1790 C1786 1.427 . S
N1790 C1787 1.384 . S
N1791 C1783 1.427 . S
N1791 C1789 1.384 . S
H1792 C1798 0.930 . S
H1793 C1802 0.930 . S
H1794 C1807 0.929 . S
H1795 C1805 0.929 . S
H1796 C1800 0.929 . S
H1797 C1806 0.929 . S
C1798 H1792 0.930 . S
C1798 C1799 1.367 . S
C1798 C1806 1.378 . S
C1799 C1798 1.367 . S
C1799 C1807 1.433 . S
C1800 H1796 0.929 . S
C1800 C1802 1.378 . S
C1800 C1804 1.350 . S
C1801 C1804 1.463 . S
C1801 C1806 1.350 . S
C1801 N1809 1.427 . S
C1802 H1793 0.930 . S
C1802 C1800 1.378 . S
C1802 C1803 1.367 . S
C1803 C1802 1.367 . S
C1803 C1805 1.433 . S
C1804 C1800 1.350 . S
C1804 C1801 1.463 . S
C1804 N1808 1.427 . S
C1805 H1795 0.929 . S
C1805 C1803 1.433 . S
C1805 N1808 1.384 . S
C1806 H1797 0.929 . S
C1806 C1798 1.378 . S
C1806 C1801 1.350 . S
C1807 H1794 0.929 . S
C1807 C1799 1.433 . S
C1807 N1809 1.384 . S
N1808 C1804 1.427 . S
N1808 C1805 1.384 . S
N1809 C1801 1.427 . S
N1809 C1807 1.384 . S
H1810 C1816 0.930 . S
H1811 C1820 0.930 . S
H1812 C1825 0.929 . S
H1813 C1823 0.929 . S
H1814 C1818 0.929 . S
H1815 C1824 0.929 . S
C1816 H1810 0.930 . S
C1816 C1817 1.367 . S
C1816 C1824 1.378 . S
C1817 C1816 1.367 . S
C1817 C1825 1.433 . S
C1818 H1814 0.929 . S
C1818 C1820 1.378 . S
C1818 C1822 1.350 . S
C1819 C1822 1.463 . S
C1819 C1824 1.350 . S
C1819 N1827 1.427 . S
C1820 H1811 0.930 . S
C1820 C1818 1.378 . S
C1820 C1821 1.367 . S
C1821 C1820 1.367 . S
C1821 C1823 1.433 . S
C1822 C1818 1.350 . S
C1822 C1819 1.463 . S
C1822 N1826 1.427 . S
C1823 H1813 0.929 . S
C1823 C1821 1.433 . S
C1823 N1826 1.384 . S
C1824 H1815 0.929 . S
C1824 C1816 1.378 . S
C1824 C1819 1.350 . S
C1825 H1812 0.929 . S
C1825 C1817 1.433 . S
C1825 N1827 1.384 . S
N1826 C1822 1.427 . S
N1826 C1823 1.384 . S
N1827 C1819 1.427 . S
N1827 C1825 1.384 . S
H1828 C1834 0.930 . S
H1829 C1838 0.930 . S
H1830 C1843 0.929 . S
H1831 C1841 0.929 . S
H1832 C1836 0.929 . S
H1833 C1842 0.929 . S
C1834 H1828 0.930 . S
C1834 C1835 1.367 . S
C1834 C1842 1.378 . S
C1835 C1834 1.367 . S
C1835 C1843 1.433 . S
C1836 H1832 0.929 . S
C1836 C1838 1.378 . S
C1836 C1840 1.350 . S
C1837 C1840 1.463 . S
C1837 C1842 1.350 . S
C1837 N1845 1.427 . S
C1838 H1829 0.930 . S
C1838 C1836 1.378 . S
C1838 C1839 1.367 . S
C1839 C1838 1.367 . S
C1839 C1841 1.433 . S
C1840 C1836 1.350 . S
C1840 C1837 1.463 . S
C1840 N1844 1.427 . S
C1841 H1831 0.929 . S
C1841 C1839 1.433 . S
C1841 N1844 1.384 . S
C1842 H1833 0.929 . S
C1842 C1834 1.378 . S
C1842 C1837 1.350 . S
C1843 H1830 0.929 . S
C1843 C1835 1.433 . S
C1843 N1845 1.384 . S
N1844 C1840 1.427 . S
N1844 C1841 1.384 . S
N1845 C1837 1.427 . S
N1845 C1843 1.384 . S
H1846 C1852 0.930 . S
H1847 C1856 0.930 . S
H1848 C1861 0.929 . S
H1849 C1859 0.929 . S
H1850 C1854 0.929 . S
H1851 C1860 0.929 . S
C1852 H1846 0.930 . S
C1852 C1853 1.367 . S
C1852 C1860 1.378 . S
C1853 C1852 1.367 . S
C1853 C1861 1.433 . S
C1854 H1850 0.929 . S
C1854 C1856 1.378 . S
C1854 C1858 1.350 . S
C1855 C1858 1.463 . S
C1855 C1860 1.350 . S
C1855 N1863 1.427 . S
C1856 H1847 0.930 . S
C1856 C1854 1.378 . S
C1856 C1857 1.367 . S
C1857 C1856 1.367 . S
C1857 C1859 1.433 . S
C1858 C1854 1.350 . S
C1858 C1855 1.463 . S
C1858 N1862 1.427 . S
C1859 H1849 0.929 . S
C1859 C1857 1.433 . S
C1859 N1862 1.384 . S
C1860 H1851 0.929 . S
C1860 C1852 1.378 . S
C1860 C1855 1.350 . S
C1861 H1848 0.929 . S
C1861 C1853 1.433 . S
C1861 N1863 1.384 . S
N1862 C1858 1.427 . S
N1862 C1859 1.384 . S
N1863 C1855 1.427 . S
N1863 C1861 1.384 . S
H1864 C1870 0.930 . S
H1865 C1874 0.930 . S
H1866 C1879 0.929 . S
H1867 C1877 0.929 . S
H1868 C1872 0.929 . S
H1869 C1878 0.929 . S
C1870 H1864 0.930 . S
C1870 C1871 1.367 . S
C1870 C1878 1.378 . S
C1871 C1870 1.367 . S
C1871 C1879 1.433 . S
C1872 H1868 0.929 . S
C1872 C1874 1.378 . S
C1872 C1876 1.350 . S
C1873 C1876 1.463 . S
C1873 C1878 1.350 . S
C1873 N1881 1.427 . S
C1874 H1865 0.930 . S
C1874 C1872 1.378 . S
C1874 C1875 1.367 . S
C1875 C1874 1.367 . S
C1875 C1877 1.433 . S
C1876 C1872 1.350 . S
C1876 C1873 1.463 . S
C1876 N1880 1.427 . S
C1877 H1867 0.929 . S
C1877 C1875 1.433 . S
C1877 N1880 1.384 . S
C1878 H1869 0.929 . S
C1878 C1870 1.378 . S
C1878 C1873 1.350 . S
C1879 H1866 0.929 . S
C1879 C1871 1.433 . S
C1879 N1881 1.384 . S
N1880 C1876 1.427 . S
N1880 C1877 1.384 . S
N1881 C1873 1.427 . S
N1881 C1879 1.384 . S
H1882 C1888 0.930 . S
H1883 C1892 0.930 . S
H1884 C1897 0.929 . S
H1885 C1895 0.929 . S
H1886 C1890 0.929 . S
H1887 C1896 0.929 . S
C1888 H1882 0.930 . S
C1888 C1889 1.367 . S
C1888 C1896 1.378 . S
C1889 C1888 1.367 . S
C1889 C1897 1.433 . S
C1890 H1886 0.929 . S
C1890 C1892 1.378 . S
C1890 C1894 1.350 . S
C1891 C1894 1.463 . S
C1891 C1896 1.350 . S
C1891 N1899 1.427 . S
C1892 H1883 0.930 . S
C1892 C1890 1.378 . S
C1892 C1893 1.367 . S
C1893 C1892 1.367 . S
C1893 C1895 1.433 . S
C1894 C1890 1.350 . S
C1894 C1891 1.463 . S
C1894 N1898 1.427 . S
C1895 H1885 0.929 . S
C1895 C1893 1.433 . S
C1895 N1898 1.384 . S
C1896 H1887 0.929 . S
C1896 C1888 1.378 . S
C1896 C1891 1.350 . S
C1897 H1884 0.929 . S
C1897 C1889 1.433 . S
C1897 N1899 1.384 . S
N1898 C1894 1.427 . S
N1898 C1895 1.384 . S
N1899 C1891 1.427 . S
N1899 C1897 1.384 . S
H1900 C1906 0.930 . S
H1901 C1910 0.930 . S
H1902 C1915 0.929 . S
H1903 C1913 0.929 . S
H1904 C1908 0.929 . S
H1905 C1914 0.929 . S
C1906 H1900 0.930 . S
C1906 C1907 1.367 . S
C1906 C1914 1.378 . S
C1907 C1906 1.367 . S
C1907 C1915 1.433 . S
C1908 H1904 0.929 . S
C1908 C1910 1.378 . S
C1908 C1912 1.350 . S
C1909 C1912 1.463 . S
C1909 C1914 1.350 . S
C1909 N1917 1.427 . S
C1910 H1901 0.930 . S
C1910 C1908 1.378 . S
C1910 C1911 1.367 . S
C1911 C1910 1.367 . S
C1911 C1913 1.433 . S
C1912 C1908 1.350 . S
C1912 C1909 1.463 . S
C1912 N1916 1.427 . S
C1913 H1903 0.929 . S
C1913 C1911 1.433 . S
C1913 N1916 1.384 . S
C1914 H1905 0.929 . S
C1914 C1906 1.378 . S
C1914 C1909 1.350 . S
C1915 H1902 0.929 . S
C1915 C1907 1.433 . S
C1915 N1917 1.384 . S
N1916 C1912 1.427 . S
N1916 C1913 1.384 . S
N1917 C1909 1.427 . S
N1917 C1915 1.384 . S
H1918 C1924 0.930 . S
H1919 C1928 0.930 . S
H1920 C1933 0.929 . S
H1921 C1931 0.929 . S
H1922 C1926 0.929 . S
H1923 C1932 0.929 . S
C1924 H1918 0.930 . S
C1924 C1925 1.367 . S
C1924 C1932 1.378 . S
C1925 C1924 1.367 . S
C1925 C1933 1.433 . S
C1926 H1922 0.929 . S
C1926 C1928 1.378 . S
C1926 C1930 1.350 . S
C1927 C1930 1.463 . S
C1927 C1932 1.350 . S
C1927 N1935 1.427 . S
C1928 H1919 0.930 . S
C1928 C1926 1.378 . S
C1928 C1929 1.367 . S
C1929 C1928 1.367 . S
C1929 C1931 1.433 . S
C1930 C1926 1.350 . S
C1930 C1927 1.463 . S
C1930 N1934 1.427 . S
C1931 H1921 0.929 . S
C1931 C1929 1.433 . S
C1931 N1934 1.384 . S
C1932 H1923 0.929 . S
C1932 C1924 1.378 . S
C1932 C1927 1.350 . S
C1933 H1920 0.929 . S
C1933 C1925 1.433 . S
C1933 N1935 1.384 . S
N1934 C1930 1.427 . S
N1934 C1931 1.384 . S
N1935 C1927 1.427 . S
N1935 C1933 1.384 . S
H1936 C1942 0.930 . S
H1937 C1946 0.930 . S
H1938 C1951 0.929 . S
H1939 C1949 0.929 . S
H1940 C1944 0.929 . S
H1941 C1950 0.929 . S
C1942 H1936 0.930 . S
C1942 C1943 1.367 . S
C1942 C1950 1.378 . S
C1943 C1942 1.367 . S
C1943 C1951 1.433 . S
C1944 H1940 0.929 . S
C1944 C1946 1.378 . S
C1944 C1948 1.350 . S
C1945 C1948 1.463 . S
C1945 C1950 1.350 . S
C1945 N1953 1.427 . S
C1946 H1937 0.930 . S
C1946 C1944 1.378 . S
C1946 C1947 1.367 . S
C1947 C1946 1.367 . S
C1947 C1949 1.433 . S
C1948 C1944 1.350 . S
C1948 C1945 1.463 . S
C1948 N1952 1.427 . S
C1949 H1939 0.929 . S
C1949 C1947 1.433 . S
C1949 N1952 1.384 . S
C1950 H1941 0.929 . S
C1950 C1942 1.378 . S
C1950 C1945 1.350 . S
C1951 H1938 0.929 . S
C1951 C1943 1.433 . S
C1951 N1953 1.384 . S
N1952 C1948 1.427 . S
N1952 C1949 1.384 . S
N1953 C1945 1.427 . S
N1953 C1951 1.384 . S
H1954 C1960 0.930 . S
H1955 C1964 0.930 . S
H1956 C1969 0.929 . S
H1957 C1967 0.929 . S
H1958 C1962 0.929 . S
H1959 C1968 0.929 . S
C1960 H1954 0.930 . S
C1960 C1961 1.367 . S
C1960 C1968 1.378 . S
C1961 C1960 1.367 . S
C1961 C1969 1.433 . S
C1962 H1958 0.929 . S
C1962 C1964 1.378 . S
C1962 C1966 1.350 . S
C1963 C1966 1.463 . S
C1963 C1968 1.350 . S
C1963 N1971 1.427 . S
C1964 H1955 0.930 . S
C1964 C1962 1.378 . S
C1964 C1965 1.367 . S
C1965 C1964 1.367 . S
C1965 C1967 1.433 . S
C1966 C1962 1.350 . S
C1966 C1963 1.463 . S
C1966 N1970 1.427 . S
C1967 H1957 0.929 . S
C1967 C1965 1.433 . S
C1967 N1970 1.384 . S
C1968 H1959 0.929 . S
C1968 C1960 1.378 . S
C1968 C1963 1.350 . S
C1969 H1956 0.929 . S
C1969 C1961 1.433 . S
C1969 N1971 1.384 . S
N1970 C1966 1.427 . S
N1970 C1967 1.384 . S
N1971 C1963 1.427 . S
N1971 C1969 1.384 . S
H1972 C1978 0.930 . S
H1973 C1982 0.930 . S
H1974 C1987 0.929 . S
H1975 C1985 0.929 . S
H1976 C1980 0.929 . S
H1977 C1986 0.929 . S
C1978 H1972 0.930 . S
C1978 C1979 1.367 . S
C1978 C1986 1.378 . S
C1979 C1978 1.367 . S
C1979 C1987 1.433 . S
C1980 H1976 0.929 . S
C1980 C1982 1.378 . S
C1980 C1984 1.350 . S
C1981 C1984 1.463 . S
C1981 C1986 1.350 . S
C1981 N1989 1.427 . S
C1982 H1973 0.930 . S
C1982 C1980 1.378 . S
C1982 C1983 1.367 . S
C1983 C1982 1.367 . S
C1983 C1985 1.433 . S
C1984 C1980 1.350 . S
C1984 C1981 1.463 . S
C1984 N1988 1.427 . S
C1985 H1975 0.929 . S
C1985 C1983 1.433 . S
C1985 N1988 1.384 . S
C1986 H1977 0.929 . S
C1986 C1978 1.378 . S
C1986 C1981 1.350 . S
C1987 H1974 0.929 . S
C1987 C1979 1.433 . S
C1987 N1989 1.384 . S
N1988 C1984 1.427 . S
N1988 C1985 1.384 . S
N1989 C1981 1.427 . S
N1989 C1987 1.384 . S
H1990 C1996 0.930 . S
H1991 C2000 0.930 . S
H1992 C2005 0.929 . S
H1993 C2003 0.929 . S
H1994 C1998 0.929 . S
H1995 C2004 0.929 . S
C1996 H1990 0.930 . S
C1996 C1997 1.367 . S
C1996 C2004 1.378 . S
C1997 C1996 1.367 . S
C1997 C2005 1.433 . S
C1998 H1994 0.929 . S
C1998 C2000 1.378 . S
C1998 C2002 1.350 . S
C1999 C2002 1.463 . S
C1999 C2004 1.350 . S
C1999 N2007 1.427 . S
C2000 H1991 0.930 . S
C2000 C1998 1.378 . S
C2000 C2001 1.367 . S
C2001 C2000 1.367 . S
C2001 C2003 1.433 . S
C2002 C1998 1.350 . S
C2002 C1999 1.463 . S
C2002 N2006 1.427 . S
C2003 H1993 0.929 . S
C2003 C2001 1.433 . S
C2003 N2006 1.384 . S
C2004 H1995 0.929 . S
C2004 C1996 1.378 . S
C2004 C1999 1.350 . S
C2005 H1992 0.929 . S
C2005 C1997 1.433 . S
C2005 N2007 1.384 . S
N2006 C2002 1.427 . S
N2006 C2003 1.384 . S
N2007 C1999 1.427 . S
N2007 C2005 1.384 . S
H2008 C2014 0.930 . S
H2009 C2018 0.930 . S
H2010 C2023 0.929 . S
H2011 C2021 0.929 . S
H2012 C2016 0.929 . S
H2013 C2022 0.929 . S
C2014 H2008 0.930 . S
C2014 C2015 1.367 . S
C2014 C2022 1.378 . S
C2015 C2014 1.367 . S
C2015 C2023 1.433 . S
C2016 H2012 0.929 . S
C2016 C2018 1.378 . S
C2016 C2020 1.350 . S
C2017 C2020 1.463 . S
C2017 C2022 1.350 . S
C2017 N2025 1.427 . S
C2018 H2009 0.930 . S
C2018 C2016 1.378 . S
C2018 C2019 1.367 . S
C2019 C2018 1.367 . S
C2019 C2021 1.433 . S
C2020 C2016 1.350 . S
C2020 C2017 1.463 . S
C2020 N2024 1.427 . S
C2021 H2011 0.929 . S
C2021 C2019 1.433 . S
C2021 N2024 1.384 . S
C2022 H2013 0.929 . S
C2022 C2014 1.378 . S
C2022 C2017 1.350 . S
C2023 H2010 0.929 . S
C2023 C2015 1.433 . S
C2023 N2025 1.384 . S
N2024 C2020 1.427 . S
N2024 C2021 1.384 . S
N2025 C2017 1.427 . S
N2025 C2023 1.384 . S
H2026 C2032 0.930 . S
H2027 C2036 0.930 . S
H2028 C2041 0.929 . S
H2029 C2039 0.929 . S
H2030 C2034 0.929 . S
H2031 C2040 0.929 . S
C2032 H2026 0.930 . S
C2032 C2033 1.367 . S
C2032 C2040 1.378 . S
C2033 C2032 1.367 . S
C2033 C2041 1.433 . S
C2034 H2030 0.929 . S
C2034 C2036 1.378 . S
C2034 C2038 1.350 . S
C2035 C2038 1.463 . S
C2035 C2040 1.350 . S
C2035 N2043 1.427 . S
C2036 H2027 0.930 . S
C2036 C2034 1.378 . S
C2036 C2037 1.367 . S
C2037 C2036 1.367 . S
C2037 C2039 1.433 . S
C2038 C2034 1.350 . S
C2038 C2035 1.463 . S
C2038 N2042 1.427 . S
C2039 H2029 0.929 . S
C2039 C2037 1.433 . S
C2039 N2042 1.384 . S
C2040 H2031 0.929 . S
C2040 C2032 1.378 . S
C2040 C2035 1.350 . S
C2041 H2028 0.929 . S
C2041 C2033 1.433 . S
C2041 N2043 1.384 . S
N2042 C2038 1.427 . S
N2042 C2039 1.384 . S
N2043 C2035 1.427 . S
N2043 C2041 1.384 . S
H2044 C2050 0.930 . S
H2045 C2054 0.930 . S
H2046 C2059 0.929 . S
H2047 C2057 0.929 . S
H2048 C2052 0.929 . S
H2049 C2058 0.929 . S
C2050 H2044 0.930 . S
C2050 C2051 1.367 . S
C2050 C2058 1.378 . S
C2051 C2050 1.367 . S
C2051 C2059 1.433 . S
C2052 H2048 0.929 . S
C2052 C2054 1.378 . S
C2052 C2056 1.350 . S
C2053 C2056 1.463 . S
C2053 C2058 1.350 . S
C2053 N2061 1.427 . S
C2054 H2045 0.930 . S
C2054 C2052 1.378 . S
C2054 C2055 1.367 . S
C2055 C2054 1.367 . S
C2055 C2057 1.433 . S
C2056 C2052 1.350 . S
C2056 C2053 1.463 . S
C2056 N2060 1.427 . S
C2057 H2047 0.929 . S
C2057 C2055 1.433 . S
C2057 N2060 1.384 . S
C2058 H2049 0.929 . S
C2058 C2050 1.378 . S
C2058 C2053 1.350 . S
C2059 H2046 0.929 . S
C2059 C2051 1.433 . S
C2059 N2061 1.384 . S
N2060 C2056 1.427 . S
N2060 C2057 1.384 . S
N2061 C2053 1.427 . S
N2061 C2059 1.384 . S
H2062 C2068 0.930 . S
H2063 C2072 0.930 . S
H2064 C2077 0.929 . S
H2065 C2075 0.929 . S
H2066 C2070 0.929 . S
H2067 C2076 0.929 . S
C2068 H2062 0.930 . S
C2068 C2069 1.367 . S
C2068 C2076 1.378 . S
C2069 C2068 1.367 . S
C2069 C2077 1.433 . S
C2070 H2066 0.929 . S
C2070 C2072 1.378 . S
C2070 C2074 1.350 . S
C2071 C2074 1.463 . S
C2071 C2076 1.350 . S
C2071 N2079 1.427 . S
C2072 H2063 0.930 . S
C2072 C2070 1.378 . S
C2072 C2073 1.367 . S
C2073 C2072 1.367 . S
C2073 C2075 1.433 . S
C2074 C2070 1.350 . S
C2074 C2071 1.463 . S
C2074 N2078 1.427 . S
C2075 H2065 0.929 . S
C2075 C2073 1.433 . S
C2075 N2078 1.384 . S
C2076 H2067 0.929 . S
C2076 C2068 1.378 . S
C2076 C2071 1.350 . S
C2077 H2064 0.929 . S
C2077 C2069 1.433 . S
C2077 N2079 1.384 . S
N2078 C2074 1.427 . S
N2078 C2075 1.384 . S
N2079 C2071 1.427 . S
N2079 C2077 1.384 . S
H2080 C2086 0.930 . S
H2081 C2090 0.930 . S
H2082 C2095 0.929 . S
H2083 C2093 0.929 . S
H2084 C2088 0.929 . S
H2085 C2094 0.929 . S
C2086 H2080 0.930 . S
C2086 C2087 1.367 . S
C2086 C2094 1.378 . S
C2087 C2086 1.367 . S
C2087 C2095 1.433 . S
C2088 H2084 0.929 . S
C2088 C2090 1.378 . S
C2088 C2092 1.350 . S
C2089 C2092 1.463 . S
C2089 C2094 1.350 . S
C2089 N2097 1.427 . S
C2090 H2081 0.930 . S
C2090 C2088 1.378 . S
C2090 C2091 1.367 . S
C2091 C2090 1.367 . S
C2091 C2093 1.433 . S
C2092 C2088 1.350 . S
C2092 C2089 1.463 . S
C2092 N2096 1.427 . S
C2093 H2083 0.929 . S
C2093 C2091 1.433 . S
C2093 N2096 1.384 . S
C2094 H2085 0.929 . S
C2094 C2086 1.378 . S
C2094 C2089 1.350 . S
C2095 H2082 0.929 . S
C2095 C2087 1.433 . S
C2095 N2097 1.384 . S
N2096 C2092 1.427 . S
N2096 C2093 1.384 . S
N2097 C2089 1.427 . S
N2097 C2095 1.384 . S
H2098 C2104 0.930 . S
H2099 C2108 0.930 . S
H2100 C2113 0.929 . S
H2101 C2111 0.929 . S
H2102 C2106 0.929 . S
H2103 C2112 0.929 . S
C2104 H2098 0.930 . S
C2104 C2105 1.367 . S
C2104 C2112 1.378 . S
C2105 C2104 1.367 . S
C2105 C2113 1.433 . S
C2106 H2102 0.929 . S
C2106 C2108 1.378 . S
C2106 C2110 1.350 . S
C2107 C2110 1.463 . S
C2107 C2112 1.350 . S
C2107 N2115 1.427 . S
C2108 H2099 0.930 . S
C2108 C2106 1.378 . S
C2108 C2109 1.367 . S
C2109 C2108 1.367 . S
C2109 C2111 1.433 . S
C2110 C2106 1.350 . S
C2110 C2107 1.463 . S
C2110 N2114 1.427 . S
C2111 H2101 0.929 . S
C2111 C2109 1.433 . S
C2111 N2114 1.384 . S
C2112 H2103 0.929 . S
C2112 C2104 1.378 . S
C2112 C2107 1.350 . S
C2113 H2100 0.929 . S
C2113 C2105 1.433 . S
C2113 N2115 1.384 . S
N2114 C2110 1.427 . S
N2114 C2111 1.384 . S
N2115 C2107 1.427 . S
N2115 C2113 1.384 . S
H2116 C2122 0.930 . S
H2117 C2126 0.930 . S
H2118 C2131 0.929 . S
H2119 C2129 0.929 . S
H2120 C2124 0.929 . S
H2121 C2130 0.929 . S
C2122 H2116 0.930 . S
C2122 C2123 1.367 . S
C2122 C2130 1.378 . S
C2123 C2122 1.367 . S
C2123 C2131 1.433 . S
C2124 H2120 0.929 . S
C2124 C2126 1.378 . S
C2124 C2128 1.350 . S
C2125 C2128 1.463 . S
C2125 C2130 1.350 . S
C2125 N2133 1.427 . S
C2126 H2117 0.930 . S
C2126 C2124 1.378 . S
C2126 C2127 1.367 . S
C2127 C2126 1.367 . S
C2127 C2129 1.433 . S
C2128 C2124 1.350 . S
C2128 C2125 1.463 . S
C2128 N2132 1.427 . S
C2129 H2119 0.929 . S
C2129 C2127 1.433 . S
C2129 N2132 1.384 . S
C2130 H2121 0.929 . S
C2130 C2122 1.378 . S
C2130 C2125 1.350 . S
C2131 H2118 0.929 . S
C2131 C2123 1.433 . S
C2131 N2133 1.384 . S
N2132 C2128 1.427 . S
N2132 C2129 1.384 . S
N2133 C2125 1.427 . S
N2133 C2131 1.384 . S
H2134 C2140 0.930 . S
H2135 C2144 0.930 . S
H2136 C2149 0.929 . S
H2137 C2147 0.929 . S
H2138 C2142 0.929 . S
H2139 C2148 0.929 . S
C2140 H2134 0.930 . S
C2140 C2141 1.367 . S
C2140 C2148 1.378 . S
C2141 C2140 1.367 . S
C2141 C2149 1.433 . S
C2142 H2138 0.929 . S
C2142 C2144 1.378 . S
C2142 C2146 1.350 . S
C2143 C2146 1.463 . S
C2143 C2148 1.350 . S
C2143 N2151 1.427 . S
C2144 H2135 0.930 . S
C2144 C2142 1.378 . S
C2144 C2145 1.367 . S
C2145 C2144 1.367 . S
C2145 C2147 1.433 . S
C2146 C2142 1.350 . S
C2146 C2143 1.463 . S
C2146 N2150 1.427 . S
C2147 H2137 0.929 . S
C2147 C2145 1.433 . S
C2147 N2150 1.384 . S
C2148 H2139 0.929 . S
C2148 C2140 1.378 . S
C2148 C2143 1.350 . S
C2149 H2136 0.929 . S
C2149 C2141 1.433 . S
C2149 N2151 1.384 . S
N2150 C2146 1.427 . S
N2150 C2147 1.384 . S
N2151 C2143 1.427 . S
N2151 C2149 1.384 . S
H2152 C2158 0.930 . S
H2153 C2162 0.930 . S
H2154 C2167 0.929 . S
H2155 C2165 0.929 . S
H2156 C2160 0.929 . S
H2157 C2166 0.929 . S
C2158 H2152 0.930 . S
C2158 C2159 1.367 . S
C2158 C2166 1.378 . S
C2159 C2158 1.367 . S
C2159 C2167 1.433 . S
C2160 H2156 0.929 . S
C2160 C2162 1.378 . S
C2160 C2164 1.350 . S
C2161 C2164 1.463 . S
C2161 C2166 1.350 . S
C2161 N2169 1.427 . S
C2162 H2153 0.930 . S
C2162 C2160 1.378 . S
C2162 C2163 1.367 . S
C2163 C2162 1.367 . S
C2163 C2165 1.433 . S
C2164 C2160 1.350 . S
C2164 C2161 1.463 . S
C2164 N2168 1.427 . S
C2165 H2155 0.929 . S
C2165 C2163 1.433 . S
C2165 N2168 1.384 . S
C2166 H2157 0.929 . S
C2166 C2158 1.378 . S
C2166 C2161 1.350 . S
C2167 H2154 0.929 . S
C2167 C2159 1.433 . S
C2167 N2169 1.384 . S
N2168 C2164 1.427 . S
N2168 C2165 1.384 . S
N2169 C2161 1.427 . S
N2169 C2167 1.384 . S
H2170 C2176 0.930 . S
H2171 C2180 0.930 . S
H2172 C2185 0.929 . S
H2173 C2183 0.929 . S
H2174 C2178 0.929 . S
H2175 C2184 0.929 . S
C2176 H2170 0.930 . S
C2176 C2177 1.367 . S
C2176 C2184 1.378 . S
C2177 C2176 1.367 . S
C2177 C2185 1.433 . S
C2178 H2174 0.929 . S
C2178 C2180 1.378 . S
C2178 C2182 1.350 . S
C2179 C2182 1.463 . S
C2179 C2184 1.350 . S
C2179 N2187 1.427 . S
C2180 H2171 0.930 . S
C2180 C2178 1.378 . S
C2180 C2181 1.367 . S
C2181 C2180 1.367 . S
C2181 C2183 1.433 . S
C2182 C2178 1.350 . S
C2182 C2179 1.463 . S
C2182 N2186 1.427 . S
C2183 H2173 0.929 . S
C2183 C2181 1.433 . S
C2183 N2186 1.384 . S
C2184 H2175 0.929 . S
C2184 C2176 1.378 . S
C2184 C2179 1.350 . S
C2185 H2172 0.929 . S
C2185 C2177 1.433 . S
C2185 N2187 1.384 . S
N2186 C2182 1.427 . S
N2186 C2183 1.384 . S
N2187 C2179 1.427 . S
N2187 C2185 1.384 . S
H2188 C2194 0.930 . S
H2189 C2198 0.930 . S
H2190 C2203 0.929 . S
H2191 C2201 0.929 . S
H2192 C2196 0.929 . S
H2193 C2202 0.929 . S
C2194 H2188 0.930 . S
C2194 C2195 1.367 . S
C2194 C2202 1.378 . S
C2195 C2194 1.367 . S
C2195 C2203 1.433 . S
C2196 H2192 0.929 . S
C2196 C2198 1.378 . S
C2196 C2200 1.350 . S
C2197 C2200 1.463 . S
C2197 C2202 1.350 . S
C2197 N2205 1.427 . S
C2198 H2189 0.930 . S
C2198 C2196 1.378 . S
C2198 C2199 1.367 . S
C2199 C2198 1.367 . S
C2199 C2201 1.433 . S
C2200 C2196 1.350 . S
C2200 C2197 1.463 . S
C2200 N2204 1.427 . S
C2201 H2191 0.929 . S
C2201 C2199 1.433 . S
C2201 N2204 1.384 . S
C2202 H2193 0.929 . S
C2202 C2194 1.378 . S
C2202 C2197 1.350 . S
C2203 H2190 0.929 . S
C2203 C2195 1.433 . S
C2203 N2205 1.384 . S
N2204 C2200 1.427 . S
N2204 C2201 1.384 . S
N2205 C2197 1.427 . S
N2205 C2203 1.384 . S
H2206 C2212 0.930 . S
H2207 C2216 0.930 . S
H2208 C2221 0.929 . S
H2209 C2219 0.929 . S
H2210 C2214 0.929 . S
H2211 C2220 0.929 . S
C2212 H2206 0.930 . S
C2212 C2213 1.367 . S
C2212 C2220 1.378 . S
C2213 C2212 1.367 . S
C2213 C2221 1.433 . S
C2214 H2210 0.929 . S
C2214 C2216 1.378 . S
C2214 C2218 1.350 . S
C2215 C2218 1.463 . S
C2215 C2220 1.350 . S
C2215 N2223 1.427 . S
C2216 H2207 0.930 . S
C2216 C2214 1.378 . S
C2216 C2217 1.367 . S
C2217 C2216 1.367 . S
C2217 C2219 1.433 . S
C2218 C2214 1.350 . S
C2218 C2215 1.463 . S
C2218 N2222 1.427 . S
C2219 H2209 0.929 . S
C2219 C2217 1.433 . S
C2219 N2222 1.384 . S
C2220 H2211 0.929 . S
C2220 C2212 1.378 . S
C2220 C2215 1.350 . S
C2221 H2208 0.929 . S
C2221 C2213 1.433 . S
C2221 N2223 1.384 . S
N2222 C2218 1.427 . S
N2222 C2219 1.384 . S
N2223 C2215 1.427 . S
N2223 C2221 1.384 . S
H2224 C2230 0.930 . S
H2225 C2234 0.930 . S
H2226 C2239 0.929 . S
H2227 C2237 0.929 . S
H2228 C2232 0.929 . S
H2229 C2238 0.929 . S
C2230 H2224 0.930 . S
C2230 C2231 1.367 . S
C2230 C2238 1.378 . S
C2231 C2230 1.367 . S
C2231 C2239 1.433 . S
C2232 H2228 0.929 . S
C2232 C2234 1.378 . S
C2232 C2236 1.350 . S
C2233 C2236 1.463 . S
C2233 C2238 1.350 . S
C2233 N2241 1.427 . S
C2234 H2225 0.930 . S
C2234 C2232 1.378 . S
C2234 C2235 1.367 . S
C2235 C2234 1.367 . S
C2235 C2237 1.433 . S
C2236 C2232 1.350 . S
C2236 C2233 1.463 . S
C2236 N2240 1.427 . S
C2237 H2227 0.929 . S
C2237 C2235 1.433 . S
C2237 N2240 1.384 . S
C2238 H2229 0.929 . S
C2238 C2230 1.378 . S
C2238 C2233 1.350 . S
C2239 H2226 0.929 . S
C2239 C2231 1.433 . S
C2239 N2241 1.384 . S
N2240 C2236 1.427 . S
N2240 C2237 1.384 . S
N2241 C2233 1.427 . S
N2241 C2239 1.384 . S
H2242 C2248 0.930 . S
H2243 C2252 0.930 . S
H2244 C2257 0.929 . S
H2245 C2255 0.929 . S
H2246 C2250 0.929 . S
H2247 C2256 0.929 . S
C2248 H2242 0.930 . S
C2248 C2249 1.367 . S
C2248 C2256 1.378 . S
C2249 C2248 1.367 . S
C2249 C2257 1.433 . S
C2250 H2246 0.929 . S
C2250 C2252 1.378 . S
C2250 C2254 1.350 . S
C2251 C2254 1.463 . S
C2251 C2256 1.350 . S
C2251 N2259 1.427 . S
C2252 H2243 0.930 . S
C2252 C2250 1.378 . S
C2252 C2253 1.367 . S
C2253 C2252 1.367 . S
C2253 C2255 1.433 . S
C2254 C2250 1.350 . S
C2254 C2251 1.463 . S
C2254 N2258 1.427 . S
C2255 H2245 0.929 . S
C2255 C2253 1.433 . S
C2255 N2258 1.384 . S
C2256 H2247 0.929 . S
C2256 C2248 1.378 . S
C2256 C2251 1.350 . S
C2257 H2244 0.929 . S
C2257 C2249 1.433 . S
C2257 N2259 1.384 . S
N2258 C2254 1.427 . S
N2258 C2255 1.384 . S
N2259 C2251 1.427 . S
N2259 C2257 1.384 . S
H2260 C2266 0.930 . S
H2261 C2270 0.930 . S
H2262 C2275 0.929 . S
H2263 C2273 0.929 . S
H2264 C2268 0.929 . S
H2265 C2274 0.929 . S
C2266 H2260 0.930 . S
C2266 C2267 1.367 . S
C2266 C2274 1.378 . S
C2267 C2266 1.367 . S
C2267 C2275 1.433 . S
C2268 H2264 0.929 . S
C2268 C2270 1.378 . S
C2268 C2272 1.350 . S
C2269 C2272 1.463 . S
C2269 C2274 1.350 . S
C2269 N2277 1.427 . S
C2270 H2261 0.930 . S
C2270 C2268 1.378 . S
C2270 C2271 1.367 . S
C2271 C2270 1.367 . S
C2271 C2273 1.433 . S
C2272 C2268 1.350 . S
C2272 C2269 1.463 . S
C2272 N2276 1.427 . S
C2273 H2263 0.929 . S
C2273 C2271 1.433 . S
C2273 N2276 1.384 . S
C2274 H2265 0.929 . S
C2274 C2266 1.378 . S
C2274 C2269 1.350 . S
C2275 H2262 0.929 . S
C2275 C2267 1.433 . S
C2275 N2277 1.384 . S
N2276 C2272 1.427 . S
N2276 C2273 1.384 . S
N2277 C2269 1.427 . S
N2277 C2275 1.384 . S
H2278 C2284 0.930 . S
H2279 C2288 0.930 . S
H2280 C2293 0.929 . S
H2281 C2291 0.929 . S
H2282 C2286 0.929 . S
H2283 C2292 0.929 . S
C2284 H2278 0.930 . S
C2284 C2285 1.367 . S
C2284 C2292 1.378 . S
C2285 C2284 1.367 . S
C2285 C2293 1.433 . S
C2286 H2282 0.929 . S
C2286 C2288 1.378 . S
C2286 C2290 1.350 . S
C2287 C2290 1.463 . S
C2287 C2292 1.350 . S
C2287 N2295 1.427 . S
C2288 H2279 0.930 . S
C2288 C2286 1.378 . S
C2288 C2289 1.367 . S
C2289 C2288 1.367 . S
C2289 C2291 1.433 . S
C2290 C2286 1.350 . S
C2290 C2287 1.463 . S
C2290 N2294 1.427 . S
C2291 H2281 0.929 . S
C2291 C2289 1.433 . S
C2291 N2294 1.384 . S
C2292 H2283 0.929 . S
C2292 C2284 1.378 . S
C2292 C2287 1.350 . S
C2293 H2280 0.929 . S
C2293 C2285 1.433 . S
C2293 N2295 1.384 . S
N2294 C2290 1.427 . S
N2294 C2291 1.384 . S
N2295 C2287 1.427 . S
N2295 C2293 1.384 . S
H2296 C2302 0.930 . S
H2297 C2306 0.930 . S
H2298 C2311 0.929 . S
H2299 C2309 0.929 . S
H2300 C2304 0.929 . S
H2301 C2310 0.929 . S
C2302 H2296 0.930 . S
C2302 C2303 1.367 . S
C2302 C2310 1.378 . S
C2303 C2302 1.367 . S
C2303 C2311 1.433 . S
C2304 H2300 0.929 . S
C2304 C2306 1.378 . S
C2304 C2308 1.350 . S
C2305 C2308 1.463 . S
C2305 C2310 1.350 . S
C2305 N2313 1.427 . S
C2306 H2297 0.930 . S
C2306 C2304 1.378 . S
C2306 C2307 1.367 . S
C2307 C2306 1.367 . S
C2307 C2309 1.433 . S
C2308 C2304 1.350 . S
C2308 C2305 1.463 . S
C2308 N2312 1.427 . S
C2309 H2299 0.929 . S
C2309 C2307 1.433 . S
C2309 N2312 1.384 . S
C2310 H2301 0.929 . S
C2310 C2302 1.378 . S
C2310 C2305 1.350 . S
C2311 H2298 0.929 . S
C2311 C2303 1.433 . S
C2311 N2313 1.384 . S
N2312 C2308 1.427 . S
N2312 C2309 1.384 . S
N2313 C2305 1.427 . S
N2313 C2311 1.384 . S
H2314 C2320 0.930 . S
H2315 C2324 0.930 . S
H2316 C2329 0.929 . S
H2317 C2327 0.929 . S
H2318 C2322 0.929 . S
H2319 C2328 0.929 . S
C2320 H2314 0.930 . S
C2320 C2321 1.367 . S
C2320 C2328 1.378 . S
C2321 C2320 1.367 . S
C2321 C2329 1.433 . S
C2322 H2318 0.929 . S
C2322 C2324 1.378 . S
C2322 C2326 1.350 . S
C2323 C2326 1.463 . S
C2323 C2328 1.350 . S
C2323 N2331 1.427 . S
C2324 H2315 0.930 . S
C2324 C2322 1.378 . S
C2324 C2325 1.367 . S
C2325 C2324 1.367 . S
C2325 C2327 1.433 . S
C2326 C2322 1.350 . S
C2326 C2323 1.463 . S
C2326 N2330 1.427 . S
C2327 H2317 0.929 . S
C2327 C2325 1.433 . S
C2327 N2330 1.384 . S
C2328 H2319 0.929 . S
C2328 C2320 1.378 . S
C2328 C2323 1.350 . S
C2329 H2316 0.929 . S
C2329 C2321 1.433 . S
C2329 N2331 1.384 . S
N2330 C2326 1.427 . S
N2330 C2327 1.384 . S
N2331 C2323 1.427 . S
N2331 C2329 1.384 . S
H2332 C2338 0.930 . S
H2333 C2342 0.930 . S
H2334 C2347 0.929 . S
H2335 C2345 0.929 . S
H2336 C2340 0.929 . S
H2337 C2346 0.929 . S
C2338 H2332 0.930 . S
C2338 C2339 1.367 . S
C2338 C2346 1.378 . S
C2339 C2338 1.367 . S
C2339 C2347 1.433 . S
C2340 H2336 0.929 . S
C2340 C2342 1.378 . S
C2340 C2344 1.350 . S
C2341 C2344 1.463 . S
C2341 C2346 1.350 . S
C2341 N2349 1.427 . S
C2342 H2333 0.930 . S
C2342 C2340 1.378 . S
C2342 C2343 1.367 . S
C2343 C2342 1.367 . S
C2343 C2345 1.433 . S
C2344 C2340 1.350 . S
C2344 C2341 1.463 . S
C2344 N2348 1.427 . S
C2345 H2335 0.929 . S
C2345 C2343 1.433 . S
C2345 N2348 1.384 . S
C2346 H2337 0.929 . S
C2346 C2338 1.378 . S
C2346 C2341 1.350 . S
C2347 H2334 0.929 . S
C2347 C2339 1.433 . S
C2347 N2349 1.384 . S
N2348 C2344 1.427 . S
N2348 C2345 1.384 . S
N2349 C2341 1.427 . S
N2349 C2347 1.384 . S
H2350 C2356 0.930 . S
H2351 C2360 0.930 . S
H2352 C2365 0.929 . S
H2353 C2363 0.929 . S
H2354 C2358 0.929 . S
H2355 C2364 0.929 . S
C2356 H2350 0.930 . S
C2356 C2357 1.367 . S
C2356 C2364 1.378 . S
C2357 C2356 1.367 . S
C2357 C2365 1.433 . S
C2358 H2354 0.929 . S
C2358 C2360 1.378 . S
C2358 C2362 1.350 . S
C2359 C2362 1.463 . S
C2359 C2364 1.350 . S
C2359 N2367 1.427 . S
C2360 H2351 0.930 . S
C2360 C2358 1.378 . S
C2360 C2361 1.367 . S
C2361 C2360 1.367 . S
C2361 C2363 1.433 . S
C2362 C2358 1.350 . S
C2362 C2359 1.463 . S
C2362 N2366 1.427 . S
C2363 H2353 0.929 . S
C2363 C2361 1.433 . S
C2363 N2366 1.384 . S
C2364 H2355 0.929 . S
C2364 C2356 1.378 . S
C2364 C2359 1.350 . S
C2365 H2352 0.929 . S
C2365 C2357 1.433 . S
C2365 N2367 1.384 . S
N2366 C2362 1.427 . S
N2366 C2363 1.384 . S
N2367 C2359 1.427 . S
N2367 C2365 1.384 . S
H2368 C2374 0.930 . S
H2369 C2378 0.930 . S
H2370 C2383 0.929 . S
H2371 C2381 0.929 . S
H2372 C2376 0.929 . S
H2373 C2382 0.929 . S
C2374 H2368 0.930 . S
C2374 C2375 1.367 . S
C2374 C2382 1.378 . S
C2375 C2374 1.367 . S
C2375 C2383 1.433 . S
C2376 H2372 0.929 . S
C2376 C2378 1.378 . S
C2376 C2380 1.350 . S
C2377 C2380 1.463 . S
C2377 C2382 1.350 . S
C2377 N2385 1.427 . S
C2378 H2369 0.930 . S
C2378 C2376 1.378 . S
C2378 C2379 1.367 . S
C2379 C2378 1.367 . S
C2379 C2381 1.433 . S
C2380 C2376 1.350 . S
C2380 C2377 1.463 . S
C2380 N2384 1.427 . S
C2381 H2371 0.929 . S
C2381 C2379 1.433 . S
C2381 N2384 1.384 . S
C2382 H2373 0.929 . S
C2382 C2374 1.378 . S
C2382 C2377 1.350 . S
C2383 H2370 0.929 . S
C2383 C2375 1.433 . S
C2383 N2385 1.384 . S
N2384 C2380 1.427 . S
N2384 C2381 1.384 . S
N2385 C2377 1.427 . S
N2385 C2383 1.384 . S
H2386 C2392 0.930 . S
H2387 C2396 0.930 . S
H2388 C2401 0.929 . S
H2389 C2399 0.929 . S
H2390 C2394 0.929 . S
H2391 C2400 0.929 . S
C2392 H2386 0.930 . S
C2392 C2393 1.367 . S
C2392 C2400 1.378 . S
C2393 C2392 1.367 . S
C2393 C2401 1.433 . S
C2394 H2390 0.929 . S
C2394 C2396 1.378 . S
C2394 C2398 1.350 . S
C2395 C2398 1.463 . S
C2395 C2400 1.350 . S
C2395 N2403 1.427 . S
C2396 H2387 0.930 . S
C2396 C2394 1.378 . S
C2396 C2397 1.367 . S
C2397 C2396 1.367 . S
C2397 C2399 1.433 . S
C2398 C2394 1.350 . S
C2398 C2395 1.463 . S
C2398 N2402 1.427 . S
C2399 H2389 0.929 . S
C2399 C2397 1.433 . S
C2399 N2402 1.384 . S
C2400 H2391 0.929 . S
C2400 C2392 1.378 . S
C2400 C2395 1.350 . S
C2401 H2388 0.929 . S
C2401 C2393 1.433 . S
C2401 N2403 1.384 . S
N2402 C2398 1.427 . S
N2402 C2399 1.384 . S
N2403 C2395 1.427 . S
N2403 C2401 1.384 . S
H2404 C2410 0.930 . S
H2405 C2414 0.930 . S
H2406 C2419 0.929 . S
H2407 C2417 0.929 . S
H2408 C2412 0.929 . S
H2409 C2418 0.929 . S
C2410 H2404 0.930 . S
C2410 C2411 1.367 . S
C2410 C2418 1.378 . S
C2411 C2410 1.367 . S
C2411 C2419 1.433 . S
C2412 H2408 0.929 . S
C2412 C2414 1.378 . S
C2412 C2416 1.350 . S
C2413 C2416 1.463 . S
C2413 C2418 1.350 . S
C2413 N2421 1.427 . S
C2414 H2405 0.930 . S
C2414 C2412 1.378 . S
C2414 C2415 1.367 . S
C2415 C2414 1.367 . S
C2415 C2417 1.433 . S
C2416 C2412 1.350 . S
C2416 C2413 1.463 . S
C2416 N2420 1.427 . S
C2417 H2407 0.929 . S
C2417 C2415 1.433 . S
C2417 N2420 1.384 . S
C2418 H2409 0.929 . S
C2418 C2410 1.378 . S
C2418 C2413 1.350 . S
C2419 H2406 0.929 . S
C2419 C2411 1.433 . S
C2419 N2421 1.384 . S
N2420 C2416 1.427 . S
N2420 C2417 1.384 . S
N2421 C2413 1.427 . S
N2421 C2419 1.384 . S
H2422 C2428 0.930 . S
H2423 C2432 0.930 . S
H2424 C2437 0.929 . S
H2425 C2435 0.929 . S
H2426 C2430 0.929 . S
H2427 C2436 0.929 . S
C2428 H2422 0.930 . S
C2428 C2429 1.367 . S
C2428 C2436 1.378 . S
C2429 C2428 1.367 . S
C2429 C2437 1.433 . S
C2430 H2426 0.929 . S
C2430 C2432 1.378 . S
C2430 C2434 1.350 . S
C2431 C2434 1.463 . S
C2431 C2436 1.350 . S
C2431 N2439 1.427 . S
C2432 H2423 0.930 . S
C2432 C2430 1.378 . S
C2432 C2433 1.367 . S
C2433 C2432 1.367 . S
C2433 C2435 1.433 . S
C2434 C2430 1.350 . S
C2434 C2431 1.463 . S
C2434 N2438 1.427 . S
C2435 H2425 0.929 . S
C2435 C2433 1.433 . S
C2435 N2438 1.384 . S
C2436 H2427 0.929 . S
C2436 C2428 1.378 . S
C2436 C2431 1.350 . S
C2437 H2424 0.929 . S
C2437 C2429 1.433 . S
C2437 N2439 1.384 . S
N2438 C2434 1.427 . S
N2438 C2435 1.384 . S
N2439 C2431 1.427 . S
N2439 C2437 1.384 . S
H2440 C2446 0.930 . S
H2441 C2450 0.930 . S
H2442 C2455 0.929 . S
H2443 C2453 0.929 . S
H2444 C2448 0.929 . S
H2445 C2454 0.929 . S
C2446 H2440 0.930 . S
C2446 C2447 1.367 . S
C2446 C2454 1.378 . S
C2447 C2446 1.367 . S
C2447 C2455 1.433 . S
C2448 H2444 0.929 . S
C2448 C2450 1.378 . S
C2448 C2452 1.350 . S
C2449 C2452 1.463 . S
C2449 C2454 1.350 . S
C2449 N2457 1.427 . S
C2450 H2441 0.930 . S
C2450 C2448 1.378 . S
C2450 C2451 1.367 . S
C2451 C2450 1.367 . S
C2451 C2453 1.433 . S
C2452 C2448 1.350 . S
C2452 C2449 1.463 . S
C2452 N2456 1.427 . S
C2453 H2443 0.929 . S
C2453 C2451 1.433 . S
C2453 N2456 1.384 . S
C2454 H2445 0.929 . S
C2454 C2446 1.378 . S
C2454 C2449 1.350 . S
C2455 H2442 0.929 . S
C2455 C2447 1.433 . S
C2455 N2457 1.384 . S
N2456 C2452 1.427 . S
N2456 C2453 1.384 . S
N2457 C2449 1.427 . S
N2457 C2455 1.384 . S
H2458 C2464 0.930 . S
H2459 C2468 0.930 . S
H2460 C2473 0.929 . S
H2461 C2471 0.929 . S
H2462 C2466 0.929 . S
H2463 C2472 0.929 . S
C2464 H2458 0.930 . S
C2464 C2465 1.367 . S
C2464 C2472 1.378 . S
C2465 C2464 1.367 . S
C2465 C2473 1.433 . S
C2466 H2462 0.929 . S
C2466 C2468 1.378 . S
C2466 C2470 1.350 . S
C2467 C2470 1.463 . S
C2467 C2472 1.350 . S
C2467 N2475 1.427 . S
C2468 H2459 0.930 . S
C2468 C2466 1.378 . S
C2468 C2469 1.367 . S
C2469 C2468 1.367 . S
C2469 C2471 1.433 . S
C2470 C2466 1.350 . S
C2470 C2467 1.463 . S
C2470 N2474 1.427 . S
C2471 H2461 0.929 . S
C2471 C2469 1.433 . S
C2471 N2474 1.384 . S
C2472 H2463 0.929 . S
C2472 C2464 1.378 . S
C2472 C2467 1.350 . S
C2473 H2460 0.929 . S
C2473 C2465 1.433 . S
C2473 N2475 1.384 . S
N2474 C2470 1.427 . S
N2474 C2471 1.384 . S
N2475 C2467 1.427 . S
N2475 C2473 1.384 . S
H2476 C2482 0.930 . S
H2477 C2486 0.930 . S
H2478 C2491 0.929 . S
H2479 C2489 0.929 . S
H2480 C2484 0.929 . S
H2481 C2490 0.929 . S
C2482 H2476 0.930 . S
C2482 C2483 1.367 . S
C2482 C2490 1.378 . S
C2483 C2482 1.367 . S
C2483 C2491 1.433 . S
C2484 H2480 0.929 . S
C2484 C2486 1.378 . S
C2484 C2488 1.350 . S
C2485 C2488 1.463 . S
C2485 C2490 1.350 . S
C2485 N2493 1.427 . S
C2486 H2477 0.930 . S
C2486 C2484 1.378 . S
C2486 C2487 1.367 . S
C2487 C2486 1.367 . S
C2487 C2489 1.433 . S
C2488 C2484 1.350 . S
C2488 C2485 1.463 . S
C2488 N2492 1.427 . S
C2489 H2479 0.929 . S
C2489 C2487 1.433 . S
C2489 N2492 1.384 . S
C2490 H2481 0.929 . S
C2490 C2482 1.378 . S
C2490 C2485 1.350 . S
C2491 H2478 0.929 . S
C2491 C2483 1.433 . S
C2491 N2493 1.384 . S
N2492 C2488 1.427 . S
N2492 C2489 1.384 . S
N2493 C2485 1.427 . S
N2493 C2491 1.384 . S
H2494 C2500 0.930 . S
H2495 C2504 0.930 . S
H2496 C2509 0.929 . S
H2497 C2507 0.929 . S
H2498 C2502 0.929 . S
H2499 C2508 0.929 . S
C2500 H2494 0.930 . S
C2500 C2501 1.367 . S
C2500 C2508 1.378 . S
C2501 C2500 1.367 . S
C2501 C2509 1.433 . S
C2502 H2498 0.929 . S
C2502 C2504 1.378 . S
C2502 C2506 1.350 . S
C2503 C2506 1.463 . S
C2503 C2508 1.350 . S
C2503 N2511 1.427 . S
C2504 H2495 0.930 . S
C2504 C2502 1.378 . S
C2504 C2505 1.367 . S
C2505 C2504 1.367 . S
C2505 C2507 1.433 . S
C2506 C2502 1.350 . S
C2506 C2503 1.463 . S
C2506 N2510 1.427 . S
C2507 H2497 0.929 . S
C2507 C2505 1.433 . S
C2507 N2510 1.384 . S
C2508 H2499 0.929 . S
C2508 C2500 1.378 . S
C2508 C2503 1.350 . S
C2509 H2496 0.929 . S
C2509 C2501 1.433 . S
C2509 N2511 1.384 . S
N2510 C2506 1.427 . S
N2510 C2507 1.384 . S
N2511 C2503 1.427 . S
N2511 C2509 1.384 . S
H2512 C2518 0.930 . S
H2513 C2522 0.930 . S
H2514 C2527 0.929 . S
H2515 C2525 0.929 . S
H2516 C2520 0.929 . S
H2517 C2526 0.929 . S
C2518 H2512 0.930 . S
C2518 C2519 1.367 . S
C2518 C2526 1.378 . S
C2519 C2518 1.367 . S
C2519 C2527 1.433 . S
C2520 H2516 0.929 . S
C2520 C2522 1.378 . S
C2520 C2524 1.350 . S
C2521 C2524 1.463 . S
C2521 C2526 1.350 . S
C2521 N2529 1.427 . S
C2522 H2513 0.930 . S
C2522 C2520 1.378 . S
C2522 C2523 1.367 . S
C2523 C2522 1.367 . S
C2523 C2525 1.433 . S
C2524 C2520 1.350 . S
C2524 C2521 1.463 . S
C2524 N2528 1.427 . S
C2525 H2515 0.929 . S
C2525 C2523 1.433 . S
C2525 N2528 1.384 . S
C2526 H2517 0.929 . S
C2526 C2518 1.378 . S
C2526 C2521 1.350 . S
C2527 H2514 0.929 . S
C2527 C2519 1.433 . S
C2527 N2529 1.384 . S
N2528 C2524 1.427 . S
N2528 C2525 1.384 . S
N2529 C2521 1.427 . S
N2529 C2527 1.384 . S
H2530 C2536 0.930 . S
H2531 C2540 0.930 . S
H2532 C2545 0.929 . S
H2533 C2543 0.929 . S
H2534 C2538 0.929 . S
H2535 C2544 0.929 . S
C2536 H2530 0.930 . S
C2536 C2537 1.367 . S
C2536 C2544 1.378 . S
C2537 C2536 1.367 . S
C2537 C2545 1.433 . S
C2538 H2534 0.929 . S
C2538 C2540 1.378 . S
C2538 C2542 1.350 . S
C2539 C2542 1.463 . S
C2539 C2544 1.350 . S
C2539 N2547 1.427 . S
C2540 H2531 0.930 . S
C2540 C2538 1.378 . S
C2540 C2541 1.367 . S
C2541 C2540 1.367 . S
C2541 C2543 1.433 . S
C2542 C2538 1.350 . S
C2542 C2539 1.463 . S
C2542 N2546 1.427 . S
C2543 H2533 0.929 . S
C2543 C2541 1.433 . S
C2543 N2546 1.384 . S
C2544 H2535 0.929 . S
C2544 C2536 1.378 . S
C2544 C2539 1.350 . S
C2545 H2532 0.929 . S
C2545 C2537 1.433 . S
C2545 N2547 1.384 . S
N2546 C2542 1.427 . S
N2546 C2543 1.384 . S
N2547 C2539 1.427 . S
N2547 C2545 1.384 . S
H2548 C2554 0.930 . S
H2549 C2558 0.930 . S
H2550 C2563 0.929 . S
H2551 C2561 0.929 . S
H2552 C2556 0.929 . S
H2553 C2562 0.929 . S
C2554 H2548 0.930 . S
C2554 C2555 1.367 . S
C2554 C2562 1.378 . S
C2555 C2554 1.367 . S
C2555 C2563 1.433 . S
C2556 H2552 0.929 . S
C2556 C2558 1.378 . S
C2556 C2560 1.350 . S
C2557 C2560 1.463 . S
C2557 C2562 1.350 . S
C2557 N2565 1.427 . S
C2558 H2549 0.930 . S
C2558 C2556 1.378 . S
C2558 C2559 1.367 . S
C2559 C2558 1.367 . S
C2559 C2561 1.433 . S
C2560 C2556 1.350 . S
C2560 C2557 1.463 . S
C2560 N2564 1.427 . S
C2561 H2551 0.929 . S
C2561 C2559 1.433 . S
C2561 N2564 1.384 . S
C2562 H2553 0.929 . S
C2562 C2554 1.378 . S
C2562 C2557 1.350 . S
C2563 H2550 0.929 . S
C2563 C2555 1.433 . S
C2563 N2565 1.384 . S
N2564 C2560 1.427 . S
N2564 C2561 1.384 . S
N2565 C2557 1.427 . S
N2565 C2563 1.384 . S
H2566 C2572 0.930 . S
H2567 C2576 0.930 . S
H2568 C2581 0.929 . S
H2569 C2579 0.929 . S
H2570 C2574 0.929 . S
H2571 C2580 0.929 . S
C2572 H2566 0.930 . S
C2572 C2573 1.367 . S
C2572 C2580 1.378 . S
C2573 C2572 1.367 . S
C2573 C2581 1.433 . S
C2574 H2570 0.929 . S
C2574 C2576 1.378 . S
C2574 C2578 1.350 . S
C2575 C2578 1.463 . S
C2575 C2580 1.350 . S
C2575 N2583 1.427 . S
C2576 H2567 0.930 . S
C2576 C2574 1.378 . S
C2576 C2577 1.367 . S
C2577 C2576 1.367 . S
C2577 C2579 1.433 . S
C2578 C2574 1.350 . S
C2578 C2575 1.463 . S
C2578 N2582 1.427 . S
C2579 H2569 0.929 . S
C2579 C2577 1.433 . S
C2579 N2582 1.384 . S
C2580 H2571 0.929 . S
C2580 C2572 1.378 . S
C2580 C2575 1.350 . S
C2581 H2568 0.929 . S
C2581 C2573 1.433 . S
C2581 N2583 1.384 . S
N2582 C2578 1.427 . S
N2582 C2579 1.384 . S
N2583 C2575 1.427 . S
N2583 C2581 1.384 . S
C867 C371 1.858 . S
C863 C7 1.848 . S
C885 C382 1.238 . S
C881 C19 1.343 . S
C899 C29 1.759 . S
C903 C406 1.716 . S
C921 C427 1.265 . S
C917 C41 1.380 . S
C935 C52 1.434 . S
C939 C434 1.385 . S
C953 C62 1.550 . S
C957 C364 1.500 1_556 S
C971 C73 1.224 . S
C975 C390 1.231 . S
C993 C413 1.650 1_556 S
C989 C82 1.564 . S
C1011 C445 1.673 . S
C1007 C5 1.583 . S
C1025 C16 1.330 . S
C1029 C466 1.493 . S
C1043 C30 1.722 . S
C1047 C490 1.511 . S
C1065 C508 1.298 . S
C1061 C40 1.397 . S
C1079 C49 1.218 . S
C1083 C537 1.325 . S
C1101 C558 1.353 . S
C1097 C63 1.500 . S
C1115 C74 1.282 . S
C1119 C574 1.235 . S
C1137 C595 1.447 . S
C1133 C85 1.577 . S
C1151 C8 1.606 . S
C1155 C516 1.483 . S
C1169 C51 1.548 . S
C1173 C550 1.528 . S
C1191 C581 1.749 . S
C1187 C60 1.544 . S
C1205 C71 1.184 . S
C1209 C602 1.432 . S
C1227 C529 1.888 . S
C1223 C84 1.905 . S
C1245 C474 1.390 . S
C1241 C27 1.286 . S
C1259 C38 1.333 . S
C1263 C497 1.294 . S
C1281 C453 1.558 . S
C1277 C18 1.567 . S
C1299 C621 1.856 . S
C1295 C95 1.863 . S
C1313 C107 1.332 . S
C1317 C637 1.234 . S
C1331 C117 1.750 . S
C1335 C655 1.711 . S
C1353 C676 1.255 . S
C1349 C129 1.390 . S
C1367 C140 1.433 . S
C1371 C684 1.374 . S
C1385 C150 1.555 . S
C1389 C613 1.532 . S
C1403 C161 1.231 . S
C1407 C644 1.256 . S
C1421 C170 1.561 . S
C1425 C663 1.619 . S
C1443 C539 1.670 . S
C1439 C93 1.592 . S
C1457 C104 1.335 . S
C1461 C697 1.502 . S
C1479 C571 1.619 . S
C1475 C118 1.711 . S
C1493 C128 1.386 . S
C1497 C726 1.211 . S
C1511 C137 1.216 . S
C1515 C448 1.321 . S
C1533 C742 1.342 . S
C1529 C151 1.505 . S
C1547 C162 1.255 . S
C1551 C487 1.134 . S
C1569 C770 1.482 . S
C1565 C173 1.571 . S
C1583 C96 1.610 . S
C1587 C718 1.511 . S
C1605 C749 1.544 . S
C1601 C139 1.541 . S
C1619 C148 1.549 . S
C1623 C495 1.665 . S
C1641 C763 1.356 . S
C1637 C159 1.176 . S
C1655 C172 1.897 . S
C1659 C455 1.890 . S
C1673 C115 1.291 . S
C1677 C705 1.387 . S
C1691 C126 1.334 . S
C1695 C579 1.370 . S
C1709 C106 1.564 . S
C1713 C532 1.544 . S
C1727 C183 1.868 . S
C1731 C658 1.858 . S
C1749 C679 1.249 . S
C1745 C195 1.346 . S
C1763 C205 1.737 . S
C1767 C623 1.708 . S
C1781 C217 1.388 . S
C1785 C634 1.244 . S
C1799 C228 1.430 . S
C1803 C642 1.370 . S
C1817 C238 1.546 . S
C1821 C665 1.536 . S
C1839 C686 1.234 . S
C1835 C249 1.218 . S
C1853 C258 1.553 . S
C1857 C616 1.632 . S
C1875 C781 1.672 . S
C1871 C181 1.581 . S
C1889 C192 1.329 . S
C1893 C560 1.501 . S
C1911 C802 1.625 . S
C1907 C206 1.711 . S
C1925 C216 1.390 . S
C1929 C592 1.288 . S
C1943 C225 1.215 . S
C1947 C826 1.318 . S
C1961 C239 1.501 . S
C1965 C469 1.345 . S
C1983 C847 1.216 . S
C1979 C250 1.255 . S
C1997 C261 1.572 . S
C2001 C511 1.455 . S
C2019 C600 1.507 . S
C2015 C184 1.612 . S
C2037 C476 1.540 . S
C2033 C227 1.552 . S
C2051 C236 1.549 . S
C2055 C854 1.750 . S
C2069 C247 1.177 . S
C2073 C518 1.429 . S
C2091 C833 1.896 . S
C2087 C260 1.896 . S
C2109 C553 1.387 . S
C2105 C203 1.295 . S
C2127 C810 1.359 . S
C2123 C214 1.338 . S
C2145 C789 1.554 . S
C2141 C194 1.564 . S
C2159 C271 1.860 . S
C2163 C403 1.838 . S
C2177 C283 1.347 . S
C2181 C424 1.242 . S
C2199 C369 1.722 . S
C2195 C293 1.756 . S
C2217 C385 1.267 . S
C2213 C305 1.390 . S
C2235 C392 1.358 . S
C2231 C316 1.419 . S
C2253 C411 1.514 1_556 S
C2249 C326 1.552 . S
C2271 C432 1.234 . S
C2267 C337 1.229 . S
C2285 C346 1.557 . S
C2289 C361 1.634 1_556 S
C2303 C269 1.589 . S
C2307 C823 1.657 . S
C2325 C739 1.493 . S
C2321 C280 1.338 . S
C2343 C844 1.629 . S
C2339 C294 1.716 . S
C2361 C768 1.225 . S
C2357 C304 1.389 . S
C2375 C313 1.191 . S
C2379 C784 1.293 . S
C2397 C700 1.338 . S
C2393 C327 1.498 . S
C2415 C805 1.238 . S
C2411 C338 1.283 . S
C2429 C349 1.569 . S
C2433 C728 1.477 . S
C2451 C760 1.522 . S
C2447 C272 1.604 . S
C2469 C707 1.525 . S
C2465 C315 1.527 . S
C2487 C812 1.749 . S
C2483 C324 1.549 . S
C2501 C335 1.171 . S
C2505 C721 1.360 . S
C2519 C348 1.895 . S
C2523 C791 1.888 . S
C2537 C291 1.302 . S
C2541 C747 1.399 . S
C2555 C302 1.322 . S
C2559 C852 1.352 . S
C2577 C831 1.562 . S
C2573 C282 1.572 . S
