# Generated by pormake.
# Topology pyr, (3,6)-cn, num edge types: 1
# Building blocks:
#     Node 0, Type 0, BuildingBlock: QEWDON_clean_linker_0, # of connection points: 3
#     Node 1, Type 0, BuildingBlock: QEWDON_clean_linker_0, # of connection points: 3
#     Node 2, Type 0, BuildingBlock: QEWDON_clean_linker_0, # of connection points: 3
#     Node 3, Type 0, BuildingBlock: QEWDON_clean_linker_0, # of connection points: 3
#     Node 4, Type 0, BuildingBlock: QEWDON_clean_linker_0, # of connection points: 3
#     Node 5, Type 0, BuildingBlock: QEWDON_clean_linker_0, # of connection points: 3
#     Node 6, Type 0, BuildingBlock: QEWDON_clean_linker_0, # of connection points: 3
#     Node 7, Type 0, BuildingBlock: QEWDON_clean_linker_0, # of connection points: 3
#     Node 8, Type 1, BuildingBlock: FUNLAD_clean_sbu_0, # of connection points: 6
#     Node 9, Type 1, BuildingBlock: FUNLAD_clean_sbu_0, # of connection points: 6
#     Node 10, Type 1, BuildingBlock: FUNLAD_clean_sbu_0, # of connection points: 6
#     Node 11, Type 1, BuildingBlock: FUNLAD_clean_sbu_0, # of connection points: 6
#     Edge 12, Type (0, 1), BuildingBlock: CIFDUS_clean_linker_0, # of connection points: 2
#     Edge 13, Type (0, 1), BuildingBlock: CIFDUS_clean_linker_0, # of connection points: 2
#     Edge 14, Type (0, 1), BuildingBlock: CIFDUS_clean_linker_0, # of connection points: 2
#     Edge 15, Type (0, 1), BuildingBlock: CIFDUS_clean_linker_0, # of connection points: 2
#     Edge 16, Type (0, 1), BuildingBlock: CIFDUS_clean_linker_0, # of connection points: 2
#     Edge 17, Type (0, 1), BuildingBlock: CIFDUS_clean_linker_0, # of connection points: 2
#     Edge 18, Type (0, 1), BuildingBlock: CIFDUS_clean_linker_0, # of connection points: 2
#     Edge 19, Type (0, 1), BuildingBlock: CIFDUS_clean_linker_0, # of connection points: 2
#     Edge 20, Type (0, 1), BuildingBlock: CIFDUS_clean_linker_0, # of connection points: 2
#     Edge 21, Type (0, 1), BuildingBlock: CIFDUS_clean_linker_0, # of connection points: 2
#     Edge 22, Type (0, 1), BuildingBlock: CIFDUS_clean_linker_0, # of connection points: 2
#     Edge 23, Type (0, 1), BuildingBlock: CIFDUS_clean_linker_0, # of connection points: 2
#     Edge 24, Type (0, 1), BuildingBlock: CIFDUS_clean_linker_0, # of connection points: 2
#     Edge 25, Type (0, 1), BuildingBlock: CIFDUS_clean_linker_0, # of connection points: 2
#     Edge 26, Type (0, 1), BuildingBlock: CIFDUS_clean_linker_0, # of connection points: 2
#     Edge 27, Type (0, 1), BuildingBlock: CIFDUS_clean_linker_0, # of connection points: 2
#     Edge 28, Type (0, 1), BuildingBlock: CIFDUS_clean_linker_0, # of connection points: 2
#     Edge 29, Type (0, 1), BuildingBlock: CIFDUS_clean_linker_0, # of connection points: 2
#     Edge 30, Type (0, 1), BuildingBlock: CIFDUS_clean_linker_0, # of connection points: 2
#     Edge 31, Type (0, 1), BuildingBlock: CIFDUS_clean_linker_0, # of connection points: 2
#     Edge 32, Type (0, 1), BuildingBlock: CIFDUS_clean_linker_0, # of connection points: 2
#     Edge 33, Type (0, 1), BuildingBlock: CIFDUS_clean_linker_0, # of connection points: 2
#     Edge 34, Type (0, 1), BuildingBlock: CIFDUS_clean_linker_0, # of connection points: 2
#     Edge 35, Type (0, 1), BuildingBlock: CIFDUS_clean_linker_0, # of connection points: 2
# Relax obj value: 0.296
# Max RMSD: 0.296
# Mean RMSD: 0.189
data_MOF--net-pry--node1-FUNLAD_clean_sbu_0--node2-QEWDON_clean_linker_0--edge1-CIFDUS_clean_linker_0
_symmetry_space_group_name_H-M    P1
_symmetry_Int_Tables_number       1
_symmetry_cell_setting            triclinic
loop_
_symmetry_equiv_pos_as_xyz
'x, y, z'
_cell_length_a     30.384192
_cell_length_b     33.280398
_cell_length_c     35.582273
_cell_angle_alpha  90.033887
_cell_angle_beta   90.399614
_cell_angle_gamma 93.155785
loop_
_atom_site_label
_atom_site_type_symbol
_atom_site_fract_x
_atom_site_fract_y
_atom_site_fract_z
_atom_type_partial_charge
H0 H 0.22962 0.24029 0.19361 0.0
C1 C 0.21428 0.22466 0.21718 0.0
C2 C 0.2291 0.18642 0.22846 0.0
C3 C 0.18091 0.24387 0.2372 0.0
H4 H 0.22092 0.13986 0.27095 0.0
C5 C 0.20892 0.16782 0.26067 0.0
C6 C 0.17496 0.18541 0.28124 0.0
C7 C 0.16153 0.22336 0.2688 0.0
C8 C 0.17238 0.28836 0.23142 0.0
H9 H 0.13625 0.23774 0.2844 0.0
C10 C 0.1584 0.30731 0.19704 0.0
C11 C 0.15073 0.34988 0.19603 0.0
C12 C 0.17866 0.31282 0.26342 0.0
H13 H 0.18982 0.30029 0.2897 0.0
C14 C 0.1708 0.35349 0.26265 0.0
H15 H 0.15346 0.28937 0.17183 0.0
C16 C 0.1568 0.37158 0.22985 0.0
H17 H 0.1501 0.40317 0.23133 0.0
H18 H 0.17541 0.37128 0.288 0.0
H19 H 0.37706 0.95765 0.82556 0.0
C20 C 0.3934 0.93365 0.8117 0.0
C21 C 0.43157 0.91899 0.82845 0.0
C22 C 0.37347 0.91618 0.77905 0.0
H23 H 0.47985 0.87363 0.82254 0.0
C24 C 0.45066 0.88562 0.81026 0.0
C25 C 0.43254 0.86804 0.77608 0.0
C26 C 0.39382 0.88427 0.7612 0.0
C27 C 0.3274 0.92698 0.7685 0.0
H28 H 0.37747 0.8702 0.73705 0.0
C29 C 0.31374 0.93761 0.73146 0.0
C30 C 0.26978 0.94912 0.72474 0.0
C31 C 0.29604 0.92668 0.79746 0.0
H32 H 0.30477 0.9179 0.82575 0.0
C33 C 0.2531 0.93738 0.79068 0.0
H34 H 0.33707 0.93792 0.70859 0.0
C35 C 0.24018 0.94871 0.75485 0.0
H36 H 0.20654 0.95709 0.75052 0.0
H37 H 0.22965 0.937 0.81345 0.0
H38 H 0.6708 0.58882 0.04437 0.0
C39 C 0.66133 0.55773 0.05083 0.0
C40 C 0.69275 0.52827 0.04955 0.0
C41 C 0.61697 0.54696 0.0582 0.0
H42 H 0.70262 0.46471 0.05408 0.0
C43 C 0.67902 0.48785 0.05613 0.0
C44 C 0.63453 0.4767 0.06309 0.0
C45 C 0.6039 0.50665 0.06487 0.0
C46 C 0.58291 0.57466 0.04785 0.0
H47 H 0.56909 0.49827 0.06783 0.0
C48 C 0.57162 0.57707 1.00988 0.0
C49 C 0.53614 0.59911 0.99799 0.0
C50 C 0.55911 0.59529 0.07459 0.0
H51 H 0.567 0.59309 0.10422 0.0
C52 C 0.52457 0.6187 0.06287 0.0
H53 H 0.59027 0.56084 0.98948 0.0
C54 C 0.51303 0.62067 1.02469 0.0
H55 H 0.48567 0.6382 1.01619 0.0
H56 H 0.50626 0.6348 0.08344 0.0
H57 H 0.97216 0.6475 0.48195 0.0
C58 C 0.94226 0.64372 0.49836 0.0
C59 C 0.92982 0.67512 0.52144 0.0
C60 C 0.91446 0.60901 0.49381 0.0
H61 H 0.87859 0.69719 0.55624 0.0
C62 C 0.88972 0.67161 0.54074 0.0
C63 C 0.86142 0.6373 0.53603 0.0
C64 C 0.8743 0.60572 0.51315 0.0
C65 C 0.92316 0.57997 0.46374 0.0
H66 H 0.85126 0.58028 0.50771 0.0
C67 C 0.93027 0.59393 0.42686 0.0
C68 C 0.93307 0.5667 0.39705 0.0
C69 C 0.92038 0.53842 0.47075 0.0
H70 H 0.91467 0.52712 0.49895 0.0
C71 C 0.92443 0.5112 0.44123 0.0
H72 H 0.93103 0.62594 0.42101 0.0
C73 C 0.93026 0.52519 0.40447 0.0
H74 H 0.93226 0.50365 0.38179 0.0
H75 H 0.92218 0.47918 0.44674 0.0
H76 H 0.87729 0.8696 0.90723 0.0
C77 C 0.89357 0.8843 0.88357 0.0
C78 C 0.93307 0.86919 0.86935 0.0
C79 C 0.87265 0.91618 0.86589 0.0
H80 H 0.98155 0.87744 0.82435 0.0
C81 C 0.95145 0.88798 0.83597 0.0
C82 C 0.93132 0.92091 0.81788 0.0
C83 C 0.89242 0.93435 0.83375 0.0
C84 C 0.82657 0.92674 0.87637 0.0
H85 H 0.8765 0.95892 0.82019 0.0
C86 C 0.81322 0.93756 0.91336 0.0
C87 C 0.76915 0.94874 0.91992 0.0
C88 C 0.7949 0.92622 0.84729 0.0
H89 H 0.80343 0.91749 0.81903 0.0
C90 C 0.75192 0.93662 0.85392 0.0
H91 H 0.83683 0.93814 0.93631 0.0
C92 C 0.73924 0.94794 0.88969 0.0
H93 H 0.70555 0.95608 0.89386 0.0
H94 H 0.72821 0.93602 0.83104 0.0
H95 H 0.71241 0.23607 0.46157 0.0
C96 C 0.70374 0.22415 0.43402 0.0
C97 C 0.72936 0.19399 0.41784 0.0
C98 C 0.66479 0.23683 0.4167 0.0
H99 H 0.7333 0.15365 0.37017 0.0
C100 C 0.71441 0.17654 0.38304 0.0
C101 C 0.67572 0.18874 0.36423 0.0
C102 C 0.65188 0.2192 0.38152 0.0
C103 C 0.632 0.26045 0.43885 0.0
H104 H 0.62131 0.22761 0.36863 0.0
C105 C 0.64019 0.29996 0.45505 0.0
C106 C 0.60679 0.31841 0.4768 0.0
C107 C 0.59053 0.24082 0.44487 0.0
H108 H 0.58301 0.21093 0.43362 0.0
C109 C 0.55839 0.25852 0.4659 0.0
H110 H 0.67177 0.31593 0.45086 0.0
C111 C 0.56633 0.29653 0.48162 0.0
H112 H 0.53999 0.30927 0.49729 0.0
H113 H 0.5268 0.24254 0.47007 0.0
H114 H 0.48408 0.65767 0.16455 0.0
C115 C 0.45181 0.6512 0.15204 0.0
C116 C 0.43069 0.68187 0.13352 0.0
C117 C 0.43011 0.61328 0.1571 0.0
H118 H 0.37166 0.69835 0.10498 0.0
C119 C 0.3885 0.67408 0.11817 0.0
C120 C 0.36649 0.6363 0.12252 0.0
C121 C 0.38754 0.60585 0.1419 0.0
C122 C 0.44942 0.58352 0.18243 0.0
H123 H 0.36987 0.57717 0.14683 0.0
C124 C 0.46658 0.59593 0.21766 0.0
C125 C 0.48213 0.56792 0.24347 0.0
C126 C 0.44885 0.54267 0.17263 0.0
H127 H 0.43589 0.53242 0.14563 0.0
C128 C 0.46503 0.51471 0.19769 0.0
H129 H 0.46699 0.62748 0.22523 0.0
C130 C 0.48127 0.52707 0.23293 0.0
H131 H 0.49214 0.50442 0.25218 0.0
H132 H 0.46436 0.4832 0.19002 0.0
H133 H 0.16356 0.57746 0.60538 0.0
C134 C 0.15362 0.54683 0.59737 0.0
C135 C 0.18473 0.51718 0.59736 0.0
C136 C 0.10912 0.5368 0.58941 0.0
H137 H 0.19437 0.45389 0.59028 0.0
C138 C 0.17078 0.47715 0.58913 0.0
C139 C 0.12605 0.46662 0.58174 0.0
C140 C 0.09566 0.4969 0.58095 0.0
C141 C 0.07558 0.56443 0.60095 0.0
H142 H 0.06077 0.48887 0.57759 0.0
C143 C 0.06966 0.56977 0.63942 0.0
C144 C 0.03453 0.59092 0.65305 0.0
C145 C 0.04688 0.58167 0.57534 0.0
H146 H 0.05057 0.57717 0.5454 0.0
C147 C 1.01296 0.60471 0.58863 0.0
H148 H 0.09189 0.556 0.65898 0.0
C149 C 1.00663 0.60929 0.62738 0.0
H150 H 0.97941 0.62607 0.6372 0.0
H151 H 0.99094 0.61828 0.56891 0.0
C152 C 0.06633 0.10099 0.48003 0.0
N153 N 0.03953 0.15288 0.58572 0.0
C154 C 0.08232 0.16735 0.58434 0.0
C155 C 0.09378 0.20713 0.59365 0.0
C156 C 0.06085 0.23289 0.60325 0.0
C157 C 1.01696 0.21752 0.6051 0.0
C158 C 1.00699 0.17689 0.59657 0.0
Zn159 Zn 0.02682 0.09696 0.56241 0.0
C160 C 0.94219 0.09248 0.51626 0.0
N161 N 1.0116 0.98398 0.50785 0.0
C162 C 0.04601 0.96244 0.49663 0.0
C163 C 0.96963 0.96749 0.50799 0.0
C164 C 0.96112 0.92745 0.49777 0.0
C165 C 0.99626 0.90401 0.48831 0.0
C166 C 0.03908 0.92182 0.48714 0.0
Zn167 Zn 1.02222 0.03901 0.53207 0.0
O168 O 0.05831 0.12116 0.50964 0.0
C169 C 0.10527 0.0447 0.57874 0.0
O170 O 0.05567 0.06332 0.48061 0.0
H171 H 0.94293 0.9847 0.51796 0.0
H172 H 0.10765 0.14883 0.57398 0.0
H173 H 0.0791 0.97614 0.49678 0.0
O174 O 0.08895 0.07851 0.58437 0.0
O175 O 0.08499 0.02027 0.55618 0.0
H176 H 0.97311 0.16512 0.59693 0.0
O177 O 0.99038 1.01425 0.58393 0.0
O178 O 0.99703 0.07047 0.61575 0.0
O179 O 0.95862 0.05889 0.50852 0.0
O180 O 0.96293 0.1153 0.54002 0.0
C181 C 0.98641 0.0326 0.61524 0.0
H182 H 0.12783 0.21828 0.59118 0.0
H183 H 0.99074 0.2369 0.61215 0.0
H184 H 0.92779 0.91426 0.4995 0.0
H185 H 0.06684 0.90425 0.48012 0.0
C186 C 0.60868 0.05093 0.06381 0.0
N187 N 0.55104 0.16295 0.05568 0.0
C188 C 0.59403 0.17648 0.05873 0.0
C189 C 0.60672 0.21609 0.04975 0.0
C190 C 0.57471 0.24233 0.03858 0.0
C191 C 0.53079 0.22764 1.03453 0.0
C192 C 0.51965 0.18731 0.04286 0.0
Zn193 Zn 0.53463 0.10793 0.07852 0.0
C194 C 0.49145 0.04761 1.02236 0.0
N195 N 0.50719 0.99528 0.12985 0.0
C196 C 0.5383 0.97249 0.1455 0.0
C197 C 0.46477 0.98087 0.12535 0.0
C198 C 0.45237 0.94165 0.1357 0.0
C199 C 0.48406 0.91678 0.15037 0.0
C200 C 0.5274 0.9327 0.15586 0.0
Zn201 Zn 0.52293 0.04958 0.10664 0.0
O202 O 0.59544 0.08602 0.0582 0.0
C203 C 0.57004 0.10877 0.1617 0.0
O204 O 0.58567 0.02742 0.08522 0.0
H205 H 0.44087 0.99922 0.11207 0.0
H206 H 0.61834 0.15727 0.0701 0.0
H207 H 0.57188 0.98464 0.14858 0.0
O208 O 0.56599 0.12972 0.13189 0.0
O209 O 0.55555 0.07196 0.16031 0.0
H210 H 0.48564 0.17607 0.04082 0.0
O211 O 0.45853 0.07326 0.12774 0.0
O212 O 0.47321 0.13001 0.0987 0.0
O213 O 0.49305 0.02646 0.05227 0.0
O214 O 0.5039 0.08494 1.02505 0.0
C215 C 0.44767 0.10902 0.12012 0.0
H216 H 0.64077 0.22677 0.05373 0.0
H217 H 0.50533 0.24739 1.02611 0.0
H218 H 0.41882 0.93025 0.13036 0.0
H219 H 0.55266 0.91431 0.16716 0.0
C220 C 0.55481 0.52346 0.58956 0.0
N221 N 0.54078 0.5713 0.7008 0.0
C222 C 0.51706 0.53929 0.71557 0.0
C223 C 0.51401 0.53473 0.75455 0.0
C224 C 0.53552 0.56348 0.77823 0.0
C225 C 0.56221 0.59447 0.76209 0.0
C226 C 0.56426 0.59792 0.72318 0.0
Zn227 Zn 0.53264 0.58815 0.64637 0.0
C228 C 0.61635 0.62649 0.61361 0.0
N229 N 0.51536 0.62743 0.53356 0.0
C230 C 0.49503 0.59732 0.51282 0.0
C231 C 0.53128 0.66214 0.51698 0.0
C232 C 0.52789 0.66681 0.47781 0.0
C233 C 0.50853 0.6352 0.45614 0.0
C234 C 0.49137 0.60057 0.4741 0.0
Zn235 Zn 0.52507 0.61191 0.58877 0.0
O236 O 0.54971 0.52868 0.62486 0.0
C237 C 0.44196 0.57111 0.61819 0.0
O238 O 0.54764 0.55301 0.56795 0.0
H239 H 0.54778 0.68552 0.53387 0.0
H240 H 0.49838 0.51868 0.69724 0.0
H241 H 0.48295 0.56973 0.52607 0.0
O242 O 0.46402 0.56774 0.64837 0.0
O243 O 0.45991 0.5882 0.59004 0.0
H244 H 0.58245 0.62344 0.71096 0.0
O245 O 0.50351 0.67102 0.61168 0.0
O246 O 0.5155 0.64742 0.66788 0.0
O247 O 0.59011 0.63443 0.58707 0.0
O248 O 0.60137 0.6079 0.64251 0.0
C249 C 0.50387 0.67647 0.64745 0.0
H250 H 0.49316 0.51032 0.76593 0.0
H251 H 0.58016 0.61671 0.77936 0.0
H252 H 0.54148 0.69397 0.46454 0.0
H253 H 0.47607 0.57574 0.45814 0.0
C254 C 1.00847 0.6794 0.99994 0.0
N255 N 1.01352 0.63232 0.11467 0.0
C256 C 0.02431 0.66725 0.13342 0.0
C257 C 1.01391 0.67086 0.17176 0.0
C258 C 0.99221 0.63822 0.1905 0.0
C259 C 0.98166 0.60296 0.1701 0.0
C260 C 0.99236 0.60074 0.13249 0.0
Zn261 Zn 0.02946 0.61776 0.06034 0.0
C262 C 0.95036 0.57253 1.02618 0.0
N263 N 0.0548 0.57394 0.95124 0.0
C264 C 0.0764 0.60158 0.92892 0.0
C265 C 0.03466 0.53984 0.93667 0.0
C266 C 0.03279 0.5341 0.8978 0.0
C267 C 0.0519 0.56376 0.87398 0.0
C268 C 0.07549 0.59699 0.89004 0.0
Zn269 Zn 0.04198 0.59121 1.00454 0.0
O270 O 1.00741 0.67519 1.03579 0.0
C271 C 0.12149 0.63401 0.04163 0.0
O272 O 1.02169 0.64996 0.98076 0.0
H273 H 1.01745 0.51843 0.95497 0.0
H274 H 0.04161 0.6919 0.11897 0.0
H275 H 0.09184 0.62865 0.94107 0.0
O276 O 0.09374 0.6419 0.06677 0.0
O277 O 0.10869 0.6149 1.01215 0.0
H278 H 0.98463 0.57279 0.11786 0.0
O279 O 0.06275 0.53253 1.02868 0.0
O280 O 0.05348 0.56102 0.08305 0.0
O281 O 0.97534 0.56694 0.99848 0.0
O282 O 0.96513 0.59233 0.05425 0.0
C283 C 0.06492 0.53054 0.06454 0.0
H284 H 1.02293 0.69858 0.18653 0.0
H285 H 0.9665 0.57641 0.18331 0.0
H286 H 1.01429 0.50802 0.88654 0.0
H287 H 0.09156 0.62006 0.87267 0.0
H288 H 0.14739 0.21737 0.34984 0.0
H289 H 0.15495 0.10419 0.29181 0.0
H290 H 0.12347 0.06864 0.34618 0.0
H291 H 0.09284 0.06855 0.41132 0.0
H292 H 0.08632 0.18174 0.4695 0.0
H293 H 0.11739 0.21727 0.41496 0.0
C294 C 0.14197 0.18494 0.34875 0.0
C295 C 0.15424 0.16404 0.3158 0.0
C296 C 0.12368 0.16412 0.38079 0.0
C297 C 0.14691 0.12172 0.31621 0.0
C298 C 0.12847 0.1011 0.34758 0.0
C299 C 0.0982 0.10099 0.41225 0.0
C300 C 0.08673 0.12193 0.44539 0.0
C301 C 0.11671 0.12179 0.38025 0.0
C302 C 0.09445 0.16419 0.44512 0.0
C303 C 0.11237 0.18481 0.41358 0.0
H304 H 0.43461 0.99913 0.85276 0.0
H305 H 0.46552 0.88103 0.89113 0.0
H306 H 0.48467 0.90887 0.95332 0.0
H307 H 0.49122 0.96709 0.99862 0.0
H308 H 0.46256 0.08516 0.95866 0.0
H309 H 0.44353 0.05707 0.89674 0.0
C310 C 0.44546 0.97914 0.87455 0.0
C311 C 0.44814 0.93736 0.86619 0.0
C312 C 0.45652 0.99555 0.91082 0.0
C313 C 0.46326 0.91303 0.89557 0.0
C314 C 0.47393 0.92906 0.93165 0.0
C315 C 0.48048 0.98677 0.97652 0.0
C316 C 0.47797 0.02868 0.98435 0.0
C317 C 0.47035 0.97029 0.93994 0.0
C318 C 0.46473 0.05311 0.9544 0.0
C319 C 0.45386 0.03691 0.91859 0.0
H320 H 0.52705 0.53407 0.9527 0.0
H321 H 0.51953 0.6631 0.9527 0.0
H322 H 0.51475 0.66283 0.8839 0.0
H323 H 0.52122 0.62659 0.82409 0.0
H324 H 0.53431 0.49808 0.82472 0.0
H325 H 0.52854 0.49739 0.89318 0.0
C326 C 0.524 0.56211 0.9376 0.0
C327 C 0.52437 0.59865 0.95755 0.0
C328 C 0.52292 0.5618 0.89829 0.0
C329 C 0.5193 0.63465 0.93788 0.0
C330 C 0.51705 0.6345 0.8986 0.0
C331 C 0.52294 0.59844 0.83925 0.0
C332 C 0.52895 0.5625 0.81945 0.0
C333 C 0.52036 0.59841 0.87856 0.0
C334 C 0.52977 0.5261 0.83931 0.0
C335 C 0.52662 0.52573 0.87842 0.0
H336 H 0.99529 0.61877 0.36663 0.0
H337 H 0.87572 0.54823 0.34049 0.0
H338 H 0.87937 0.57094 0.27523 0.0
H339 H 0.91915 0.60634 0.22504 0.0
H340 H 0.04396 0.66991 0.24831 0.0
H341 H 0.03462 0.65645 0.31555 0.0
C342 C 0.97005 0.60867 0.34652 0.0
C343 C 0.93555 0.58157 0.35796 0.0
C344 C 0.97306 0.62103 0.30877 0.0
C345 C 0.90287 0.5686 0.33197 0.0
C346 C 0.90482 0.58176 0.29482 0.0
C347 C 0.9444 0.61734 0.24477 0.0
C348 C 0.98263 0.63841 0.23149 0.0
C349 C 0.94018 0.60729 0.2828 0.0
C350 C 1.01417 0.65367 0.25766 0.0
C351 C 1.00913 0.64546 0.29608 0.0
H352 H 0.30145 0.22028 0.1882 0.0
H353 H 0.24204 0.10476 0.22073 0.0
H354 H 0.30276 0.07125 0.19254 0.0
H355 H 0.3746 0.07343 0.15834 0.0
H356 H 0.43041 0.18868 0.12175 0.0
H357 H 0.36999 0.22224 0.1507 0.0
C358 C 0.30105 0.18774 0.18891 0.0
C359 C 0.26634 0.16588 0.20793 0.0
C360 C 0.3362 0.16792 0.17148 0.0
C361 C 0.26807 0.12342 0.20794 0.0
C362 C 0.30302 0.10379 0.19125 0.0
C363 C 0.37358 0.10587 0.15653 0.0
C364 C 0.40797 0.12804 0.13752 0.0
C365 C 0.33767 0.12557 0.17308 0.0
C366 C 0.40505 0.17024 0.13577 0.0
C367 C 0.3702 0.18976 0.15255 0.0
H368 H 0.25325 0.0248 0.70274 0.0
H369 H 0.24169 0.90175 0.66538 0.0
H370 H 0.19179 0.92035 0.61439 0.0
H371 H 0.14367 0.97075 0.58537 0.0
H372 H 0.15621 0.09368 0.62461 0.0
H373 H 0.21305 0.07617 0.66911 0.0
C374 C 0.24118 1.00235 0.68249 0.0
C375 C 0.25217 0.96205 0.68744 0.0
C376 C 0.21159 1.01319 0.65383 0.0
C377 C 0.23492 0.93313 0.66167 0.0
C378 C 0.20574 0.94374 0.63281 0.0
C379 C 0.15941 0.99387 0.60312 0.0
C380 C 0.14485 0.03358 0.6015 0.0
C381 C 0.19261 0.98353 0.62928 0.0
C382 C 0.16599 0.06287 0.62506 0.0
C383 C 0.19874 0.05289 0.65074 0.0
H384 H 0.76758 0.49915 0.0787 0.0
H385 H 0.722 0.58097 0.99474 0.0
H386 H 0.79801 0.59887 0.97688 0.0
H387 H 0.87813 0.59377 0.98744 0.0
H388 H 0.92277 0.51273 0.07209 0.0
H389 H 0.84658 0.4908 0.08639 0.0
C390 C 0.77418 0.52051 0.05616 0.0
C391 C 0.73906 0.53897 0.03845 0.0
C392 C 0.8179 0.53035 0.04576 0.0
C393 C 0.74838 0.56697 1.00954 0.0
C394 C 0.79186 0.57692 0.99898 0.0
C395 C 0.8709 0.57052 1.0082 0.0
C396 C 0.90554 0.55415 1.02824 0.0
C397 C 0.82694 0.55907 1.0171 0.0
C398 C 0.89627 0.52501 0.05595 0.0
C399 C 0.85282 0.51283 0.06437 0.0
H400 H 0.82461 0.62822 0.60571 0.0
H401 H 0.79456 0.65093 0.48936 0.0
H402 H 0.71649 0.65429 0.5041 0.0
H403 H 0.65684 0.64737 0.54885 0.0
H404 H 0.68385 0.61966 0.66493 0.0
H405 H 0.76314 0.62231 0.65181 0.0
C406 C 0.80072 0.63392 0.58384 0.0
C407 C 0.81475 0.639 0.54651 0.0
C408 C 0.75562 0.63512 0.59248 0.0
C409 C 0.78401 0.64655 0.51817 0.0
C410 C 0.73955 0.64862 0.52661 0.0
C411 C 0.67996 0.64245 0.57155 0.0
C412 C 0.6644 0.63343 0.60785 0.0
C413 C 0.72497 0.64257 0.56353 0.0
C414 C 0.69498 0.62678 0.63673 0.0
C415 C 0.74028 0.62805 0.62919 0.0
H416 H 0.18003 0.4257 0.17349 0.0
H417 H 0.08523 0.33043 0.14204 0.0
H418 H 0.05179 0.3759 0.09662 0.0
H419 H 0.04492 0.44626 0.06972 0.0
H420 H 0.13749 0.54078 0.10765 0.0
H421 H 0.1751 0.49291 0.1465 0.0
C422 C 0.15211 0.41441 0.15668 0.0
C423 C 0.1354 0.37402 0.16202 0.0
C424 C 0.13189 0.44135 0.13177 0.0
C425 C 0.09957 0.36074 0.1389 0.0
C426 C 0.07995 0.38718 0.11308 0.0
C427 C 0.07366 0.45622 0.0861 0.0
C428 C 0.08829 0.4977 0.08521 0.0
C429 C 0.09506 0.42806 0.10979 0.0
C430 C 0.12529 0.50956 0.10739 0.0
C431 C 0.14697 0.48199 0.12979 0.0
H432 H 0.65928 0.4172 1.01686 0.0
H433 H 0.5736 0.43994 0.10985 0.0
H434 H 0.54447 0.37 0.10796 0.0
H435 H 0.54476 0.30194 0.08079 0.0
H436 H 0.63371 0.27844 0.99064 0.0
H437 H 0.66033 0.34933 0.99035 0.0
C438 C 0.63479 0.40674 0.03716 0.0
C439 C 0.61892 0.43367 0.06369 0.0
C440 C 0.61849 0.36654 1.03609 0.0
C441 C 0.58628 0.41982 0.0891 0.0
C442 C 0.56962 0.37988 0.08804 0.0
C443 C 0.56944 0.31269 0.06074 0.0
C444 C 0.58693 0.28559 1.03537 0.0
C445 C 0.58544 0.35302 0.06161 0.0
C446 C 0.61963 0.2992 1.01006 0.0
C447 C 0.63495 0.33952 1.01009 0.0
H448 H 0.91776 0.72771 0.46662 0.0
H449 H 0.99166 0.71076 0.56851 0.0
H450 H 0.02428 0.77991 0.56399 0.0
H451 H 0.02574 0.8468 0.53386 0.0
H452 H 0.94647 0.86456 0.43501 0.0
H453 H 0.92218 0.79313 0.43481 0.0
C454 C 0.94149 0.73924 0.48747 0.0
C455 C 0.95262 0.71488 0.5178 0.0
C456 C 0.95894 0.7789 0.48505 0.0
C457 C 0.98293 0.7295 0.54501 0.0
C458 C 1.0014 0.76882 0.54238 0.0
C459 C 1.00403 0.83458 0.51184 0.0
C460 C 0.98813 0.86029 0.48422 0.0
C461 C 0.98895 0.79402 0.5129 0.0
C462 C 0.95924 0.84487 0.45622 0.0
C463 C 0.94522 0.80426 0.45629 0.0
H464 H 0.43447 0.84722 0.69967 0.0
H465 H 0.47281 0.80349 0.8086 0.0
H466 H 0.49809 0.74251 0.77934 0.0
H467 H 0.50757 0.6993 0.72287 0.0
H468 H 0.46924 0.74297 0.61404 0.0
H469 H 0.44561 0.80489 0.64313 0.0
C470 C 0.44815 0.82447 0.71735 0.0
C471 C 0.45123 0.83108 0.75698 0.0
C472 C 0.46264 0.78867 0.70013 0.0
C473 C 0.47012 0.80061 0.77836 0.0
C474 C 0.4844 0.76513 0.7615 0.0
C475 C 0.49415 0.7223 0.70529 0.0
C476 C 0.49037 0.71556 0.66577 0.0
C477 C 0.4806 0.75851 0.72241 0.0
C478 C 0.47285 0.7465 0.64417 0.0
C479 C 0.45919 0.78223 0.66098 0.0
H480 H 0.92 0.90338 0.74129 0.0
H481 H 0.98097 0.99207 0.81584 0.0
H482 H 1.00128 0.03512 0.76202 0.0
H483 H 1.00086 0.0492 0.69252 0.0
H484 H 0.94092 0.95928 0.61823 0.0
H485 H 0.92149 0.91644 0.67195 0.0
C486 C 0.93863 0.9317 0.7458 0.0
C487 C 0.94988 0.94346 0.78328 0.0
C488 C 0.94998 0.95696 0.71419 0.0
C489 C 0.97274 0.98125 0.78781 0.0
C490 C 0.98404 1.00628 0.75677 0.0
C491 C 0.98314 0.02044 0.68794 0.0
C492 C 0.97209 1.00841 0.65039 0.0
C493 C 0.97256 0.99485 0.71961 0.0
C494 C 0.94984 0.97023 0.64608 0.0
C495 C 0.93874 0.9453 0.67713 0.0
H496 H 0.63995 0.22175 0.29924 0.0
H497 H 0.67162 0.10769 0.34664 0.0
H498 H 0.64201 0.07299 0.29048 0.0
H499 H 0.60561 0.0741 0.22684 0.0
H500 H 0.57848 0.18901 0.17851 0.0
H501 H 0.60704 0.22319 0.23498 0.0
C502 C 0.64047 0.18927 0.29748 0.0
C503 C 0.65847 0.16784 0.32803 0.0
C504 C 0.62375 0.16914 0.26432 0.0
C505 C 0.65877 0.12559 0.3241 0.0
C506 C 0.64143 0.10548 0.29175 0.0
C507 C 0.60591 0.10663 0.22853 0.0
C508 C 0.58927 0.12849 0.1976 0.0
C509 C 0.62363 0.12676 0.26148 0.0
C510 C 0.59077 0.17083 0.2011 0.0
C511 C 0.6072 0.19067 0.23376 0.0
H512 H 0.44949 0.6265 0.2879 0.0
H513 H 0.54943 0.53901 0.28559 0.0
H514 H 0.56977 0.55572 0.35032 0.0
H515 H 0.55482 0.5909 0.40926 0.0
H516 H 0.4568 0.67946 0.41135 0.0
H517 H 0.44134 0.66796 0.34427 0.0
C518 C 0.47652 0.61172 0.30103 0.0
C519 C 0.49739 0.58102 0.28175 0.0
C520 C 0.48864 0.62196 0.33814 0.0
C521 C 0.53187 0.56193 0.29986 0.0
C522 C 0.54388 0.57173 0.33683 0.0
C523 C 0.53101 0.60843 0.39459 0.0
C524 C 0.50712 0.63614 0.41475 0.0
C525 C 0.52189 0.60108 0.35644 0.0
C526 C 0.47591 0.65843 0.396 0.0
C527 C 0.46678 0.65147 0.35787 0.0
H528 H 0.03527 0.52805 0.70064 0.0
H529 H 1.01835 0.65582 0.69743 0.0
H530 H 1.01967 0.65813 0.76636 0.0
H531 H 0.03243 0.62459 0.82682 0.0
H532 H 0.05508 0.49763 0.82877 0.0
H533 H 0.04515 0.49424 0.76067 0.0
C534 C 0.03174 0.55642 0.71506 0.0
C535 C 0.02747 0.59187 0.69414 0.0
C536 C 0.0342 0.55768 0.75428 0.0
C537 C 1.02167 0.62819 0.71302 0.0
C538 C 1.0229 0.62954 0.75233 0.0
C539 C 0.03557 0.59624 0.8123 0.0
C540 C 0.04509 0.56149 0.83275 0.0
C541 C 0.03046 0.59466 0.77313 0.0
C542 C 0.04774 0.52475 0.8137 0.0
C543 C 0.04216 0.52282 0.77479 0.0
H544 H 0.75875 0.02501 0.94437 0.0
H545 H 0.73472 0.90123 0.97634 0.0
H546 H 0.68489 0.92139 1.02616 0.0
H547 H 0.64051 0.97418 0.05555 0.0
H548 H 0.66562 0.0979 1.0219 0.0
H549 H 0.7221 0.07801 0.97874 0.0
C550 C 0.74403 1.00261 0.96328 0.0
C551 C 0.75163 0.96167 0.95715 0.0
C552 C 0.71446 1.01446 0.99132 0.0
C553 C 0.73073 0.93297 0.98107 0.0
C554 C 0.70157 0.94454 1.00925 0.0
C555 C 0.65892 0.9969 0.03936 0.0
C556 C 0.64797 0.03766 0.04215 0.0
C557 C 0.69198 0.98517 1.01396 0.0
C558 C 0.67253 0.06635 1.02054 0.0
C559 C 0.70512 0.055 0.99561 0.0
H560 H 0.76573 0.11809 0.42018 0.0
H561 H 0.7889 0.23939 0.46172 0.0
H562 H 0.85346 0.21918 0.49625 0.0
H563 H 0.90529 0.16732 0.51515 0.0
H564 H 0.88436 0.04678 0.47171 0.0
H565 H 0.81857 0.06652 0.43795 0.0
C566 C 0.78492 0.14043 0.43641 0.0
C567 C 0.77095 0.18055 0.43805 0.0
C568 C 0.82318 0.12863 0.45635 0.0
C569 C 0.79712 0.20821 0.46001 0.0
C570 C 0.83472 0.19668 0.47982 0.0
C571 C 0.88631 0.14518 0.49849 0.0
C572 C 0.90045 0.10524 0.49657 0.0
C573 C 0.84819 0.15695 0.47844 0.0
C574 C 0.87496 0.07758 0.47421 0.0
C575 C 0.83701 0.08895 0.45466 0.0
H576 H 0.32912 0.65189 0.05464 0.0
H577 H 0.29847 0.61052 0.16678 0.0
H578 H 0.21977 0.60912 0.15207 0.0
H579 H 0.15984 0.62082 0.10798 0.0
H580 H 0.18902 0.65653 0.99407 0.0
H581 H 0.26832 0.65982 1.00883 0.0
C582 C 0.30506 0.64227 0.07563 0.0
C583 C 0.3194 0.63114 0.11167 0.0
C584 C 0.25982 0.64127 0.06685 0.0
C585 C 0.28815 0.61863 0.13871 0.0
C586 C 0.2432 0.61824 0.13044 0.0
C587 C 0.18359 0.62989 0.08654 0.0
C588 C 0.16889 0.63946 0.05029 0.0
C589 C 0.22872 0.62989 0.09479 0.0
C590 C 0.19982 0.64974 1.02233 0.0
C591 C 0.245 0.65135 1.03073 0.0
H592 H 0.25889 0.49698 0.56179 0.0
H593 H 0.21412 0.56046 0.65868 0.0
H594 H 0.2904 0.57952 0.67643 0.0
H595 H 0.37024 0.5813 0.66219 0.0
H596 H 0.41352 0.52149 0.56271 0.0
H597 H 0.33794 0.49711 0.54858 0.0
C598 C 0.26595 0.51466 0.58696 0.0
C599 C 0.23105 0.52754 0.60872 0.0
C600 C 0.30976 0.526 0.59663 0.0
C601 C 0.24053 0.5507 0.64116 0.0
C602 C 0.28411 0.56142 0.65144 0.0
C603 C 0.36294 0.56233 0.63789 0.0
C604 C 0.39707 0.55285 0.61363 0.0
C605 C 0.31906 0.54966 0.62914 0.0
C606 C 0.3875 0.52896 0.58176 0.0
C607 C 0.34435 0.51517 0.57359 0.0
H608 H 0.93417 0.84771 0.94558 0.0
H609 H 0.97659 0.80613 0.83755 0.0
H610 H 1.00325 0.74563 0.86718 0.0
H611 H 1.01299 0.70214 0.92398 0.0
H612 H 0.97054 0.74456 1.03167 0.0
H613 H 0.94541 0.80556 1.00206 0.0
C614 C 0.949 0.82554 0.92814 0.0
C615 C 0.95272 0.83258 0.88866 0.0
C616 C 0.96433 0.79008 0.94556 0.0
C617 C 0.97323 0.80286 0.86767 0.0
C618 C 0.98834 0.76766 0.88475 0.0
C619 C 0.99832 0.72467 0.94116 0.0
C620 C 0.99389 0.71776 0.9806 0.0
C621 C 0.98387 0.76058 0.92371 0.0
C622 C 0.97474 0.74814 1.00164 0.0
C623 C 0.96019 0.7834 0.98454 0.0
H624 H 0.39323 0.7439 0.16575 0.0
H625 H 0.51025 0.71212 0.10759 0.0
H626 H 0.53964 0.78233 0.11105 0.0
H627 H 0.52906 0.85328 0.12709 0.0
H628 H 0.41178 0.88393 0.18591 0.0
H629 H 0.38542 0.81328 0.18619 0.0
C630 C 0.42511 0.75254 0.15375 0.0
C631 C 0.44932 0.72356 0.13575 0.0
C632 C 0.44168 0.79247 0.15622 0.0
C633 C 0.49104 0.73439 0.12115 0.0
C634 C 0.50775 0.77434 0.12322 0.0
C635 C 0.49825 0.84428 0.14072 0.0
C636 C 0.47221 0.87363 0.15628 0.0
C637 C 0.48307 0.80371 0.14032 0.0
C638 C 0.4321 0.86178 0.17347 0.0
C639 C 0.417 0.82151 0.17355 0.0
H640 H 0.14837 0.40639 0.62818 0.0
H641 H 0.0658 0.43125 0.5328 0.0
H642 H 0.03485 0.36179 0.53353 0.0
H643 H 0.03271 0.29343 0.56049 0.0
H644 H 0.11766 0.26826 0.65401 0.0
H645 H 0.14608 0.33858 0.65517 0.0
C646 C 0.12413 0.39645 0.60716 0.0
C647 C 0.10977 0.42378 0.58019 0.0
C648 C 0.10647 0.35662 0.60784 0.0
C649 C 0.07744 0.41071 0.55379 0.0
C650 C 0.05967 0.37108 0.55426 0.0
C651 C 0.05678 0.30373 0.58153 0.0
C652 C 0.07272 0.27621 0.60751 0.0
C653 C 0.07386 0.34381 0.58122 0.0
C654 C 0.1047 0.2893 0.6341 0.0
C655 C 0.12113 0.32929 0.63454 0.0
H656 H 0.59095 0.34037 0.54974 0.0
H657 H 0.62662 0.39196 0.44256 0.0
H658 H 0.61396 0.45947 0.46712 0.0
H659 H 0.58664 0.50403 0.51829 0.0
H660 H 0.55286 0.45073 0.62552 0.0
H661 H 0.5703 0.38472 0.60178 0.0
C662 C 0.59702 0.36644 0.53186 0.0
C663 C 0.61033 0.36044 0.49412 0.0
C664 C 0.58898 0.40531 0.54615 0.0
C665 C 0.61738 0.39507 0.47171 0.0
C666 C 0.60942 0.43386 0.48574 0.0
C667 C 0.58324 0.47805 0.5366 0.0
C668 C 0.56781 0.4831 0.57397 0.0
C669 C 0.59418 0.43943 0.52274 0.0
C670 C 0.56433 0.44854 0.59687 0.0
C671 C 0.57441 0.41044 0.58322 0.0
loop_
_geom_bond_atom_site_label_1
_geom_bond_atom_site_label_2
_geom_bond_distance
_geom_bond_site_symmetry_2
_ccdc_geom_bond_type
H0 C1 0.949 . S
C1 H0 0.949 . S
C1 C2 1.395 . S
C1 C3 1.391 . S
C2 C1 1.395 . S
C2 C5 1.390 . S
C3 C1 1.391 . S
C3 C7 1.387 . S
C3 C8 1.491 . S
H4 C5 0.950 . S
C5 C2 1.390 . S
C5 H4 0.950 . S
C5 C6 1.378 . S
C6 C5 1.378 . S
C6 C7 1.409 . S
C7 C3 1.387 . S
C7 C6 1.409 . S
C7 H9 0.951 . S
C8 C3 1.491 . S
C8 C10 1.382 . S
C8 C12 1.404 . S
H9 C7 0.951 . S
C10 C8 1.382 . S
C10 C11 1.390 . S
C10 H15 0.949 . S
C11 C10 1.390 . S
C11 C16 1.399 . S
C12 C8 1.404 . S
C12 H13 0.950 . S
C12 C14 1.375 . S
H13 C12 0.950 . S
C14 C12 1.375 . S
C14 C16 1.382 . S
C14 H18 0.950 . S
H15 C10 0.949 . S
C16 C11 1.399 . S
C16 C14 1.382 . S
C16 H17 0.952 . S
H17 C16 0.952 . S
H18 C14 0.950 . S
H19 C20 0.949 . S
C20 H19 0.949 . S
C20 C21 1.395 . S
C20 C22 1.391 . S
C21 C20 1.395 . S
C21 C24 1.390 . S
C22 C20 1.391 . S
C22 C26 1.387 . S
C22 C27 1.491 . S
H23 C24 0.950 . S
C24 C21 1.390 . S
C24 H23 0.950 . S
C24 C25 1.378 . S
C25 C24 1.378 . S
C25 C26 1.409 . S
C26 C22 1.387 . S
C26 C25 1.409 . S
C26 H28 0.951 . S
C27 C22 1.491 . S
C27 C29 1.382 . S
C27 C31 1.404 . S
H28 C26 0.951 . S
C29 C27 1.382 . S
C29 C30 1.390 . S
C29 H34 0.949 . S
C30 C29 1.390 . S
C30 C35 1.399 . S
C31 C27 1.404 . S
C31 H32 0.950 . S
C31 C33 1.375 . S
H32 C31 0.950 . S
C33 C31 1.375 . S
C33 C35 1.382 . S
C33 H37 0.950 . S
H34 C29 0.949 . S
C35 C30 1.399 . S
C35 C33 1.382 . S
C35 H36 0.952 . S
H36 C35 0.952 . S
H37 C33 0.950 . S
H38 C39 0.949 . S
C39 H38 0.949 . S
C39 C40 1.395 . S
C39 C41 1.391 . S
C40 C39 1.395 . S
C40 C43 1.390 . S
C41 C39 1.391 . S
C41 C45 1.387 . S
C41 C46 1.491 . S
H42 C43 0.950 1_554 S
C43 C40 1.390 . S
C43 H42 0.950 1_556 S
C43 C44 1.378 . S
C44 C43 1.378 . S
C44 C45 1.409 . S
C45 C41 1.387 . S
C45 C44 1.409 . S
C45 H47 0.951 . S
C46 C41 1.491 . S
C46 C48 1.382 . S
C46 C50 1.404 . S
H47 C45 0.951 . S
C48 C46 1.382 . S
C48 C49 1.390 . S
C48 H53 0.949 . S
C49 C48 1.390 . S
C49 C54 1.399 . S
C50 C46 1.404 . S
C50 H51 0.950 . S
C50 C52 1.375 . S
H51 C50 0.950 . S
C52 C50 1.375 . S
C52 C54 1.382 . S
C52 H56 0.950 . S
H53 C48 0.949 . S
C54 C49 1.399 . S
C54 C52 1.382 . S
C54 H55 0.952 . S
H55 C54 0.952 . S
H56 C52 0.950 . S
H57 C58 0.949 . S
C58 H57 0.949 . S
C58 C59 1.395 . S
C58 C60 1.391 . S
C59 C58 1.395 . S
C59 C62 1.390 . S
C60 C58 1.391 . S
C60 C64 1.387 . S
C60 C65 1.491 . S
H61 C62 0.950 . S
C62 C59 1.390 . S
C62 H61 0.950 . S
C62 C63 1.378 . S
C63 C62 1.378 . S
C63 C64 1.409 . S
C64 C60 1.387 . S
C64 C63 1.409 . S
C64 H66 0.951 . S
C65 C60 1.491 . S
C65 C67 1.382 . S
C65 C69 1.404 . S
H66 C64 0.951 . S
C67 C65 1.382 . S
C67 C68 1.390 . S
C67 H72 0.949 . S
C68 C67 1.390 . S
C68 C73 1.399 . S
C69 C65 1.404 . S
C69 H70 0.950 . S
C69 C71 1.375 . S
H70 C69 0.950 . S
C71 C69 1.375 . S
C71 C73 1.382 . S
C71 H75 0.950 . S
H72 C67 0.949 . S
C73 C68 1.399 . S
C73 C71 1.382 . S
C73 H74 0.952 . S
H74 C73 0.952 . S
H75 C71 0.950 . S
H76 C77 0.949 . S
C77 H76 0.949 . S
C77 C78 1.395 . S
C77 C79 1.391 . S
C78 C77 1.395 . S
C78 C81 1.390 . S
C79 C77 1.391 . S
C79 C83 1.387 . S
C79 C84 1.491 . S
H80 C81 0.950 . S
C81 C78 1.390 . S
C81 H80 0.950 . S
C81 C82 1.378 . S
C82 C81 1.378 . S
C82 C83 1.409 . S
C83 C79 1.387 . S
C83 C82 1.409 . S
C83 H85 0.951 . S
C84 C79 1.491 . S
C84 C86 1.382 . S
C84 C88 1.404 . S
H85 C83 0.951 . S
C86 C84 1.382 . S
C86 C87 1.390 . S
C86 H91 0.949 . S
C87 C86 1.390 . S
C87 C92 1.399 . S
C88 C84 1.404 . S
C88 H89 0.950 . S
C88 C90 1.375 . S
H89 C88 0.950 . S
C90 C88 1.375 . S
C90 C92 1.382 . S
C90 H94 0.950 . S
H91 C86 0.949 . S
C92 C87 1.399 . S
C92 C90 1.382 . S
C92 H93 0.952 . S
H93 C92 0.952 . S
H94 C90 0.950 . S
H95 C96 0.949 . S
C96 H95 0.949 . S
C96 C97 1.395 . S
C96 C98 1.391 . S
C97 C96 1.395 . S
C97 C100 1.390 . S
C98 C96 1.391 . S
C98 C102 1.387 . S
C98 C103 1.491 . S
H99 C100 0.950 . S
C100 C97 1.390 . S
C100 H99 0.950 . S
C100 C101 1.378 . S
C101 C100 1.378 . S
C101 C102 1.409 . S
C102 C98 1.387 . S
C102 C101 1.409 . S
C102 H104 0.951 . S
C103 C98 1.491 . S
C103 C105 1.382 . S
C103 C107 1.404 . S
H104 C102 0.951 . S
C105 C103 1.382 . S
C105 C106 1.390 . S
C105 H110 0.949 . S
C106 C105 1.390 . S
C106 C111 1.399 . S
C107 C103 1.404 . S
C107 H108 0.950 . S
C107 C109 1.375 . S
H108 C107 0.950 . S
C109 C107 1.375 . S
C109 C111 1.382 . S
C109 H113 0.950 . S
H110 C105 0.949 . S
C111 C106 1.399 . S
C111 C109 1.382 . S
C111 H112 0.952 . S
H112 C111 0.952 . S
H113 C109 0.950 . S
H114 C115 0.949 . S
C115 H114 0.949 . S
C115 C116 1.395 . S
C115 C117 1.391 . S
C116 C115 1.395 . S
C116 C119 1.390 . S
C117 C115 1.391 . S
C117 C121 1.387 . S
C117 C122 1.491 . S
H118 C119 0.950 . S
C119 C116 1.390 . S
C119 H118 0.950 . S
C119 C120 1.378 . S
C120 C119 1.378 . S
C120 C121 1.409 . S
C121 C117 1.387 . S
C121 C120 1.409 . S
C121 H123 0.951 . S
C122 C117 1.491 . S
C122 C124 1.382 . S
C122 C126 1.404 . S
H123 C121 0.951 . S
C124 C122 1.382 . S
C124 C125 1.390 . S
C124 H129 0.949 . S
C125 C124 1.390 . S
C125 C130 1.399 . S
C126 C122 1.404 . S
C126 H127 0.950 . S
C126 C128 1.375 . S
H127 C126 0.950 . S
C128 C126 1.375 . S
C128 C130 1.382 . S
C128 H132 0.950 . S
H129 C124 0.949 . S
C130 C125 1.399 . S
C130 C128 1.382 . S
C130 H131 0.952 . S
H131 C130 0.952 . S
H132 C128 0.950 . S
H133 C134 0.949 . S
C134 H133 0.949 . S
C134 C135 1.395 . S
C134 C136 1.391 . S
C135 C134 1.395 . S
C135 C138 1.390 . S
C136 C134 1.391 . S
C136 C140 1.387 . S
C136 C141 1.491 . S
H137 C138 0.950 . S
C138 C135 1.390 . S
C138 H137 0.950 . S
C138 C139 1.378 . S
C139 C138 1.378 . S
C139 C140 1.409 . S
C140 C136 1.387 . S
C140 C139 1.409 . S
C140 H142 0.951 . S
C141 C136 1.491 . S
C141 C143 1.382 . S
C141 C145 1.404 . S
H142 C140 0.951 . S
C143 C141 1.382 . S
C143 C144 1.390 . S
C143 H148 0.949 . S
C144 C143 1.390 . S
C144 C149 1.399 . S
C145 C141 1.404 . S
C145 H146 0.950 . S
C145 C147 1.375 . S
H146 C145 0.950 . S
C147 C145 1.375 . S
C147 C149 1.382 . S
C147 H151 0.950 . S
H148 C143 0.949 . S
C149 C144 1.399 . S
C149 C147 1.382 . S
C149 H150 0.952 . S
H150 C149 0.952 . S
H151 C147 0.950 . S
C152 O168 1.251 . S
C152 O170 1.254 . S
N153 C154 1.333 . S
N153 C158 1.307 . S
N153 Zn159 2.020 . S
C154 N153 1.333 . S
C154 C155 1.379 . S
C154 H172 0.952 . S
C155 C154 1.379 . S
C155 C156 1.390 . S
C155 H182 0.949 . S
C156 C155 1.390 . S
C156 C157 1.357 . S
C157 C156 1.357 . S
C157 C158 1.370 . S
C157 H183 0.950 . S
C158 N153 1.307 . S
C158 C157 1.370 . S
C158 H176 0.948 1_455 S
Zn159 N153 2.020 . S
Zn159 O168 2.039 . S
Zn159 O174 2.034 . S
Zn159 O178 2.025 1_455 S
Zn159 O180 2.024 1_455 S
C160 O179 1.246 . S
C160 O180 1.249 . S
N161 C162 1.307 . S
N161 C163 1.333 . S
N161 Zn167 2.020 1_565 S
C162 N161 1.307 . S
C162 C166 1.370 . S
C162 H173 0.948 1_655 S
C163 N161 1.333 . S
C163 C164 1.379 . S
C163 H171 0.952 . S
C164 C163 1.379 . S
C164 C165 1.390 . S
C164 H184 0.949 . S
C165 C164 1.390 . S
C165 C166 1.357 . S
C166 C162 1.370 . S
C166 C165 1.357 . S
C166 H185 0.950 . S
Zn167 N161 2.020 1_545 S
Zn167 O170 2.025 1_655 S
Zn167 O175 2.024 1_655 S
Zn167 O177 2.039 . S
Zn167 O179 2.034 . S
O168 C152 1.251 . S
O168 Zn159 2.039 . S
C169 O174 1.246 . S
C169 O175 1.249 . S
O170 C152 1.254 . S
O170 Zn167 2.025 1_455 S
H171 C163 0.952 . S
H172 C154 0.952 . S
H173 C162 0.948 1_455 S
O174 Zn159 2.034 . S
O174 C169 1.246 . S
O175 Zn167 2.024 1_455 S
O175 C169 1.249 . S
H176 C158 0.948 1_655 S
O177 Zn167 2.039 . S
O177 C181 1.251 . S
O178 Zn159 2.025 1_655 S
O178 C181 1.254 . S
O179 C160 1.246 . S
O179 Zn167 2.034 . S
O180 Zn159 2.024 1_655 S
O180 C160 1.249 . S
C181 O177 1.251 . S
C181 O178 1.254 . S
H182 C155 0.949 . S
H183 C157 0.950 . S
H184 C164 0.949 . S
H185 C166 0.950 . S
C186 O202 1.251 . S
C186 O204 1.259 . S
N187 C188 1.333 . S
N187 C192 1.307 . S
N187 Zn193 2.020 . S
C188 N187 1.333 . S
C188 C189 1.379 . S
C188 H206 0.952 . S
C189 C188 1.379 . S
C189 C190 1.390 . S
C189 H216 0.949 . S
C190 C189 1.390 . S
C190 C191 1.357 . S
C191 C190 1.357 . S
C191 C192 1.370 . S
C191 H217 0.950 1_554 S
C192 N187 1.307 . S
C192 C191 1.370 . S
C192 H210 0.948 . S
Zn193 N187 2.020 . S
Zn193 O202 2.039 . S
Zn193 O208 2.034 . S
Zn193 O212 2.025 . S
Zn193 O214 2.024 1_554 S
C194 O213 1.246 1_556 S
C194 O214 1.249 . S
N195 C196 1.307 . S
N195 C197 1.333 . S
N195 Zn201 2.020 1_565 S
C196 N195 1.307 . S
C196 C200 1.370 . S
C196 H207 0.948 . S
C197 N195 1.333 . S
C197 C198 1.379 . S
C197 H205 0.952 . S
C198 C197 1.379 . S
C198 C199 1.390 . S
C198 H218 0.949 . S
C199 C198 1.390 . S
C199 C200 1.357 . S
C200 C196 1.370 . S
C200 C199 1.357 . S
C200 H219 0.950 . S
Zn201 N195 2.020 1_545 S
Zn201 O204 2.027 . S
Zn201 O209 2.024 . S
Zn201 O211 2.039 . S
Zn201 O213 2.034 . S
O202 C186 1.251 . S
O202 Zn193 2.039 . S
C203 O208 1.246 . S
C203 O209 1.249 . S
O204 C186 1.259 . S
O204 Zn201 2.027 . S
H205 C197 0.952 . S
H206 C188 0.952 . S
H207 C196 0.948 . S
O208 Zn193 2.034 . S
O208 C203 1.246 . S
O209 Zn201 2.024 . S
O209 C203 1.249 . S
H210 C192 0.948 . S
O211 Zn201 2.039 . S
O211 C215 1.251 . S
O212 Zn193 2.025 . S
O212 C215 1.254 . S
O213 C194 1.246 1_554 S
O213 Zn201 2.034 . S
O214 Zn193 2.024 1_556 S
O214 C194 1.249 . S
C215 O211 1.251 . S
C215 O212 1.254 . S
H216 C189 0.949 . S
H217 C191 0.950 1_556 S
H218 C198 0.949 . S
H219 C200 0.950 . S
C220 O236 1.251 . S
C220 O238 1.254 . S
N221 C222 1.333 . S
N221 C226 1.307 . S
N221 Zn227 2.020 . S
C222 N221 1.333 . S
C222 C223 1.379 . S
C222 H240 0.952 . S
C223 C222 1.379 . S
C223 C224 1.390 . S
C223 H250 0.949 . S
C224 C223 1.390 . S
C224 C225 1.357 . S
C225 C224 1.357 . S
C225 C226 1.370 . S
C225 H251 0.950 . S
C226 N221 1.307 . S
C226 C225 1.370 . S
C226 H244 0.948 . S
Zn227 N221 2.020 . S
Zn227 O236 2.039 . S
Zn227 O242 2.034 . S
Zn227 O246 2.025 . S
Zn227 O248 2.024 . S
C228 O247 1.246 . S
C228 O248 1.249 . S
N229 C230 1.307 . S
N229 C231 1.333 . S
N229 Zn235 2.020 . S
C230 N229 1.307 . S
C230 C234 1.370 . S
C230 H241 0.948 . S
C231 N229 1.333 . S
C231 C232 1.379 . S
C231 H239 0.952 . S
C232 C231 1.379 . S
C232 C233 1.390 . S
C232 H252 0.949 . S
C233 C232 1.390 . S
C233 C234 1.357 . S
C234 C230 1.370 . S
C234 C233 1.357 . S
C234 H253 0.950 . S
Zn235 N229 2.020 . S
Zn235 O238 2.025 . S
Zn235 O243 2.024 . S
Zn235 O245 2.039 . S
Zn235 O247 2.034 . S
O236 C220 1.251 . S
O236 Zn227 2.039 . S
C237 O242 1.246 . S
C237 O243 1.249 . S
O238 C220 1.254 . S
O238 Zn235 2.025 . S
H239 C231 0.952 . S
H240 C222 0.952 . S
H241 C230 0.948 . S
O242 Zn227 2.034 . S
O242 C237 1.246 . S
O243 Zn235 2.024 . S
O243 C237 1.249 . S
H244 C226 0.948 . S
O245 Zn235 2.039 . S
O245 C249 1.251 . S
O246 Zn227 2.025 . S
O246 C249 1.254 . S
O247 C228 1.246 . S
O247 Zn235 2.034 . S
O248 Zn227 2.024 . S
O248 C228 1.249 . S
C249 O245 1.251 . S
C249 O246 1.254 . S
H250 C223 0.949 . S
H251 C225 0.950 . S
H252 C232 0.949 . S
H253 C234 0.950 . S
C254 O270 1.251 1_556 S
C254 O272 1.254 1_655 S
N255 C256 1.333 . S
N255 C260 1.307 . S
N255 Zn261 2.020 . S
C256 N255 1.333 . S
C256 C257 1.379 . S
C256 H274 0.952 . S
C257 C256 1.379 . S
C257 C258 1.390 . S
C257 H284 0.949 . S
C258 C257 1.390 . S
C258 C259 1.357 . S
C259 C258 1.357 . S
C259 C260 1.370 . S
C259 H285 0.950 . S
C260 N255 1.307 . S
C260 C259 1.370 . S
C260 H278 0.948 . S
Zn261 N255 2.020 . S
Zn261 O270 2.039 . S
Zn261 O276 2.034 1_655 S
Zn261 O280 2.025 1_655 S
Zn261 O282 2.024 . S
C262 O281 1.246 . S
C262 O282 1.249 1_556 S
N263 C264 1.307 . S
N263 C265 1.333 . S
N263 Zn269 2.020 . S
C264 N263 1.307 . S
C264 C268 1.370 . S
C264 H275 0.948 . S
C265 N263 1.333 . S
C265 C266 1.379 . S
C265 H273 0.952 . S
C266 C265 1.379 . S
C266 C267 1.390 . S
C266 H286 0.949 . S
C267 C266 1.390 . S
C267 C268 1.357 . S
C268 C264 1.370 . S
C268 C267 1.357 . S
C268 H287 0.950 . S
Zn269 N263 2.020 . S
Zn269 O272 2.025 . S
Zn269 O277 2.024 1_556 S
Zn269 O279 2.039 1_556 S
Zn269 O281 2.034 1_455 S
O270 C254 1.251 1_554 S
O270 Zn261 2.039 . S
C271 O276 1.246 . S
C271 O277 1.249 . S
O272 C254 1.254 1_455 S
O272 Zn269 2.025 . S
H273 C265 0.952 . S
H274 C256 0.952 . S
H275 C264 0.948 . S
O276 Zn261 2.034 1_455 S
O276 C271 1.246 . S
O277 Zn269 2.024 1_554 S
O277 C271 1.249 . S
H278 C260 0.948 . S
O279 Zn269 2.039 1_554 S
O279 C283 1.251 . S
O280 Zn261 2.025 1_455 S
O280 C283 1.254 . S
O281 C262 1.246 . S
O281 Zn269 2.034 1_655 S
O282 Zn261 2.024 . S
O282 C262 1.249 1_554 S
C283 O279 1.251 . S
C283 O280 1.254 . S
H284 C257 0.949 . S
H285 C259 0.950 . S
H286 C266 0.949 . S
H287 C268 0.950 . S
H288 C294 0.930 . S
H289 C297 0.930 . S
H290 C298 0.930 . S
H291 C299 0.930 . S
H292 C302 0.930 . S
H293 C303 0.930 . S
C294 H288 0.930 . S
C294 C295 1.355 . S
C294 C296 1.415 . S
C295 C294 1.355 . S
C295 C297 1.419 . S
C296 C294 1.415 . S
C296 C301 1.425 . S
C296 C303 1.409 . S
C297 H289 0.930 . S
C297 C295 1.419 . S
C297 C298 1.362 . S
C298 H290 0.930 . S
C298 C297 1.362 . S
C298 C301 1.409 . S
C299 H291 0.930 . S
C299 C300 1.355 . S
C299 C301 1.415 . S
C300 C299 1.355 . S
C300 C302 1.419 . S
C301 C296 1.425 . S
C301 C298 1.409 . S
C301 C299 1.415 . S
C302 H292 0.930 . S
C302 C300 1.419 . S
C302 C303 1.362 . S
C303 H293 0.930 . S
C303 C296 1.409 . S
C303 C302 1.362 . S
H304 C310 0.930 1_545 S
H305 C313 0.930 . S
H306 C314 0.930 . S
H307 C315 0.930 . S
H308 C318 0.930 . S
H309 C319 0.930 . S
C310 H304 0.930 1_565 S
C310 C311 1.355 . S
C310 C312 1.413 1_565 S
C311 C310 1.355 . S
C311 C313 1.419 . S
C312 C310 1.413 1_545 S
C312 C317 1.409 1_545 S
C312 C319 1.426 . S
C313 H305 0.930 . S
C313 C311 1.419 . S
C313 C314 1.362 . S
C314 H306 0.930 . S
C314 C313 1.362 . S
C314 C317 1.409 . S
C315 H307 0.930 . S
C315 C316 1.355 1_565 S
C315 C317 1.415 . S
C316 C315 1.355 1_545 S
C316 C318 1.419 . S
C317 C312 1.409 1_565 S
C317 C314 1.409 . S
C317 C315 1.415 . S
C318 H308 0.930 . S
C318 C316 1.419 . S
C318 C319 1.362 . S
C319 H309 0.930 . S
C319 C312 1.426 . S
C319 C318 1.362 . S
H320 C326 0.930 . S
H321 C329 0.930 . S
H322 C330 0.930 . S
H323 C331 0.930 . S
H324 C334 0.930 . S
H325 C335 0.930 . S
C326 H320 0.930 . S
C326 C327 1.355 . S
C326 C328 1.415 . S
C327 C326 1.355 . S
C327 C329 1.419 . S
C328 C326 1.415 . S
C328 C333 1.425 . S
C328 C335 1.409 . S
C329 H321 0.930 . S
C329 C327 1.419 . S
C329 C330 1.362 . S
C330 H322 0.930 . S
C330 C329 1.362 . S
C330 C333 1.409 . S
C331 H323 0.930 . S
C331 C332 1.355 . S
C331 C333 1.415 . S
C332 C331 1.355 . S
C332 C334 1.419 . S
C333 C328 1.425 . S
C333 C330 1.409 . S
C333 C331 1.415 . S
C334 H324 0.930 . S
C334 C332 1.419 . S
C334 C335 1.362 . S
C335 H325 0.930 . S
C335 C328 1.409 . S
C335 C334 1.362 . S
H336 C342 0.930 . S
H337 C345 0.930 . S
H338 C346 0.930 . S
H339 C347 0.930 . S
H340 C350 0.930 . S
H341 C351 0.930 . S
C342 H336 0.930 . S
C342 C343 1.355 . S
C342 C344 1.415 . S
C343 C342 1.355 . S
C343 C345 1.419 . S
C344 C342 1.415 . S
C344 C349 1.425 . S
C344 C351 1.409 . S
C345 H337 0.930 . S
C345 C343 1.419 . S
C345 C346 1.362 . S
C346 H338 0.930 . S
C346 C345 1.362 . S
C346 C349 1.409 . S
C347 H339 0.930 . S
C347 C348 1.355 . S
C347 C349 1.415 . S
C348 C347 1.355 . S
C348 C350 1.419 . S
C349 C344 1.425 . S
C349 C346 1.409 . S
C349 C347 1.415 . S
C350 H340 0.930 . S
C350 C348 1.419 . S
C350 C351 1.362 . S
C351 H341 0.930 . S
C351 C344 1.409 . S
C351 C350 1.362 . S
H352 C358 0.930 . S
H353 C361 0.930 . S
H354 C362 0.930 . S
H355 C363 0.930 . S
H356 C366 0.930 . S
H357 C367 0.930 . S
C358 H352 0.930 . S
C358 C359 1.355 . S
C358 C360 1.415 . S
C359 C358 1.355 . S
C359 C361 1.419 . S
C360 C358 1.415 . S
C360 C365 1.425 . S
C360 C367 1.409 . S
C361 H353 0.930 . S
C361 C359 1.419 . S
C361 C362 1.362 . S
C362 H354 0.930 . S
C362 C361 1.362 . S
C362 C365 1.409 . S
C363 H355 0.930 . S
C363 C364 1.355 . S
C363 C365 1.415 . S
C364 C363 1.355 . S
C364 C366 1.419 . S
C365 C360 1.425 . S
C365 C362 1.409 . S
C365 C363 1.415 . S
C366 H356 0.930 . S
C366 C364 1.419 . S
C366 C367 1.362 . S
C367 H357 0.930 . S
C367 C360 1.409 . S
C367 C366 1.362 . S
H368 C374 0.930 . S
H369 C377 0.930 . S
H370 C378 0.930 . S
H371 C379 0.930 . S
H372 C382 0.930 . S
H373 C383 0.930 . S
C374 H368 0.930 . S
C374 C375 1.355 1_545 S
C374 C376 1.415 . S
C375 C374 1.355 1_565 S
C375 C377 1.419 . S
C376 C374 1.415 . S
C376 C381 1.425 . S
C376 C383 1.409 . S
C377 H369 0.930 . S
C377 C375 1.419 . S
C377 C378 1.362 . S
C378 H370 0.930 . S
C378 C377 1.362 . S
C378 C381 1.409 1_565 S
C379 H371 0.930 . S
C379 C380 1.355 . S
C379 C381 1.415 . S
C380 C379 1.355 . S
C380 C382 1.419 . S
C381 C376 1.425 . S
C381 C378 1.409 1_545 S
C381 C379 1.415 . S
C382 H372 0.930 . S
C382 C380 1.419 . S
C382 C383 1.362 . S
C383 H373 0.930 . S
C383 C376 1.409 . S
C383 C382 1.362 . S
H384 C390 0.930 . S
H385 C393 0.930 . S
H386 C394 0.930 . S
H387 C395 0.930 . S
H388 C398 0.930 . S
H389 C399 0.930 . S
C390 H384 0.930 . S
C390 C391 1.355 1_554 S
C390 C392 1.413 1_554 S
C391 C390 1.355 1_556 S
C391 C393 1.419 . S
C392 C390 1.413 1_556 S
C392 C397 1.437 . S
C392 C399 1.400 1_556 S
C393 H385 0.930 . S
C393 C391 1.419 . S
C393 C394 1.362 . S
C394 H386 0.930 . S
C394 C393 1.362 . S
C394 C397 1.409 . S
C395 H387 0.930 . S
C395 C396 1.355 . S
C395 C397 1.415 . S
C396 C395 1.355 . S
C396 C398 1.419 1_556 S
C397 C392 1.437 . S
C397 C394 1.409 . S
C397 C395 1.415 . S
C398 H388 0.930 . S
C398 C396 1.419 1_554 S
C398 C399 1.362 . S
C399 H389 0.930 . S
C399 C392 1.400 1_554 S
C399 C398 1.362 . S
H400 C406 0.930 . S
H401 C409 0.930 . S
H402 C410 0.930 . S
H403 C411 0.930 . S
H404 C414 0.930 . S
H405 C415 0.930 . S
C406 H400 0.930 . S
C406 C407 1.355 . S
C406 C408 1.415 . S
C407 C406 1.355 . S
C407 C409 1.419 . S
C408 C406 1.415 . S
C408 C413 1.425 . S
C408 C415 1.409 . S
C409 H401 0.930 . S
C409 C407 1.419 . S
C409 C410 1.362 . S
C410 H402 0.930 . S
C410 C409 1.362 . S
C410 C413 1.409 . S
C411 H403 0.930 . S
C411 C412 1.355 . S
C411 C413 1.415 . S
C412 C411 1.355 . S
C412 C414 1.419 . S
C413 C408 1.425 . S
C413 C410 1.409 . S
C413 C411 1.415 . S
C414 H404 0.930 . S
C414 C412 1.419 . S
C414 C415 1.362 . S
C415 H405 0.930 . S
C415 C408 1.409 . S
C415 C414 1.362 . S
H416 C422 0.930 . S
H417 C425 0.930 . S
H418 C426 0.930 1_655 S
H419 C427 0.930 1_655 S
H420 C430 0.930 . S
H421 C431 0.930 . S
C422 H416 0.930 . S
C422 C423 1.355 . S
C422 C424 1.415 . S
C423 C422 1.355 . S
C423 C425 1.419 . S
C424 C422 1.415 . S
C424 C429 1.425 . S
C424 C431 1.409 . S
C425 H417 0.930 . S
C425 C423 1.419 . S
C425 C426 1.362 . S
C426 H418 0.930 1_455 S
C426 C425 1.362 . S
C426 C429 1.409 . S
C427 H419 0.930 1_455 S
C427 C428 1.355 . S
C427 C429 1.415 . S
C428 C427 1.355 . S
C428 C430 1.419 . S
C429 C424 1.425 . S
C429 C426 1.409 . S
C429 C427 1.415 . S
C430 H420 0.930 . S
C430 C428 1.419 . S
C430 C431 1.362 . S
C431 H421 0.930 . S
C431 C424 1.409 . S
C431 C430 1.362 . S
H432 C438 0.931 . S
H433 C441 0.930 . S
H434 C442 0.930 . S
H435 C443 0.930 . S
H436 C446 0.930 . S
H437 C447 0.930 . S
C438 H432 0.931 . S
C438 C439 1.353 1_554 S
C438 C440 1.415 . S
C439 C438 1.353 1_556 S
C439 C441 1.419 . S
C440 C438 1.415 . S
C440 C445 1.425 1_554 S
C440 C447 1.409 . S
C441 H433 0.930 . S
C441 C439 1.419 . S
C441 C442 1.362 . S
C442 H434 0.930 . S
C442 C441 1.362 . S
C442 C445 1.409 . S
C443 H435 0.930 . S
C443 C444 1.355 1_556 S
C443 C445 1.415 . S
C444 C443 1.355 1_554 S
C444 C446 1.419 . S
C445 C440 1.425 1_556 S
C445 C442 1.409 . S
C445 C443 1.415 . S
C446 H436 0.930 . S
C446 C444 1.419 . S
C446 C447 1.362 . S
C447 H437 0.930 . S
C447 C440 1.409 . S
C447 C446 1.362 . S
H448 C454 0.930 . S
H449 C457 0.930 . S
H450 C458 0.930 . S
H451 C459 0.930 . S
H452 C462 0.930 . S
H453 C463 0.930 . S
C454 H448 0.930 . S
C454 C455 1.355 . S
C454 C456 1.415 . S
C455 C454 1.355 . S
C455 C457 1.419 . S
C456 C454 1.415 . S
C456 C461 1.425 . S
C456 C463 1.409 . S
C457 H449 0.930 . S
C457 C455 1.419 . S
C457 C458 1.362 . S
C458 H450 0.930 . S
C458 C457 1.362 . S
C458 C461 1.409 . S
C459 H451 0.930 . S
C459 C460 1.355 . S
C459 C461 1.415 . S
C460 C459 1.355 . S
C460 C462 1.419 . S
C461 C456 1.425 . S
C461 C458 1.409 . S
C461 C459 1.415 . S
C462 H452 0.930 . S
C462 C460 1.419 . S
C462 C463 1.362 . S
C463 H453 0.930 . S
C463 C456 1.409 . S
C463 C462 1.362 . S
H464 C470 0.930 . S
H465 C473 0.930 . S
H466 C474 0.930 . S
H467 C475 0.930 . S
H468 C478 0.930 . S
H469 C479 0.930 . S
C470 H464 0.930 . S
C470 C471 1.355 . S
C470 C472 1.415 . S
C471 C470 1.355 . S
C471 C473 1.419 . S
C472 C470 1.415 . S
C472 C477 1.425 . S
C472 C479 1.409 . S
C473 H465 0.930 . S
C473 C471 1.419 . S
C473 C474 1.362 . S
C474 H466 0.930 . S
C474 C473 1.362 . S
C474 C477 1.409 . S
C475 H467 0.930 . S
C475 C476 1.355 . S
C475 C477 1.415 . S
C476 C475 1.355 . S
C476 C478 1.419 . S
C477 C472 1.425 . S
C477 C474 1.409 . S
C477 C475 1.415 . S
C478 H468 0.930 . S
C478 C476 1.419 . S
C478 C479 1.362 . S
C479 H469 0.930 . S
C479 C472 1.409 . S
C479 C478 1.362 . S
H480 C486 0.930 . S
H481 C489 0.930 . S
H482 C490 0.930 . S
H483 C491 0.930 . S
H484 C494 0.930 . S
H485 C495 0.930 . S
C486 H480 0.930 . S
C486 C487 1.355 . S
C486 C488 1.415 . S
C487 C486 1.355 . S
C487 C489 1.419 1_565 S
C488 C486 1.415 . S
C488 C493 1.425 1_565 S
C488 C495 1.409 . S
C489 H481 0.930 . S
C489 C487 1.419 1_545 S
C489 C490 1.362 . S
C490 H482 0.930 . S
C490 C489 1.362 . S
C490 C493 1.409 . S
C491 H483 0.930 . S
C491 C492 1.355 . S
C491 C493 1.415 . S
C492 C491 1.355 . S
C492 C494 1.419 1_545 S
C493 C488 1.425 1_545 S
C493 C490 1.409 . S
C493 C491 1.415 . S
C494 H484 0.930 . S
C494 C492 1.419 1_565 S
C494 C495 1.362 . S
C495 H485 0.930 . S
C495 C488 1.409 . S
C495 C494 1.362 . S
H496 C502 0.930 . S
H497 C505 0.930 . S
H498 C506 0.930 . S
H499 C507 0.930 . S
H500 C510 0.930 . S
H501 C511 0.930 . S
C502 H496 0.930 . S
C502 C503 1.355 . S
C502 C504 1.415 . S
C503 C502 1.355 . S
C503 C505 1.419 . S
C504 C502 1.415 . S
C504 C509 1.425 . S
C504 C511 1.409 . S
C505 H497 0.930 . S
C505 C503 1.419 . S
C505 C506 1.362 . S
C506 H498 0.930 . S
C506 C505 1.362 . S
C506 C509 1.409 . S
C507 H499 0.930 . S
C507 C508 1.355 . S
C507 C509 1.415 . S
C508 C507 1.355 . S
C508 C510 1.419 . S
C509 C504 1.425 . S
C509 C506 1.409 . S
C509 C507 1.415 . S
C510 H500 0.930 . S
C510 C508 1.419 . S
C510 C511 1.362 . S
C511 H501 0.930 . S
C511 C504 1.409 . S
C511 C510 1.362 . S
H512 C518 0.930 . S
H513 C521 0.930 . S
H514 C522 0.930 . S
H515 C523 0.930 . S
H516 C526 0.930 . S
H517 C527 0.930 . S
C518 H512 0.930 . S
C518 C519 1.355 . S
C518 C520 1.415 . S
C519 C518 1.355 . S
C519 C521 1.419 . S
C520 C518 1.415 . S
C520 C525 1.425 . S
C520 C527 1.409 . S
C521 H513 0.930 . S
C521 C519 1.419 . S
C521 C522 1.362 . S
C522 H514 0.930 . S
C522 C521 1.362 . S
C522 C525 1.409 . S
C523 H515 0.930 . S
C523 C524 1.355 . S
C523 C525 1.415 . S
C524 C523 1.355 . S
C524 C526 1.419 . S
C525 C520 1.425 . S
C525 C522 1.409 . S
C525 C523 1.415 . S
C526 H516 0.930 . S
C526 C524 1.419 . S
C526 C527 1.362 . S
C527 H517 0.930 . S
C527 C520 1.409 . S
C527 C526 1.362 . S
H528 C534 0.930 . S
H529 C537 0.930 . S
H530 C538 0.930 . S
H531 C539 0.930 . S
H532 C542 0.930 . S
H533 C543 0.930 . S
C534 H528 0.930 . S
C534 C535 1.355 . S
C534 C536 1.415 . S
C535 C534 1.355 . S
C535 C537 1.419 . S
C536 C534 1.415 . S
C536 C541 1.425 . S
C536 C543 1.409 . S
C537 H529 0.930 . S
C537 C535 1.419 . S
C537 C538 1.362 . S
C538 H530 0.930 . S
C538 C537 1.362 . S
C538 C541 1.409 . S
C539 H531 0.930 . S
C539 C540 1.355 . S
C539 C541 1.415 . S
C540 C539 1.355 . S
C540 C542 1.419 . S
C541 C536 1.425 . S
C541 C538 1.409 . S
C541 C539 1.415 . S
C542 H532 0.930 . S
C542 C540 1.419 . S
C542 C543 1.362 . S
C543 H533 0.930 . S
C543 C536 1.409 . S
C543 C542 1.362 . S
H544 C550 0.930 . S
H545 C553 0.930 . S
H546 C554 0.930 1_554 S
H547 C555 0.930 . S
H548 C558 0.930 . S
H549 C559 0.930 . S
C550 H544 0.930 . S
C550 C551 1.355 1_545 S
C550 C552 1.415 . S
C551 C550 1.355 1_565 S
C551 C553 1.419 . S
C552 C550 1.415 . S
C552 C557 1.425 1_545 S
C552 C559 1.409 . S
C553 H545 0.930 . S
C553 C551 1.419 . S
C553 C554 1.362 . S
C554 H546 0.930 1_556 S
C554 C553 1.362 . S
C554 C557 1.409 . S
C555 H547 0.930 . S
C555 C556 1.355 1_565 S
C555 C557 1.415 1_554 S
C556 C555 1.355 1_545 S
C556 C558 1.419 . S
C557 C552 1.425 1_565 S
C557 C554 1.409 . S
C557 C555 1.415 1_556 S
C558 H548 0.930 . S
C558 C556 1.419 . S
C558 C559 1.362 1_554 S
C559 H549 0.930 . S
C559 C552 1.409 . S
C559 C558 1.362 1_556 S
H560 C566 0.930 . S
H561 C569 0.930 . S
H562 C570 0.930 . S
H563 C571 0.930 . S
H564 C574 0.930 . S
H565 C575 0.930 . S
C566 H560 0.930 . S
C566 C567 1.355 . S
C566 C568 1.415 . S
C567 C566 1.355 . S
C567 C569 1.419 . S
C568 C566 1.415 . S
C568 C573 1.425 . S
C568 C575 1.409 . S
C569 H561 0.930 . S
C569 C567 1.419 . S
C569 C570 1.362 . S
C570 H562 0.930 . S
C570 C569 1.362 . S
C570 C573 1.409 . S
C571 H563 0.930 . S
C571 C572 1.355 . S
C571 C573 1.415 . S
C572 C571 1.355 . S
C572 C574 1.419 . S
C573 C568 1.425 . S
C573 C570 1.409 . S
C573 C571 1.415 . S
C574 H564 0.930 . S
C574 C572 1.419 . S
C574 C575 1.362 . S
C575 H565 0.930 . S
C575 C568 1.409 . S
C575 C574 1.362 . S
H576 C582 0.930 . S
H577 C585 0.930 . S
H578 C586 0.930 . S
H579 C587 0.930 . S
H580 C590 0.930 1_556 S
H581 C591 0.930 . S
C582 H576 0.930 . S
C582 C583 1.355 . S
C582 C584 1.415 . S
C583 C582 1.355 . S
C583 C585 1.419 . S
C584 C582 1.415 . S
C584 C589 1.425 . S
C584 C591 1.409 . S
C585 H577 0.930 . S
C585 C583 1.419 . S
C585 C586 1.362 . S
C586 H578 0.930 . S
C586 C585 1.362 . S
C586 C589 1.409 . S
C587 H579 0.930 . S
C587 C588 1.355 . S
C587 C589 1.415 . S
C588 C587 1.355 . S
C588 C590 1.419 . S
C589 C584 1.425 . S
C589 C586 1.409 . S
C589 C587 1.415 . S
C590 H580 0.930 1_554 S
C590 C588 1.419 . S
C590 C591 1.362 . S
C591 H581 0.930 . S
C591 C584 1.409 . S
C591 C590 1.362 . S
H592 C598 0.930 . S
H593 C601 0.930 . S
H594 C602 0.930 . S
H595 C603 0.930 . S
H596 C606 0.930 . S
H597 C607 0.930 . S
C598 H592 0.930 . S
C598 C599 1.355 . S
C598 C600 1.415 . S
C599 C598 1.355 . S
C599 C601 1.419 . S
C600 C598 1.415 . S
C600 C605 1.425 . S
C600 C607 1.409 . S
C601 H593 0.930 . S
C601 C599 1.419 . S
C601 C602 1.362 . S
C602 H594 0.930 . S
C602 C601 1.362 . S
C602 C605 1.409 . S
C603 H595 0.930 . S
C603 C604 1.355 . S
C603 C605 1.415 . S
C604 C603 1.355 . S
C604 C606 1.419 . S
C605 C600 1.425 . S
C605 C602 1.409 . S
C605 C603 1.415 . S
C606 H596 0.930 . S
C606 C604 1.419 . S
C606 C607 1.362 . S
C607 H597 0.930 . S
C607 C600 1.409 . S
C607 C606 1.362 . S
H608 C614 0.930 . S
H609 C617 0.930 . S
H610 C618 0.930 . S
H611 C619 0.930 . S
H612 C622 0.930 . S
H613 C623 0.930 1_554 S
C614 H608 0.930 . S
C614 C615 1.355 . S
C614 C616 1.415 . S
C615 C614 1.355 . S
C615 C617 1.419 . S
C616 C614 1.415 . S
C616 C621 1.425 . S
C616 C623 1.409 . S
C617 H609 0.930 . S
C617 C615 1.419 . S
C617 C618 1.362 . S
C618 H610 0.930 . S
C618 C617 1.362 . S
C618 C621 1.409 . S
C619 H611 0.930 . S
C619 C620 1.355 . S
C619 C621 1.415 . S
C620 C619 1.355 . S
C620 C622 1.419 1_556 S
C621 C616 1.425 . S
C621 C618 1.409 . S
C621 C619 1.415 . S
C622 H612 0.930 . S
C622 C620 1.419 1_554 S
C622 C623 1.362 1_554 S
C623 H613 0.930 1_556 S
C623 C616 1.409 . S
C623 C622 1.362 1_556 S
H624 C630 0.930 . S
H625 C633 0.930 . S
H626 C634 0.930 . S
H627 C635 0.930 . S
H628 C638 0.930 . S
H629 C639 0.930 . S
C630 H624 0.930 . S
C630 C631 1.355 . S
C630 C632 1.415 . S
C631 C630 1.355 . S
C631 C633 1.419 . S
C632 C630 1.415 . S
C632 C637 1.425 . S
C632 C639 1.409 . S
C633 H625 0.930 . S
C633 C631 1.419 . S
C633 C634 1.362 . S
C634 H626 0.930 . S
C634 C633 1.362 . S
C634 C637 1.409 . S
C635 H627 0.930 . S
C635 C636 1.355 . S
C635 C637 1.415 . S
C636 C635 1.355 . S
C636 C638 1.419 . S
C637 C632 1.425 . S
C637 C634 1.409 . S
C637 C635 1.415 . S
C638 H628 0.930 . S
C638 C636 1.419 . S
C638 C639 1.362 . S
C639 H629 0.930 . S
C639 C632 1.409 . S
C639 C638 1.362 . S
H640 C646 0.930 . S
H641 C649 0.930 . S
H642 C650 0.930 . S
H643 C651 0.930 . S
H644 C654 0.930 . S
H645 C655 0.930 . S
C646 H640 0.930 . S
C646 C647 1.355 . S
C646 C648 1.415 . S
C647 C646 1.355 . S
C647 C649 1.419 . S
C648 C646 1.415 . S
C648 C653 1.425 . S
C648 C655 1.409 . S
C649 H641 0.930 . S
C649 C647 1.419 . S
C649 C650 1.362 . S
C650 H642 0.930 . S
C650 C649 1.362 . S
C650 C653 1.409 . S
C651 H643 0.930 . S
C651 C652 1.355 . S
C651 C653 1.415 . S
C652 C651 1.355 . S
C652 C654 1.419 . S
C653 C648 1.425 . S
C653 C650 1.409 . S
C653 C651 1.415 . S
C654 H644 0.930 . S
C654 C652 1.419 . S
C654 C655 1.362 . S
C655 H645 0.930 . S
C655 C648 1.409 . S
C655 C654 1.362 . S
H656 C662 0.930 . S
H657 C665 0.930 . S
H658 C666 0.930 . S
H659 C667 0.930 . S
H660 C670 0.930 . S
H661 C671 0.930 . S
C662 H656 0.930 . S
C662 C663 1.355 . S
C662 C664 1.415 . S
C663 C662 1.355 . S
C663 C665 1.419 . S
C664 C662 1.415 . S
C664 C669 1.425 . S
C664 C671 1.409 . S
C665 H657 0.930 . S
C665 C663 1.419 . S
C665 C666 1.362 . S
C666 H658 0.930 . S
C666 C665 1.362 . S
C666 C669 1.409 . S
C667 H659 0.930 . S
C667 C668 1.355 . S
C667 C669 1.415 . S
C668 C667 1.355 . S
C668 C670 1.419 . S
C669 C664 1.425 . S
C669 C666 1.409 . S
C669 C667 1.415 . S
C670 H660 0.930 . S
C670 C668 1.419 . S
C670 C671 1.362 . S
C671 H661 0.930 . S
C671 C664 1.409 . S
C671 C670 1.362 . S
C295 C6 2.606 . S
C300 C152 2.619 . S
C311 C21 2.833 . S
C316 C194 2.851 . S
C332 C224 0.643 . S
C327 C49 0.667 . S
C343 C68 0.780 . S
C348 C258 0.887 . S
C364 C215 2.476 . S
C359 C2 2.465 . S
C380 C169 1.647 . S
C375 C30 1.388 . S
C396 C262 1.033 . S
C391 C40 1.067 . S
C412 C228 1.060 . S
C407 C63 1.024 . S
C423 C11 1.982 . S
C428 C283 2.204 . S
C444 C190 1.289 . S
C439 C44 1.252 . S
C455 C59 0.924 . S
C460 C165 0.910 . S
C471 C25 2.470 . S
C476 C249 2.487 . S
C492 C181 2.786 . S
C487 C82 2.766 . S
C503 C101 2.567 . S
C508 C203 2.575 . S
C519 C125 0.918 . S
C524 C233 0.885 . S
C535 C144 0.681 . S
C540 C267 0.693 . S
C551 C87 1.512 . S
C556 C186 1.646 . S
C572 C160 2.448 . S
C567 C97 2.432 . S
C588 C271 0.975 . S
C583 C120 0.938 . S
C604 C237 1.141 . S
C599 C135 1.135 . S
C615 C78 2.569 . S
C620 C254 2.581 . S
C636 C199 0.921 . S
C631 C116 0.925 . S
C652 C156 1.293 . S
C647 C139 1.283 . S
C663 C106 2.026 . S
C668 C220 2.174 . S
