# Generated by pormake.
# Topology eea, (3,6)-cn, num edge types: 1
# Building blocks:
#     Node 0, Type 0, BuildingBlock: BETDIP_clean_linker_0, # of connection points: 3
#     Node 1, Type 0, BuildingBlock: BETDIP_clean_linker_0, # of connection points: 3
#     Node 2, Type 0, BuildingBlock: BETDIP_clean_linker_0, # of connection points: 3
#     Node 3, Type 0, BuildingBlock: BETDIP_clean_linker_0, # of connection points: 3
#     Node 4, Type 0, BuildingBlock: BETDIP_clean_linker_0, # of connection points: 3
#     Node 5, Type 0, BuildingBlock: BETDIP_clean_linker_0, # of connection points: 3
#     Node 6, Type 0, BuildingBlock: BETDIP_clean_linker_0, # of connection points: 3
#     Node 7, Type 0, BuildingBlock: BETDIP_clean_linker_0, # of connection points: 3
#     Node 8, Type 0, BuildingBlock: BETDIP_clean_linker_0, # of connection points: 3
#     Node 9, Type 0, BuildingBlock: BETDIP_clean_linker_0, # of connection points: 3
#     Node 10, Type 0, BuildingBlock: BETDIP_clean_linker_0, # of connection points: 3
#     Node 11, Type 0, BuildingBlock: BETDIP_clean_linker_0, # of connection points: 3
#     Node 12, Type 0, BuildingBlock: BETDIP_clean_linker_0, # of connection points: 3
#     Node 13, Type 0, BuildingBlock: BETDIP_clean_linker_0, # of connection points: 3
#     Node 14, Type 0, BuildingBlock: BETDIP_clean_linker_0, # of connection points: 3
#     Node 15, Type 0, BuildingBlock: BETDIP_clean_linker_0, # of connection points: 3
#     Node 16, Type 0, BuildingBlock: BETDIP_clean_linker_0, # of connection points: 3
#     Node 17, Type 0, BuildingBlock: BETDIP_clean_linker_0, # of connection points: 3
#     Node 18, Type 1, BuildingBlock: HISSIN_clean_sbu_0, # of connection points: 6
#     Node 19, Type 1, BuildingBlock: HISSIN_clean_sbu_0, # of connection points: 6
#     Node 20, Type 1, BuildingBlock: HISSIN_clean_sbu_0, # of connection points: 6
#     Node 21, Type 1, BuildingBlock: HISSIN_clean_sbu_0, # of connection points: 6
#     Node 22, Type 1, BuildingBlock: HISSIN_clean_sbu_0, # of connection points: 6
#     Node 23, Type 1, BuildingBlock: HISSIN_clean_sbu_0, # of connection points: 6
#     Node 24, Type 1, BuildingBlock: HISSIN_clean_sbu_0, # of connection points: 6
#     Node 25, Type 1, BuildingBlock: HISSIN_clean_sbu_0, # of connection points: 6
#     Node 26, Type 1, BuildingBlock: HISSIN_clean_sbu_0, # of connection points: 6
#     Edge 27, Type (0, 1), BuildingBlock: XUDNAN_clean_linker_2, # of connection points: 2
#     Edge 28, Type (0, 1), BuildingBlock: XUDNAN_clean_linker_2, # of connection points: 2
#     Edge 29, Type (0, 1), BuildingBlock: XUDNAN_clean_linker_2, # of connection points: 2
#     Edge 30, Type (0, 1), BuildingBlock: XUDNAN_clean_linker_2, # of connection points: 2
#     Edge 31, Type (0, 1), BuildingBlock: XUDNAN_clean_linker_2, # of connection points: 2
#     Edge 32, Type (0, 1), BuildingBlock: XUDNAN_clean_linker_2, # of connection points: 2
#     Edge 33, Type (0, 1), BuildingBlock: XUDNAN_clean_linker_2, # of connection points: 2
#     Edge 34, Type (0, 1), BuildingBlock: XUDNAN_clean_linker_2, # of connection points: 2
#     Edge 35, Type (0, 1), BuildingBlock: XUDNAN_clean_linker_2, # of connection points: 2
#     Edge 36, Type (0, 1), BuildingBlock: XUDNAN_clean_linker_2, # of connection points: 2
#     Edge 37, Type (0, 1), BuildingBlock: XUDNAN_clean_linker_2, # of connection points: 2
#     Edge 38, Type (0, 1), BuildingBlock: XUDNAN_clean_linker_2, # of connection points: 2
#     Edge 39, Type (0, 1), BuildingBlock: XUDNAN_clean_linker_2, # of connection points: 2
#     Edge 40, Type (0, 1), BuildingBlock: XUDNAN_clean_linker_2, # of connection points: 2
#     Edge 41, Type (0, 1), BuildingBlock: XUDNAN_clean_linker_2, # of connection points: 2
#     Edge 42, Type (0, 1), BuildingBlock: XUDNAN_clean_linker_2, # of connection points: 2
#     Edge 43, Type (0, 1), BuildingBlock: XUDNAN_clean_linker_2, # of connection points: 2
#     Edge 44, Type (0, 1), BuildingBlock: XUDNAN_clean_linker_2, # of connection points: 2
#     Edge 45, Type (0, 1), BuildingBlock: XUDNAN_clean_linker_2, # of connection points: 2
#     Edge 46, Type (0, 1), BuildingBlock: XUDNAN_clean_linker_2, # of connection points: 2
#     Edge 47, Type (0, 1), BuildingBlock: XUDNAN_clean_linker_2, # of connection points: 2
#     Edge 48, Type (0, 1), BuildingBlock: XUDNAN_clean_linker_2, # of connection points: 2
#     Edge 49, Type (0, 1), BuildingBlock: XUDNAN_clean_linker_2, # of connection points: 2
#     Edge 50, Type (0, 1), BuildingBlock: XUDNAN_clean_linker_2, # of connection points: 2
#     Edge 51, Type (0, 1), BuildingBlock: XUDNAN_clean_linker_2, # of connection points: 2
#     Edge 52, Type (0, 1), BuildingBlock: XUDNAN_clean_linker_2, # of connection points: 2
#     Edge 53, Type (0, 1), BuildingBlock: XUDNAN_clean_linker_2, # of connection points: 2
#     Edge 54, Type (0, 1), BuildingBlock: XUDNAN_clean_linker_2, # of connection points: 2
#     Edge 55, Type (0, 1), BuildingBlock: XUDNAN_clean_linker_2, # of connection points: 2
#     Edge 56, Type (0, 1), BuildingBlock: XUDNAN_clean_linker_2, # of connection points: 2
#     Edge 57, Type (0, 1), BuildingBlock: XUDNAN_clean_linker_2, # of connection points: 2
#     Edge 58, Type (0, 1), BuildingBlock: XUDNAN_clean_linker_2, # of connection points: 2
#     Edge 59, Type (0, 1), BuildingBlock: XUDNAN_clean_linker_2, # of connection points: 2
#     Edge 60, Type (0, 1), BuildingBlock: XUDNAN_clean_linker_2, # of connection points: 2
#     Edge 61, Type (0, 1), BuildingBlock: XUDNAN_clean_linker_2, # of connection points: 2
#     Edge 62, Type (0, 1), BuildingBlock: XUDNAN_clean_linker_2, # of connection points: 2
#     Edge 63, Type (0, 1), BuildingBlock: XUDNAN_clean_linker_2, # of connection points: 2
#     Edge 64, Type (0, 1), BuildingBlock: XUDNAN_clean_linker_2, # of connection points: 2
#     Edge 65, Type (0, 1), BuildingBlock: XUDNAN_clean_linker_2, # of connection points: 2
#     Edge 66, Type (0, 1), BuildingBlock: XUDNAN_clean_linker_2, # of connection points: 2
#     Edge 67, Type (0, 1), BuildingBlock: XUDNAN_clean_linker_2, # of connection points: 2
#     Edge 68, Type (0, 1), BuildingBlock: XUDNAN_clean_linker_2, # of connection points: 2
#     Edge 69, Type (0, 1), BuildingBlock: XUDNAN_clean_linker_2, # of connection points: 2
#     Edge 70, Type (0, 1), BuildingBlock: XUDNAN_clean_linker_2, # of connection points: 2
#     Edge 71, Type (0, 1), BuildingBlock: XUDNAN_clean_linker_2, # of connection points: 2
#     Edge 72, Type (0, 1), BuildingBlock: XUDNAN_clean_linker_2, # of connection points: 2
#     Edge 73, Type (0, 1), BuildingBlock: XUDNAN_clean_linker_2, # of connection points: 2
#     Edge 74, Type (0, 1), BuildingBlock: XUDNAN_clean_linker_2, # of connection points: 2
#     Edge 75, Type (0, 1), BuildingBlock: XUDNAN_clean_linker_2, # of connection points: 2
#     Edge 76, Type (0, 1), BuildingBlock: XUDNAN_clean_linker_2, # of connection points: 2
#     Edge 77, Type (0, 1), BuildingBlock: XUDNAN_clean_linker_2, # of connection points: 2
#     Edge 78, Type (0, 1), BuildingBlock: XUDNAN_clean_linker_2, # of connection points: 2
#     Edge 79, Type (0, 1), BuildingBlock: XUDNAN_clean_linker_2, # of connection points: 2
#     Edge 80, Type (0, 1), BuildingBlock: XUDNAN_clean_linker_2, # of connection points: 2
# Relax obj value: 0.060
# Max RMSD: 0.209
# Mean RMSD: 0.147
data_MOF--net-eea--node1-HISSIN_clean_sbu_0--node2-BETDIP_clean_linker_0--edge1-XUDNAN_clean_linker_2
_symmetry_space_group_name_H-M    P1
_symmetry_Int_Tables_number       1
_symmetry_cell_setting            triclinic
loop_
_symmetry_equiv_pos_as_xyz
'x, y, z'
_cell_length_a     54.529244
_cell_length_b     54.873394
_cell_length_c     69.889895
_cell_angle_alpha  93.328409
_cell_angle_beta   93.327897
_cell_angle_gamma 119.80971
loop_
_atom_site_label
_atom_site_type_symbol
_atom_site_fract_x
_atom_site_fract_y
_atom_site_fract_z
_atom_type_partial_charge
H0 H 0.25094 0.11666 0.38388 0.0
H1 H 0.28298 0.16324 0.43992 0.0
H2 H 0.29836 0.09551 0.42413 0.0
H3 H 0.24931 0.15603 0.37635 0.0
C4 C 0.24582 0.16483 0.38953 0.0
C5 C 0.26281 0.12073 0.39778 0.0
C6 C 0.27488 0.10405 0.40228 0.0
C7 C 0.26603 0.14234 0.4114 0.0
C8 C 0.28065 0.14657 0.42955 0.0
C9 C 0.2928 0.1301 0.43422 0.0
C10 C 0.28982 0.10893 0.42046 0.0
N11 N 0.25444 0.15996 0.40781 0.0
H12 H 0.91845 0.12559 0.38545 0.0
H13 H 0.87634 0.11952 0.4364 0.0
H14 H 0.9596 0.18994 0.43353 0.0
H15 H 0.83783 0.0943 0.41629 0.0
C16 C 0.8434 0.08158 0.40704 0.0
C17 C 0.91865 0.13414 0.39985 0.0
C18 C 0.94234 0.15977 0.40814 0.0
C19 C 0.89463 0.11962 0.40979 0.0
C20 C 0.89449 0.13067 0.42842 0.0
C21 C 0.91756 0.15628 0.43692 0.0
C22 C 0.94146 0.17062 0.42673 0.0
N23 N 0.87121 0.09366 0.40098 0.0
H24 H 0.89026 0.80465 0.39199 0.0
H25 H 0.93284 0.79134 0.44062 0.0
H26 H 0.84895 0.77858 0.44364 0.0
H27 H 0.97205 0.81749 0.42678 0.0
C28 C 0.96613 0.81454 0.41138 0.0
C29 C 0.89052 0.79937 0.40668 0.0
C30 C 0.8664 0.79111 0.41668 0.0
C31 C 0.91488 0.80019 0.41527 0.0
C32 C 0.91486 0.79222 0.43411 0.0
C33 C 0.89097 0.78407 0.44439 0.0
C34 C 0.86711 0.78402 0.43562 0.0
N35 N 0.93827 0.80775 0.40413 0.0
H36 H 0.08536 0.20697 0.62602 0.0
H37 H 0.14623 0.2319 0.58439 0.0
H38 H 0.07746 0.24852 0.57732 0.0
H39 H 0.12899 0.18039 0.59029 0.0
C40 C 0.13897 0.18818 0.60497 0.0
C41 C 0.09339 0.21751 0.61328 0.0
C42 C 0.07819 0.22775 0.60262 0.0
C43 C 0.11773 0.21868 0.60657 0.0
C44 C 0.12743 0.23101 0.5895 0.0
C45 C 0.11287 0.24153 0.57874 0.0
C46 C 0.08877 0.2405 0.58568 0.0
N47 N 0.13123 0.20548 0.61603 0.0
H48 H 0.76936 0.88196 0.6428 0.0
H49 H 0.7504 0.90256 0.58766 0.0
H50 H 0.75961 0.82986 0.59086 0.0
H51 H 0.77204 0.94574 0.60166 0.0
C52 C 0.76995 0.94526 0.61699 0.0
C53 C 0.76517 0.8771 0.62731 0.0
C54 C 0.76516 0.85339 0.61838 0.0
C55 C 0.76091 0.89552 0.61643 0.0
C56 C 0.75469 0.8892 0.59638 0.0
C57 C 0.75378 0.86531 0.58726 0.0
C58 C 0.75905 0.84748 0.59821 0.0
N59 N 0.7642 0.92068 0.62608 0.0
H60 H 0.12654 0.91476 0.63123 0.0
H61 H 0.08015 0.85551 0.58149 0.0
H62 H 0.16487 0.92331 0.57805 0.0
H63 H 0.04209 0.84929 0.59629 0.0
C64 C 0.04859 0.85084 0.6115 0.0
C65 C 0.12537 0.9077 0.61622 0.0
C66 C 0.14899 0.9219 0.60576 0.0
C67 C 0.10021 0.88411 0.60756 0.0
C68 C 0.09888 0.87435 0.58819 0.0
C69 C 0.12234 0.88821 0.57758 0.0
C70 C 0.14709 0.91206 0.58642 0.0
N71 N 0.07723 0.86998 0.61897 0.0
H72 H 0.90813 0.44922 0.71221 0.0
H73 H 0.95135 0.51576 0.7584 0.0
H74 H 0.93921 0.43331 0.76529 0.0
H75 H 0.91716 0.52519 0.74733 0.0
C76 C 0.91722 0.52283 0.73179 0.0
C77 C 0.91949 0.45671 0.72649 0.0
C78 C 0.92281 0.43807 0.73782 0.0
C79 C 0.92886 0.48446 0.73403 0.0
C80 C 0.94344 0.49415 0.7526 0.0
C81 C 0.94715 0.4758 0.76401 0.0
C82 C 0.93658 0.44771 0.75655 0.0
N83 N 0.92199 0.50168 0.72313 0.0
H84 H 0.5761 0.46161 0.71485 0.0
H85 H 0.53911 0.44949 0.76849 0.0
H86 H 0.62303 0.51872 0.76578 0.0
H87 H 0.4988 0.43041 0.7482 0.0
C88 C 0.50288 0.41714 0.73828 0.0
C89 C 0.57788 0.46826 0.73001 0.0
C90 C 0.60282 0.4923 0.73886 0.0
C91 C 0.55463 0.45297 0.74044 0.0
C92 C 0.55641 0.46167 0.76002 0.0
C93 C 0.58077 0.4856 0.76909 0.0
C94 C 0.60405 0.50058 0.75856 0.0
N95 N 0.53003 0.42838 0.73125 0.0
H96 H 0.55415 0.13398 0.72609 0.0
H97 H 0.59614 0.11239 0.77031 0.0
H98 H 0.51324 0.10076 0.77687 0.0
H99 H 0.61298 0.10195 0.74096 0.0
C100 C 0.62014 0.12265 0.73603 0.0
C101 C 0.55417 0.12609 0.73994 0.0
C102 C 0.53019 0.11662 0.75032 0.0
C103 C 0.57787 0.12431 0.74696 0.0
C104 C 0.57785 0.11361 0.7648 0.0
C105 C 0.55445 0.10481 0.77565 0.0
C106 C 0.53095 0.10666 0.76832 0.0
N107 N 0.60181 0.13418 0.73612 0.0
H108 H 0.75268 0.53422 0.9583 0.0
H109 H 0.811 0.56014 0.91496 0.0
H110 H 0.73403 0.563 0.90616 0.0
H111 H 0.82031 0.52758 0.92708 0.0
C112 C 0.82111 0.53237 0.94249 0.0
C113 C 0.75843 0.54258 0.94456 0.0
C114 C 0.73997 0.54816 0.93315 0.0
C115 C 0.78375 0.54625 0.93796 0.0
C116 C 0.7911 0.55638 0.91993 0.0
C117 C 0.77316 0.56225 0.9083 0.0
C118 C 0.74786 0.55847 0.91513 0.0
N119 N 0.80144 0.53963 0.94973 0.0
H120 H 0.42992 0.19428 0.98159 0.0
H121 H 0.41111 0.22976 0.93387 0.0
H122 H 0.40452 0.14823 0.92516 0.0
H123 H 0.39449 0.24719 0.96524 0.0
C124 C 0.41709 0.2566 0.96952 0.0
C125 C 0.42271 0.19221 0.96649 0.0
C126 C 0.4164 0.16801 0.95445 0.0
C127 C 0.42039 0.21417 0.95922 0.0
C128 C 0.41221 0.21234 0.93958 0.0
C129 C 0.40684 0.18882 0.92709 0.0
C130 C 0.4086 0.16645 0.93466 0.0
N131 N 0.42922 0.23916 0.97146 0.0
H132 H 0.78705 0.2275 0.96376 0.0
H133 H 0.77061 0.17171 0.91314 0.0
H134 H 0.84649 0.25332 0.92088 0.0
H135 H 0.74901 0.19241 0.97379 0.0
C136 C 0.73678 0.17687 0.96166 0.0
C137 C 0.79327 0.22318 0.95016 0.0
C138 C 0.8188 0.2438 0.94371 0.0
C139 C 0.7759 0.19722 0.93909 0.0
C140 C 0.78443 0.19165 0.9217 0.0
C141 C 0.81004 0.21151 0.91508 0.0
C142 C 0.82699 0.23771 0.92608 0.0
N143 N 0.74916 0.1764 0.94436 0.0
H144 H 0.57276 0.77127 0.04293 0.0
H145 H 0.57996 0.8141 0.09848 0.0
H146 H 0.60084 0.74836 0.09397 0.0
H147 H 0.58088 0.84756 0.08092 0.0
C148 C 0.56808 0.83666 0.06742 0.0
C149 C 0.57827 0.77442 0.05838 0.0
C150 C 0.58766 0.7578 0.06712 0.0
C151 C 0.57614 0.79532 0.0694 0.0
C152 C 0.58269 0.799 0.08957 0.0
C153 C 0.59132 0.78181 0.09847 0.0
C154 C 0.5942 0.76166 0.08712 0.0
N155 N 0.56601 0.81112 0.05971 0.0
H156 H 0.25388 0.79742 0.04835 0.0
H157 H 0.21742 0.76854 0.10105 0.0
H158 H 0.28531 0.85386 0.10074 0.0
H159 H 0.20563 0.72623 0.08639 0.0
C160 C 0.20007 0.72738 0.07143 0.0
C161 C 0.25316 0.80163 0.06359 0.0
C162 C 0.27207 0.82844 0.07326 0.0
C163 C 0.23381 0.77975 0.07347 0.0
C164 C 0.23296 0.78487 0.09328 0.0
C165 C 0.25152 0.81151 0.10316 0.0
C166 C 0.271 0.83327 0.09311 0.0
N167 N 0.21503 0.75314 0.06296 0.0
H168 H 0.23525 0.46814 0.06732 0.0
H169 H 0.25879 0.43207 0.11286 0.0
H170 H 0.17421 0.41964 0.10581 0.0
H171 H 0.30366 0.45611 0.10245 0.0
C172 C 0.30087 0.46055 0.0878 0.0
C173 C 0.22972 0.45615 0.07973 0.0
C174 C 0.20212 0.44451 0.08537 0.0
C175 C 0.25031 0.45193 0.0894 0.0
C176 C 0.24346 0.43626 0.10553 0.0
C177 C 0.2159 0.42462 0.11155 0.0
C178 C 0.19556 0.4291 0.10147 0.0
N179 N 0.27651 0.46197 0.08115 0.0
H180 H 0.42286 0.86879 0.28628 0.0
H181 H 0.47738 0.91295 0.24376 0.0
H182 H 0.39531 0.90659 0.24404 0.0
H183 H 0.51051 0.9202 0.2757 0.0
C184 C 0.5005 0.89737 0.27512 0.0
C185 C 0.42626 0.88056 0.27385 0.0
C186 C 0.4058 0.88705 0.26657 0.0
C187 C 0.4518 0.88972 0.26568 0.0
C188 C 0.45747 0.90589 0.24996 0.0
C189 C 0.4372 0.91229 0.24202 0.0
C190 C 0.4114 0.90264 0.25043 0.0
N191 N 0.47044 0.88048 0.2727 0.0
H192 H 0.11917 0.53791 0.32249 0.0
H193 H 0.10257 0.58187 0.27936 0.0
H194 H 0.09445 0.50111 0.26354 0.0
H195 H 0.08202 0.58932 0.31514 0.0
C196 C 0.10509 0.60073 0.31725 0.0
C197 C 0.11305 0.5387 0.30761 0.0
C198 C 0.10583 0.51593 0.29374 0.0
C199 C 0.11148 0.56224 0.30248 0.0
C200 C 0.10341 0.56346 0.28328 0.0
C201 C 0.09731 0.54151 0.26909 0.0
C202 C 0.09845 0.51781 0.27449 0.0
N203 N 0.11978 0.58545 0.31645 0.0
H204 H 0.46446 0.58114 0.29542 0.0
H205 H 0.42168 0.51451 0.24922 0.0
H206 H 0.5041 0.58472 0.24332 0.0
H207 H 0.3825 0.50821 0.26251 0.0
C208 C 0.38886 0.51212 0.2779 0.0
C209 C 0.46391 0.57239 0.281 0.0
C210 C 0.48733 0.58626 0.2703 0.0
C211 C 0.43986 0.54684 0.27342 0.0
C212 C 0.43957 0.53469 0.255 0.0
C213 C 0.46269 0.54832 0.24404 0.0
C214 C 0.48622 0.57421 0.25172 0.0
N215 N 0.41702 0.53328 0.28505 0.0
Eu216 Eu 0.48462 0.9895 0.98395 0.0
Eu217 Eu 0.50625 0.01554 0.02977 0.0
C218 C 0.47952 0.04102 1.001 0.0
C219 C 0.48437 0.98962 0.93008 0.0
C220 C 0.50398 0.01871 0.93246 0.0
C221 C 0.48899 0.98945 0.89571 0.0
C222 C 0.51604 0.03308 0.91659 0.0
C223 C 0.47694 0.97509 0.91163 0.0
C224 C 0.50876 0.01863 0.89799 0.0
C225 C 0.47237 0.97443 0.94691 0.0
O226 O 0.46382 0.97601 0.0301 0.0
O227 O 0.44466 0.97149 0.99895 0.0
C228 C 0.44192 0.96552 0.01694 0.0
O229 O 0.4858 0.95496 0.9991 0.0
O230 O 0.50632 0.03994 0.05564 0.0
O231 O 0.5309 0.01893 0.05666 0.0
O232 O 0.52091 0.98467 0.02255 0.0
C233 C 0.50568 0.95977 0.01277 0.0
O234 O 0.53213 0.01428 0.98748 0.0
O235 O 0.54058 0.04672 0.0128 0.0
O236 O 0.47845 0.0319 0.01803 0.0
O237 O 0.48933 0.96933 0.95767 0.0
O238 O 0.45884 0.98366 0.95714 0.0
O239 O 0.48977 0.03285 0.98713 0.0
C240 C 0.50929 0.02054 0.08477 0.0
C241 C 0.52677 0.01775 0.09899 0.0
C242 C 0.47076 1.00137 0.10544 0.0
C243 C 0.51639 0.0069 0.11628 0.0
C244 C 0.48105 0.01196 0.08808 0.0
C245 C 0.48834 0.99884 0.11978 0.0
C246 C 0.52082 0.03215 0.06662 0.0
C247 C 0.54817 0.03922 0.99698 0.0
H248 H 0.51 0.03029 0.94663 0.0
H249 H 0.48316 0.97759 0.88166 0.0
H250 H 0.53085 0.05557 0.91887 0.0
H251 H 0.46199 0.9526 0.90955 0.0
H252 H 0.54856 0.02412 0.09677 0.0
H253 H 0.44894 0.99498 0.10761 0.0
H254 H 0.53052 0.00541 0.12708 0.0
H255 H 0.4669 0.01347 0.07731 0.0
Eu256 Eu 0.01314 0.48141 0.99321 0.0
Eu257 Eu 0.99899 0.48356 0.03844 0.0
C258 C 0.96407 0.42824 0.00933 0.0
C259 C 0.01945 0.48846 0.93887 0.0
C260 C 0.99315 0.48566 0.93254 0.0
C261 C 0.03678 0.50492 0.90827 0.0
C262 C 0.98849 0.49172 0.91399 0.0
C263 C 0.04134 0.49862 0.92675 0.0
C264 C 0.01011 0.50093 0.90156 0.0
C265 C 0.02397 0.47925 0.95743 0.0
O266 O 0.02876 0.46597 0.03918 0.0
O267 O 0.04751 0.47834 0.01023 0.0
C268 C 0.04763 0.46919 0.02717 0.0
O269 O 0.03282 0.52722 0.00459 0.0
O270 O 0.98614 0.46402 0.06519 0.0
O271 O 0.99359 0.50638 0.06279 0.0
O272 O 0.04133 0.52178 0.03597 0.0
C273 C 0.04686 0.53767 0.02171 0.0
O274 O 0.97432 0.48603 0.99115 0.0
O275 O 0.9767 0.50287 0.02252 0.0
O276 O 0.96175 0.44536 0.022 0.0
O277 O 0.04173 0.49882 0.97073 0.0
O278 O 1.00152 0.45972 0.96431 0.0
O279 O 0.98747 0.43682 1.00093 0.0
C280 C 1.00427 0.49647 0.09368 0.0
C281 C 0.01014 0.52254 0.10287 0.0
C282 C 0.02645 0.48888 0.12219 0.0
C283 C 0.02414 0.53177 0.12143 0.0
C284 C 0.01257 0.4797 0.10354 0.0
C285 C 0.03234 0.515 0.13133 0.0
C286 C 0.98863 0.4868 0.07423 0.0
C287 C 0.96627 0.49785 0.00436 0.0
H288 H 0.976 0.47811 0.94173 0.0
H289 H 0.05372 0.51173 0.89895 0.0
H290 H 0.96784 0.48876 0.90923 0.0
H291 H 0.06175 0.5009 0.93139 0.0
H292 H 1.00366 0.53575 0.09575 0.0
H293 H 0.03271 0.4756 0.12943 0.0
H294 H 0.02798 0.55178 0.1282 0.0
H295 H 0.00822 0.45943 0.09692 0.0
Eu296 Eu 0.53249 0.51283 0.02891 0.0
Eu297 Eu 0.51022 0.51887 0.98553 0.0
C298 C 0.54422 0.57169 0.01581 0.0
C299 C 0.53321 0.50736 0.08258 0.0
C300 C 0.51498 0.51834 0.08474 0.0
C301 C 0.52624 0.49308 0.11502 0.0
C302 C 0.50288 0.51713 0.102 0.0
C303 C 0.53854 0.49451 0.09777 0.0
C304 C 0.50852 0.50466 0.11739 0.0
C305 C 0.54683 0.50954 0.06464 0.0
O306 O 0.55676 0.53401 0.98545 0.0
O307 O 0.56385 0.5108 0.00965 0.0
C308 C 0.57113 0.52345 0.99375 0.0
O309 O 0.50113 0.46914 0.01505 0.0
O310 O 0.51272 0.54522 0.96274 0.0
O311 O 0.48448 0.49994 0.95786 0.0
O312 O 0.51192 0.47872 0.98438 0.0
C313 C 0.50212 0.46079 0.99733 0.0
O314 O 0.4928 0.51535 0.03244 0.0
O315 O 0.47111 0.5007 1.00147 0.0
O316 O 0.52054 0.55802 0.00439 0.0
O317 O 0.53404 0.48775 0.05177 0.0
O318 O 0.55568 0.53322 0.05696 0.0
O319 O 0.55637 0.55832 0.02295 0.0
C320 C 0.51023 0.5228 0.93213 0.0
C321 C 0.53981 0.53866 0.93147 0.0
C322 C 0.50536 0.50268 0.89926 0.0
C323 C 0.552 0.53671 0.91483 0.0
C324 C 0.49314 0.50486 0.91587 0.0
C325 C 0.53498 0.51859 0.89851 0.0
C326 C 0.49732 0.52363 0.94999 0.0
C327 C 0.4701 0.50531 0.02002 0.0
H328 H 0.51034 0.52814 0.07313 0.0
H329 H 0.53116 0.48354 0.12667 0.0
H330 H 0.48907 0.52593 0.10332 0.0
H331 H 0.55246 0.48584 0.09637 0.0
H332 H 0.55365 0.55247 0.94387 0.0
H333 H 0.49157 0.48808 0.88715 0.0
H334 H 0.5748 0.54958 0.91478 0.0
H335 H 0.47034 0.49216 0.91612 0.0
Eu336 Eu 0.16437 0.32276 0.32396 0.0
Eu337 Eu 0.17337 0.35242 0.36856 0.0
C338 C 0.1473 0.37034 0.33391 0.0
C339 C 0.16443 0.31336 0.26909 0.0
C340 C 0.17522 0.3421 0.26687 0.0
C341 C 0.16235 0.30385 0.2345 0.0
C342 C 0.17934 0.35162 0.24848 0.0
C343 C 0.15824 0.2944 0.25282 0.0
C344 C 0.17267 0.33252 0.23203 0.0
C345 C 0.16006 0.30279 0.28821 0.0
O346 O 0.12727 0.31799 0.36273 0.0
O347 O 0.13055 0.28887 0.33936 0.0
C348 C 0.11702 0.29312 0.35295 0.0
O349 O 0.18966 0.30804 0.34179 0.0
O350 O 0.15706 0.36481 0.39297 0.0
O351 O 0.20005 0.37236 0.39562 0.0
O352 O 0.1762 0.31349 0.37146 0.0
C353 C 0.18718 0.3027 0.35989 0.0
O354 O 0.19988 0.36746 0.32469 0.0
O355 O 0.21613 0.37503 0.35658 0.0
O356 O 0.16504 0.37978 0.34964 0.0
O357 O 0.18283 0.31239 0.3002 0.0
O358 O 0.13876 0.3017 0.29654 0.0
O359 O 0.13973 0.34591 0.3243 0.0
C360 C 0.17407 0.35731 0.42289 0.0
C361 C 0.19049 0.34565 0.42947 0.0
C362 C 0.14567 0.33999 0.44993 0.0
C363 C 0.18441 0.33114 0.4459 0.0
C364 C 0.15184 0.35465 0.43346 0.0
C365 C 0.16166 0.3277 0.45619 0.0
C366 C 0.17934 0.3712 0.40475 0.0
C367 C 0.22018 0.38122 0.33872 0.0
H368 H 0.18029 0.35709 0.27933 0.0
H369 H 0.15751 0.28862 0.22225 0.0
H370 H 0.18714 0.37378 0.24712 0.0
H371 H 0.15022 0.27221 0.25428 0.0
H372 H 0.2079 0.34734 0.42181 0.0
H373 H 0.12789 0.33763 0.45743 0.0
H374 H 0.19758 0.32249 0.4505 0.0
H375 H 0.13885 0.36346 0.42877 0.0
Eu376 Eu 0.69057 0.83744 0.32382 0.0
Eu377 Eu 0.65655 0.82122 0.3626 0.0
C378 C 0.63729 0.77529 0.32677 0.0
C379 C 0.69718 0.83801 0.27129 0.0
C380 C 0.66786 0.81889 0.26894 0.0
C381 C 0.6971 0.8387 0.23659 0.0
C382 C 0.65322 0.80976 0.25059 0.0
C383 C 0.71176 0.84794 0.25506 0.0
C384 C 0.66764 0.81944 0.23418 0.0
C385 C 0.7118 0.84812 0.29081 0.0
O386 O 0.68634 0.80382 0.36334 0.0
O387 O 0.72076 0.83405 0.34547 0.0
C388 C 0.71227 0.81542 0.35814 0.0
O389 O 0.70744 0.87879 0.34221 0.0
O390 O 0.63436 0.79083 0.38306 0.0
O391 O 0.64193 0.8334 0.38791 0.0
O392 O 0.69802 0.86109 0.37145 0.0
C393 C 0.71108 0.8823 0.3611 0.0
O394 O 0.64703 0.83136 0.31615 0.0
O395 O 0.63857 0.84375 0.34578 0.0
O396 O 0.62784 0.78601 0.33972 0.0
O397 O 0.70529 0.8647 0.30061 0.0
O398 O 0.71164 0.8288 0.30095 0.0
O399 O 0.66325 0.78993 0.32179 0.0
C400 C 0.64902 0.81302 0.41463 0.0
C401 C 0.67712 0.81852 0.41636 0.0
C402 C 0.65052 0.81783 0.4495 0.0
C403 C 0.69193 0.82394 0.43449 0.0
C404 C 0.63566 0.81238 0.43127 0.0
C405 C 0.679 0.82415 0.45127 0.0
C406 C 0.63473 0.80981 0.3954 0.0
C407 C 0.63363 0.84024 0.32694 0.0
H408 H 0.65621 0.81116 0.28135 0.0
H409 H 0.70885 0.84634 0.22423 0.0
H410 H 0.6305 0.79535 0.2493 0.0
H411 H 0.73439 0.86282 0.25667 0.0
H412 H 0.68784 0.8192 0.40365 0.0
H413 H 0.64008 0.81809 0.46217 0.0
H414 H 0.71367 0.82832 0.43535 0.0
H415 H 0.61403 0.80834 0.43017 0.0
Eu416 Eu 0.19615 0.8555 0.36097 0.0
Eu417 Eu 0.17993 0.86173 0.31626 0.0
C418 C 0.21227 0.9146 0.3463 0.0
C419 C 0.1934 0.85169 0.41513 0.0
C420 C 0.16408 0.83347 0.41556 0.0
C421 C 0.19634 0.87021 0.44812 0.0
C422 C 0.15106 0.83351 0.43224 0.0
C423 C 0.20938 0.86992 0.43156 0.0
C424 C 0.16699 0.85202 0.44871 0.0
C425 C 0.20752 0.85329 0.39749 0.0
O426 O 0.22641 0.87444 0.31881 0.0
O427 O 0.22804 0.85064 0.3444 0.0
C428 C 0.23855 0.86315 0.32896 0.0
O429 O 0.16557 0.81163 0.3469 0.0
O430 O 0.18853 0.8878 0.29241 0.0
O431 O 0.15486 0.84404 0.28835 0.0
O432 O 0.17947 0.82048 0.31672 0.0
C433 C 0.16846 0.80285 0.32979 0.0
O434 O 0.15718 0.85966 0.36158 0.0
O435 O 0.13874 0.84509 0.32995 0.0
O436 O 0.18936 0.90141 0.33417 0.0
O437 O 0.19566 0.83121 0.3848 0.0
O438 O 0.21665 0.87675 0.3895 0.0
O439 O 0.22301 0.90054 0.35433 0.0
C440 C 0.18326 0.86203 0.26301 0.0
C441 C 0.20641 0.85756 0.26538 0.0
C442 C 0.18312 0.85602 0.22832 0.0
C443 C 0.21775 0.8522 0.24935 0.0
C444 C 0.17179 0.86144 0.24442 0.0
C445 C 0.20604 0.85104 0.23062 0.0
C446 C 0.17088 0.86661 0.28 0.0
C447 C 0.13586 0.85007 0.34809 0.0
H448 H 0.15119 0.81938 0.40298 0.0
H449 H 0.20925 0.88518 0.46033 0.0
H450 H 0.12854 0.81894 0.43225 0.0
H451 H 0.23194 0.88439 0.43146 0.0
H452 H 0.21556 0.85796 0.27965 0.0
H453 H 0.17343 0.85495 0.21409 0.0
H454 H 0.23564 0.84887 0.25162 0.0
H455 H 0.15387 0.86478 0.24236 0.0
Eu456 Eu 0.81757 0.66617 0.65294 0.0
Eu457 Eu 0.83184 0.68617 0.69998 0.0
C458 C 0.81017 0.7167 0.67177 0.0
C459 C 0.82004 0.66992 0.59908 0.0
C460 C 0.83754 0.69938 0.60191 0.0
C461 C 0.826 0.67146 0.56493 0.0
C462 C 0.84934 0.71479 0.58636 0.0
C463 C 0.81428 0.65609 0.58051 0.0
C464 C 0.84381 0.701 0.56767 0.0
C465 C 0.80934 0.65341 0.61556 0.0
O466 O 0.7847 0.65531 0.69427 0.0
O467 O 0.78382 0.62989 0.66675 0.0
C468 C 0.77232 0.63219 0.68226 0.0
O469 O 0.84522 0.6497 0.66491 0.0
O470 O 0.82051 0.69859 0.72686 0.0
O471 O 0.8581 0.69464 0.727 0.0
O472 O 0.83207 0.64556 0.69552 0.0
C473 C 0.84338 0.63915 0.68148 0.0
O474 O 0.85676 0.70887 0.65601 0.0
O475 O 0.8738 0.71013 0.6871 0.0
O476 O 0.82803 0.72045 0.68658 0.0
O477 O 0.82846 0.65195 0.6267 0.0
O478 O 0.79225 0.65812 0.6254 0.0
O479 O 0.79853 0.69367 0.65971 0.0
C480 C 0.83191 0.6809 0.75386 0.0
C481 C 0.81788 0.65134 0.75088 0.0
C482 C 0.83069 0.67795 0.78841 0.0
C483 C 0.81062 0.6352 0.76657 0.0
C484 C 0.83804 0.69409 0.77269 0.0
C485 C 0.81718 0.64831 0.78555 0.0
C486 C 0.8407 0.69798 0.73743 0.0
C487 C 0.87763 0.71912 0.66984 0.0
H488 H 0.84229 0.71041 0.61619 0.0
H489 H 0.82162 0.66011 0.55081 0.0
H490 H 0.86267 0.73751 0.58897 0.0
H491 H 0.80108 0.63332 0.57811 0.0
H492 H 0.81282 0.64076 0.73642 0.0
H493 H 0.8363 0.68873 0.80282 0.0
H494 H 0.79988 0.61242 0.76382 0.0
H495 H 0.84887 0.7169 0.77525 0.0
Eu496 Eu 0.3575 0.16897 0.66245 0.0
Eu497 Eu 0.3205 0.15321 0.7001 0.0
C498 C 0.3031 0.10679 0.66457 0.0
C499 C 0.3786 0.17331 0.61109 0.0
C500 C 0.35049 0.15526 0.60313 0.0
C501 C 0.39398 0.17921 0.57898 0.0
C502 C 0.34415 0.14928 0.58315 0.0
C503 C 0.40028 0.18516 0.59894 0.0
C504 C 0.36583 0.16127 0.57083 0.0
C505 C 0.38543 0.18074 0.63195 0.0
O506 O 0.35049 0.13603 0.70261 0.0
O507 O 0.38618 0.1676 0.68638 0.0
C508 C 0.37704 0.14848 0.69864 0.0
O509 O 0.37066 0.21062 0.67917 0.0
O510 O 0.29915 0.12395 0.72138 0.0
O511 O 0.30271 0.16509 0.72364 0.0
O512 O 0.36021 0.19491 0.70886 0.0
C513 C 0.37313 0.21543 0.69796 0.0
O514 O 0.31491 0.16318 0.65203 0.0
O515 O 0.29973 0.17082 0.68058 0.0
O516 O 0.29334 0.11731 0.67742 0.0
O517 O 0.37572 0.19608 0.63959 0.0
O518 O 0.3821 0.16045 0.64229 0.0
O519 O 0.32918 0.12143 0.65971 0.0
C520 C 0.31005 0.14823 0.75218 0.0
C521 C 0.33968 0.1611 0.75553 0.0
C522 C 0.30686 0.14794 0.7867 0.0
C523 C 0.35285 0.16768 0.77429 0.0
C524 C 0.29365 0.14144 0.76782 0.0
C525 C 0.33666 0.1615 0.79011 0.0
C526 C 0.29682 0.14264 0.73231 0.0
C527 C 0.29784 0.16859 0.66163 0.0
H528 H 0.33349 0.14598 0.61237 0.0
H529 H 0.41111 0.18912 0.56991 0.0
H530 H 0.32231 0.13515 0.57735 0.0
H531 H 0.42206 0.1993 0.60489 0.0
H532 H 0.35268 0.16633 0.74359 0.0
H533 H 0.29386 0.14308 0.79861 0.0
H534 H 0.37579 0.1777 0.77642 0.0
H535 H 0.27073 0.13147 0.76545 0.0
Eu536 Eu 0.87065 0.19967 0.69277 0.0
Eu537 Eu 0.84098 0.19538 0.64905 0.0
C538 C 0.86966 0.25114 0.67692 0.0
C539 C 0.88344 0.20234 0.74766 0.0
C540 C 0.89978 0.22312 0.7629 0.0
C541 C 0.84891 0.17569 0.76969 0.0
C542 C 0.89077 0.22032 0.78137 0.0
C543 C 0.85784 0.17862 0.75115 0.0
C544 C 0.86526 0.19656 0.785 0.0
C545 C 0.89305 0.20652 0.72821 0.0
O546 O 0.88777 0.21365 0.64681 0.0
O547 O 0.90126 0.19785 0.67289 0.0
C548 C 0.90531 0.20719 0.65578 0.0
O549 O 0.84055 0.15346 0.6837 0.0
O550 O 0.83971 0.2176 0.62446 0.0
O551 O 0.81275 0.17214 0.62298 0.0
O552 O 0.84372 0.15614 0.65133 0.0
C553 C 0.83741 0.1414 0.66625 0.0
O554 O 0.82822 0.19635 0.69707 0.0
O555 O 0.80375 0.17758 0.66689 0.0
O556 O 0.84574 0.23329 0.66675 0.0
O557 O 0.88537 0.1841 0.71634 0.0
O558 O 0.89126 0.22622 0.71978 0.0
O559 O 0.88731 0.24279 0.68259 0.0
C560 C 0.8336 0.19188 0.59484 0.0
C561 C 0.84898 0.17775 0.59277 0.0
C562 C 0.84252 0.20583 0.56247 0.0
C563 C 0.86113 0.17774 0.57567 0.0
C564 C 0.8303 0.20574 0.57954 0.0
C565 C 0.8583 0.19206 0.56039 0.0
C566 C 0.82308 0.19436 0.61339 0.0
C567 C 0.80449 0.18395 0.68544 0.0
H568 H 0.91953 0.24165 0.76047 0.0
H569 H 0.829 0.1573 0.77199 0.0
H570 H 0.90395 0.23661 0.79289 0.0
H571 H 0.84464 0.16248 0.73956 0.0
H572 H 0.85214 0.16724 0.60452 0.0
H573 H 0.83964 0.21674 0.55089 0.0
H574 H 0.8734 0.1672 0.57462 0.0
H575 H 0.81869 0.21693 0.58092 0.0
H576 H 0.32872 0.86431 0.08471 0.0
H577 H 0.26365 0.84279 0.03762 0.0
H578 H 0.29984 0.87699 0.01861 0.0
H579 H 0.37096 0.94015 0.07836 0.0
H580 H 0.40424 0.94149 0.08432 0.0
H581 H 0.37288 0.91686 0.09477 0.0
H582 H 0.37977 0.87571 0.08172 0.0
H583 H 0.41099 0.90018 0.07112 0.0
H584 H 0.38218 0.87064 0.05632 0.0
H585 H 0.34328 0.9109 0.00392 0.0
H586 H 0.39102 0.94352 0.99482 0.0
H587 H 0.42787 0.9436 0.05166 0.0
C588 C 0.32199 0.86727 0.07057 0.0
C589 C 0.29337 0.85088 0.06263 0.0
C590 C 0.28551 0.85493 0.04391 0.0
C591 C 0.30587 0.8744 0.03304 0.0
C592 C 0.33397 0.88978 0.04114 0.0
C593 C 0.34205 0.88664 0.05953 0.0
C594 C 0.37388 0.9049 0.06449 0.0
C595 C 0.3809 0.92717 0.08149 0.0
C596 C 0.3875 0.88677 0.06865 0.0
C597 C 0.38244 0.91839 0.0459 0.0
C598 C 0.35909 0.90947 0.03266 0.0
C599 C 0.36172 0.91826 0.01422 0.0
C600 C 0.38897 0.93671 0.00917 0.0
C601 C 0.41325 0.94618 0.02251 0.0
C602 C 0.40978 0.93691 0.04114 0.0
H603 H 0.15981 0.45389 0.0977 0.0
H604 H 0.19336 0.43941 0.04608 0.0
H605 H 0.157 0.44316 0.02605 0.0
H606 H 0.08536 0.41345 0.07863 0.0
H607 H 0.07608 0.43734 0.09053 0.0
H608 H 0.10479 0.43355 0.1011 0.0
H609 H 0.13882 0.48747 0.1019 0.0
H610 H 0.1102 0.49139 0.09137 0.0
H611 H 0.14263 0.50424 0.07997 0.0
H612 H 0.11828 0.44947 0.01147 0.0
H613 H 0.07878 0.45773 1.00302 0.0
H614 H 0.06825 0.46657 0.06369 0.0
C615 C 0.15937 0.45131 0.08218 0.0
C616 C 0.17977 0.44668 0.07351 0.0
C617 C 0.17849 0.44361 0.05313 0.0
C618 C 0.15773 0.44545 0.04159 0.0
C619 C 0.13814 0.45018 0.05057 0.0
C620 C 0.13864 0.453 0.07038 0.0
C621 C 0.11509 0.45821 0.07623 0.0
C622 C 0.09408 0.4342 0.08727 0.0
C623 C 0.12743 0.48705 0.08807 0.0
C624 C 0.10145 0.45799 0.0566 0.0
C625 C 0.11519 0.45333 0.04205 0.0
C626 C 0.10724 0.453 0.02272 0.0
C627 C 0.08478 0.45779 0.01807 0.0
C628 C 0.07032 0.46273 0.03267 0.0
C629 C 0.07865 0.46254 0.0522 0.0
H630 H 0.54563 0.71483 0.04266 0.0
H631 H 0.63258 0.74902 0.06722 0.0
H632 H 0.63262 0.70684 0.05286 0.0
H633 H 0.52215 0.64719 0.0529 0.0
H634 H 0.49837 0.62972 0.03129 0.0
H635 H 0.50665 0.66466 0.0401 0.0
H636 H 0.5239 0.68272 0.00729 0.0
H637 H 0.51534 0.64765 0.99825 0.0
H638 H 0.55067 0.67703 0.99741 0.0
H639 H 0.62103 0.65875 0.04059 0.0
H640 H 0.59912 0.60803 0.03007 0.0
H641 H 0.51946 0.60449 0.01314 0.0
C642 C 0.56497 0.71383 0.04432 0.0
C643 C 0.58921 0.73514 0.05581 0.0
C644 C 0.61389 0.73286 0.05834 0.0
C645 C 0.61412 0.70908 0.0502 0.0
C646 C 0.58953 0.68789 0.03952 0.0
C647 C 0.56547 0.69011 0.03638 0.0
C648 C 0.54093 0.66303 0.02617 0.0
C649 C 0.51555 0.65042 0.03835 0.0
C650 C 0.5322 0.66791 0.00608 0.0
C651 C 0.55463 0.64491 0.02481 0.0
C652 C 0.58277 0.65981 0.03237 0.0
C653 C 0.5992 0.647 0.03426 0.0
C654 C 0.5865 0.61814 0.02837 0.0
C655 C 0.55765 0.60242 0.02071 0.0
C656 C 0.54169 0.61612 0.01864 0.0
H657 H 0.87746 0.27688 0.94867 0.0
H658 H 0.80057 0.27453 0.96485 0.0
H659 H 0.82957 0.31954 0.98503 0.0
H660 H 0.92058 0.30906 0.99361 0.0
H661 H 0.95242 0.33125 0.98261 0.0
H662 H 0.92579 0.29785 0.97018 0.0
H663 H 0.92243 0.32298 0.94069 0.0
H664 H 0.94924 0.35641 0.95297 0.0
H665 H 0.9153 0.35161 0.94402 0.0
H666 H 0.86659 0.36461 0.00359 0.0
H667 H 0.90919 0.40917 0.01684 0.0
H668 H 0.9621 0.38433 0.9868 0.0
C669 C 0.86661 0.28584 0.95629 0.0
C670 C 0.83657 0.27166 0.95534 0.0
C671 C 0.82347 0.28433 0.96572 0.0
C672 C 0.83977 0.31007 0.97716 0.0
C673 C 0.86921 0.32322 0.9779 0.0
C674 C 0.88255 0.31179 0.96755 0.0
C675 C 0.91453 0.33102 0.97014 0.0
C676 C 0.92918 0.31642 0.97971 0.0
C677 C 0.92605 0.3411 0.95081 0.0
C678 C 0.91702 0.35504 0.98356 0.0
C679 C 0.89062 0.3499 0.98802 0.0
C680 C 0.88739 0.36892 1.00018 0.0
C681 C 0.91176 0.39413 0.0077 0.0
C682 C 0.93901 0.40027 1.00287 0.0
C683 C 0.94159 0.38026 0.99077 0.0
H684 H 0.72609 0.55513 0.96996 0.0
H685 H 0.68936 0.52552 0.91057 0.0
H686 H 0.64273 0.51486 0.92024 0.0
H687 H 0.66504 0.50142 0.99141 0.0
H688 H 0.66852 0.52513 0.01171 0.0
H689 H 0.69951 0.53073 1.00034 0.0
H690 H 0.71139 0.58159 0.99491 0.0
H691 H 0.6805 0.57617 0.0063 0.0
H692 H 0.68501 0.58708 0.98231 0.0
H693 H 0.60075 0.5091 0.93553 0.0
H694 H 0.56487 0.50759 0.95597 0.0
H695 H 0.62655 0.53785 0.00627 0.0
C696 C 0.70821 0.54615 0.959 0.0
C697 C 0.71171 0.54158 0.93939 0.0
C698 C 0.68764 0.52999 0.92557 0.0
C699 C 0.66089 0.52354 0.93095 0.0
C700 C 0.65827 0.52841 0.95029 0.0
C701 C 0.68114 0.5393 0.96417 0.0
C702 C 0.67223 0.54259 0.98395 0.0
C703 C 0.67658 0.52385 0.99766 0.0
C704 C 0.68823 0.57371 0.99236 0.0
C705 C 0.64084 0.53209 0.97893 0.0
C706 C 0.63343 0.5241 0.95937 0.0
C707 C 0.60619 0.51498 0.95088 0.0
C708 C 0.58599 0.51426 0.96262 0.0
C709 C 0.59292 0.52239 0.98268 0.0
C710 C 0.62062 0.53105 0.99103 0.0
H711 H 0.44464 0.14172 0.94097 0.0
H712 H 0.39569 0.14389 0.98714 0.0
H713 H 0.4058 0.11086 0.00369 0.0
H714 H 0.42398 0.06654 0.94132 0.0
H715 H 0.45878 0.07311 0.93653 0.0
H716 H 0.44574 0.09512 0.92755 0.0
H717 H 0.4905 0.13937 0.94467 0.0
H718 H 0.50346 0.11747 0.95391 0.0
H719 H 0.49898 0.14131 0.97023 0.0
H720 H 0.4243 0.08109 0.01652 0.0
H721 H 0.44711 0.05312 0.02376 0.0
H722 H 0.48358 0.06935 0.96907 0.0
C723 C 0.43547 0.13464 0.9543 0.0
C724 C 0.41936 0.14529 0.9628 0.0
C725 C 0.40821 0.13605 0.98047 0.0
C726 C 0.41379 0.1173 0.98995 0.0
C727 C 0.43047 0.10786 0.98152 0.0
C728 C 0.44089 0.11589 0.964 0.0
C729 C 0.45916 0.10343 0.95852 0.0
C730 C 0.44613 0.08335 0.93987 0.0
C731 C 0.48984 0.12679 0.95673 0.0
C732 C 0.45761 0.08746 0.97581 0.0
C733 C 0.44099 0.09036 0.9889 0.0
C734 C 0.43714 0.0784 0.0063 0.0
C735 C 0.45034 0.06269 0.01033 0.0
C736 C 0.46709 0.05899 0.99698 0.0
C737 C 0.47079 0.07166 0.97953 0.0
H738 H 0.70751 0.1677 0.99364 0.0
H739 H 0.6988 0.13666 0.93359 0.0
H740 H 0.64964 0.0999 0.93641 0.0
H741 H 0.66714 0.09982 0.01095 0.0
H742 H 0.6504 0.11096 0.02816 0.0
H743 H 0.6849 0.13594 0.02152 0.0
H744 H 0.66587 0.16873 0.01163 0.0
H745 H 0.6313 0.14383 0.01824 0.0
H746 H 0.63509 0.15504 0.99432 0.0
H747 H 0.60277 0.06593 0.94536 0.0
H748 H 0.55949 0.03545 0.96011 0.0
H749 H 0.59639 0.08728 0.0148 0.0
C750 C 0.69511 0.15319 0.98111 0.0
C751 C 0.70703 0.15503 0.96342 0.0
C752 C 0.69028 0.13569 0.94731 0.0
C753 C 0.66224 0.11473 0.94874 0.0
C754 C 0.65119 0.11336 0.96634 0.0
C755 C 0.66693 0.13198 0.98228 0.0
C756 C 0.64975 0.12512 0.99957 0.0
C757 C 0.6639 0.11751 0.01602 0.0
C758 C 0.64524 0.14964 0.00633 0.0
C759 C 0.62206 0.09957 0.99083 0.0
C760 C 0.62355 0.09338 0.97162 0.0
C761 C 0.60126 0.07053 0.96038 0.0
C762 C 0.57676 0.05327 0.96898 0.0
C763 C 0.57452 0.05884 0.98868 0.0
C764 C 0.59743 0.08255 0.99971 0.0
H765 H 0.85705 0.51418 0.93223 0.0
H766 H 0.83151 0.54369 0.98201 0.0
H767 H 0.86636 0.53865 1.00318 0.0
H768 H 0.86667 0.46194 0.95498 0.0
H769 H 0.89703 0.4681 0.94259 0.0
H770 H 0.87035 0.47439 0.93142 0.0
H771 H 0.90902 0.52576 0.92744 0.0
H772 H 0.93578 0.51958 0.93863 0.0
H773 H 0.93172 0.54842 0.94828 0.0
H774 H 0.90421 0.5305 0.01885 0.0
H775 H 0.94125 0.51884 0.02803 0.0
H776 H 0.94169 0.49407 0.96792 0.0
C777 C 0.85883 0.51957 0.9476 0.0
C778 C 0.84161 0.52929 0.9555 0.0
C779 C 0.84445 0.53614 0.97565 0.0
C780 C 0.86422 0.53339 0.98778 0.0
C781 C 0.8809 0.52373 0.97951 0.0
C782 C 0.87835 0.51685 0.95988 0.0
C783 C 0.89856 0.50664 0.95465 0.0
C784 C 0.88217 0.47594 0.94537 0.0
C785 C 0.92004 0.52628 0.94147 0.0
C786 C 0.91289 0.50884 0.9744 0.0
C787 C 0.90248 0.51882 0.98854 0.0
C788 C 0.9125 0.52265 0.0079 0.0
C789 C 0.93361 0.51599 0.01296 0.0
C790 C 0.94446 0.50549 0.99873 0.0
C791 C 0.9339 0.50199 0.97919 0.0
H792 H 0.40243 0.29341 0.98561 0.0
H793 H 0.47194 0.28882 0.96194 0.0
H794 H 0.50144 0.34088 0.96659 0.0
H795 H 0.41288 0.3561 0.96646 0.0
H796 H 0.40515 0.37011 0.98777 0.0
H797 H 0.38937 0.33252 0.98245 0.0
H798 H 0.4101 0.32934 0.01593 0.0
H799 H 0.42583 0.36693 0.02139 0.0
H800 H 0.44773 0.35091 0.02289 0.0
H801 H 0.52153 0.3932 0.97109 0.0
H802 H 0.53363 0.44268 0.97938 0.0
H803 H 0.45341 0.41327 0.00369 0.0
C804 C 0.42393 0.30349 0.98154 0.0
C805 C 0.43505 0.2874 0.9734 0.0
C806 C 0.46324 0.30098 0.96832 0.0
C807 C 0.48005 0.33046 0.97082 0.0
C808 C 0.46848 0.34584 0.97883 0.0
C809 C 0.4413 0.33286 0.9845 0.0
C810 C 0.43442 0.3543 0.9934 0.0
C811 C 0.40895 0.35318 0.98183 0.0
C812 C 0.42922 0.35012 0.01467 0.0
C813 C 0.46173 0.38138 0.99145 0.0
C814 C 0.48093 0.37602 0.98275 0.0
C815 C 0.50691 0.39768 0.97822 0.0
C816 C 0.51354 0.4256 0.98288 0.0
C817 C 0.49453 0.43143 0.99232 0.0
C818 C 0.46841 0.40913 0.99676 0.0
H819 H 0.16904 0.67592 0.08408 0.0
H820 H 0.18042 0.7205 0.03311 0.0
H821 H 0.14234 0.6767 0.01467 0.0
H822 H 0.15567 0.61016 0.05992 0.0
H823 H 0.12945 0.58884 0.0754 0.0
H824 H 0.15763 0.62369 0.08443 0.0
H825 H 0.12046 0.63728 0.09409 0.0
H826 H 0.09218 0.60248 0.08507 0.0
H827 H 0.09314 0.63308 0.07616 0.0
H828 H 0.10267 0.6277 1.00189 0.0
H829 H 0.06484 0.5776 0.99584 0.0
H830 H 0.07985 0.56573 0.05539 0.0
C831 C 0.16352 0.6764 0.06902 0.0
C832 C 0.17763 0.70147 0.06 0.0
C833 C 0.16988 0.70145 0.0403 0.0
C834 C 0.14828 0.6767 0.02971 0.0
C835 C 0.13472 0.65227 0.03907 0.0
C836 C 0.14206 0.65196 0.05829 0.0
C837 C 0.12424 0.62306 0.06501 0.0
C838 C 0.14286 0.61071 0.07157 0.0
C839 C 0.10645 0.62405 0.08103 0.0
C840 C 0.10569 0.60712 0.04658 0.0
C841 C 0.112 0.62426 0.03177 0.0
C842 C 0.09755 0.61408 0.01339 0.0
C843 C 0.0761 0.5856 0.0101 0.0
C844 C 0.06935 0.56771 0.02513 0.0
C845 C 0.08443 0.57878 0.04357 0.0
H846 H 0.35608 0.47307 0.09702 0.0
H847 H 0.29648 0.46221 0.04878 0.0
H848 H 0.33327 0.47276 0.02673 0.0
H849 H 0.41746 0.53175 0.08003 0.0
H850 H 0.44209 0.5208 0.08826 0.0
H851 H 0.41109 0.5119 0.10066 0.0
H852 H 0.39588 0.45897 0.0958 0.0
H853 H 0.427 0.46776 0.08358 0.0
H854 H 0.39226 0.44265 0.07187 0.0
H855 H 0.37564 0.48344 0.00959 0.0
H856 H 0.4219 0.49503 0.99845 0.0
H857 H 0.4556 0.50084 0.05746 0.0
C858 C 0.35086 0.4729 0.08181 0.0
C859 C 0.32338 0.46687 0.07468 0.0
C860 C 0.31735 0.46694 0.05468 0.0
C861 C 0.33812 0.47284 0.04197 0.0
C862 C 0.36499 0.47886 0.04943 0.0
C863 C 0.37156 0.47909 0.06887 0.0
C864 C 0.40239 0.48675 0.07299 0.0
C865 C 0.41925 0.51445 0.08627 0.0
C866 C 0.40449 0.46258 0.08156 0.0
C867 C 0.41187 0.49046 0.05282 0.0
C868 C 0.38987 0.48571 0.03948 0.0
C869 C 0.3931 0.48732 0.01989 0.0
C870 C 0.4195 0.49389 0.0137 0.0
C871 C 0.44251 0.49897 0.02703 0.0
C872 C 0.43856 0.49732 0.04689 0.0
H873 H 0.57429 0.88846 0.07594 0.0
H874 H 0.53253 0.81514 0.03369 0.0
H875 H 0.51151 0.83839 0.01512 0.0
H876 H 0.51757 0.90453 0.07482 0.0
H877 H 0.54131 0.94219 0.07734 0.0
H878 H 0.55251 0.91943 0.08745 0.0
H879 H 0.59663 0.94067 0.0682 0.0
H880 H 0.58552 0.96345 0.05803 0.0
H881 H 0.5918 0.94022 0.04242 0.0
H882 H 0.49499 0.86992 1.00115 0.0
H883 H 0.4852 0.90766 0.99267 0.0
H884 H 0.53867 0.9603 0.04387 0.0
C885 C 0.56064 0.87731 0.06281 0.0
C886 C 0.55504 0.85009 0.05624 0.0
C887 C 0.53717 0.83608 0.03897 0.0
C888 C 0.52509 0.84909 0.02833 0.0
C889 C 0.53115 0.87606 0.03516 0.0
C890 C 0.54854 0.89002 0.05199 0.0
C891 C 0.55209 0.91902 0.05605 0.0
C892 C 0.54015 0.92142 0.07504 0.0
C893 C 0.58337 0.9422 0.05617 0.0
C894 C 0.53409 0.91925 0.03885 0.0
C895 C 0.52203 0.89426 0.027 0.0
C896 C 0.50436 0.88961 0.01031 0.0
C897 C 0.49891 0.91114 0.00561 0.0
C898 C 0.51129 0.93698 0.01753 0.0
C899 C 0.52905 0.94091 0.03434 0.0
H900 H 0.9776 0.21746 0.40829 0.0
H901 H 0.96556 0.13719 0.38377 0.0
H902 H 0.00737 0.16251 0.3659 0.0
H903 H 1.00225 0.25597 0.36721 0.0
H904 H 0.0284 0.2882 0.38122 0.0
H905 H 0.99667 0.26383 0.39143 0.0
H906 H 0.02727 0.26137 0.42023 0.0
H907 H 0.05908 0.28584 0.41015 0.0
H908 H 0.0539 0.25201 0.41568 0.0
H909 H 0.0509 0.19667 0.35075 0.0
H910 H 0.0941 0.23693 0.34089 0.0
H911 H 0.07929 0.29473 0.37678 0.0
C912 C 0.98378 0.20506 0.39934 0.0
C913 C 0.96789 0.17516 0.39742 0.0
C914 C 0.97679 0.16003 0.38524 0.0
C915 C 1.0007 0.17424 0.3751 0.0
C916 C 0.01578 0.20365 0.37736 0.0
C917 C 0.00781 0.21888 0.38931 0.0
C918 C 0.02822 0.25034 0.38973 0.0
C919 C 0.01297 0.26547 0.38193 0.0
C920 C 0.04299 0.26313 0.41016 0.0
C921 C 0.04893 0.25041 0.37616 0.0
C922 C 0.04126 0.22328 0.36906 0.0
C923 C 0.05712 0.21801 0.35624 0.0
C924 C 0.08161 0.24106 0.35067 0.0
C925 C 0.09018 0.26905 0.35803 0.0
C926 C 0.07341 0.27364 0.37088 0.0
H927 H 0.8611 0.82826 0.39399 0.0
H928 H 0.81189 0.74888 0.4184 0.0
H929 H 0.76764 0.74608 0.40513 0.0
H930 H 0.81565 0.8557 0.40289 0.0
H931 H 0.81957 0.87177 0.38066 0.0
H932 H 0.84773 0.86718 0.39123 0.0
H933 H 0.84635 0.83938 0.35954 0.0
H934 H 0.81824 0.844 0.34883 0.0
H935 H 0.8133 0.80905 0.34945 0.0
H936 H 0.72895 0.75295 0.39126 0.0
H937 H 0.69749 0.76811 0.37622 0.0
H938 H 0.77085 0.84235 0.35944 0.0
C939 C 0.84101 0.81009 0.39627 0.0
C940 C 0.84 0.78891 0.40741 0.0
C941 C 0.81325 0.76562 0.41023 0.0
C942 C 0.78797 0.76372 0.40265 0.0
C943 C 0.78968 0.78516 0.39209 0.0
C944 C 0.81544 0.8078 0.38872 0.0
C945 C 0.81107 0.82823 0.37723 0.0
C946 C 0.82429 0.85745 0.38869 0.0
C947 C 0.82294 0.83028 0.3576 0.0
C948 C 0.77886 0.81367 0.37492 0.0
C949 C 0.76707 0.78886 0.38363 0.0
C950 C 0.73788 0.77219 0.38421 0.0
C951 C 0.7202 0.78107 0.37567 0.0
C952 C 0.73166 0.80636 0.36655 0.0
C953 C 0.76143 0.82275 0.36609 0.0
H954 H 0.22547 0.06049 0.38342 0.0
H955 H 0.3165 0.0943 0.39131 0.0
H956 H 0.31044 0.05095 0.37391 0.0
H957 H 0.20604 0.99332 0.39259 0.0
H958 H 0.17565 0.97516 0.37488 0.0
H959 H 0.1871 0.01064 0.38462 0.0
H960 H 0.1916 0.02676 0.35027 0.0
H961 H 0.17976 0.99116 0.34034 0.0
H962 H 0.21299 0.01986 0.33455 0.0
H963 H 0.29432 0.00173 0.36156 0.0
H964 H 0.26914 0.95036 0.35218 0.0
H965 H 0.18841 0.94806 0.35056 0.0
C966 C 0.24414 0.05914 0.38076 0.0
C967 C 0.27146 0.0807 0.38858 0.0
C968 C 0.29541 0.07795 0.38538 0.0
C969 C 0.29218 0.05347 0.37548 0.0
C970 C 0.26488 0.03205 0.36867 0.0
C971 C 0.24126 0.03474 0.37084 0.0
C972 C 0.21414 0.00746 0.36371 0.0
C973 C 0.1946 0.99598 0.37992 0.0
C974 C 0.19871 0.01156 0.34617 0.0
C975 C 0.22618 0.98872 0.35805 0.0
C976 C 0.25553 0.00345 0.36092 0.0
C977 C 0.27141 0.99012 0.35874 0.0
C978 C 0.25695 0.96095 0.35356 0.0
C979 C 0.22697 0.9455 0.35043 0.0
C980 C 0.21142 0.95962 0.3524 0.0
H981 H 0.49135 0.63203 0.2922 0.0
H982 H 0.54259 0.60046 0.26728 0.0
H983 H 0.58599 0.64504 0.27917 0.0
H984 H 0.53356 0.70351 0.28216 0.0
H985 H 0.52959 0.71864 0.30453 0.0
H986 H 0.5022 0.68402 0.29436 0.0
H987 H 0.50604 0.66335 0.32605 0.0
H988 H 0.53335 0.69795 0.33637 0.0
H989 H 0.54005 0.66889 0.33562 0.0
H990 H 0.62368 0.69342 0.29229 0.0
H991 H 0.65382 0.74209 0.30751 0.0
H992 H 0.57899 0.74225 0.32551 0.0
C993 C 0.5117 0.63435 0.28946 0.0
C994 C 0.51344 0.61277 0.27855 0.0
C995 C 0.54057 0.61684 0.27518 0.0
C996 C 0.56541 0.64204 0.282 0.0
C997 C 0.56292 0.66298 0.29239 0.0
C998 C 0.53684 0.6594 0.29629 0.0
C999 C 0.5403 0.68546 0.30777 0.0
C1000 C 0.52554 0.69868 0.29653 0.0
C1001 C 0.52928 0.67849 0.32763 0.0
C1002 C 0.57237 0.70425 0.30956 0.0
C1003 C 0.58491 0.69083 0.30049 0.0
C1004 C 0.61414 0.70409 0.29958 0.0
C1005 C 0.63108 0.7318 0.30822 0.0
C1006 C 0.61882 0.74596 0.3178 0.0
C1007 C 0.58903 0.73188 0.31849 0.0
H1008 H 0.3741 0.91376 0.26985 0.0
H1009 H 0.37567 0.83856 0.28454 0.0
H1010 H 0.33452 0.82553 0.30284 0.0
H1011 H 0.35307 0.93 0.31307 0.0
H1012 H 0.32896 0.93974 0.30192 0.0
H1013 H 0.35887 0.94368 0.2899 0.0
H1014 H 0.32518 0.91262 0.25982 0.0
H1015 H 0.29516 0.90885 0.27166 0.0
H1016 H 0.29603 0.87794 0.2625 0.0
H1017 H 0.29502 0.82208 0.32144 0.0
H1018 H 0.25595 0.82523 0.3354 0.0
H1019 H 0.27672 0.89965 0.30598 0.0
C1020 C 0.36562 0.89426 0.27657 0.0
C1021 C 0.37892 0.87767 0.27599 0.0
C1022 C 0.36684 0.85238 0.28523 0.0
C1023 C 0.34318 0.84456 0.29556 0.0
C1024 C 0.33117 0.86176 0.2962 0.0
C1025 C 0.34152 0.88571 0.28657 0.0
C1026 C 0.32401 0.89998 0.28908 0.0
C1027 C 0.34233 0.93013 0.29909 0.0
C1028 C 0.30922 0.89983 0.26961 0.0
C1029 C 0.30269 0.88067 0.302 0.0
C1030 C 0.30733 0.85887 0.30605 0.0
C1031 C 0.29099 0.8389 0.31822 0.0
C1032 C 0.269 0.84099 0.32621 0.0
C1033 C 0.26334 0.86268 0.32181 0.0
C1034 C 0.28049 0.88277 0.30956 0.0
H1035 H 0.14473 0.5123 0.31878 0.0
H1036 H 0.06726 0.46107 0.28066 0.0
H1037 H 0.06894 0.41832 0.28738 0.0
H1038 H 0.17923 0.47436 0.30643 0.0
H1039 H 0.19484 0.47733 0.33052 0.0
H1040 H 0.18715 0.50401 0.32335 0.0
H1041 H 0.15658 0.49629 0.35188 0.0
H1042 H 0.16431 0.46968 0.35921 0.0
H1043 H 0.12796 0.46133 0.35458 0.0
H1044 H 0.0805 0.38155 0.29649 0.0
H1045 H 0.09983 0.35268 0.30895 0.0
H1046 H 0.16846 0.42718 0.34242 0.0
C1047 C 0.12785 0.49206 0.3121 0.0
C1048 C 0.106 0.49013 0.29904 0.0
C1049 C 0.08453 0.46319 0.29043 0.0
C1050 C 0.08517 0.43874 0.29425 0.0
C1051 C 0.10725 0.44144 0.30689 0.0
C1052 C 0.12805 0.46734 0.31586 0.0
C1053 C 0.14966 0.46435 0.32861 0.0
C1054 C 0.17948 0.481 0.32182 0.0
C1055 C 0.14961 0.47345 0.34983 0.0
C1056 C 0.13792 0.4328 0.32521 0.0
C1057 C 0.11348 0.42002 0.31259 0.0
C1058 C 0.09944 0.39124 0.30656 0.0
C1059 C 0.11065 0.37504 0.31365 0.0
C1060 C 0.13552 0.38763 0.32676 0.0
C1061 C 0.14919 0.41688 0.33264 0.0
H1062 H 0.33355 0.47279 0.26777 0.0
H1063 H 0.39541 0.51492 0.31762 0.0
H1064 H 0.35879 0.48681 0.33891 0.0
H1065 H 0.27334 0.46861 0.2899 0.0
H1066 H 0.24857 0.43432 0.27765 0.0
H1067 H 0.27957 0.45821 0.26656 0.0
H1068 H 0.29425 0.42001 0.26328 0.0
H1069 H 0.26329 0.39608 0.27436 0.0
H1070 H 0.29807 0.40433 0.28439 0.0
H1071 H 0.31501 0.45278 0.35469 0.0
H1072 H 0.26823 0.41623 0.3634 0.0
H1073 H 0.23564 0.39718 0.30296 0.0
C1074 C 0.33933 0.47617 0.28318 0.0
C1075 C 0.36725 0.49603 0.29105 0.0
C1076 C 0.37411 0.49985 0.31127 0.0
C1077 C 0.35345 0.48397 0.32348 0.0
C1078 C 0.32606 0.46446 0.31523 0.0
C1079 C 0.319 0.46059 0.29552 0.0
C1080 C 0.28824 0.43811 0.29018 0.0
C1081 C 0.27145 0.45057 0.28051 0.0
C1082 C 0.28584 0.41316 0.2773 0.0
C1083 C 0.27909 0.42977 0.30993 0.0
C1084 C 0.3011 0.44517 0.32423 0.0
C1085 C 0.29761 0.44069 0.34359 0.0
C1086 C 0.27096 0.41988 0.34841 0.0
C1087 C 0.24817 0.40382 0.33391 0.0
C1088 C 0.25248 0.40909 0.31446 0.0
H1089 H 0.54834 0.91969 0.30054 0.0
H1090 H 0.49075 0.84538 0.2619 0.0
H1091 H 0.51881 0.82287 0.2709 0.0
H1092 H 0.61315 0.9191 0.29364 0.0
H1093 H 0.62707 0.92943 0.31862 0.0
H1094 H 0.60333 0.94028 0.30844 0.0
H1095 H 0.56977 0.91765 0.3349 0.0
H1096 H 0.59337 0.90667 0.34513 0.0
H1097 H 0.55655 0.88097 0.33815 0.0
H1098 H 0.55431 0.80949 0.28286 0.0
H1099 H 0.59237 0.804 0.29942 0.0
H1100 H 0.6241 0.88459 0.33306 0.0
C1101 C 0.54186 0.89876 0.29393 0.0
C1102 C 0.51761 0.88427 0.28043 0.0
C1103 C 0.50931 0.85675 0.27227 0.0
C1104 C 0.52513 0.84386 0.27726 0.0
C1105 C 0.54885 0.85858 0.29073 0.0
C1106 C 0.55698 0.88525 0.29918 0.0
C1107 C 0.5825 0.8958 0.31398 0.0
C1108 C 0.60802 0.92275 0.30832 0.0
C1109 C 0.57509 0.90054 0.33424 0.0
C1110 C 0.58761 0.87102 0.31236 0.0
C1111 C 0.56817 0.84997 0.29865 0.0
C1112 C 0.56941 0.82564 0.2938 0.0
C1113 C 0.59107 0.82272 0.30323 0.0
C1114 C 0.61077 0.84369 0.31762 0.0
C1115 C 0.6089 0.86805 0.32234 0.0
H1116 H 0.08675 0.63531 0.33176 0.0
H1117 H 0.15784 0.63608 0.30645 0.0
H1118 H 0.18157 0.68801 0.30674 0.0
H1119 H 0.08552 0.68959 0.30739 0.0
H1120 H 0.07769 0.70523 0.32781 0.0
H1121 H 0.06634 0.66817 0.32585 0.0
H1122 H 0.09291 0.67443 0.35935 0.0
H1123 H 0.10411 0.71147 0.3615 0.0
H1124 H 0.13015 0.70043 0.36388 0.0
H1125 H 0.19533 0.73906 0.30708 0.0
H1126 H 0.20171 0.78697 0.31176 0.0
H1127 H 0.1241 0.75389 0.33985 0.0
C1128 C 0.10746 0.64654 0.32649 0.0
C1129 C 0.12056 0.63187 0.31912 0.0
C1130 C 0.14763 0.64706 0.31233 0.0
C1131 C 0.16115 0.67649 0.31233 0.0
C1132 C 0.14754 0.69036 0.31951 0.0
C1133 C 0.12159 0.67599 0.32687 0.0
C1134 C 0.11191 0.69607 0.33421 0.0
C1135 C 0.08369 0.68936 0.32315 0.0
C1136 C 0.10965 0.69557 0.35603 0.0
C1137 C 0.13624 0.72391 0.32953 0.0
C1138 C 0.15635 0.72007 0.32079 0.0
C1139 C 0.17995 0.7424 0.31415 0.0
C1140 C 0.18329 0.76944 0.31674 0.0
C1141 C 0.16344 0.77396 0.32622 0.0
C1142 C 0.13968 0.75093 0.33273 0.0
H1143 H 0.83605 0.04449 0.37568 0.0
H1144 H 0.80355 0.0504 0.42988 0.0
H1145 H 0.76772 0.99965 0.42459 0.0
H1146 H 0.76739 0.99819 0.35006 0.0
H1147 H 0.77894 0.97822 0.33561 0.0
H1148 H 0.80364 0.01452 0.34423 0.0
H1149 H 0.83767 0.99975 0.36025 0.0
H1150 H 0.81305 0.96339 0.35166 0.0
H1151 H 0.82468 0.9733 0.377 0.0
H1152 H 0.73617 0.94869 0.41395 0.0
H1153 H 0.70707 0.90095 0.397 0.0
H1154 H 0.75661 0.92806 0.34811 0.0
C1155 C 0.82155 0.03491 0.38647 0.0
C1156 C 0.82265 0.0511 0.40333 0.0
C1157 C 0.80301 0.03818 0.41695 0.0
C1158 C 0.78269 0.00941 0.4141 0.0
C1159 C 0.78197 0.99396 0.39734 0.0
C1160 C 0.80055 0.00622 0.3836 0.0
C1161 C 0.79376 0.98505 0.3663 0.0
C1162 C 0.78544 0.99457 0.34797 0.0
C1163 C 0.81878 0.98008 0.36366 0.0
C1164 C 0.76852 0.95909 0.37251 0.0
C1165 C 0.76246 0.96468 0.39062 0.0
C1166 C 0.74057 0.94405 0.39971 0.0
C1167 C 0.72422 0.91698 0.38999 0.0
C1168 C 0.72948 0.91085 0.37121 0.0
C1169 C 0.75196 0.93223 0.36238 0.0
H1170 H 0.02096 0.82873 0.4213 0.0
H1171 H 0.96076 0.81058 0.37168 0.0
H1172 H 0.99771 0.81809 0.35008 0.0
H1173 H 0.08252 0.8837 0.40253 0.0
H1174 H 0.10644 0.87317 0.41293 0.0
H1175 H 0.07527 0.8665 0.4244 0.0
H1176 H 0.05974 0.81355 0.42312 0.0
H1177 H 0.09057 0.81988 0.41132 0.0
H1178 H 0.05564 0.79416 0.40029 0.0
H1179 H 0.04131 0.82705 0.33384 0.0
H1180 H 0.08816 0.83714 0.32431 0.0
H1181 H 0.11985 0.84982 0.38463 0.0
C1182 C 0.01562 0.82642 0.40588 0.0
C1183 C 0.98804 0.81914 0.39817 0.0
C1184 C 0.98175 0.81619 0.37793 0.0
C1185 C 1.00261 0.82041 0.36554 0.0
C1186 C 0.02962 0.82758 0.37361 0.0
C1187 C 0.03617 0.83057 0.39333 0.0
C1188 C 0.06673 0.83818 0.39834 0.0
C1189 C 0.08374 0.86711 0.41025 0.0
C1190 C 0.06823 0.81505 0.40889 0.0
C1191 C 0.0764 0.83918 0.37837 0.0
C1192 C 0.05469 0.8329 0.36429 0.0
C1193 C 0.0585 0.83209 0.34475 0.0
C1194 C 0.08519 0.83783 0.33947 0.0
C1195 C 0.1078 0.84443 0.35368 0.0
C1196 C 0.10317 0.84511 0.37338 0.0
H1197 H 0.23678 0.18715 0.35758 0.0
H1198 H 0.23168 0.1885 0.41938 0.0
H1199 H 0.21646 0.22375 0.41814 0.0
H1200 H 0.26433 0.26138 0.35511 0.0
H1201 H 0.2442 0.25717 0.33255 0.0
H1202 H 0.25405 0.23129 0.33795 0.0
H1203 H 0.20122 0.19178 0.33234 0.0
H1204 H 0.19123 0.21753 0.32683 0.0
H1205 H 0.17535 0.19497 0.34555 0.0
H1206 H 0.20271 0.25908 0.4107 0.0
H1207 H 0.19005 0.29223 0.39736 0.0
H1208 H 0.20389 0.26905 0.34012 0.0
C1209 C 0.23227 0.1948 0.37079 0.0
C1210 C 0.2355 0.18515 0.38856 0.0
C1211 C 0.22952 0.19564 0.40559 0.0
C1212 C 0.22082 0.21569 0.40505 0.0
C1213 C 0.21818 0.22504 0.38738 0.0
C1214 C 0.22361 0.21497 0.37053 0.0
C1215 C 0.2193 0.22892 0.35352 0.0
C1216 C 0.24713 0.24568 0.34424 0.0
C1217 C 0.19535 0.20699 0.33868 0.0
C1218 C 0.21072 0.24843 0.36352 0.0
C1219 C 0.21022 0.24573 0.38305 0.0
C1220 C 0.20296 0.26137 0.39543 0.0
C1221 C 0.19578 0.28018 0.38766 0.0
C1222 C 0.19592 0.2833 0.36765 0.0
C1223 C 0.20367 0.26725 0.35547 0.0
H1224 H 0.63983 0.54999 0.74267 0.0
H1225 H 0.62187 0.47252 0.70936 0.0
H1226 H 0.66159 0.50009 0.69028 0.0
H1227 H 0.66114 0.59525 0.70489 0.0
H1228 H 0.68946 0.62502 0.71981 0.0
H1229 H 0.6588 0.5994 0.73038 0.0
H1230 H 0.6913 0.59118 0.75449 0.0
H1231 H 0.72207 0.61693 0.7441 0.0
H1232 H 0.71608 0.58171 0.74548 0.0
H1233 H 0.70347 0.53626 0.67468 0.0
H1234 H 0.74605 0.57774 0.66529 0.0
H1235 H 0.73839 0.63096 0.71021 0.0
C1236 C 0.64431 0.53861 0.73155 0.0
C1237 C 0.62732 0.50892 0.72753 0.0
C1238 C 0.63396 0.49524 0.71254 0.0
C1239 C 0.65667 0.51071 0.70166 0.0
C1240 C 0.67284 0.53987 0.70603 0.0
C1241 C 0.66714 0.55365 0.72075 0.0
C1242 C 0.68838 0.58504 0.72299 0.0
C1243 C 0.67355 0.60218 0.71929 0.0
C1244 C 0.70547 0.59425 0.74295 0.0
C1245 C 0.70687 0.58679 0.70718 0.0
C1246 C 0.69744 0.56055 0.69746 0.0
C1247 C 0.71107 0.5569 0.68222 0.0
C1248 C 0.7352 0.58064 0.67695 0.0
C1249 C 0.74561 0.60767 0.68699 0.0
C1250 C 0.73103 0.61064 0.70223 0.0
H1251 H 0.52524 0.15647 0.73018 0.0
H1252 H 0.47524 0.07545 0.75247 0.0
H1253 H 0.43141 0.07536 0.74194 0.0
H1254 H 0.48218 0.18584 0.74276 0.0
H1255 H 0.48544 0.20307 0.72109 0.0
H1256 H 0.51337 0.19701 0.73011 0.0
H1257 H 0.50949 0.17015 0.69733 0.0
H1258 H 0.48168 0.1763 0.68816 0.0
H1259 H 0.47559 0.14081 0.68744 0.0
H1260 H 0.39309 0.08466 0.73068 0.0
H1261 H 0.36199 0.10115 0.71692 0.0
H1262 H 0.43563 0.17501 0.70002 0.0
C1263 C 0.50507 0.13855 0.73262 0.0
C1264 C 0.50387 0.11619 0.74249 0.0
C1265 C 0.47692 0.09321 0.74543 0.0
C1266 C 0.4518 0.09283 0.73938 0.0
C1267 C 0.45376 0.11541 0.73012 0.0
C1268 C 0.4796 0.13769 0.7265 0.0
C1269 C 0.47545 0.15917 0.71613 0.0
C1270 C 0.48998 0.18797 0.72825 0.0
C1271 C 0.48619 0.16175 0.69607 0.0
C1272 C 0.44331 0.14552 0.71469 0.0
C1273 C 0.43133 0.12036 0.72297 0.0
C1274 C 0.40217 0.10421 0.72399 0.0
C1275 C 0.38467 0.11385 0.71619 0.0
C1276 C 0.39628 0.13933 0.70729 0.0
C1277 C 0.42606 0.15534 0.70658 0.0
H1278 H 0.93146 0.41589 0.70442 0.0
H1279 H 0.88624 0.39278 0.75537 0.0
H1280 H 0.86567 0.34228 0.74415 0.0
H1281 H 0.87703 0.35806 0.67083 0.0
H1282 H 0.90238 0.35325 0.6581 0.0
H1283 H 0.91208 0.38762 0.66942 0.0
H1284 H 0.95535 0.38996 0.68875 0.0
H1285 H 0.9458 0.35565 0.67749 0.0
H1286 H 0.94986 0.362 0.70338 0.0
H1287 H 0.85087 0.29482 0.72801 0.0
H1288 H 0.8448 0.25267 0.70866 0.0
H1289 H 0.90098 0.30597 0.6687 0.0
C1290 C 0.91697 0.4001 0.71303 0.0
C1291 C 0.91026 0.40801 0.73069 0.0
C1292 C 0.89163 0.38697 0.74183 0.0
C1293 C 0.87977 0.35833 0.73553 0.0
C1294 C 0.88694 0.35115 0.71814 0.0
C1295 C 0.90524 0.37136 0.70708 0.0
C1296 C 0.91065 0.35784 0.68951 0.0
C1297 C 0.89988 0.3646 0.67086 0.0
C1298 C 0.94229 0.3669 0.68981 0.0
C1299 C 0.89273 0.32692 0.69253 0.0
C1300 C 0.87896 0.3236 0.70902 0.0
C1301 C 0.86141 0.29712 0.71503 0.0
C1302 C 0.85802 0.27337 0.70397 0.0
C1303 C 0.87226 0.27637 0.68726 0.0
C1304 C 0.88977 0.30337 0.6814 0.0
H1305 H 0.15516 0.96655 0.62998 0.0
H1306 H 0.2035 0.93416 0.60177 0.0
H1307 H 0.24804 0.97739 0.61429 0.0
H1308 H 0.19822 0.03788 0.6213 0.0
H1309 H 0.1955 0.05253 0.6443 0.0
H1310 H 0.16728 0.01848 0.6339 0.0
H1311 H 0.17159 0.9962 0.66469 0.0
H1312 H 0.19971 0.03025 0.67525 0.0
H1313 H 0.20554 1.00065 0.67328 0.0
H1314 H 0.28714 0.02521 0.62809 0.0
H1315 H 0.31844 0.07352 0.6438 0.0
H1316 H 0.24508 0.07439 0.66411 0.0
C1317 C 0.17512 0.96833 0.62672 0.0
C1318 C 0.17577 0.947 0.61476 0.0
C1319 C 0.20239 0.95037 0.61063 0.0
C1320 C 0.22784 0.9748 0.61776 0.0
C1321 C 0.22642 0.99563 0.62917 0.0
C1322 C 0.2008 0.99258 0.6338 0.0
C1323 C 0.20526 0.01847 0.64603 0.0
C1324 C 0.1907 0.03267 0.63576 0.0
C1325 C 0.19491 0.01093 0.666 0.0
C1326 C 0.23734 0.03662 0.64735 0.0
C1327 C 0.2491 0.02305 0.63749 0.0
C1328 C 0.27822 0.03596 0.63603 0.0
C1329 C 0.29581 0.06345 0.64494 0.0
C1330 C 0.28428 0.0777 0.65529 0.0
C1331 C 0.25462 0.06396 0.6565 0.0
H1332 H 0.06017 0.2298 0.63899 0.0
H1333 H 0.03119 0.21297 0.57786 0.0
H1334 H 0.98511 0.20649 0.58528 0.0
H1335 H 0.99197 0.17673 0.65394 0.0
H1336 H 0.9951 0.19769 0.67577 0.0
H1337 H 0.02658 0.20163 0.66595 0.0
H1338 H 0.04573 0.2552 0.66527 0.0
H1339 H 0.01428 0.25141 0.67502 0.0
H1340 H 0.02429 0.26696 0.6527 0.0
H1341 H 0.94324 0.20401 0.59845 0.0
H1342 H 0.90562 0.20191 0.61713 0.0
H1343 H 0.95822 0.21625 0.67037 0.0
C1344 C 0.04408 0.22457 0.62718 0.0
C1345 C 0.04987 0.22273 0.60776 0.0
C1346 C 0.02798 0.21565 0.5928 0.0
C1347 C 1.00147 0.21159 0.59686 0.0
C1348 C 0.9967 0.21411 0.616 0.0
C1349 C 0.01711 0.22004 0.63099 0.0
C1350 C 1.00582 0.221 0.65028 0.0
C1351 C 1.00481 0.19788 0.66219 0.0
C1352 C 0.02359 0.25039 0.66148 0.0
C1353 C 0.97607 0.21498 0.64367 0.0
C1354 C 0.97154 0.21129 0.6238 0.0
C1355 C 0.94639 0.20661 0.61403 0.0
C1356 C 0.92517 0.20558 0.62482 0.0
C1357 C 0.92888 0.20885 0.64523 0.0
C1358 C 0.95468 0.21344 0.6548 0.0
H1359 H 0.7456 0.79595 0.61286 0.0
H1360 H 0.80481 0.87203 0.64985 0.0
H1361 H 0.81951 0.8444 0.66882 0.0
H1362 H 0.72606 0.74655 0.64918 0.0
H1363 H 0.72564 0.71913 0.63341 0.0
H1364 H 0.71754 0.74425 0.62359 0.0
H1365 H 0.75724 0.75748 0.60081 0.0
H1366 H 0.76538 0.73234 0.61052 0.0
H1367 H 0.79288 0.76872 0.61086 0.0
H1368 H 0.82927 0.80938 0.68325 0.0
H1369 H 0.83556 0.76953 0.69102 0.0
H1370 H 0.77257 0.7165 0.64356 0.0
C1371 C 0.76165 0.80689 0.62494 0.0
C1372 C 0.77353 0.83622 0.62999 0.0
C1373 C 0.79453 0.8495 0.64597 0.0
C1374 C 0.80327 0.83401 0.6568 0.0
C1375 C 0.79115 0.80526 0.6514 0.0
C1376 C 0.77099 0.79182 0.63577 0.0
C1377 C 0.76272 0.76101 0.63237 0.0
C1378 C 0.73111 0.74159 0.63479 0.0
C1379 C 0.77 0.75452 0.61246 0.0
C1380 C 0.78158 0.7594 0.64845 0.0
C1381 C 0.79754 0.78511 0.65937 0.0
C1382 C 0.81684 0.78909 0.67485 0.0
C1383 C 0.82022 0.76627 0.67916 0.0
C1384 C 0.80456 0.73982 0.66793 0.0
C1385 C 0.7848 0.73638 0.65247 0.0
H1386 H 0.99233 0.81524 0.60111 0.0
H1387 H 0.05566 0.84776 0.65054 0.0
H1388 H 0.01872 0.81826 0.67117 0.0
H1389 H 0.93498 0.81236 0.62627 0.0
H1390 H 0.90816 0.78015 0.61258 0.0
H1391 H 0.93952 0.80408 0.60185 0.0
H1392 H 0.95012 0.76369 0.59418 0.0
H1393 H 0.91875 0.73969 0.60485 0.0
H1394 H 0.95277 0.74425 0.61335 0.0
H1395 H 0.9745 0.78404 0.68627 0.0
H1396 H 0.92692 0.74848 0.69445 0.0
H1397 H 0.8931 0.73926 0.63499 0.0
C1398 C 0.99837 0.8162 0.6163 0.0
C1399 C 0.02679 0.83378 0.62424 0.0
C1400 C 0.03398 0.83448 0.64415 0.0
C1401 C 0.01314 0.81779 0.65598 0.0
C1402 C 0.98526 0.80061 0.64768 0.0
C1403 C 0.97787 0.79977 0.62828 0.0
C1404 C 0.9465 0.77943 0.62283 0.0
C1405 C 0.93141 0.79495 0.61545 0.0
C1406 C 0.94178 0.75534 0.60793 0.0
C1407 C 0.93743 0.76883 0.64216 0.0
C1408 C 0.96 0.78123 0.65634 0.0
C1409 C 0.95666 0.77428 0.67528 0.0
C1410 C 0.92956 0.75406 0.6798 0.0
C1411 C 0.90617 0.74108 0.66543 0.0
C1412 C 0.91037 0.7488 0.64641 0.0
H1413 H 0.16959 0.20035 0.64122 0.0
H1414 H 0.16142 0.16481 0.5825 0.0
H1415 H 0.20108 0.15667 0.59071 0.0
H1416 H 0.24627 0.23544 0.6492 0.0
H1417 H 0.24716 0.22733 0.67376 0.0
H1418 H 0.21808 0.23081 0.66353 0.0
H1419 H 0.18231 0.1808 0.67217 0.0
H1420 H 0.21128 0.17721 0.68246 0.0
H1421 H 0.18608 0.15125 0.6638 0.0
H1422 H 0.24175 0.15333 0.60437 0.0
H1423 H 0.28039 0.15232 0.62346 0.0
H1424 H 0.26266 0.18813 0.6743 0.0
C1425 C 0.17621 0.19085 0.63017 0.0
C1426 C 0.1625 0.18326 0.61117 0.0
C1427 C 0.17163 0.17075 0.59712 0.0
C1428 C 0.19418 0.16608 0.60162 0.0
C1429 C 0.20735 0.17381 0.62035 0.0
C1430 C 0.1987 0.1857 0.63451 0.0
C1431 C 0.21653 0.19142 0.65358 0.0
C1432 C 0.23298 0.22314 0.66041 0.0
C1433 C 0.19794 0.17414 0.66891 0.0
C1434 C 0.2365 0.18103 0.64779 0.0
C1435 C 0.23079 0.17116 0.6285 0.0
C1436 C 0.24641 0.16089 0.61952 0.0
C1437 C 0.26844 0.16051 0.63054 0.0
C1438 C 0.27469 0.17013 0.65044 0.0
C1439 C 0.25839 0.18052 0.65916 0.0
H1440 H 0.78755 0.99593 0.60344 0.0
H1441 H 0.76989 0.95492 0.65621 0.0
H1442 H 0.78485 1.00073 0.67478 0.0
H1443 H 0.84994 0.05928 0.62299 0.0
H1444 H 0.84261 0.08177 0.60882 0.0
H1445 H 0.82958 0.04562 0.59977 0.0
H1446 H 0.77823 0.03703 0.59555 0.0
H1447 H 0.79115 0.0732 0.60452 0.0
H1448 H 0.76359 0.04501 0.61586 0.0
H1449 H 0.80289 0.05171 0.68754 0.0
H1450 H 0.82188 0.10318 0.69331 0.0
H1451 H 0.82779 0.10998 0.63194 0.0
C1452 C 0.78665 0.99659 0.6189 0.0
C1453 C 0.77757 0.972 0.6284 0.0
C1454 C 0.77678 0.97357 0.64864 0.0
C1455 C 0.78524 0.99948 0.6593 0.0
C1456 C 0.79438 0.02346 0.64946 0.0
C1457 C 0.79505 0.02218 0.6297 0.0
C1458 C 0.80615 0.05095 0.62255 0.0
C1459 C 0.83371 0.05993 0.61297 0.0
C1460 C 0.78342 0.05157 0.60881 0.0
C1461 C 0.81173 0.06871 0.64137 0.0
C1462 C 0.8048 0.05256 0.65676 0.0
C1463 C 0.80834 0.06454 0.67558 0.0
C1464 C 0.81918 0.09379 0.67872 0.0
C1465 C 0.82637 0.11065 0.6631 0.0
C1466 C 0.82255 0.09778 0.64423 0.0
H1467 H 0.49589 0.3781 0.70841 0.0
H1468 H 0.46136 0.38808 0.76073 0.0
H1469 H 0.42537 0.33731 0.75659 0.0
H1470 H 0.42783 0.32954 0.68214 0.0
H1471 H 0.44043 0.30889 0.66963 0.0
H1472 H 0.46444 0.34575 0.67713 0.0
H1473 H 0.49838 0.3331 0.69582 0.0
H1474 H 0.47443 0.29619 0.6884 0.0
H1475 H 0.48499 0.3083 0.71364 0.0
H1476 H 0.3944 0.28556 0.74757 0.0
H1477 H 0.36681 0.23651 0.73237 0.0
H1478 H 0.41854 0.26026 0.6844 0.0
C1479 C 0.4808 0.36948 0.71899 0.0
C1480 C 0.48144 0.3868 0.735 0.0
C1481 C 0.46114 0.37502 0.74841 0.0
C1482 C 0.44073 0.34625 0.74622 0.0
C1483 C 0.44061 0.32964 0.73034 0.0
C1484 C 0.4598 0.34081 0.71679 0.0
C1485 C 0.45401 0.31843 0.70058 0.0
C1486 C 0.44621 0.32612 0.68123 0.0
C1487 C 0.47947 0.31373 0.69956 0.0
C1488 C 0.42867 0.29302 0.70721 0.0
C1489 C 0.42161 0.29992 0.72456 0.0
C1490 C 0.39955 0.27991 0.7339 0.0
C1491 C 0.38408 0.25211 0.72519 0.0
C1492 C 0.39041 0.24467 0.70716 0.0
C1493 C 0.41303 0.26544 0.69809 0.0
H1494 H 0.65115 0.09934 0.72366 0.0
H1495 H 0.65187 0.17875 0.73036 0.0
H1496 H 0.69925 0.203 0.71826 0.0
H1497 H 0.72489 0.12615 0.73754 0.0
H1498 H 0.72846 0.1032 0.71982 0.0
H1499 H 0.6947 0.09212 0.72904 0.0
H1500 H 0.67084 0.08388 0.6943 0.0
H1501 H 0.70451 0.09482 0.68497 0.0
H1502 H 0.68483 0.1122 0.679 0.0
H1503 H 0.74773 0.21896 0.70702 0.0
H1504 H 0.79187 0.22471 0.69474 0.0
H1505 H 0.75844 0.13456 0.69324 0.0
C1506 C 0.6613 0.12183 0.72249 0.0
C1507 C 0.64792 0.13721 0.72795 0.0
C1508 C 0.66169 0.16655 0.72616 0.0
C1509 C 0.68864 0.18051 0.71937 0.0
C1510 C 0.70134 0.16474 0.71418 0.0
C1511 C 0.68796 0.13597 0.71541 0.0
C1512 C 0.70591 0.12382 0.70846 0.0
C1513 C 0.71396 0.11055 0.72469 0.0
C1514 C 0.69061 0.10242 0.69062 0.0
C1515 C 0.73166 0.1503 0.70337 0.0
C1516 C 0.7287 0.17372 0.70695 0.0
C1517 C 0.75013 0.20073 0.704 0.0
C1518 C 0.77511 0.20383 0.69711 0.0
C1519 C 0.77828 0.18007 0.69303 0.0
C1520 C 0.7563 0.15298 0.69615 0.0
H1521 H 0.89674 0.55574 0.74494 0.0
H1522 H 0.91623 0.52557 0.69248 0.0
H1523 H 0.89936 0.55216 0.67359 0.0
H1524 H 0.83248 0.55127 0.72487 0.0
H1525 H 0.83849 0.58267 0.73896 0.0
H1526 H 0.85266 0.56174 0.74819 0.0
H1527 H 0.90321 0.6058 0.75262 0.0
H1528 H 0.88912 0.62682 0.74344 0.0
H1529 H 0.91751 0.62548 0.73234 0.0
H1530 H 0.88064 0.58274 0.66066 0.0
H1531 H 0.8607 0.61376 0.65467 0.0
H1532 H 0.85246 0.62218 0.71579 0.0
C1533 C 0.89752 0.55482 0.72947 0.0
C1534 C 0.90776 0.53873 0.72013 0.0
C1535 C 0.9084 0.53781 0.69989 0.0
C1536 C 0.89889 0.55284 0.68907 0.0
C1537 C 0.88874 0.56845 0.69875 0.0
C1538 C 0.88793 0.56943 0.71851 0.0
C1539 C 0.87571 0.58736 0.72549 0.0
C1540 C 0.8482 0.5697 0.73493 0.0
C1541 C 0.89771 0.61288 0.73928 0.0
C1542 C 0.86977 0.59638 0.70659 0.0
C1543 C 0.87752 0.58542 0.69132 0.0
C1544 C 0.87441 0.59136 0.6725 0.0
C1545 C 0.8631 0.609 0.66925 0.0
C1546 C 0.8549 0.62027 0.68474 0.0
C1547 C 0.85828 0.61372 0.70359 0.0
H1548 H 0.46438 0.90937 0.21046 0.0
H1549 H 0.42247 0.95223 0.23437 0.0
H1550 H 0.42999 0.97797 0.20553 0.0
H1551 H 0.51864 0.96992 0.19011 0.0
H1552 H 0.51888 0.94935 0.16913 0.0
H1553 H 0.50955 0.93371 0.19146 0.0
H1554 H 0.46183 0.89353 0.17418 0.0
H1555 H 0.47095 0.9091 0.15181 0.0
H1556 H 0.4382 0.90225 0.16111 0.0
H1557 H 0.44145 0.99869 0.17381 0.0
H1558 H 0.45823 0.01462 0.14232 0.0
H1559 H 0.49459 0.96002 0.13967 0.0
C1560 C 0.45705 0.9244 0.20981 0.0
C1561 C 0.44262 0.92852 0.22477 0.0
C1562 C 0.43307 0.94817 0.22304 0.0
C1563 C 0.4374 0.96307 0.20673 0.0
C1564 C 0.45153 0.95835 0.19227 0.0
C1565 C 0.46141 0.93965 0.19371 0.0
C1566 C 0.47632 0.93877 0.17624 0.0
C1567 C 0.50771 0.94853 0.18209 0.0
C1568 C 0.4609 0.90915 0.16518 0.0
C1569 C 0.47332 0.95993 0.16477 0.0
C1570 C 0.45875 0.97081 0.17421 0.0
C1571 C 0.45294 0.99036 0.16631 0.0
C1572 C 0.46241 0.99916 0.14837 0.0
C1573 C 0.47774 0.98861 0.13853 0.0
C1574 C 0.48319 0.96869 0.14692 0.0
H1575 H 0.05729 0.49959 0.2425 0.0
H1576 H 0.12281 0.58808 0.24905 0.0
H1577 H 0.1132 0.59106 0.21456 0.0
H1578 H 0.07314 0.48301 0.1962 0.0
H1579 H 0.03653 0.45885 0.18746 0.0
H1580 H 0.04774 0.46397 0.21284 0.0
H1581 H 0.0096 0.47733 0.22014 0.0
H1582 H 0.99818 0.47212 0.19479 0.0
H1583 H 0.0088 0.50536 0.20838 0.0
H1584 H 0.09708 0.5841 0.17919 0.0
H1585 H 0.07508 0.56782 0.1456 0.0
H1586 H 0.02092 0.48371 0.1622 0.0
C1587 C 0.06971 0.5196 0.23669 0.0
C1588 C 0.09076 0.54363 0.24852 0.0
C1589 C 0.10626 0.56949 0.24037 0.0
C1590 C 0.10111 0.57135 0.22076 0.0
C1591 C 0.08044 0.54716 0.2095 0.0
C1592 C 0.06495 0.52179 0.21717 0.0
C1593 C 0.04415 0.49884 0.20193 0.0
C1594 C 0.0508 0.47475 0.19946 0.0
C1595 C 0.01336 0.48777 0.20659 0.0
C1596 C 0.05042 0.51523 0.18445 0.0
C1597 C 0.07137 0.54308 0.18912 0.0
C1598 C 0.08061 0.56236 0.17537 0.0
C1599 C 0.06794 0.55295 0.15637 0.0
C1600 C 0.04633 0.52451 0.1513 0.0
C1601 C 0.03764 0.50547 0.16558 0.0
H1602 H 0.47977 0.57372 0.21078 0.0
H1603 H 0.4476 0.49315 0.2344 0.0
H1604 H 0.45287 0.47219 0.20373 0.0
H1605 H 0.44742 0.54515 0.16106 0.0
H1606 H 0.4777 0.57188 0.15077 0.0
H1607 H 0.46892 0.57973 0.17393 0.0
H1608 H 0.51968 0.59494 0.18892 0.0
H1609 H 0.52857 0.58706 0.16586 0.0
H1610 H 0.53276 0.57064 0.18643 0.0
H1611 H 0.46595 0.46129 0.17153 0.0
H1612 H 0.48369 0.46077 0.13979 0.0
H1613 H 0.50716 0.54844 0.13731 0.0
C1614 C 0.47357 0.55159 0.20943 0.0
C1615 C 0.4632 0.53505 0.22498 0.0
C1616 C 0.4552 0.50613 0.2226 0.0
C1617 C 0.45826 0.49408 0.20527 0.0
C1618 C 0.4691 0.51115 0.19038 0.0
C1619 C 0.47636 0.53922 0.19223 0.0
C1620 C 0.48857 0.5533 0.17436 0.0
C1621 C 0.46951 0.56309 0.16445 0.0
C1622 C 0.51921 0.57793 0.17919 0.0
C1623 C 0.48771 0.52896 0.16235 0.0
C1624 C 0.47631 0.5048 0.17179 0.0
C1625 C 0.47462 0.48 0.16392 0.0
C1626 C 0.4849 0.47995 0.14596 0.0
C1627 C 0.49666 0.5045 0.13604 0.0
C1628 C 0.49782 0.5292 0.14437 0.0
H1629 H 0.92853 0.4489 0.79629 0.0
H1630 H 0.99641 0.52484 0.77685 0.0
H1631 H 0.01899 0.54103 0.81037 0.0
H1632 H 0.92408 0.48146 0.84141 0.0
H1633 H 0.91712 0.45155 0.85435 0.0
H1634 H 0.90606 0.44641 0.82894 0.0
H1635 H 0.93425 0.42062 0.82275 0.0
H1636 H 0.94522 0.4255 0.84814 0.0
H1637 H 0.9715 0.43797 0.83115 0.0
H1638 H 0.03513 0.54765 0.84587 0.0
H1639 H 0.04329 0.5444 0.88062 0.0
H1640 H 0.96435 0.46436 0.87648 0.0
C1641 C 0.94822 0.46888 0.79908 0.0
C1642 C 0.96083 0.4856 0.78402 0.0
C1643 C 0.98636 0.51182 0.78825 0.0
C1644 C 0.99932 0.52114 0.8072 0.0
C1645 C 0.98633 0.50408 0.82172 0.0
C1646 C 0.9613 0.47854 0.81787 0.0
C1647 C 0.95179 0.46398 0.83596 0.0
C1648 C 0.92306 0.46067 0.84042 0.0
C1649 C 0.95064 0.43533 0.8344 0.0
C1650 C 0.97559 0.48511 0.85058 0.0
C1651 C 0.9953 0.50813 0.84212 0.0
C1652 C 0.01972 0.52984 0.85268 0.0
C1653 C 0.02422 0.52779 0.87235 0.0
C1654 C 1.00432 0.50427 0.88122 0.0
C1655 C 0.97961 0.48288 0.87017 0.0
H1656 H 0.54015 0.49212 0.78573 0.0
H1657 H 0.62226 0.49909 0.79866 0.0
H1658 H 0.62057 0.51008 0.83333 0.0
H1659 H 0.55098 0.54877 0.82151 0.0
H1660 H 0.51451 0.53038 0.82687 0.0
H1661 H 0.52334 0.52484 0.80318 0.0
H1662 H 0.49814 0.47098 0.80598 0.0
H1663 H 0.48945 0.47636 0.82973 0.0
H1664 H 0.50886 0.45809 0.8261 0.0
H1665 H 0.60755 0.51627 0.8669 0.0
H1666 H 0.58607 0.52015 0.89619 0.0
H1667 H 0.51347 0.51124 0.86064 0.0
C1668 C 0.55788 0.49618 0.79585 0.0
C1669 C 0.58131 0.49469 0.7896 0.0
C1670 C 0.60423 0.50034 0.8032 0.0
C1671 C 0.60337 0.50646 0.82288 0.0
C1672 C 0.5796 0.50716 0.82861 0.0
C1673 C 0.55746 0.50251 0.81543 0.0
C1674 C 0.53411 0.50395 0.82521 0.0
C1675 C 0.53054 0.52845 0.81881 0.0
C1676 C 0.50599 0.47566 0.82153 0.0
C1677 C 0.54627 0.50961 0.84604 0.0
C1678 C 0.5725 0.51139 0.84775 0.0
C1679 C 0.58723 0.51537 0.86569 0.0
C1680 C 0.57488 0.51771 0.88227 0.0
C1681 C 0.54807 0.51623 0.88084 0.0
C1682 C 0.5338 0.51222 0.86238 0.0
H1683 H 0.50987 0.06057 0.79032 0.0
H1684 H 0.59849 0.12471 0.80445 0.0
H1685 H 0.59714 0.10842 0.83681 0.0
H1686 H 0.48744 0.06799 0.83589 0.0
H1687 H 0.46219 0.03092 0.83587 0.0
H1688 H 0.47082 0.04629 0.81342 0.0
H1689 H 0.48494 0.00957 0.80199 0.0
H1690 H 0.47633 0.99406 0.82442 0.0
H1691 H 0.51115 0.00612 0.81665 0.0
H1692 H 0.58523 0.08643 0.86834 0.0
H1693 H 0.56409 0.0602 0.89611 0.0
H1694 H 0.48277 0.01191 0.86155 0.0
C1695 C 0.52905 0.07126 0.80019 0.0
C1696 C 0.55432 0.09398 0.79477 0.0
C1697 C 0.57899 0.10703 0.8081 0.0
C1698 C 0.57837 0.09803 0.82658 0.0
C1699 C 0.55295 0.0759 0.83152 0.0
C1700 C 0.52877 0.06265 0.81867 0.0
C1701 C 0.50388 0.04002 0.82767 0.0
C1702 C 0.47966 0.04672 0.82825 0.0
C1703 C 0.49347 0.01071 0.81705 0.0
C1704 C 0.51772 0.04274 0.8477 0.0
C1705 C 0.54605 0.06347 0.84963 0.0
C1706 C 0.56307 0.07013 0.86696 0.0
C1707 C 0.5508 0.05523 0.8827 0.0
C1708 C 0.52172 0.03396 0.88108 0.0
C1709 C 0.50513 0.02771 0.86325 0.0
H1710 H 0.11643 0.28794 0.5625 0.0
H1711 H 0.12745 0.21555 0.55088 0.0
H1712 H 0.14042 0.22953 0.51849 0.0
H1713 H 0.08567 0.28541 0.51457 0.0
H1714 H 0.10345 0.32321 0.51438 0.0
H1715 H 0.09502 0.30775 0.53684 0.0
H1716 H 0.1479 0.33791 0.55044 0.0
H1717 H 0.15647 0.35352 0.52805 0.0
H1718 H 0.17472 0.33628 0.53742 0.0
H1719 H 0.15156 0.25054 0.48735 0.0
H1720 H 0.16179 0.27833 0.45948 0.0
H1721 H 0.14453 0.33796 0.49086 0.0
C1722 C 0.12151 0.27503 0.5531 0.0
C1723 C 0.12118 0.25077 0.55935 0.0
C1724 C 0.12808 0.23451 0.54662 0.0
C1725 C 0.13526 0.24214 0.52811 0.0
C1726 C 0.13545 0.26612 0.52243 0.0
C1727 C 0.12886 0.28242 0.53451 0.0
C1728 C 0.13103 0.30736 0.52477 0.0
C1729 C 0.10206 0.30583 0.52251 0.0
C1730 C 0.15389 0.33543 0.53583 0.0
C1731 C 0.13992 0.30249 0.50538 0.0
C1732 C 0.1422 0.2785 0.50437 0.0
C1733 C 0.15005 0.2695 0.488 0.0
C1734 C 0.15601 0.28558 0.47227 0.0
C1735 C 0.15432 0.31058 0.47297 0.0
C1736 C 0.14589 0.31892 0.48977 0.0
H1737 H 0.70724 0.82329 0.56497 0.0
H1738 H 0.78954 0.89743 0.56222 0.0
H1739 H 0.78048 0.89293 0.52673 0.0
H1740 H 0.70528 0.78428 0.51923 0.0
H1741 H 0.6679 0.7709 0.51317 0.0
H1742 H 0.6822 0.77799 0.53806 0.0
H1743 H 0.66136 0.81077 0.54425 0.0
H1744 H 0.64722 0.80399 0.51937 0.0
H1745 H 0.67056 0.83977 0.52982 0.0
H1746 H 0.7614 0.88262 0.49225 0.0
H1747 H 0.73334 0.86747 0.46056 0.0
H1748 H 0.66253 0.80029 0.48531 0.0
C1749 C 0.72351 0.83807 0.55674 0.0
C1750 C 0.74923 0.86046 0.56607 0.0
C1751 C 0.76987 0.88001 0.55512 0.0
C1752 C 0.7649 0.8776 0.53504 0.0
C1753 C 0.73911 0.8556 0.5262 0.0
C1754 C 0.71873 0.83613 0.53665 0.0
C1755 C 0.69203 0.81578 0.52368 0.0
C1756 C 0.68654 0.78544 0.52353 0.0
C1757 C 0.66628 0.81771 0.52964 0.0
C1758 C 0.70042 0.8272 0.50442 0.0
C1759 C 0.72778 0.84996 0.50621 0.0
C1760 C 0.74007 0.8646 0.4906 0.0
C1761 C 0.72398 0.85576 0.47264 0.0
C1762 C 0.69582 0.83255 0.4704 0.0
C1763 C 0.68397 0.81812 0.48657 0.0
H1764 H 0.16305 0.8814 0.56109 0.0
H1765 H 0.07995 0.87224 0.54821 0.0
H1766 H 0.08066 0.85887 0.51384 0.0
H1767 H 0.19228 0.913 0.51967 0.0
H1768 H 0.21242 0.89536 0.51658 0.0
H1769 H 0.20415 0.90181 0.54023 0.0
H1770 H 0.18043 0.84844 0.54453 0.0
H1771 H 0.18876 0.84183 0.52091 0.0
H1772 H 0.15257 0.82315 0.52683 0.0
H1773 H 0.09276 0.85063 0.48032 0.0
H1774 H 0.11427 0.84674 0.45099 0.0
H1775 H 0.18866 0.85976 0.48648 0.0
C1776 C 0.1449 0.87639 0.55106 0.0
C1777 C 0.12147 0.87792 0.55727 0.0
C1778 C 0.09801 0.87096 0.54376 0.0
C1779 C 0.09828 0.86345 0.52422 0.0
C1780 C 0.12203 0.86271 0.51853 0.0
C1781 C 0.14477 0.86873 0.53162 0.0
C1782 C 0.16815 0.86736 0.52186 0.0
C1783 C 0.19588 0.89609 0.52476 0.0
C1784 C 0.17273 0.84378 0.52895 0.0
C1785 C 0.15536 0.86026 0.50112 0.0
C1786 C 0.12871 0.85754 0.49944 0.0
C1787 C 0.11342 0.8523 0.48152 0.0
C1788 C 0.12578 0.84997 0.46492 0.0
C1789 C 0.15319 0.85286 0.46634 0.0
C1790 C 0.16784 0.85771 0.48478 0.0
H1791 H 0.62746 0.82824 0.12363 0.0
H1792 H 0.56654 0.73868 0.12073 0.0
H1793 H 0.57813 0.73918 0.15547 0.0
H1794 H 0.67962 0.82729 0.15497 0.0
H1795 H 0.69083 0.86066 0.16858 0.0
H1796 H 0.67583 0.85429 0.14394 0.0
H1797 H 0.63756 0.86581 0.15429 0.0
H1798 H 0.65266 0.87258 0.17897 0.0
H1799 H 0.61559 0.84713 0.17269 0.0
H1800 H 0.59879 0.74818 0.18938 0.0
H1801 H 0.62607 0.7656 0.22132 0.0
H1802 H 0.67365 0.84972 0.20287 0.0
C1803 C 0.61616 0.80897 0.13049 0.0
C1804 C 0.59607 0.78343 0.11964 0.0
C1805 C 0.58203 0.75841 0.12889 0.0
C1806 C 0.58843 0.75851 0.14857 0.0
C1807 C 0.6089 0.78381 0.15879 0.0
C1808 C 0.62244 0.80866 0.15018 0.0
C1809 C 0.64468 0.83256 0.16435 0.0
C1810 C 0.6745 0.84438 0.15755 0.0
C1811 C 0.63716 0.8559 0.16778 0.0
C1812 C 0.64183 0.81708 0.18211 0.0
C1813 C 0.62094 0.78904 0.17856 0.0
C1814 C 0.61492 0.7702 0.19246 0.0
C1815 C 0.63048 0.78034 0.21058 0.0
C1816 C 0.65183 0.80909 0.2147 0.0
C1817 C 0.65757 0.82762 0.20017 0.0
H1818 H 0.24366 0.8521 0.12167 0.0
H1819 H 0.255 0.78083 0.13129 0.0
H1820 H 0.24808 0.78557 0.16568 0.0
H1821 H 0.27742 0.89289 0.1691 0.0
H1822 H 0.25193 0.90453 0.17083 0.0
H1823 H 0.26106 0.89762 0.14756 0.0
H1824 H 0.20786 0.86258 0.13673 0.0
H1825 H 0.19859 0.8692 0.15998 0.0
H1826 H 0.18795 0.83363 0.15073 0.0
H1827 H 0.23665 0.79575 0.19814 0.0
H1828 H 0.22046 0.81003 0.22666 0.0
H1829 H 0.21561 0.87437 0.19604 0.0
C1830 C 0.24534 0.83799 0.13118 0.0
C1831 C 0.25011 0.81627 0.12401 0.0
C1832 C 0.25145 0.79764 0.13664 0.0
C1833 C 0.24764 0.80023 0.15615 0.0
C1834 C 0.2424 0.8215 0.16274 0.0
C1835 C 0.24125 0.84008 0.15067 0.0
C1836 C 0.23316 0.85966 0.1611 0.0
C1837 C 0.25734 0.89051 0.16222 0.0
C1838 C 0.20523 0.85603 0.15157 0.0
C1839 C 0.2294 0.84879 0.18078 0.0
C1840 C 0.23519 0.82702 0.18146 0.0
C1841 C 0.23237 0.81299 0.19788 0.0
C1842 C 0.22327 0.82134 0.21403 0.0
C1843 C 0.2169 0.84342 0.21364 0.0
C1844 C 0.2202 0.85736 0.19677 0.0
H1845 H 0.24174 0.4348 0.1487 0.0
H1846 H 0.16973 0.37215 0.10999 0.0
H1847 H 0.15174 0.34186 0.13639 0.0
H1848 H 0.25095 0.38447 0.17659 0.0
H1849 H 0.25997 0.40611 0.19915 0.0
H1850 H 0.26828 0.42234 0.17695 0.0
H1851 H 0.24033 0.44778 0.18493 0.0
H1852 H 0.23174 0.43144 0.20707 0.0
H1853 H 0.20375 0.42727 0.18977 0.0
H1854 H 0.14 0.31946 0.16686 0.0
H1855 H 0.13577 0.30514 0.19976 0.0
H1856 H 0.21545 0.3815 0.21951 0.0
C1857 C 0.22246 0.4145 0.14578 0.0
C1858 C 0.20705 0.40581 0.12731 0.0
C1859 C 0.18171 0.37928 0.12407 0.0
C1860 C 0.17136 0.3619 0.13895 0.0
C1861 C 0.1866 0.37128 0.15708 0.0
C1862 C 0.21167 0.39683 0.1606 0.0
C1863 C 0.22324 0.40204 0.18167 0.0
C1864 C 0.25234 0.40384 0.1837 0.0
C1865 C 0.22485 0.42872 0.19143 0.0
C1866 C 0.2006 0.37556 0.18937 0.0
C1867 C 0.17976 0.35814 0.17486 0.0
C1868 C 0.15635 0.33274 0.17832 0.0
C1869 C 0.15423 0.32472 0.19708 0.0
C1870 C 0.17541 0.34196 0.21227 0.0
C1871 C 0.19884 0.36785 0.20828 0.0
H1872 H 0.77023 0.60475 0.89078 0.0
H1873 H 0.79226 0.5394 0.88137 0.0
H1874 H 0.805 0.55376 0.84895 0.0
H1875 H 0.73962 0.59835 0.84185 0.0
H1876 H 0.75355 0.63576 0.84156 0.0
H1877 H 0.74555 0.62002 0.86394 0.0
H1878 H 0.79708 0.65491 0.87871 0.0
H1879 H 0.80525 0.67072 0.85637 0.0
H1880 H 0.8264 0.65702 0.86675 0.0
H1881 H 0.81572 0.57523 0.81771 0.0
H1882 H 0.82486 0.60323 0.78991 0.0
H1883 H 0.79587 0.65482 0.81919 0.0
C1884 C 0.77752 0.59334 0.88182 0.0
C1885 C 0.78036 0.571 0.88866 0.0
C1886 C 0.79027 0.5568 0.87656 0.0
C1887 C 0.79739 0.56469 0.85807 0.0
C1888 C 0.79455 0.58688 0.85182 0.0
C1889 C 0.7849 0.60106 0.8633 0.0
C1890 C 0.78441 0.62457 0.85317 0.0
C1891 C 0.75397 0.61935 0.84994 0.0
C1892 C 0.80449 0.65352 0.86442 0.0
C1893 C 0.79541 0.62143 0.83427 0.0
C1894 C 0.80095 0.59943 0.83377 0.0
C1895 C 0.81134 0.59243 0.81789 0.0
C1896 C 0.81631 0.60837 0.80211 0.0
C1897 C 0.81098 0.63117 0.80228 0.0
C1898 C 0.80035 0.63767 0.81864 0.0
H1899 H 0.36457 0.14631 0.90165 0.0
H1900 H 0.43649 0.23154 0.90516 0.0
H1901 H 0.4264 0.23342 0.87061 0.0
H1902 H 0.37309 0.12368 0.8535 0.0
H1903 H 0.33541 0.10299 0.84649 0.0
H1904 H 0.34882 0.10785 0.87142 0.0
H1905 H 0.31633 0.12769 0.88071 0.0
H1906 H 0.30297 0.12307 0.8558 0.0
H1907 H 0.31861 0.15728 0.86929 0.0
H1908 H 0.40826 0.22687 0.83623 0.0
H1909 H 0.38319 0.21202 0.80352 0.0
H1910 H 0.32271 0.13089 0.82167 0.0
C1911 C 0.37832 0.1652 0.89504 0.0
C1912 C 0.40122 0.18885 0.90607 0.0
C1913 C 0.41863 0.21333 0.89701 0.0
C1914 C 0.41315 0.21456 0.87739 0.0
C1915 C 0.39018 0.19112 0.86699 0.0
C1916 C 0.37305 0.16685 0.87541 0.0
C1917 C 0.34937 0.14495 0.86091 0.0
C1918 C 0.35183 0.11829 0.8579 0.0
C1919 C 0.32009 0.13784 0.86705 0.0
C1920 C 0.35582 0.16082 0.84311 0.0
C1921 C 0.37955 0.18736 0.84698 0.0
C1922 C 0.38975 0.20608 0.83296 0.0
C1923 C 0.37543 0.1974 0.81441 0.0
C1924 C 0.35112 0.17024 0.81 0.0
C1925 C 0.34114 0.15182 0.82464 0.0
H1926 H 0.83363 0.24592 0.88616 0.0
H1927 H 0.80573 0.16138 0.90208 0.0
H1928 H 0.8168 0.14849 0.87069 0.0
H1929 H 0.80659 0.22634 0.83677 0.0
H1930 H 0.83621 0.2561 0.8281 0.0
H1931 H 0.82674 0.25908 0.85202 0.0
H1932 H 0.87784 0.2744 0.86628 0.0
H1933 H 0.88752 0.27163 0.84237 0.0
H1934 H 0.89273 0.25228 0.86062 0.0
H1935 H 0.8291 0.14407 0.83716 0.0
H1936 H 0.84417 0.14926 0.80426 0.0
H1937 H 0.86525 0.23689 0.81028 0.0
C1938 C 0.83025 0.22483 0.88318 0.0
C1939 C 0.8186 0.20461 0.89659 0.0
C1940 C 0.81418 0.17711 0.89195 0.0
C1941 C 0.82054 0.16961 0.87419 0.0
C1942 C 0.83154 0.18988 0.8612 0.0
C1943 C 0.8366 0.21699 0.8655 0.0
C1944 C 0.84837 0.23464 0.84888 0.0
C1945 C 0.82827 0.24462 0.84098 0.0
C1946 C 0.8784 0.25972 0.8549 0.0
C1947 C 0.84898 0.21316 0.83455 0.0
C1948 C 0.83909 0.18745 0.84194 0.0
C1949 C 0.83702 0.16414 0.83125 0.0
C1950 C 0.84545 0.16723 0.81254 0.0
C1951 C 0.85593 0.19346 0.80472 0.0
C1952 C 0.85767 0.21667 0.81595 0.0
H1953 H 0.27831 0.14047 0.46958 0.0
H1954 H 0.34258 0.13013 0.44235 0.0
H1955 H 0.36779 0.13622 0.47431 0.0
H1956 H 0.32644 0.19457 0.50696 0.0
H1957 H 0.30173 0.18149 0.52494 0.0
H1958 H 0.28874 0.17621 0.49989 0.0
H1959 H 0.25902 0.12231 0.50216 0.0
H1960 H 0.27208 0.12741 0.52718 0.0
H1961 H 0.27646 0.10378 0.51058 0.0
H1962 H 0.38581 0.14306 0.50916 0.0
H1963 H 0.39593 0.15111 0.54456 0.0
H1964 H 0.3207 0.15843 0.549 0.0
C1965 C 0.29785 0.13979 0.47031 0.0
C1966 C 0.30841 0.13472 0.45345 0.0
C1967 C 0.33386 0.13359 0.45508 0.0
C1968 C 0.3484 0.13716 0.47315 0.0
C1969 C 0.33729 0.14191 0.48947 0.0
C1970 C 0.31266 0.14334 0.48823 0.0
C1971 C 0.30527 0.14871 0.508 0.0
C1972 C 0.30557 0.17693 0.51007 0.0
C1973 C 0.2765 0.12408 0.51222 0.0
C1974 C 0.32958 0.15005 0.52054 0.0
C1975 C 0.34779 0.14605 0.50957 0.0
C1976 C 0.37178 0.14636 0.51791 0.0
C1977 C 0.37742 0.15109 0.53802 0.0
C1978 C 0.35918 0.15548 0.54958 0.0
C1979 C 0.33489 0.15481 0.54062 0.0
H1980 H 0.89657 0.12837 0.46884 0.0
H1981 H 0.93382 0.21135 0.44824 0.0
H1982 H 0.92575 0.23034 0.47865 0.0
H1983 H 0.84114 0.13098 0.4898 0.0
H1984 H 0.84168 0.11237 0.51009 0.0
H1985 H 0.85349 0.10605 0.4878 0.0
H1986 H 0.90195 0.11877 0.50569 0.0
H1987 H 0.89023 0.12499 0.5281 0.0
H1988 H 0.92258 0.15223 0.52009 0.0
H1989 H 0.9093 0.23919 0.50991 0.0
H1990 H 0.88761 0.2377 0.54021 0.0
H1991 H 0.86009 0.14865 0.54001 0.0
C1992 C 0.90331 0.15061 0.47078 0.0
C1993 C 0.91586 0.16838 0.45611 0.0
C1994 C 0.92455 0.19741 0.45934 0.0
C1995 C 0.9199 0.20835 0.47653 0.0
C1996 C 0.90671 0.19005 0.49043 0.0
C1997 C 0.89877 0.16184 0.48781 0.0
C1998 C 0.88362 0.14631 0.5045 0.0
C1999 C 0.85318 0.12253 0.49763 0.0
C2000 C 0.90062 0.13491 0.51523 0.0
C2001 C 0.88363 0.17003 0.51671 0.0
C2002 C 0.8972 0.19513 0.50841 0.0
C2003 C 0.89883 0.21971 0.51662 0.0
C2004 C 0.88625 0.21859 0.53374 0.0
C2005 C 0.87213 0.19307 0.54248 0.0
C2006 C 0.87107 0.16857 0.53385 0.0
H2007 H 0.84671 0.74001 0.45927 0.0
H2008 H 0.93375 0.80754 0.47424 0.0
H2009 H 0.93169 0.79331 0.50733 0.0
H2010 H 0.82092 0.74745 0.50375 0.0
H2011 H 0.79719 0.71008 0.50405 0.0
H2012 H 0.80612 0.72491 0.48144 0.0
H2013 H 0.82348 0.69009 0.47182 0.0
H2014 H 0.81459 0.67515 0.49441 0.0
H2015 H 0.85012 0.68881 0.48757 0.0
H2016 H 0.91925 0.77228 0.53928 0.0
H2017 H 0.89803 0.74562 0.56691 0.0
H2018 H 0.81872 0.69317 0.53087 0.0
C2019 C 0.86535 0.75196 0.4695 0.0
C2020 C 0.89039 0.775 0.46413 0.0
C2021 C 0.91443 0.78966 0.47793 0.0
C2022 C 0.9134 0.78183 0.49679 0.0
C2023 C 0.88821 0.75925 0.50163 0.0
C2024 C 0.86466 0.7445 0.48833 0.0
C2025 C 0.84 0.72132 0.49713 0.0
C2026 C 0.81456 0.72625 0.49656 0.0
C2027 C 0.83156 0.69212 0.48714 0.0
C2028 C 0.85325 0.72535 0.51753 0.0
C2029 C 0.88107 0.74731 0.51988 0.0
C2030 C 0.89748 0.75506 0.53758 0.0
C2031 C 0.88517 0.7399 0.55323 0.0
C2032 C 0.85668 0.71724 0.5511 0.0
C2033 C 0.84065 0.71007 0.53295 0.0
loop_
_geom_bond_atom_site_label_1
_geom_bond_atom_site_label_2
_geom_bond_distance
_geom_bond_site_symmetry_2
_ccdc_geom_bond_type
H0 C5 0.930 . S
H1 C8 0.930 . S
H2 C10 0.930 . S
H3 C4 1.016 . S
C4 H3 1.016 . S
C4 N11 1.286 . S
C5 H0 0.930 . S
C5 C6 1.397 . S
C5 C7 1.361 . S
C6 C5 1.397 . S
C6 C10 1.390 . S
C7 C5 1.361 . S
C7 C8 1.393 . S
C7 N11 1.413 . S
C8 H1 0.930 . S
C8 C7 1.393 . S
C8 C9 1.399 . S
C9 C8 1.399 . S
C9 C10 1.381 . S
C10 H2 0.930 . S
C10 C6 1.390 . S
C10 C9 1.381 . S
N11 C4 1.286 . S
N11 C7 1.413 . S
H12 C17 0.930 . S
H13 C20 0.930 . S
H14 C22 0.930 . S
H15 C16 1.016 . S
C16 H15 1.016 . S
C16 N23 1.286 . S
C17 H12 0.930 . S
C17 C18 1.397 . S
C17 C19 1.361 . S
C18 C17 1.397 . S
C18 C22 1.390 . S
C19 C17 1.361 . S
C19 C20 1.393 . S
C19 N23 1.413 . S
C20 H13 0.930 . S
C20 C19 1.393 . S
C20 C21 1.399 . S
C21 C20 1.399 . S
C21 C22 1.381 . S
C22 H14 0.930 . S
C22 C18 1.390 . S
C22 C21 1.381 . S
N23 C16 1.286 . S
N23 C19 1.413 . S
H24 C29 0.930 . S
H25 C32 0.930 . S
H26 C34 0.930 . S
H27 C28 1.016 . S
C28 H27 1.016 . S
C28 N35 1.286 . S
C29 H24 0.930 . S
C29 C30 1.397 . S
C29 C31 1.361 . S
C30 C29 1.397 . S
C30 C34 1.390 . S
C31 C29 1.361 . S
C31 C32 1.393 . S
C31 N35 1.413 . S
C32 H25 0.930 . S
C32 C31 1.393 . S
C32 C33 1.399 . S
C33 C32 1.399 . S
C33 C34 1.381 . S
C34 H26 0.930 . S
C34 C30 1.390 . S
C34 C33 1.381 . S
N35 C28 1.286 . S
N35 C31 1.413 . S
H36 C41 0.930 . S
H37 C44 0.930 . S
H38 C46 0.930 . S
H39 C40 1.016 . S
C40 H39 1.016 . S
C40 N47 1.286 . S
C41 H36 0.930 . S
C41 C42 1.397 . S
C41 C43 1.361 . S
C42 C41 1.397 . S
C42 C46 1.390 . S
C43 C41 1.361 . S
C43 C44 1.393 . S
C43 N47 1.413 . S
C44 H37 0.930 . S
C44 C43 1.393 . S
C44 C45 1.399 . S
C45 C44 1.399 . S
C45 C46 1.381 . S
C46 H38 0.930 . S
C46 C42 1.390 . S
C46 C45 1.381 . S
N47 C40 1.286 . S
N47 C43 1.413 . S
H48 C53 0.930 . S
H49 C56 0.930 . S
H50 C58 0.930 . S
H51 C52 1.016 . S
C52 H51 1.016 . S
C52 N59 1.286 . S
C53 H48 0.930 . S
C53 C54 1.397 . S
C53 C55 1.361 . S
C54 C53 1.397 . S
C54 C58 1.390 . S
C55 C53 1.361 . S
C55 C56 1.393 . S
C55 N59 1.413 . S
C56 H49 0.930 . S
C56 C55 1.393 . S
C56 C57 1.399 . S
C57 C56 1.399 . S
C57 C58 1.381 . S
C58 H50 0.930 . S
C58 C54 1.390 . S
C58 C57 1.381 . S
N59 C52 1.286 . S
N59 C55 1.413 . S
H60 C65 0.930 . S
H61 C68 0.930 . S
H62 C70 0.930 . S
H63 C64 1.016 . S
C64 H63 1.016 . S
C64 N71 1.286 . S
C65 H60 0.930 . S
C65 C66 1.397 . S
C65 C67 1.361 . S
C66 C65 1.397 . S
C66 C70 1.390 . S
C67 C65 1.361 . S
C67 C68 1.393 . S
C67 N71 1.413 . S
C68 H61 0.930 . S
C68 C67 1.393 . S
C68 C69 1.399 . S
C69 C68 1.399 . S
C69 C70 1.381 . S
C70 H62 0.930 . S
C70 C66 1.390 . S
C70 C69 1.381 . S
N71 C64 1.286 . S
N71 C67 1.413 . S
H72 C77 0.930 . S
H73 C80 0.930 . S
H74 C82 0.930 . S
H75 C76 1.016 . S
C76 H75 1.016 . S
C76 N83 1.286 . S
C77 H72 0.930 . S
C77 C78 1.397 . S
C77 C79 1.361 . S
C78 C77 1.397 . S
C78 C82 1.390 . S
C79 C77 1.361 . S
C79 C80 1.393 . S
C79 N83 1.413 . S
C80 H73 0.930 . S
C80 C79 1.393 . S
C80 C81 1.399 . S
C81 C80 1.399 . S
C81 C82 1.381 . S
C82 H74 0.930 . S
C82 C78 1.390 . S
C82 C81 1.381 . S
N83 C76 1.286 . S
N83 C79 1.413 . S
H84 C89 0.930 . S
H85 C92 0.930 . S
H86 C94 0.930 . S
H87 C88 1.016 . S
C88 H87 1.016 . S
C88 N95 1.286 . S
C89 H84 0.930 . S
C89 C90 1.397 . S
C89 C91 1.361 . S
C90 C89 1.397 . S
C90 C94 1.390 . S
C91 C89 1.361 . S
C91 C92 1.393 . S
C91 N95 1.413 . S
C92 H85 0.930 . S
C92 C91 1.393 . S
C92 C93 1.399 . S
C93 C92 1.399 . S
C93 C94 1.381 . S
C94 H86 0.930 . S
C94 C90 1.390 . S
C94 C93 1.381 . S
N95 C88 1.286 . S
N95 C91 1.413 . S
H96 C101 0.930 . S
H97 C104 0.930 . S
H98 C106 0.930 . S
H99 C100 1.016 . S
C100 H99 1.016 . S
C100 N107 1.286 . S
C101 H96 0.930 . S
C101 C102 1.397 . S
C101 C103 1.361 . S
C102 C101 1.397 . S
C102 C106 1.390 . S
C103 C101 1.361 . S
C103 C104 1.393 . S
C103 N107 1.413 . S
C104 H97 0.930 . S
C104 C103 1.393 . S
C104 C105 1.399 . S
C105 C104 1.399 . S
C105 C106 1.381 . S
C106 H98 0.930 . S
C106 C102 1.390 . S
C106 C105 1.381 . S
N107 C100 1.286 . S
N107 C103 1.413 . S
H108 C113 0.930 . S
H109 C116 0.930 . S
H110 C118 0.930 . S
H111 C112 1.016 . S
C112 H111 1.016 . S
C112 N119 1.286 . S
C113 H108 0.930 . S
C113 C114 1.397 . S
C113 C115 1.361 . S
C114 C113 1.397 . S
C114 C118 1.390 . S
C115 C113 1.361 . S
C115 C116 1.393 . S
C115 N119 1.413 . S
C116 H109 0.930 . S
C116 C115 1.393 . S
C116 C117 1.399 . S
C117 C116 1.399 . S
C117 C118 1.381 . S
C118 H110 0.930 . S
C118 C114 1.390 . S
C118 C117 1.381 . S
N119 C112 1.286 . S
N119 C115 1.413 . S
H120 C125 0.930 . S
H121 C128 0.930 . S
H122 C130 0.930 . S
H123 C124 1.016 . S
C124 H123 1.016 . S
C124 N131 1.286 . S
C125 H120 0.930 . S
C125 C126 1.397 . S
C125 C127 1.361 . S
C126 C125 1.397 . S
C126 C130 1.390 . S
C127 C125 1.361 . S
C127 C128 1.393 . S
C127 N131 1.413 . S
C128 H121 0.930 . S
C128 C127 1.393 . S
C128 C129 1.399 . S
C129 C128 1.399 . S
C129 C130 1.381 . S
C130 H122 0.930 . S
C130 C126 1.390 . S
C130 C129 1.381 . S
N131 C124 1.286 . S
N131 C127 1.413 . S
H132 C137 0.930 . S
H133 C140 0.930 . S
H134 C142 0.930 . S
H135 C136 1.016 . S
C136 H135 1.016 . S
C136 N143 1.286 . S
C137 H132 0.930 . S
C137 C138 1.397 . S
C137 C139 1.361 . S
C138 C137 1.397 . S
C138 C142 1.390 . S
C139 C137 1.361 . S
C139 C140 1.393 . S
C139 N143 1.413 . S
C140 H133 0.930 . S
C140 C139 1.393 . S
C140 C141 1.399 . S
C141 C140 1.399 . S
C141 C142 1.381 . S
C142 H134 0.930 . S
C142 C138 1.390 . S
C142 C141 1.381 . S
N143 C136 1.286 . S
N143 C139 1.413 . S
H144 C149 0.930 . S
H145 C152 0.930 . S
H146 C154 0.930 . S
H147 C148 1.016 . S
C148 H147 1.016 . S
C148 N155 1.286 . S
C149 H144 0.930 . S
C149 C150 1.397 . S
C149 C151 1.361 . S
C150 C149 1.397 . S
C150 C154 1.390 . S
C151 C149 1.361 . S
C151 C152 1.393 . S
C151 N155 1.413 . S
C152 H145 0.930 . S
C152 C151 1.393 . S
C152 C153 1.399 . S
C153 C152 1.399 . S
C153 C154 1.381 . S
C154 H146 0.930 . S
C154 C150 1.390 . S
C154 C153 1.381 . S
N155 C148 1.286 . S
N155 C151 1.413 . S
H156 C161 0.930 . S
H157 C164 0.930 . S
H158 C166 0.930 . S
H159 C160 1.016 . S
C160 H159 1.016 . S
C160 N167 1.286 . S
C161 H156 0.930 . S
C161 C162 1.397 . S
C161 C163 1.361 . S
C162 C161 1.397 . S
C162 C166 1.390 . S
C163 C161 1.361 . S
C163 C164 1.393 . S
C163 N167 1.413 . S
C164 H157 0.930 . S
C164 C163 1.393 . S
C164 C165 1.399 . S
C165 C164 1.399 . S
C165 C166 1.381 . S
C166 H158 0.930 . S
C166 C162 1.390 . S
C166 C165 1.381 . S
N167 C160 1.286 . S
N167 C163 1.413 . S
H168 C173 0.930 . S
H169 C176 0.930 . S
H170 C178 0.930 . S
H171 C172 1.016 . S
C172 H171 1.016 . S
C172 N179 1.286 . S
C173 H168 0.930 . S
C173 C174 1.397 . S
C173 C175 1.361 . S
C174 C173 1.397 . S
C174 C178 1.390 . S
C175 C173 1.361 . S
C175 C176 1.393 . S
C175 N179 1.413 . S
C176 H169 0.930 . S
C176 C175 1.393 . S
C176 C177 1.399 . S
C177 C176 1.399 . S
C177 C178 1.381 . S
C178 H170 0.930 . S
C178 C174 1.390 . S
C178 C177 1.381 . S
N179 C172 1.286 . S
N179 C175 1.413 . S
H180 C185 0.930 . S
H181 C188 0.930 . S
H182 C190 0.930 . S
H183 C184 1.016 . S
C184 H183 1.016 . S
C184 N191 1.286 . S
C185 H180 0.930 . S
C185 C186 1.397 . S
C185 C187 1.361 . S
C186 C185 1.397 . S
C186 C190 1.390 . S
C187 C185 1.361 . S
C187 C188 1.393 . S
C187 N191 1.413 . S
C188 H181 0.930 . S
C188 C187 1.393 . S
C188 C189 1.399 . S
C189 C188 1.399 . S
C189 C190 1.381 . S
C190 H182 0.930 . S
C190 C186 1.390 . S
C190 C189 1.381 . S
N191 C184 1.286 . S
N191 C187 1.413 . S
H192 C197 0.930 . S
H193 C200 0.930 . S
H194 C202 0.930 . S
H195 C196 1.016 . S
C196 H195 1.016 . S
C196 N203 1.286 . S
C197 H192 0.930 . S
C197 C198 1.397 . S
C197 C199 1.361 . S
C198 C197 1.397 . S
C198 C202 1.390 . S
C199 C197 1.361 . S
C199 C200 1.393 . S
C199 N203 1.413 . S
C200 H193 0.930 . S
C200 C199 1.393 . S
C200 C201 1.399 . S
C201 C200 1.399 . S
C201 C202 1.381 . S
C202 H194 0.930 . S
C202 C198 1.390 . S
C202 C201 1.381 . S
N203 C196 1.286 . S
N203 C199 1.413 . S
H204 C209 0.930 . S
H205 C212 0.930 . S
H206 C214 0.930 . S
H207 C208 1.016 . S
C208 H207 1.016 . S
C208 N215 1.286 . S
C209 H204 0.930 . S
C209 C210 1.397 . S
C209 C211 1.361 . S
C210 C209 1.397 . S
C210 C214 1.390 . S
C211 C209 1.361 . S
C211 C212 1.393 . S
C211 N215 1.413 . S
C212 H205 0.930 . S
C212 C211 1.393 . S
C212 C213 1.399 . S
C213 C212 1.399 . S
C213 C214 1.381 . S
C214 H206 0.930 . S
C214 C210 1.390 . S
C214 C213 1.381 . S
N215 C208 1.286 . S
N215 C211 1.413 . S
Eu216 C225 2.828 1_565 S
Eu216 O227 2.392 . S
Eu216 O229 2.418 . S
Eu216 O234 2.373 1_565 S
Eu216 O237 2.488 . S
Eu216 O238 2.471 1_565 S
Eu216 O239 2.349 1_565 S
Eu217 O226 2.373 1_545 S
Eu217 O230 2.488 . S
Eu217 O231 2.471 1_545 S
Eu217 O232 2.349 1_545 S
Eu217 O235 2.392 . S
Eu217 O236 2.418 . S
Eu217 C246 2.828 . S
C218 O236 1.244 . S
C218 O239 1.265 1_554 S
C219 C220 1.379 . S
C219 C223 1.373 1_545 S
C219 C225 1.505 . S
C220 C219 1.379 . S
C220 C222 1.369 . S
C220 H248 0.930 . S
C221 C223 1.383 1_545 S
C221 C224 1.382 . S
C221 H249 0.930 1_545 S
C222 C220 1.369 . S
C222 C224 1.392 . S
C222 H250 0.930 . S
C223 C219 1.373 1_565 S
C223 C221 1.383 1_565 S
C223 H251 0.931 . S
C224 C221 1.382 . S
C224 C222 1.392 . S
C225 Eu216 2.828 1_545 S
C225 C219 1.505 . S
C225 O237 1.249 1_545 S
C225 O238 1.244 . S
O226 Eu217 2.373 1_565 S
O226 C228 1.258 . S
O227 Eu216 2.392 . S
O227 C228 1.242 1_556 S
C228 O226 1.258 . S
C228 O227 1.242 1_554 S
O229 Eu216 2.418 . S
O229 C233 1.244 1_556 S
O230 Eu217 2.488 . S
O230 C246 1.249 . S
O231 Eu217 2.471 1_565 S
O231 C246 1.244 1_565 S
O232 Eu217 2.349 1_565 S
O232 C233 1.265 . S
C233 O229 1.244 1_554 S
C233 O232 1.265 . S
O234 Eu216 2.373 1_545 S
O234 C247 1.258 . S
O235 Eu217 2.392 . S
O235 C247 1.242 1_554 S
O236 Eu217 2.418 . S
O236 C218 1.244 . S
O237 Eu216 2.488 . S
O237 C225 1.249 1_565 S
O238 Eu216 2.471 1_545 S
O238 C225 1.244 . S
O239 Eu216 2.349 1_545 S
O239 C218 1.265 1_556 S
C240 C241 1.379 . S
C240 C244 1.373 1_565 S
C240 C246 1.505 1_565 S
C241 C240 1.379 . S
C241 C243 1.369 . S
C241 H252 0.930 . S
C242 C244 1.383 . S
C242 C245 1.382 1_545 S
C242 H253 0.930 . S
C243 C241 1.369 . S
C243 C245 1.392 . S
C243 H254 0.930 . S
C244 C240 1.373 1_545 S
C244 C242 1.383 . S
C244 H255 0.931 . S
C245 C242 1.382 1_565 S
C245 C243 1.392 . S
C246 Eu217 2.828 . S
C246 O230 1.249 . S
C246 O231 1.244 1_545 S
C246 C240 1.505 1_545 S
C247 O234 1.258 . S
C247 O235 1.242 1_556 S
H248 C220 0.930 . S
H249 C221 0.930 1_565 S
H250 C222 0.930 . S
H251 C223 0.931 . S
H252 C241 0.930 . S
H253 C242 0.930 . S
H254 C243 0.930 . S
H255 C244 0.931 . S
Eu256 C265 2.822 1_455 S
Eu256 O267 2.392 1_556 S
Eu256 O269 2.418 . S
Eu256 O274 2.373 1_455 S
Eu256 O277 2.488 . S
Eu256 O278 2.471 1_455 S
Eu256 O279 2.349 1_455 S
Eu257 O266 2.373 1_655 S
Eu257 O270 2.488 . S
Eu257 O271 2.471 1_655 S
Eu257 O272 2.349 1_655 S
Eu257 O275 2.392 . S
Eu257 O276 2.418 . S
Eu257 C286 2.828 1_655 S
C258 O276 1.244 . S
C258 O279 1.265 1_554 S
C259 C260 1.379 . S
C259 C263 1.373 1_655 S
C259 C265 1.512 . S
C260 C259 1.379 . S
C260 C262 1.369 . S
C260 H288 0.930 . S
C261 C263 1.383 1_655 S
C261 C264 1.382 . S
C261 H289 0.930 1_655 S
C262 C260 1.369 . S
C262 C264 1.392 . S
C262 H290 0.930 . S
C263 C259 1.373 1_455 S
C263 C261 1.383 1_455 S
C263 H291 0.931 . S
C264 C261 1.382 . S
C264 C262 1.392 . S
C265 Eu256 2.822 1_655 S
C265 C259 1.512 . S
C265 O277 1.241 1_655 S
C265 O278 1.246 . S
O266 Eu257 2.373 1_455 S
O266 C268 1.258 . S
O267 Eu256 2.392 1_554 S
O267 C268 1.242 . S
C268 O266 1.258 . S
C268 O267 1.242 . S
O269 Eu256 2.418 . S
O269 C273 1.244 1_556 S
O270 Eu257 2.488 . S
O270 C286 1.249 1_655 S
O271 Eu257 2.471 1_455 S
O271 C286 1.244 . S
O272 Eu257 2.349 1_455 S
O272 C273 1.265 . S
C273 O269 1.244 1_554 S
C273 O272 1.265 . S
O274 Eu256 2.373 1_655 S
O274 C287 1.258 . S
O275 Eu257 2.392 . S
O275 C287 1.242 1_554 S
O276 Eu257 2.418 . S
O276 C258 1.244 . S
O277 Eu256 2.488 . S
O277 C265 1.241 1_455 S
O278 Eu256 2.471 1_655 S
O278 C265 1.246 . S
O279 Eu256 2.349 1_655 S
O279 C258 1.265 1_556 S
C280 C281 1.379 . S
C280 C284 1.365 1_455 S
C280 C286 1.505 . S
C281 C280 1.379 . S
C281 C283 1.369 . S
C281 H292 0.930 . S
C282 C284 1.374 1_455 S
C282 C285 1.382 . S
C282 H293 0.930 1_455 S
C283 C281 1.369 . S
C283 C285 1.392 . S
C283 H294 0.930 . S
C284 C280 1.365 1_655 S
C284 C282 1.374 1_655 S
C284 H295 0.949 . S
C285 C282 1.382 . S
C285 C283 1.392 . S
C286 Eu257 2.828 1_455 S
C286 O270 1.249 1_455 S
C286 O271 1.244 . S
C286 C280 1.505 . S
C287 O274 1.258 . S
C287 O275 1.242 1_556 S
H288 C260 0.930 . S
H289 C261 0.930 1_455 S
H290 C262 0.930 . S
H291 C263 0.931 . S
H292 C281 0.930 . S
H293 C282 0.930 1_655 S
H294 C283 0.930 . S
H295 C284 0.949 . S
Eu296 C305 2.828 . S
Eu296 O307 2.392 . S
Eu296 O309 2.418 . S
Eu296 O314 2.373 . S
Eu296 O317 2.488 . S
Eu296 O318 2.471 . S
Eu296 O319 2.349 . S
Eu297 O306 2.373 . S
Eu297 O310 2.488 . S
Eu297 O311 2.471 . S
Eu297 O312 2.343 1_556 S
Eu297 O315 2.392 1_556 S
Eu297 O316 2.418 . S
Eu297 C326 2.828 . S
C298 O316 1.244 1_554 S
C298 O319 1.265 . S
C299 C300 1.379 . S
C299 C303 1.373 . S
C299 C305 1.505 . S
C300 C299 1.379 . S
C300 C302 1.369 . S
C300 H328 0.930 . S
C301 C303 1.383 . S
C301 C304 1.382 . S
C301 H329 0.930 . S
C302 C300 1.369 . S
C302 C304 1.392 . S
C302 H330 0.930 . S
C303 C299 1.373 . S
C303 C301 1.383 . S
C303 H331 0.931 . S
C304 C301 1.382 . S
C304 C302 1.392 . S
C305 Eu296 2.828 . S
C305 C299 1.505 . S
C305 O317 1.249 . S
C305 O318 1.244 . S
O306 Eu297 2.373 . S
O306 C308 1.258 . S
O307 Eu296 2.392 . S
O307 C308 1.242 1_554 S
C308 O306 1.258 . S
C308 O307 1.242 1_556 S
O309 Eu296 2.418 . S
O309 C313 1.244 . S
O310 Eu297 2.488 . S
O310 C326 1.249 . S
O311 Eu297 2.471 . S
O311 C326 1.244 . S
O312 Eu297 2.343 1_554 S
O312 C313 1.270 . S
C313 O309 1.244 . S
C313 O312 1.270 . S
O314 Eu296 2.373 . S
O314 C327 1.258 . S
O315 Eu297 2.392 1_554 S
O315 C327 1.242 . S
O316 Eu297 2.418 . S
O316 C298 1.244 1_556 S
O317 Eu296 2.488 . S
O317 C305 1.249 . S
O318 Eu296 2.471 . S
O318 C305 1.244 . S
O319 Eu296 2.349 . S
O319 C298 1.265 . S
C320 C321 1.379 . S
C320 C324 1.373 . S
C320 C326 1.505 . S
C321 C320 1.379 . S
C321 C323 1.369 . S
C321 H332 0.930 . S
C322 C324 1.383 . S
C322 C325 1.382 . S
C322 H333 0.930 . S
C323 C321 1.369 . S
C323 C325 1.392 . S
C323 H334 0.930 . S
C324 C320 1.373 . S
C324 C322 1.383 . S
C324 H335 0.931 . S
C325 C322 1.382 . S
C325 C323 1.392 . S
C326 Eu297 2.828 . S
C326 O310 1.249 . S
C326 O311 1.244 . S
C326 C320 1.505 . S
C327 O314 1.258 . S
C327 O315 1.242 . S
H328 C300 0.930 . S
H329 C301 0.930 . S
H330 C302 0.930 . S
H331 C303 0.931 . S
H332 C321 0.930 . S
H333 C322 0.930 . S
H334 C323 0.930 . S
H335 C324 0.931 . S
Eu336 C345 2.828 . S
Eu336 O347 2.392 . S
Eu336 O349 2.418 . S
Eu336 O354 2.373 . S
Eu336 O357 2.488 . S
Eu336 O358 2.471 . S
Eu336 O359 2.349 . S
Eu337 O346 2.373 . S
Eu337 O350 2.488 . S
Eu337 O351 2.471 . S
Eu337 O352 2.349 . S
Eu337 O355 2.392 . S
Eu337 O356 2.418 . S
Eu337 C366 2.828 . S
C338 O356 1.244 . S
C338 O359 1.265 . S
C339 C340 1.379 . S
C339 C343 1.373 . S
C339 C345 1.505 . S
C340 C339 1.379 . S
C340 C342 1.369 . S
C340 H368 0.930 . S
C341 C343 1.383 . S
C341 C344 1.382 . S
C341 H369 0.930 . S
C342 C340 1.369 . S
C342 C344 1.392 . S
C342 H370 0.930 . S
C343 C339 1.373 . S
C343 C341 1.383 . S
C343 H371 0.931 . S
C344 C341 1.382 . S
C344 C342 1.392 . S
C345 Eu336 2.828 . S
C345 C339 1.505 . S
C345 O357 1.249 . S
C345 O358 1.244 . S
O346 Eu337 2.373 . S
O346 C348 1.258 . S
O347 Eu336 2.392 . S
O347 C348 1.242 . S
C348 O346 1.258 . S
C348 O347 1.242 . S
O349 Eu336 2.418 . S
O349 C353 1.244 . S
O350 Eu337 2.488 . S
O350 C366 1.249 . S
O351 Eu337 2.471 . S
O351 C366 1.244 . S
O352 Eu337 2.349 . S
O352 C353 1.265 . S
C353 O349 1.244 . S
C353 O352 1.265 . S
O354 Eu336 2.373 . S
O354 C367 1.258 . S
O355 Eu337 2.392 . S
O355 C367 1.242 . S
O356 Eu337 2.418 . S
O356 C338 1.244 . S
O357 Eu336 2.488 . S
O357 C345 1.249 . S
O358 Eu336 2.471 . S
O358 C345 1.244 . S
O359 Eu336 2.349 . S
O359 C338 1.265 . S
C360 C361 1.379 . S
C360 C364 1.373 . S
C360 C366 1.505 . S
C361 C360 1.379 . S
C361 C363 1.369 . S
C361 H372 0.930 . S
C362 C364 1.383 . S
C362 C365 1.382 . S
C362 H373 0.930 . S
C363 C361 1.369 . S
C363 C365 1.392 . S
C363 H374 0.930 . S
C364 C360 1.373 . S
C364 C362 1.383 . S
C364 H375 0.931 . S
C365 C362 1.382 . S
C365 C363 1.392 . S
C366 Eu337 2.828 . S
C366 O350 1.249 . S
C366 O351 1.244 . S
C366 C360 1.505 . S
C367 O354 1.258 . S
C367 O355 1.242 . S
H368 C340 0.930 . S
H369 C341 0.930 . S
H370 C342 0.930 . S
H371 C343 0.931 . S
H372 C361 0.930 . S
H373 C362 0.930 . S
H374 C363 0.930 . S
H375 C364 0.931 . S
Eu376 C385 2.828 . S
Eu376 O387 2.392 . S
Eu376 O389 2.418 . S
Eu376 O394 2.373 . S
Eu376 O397 2.488 . S
Eu376 O398 2.471 . S
Eu376 O399 2.349 . S
Eu377 O386 2.373 . S
Eu377 O390 2.488 . S
Eu377 O391 2.471 . S
Eu377 O392 2.349 . S
Eu377 O395 2.392 . S
Eu377 O396 2.418 . S
Eu377 C406 2.828 . S
C378 O396 1.244 . S
C378 O399 1.265 . S
C379 C380 1.379 . S
C379 C383 1.373 . S
C379 C385 1.505 . S
C380 C379 1.379 . S
C380 C382 1.369 . S
C380 H408 0.930 . S
C381 C383 1.383 . S
C381 C384 1.382 . S
C381 H409 0.930 . S
C382 C380 1.369 . S
C382 C384 1.392 . S
C382 H410 0.930 . S
C383 C379 1.373 . S
C383 C381 1.383 . S
C383 H411 0.931 . S
C384 C381 1.382 . S
C384 C382 1.392 . S
C385 Eu376 2.828 . S
C385 C379 1.505 . S
C385 O397 1.249 . S
C385 O398 1.244 . S
O386 Eu377 2.373 . S
O386 C388 1.258 . S
O387 Eu376 2.392 . S
O387 C388 1.242 . S
C388 O386 1.258 . S
C388 O387 1.242 . S
O389 Eu376 2.418 . S
O389 C393 1.244 . S
O390 Eu377 2.488 . S
O390 C406 1.249 . S
O391 Eu377 2.471 . S
O391 C406 1.244 . S
O392 Eu377 2.349 . S
O392 C393 1.265 . S
C393 O389 1.244 . S
C393 O392 1.265 . S
O394 Eu376 2.373 . S
O394 C407 1.258 . S
O395 Eu377 2.392 . S
O395 C407 1.242 . S
O396 Eu377 2.418 . S
O396 C378 1.244 . S
O397 Eu376 2.488 . S
O397 C385 1.249 . S
O398 Eu376 2.471 . S
O398 C385 1.244 . S
O399 Eu376 2.349 . S
O399 C378 1.265 . S
C400 C401 1.379 . S
C400 C404 1.373 . S
C400 C406 1.505 . S
C401 C400 1.379 . S
C401 C403 1.369 . S
C401 H412 0.930 . S
C402 C404 1.383 . S
C402 C405 1.382 . S
C402 H413 0.930 . S
C403 C401 1.369 . S
C403 C405 1.392 . S
C403 H414 0.930 . S
C404 C400 1.373 . S
C404 C402 1.383 . S
C404 H415 0.931 . S
C405 C402 1.382 . S
C405 C403 1.392 . S
C406 Eu377 2.828 . S
C406 O390 1.249 . S
C406 O391 1.244 . S
C406 C400 1.505 . S
C407 O394 1.258 . S
C407 O395 1.242 . S
H408 C380 0.930 . S
H409 C381 0.930 . S
H410 C382 0.930 . S
H411 C383 0.931 . S
H412 C401 0.930 . S
H413 C402 0.930 . S
H414 C403 0.930 . S
H415 C404 0.931 . S
Eu416 C425 2.828 . S
Eu416 O427 2.392 . S
Eu416 O429 2.418 . S
Eu416 O434 2.373 . S
Eu416 O437 2.488 . S
Eu416 O438 2.471 . S
Eu416 O439 2.349 . S
Eu417 O426 2.373 . S
Eu417 O430 2.488 . S
Eu417 O431 2.471 . S
Eu417 O432 2.349 . S
Eu417 O435 2.392 . S
Eu417 O436 2.418 . S
Eu417 C446 2.828 . S
C418 O436 1.244 . S
C418 O439 1.265 . S
C419 C420 1.379 . S
C419 C423 1.373 . S
C419 C425 1.505 . S
C420 C419 1.379 . S
C420 C422 1.369 . S
C420 H448 0.930 . S
C421 C423 1.383 . S
C421 C424 1.382 . S
C421 H449 0.930 . S
C422 C420 1.369 . S
C422 C424 1.392 . S
C422 H450 0.930 . S
C423 C419 1.373 . S
C423 C421 1.383 . S
C423 H451 0.931 . S
C424 C421 1.382 . S
C424 C422 1.392 . S
C425 Eu416 2.828 . S
C425 C419 1.505 . S
C425 O437 1.249 . S
C425 O438 1.244 . S
O426 Eu417 2.373 . S
O426 C428 1.258 . S
O427 Eu416 2.392 . S
O427 C428 1.242 . S
C428 O426 1.258 . S
C428 O427 1.242 . S
O429 Eu416 2.418 . S
O429 C433 1.244 . S
O430 Eu417 2.488 . S
O430 C446 1.249 . S
O431 Eu417 2.471 . S
O431 C446 1.244 . S
O432 Eu417 2.349 . S
O432 C433 1.265 . S
C433 O429 1.244 . S
C433 O432 1.265 . S
O434 Eu416 2.373 . S
O434 C447 1.258 . S
O435 Eu417 2.392 . S
O435 C447 1.242 . S
O436 Eu417 2.418 . S
O436 C418 1.244 . S
O437 Eu416 2.488 . S
O437 C425 1.249 . S
O438 Eu416 2.471 . S
O438 C425 1.244 . S
O439 Eu416 2.349 . S
O439 C418 1.265 . S
C440 C441 1.379 . S
C440 C444 1.373 . S
C440 C446 1.505 . S
C441 C440 1.379 . S
C441 C443 1.369 . S
C441 H452 0.930 . S
C442 C444 1.383 . S
C442 C445 1.382 . S
C442 H453 0.930 . S
C443 C441 1.369 . S
C443 C445 1.392 . S
C443 H454 0.930 . S
C444 C440 1.373 . S
C444 C442 1.383 . S
C444 H455 0.931 . S
C445 C442 1.382 . S
C445 C443 1.392 . S
C446 Eu417 2.828 . S
C446 O430 1.249 . S
C446 O431 1.244 . S
C446 C440 1.505 . S
C447 O434 1.258 . S
C447 O435 1.242 . S
H448 C420 0.930 . S
H449 C421 0.930 . S
H450 C422 0.930 . S
H451 C423 0.931 . S
H452 C441 0.930 . S
H453 C442 0.930 . S
H454 C443 0.930 . S
H455 C444 0.931 . S
Eu456 C465 2.828 . S
Eu456 O467 2.392 . S
Eu456 O469 2.418 . S
Eu456 O474 2.373 . S
Eu456 O477 2.488 . S
Eu456 O478 2.471 . S
Eu456 O479 2.349 . S
Eu457 O466 2.373 . S
Eu457 O470 2.488 . S
Eu457 O471 2.471 . S
Eu457 O472 2.349 . S
Eu457 O475 2.392 . S
Eu457 O476 2.418 . S
Eu457 C486 2.828 . S
C458 O476 1.244 . S
C458 O479 1.265 . S
C459 C460 1.379 . S
C459 C463 1.373 . S
C459 C465 1.505 . S
C460 C459 1.379 . S
C460 C462 1.369 . S
C460 H488 0.930 . S
C461 C463 1.383 . S
C461 C464 1.382 . S
C461 H489 0.930 . S
C462 C460 1.369 . S
C462 C464 1.392 . S
C462 H490 0.930 . S
C463 C459 1.373 . S
C463 C461 1.383 . S
C463 H491 0.931 . S
C464 C461 1.382 . S
C464 C462 1.392 . S
C465 Eu456 2.828 . S
C465 C459 1.505 . S
C465 O477 1.249 . S
C465 O478 1.244 . S
O466 Eu457 2.373 . S
O466 C468 1.258 . S
O467 Eu456 2.392 . S
O467 C468 1.242 . S
C468 O466 1.258 . S
C468 O467 1.242 . S
O469 Eu456 2.418 . S
O469 C473 1.244 . S
O470 Eu457 2.488 . S
O470 C486 1.249 . S
O471 Eu457 2.471 . S
O471 C486 1.244 . S
O472 Eu457 2.349 . S
O472 C473 1.265 . S
C473 O469 1.244 . S
C473 O472 1.265 . S
O474 Eu456 2.373 . S
O474 C487 1.258 . S
O475 Eu457 2.392 . S
O475 C487 1.242 . S
O476 Eu457 2.418 . S
O476 C458 1.244 . S
O477 Eu456 2.488 . S
O477 C465 1.249 . S
O478 Eu456 2.471 . S
O478 C465 1.244 . S
O479 Eu456 2.349 . S
O479 C458 1.265 . S
C480 C481 1.379 . S
C480 C484 1.373 . S
C480 C486 1.505 . S
C481 C480 1.379 . S
C481 C483 1.369 . S
C481 H492 0.930 . S
C482 C484 1.383 . S
C482 C485 1.382 . S
C482 H493 0.930 . S
C483 C481 1.369 . S
C483 C485 1.392 . S
C483 H494 0.930 . S
C484 C480 1.373 . S
C484 C482 1.383 . S
C484 H495 0.931 . S
C485 C482 1.382 . S
C485 C483 1.392 . S
C486 Eu457 2.828 . S
C486 O470 1.249 . S
C486 O471 1.244 . S
C486 C480 1.505 . S
C487 O474 1.258 . S
C487 O475 1.242 . S
H488 C460 0.930 . S
H489 C461 0.930 . S
H490 C462 0.930 . S
H491 C463 0.931 . S
H492 C481 0.930 . S
H493 C482 0.930 . S
H494 C483 0.930 . S
H495 C484 0.931 . S
Eu496 C505 2.828 . S
Eu496 O507 2.392 . S
Eu496 O509 2.418 . S
Eu496 O514 2.373 . S
Eu496 O517 2.488 . S
Eu496 O518 2.471 . S
Eu496 O519 2.349 . S
Eu497 O506 2.373 . S
Eu497 O510 2.488 . S
Eu497 O511 2.471 . S
Eu497 O512 2.349 . S
Eu497 O515 2.392 . S
Eu497 O516 2.418 . S
Eu497 C526 2.828 . S
C498 O516 1.244 . S
C498 O519 1.265 . S
C499 C500 1.379 . S
C499 C503 1.373 . S
C499 C505 1.505 . S
C500 C499 1.379 . S
C500 C502 1.369 . S
C500 H528 0.930 . S
C501 C503 1.383 . S
C501 C504 1.382 . S
C501 H529 0.930 . S
C502 C500 1.369 . S
C502 C504 1.392 . S
C502 H530 0.930 . S
C503 C499 1.373 . S
C503 C501 1.383 . S
C503 H531 0.931 . S
C504 C501 1.382 . S
C504 C502 1.392 . S
C505 Eu496 2.828 . S
C505 C499 1.505 . S
C505 O517 1.249 . S
C505 O518 1.244 . S
O506 Eu497 2.373 . S
O506 C508 1.258 . S
O507 Eu496 2.392 . S
O507 C508 1.242 . S
C508 O506 1.258 . S
C508 O507 1.242 . S
O509 Eu496 2.418 . S
O509 C513 1.244 . S
O510 Eu497 2.488 . S
O510 C526 1.249 . S
O511 Eu497 2.471 . S
O511 C526 1.244 . S
O512 Eu497 2.349 . S
O512 C513 1.265 . S
C513 O509 1.244 . S
C513 O512 1.265 . S
O514 Eu496 2.373 . S
O514 C527 1.258 . S
O515 Eu497 2.392 . S
O515 C527 1.242 . S
O516 Eu497 2.418 . S
O516 C498 1.244 . S
O517 Eu496 2.488 . S
O517 C505 1.249 . S
O518 Eu496 2.471 . S
O518 C505 1.244 . S
O519 Eu496 2.349 . S
O519 C498 1.265 . S
C520 C521 1.379 . S
C520 C524 1.373 . S
C520 C526 1.505 . S
C521 C520 1.379 . S
C521 C523 1.369 . S
C521 H532 0.930 . S
C522 C524 1.383 . S
C522 C525 1.382 . S
C522 H533 0.930 . S
C523 C521 1.369 . S
C523 C525 1.392 . S
C523 H534 0.930 . S
C524 C520 1.373 . S
C524 C522 1.383 . S
C524 H535 0.931 . S
C525 C522 1.382 . S
C525 C523 1.392 . S
C526 Eu497 2.828 . S
C526 O510 1.249 . S
C526 O511 1.244 . S
C526 C520 1.505 . S
C527 O514 1.258 . S
C527 O515 1.242 . S
H528 C500 0.930 . S
H529 C501 0.930 . S
H530 C502 0.930 . S
H531 C503 0.931 . S
H532 C521 0.930 . S
H533 C522 0.930 . S
H534 C523 0.930 . S
H535 C524 0.931 . S
Eu536 C545 2.828 . S
Eu536 O547 2.392 . S
Eu536 O549 2.418 . S
Eu536 O554 2.373 . S
Eu536 O557 2.488 . S
Eu536 O558 2.471 . S
Eu536 O559 2.349 . S
Eu537 O546 2.373 . S
Eu537 O550 2.488 . S
Eu537 O551 2.471 . S
Eu537 O552 2.349 . S
Eu537 O555 2.392 . S
Eu537 O556 2.418 . S
Eu537 C566 2.828 . S
C538 O556 1.244 . S
C538 O559 1.265 . S
C539 C540 1.379 . S
C539 C543 1.373 . S
C539 C545 1.505 . S
C540 C539 1.379 . S
C540 C542 1.369 . S
C540 H568 0.930 . S
C541 C543 1.383 . S
C541 C544 1.382 . S
C541 H569 0.930 . S
C542 C540 1.369 . S
C542 C544 1.392 . S
C542 H570 0.930 . S
C543 C539 1.373 . S
C543 C541 1.383 . S
C543 H571 0.931 . S
C544 C541 1.382 . S
C544 C542 1.392 . S
C545 Eu536 2.828 . S
C545 C539 1.505 . S
C545 O557 1.249 . S
C545 O558 1.244 . S
O546 Eu537 2.373 . S
O546 C548 1.258 . S
O547 Eu536 2.392 . S
O547 C548 1.242 . S
C548 O546 1.258 . S
C548 O547 1.242 . S
O549 Eu536 2.418 . S
O549 C553 1.244 . S
O550 Eu537 2.488 . S
O550 C566 1.249 . S
O551 Eu537 2.471 . S
O551 C566 1.244 . S
O552 Eu537 2.349 . S
O552 C553 1.265 . S
C553 O549 1.244 . S
C553 O552 1.265 . S
O554 Eu536 2.373 . S
O554 C567 1.258 . S
O555 Eu537 2.392 . S
O555 C567 1.242 . S
O556 Eu537 2.418 . S
O556 C538 1.244 . S
O557 Eu536 2.488 . S
O557 C545 1.249 . S
O558 Eu536 2.471 . S
O558 C545 1.244 . S
O559 Eu536 2.349 . S
O559 C538 1.265 . S
C560 C561 1.379 . S
C560 C564 1.373 . S
C560 C566 1.505 . S
C561 C560 1.379 . S
C561 C563 1.369 . S
C561 H572 0.930 . S
C562 C564 1.383 . S
C562 C565 1.382 . S
C562 H573 0.930 . S
C563 C561 1.369 . S
C563 C565 1.392 . S
C563 H574 0.930 . S
C564 C560 1.373 . S
C564 C562 1.383 . S
C564 H575 0.931 . S
C565 C562 1.382 . S
C565 C563 1.392 . S
C566 Eu537 2.828 . S
C566 O550 1.249 . S
C566 O551 1.244 . S
C566 C560 1.505 . S
C567 O554 1.258 . S
C567 O555 1.242 . S
H568 C540 0.930 . S
H569 C541 0.930 . S
H570 C542 0.930 . S
H571 C543 0.931 . S
H572 C561 0.930 . S
H573 C562 0.930 . S
H574 C563 0.930 . S
H575 C564 0.931 . S
H576 C588 0.930 . S
H577 C590 0.930 . S
H578 C591 0.930 . S
H579 C595 0.959 . S
H580 C595 0.985 . S
H581 C595 0.961 . S
H582 C596 0.960 . S
H583 C596 0.961 . S
H584 C596 0.959 . S
H585 C599 0.929 . S
H586 C600 0.931 . S
H587 C602 0.930 . S
C588 H576 0.930 . S
C588 C589 1.399 . S
C588 C593 1.399 . S
C589 C588 1.399 . S
C589 C590 1.376 . S
C590 H577 0.930 . S
C590 C589 1.376 . S
C590 C591 1.388 . S
C591 H578 0.930 . S
C591 C590 1.388 . S
C591 C592 1.390 . S
C592 C591 1.390 . S
C592 C593 1.394 . S
C592 C598 1.465 . S
C593 C588 1.399 . S
C593 C592 1.394 . S
C593 C594 1.516 . S
C594 C593 1.516 . S
C594 C595 1.502 . S
C594 C596 1.561 1_554 S
C594 C597 1.526 . S
C595 H579 0.959 . S
C595 H580 0.985 . S
C595 H581 0.961 . S
C595 C594 1.502 . S
C596 H582 0.960 . S
C596 H583 0.961 . S
C596 H584 0.959 . S
C596 C594 1.561 1_556 S
C597 C594 1.526 . S
C597 C598 1.396 . S
C597 C602 1.390 . S
C598 C592 1.465 . S
C598 C597 1.396 . S
C598 C599 1.399 . S
C599 H585 0.929 . S
C599 C598 1.399 . S
C599 C600 1.385 . S
C600 H586 0.931 . S
C600 C599 1.385 . S
C600 C601 1.389 . S
C601 C600 1.389 . S
C601 C602 1.387 . S
C602 H587 0.930 . S
C602 C597 1.390 . S
C602 C601 1.387 . S
H603 C615 0.930 . S
H604 C617 0.930 . S
H605 C618 0.930 . S
H606 C622 0.959 . S
H607 C622 0.959 . S
H608 C622 0.961 . S
H609 C623 0.960 . S
H610 C623 0.961 . S
H611 C623 0.959 . S
H612 C626 0.929 . S
H613 C627 0.931 . S
H614 C629 0.930 . S
C615 H603 0.930 . S
C615 C616 1.399 . S
C615 C620 1.399 . S
C616 C615 1.399 . S
C616 C617 1.376 . S
C617 H604 0.930 . S
C617 C616 1.376 . S
C617 C618 1.388 . S
C618 H605 0.930 . S
C618 C617 1.388 . S
C618 C619 1.390 . S
C619 C618 1.390 . S
C619 C620 1.394 . S
C619 C625 1.465 . S
C620 C615 1.399 . S
C620 C619 1.394 . S
C620 C621 1.516 . S
C621 C620 1.516 . S
C621 C622 1.502 . S
C621 C623 1.561 . S
C621 C624 1.526 . S
C622 H606 0.959 . S
C622 H607 0.959 . S
C622 H608 0.961 . S
C622 C621 1.502 . S
C623 H609 0.960 . S
C623 H610 0.961 . S
C623 H611 0.959 . S
C623 C621 1.561 . S
C624 C621 1.526 . S
C624 C625 1.396 . S
C624 C629 1.390 . S
C625 C619 1.465 . S
C625 C624 1.396 . S
C625 C626 1.399 . S
C626 H612 0.929 . S
C626 C625 1.399 . S
C626 C627 1.385 . S
C627 H613 0.931 . S
C627 C626 1.385 . S
C627 C628 1.389 . S
C628 C627 1.389 . S
C628 C629 1.387 . S
C629 H614 0.930 . S
C629 C624 1.390 . S
C629 C628 1.387 . S
H630 C642 0.930 . S
H631 C644 0.930 . S
H632 C645 0.930 . S
H633 C649 0.959 1_554 S
H634 C649 0.959 . S
H635 C649 0.961 . S
H636 C650 0.960 . S
H637 C650 0.961 . S
H638 C650 0.959 . S
H639 C653 0.929 . S
H640 C654 0.931 . S
H641 C656 0.930 1_556 S
C642 H630 0.930 . S
C642 C643 1.399 . S
C642 C647 1.399 . S
C643 C642 1.399 . S
C643 C644 1.376 . S
C644 H631 0.930 . S
C644 C643 1.376 . S
C644 C645 1.388 . S
C645 H632 0.930 . S
C645 C644 1.388 . S
C645 C646 1.390 . S
C646 C645 1.390 . S
C646 C647 1.394 . S
C646 C652 1.465 . S
C647 C642 1.399 . S
C647 C646 1.394 . S
C647 C648 1.516 . S
C648 C647 1.516 . S
C648 C649 1.502 1_554 S
C648 C650 1.561 1_554 S
C648 C651 1.526 . S
C649 H633 0.959 1_556 S
C649 H634 0.959 . S
C649 H635 0.961 . S
C649 C648 1.502 1_556 S
C650 H636 0.960 . S
C650 H637 0.961 . S
C650 H638 0.959 . S
C650 C648 1.561 1_556 S
C651 C648 1.526 . S
C651 C652 1.396 . S
C651 C656 1.390 . S
C652 C646 1.465 . S
C652 C651 1.396 . S
C652 C653 1.399 . S
C653 H639 0.929 . S
C653 C652 1.399 . S
C653 C654 1.385 . S
C654 H640 0.931 . S
C654 C653 1.385 . S
C654 C655 1.389 . S
C655 C654 1.389 . S
C655 C656 1.387 . S
C656 H641 0.930 1_554 S
C656 C651 1.390 . S
C656 C655 1.387 . S
H657 C669 0.930 . S
H658 C671 0.930 . S
H659 C672 0.930 . S
H660 C676 0.959 . S
H661 C676 0.959 . S
H662 C676 0.961 . S
H663 C677 0.960 . S
H664 C677 0.961 . S
H665 C677 0.959 . S
H666 C680 0.931 1_554 S
H667 C681 0.927 1_554 S
H668 C683 0.930 . S
C669 H657 0.930 . S
C669 C670 1.399 . S
C669 C674 1.399 . S
C670 C669 1.399 . S
C670 C671 1.376 . S
C671 H658 0.930 . S
C671 C670 1.376 . S
C671 C672 1.388 . S
C672 H659 0.930 . S
C672 C671 1.388 . S
C672 C673 1.390 . S
C673 C672 1.390 . S
C673 C674 1.394 . S
C673 C679 1.465 . S
C674 C669 1.399 . S
C674 C673 1.394 . S
C674 C675 1.516 . S
C675 C674 1.516 . S
C675 C676 1.502 . S
C675 C677 1.561 . S
C675 C678 1.526 . S
C676 H660 0.959 . S
C676 H661 0.959 . S
C676 H662 0.961 . S
C676 C675 1.502 . S
C677 H663 0.960 . S
C677 H664 0.961 . S
C677 H665 0.959 . S
C677 C675 1.561 . S
C678 C675 1.526 . S
C678 C679 1.396 . S
C678 C683 1.390 . S
C679 C673 1.465 . S
C679 C678 1.396 . S
C679 C680 1.399 . S
C680 H666 0.931 1_556 S
C680 C679 1.399 . S
C680 C681 1.386 . S
C681 H667 0.927 1_556 S
C681 C680 1.386 . S
C681 C682 1.393 . S
C682 C681 1.393 . S
C682 C683 1.387 . S
C683 H668 0.930 . S
C683 C678 1.390 . S
C683 C682 1.387 . S
H684 C696 0.930 . S
H685 C698 0.930 . S
H686 C699 0.930 . S
H687 C703 0.959 . S
H688 C703 0.959 . S
H689 C703 0.961 . S
H690 C704 0.960 . S
H691 C704 0.961 1_554 S
H692 C704 0.959 . S
H693 C707 0.929 . S
H694 C708 0.931 . S
H695 C710 0.930 1_554 S
C696 H684 0.930 . S
C696 C697 1.399 . S
C696 C701 1.399 . S
C697 C696 1.399 . S
C697 C698 1.376 . S
C698 H685 0.930 . S
C698 C697 1.376 . S
C698 C699 1.388 . S
C699 H686 0.930 . S
C699 C698 1.388 . S
C699 C700 1.390 . S
C700 C699 1.390 . S
C700 C701 1.394 . S
C700 C706 1.465 . S
C701 C696 1.399 . S
C701 C700 1.394 . S
C701 C702 1.516 . S
C702 C701 1.516 . S
C702 C703 1.502 1_556 S
C702 C704 1.561 . S
C702 C705 1.526 . S
C703 H687 0.959 . S
C703 H688 0.959 . S
C703 H689 0.961 . S
C703 C702 1.502 1_554 S
C704 H690 0.960 . S
C704 H691 0.961 1_556 S
C704 H692 0.959 . S
C704 C702 1.561 . S
C705 C702 1.526 . S
C705 C706 1.396 . S
C705 C710 1.390 . S
C706 C700 1.465 . S
C706 C705 1.396 . S
C706 C707 1.399 . S
C707 H693 0.929 . S
C707 C706 1.399 . S
C707 C708 1.385 . S
C708 H694 0.931 . S
C708 C707 1.385 . S
C708 C709 1.389 . S
C709 C708 1.389 . S
C709 C710 1.387 . S
C710 H695 0.930 1_556 S
C710 C705 1.390 . S
C710 C709 1.387 . S
H711 C723 0.930 1_554 S
H712 C725 0.930 . S
H713 C726 0.930 . S
H714 C730 0.959 . S
H715 C730 0.959 . S
H716 C730 0.961 . S
H717 C731 0.960 . S
H718 C731 0.961 . S
H719 C731 0.959 . S
H720 C734 0.929 . S
H721 C735 0.931 . S
H722 C737 0.930 . S
C723 H711 0.930 1_556 S
C723 C724 1.399 . S
C723 C728 1.399 . S
C724 C723 1.399 . S
C724 C725 1.376 . S
C725 H712 0.930 . S
C725 C724 1.376 . S
C725 C726 1.388 . S
C726 H713 0.930 . S
C726 C725 1.388 . S
C726 C727 1.390 . S
C727 C726 1.390 . S
C727 C728 1.394 . S
C727 C733 1.465 . S
C728 C723 1.399 . S
C728 C727 1.394 . S
C728 C729 1.516 1_556 S
C729 C728 1.516 1_554 S
C729 C730 1.502 . S
C729 C731 1.561 . S
C729 C732 1.543 . S
C730 H714 0.959 . S
C730 H715 0.959 . S
C730 H716 0.961 . S
C730 C729 1.502 . S
C731 H717 0.960 . S
C731 H718 0.961 . S
C731 H719 0.959 . S
C731 C729 1.561 . S
C732 C729 1.543 . S
C732 C733 1.358 1_554 S
C732 C737 1.407 . S
C733 C727 1.465 . S
C733 C732 1.358 1_556 S
C733 C734 1.399 . S
C734 H720 0.929 . S
C734 C733 1.399 . S
C734 C735 1.385 . S
C735 H721 0.931 . S
C735 C734 1.385 . S
C735 C736 1.389 . S
C736 C735 1.389 . S
C736 C737 1.387 1_556 S
C737 H722 0.930 . S
C737 C732 1.407 . S
C737 C736 1.387 1_554 S
H738 C750 0.930 . S
H739 C752 0.930 . S
H740 C753 0.930 . S
H741 C757 0.959 . S
H742 C757 0.959 1_554 S
H743 C757 0.961 . S
H744 C758 0.960 . S
H745 C758 0.961 . S
H746 C758 0.959 . S
H747 C761 0.929 . S
H748 C762 0.931 . S
H749 C764 0.930 1_554 S
C750 H738 0.930 . S
C750 C751 1.399 . S
C750 C755 1.399 . S
C751 C750 1.399 . S
C751 C752 1.376 . S
C752 H739 0.930 . S
C752 C751 1.376 . S
C752 C753 1.388 . S
C753 H740 0.930 . S
C753 C752 1.388 . S
C753 C754 1.390 . S
C754 C753 1.390 . S
C754 C755 1.394 . S
C754 C760 1.465 . S
C755 C750 1.399 . S
C755 C754 1.394 . S
C755 C756 1.516 . S
C756 C755 1.516 . S
C756 C757 1.502 . S
C756 C758 1.561 1_556 S
C756 C759 1.526 . S
C757 H741 0.959 . S
C757 H742 0.959 1_556 S
C757 H743 0.961 . S
C757 C756 1.502 . S
C758 H744 0.960 . S
C758 H745 0.961 . S
C758 H746 0.959 . S
C758 C756 1.561 1_554 S
C759 C756 1.526 . S
C759 C760 1.396 . S
C759 C764 1.390 . S
C760 C754 1.465 . S
C760 C759 1.396 . S
C760 C761 1.399 . S
C761 H747 0.929 . S
C761 C760 1.399 . S
C761 C762 1.385 . S
C762 H748 0.931 . S
C762 C761 1.385 . S
C762 C763 1.389 . S
C763 C762 1.389 . S
C763 C764 1.387 . S
C764 H749 0.930 1_556 S
C764 C759 1.390 . S
C764 C763 1.387 . S
H765 C777 0.930 . S
H766 C779 0.930 . S
H767 C780 0.930 . S
H768 C784 0.959 . S
H769 C784 0.959 . S
H770 C784 0.961 . S
H771 C785 0.960 . S
H772 C785 0.961 . S
H773 C785 0.959 . S
H774 C788 0.929 1_554 S
H775 C789 0.931 1_554 S
H776 C791 0.930 . S
C777 H765 0.930 . S
C777 C778 1.399 . S
C777 C782 1.399 . S
C778 C777 1.399 . S
C778 C779 1.376 . S
C779 H766 0.930 . S
C779 C778 1.376 . S
C779 C780 1.388 . S
C780 H767 0.930 . S
C780 C779 1.388 . S
C780 C781 1.390 . S
C781 C780 1.390 . S
C781 C782 1.394 . S
C781 C787 1.465 . S
C782 C777 1.399 . S
C782 C781 1.394 . S
C782 C783 1.516 . S
C783 C782 1.516 . S
C783 C784 1.502 . S
C783 C785 1.561 . S
C783 C786 1.526 . S
C784 H768 0.959 . S
C784 H769 0.959 . S
C784 H770 0.961 . S
C784 C783 1.502 . S
C785 H771 0.960 . S
C785 H772 0.961 . S
C785 H773 0.959 . S
C785 C783 1.561 . S
C786 C783 1.526 . S
C786 C787 1.396 . S
C786 C791 1.390 . S
C787 C781 1.465 . S
C787 C786 1.396 . S
C787 C788 1.399 . S
C788 H774 0.929 1_556 S
C788 C787 1.399 . S
C788 C789 1.385 . S
C789 H775 0.931 1_556 S
C789 C788 1.385 . S
C789 C790 1.389 . S
C790 C789 1.389 . S
C790 C791 1.387 . S
C791 H776 0.930 . S
C791 C786 1.390 . S
C791 C790 1.387 . S
H792 C804 0.930 . S
H793 C806 0.930 . S
H794 C807 0.930 . S
H795 C811 0.959 . S
H796 C811 0.959 . S
H797 C811 0.961 . S
H798 C812 0.960 . S
H799 C812 0.961 . S
H800 C812 0.959 . S
H801 C815 0.929 . S
H802 C816 0.931 . S
H803 C818 0.930 . S
C804 H792 0.930 . S
C804 C805 1.399 1_554 S
C804 C809 1.399 . S
C805 C804 1.399 1_556 S
C805 C806 1.376 . S
C806 H793 0.930 . S
C806 C805 1.376 . S
C806 C807 1.388 . S
C807 H794 0.930 . S
C807 C806 1.388 . S
C807 C808 1.390 . S
C808 C807 1.390 . S
C808 C809 1.394 1_556 S
C808 C814 1.465 . S
C809 C804 1.399 . S
C809 C808 1.394 1_554 S
C809 C810 1.516 . S
C810 C809 1.516 . S
C810 C811 1.502 . S
C810 C812 1.561 . S
C810 C813 1.526 . S
C811 H795 0.959 . S
C811 H796 0.959 . S
C811 H797 0.961 . S
C811 C810 1.502 . S
C812 H798 0.960 . S
C812 H799 0.961 . S
C812 H800 0.959 . S
C812 C810 1.561 . S
C813 C810 1.526 . S
C813 C814 1.396 1_554 S
C813 C818 1.390 . S
C814 C808 1.465 . S
C814 C813 1.396 1_556 S
C814 C815 1.399 . S
C815 H801 0.929 . S
C815 C814 1.399 . S
C815 C816 1.385 . S
C816 H802 0.931 . S
C816 C815 1.385 . S
C816 C817 1.433 . S
C817 C816 1.433 . S
C817 C818 1.351 1_556 S
C818 H803 0.930 . S
C818 C813 1.390 . S
C818 C817 1.351 1_554 S
H819 C831 0.930 . S
H820 C833 0.930 . S
H821 C834 0.930 1_556 S
H822 C838 0.959 . S
H823 C838 0.959 . S
H824 C838 0.961 . S
H825 C839 0.960 . S
H826 C839 0.961 . S
H827 C839 0.959 . S
H828 C842 0.929 . S
H829 C843 0.931 . S
H830 C845 0.930 . S
C831 H819 0.930 . S
C831 C832 1.399 . S
C831 C836 1.399 . S
C832 C831 1.399 . S
C832 C833 1.376 . S
C833 H820 0.930 . S
C833 C832 1.376 . S
C833 C834 1.388 . S
C834 H821 0.930 1_554 S
C834 C833 1.388 . S
C834 C835 1.390 . S
C835 C834 1.390 . S
C835 C836 1.394 . S
C835 C841 1.465 . S
C836 C831 1.399 . S
C836 C835 1.394 . S
C836 C837 1.516 . S
C837 C836 1.516 . S
C837 C838 1.502 . S
C837 C839 1.561 . S
C837 C840 1.526 . S
C838 H822 0.959 . S
C838 H823 0.959 . S
C838 H824 0.961 . S
C838 C837 1.502 . S
C839 H825 0.960 . S
C839 H826 0.961 . S
C839 H827 0.959 . S
C839 C837 1.561 . S
C840 C837 1.526 . S
C840 C841 1.396 . S
C840 C845 1.390 . S
C841 C835 1.465 . S
C841 C840 1.396 . S
C841 C842 1.399 1_554 S
C842 H828 0.929 . S
C842 C841 1.399 1_556 S
C842 C843 1.385 . S
C843 H829 0.931 . S
C843 C842 1.385 . S
C843 C844 1.389 1_556 S
C844 C843 1.389 1_554 S
C844 C845 1.387 . S
C845 H830 0.930 . S
C845 C840 1.390 . S
C845 C844 1.387 . S
H846 C858 0.930 . S
H847 C860 0.930 . S
H848 C861 0.930 . S
H849 C865 0.959 . S
H850 C865 0.959 . S
H851 C865 0.961 . S
H852 C866 0.960 . S
H853 C866 0.961 . S
H854 C866 0.959 . S
H855 C869 0.929 . S
H856 C870 0.931 . S
H857 C872 0.930 . S
C858 H846 0.930 . S
C858 C859 1.399 . S
C858 C863 1.399 . S
C859 C858 1.399 . S
C859 C860 1.376 . S
C860 H847 0.930 . S
C860 C859 1.376 . S
C860 C861 1.388 . S
C861 H848 0.930 . S
C861 C860 1.388 . S
C861 C862 1.390 . S
C862 C861 1.390 . S
C862 C863 1.394 . S
C862 C868 1.465 . S
C863 C858 1.399 . S
C863 C862 1.394 . S
C863 C864 1.516 . S
C864 C863 1.516 . S
C864 C865 1.502 . S
C864 C866 1.561 . S
C864 C867 1.526 . S
C865 H849 0.959 . S
C865 H850 0.959 . S
C865 H851 0.961 . S
C865 C864 1.502 . S
C866 H852 0.960 . S
C866 H853 0.961 . S
C866 H854 0.959 . S
C866 C864 1.561 . S
C867 C864 1.526 . S
C867 C868 1.396 . S
C867 C872 1.390 . S
C868 C862 1.465 . S
C868 C867 1.396 . S
C868 C869 1.399 . S
C869 H855 0.929 . S
C869 C868 1.399 . S
C869 C870 1.385 . S
C870 H856 0.931 . S
C870 C869 1.385 . S
C870 C871 1.389 . S
C871 C870 1.389 . S
C871 C872 1.387 . S
C872 H857 0.930 . S
C872 C867 1.390 . S
C872 C871 1.387 . S
H873 C885 0.930 . S
H874 C887 0.930 1_556 S
H875 C888 0.941 . S
H876 C892 0.959 . S
H877 C892 0.959 . S
H878 C892 0.961 . S
H879 C893 0.960 . S
H880 C893 0.961 . S
H881 C893 0.959 . S
H882 C896 0.929 . S
H883 C897 0.931 . S
H884 C899 0.930 . S
C885 H873 0.930 . S
C885 C886 1.399 . S
C885 C890 1.399 . S
C886 C885 1.399 . S
C886 C887 1.376 . S
C887 H874 0.930 1_554 S
C887 C886 1.376 . S
C887 C888 1.384 1_554 S
C888 H875 0.941 . S
C888 C887 1.384 1_556 S
C888 C889 1.383 1_556 S
C889 C888 1.383 1_554 S
C889 C890 1.394 . S
C889 C895 1.465 . S
C890 C885 1.399 . S
C890 C889 1.394 . S
C890 C891 1.516 . S
C891 C890 1.516 . S
C891 C892 1.502 . S
C891 C893 1.561 . S
C891 C894 1.526 . S
C892 H876 0.959 . S
C892 H877 0.959 . S
C892 H878 0.961 . S
C892 C891 1.502 . S
C893 H879 0.960 . S
C893 H880 0.961 . S
C893 H881 0.959 . S
C893 C891 1.561 . S
C894 C891 1.526 . S
C894 C895 1.396 . S
C894 C899 1.390 . S
C895 C889 1.465 . S
C895 C894 1.396 . S
C895 C896 1.399 1_554 S
C896 H882 0.929 . S
C896 C895 1.399 1_556 S
C896 C897 1.385 . S
C897 H883 0.931 . S
C897 C896 1.385 . S
C897 C898 1.389 1_556 S
C898 C897 1.389 1_554 S
C898 C899 1.387 . S
C899 H884 0.930 . S
C899 C894 1.390 . S
C899 C898 1.387 . S
H900 C912 0.930 . S
H901 C914 0.930 . S
H902 C915 0.930 . S
H903 C919 0.959 . S
H904 C919 0.959 1_455 S
H905 C919 0.961 . S
H906 C920 0.960 1_655 S
H907 C920 0.961 . S
H908 C920 0.959 . S
H909 C923 0.929 . S
H910 C924 0.931 . S
H911 C926 0.930 . S
C912 H900 0.930 . S
C912 C913 1.399 . S
C912 C917 1.399 . S
C913 C912 1.399 . S
C913 C914 1.376 . S
C914 H901 0.930 . S
C914 C913 1.376 . S
C914 C915 1.388 . S
C915 H902 0.930 . S
C915 C914 1.388 . S
C915 C916 1.390 . S
C916 C915 1.390 . S
C916 C917 1.394 . S
C916 C922 1.465 1_655 S
C917 C912 1.399 . S
C917 C916 1.394 . S
C917 C918 1.516 . S
C918 C917 1.516 . S
C918 C919 1.502 . S
C918 C920 1.561 1_655 S
C918 C921 1.526 1_655 S
C919 H903 0.959 . S
C919 H904 0.959 1_655 S
C919 H905 0.961 . S
C919 C918 1.502 . S
C920 H906 0.960 1_455 S
C920 H907 0.961 . S
C920 H908 0.959 . S
C920 C918 1.561 1_455 S
C921 C918 1.526 1_455 S
C921 C922 1.396 . S
C921 C926 1.390 . S
C922 C916 1.465 1_455 S
C922 C921 1.396 . S
C922 C923 1.399 . S
C923 H909 0.929 . S
C923 C922 1.399 . S
C923 C924 1.385 . S
C924 H910 0.931 . S
C924 C923 1.385 . S
C924 C925 1.389 . S
C925 C924 1.389 . S
C925 C926 1.387 . S
C926 H911 0.930 . S
C926 C921 1.390 . S
C926 C925 1.387 . S
H927 C939 0.930 . S
H928 C941 0.930 . S
H929 C942 0.930 . S
H930 C946 0.959 . S
H931 C946 0.959 . S
H932 C946 0.961 . S
H933 C947 0.960 . S
H934 C947 0.961 . S
H935 C947 0.959 . S
H936 C950 0.929 . S
H937 C951 0.931 . S
H938 C953 0.930 . S
C939 H927 0.930 . S
C939 C940 1.399 . S
C939 C944 1.399 . S
C940 C939 1.399 . S
C940 C941 1.376 . S
C941 H928 0.930 . S
C941 C940 1.376 . S
C941 C942 1.388 . S
C942 H929 0.930 . S
C942 C941 1.388 . S
C942 C943 1.390 . S
C943 C942 1.390 . S
C943 C944 1.394 . S
C943 C949 1.465 . S
C944 C939 1.399 . S
C944 C943 1.394 . S
C944 C945 1.516 . S
C945 C944 1.516 . S
C945 C946 1.502 . S
C945 C947 1.561 . S
C945 C948 1.526 . S
C946 H930 0.959 . S
C946 H931 0.959 . S
C946 H932 0.961 . S
C946 C945 1.502 . S
C947 H933 0.960 . S
C947 H934 0.961 . S
C947 H935 0.959 . S
C947 C945 1.561 . S
C948 C945 1.526 . S
C948 C949 1.396 . S
C948 C953 1.390 . S
C949 C943 1.465 . S
C949 C948 1.396 . S
C949 C950 1.399 . S
C950 H936 0.929 . S
C950 C949 1.399 . S
C950 C951 1.385 . S
C951 H937 0.931 . S
C951 C950 1.385 . S
C951 C952 1.389 . S
C952 C951 1.389 . S
C952 C953 1.387 . S
C953 H938 0.930 . S
C953 C948 1.390 . S
C953 C952 1.387 . S
H954 C966 0.930 . S
H955 C968 0.930 . S
H956 C969 0.930 . S
H957 C973 0.959 . S
H958 C973 0.959 . S
H959 C973 0.961 . S
H960 C974 0.960 . S
H961 C974 0.961 . S
H962 C974 0.959 . S
H963 C977 0.929 . S
H964 C978 0.931 . S
H965 C980 0.930 . S
C966 H954 0.930 . S
C966 C967 1.399 . S
C966 C971 1.399 . S
C967 C966 1.399 . S
C967 C968 1.376 . S
C968 H955 0.930 . S
C968 C967 1.376 . S
C968 C969 1.388 . S
C969 H956 0.930 . S
C969 C968 1.388 . S
C969 C970 1.390 . S
C970 C969 1.390 . S
C970 C971 1.394 . S
C970 C976 1.465 . S
C971 C966 1.399 . S
C971 C970 1.394 . S
C971 C972 1.516 . S
C972 C971 1.516 . S
C972 C973 1.502 . S
C972 C974 1.561 . S
C972 C975 1.538 . S
C973 H957 0.959 . S
C973 H958 0.959 . S
C973 H959 0.961 . S
C973 C972 1.502 . S
C974 H960 0.960 . S
C974 H961 0.961 . S
C974 H962 0.959 . S
C974 C972 1.561 . S
C975 C972 1.538 . S
C975 C976 1.398 . S
C975 C980 1.376 1_545 S
C976 C970 1.465 . S
C976 C975 1.398 . S
C976 C977 1.399 1_545 S
C977 H963 0.929 . S
C977 C976 1.399 1_565 S
C977 C978 1.385 . S
C978 H964 0.931 . S
C978 C977 1.385 . S
C978 C979 1.389 . S
C979 C978 1.389 . S
C979 C980 1.387 . S
C980 H965 0.930 . S
C980 C975 1.376 1_565 S
C980 C979 1.387 . S
H981 C993 0.930 . S
H982 C995 0.930 . S
H983 C996 0.930 . S
H984 C1000 0.959 . S
H985 C1000 0.959 . S
H986 C1000 0.961 . S
H987 C1001 0.960 . S
H988 C1001 0.961 . S
H989 C1001 0.959 . S
H990 C1004 0.929 . S
H991 C1005 0.931 . S
H992 C1007 0.930 . S
C993 H981 0.930 . S
C993 C994 1.399 . S
C993 C998 1.399 . S
C994 C993 1.399 . S
C994 C995 1.376 . S
C995 H982 0.930 . S
C995 C994 1.376 . S
C995 C996 1.388 . S
C996 H983 0.930 . S
C996 C995 1.388 . S
C996 C997 1.390 . S
C997 C996 1.390 . S
C997 C998 1.394 . S
C997 C1003 1.465 . S
C998 C993 1.399 . S
C998 C997 1.394 . S
C998 C999 1.516 . S
C999 C998 1.516 . S
C999 C1000 1.502 . S
C999 C1001 1.561 . S
C999 C1002 1.526 . S
C1000 H984 0.959 . S
C1000 H985 0.959 . S
C1000 H986 0.961 . S
C1000 C999 1.502 . S
C1001 H987 0.960 . S
C1001 H988 0.961 . S
C1001 H989 0.959 . S
C1001 C999 1.561 . S
C1002 C999 1.526 . S
C1002 C1003 1.396 . S
C1002 C1007 1.390 . S
C1003 C997 1.465 . S
C1003 C1002 1.396 . S
C1003 C1004 1.399 . S
C1004 H990 0.929 . S
C1004 C1003 1.399 . S
C1004 C1005 1.385 . S
C1005 H991 0.931 . S
C1005 C1004 1.385 . S
C1005 C1006 1.389 . S
C1006 C1005 1.389 . S
C1006 C1007 1.387 . S
C1007 H992 0.930 . S
C1007 C1002 1.390 . S
C1007 C1006 1.387 . S
H1008 C1020 0.930 . S
H1009 C1022 0.930 . S
H1010 C1023 0.930 . S
H1011 C1027 0.959 . S
H1012 C1027 0.959 . S
H1013 C1027 0.961 . S
H1014 C1028 0.960 . S
H1015 C1028 0.961 . S
H1016 C1028 0.959 . S
H1017 C1031 0.929 . S
H1018 C1032 0.931 . S
H1019 C1034 0.930 . S
C1020 H1008 0.930 . S
C1020 C1021 1.399 . S
C1020 C1025 1.399 . S
C1021 C1020 1.399 . S
C1021 C1022 1.376 . S
C1022 H1009 0.930 . S
C1022 C1021 1.376 . S
C1022 C1023 1.388 . S
C1023 H1010 0.930 . S
C1023 C1022 1.388 . S
C1023 C1024 1.390 . S
C1024 C1023 1.390 . S
C1024 C1025 1.394 . S
C1024 C1030 1.465 . S
C1025 C1020 1.399 . S
C1025 C1024 1.394 . S
C1025 C1026 1.516 . S
C1026 C1025 1.516 . S
C1026 C1027 1.502 . S
C1026 C1028 1.561 . S
C1026 C1029 1.526 . S
C1027 H1011 0.959 . S
C1027 H1012 0.959 . S
C1027 H1013 0.961 . S
C1027 C1026 1.502 . S
C1028 H1014 0.960 . S
C1028 H1015 0.961 . S
C1028 H1016 0.959 . S
C1028 C1026 1.561 . S
C1029 C1026 1.526 . S
C1029 C1030 1.396 . S
C1029 C1034 1.390 . S
C1030 C1024 1.465 . S
C1030 C1029 1.396 . S
C1030 C1031 1.399 . S
C1031 H1017 0.929 . S
C1031 C1030 1.399 . S
C1031 C1032 1.385 . S
C1032 H1018 0.931 . S
C1032 C1031 1.385 . S
C1032 C1033 1.389 . S
C1033 C1032 1.389 . S
C1033 C1034 1.387 . S
C1034 H1019 0.930 . S
C1034 C1029 1.390 . S
C1034 C1033 1.387 . S
H1035 C1047 0.930 . S
H1036 C1049 0.930 . S
H1037 C1050 0.930 . S
H1038 C1054 0.959 . S
H1039 C1054 0.959 . S
H1040 C1054 0.961 . S
H1041 C1055 0.960 . S
H1042 C1055 0.961 . S
H1043 C1055 0.959 . S
H1044 C1058 0.929 . S
H1045 C1059 0.931 . S
H1046 C1061 0.930 . S
C1047 H1035 0.930 . S
C1047 C1048 1.399 . S
C1047 C1052 1.399 . S
C1048 C1047 1.399 . S
C1048 C1049 1.376 . S
C1049 H1036 0.930 . S
C1049 C1048 1.376 . S
C1049 C1050 1.388 . S
C1050 H1037 0.930 . S
C1050 C1049 1.388 . S
C1050 C1051 1.390 . S
C1051 C1050 1.390 . S
C1051 C1052 1.394 . S
C1051 C1057 1.465 . S
C1052 C1047 1.399 . S
C1052 C1051 1.394 . S
C1052 C1053 1.516 . S
C1053 C1052 1.516 . S
C1053 C1054 1.502 . S
C1053 C1055 1.561 . S
C1053 C1056 1.526 . S
C1054 H1038 0.959 . S
C1054 H1039 0.959 . S
C1054 H1040 0.961 . S
C1054 C1053 1.502 . S
C1055 H1041 0.960 . S
C1055 H1042 0.961 . S
C1055 H1043 0.959 . S
C1055 C1053 1.561 . S
C1056 C1053 1.526 . S
C1056 C1057 1.396 . S
C1056 C1061 1.390 . S
C1057 C1051 1.465 . S
C1057 C1056 1.396 . S
C1057 C1058 1.399 . S
C1058 H1044 0.929 . S
C1058 C1057 1.399 . S
C1058 C1059 1.385 . S
C1059 H1045 0.931 . S
C1059 C1058 1.385 . S
C1059 C1060 1.389 . S
C1060 C1059 1.389 . S
C1060 C1061 1.387 . S
C1061 H1046 0.930 . S
C1061 C1056 1.390 . S
C1061 C1060 1.387 . S
H1062 C1074 0.930 . S
H1063 C1076 0.930 . S
H1064 C1077 0.930 . S
H1065 C1081 0.959 . S
H1066 C1081 0.959 . S
H1067 C1081 0.961 . S
H1068 C1082 0.960 . S
H1069 C1082 0.961 . S
H1070 C1082 0.959 . S
H1071 C1085 0.929 . S
H1072 C1086 0.931 . S
H1073 C1088 0.930 . S
C1074 H1062 0.930 . S
C1074 C1075 1.399 . S
C1074 C1079 1.399 . S
C1075 C1074 1.399 . S
C1075 C1076 1.376 . S
C1076 H1063 0.930 . S
C1076 C1075 1.376 . S
C1076 C1077 1.388 . S
C1077 H1064 0.930 . S
C1077 C1076 1.388 . S
C1077 C1078 1.390 . S
C1078 C1077 1.390 . S
C1078 C1079 1.394 . S
C1078 C1084 1.465 . S
C1079 C1074 1.399 . S
C1079 C1078 1.394 . S
C1079 C1080 1.516 . S
C1080 C1079 1.516 . S
C1080 C1081 1.502 . S
C1080 C1082 1.561 . S
C1080 C1083 1.526 . S
C1081 H1065 0.959 . S
C1081 H1066 0.959 . S
C1081 H1067 0.961 . S
C1081 C1080 1.502 . S
C1082 H1068 0.960 . S
C1082 H1069 0.961 . S
C1082 H1070 0.959 . S
C1082 C1080 1.561 . S
C1083 C1080 1.526 . S
C1083 C1084 1.396 . S
C1083 C1088 1.390 . S
C1084 C1078 1.465 . S
C1084 C1083 1.396 . S
C1084 C1085 1.399 . S
C1085 H1071 0.929 . S
C1085 C1084 1.399 . S
C1085 C1086 1.385 . S
C1086 H1072 0.931 . S
C1086 C1085 1.385 . S
C1086 C1087 1.389 . S
C1087 C1086 1.389 . S
C1087 C1088 1.387 . S
C1088 H1073 0.930 . S
C1088 C1083 1.390 . S
C1088 C1087 1.387 . S
H1089 C1101 0.930 . S
H1090 C1103 0.930 . S
H1091 C1104 0.930 . S
H1092 C1108 0.959 . S
H1093 C1108 0.959 . S
H1094 C1108 0.961 . S
H1095 C1109 0.960 . S
H1096 C1109 0.961 . S
H1097 C1109 0.959 . S
H1098 C1112 0.929 . S
H1099 C1113 0.931 . S
H1100 C1115 0.930 . S
C1101 H1089 0.930 . S
C1101 C1102 1.399 . S
C1101 C1106 1.399 . S
C1102 C1101 1.399 . S
C1102 C1103 1.376 . S
C1103 H1090 0.930 . S
C1103 C1102 1.376 . S
C1103 C1104 1.388 . S
C1104 H1091 0.930 . S
C1104 C1103 1.388 . S
C1104 C1105 1.390 . S
C1105 C1104 1.390 . S
C1105 C1106 1.394 . S
C1105 C1111 1.465 . S
C1106 C1101 1.399 . S
C1106 C1105 1.394 . S
C1106 C1107 1.516 . S
C1107 C1106 1.516 . S
C1107 C1108 1.502 . S
C1107 C1109 1.561 . S
C1107 C1110 1.526 . S
C1108 H1092 0.959 . S
C1108 H1093 0.959 . S
C1108 H1094 0.961 . S
C1108 C1107 1.502 . S
C1109 H1095 0.960 . S
C1109 H1096 0.961 . S
C1109 H1097 0.959 . S
C1109 C1107 1.561 . S
C1110 C1107 1.526 . S
C1110 C1111 1.396 . S
C1110 C1115 1.390 . S
C1111 C1105 1.465 . S
C1111 C1110 1.396 . S
C1111 C1112 1.399 . S
C1112 H1098 0.929 . S
C1112 C1111 1.399 . S
C1112 C1113 1.385 . S
C1113 H1099 0.931 . S
C1113 C1112 1.385 . S
C1113 C1114 1.389 . S
C1114 C1113 1.389 . S
C1114 C1115 1.387 . S
C1115 H1100 0.930 . S
C1115 C1110 1.390 . S
C1115 C1114 1.387 . S
H1116 C1128 0.930 . S
H1117 C1130 0.930 . S
H1118 C1131 0.930 . S
H1119 C1135 0.959 . S
H1120 C1135 0.959 . S
H1121 C1135 0.961 . S
H1122 C1136 0.960 . S
H1123 C1136 0.961 . S
H1124 C1136 0.959 . S
H1125 C1139 0.929 . S
H1126 C1140 0.931 . S
H1127 C1142 0.930 . S
C1128 H1116 0.930 . S
C1128 C1129 1.399 . S
C1128 C1133 1.399 . S
C1129 C1128 1.399 . S
C1129 C1130 1.376 . S
C1130 H1117 0.930 . S
C1130 C1129 1.376 . S
C1130 C1131 1.388 . S
C1131 H1118 0.930 . S
C1131 C1130 1.388 . S
C1131 C1132 1.390 . S
C1132 C1131 1.390 . S
C1132 C1133 1.394 . S
C1132 C1138 1.465 . S
C1133 C1128 1.399 . S
C1133 C1132 1.394 . S
C1133 C1134 1.516 . S
C1134 C1133 1.516 . S
C1134 C1135 1.502 . S
C1134 C1136 1.561 . S
C1134 C1137 1.526 . S
C1135 H1119 0.959 . S
C1135 H1120 0.959 . S
C1135 H1121 0.961 . S
C1135 C1134 1.502 . S
C1136 H1122 0.960 . S
C1136 H1123 0.961 . S
C1136 H1124 0.959 . S
C1136 C1134 1.561 . S
C1137 C1134 1.526 . S
C1137 C1138 1.396 . S
C1137 C1142 1.390 . S
C1138 C1132 1.465 . S
C1138 C1137 1.396 . S
C1138 C1139 1.399 . S
C1139 H1125 0.929 . S
C1139 C1138 1.399 . S
C1139 C1140 1.385 . S
C1140 H1126 0.931 . S
C1140 C1139 1.385 . S
C1140 C1141 1.389 . S
C1141 C1140 1.389 . S
C1141 C1142 1.387 . S
C1142 H1127 0.930 . S
C1142 C1137 1.390 . S
C1142 C1141 1.387 . S
H1143 C1155 0.930 . S
H1144 C1157 0.930 . S
H1145 C1158 0.930 . S
H1146 C1162 0.959 . S
H1147 C1162 0.959 . S
H1148 C1162 0.961 . S
H1149 C1163 0.960 . S
H1150 C1163 0.961 . S
H1151 C1163 0.959 . S
H1152 C1166 0.929 . S
H1153 C1167 0.931 . S
H1154 C1169 0.930 . S
C1155 H1143 0.930 . S
C1155 C1156 1.399 . S
C1155 C1160 1.399 1_545 S
C1156 C1155 1.399 . S
C1156 C1157 1.376 . S
C1157 H1144 0.930 . S
C1157 C1156 1.376 . S
C1157 C1158 1.388 1_545 S
C1158 H1145 0.930 . S
C1158 C1157 1.388 1_565 S
C1158 C1159 1.390 . S
C1159 C1158 1.390 . S
C1159 C1160 1.394 . S
C1159 C1165 1.465 . S
C1160 C1155 1.399 1_565 S
C1160 C1159 1.394 . S
C1160 C1161 1.516 . S
C1161 C1160 1.516 . S
C1161 C1162 1.502 . S
C1161 C1163 1.561 . S
C1161 C1164 1.526 . S
C1162 H1146 0.959 . S
C1162 H1147 0.959 . S
C1162 H1148 0.961 . S
C1162 C1161 1.502 . S
C1163 H1149 0.960 . S
C1163 H1150 0.961 . S
C1163 H1151 0.959 . S
C1163 C1161 1.561 . S
C1164 C1161 1.526 . S
C1164 C1165 1.396 . S
C1164 C1169 1.390 . S
C1165 C1159 1.465 . S
C1165 C1164 1.396 . S
C1165 C1166 1.399 . S
C1166 H1152 0.929 . S
C1166 C1165 1.399 . S
C1166 C1167 1.385 . S
C1167 H1153 0.931 . S
C1167 C1166 1.385 . S
C1167 C1168 1.389 . S
C1168 C1167 1.389 . S
C1168 C1169 1.387 . S
C1169 H1154 0.930 . S
C1169 C1164 1.390 . S
C1169 C1168 1.387 . S
H1170 C1182 0.927 1_655 S
H1171 C1184 0.930 1_655 S
H1172 C1185 0.930 . S
H1173 C1189 0.959 . S
H1174 C1189 0.959 . S
H1175 C1189 0.961 . S
H1176 C1190 0.960 . S
H1177 C1190 0.961 . S
H1178 C1190 0.959 . S
H1179 C1193 0.929 . S
H1180 C1194 0.931 . S
H1181 C1196 0.930 . S
C1182 H1170 0.927 1_455 S
C1182 C1183 1.385 1_455 S
C1182 C1187 1.416 . S
C1183 C1182 1.385 1_655 S
C1183 C1184 1.376 1_655 S
C1184 H1171 0.930 1_455 S
C1184 C1183 1.376 1_455 S
C1184 C1185 1.388 . S
C1185 H1172 0.930 . S
C1185 C1184 1.388 . S
C1185 C1186 1.390 . S
C1186 C1185 1.390 . S
C1186 C1187 1.394 . S
C1186 C1192 1.465 . S
C1187 C1182 1.416 . S
C1187 C1186 1.394 . S
C1187 C1188 1.516 . S
C1188 C1187 1.516 . S
C1188 C1189 1.502 . S
C1188 C1190 1.561 . S
C1188 C1191 1.526 . S
C1189 H1173 0.959 . S
C1189 H1174 0.959 . S
C1189 H1175 0.961 . S
C1189 C1188 1.502 . S
C1190 H1176 0.960 . S
C1190 H1177 0.961 . S
C1190 H1178 0.959 . S
C1190 C1188 1.561 . S
C1191 C1188 1.526 . S
C1191 C1192 1.396 . S
C1191 C1196 1.390 . S
C1192 C1186 1.465 . S
C1192 C1191 1.396 . S
C1192 C1193 1.399 . S
C1193 H1179 0.929 . S
C1193 C1192 1.399 . S
C1193 C1194 1.385 . S
C1194 H1180 0.931 . S
C1194 C1193 1.385 . S
C1194 C1195 1.389 . S
C1195 C1194 1.389 . S
C1195 C1196 1.387 . S
C1196 H1181 0.930 . S
C1196 C1191 1.390 . S
C1196 C1195 1.387 . S
H1197 C1209 0.930 . S
H1198 C1211 0.930 . S
H1199 C1212 0.930 . S
H1200 C1216 0.959 . S
H1201 C1216 0.959 . S
H1202 C1216 0.961 . S
H1203 C1217 0.960 . S
H1204 C1217 0.961 . S
H1205 C1217 0.959 . S
H1206 C1220 0.929 . S
H1207 C1221 0.931 . S
H1208 C1223 0.930 . S
C1209 H1197 0.930 . S
C1209 C1210 1.399 . S
C1209 C1214 1.399 . S
C1210 C1209 1.399 . S
C1210 C1211 1.376 . S
C1211 H1198 0.930 . S
C1211 C1210 1.376 . S
C1211 C1212 1.388 . S
C1212 H1199 0.930 . S
C1212 C1211 1.388 . S
C1212 C1213 1.390 . S
C1213 C1212 1.390 . S
C1213 C1214 1.394 . S
C1213 C1219 1.465 . S
C1214 C1209 1.399 . S
C1214 C1213 1.394 . S
C1214 C1215 1.516 . S
C1215 C1214 1.516 . S
C1215 C1216 1.502 . S
C1215 C1217 1.561 . S
C1215 C1218 1.526 . S
C1216 H1200 0.959 . S
C1216 H1201 0.959 . S
C1216 H1202 0.961 . S
C1216 C1215 1.502 . S
C1217 H1203 0.960 . S
C1217 H1204 0.961 . S
C1217 H1205 0.959 . S
C1217 C1215 1.561 . S
C1218 C1215 1.526 . S
C1218 C1219 1.396 . S
C1218 C1223 1.390 . S
C1219 C1213 1.465 . S
C1219 C1218 1.396 . S
C1219 C1220 1.399 . S
C1220 H1206 0.929 . S
C1220 C1219 1.399 . S
C1220 C1221 1.385 . S
C1221 H1207 0.931 . S
C1221 C1220 1.385 . S
C1221 C1222 1.389 . S
C1222 C1221 1.389 . S
C1222 C1223 1.387 . S
C1223 H1208 0.930 . S
C1223 C1218 1.390 . S
C1223 C1222 1.387 . S
H1224 C1236 0.930 . S
H1225 C1238 0.930 . S
H1226 C1239 0.930 . S
H1227 C1243 0.959 . S
H1228 C1243 0.959 . S
H1229 C1243 0.961 . S
H1230 C1244 0.960 . S
H1231 C1244 0.961 . S
H1232 C1244 0.959 . S
H1233 C1247 0.929 . S
H1234 C1248 0.931 . S
H1235 C1250 0.930 . S
C1236 H1224 0.930 . S
C1236 C1237 1.399 . S
C1236 C1241 1.399 . S
C1237 C1236 1.399 . S
C1237 C1238 1.376 . S
C1238 H1225 0.930 . S
C1238 C1237 1.376 . S
C1238 C1239 1.388 . S
C1239 H1226 0.930 . S
C1239 C1238 1.388 . S
C1239 C1240 1.390 . S
C1240 C1239 1.390 . S
C1240 C1241 1.394 . S
C1240 C1246 1.465 . S
C1241 C1236 1.399 . S
C1241 C1240 1.394 . S
C1241 C1242 1.516 . S
C1242 C1241 1.516 . S
C1242 C1243 1.502 . S
C1242 C1244 1.561 . S
C1242 C1245 1.526 . S
C1243 H1227 0.959 . S
C1243 H1228 0.959 . S
C1243 H1229 0.961 . S
C1243 C1242 1.502 . S
C1244 H1230 0.960 . S
C1244 H1231 0.961 . S
C1244 H1232 0.959 . S
C1244 C1242 1.561 . S
C1245 C1242 1.526 . S
C1245 C1246 1.396 . S
C1245 C1250 1.390 . S
C1246 C1240 1.465 . S
C1246 C1245 1.396 . S
C1246 C1247 1.399 . S
C1247 H1233 0.929 . S
C1247 C1246 1.399 . S
C1247 C1248 1.385 . S
C1248 H1234 0.931 . S
C1248 C1247 1.385 . S
C1248 C1249 1.389 . S
C1249 C1248 1.389 . S
C1249 C1250 1.387 . S
C1250 H1235 0.930 . S
C1250 C1245 1.390 . S
C1250 C1249 1.387 . S
H1251 C1263 0.930 . S
H1252 C1265 0.930 . S
H1253 C1266 0.930 . S
H1254 C1270 0.959 . S
H1255 C1270 0.959 . S
H1256 C1270 0.961 . S
H1257 C1271 0.960 . S
H1258 C1271 0.961 . S
H1259 C1271 0.959 . S
H1260 C1274 0.929 . S
H1261 C1275 0.931 . S
H1262 C1277 0.930 . S
C1263 H1251 0.930 . S
C1263 C1264 1.399 . S
C1263 C1268 1.399 . S
C1264 C1263 1.399 . S
C1264 C1265 1.376 . S
C1265 H1252 0.930 . S
C1265 C1264 1.376 . S
C1265 C1266 1.388 . S
C1266 H1253 0.930 . S
C1266 C1265 1.388 . S
C1266 C1267 1.390 . S
C1267 C1266 1.390 . S
C1267 C1268 1.394 . S
C1267 C1273 1.465 . S
C1268 C1263 1.399 . S
C1268 C1267 1.394 . S
C1268 C1269 1.516 . S
C1269 C1268 1.516 . S
C1269 C1270 1.502 . S
C1269 C1271 1.561 . S
C1269 C1272 1.526 . S
C1270 H1254 0.959 . S
C1270 H1255 0.959 . S
C1270 H1256 0.961 . S
C1270 C1269 1.502 . S
C1271 H1257 0.960 . S
C1271 H1258 0.961 . S
C1271 H1259 0.959 . S
C1271 C1269 1.561 . S
C1272 C1269 1.526 . S
C1272 C1273 1.396 . S
C1272 C1277 1.390 . S
C1273 C1267 1.465 . S
C1273 C1272 1.396 . S
C1273 C1274 1.399 . S
C1274 H1260 0.929 . S
C1274 C1273 1.399 . S
C1274 C1275 1.385 . S
C1275 H1261 0.931 . S
C1275 C1274 1.385 . S
C1275 C1276 1.389 . S
C1276 C1275 1.389 . S
C1276 C1277 1.387 . S
C1277 H1262 0.930 . S
C1277 C1272 1.390 . S
C1277 C1276 1.387 . S
H1278 C1290 0.930 . S
H1279 C1292 0.930 . S
H1280 C1293 0.930 . S
H1281 C1297 0.959 . S
H1282 C1297 0.959 . S
H1283 C1297 0.961 . S
H1284 C1298 0.960 . S
H1285 C1298 0.961 . S
H1286 C1298 0.959 . S
H1287 C1301 0.929 . S
H1288 C1302 0.931 . S
H1289 C1304 0.930 . S
C1290 H1278 0.930 . S
C1290 C1291 1.399 . S
C1290 C1295 1.399 . S
C1291 C1290 1.399 . S
C1291 C1292 1.376 . S
C1292 H1279 0.930 . S
C1292 C1291 1.376 . S
C1292 C1293 1.388 . S
C1293 H1280 0.930 . S
C1293 C1292 1.388 . S
C1293 C1294 1.390 . S
C1294 C1293 1.390 . S
C1294 C1295 1.394 . S
C1294 C1300 1.465 . S
C1295 C1290 1.399 . S
C1295 C1294 1.394 . S
C1295 C1296 1.516 . S
C1296 C1295 1.516 . S
C1296 C1297 1.502 . S
C1296 C1298 1.561 . S
C1296 C1299 1.526 . S
C1297 H1281 0.959 . S
C1297 H1282 0.959 . S
C1297 H1283 0.961 . S
C1297 C1296 1.502 . S
C1298 H1284 0.960 . S
C1298 H1285 0.961 . S
C1298 H1286 0.959 . S
C1298 C1296 1.561 . S
C1299 C1296 1.526 . S
C1299 C1300 1.396 . S
C1299 C1304 1.390 . S
C1300 C1294 1.465 . S
C1300 C1299 1.396 . S
C1300 C1301 1.399 . S
C1301 H1287 0.929 . S
C1301 C1300 1.399 . S
C1301 C1302 1.385 . S
C1302 H1288 0.931 . S
C1302 C1301 1.385 . S
C1302 C1303 1.389 . S
C1303 C1302 1.389 . S
C1303 C1304 1.387 . S
C1304 H1289 0.930 . S
C1304 C1299 1.390 . S
C1304 C1303 1.387 . S
H1305 C1317 0.930 . S
H1306 C1319 0.930 . S
H1307 C1320 0.930 . S
H1308 C1324 0.959 1_545 S
H1309 C1324 0.959 1_545 S
H1310 C1324 0.961 . S
H1311 C1325 0.960 . S
H1312 C1325 0.961 . S
H1313 C1325 0.959 . S
H1314 C1328 0.929 . S
H1315 C1329 0.931 . S
H1316 C1331 0.930 . S
C1317 H1305 0.930 . S
C1317 C1318 1.399 . S
C1317 C1322 1.399 . S
C1318 C1317 1.399 . S
C1318 C1319 1.376 . S
C1319 H1306 0.930 . S
C1319 C1318 1.376 . S
C1319 C1320 1.388 . S
C1320 H1307 0.930 . S
C1320 C1319 1.388 . S
C1320 C1321 1.390 . S
C1321 C1320 1.390 . S
C1321 C1322 1.394 . S
C1321 C1327 1.465 1_565 S
C1322 C1317 1.399 . S
C1322 C1321 1.394 . S
C1322 C1323 1.516 . S
C1323 C1322 1.516 . S
C1323 C1324 1.502 . S
C1323 C1325 1.561 . S
C1323 C1326 1.526 1_565 S
C1324 H1308 0.959 1_565 S
C1324 H1309 0.959 1_565 S
C1324 H1310 0.961 . S
C1324 C1323 1.502 . S
C1325 H1311 0.960 . S
C1325 H1312 0.961 . S
C1325 H1313 0.959 . S
C1325 C1323 1.561 . S
C1326 C1323 1.526 1_545 S
C1326 C1327 1.396 . S
C1326 C1331 1.390 . S
C1327 C1321 1.465 1_545 S
C1327 C1326 1.396 . S
C1327 C1328 1.399 . S
C1328 H1314 0.929 . S
C1328 C1327 1.399 . S
C1328 C1329 1.385 . S
C1329 H1315 0.931 . S
C1329 C1328 1.385 . S
C1329 C1330 1.389 . S
C1330 C1329 1.389 . S
C1330 C1331 1.387 . S
C1331 H1316 0.930 . S
C1331 C1326 1.390 . S
C1331 C1330 1.387 . S
H1332 C1344 0.930 . S
H1333 C1346 0.930 . S
H1334 C1347 0.930 1_655 S
H1335 C1351 0.959 . S
H1336 C1351 0.959 . S
H1337 C1351 0.961 . S
H1338 C1352 0.960 . S
H1339 C1352 0.961 . S
H1340 C1352 0.959 . S
H1341 C1355 0.929 . S
H1342 C1356 0.931 . S
H1343 C1358 0.930 . S
C1344 H1332 0.930 . S
C1344 C1345 1.399 . S
C1344 C1349 1.399 . S
C1345 C1344 1.399 . S
C1345 C1346 1.376 . S
C1346 H1333 0.930 . S
C1346 C1345 1.376 . S
C1346 C1347 1.388 . S
C1347 H1334 0.930 1_455 S
C1347 C1346 1.388 . S
C1347 C1348 1.390 . S
C1348 C1347 1.390 . S
C1348 C1349 1.394 . S
C1348 C1354 1.465 1_455 S
C1349 C1344 1.399 . S
C1349 C1348 1.394 . S
C1349 C1350 1.516 . S
C1350 C1349 1.516 . S
C1350 C1351 1.502 . S
C1350 C1352 1.561 . S
C1350 C1353 1.526 1_455 S
C1351 H1335 0.959 . S
C1351 H1336 0.959 . S
C1351 H1337 0.961 . S
C1351 C1350 1.502 . S
C1352 H1338 0.960 . S
C1352 H1339 0.961 . S
C1352 H1340 0.959 . S
C1352 C1350 1.561 . S
C1353 C1350 1.526 1_655 S
C1353 C1354 1.396 . S
C1353 C1358 1.390 . S
C1354 C1348 1.465 1_655 S
C1354 C1353 1.396 . S
C1354 C1355 1.399 . S
C1355 H1341 0.929 . S
C1355 C1354 1.399 . S
C1355 C1356 1.385 . S
C1356 H1342 0.931 . S
C1356 C1355 1.385 . S
C1356 C1357 1.389 . S
C1357 C1356 1.389 . S
C1357 C1358 1.387 . S
C1358 H1343 0.930 . S
C1358 C1353 1.390 . S
C1358 C1357 1.387 . S
H1359 C1371 0.930 . S
H1360 C1373 0.930 . S
H1361 C1374 0.930 . S
H1362 C1378 0.959 . S
H1363 C1378 0.959 . S
H1364 C1378 0.961 . S
H1365 C1379 0.960 . S
H1366 C1379 0.961 . S
H1367 C1379 0.959 . S
H1368 C1382 0.929 . S
H1369 C1383 0.931 . S
H1370 C1385 0.930 . S
C1371 H1359 0.930 . S
C1371 C1372 1.399 . S
C1371 C1376 1.399 . S
C1372 C1371 1.399 . S
C1372 C1373 1.376 . S
C1373 H1360 0.930 . S
C1373 C1372 1.376 . S
C1373 C1374 1.388 . S
C1374 H1361 0.930 . S
C1374 C1373 1.388 . S
C1374 C1375 1.390 . S
C1375 C1374 1.390 . S
C1375 C1376 1.394 . S
C1375 C1381 1.465 . S
C1376 C1371 1.399 . S
C1376 C1375 1.394 . S
C1376 C1377 1.516 . S
C1377 C1376 1.516 . S
C1377 C1378 1.502 . S
C1377 C1379 1.561 . S
C1377 C1380 1.526 . S
C1378 H1362 0.959 . S
C1378 H1363 0.959 . S
C1378 H1364 0.961 . S
C1378 C1377 1.502 . S
C1379 H1365 0.960 . S
C1379 H1366 0.961 . S
C1379 H1367 0.959 . S
C1379 C1377 1.561 . S
C1380 C1377 1.526 . S
C1380 C1381 1.396 . S
C1380 C1385 1.390 . S
C1381 C1375 1.465 . S
C1381 C1380 1.396 . S
C1381 C1382 1.399 . S
C1382 H1368 0.929 . S
C1382 C1381 1.399 . S
C1382 C1383 1.385 . S
C1383 H1369 0.931 . S
C1383 C1382 1.385 . S
C1383 C1384 1.389 . S
C1384 C1383 1.389 . S
C1384 C1385 1.387 . S
C1385 H1370 0.930 . S
C1385 C1380 1.390 . S
C1385 C1384 1.387 . S
H1386 C1398 0.930 . S
H1387 C1400 0.930 . S
H1388 C1401 0.930 . S
H1389 C1405 0.959 . S
H1390 C1405 0.959 . S
H1391 C1405 0.961 . S
H1392 C1406 0.960 . S
H1393 C1406 0.961 . S
H1394 C1406 0.959 . S
H1395 C1409 0.929 . S
H1396 C1410 0.931 . S
H1397 C1412 0.930 . S
C1398 H1386 0.930 . S
C1398 C1399 1.399 . S
C1398 C1403 1.399 1_455 S
C1399 C1398 1.399 . S
C1399 C1400 1.376 . S
C1400 H1387 0.930 . S
C1400 C1399 1.376 . S
C1400 C1401 1.388 . S
C1401 H1388 0.930 . S
C1401 C1400 1.388 . S
C1401 C1402 1.390 1_455 S
C1402 C1401 1.390 1_655 S
C1402 C1403 1.394 . S
C1402 C1408 1.465 . S
C1403 C1398 1.399 1_655 S
C1403 C1402 1.394 . S
C1403 C1404 1.516 . S
C1404 C1403 1.516 . S
C1404 C1405 1.502 . S
C1404 C1406 1.561 . S
C1404 C1407 1.526 . S
C1405 H1389 0.959 . S
C1405 H1390 0.959 . S
C1405 H1391 0.961 . S
C1405 C1404 1.502 . S
C1406 H1392 0.960 . S
C1406 H1393 0.961 . S
C1406 H1394 0.959 . S
C1406 C1404 1.561 . S
C1407 C1404 1.526 . S
C1407 C1408 1.396 . S
C1407 C1412 1.390 . S
C1408 C1402 1.465 . S
C1408 C1407 1.396 . S
C1408 C1409 1.399 . S
C1409 H1395 0.929 . S
C1409 C1408 1.399 . S
C1409 C1410 1.385 . S
C1410 H1396 0.931 . S
C1410 C1409 1.385 . S
C1410 C1411 1.389 . S
C1411 C1410 1.389 . S
C1411 C1412 1.387 . S
C1412 H1397 0.930 . S
C1412 C1407 1.390 . S
C1412 C1411 1.387 . S
H1413 C1425 0.930 . S
H1414 C1427 0.930 . S
H1415 C1428 0.930 . S
H1416 C1432 0.959 . S
H1417 C1432 0.959 . S
H1418 C1432 0.961 . S
H1419 C1433 0.960 . S
H1420 C1433 0.961 . S
H1421 C1433 0.959 . S
H1422 C1436 0.929 . S
H1423 C1437 0.931 . S
H1424 C1439 0.930 . S
C1425 H1413 0.930 . S
C1425 C1426 1.399 . S
C1425 C1430 1.399 . S
C1426 C1425 1.399 . S
C1426 C1427 1.376 . S
C1427 H1414 0.930 . S
C1427 C1426 1.376 . S
C1427 C1428 1.388 . S
C1428 H1415 0.930 . S
C1428 C1427 1.388 . S
C1428 C1429 1.390 . S
C1429 C1428 1.390 . S
C1429 C1430 1.394 . S
C1429 C1435 1.465 . S
C1430 C1425 1.399 . S
C1430 C1429 1.394 . S
C1430 C1431 1.516 . S
C1431 C1430 1.516 . S
C1431 C1432 1.502 . S
C1431 C1433 1.561 . S
C1431 C1434 1.526 . S
C1432 H1416 0.959 . S
C1432 H1417 0.959 . S
C1432 H1418 0.961 . S
C1432 C1431 1.502 . S
C1433 H1419 0.960 . S
C1433 H1420 0.961 . S
C1433 H1421 0.959 . S
C1433 C1431 1.561 . S
C1434 C1431 1.526 . S
C1434 C1435 1.396 . S
C1434 C1439 1.390 . S
C1435 C1429 1.465 . S
C1435 C1434 1.396 . S
C1435 C1436 1.399 . S
C1436 H1422 0.929 . S
C1436 C1435 1.399 . S
C1436 C1437 1.385 . S
C1437 H1423 0.931 . S
C1437 C1436 1.385 . S
C1437 C1438 1.389 . S
C1438 C1437 1.389 . S
C1438 C1439 1.387 . S
C1439 H1424 0.930 . S
C1439 C1434 1.390 . S
C1439 C1438 1.387 . S
H1440 C1452 0.930 . S
H1441 C1454 0.930 . S
H1442 C1455 0.930 . S
H1443 C1459 0.959 . S
H1444 C1459 0.959 . S
H1445 C1459 0.961 . S
H1446 C1460 0.960 . S
H1447 C1460 0.961 . S
H1448 C1460 0.959 . S
H1449 C1463 0.929 . S
H1450 C1464 0.931 . S
H1451 C1466 0.930 . S
C1452 H1440 0.930 . S
C1452 C1453 1.399 . S
C1452 C1457 1.399 1_565 S
C1453 C1452 1.399 . S
C1453 C1454 1.376 . S
C1454 H1441 0.930 . S
C1454 C1453 1.376 . S
C1454 C1455 1.388 1_565 S
C1455 H1442 0.930 . S
C1455 C1454 1.388 1_545 S
C1455 C1456 1.390 . S
C1456 C1455 1.390 . S
C1456 C1457 1.394 . S
C1456 C1462 1.465 . S
C1457 C1452 1.399 1_545 S
C1457 C1456 1.394 . S
C1457 C1458 1.516 . S
C1458 C1457 1.516 . S
C1458 C1459 1.502 . S
C1458 C1460 1.561 . S
C1458 C1461 1.526 . S
C1459 H1443 0.959 . S
C1459 H1444 0.959 . S
C1459 H1445 0.961 . S
C1459 C1458 1.502 . S
C1460 H1446 0.960 . S
C1460 H1447 0.961 . S
C1460 H1448 0.959 . S
C1460 C1458 1.561 . S
C1461 C1458 1.526 . S
C1461 C1462 1.396 . S
C1461 C1466 1.390 . S
C1462 C1456 1.465 . S
C1462 C1461 1.396 . S
C1462 C1463 1.399 . S
C1463 H1449 0.929 . S
C1463 C1462 1.399 . S
C1463 C1464 1.385 . S
C1464 H1450 0.931 . S
C1464 C1463 1.385 . S
C1464 C1465 1.389 . S
C1465 C1464 1.389 . S
C1465 C1466 1.387 . S
C1466 H1451 0.930 . S
C1466 C1461 1.390 . S
C1466 C1465 1.387 . S
H1467 C1479 0.930 . S
H1468 C1481 0.930 . S
H1469 C1482 0.930 . S
H1470 C1486 0.959 . S
H1471 C1486 0.959 . S
H1472 C1486 0.961 . S
H1473 C1487 0.960 . S
H1474 C1487 0.961 . S
H1475 C1487 0.959 . S
H1476 C1490 0.929 . S
H1477 C1491 0.931 . S
H1478 C1493 0.930 . S
C1479 H1467 0.930 . S
C1479 C1480 1.399 . S
C1479 C1484 1.399 . S
C1480 C1479 1.399 . S
C1480 C1481 1.376 . S
C1481 H1468 0.930 . S
C1481 C1480 1.376 . S
C1481 C1482 1.388 . S
C1482 H1469 0.930 . S
C1482 C1481 1.388 . S
C1482 C1483 1.390 . S
C1483 C1482 1.390 . S
C1483 C1484 1.394 . S
C1483 C1489 1.465 . S
C1484 C1479 1.399 . S
C1484 C1483 1.394 . S
C1484 C1485 1.516 . S
C1485 C1484 1.516 . S
C1485 C1486 1.502 . S
C1485 C1487 1.561 . S
C1485 C1488 1.526 . S
C1486 H1470 0.959 . S
C1486 H1471 0.959 . S
C1486 H1472 0.961 . S
C1486 C1485 1.502 . S
C1487 H1473 0.960 . S
C1487 H1474 0.961 . S
C1487 H1475 0.959 . S
C1487 C1485 1.561 . S
C1488 C1485 1.526 . S
C1488 C1489 1.396 . S
C1488 C1493 1.390 . S
C1489 C1483 1.465 . S
C1489 C1488 1.396 . S
C1489 C1490 1.399 . S
C1490 H1476 0.929 . S
C1490 C1489 1.399 . S
C1490 C1491 1.385 . S
C1491 H1477 0.931 . S
C1491 C1490 1.385 . S
C1491 C1492 1.389 . S
C1492 C1491 1.389 . S
C1492 C1493 1.387 . S
C1493 H1478 0.930 . S
C1493 C1488 1.390 . S
C1493 C1492 1.387 . S
H1494 C1506 0.930 . S
H1495 C1508 0.930 . S
H1496 C1509 0.930 . S
H1497 C1513 0.959 . S
H1498 C1513 0.959 . S
H1499 C1513 0.961 . S
H1500 C1514 0.960 . S
H1501 C1514 0.961 . S
H1502 C1514 0.959 . S
H1503 C1517 0.929 . S
H1504 C1518 0.931 . S
H1505 C1520 0.930 . S
C1506 H1494 0.930 . S
C1506 C1507 1.399 . S
C1506 C1511 1.399 . S
C1507 C1506 1.399 . S
C1507 C1508 1.376 . S
C1508 H1495 0.930 . S
C1508 C1507 1.376 . S
C1508 C1509 1.388 . S
C1509 H1496 0.930 . S
C1509 C1508 1.388 . S
C1509 C1510 1.390 . S
C1510 C1509 1.390 . S
C1510 C1511 1.394 . S
C1510 C1516 1.465 . S
C1511 C1506 1.399 . S
C1511 C1510 1.394 . S
C1511 C1512 1.516 . S
C1512 C1511 1.516 . S
C1512 C1513 1.502 . S
C1512 C1514 1.561 . S
C1512 C1515 1.526 . S
C1513 H1497 0.959 . S
C1513 H1498 0.959 . S
C1513 H1499 0.961 . S
C1513 C1512 1.502 . S
C1514 H1500 0.960 . S
C1514 H1501 0.961 . S
C1514 H1502 0.959 . S
C1514 C1512 1.561 . S
C1515 C1512 1.526 . S
C1515 C1516 1.396 . S
C1515 C1520 1.390 . S
C1516 C1510 1.465 . S
C1516 C1515 1.396 . S
C1516 C1517 1.399 . S
C1517 H1503 0.929 . S
C1517 C1516 1.399 . S
C1517 C1518 1.385 . S
C1518 H1504 0.931 . S
C1518 C1517 1.385 . S
C1518 C1519 1.389 . S
C1519 C1518 1.389 . S
C1519 C1520 1.387 . S
C1520 H1505 0.930 . S
C1520 C1515 1.390 . S
C1520 C1519 1.387 . S
H1521 C1533 0.930 . S
H1522 C1535 0.930 . S
H1523 C1536 0.930 . S
H1524 C1540 0.959 . S
H1525 C1540 0.959 . S
H1526 C1540 0.961 . S
H1527 C1541 0.960 . S
H1528 C1541 0.961 . S
H1529 C1541 0.959 . S
H1530 C1544 0.929 . S
H1531 C1545 0.931 . S
H1532 C1547 0.930 . S
C1533 H1521 0.930 . S
C1533 C1534 1.399 . S
C1533 C1538 1.399 . S
C1534 C1533 1.399 . S
C1534 C1535 1.376 . S
C1535 H1522 0.930 . S
C1535 C1534 1.376 . S
C1535 C1536 1.388 . S
C1536 H1523 0.930 . S
C1536 C1535 1.388 . S
C1536 C1537 1.390 . S
C1537 C1536 1.390 . S
C1537 C1538 1.394 . S
C1537 C1543 1.465 . S
C1538 C1533 1.399 . S
C1538 C1537 1.394 . S
C1538 C1539 1.516 . S
C1539 C1538 1.516 . S
C1539 C1540 1.502 . S
C1539 C1541 1.561 . S
C1539 C1542 1.526 . S
C1540 H1524 0.959 . S
C1540 H1525 0.959 . S
C1540 H1526 0.961 . S
C1540 C1539 1.502 . S
C1541 H1527 0.960 . S
C1541 H1528 0.961 . S
C1541 H1529 0.959 . S
C1541 C1539 1.561 . S
C1542 C1539 1.526 . S
C1542 C1543 1.396 . S
C1542 C1547 1.390 . S
C1543 C1537 1.465 . S
C1543 C1542 1.396 . S
C1543 C1544 1.399 . S
C1544 H1530 0.929 . S
C1544 C1543 1.399 . S
C1544 C1545 1.385 . S
C1545 H1531 0.931 . S
C1545 C1544 1.385 . S
C1545 C1546 1.389 . S
C1546 C1545 1.389 . S
C1546 C1547 1.387 . S
C1547 H1532 0.930 . S
C1547 C1542 1.390 . S
C1547 C1546 1.387 . S
H1548 C1560 0.930 . S
H1549 C1562 0.930 . S
H1550 C1563 0.930 . S
H1551 C1567 0.959 . S
H1552 C1567 0.959 . S
H1553 C1567 0.961 . S
H1554 C1568 0.960 . S
H1555 C1568 0.961 . S
H1556 C1568 0.959 . S
H1557 C1571 0.902 1_545 S
H1558 C1572 0.931 1_545 S
H1559 C1574 0.930 . S
C1560 H1548 0.930 . S
C1560 C1561 1.399 . S
C1560 C1565 1.399 . S
C1561 C1560 1.399 . S
C1561 C1562 1.376 . S
C1562 H1549 0.930 . S
C1562 C1561 1.376 . S
C1562 C1563 1.388 . S
C1563 H1550 0.930 . S
C1563 C1562 1.388 . S
C1563 C1564 1.390 . S
C1564 C1563 1.390 . S
C1564 C1565 1.394 . S
C1564 C1570 1.465 . S
C1565 C1560 1.399 . S
C1565 C1564 1.394 . S
C1565 C1566 1.516 . S
C1566 C1565 1.516 . S
C1566 C1567 1.502 . S
C1566 C1568 1.561 . S
C1566 C1569 1.526 . S
C1567 H1551 0.959 . S
C1567 H1552 0.959 . S
C1567 H1553 0.961 . S
C1567 C1566 1.502 . S
C1568 H1554 0.960 . S
C1568 H1555 0.961 . S
C1568 H1556 0.959 . S
C1568 C1566 1.561 . S
C1569 C1566 1.526 . S
C1569 C1570 1.396 . S
C1569 C1574 1.390 . S
C1570 C1564 1.465 . S
C1570 C1569 1.396 . S
C1570 C1571 1.399 . S
C1571 H1557 0.902 1_565 S
C1571 C1570 1.399 . S
C1571 C1572 1.385 . S
C1572 H1558 0.931 1_565 S
C1572 C1571 1.385 . S
C1572 C1573 1.389 . S
C1573 C1572 1.389 . S
C1573 C1574 1.387 . S
C1574 H1559 0.930 . S
C1574 C1569 1.390 . S
C1574 C1573 1.387 . S
H1575 C1587 0.930 . S
H1576 C1589 0.930 . S
H1577 C1590 0.930 . S
H1578 C1594 0.959 . S
H1579 C1594 0.959 1_655 S
H1580 C1594 0.961 . S
H1581 C1595 0.960 . S
H1582 C1595 0.961 . S
H1583 C1595 0.959 . S
H1584 C1598 0.929 . S
H1585 C1599 0.931 . S
H1586 C1601 0.930 . S
C1587 H1575 0.930 . S
C1587 C1588 1.399 . S
C1587 C1592 1.399 . S
C1588 C1587 1.399 . S
C1588 C1589 1.376 . S
C1589 H1576 0.930 . S
C1589 C1588 1.376 . S
C1589 C1590 1.388 . S
C1590 H1577 0.930 . S
C1590 C1589 1.388 . S
C1590 C1591 1.390 . S
C1591 C1590 1.390 . S
C1591 C1592 1.394 . S
C1591 C1597 1.465 . S
C1592 C1587 1.399 . S
C1592 C1591 1.394 . S
C1592 C1593 1.516 . S
C1593 C1592 1.516 . S
C1593 C1594 1.502 . S
C1593 C1595 1.561 1_455 S
C1593 C1596 1.526 . S
C1594 H1578 0.959 . S
C1594 H1579 0.959 1_455 S
C1594 H1580 0.961 . S
C1594 C1593 1.502 . S
C1595 H1581 0.960 . S
C1595 H1582 0.961 . S
C1595 H1583 0.959 . S
C1595 C1593 1.561 1_655 S
C1596 C1593 1.526 . S
C1596 C1597 1.396 . S
C1596 C1601 1.390 . S
C1597 C1591 1.465 . S
C1597 C1596 1.396 . S
C1597 C1598 1.399 . S
C1598 H1584 0.929 . S
C1598 C1597 1.399 . S
C1598 C1599 1.385 . S
C1599 H1585 0.931 . S
C1599 C1598 1.385 . S
C1599 C1600 1.389 . S
C1600 C1599 1.389 . S
C1600 C1601 1.387 . S
C1601 H1586 0.930 . S
C1601 C1596 1.390 . S
C1601 C1600 1.387 . S
H1602 C1614 0.930 . S
H1603 C1616 0.930 . S
H1604 C1617 0.930 . S
H1605 C1621 0.959 . S
H1606 C1621 0.959 . S
H1607 C1621 0.961 . S
H1608 C1622 0.960 . S
H1609 C1622 0.961 . S
H1610 C1622 0.959 . S
H1611 C1625 0.929 . S
H1612 C1626 0.931 . S
H1613 C1628 0.930 . S
C1614 H1602 0.930 . S
C1614 C1615 1.399 . S
C1614 C1619 1.399 . S
C1615 C1614 1.399 . S
C1615 C1616 1.376 . S
C1616 H1603 0.930 . S
C1616 C1615 1.376 . S
C1616 C1617 1.388 . S
C1617 H1604 0.930 . S
C1617 C1616 1.388 . S
C1617 C1618 1.390 . S
C1618 C1617 1.390 . S
C1618 C1619 1.394 . S
C1618 C1624 1.465 . S
C1619 C1614 1.399 . S
C1619 C1618 1.394 . S
C1619 C1620 1.516 . S
C1620 C1619 1.516 . S
C1620 C1621 1.502 . S
C1620 C1622 1.561 . S
C1620 C1623 1.526 . S
C1621 H1605 0.959 . S
C1621 H1606 0.959 . S
C1621 H1607 0.961 . S
C1621 C1620 1.502 . S
C1622 H1608 0.960 . S
C1622 H1609 0.961 . S
C1622 H1610 0.959 . S
C1622 C1620 1.561 . S
C1623 C1620 1.526 . S
C1623 C1624 1.396 . S
C1623 C1628 1.390 . S
C1624 C1618 1.465 . S
C1624 C1623 1.396 . S
C1624 C1625 1.399 . S
C1625 H1611 0.929 . S
C1625 C1624 1.399 . S
C1625 C1626 1.385 . S
C1626 H1612 0.931 . S
C1626 C1625 1.385 . S
C1626 C1627 1.389 . S
C1627 C1626 1.389 . S
C1627 C1628 1.387 . S
C1628 H1613 0.930 . S
C1628 C1623 1.390 . S
C1628 C1627 1.387 . S
H1629 C1641 0.930 . S
H1630 C1643 0.930 . S
H1631 C1644 0.930 1_455 S
H1632 C1648 0.959 . S
H1633 C1648 0.959 . S
H1634 C1648 0.961 . S
H1635 C1649 0.960 . S
H1636 C1649 0.961 . S
H1637 C1649 0.959 . S
H1638 C1652 0.929 1_455 S
H1639 C1653 0.931 . S
H1640 C1655 0.930 . S
C1641 H1629 0.930 . S
C1641 C1642 1.399 . S
C1641 C1646 1.399 . S
C1642 C1641 1.399 . S
C1642 C1643 1.376 . S
C1643 H1630 0.930 . S
C1643 C1642 1.376 . S
C1643 C1644 1.388 . S
C1644 H1631 0.930 1_655 S
C1644 C1643 1.388 . S
C1644 C1645 1.390 . S
C1645 C1644 1.390 . S
C1645 C1646 1.394 . S
C1645 C1651 1.465 . S
C1646 C1641 1.399 . S
C1646 C1645 1.394 . S
C1646 C1647 1.516 . S
C1647 C1646 1.516 . S
C1647 C1648 1.502 . S
C1647 C1649 1.561 . S
C1647 C1650 1.526 . S
C1648 H1632 0.959 . S
C1648 H1633 0.959 . S
C1648 H1634 0.961 . S
C1648 C1647 1.502 . S
C1649 H1635 0.960 . S
C1649 H1636 0.961 . S
C1649 H1637 0.959 . S
C1649 C1647 1.561 . S
C1650 C1647 1.526 . S
C1650 C1651 1.396 . S
C1650 C1655 1.390 . S
C1651 C1645 1.465 . S
C1651 C1650 1.396 . S
C1651 C1652 1.399 . S
C1652 H1638 0.929 1_655 S
C1652 C1651 1.399 . S
C1652 C1653 1.385 . S
C1653 H1639 0.931 . S
C1653 C1652 1.385 . S
C1653 C1654 1.389 . S
C1654 C1653 1.389 . S
C1654 C1655 1.387 . S
C1655 H1640 0.930 . S
C1655 C1650 1.390 . S
C1655 C1654 1.387 . S
H1656 C1668 0.930 . S
H1657 C1670 0.930 . S
H1658 C1671 0.930 . S
H1659 C1675 0.959 . S
H1660 C1675 0.959 . S
H1661 C1675 0.961 . S
H1662 C1676 0.960 . S
H1663 C1676 0.961 . S
H1664 C1676 0.959 . S
H1665 C1679 0.929 . S
H1666 C1680 0.931 . S
H1667 C1682 0.930 . S
C1668 H1656 0.930 . S
C1668 C1669 1.399 . S
C1668 C1673 1.399 . S
C1669 C1668 1.399 . S
C1669 C1670 1.376 . S
C1670 H1657 0.930 . S
C1670 C1669 1.376 . S
C1670 C1671 1.388 . S
C1671 H1658 0.930 . S
C1671 C1670 1.388 . S
C1671 C1672 1.390 . S
C1672 C1671 1.390 . S
C1672 C1673 1.394 . S
C1672 C1678 1.465 . S
C1673 C1668 1.399 . S
C1673 C1672 1.394 . S
C1673 C1674 1.516 . S
C1674 C1673 1.516 . S
C1674 C1675 1.502 . S
C1674 C1676 1.561 . S
C1674 C1677 1.526 . S
C1675 H1659 0.959 . S
C1675 H1660 0.959 . S
C1675 H1661 0.961 . S
C1675 C1674 1.502 . S
C1676 H1662 0.960 . S
C1676 H1663 0.961 . S
C1676 H1664 0.959 . S
C1676 C1674 1.561 . S
C1677 C1674 1.526 . S
C1677 C1678 1.396 . S
C1677 C1682 1.390 . S
C1678 C1672 1.465 . S
C1678 C1677 1.396 . S
C1678 C1679 1.399 . S
C1679 H1665 0.929 . S
C1679 C1678 1.399 . S
C1679 C1680 1.385 . S
C1680 H1666 0.931 . S
C1680 C1679 1.385 . S
C1680 C1681 1.389 . S
C1681 C1680 1.389 . S
C1681 C1682 1.387 . S
C1682 H1667 0.930 . S
C1682 C1677 1.390 . S
C1682 C1681 1.387 . S
H1683 C1695 0.930 . S
H1684 C1697 0.930 . S
H1685 C1698 0.930 . S
H1686 C1702 0.959 . S
H1687 C1702 0.959 . S
H1688 C1702 0.961 . S
H1689 C1703 0.960 . S
H1690 C1703 0.961 1_565 S
H1691 C1703 0.959 . S
H1692 C1706 0.929 . S
H1693 C1707 0.931 . S
H1694 C1709 0.930 . S
C1695 H1683 0.930 . S
C1695 C1696 1.399 . S
C1695 C1700 1.399 . S
C1696 C1695 1.399 . S
C1696 C1697 1.376 . S
C1697 H1684 0.930 . S
C1697 C1696 1.376 . S
C1697 C1698 1.388 . S
C1698 H1685 0.930 . S
C1698 C1697 1.388 . S
C1698 C1699 1.390 . S
C1699 C1698 1.390 . S
C1699 C1700 1.394 . S
C1699 C1705 1.465 . S
C1700 C1695 1.399 . S
C1700 C1699 1.394 . S
C1700 C1701 1.516 . S
C1701 C1700 1.516 . S
C1701 C1702 1.502 . S
C1701 C1703 1.561 . S
C1701 C1704 1.526 . S
C1702 H1686 0.959 . S
C1702 H1687 0.959 . S
C1702 H1688 0.961 . S
C1702 C1701 1.502 . S
C1703 H1689 0.960 . S
C1703 H1690 0.961 1_545 S
C1703 H1691 0.959 . S
C1703 C1701 1.561 . S
C1704 C1701 1.526 . S
C1704 C1705 1.396 . S
C1704 C1709 1.390 . S
C1705 C1699 1.465 . S
C1705 C1704 1.396 . S
C1705 C1706 1.399 . S
C1706 H1692 0.929 . S
C1706 C1705 1.399 . S
C1706 C1707 1.385 . S
C1707 H1693 0.931 . S
C1707 C1706 1.385 . S
C1707 C1708 1.389 . S
C1708 C1707 1.389 . S
C1708 C1709 1.387 . S
C1709 H1694 0.930 . S
C1709 C1704 1.390 . S
C1709 C1708 1.387 . S
H1710 C1722 0.930 . S
H1711 C1724 0.930 . S
H1712 C1725 0.930 . S
H1713 C1729 0.959 . S
H1714 C1729 0.959 . S
H1715 C1729 0.961 . S
H1716 C1730 0.960 . S
H1717 C1730 0.961 . S
H1718 C1730 0.959 . S
H1719 C1733 0.929 . S
H1720 C1734 0.931 . S
H1721 C1736 0.930 . S
C1722 H1710 0.930 . S
C1722 C1723 1.399 . S
C1722 C1727 1.399 . S
C1723 C1722 1.399 . S
C1723 C1724 1.376 . S
C1724 H1711 0.930 . S
C1724 C1723 1.376 . S
C1724 C1725 1.388 . S
C1725 H1712 0.930 . S
C1725 C1724 1.388 . S
C1725 C1726 1.390 . S
C1726 C1725 1.390 . S
C1726 C1727 1.394 . S
C1726 C1732 1.465 . S
C1727 C1722 1.399 . S
C1727 C1726 1.394 . S
C1727 C1728 1.516 . S
C1728 C1727 1.516 . S
C1728 C1729 1.502 . S
C1728 C1730 1.561 . S
C1728 C1731 1.526 . S
C1729 H1713 0.959 . S
C1729 H1714 0.959 . S
C1729 H1715 0.961 . S
C1729 C1728 1.502 . S
C1730 H1716 0.960 . S
C1730 H1717 0.961 . S
C1730 H1718 0.959 . S
C1730 C1728 1.561 . S
C1731 C1728 1.526 . S
C1731 C1732 1.396 . S
C1731 C1736 1.390 . S
C1732 C1726 1.465 . S
C1732 C1731 1.396 . S
C1732 C1733 1.399 . S
C1733 H1719 0.929 . S
C1733 C1732 1.399 . S
C1733 C1734 1.385 . S
C1734 H1720 0.931 . S
C1734 C1733 1.385 . S
C1734 C1735 1.389 . S
C1735 C1734 1.389 . S
C1735 C1736 1.387 . S
C1736 H1721 0.930 . S
C1736 C1731 1.390 . S
C1736 C1735 1.387 . S
H1737 C1749 0.930 . S
H1738 C1751 0.930 . S
H1739 C1752 0.930 . S
H1740 C1756 0.959 . S
H1741 C1756 0.959 . S
H1742 C1756 0.961 . S
H1743 C1757 0.960 . S
H1744 C1757 0.961 . S
H1745 C1757 0.959 . S
H1746 C1760 0.929 . S
H1747 C1761 0.931 . S
H1748 C1763 0.930 . S
C1749 H1737 0.930 . S
C1749 C1750 1.399 . S
C1749 C1754 1.399 . S
C1750 C1749 1.399 . S
C1750 C1751 1.376 . S
C1751 H1738 0.930 . S
C1751 C1750 1.376 . S
C1751 C1752 1.388 . S
C1752 H1739 0.930 . S
C1752 C1751 1.388 . S
C1752 C1753 1.390 . S
C1753 C1752 1.390 . S
C1753 C1754 1.394 . S
C1753 C1759 1.465 . S
C1754 C1749 1.399 . S
C1754 C1753 1.394 . S
C1754 C1755 1.516 . S
C1755 C1754 1.516 . S
C1755 C1756 1.502 . S
C1755 C1757 1.561 . S
C1755 C1758 1.526 . S
C1756 H1740 0.959 . S
C1756 H1741 0.959 . S
C1756 H1742 0.961 . S
C1756 C1755 1.502 . S
C1757 H1743 0.960 . S
C1757 H1744 0.961 . S
C1757 H1745 0.959 . S
C1757 C1755 1.561 . S
C1758 C1755 1.526 . S
C1758 C1759 1.396 . S
C1758 C1763 1.390 . S
C1759 C1753 1.465 . S
C1759 C1758 1.396 . S
C1759 C1760 1.399 . S
C1760 H1746 0.929 . S
C1760 C1759 1.399 . S
C1760 C1761 1.385 . S
C1761 H1747 0.931 . S
C1761 C1760 1.385 . S
C1761 C1762 1.389 . S
C1762 C1761 1.389 . S
C1762 C1763 1.387 . S
C1763 H1748 0.930 . S
C1763 C1758 1.390 . S
C1763 C1762 1.387 . S
H1764 C1776 0.930 . S
H1765 C1778 0.930 . S
H1766 C1779 0.930 . S
H1767 C1783 0.959 . S
H1768 C1783 0.959 . S
H1769 C1783 0.961 . S
H1770 C1784 0.960 . S
H1771 C1784 0.961 . S
H1772 C1784 0.959 . S
H1773 C1787 0.929 . S
H1774 C1788 0.931 . S
H1775 C1790 0.930 . S
C1776 H1764 0.930 . S
C1776 C1777 1.399 . S
C1776 C1781 1.399 . S
C1777 C1776 1.399 . S
C1777 C1778 1.376 . S
C1778 H1765 0.930 . S
C1778 C1777 1.376 . S
C1778 C1779 1.388 . S
C1779 H1766 0.930 . S
C1779 C1778 1.388 . S
C1779 C1780 1.390 . S
C1780 C1779 1.390 . S
C1780 C1781 1.394 . S
C1780 C1786 1.465 . S
C1781 C1776 1.399 . S
C1781 C1780 1.394 . S
C1781 C1782 1.516 . S
C1782 C1781 1.516 . S
C1782 C1783 1.502 . S
C1782 C1784 1.561 . S
C1782 C1785 1.526 . S
C1783 H1767 0.959 . S
C1783 H1768 0.959 . S
C1783 H1769 0.961 . S
C1783 C1782 1.502 . S
C1784 H1770 0.960 . S
C1784 H1771 0.961 . S
C1784 H1772 0.959 . S
C1784 C1782 1.561 . S
C1785 C1782 1.526 . S
C1785 C1786 1.396 . S
C1785 C1790 1.390 . S
C1786 C1780 1.465 . S
C1786 C1785 1.396 . S
C1786 C1787 1.399 . S
C1787 H1773 0.929 . S
C1787 C1786 1.399 . S
C1787 C1788 1.385 . S
C1788 H1774 0.931 . S
C1788 C1787 1.385 . S
C1788 C1789 1.389 . S
C1789 C1788 1.389 . S
C1789 C1790 1.387 . S
C1790 H1775 0.930 . S
C1790 C1785 1.390 . S
C1790 C1789 1.387 . S
H1791 C1803 0.930 . S
H1792 C1805 0.930 . S
H1793 C1806 0.930 . S
H1794 C1810 0.959 . S
H1795 C1810 0.959 . S
H1796 C1810 0.961 . S
H1797 C1811 0.960 . S
H1798 C1811 0.961 . S
H1799 C1811 0.959 . S
H1800 C1814 0.929 . S
H1801 C1815 0.931 . S
H1802 C1817 0.930 . S
C1803 H1791 0.930 . S
C1803 C1804 1.399 . S
C1803 C1808 1.399 . S
C1804 C1803 1.399 . S
C1804 C1805 1.376 . S
C1805 H1792 0.930 . S
C1805 C1804 1.376 . S
C1805 C1806 1.388 . S
C1806 H1793 0.930 . S
C1806 C1805 1.388 . S
C1806 C1807 1.390 . S
C1807 C1806 1.390 . S
C1807 C1808 1.394 . S
C1807 C1813 1.465 . S
C1808 C1803 1.399 . S
C1808 C1807 1.394 . S
C1808 C1809 1.516 . S
C1809 C1808 1.516 . S
C1809 C1810 1.502 . S
C1809 C1811 1.561 . S
C1809 C1812 1.526 . S
C1810 H1794 0.959 . S
C1810 H1795 0.959 . S
C1810 H1796 0.961 . S
C1810 C1809 1.502 . S
C1811 H1797 0.960 . S
C1811 H1798 0.961 . S
C1811 H1799 0.959 . S
C1811 C1809 1.561 . S
C1812 C1809 1.526 . S
C1812 C1813 1.396 . S
C1812 C1817 1.390 . S
C1813 C1807 1.465 . S
C1813 C1812 1.396 . S
C1813 C1814 1.399 . S
C1814 H1800 0.929 . S
C1814 C1813 1.399 . S
C1814 C1815 1.385 . S
C1815 H1801 0.931 . S
C1815 C1814 1.385 . S
C1815 C1816 1.389 . S
C1816 C1815 1.389 . S
C1816 C1817 1.387 . S
C1817 H1802 0.930 . S
C1817 C1812 1.390 . S
C1817 C1816 1.387 . S
H1818 C1830 0.930 . S
H1819 C1832 0.930 . S
H1820 C1833 0.930 . S
H1821 C1837 0.959 . S
H1822 C1837 0.959 . S
H1823 C1837 0.961 . S
H1824 C1838 0.960 . S
H1825 C1838 0.961 . S
H1826 C1838 0.959 . S
H1827 C1841 0.929 . S
H1828 C1842 0.931 . S
H1829 C1844 0.930 . S
C1830 H1818 0.930 . S
C1830 C1831 1.399 . S
C1830 C1835 1.399 . S
C1831 C1830 1.399 . S
C1831 C1832 1.376 . S
C1832 H1819 0.930 . S
C1832 C1831 1.376 . S
C1832 C1833 1.388 . S
C1833 H1820 0.930 . S
C1833 C1832 1.388 . S
C1833 C1834 1.390 . S
C1834 C1833 1.390 . S
C1834 C1835 1.394 . S
C1834 C1840 1.465 . S
C1835 C1830 1.399 . S
C1835 C1834 1.394 . S
C1835 C1836 1.516 . S
C1836 C1835 1.516 . S
C1836 C1837 1.502 . S
C1836 C1838 1.561 . S
C1836 C1839 1.526 . S
C1837 H1821 0.959 . S
C1837 H1822 0.959 . S
C1837 H1823 0.961 . S
C1837 C1836 1.502 . S
C1838 H1824 0.960 . S
C1838 H1825 0.961 . S
C1838 H1826 0.959 . S
C1838 C1836 1.561 . S
C1839 C1836 1.526 . S
C1839 C1840 1.396 . S
C1839 C1844 1.390 . S
C1840 C1834 1.465 . S
C1840 C1839 1.396 . S
C1840 C1841 1.399 . S
C1841 H1827 0.929 . S
C1841 C1840 1.399 . S
C1841 C1842 1.385 . S
C1842 H1828 0.931 . S
C1842 C1841 1.385 . S
C1842 C1843 1.389 . S
C1843 C1842 1.389 . S
C1843 C1844 1.387 . S
C1844 H1829 0.930 . S
C1844 C1839 1.390 . S
C1844 C1843 1.387 . S
H1845 C1857 0.930 . S
H1846 C1859 0.930 . S
H1847 C1860 0.930 . S
H1848 C1864 0.959 . S
H1849 C1864 0.959 . S
H1850 C1864 0.961 . S
H1851 C1865 0.960 . S
H1852 C1865 0.961 . S
H1853 C1865 0.959 . S
H1854 C1868 0.929 . S
H1855 C1869 0.931 . S
H1856 C1871 0.930 . S
C1857 H1845 0.930 . S
C1857 C1858 1.399 . S
C1857 C1862 1.399 . S
C1858 C1857 1.399 . S
C1858 C1859 1.376 . S
C1859 H1846 0.930 . S
C1859 C1858 1.376 . S
C1859 C1860 1.388 . S
C1860 H1847 0.930 . S
C1860 C1859 1.388 . S
C1860 C1861 1.390 . S
C1861 C1860 1.390 . S
C1861 C1862 1.394 . S
C1861 C1867 1.465 . S
C1862 C1857 1.399 . S
C1862 C1861 1.394 . S
C1862 C1863 1.516 . S
C1863 C1862 1.516 . S
C1863 C1864 1.502 . S
C1863 C1865 1.561 . S
C1863 C1866 1.526 . S
C1864 H1848 0.959 . S
C1864 H1849 0.959 . S
C1864 H1850 0.961 . S
C1864 C1863 1.502 . S
C1865 H1851 0.960 . S
C1865 H1852 0.961 . S
C1865 H1853 0.959 . S
C1865 C1863 1.561 . S
C1866 C1863 1.526 . S
C1866 C1867 1.396 . S
C1866 C1871 1.390 . S
C1867 C1861 1.465 . S
C1867 C1866 1.396 . S
C1867 C1868 1.399 . S
C1868 H1854 0.929 . S
C1868 C1867 1.399 . S
C1868 C1869 1.385 . S
C1869 H1855 0.931 . S
C1869 C1868 1.385 . S
C1869 C1870 1.389 . S
C1870 C1869 1.389 . S
C1870 C1871 1.387 . S
C1871 H1856 0.930 . S
C1871 C1866 1.390 . S
C1871 C1870 1.387 . S
H1872 C1884 0.930 . S
H1873 C1886 0.930 . S
H1874 C1887 0.930 . S
H1875 C1891 0.959 . S
H1876 C1891 0.959 . S
H1877 C1891 0.961 . S
H1878 C1892 0.960 . S
H1879 C1892 0.961 . S
H1880 C1892 0.959 . S
H1881 C1895 0.929 . S
H1882 C1896 0.931 . S
H1883 C1898 0.930 . S
C1884 H1872 0.930 . S
C1884 C1885 1.399 . S
C1884 C1889 1.399 . S
C1885 C1884 1.399 . S
C1885 C1886 1.376 . S
C1886 H1873 0.930 . S
C1886 C1885 1.376 . S
C1886 C1887 1.388 . S
C1887 H1874 0.930 . S
C1887 C1886 1.388 . S
C1887 C1888 1.390 . S
C1888 C1887 1.390 . S
C1888 C1889 1.394 . S
C1888 C1894 1.465 . S
C1889 C1884 1.399 . S
C1889 C1888 1.394 . S
C1889 C1890 1.516 . S
C1890 C1889 1.516 . S
C1890 C1891 1.502 . S
C1890 C1892 1.561 . S
C1890 C1893 1.526 . S
C1891 H1875 0.959 . S
C1891 H1876 0.959 . S
C1891 H1877 0.961 . S
C1891 C1890 1.502 . S
C1892 H1878 0.960 . S
C1892 H1879 0.961 . S
C1892 H1880 0.959 . S
C1892 C1890 1.561 . S
C1893 C1890 1.526 . S
C1893 C1894 1.396 . S
C1893 C1898 1.390 . S
C1894 C1888 1.465 . S
C1894 C1893 1.396 . S
C1894 C1895 1.399 . S
C1895 H1881 0.929 . S
C1895 C1894 1.399 . S
C1895 C1896 1.385 . S
C1896 H1882 0.931 . S
C1896 C1895 1.385 . S
C1896 C1897 1.389 . S
C1897 C1896 1.389 . S
C1897 C1898 1.387 . S
C1898 H1883 0.930 . S
C1898 C1893 1.390 . S
C1898 C1897 1.387 . S
H1899 C1911 0.930 . S
H1900 C1913 0.930 . S
H1901 C1914 0.930 . S
H1902 C1918 0.959 . S
H1903 C1918 0.959 . S
H1904 C1918 0.961 . S
H1905 C1919 0.960 . S
H1906 C1919 0.961 . S
H1907 C1919 0.959 . S
H1908 C1922 0.929 . S
H1909 C1923 0.931 . S
H1910 C1925 0.930 . S
C1911 H1899 0.930 . S
C1911 C1912 1.399 . S
C1911 C1916 1.399 . S
C1912 C1911 1.399 . S
C1912 C1913 1.376 . S
C1913 H1900 0.930 . S
C1913 C1912 1.376 . S
C1913 C1914 1.388 . S
C1914 H1901 0.930 . S
C1914 C1913 1.388 . S
C1914 C1915 1.390 . S
C1915 C1914 1.390 . S
C1915 C1916 1.394 . S
C1915 C1921 1.465 . S
C1916 C1911 1.399 . S
C1916 C1915 1.394 . S
C1916 C1917 1.516 . S
C1917 C1916 1.516 . S
C1917 C1918 1.502 . S
C1917 C1919 1.561 . S
C1917 C1920 1.526 . S
C1918 H1902 0.959 . S
C1918 H1903 0.959 . S
C1918 H1904 0.961 . S
C1918 C1917 1.502 . S
C1919 H1905 0.960 . S
C1919 H1906 0.961 . S
C1919 H1907 0.959 . S
C1919 C1917 1.561 . S
C1920 C1917 1.526 . S
C1920 C1921 1.396 . S
C1920 C1925 1.390 . S
C1921 C1915 1.465 . S
C1921 C1920 1.396 . S
C1921 C1922 1.399 . S
C1922 H1908 0.929 . S
C1922 C1921 1.399 . S
C1922 C1923 1.385 . S
C1923 H1909 0.931 . S
C1923 C1922 1.385 . S
C1923 C1924 1.389 . S
C1924 C1923 1.389 . S
C1924 C1925 1.387 . S
C1925 H1910 0.930 . S
C1925 C1920 1.390 . S
C1925 C1924 1.387 . S
H1926 C1938 0.930 . S
H1927 C1940 0.930 . S
H1928 C1941 0.930 . S
H1929 C1945 0.959 . S
H1930 C1945 0.959 . S
H1931 C1945 0.961 . S
H1932 C1946 0.960 . S
H1933 C1946 0.961 . S
H1934 C1946 0.959 . S
H1935 C1949 0.929 . S
H1936 C1950 0.931 . S
H1937 C1952 0.930 . S
C1938 H1926 0.930 . S
C1938 C1939 1.399 . S
C1938 C1943 1.399 . S
C1939 C1938 1.399 . S
C1939 C1940 1.376 . S
C1940 H1927 0.930 . S
C1940 C1939 1.376 . S
C1940 C1941 1.388 . S
C1941 H1928 0.930 . S
C1941 C1940 1.388 . S
C1941 C1942 1.390 . S
C1942 C1941 1.390 . S
C1942 C1943 1.394 . S
C1942 C1948 1.465 . S
C1943 C1938 1.399 . S
C1943 C1942 1.394 . S
C1943 C1944 1.516 . S
C1944 C1943 1.516 . S
C1944 C1945 1.502 . S
C1944 C1946 1.561 . S
C1944 C1947 1.526 . S
C1945 H1929 0.959 . S
C1945 H1930 0.959 . S
C1945 H1931 0.961 . S
C1945 C1944 1.502 . S
C1946 H1932 0.960 . S
C1946 H1933 0.961 . S
C1946 H1934 0.959 . S
C1946 C1944 1.561 . S
C1947 C1944 1.526 . S
C1947 C1948 1.396 . S
C1947 C1952 1.390 . S
C1948 C1942 1.465 . S
C1948 C1947 1.396 . S
C1948 C1949 1.399 . S
C1949 H1935 0.929 . S
C1949 C1948 1.399 . S
C1949 C1950 1.385 . S
C1950 H1936 0.931 . S
C1950 C1949 1.385 . S
C1950 C1951 1.389 . S
C1951 C1950 1.389 . S
C1951 C1952 1.387 . S
C1952 H1937 0.930 . S
C1952 C1947 1.390 . S
C1952 C1951 1.387 . S
H1953 C1965 0.930 . S
H1954 C1967 0.930 . S
H1955 C1968 0.930 . S
H1956 C1972 0.959 . S
H1957 C1972 0.959 . S
H1958 C1972 0.961 . S
H1959 C1973 0.960 . S
H1960 C1973 0.961 . S
H1961 C1973 0.959 . S
H1962 C1976 0.929 . S
H1963 C1977 0.931 . S
H1964 C1979 0.930 . S
C1965 H1953 0.930 . S
C1965 C1966 1.399 . S
C1965 C1970 1.399 . S
C1966 C1965 1.399 . S
C1966 C1967 1.376 . S
C1967 H1954 0.930 . S
C1967 C1966 1.376 . S
C1967 C1968 1.388 . S
C1968 H1955 0.930 . S
C1968 C1967 1.388 . S
C1968 C1969 1.390 . S
C1969 C1968 1.390 . S
C1969 C1970 1.394 . S
C1969 C1975 1.465 . S
C1970 C1965 1.399 . S
C1970 C1969 1.394 . S
C1970 C1971 1.516 . S
C1971 C1970 1.516 . S
C1971 C1972 1.502 . S
C1971 C1973 1.561 . S
C1971 C1974 1.526 . S
C1972 H1956 0.959 . S
C1972 H1957 0.959 . S
C1972 H1958 0.961 . S
C1972 C1971 1.502 . S
C1973 H1959 0.960 . S
C1973 H1960 0.961 . S
C1973 H1961 0.959 . S
C1973 C1971 1.561 . S
C1974 C1971 1.526 . S
C1974 C1975 1.396 . S
C1974 C1979 1.390 . S
C1975 C1969 1.465 . S
C1975 C1974 1.396 . S
C1975 C1976 1.399 . S
C1976 H1962 0.929 . S
C1976 C1975 1.399 . S
C1976 C1977 1.385 . S
C1977 H1963 0.931 . S
C1977 C1976 1.385 . S
C1977 C1978 1.389 . S
C1978 C1977 1.389 . S
C1978 C1979 1.387 . S
C1979 H1964 0.930 . S
C1979 C1974 1.390 . S
C1979 C1978 1.387 . S
H1980 C1992 0.930 . S
H1981 C1994 0.930 . S
H1982 C1995 0.930 . S
H1983 C1999 0.959 . S
H1984 C1999 0.959 . S
H1985 C1999 0.961 . S
H1986 C2000 0.960 . S
H1987 C2000 0.961 . S
H1988 C2000 0.959 . S
H1989 C2003 0.929 . S
H1990 C2004 0.931 . S
H1991 C2006 0.930 . S
C1992 H1980 0.930 . S
C1992 C1993 1.399 . S
C1992 C1997 1.399 . S
C1993 C1992 1.399 . S
C1993 C1994 1.376 . S
C1994 H1981 0.930 . S
C1994 C1993 1.376 . S
C1994 C1995 1.388 . S
C1995 H1982 0.930 . S
C1995 C1994 1.388 . S
C1995 C1996 1.390 . S
C1996 C1995 1.390 . S
C1996 C1997 1.394 . S
C1996 C2002 1.465 . S
C1997 C1992 1.399 . S
C1997 C1996 1.394 . S
C1997 C1998 1.516 . S
C1998 C1997 1.516 . S
C1998 C1999 1.502 . S
C1998 C2000 1.561 . S
C1998 C2001 1.526 . S
C1999 H1983 0.959 . S
C1999 H1984 0.959 . S
C1999 H1985 0.961 . S
C1999 C1998 1.502 . S
C2000 H1986 0.960 . S
C2000 H1987 0.961 . S
C2000 H1988 0.959 . S
C2000 C1998 1.561 . S
C2001 C1998 1.526 . S
C2001 C2002 1.396 . S
C2001 C2006 1.390 . S
C2002 C1996 1.465 . S
C2002 C2001 1.396 . S
C2002 C2003 1.399 . S
C2003 H1989 0.929 . S
C2003 C2002 1.399 . S
C2003 C2004 1.385 . S
C2004 H1990 0.931 . S
C2004 C2003 1.385 . S
C2004 C2005 1.389 . S
C2005 C2004 1.389 . S
C2005 C2006 1.387 . S
C2006 H1991 0.930 . S
C2006 C2001 1.390 . S
C2006 C2005 1.387 . S
H2007 C2019 0.930 . S
H2008 C2021 0.930 . S
H2009 C2022 0.930 . S
H2010 C2026 0.959 . S
H2011 C2026 0.959 . S
H2012 C2026 0.961 . S
H2013 C2027 0.960 . S
H2014 C2027 0.961 . S
H2015 C2027 0.959 . S
H2016 C2030 0.929 . S
H2017 C2031 0.931 . S
H2018 C2033 0.930 . S
C2019 H2007 0.930 . S
C2019 C2020 1.399 . S
C2019 C2024 1.399 . S
C2020 C2019 1.399 . S
C2020 C2021 1.376 . S
C2021 H2008 0.930 . S
C2021 C2020 1.376 . S
C2021 C2022 1.388 . S
C2022 H2009 0.930 . S
C2022 C2021 1.388 . S
C2022 C2023 1.390 . S
C2023 C2022 1.390 . S
C2023 C2024 1.394 . S
C2023 C2029 1.465 . S
C2024 C2019 1.399 . S
C2024 C2023 1.394 . S
C2024 C2025 1.516 . S
C2025 C2024 1.516 . S
C2025 C2026 1.502 . S
C2025 C2027 1.561 . S
C2025 C2028 1.526 . S
C2026 H2010 0.959 . S
C2026 H2011 0.959 . S
C2026 H2012 0.961 . S
C2026 C2025 1.502 . S
C2027 H2013 0.960 . S
C2027 H2014 0.961 . S
C2027 H2015 0.959 . S
C2027 C2025 1.561 . S
C2028 C2025 1.526 . S
C2028 C2029 1.396 . S
C2028 C2033 1.390 . S
C2029 C2023 1.465 . S
C2029 C2028 1.396 . S
C2029 C2030 1.399 . S
C2030 H2016 0.929 . S
C2030 C2029 1.399 . S
C2030 C2031 1.385 . S
C2031 H2017 0.931 . S
C2031 C2030 1.385 . S
C2031 C2032 1.389 . S
C2032 C2031 1.389 . S
C2032 C2033 1.387 . S
C2033 H2018 0.930 . S
C2033 C2028 1.390 . S
C2033 C2032 1.387 . S
C589 C162 1.665 . S
C601 C228 1.672 . S
C616 C174 1.796 . S
C628 C268 1.783 . S
C643 C150 1.581 . S
C655 C298 1.605 . S
C670 C138 1.472 . S
C682 C258 1.423 1_556 S
C709 C308 1.497 . S
C697 C114 1.499 . S
C724 C126 1.352 . S
C736 C218 1.372 1_556 S
C763 C247 1.681 . S
C751 C136 1.617 . S
C790 C287 1.650 . S
C778 C112 1.664 . S
C805 C124 1.603 . S
C817 C313 1.682 1_556 S
C832 C160 1.523 . S
C844 C273 1.477 . S
C859 C172 1.450 . S
C871 C327 1.441 . S
C898 C233 1.443 . S
C886 C148 1.479 . S
C925 C348 1.668 . S
C913 C18 1.660 . S
C940 C30 1.790 . S
C952 C388 1.793 . S
C967 C6 1.579 . S
C979 C418 1.604 . S
C994 C210 1.464 . S
C1006 C378 1.481 . S
C1021 C186 1.498 . S
C1033 C428 1.492 . S
C1048 C198 1.349 . S
C1060 C338 1.372 . S
C1075 C208 1.665 . S
C1087 C367 1.655 . S
C1102 C184 1.643 . S
C1114 C407 1.675 . S
C1141 C433 1.695 . S
C1129 C196 1.602 . S
C1156 C16 1.456 . S
C1168 C393 1.531 . S
C1195 C447 1.469 . S
C1183 C28 1.430 . S
C1210 C4 1.410 . S
C1222 C353 1.490 . S
C1249 C468 1.667 . S
C1237 C90 1.664 . S
C1264 C102 1.792 . S
C1276 C508 1.790 . S
C1303 C538 1.603 . S
C1291 C78 1.576 . S
C1330 C498 1.480 . S
C1318 C66 1.463 . S
C1357 C548 1.495 . S
C1345 C42 1.498 . S
C1372 C54 1.361 . S
C1384 C458 1.317 . S
C1399 C64 1.661 . S
C1411 C487 1.661 . S
C1426 C40 1.627 . S
C1438 C527 1.671 . S
C1465 C553 1.644 . S
C1453 C52 1.673 . S
C1480 C88 1.456 . S
C1492 C513 1.530 . S
C1507 C100 1.429 . S
C1519 C567 1.469 . S
C1534 C76 1.464 . S
C1546 C473 1.454 . S
C1561 C189 1.484 . S
C1573 C245 1.485 . S
C1600 C285 1.906 . S
C1588 C201 1.951 . S
C1615 C213 1.574 . S
C1627 C304 1.558 . S
C1642 C81 1.791 . S
C1654 C264 1.758 . S
C1669 C93 1.701 . S
C1681 C325 1.638 . S
C1708 C224 1.318 . S
C1696 C105 1.323 . S
C1723 C45 1.517 . S
C1735 C365 1.462 . S
C1750 C57 1.964 . S
C1762 C405 1.881 . S
C1777 C69 1.545 . S
C1789 C424 1.586 . S
C1804 C153 1.761 . S
C1816 C384 1.790 . S
C1843 C445 1.641 . S
C1831 C165 1.700 . S
C1858 C177 1.287 . S
C1870 C344 1.305 . S
C1885 C117 1.523 . S
C1897 C485 1.441 . S
C1912 C129 1.965 . S
C1924 C525 1.880 . S
C1951 C544 1.559 . S
C1939 C141 1.560 . S
C1966 C9 1.766 . S
C1978 C504 1.762 . S
C1993 C21 1.669 . S
C2005 C565 1.683 . S
C2020 C33 1.317 . S
C2032 C464 1.319 . S
