# Generated by pormake.
# Topology hwx, (6,3)-cn, num edge types: 1
# Building blocks:
#     Node 0, Type 0, BuildingBlock: IZENUY_clean_sbu_0, # of connection points: 6
#     Node 1, Type 0, BuildingBlock: IZENUY_clean_sbu_0, # of connection points: 6
#     Node 2, Type 0, BuildingBlock: IZENUY_clean_sbu_0, # of connection points: 6
#     Node 3, Type 0, BuildingBlock: IZENUY_clean_sbu_0, # of connection points: 6
#     Node 4, Type 1, BuildingBlock: BELTOD_clean_linker_0, # of connection points: 3
#     Node 5, Type 1, BuildingBlock: BELTOD_clean_linker_0, # of connection points: 3
#     Node 6, Type 1, BuildingBlock: BELTOD_clean_linker_0, # of connection points: 3
#     Node 7, Type 1, BuildingBlock: BELTOD_clean_linker_0, # of connection points: 3
#     Node 8, Type 1, BuildingBlock: BELTOD_clean_linker_0, # of connection points: 3
#     Node 9, Type 1, BuildingBlock: BELTOD_clean_linker_0, # of connection points: 3
#     Node 10, Type 1, BuildingBlock: BELTOD_clean_linker_0, # of connection points: 3
#     Node 11, Type 1, BuildingBlock: BELTOD_clean_linker_0, # of connection points: 3
#     Edge 12, Type (0, 1), BuildingBlock: UVAHIK_clean_linker_0, # of connection points: 2
#     Edge 13, Type (0, 1), BuildingBlock: UVAHIK_clean_linker_0, # of connection points: 2
#     Edge 14, Type (0, 1), BuildingBlock: UVAHIK_clean_linker_0, # of connection points: 2
#     Edge 15, Type (0, 1), BuildingBlock: UVAHIK_clean_linker_0, # of connection points: 2
#     Edge 16, Type (0, 1), BuildingBlock: UVAHIK_clean_linker_0, # of connection points: 2
#     Edge 17, Type (0, 1), BuildingBlock: UVAHIK_clean_linker_0, # of connection points: 2
#     Edge 18, Type (0, 1), BuildingBlock: UVAHIK_clean_linker_0, # of connection points: 2
#     Edge 19, Type (0, 1), BuildingBlock: UVAHIK_clean_linker_0, # of connection points: 2
#     Edge 20, Type (0, 1), BuildingBlock: UVAHIK_clean_linker_0, # of connection points: 2
#     Edge 21, Type (0, 1), BuildingBlock: UVAHIK_clean_linker_0, # of connection points: 2
#     Edge 22, Type (0, 1), BuildingBlock: UVAHIK_clean_linker_0, # of connection points: 2
#     Edge 23, Type (0, 1), BuildingBlock: UVAHIK_clean_linker_0, # of connection points: 2
#     Edge 24, Type (0, 1), BuildingBlock: UVAHIK_clean_linker_0, # of connection points: 2
#     Edge 25, Type (0, 1), BuildingBlock: UVAHIK_clean_linker_0, # of connection points: 2
#     Edge 26, Type (0, 1), BuildingBlock: UVAHIK_clean_linker_0, # of connection points: 2
#     Edge 27, Type (0, 1), BuildingBlock: UVAHIK_clean_linker_0, # of connection points: 2
#     Edge 28, Type (0, 1), BuildingBlock: UVAHIK_clean_linker_0, # of connection points: 2
#     Edge 29, Type (0, 1), BuildingBlock: UVAHIK_clean_linker_0, # of connection points: 2
#     Edge 30, Type (0, 1), BuildingBlock: UVAHIK_clean_linker_0, # of connection points: 2
#     Edge 31, Type (0, 1), BuildingBlock: UVAHIK_clean_linker_0, # of connection points: 2
#     Edge 32, Type (0, 1), BuildingBlock: UVAHIK_clean_linker_0, # of connection points: 2
#     Edge 33, Type (0, 1), BuildingBlock: UVAHIK_clean_linker_0, # of connection points: 2
#     Edge 34, Type (0, 1), BuildingBlock: UVAHIK_clean_linker_0, # of connection points: 2
#     Edge 35, Type (0, 1), BuildingBlock: UVAHIK_clean_linker_0, # of connection points: 2
# Relax obj value: 0.046
# Max RMSD: 0.072
# Mean RMSD: 0.061
data_MOF--net-hwx--node1-IZENUY_clean_sbu_0--node2-BELTOD_clean_linker_0--edge1-UVAHIK_clean_linker_0
_symmetry_space_group_name_H-M    P1
_symmetry_Int_Tables_number       1
_symmetry_cell_setting            triclinic
loop_
_symmetry_equiv_pos_as_xyz
'x, y, z'
_cell_length_a     67.654293
_cell_length_b     67.676602
_cell_length_c     32.311787
_cell_angle_alpha  89.447514
_cell_angle_beta   90.55217
_cell_angle_gamma 90.008744
loop_
_atom_site_label
_atom_site_type_symbol
_atom_site_fract_x
_atom_site_fract_y
_atom_site_fract_z
_atom_type_partial_charge
Fe0 Fe 0.23821 0.19862 0.05567 0.0
Fe1 Fe 0.2387 0.1978 0.96101 0.0
O2 O 0.23319 0.18615 0.00881 0.0
Fe3 Fe 0.22256 0.16216 0.00973 0.0
O4 O 0.20766 0.16643 0.0563 0.0
O5 O 0.21241 0.19789 0.0696 0.0
O6 O 0.23339 0.22337 0.03442 0.0
C7 C 0.22331 0.22891 0.0032 0.0
C8 C 0.24876 0.15893 0.07442 0.0
O9 O 0.22213 0.21824 0.97147 0.0
C10 C 0.25091 0.16018 0.94538 0.0
O11 O 0.2644 0.20035 0.04448 0.0
O12 O 0.26023 0.21134 0.9808 0.0
O13 O 0.24301 0.15227 0.04005 0.0
O14 O 0.24387 0.17611 0.08569 0.0
C15 C 0.20238 0.17837 0.94411 0.0
O16 O 0.25554 0.1782 0.94745 0.0
O17 O 0.23563 0.15363 0.96342 0.0
C18 C 0.27122 0.20833 0.01218 0.0
O19 O 0.21832 0.1863 0.93232 0.0
O20 O 0.20126 0.17027 0.97933 0.0
C21 C 0.20207 0.18247 0.0724 0.0
Fe22 Fe 0.25903 0.70675 0.55207 0.0
Fe23 Fe 0.27274 0.6714 0.5006 0.0
O24 O 0.26302 0.69568 0.50339 0.0
Fe25 Fe 0.25731 0.70895 0.45735 0.0
O26 O 0.26327 0.73333 0.4786 0.0
O27 O 0.27577 0.72692 0.54024 0.0
O28 O 0.27994 0.6944 0.57798 0.0
C29 C 0.29526 0.68631 0.56364 0.0
C30 C 0.22573 0.71899 0.50435 0.0
O31 O 0.295 0.67836 0.52852 0.0
C32 C 0.24501 0.66991 0.43889 0.0
O33 O 0.24203 0.68737 0.56734 0.0
O34 O 0.26075 0.6626 0.54799 0.0
O35 O 0.23152 0.71106 0.47145 0.0
O36 O 0.23742 0.72116 0.53483 0.0
C37 C 0.29235 0.69195 0.43634 0.0
O38 O 0.25118 0.66269 0.47268 0.0
O39 O 0.25032 0.68703 0.42735 0.0
C40 C 0.24604 0.66917 0.56755 0.0
O41 O 0.28647 0.67589 0.45249 0.0
O42 O 0.28273 0.70772 0.44071 0.0
C43 C 0.27395 0.73824 0.50923 0.0
Fe44 Fe 0.76711 0.79319 0.9611 0.0
Fe45 Fe 0.76966 0.79303 0.05622 0.0
O46 O 0.77293 0.80532 0.0081 0.0
Fe47 Fe 0.78209 0.82984 0.00706 0.0
O48 O 0.76842 0.83726 0.96028 0.0
O49 O 0.7492 0.81201 0.94625 0.0
O50 O 0.74643 0.77894 0.9825 0.0
C51 C 0.73629 0.78124 0.01485 0.0
C52 C 0.80253 0.81391 0.94303 0.0
O53 O 0.74353 0.7896 0.04624 0.0
C54 C 0.80448 0.81196 0.07172 0.0
O55 O 0.78452 0.77342 0.97226 0.0
O56 O 0.7756 0.76837 0.03673 0.0
O57 O 0.80348 0.82248 0.9775 0.0
O58 O 0.7868 0.80531 0.93145 0.0
C59 C 0.75654 0.83211 0.0716 0.0
O60 O 0.79568 0.79558 0.0696 0.0
O61 O 0.79741 0.82712 0.05384 0.0
C62 C 0.78443 0.76278 0.0045 0.0
O63 O 0.76293 0.81551 0.08442 0.0
O64 O 0.76131 0.83872 0.03647 0.0
C65 C 0.75303 0.83021 0.94353 0.0
Fe66 Fe 0.71259 0.33868 0.50076 0.0
Fe67 Fe 0.7277 0.30162 0.54693 0.0
O68 O 0.72207 0.31423 0.49994 0.0
Fe69 Fe 0.72586 0.30236 0.45205 0.0
O70 O 0.73224 0.32506 0.42374 0.0
O71 O 0.73325 0.34815 0.47107 0.0
O72 O 0.72628 0.34588 0.54768 0.0
C73 C 0.74142 0.33853 0.56535 0.0
C74 C 0.69061 0.32066 0.43612 0.0
O75 O 0.74536 0.32041 0.56204 0.0
C76 C 0.7108 0.27162 0.5029 0.0
O77 O 0.69124 0.33096 0.53048 0.0
O78 O 0.70787 0.31327 0.57636 0.0
O79 O 0.69994 0.30455 0.43821 0.0
O80 O 0.69719 0.33593 0.45396 0.0
C81 C 0.7591 0.29066 0.49429 0.0
O82 O 0.71041 0.28186 0.53529 0.0
O83 O 0.72023 0.27748 0.47146 0.0
C84 C 0.69217 0.322 0.56487 0.0
O85 O 0.7486 0.28771 0.52601 0.0
O86 O 0.75204 0.29932 0.46273 0.0
C87 C 0.73824 0.34173 0.43616 0.0
P88 P 0.20431 0.50153 0.00686 0.0
H89 H 0.22181 0.50078 0.08946 0.0
H90 H 0.21565 0.52024 0.15111 0.0
H91 H 0.1644 0.54635 0.09125 0.0
H92 H 0.17092 0.52696 0.02925 0.0
H93 H 0.21431 0.47058 0.94972 0.0
H94 H 0.20622 0.43552 0.94686 0.0
H95 H 0.16698 0.44234 0.05058 0.0
H96 H 0.17544 0.47751 0.05354 0.0
H97 H 0.21314 0.5423 0.98754 0.0
H98 H 0.17987 0.49502 0.93156 0.0
O99 O 0.22896 0.50055 0.0067 0.0
H100 H 0.20696 0.56312 0.92677 0.0
H101 H 0.17358 0.51583 0.87049 0.0
C102 C 0.19714 0.51285 0.05454 0.0
C103 C 0.20908 0.51047 0.08984 0.0
C104 C 0.20543 0.52152 0.12523 0.0
C105 C 0.18966 0.53506 0.12594 0.0
C106 C 0.17688 0.53633 0.09138 0.0
C107 C 0.18055 0.52522 0.05599 0.0
C108 C 0.19563 0.47654 0.00203 0.0
C109 C 0.20375 0.46457 0.97146 0.0
C110 C 0.19897 0.44455 0.96968 0.0
C111 C 0.18598 0.43609 0.99858 0.0
C112 C 0.17721 0.44837 0.02818 0.0
C113 C 0.18199 0.46848 0.02984 0.0
C114 C 0.19714 0.5171 0.9639 0.0
C115 C 0.20424 0.53652 0.96236 0.0
C116 C 0.20057 0.54845 0.92771 0.0
C117 C 0.18979 0.54111 0.89377 0.0
C118 C 0.18208 0.52182 0.89602 0.0
C119 C 0.18568 0.50991 0.93093 0.0
P120 P 0.98386 0.86115 0.5096 0.0
H121 H 0.97789 0.88138 0.58804 0.0
H122 H 0.95691 0.87445 0.64749 0.0
H123 H 0.93626 0.82108 0.58861 0.0
H124 H 0.9565 0.82856 0.52887 0.0
H125 H 0.02473 0.87142 0.4909 0.0
H126 H 0.05539 0.85226 0.49137 0.0
H127 H 0.02329 0.80065 0.53239 0.0
H128 H 0.99273 0.81994 0.53286 0.0
H129 H 0.96433 0.8865 0.44786 0.0
H130 H 0.97473 0.82416 0.46635 0.0
O131 O 0.98948 0.88517 0.5102 0.0
H132 H 0.94591 0.87956 0.38461 0.0
H133 H 0.95503 0.81692 0.40521 0.0
C134 C 0.96853 0.8557 0.55357 0.0
C135 C 0.96872 0.86827 0.58781 0.0
C136 C 0.95684 0.86417 0.62202 0.0
C137 C 0.94475 0.84725 0.62284 0.0
C138 C 0.94501 0.83448 0.58875 0.0
C139 C 0.95672 0.8387 0.55447 0.0
C140 C 0.00646 0.84718 0.51226 0.0
C141 C 0.02429 0.85606 0.50051 0.0
C142 C 0.0418 0.84512 0.50076 0.0
C143 C 0.04164 0.82502 0.51193 0.0
C144 C 0.02375 0.81612 0.52344 0.0
C145 C 0.00631 0.82716 0.52386 0.0
C146 C 0.97092 0.85587 0.46197 0.0
C147 C 0.96259 0.87129 0.43844 0.0
C148 C 0.95181 0.86724 0.40239 0.0
C149 C 0.94872 0.84762 0.38965 0.0
C150 C 0.95729 0.83223 0.41336 0.0
C151 C 0.96843 0.83635 0.44884 0.0
P152 P 0.85361 0.49001 0.0003 0.0
H153 H 0.85147 0.49889 0.91163 0.0
H154 H 0.83917 0.48016 0.85213 0.0
H155 H 0.82177 0.43269 0.93434 0.0
H156 H 0.83405 0.45131 0.99332 0.0
H157 H 0.87315 0.5248 0.03341 0.0
H158 H 0.86486 0.55991 0.03239 0.0
H159 H 0.81174 0.54713 0.96208 0.0
H160 H 0.81983 0.51195 0.96472 0.0
H161 H 0.87018 0.45958 0.05492 0.0
H162 H 0.81806 0.49622 0.04987 0.0
O163 O 0.87815 0.48796 0.99824 0.0
H164 H 0.85755 0.44274 0.11651 0.0
H165 H 0.80528 0.47938 0.11145 0.0
C166 C 0.84335 0.47671 0.95702 0.0
C167 C 0.84479 0.48454 0.91683 0.0
C168 C 0.83775 0.47385 0.88289 0.0
C169 C 0.82949 0.45495 0.88857 0.0
C170 C 0.82821 0.44712 0.92891 0.0
C171 C 0.8351 0.45788 0.96278 0.0
C172 C 0.84737 0.51586 0.99825 0.0
C173 C 0.85979 0.5296 0.01757 0.0
C174 C 0.85506 0.5497 0.01677 0.0
C175 C 0.83774 0.55644 0.99672 0.0
C176 C 0.82515 0.54249 0.97798 0.0
C177 C 0.82986 0.52237 0.97905 0.0
C178 C 0.84523 0.47938 0.04832 0.0
C179 C 0.85617 0.46422 0.06749 0.0
C180 C 0.84886 0.45451 0.10248 0.0
C181 C 0.83043 0.45975 0.11885 0.0
C182 C 0.81965 0.47521 0.09992 0.0
C183 C 0.82693 0.48483 0.06471 0.0
P184 P 0.02794 0.21945 0.5091 0.0
H185 H 0.04532 0.24342 0.44325 0.0
H186 H 0.06094 0.23521 0.37836 0.0
H187 H 0.04628 0.17363 0.39784 0.0
H188 H 0.03132 0.182 0.46418 0.0
H189 H -0.00057 0.2395 0.56059 0.0
H190 H 0.96347 0.24199 0.55825 0.0
H191 H 0.96167 0.20121 0.45626 0.0
H192 H 0.99767 0.19867 0.45887 0.0
H193 H 0.06376 0.19497 0.51196 0.0
H194 H 0.01759 0.21187 0.59575 0.0
O195 O 0.03484 0.24258 0.5194 0.0
H196 H 0.08193 0.1797 0.56878 0.0
H197 H 0.03639 0.19766 0.65347 0.0
C198 C 0.03734 0.2133 0.45877 0.0
C199 C 0.04534 0.22816 0.43357 0.0
C200 C 0.05413 0.22343 0.39608 0.0
C201 C 0.05492 0.20372 0.38267 0.0
C202 C 0.04621 0.18891 0.40741 0.0
C203 C 0.03751 0.19368 0.44516 0.0
C204 C 0.00132 0.21902 0.50978 0.0
C205 C 0.99131 0.23082 0.53815 0.0
C206 C 0.97073 0.23219 0.53687 0.0
C207 C 0.95975 0.22185 0.50694 0.0
C208 C 0.96977 0.20951 0.47938 0.0
C209 C 0.99039 0.208 0.48096 0.0
C210 C 0.03899 0.20424 0.54918 0.0
C211 C 0.05719 0.19498 0.54233 0.0
C212 C 0.06781 0.1865 0.57518 0.0
C213 C 0.06081 0.18769 0.61595 0.0
C214 C 0.04216 0.19625 0.62251 0.0
C215 C 0.03138 0.20446 0.5894 0.0
P216 P 0.70764 0.99911 0.50506 0.0
H217 H 0.72677 0.00094 0.42478 0.0
H218 H 0.72253 0.98168 0.36192 0.0
H219 H 0.67122 0.95332 0.41468 0.0
H220 H 0.6758 0.97253 0.47791 0.0
H221 H 0.71632 0.03125 0.56076 0.0
H222 H 0.70593 0.0657 0.56238 0.0
H223 H 0.66576 0.05521 0.46004 0.0
H224 H 0.67655 0.02068 0.45827 0.0
H225 H 0.71677 0.95811 0.52204 0.0
H226 H 0.68372 0.00446 0.5805 0.0
O227 O 0.73217 0.0015 0.50804 0.0
H228 H 0.71125 0.93651 0.58161 0.0
H229 H 0.678 0.98283 0.64033 0.0
C230 C 0.70193 0.98773 0.4563 0.0
C231 C 0.71445 0.99077 0.42258 0.0
C232 C 0.71189 0.97985 0.38649 0.0
C233 C 0.69667 0.96575 0.38346 0.0
C234 C 0.68331 0.96378 0.41636 0.0
C235 C 0.68587 0.97477 0.45246 0.0
C236 C 0.6974 0.02353 0.50911 0.0
C237 C 0.70508 0.03631 0.53902 0.0
C238 C 0.699 0.05599 0.5401 0.0
C239 C 0.68505 0.06328 0.51121 0.0
C240 C 0.67672 0.05013 0.48237 0.0
C241 C 0.68282 0.03037 0.4814 0.0
C242 C 0.70071 0.98286 0.54685 0.0
C243 C 0.70799 0.9635 0.54743 0.0
C244 C 0.70471 0.95112 0.58144 0.0
C245 C 0.69417 0.95795 0.61576 0.0
C246 C 0.68632 0.97721 0.6145 0.0
C247 C 0.68955 0.98958 0.58025 0.0
P248 P 0.50813 0.35928 0.99713 0.0
H249 H 0.49931 0.3491 0.91067 0.0
H250 H 0.52053 0.34302 0.85098 0.0
H251 H 0.57207 0.35495 0.92667 0.0
H252 H 0.55092 0.36095 0.98581 0.0
H253 H 0.46835 0.3662 0.02715 0.0
H254 H 0.43902 0.34537 0.03167 0.0
H255 H 0.4709 0.29774 0.974 0.0
H256 H 0.50043 0.31852 0.97125 0.0
H257 H 0.51266 0.3812 0.07444 0.0
H258 H 0.53235 0.32588 0.02429 0.0
O259 O 0.5015 0.38303 0.99537 0.0
H260 H 0.53153 0.37463 0.13791 0.0
H261 H 0.55194 0.3195 0.08683 0.0
C262 C 0.52357 0.35467 0.95311 0.0
C263 C 0.51519 0.35018 0.91445 0.0
C264 C 0.52731 0.34687 0.88031 0.0
C265 C 0.54799 0.34818 0.88433 0.0
C266 C 0.55623 0.35332 0.92285 0.0
C267 C 0.54412 0.35673 0.95676 0.0
C268 C 0.48633 0.3441 0.99767 0.0
C269 C 0.46895 0.35134 0.0151 0.0
C270 C 0.45216 0.33939 0.01758 0.0
C271 C 0.45247 0.31991 0.00275 0.0
C272 C 0.47012 0.31261 0.98594 0.0
C273 C 0.48696 0.32456 0.98382 0.0
C274 C 0.52149 0.35421 0.04442 0.0
C275 C 0.52117 0.36769 0.07701 0.0
C276 C 0.53206 0.36394 0.11323 0.0
C277 C 0.54347 0.34662 0.11743 0.0
C278 C 0.54321 0.33289 0.08497 0.0
C279 C 0.53216 0.33659 0.04898 0.0
P280 P 0.35907 0.0067 0.51399 0.0
H281 H 0.35771 0.99779 0.60254 0.0
H282 H 0.34587 0.01644 0.66209 0.0
H283 H 0.32866 0.06439 0.58026 0.0
H284 H 0.34039 0.04583 0.5212 0.0
H285 H 0.37569 0.97102 0.47879 0.0
H286 H 0.36514 0.93652 0.47892 0.0
H287 H 0.31429 0.95211 0.55188 0.0
H288 H 0.32453 0.98667 0.54989 0.0
H289 H 0.37673 0.03738 0.4623 0.0
H290 H 0.32374 0.00197 0.4616 0.0
O291 O 0.3837 0.00719 0.51691 0.0
H292 H 0.36507 0.05508 0.40038 0.0
H293 H 0.31195 0.01964 0.39968 0.0
C294 C 0.34964 0.02023 0.55734 0.0
C295 C 0.35122 0.01225 0.59745 0.0
C296 C 0.34444 0.02289 0.6314 0.0
C297 C 0.33633 0.04187 0.6258 0.0
C298 C 0.33499 0.04988 0.58558 0.0
C299 C 0.34159 0.03917 0.55168 0.0
C300 C 0.35119 0.98129 0.51523 0.0
C301 C 0.36233 0.96696 0.49496 0.0
C302 C 0.35631 0.9472 0.49527 0.0
C303 C 0.33896 0.94141 0.51585 0.0
C304 C 0.32765 0.95599 0.53552 0.0
C305 C 0.33362 0.97576 0.53486 0.0
C306 C 0.35129 0.01811 0.466 0.0
C307 C 0.36273 0.03321 0.44842 0.0
C308 C 0.35597 0.04342 0.41327 0.0
C309 C 0.33761 0.03872 0.39513 0.0
C310 C 0.32629 0.0234 0.4126 0.0
C311 C 0.333 0.01329 0.44799 0.0
P312 P 0.46701 0.71844 0.99306 0.0
H313 H 0.45162 0.74365 0.05782 0.0
H314 H 0.43483 0.73671 0.12243 0.0
H315 H 0.44203 0.674 0.10247 0.0
H316 H 0.45807 0.68123 0.03636 0.0
H317 H 0.49776 0.73626 0.94332 0.0
H318 H 0.53374 0.73673 0.94927 0.0
H319 H 0.5307 0.69794 0.05602 0.0
H320 H 0.49463 0.69754 0.0499 0.0
H321 H 0.4271 0.70475 0.97646 0.0
H322 H 0.4844 0.69925 0.92031 0.0
O323 O 0.46113 0.74163 0.97989 0.0
H324 H 0.41173 0.68992 0.91575 0.0
H325 H 0.46912 0.68426 0.85949 0.0
C326 C 0.45579 0.71294 0.04208 0.0
C327 C 0.44958 0.7284 0.06728 0.0
C328 C 0.44015 0.72438 0.10461 0.0
C329 C 0.43705 0.70476 0.11791 0.0
C330 C 0.44387 0.68927 0.09297 0.0
C331 C 0.45312 0.69335 0.05529 0.0
C332 C 0.49352 0.7171 0.99644 0.0
C333 C 0.50484 0.72774 0.96783 0.0
C334 C 0.5254 0.72787 0.97108 0.0
C335 C 0.53502 0.7174 0.00318 0.0
C336 C 0.52365 0.7063 0.03123 0.0
C337 C 0.50303 0.70604 0.02769 0.0
C338 C 0.4569 0.70297 0.95317 0.0
C339 C 0.43646 0.69975 0.95165 0.0
C340 C 0.42769 0.69121 0.91688 0.0
C341 C 0.43921 0.68596 0.8827 0.0
C342 C 0.45984 0.68831 0.88519 0.0
C343 C 0.46861 0.69681 0.92011 0.0
C344 C 0.17788 0.16606 0.11995 0.0
C345 C 0.18419 0.18293 0.09818 0.0
C346 C 0.16186 0.16716 0.14694 0.0
C347 C 0.13296 0.20446 0.205 0.0
H348 H 0.09851 0.15996 0.22795 0.0
C349 C 0.06568 0.21176 0.31016 0.0
C350 C 0.06584 0.19872 0.34435 0.0
C351 C 0.07807 0.20857 0.27658 0.0
C352 C 0.10805 0.17247 0.22171 0.0
H353 H 0.17806 0.21382 0.08545 0.0
H354 H 0.14961 0.21555 0.1306 0.0
H355 H 0.12393 0.15708 0.17497 0.0
H356 H 0.07846 0.17143 0.36869 0.0
H357 H 0.09965 0.16561 0.30929 0.0
H358 H 0.11681 0.21992 0.25117 0.0
C359 C 0.15745 0.20166 0.12859 0.0
C360 C 0.1227 0.17083 0.19159 0.0
C361 C 0.17369 0.20066 0.10241 0.0
C362 C 0.07777 0.1817 0.34282 0.0
C363 C 0.08998 0.17837 0.30887 0.0
C364 C 0.11814 0.20619 0.23442 0.0
C365 C 0.15159 0.18507 0.15207 0.0
C366 C 0.13544 0.18679 0.18298 0.0
C367 C 0.09065 0.19209 0.27606 0.0
C368 C 0.10562 0.19021 0.24324 0.0
H369 H 0.18578 0.15221 0.11734 0.0
H370 H 0.15799 0.15412 0.16474 0.0
H371 H 0.14275 0.21691 0.20029 0.0
H372 H 0.05632 0.22474 0.30973 0.0
H373 H 0.07814 0.21922 0.25133 0.0
C374 C 0.224 0.66261 0.62818 0.0
C375 C 0.23492 0.65551 0.59467 0.0
C376 C 0.21515 0.64942 0.65599 0.0
C377 C 0.22054 0.59793 0.69314 0.0
H378 H 0.17222 0.60908 0.75214 0.0
C379 C 0.19219 0.54425 0.81671 0.0
C380 C 0.18828 0.553 0.85502 0.0
C381 C 0.19402 0.55589 0.78104 0.0
C382 C 0.18573 0.60579 0.73583 0.0
H383 H 0.24396 0.62913 0.56232 0.0
H384 H 0.22807 0.60621 0.60995 0.0
H385 H 0.18269 0.63115 0.69609 0.0
H386 H 0.18171 0.58063 0.88542 0.0
H387 H 0.1851 0.60101 0.82312 0.0
H388 H 0.22376 0.57278 0.73304 0.0
C389 C 0.22689 0.6219 0.61572 0.0
C390 C 0.19177 0.61845 0.70386 0.0
C391 C 0.23593 0.63504 0.58829 0.0
C392 C 0.18498 0.5735 0.8564 0.0
C393 C 0.18673 0.58514 0.82067 0.0
C394 C 0.21444 0.58525 0.72476 0.0
C395 C 0.21683 0.62888 0.65055 0.0
C396 C 0.2094 0.61479 0.68245 0.0
C397 C 0.19191 0.57652 0.7829 0.0
C398 C 0.19711 0.58914 0.7468 0.0
H399 H 0.22295 0.67831 0.6339 0.0
H400 H 0.20769 0.65535 0.68265 0.0
H401 H 0.23442 0.59484 0.67809 0.0
H402 H 0.19493 0.52852 0.81463 0.0
H403 H 0.19777 0.54882 0.75222 0.0
C404 C 0.83291 0.79794 0.11321 0.0
C405 C 0.82167 0.81429 0.09986 0.0
C406 C 0.84888 0.80046 0.14058 0.0
C407 C 0.88126 0.83974 0.18614 0.0
H408 H 0.89022 0.80066 0.27285 0.0
C409 C 0.91983 0.85523 0.34243 0.0
C410 C 0.93617 0.84319 0.35265 0.0
C411 C 0.90781 0.85093 0.30833 0.0
C412 C 0.88797 0.81157 0.24848 0.0
H413 H 0.81821 0.84605 0.10504 0.0
H414 H 0.84523 0.85031 0.15368 0.0
H415 H 0.86541 0.79441 0.21912 0.0
H416 H 0.95268 0.81723 0.33399 0.0
H417 H 0.93093 0.80925 0.27572 0.0
H418 H 0.90304 0.85734 0.2173 0.0
C419 C 0.84238 0.83561 0.1421 0.0
C420 C 0.87385 0.80798 0.21754 0.0
C421 C 0.82671 0.83315 0.11434 0.0
C422 C 0.94006 0.82666 0.32777 0.0
C423 C 0.92773 0.82212 0.29418 0.0
C424 C 0.89504 0.84347 0.21752 0.0
C425 C 0.85374 0.81934 0.15561 0.0
C426 C 0.87005 0.82219 0.18633 0.0
C427 C 0.91157 0.83427 0.2842 0.0
C428 C 0.8983 0.82953 0.24918 0.0
H429 H 0.82943 0.78324 0.10235 0.0
H430 H 0.85743 0.7876 0.14981 0.0
H431 H 0.87921 0.85081 0.16205 0.0
H432 H 0.91598 0.86779 0.3612 0.0
H433 H 0.89526 0.86038 0.30137 0.0
C434 C 0.74941 0.37119 0.59754 0.0
C435 C 0.75313 0.35081 0.5944 0.0
C436 C 0.75942 0.38256 0.62693 0.0
C437 C 0.78446 0.37789 0.72768 0.0
H438 H 0.80357 0.43075 0.70364 0.0
C439 C 0.82677 0.42304 0.85009 0.0
C440 C 0.82239 0.44329 0.85266 0.0
C441 C 0.81965 0.41186 0.81702 0.0
C442 C 0.79813 0.41609 0.71098 0.0
H443 H 0.7708 0.32656 0.61897 0.0
H444 H 0.78822 0.34642 0.67029 0.0
H445 H 0.78897 0.41106 0.64827 0.0
H446 H 0.80718 0.46771 0.82244 0.0
H447 H 0.79446 0.44815 0.76496 0.0
H448 H 0.79314 0.38297 0.79044 0.0
C449 C 0.77741 0.35354 0.6502 0.0
C450 C 0.78982 0.4048 0.67922 0.0
C451 C 0.76749 0.34218 0.62062 0.0
C452 C 0.81096 0.45218 0.82109 0.0
C453 C 0.80371 0.44096 0.7881 0.0
C454 C 0.79265 0.3892 0.75946 0.0
C455 C 0.77331 0.3738 0.65403 0.0
C456 C 0.78284 0.38559 0.68725 0.0
C457 C 0.80786 0.42062 0.7858 0.0
C458 C 0.79955 0.40848 0.75158 0.0
H459 H 0.73849 0.37835 0.57774 0.0
H460 H 0.75582 0.3981 0.6293 0.0
H461 H 0.77891 0.36327 0.73502 0.0
H462 H 0.83585 0.41584 0.87357 0.0
H463 H 0.82349 0.39635 0.81586 0.0
C464 C 0.66553 0.341 0.39731 0.0
C465 C 0.67311 0.32233 0.40843 0.0
C466 C 0.64977 0.3427 0.36927 0.0
C467 C 0.62432 0.31512 0.28597 0.0
H468 H 0.5857 0.35716 0.29505 0.0
C469 C 0.55869 0.32405 0.17139 0.0
C470 C 0.55611 0.3432 0.1548 0.0
C471 C 0.57145 0.32076 0.20505 0.0
C472 C 0.59643 0.34539 0.2921 0.0
H473 H 0.66956 0.29076 0.39999 0.0
H474 H 0.64173 0.29372 0.35184 0.0
H475 H 0.61047 0.35247 0.34965 0.0
H476 H 0.56493 0.37389 0.16106 0.0
H477 H 0.58679 0.36814 0.22024 0.0
H478 H 0.61017 0.30805 0.22842 0.0
C479 C 0.6483 0.30708 0.36396 0.0
C480 C 0.61066 0.34272 0.32328 0.0
C481 C 0.66419 0.30538 0.39175 0.0
C482 C 0.56625 0.35901 0.17338 0.0
C483 C 0.57884 0.35572 0.20727 0.0
C484 C 0.60997 0.31767 0.25501 0.0
C485 C 0.64105 0.32578 0.35194 0.0
C486 C 0.62499 0.32774 0.32033 0.0
C487 C 0.58174 0.33654 0.22315 0.0
C488 C 0.59605 0.333 0.25748 0.0
H489 H 0.67209 0.35437 0.40943 0.0
H490 H 0.64482 0.35736 0.3603 0.0
H491 H 0.63528 0.30363 0.28224 0.0
H492 H 0.55086 0.31158 0.15839 0.0
H493 H 0.57323 0.30585 0.21699 0.0
C494 C 0.27684 0.15506 0.89161 0.0
C495 C 0.26196 0.1472 0.91705 0.0
C496 C 0.28619 0.14324 0.86251 0.0
C497 C 0.29633 0.09169 0.83362 0.0
H498 H 0.30072 0.11376 0.7229 0.0
C499 C 0.31759 0.04449 0.69224 0.0
C500 C 0.32934 0.05339 0.66165 0.0
C501 C 0.31032 0.05564 0.725 0.0
C502 C 0.29992 0.10745 0.75376 0.0
H503 H 0.24584 0.12049 0.93289 0.0
H504 H 0.26226 0.09985 0.88206 0.0
H505 H 0.2868 0.13366 0.77772 0.0
H506 H 0.34335 0.0807 0.64228 0.0
H507 H 0.331 0.10007 0.69969 0.0
H508 H 0.30956 0.06548 0.80969 0.0
C509 C 0.26664 0.11518 0.88472 0.0
C510 C 0.2919 0.11886 0.78517 0.0
C511 C 0.25717 0.12704 0.91369 0.0
C512 C 0.33404 0.07353 0.66502 0.0
C513 C 0.32692 0.08462 0.69789 0.0
C514 C 0.30451 0.08028 0.80221 0.0
C515 C 0.281 0.12325 0.85835 0.0
C516 C 0.28997 0.11112 0.82542 0.0
C517 C 0.31476 0.07589 0.72805 0.0
C518 C 0.30637 0.08802 0.76184 0.0
H519 H 0.281 0.17048 0.89348 0.0
H520 H 0.29741 0.14979 0.84302 0.0
H521 H 0.29519 0.08539 0.86445 0.0
H522 H 0.31358 0.02904 0.69022 0.0
H523 H 0.3008 0.04847 0.74733 0.0
C524 C 0.31479 0.67489 0.38701 0.0
C525 C 0.30958 0.69196 0.40873 0.0
C526 C 0.33047 0.67531 0.35915 0.0
C527 C 0.36097 0.71106 0.29896 0.0
H528 H 0.39227 0.66446 0.2762 0.0
C529 C 0.42776 0.71339 0.19072 0.0
C530 C 0.42594 0.70069 0.15664 0.0
C531 C 0.4155 0.71114 0.22495 0.0
C532 C 0.38362 0.67755 0.28241 0.0
H533 H 0.31723 0.72251 0.42011 0.0
H534 H 0.34517 0.72304 0.3733 0.0
H535 H 0.36738 0.66319 0.33052 0.0
H536 H 0.4104 0.67497 0.13313 0.0
H537 H 0.38951 0.67072 0.19374 0.0
H538 H 0.3776 0.72547 0.25143 0.0
C539 C 0.3367 0.70953 0.37615 0.0
C540 C 0.36926 0.67684 0.31327 0.0
C541 C 0.32076 0.70923 0.40325 0.0
C542 C 0.41239 0.68492 0.15887 0.0
C543 C 0.40035 0.6825 0.19349 0.0
C544 C 0.37556 0.71186 0.2688 0.0
C545 C 0.34156 0.6927 0.35306 0.0
C546 C 0.35758 0.69355 0.32169 0.0
C547 C 0.40145 0.69592 0.22625 0.0
C548 C 0.38688 0.69509 0.26001 0.0
H549 H 0.30634 0.66139 0.39053 0.0
H550 H 0.33349 0.66213 0.34158 0.0
H551 H 0.35202 0.7241 0.3036 0.0
H552 H 0.43837 0.72536 0.19066 0.0
H553 H 0.41675 0.72153 0.25015 0.0
C554 C 0.73042 0.83563 0.88235 0.0
C555 C 0.74104 0.84321 0.91623 0.0
C556 C 0.72131 0.84844 0.85371 0.0
C557 C 0.72604 0.89992 0.81597 0.0
H558 H 0.67829 0.88806 0.75368 0.0
C559 C 0.69698 0.95397 0.69276 0.0
C560 C 0.69309 0.94557 0.65391 0.0
C561 C 0.69909 0.94198 0.72795 0.0
C562 C 0.69164 0.89153 0.77087 0.0
H563 H 0.74912 0.86997 0.94861 0.0
H564 H 0.73272 0.89221 0.89973 0.0
H565 H 0.68884 0.86601 0.81021 0.0
H566 H 0.68691 0.91816 0.62209 0.0
H567 H 0.69084 0.89718 0.68354 0.0
H568 H 0.72904 0.92522 0.77658 0.0
C569 C 0.73202 0.87647 0.89418 0.0
C570 C 0.69773 0.87889 0.80314 0.0
C571 C 0.74133 0.86372 0.92235 0.0
C572 C 0.69016 0.92504 0.65151 0.0
C573 C 0.69223 0.91304 0.68677 0.0
C574 C 0.7199 0.91256 0.78406 0.0
C575 C 0.72245 0.86906 0.85875 0.0
C576 C 0.71509 0.88287 0.8259 0.0
C577 C 0.69734 0.92134 0.7251 0.0
C578 C 0.70274 0.90847 0.76093 0.0
H579 H 0.72996 0.81987 0.87686 0.0
H580 H 0.71418 0.8422 0.82668 0.0
H581 H 0.73975 0.90324 0.83199 0.0
H582 H 0.69944 0.96971 0.69569 0.0
H583 H 0.70276 0.94882 0.7572 0.0
C584 C 0.83706 0.82468 0.92553 0.0
C585 C 0.81914 0.81573 0.91369 0.0
C586 C 0.85238 0.82693 0.89706 0.0
C587 C 0.86965 0.80896 0.79513 0.0
H588 H 0.89809 0.85869 0.79139 0.0
C589 C 0.91279 0.83493 0.65236 0.0
C590 C 0.93172 0.84301 0.6587 0.0
C591 C 0.90054 0.83076 0.68582 0.0
C592 C 0.89044 0.84464 0.79241 0.0
H593 H 0.80339 0.80195 0.86269 0.0
H594 H 0.82978 0.80625 0.81316 0.0
H595 H 0.87404 0.85271 0.84598 0.0
H596 H 0.95258 0.85296 0.70556 0.0
H597 H 0.93088 0.84607 0.76399 0.0
H598 H 0.8856 0.80118 0.74076 0.0
C599 C 0.83223 0.8112 0.84456 0.0
C600 C 0.8767 0.84117 0.82373 0.0
C601 C 0.817 0.80886 0.87298 0.0
C602 C 0.938 0.847 0.69944 0.0
C603 C 0.92563 0.84299 0.73295 0.0
C604 C 0.88323 0.81249 0.76369 0.0
C605 C 0.85009 0.82033 0.85614 0.0
C606 C 0.8659 0.8234 0.82507 0.0
C607 C 0.90682 0.83474 0.72644 0.0
C608 C 0.89354 0.83048 0.76164 0.0
H609 H 0.83924 0.83002 0.95673 0.0
H610 H 0.86603 0.83381 0.90716 0.0
H611 H 0.86194 0.79493 0.79575 0.0
H612 H 0.90725 0.83208 0.62144 0.0
H613 H 0.88597 0.82473 0.67983 0.0
C614 C 0.75102 0.37498 0.4133 0.0
C615 C 0.74943 0.3545 0.4072 0.0
C616 C 0.76039 0.38702 0.38391 0.0
C617 C 0.77459 0.387 0.27327 0.0
H618 H 0.80687 0.43209 0.30327 0.0
C619 C 0.82287 0.42768 0.1546 0.0
C620 C 0.82203 0.44842 0.15413 0.0
C621 C 0.81433 0.41684 0.18677 0.0
C622 C 0.79775 0.41963 0.29449 0.0
H623 H 0.75735 0.33047 0.36659 0.0
H624 H 0.77405 0.35125 0.31622 0.0
H625 H 0.79175 0.41187 0.3576 0.0
H626 H 0.81194 0.4741 0.18751 0.0
H627 H 0.79699 0.45507 0.24401 0.0
H628 H 0.7808 0.39455 0.2103 0.0
C629 C 0.76753 0.3582 0.34288 0.0
C630 C 0.78906 0.40807 0.32556 0.0
C631 C 0.75804 0.34624 0.37195 0.0
C632 C 0.8127 0.45811 0.18693 0.0
C633 C 0.8043 0.44725 0.21939 0.0
C634 C 0.78338 0.39842 0.24235 0.0
C635 C 0.7685 0.37879 0.348 0.0
C636 C 0.77749 0.3915 0.31532 0.0
C637 C 0.80484 0.42648 0.21938 0.0
C638 C 0.79517 0.41478 0.25258 0.0
H639 H 0.74453 0.3818 0.44014 0.0
H640 H 0.76076 0.40282 0.38876 0.0
H641 H 0.76537 0.37468 0.26411 0.0
H642 H 0.82977 0.41977 0.12958 0.0
H643 H 0.81515 0.40086 0.18612 0.0
C644 C 0.16751 0.1684 0.92527 0.0
C645 C 0.18584 0.17658 0.91395 0.0
C646 C 0.15236 0.16621 0.89571 0.0
C647 C 0.14484 0.16216 0.78311 0.0
H648 H 0.09201 0.18224 0.80155 0.0
C649 C 0.09418 0.18604 0.65005 0.0
C650 C 0.07382 0.18192 0.65151 0.0
C651 C 0.10646 0.1818 0.68381 0.0
C652 C 0.10657 0.1762 0.79621 0.0
H653 H 0.20242 0.18914 0.86279 0.0
H654 H 0.17623 0.18528 0.81184 0.0
H655 H 0.11611 0.18162 0.85864 0.0
H656 H 0.05051 0.16985 0.68991 0.0
H657 H 0.07213 0.1627 0.7495 0.0
H658 H 0.13563 0.15724 0.72058 0.0
C659 C 0.17359 0.18036 0.84331 0.0
C660 C 0.12036 0.17587 0.82885 0.0
C661 C 0.18857 0.1827 0.8727 0.0
C662 C 0.06609 0.17334 0.6878 0.0
C663 C 0.07845 0.16922 0.72189 0.0
C664 C 0.13111 0.16244 0.75065 0.0
C665 C 0.1554 0.17194 0.85431 0.0
C666 C 0.13982 0.16947 0.82217 0.0
C667 C 0.09877 0.17344 0.72019 0.0
C668 C 0.11205 0.17009 0.75644 0.0
H669 H 0.1649 0.1636 0.95682 0.0
H670 H 0.13844 0.15972 0.90501 0.0
H671 H 0.15961 0.15674 0.77731 0.0
H672 H 0.10062 0.19316 0.62324 0.0
H673 H 0.12197 0.18567 0.68183 0.0
C674 C 0.22613 0.66513 0.37262 0.0
C675 C 0.23368 0.65726 0.40995 0.0
C676 C 0.21692 0.6529 0.34368 0.0
C677 C 0.19556 0.60268 0.3287 0.0
H678 H 0.21192 0.61128 0.21529 0.0
C679 C 0.19195 0.54307 0.20173 0.0
C680 C 0.18796 0.54915 0.16075 0.0
C681 C 0.19342 0.55694 0.2334 0.0
C682 C 0.20687 0.60886 0.24664 0.0
H683 H 0.23669 0.63045 0.44689 0.0
H684 H 0.22103 0.60907 0.39609 0.0
H685 H 0.22216 0.6344 0.2683 0.0
H686 H 0.1814 0.57453 0.1214 0.0
H687 H 0.18356 0.59861 0.17673 0.0
H688 H 0.1808 0.57669 0.30688 0.0
C689 C 0.22198 0.62475 0.38934 0.0
C690 C 0.21275 0.62215 0.27711 0.0
C691 C 0.2311 0.637 0.41839 0.0
C692 C 0.18435 0.56928 0.15263 0.0
C693 C 0.18583 0.58314 0.18426 0.0
C694 C 0.18972 0.58932 0.29814 0.0
C695 C 0.21512 0.63248 0.35129 0.0
C696 C 0.20738 0.61912 0.31862 0.0
C697 C 0.19096 0.5772 0.22475 0.0
C698 C 0.19551 0.59215 0.25684 0.0
H699 H 0.22765 0.68071 0.36535 0.0
H700 H 0.21146 0.65941 0.31504 0.0
H701 H 0.19094 0.60006 0.36027 0.0
H702 H 0.19457 0.52764 0.20909 0.0
H703 H 0.19748 0.55188 0.26423 0.0
C704 C 0.31542 0.69748 0.62408 0.0
C705 C 0.31312 0.6848 0.5902 0.0
C706 C 0.33189 0.69587 0.65015 0.0
C707 C 0.36838 0.66107 0.68973 0.0
H708 H 0.39567 0.70848 0.72513 0.0
C709 C 0.43548 0.68938 0.80583 0.0
C710 C 0.42942 0.68048 0.84311 0.0
C711 C 0.42423 0.68721 0.76972 0.0
C712 C 0.38844 0.69504 0.71513 0.0
H713 H 0.32636 0.66052 0.55696 0.0
H714 H 0.35514 0.65752 0.6033 0.0
H715 H 0.37028 0.71074 0.67134 0.0
H716 H 0.40768 0.66107 0.87095 0.0
H717 H 0.3879 0.65744 0.80786 0.0
H718 H 0.38617 0.64547 0.73464 0.0
C719 C 0.34414 0.66873 0.60934 0.0
C720 C 0.37378 0.69638 0.68461 0.0
C721 C 0.32775 0.67053 0.58278 0.0
C722 C 0.4126 0.66828 0.8428 0.0
C723 C 0.40137 0.66606 0.80658 0.0
C724 C 0.38295 0.65974 0.72067 0.0
C725 C 0.34634 0.68142 0.64323 0.0
C726 C 0.36335 0.67949 0.67216 0.0
C727 C 0.40671 0.67608 0.77006 0.0
C728 C 0.39291 0.67678 0.73411 0.0
H729 H 0.30446 0.70867 0.63052 0.0
H730 H 0.33312 0.70571 0.6763 0.0
H731 H 0.36047 0.64783 0.68078 0.0
H732 H 0.44826 0.699 0.80503 0.0
H733 H 0.42881 0.69492 0.74188 0.0
C734 C 0.74259 0.86506 0.0912 0.0
C735 C 0.7455 0.8449 0.10026 0.0
C736 C 0.73358 0.87742 0.11989 0.0
C737 C 0.72468 0.88042 0.23211 0.0
H738 H 0.69158 0.925 0.20075 0.0
C739 C 0.69315 0.93157 0.35523 0.0
C740 C 0.69613 0.95187 0.34808 0.0
C741 C 0.6956 0.91801 0.32338 0.0
C742 C 0.70084 0.91262 0.20991 0.0
H743 H 0.74019 0.8217 0.14558 0.0
H744 H 0.72414 0.8431 0.19515 0.0
H745 H 0.70249 0.90193 0.14784 0.0
H746 H 0.7027 0.97396 0.30113 0.0
H747 H 0.70725 0.95023 0.24557 0.0
H748 H 0.72329 0.89118 0.29394 0.0
C749 C 0.72931 0.84952 0.16638 0.0
C750 C 0.70713 0.89943 0.17963 0.0
C751 C 0.73844 0.83721 0.13786 0.0
C752 C 0.70054 0.95839 0.30775 0.0
C753 C 0.70296 0.94481 0.27583 0.0
C754 C 0.71833 0.89351 0.26229 0.0
C755 C 0.72714 0.86985 0.15816 0.0
C756 C 0.71929 0.88327 0.19034 0.0
C757 C 0.70109 0.92443 0.28362 0.0
C758 C 0.70649 0.90986 0.25155 0.0
H759 H 0.74783 0.87147 0.06247 0.0
H760 H 0.73234 0.89302 0.11266 0.0
H761 H 0.73437 0.86841 0.24143 0.0
H762 H 0.68991 0.926 0.38596 0.0
H763 H 0.69378 0.90242 0.3302 0.0
C764 C 0.65864 0.33474 0.58494 0.0
C765 C 0.67561 0.3235 0.59443 0.0
C766 C 0.64369 0.33698 0.61425 0.0
C767 C 0.63643 0.33515 0.72689 0.0
H768 H 0.58056 0.33184 0.69998 0.0
C769 C 0.5783 0.3329 0.85448 0.0
C770 C 0.56109 0.34425 0.84874 0.0
C771 C 0.59132 0.33004 0.82188 0.0
C772 C 0.5961 0.33302 0.70788 0.0
H773 H 0.68976 0.30518 0.64166 0.0
H774 H 0.66379 0.30902 0.6923 0.0
H775 H 0.60502 0.32755 0.64546 0.0
H776 H 0.54382 0.36115 0.80402 0.0
H777 H 0.56674 0.35629 0.7469 0.0
H778 H 0.62771 0.34075 0.78902 0.0
C779 C 0.66216 0.31639 0.66255 0.0
C780 C 0.6101 0.33055 0.67667 0.0
C781 C 0.67702 0.31411 0.63336 0.0
C782 C 0.55691 0.35223 0.80929 0.0
C783 C 0.57003 0.34943 0.77659 0.0
C784 C 0.62251 0.33767 0.75794 0.0
C785 C 0.64548 0.32808 0.65362 0.0
C786 C 0.63042 0.33137 0.68599 0.0
C787 C 0.58754 0.33853 0.78271 0.0
C788 C 0.60217 0.33641 0.74898 0.0
H789 H 0.65705 0.34212 0.55519 0.0
H790 H 0.63103 0.34613 0.60653 0.0
H791 H 0.65197 0.33631 0.73492 0.0
H792 H 0.58172 0.32623 0.88431 0.0
H793 H 0.60442 0.32116 0.82743 0.0
C794 C 0.26849 0.15383 0.1396 0.0
C795 C 0.25974 0.14593 0.10374 0.0
C796 C 0.27827 0.14157 0.16815 0.0
C797 C 0.27978 0.09051 0.20619 0.0
H798 H 0.32967 0.10626 0.25588 0.0
C799 C 0.32099 0.04078 0.32531 0.0
C800 C 0.32998 0.05027 0.35909 0.0
C801 C 0.3135 0.05179 0.29182 0.0
C802 C 0.31564 0.10173 0.24266 0.0
H803 H 0.25467 0.11893 0.06953 0.0
H804 H 0.27164 0.09749 0.11973 0.0
H805 H 0.3147 0.12676 0.20161 0.0
H806 H 0.33789 0.07875 0.38455 0.0
H807 H 0.32456 0.09795 0.32666 0.0
H808 H 0.28037 0.06579 0.24791 0.0
C809 C 0.27085 0.11319 0.12567 0.0
C810 C 0.30711 0.11345 0.21146 0.0
C811 C 0.26122 0.12549 0.09685 0.0
C812 C 0.33133 0.07099 0.35865 0.0
C813 C 0.32372 0.08199 0.32537 0.0
C814 C 0.28823 0.07885 0.23764 0.0
C815 C 0.2794 0.1211 0.1617 0.0
C816 C 0.28901 0.10806 0.19315 0.0
C817 C 0.31468 0.07255 0.29151 0.0
C818 C 0.30618 0.08441 0.25657 0.0
H819 H 0.2677 0.16951 0.1458 0.0
H820 H 0.28456 0.14807 0.19581 0.0
H821 H 0.2657 0.0861 0.19297 0.0
H822 H 0.31993 0.02482 0.32461 0.0
H823 H 0.30691 0.044 0.26603 0.0
C824 C 0.21275 0.25922 0.04031 0.0
C825 C 0.2147 0.24901 0.00291 0.0
C826 C 0.20605 0.2787 0.0405 0.0
C827 C 0.18146 0.3178 0.9771 0.0
H828 H 0.21087 0.35248 0.05005 0.0
C829 C 0.18187 0.40337 0.96317 0.0
C830 C 0.18317 0.4143 0.99992 0.0
C831 C 0.18233 0.38272 0.96437 0.0
C832 C 0.20225 0.34298 0.03001 0.0
H833 H 0.21035 0.25101 0.93642 0.0
H834 H 0.19905 0.28533 0.93664 0.0
H835 H 0.21825 0.31741 0.05006 0.0
H836 H 0.18494 0.41201 0.06687 0.0
H837 H 0.18532 0.37604 0.06897 0.0
H838 H 0.16582 0.34371 0.9564 0.0
C839 C 0.20249 0.27814 0.96591 0.0
C840 C 0.2065 0.32283 0.02998 0.0
C841 C 0.20906 0.25851 0.96574 0.0
C842 C 0.18379 0.40409 0.03799 0.0
C843 C 0.18425 0.38346 0.03918 0.0
C844 C 0.17725 0.33807 0.97703 0.0
C845 C 0.20129 0.28858 0.00327 0.0
C846 C 0.19619 0.30996 0.00354 0.0
C847 C 0.18414 0.37256 0.00235 0.0
C848 C 0.18763 0.35088 0.00349 0.0
H849 H 0.21662 0.25223 0.06958 0.0
H850 H 0.20484 0.28612 0.06993 0.0
H851 H 0.17312 0.30828 0.95663 0.0
H852 H 0.18111 0.41081 0.93336 0.0
H853 H 0.18226 0.37477 0.93544 0.0
C854 C 0.20217 0.74323 0.53437 0.0
C855 C 0.20603 0.72841 0.50536 0.0
C856 C 0.18404 0.75303 0.53412 0.0
C857 C 0.13226 0.74887 0.50587 0.0
H858 H 0.13328 0.80615 0.50213 0.0
C859 C 0.06074 0.79525 0.49032 0.0
C860 C 0.0601 0.81334 0.51113 0.0
C861 C 0.07835 0.7845 0.4886 0.0
C862 C 0.13268 0.79018 0.50386 0.0
H863 H 0.1937 0.71181 0.45414 0.0
H864 H 0.16166 0.72876 0.45444 0.0
H865 H 0.16421 0.78777 0.5018 0.0
H866 H 0.07705 0.83419 0.54742 0.0
H867 H 0.1076 0.81516 0.54591 0.0
H868 H 0.10081 0.75116 0.50944 0.0
C869 C 0.17285 0.73284 0.477 0.0
C870 C 0.15041 0.77968 0.50339 0.0
C871 C 0.19116 0.72323 0.47675 0.0
C872 C 0.07726 0.82037 0.53075 0.0
C873 C 0.09477 0.8095 0.52962 0.0
C874 C 0.11449 0.75938 0.50703 0.0
C875 C 0.16927 0.748 0.50533 0.0
C876 C 0.15037 0.75895 0.50455 0.0
C877 C 0.09562 0.7915 0.5082 0.0
C878 C 0.11447 0.78019 0.50622 0.0
H879 H 0.21331 0.74761 0.55677 0.0
H880 H 0.18154 0.76457 0.5565 0.0
H881 H 0.1319 0.73287 0.50709 0.0
H882 H 0.04772 0.78963 0.4746 0.0
H883 H 0.07847 0.7709 0.47125 0.0
C884 C 0.79737 0.73362 0.96547 0.0
C885 C 0.79249 0.74243 0.00327 0.0
C886 C 0.80329 0.71382 0.96427 0.0
C887 C 0.79996 0.66742 0.02555 0.0
H888 H 0.8393 0.64879 0.94872 0.0
C889 C 0.81317 0.58428 0.00027 0.0
C890 C 0.8328 0.57789 0.99575 0.0
C891 C 0.8086 0.60443 0.00013 0.0
C892 C 0.8284 0.65376 0.97063 0.0
H893 H 0.79097 0.7376 0.06965 0.0
H894 H 0.80171 0.70333 0.06763 0.0
H895 H 0.83179 0.68398 0.95174 0.0
H896 H 0.86296 0.58781 0.9866 0.0
H897 H 0.85509 0.62289 0.98772 0.0
H898 H 0.79695 0.63736 0.04531 0.0
C899 C 0.80043 0.7115 0.03876 0.0
C900 C 0.82392 0.67393 0.972 0.0
C901 C 0.79439 0.73121 0.03993 0.0
C902 C 0.84772 0.59218 0.99075 0.0
C903 C 0.84316 0.61233 0.99081 0.0
C904 C 0.8045 0.64731 0.02431 0.0
C905 C 0.8046 0.70243 0.00085 0.0
C906 C 0.80964 0.68102 0.9995 0.0
C907 C 0.82355 0.61872 0.99568 0.0
C908 C 0.81875 0.64019 0.99679 0.0
H909 H 0.79604 0.74183 0.93664 0.0
H910 H 0.80622 0.7073 0.93448 0.0
H911 H 0.78867 0.67227 0.04669 0.0
H912 H 0.80131 0.57373 0.00461 0.0
H913 H 0.7933 0.60878 0.00337 0.0
C914 C 0.79007 0.28202 0.45617 0.0
C915 C 0.77932 0.2823 0.49318 0.0
C916 C 0.80902 0.27377 0.45529 0.0
C917 C 0.8427 0.24033 0.5147 0.0
H918 H 0.8835 0.26641 0.45085 0.0
C919 C 0.92622 0.22575 0.53837 0.0
C920 C 0.93812 0.22504 0.503 0.0
C921 C 0.90621 0.23069 0.53493 0.0
C922 C 0.8722 0.25879 0.46837 0.0
H923 H 0.78021 0.27439 0.55844 0.0
H924 H 0.81331 0.26048 0.55708 0.0
H925 H 0.84994 0.27945 0.44922 0.0
H926 H 0.93829 0.22852 0.43623 0.0
H927 H 0.90329 0.23708 0.43023 0.0
H928 H 0.86519 0.21999 0.53469 0.0
C929 C 0.80696 0.26617 0.52847 0.0
C930 C 0.85294 0.26625 0.46742 0.0
C931 C 0.78801 0.27429 0.5293 0.0
C932 C 0.92945 0.22879 0.464 0.0
C933 C 0.90948 0.23389 0.4606 0.0
C934 C 0.86199 0.23295 0.51586 0.0
C935 C 0.8177 0.26574 0.49145 0.0
C936 C 0.83798 0.25723 0.49088 0.0
C937 C 0.89773 0.23518 0.49609 0.0
C938 C 0.87698 0.2422 0.49297 0.0
H939 H 0.78379 0.288 0.42775 0.0
H940 H 0.81676 0.27349 0.42613 0.0
H941 H 0.83147 0.23276 0.53251 0.0
H942 H 0.93247 0.22279 0.56879 0.0
H943 H 0.89756 0.23169 0.56287 0.0
C944 C 0.6978 0.24157 0.54013 0.0
C945 C 0.70237 0.25143 0.50293 0.0
C946 C 0.6919 0.22173 0.53983 0.0
C947 C 0.69674 0.17754 0.47492 0.0
H948 H 0.65925 0.15434 0.55131 0.0
C949 C 0.6799 0.09469 0.47069 0.0
C950 C 0.68071 0.08481 0.50914 0.0
C951 C 0.67882 0.11529 0.4687 0.0
C952 C 0.66979 0.16062 0.52987 0.0
H953 H 0.70298 0.24863 0.43612 0.0
H954 H 0.69233 0.21433 0.43557 0.0
H955 H 0.66426 0.19015 0.55026 0.0
H956 H 0.67956 0.0888 0.5756 0.0
H957 H 0.67807 0.12479 0.57212 0.0
H958 H 0.7026 0.14815 0.45499 0.0
C959 C 0.69387 0.22166 0.46508 0.0
C960 C 0.67269 0.18112 0.52931 0.0
C961 C 0.6999 0.24137 0.46539 0.0
C962 C 0.67926 0.09597 0.54549 0.0
C963 C 0.6782 0.1166 0.5435 0.0
C964 C 0.69382 0.15714 0.47541 0.0
C965 C 0.69031 0.21142 0.50232 0.0
C966 C 0.6863 0.1898 0.50197 0.0
C967 C 0.67856 0.12651 0.50509 0.0
C968 C 0.68042 0.14839 0.50303 0.0
H969 H 0.69954 0.24892 0.56958 0.0
H970 H 0.6894 0.21427 0.56911 0.0
H971 H 0.70767 0.18362 0.45411 0.0
H972 H 0.68111 0.0866 0.44207 0.0
H973 H 0.6788 0.12247 0.43859 0.0
C974 C 0.30145 0.22081 0.04947 0.0
C975 C 0.29144 0.21666 0.01225 0.0
C976 C 0.31972 0.23056 0.04894 0.0
C977 C 0.34928 0.2632 0.98075 0.0
H978 H 0.39099 0.25304 0.06122 0.0
C979 C 0.41565 0.31563 0.9972 0.0
C980 C 0.43442 0.30735 0.00472 0.0
C981 C 0.39866 0.30395 0.99897 0.0
C982 C 0.37957 0.25594 0.03825 0.0
H983 H 0.29326 0.21832 0.94533 0.0
H984 H 0.32522 0.23469 0.94437 0.0
H985 H 0.36116 0.23278 0.06196 0.0
H986 H 0.44991 0.2802 0.02057 0.0
H987 H 0.42032 0.25967 0.02218 0.0
H988 H 0.36779 0.28592 0.95622 0.0
C989 C 0.31875 0.2311 0.97403 0.0
C990 C 0.36235 0.24447 0.03901 0.0
C991 C 0.30046 0.2216 0.97457 0.0
C992 C 0.43574 0.28704 0.01408 0.0
C993 C 0.41872 0.27531 0.01558 0.0
C994 C 0.36649 0.27454 0.97983 0.0
C995 C 0.32841 0.23616 0.01118 0.0
C996 C 0.34697 0.24798 0.01028 0.0
C997 C 0.39997 0.28361 0.00793 0.0
C998 C 0.38182 0.27116 0.00869 0.0
H999 H 0.29486 0.21721 0.07901 0.0
H1000 H 0.32665 0.23433 0.07816 0.0
H1001 H 0.33765 0.26658 0.95855 0.0
H1002 H 0.41405 0.33115 0.98941 0.0
H1003 H 0.38447 0.31094 0.99352 0.0
C1004 C 0.28919 0.76663 0.54767 0.0
C1005 C 0.28244 0.75841 0.51033 0.0
C1006 C 0.29598 0.78615 0.5488 0.0
C1007 C 0.293 0.83323 0.48915 0.0
H1008 H 0.33609 0.84892 0.56158 0.0
C1009 C 0.31256 0.91522 0.5134 0.0
C1010 C 0.33267 0.92032 0.51653 0.0
C1011 C 0.30669 0.89542 0.51369 0.0
C1012 C 0.32415 0.84477 0.54087 0.0
H1013 H 0.27835 0.76397 0.44458 0.0
H1014 H 0.29066 0.79771 0.4463 0.0
H1015 H 0.32628 0.81432 0.55884 0.0
H1016 H 0.36233 0.90841 0.52319 0.0
H1017 H 0.35216 0.87394 0.52208 0.0
H1018 H 0.29128 0.86349 0.47006 0.0
C1019 C 0.29016 0.78934 0.47501 0.0
C1020 C 0.31834 0.82494 0.53971 0.0
C1021 C 0.28321 0.76993 0.47397 0.0
C1022 C 0.34674 0.90507 0.52012 0.0
C1023 C 0.34087 0.88526 0.5201 0.0
C1024 C 0.29889 0.853 0.49008 0.0
C1025 C 0.29635 0.79784 0.51253 0.0
C1026 C 0.30269 0.81891 0.51381 0.0
C1027 C 0.32077 0.88017 0.51679 0.0
C1028 C 0.31452 0.85906 0.51599 0.0
H1029 H 0.28876 0.75816 0.57627 0.0
H1030 H 0.30044 0.79223 0.57832 0.0
H1031 H 0.28068 0.82923 0.46929 0.0
H1032 H 0.30131 0.92652 0.51012 0.0
H1033 H 0.29105 0.8921 0.51168 0.0
C1034 C 0.70563 0.77257 0.05414 0.0
C1035 C 0.71621 0.77262 0.01691 0.0
C1036 C 0.68674 0.76427 0.05598 0.0
C1037 C 0.65275 0.73046 0.00011 0.0
H1038 H 0.61214 0.75844 0.05985 0.0
C1039 C 0.5692 0.71838 0.97403 0.0
C1040 C 0.55674 0.7191 0.00851 0.0
C1041 C 0.58938 0.72226 0.97832 0.0
C1042 C 0.62338 0.75026 0.04361 0.0
H1043 H 0.71516 0.76409 0.95235 0.0
H1044 H 0.68212 0.75003 0.95536 0.0
H1045 H 0.64594 0.77079 0.06092 0.0
H1046 H 0.55572 0.72377 0.07474 0.0
H1047 H 0.59106 0.73043 0.08229 0.0
H1048 H 0.62997 0.71026 0.98186 0.0
C1049 C 0.68857 0.756 0.98339 0.0
C1050 C 0.64277 0.75734 0.04421 0.0
C1051 C 0.70748 0.76421 0.98158 0.0
C1052 C 0.56499 0.72299 0.04766 0.0
C1053 C 0.58516 0.72699 0.05192 0.0
C1054 C 0.63333 0.72344 0.99936 0.0
C1055 C 0.67797 0.75593 0.02059 0.0
C1056 C 0.65764 0.74767 0.02204 0.0
C1057 C 0.59749 0.72704 0.01715 0.0
C1058 C 0.61841 0.7334 0.02071 0.0
H1059 H 0.71196 0.77884 0.08201 0.0
H1060 H 0.67906 0.76427 0.08524 0.0
H1061 H 0.66393 0.72245 0.98334 0.0
H1062 H 0.56326 0.71523 0.94354 0.0
H1063 H 0.59847 0.72231 0.95091 0.0
loop_
_geom_bond_atom_site_label_1
_geom_bond_atom_site_label_2
_geom_bond_distance
_geom_bond_site_symmetry_2
_ccdc_geom_bond_type
Fe0 O2 1.918 . S
Fe0 O5 1.997 . S
Fe0 O6 2.002 . S
Fe0 O11 1.976 . S
Fe0 O14 1.996 . S
Fe1 O2 1.918 1_556 S
Fe1 O9 1.997 . S
Fe1 O12 1.996 . S
Fe1 O16 1.976 . S
Fe1 O19 2.002 . S
O2 Fe0 1.918 . S
O2 Fe1 1.918 1_554 S
O2 Fe3 1.918 . S
Fe3 O2 1.918 . S
Fe3 O4 2.002 . S
Fe3 O13 1.976 . S
Fe3 O17 1.996 1_554 S
Fe3 O20 1.997 1_554 S
O4 Fe3 2.002 . S
O4 C21 1.295 . S
O5 Fe0 1.997 . S
O5 C21 1.235 . S
O6 Fe0 2.002 . S
O6 C7 1.295 . S
C7 O6 1.295 . S
C7 O9 1.235 1_554 S
C8 O13 1.287 . S
C8 O14 1.255 . S
O9 Fe1 1.997 . S
O9 C7 1.235 1_556 S
C10 O16 1.287 . S
C10 O17 1.255 . S
O11 Fe0 1.976 . S
O11 C18 1.287 . S
O12 Fe1 1.996 . S
O12 C18 1.255 1_556 S
O13 Fe3 1.976 . S
O13 C8 1.287 . S
O14 Fe0 1.996 . S
O14 C8 1.255 . S
C15 O19 1.295 . S
C15 O20 1.235 . S
O16 Fe1 1.976 . S
O16 C10 1.287 . S
O17 Fe3 1.996 1_556 S
O17 C10 1.255 . S
C18 O11 1.287 . S
C18 O12 1.255 1_554 S
O19 Fe1 2.002 . S
O19 C15 1.295 . S
O20 Fe3 1.997 1_556 S
O20 C15 1.235 . S
C21 O4 1.295 . S
C21 O5 1.235 . S
Fe22 O24 1.918 . S
Fe22 O27 1.997 . S
Fe22 O28 2.002 . S
Fe22 O33 1.976 . S
Fe22 O36 1.996 . S
Fe23 O24 1.918 . S
Fe23 O31 1.997 . S
Fe23 O34 1.996 . S
Fe23 O38 1.976 . S
Fe23 O41 2.002 . S
O24 Fe22 1.918 . S
O24 Fe23 1.918 . S
O24 Fe25 1.918 . S
Fe25 O24 1.918 . S
Fe25 O26 2.002 . S
Fe25 O35 1.976 . S
Fe25 O39 1.996 . S
Fe25 O42 1.997 . S
O26 Fe25 2.002 . S
O26 C43 1.295 . S
O27 Fe22 1.997 . S
O27 C43 1.235 . S
O28 Fe22 2.002 . S
O28 C29 1.295 . S
C29 O28 1.295 . S
C29 O31 1.235 . S
C30 O35 1.287 . S
C30 O36 1.255 . S
O31 Fe23 1.997 . S
O31 C29 1.235 . S
C32 O38 1.287 . S
C32 O39 1.255 . S
O33 Fe22 1.976 . S
O33 C40 1.287 . S
O34 Fe23 1.996 . S
O34 C40 1.255 . S
O35 Fe25 1.976 . S
O35 C30 1.287 . S
O36 Fe22 1.996 . S
O36 C30 1.255 . S
C37 O41 1.295 . S
C37 O42 1.235 . S
O38 Fe23 1.976 . S
O38 C32 1.287 . S
O39 Fe25 1.996 . S
O39 C32 1.255 . S
C40 O33 1.287 . S
C40 O34 1.255 . S
O41 Fe23 2.002 . S
O41 C37 1.295 . S
O42 Fe25 1.997 . S
O42 C37 1.235 . S
C43 O26 1.295 . S
C43 O27 1.235 . S
Fe44 O46 1.918 1_556 S
Fe44 O49 1.997 . S
Fe44 O50 2.002 . S
Fe44 O55 1.976 . S
Fe44 O58 1.996 . S
Fe45 O46 1.918 . S
Fe45 O53 1.997 . S
Fe45 O56 1.996 . S
Fe45 O60 1.976 . S
Fe45 O63 2.002 . S
O46 Fe44 1.918 1_554 S
O46 Fe45 1.918 . S
O46 Fe47 1.918 . S
Fe47 O46 1.918 . S
Fe47 O48 2.002 1_554 S
Fe47 O57 1.976 1_554 S
Fe47 O61 1.996 . S
Fe47 O64 1.997 . S
O48 Fe47 2.002 1_556 S
O48 C65 1.295 . S
O49 Fe44 1.997 . S
O49 C65 1.235 . S
O50 Fe44 2.002 . S
O50 C51 1.295 1_556 S
C51 O50 1.295 1_554 S
C51 O53 1.235 . S
C52 O57 1.287 . S
C52 O58 1.255 . S
O53 Fe45 1.997 . S
O53 C51 1.235 . S
C54 O60 1.287 . S
C54 O61 1.255 . S
O55 Fe44 1.976 . S
O55 C62 1.287 1_556 S
O56 Fe45 1.996 . S
O56 C62 1.255 . S
O57 Fe47 1.976 1_556 S
O57 C52 1.287 . S
O58 Fe44 1.996 . S
O58 C52 1.255 . S
C59 O63 1.295 . S
C59 O64 1.235 . S
O60 Fe45 1.976 . S
O60 C54 1.287 . S
O61 Fe47 1.996 . S
O61 C54 1.255 . S
C62 O55 1.287 1_554 S
C62 O56 1.255 . S
O63 Fe45 2.002 . S
O63 C59 1.295 . S
O64 Fe47 1.997 . S
O64 C59 1.235 . S
C65 O48 1.295 . S
C65 O49 1.235 . S
Fe66 O68 1.918 . S
Fe66 O71 1.997 . S
Fe66 O72 2.002 . S
Fe66 O77 1.976 . S
Fe66 O80 1.996 . S
Fe67 O68 1.918 . S
Fe67 O75 1.997 . S
Fe67 O78 1.996 . S
Fe67 O82 1.976 . S
Fe67 O85 2.002 . S
O68 Fe66 1.918 . S
O68 Fe67 1.918 . S
O68 Fe69 1.918 . S
Fe69 O68 1.918 . S
Fe69 O70 2.002 . S
Fe69 O79 1.976 . S
Fe69 O83 1.996 . S
Fe69 O86 1.997 . S
O70 Fe69 2.002 . S
O70 C87 1.295 . S
O71 Fe66 1.997 . S
O71 C87 1.235 . S
O72 Fe66 2.002 . S
O72 C73 1.295 . S
C73 O72 1.295 . S
C73 O75 1.235 . S
C74 O79 1.287 . S
C74 O80 1.255 . S
O75 Fe67 1.997 . S
O75 C73 1.235 . S
C76 O82 1.287 . S
C76 O83 1.255 . S
O77 Fe66 1.976 . S
O77 C84 1.287 . S
O78 Fe67 1.996 . S
O78 C84 1.255 . S
O79 Fe69 1.976 . S
O79 C74 1.287 . S
O80 Fe66 1.996 . S
O80 C74 1.255 . S
C81 O85 1.295 . S
C81 O86 1.235 . S
O82 Fe67 1.976 . S
O82 C76 1.287 . S
O83 Fe69 1.996 . S
O83 C76 1.255 . S
C84 O77 1.287 . S
C84 O78 1.255 . S
O85 Fe67 2.002 . S
O85 C81 1.295 . S
O86 Fe69 1.997 . S
O86 C81 1.235 . S
C87 O70 1.295 . S
C87 O71 1.235 . S
P88 O99 1.490 . S
P88 C102 1.812 . S
P88 C108 1.803 . S
P88 C114 1.819 1_554 S
H89 C103 0.941 . S
H90 C104 0.939 . S
H91 C106 0.940 . S
H92 C107 0.940 . S
H93 C109 0.939 . S
H94 C110 0.942 . S
H95 C112 0.940 . S
H96 C113 0.939 . S
H97 C115 0.941 . S
H98 C119 0.939 . S
O99 P88 1.490 . S
H100 C116 0.939 . S
H101 C118 0.940 . S
C102 P88 1.812 . S
C102 C103 1.389 . S
C102 C107 1.391 . S
C103 H89 0.941 . S
C103 C102 1.389 . S
C103 C104 1.397 . S
C104 H90 0.939 . S
C104 C103 1.397 . S
C104 C105 1.378 . S
C105 C104 1.378 . S
C105 C106 1.378 . S
C106 H91 0.940 . S
C106 C105 1.378 . S
C106 C107 1.396 . S
C107 H92 0.940 . S
C107 C102 1.391 . S
C107 C106 1.396 . S
C108 P88 1.803 . S
C108 C109 1.378 1_554 S
C108 C113 1.400 . S
C109 H93 0.939 . S
C109 C108 1.378 1_556 S
C109 C110 1.361 . S
C110 H94 0.942 . S
C110 C109 1.361 . S
C110 C111 1.369 1_556 S
C111 C110 1.369 1_554 S
C111 C112 1.404 . S
C112 H95 0.940 . S
C112 C111 1.404 . S
C112 C113 1.389 . S
C113 H96 0.939 . S
C113 C108 1.400 . S
C113 C112 1.389 . S
C114 P88 1.819 1_556 S
C114 C115 1.391 . S
C114 C119 1.391 . S
C115 H97 0.941 . S
C115 C114 1.391 . S
C115 C116 1.396 . S
C116 H100 0.939 . S
C116 C115 1.396 . S
C116 C117 1.397 . S
C117 C116 1.397 . S
C117 C118 1.385 . S
C118 H101 0.940 . S
C118 C117 1.385 . S
C118 C119 1.388 . S
C119 H98 0.939 . S
C119 C114 1.391 . S
C119 C118 1.388 . S
P120 O131 1.490 . S
P120 C134 1.812 . S
P120 C140 1.803 1_655 S
P120 C146 1.819 . S
H121 C135 0.941 . S
H122 C136 0.939 . S
H123 C138 0.940 . S
H124 C139 0.940 . S
H125 C141 0.939 . S
H126 C142 0.942 . S
H127 C144 0.940 . S
H128 C145 0.927 1_655 S
H129 C147 0.941 . S
H130 C151 0.939 . S
O131 P120 1.490 . S
H132 C148 0.939 . S
H133 C150 0.940 . S
C134 P120 1.812 . S
C134 C135 1.389 . S
C134 C139 1.391 . S
C135 H121 0.941 . S
C135 C134 1.389 . S
C135 C136 1.397 . S
C136 H122 0.939 . S
C136 C135 1.397 . S
C136 C137 1.378 . S
C137 C136 1.378 . S
C137 C138 1.378 . S
C138 H123 0.940 . S
C138 C137 1.378 . S
C138 C139 1.396 . S
C139 H124 0.940 . S
C139 C134 1.391 . S
C139 C138 1.396 . S
C140 P120 1.803 1_455 S
C140 C141 1.378 . S
C140 C145 1.400 . S
C141 H125 0.939 . S
C141 C140 1.378 . S
C141 C142 1.361 . S
C142 H126 0.942 . S
C142 C141 1.361 . S
C142 C143 1.369 . S
C143 C142 1.369 . S
C143 C144 1.404 . S
C144 H127 0.940 . S
C144 C143 1.404 . S
C144 C145 1.389 . S
C145 H128 0.927 1_455 S
C145 C140 1.400 . S
C145 C144 1.389 . S
C146 P120 1.819 . S
C146 C147 1.391 . S
C146 C151 1.391 . S
C147 H129 0.941 . S
C147 C146 1.391 . S
C147 C148 1.396 . S
C148 H132 0.939 . S
C148 C147 1.396 . S
C148 C149 1.397 . S
C149 C148 1.397 . S
C149 C150 1.385 . S
C150 H133 0.940 . S
C150 C149 1.385 . S
C150 C151 1.388 . S
C151 H130 0.939 . S
C151 C146 1.391 . S
C151 C150 1.388 . S
P152 O163 1.490 . S
P152 C166 1.812 1_554 S
P152 C172 1.803 . S
P152 C178 1.819 . S
H153 C167 0.941 . S
H154 C168 0.939 . S
H155 C170 0.940 . S
H156 C171 0.940 . S
H157 C173 0.939 . S
H158 C174 0.942 . S
H159 C176 0.940 . S
H160 C177 0.939 . S
H161 C179 0.941 . S
H162 C183 0.939 . S
O163 P152 1.490 . S
H164 C180 0.939 . S
H165 C182 0.940 . S
C166 P152 1.812 1_556 S
C166 C167 1.389 . S
C166 C171 1.391 . S
C167 H153 0.941 . S
C167 C166 1.389 . S
C167 C168 1.397 . S
C168 H154 0.939 . S
C168 C167 1.397 . S
C168 C169 1.378 . S
C169 C168 1.378 . S
C169 C170 1.378 . S
C170 H155 0.940 . S
C170 C169 1.378 . S
C170 C171 1.396 . S
C171 H156 0.940 . S
C171 C166 1.391 . S
C171 C170 1.396 . S
C172 P152 1.803 . S
C172 C173 1.378 . S
C172 C177 1.400 1_554 S
C173 H157 0.939 . S
C173 C172 1.378 . S
C173 C174 1.361 . S
C174 H158 0.942 . S
C174 C173 1.361 . S
C174 C175 1.369 . S
C175 C174 1.369 . S
C175 C176 1.404 1_554 S
C176 H159 0.940 . S
C176 C175 1.404 1_556 S
C176 C177 1.389 . S
C177 H160 0.939 . S
C177 C172 1.400 1_556 S
C177 C176 1.389 . S
C178 P152 1.819 . S
C178 C179 1.391 . S
C178 C183 1.391 . S
C179 H161 0.941 . S
C179 C178 1.391 . S
C179 C180 1.396 . S
C180 H164 0.939 . S
C180 C179 1.396 . S
C180 C181 1.397 . S
C181 C180 1.397 . S
C181 C182 1.385 . S
C182 H165 0.940 . S
C182 C181 1.385 . S
C182 C183 1.388 . S
C183 H162 0.939 . S
C183 C178 1.391 . S
C183 C182 1.388 . S
P184 O195 1.490 . S
P184 C198 1.812 . S
P184 C204 1.803 1_455 S
P184 C210 1.819 . S
H185 C199 0.941 . S
H186 C200 0.939 . S
H187 C202 0.940 . S
H188 C203 0.940 . S
H189 C205 0.939 . S
H190 C206 0.942 . S
H191 C208 0.940 . S
H192 C209 0.939 . S
H193 C211 0.941 . S
H194 C215 0.939 . S
O195 P184 1.490 . S
H196 C212 0.939 . S
H197 C214 0.940 . S
C198 P184 1.812 . S
C198 C199 1.389 . S
C198 C203 1.391 . S
C199 H185 0.941 . S
C199 C198 1.389 . S
C199 C200 1.397 . S
C200 H186 0.939 . S
C200 C199 1.397 . S
C200 C201 1.378 . S
C201 C200 1.378 . S
C201 C202 1.378 . S
C202 H187 0.940 . S
C202 C201 1.378 . S
C202 C203 1.396 . S
C203 H188 0.940 . S
C203 C198 1.391 . S
C203 C202 1.396 . S
C204 P184 1.803 1_655 S
C204 C205 1.378 . S
C204 C209 1.400 . S
C205 H189 0.939 . S
C205 C204 1.378 . S
C205 C206 1.361 . S
C206 H190 0.942 . S
C206 C205 1.361 . S
C206 C207 1.369 . S
C207 C206 1.369 . S
C207 C208 1.404 . S
C208 H191 0.940 . S
C208 C207 1.404 . S
C208 C209 1.389 . S
C209 H192 0.939 . S
C209 C204 1.400 . S
C209 C208 1.389 . S
C210 P184 1.819 . S
C210 C211 1.391 . S
C210 C215 1.391 . S
C211 H193 0.941 . S
C211 C210 1.391 . S
C211 C212 1.396 . S
C212 H196 0.939 . S
C212 C211 1.396 . S
C212 C213 1.397 . S
C213 C212 1.397 . S
C213 C214 1.385 . S
C214 H197 0.940 . S
C214 C213 1.385 . S
C214 C215 1.388 . S
C215 H194 0.939 . S
C215 C210 1.391 . S
C215 C214 1.388 . S
P216 O227 1.490 . S
P216 C230 1.812 . S
P216 C236 1.803 1_565 S
P216 C242 1.819 . S
H217 C231 0.941 . S
H218 C232 0.939 . S
H219 C234 0.940 . S
H220 C235 0.940 . S
H221 C237 0.939 . S
H222 C238 0.942 . S
H223 C240 0.940 . S
H224 C241 0.939 . S
H225 C243 0.941 . S
H226 C247 0.939 1_545 S
O227 P216 1.490 . S
H228 C244 0.939 . S
H229 C246 0.940 . S
C230 P216 1.812 . S
C230 C231 1.389 . S
C230 C235 1.391 . S
C231 H217 0.941 . S
C231 C230 1.389 . S
C231 C232 1.397 . S
C232 H218 0.939 . S
C232 C231 1.397 . S
C232 C233 1.378 . S
C233 C232 1.378 . S
C233 C234 1.378 . S
C234 H219 0.940 . S
C234 C233 1.378 . S
C234 C235 1.396 . S
C235 H220 0.940 . S
C235 C230 1.391 . S
C235 C234 1.396 . S
C236 P216 1.803 1_545 S
C236 C237 1.378 . S
C236 C241 1.400 . S
C237 H221 0.939 . S
C237 C236 1.378 . S
C237 C238 1.361 . S
C238 H222 0.942 . S
C238 C237 1.361 . S
C238 C239 1.369 . S
C239 C238 1.369 . S
C239 C240 1.404 . S
C240 H223 0.940 . S
C240 C239 1.404 . S
C240 C241 1.389 . S
C241 H224 0.939 . S
C241 C236 1.400 . S
C241 C240 1.389 . S
C242 P216 1.819 . S
C242 C243 1.391 . S
C242 C247 1.391 . S
C243 H225 0.941 . S
C243 C242 1.391 . S
C243 C244 1.396 . S
C244 H228 0.939 . S
C244 C243 1.396 . S
C244 C245 1.397 . S
C245 C244 1.397 . S
C245 C246 1.385 . S
C246 H229 0.940 . S
C246 C245 1.385 . S
C246 C247 1.388 . S
C247 H226 0.939 1_565 S
C247 C242 1.391 . S
C247 C246 1.388 . S
P248 O259 1.490 . S
P248 C262 1.812 . S
P248 C268 1.803 . S
P248 C274 1.819 1_556 S
H249 C263 0.941 . S
H250 C264 0.939 . S
H251 C266 0.940 . S
H252 C267 0.940 . S
H253 C269 0.939 . S
H254 C270 0.942 . S
H255 C272 0.940 . S
H256 C273 0.939 . S
H257 C275 0.941 . S
H258 C279 0.939 . S
O259 P248 1.490 . S
H260 C276 0.939 . S
H261 C278 0.940 . S
C262 P248 1.812 . S
C262 C263 1.389 . S
C262 C267 1.391 . S
C263 H249 0.941 . S
C263 C262 1.389 . S
C263 C264 1.397 . S
C264 H250 0.939 . S
C264 C263 1.397 . S
C264 C265 1.378 . S
C265 C264 1.378 . S
C265 C266 1.378 . S
C266 H251 0.940 . S
C266 C265 1.378 . S
C266 C267 1.396 . S
C267 H252 0.940 . S
C267 C262 1.391 . S
C267 C266 1.396 . S
C268 P248 1.803 . S
C268 C269 1.378 1_556 S
C268 C273 1.400 . S
C269 H253 0.939 . S
C269 C268 1.378 1_554 S
C269 C270 1.361 . S
C270 H254 0.942 . S
C270 C269 1.361 . S
C270 C271 1.369 . S
C271 C270 1.369 . S
C271 C272 1.404 1_554 S
C272 H255 0.940 . S
C272 C271 1.404 1_556 S
C272 C273 1.389 . S
C273 H256 0.939 . S
C273 C268 1.400 . S
C273 C272 1.389 . S
C274 P248 1.819 1_554 S
C274 C275 1.391 . S
C274 C279 1.391 . S
C275 H257 0.941 . S
C275 C274 1.391 . S
C275 C276 1.396 . S
C276 H260 0.939 . S
C276 C275 1.396 . S
C276 C277 1.397 . S
C277 C276 1.397 . S
C277 C278 1.385 . S
C278 H261 0.940 . S
C278 C277 1.385 . S
C278 C279 1.388 . S
C279 H258 0.939 . S
C279 C274 1.391 . S
C279 C278 1.388 . S
P280 O291 1.490 . S
P280 C294 1.812 . S
P280 C300 1.803 1_545 S
P280 C306 1.819 . S
H281 C295 0.941 . S
H282 C296 0.939 . S
H283 C298 0.940 . S
H284 C299 0.940 . S
H285 C301 0.939 . S
H286 C302 0.942 . S
H287 C304 0.940 . S
H288 C305 0.939 . S
H289 C307 0.941 . S
H290 C311 0.939 . S
O291 P280 1.490 . S
H292 C308 0.939 . S
H293 C310 0.940 . S
C294 P280 1.812 . S
C294 C295 1.389 . S
C294 C299 1.391 . S
C295 H281 0.941 . S
C295 C294 1.389 . S
C295 C296 1.397 . S
C296 H282 0.939 . S
C296 C295 1.397 . S
C296 C297 1.378 . S
C297 C296 1.378 . S
C297 C298 1.378 . S
C298 H283 0.940 . S
C298 C297 1.378 . S
C298 C299 1.396 . S
C299 H284 0.940 . S
C299 C294 1.391 . S
C299 C298 1.396 . S
C300 P280 1.803 1_565 S
C300 C301 1.378 . S
C300 C305 1.400 . S
C301 H285 0.939 . S
C301 C300 1.378 . S
C301 C302 1.361 . S
C302 H286 0.942 . S
C302 C301 1.361 . S
C302 C303 1.369 . S
C303 C302 1.369 . S
C303 C304 1.404 . S
C304 H287 0.940 . S
C304 C303 1.404 . S
C304 C305 1.389 . S
C305 H288 0.939 . S
C305 C300 1.400 . S
C305 C304 1.389 . S
C306 P280 1.819 . S
C306 C307 1.391 . S
C306 C311 1.391 . S
C307 H289 0.941 . S
C307 C306 1.391 . S
C307 C308 1.396 . S
C308 H292 0.939 . S
C308 C307 1.396 . S
C308 C309 1.397 . S
C309 C308 1.397 . S
C309 C310 1.385 . S
C310 H293 0.940 . S
C310 C309 1.385 . S
C310 C311 1.388 . S
C311 H290 0.939 . S
C311 C306 1.391 . S
C311 C310 1.388 . S
P312 O323 1.490 . S
P312 C326 1.812 . S
P312 C332 1.803 . S
P312 C338 1.819 1_554 S
H313 C327 0.941 . S
H314 C328 0.939 . S
H315 C330 0.940 . S
H316 C331 0.940 . S
H317 C333 0.939 . S
H318 C334 0.942 . S
H319 C336 0.940 . S
H320 C337 0.939 . S
H321 C339 0.941 . S
H322 C343 0.939 . S
O323 P312 1.490 . S
H324 C340 0.939 . S
H325 C342 0.940 . S
C326 P312 1.812 . S
C326 C327 1.389 . S
C326 C331 1.391 . S
C327 H313 0.941 . S
C327 C326 1.389 . S
C327 C328 1.397 . S
C328 H314 0.939 . S
C328 C327 1.397 . S
C328 C329 1.378 . S
C329 C328 1.378 . S
C329 C330 1.378 . S
C330 H315 0.940 . S
C330 C329 1.378 . S
C330 C331 1.396 . S
C331 H316 0.940 . S
C331 C326 1.391 . S
C331 C330 1.396 . S
C332 P312 1.803 . S
C332 C333 1.378 1_554 S
C332 C337 1.400 . S
C333 H317 0.939 . S
C333 C332 1.378 1_556 S
C333 C334 1.361 . S
C334 H318 0.942 . S
C334 C333 1.361 . S
C334 C335 1.369 1_556 S
C335 C334 1.369 1_554 S
C335 C336 1.404 . S
C336 H319 0.940 . S
C336 C335 1.404 . S
C336 C337 1.389 . S
C337 H320 0.939 . S
C337 C332 1.400 . S
C337 C336 1.389 . S
C338 P312 1.819 1_556 S
C338 C339 1.391 . S
C338 C343 1.391 . S
C339 H321 0.941 . S
C339 C338 1.391 . S
C339 C340 1.396 . S
C340 H324 0.939 . S
C340 C339 1.396 . S
C340 C341 1.397 . S
C341 C340 1.397 . S
C341 C342 1.385 . S
C342 H325 0.940 . S
C342 C341 1.385 . S
C342 C343 1.388 . S
C343 H322 0.939 . S
C343 C338 1.391 . S
C343 C342 1.388 . S
C344 C345 1.349 . S
C344 C346 1.327 . S
C344 H369 0.950 . S
C345 C344 1.349 . S
C345 C361 1.349 . S
C346 C344 1.327 . S
C346 C365 1.429 . S
C346 H370 0.950 . S
C347 C364 1.574 . S
C347 C366 1.368 . S
C347 H371 0.949 . S
H348 C352 0.949 . S
C349 C350 1.349 . S
C349 C351 1.327 . S
C349 H372 0.950 . S
C350 C349 1.349 . S
C350 C362 1.349 . S
C351 C349 1.327 . S
C351 C367 1.429 . S
C351 H373 0.950 . S
C352 H348 0.949 . S
C352 C360 1.574 . S
C352 C368 1.368 . S
H353 C361 0.950 . S
H354 C359 0.950 . S
H355 C360 0.949 . S
H356 C362 0.950 . S
H357 C363 0.950 . S
H358 C364 0.949 . S
C359 H354 0.950 . S
C359 C361 1.327 . S
C359 C365 1.429 . S
C360 C352 1.574 . S
C360 H355 0.949 . S
C360 C366 1.368 . S
C361 C345 1.349 . S
C361 H353 0.950 . S
C361 C359 1.327 . S
C362 C350 1.349 . S
C362 H356 0.950 . S
C362 C363 1.327 . S
C363 H357 0.950 . S
C363 C362 1.327 . S
C363 C367 1.429 . S
C364 C347 1.574 . S
C364 H358 0.949 . S
C364 C368 1.368 . S
C365 C346 1.429 . S
C365 C359 1.429 . S
C365 C366 1.523 . S
C366 C347 1.368 . S
C366 C360 1.368 . S
C366 C365 1.523 . S
C367 C351 1.429 . S
C367 C363 1.429 . S
C367 C368 1.523 . S
C368 C352 1.368 . S
C368 C364 1.368 . S
C368 C367 1.523 . S
H369 C344 0.950 . S
H370 C346 0.950 . S
H371 C347 0.949 . S
H372 C349 0.950 . S
H373 C351 0.950 . S
C374 C375 1.349 . S
C374 C376 1.327 . S
C374 H399 0.950 . S
C375 C374 1.349 . S
C375 C391 1.349 . S
C376 C374 1.327 . S
C376 C395 1.429 . S
C376 H400 0.950 . S
C377 C394 1.574 . S
C377 C396 1.368 . S
C377 H401 0.949 . S
H378 C382 0.949 . S
C379 C380 1.349 . S
C379 C381 1.327 . S
C379 H402 0.950 . S
C380 C379 1.349 . S
C380 C392 1.349 . S
C381 C379 1.327 . S
C381 C397 1.429 . S
C381 H403 0.950 . S
C382 H378 0.949 . S
C382 C390 1.574 . S
C382 C398 1.368 . S
H383 C391 0.950 . S
H384 C389 0.950 . S
H385 C390 0.949 . S
H386 C392 0.950 . S
H387 C393 0.950 . S
H388 C394 0.949 . S
C389 H384 0.950 . S
C389 C391 1.327 . S
C389 C395 1.429 . S
C390 C382 1.574 . S
C390 H385 0.949 . S
C390 C396 1.368 . S
C391 C375 1.349 . S
C391 H383 0.950 . S
C391 C389 1.327 . S
C392 C380 1.349 . S
C392 H386 0.950 . S
C392 C393 1.327 . S
C393 H387 0.950 . S
C393 C392 1.327 . S
C393 C397 1.429 . S
C394 C377 1.574 . S
C394 H388 0.949 . S
C394 C398 1.368 . S
C395 C376 1.429 . S
C395 C389 1.429 . S
C395 C396 1.523 . S
C396 C377 1.368 . S
C396 C390 1.368 . S
C396 C395 1.523 . S
C397 C381 1.429 . S
C397 C393 1.429 . S
C397 C398 1.523 . S
C398 C382 1.368 . S
C398 C394 1.368 . S
C398 C397 1.523 . S
H399 C374 0.950 . S
H400 C376 0.950 . S
H401 C377 0.949 . S
H402 C379 0.950 . S
H403 C381 0.950 . S
C404 C405 1.349 . S
C404 C406 1.327 . S
C404 H429 0.950 . S
C405 C404 1.349 . S
C405 C421 1.349 . S
C406 C404 1.327 . S
C406 C425 1.429 . S
C406 H430 0.950 . S
C407 C424 1.574 . S
C407 C426 1.368 . S
C407 H431 0.949 . S
H408 C412 0.949 . S
C409 C410 1.349 . S
C409 C411 1.327 . S
C409 H432 0.950 . S
C410 C409 1.349 . S
C410 C422 1.349 . S
C411 C409 1.327 . S
C411 C427 1.429 . S
C411 H433 0.950 . S
C412 H408 0.949 . S
C412 C420 1.574 . S
C412 C428 1.368 . S
H413 C421 0.950 . S
H414 C419 0.950 . S
H415 C420 0.949 . S
H416 C422 0.950 . S
H417 C423 0.950 . S
H418 C424 0.949 . S
C419 H414 0.950 . S
C419 C421 1.327 . S
C419 C425 1.429 . S
C420 C412 1.574 . S
C420 H415 0.949 . S
C420 C426 1.368 . S
C421 C405 1.349 . S
C421 H413 0.950 . S
C421 C419 1.327 . S
C422 C410 1.349 . S
C422 H416 0.950 . S
C422 C423 1.327 . S
C423 H417 0.950 . S
C423 C422 1.327 . S
C423 C427 1.429 . S
C424 C407 1.574 . S
C424 H418 0.949 . S
C424 C428 1.368 . S
C425 C406 1.429 . S
C425 C419 1.429 . S
C425 C426 1.523 . S
C426 C407 1.368 . S
C426 C420 1.368 . S
C426 C425 1.523 . S
C427 C411 1.429 . S
C427 C423 1.429 . S
C427 C428 1.523 . S
C428 C412 1.368 . S
C428 C424 1.368 . S
C428 C427 1.523 . S
H429 C404 0.950 . S
H430 C406 0.950 . S
H431 C407 0.949 . S
H432 C409 0.950 . S
H433 C411 0.950 . S
C434 C435 1.349 . S
C434 C436 1.327 . S
C434 H459 0.950 . S
C435 C434 1.349 . S
C435 C451 1.349 . S
C436 C434 1.327 . S
C436 C455 1.429 . S
C436 H460 0.950 . S
C437 C454 1.574 . S
C437 C456 1.368 . S
C437 H461 0.949 . S
H438 C442 0.949 . S
C439 C440 1.349 . S
C439 C441 1.327 . S
C439 H462 0.950 . S
C440 C439 1.349 . S
C440 C452 1.349 . S
C441 C439 1.327 . S
C441 C457 1.429 . S
C441 H463 0.950 . S
C442 H438 0.949 . S
C442 C450 1.574 . S
C442 C458 1.368 . S
H443 C451 0.950 . S
H444 C449 0.950 . S
H445 C450 0.949 . S
H446 C452 0.950 . S
H447 C453 0.950 . S
H448 C454 0.949 . S
C449 H444 0.950 . S
C449 C451 1.327 . S
C449 C455 1.429 . S
C450 C442 1.574 . S
C450 H445 0.949 . S
C450 C456 1.368 . S
C451 C435 1.349 . S
C451 H443 0.950 . S
C451 C449 1.327 . S
C452 C440 1.349 . S
C452 H446 0.950 . S
C452 C453 1.327 . S
C453 H447 0.950 . S
C453 C452 1.327 . S
C453 C457 1.429 . S
C454 C437 1.574 . S
C454 H448 0.949 . S
C454 C458 1.368 . S
C455 C436 1.429 . S
C455 C449 1.429 . S
C455 C456 1.523 . S
C456 C437 1.368 . S
C456 C450 1.368 . S
C456 C455 1.523 . S
C457 C441 1.429 . S
C457 C453 1.429 . S
C457 C458 1.523 . S
C458 C442 1.368 . S
C458 C454 1.368 . S
C458 C457 1.523 . S
H459 C434 0.950 . S
H460 C436 0.950 . S
H461 C437 0.949 . S
H462 C439 0.950 . S
H463 C441 0.950 . S
C464 C465 1.349 . S
C464 C466 1.327 . S
C464 H489 0.950 . S
C465 C464 1.349 . S
C465 C481 1.349 . S
C466 C464 1.327 . S
C466 C485 1.429 . S
C466 H490 0.950 . S
C467 C484 1.574 . S
C467 C486 1.368 . S
C467 H491 0.949 . S
H468 C472 0.949 . S
C469 C470 1.349 . S
C469 C471 1.327 . S
C469 H492 0.950 . S
C470 C469 1.349 . S
C470 C482 1.349 . S
C471 C469 1.327 . S
C471 C487 1.429 . S
C471 H493 0.950 . S
C472 H468 0.949 . S
C472 C480 1.574 . S
C472 C488 1.368 . S
H473 C481 0.950 . S
H474 C479 0.950 . S
H475 C480 0.949 . S
H476 C482 0.950 . S
H477 C483 0.950 . S
H478 C484 0.949 . S
C479 H474 0.950 . S
C479 C481 1.327 . S
C479 C485 1.429 . S
C480 C472 1.574 . S
C480 H475 0.949 . S
C480 C486 1.368 . S
C481 C465 1.349 . S
C481 H473 0.950 . S
C481 C479 1.327 . S
C482 C470 1.349 . S
C482 H476 0.950 . S
C482 C483 1.327 . S
C483 H477 0.950 . S
C483 C482 1.327 . S
C483 C487 1.429 . S
C484 C467 1.574 . S
C484 H478 0.949 . S
C484 C488 1.368 . S
C485 C466 1.429 . S
C485 C479 1.429 . S
C485 C486 1.523 . S
C486 C467 1.368 . S
C486 C480 1.368 . S
C486 C485 1.523 . S
C487 C471 1.429 . S
C487 C483 1.429 . S
C487 C488 1.523 . S
C488 C472 1.368 . S
C488 C484 1.368 . S
C488 C487 1.523 . S
H489 C464 0.950 . S
H490 C466 0.950 . S
H491 C467 0.949 . S
H492 C469 0.950 . S
H493 C471 0.950 . S
C494 C495 1.349 . S
C494 C496 1.327 . S
C494 H519 0.950 . S
C495 C494 1.349 . S
C495 C511 1.349 . S
C496 C494 1.327 . S
C496 C515 1.429 . S
C496 H520 0.950 . S
C497 C514 1.574 . S
C497 C516 1.368 . S
C497 H521 0.949 . S
H498 C502 0.949 . S
C499 C500 1.349 . S
C499 C501 1.327 . S
C499 H522 0.950 . S
C500 C499 1.349 . S
C500 C512 1.349 . S
C501 C499 1.327 . S
C501 C517 1.429 . S
C501 H523 0.950 . S
C502 H498 0.949 . S
C502 C510 1.574 . S
C502 C518 1.368 . S
H503 C511 0.950 . S
H504 C509 0.950 . S
H505 C510 0.949 . S
H506 C512 0.950 . S
H507 C513 0.950 . S
H508 C514 0.949 . S
C509 H504 0.950 . S
C509 C511 1.327 . S
C509 C515 1.429 . S
C510 C502 1.574 . S
C510 H505 0.949 . S
C510 C516 1.368 . S
C511 C495 1.349 . S
C511 H503 0.950 . S
C511 C509 1.327 . S
C512 C500 1.349 . S
C512 H506 0.950 . S
C512 C513 1.327 . S
C513 H507 0.950 . S
C513 C512 1.327 . S
C513 C517 1.429 . S
C514 C497 1.574 . S
C514 H508 0.949 . S
C514 C518 1.368 . S
C515 C496 1.429 . S
C515 C509 1.429 . S
C515 C516 1.523 . S
C516 C497 1.368 . S
C516 C510 1.368 . S
C516 C515 1.523 . S
C517 C501 1.429 . S
C517 C513 1.429 . S
C517 C518 1.523 . S
C518 C502 1.368 . S
C518 C514 1.368 . S
C518 C517 1.523 . S
H519 C494 0.950 . S
H520 C496 0.950 . S
H521 C497 0.949 . S
H522 C499 0.950 . S
H523 C501 0.950 . S
C524 C525 1.349 . S
C524 C526 1.327 . S
C524 H549 0.950 . S
C525 C524 1.349 . S
C525 C541 1.349 . S
C526 C524 1.327 . S
C526 C545 1.429 . S
C526 H550 0.950 . S
C527 C544 1.574 . S
C527 C546 1.368 . S
C527 H551 0.949 . S
H528 C532 0.949 . S
C529 C530 1.349 . S
C529 C531 1.327 . S
C529 H552 0.950 . S
C530 C529 1.349 . S
C530 C542 1.349 . S
C531 C529 1.327 . S
C531 C547 1.429 . S
C531 H553 0.950 . S
C532 H528 0.949 . S
C532 C540 1.574 . S
C532 C548 1.368 . S
H533 C541 0.950 . S
H534 C539 0.950 . S
H535 C540 0.949 . S
H536 C542 0.950 . S
H537 C543 0.950 . S
H538 C544 0.949 . S
C539 H534 0.950 . S
C539 C541 1.327 . S
C539 C545 1.429 . S
C540 C532 1.574 . S
C540 H535 0.949 . S
C540 C546 1.368 . S
C541 C525 1.349 . S
C541 H533 0.950 . S
C541 C539 1.327 . S
C542 C530 1.349 . S
C542 H536 0.950 . S
C542 C543 1.327 . S
C543 H537 0.950 . S
C543 C542 1.327 . S
C543 C547 1.429 . S
C544 C527 1.574 . S
C544 H538 0.949 . S
C544 C548 1.368 . S
C545 C526 1.429 . S
C545 C539 1.429 . S
C545 C546 1.523 . S
C546 C527 1.368 . S
C546 C540 1.368 . S
C546 C545 1.523 . S
C547 C531 1.429 . S
C547 C543 1.429 . S
C547 C548 1.523 . S
C548 C532 1.368 . S
C548 C544 1.368 . S
C548 C547 1.523 . S
H549 C524 0.950 . S
H550 C526 0.950 . S
H551 C527 0.949 . S
H552 C529 0.950 . S
H553 C531 0.950 . S
C554 C555 1.349 . S
C554 C556 1.327 . S
C554 H579 0.950 . S
C555 C554 1.349 . S
C555 C571 1.349 . S
C556 C554 1.327 . S
C556 C575 1.429 . S
C556 H580 0.950 . S
C557 C574 1.574 . S
C557 C576 1.368 . S
C557 H581 0.949 . S
H558 C562 0.949 . S
C559 C560 1.349 . S
C559 C561 1.327 . S
C559 H582 0.950 . S
C560 C559 1.349 . S
C560 C572 1.349 . S
C561 C559 1.327 . S
C561 C577 1.429 . S
C561 H583 0.950 . S
C562 H558 0.949 . S
C562 C570 1.574 . S
C562 C578 1.368 . S
H563 C571 0.950 . S
H564 C569 0.950 . S
H565 C570 0.949 . S
H566 C572 0.950 . S
H567 C573 0.950 . S
H568 C574 0.949 . S
C569 H564 0.950 . S
C569 C571 1.327 . S
C569 C575 1.429 . S
C570 C562 1.574 . S
C570 H565 0.949 . S
C570 C576 1.368 . S
C571 C555 1.349 . S
C571 H563 0.950 . S
C571 C569 1.327 . S
C572 C560 1.349 . S
C572 H566 0.950 . S
C572 C573 1.327 . S
C573 H567 0.950 . S
C573 C572 1.327 . S
C573 C577 1.429 . S
C574 C557 1.574 . S
C574 H568 0.949 . S
C574 C578 1.368 . S
C575 C556 1.429 . S
C575 C569 1.429 . S
C575 C576 1.523 . S
C576 C557 1.368 . S
C576 C570 1.368 . S
C576 C575 1.523 . S
C577 C561 1.429 . S
C577 C573 1.429 . S
C577 C578 1.523 . S
C578 C562 1.368 . S
C578 C574 1.368 . S
C578 C577 1.523 . S
H579 C554 0.950 . S
H580 C556 0.950 . S
H581 C557 0.949 . S
H582 C559 0.950 . S
H583 C561 0.950 . S
C584 C585 1.349 . S
C584 C586 1.327 . S
C584 H609 0.950 . S
C585 C584 1.349 . S
C585 C601 1.349 . S
C586 C584 1.327 . S
C586 C605 1.429 . S
C586 H610 0.950 . S
C587 C604 1.574 . S
C587 C606 1.368 . S
C587 H611 0.949 . S
H588 C592 0.949 . S
C589 C590 1.349 . S
C589 C591 1.327 . S
C589 H612 0.950 . S
C590 C589 1.349 . S
C590 C602 1.349 . S
C591 C589 1.327 . S
C591 C607 1.429 . S
C591 H613 0.950 . S
C592 H588 0.949 . S
C592 C600 1.574 . S
C592 C608 1.368 . S
H593 C601 0.950 . S
H594 C599 0.950 . S
H595 C600 0.949 . S
H596 C602 0.950 . S
H597 C603 0.950 . S
H598 C604 0.949 . S
C599 H594 0.950 . S
C599 C601 1.327 . S
C599 C605 1.429 . S
C600 C592 1.574 . S
C600 H595 0.949 . S
C600 C606 1.368 . S
C601 C585 1.349 . S
C601 H593 0.950 . S
C601 C599 1.327 . S
C602 C590 1.349 . S
C602 H596 0.950 . S
C602 C603 1.327 . S
C603 H597 0.950 . S
C603 C602 1.327 . S
C603 C607 1.429 . S
C604 C587 1.574 . S
C604 H598 0.949 . S
C604 C608 1.368 . S
C605 C586 1.429 . S
C605 C599 1.429 . S
C605 C606 1.523 . S
C606 C587 1.368 . S
C606 C600 1.368 . S
C606 C605 1.523 . S
C607 C591 1.429 . S
C607 C603 1.429 . S
C607 C608 1.523 . S
C608 C592 1.368 . S
C608 C604 1.368 . S
C608 C607 1.523 . S
H609 C584 0.950 . S
H610 C586 0.950 . S
H611 C587 0.949 . S
H612 C589 0.950 . S
H613 C591 0.950 . S
C614 C615 1.349 . S
C614 C616 1.327 . S
C614 H639 0.950 . S
C615 C614 1.349 . S
C615 C631 1.349 . S
C616 C614 1.327 . S
C616 C635 1.429 . S
C616 H640 0.950 . S
C617 C634 1.574 . S
C617 C636 1.368 . S
C617 H641 0.949 . S
H618 C622 0.949 . S
C619 C620 1.349 . S
C619 C621 1.327 . S
C619 H642 0.950 . S
C620 C619 1.349 . S
C620 C632 1.349 . S
C621 C619 1.327 . S
C621 C637 1.429 . S
C621 H643 0.950 . S
C622 H618 0.949 . S
C622 C630 1.574 . S
C622 C638 1.368 . S
H623 C631 0.950 . S
H624 C629 0.950 . S
H625 C630 0.949 . S
H626 C632 0.950 . S
H627 C633 0.950 . S
H628 C634 0.949 . S
C629 H624 0.950 . S
C629 C631 1.327 . S
C629 C635 1.429 . S
C630 C622 1.574 . S
C630 H625 0.949 . S
C630 C636 1.368 . S
C631 C615 1.349 . S
C631 H623 0.950 . S
C631 C629 1.327 . S
C632 C620 1.349 . S
C632 H626 0.950 . S
C632 C633 1.327 . S
C633 H627 0.950 . S
C633 C632 1.327 . S
C633 C637 1.429 . S
C634 C617 1.574 . S
C634 H628 0.949 . S
C634 C638 1.368 . S
C635 C616 1.429 . S
C635 C629 1.429 . S
C635 C636 1.523 . S
C636 C617 1.368 . S
C636 C630 1.368 . S
C636 C635 1.523 . S
C637 C621 1.429 . S
C637 C633 1.429 . S
C637 C638 1.523 . S
C638 C622 1.368 . S
C638 C634 1.368 . S
C638 C637 1.523 . S
H639 C614 0.950 . S
H640 C616 0.950 . S
H641 C617 0.949 . S
H642 C619 0.950 . S
H643 C621 0.950 . S
C644 C645 1.349 . S
C644 C646 1.327 . S
C644 H669 0.950 . S
C645 C644 1.349 . S
C645 C661 1.349 . S
C646 C644 1.327 . S
C646 C665 1.429 . S
C646 H670 0.950 . S
C647 C664 1.574 . S
C647 C666 1.368 . S
C647 H671 0.949 . S
H648 C652 0.949 . S
C649 C650 1.349 . S
C649 C651 1.327 . S
C649 H672 0.950 . S
C650 C649 1.349 . S
C650 C662 1.349 . S
C651 C649 1.327 . S
C651 C667 1.429 . S
C651 H673 0.950 . S
C652 H648 0.949 . S
C652 C660 1.574 . S
C652 C668 1.368 . S
H653 C661 0.950 . S
H654 C659 0.950 . S
H655 C660 0.949 . S
H656 C662 0.950 . S
H657 C663 0.950 . S
H658 C664 0.949 . S
C659 H654 0.950 . S
C659 C661 1.327 . S
C659 C665 1.429 . S
C660 C652 1.574 . S
C660 H655 0.949 . S
C660 C666 1.368 . S
C661 C645 1.349 . S
C661 H653 0.950 . S
C661 C659 1.327 . S
C662 C650 1.349 . S
C662 H656 0.950 . S
C662 C663 1.327 . S
C663 H657 0.950 . S
C663 C662 1.327 . S
C663 C667 1.429 . S
C664 C647 1.574 . S
C664 H658 0.949 . S
C664 C668 1.368 . S
C665 C646 1.429 . S
C665 C659 1.429 . S
C665 C666 1.523 . S
C666 C647 1.368 . S
C666 C660 1.368 . S
C666 C665 1.523 . S
C667 C651 1.429 . S
C667 C663 1.429 . S
C667 C668 1.523 . S
C668 C652 1.368 . S
C668 C664 1.368 . S
C668 C667 1.523 . S
H669 C644 0.950 . S
H670 C646 0.950 . S
H671 C647 0.949 . S
H672 C649 0.950 . S
H673 C651 0.950 . S
C674 C675 1.349 . S
C674 C676 1.327 . S
C674 H699 0.950 . S
C675 C674 1.349 . S
C675 C691 1.349 . S
C676 C674 1.327 . S
C676 C695 1.429 . S
C676 H700 0.950 . S
C677 C694 1.574 . S
C677 C696 1.368 . S
C677 H701 0.949 . S
H678 C682 0.949 . S
C679 C680 1.349 . S
C679 C681 1.327 . S
C679 H702 0.950 . S
C680 C679 1.349 . S
C680 C692 1.349 . S
C681 C679 1.327 . S
C681 C697 1.429 . S
C681 H703 0.950 . S
C682 H678 0.949 . S
C682 C690 1.574 . S
C682 C698 1.368 . S
H683 C691 0.950 . S
H684 C689 0.950 . S
H685 C690 0.949 . S
H686 C692 0.950 . S
H687 C693 0.950 . S
H688 C694 0.949 . S
C689 H684 0.950 . S
C689 C691 1.327 . S
C689 C695 1.429 . S
C690 C682 1.574 . S
C690 H685 0.949 . S
C690 C696 1.368 . S
C691 C675 1.349 . S
C691 H683 0.950 . S
C691 C689 1.327 . S
C692 C680 1.349 . S
C692 H686 0.950 . S
C692 C693 1.327 . S
C693 H687 0.950 . S
C693 C692 1.327 . S
C693 C697 1.429 . S
C694 C677 1.574 . S
C694 H688 0.949 . S
C694 C698 1.368 . S
C695 C676 1.429 . S
C695 C689 1.429 . S
C695 C696 1.523 . S
C696 C677 1.368 . S
C696 C690 1.368 . S
C696 C695 1.523 . S
C697 C681 1.429 . S
C697 C693 1.429 . S
C697 C698 1.523 . S
C698 C682 1.368 . S
C698 C694 1.368 . S
C698 C697 1.523 . S
H699 C674 0.950 . S
H700 C676 0.950 . S
H701 C677 0.949 . S
H702 C679 0.950 . S
H703 C681 0.950 . S
C704 C705 1.349 . S
C704 C706 1.327 . S
C704 H729 0.950 . S
C705 C704 1.349 . S
C705 C721 1.349 . S
C706 C704 1.327 . S
C706 C725 1.429 . S
C706 H730 0.950 . S
C707 C724 1.574 . S
C707 C726 1.368 . S
C707 H731 0.949 . S
H708 C712 0.949 . S
C709 C710 1.349 . S
C709 C711 1.327 . S
C709 H732 0.950 . S
C710 C709 1.349 . S
C710 C722 1.349 . S
C711 C709 1.327 . S
C711 C727 1.429 . S
C711 H733 0.950 . S
C712 H708 0.949 . S
C712 C720 1.574 . S
C712 C728 1.368 . S
H713 C721 0.950 . S
H714 C719 0.950 . S
H715 C720 0.949 . S
H716 C722 0.950 . S
H717 C723 0.950 . S
H718 C724 0.949 . S
C719 H714 0.950 . S
C719 C721 1.327 . S
C719 C725 1.429 . S
C720 C712 1.574 . S
C720 H715 0.949 . S
C720 C726 1.368 . S
C721 C705 1.349 . S
C721 H713 0.950 . S
C721 C719 1.327 . S
C722 C710 1.349 . S
C722 H716 0.950 . S
C722 C723 1.327 . S
C723 H717 0.950 . S
C723 C722 1.327 . S
C723 C727 1.429 . S
C724 C707 1.574 . S
C724 H718 0.949 . S
C724 C728 1.368 . S
C725 C706 1.429 . S
C725 C719 1.429 . S
C725 C726 1.523 . S
C726 C707 1.368 . S
C726 C720 1.368 . S
C726 C725 1.523 . S
C727 C711 1.429 . S
C727 C723 1.429 . S
C727 C728 1.523 . S
C728 C712 1.368 . S
C728 C724 1.368 . S
C728 C727 1.523 . S
H729 C704 0.950 . S
H730 C706 0.950 . S
H731 C707 0.949 . S
H732 C709 0.950 . S
H733 C711 0.950 . S
C734 C735 1.349 . S
C734 C736 1.327 . S
C734 H759 0.950 . S
C735 C734 1.349 . S
C735 C751 1.349 . S
C736 C734 1.327 . S
C736 C755 1.429 . S
C736 H760 0.950 . S
C737 C754 1.574 . S
C737 C756 1.368 . S
C737 H761 0.949 . S
H738 C742 0.949 . S
C739 C740 1.349 . S
C739 C741 1.327 . S
C739 H762 0.950 . S
C740 C739 1.349 . S
C740 C752 1.349 . S
C741 C739 1.327 . S
C741 C757 1.429 . S
C741 H763 0.950 . S
C742 H738 0.949 . S
C742 C750 1.574 . S
C742 C758 1.368 . S
H743 C751 0.950 . S
H744 C749 0.950 . S
H745 C750 0.949 . S
H746 C752 0.950 . S
H747 C753 0.950 . S
H748 C754 0.949 . S
C749 H744 0.950 . S
C749 C751 1.327 . S
C749 C755 1.429 . S
C750 C742 1.574 . S
C750 H745 0.949 . S
C750 C756 1.368 . S
C751 C735 1.349 . S
C751 H743 0.950 . S
C751 C749 1.327 . S
C752 C740 1.349 . S
C752 H746 0.950 . S
C752 C753 1.327 . S
C753 H747 0.950 . S
C753 C752 1.327 . S
C753 C757 1.429 . S
C754 C737 1.574 . S
C754 H748 0.949 . S
C754 C758 1.368 . S
C755 C736 1.429 . S
C755 C749 1.429 . S
C755 C756 1.523 . S
C756 C737 1.368 . S
C756 C750 1.368 . S
C756 C755 1.523 . S
C757 C741 1.429 . S
C757 C753 1.429 . S
C757 C758 1.523 . S
C758 C742 1.368 . S
C758 C754 1.368 . S
C758 C757 1.523 . S
H759 C734 0.950 . S
H760 C736 0.950 . S
H761 C737 0.949 . S
H762 C739 0.950 . S
H763 C741 0.950 . S
C764 C765 1.349 . S
C764 C766 1.327 . S
C764 H789 0.950 . S
C765 C764 1.349 . S
C765 C781 1.349 . S
C766 C764 1.327 . S
C766 C785 1.429 . S
C766 H790 0.950 . S
C767 C784 1.574 . S
C767 C786 1.368 . S
C767 H791 0.949 . S
H768 C772 0.949 . S
C769 C770 1.349 . S
C769 C771 1.327 . S
C769 H792 0.950 . S
C770 C769 1.349 . S
C770 C782 1.349 . S
C771 C769 1.327 . S
C771 C787 1.429 . S
C771 H793 0.950 . S
C772 H768 0.949 . S
C772 C780 1.574 . S
C772 C788 1.368 . S
H773 C781 0.950 . S
H774 C779 0.950 . S
H775 C780 0.949 . S
H776 C782 0.950 . S
H777 C783 0.950 . S
H778 C784 0.949 . S
C779 H774 0.950 . S
C779 C781 1.327 . S
C779 C785 1.429 . S
C780 C772 1.574 . S
C780 H775 0.949 . S
C780 C786 1.368 . S
C781 C765 1.349 . S
C781 H773 0.950 . S
C781 C779 1.327 . S
C782 C770 1.349 . S
C782 H776 0.950 . S
C782 C783 1.327 . S
C783 H777 0.950 . S
C783 C782 1.327 . S
C783 C787 1.429 . S
C784 C767 1.574 . S
C784 H778 0.949 . S
C784 C788 1.368 . S
C785 C766 1.429 . S
C785 C779 1.429 . S
C785 C786 1.523 . S
C786 C767 1.368 . S
C786 C780 1.368 . S
C786 C785 1.523 . S
C787 C771 1.429 . S
C787 C783 1.429 . S
C787 C788 1.523 . S
C788 C772 1.368 . S
C788 C784 1.368 . S
C788 C787 1.523 . S
H789 C764 0.950 . S
H790 C766 0.950 . S
H791 C767 0.949 . S
H792 C769 0.950 . S
H793 C771 0.950 . S
C794 C795 1.349 . S
C794 C796 1.327 . S
C794 H819 0.950 . S
C795 C794 1.349 . S
C795 C811 1.349 . S
C796 C794 1.327 . S
C796 C815 1.429 . S
C796 H820 0.950 . S
C797 C814 1.574 . S
C797 C816 1.368 . S
C797 H821 0.949 . S
H798 C802 0.949 . S
C799 C800 1.349 . S
C799 C801 1.327 . S
C799 H822 0.950 . S
C800 C799 1.349 . S
C800 C812 1.349 . S
C801 C799 1.327 . S
C801 C817 1.429 . S
C801 H823 0.950 . S
C802 H798 0.949 . S
C802 C810 1.574 . S
C802 C818 1.368 . S
H803 C811 0.950 . S
H804 C809 0.950 . S
H805 C810 0.949 . S
H806 C812 0.950 . S
H807 C813 0.950 . S
H808 C814 0.949 . S
C809 H804 0.950 . S
C809 C811 1.327 . S
C809 C815 1.429 . S
C810 C802 1.574 . S
C810 H805 0.949 . S
C810 C816 1.368 . S
C811 C795 1.349 . S
C811 H803 0.950 . S
C811 C809 1.327 . S
C812 C800 1.349 . S
C812 H806 0.950 . S
C812 C813 1.327 . S
C813 H807 0.950 . S
C813 C812 1.327 . S
C813 C817 1.429 . S
C814 C797 1.574 . S
C814 H808 0.949 . S
C814 C818 1.368 . S
C815 C796 1.429 . S
C815 C809 1.429 . S
C815 C816 1.523 . S
C816 C797 1.368 . S
C816 C810 1.368 . S
C816 C815 1.523 . S
C817 C801 1.429 . S
C817 C813 1.429 . S
C817 C818 1.523 . S
C818 C802 1.368 . S
C818 C814 1.368 . S
C818 C817 1.523 . S
H819 C794 0.950 . S
H820 C796 0.950 . S
H821 C797 0.949 . S
H822 C799 0.950 . S
H823 C801 0.950 . S
C824 C825 1.349 . S
C824 C826 1.327 . S
C824 H849 0.950 . S
C825 C824 1.349 . S
C825 C841 1.349 1_554 S
C826 C824 1.327 . S
C826 C845 1.429 . S
C826 H850 0.950 . S
C827 C844 1.574 . S
C827 C846 1.368 1_556 S
C827 H851 0.949 . S
H828 C832 0.949 . S
C829 C830 1.349 1_556 S
C829 C831 1.327 . S
C829 H852 0.950 . S
C830 C829 1.349 1_554 S
C830 C842 1.349 . S
C831 C829 1.327 . S
C831 C847 1.429 1_556 S
C831 H853 0.950 . S
C832 H828 0.949 . S
C832 C840 1.574 . S
C832 C848 1.368 . S
H833 C841 0.950 . S
H834 C839 0.950 . S
H835 C840 0.949 . S
H836 C842 0.950 . S
H837 C843 0.950 . S
H838 C844 0.949 . S
C839 H834 0.950 . S
C839 C841 1.327 . S
C839 C845 1.429 1_556 S
C840 C832 1.574 . S
C840 H835 0.949 . S
C840 C846 1.368 . S
C841 C825 1.349 1_556 S
C841 H833 0.950 . S
C841 C839 1.327 . S
C842 C830 1.349 . S
C842 H836 0.950 . S
C842 C843 1.327 . S
C843 H837 0.950 . S
C843 C842 1.327 . S
C843 C847 1.429 . S
C844 C827 1.574 . S
C844 H838 0.949 . S
C844 C848 1.368 1_556 S
C845 C826 1.429 . S
C845 C839 1.429 1_554 S
C845 C846 1.523 . S
C846 C827 1.368 1_554 S
C846 C840 1.368 . S
C846 C845 1.523 . S
C847 C831 1.429 1_554 S
C847 C843 1.429 . S
C847 C848 1.523 . S
C848 C832 1.368 . S
C848 C844 1.368 1_554 S
C848 C847 1.523 . S
H849 C824 0.950 . S
H850 C826 0.950 . S
H851 C827 0.949 . S
H852 C829 0.950 . S
H853 C831 0.950 . S
C854 C855 1.349 . S
C854 C856 1.327 . S
C854 H879 0.950 . S
C855 C854 1.349 . S
C855 C871 1.349 . S
C856 C854 1.327 . S
C856 C875 1.429 . S
C856 H880 0.950 . S
C857 C874 1.574 . S
C857 C876 1.368 . S
C857 H881 0.949 . S
H858 C862 0.949 . S
C859 C860 1.349 . S
C859 C861 1.327 . S
C859 H882 0.950 . S
C860 C859 1.349 . S
C860 C872 1.349 . S
C861 C859 1.327 . S
C861 C877 1.429 . S
C861 H883 0.950 . S
C862 H858 0.949 . S
C862 C870 1.574 . S
C862 C878 1.368 . S
H863 C871 0.950 . S
H864 C869 0.950 . S
H865 C870 0.949 . S
H866 C872 0.950 . S
H867 C873 0.950 . S
H868 C874 0.949 . S
C869 H864 0.950 . S
C869 C871 1.327 . S
C869 C875 1.429 . S
C870 C862 1.574 . S
C870 H865 0.949 . S
C870 C876 1.368 . S
C871 C855 1.349 . S
C871 H863 0.950 . S
C871 C869 1.327 . S
C872 C860 1.349 . S
C872 H866 0.950 . S
C872 C873 1.327 . S
C873 H867 0.950 . S
C873 C872 1.327 . S
C873 C877 1.429 . S
C874 C857 1.574 . S
C874 H868 0.949 . S
C874 C878 1.368 . S
C875 C856 1.429 . S
C875 C869 1.429 . S
C875 C876 1.523 . S
C876 C857 1.368 . S
C876 C870 1.368 . S
C876 C875 1.523 . S
C877 C861 1.429 . S
C877 C873 1.429 . S
C877 C878 1.523 . S
C878 C862 1.368 . S
C878 C874 1.368 . S
C878 C877 1.523 . S
H879 C854 0.950 . S
H880 C856 0.950 . S
H881 C857 0.949 . S
H882 C859 0.950 . S
H883 C861 0.950 . S
C884 C885 1.349 1_556 S
C884 C886 1.327 . S
C884 H909 0.950 . S
C885 C884 1.349 1_554 S
C885 C901 1.349 . S
C886 C884 1.327 . S
C886 C905 1.429 1_556 S
C886 H910 0.950 . S
C887 C904 1.574 . S
C887 C906 1.368 . S
C887 H911 0.949 . S
H888 C892 0.949 . S
C889 C890 1.349 . S
C889 C891 1.327 . S
C889 H912 0.950 . S
C890 C889 1.349 . S
C890 C902 1.349 1_554 S
C891 C889 1.327 . S
C891 C907 1.429 . S
C891 H913 0.950 . S
C892 H888 0.949 . S
C892 C900 1.574 . S
C892 C908 1.368 1_556 S
H893 C901 0.950 . S
H894 C899 0.950 . S
H895 C900 0.949 . S
H896 C902 0.950 . S
H897 C903 0.950 . S
H898 C904 0.949 . S
C899 H894 0.950 . S
C899 C901 1.327 . S
C899 C905 1.429 . S
C900 C892 1.574 . S
C900 H895 0.949 . S
C900 C906 1.368 1_556 S
C901 C885 1.349 . S
C901 H893 0.950 . S
C901 C899 1.327 . S
C902 C890 1.349 1_556 S
C902 H896 0.950 . S
C902 C903 1.327 . S
C903 H897 0.950 . S
C903 C902 1.327 . S
C903 C907 1.429 1_556 S
C904 C887 1.574 . S
C904 H898 0.949 . S
C904 C908 1.368 . S
C905 C886 1.429 1_554 S
C905 C899 1.429 . S
C905 C906 1.523 . S
C906 C887 1.368 . S
C906 C900 1.368 1_554 S
C906 C905 1.523 . S
C907 C891 1.429 . S
C907 C903 1.429 1_554 S
C907 C908 1.523 . S
C908 C892 1.368 1_554 S
C908 C904 1.368 . S
C908 C907 1.523 . S
H909 C884 0.950 . S
H910 C886 0.950 . S
H911 C887 0.949 . S
H912 C889 0.950 . S
H913 C891 0.950 . S
C914 C915 1.349 . S
C914 C916 1.327 . S
C914 H939 0.950 . S
C915 C914 1.349 . S
C915 C931 1.349 . S
C916 C914 1.327 . S
C916 C935 1.429 . S
C916 H940 0.950 . S
C917 C934 1.574 . S
C917 C936 1.368 . S
C917 H941 0.949 . S
H918 C922 0.949 . S
C919 C920 1.349 . S
C919 C921 1.327 . S
C919 H942 0.950 . S
C920 C919 1.349 . S
C920 C932 1.349 . S
C921 C919 1.327 . S
C921 C937 1.429 . S
C921 H943 0.950 . S
C922 H918 0.949 . S
C922 C930 1.574 . S
C922 C938 1.368 . S
H923 C931 0.950 . S
H924 C929 0.950 . S
H925 C930 0.949 . S
H926 C932 0.950 . S
H927 C933 0.950 . S
H928 C934 0.949 . S
C929 H924 0.950 . S
C929 C931 1.327 . S
C929 C935 1.429 . S
C930 C922 1.574 . S
C930 H925 0.949 . S
C930 C936 1.368 . S
C931 C915 1.349 . S
C931 H923 0.950 . S
C931 C929 1.327 . S
C932 C920 1.349 . S
C932 H926 0.950 . S
C932 C933 1.327 . S
C933 H927 0.950 . S
C933 C932 1.327 . S
C933 C937 1.429 . S
C934 C917 1.574 . S
C934 H928 0.949 . S
C934 C938 1.368 . S
C935 C916 1.429 . S
C935 C929 1.429 . S
C935 C936 1.523 . S
C936 C917 1.368 . S
C936 C930 1.368 . S
C936 C935 1.523 . S
C937 C921 1.429 . S
C937 C933 1.429 . S
C937 C938 1.523 . S
C938 C922 1.368 . S
C938 C934 1.368 . S
C938 C937 1.523 . S
H939 C914 0.950 . S
H940 C916 0.950 . S
H941 C917 0.949 . S
H942 C919 0.950 . S
H943 C921 0.950 . S
C944 C945 1.349 . S
C944 C946 1.327 . S
C944 H969 0.950 . S
C945 C944 1.349 . S
C945 C961 1.349 . S
C946 C944 1.327 . S
C946 C965 1.429 . S
C946 H970 0.950 . S
C947 C964 1.574 . S
C947 C966 1.368 . S
C947 H971 0.949 . S
H948 C952 0.949 . S
C949 C950 1.349 . S
C949 C951 1.327 . S
C949 H972 0.950 . S
C950 C949 1.349 . S
C950 C962 1.349 . S
C951 C949 1.327 . S
C951 C967 1.429 . S
C951 H973 0.950 . S
C952 H948 0.949 . S
C952 C960 1.574 . S
C952 C968 1.368 . S
H953 C961 0.950 . S
H954 C959 0.950 . S
H955 C960 0.949 . S
H956 C962 0.950 . S
H957 C963 0.950 . S
H958 C964 0.949 . S
C959 H954 0.950 . S
C959 C961 1.327 . S
C959 C965 1.429 . S
C960 C952 1.574 . S
C960 H955 0.949 . S
C960 C966 1.368 . S
C961 C945 1.349 . S
C961 H953 0.950 . S
C961 C959 1.327 . S
C962 C950 1.349 . S
C962 H956 0.950 . S
C962 C963 1.327 . S
C963 H957 0.950 . S
C963 C962 1.327 . S
C963 C967 1.429 . S
C964 C947 1.574 . S
C964 H958 0.949 . S
C964 C968 1.368 . S
C965 C946 1.429 . S
C965 C959 1.429 . S
C965 C966 1.523 . S
C966 C947 1.368 . S
C966 C960 1.368 . S
C966 C965 1.523 . S
C967 C951 1.429 . S
C967 C963 1.429 . S
C967 C968 1.523 . S
C968 C952 1.368 . S
C968 C964 1.368 . S
C968 C967 1.523 . S
H969 C944 0.950 . S
H970 C946 0.950 . S
H971 C947 0.949 . S
H972 C949 0.950 . S
H973 C951 0.950 . S
C974 C975 1.349 . S
C974 C976 1.327 . S
C974 H999 0.950 . S
C975 C974 1.349 . S
C975 C991 1.349 1_554 S
C976 C974 1.327 . S
C976 C995 1.429 . S
C976 H1000 0.950 . S
C977 C994 1.574 . S
C977 C996 1.368 1_556 S
C977 H1001 0.949 . S
H978 C982 0.949 . S
C979 C980 1.349 1_556 S
C979 C981 1.327 . S
C979 H1002 0.950 . S
C980 C979 1.349 1_554 S
C980 C992 1.349 . S
C981 C979 1.327 . S
C981 C997 1.429 1_556 S
C981 H1003 0.950 . S
C982 H978 0.949 . S
C982 C990 1.574 . S
C982 C998 1.368 . S
H983 C991 0.950 . S
H984 C989 0.950 . S
H985 C990 0.949 . S
H986 C992 0.950 . S
H987 C993 0.950 . S
H988 C994 0.949 . S
C989 H984 0.950 . S
C989 C991 1.327 . S
C989 C995 1.429 1_556 S
C990 C982 1.574 . S
C990 H985 0.949 . S
C990 C996 1.368 . S
C991 C975 1.349 1_556 S
C991 H983 0.950 . S
C991 C989 1.327 . S
C992 C980 1.349 . S
C992 H986 0.950 . S
C992 C993 1.327 . S
C993 H987 0.950 . S
C993 C992 1.327 . S
C993 C997 1.429 . S
C994 C977 1.574 . S
C994 H988 0.949 . S
C994 C998 1.368 1_556 S
C995 C976 1.429 . S
C995 C989 1.429 1_554 S
C995 C996 1.523 . S
C996 C977 1.368 1_554 S
C996 C990 1.368 . S
C996 C995 1.523 . S
C997 C981 1.429 1_554 S
C997 C993 1.429 . S
C997 C998 1.523 . S
C998 C982 1.368 . S
C998 C994 1.368 1_554 S
C998 C997 1.523 . S
H999 C974 0.950 . S
H1000 C976 0.950 . S
H1001 C977 0.949 . S
H1002 C979 0.950 . S
H1003 C981 0.950 . S
C1004 C1005 1.349 . S
C1004 C1006 1.327 . S
C1004 H1029 0.950 . S
C1005 C1004 1.349 . S
C1005 C1021 1.349 . S
C1006 C1004 1.327 . S
C1006 C1025 1.429 . S
C1006 H1030 0.950 . S
C1007 C1024 1.574 . S
C1007 C1026 1.368 . S
C1007 H1031 0.949 . S
H1008 C1012 0.949 . S
C1009 C1010 1.349 . S
C1009 C1011 1.327 . S
C1009 H1032 0.950 . S
C1010 C1009 1.349 . S
C1010 C1022 1.349 . S
C1011 C1009 1.327 . S
C1011 C1027 1.429 . S
C1011 H1033 0.950 . S
C1012 H1008 0.949 . S
C1012 C1020 1.574 . S
C1012 C1028 1.368 . S
H1013 C1021 0.950 . S
H1014 C1019 0.950 . S
H1015 C1020 0.949 . S
H1016 C1022 0.950 . S
H1017 C1023 0.950 . S
H1018 C1024 0.949 . S
C1019 H1014 0.950 . S
C1019 C1021 1.327 . S
C1019 C1025 1.429 . S
C1020 C1012 1.574 . S
C1020 H1015 0.949 . S
C1020 C1026 1.368 . S
C1021 C1005 1.349 . S
C1021 H1013 0.950 . S
C1021 C1019 1.327 . S
C1022 C1010 1.349 . S
C1022 H1016 0.950 . S
C1022 C1023 1.327 . S
C1023 H1017 0.950 . S
C1023 C1022 1.327 . S
C1023 C1027 1.429 . S
C1024 C1007 1.574 . S
C1024 H1018 0.949 . S
C1024 C1028 1.368 . S
C1025 C1006 1.429 . S
C1025 C1019 1.429 . S
C1025 C1026 1.523 . S
C1026 C1007 1.368 . S
C1026 C1020 1.368 . S
C1026 C1025 1.523 . S
C1027 C1011 1.429 . S
C1027 C1023 1.429 . S
C1027 C1028 1.523 . S
C1028 C1012 1.368 . S
C1028 C1024 1.368 . S
C1028 C1027 1.523 . S
H1029 C1004 0.950 . S
H1030 C1006 0.950 . S
H1031 C1007 0.949 . S
H1032 C1009 0.950 . S
H1033 C1011 0.950 . S
C1034 C1035 1.349 . S
C1034 C1036 1.327 . S
C1034 H1059 0.950 . S
C1035 C1034 1.349 . S
C1035 C1051 1.349 1_554 S
C1036 C1034 1.327 . S
C1036 C1055 1.429 . S
C1036 H1060 0.950 . S
C1037 C1054 1.574 . S
C1037 C1056 1.368 1_556 S
C1037 H1061 0.949 . S
H1038 C1042 0.949 . S
C1039 C1040 1.349 1_556 S
C1039 C1041 1.327 . S
C1039 H1062 0.950 . S
C1040 C1039 1.349 1_554 S
C1040 C1052 1.349 . S
C1041 C1039 1.327 . S
C1041 C1057 1.429 1_556 S
C1041 H1063 0.950 . S
C1042 H1038 0.949 . S
C1042 C1050 1.574 . S
C1042 C1058 1.368 . S
H1043 C1051 0.950 . S
H1044 C1049 0.950 . S
H1045 C1050 0.949 . S
H1046 C1052 0.950 . S
H1047 C1053 0.950 . S
H1048 C1054 0.949 . S
C1049 H1044 0.950 . S
C1049 C1051 1.327 . S
C1049 C1055 1.429 1_556 S
C1050 C1042 1.574 . S
C1050 H1045 0.949 . S
C1050 C1056 1.368 . S
C1051 C1035 1.349 1_556 S
C1051 H1043 0.950 . S
C1051 C1049 1.327 . S
C1052 C1040 1.349 . S
C1052 H1046 0.950 . S
C1052 C1053 1.327 . S
C1053 H1047 0.950 . S
C1053 C1052 1.327 . S
C1053 C1057 1.429 . S
C1054 C1037 1.574 . S
C1054 H1048 0.949 . S
C1054 C1058 1.368 1_556 S
C1055 C1036 1.429 . S
C1055 C1049 1.429 1_554 S
C1055 C1056 1.523 . S
C1056 C1037 1.368 1_554 S
C1056 C1050 1.368 . S
C1056 C1055 1.523 . S
C1057 C1041 1.429 1_554 S
C1057 C1053 1.429 . S
C1057 C1058 1.523 . S
C1058 C1042 1.368 . S
C1058 C1054 1.368 1_554 S
C1058 C1057 1.523 . S
H1059 C1034 0.950 . S
H1060 C1036 0.950 . S
H1061 C1037 0.949 . S
H1062 C1039 0.950 . S
H1063 C1041 0.950 . S
C345 C21 1.545 . S
C350 C201 1.487 . S
C375 C40 1.631 . S
C380 C117 1.502 . S
C410 C149 1.514 . S
C405 C54 1.510 . S
C435 C73 1.660 . S
C440 C169 1.670 . S
C470 C277 1.517 . S
C465 C74 1.514 . S
C500 C297 1.625 . S
C495 C10 1.625 . S
C530 C329 1.484 . S
C525 C37 1.541 . S
C560 C245 1.544 . S
C555 C65 1.666 . S
C585 C52 1.506 . S
C590 C137 1.511 . S
C615 C87 1.667 . S
C620 C181 1.679 . S
C645 C15 1.550 . S
C650 C213 1.476 . S
C680 C105 1.510 . S
C675 C32 1.616 . S
C705 C29 1.554 . S
C710 C341 1.479 . S
C740 C233 1.559 . S
C735 C59 1.661 . S
C770 C265 1.508 . S
C765 C84 1.503 . S
C795 C8 1.623 . S
C800 C309 1.626 . S
C830 C111 1.641 . S
C825 C7 1.763 . S
C860 C143 1.636 . S
C855 C30 1.630 . S
C885 C62 1.783 . S
C890 C175 1.782 . S
C915 C81 1.623 . S
C920 C207 1.554 . S
C950 C239 1.653 . S
C945 C76 1.783 . S
C975 C18 1.630 . S
C980 C271 1.636 . S
C1005 C43 1.763 . S
C1010 C303 1.766 . S
C1035 C51 1.623 . S
C1040 C335 1.554 . S
