# Generated by pormake.
# Topology tsx, (6,3)-cn, num edge types: 1
# Building blocks:
#     Node 0, Type 0, BuildingBlock: MIDCAF_clean_sbu_0, # of connection points: 6
#     Node 1, Type 0, BuildingBlock: MIDCAF_clean_sbu_0, # of connection points: 6
#     Node 2, Type 1, BuildingBlock: QEWDON_clean_linker_0, # of connection points: 3
#     Node 3, Type 1, BuildingBlock: QEWDON_clean_linker_0, # of connection points: 3
#     Node 4, Type 1, BuildingBlock: QEWDON_clean_linker_0, # of connection points: 3
#     Node 5, Type 1, BuildingBlock: QEWDON_clean_linker_0, # of connection points: 3
#     Edge 6, Type (0, 1), BuildingBlock: TEMPAE_clean_linker_10, # of connection points: 2
#     Edge 7, Type (0, 1), BuildingBlock: TEMPAE_clean_linker_10, # of connection points: 2
#     Edge 8, Type (0, 1), BuildingBlock: TEMPAE_clean_linker_10, # of connection points: 2
#     Edge 9, Type (0, 1), BuildingBlock: TEMPAE_clean_linker_10, # of connection points: 2
#     Edge 10, Type (0, 1), BuildingBlock: TEMPAE_clean_linker_10, # of connection points: 2
#     Edge 11, Type (0, 1), BuildingBlock: TEMPAE_clean_linker_10, # of connection points: 2
#     Edge 12, Type (0, 1), BuildingBlock: TEMPAE_clean_linker_10, # of connection points: 2
#     Edge 13, Type (0, 1), BuildingBlock: TEMPAE_clean_linker_10, # of connection points: 2
#     Edge 14, Type (0, 1), BuildingBlock: TEMPAE_clean_linker_10, # of connection points: 2
#     Edge 15, Type (0, 1), BuildingBlock: TEMPAE_clean_linker_10, # of connection points: 2
#     Edge 16, Type (0, 1), BuildingBlock: TEMPAE_clean_linker_10, # of connection points: 2
#     Edge 17, Type (0, 1), BuildingBlock: TEMPAE_clean_linker_10, # of connection points: 2
# Relax obj value: 0.091
# Max RMSD: 0.153
# Mean RMSD: 0.150
data_MOF--net-tsx--node1-MIDCAF_clean_sbu_0--node2-QEWDON_clean_linker_0--edge1-TEMPAE_clean_linker_10
_symmetry_space_group_name_H-M    P1
_symmetry_Int_Tables_number       1
_symmetry_cell_setting            triclinic
loop_
_symmetry_equiv_pos_as_xyz
'x, y, z'
_cell_length_a     21.436883
_cell_length_b     21.989352
_cell_length_c     36.234267
_cell_angle_alpha  90.232701
_cell_angle_beta   108.25775
_cell_angle_gamma 90.017784
loop_
_atom_site_label
_atom_site_type_symbol
_atom_site_fract_x
_atom_site_fract_y
_atom_site_fract_z
_atom_type_partial_charge
Zn0 Zn 0.96301 0.00303 0.94286 0.0
Zn1 Zn 0.18121 0.98976 0.05428 0.0
Zn2 Zn 0.07325 0.00354 -0.0011 0.0
C3 C 0.15639 0.11502 0.04858 0.0
C4 C 0.20677 0.94018 -0.00898 0.0
O5 O 0.99744 0.94576 0.0141 0.0
O6 O 0.90766 0.95128 0.96341 0.0
C7 C 0.9942 0.12412 0.96665 0.0
O8 O 0.10485 0.09703 0.02135 0.0
O9 O 0.19826 0.07658 0.0669 0.0
O10 O 0.23491 0.94867 0.02684 0.0
O11 O 0.14685 0.95787 0.97548 0.0
O12 O 0.95074 0.09201 0.94312 0.0
O13 O 0.04514 0.09958 -0.00923 0.0
O14 O 0.09088 0.97382 0.94407 0.0
O15 O 0.99195 0.97067 0.90048 0.0
C16 C 0.05329 0.96479 0.9089 0.0
O17 O 0.05301 0.95386 0.04729 0.0
O18 O 0.15033 0.94376 0.09158 0.0
C19 C 0.93692 0.93073 -0.00323 0.0
C20 C 0.08888 0.93668 0.08137 0.0
Zn21 Zn 0.6701 0.53494 0.54765 0.0
Zn22 Zn 0.44576 0.49977 0.43249 0.0
Zn23 Zn 0.55552 0.52063 0.49142 0.0
C24 C 0.54941 0.45477 0.41005 0.0
C25 C 0.45805 0.62689 0.44549 0.0
O26 O 0.54188 0.48312 0.5442 0.0
O27 O 0.63791 0.5008 0.5887 0.0
C28 C 0.69869 0.45981 0.49445 0.0
O29 O 0.58153 0.47411 0.44436 0.0
O30 O 0.48762 0.45919 0.39754 0.0
O31 O 0.42142 0.58721 0.42393 0.0
O32 O 0.51136 0.61083 0.47188 0.0
O33 O 0.72757 0.48374 0.52705 0.0
O34 O 0.63701 0.47041 0.47748 0.0
O35 O 0.57497 0.61979 0.49741 0.0
O36 O 0.67295 0.62449 0.54209 0.0
C37 C 0.62458 0.65071 0.51835 0.0
O38 O 0.48562 0.46731 0.51335 0.0
O39 O 0.39994 0.44955 0.46122 0.0
C40 C 0.57977 0.48086 0.57962 0.0
C41 C 0.42849 0.44349 0.49716 0.0
H42 H 1.00081 0.06242 0.33021 0.0
C43 C 0.03825 0.0333 0.34896 0.0
C44 C 0.05043 0.97633 0.33515 0.0
C45 C 0.07993 0.05654 0.3841 0.0
H46 H 0.11125 0.89636 0.34782 0.0
C47 C 0.10038 0.93968 0.35887 0.0
C48 C 0.14245 0.96195 0.39434 0.0
C49 C 0.13306 0.02117 0.40643 0.0
C50 C 0.07483 0.12184 0.39241 0.0
H51 H 0.16769 0.04009 0.43252 0.0
C52 C 0.01755 0.1458 0.39813 0.0
C53 C 0.00904 0.2092 0.39963 0.0
C54 C 0.12401 0.16154 0.38911 0.0
H55 H 0.16799 0.14397 0.3842 0.0
C56 C 0.11519 0.22426 0.38987 0.0
H57 H 0.97939 0.11528 0.40065 0.0
C58 C 0.05778 0.248 0.39455 0.0
H59 H 0.05215 0.2969 0.39517 0.0
H60 H 0.15268 0.25462 0.3864 0.0
H61 H 0.08433 0.07466 0.62667 0.0
C62 C 0.03567 0.05509 0.61491 0.0
C63 C 0.00513 0.02982 0.64034 0.0
C64 C 0.00446 0.0529 0.57442 0.0
H65 H 0.92171 0.97954 0.64497 0.0
C66 C 0.94391 1.00122 0.62529 0.0
C67 C 0.91279 0.99715 0.58513 0.0
C68 C 0.94213 0.02489 0.55992 0.0
C69 C 0.03942 0.07385 0.54711 0.0
H70 H 0.91786 0.02172 0.52886 0.0
C71 C 0.07914 0.1267 0.55457 0.0
C72 C 0.11253 0.14466 0.52849 0.0
C73 C 0.03462 0.03919 0.51358 0.0
H74 H 0.00637 0.99746 0.50745 0.0
C75 C 0.06774 0.05677 0.48794 0.0
H76 H 0.0832 0.15427 0.58007 0.0
C77 C 0.10654 0.1089 0.49532 0.0
H78 H 0.13298 0.12086 0.47536 0.0
H79 H 0.06379 0.02935 0.46247 0.0
H80 H 0.50729 0.51547 0.85705 0.0
C81 C 0.55648 0.49702 0.86456 0.0
C82 C 0.57526 0.46447 0.83648 0.0
C83 C 0.60065 0.50378 0.90223 0.0
H84 H 0.65164 0.41197 0.8244 0.0
C85 C 0.63756 0.43758 0.84619 0.0
C86 C 0.68245 0.44497 0.88344 0.0
C87 C 0.66453 0.48014 0.9107 0.0
C88 C 0.57985 0.53094 0.93381 0.0
H89 H 0.69997 0.48673 0.93919 0.0
C90 C 0.5231 0.58959 0.92225 0.0
C91 C 0.49095 0.62918 0.95282 0.0
C92 C 0.61612 0.49962 0.9788 0.0
H93 H 0.6493 0.46154 0.98231 0.0
C94 C 0.5994 0.52529 0.01916 0.0
H95 H 0.50507 0.60295 0.89209 0.0
C96 C 0.51436 0.61382 0.00161 0.0
H97 H 0.49167 0.64095 0.01938 0.0
H98 H 0.62441 0.50262 0.04665 0.0
H99 H 0.59433 0.5427 0.13546 0.0
C100 C 0.54286 0.53061 0.12773 0.0
C101 C 0.5176 0.50843 0.15645 0.0
C102 C 0.50175 0.53479 0.08907 0.0
H103 H 0.43535 0.46425 0.16768 0.0
C104 C 0.45268 0.48674 0.14613 0.0
C105 C 0.41216 0.48924 0.10756 0.0
C106 C 0.43529 0.51802 0.08015 0.0
C107 C 0.52785 0.54943 0.05684 0.0
H108 H 0.40175 0.52267 0.05095 0.0
C109 C 0.59178 0.60133 0.06524 0.0
C110 C 0.62842 0.62836 0.03271 0.0
C111 C 0.4877 0.51328 0.01381 0.0
H112 H 0.45013 0.4797 0.0122 0.0
C113 C 0.50688 0.52664 0.97242 0.0
H114 H 0.61138 0.61892 0.09451 0.0
C115 C 0.60247 0.60525 0.98501 0.0
H116 H 0.62744 0.62473 0.96566 0.0
H117 H 0.47869 0.50168 0.94632 0.0
C118 C 0.21849 0.19534 0.09363 0.0
C119 C 0.1705 0.18018 0.05844 0.0
C120 C 0.24346 0.25446 0.10103 0.0
C121 C 0.21833 0.30038 0.07307 0.0
C122 C 0.16463 0.28701 0.03953 0.0
C123 C 0.14245 0.2266 0.03213 0.0
C124 C 0.30122 0.26606 0.13705 0.0
C125 C 0.13363 0.33521 0.00998 0.0
C126 C 0.30277 0.45047 0.11 0.0
C127 C 0.35426 0.44873 0.09393 0.0
C128 C 0.2532 0.4057 0.10018 0.0
C129 C 0.2576 0.35687 0.07542 0.0
C130 C 0.30791 0.35697 0.05776 0.0
C131 C 0.35493 0.40329 0.06685 0.0
C132 C 0.19823 0.4092 0.11782 0.0
C133 C 0.31565 0.30543 0.03179 0.0
H134 H 0.23966 0.16001 0.11459 0.0
H135 H 0.10633 0.21545 0.00474 0.0
H136 H 0.34546 0.27673 0.12855 0.0
H137 H 0.29149 0.30574 0.15335 0.0
H138 H 0.3125 0.22629 0.15685 0.0
H139 H 0.08128 0.32429 -0.00548 0.0
H140 H 0.13651 0.38074 0.02376 0.0
H141 H 0.15971 0.33734 0.98798 0.0
H142 H 0.30202 0.48593 0.13073 0.0
H143 H 0.39515 0.40165 0.05468 0.0
H144 H 0.21158 0.3826 0.14511 0.0
H145 H 0.15194 0.3901 0.09783 0.0
H146 H 0.18941 0.45691 0.12507 0.0
H147 H 0.32548 0.2624 0.04854 0.0
H148 H 0.35649 0.31343 0.01963 0.0
H149 H 0.26972 0.29907 0.0073 0.0
C150 C 0.21135 0.87476 0.93456 0.0
C151 C 0.24346 0.90708 0.96865 0.0
C152 C 0.24631 0.83525 0.91759 0.0
C153 C 0.314 0.82496 0.93668 0.0
C154 C 0.34743 0.86101 0.96939 0.0
C155 C 0.31195 0.90232 0.98443 0.0
C156 C 0.20937 0.80135 0.88102 0.0
C157 C 0.41944 0.85156 -0.00884 0.0
C158 C 0.38363 0.66744 0.95334 0.0
C159 C 0.43606 0.67204 0.93831 0.0
C160 C 0.33917 0.71513 0.9497 0.0
C161 C 0.34631 0.76826 0.92942 0.0
C162 C 0.39377 0.76953 0.90954 0.0
C163 C 0.43912 0.72139 0.91467 0.0
C164 C 0.2891 0.7109 0.97113 0.0
C165 C 0.39988 0.82332 0.88525 0.0
H166 H 0.15854 0.87686 0.92253 0.0
H167 H 0.33751 0.928 0.01038 0.0
H168 H 0.24247 0.7855 0.86476 0.0
H169 H 0.18451 0.76125 0.88861 0.0
H170 H 0.17069 0.83075 0.86172 0.0
H171 H 0.43859 0.88522 0.01499 0.0
H172 H 0.42692 0.80529 0.00396 0.0
H173 H 0.44902 0.85501 0.97108 0.0
H174 H 0.38003 0.62798 0.97045 0.0
H175 H 0.4791 0.72436 0.9024 0.0
H176 H 0.23913 0.71935 0.95096 0.0
H177 H 0.29947 0.74612 -0.00568 0.0
H178 H 0.28925 0.6657 0.98476 0.0
H179 H 0.35184 0.84619 0.87233 0.0
H180 H 0.41948 0.80914 0.86156 0.0
H181 H 0.43472 0.85679 0.90371 0.0
C182 C 0.83093 0.89075 0.00122 0.0
C183 C 0.89981 0.88976 0.01482 0.0
C184 C 0.79365 0.84852 0.01417 0.0
C185 C 0.82576 0.80604 0.04321 0.0
C186 C 0.89514 0.80786 0.05927 0.0
C187 C 0.93139 0.84757 0.04344 0.0
C188 C 0.72012 0.84681 -0.00538 0.0
C189 C 0.93193 0.76676 0.0921 0.0
C190 C 0.69435 0.71692 0.06957 0.0
C191 C 0.688 0.66684 0.04466 0.0
C192 C 0.74492 0.75989 0.07336 0.0
C193 C 0.78738 0.75346 0.05038 0.0
C194 C 0.78471 0.6997 0.02837 0.0
C195 C 0.73635 0.65637 0.02684 0.0
C196 C 0.7505 0.81358 0.10022 0.0
C197 C 0.82906 0.68998 0.00361 0.0
H198 H 0.8059 0.92311 0.97902 0.0
H199 H 0.98441 0.84463 0.05308 0.0
H200 H 0.70505 0.80128 0.98147 0.0
H201 H 0.69426 0.8548 0.01629 0.0
H202 H 0.70332 0.88153 0.97143 0.0
H203 H 0.9727 0.7922 0.11309 0.0
H204 H 0.8998 0.74764 0.10796 0.0
H205 H 0.95443 0.72887 0.08044 0.0
H206 H 0.65818 0.72432 0.08436 0.0
H207 H 0.73404 0.61565 0.00949 0.0
H208 H 0.72051 0.85174 0.08406 0.0
H209 H 0.80219 0.8294 0.11216 0.0
H210 H 0.7319 0.80198 0.1247 0.0
H211 H 0.82425 0.72847 0.98317 0.0
H212 H 0.8177 0.64715 0.98641 0.0
H213 H 0.88095 0.68814 0.02233 0.0
C214 C 0.9885 0.2232 0.93451 0.0
C215 C 0.98302 0.18962 0.96603 0.0
C216 C 0.95541 0.27861 0.92461 0.0
C217 C 0.91446 0.29903 0.94605 0.0
C218 C 0.91621 0.2692 0.98096 0.0
C219 C 0.95077 0.2144 -0.0094 0.0
C220 C 0.95738 0.31081 0.88832 0.0
C221 C 0.87431 0.29024 0.0051 0.0
C222 C 0.80372 0.43756 0.91832 0.0
C223 C 0.74488 0.4105 0.89547 0.0
C224 C 0.86075 0.40259 0.93387 0.0
C225 C 0.85806 0.33915 0.92692 0.0
C226 C 0.7993 0.31217 0.90272 0.0
C227 C 0.74367 0.34825 0.88717 0.0
C228 C 0.92262 0.4333 0.95887 0.0
C229 C 0.79411 0.24454 0.8945 0.0
H230 H 0.0139 0.20364 0.91569 0.0
H231 H 0.94677 0.18792 0.01495 0.0
H232 H 0.91356 0.29769 0.86375 0.0
H233 H 0.9563 0.36088 0.89201 0.0
H234 H 1.00194 0.29837 0.88055 0.0
H235 H 0.88991 0.26923 0.03441 0.0
H236 H 0.8764 0.3404 0.00844 0.0
H237 H 0.82238 0.27737 -0.00981 0.0
H238 H 0.80484 0.48587 0.9246 0.0
H239 H 0.69808 0.32705 0.87002 0.0
H240 H 0.96713 0.41231 0.95484 0.0
H241 H 0.92598 0.4284 -0.01012 0.0
H242 H 0.92253 0.48265 0.95241 0.0
H243 H 0.83154 0.23031 0.88093 0.0
H244 H 0.74493 0.23108 0.87482 0.0
H245 H 0.80369 0.2191 0.92211 0.0
C246 C 0.6663 0.73426 0.4879 0.0
C247 C 0.63096 0.71612 0.51253 0.0
C248 C 0.69914 0.79041 0.49337 0.0
C249 C 0.6959 0.82913 0.52407 0.0
C250 C 0.65247 0.81444 0.54527 0.0
C251 C 0.62122 0.7574 0.53966 0.0
C252 C 0.74468 0.80381 0.46998 0.0
C253 C 0.64561 0.85523 0.57732 0.0
C254 C 0.85938 0.89647 0.58345 0.0
C255 C 0.85516 0.95632 0.56985 0.0
C256 C 0.80762 0.85531 0.56891 0.0
C257 C 0.74931 0.87452 0.54025 0.0
C258 C 0.74414 0.93529 0.52671 0.0
C259 C 0.79762 0.97544 0.54139 0.0
C260 C 0.81609 0.79074 0.58384 0.0
C261 C 0.68232 0.95771 0.49686 0.0
H262 H 0.67435 0.70179 0.46723 0.0
H263 H 0.59421 0.74299 0.5589 0.0
H264 H 0.74403 0.85279 0.46276 0.0
H265 H 0.79568 0.79192 0.48746 0.0
H266 H 0.7315 0.77688 0.4426 0.0
H267 H 0.5992 0.84592 0.58384 0.0
H268 H 0.68728 0.84702 0.60412 0.0
H269 H 0.64679 0.90386 0.56954 0.0
H270 H 0.90423 0.88132 0.60498 0.0
H271 H 0.79433 0.02181 0.53091 0.0
H272 H 0.8104 0.75846 0.55938 0.0
H273 H 0.77764 0.77971 0.59733 0.0
H274 H 0.8649 0.78308 0.60575 0.0
H275 H 0.67215 0.93058 0.46975 0.0
H276 H 0.6857 0.00647 0.48979 0.0
H277 H 0.63981 0.95153 0.50776 0.0
C278 C 0.70724 0.37101 0.45223 0.0
C279 C 0.73694 0.41968 0.47653 0.0
C280 C 0.7444 0.33194 0.43641 0.0
C281 C 0.8131 0.34101 0.44589 0.0
C282 C 0.84324 0.38996 0.47058 0.0
C283 C 0.80485 0.42859 0.48551 0.0
C284 C 0.71029 0.28079 0.40985 0.0
C285 C 0.91626 0.40153 0.48137 0.0
C286 C 0.9342 0.2176 0.44037 0.0
C287 C 0.95095 0.23589 0.40769 0.0
C288 C 0.88638 0.24923 0.45196 0.0
C289 C 0.85432 0.30006 0.43015 0.0
C290 C 0.86806 0.31608 0.39568 0.0
C291 C 0.9165 0.28405 0.38502 0.0
C292 C 0.8733 0.2306 0.4889 0.0
C293 C 0.8345 0.36939 0.3713 0.0
H294 H 0.65515 0.36282 0.44611 0.0
H295 H 0.8282 0.46602 0.50437 0.0
H296 H 0.7203 0.28394 0.38168 0.0
H297 H 0.72986 0.23647 0.42298 0.0
H298 H 0.65626 0.28132 0.40416 0.0
H299 H 0.93214 0.44127 0.50113 0.0
H300 H 0.94377 0.3609 0.49585 0.0
H301 H 0.93011 0.40978 0.45477 0.0
H302 H 0.9611 0.18069 0.45812 0.0
H303 H 0.92893 0.29788 0.35949 0.0
H304 H 0.81969 0.22723 0.48407 0.0
H305 H 0.89309 0.26578 0.51162 0.0
H306 H 0.89649 0.18632 0.50004 0.0
H307 H 0.78068 0.36766 0.36604 0.0
H308 H 0.84377 0.37078 0.34282 0.0
H309 H 0.8528 0.4124 0.38711 0.0
C310 C 0.34884 0.43049 0.53383 0.0
C311 C 0.39617 0.40534 0.51903 0.0
C312 C 0.30553 0.39299 0.54565 0.0
C313 C 0.30765 0.32921 0.54055 0.0
C314 C 0.35782 0.30369 0.52751 0.0
C315 C 0.40186 0.34219 0.51723 0.0
C316 C 0.25343 0.42175 0.55996 0.0
C317 C 0.36092 0.23616 0.52059 0.0
C318 C 0.20502 0.20916 0.57046 0.0
C319 C 0.15488 0.19974 0.53517 0.0
C320 C 0.25298 0.25457 0.57386 0.0
C321 C 0.25083 0.29049 0.54109 0.0
C322 C 0.19701 0.28439 0.50659 0.0
C323 C 0.14979 0.23929 0.50417 0.0
C324 C 0.30781 0.26171 0.61171 0.0
C325 C 0.19157 0.32171 0.47081 0.0
H326 H 0.34355 0.4795 0.53428 0.0
H327 H 0.43758 0.32305 0.50489 0.0
H328 H 0.2046 0.41628 0.5377 0.0
H329 H 0.25131 0.39861 0.5867 0.0
H330 H 0.26245 0.47104 0.56616 0.0
H331 H 0.40645 0.22301 0.51412 0.0
H332 H 0.35843 0.21031 0.5463 0.0
H333 H 0.318 0.22241 0.49561 0.0
H334 H 0.20892 0.17895 0.59464 0.0
H335 H 0.11022 0.23299 0.4772 0.0
H336 H 0.31912 0.3105 0.61864 0.0
H337 H 0.35296 0.23993 0.60918 0.0
H338 H 0.29543 0.24013 0.63621 0.0
H339 H 0.1397 0.32603 0.45233 0.0
H340 H 0.21957 0.2988 0.45365 0.0
H341 H 0.2117 0.36818 0.47792 0.0
C342 C 0.39295 0.71112 0.40642 0.0
C343 C 0.43416 0.6904 0.44229 0.0
C344 C 0.35597 0.76438 0.40381 0.0
C345 C 0.3595 0.79747 0.43804 0.0
C346 C 0.40539 0.77969 0.47389 0.0
C347 C 0.4425 0.72629 0.47558 0.0
C348 C 0.30914 0.78237 0.36473 0.0
C349 C 0.41144 0.81382 0.51103 0.0
C350 C 0.26396 0.94566 0.41654 0.0
C351 C 0.20108 0.92555 0.41493 0.0
C352 C 0.31793 0.90571 0.42704 0.0
C353 C 0.30856 0.84458 0.4364 0.0
C354 C 0.24618 0.82593 0.43809 0.0
C355 C 0.19305 0.86645 0.42689 0.0
C356 C 0.3834 0.92754 0.42487 0.0
C357 C 0.23416 0.76164 0.44871 0.0
H358 H 0.38692 0.68378 0.38055 0.0
H359 H 0.47404 0.71028 0.50343 0.0
H360 H 0.25788 0.77349 0.36419 0.0
H361 H 0.3134 0.83168 0.35963 0.0
H362 H 0.31822 0.75661 0.34048 0.0
H363 H 0.45895 0.80414 0.53372 0.0
H364 H 0.40706 0.86359 0.50604 0.0
H365 H 0.37109 0.79956 0.52222 0.0
H366 H 0.26998 0.99127 0.40688 0.0
H367 H 0.14435 0.851 0.42557 0.0
H368 H 0.39069 0.91014 0.39773 0.0
H369 H 0.42424 0.90995 0.4496 0.0
H370 H 0.38624 0.97799 0.42475 0.0
H371 H 0.23525 0.73031 0.42482 0.0
H372 H 0.18588 0.7567 0.45373 0.0
H373 H 0.27341 0.7472 0.47529 0.0
C374 C 0.99644 0.93821 0.10988 0.0
C375 C 0.05923 0.91797 0.11133 0.0
C376 C 0.97434 0.93274 0.1423 0.0
C377 C 0.01827 0.9118 0.17778 0.0
C378 C 0.07912 0.88607 0.17834 0.0
C379 C 0.0983 0.88852 0.14483 0.0
C380 C 0.90635 0.95457 0.13944 0.0
C381 C 0.12734 0.86237 0.21543 0.0
C382 C 0.03875 0.00585 0.26772 0.0
C383 C 0.0257 0.96327 0.29296 0.0
C384 C 0.03217 0.99065 0.22925 0.0
C385 C 0.00985 0.93172 0.21516 0.0
C386 C 0.9901 0.89052 0.23937 0.0
C387 C 0.99985 0.90625 0.27848 0.0
C388 C 0.05493 0.03609 0.20491 0.0
C389 C 0.96217 0.82871 0.22504 0.0
H390 H 0.96585 0.96138 0.08428 0.0
H391 H 0.14647 0.87193 0.14592 0.0
H392 H 0.88627 0.92925 0.15966 0.0
H393 H 0.90818 0.00355 0.14713 0.0
H394 H 0.87237 0.9491 0.10934 0.0
H395 H 0.17111 0.8412 0.21048 0.0
H396 H 0.14415 0.90027 0.23657 0.0
H397 H 0.10332 0.82809 0.22881 0.0
H398 H 0.05953 0.04968 0.279 0.0
H399 H 0.98945 0.87334 0.29797 0.0
H400 H 0.0144 0.04658 0.17805 0.0
H401 H 0.09596 0.01662 0.19613 0.0
H402 H 0.072 0.07947 0.22066 0.0
H403 H 0.94152 0.82661 0.19288 0.0
H404 H 0.92299 0.81647 0.23777 0.0
H405 H 1.00137 0.79399 0.23477 0.0
C406 C 0.12644 1.00039 0.87213 0.0
C407 C 0.08003 0.95836 0.87632 0.0
C408 C 0.13361 0.01102 0.83543 0.0
C409 C 0.09406 0.9781 0.80277 0.0
C410 C 0.05448 0.92956 0.80829 0.0
C411 C 0.04731 0.92079 0.845 0.0
C412 C 0.17737 0.0623 0.83098 0.0
C413 C 0.01325 0.89177 0.77457 0.0
C414 C 0.00677 0.05426 0.70747 0.0
C415 C 0.03802 0.02818 0.68274 0.0
C416 C 0.02838 0.04214 0.74737 0.0
C417 C 0.08201 0.00206 0.76278 0.0
C418 C 0.11678 0.97914 0.73832 0.0
C419 C 0.0943 0.9926 0.69838 0.0
C420 C 0.99041 0.06852 0.77244 0.0
C421 C 0.17425 0.93662 0.75351 0.0
H422 H 0.15183 0.02945 0.89646 0.0
H423 H 0.01193 0.88783 0.84847 0.0
H424 H 0.20149 0.05115 0.80882 0.0
H425 H 0.14714 0.10365 0.82116 0.0
H426 H 0.21574 0.07304 0.85894 0.0
H427 H 0.99433 0.84992 0.7845 0.0
H428 H 0.97065 0.91902 0.75721 0.0
H429 H 0.04204 0.87852 0.75518 0.0
H430 H 0.96322 0.08173 0.69517 0.0
H431 H 0.11805 0.97204 0.67904 0.0
H432 H 0.02442 0.08903 0.79923 0.0
H433 H 0.9628 0.03174 0.78139 0.0
H434 H 0.95483 0.10381 0.75695 0.0
H435 H 0.20495 0.94973 0.78325 0.0
H436 H 0.20554 0.93563 0.73419 0.0
H437 H 0.15565 0.88989 0.75496 0.0
C438 C 0.59976 0.43913 0.64555 0.0
C439 C 0.55502 0.46036 0.61105 0.0
C440 C 0.58155 0.43286 0.67911 0.0
C441 C 0.51624 0.44668 0.67776 0.0
C442 C 0.46917 0.46252 0.64204 0.0
C443 C 0.48954 0.47017 0.60911 0.0
C444 C 0.63399 0.41671 0.71671 0.0
C445 C 0.39817 0.47356 0.63881 0.0
C446 C 0.51231 0.40785 0.77694 0.0
C447 C 0.53391 0.46337 0.79568 0.0
C448 C 0.49453 0.4035 0.73634 0.0
C449 C 0.50244 0.45498 0.71501 0.0
C450 C 0.51539 0.51264 0.73349 0.0
C451 C 0.53035 0.51617 0.77386 0.0
C452 C 0.47471 0.34267 0.71685 0.0
C453 C 0.52277 0.5691 0.7116 0.0
H454 H 0.65035 0.43105 0.64694 0.0
H455 H 0.45552 0.48817 0.58277 0.0
H456 H 0.64053 0.4547 0.73786 0.0
H457 H 0.61912 0.37598 0.72983 0.0
H458 H 0.68221 0.40723 0.71249 0.0
H459 H 0.37294 0.42897 0.63652 0.0
H460 H 0.39302 0.49723 0.66477 0.0
H461 H 0.37264 0.50066 0.61265 0.0
H462 H 0.51427 0.3672 0.79411 0.0
H463 H 0.5468 0.55901 0.78868 0.0
H464 H 0.5183 0.31991 0.71281 0.0
H465 H 0.43777 0.34839 0.68773 0.0
H466 H 0.45413 0.3125 0.73468 0.0
H467 H 0.56803 0.56546 0.70303 0.0
H468 H 0.52625 0.611 0.72938 0.0
H469 H 0.48058 0.57378 0.68466 0.0
C470 C 0.64095 0.4682 0.38216 0.0
C471 C 0.58388 0.43712 0.38233 0.0
C472 C 0.65918 0.47028 0.34822 0.0
C473 C 0.61789 0.44257 0.31401 0.0
C474 C 0.56831 0.40171 0.31651 0.0
C475 C 0.55167 0.39965 0.35084 0.0
C476 C 0.71658 0.5093 0.34757 0.0
C477 C 0.52562 0.36802 0.28124 0.0
C478 C 0.53994 0.53566 0.22527 0.0
C479 C 0.55874 0.50349 0.19725 0.0
C480 C 0.56508 0.52037 0.26451 0.0
C481 C 0.60989 0.47118 0.27578 0.0
C482 C 0.63474 0.44325 0.24801 0.0
C483 C 0.60834 0.45957 0.2087 0.0
C484 C 0.53815 0.55288 0.29311 0.0
C485 C 0.68484 0.39291 0.25882 0.0
H486 H 0.66714 0.49622 0.40682 0.0
H487 H 0.5089 0.37386 0.35152 0.0
H488 H 0.73886 0.49255 0.32561 0.0
H489 H 0.69953 0.55661 0.33996 0.0
H490 H 0.75472 0.5102 0.37657 0.0
H491 H 0.49625 0.3317 0.28925 0.0
H492 H 0.49123 0.40044 0.26162 0.0
H493 H 0.55608 0.34719 0.26489 0.0
H494 H 0.5019 0.56995 0.21605 0.0
H495 H 0.62299 0.43496 0.18676 0.0
H496 H 0.57884 0.56939 0.31839 0.0
H497 H 0.50789 0.52101 0.30405 0.0
H498 H 0.50706 0.59245 0.27987 0.0
H499 H 0.71278 0.39299 0.29029 0.0
H500 H 0.71994 0.397 0.242 0.0
H501 H 0.65956 0.34842 0.25115 0.0
loop_
_geom_bond_atom_site_label_1
_geom_bond_atom_site_label_2
_geom_bond_distance
_geom_bond_site_symmetry_2
_ccdc_geom_bond_type
Zn0 O6 1.920 1_545 S
Zn0 O12 1.898 . S
Zn0 O15 1.905 1_545 S
Zn1 O9 1.905 . S
Zn1 O10 1.898 1_545 S
Zn1 O18 1.920 1_545 S
Zn2 O5 2.080 1_444 S
Zn2 O8 2.114 . S
Zn2 O11 2.120 1_545 S
Zn2 O13 2.116 1_455 S
Zn2 O14 2.114 1_554 S
Zn2 O17 2.080 . S
C3 O8 1.166 . S
C3 O9 1.182 . S
C4 O10 1.167 . S
C4 O11 1.299 . S
O5 Zn2 2.080 1_666 S
O5 C19 1.305 . S
O6 Zn0 1.920 1_565 S
O6 C19 1.234 . S
C7 O12 1.167 . S
C7 O13 1.285 1_556 S
O8 Zn2 2.114 . S
O8 C3 1.166 . S
O9 Zn1 1.905 . S
O9 C3 1.182 . S
O10 Zn1 1.898 1_565 S
O10 C4 1.167 . S
O11 Zn2 2.120 1_565 S
O11 C4 1.299 . S
O12 Zn0 1.898 . S
O12 C7 1.167 . S
O13 Zn2 2.116 1_655 S
O13 C7 1.285 1_554 S
O14 Zn2 2.114 1_556 S
O14 C16 1.169 1_545 S
O15 Zn0 1.905 1_565 S
O15 C16 1.176 1_655 S
C16 O14 1.169 1_565 S
C16 O15 1.176 1_455 S
O17 Zn2 2.080 . S
O17 C20 1.305 1_545 S
O18 Zn1 1.920 1_565 S
O18 C20 1.234 . S
C19 O5 1.305 . S
C19 O6 1.234 . S
C20 O17 1.305 1_565 S
C20 O18 1.234 . S
Zn21 O27 1.920 . S
Zn21 O33 1.898 . S
Zn21 O36 1.905 . S
Zn22 O30 1.905 . S
Zn22 O31 1.898 . S
Zn22 O39 1.920 . S
Zn23 O26 2.080 . S
Zn23 O29 2.114 . S
Zn23 O32 2.120 . S
Zn23 O34 2.120 . S
Zn23 O35 2.114 . S
Zn23 O38 2.080 . S
C24 O29 1.166 . S
C24 O30 1.182 . S
C25 O31 1.167 . S
C25 O32 1.299 . S
O26 Zn23 2.080 . S
O26 C40 1.305 . S
O27 Zn21 1.920 . S
O27 C40 1.234 . S
C28 O33 1.167 . S
C28 O34 1.299 . S
O29 Zn23 2.114 . S
O29 C24 1.166 . S
O30 Zn22 1.905 . S
O30 C24 1.182 . S
O31 Zn22 1.898 . S
O31 C25 1.167 . S
O32 Zn23 2.120 . S
O32 C25 1.299 . S
O33 Zn21 1.898 . S
O33 C28 1.167 . S
O34 Zn23 2.120 . S
O34 C28 1.299 . S
O35 Zn23 2.114 . S
O35 C37 1.166 . S
O36 Zn21 1.905 . S
O36 C37 1.182 . S
C37 O35 1.166 . S
C37 O36 1.182 . S
O38 Zn23 2.080 . S
O38 C41 1.305 . S
O39 Zn22 1.920 . S
O39 C41 1.234 . S
C40 O26 1.305 . S
C40 O27 1.234 . S
C41 O38 1.305 . S
C41 O39 1.234 . S
H42 C43 0.949 . S
C43 H42 0.949 . S
C43 C44 1.395 . S
C43 C45 1.391 . S
C44 C43 1.395 . S
C44 C47 1.390 1_545 S
C45 C43 1.391 . S
C45 C49 1.387 . S
C45 C50 1.491 . S
H46 C47 0.950 . S
C47 C44 1.390 1_565 S
C47 H46 0.950 . S
C47 C48 1.378 . S
C48 C47 1.378 . S
C48 C49 1.409 1_565 S
C49 C45 1.387 . S
C49 C48 1.409 1_545 S
C49 H51 0.951 1_545 S
C50 C45 1.491 . S
C50 C52 1.382 . S
C50 C54 1.404 . S
H51 C49 0.951 1_565 S
C52 C50 1.382 . S
C52 C53 1.390 . S
C52 H57 0.949 . S
C53 C52 1.390 . S
C53 C58 1.399 . S
C54 C50 1.404 . S
C54 H55 0.950 . S
C54 C56 1.375 . S
H55 C54 0.950 . S
C56 C54 1.375 . S
C56 C58 1.382 . S
C56 H60 0.950 . S
H57 C52 0.949 . S
C58 C53 1.399 . S
C58 C56 1.382 . S
C58 H59 0.952 . S
H59 C58 0.952 . S
H60 C56 0.950 . S
H61 C62 0.949 . S
C62 H61 0.949 . S
C62 C63 1.395 1_455 S
C62 C64 1.391 1_455 S
C63 C62 1.395 1_655 S
C63 C66 1.390 1_545 S
C64 C62 1.391 1_655 S
C64 C68 1.387 1_545 S
C64 C69 1.491 1_655 S
H65 C66 0.950 . S
C66 C63 1.390 1_565 S
C66 H65 0.950 . S
C66 C67 1.378 . S
C67 C66 1.378 . S
C67 C68 1.409 . S
C68 C64 1.387 1_565 S
C68 C67 1.409 . S
C68 H70 0.951 . S
C69 C64 1.491 1_455 S
C69 C71 1.382 . S
C69 C73 1.404 1_455 S
H70 C68 0.951 . S
C71 C69 1.382 . S
C71 C72 1.390 . S
C71 H76 0.949 . S
C72 C71 1.390 . S
C72 C77 1.399 . S
C73 C69 1.404 1_655 S
C73 H74 0.950 . S
C73 C75 1.375 . S
H74 C73 0.950 . S
C75 C73 1.375 . S
C75 C77 1.382 1_655 S
C75 H79 0.950 . S
H76 C71 0.949 . S
C77 C72 1.399 . S
C77 C75 1.382 1_455 S
C77 H78 0.952 . S
H78 C77 0.952 . S
H79 C75 0.950 . S
H80 C81 0.949 . S
C81 H80 0.949 . S
C81 C82 1.395 . S
C81 C83 1.391 . S
C82 C81 1.395 . S
C82 C85 1.390 . S
C83 C81 1.391 . S
C83 C87 1.387 . S
C83 C88 1.491 . S
H84 C85 0.950 . S
C85 C82 1.390 . S
C85 H84 0.950 . S
C85 C86 1.378 . S
C86 C85 1.378 . S
C86 C87 1.409 . S
C87 C83 1.387 . S
C87 C86 1.409 . S
C87 H89 0.951 . S
C88 C83 1.491 . S
C88 C90 1.382 . S
C88 C92 1.404 1_556 S
H89 C87 0.951 . S
C90 C88 1.382 . S
C90 C91 1.390 . S
C90 H95 0.949 . S
C91 C90 1.390 . S
C91 C96 1.399 1_556 S
C92 C88 1.404 1_554 S
C92 H93 0.950 . S
C92 C94 1.375 . S
H93 C92 0.950 . S
C94 C92 1.375 . S
C94 C96 1.382 . S
C94 H98 0.950 . S
H95 C90 0.949 . S
C96 C91 1.399 1_554 S
C96 C94 1.382 . S
C96 H97 0.952 . S
H97 C96 0.952 . S
H98 C94 0.950 . S
H99 C100 0.949 . S
C100 H99 0.949 . S
C100 C101 1.395 . S
C100 C102 1.391 . S
C101 C100 1.395 . S
C101 C104 1.390 . S
C102 C100 1.391 . S
C102 C106 1.387 . S
C102 C107 1.491 . S
H103 C104 0.950 . S
C104 C101 1.390 . S
C104 H103 0.950 . S
C104 C105 1.378 . S
C105 C104 1.378 . S
C105 C106 1.409 . S
C106 C102 1.387 . S
C106 C105 1.409 . S
C106 H108 0.951 . S
C107 C102 1.491 . S
C107 C109 1.382 . S
C107 C111 1.404 . S
H108 C106 0.951 . S
C109 C107 1.382 . S
C109 C110 1.390 . S
C109 H114 0.949 . S
C110 C109 1.390 . S
C110 C115 1.399 1_554 S
C111 C107 1.404 . S
C111 H112 0.950 1_554 S
C111 C113 1.375 1_554 S
H112 C111 0.950 1_556 S
C113 C111 1.375 1_556 S
C113 C115 1.382 . S
C113 H117 0.950 . S
H114 C109 0.949 . S
C115 C110 1.399 1_556 S
C115 C113 1.382 . S
C115 H116 0.952 . S
H116 C115 0.952 . S
H117 C113 0.950 . S
C118 C119 1.391 . S
C118 C120 1.394 . S
C118 H134 0.931 . S
C119 C118 1.391 . S
C119 C123 1.376 1_554 S
C120 C118 1.394 . S
C120 C121 1.369 . S
C120 C124 1.531 . S
C121 C120 1.369 . S
C121 C122 1.410 . S
C121 C129 1.503 . S
C122 C121 1.410 . S
C122 C123 1.392 1_554 S
C122 C125 1.511 1_554 S
C123 C119 1.376 1_556 S
C123 C122 1.392 1_556 S
C123 H135 0.929 . S
C124 C120 1.531 . S
C124 H136 0.960 . S
C124 H137 0.962 . S
C124 H138 0.960 . S
C125 C122 1.511 1_556 S
C125 H139 0.961 . S
C125 H140 0.961 . S
C125 H141 0.961 . S
C126 C127 1.370 . S
C126 C128 1.363 . S
C126 H142 0.931 . S
C127 C126 1.370 . S
C127 C131 1.408 . S
C128 C126 1.363 . S
C128 C129 1.370 . S
C128 C132 1.524 . S
C129 C121 1.503 . S
C129 C128 1.370 . S
C129 C130 1.403 . S
C130 C129 1.403 . S
C130 C131 1.404 . S
C130 C133 1.539 . S
C131 C127 1.408 . S
C131 C130 1.404 . S
C131 H143 0.930 . S
C132 C128 1.524 . S
C132 H144 0.956 . S
C132 H145 0.961 . S
C132 H146 0.961 . S
C133 C130 1.539 . S
C133 H147 0.958 . S
C133 H148 0.961 . S
C133 H149 0.960 . S
H134 C118 0.931 . S
H135 C123 0.929 . S
H136 C124 0.960 . S
H137 C124 0.962 . S
H138 C124 0.960 . S
H139 C125 0.961 . S
H140 C125 0.961 . S
H141 C125 0.961 . S
H142 C126 0.931 . S
H143 C131 0.930 . S
H144 C132 0.956 . S
H145 C132 0.961 . S
H146 C132 0.961 . S
H147 C133 0.958 . S
H148 C133 0.961 . S
H149 C133 0.960 . S
C150 C151 1.391 . S
C150 C152 1.394 . S
C150 H166 0.931 . S
C151 C150 1.391 . S
C151 C155 1.376 1_556 S
C152 C150 1.394 . S
C152 C153 1.369 . S
C152 C156 1.531 . S
C153 C152 1.369 . S
C153 C154 1.410 . S
C153 C161 1.503 . S
C154 C153 1.410 . S
C154 C155 1.392 1_556 S
C154 C157 1.511 1_556 S
C155 C151 1.376 1_554 S
C155 C154 1.392 1_554 S
C155 H167 0.929 . S
C156 C152 1.531 . S
C156 H168 0.960 . S
C156 H169 0.962 . S
C156 H170 0.960 . S
C157 C154 1.511 1_554 S
C157 H171 0.961 . S
C157 H172 0.961 . S
C157 H173 0.961 1_554 S
C158 C159 1.370 1_554 S
C158 C160 1.363 . S
C158 H174 0.931 . S
C159 C158 1.370 1_556 S
C159 C163 1.408 . S
C160 C158 1.363 . S
C160 C161 1.370 1_554 S
C160 C164 1.524 . S
C161 C153 1.503 . S
C161 C160 1.370 1_556 S
C161 C162 1.403 . S
C162 C161 1.403 . S
C162 C163 1.404 . S
C162 C165 1.539 . S
C163 C159 1.408 . S
C163 C162 1.404 . S
C163 H175 0.930 . S
C164 C160 1.524 . S
C164 H176 0.956 . S
C164 H177 0.961 . S
C164 H178 0.961 . S
C165 C162 1.539 . S
C165 H179 0.958 . S
C165 H180 0.961 . S
C165 H181 0.960 . S
H166 C150 0.931 . S
H167 C155 0.929 . S
H168 C156 0.960 . S
H169 C156 0.962 . S
H170 C156 0.960 . S
H171 C157 0.961 . S
H172 C157 0.961 . S
H173 C157 0.961 1_556 S
H174 C158 0.931 . S
H175 C163 0.930 . S
H176 C164 0.956 . S
H177 C164 0.961 . S
H178 C164 0.961 . S
H179 C165 0.958 . S
H180 C165 0.961 . S
H181 C165 0.960 . S
C182 C183 1.391 1_556 S
C182 C184 1.394 . S
C182 H198 0.931 . S
C183 C182 1.391 1_554 S
C183 C187 1.376 . S
C184 C182 1.394 . S
C184 C185 1.369 1_556 S
C184 C188 1.531 . S
C185 C184 1.369 1_554 S
C185 C186 1.410 . S
C185 C193 1.503 . S
C186 C185 1.410 . S
C186 C187 1.392 . S
C186 C189 1.511 . S
C187 C183 1.376 . S
C187 C186 1.392 . S
C187 H199 0.929 . S
C188 C184 1.531 . S
C188 H200 0.960 . S
C188 H201 0.962 . S
C188 H202 0.960 . S
C189 C186 1.511 . S
C189 H203 0.961 . S
C189 H204 0.961 . S
C189 H205 0.961 . S
C190 C191 1.370 . S
C190 C192 1.363 . S
C190 H206 0.931 . S
C191 C190 1.370 . S
C191 C195 1.408 . S
C192 C190 1.363 . S
C192 C193 1.370 . S
C192 C196 1.524 . S
C193 C185 1.503 . S
C193 C192 1.370 . S
C193 C194 1.403 . S
C194 C193 1.403 . S
C194 C195 1.404 . S
C194 C197 1.539 . S
C195 C191 1.408 . S
C195 C194 1.404 . S
C195 H207 0.930 . S
C196 C192 1.524 . S
C196 H208 0.956 . S
C196 H209 0.961 . S
C196 H210 0.961 . S
C197 C194 1.539 . S
C197 H211 0.958 1_554 S
C197 H212 0.961 . S
C197 H213 0.960 . S
H198 C182 0.931 . S
H199 C187 0.929 . S
H200 C188 0.960 . S
H201 C188 0.962 . S
H202 C188 0.960 . S
H203 C189 0.961 . S
H204 C189 0.961 . S
H205 C189 0.961 . S
H206 C190 0.931 . S
H207 C195 0.930 . S
H208 C196 0.956 . S
H209 C196 0.961 . S
H210 C196 0.961 . S
H211 C197 0.958 1_556 S
H212 C197 0.961 . S
H213 C197 0.960 . S
C214 C215 1.391 . S
C214 C216 1.394 . S
C214 H230 0.931 . S
C215 C214 1.391 . S
C215 C219 1.376 . S
C216 C214 1.394 . S
C216 C217 1.369 . S
C216 C220 1.531 . S
C217 C216 1.369 . S
C217 C218 1.410 . S
C217 C225 1.503 . S
C218 C217 1.410 . S
C218 C219 1.392 . S
C218 C221 1.511 . S
C219 C215 1.376 . S
C219 C218 1.392 . S
C219 H231 0.929 . S
C220 C216 1.531 . S
C220 H232 0.960 . S
C220 H233 0.962 . S
C220 H234 0.960 . S
C221 C218 1.511 . S
C221 H235 0.961 1_556 S
C221 H236 0.961 . S
C221 H237 0.961 . S
C222 C223 1.370 . S
C222 C224 1.363 . S
C222 H238 0.931 . S
C223 C222 1.370 . S
C223 C227 1.408 . S
C224 C222 1.363 . S
C224 C225 1.370 . S
C224 C228 1.524 1_556 S
C225 C217 1.503 . S
C225 C224 1.370 . S
C225 C226 1.403 . S
C226 C225 1.403 . S
C226 C227 1.404 . S
C226 C229 1.539 . S
C227 C223 1.408 . S
C227 C226 1.404 . S
C227 H239 0.930 . S
C228 C224 1.524 1_554 S
C228 H240 0.956 . S
C228 H241 0.961 . S
C228 H242 0.961 . S
C229 C226 1.539 . S
C229 H243 0.958 . S
C229 H244 0.961 . S
C229 H245 0.960 . S
H230 C214 0.931 . S
H231 C219 0.929 . S
H232 C220 0.960 . S
H233 C220 0.962 . S
H234 C220 0.960 . S
H235 C221 0.961 1_554 S
H236 C221 0.961 . S
H237 C221 0.961 . S
H238 C222 0.931 . S
H239 C227 0.930 . S
H240 C228 0.956 . S
H241 C228 0.961 . S
H242 C228 0.961 . S
H243 C229 0.958 . S
H244 C229 0.961 . S
H245 C229 0.960 . S
C246 C247 1.391 . S
C246 C248 1.394 . S
C246 H262 0.931 . S
C247 C246 1.391 . S
C247 C251 1.376 . S
C248 C246 1.394 . S
C248 C249 1.369 . S
C248 C252 1.531 . S
C249 C248 1.369 . S
C249 C250 1.410 . S
C249 C257 1.503 . S
C250 C249 1.410 . S
C250 C251 1.392 . S
C250 C253 1.511 . S
C251 C247 1.376 . S
C251 C250 1.392 . S
C251 H263 0.929 . S
C252 C248 1.531 . S
C252 H264 0.960 . S
C252 H265 0.962 . S
C252 H266 0.960 . S
C253 C250 1.511 . S
C253 H267 0.961 . S
C253 H268 0.961 . S
C253 H269 0.961 . S
C254 C255 1.370 . S
C254 C256 1.363 . S
C254 H270 0.931 . S
C255 C254 1.370 . S
C255 C259 1.408 . S
C256 C254 1.363 . S
C256 C257 1.370 . S
C256 C260 1.524 . S
C257 C249 1.503 . S
C257 C256 1.370 . S
C257 C258 1.403 . S
C258 C257 1.403 . S
C258 C259 1.404 . S
C258 C261 1.539 . S
C259 C255 1.408 . S
C259 C258 1.404 . S
C259 H271 0.930 . S
C260 C256 1.524 . S
C260 H272 0.956 . S
C260 H273 0.961 . S
C260 H274 0.961 . S
C261 C258 1.539 . S
C261 H275 0.958 . S
C261 H276 0.961 . S
C261 H277 0.960 . S
H262 C246 0.931 . S
H263 C251 0.929 . S
H264 C252 0.960 . S
H265 C252 0.962 . S
H266 C252 0.960 . S
H267 C253 0.961 . S
H268 C253 0.961 . S
H269 C253 0.961 . S
H270 C254 0.931 . S
H271 C259 0.930 . S
H272 C260 0.956 . S
H273 C260 0.961 . S
H274 C260 0.961 . S
H275 C261 0.958 . S
H276 C261 0.961 . S
H277 C261 0.960 . S
C278 C279 1.391 . S
C278 C280 1.394 . S
C278 H294 0.931 . S
C279 C278 1.391 . S
C279 C283 1.376 . S
C280 C278 1.394 . S
C280 C281 1.369 . S
C280 C284 1.531 . S
C281 C280 1.369 . S
C281 C282 1.410 . S
C281 C289 1.503 . S
C282 C281 1.410 . S
C282 C283 1.392 . S
C282 C285 1.511 . S
C283 C279 1.376 . S
C283 C282 1.392 . S
C283 H295 0.929 . S
C284 C280 1.531 . S
C284 H296 0.960 . S
C284 H297 0.962 . S
C284 H298 0.960 . S
C285 C282 1.511 . S
C285 H299 0.961 . S
C285 H300 0.961 . S
C285 H301 0.961 . S
C286 C287 1.370 . S
C286 C288 1.363 . S
C286 H302 0.931 . S
C287 C286 1.370 . S
C287 C291 1.408 . S
C288 C286 1.363 . S
C288 C289 1.370 . S
C288 C292 1.524 . S
C289 C281 1.503 . S
C289 C288 1.370 . S
C289 C290 1.403 . S
C290 C289 1.403 . S
C290 C291 1.404 . S
C290 C293 1.539 . S
C291 C287 1.408 . S
C291 C290 1.404 . S
C291 H303 0.930 . S
C292 C288 1.524 . S
C292 H304 0.956 . S
C292 H305 0.961 . S
C292 H306 0.961 . S
C293 C290 1.539 . S
C293 H307 0.958 . S
C293 H308 0.961 . S
C293 H309 0.960 . S
H294 C278 0.931 . S
H295 C283 0.929 . S
H296 C284 0.960 . S
H297 C284 0.962 . S
H298 C284 0.960 . S
H299 C285 0.961 . S
H300 C285 0.961 . S
H301 C285 0.961 . S
H302 C286 0.931 . S
H303 C291 0.930 . S
H304 C292 0.956 . S
H305 C292 0.961 . S
H306 C292 0.961 . S
H307 C293 0.958 . S
H308 C293 0.961 . S
H309 C293 0.960 . S
C310 C311 1.391 . S
C310 C312 1.394 . S
C310 H326 0.931 . S
C311 C310 1.391 . S
C311 C315 1.376 . S
C312 C310 1.394 . S
C312 C313 1.369 . S
C312 C316 1.531 . S
C313 C312 1.369 . S
C313 C314 1.410 . S
C313 C321 1.503 . S
C314 C313 1.410 . S
C314 C315 1.392 . S
C314 C317 1.511 . S
C315 C311 1.376 . S
C315 C314 1.392 . S
C315 H327 0.929 . S
C316 C312 1.531 . S
C316 H328 0.960 . S
C316 H329 0.962 . S
C316 H330 0.960 . S
C317 C314 1.511 . S
C317 H331 0.961 . S
C317 H332 0.961 . S
C317 H333 0.961 . S
C318 C319 1.370 . S
C318 C320 1.363 . S
C318 H334 0.931 . S
C319 C318 1.370 . S
C319 C323 1.408 . S
C320 C318 1.363 . S
C320 C321 1.370 . S
C320 C324 1.524 . S
C321 C313 1.503 . S
C321 C320 1.370 . S
C321 C322 1.403 . S
C322 C321 1.403 . S
C322 C323 1.404 . S
C322 C325 1.539 . S
C323 C319 1.408 . S
C323 C322 1.404 . S
C323 H335 0.930 . S
C324 C320 1.524 . S
C324 H336 0.956 . S
C324 H337 0.961 . S
C324 H338 0.961 . S
C325 C322 1.539 . S
C325 H339 0.958 . S
C325 H340 0.961 . S
C325 H341 0.960 . S
H326 C310 0.931 . S
H327 C315 0.929 . S
H328 C316 0.960 . S
H329 C316 0.962 . S
H330 C316 0.960 . S
H331 C317 0.961 . S
H332 C317 0.961 . S
H333 C317 0.961 . S
H334 C318 0.931 . S
H335 C323 0.930 . S
H336 C324 0.956 . S
H337 C324 0.961 . S
H338 C324 0.961 . S
H339 C325 0.958 . S
H340 C325 0.961 . S
H341 C325 0.960 . S
C342 C343 1.391 . S
C342 C344 1.394 . S
C342 H358 0.931 . S
C343 C342 1.391 . S
C343 C347 1.376 . S
C344 C342 1.394 . S
C344 C345 1.369 . S
C344 C348 1.531 . S
C345 C344 1.369 . S
C345 C346 1.410 . S
C345 C353 1.503 . S
C346 C345 1.410 . S
C346 C347 1.392 . S
C346 C349 1.511 . S
C347 C343 1.376 . S
C347 C346 1.392 . S
C347 H359 0.929 . S
C348 C344 1.531 . S
C348 H360 0.960 . S
C348 H361 0.962 . S
C348 H362 0.960 . S
C349 C346 1.511 . S
C349 H363 0.961 . S
C349 H364 0.961 . S
C349 H365 0.961 . S
C350 C351 1.370 . S
C350 C352 1.363 . S
C350 H366 0.931 . S
C351 C350 1.370 . S
C351 C355 1.408 . S
C352 C350 1.363 . S
C352 C353 1.370 . S
C352 C356 1.524 . S
C353 C345 1.503 . S
C353 C352 1.370 . S
C353 C354 1.403 . S
C354 C353 1.403 . S
C354 C355 1.404 . S
C354 C357 1.539 . S
C355 C351 1.408 . S
C355 C354 1.404 . S
C355 H367 0.930 . S
C356 C352 1.524 . S
C356 H368 0.956 . S
C356 H369 0.961 . S
C356 H370 0.961 . S
C357 C354 1.539 . S
C357 H371 0.958 . S
C357 H372 0.961 . S
C357 H373 0.960 . S
H358 C342 0.931 . S
H359 C347 0.929 . S
H360 C348 0.960 . S
H361 C348 0.962 . S
H362 C348 0.960 . S
H363 C349 0.961 . S
H364 C349 0.961 . S
H365 C349 0.961 . S
H366 C350 0.931 . S
H367 C355 0.930 . S
H368 C356 0.956 . S
H369 C356 0.961 . S
H370 C356 0.961 . S
H371 C357 0.958 . S
H372 C357 0.961 . S
H373 C357 0.960 . S
C374 C375 1.391 . S
C374 C376 1.394 . S
C374 H390 0.931 . S
C375 C374 1.391 . S
C375 C379 1.376 1_565 S
C376 C374 1.394 . S
C376 C377 1.369 . S
C376 C380 1.547 . S
C377 C376 1.369 . S
C377 C378 1.410 1_565 S
C377 C385 1.503 . S
C378 C377 1.410 1_545 S
C378 C379 1.392 . S
C378 C381 1.511 . S
C379 C375 1.376 1_545 S
C379 C378 1.392 . S
C379 H391 0.929 . S
C380 C376 1.547 . S
C380 H392 0.963 . S
C380 H393 0.948 1_455 S
C380 H394 0.956 1_455 S
C381 C378 1.511 . S
C381 H395 0.961 . S
C381 H396 0.961 . S
C381 H397 0.961 . S
C382 C383 1.370 . S
C382 C384 1.363 . S
C382 H398 0.931 . S
C383 C382 1.370 . S
C383 C387 1.408 1_545 S
C384 C382 1.363 . S
C384 C385 1.370 1_545 S
C384 C388 1.524 . S
C385 C377 1.503 . S
C385 C384 1.370 1_565 S
C385 C386 1.403 . S
C386 C385 1.403 . S
C386 C387 1.404 . S
C386 C389 1.539 . S
C387 C383 1.408 1_565 S
C387 C386 1.404 . S
C387 H399 0.930 . S
C388 C384 1.524 . S
C388 H400 0.956 . S
C388 H401 0.961 . S
C388 H402 0.961 . S
C389 C386 1.539 . S
C389 H403 0.958 . S
C389 H404 0.961 . S
C389 H405 0.960 . S
H390 C374 0.931 . S
H391 C379 0.929 . S
H392 C380 0.963 . S
H393 C380 0.948 1_655 S
H394 C380 0.956 1_655 S
H395 C381 0.961 . S
H396 C381 0.961 . S
H397 C381 0.961 . S
H398 C382 0.931 . S
H399 C387 0.930 . S
H400 C388 0.956 . S
H401 C388 0.961 . S
H402 C388 0.961 . S
H403 C389 0.958 . S
H404 C389 0.961 . S
H405 C389 0.960 . S
C406 C407 1.391 1_645 S
C406 C408 1.394 . S
C406 H422 0.931 . S
C407 C406 1.391 1_465 S
C407 C411 1.376 . S
C408 C406 1.394 . S
C408 C409 1.369 1_655 S
C408 C412 1.531 . S
C409 C408 1.369 1_455 S
C409 C410 1.410 1_545 S
C409 C417 1.503 . S
C410 C409 1.410 1_565 S
C410 C411 1.392 . S
C410 C413 1.511 . S
C411 C407 1.376 . S
C411 C410 1.392 . S
C411 H423 0.929 . S
C412 C408 1.531 . S
C412 H424 0.960 . S
C412 H425 0.962 . S
C412 H426 0.960 . S
C413 C410 1.511 . S
C413 H427 0.961 . S
C413 H428 0.961 . S
C413 H429 0.961 . S
C414 C415 1.370 1_565 S
C414 C416 1.363 . S
C414 H430 0.931 . S
C415 C414 1.370 1_545 S
C415 C419 1.408 1_655 S
C416 C414 1.363 . S
C416 C417 1.370 1_665 S
C416 C420 1.524 . S
C417 C409 1.503 . S
C417 C416 1.370 1_445 S
C417 C418 1.403 . S
C418 C417 1.403 . S
C418 C419 1.404 . S
C418 C421 1.539 . S
C419 C415 1.408 1_455 S
C419 C418 1.404 . S
C419 H431 0.930 . S
C420 C416 1.524 . S
C420 H432 0.956 . S
C420 H433 0.961 . S
C420 H434 0.961 . S
C421 C418 1.539 . S
C421 H435 0.958 . S
C421 H436 0.961 . S
C421 H437 0.960 . S
H422 C406 0.931 . S
H423 C411 0.929 . S
H424 C412 0.960 . S
H425 C412 0.962 . S
H426 C412 0.960 . S
H427 C413 0.961 . S
H428 C413 0.961 . S
H429 C413 0.961 . S
H430 C414 0.931 . S
H431 C419 0.930 . S
H432 C420 0.956 . S
H433 C420 0.961 . S
H434 C420 0.961 . S
H435 C421 0.958 . S
H436 C421 0.961 . S
H437 C421 0.960 . S
C438 C439 1.391 . S
C438 C440 1.394 . S
C438 H454 0.931 . S
C439 C438 1.391 . S
C439 C443 1.376 . S
C440 C438 1.394 . S
C440 C441 1.369 . S
C440 C444 1.531 . S
C441 C440 1.369 . S
C441 C442 1.410 . S
C441 C449 1.503 . S
C442 C441 1.410 . S
C442 C443 1.392 . S
C442 C445 1.511 . S
C443 C439 1.376 . S
C443 C442 1.392 . S
C443 H455 0.929 . S
C444 C440 1.531 . S
C444 H456 0.960 . S
C444 H457 0.962 . S
C444 H458 0.960 . S
C445 C442 1.511 . S
C445 H459 0.961 . S
C445 H460 0.961 . S
C445 H461 0.961 . S
C446 C447 1.370 . S
C446 C448 1.363 . S
C446 H462 0.931 . S
C447 C446 1.370 . S
C447 C451 1.408 . S
C448 C446 1.363 . S
C448 C449 1.370 . S
C448 C452 1.524 . S
C449 C441 1.503 . S
C449 C448 1.370 . S
C449 C450 1.403 . S
C450 C449 1.403 . S
C450 C451 1.404 . S
C450 C453 1.539 . S
C451 C447 1.408 . S
C451 C450 1.404 . S
C451 H463 0.930 . S
C452 C448 1.524 . S
C452 H464 0.956 . S
C452 H465 0.961 . S
C452 H466 0.961 . S
C453 C450 1.539 . S
C453 H467 0.958 . S
C453 H468 0.961 . S
C453 H469 0.960 . S
H454 C438 0.931 . S
H455 C443 0.929 . S
H456 C444 0.960 . S
H457 C444 0.962 . S
H458 C444 0.960 . S
H459 C445 0.961 . S
H460 C445 0.961 . S
H461 C445 0.961 . S
H462 C446 0.931 . S
H463 C451 0.930 . S
H464 C452 0.956 . S
H465 C452 0.961 . S
H466 C452 0.961 . S
H467 C453 0.958 . S
H468 C453 0.961 . S
H469 C453 0.960 . S
C470 C471 1.391 . S
C470 C472 1.394 . S
C470 H486 0.931 . S
C471 C470 1.391 . S
C471 C475 1.376 . S
C472 C470 1.394 . S
C472 C473 1.369 . S
C472 C476 1.531 . S
C473 C472 1.369 . S
C473 C474 1.410 . S
C473 C481 1.503 . S
C474 C473 1.410 . S
C474 C475 1.392 . S
C474 C477 1.511 . S
C475 C471 1.376 . S
C475 C474 1.392 . S
C475 H487 0.929 . S
C476 C472 1.531 . S
C476 H488 0.960 . S
C476 H489 0.962 . S
C476 H490 0.960 . S
C477 C474 1.511 . S
C477 H491 0.961 . S
C477 H492 0.961 . S
C477 H493 0.961 . S
C478 C479 1.370 . S
C478 C480 1.363 . S
C478 H494 0.931 . S
C479 C478 1.370 . S
C479 C483 1.408 . S
C480 C478 1.363 . S
C480 C481 1.370 . S
C480 C484 1.524 . S
C481 C473 1.503 . S
C481 C480 1.370 . S
C481 C482 1.403 . S
C482 C481 1.403 . S
C482 C483 1.404 . S
C482 C485 1.539 . S
C483 C479 1.408 . S
C483 C482 1.404 . S
C483 H495 0.930 . S
C484 C480 1.524 . S
C484 H496 0.956 . S
C484 H497 0.961 . S
C484 H498 0.961 . S
C485 C482 1.539 . S
C485 H499 0.958 . S
C485 H500 0.961 . S
C485 H501 0.960 . S
H486 C470 0.931 . S
H487 C475 0.929 . S
H488 C476 0.960 . S
H489 C476 0.962 . S
H490 C476 0.960 . S
H491 C477 0.961 . S
H492 C477 0.961 . S
H493 C477 0.961 . S
H494 C478 0.931 . S
H495 C483 0.930 . S
H496 C484 0.956 . S
H497 C484 0.961 . S
H498 C484 0.961 . S
H499 C485 0.958 . S
H500 C485 0.961 . S
H501 C485 0.960 . S
C127 C105 1.392 . S
C119 C3 1.250 . S
C151 C4 1.451 1_556 S
C159 C91 1.506 . S
C183 C19 1.469 1_554 S
C191 C110 1.523 . S
C215 C7 1.247 . S
C223 C86 1.396 . S
C247 C37 1.338 . S
C255 C67 1.396 . S
C279 C28 1.460 . S
C287 C53 1.509 1_655 S
C319 C72 1.505 . S
C311 C41 1.410 . S
C351 C48 1.397 . S
C343 C25 1.244 . S
C375 C20 1.387 . S
C383 C44 1.505 . S
C407 C16 1.446 . S
C415 C63 1.561 . S
C447 C82 1.521 . S
C439 C40 1.393 . S
C471 C24 1.464 . S
C479 C101 1.558 . S
