# Generated by pormake.
# Topology zzz, (3,6)-cn, num edge types: 1
# Building blocks:
#     Node 0, Type 0, BuildingBlock: BELTOD_clean_linker_0, # of connection points: 3
#     Node 1, Type 0, BuildingBlock: BELTOD_clean_linker_0, # of connection points: 3
#     Node 2, Type 0, BuildingBlock: BELTOD_clean_linker_0, # of connection points: 3
#     Node 3, Type 0, BuildingBlock: BELTOD_clean_linker_0, # of connection points: 3
#     Node 4, Type 0, BuildingBlock: BELTOD_clean_linker_0, # of connection points: 3
#     Node 5, Type 0, BuildingBlock: BELTOD_clean_linker_0, # of connection points: 3
#     Node 6, Type 0, BuildingBlock: BELTOD_clean_linker_0, # of connection points: 3
#     Node 7, Type 0, BuildingBlock: BELTOD_clean_linker_0, # of connection points: 3
#     Node 8, Type 1, BuildingBlock: HISSIN_clean_sbu_0, # of connection points: 6
#     Node 9, Type 1, BuildingBlock: HISSIN_clean_sbu_0, # of connection points: 6
#     Node 10, Type 1, BuildingBlock: HISSIN_clean_sbu_0, # of connection points: 6
#     Node 11, Type 1, BuildingBlock: HISSIN_clean_sbu_0, # of connection points: 6
#     Edge 12, Type (0, 1), BuildingBlock: KIFKEQ_clean_linker_1, # of connection points: 2
#     Edge 13, Type (0, 1), BuildingBlock: KIFKEQ_clean_linker_1, # of connection points: 2
#     Edge 14, Type (0, 1), BuildingBlock: KIFKEQ_clean_linker_1, # of connection points: 2
#     Edge 15, Type (0, 1), BuildingBlock: KIFKEQ_clean_linker_1, # of connection points: 2
#     Edge 16, Type (0, 1), BuildingBlock: KIFKEQ_clean_linker_1, # of connection points: 2
#     Edge 17, Type (0, 1), BuildingBlock: KIFKEQ_clean_linker_1, # of connection points: 2
#     Edge 18, Type (0, 1), BuildingBlock: KIFKEQ_clean_linker_1, # of connection points: 2
#     Edge 19, Type (0, 1), BuildingBlock: KIFKEQ_clean_linker_1, # of connection points: 2
#     Edge 20, Type (0, 1), BuildingBlock: KIFKEQ_clean_linker_1, # of connection points: 2
#     Edge 21, Type (0, 1), BuildingBlock: KIFKEQ_clean_linker_1, # of connection points: 2
#     Edge 22, Type (0, 1), BuildingBlock: KIFKEQ_clean_linker_1, # of connection points: 2
#     Edge 23, Type (0, 1), BuildingBlock: KIFKEQ_clean_linker_1, # of connection points: 2
#     Edge 24, Type (0, 1), BuildingBlock: KIFKEQ_clean_linker_1, # of connection points: 2
#     Edge 25, Type (0, 1), BuildingBlock: KIFKEQ_clean_linker_1, # of connection points: 2
#     Edge 26, Type (0, 1), BuildingBlock: KIFKEQ_clean_linker_1, # of connection points: 2
#     Edge 27, Type (0, 1), BuildingBlock: KIFKEQ_clean_linker_1, # of connection points: 2
#     Edge 28, Type (0, 1), BuildingBlock: KIFKEQ_clean_linker_1, # of connection points: 2
#     Edge 29, Type (0, 1), BuildingBlock: KIFKEQ_clean_linker_1, # of connection points: 2
#     Edge 30, Type (0, 1), BuildingBlock: KIFKEQ_clean_linker_1, # of connection points: 2
#     Edge 31, Type (0, 1), BuildingBlock: KIFKEQ_clean_linker_1, # of connection points: 2
#     Edge 32, Type (0, 1), BuildingBlock: KIFKEQ_clean_linker_1, # of connection points: 2
#     Edge 33, Type (0, 1), BuildingBlock: KIFKEQ_clean_linker_1, # of connection points: 2
#     Edge 34, Type (0, 1), BuildingBlock: KIFKEQ_clean_linker_1, # of connection points: 2
#     Edge 35, Type (0, 1), BuildingBlock: KIFKEQ_clean_linker_1, # of connection points: 2
# Relax obj value: 0.381
# Max RMSD: 0.223
# Mean RMSD: 0.181
data_MOF--net-zzz--node1-HISSIN_clean_sbu_0--node2-BELTOD_clean_linker_0--edge1-KIFKEQ_clean_linker_1
_symmetry_space_group_name_H-M    P1
_symmetry_Int_Tables_number       1
_symmetry_cell_setting            triclinic
loop_
_symmetry_equiv_pos_as_xyz
'x, y, z'
_cell_length_a     53.390415
_cell_length_b     53.613253
_cell_length_c     20.497243
_cell_angle_alpha  89.667613
_cell_angle_beta   91.927273
_cell_angle_gamma 91.56969
loop_
_atom_site_label
_atom_site_type_symbol
_atom_site_fract_x
_atom_site_fract_y
_atom_site_fract_z
_atom_type_partial_charge
P0 P 0.7224 0.50319 0.30461 0.0
H1 H 0.73129 0.52171 0.43813 0.0
H2 H 0.77009 0.53438 0.4965 0.0
H3 H 0.80845 0.53635 0.31399 0.0
H4 H 0.7693 0.52513 0.25601 0.0
H5 H 0.67006 0.49095 0.27638 0.0
H6 H 0.64011 0.50543 0.19392 0.0
H7 H 0.69302 0.56339 0.13727 0.0
H8 H 0.72332 0.54831 0.22036 0.0
H9 H 0.75267 0.46043 0.33768 0.0
H10 H 0.72822 0.49899 0.16255 0.0
O11 O 0.70798 0.48705 0.363 0.0
H12 H 0.78261 0.43755 0.27488 0.0
H13 H 0.75826 0.47682 0.10029 0.0
C14 C 0.74741 0.52201 0.34276 0.0
C15 C 0.74782 0.52579 0.41039 0.0
C16 C 0.77024 0.53266 0.44391 0.0
C17 C 0.79281 0.5356 0.41052 0.0
C18 C 0.79164 0.53426 0.34182 0.0
C19 C 0.76912 0.52776 0.30832 0.0
C20 C 0.6988 0.5188 0.25543 0.0
C21 C 0.675 0.50729 0.24777 0.0
C22 C 0.65778 0.51566 0.20033 0.0
C23 C 0.66402 0.53565 0.15864 0.0
C24 C 0.68761 0.54784 0.16816 0.0
C25 C 0.70487 0.53946 0.21615 0.0
C26 C 0.73807 0.48131 0.25493 0.0
C27 C 0.75314 0.46337 0.2854 0.0
C28 C 0.77042 0.4505 0.24958 0.0
C29 C 0.77301 0.45553 0.18269 0.0
C30 C 0.75658 0.47223 0.15151 0.0
C31 C 0.73935 0.48507 0.18736 0.0
P32 P 0.03087 0.73181 0.27718 0.0
H33 H 1.00972 0.7337 0.40727 0.0
H34 H 0.99567 0.76961 0.46666 0.0
H35 H 0.99094 0.8116 0.28626 0.0
H36 H 1.00359 0.77504 0.22685 0.0
H37 H 0.05938 0.71144 0.17272 0.0
H38 H 0.04917 0.68244 0.08419 0.0
H39 H 0.97271 0.67662 0.14545 0.0
H40 H 0.98289 0.7069 0.23349 0.0
H41 H 0.06736 0.76002 0.35742 0.0
H42 H 0.04438 0.75614 0.15385 0.0
O43 O 0.04263 0.713 0.33496 0.0
H44 H 0.09055 0.79922 0.33636 0.0
H45 H 0.06849 0.79425 0.13235 0.0
C46 C 1.00803 0.75163 0.31247 0.0
C47 C 1.00447 0.75018 0.37988 0.0
C48 C 0.99689 0.77104 0.41415 0.0
C49 C 0.99311 0.79399 0.38191 0.0
C50 C 0.99376 0.79443 0.31321 0.0
C51 C 1.00089 0.77334 0.27884 0.0
C52 C 0.02163 0.71236 0.20797 0.0
C53 C 0.04017 0.70468 0.16607 0.0
C54 C 0.03437 0.68789 0.11564 0.0
C55 C 0.01007 0.67749 0.10729 0.0
C56 C 0.99155 0.68453 0.15043 0.0
C57 C 0.99729 0.70194 0.20032 0.0
C58 C 0.05485 0.75456 0.25685 0.0
C59 C 0.06841 0.76681 0.30768 0.0
C60 C 0.08147 0.78926 0.29584 0.0
C61 C 0.0815 0.79948 0.23269 0.0
C62 C 0.06923 0.78641 0.18121 0.0
C63 C 0.05562 0.7644 0.19339 0.0
P64 P 0.79508 0.02488 0.26091 0.0
H65 H 0.78376 0.02156 0.39947 0.0
H66 H 0.74477 0.01281 0.4545 0.0
H67 H 0.71048 0.98566 0.27421 0.0
H68 H 0.74979 0.99504 0.21819 0.0
H69 H 0.84962 0.02206 0.27331 0.0
H70 H 0.88056 0.01159 0.19431 0.0
H71 H 0.82215 0.97946 0.06819 0.0
H72 H 0.79076 0.99036 0.14789 0.0
H73 H 0.74946 0.05378 0.26519 0.0
H74 H 0.81016 0.04559 0.13352 0.0
O75 O 0.81125 0.04258 0.31522 0.0
H76 H 0.72772 0.07962 0.18458 0.0
H77 H 0.78832 0.07132 0.05267 0.0
C78 C 0.76997 0.00896 0.30432 0.0
C79 C 0.76824 0.01304 0.37166 0.0
C80 C 0.74574 0.00824 0.40325 0.0
C81 C 0.72436 0.99892 0.36864 0.0
C82 C 0.72662 0.99283 0.30232 0.0
C83 C 0.74919 0.99795 0.27034 0.0
C84 C 0.81765 0.00707 0.217 0.0
C85 C 0.84331 0.01198 0.22996 0.0
C86 C 0.86112 1.00619 0.18424 0.0
C87 C 0.85382 0.99513 0.12436 0.0
C88 C 0.8284 0.98798 0.11389 0.0
C89 C 0.81044 0.99398 0.15979 0.0
C90 C 0.78075 0.04645 0.2041 0.0
C91 C 0.75815 0.05746 0.21902 0.0
C92 C 0.74589 0.07259 0.17324 0.0
C93 C 0.7562 0.07719 0.11199 0.0
C94 C 0.77975 0.06768 0.09906 0.0
C95 C 0.7921 0.0527 0.14514 0.0
P96 P 0.49599 0.80063 0.27634 0.0
H97 H 0.4946 0.78959 0.41591 0.0
H98 H 0.50547 0.75235 0.47799 0.0
H99 H 0.5436 0.72421 0.31258 0.0
H100 H 0.53236 0.76154 0.24984 0.0
H101 H 0.49789 0.8551 0.26907 0.0
H102 H 0.51211 0.88362 0.18518 0.0
H103 H 0.54857 0.82309 0.09124 0.0
H104 H 0.53291 0.7943 0.17401 0.0
H105 H 0.47399 0.74979 0.28143 0.0
H106 H 0.47201 0.81277 0.14937 0.0
O107 O 0.47732 0.81688 0.32295 0.0
H108 H 0.45218 0.72403 0.19998 0.0
H109 H 0.44889 0.78727 0.06822 0.0
C110 C 0.51278 0.77866 0.328 0.0
C111 C 0.50607 0.77595 0.39335 0.0
C112 C 0.51209 0.75446 0.42882 0.0
C113 C 0.52506 0.73517 0.39987 0.0
C114 C 0.53368 0.7388 0.33631 0.0
C115 C 0.52746 0.76032 0.30052 0.0
C116 C 0.51445 0.82244 0.22858 0.0
C117 C 0.50957 0.84798 0.23165 0.0
C118 C 0.51784 0.86444 0.18321 0.0
C119 C 0.53133 0.8558 0.13036 0.0
C120 C 0.5378 0.83046 0.13021 0.0
C121 C 0.52928 0.81394 0.1785 0.0
C122 C 0.4759 0.78288 0.22028 0.0
C123 C 0.46875 0.7582 0.23503 0.0
C124 C 0.45577 0.74351 0.18853 0.0
C125 C 0.4491 0.75341 0.12682 0.0
C126 C 0.45435 0.77883 0.11449 0.0
C127 C 0.4676 0.79345 0.16094 0.0
P128 P 0.29761 0.44267 0.03873 0.0
H129 H 0.28238 0.43373 0.90198 0.0
H130 H 0.24707 0.44926 0.83757 0.0
H131 H 0.23796 0.50726 0.97971 0.0
H132 H 0.27274 0.49081 0.04544 0.0
H133 H 0.34201 0.4179 0.08777 0.0
H134 H 0.37642 0.43099 0.1613 0.0
H135 H 0.35136 0.50687 0.15048 0.0
H136 H 0.31665 0.49347 0.07615 0.0
H137 H 0.24845 0.41816 0.03831 0.0
H138 H 0.29676 0.45841 0.17679 0.0
O139 O 0.30287 0.41484 1.00653 0.0
H140 H 0.2133 0.42249 0.11048 0.0
H141 H 0.26194 0.46331 0.24741 0.0
C142 C 0.28055 0.46115 0.97864 0.0
C143 C 0.2735 0.45039 0.91826 0.0
C144 C 0.25306 0.45932 0.88125 0.0
C145 C 0.23914 0.47929 0.90376 0.0
C146 C 0.24778 0.49149 0.96134 0.0
C147 C 0.26817 0.48245 0.99845 0.0
C148 C 0.32684 0.45471 0.0753 0.0
C149 C 0.34434 0.43755 0.09909 0.0
C150 C 0.36409 0.44508 0.1416 0.0
C151 C 0.3667 0.46999 0.1623 0.0
C152 C 0.3498 0.48748 0.13606 0.0
C153 C 0.33009 0.47991 0.09279 0.0
C154 C 0.27521 0.43814 0.1016 0.0
C155 C 0.25172 0.42719 0.08508 0.0
C156 C 0.2316 0.4299 0.12602 0.0
C157 C 0.23474 0.44361 0.18412 0.0
C158 C 0.25886 0.45252 0.20322 0.0
C159 C 0.27891 0.44985 0.16227 0.0
P160 P 0.07279 0.28807 0.06172 0.0
H161 H 0.07156 0.27799 0.92146 0.0
H162 H 0.05779 0.24094 0.86197 0.0
H163 H 0.01634 0.21551 0.02843 0.0
H164 H 0.03138 0.25236 0.08895 0.0
H165 H 0.09502 0.33471 0.10814 0.0
H166 H 0.08309 0.36522 0.1874 0.0
H167 H 0.01203 0.32599 0.20828 0.0
H168 H 0.02443 0.295 0.1282 0.0
H169 H 0.10689 0.24843 0.03582 0.0
H170 H 0.06899 0.27648 0.20179 0.0
O171 O 0.09502 0.30087 0.01583 0.0
H172 H 0.11354 0.20902 0.09356 0.0
H173 H 0.07541 0.23748 0.25904 0.0
C174 C 0.05242 0.26835 0.00989 0.0
C175 C 0.0587 0.26503 0.9446 0.0
C176 C 0.05081 0.24351 0.91035 0.0
C177 C 0.03623 0.22466 0.94033 0.0
C178 C 0.02804 0.22916 1.00387 0.0
C179 C 0.03612 0.25069 0.03825 0.0
C180 C 0.06044 0.31278 0.11064 0.0
C181 C 0.07656 0.33291 0.12821 0.0
C182 C 0.06968 0.35046 0.17398 0.0
C183 C 0.04648 0.34832 0.20436 0.0
C184 C 0.03009 0.32823 0.1862 0.0
C185 C 0.03702 0.31062 0.13973 0.0
C186 C 0.08733 0.26537 0.11424 0.0
C187 C 0.10107 0.24659 0.08578 0.0
C188 C 0.10466 0.224 0.11853 0.0
C189 C 0.09467 0.22003 0.18037 0.0
C190 C 0.0835 0.23997 0.21161 0.0
C191 C 0.07972 0.26242 0.17861 0.0
P192 P 0.23256 0.05394 0.0512 0.0
H193 H 0.24276 0.05968 0.91252 0.0
H194 H 0.27875 0.04871 0.84992 0.0
H195 H 0.30499 1.00187 1.00825 0.0
H196 H 0.26872 0.01323 0.07174 0.0
H197 H 0.17757 0.0497 0.04933 0.0
H198 H 0.14839 0.03853 0.13412 0.0
H199 H 0.20947 0.01031 0.25391 0.0
H200 H 0.23875 0.02164 0.16821 0.0
H201 H 0.28453 0.07296 0.03976 0.0
H202 H 0.22635 0.07694 0.18016 0.0
O203 O 0.21629 0.0744 1.00646 0.0
H204 H 0.31568 0.08411 0.12301 0.0
H205 H 0.25767 0.08912 0.26434 0.0
C206 C 0.25258 0.0371 0.997 0.0
C207 C 0.2556 0.04629 0.9333 0.0
C208 C 0.27652 0.04027 0.89759 0.0
C209 C 0.29507 0.02472 0.92429 0.0
C210 C 0.29107 0.01384 0.98603 0.0
C211 C 0.27011 0.02011 0.0222 0.0
C212 C 0.21054 0.03667 0.102 0.0
C213 C 0.1847 0.04035 0.09276 0.0
C214 C 0.16791 0.03399 0.1418 0.0
C215 C 0.17649 0.0239 0.20183 0.0
C216 C 0.20216 0.01847 0.20898 0.0
C217 C 0.21893 0.02457 0.15938 0.0
C218 C 0.2534 0.07188 0.10515 0.0
C219 C 0.2783 0.07664 0.08834 0.0
C220 C 0.29621 0.08362 0.1362 0.0
C221 C 0.28935 0.08644 0.20139 0.0
C222 C 0.2637 0.08605 0.21517 0.0
C223 C 0.24578 0.07891 0.1671 0.0
P224 P 0.47946 0.24971 0.10233 0.0
H225 H 0.44959 0.25642 0.98163 0.0
H226 H 0.45493 0.2859 0.89137 0.0
H227 H 0.53131 0.30111 0.9587 0.0
H228 H 0.52617 0.27142 0.04637 0.0
H229 H 0.43723 0.221 0.15408 0.0
H230 H 0.43574 0.18189 0.21353 0.0
H231 H 0.51068 0.16659 0.15431 0.0
H232 H 0.51111 0.20504 0.08968 0.0
H233 H 0.47723 0.28608 0.20796 0.0
H234 H 0.53261 0.23836 0.12972 0.0
O235 O 0.45256 0.2633 0.11815 0.0
H236 H 0.5088 0.30369 0.28388 0.0
H237 H 0.56415 0.25565 0.20655 0.0
C238 C 0.48726 0.26166 0.02205 0.0
C239 C 0.46783 0.26529 0.9754 0.0
C240 C 0.4708 0.28256 0.92425 0.0
C241 C 0.49337 0.29657 0.91847 0.0
C242 C 0.51362 0.29085 0.96116 0.0
C243 C 0.51061 0.27362 0.01215 0.0
C244 C 0.47467 0.21663 0.11877 0.0
C245 C 0.45309 0.20895 0.15157 0.0
C246 C 0.45242 0.18659 0.18693 0.0
C247 C 0.47354 0.17147 0.19173 0.0
C248 C 0.49413 0.17782 0.15293 0.0
C249 C 0.49452 0.20006 0.11616 0.0
C250 C 0.50241 0.26083 0.16277 0.0
C251 C 0.496 0.27899 0.20768 0.0
C252 C 0.51407 0.28891 0.25165 0.0
C253 C 0.53893 0.28092 0.25132 0.0
C254 C 0.54513 0.26212 0.20788 0.0
C255 C 0.52698 0.25207 0.16427 0.0
Eu256 Eu 0.99465 0.01803 0.61738 0.0
Eu257 Eu 0.0379 0.99623 0.71683 0.0
C258 C 0.02367 0.0539 0.72101 0.0
C259 C 0.97312 0.05754 0.48368 0.0
C260 C 0.98637 0.07895 0.50668 0.0
C261 C 0.98771 0.06649 0.37457 0.0
C262 C 1.00103 0.09318 0.46489 0.0
C263 C 0.97307 0.05204 0.41669 0.0
C264 C 1.00266 0.08646 0.39922 0.0
C265 C 0.96504 0.03824 0.53064 0.0
O266 O 1.00172 0.98809 0.77003 0.0
O267 O 0.97444 0.01303 0.71158 0.0
C268 C 0.97992 0.999 0.76271 0.0
O269 O 0.98829 0.97623 0.61809 0.0
O270 O 0.07228 1.00098 0.77694 0.0
O271 O 0.05476 0.96419 0.76472 0.0
O272 O 0.02935 0.96772 0.63764 0.0
C273 C 1.00691 0.96087 0.6152 0.0
O274 O 0.02869 0.01501 0.55528 0.0
O275 O 0.06016 0.01256 0.63354 0.0
O276 O 0.02902 0.03414 0.75639 0.0
O277 O 0.97489 0.01654 0.52242 0.0
O278 O 0.96564 0.04471 0.59204 0.0
O279 O 0.01605 0.05158 0.65964 0.0
C280 C 0.07959 0.9709 0.8602 0.0
C281 C 0.10065 0.95645 0.87242 0.0
C282 C 0.06929 0.96735 0.97436 0.0
C283 C 0.10562 0.9468 0.93461 0.0
C284 C 0.06421 0.97687 0.91164 0.0
C285 C 0.08963 0.95151 0.98611 0.0
C286 C 0.07303 0.97736 0.79238 0.0
C287 C 0.05263 0.01535 0.57223 0.0
H288 H 0.98692 0.08379 0.55794 0.0
H289 H 0.98856 0.06113 0.32384 0.0
H290 H 0.01197 0.10889 0.4846 0.0
H291 H 0.96322 0.03552 0.3979 0.0
H292 H 0.11263 0.95161 0.83303 0.0
H293 H 0.05677 0.97165 0.01296 0.0
H294 H 0.12115 0.93435 0.94096 0.0
H295 H 0.04784 0.98807 0.90279 0.0
Eu296 Eu 0.51994 0.03023 0.68999 0.0
Eu297 Eu 0.49823 0.98403 0.59952 0.0
C298 C 0.52334 0.97316 0.74277 0.0
C299 C 0.56238 0.07847 0.77846 0.0
C300 C 0.58417 0.06596 0.7637 0.0
C301 C 0.5874 0.10894 0.84067 0.0
C302 C 0.60747 0.07471 0.7881 0.0
C303 C 0.56411 0.10018 0.81612 0.0
C304 C 0.60928 0.09608 0.82773 0.0
C305 C 0.53779 0.06897 0.75511 0.0
O306 O 0.46386 1.00153 0.64165 0.0
O307 O 0.48201 0.02122 0.73082 0.0
C308 C 0.46208 0.01202 0.69923 0.0
O309 O 0.49529 0.0472 0.61046 0.0
O310 O 0.47031 0.95419 0.58028 0.0
O311 O 0.4989 0.96187 0.51055 0.0
O312 O 0.50015 0.01763 0.53333 0.0
C313 C 0.49486 0.04044 0.54905 0.0
O314 O 0.55164 0.02122 0.62378 0.0
O315 O 0.54029 0.98137 0.59187 0.0
O316 O 0.50734 0.96588 0.69611 0.0
O317 O 0.53419 0.06865 0.69197 0.0
O318 O 0.52949 0.04853 0.78275 0.0
O319 O 0.53368 0.99578 0.74367 0.0
C320 C 0.45688 0.95923 0.4708 0.0
C321 C 0.46299 0.97546 0.41909 0.0
C322 C 0.4132 0.97006 0.45544 0.0
C323 C 0.44468 0.9901 0.38923 0.0
C324 C 0.43155 0.95544 0.48551 0.0
C325 C 0.41988 0.98857 0.40985 0.0
C326 C 0.47656 0.95229 0.51955 0.0
C327 C 0.55682 1.00002 0.59579 0.0
H328 H 0.58306 0.04917 0.73443 0.0
H329 H 0.58827 0.12553 0.87065 0.0
H330 H 0.62393 0.06418 0.77813 0.0
H331 H 0.5474 0.11013 0.82737 0.0
H332 H 0.48227 0.97871 0.4058 0.0
H333 H 0.39403 0.96789 0.47072 0.0
H334 H 0.45045 1.00403 0.35391 0.0
H335 H 0.42622 0.94288 0.52458 0.0
Eu336 Eu 0.49368 0.52262 0.69491 0.0
Eu337 Eu 0.5432 0.50654 0.615 0.0
C338 C 0.54856 0.52878 0.76103 0.0
C339 C 0.44664 0.56098 0.78012 0.0
C340 C 0.4547 0.58304 0.74922 0.0
C341 C 0.42701 0.58555 0.86225 0.0
C342 C 0.44926 0.60619 0.77507 0.0
C343 C 0.43242 0.56233 0.83614 0.0
C344 C 0.43584 0.6077 0.83269 0.0
C345 C 0.45443 0.5367 0.75644 0.0
O346 O 0.52407 0.46984 0.64299 0.0
O347 O 0.503 0.484 0.73057 0.0
C348 C 0.51205 0.4656 0.69725 0.0
O349 O 0.47857 0.501 0.60704 0.0
O350 O 0.57961 0.48909 0.61803 0.0
O351 O 0.5663 0.50694 0.5291 0.0
O352 O 0.51153 0.50648 0.5392 0.0
C353 C 0.48771 0.50127 0.54827 0.0
O354 O 0.50317 0.55609 0.63257 0.0
O355 O 0.54432 0.54874 0.6114 0.0
O356 O 0.55571 0.51203 0.71981 0.0
O357 O 0.45494 0.53437 0.69322 0.0
O358 O 0.47424 0.52765 0.7859 0.0
O359 O 0.52672 0.53931 0.75335 0.0
C360 C 0.59159 0.47139 0.51966 0.0
C361 C 0.57869 0.46349 0.46234 0.0
C362 C 0.61815 0.4354 0.51423 0.0
C363 C 0.58521 0.44152 0.43191 0.0
C364 C 0.61178 0.45753 0.54437 0.0
C365 C 0.60461 0.42697 0.45839 0.0
C366 C 0.58344 0.49306 0.5564 0.0
C367 C 0.52511 0.56357 0.61149 0.0
H368 H 0.46573 0.58238 0.70592 0.0
H369 H 0.41689 0.5861 0.90711 0.0
H370 H 0.45605 0.62291 0.75072 0.0
H371 H 0.42616 0.54546 0.86074 0.0
H372 H 0.56303 0.47376 0.44215 0.0
H373 H 0.63322 0.42455 0.53547 0.0
H374 H 0.57416 0.43527 0.38952 0.0
H375 H 0.62208 0.46341 0.58834 0.0
Eu376 Eu 0.02545 0.53088 0.61268 0.0
Eu377 Eu 1.0047 0.48752 0.71086 0.0
C378 C 0.0639 0.50052 0.70409 0.0
C379 C 0.06785 0.55836 0.49216 0.0
C380 C 0.09076 0.55194 0.52284 0.0
C381 C 0.08376 0.54563 0.38813 0.0
C382 C 0.10945 0.54141 0.48705 0.0
C383 C 0.06496 0.55617 0.42406 0.0
C384 C 0.10566 0.53713 0.41993 0.0
C385 C 0.0457 0.56232 0.53159 0.0
O386 O 0.99462 0.52386 0.75862 0.0
O387 O 0.02462 0.54875 0.71173 0.0
C388 C 1.00838 0.5446 0.75752 0.0
O389 O 0.98399 0.5377 0.61542 0.0
O390 O 1.00354 0.47004 0.80694 0.0
O391 O 0.98235 0.45335 0.72582 0.0
O392 O 0.97179 0.49803 0.64492 0.0
C393 C 0.96658 0.52003 0.62001 0.0
O394 O 0.01713 0.49669 0.55095 0.0
O395 O 0.02266 0.46678 0.62921 0.0
O396 O 0.0452 0.49475 0.74186 0.0
O397 O 0.02611 0.54824 0.51605 0.0
O398 O 0.04969 0.56344 0.59466 0.0
O399 O 0.05976 0.50962 0.6452 0.0
C400 C 0.96505 0.45016 0.82947 0.0
C401 C 0.95125 0.47103 0.84533 0.0
C402 C 0.93716 0.42382 0.89277 0.0
C403 C 0.93072 0.46836 0.88537 0.0
C404 C 0.95783 0.42654 0.85296 0.0
C405 C 0.92355 0.44475 0.90985 0.0
C406 C 0.98697 0.45296 0.78864 0.0
C407 C 0.02115 0.47342 0.56743 0.0
H408 H 0.09372 0.55348 0.57521 0.0
H409 H 0.0804 0.54258 0.33634 0.0
H410 H 0.12642 0.5355 0.51247 0.0
H411 H 0.04747 0.56093 0.39934 0.0
H412 H 0.95646 0.48939 0.82702 0.0
H413 H 0.93214 0.40545 0.91125 0.0
H414 H 0.92034 0.48476 0.89691 0.0
H415 H 0.96829 0.41025 0.84091 0.0
H416 H 0.18597 0.0344 0.33179 0.0
H417 H 0.12716 0.00707 0.19914 0.0
H418 H 0.15688 0.03294 0.42099 0.0
H419 H 0.09811 1.00525 0.28839 0.0
H420 H 0.04472 0.0287 0.44376 0.0
H421 H 0.07465 0.03033 0.35673 0.0
H422 H 0.13328 0.00794 0.49338 0.0
H423 H 0.10338 0.00704 0.58094 0.0
C424 C 0.16694 0.02764 0.32173 0.0
C425 C 0.15905 0.02089 0.25778 0.0
C426 C 0.15013 0.02684 0.37316 0.0
C427 C 0.12486 0.01915 0.36252 0.0
C428 C 0.11716 0.01185 0.29877 0.0
C429 C 0.13393 0.01277 0.24732 0.0
C430 C 0.06401 0.02419 0.45549 0.0
C431 C 0.07149 0.01767 0.51978 0.0
C432 C 0.08125 0.02493 0.40516 0.0
C433 C 0.10657 0.019 0.41715 0.0
C434 C 0.11411 0.01288 0.4818 0.0
C435 C 0.09687 0.01229 0.53229 0.0
H436 H 0.4967 0.12594 0.18475 0.0
H437 H 0.45379 0.17038 0.31359 0.0
H438 H 0.50097 0.09428 0.27019 0.0
H439 H 0.45669 0.13825 0.39668 0.0
H440 H 0.49144 0.09117 0.56002 0.0
H441 H 0.48573 0.12174 0.4729 0.0
H442 H 0.48003 0.06235 0.33106 0.0
H443 H 0.48667 0.03185 0.4182 0.0
C444 C 0.48798 0.12894 0.23088 0.0
C445 C 0.4748 0.15086 0.24158 0.0
C446 C 0.49018 0.11058 0.27982 0.0
C447 C 0.47925 0.11361 0.34086 0.0
C448 C 0.46572 0.1353 0.35096 0.0
C449 C 0.46367 0.15365 0.30242 0.0
C450 C 0.48881 0.08459 0.51033 0.0
C451 C 0.48954 0.059 0.49634 0.0
C452 C 0.48541 0.10216 0.46013 0.0
C453 C 0.4824 0.09466 0.39444 0.0
C454 C 0.48269 0.06897 0.38068 0.0
C455 C 0.48629 0.05141 0.43087 0.0
H456 H 0.41533 0.45481 0.17718 0.0
H457 H 0.36099 0.50045 0.26762 0.0
H458 H 0.44457 0.46221 0.26946 0.0
H459 H 0.39055 0.50854 0.35892 0.0
H460 H 0.43679 0.4925 0.54631 0.0
H461 H 0.40848 0.48622 0.45172 0.0
H462 H 0.47112 0.49342 0.32439 0.0
H463 H 0.49954 0.49928 0.41905 0.0
C464 C 0.40968 0.46662 0.21646 0.0
C465 C 0.3857 0.47695 0.21485 0.0
C466 C 0.42656 0.47104 0.26926 0.0
C467 C 0.41993 0.48584 0.32212 0.0
C468 C 0.3962 0.49673 0.31965 0.0
C469 C 0.37935 0.49239 0.26672 0.0
C470 C 0.44461 0.49262 0.49822 0.0
C471 C 0.47054 0.49637 0.4906 0.0
C472 C 0.42829 0.48924 0.44379 0.0
C473 C 0.43742 0.48945 0.38013 0.0
C474 C 0.46339 0.49292 0.37257 0.0
C475 C 0.47972 0.49637 0.427 0.0
H476 H 0.0229 0.33941 0.32041 0.0
H477 H 0.05613 0.39886 0.20651 0.0
H478 H 0.0155 0.36901 0.40754 0.0
H479 H 0.04987 0.42804 0.29422 0.0
H480 H 0.01559 0.48047 0.43548 0.0
H481 H 0.01947 0.45031 0.34875 0.0
H482 H 0.03686 0.39335 0.49184 0.0
H483 H 0.03222 0.42357 0.57927 0.0
C484 C 0.02847 0.35879 0.3136 0.0
C485 C 0.04021 0.36661 0.25615 0.0
C486 C 0.02455 0.37576 0.36411 0.0
C487 C 0.03216 0.40105 0.35853 0.0
C488 C 0.04345 0.40887 0.30047 0.0
C489 C 0.04733 0.39198 0.25016 0.0
C490 C 0.02022 0.46152 0.44877 0.0
C491 C 0.02367 0.45458 0.51474 0.0
C492 C 0.0226 0.44416 0.39869 0.0
C493 C 0.02866 0.41926 0.41275 0.0
C494 C 0.03189 0.41222 0.47884 0.0
C495 C 0.02941 0.42963 0.52913 0.0
H496 H 0.88418 0.03274 0.08092 0.0
H497 H 0.86498 0.95513 0.04665 0.0
H498 H 0.91418 0.03208 0.99373 0.0
H499 H 0.89562 0.95436 0.95932 0.0
H500 H 0.9767 0.96384 0.86176 0.0
H501 H 0.94575 0.96115 0.94799 0.0
H502 H 0.90978 0.02613 0.8682 0.0
H503 H 0.94007 0.02863 0.78199 0.0
C504 C 0.88654 0.01543 0.05507 0.0
C505 C 0.87224 0.99395 0.07105 0.0
C506 C 0.90365 0.0151 1.00482 0.0
C507 C 0.90734 0.99317 0.96955 0.0
C508 C 0.89331 0.97151 0.98586 0.0
C509 C 0.8757 0.97198 0.03554 0.0
C510 C 0.96209 0.97745 0.86241 0.0
C511 C 0.96097 0.99645 0.81468 0.0
C512 C 0.94429 0.97582 0.91162 0.0
C513 C 0.92533 0.99348 0.91507 0.0
C514 C 0.9242 0.01232 0.86721 0.0
C515 C 0.94158 0.01367 0.81753 0.0
H516 H 0.5421 0.90656 0.12883 0.0
H517 H 0.53105 0.84325 1.00041 0.0
H518 H 0.54292 0.93432 0.03455 0.0
H519 H 0.53381 0.87074 0.90657 0.0
H520 H 0.55644 0.97894 0.84853 0.0
H521 H 0.56283 0.95016 0.94033 0.0
H522 H 0.50756 0.89898 0.85328 0.0
H523 H 0.50195 0.92698 0.7615 0.0
C524 C 0.54018 0.89844 0.08063 0.0
C525 C 0.53612 0.87252 0.07289 0.0
C526 C 0.54101 0.91443 0.02627 0.0
C527 C 0.53805 0.90495 0.96248 0.0
C528 C 0.53554 0.8789 0.95475 0.0
C529 C 0.53441 0.86298 0.00899 0.0
C530 C 0.54589 0.96139 0.84875 0.0
C531 C 0.5287 0.95537 0.79732 0.0
C532 C 0.54943 0.94492 0.90168 0.0
C533 C 0.53578 0.92207 0.90461 0.0
C534 C 0.51888 0.91603 0.85257 0.0
C535 C 0.5155 0.93232 0.79977 0.0
H536 H 0.61245 0.53681 0.15437 0.0
H537 H 0.67661 0.5479 0.03357 0.0
H538 H 0.58465 0.53918 0.05782 0.0
H539 H 0.64879 0.55145 0.93765 0.0
H540 H 0.5968 0.51469 0.78122 0.0
H541 H 0.62409 0.52123 0.87654 0.0
H542 H 0.56685 0.56327 0.96691 0.0
H543 H 0.53897 0.55624 0.87078 0.0
C544 C 0.62064 0.54017 0.1074 0.0
C545 C 0.64687 0.54177 0.1019 0.0
C546 C 0.60463 0.54181 0.052 0.0
C547 C 0.61443 0.54514 0.98961 0.0
C548 C 0.64057 0.54838 0.98471 0.0
C549 C 0.65657 0.54668 0.04002 0.0
C550 C 0.58993 0.52549 0.82105 0.0
C551 C 0.56553 0.5348 0.81825 0.0
C552 C 0.60579 0.52946 0.87575 0.0
C553 C 0.59782 0.54289 0.92961 0.0
C554 C 0.57356 0.55269 0.92652 0.0
C555 C 0.55762 0.54878 0.8713 0.0
H556 H 0.01922 0.68287 0.97822 0.0
H557 H 0.98961 0.63011 0.11717 0.0
H558 H 0.01586 0.6513 0.89331 0.0
H559 H 0.98722 0.59783 0.03281 0.0
H560 H 0.9724 0.54839 0.85081 0.0
H561 H 0.9694 0.58098 0.9334 0.0
H562 H 0.03747 0.61613 0.86476 0.0
H563 H 0.03985 0.58451 0.78181 0.0
C564 C 0.01188 0.66445 0.99043 0.0
C565 C 1.00482 0.65893 0.05439 0.0
C566 C 0.01016 0.6462 0.9419 0.0
C567 C 1.00179 0.62166 0.9561 0.0
C568 C 0.99365 0.61645 0.01963 0.0
C569 C 0.99504 0.63493 0.06813 0.0
C570 C 0.98663 0.56318 0.85336 0.0
C571 C 1.00624 0.56387 0.80911 0.0
C572 C 0.98499 0.58184 0.90095 0.0
C573 C 1.00301 0.60155 0.90568 0.0
C574 C 0.02277 0.60183 0.86189 0.0
C575 C 0.02427 0.58344 0.81429 0.0
H576 H 0.10114 0.2042 0.3068 0.0
H577 H 0.07897 0.17841 0.11354 0.0
H578 H 0.08324 0.16617 0.35344 0.0
H579 H 0.06193 0.13991 0.15992 0.0
H580 H 0.99461 0.10743 0.27898 0.0
H581 H 0.0237 0.1344 0.21974 0.0
H582 H 0.0815 0.12144 0.36798 0.0
H583 H 0.05213 0.09493 0.42762 0.0
C584 C 0.09322 0.19 0.27421 0.0
C585 C 0.09116 0.19444 0.20672 0.0
C586 C 0.08309 0.1681 0.30081 0.0
C587 C 0.07075 0.15021 0.26035 0.0
C588 C 0.07092 0.15357 0.19237 0.0
C589 C 0.08102 0.1755 0.16577 0.0
C590 C 0.01368 0.11002 0.298 0.0
C591 C 0.02104 0.09966 0.35831 0.0
C592 C 0.03042 0.1253 0.26401 0.0
C593 C 0.05487 0.13026 0.28958 0.0
C594 C 0.06268 0.11836 0.34768 0.0
C595 C 0.0459 0.10325 0.3818 0.0
H596 H 0.28484 0.05971 0.31418 0.0
H597 H 0.33801 0.10518 0.20799 0.0
H598 H 0.31885 0.04161 0.37709 0.0
H599 H 0.37235 0.08625 0.2706 0.0
H600 H 0.4131 0.00922 0.28821 0.0
H601 H 0.38389 0.04135 0.25486 0.0
H602 H 0.35687 0.04391 0.4509 0.0
H603 H 0.38643 0.01203 0.48478 0.0
C604 C 0.30368 0.06678 0.3061 0.0
C605 C 0.30869 0.08342 0.25448 0.0
C606 C 0.32328 0.05619 0.3422 0.0
C607 C 0.34823 0.06198 0.32727 0.0
C608 C 0.35322 0.08102 0.2818 0.0
C609 C 0.33357 0.09185 0.24607 0.0
C610 C 0.40118 0.01685 0.32442 0.0
C611 C 0.4018 0.00777 0.38883 0.0
C612 C 0.38462 0.03543 0.3055 0.0
C613 C 0.36827 0.04527 0.3505 0.0
C614 C 0.36923 0.0366 0.41523 0.0
C615 C 0.3859 0.01811 0.43428 0.0
H616 H 0.53722 0.29435 0.37918 0.0
H617 H 0.58471 0.29805 0.21276 0.0
H618 H 0.56412 0.32535 0.43482 0.0
H619 H 0.61219 0.3286 0.26929 0.0
H620 H 0.60935 0.38344 0.52652 0.0
H621 H 0.60378 0.34138 0.48267 0.0
H622 H 0.60122 0.37185 0.28693 0.0
H623 H 0.60753 0.41366 0.33073 0.0
C624 C 0.55388 0.30125 0.3554 0.0
C625 C 0.55858 0.29426 0.29121 0.0
C626 C 0.56951 0.3188 0.38755 0.0
C627 C 0.59011 0.3297 0.35599 0.0
C628 C 0.59626 0.32074 0.29442 0.0
C629 C 0.5806 0.30315 0.26226 0.0
C630 C 0.60866 0.38102 0.47406 0.0
C631 C 0.60833 0.40179 0.43192 0.0
C632 C 0.6053 0.35695 0.449 0.0
C633 C 0.60156 0.35333 0.38149 0.0
C634 C 0.6041 0.37393 0.33919 0.0
C635 C 0.60744 0.39795 0.36423 0.0
H636 H 0.19043 0.45996 0.13207 0.0
H637 H 0.22969 0.44679 0.31639 0.0
H638 H 0.15732 0.4802 0.18881 0.0
H639 H 0.19717 0.4682 0.37287 0.0
H640 H 0.12546 0.49335 0.46066 0.0
H641 H 0.15408 0.46723 0.40346 0.0
H642 H 0.15427 0.51987 0.24288 0.0
H643 H 0.12519 0.54579 0.29991 0.0
C644 C 0.19175 0.4609 0.18485 0.0
C645 C 0.21275 0.45183 0.21977 0.0
C646 C 0.17297 0.4729 0.21724 0.0
C647 C 0.17483 0.47619 0.28517 0.0
C648 C 0.19512 0.46591 0.32049 0.0
C649 C 0.21386 0.4538 0.28812 0.0
C650 C 0.1318 0.49942 0.41333 0.0
C651 C 0.12337 0.52173 0.38493 0.0
C652 C 0.14813 0.48443 0.38053 0.0
C653 C 0.15647 0.49146 0.31868 0.0
C654 C 0.14786 0.51371 0.29003 0.0
C655 C 0.13137 0.52864 0.32274 0.0
H656 H 0.06748 0.84143 0.29352 0.0
H657 H 0.11506 0.8155 0.14348 0.0
H658 H 0.0738 0.88442 0.25517 0.0
H659 H 0.1217 0.8584 0.1057 0.0
H660 H 0.05225 0.93181 0.06055 0.0
H661 H 0.05612 0.89938 0.14283 0.0
H662 H 0.13668 0.90405 0.13221 0.0
H663 H 0.13303 0.93761 0.05158 0.0
C664 C 0.08011 0.84508 0.2541 0.0
C665 C 0.09075 0.82528 0.22113 0.0
C666 C 0.08362 0.86961 0.23205 0.0
C667 C 0.09816 0.87468 0.17743 0.0
C668 C 0.11063 0.85506 0.14837 0.0
C669 C 0.10676 0.83052 0.16967 0.0
C670 C 0.07088 0.9269 0.07764 0.0
C671 C 0.09231 0.937 0.04804 0.0
C672 C 0.07308 0.90818 0.12492 0.0
C673 C 0.09669 0.89898 0.14307 0.0
C674 C 0.11824 0.91065 0.11835 0.0
C675 C 0.11609 0.92971 0.07185 0.0
H676 H 0.74873 0.06144 0.98704 0.0
H677 H 0.72871 0.11942 0.11941 0.0
H678 H 0.71628 0.07444 0.90961 0.0
H679 H 0.6964 0.13302 0.04084 0.0
H680 H 0.61723 0.10918 0.95477 0.0
H681 H 0.65699 0.11299 0.01464 0.0
H682 H 0.69618 0.10282 0.8359 0.0
H683 H 0.65597 0.09857 0.77583 0.0
C684 C 0.73801 0.07762 0.99847 0.0
C685 C 0.74093 0.08916 0.05966 0.0
C686 C 0.71939 0.08517 0.95388 0.0
C687 C 0.70341 0.10454 0.96944 0.0
C688 C 0.70802 0.11766 0.02806 0.0
C689 C 0.72651 0.10994 0.07296 0.0
C690 C 0.6343 0.10853 0.92782 0.0
C691 C 0.63349 0.10323 0.86078 0.0
C692 C 0.65721 0.11082 0.96217 0.0
C693 C 0.67985 0.10796 0.93023 0.0
C694 C 0.67906 0.10465 0.86215 0.0
C695 C 0.65608 0.1022 0.82778 0.0
H696 H 0.41632 0.71312 0.13569 0.0
H697 H 0.46033 0.75515 0.99758 0.0
H698 H 0.40905 0.68028 0.05536 0.0
H699 H 0.45156 0.7232 0.91607 0.0
H700 H 0.47134 0.64467 0.84807 0.0
H701 H 0.46894 0.68292 0.9093 0.0
H702 H 0.39194 0.66448 0.95293 0.0
H703 H 0.39451 0.62567 0.89149 0.0
C704 C 0.42397 0.71565 0.08777 0.0
C705 C 0.43945 0.73653 0.07382 0.0
C706 C 0.4195 0.69694 0.04132 0.0
C707 C 0.43018 0.69887 0.97968 0.0
C708 C 0.44358 0.72087 0.96368 0.0
C709 C 0.44831 0.7394 0.0103 0.0
C710 C 0.45368 0.64899 0.86932 0.0
C711 C 0.43311 0.63213 0.86489 0.0
C712 C 0.45226 0.67104 0.90439 0.0
C713 C 0.43019 0.67689 0.93588 0.0
C714 C 0.40928 0.66041 0.92976 0.0
C715 C 0.41075 0.63821 0.89468 0.0
H716 H 0.7743 0.43864 0.05661 0.0
H717 H 0.82134 0.45275 0.22888 0.0
H718 H 0.81159 0.43222 0.99363 0.0
H719 H 0.85838 0.44543 0.16664 0.0
H720 H 0.91366 0.47411 0.01314 0.0
H721 H 0.87753 0.47163 0.08234 0.0
H722 H 0.84914 0.4068 0.97645 0.0
H723 H 0.88525 0.40966 0.90587 0.0
C724 C 0.79254 0.43983 0.08132 0.0
C725 C 0.79484 0.44645 0.14758 0.0
C726 C 0.81388 0.43595 0.0454 0.0
C727 C 0.83791 0.43867 0.07506 0.0
C728 C 0.84011 0.4436 0.14226 0.0
C729 C 0.81882 0.44747 0.17812 0.0
C730 C 0.89971 0.45934 1.00459 0.0
C731 C 0.90216 0.4422 0.95384 0.0
C732 C 0.87917 0.45771 0.04475 0.0
C733 C 0.86055 0.43893 0.03504 0.0
C734 C 0.86316 0.42151 0.98489 0.0
C735 C 0.88387 0.42305 0.94485 0.0
H736 H 0.03339 0.17795 0.9974 0.0
H737 H 0.02928 0.21425 0.80872 0.0
H738 H 0.02898 0.13759 0.94491 0.0
H739 H 0.02701 0.17381 0.75596 0.0
H740 H 1.00305 0.0974 0.67623 0.0
H741 H 1.00399 0.138 0.72905 0.0
H742 H 0.05014 0.10846 0.88714 0.0
H743 H 0.04802 0.06764 0.8357 0.0
C744 C 0.03135 0.17748 0.94469 0.0
C745 C 0.03171 0.19974 0.90775 0.0
C746 C 0.02934 0.15409 0.91425 0.0
C747 C 0.02795 0.15203 0.84565 0.0
C748 C 0.0278 0.17431 0.80875 0.0
C749 C 0.02948 0.19772 0.83925 0.0
C750 C 0.01346 0.0996 0.72221 0.0
C751 C 0.02545 0.07915 0.75158 0.0
C752 C 0.01411 0.12304 0.7526 0.0
C753 C 0.0271 0.12688 0.81297 0.0
C754 C 0.03942 0.10639 0.84166 0.0
C755 C 0.03843 0.08289 0.81172 0.0
H756 H 0.32446 0.06156 0.87144 0.0
H757 H 0.32087 0.9818 0.90026 0.0
H758 H 0.36404 0.05801 0.81636 0.0
H759 H 0.36061 0.97819 0.84395 0.0
H760 H 0.41871 0.98411 0.67292 0.0
H761 H 0.37847 0.98609 0.72724 0.0
H762 H 0.40861 0.04569 0.84927 0.0
H763 H 0.44876 0.04346 0.79627 0.0
C764 C 0.33201 0.04319 0.86554 0.0
C765 C 0.31931 0.02195 0.89011 0.0
C766 C 0.35485 0.04118 0.83427 0.0
C767 C 0.36559 0.01782 0.82549 0.0
C768 C 0.35281 0.99647 0.84941 0.0
C769 C 0.33011 0.99854 0.88202 0.0
C770 C 0.41673 0.99769 0.71122 0.0
C771 C 0.43708 0.01367 0.72994 0.0
C772 C 0.3937 0.99868 0.7427 0.0
C773 C 0.39023 0.01605 0.79272 0.0
C774 C 0.4105 0.03218 0.81076 0.0
C775 C 0.4336 0.03085 0.78035 0.0
H776 H 0.53359 0.31423 0.84816 0.0
H777 H 0.45688 0.33032 0.88939 0.0
H778 H 0.5376 0.35399 0.79009 0.0
H779 H 0.46058 0.3693 0.82914 0.0
H780 H 0.48603 0.4505 0.80358 0.0
H781 H 0.48112 0.40889 0.84896 0.0
H782 H 0.52514 0.37954 0.69554 0.0
H783 H 0.5305 0.4217 0.6502 0.0
C784 C 0.51746 0.32602 0.84421 0.0
C785 C 0.49494 0.31893 0.87416 0.0
C786 C 0.51971 0.34878 0.81027 0.0
C787 C 0.49953 0.36513 0.80544 0.0
C788 C 0.4767 0.35748 0.83275 0.0
C789 C 0.47446 0.33481 0.86661 0.0
C790 C 0.49466 0.43527 0.77906 0.0
C791 C 0.50868 0.43963 0.72298 0.0
C792 C 0.49165 0.41123 0.80499 0.0
C793 C 0.50254 0.39065 0.77582 0.0
C794 C 0.51659 0.39492 0.71961 0.0
C795 C 0.51955 0.4191 0.69338 0.0
H796 H 0.1961 0.49299 0.96205 0.0
H797 H 0.22549 0.47884 0.77233 0.0
H798 H 0.15496 0.49937 0.91198 0.0
H799 H 0.18377 0.48386 0.72248 0.0
H800 H 0.10817 0.51504 0.64767 0.0
H801 H 0.15078 0.51189 0.69392 0.0
H802 H 0.12151 0.47521 0.86458 0.0
H803 H 0.07915 0.479 0.81946 0.0
C804 C 0.19396 0.49153 0.90949 0.0
C805 C 0.21439 0.4854 0.87151 0.0
C806 C 0.1701 0.49476 0.88075 0.0
C807 C 0.16575 0.49178 0.81307 0.0
C808 C 0.1863 0.48641 0.77467 0.0
C809 C 0.21026 0.48327 0.80346 0.0
C810 C 0.11085 0.50626 0.69502 0.0
C811 C 0.0901 0.49741 0.72987 0.0
C812 C 0.13535 0.50437 0.72152 0.0
C813 C 0.13976 0.49351 0.78351 0.0
C814 C 0.11897 0.48423 0.81752 0.0
C815 C 0.09457 0.48622 0.79125 0.0
H816 H 0.01811 0.80609 0.49683 0.0
H817 H 0.96604 0.8363 0.35305 0.0
H818 H 0.01926 0.8453 0.55495 0.0
H819 H 0.96832 0.8763 0.40989 0.0
H820 H 0.96344 0.93966 0.56102 0.0
H821 H 0.95809 0.89912 0.50726 0.0
H822 H 0.03695 0.88598 0.54098 0.0
H823 H 0.04212 0.92589 0.5957 0.0
C824 C 1.00656 0.82093 0.47786 0.0
C825 C 0.99184 0.81772 0.42001 0.0
C826 C 1.0076 0.84372 0.51083 0.0
C827 C 0.99416 0.86423 0.4869 0.0
C828 C 0.97886 0.86094 0.43008 0.0
C829 C 0.97774 0.83801 0.39705 0.0
C830 C 0.9796 0.92804 0.55723 0.0
C831 C 1.00319 0.93608 0.58313 0.0
C832 C 0.97656 0.90483 0.52598 0.0
C833 C 0.99703 0.88907 0.51994 0.0
C834 C 0.02059 0.89726 0.54572 0.0
C835 C 0.02361 0.92034 0.5769 0.0
H836 H 0.70259 0.03611 0.43418 0.0
H837 H 0.68979 0.95973 0.37505 0.0
H838 H 0.66269 0.03556 0.48746 0.0
H839 H 0.65019 0.95836 0.43203 0.0
H840 H 0.56932 0.96991 0.49429 0.0
H841 H 0.60894 0.96912 0.4385 0.0
H842 H 0.64077 0.02339 0.57522 0.0
H843 H 0.60075 0.02521 0.62761 0.0
C844 C 0.69131 0.019 0.43347 0.0
C845 C 0.69953 0.99791 0.40074 0.0
C846 C 0.66835 0.01854 0.46471 0.0
C847 C 0.65289 0.99677 0.4657 0.0
C848 C 0.66113 0.97565 0.43227 0.0
C849 C 0.68398 0.97631 0.39972 0.0
C850 C 0.58487 0.98158 0.51249 0.0
C851 C 0.58172 0.99773 0.56532 0.0
C852 C 0.60779 0.98108 0.48056 0.0
C853 C 0.62847 0.99639 0.50121 0.0
C854 C 0.62538 0.01184 0.5558 0.0
C855 C 0.60236 0.01273 0.58668 0.0
H856 H 0.48742 0.70829 0.4548 0.0
H857 H 0.56639 0.70591 0.41852 0.0
H858 H 0.4889 0.66758 0.5066 0.0
H859 H 0.56841 0.66532 0.47367 0.0
H860 H 0.55696 0.58123 0.51849 0.0
H861 H 0.55811 0.62269 0.46845 0.0
H862 H 0.50121 0.64601 0.59868 0.0
H863 H 0.49921 0.60433 0.64549 0.0
C864 C 0.50527 0.6992 0.45912 0.0
C865 C 0.52684 0.71047 0.43322 0.0
C866 C 0.5062 0.67578 0.48928 0.0
C867 C 0.52886 0.66299 0.49559 0.0
C868 C 0.55052 0.67431 0.46941 0.0
C869 C 0.54946 0.69768 0.43809 0.0
C870 C 0.54483 0.59532 0.53653 0.0
C871 C 0.52779 0.5894 0.58545 0.0
C872 C 0.54554 0.61921 0.50801 0.0
C873 C 0.52951 0.6379 0.52854 0.0
C874 C 0.51331 0.63209 0.57971 0.0
C875 C 0.51226 0.60815 0.60715 0.0
H876 H 0.80605 0.51265 0.52618 0.0
H877 H 0.83629 0.56138 0.37783 0.0
H878 H 0.84692 0.51153 0.58088 0.0
H879 H 0.87776 0.55887 0.43066 0.0
H880 H 0.94724 0.56324 0.56807 0.0
H881 H 0.90498 0.56947 0.52236 0.0
H882 H 0.88543 0.49247 0.56478 0.0
H883 H 0.92711 0.48652 0.61197 0.0
C884 C 0.82128 0.52346 0.50545 0.0
C885 C 0.8176 0.53712 0.44716 0.0
C886 C 0.84497 0.52242 0.53642 0.0
C887 C 0.8659 0.53476 0.50987 0.0
C888 C 0.86215 0.54917 0.45288 0.0
C889 C 0.83833 0.55037 0.42204 0.0
C890 C 0.93384 0.5477 0.56805 0.0
C891 C 0.94066 0.52438 0.59394 0.0
C892 C 0.90961 0.55123 0.5414 0.0
C893 C 0.8916 0.53152 0.53985 0.0
C894 C 0.89849 0.50828 0.56613 0.0
C895 C 0.92258 0.50479 0.59294 0.0
loop_
_geom_bond_atom_site_label_1
_geom_bond_atom_site_label_2
_geom_bond_distance
_geom_bond_site_symmetry_2
_ccdc_geom_bond_type
P0 O11 1.490 . S
P0 C14 1.812 . S
P0 C20 1.803 . S
P0 C26 1.819 . S
H1 C15 0.941 . S
H2 C16 0.939 . S
H3 C18 0.940 . S
H4 C19 0.940 . S
H5 C21 0.939 . S
H6 C22 0.942 . S
H7 C24 0.940 . S
H8 C25 0.939 . S
H9 C27 0.941 . S
H10 C31 0.939 . S
O11 P0 1.490 . S
H12 C28 0.939 . S
H13 C30 0.940 . S
C14 P0 1.812 . S
C14 C15 1.389 . S
C14 C19 1.391 . S
C15 H1 0.941 . S
C15 C14 1.389 . S
C15 C16 1.397 . S
C16 H2 0.939 . S
C16 C15 1.397 . S
C16 C17 1.378 . S
C17 C16 1.378 . S
C17 C18 1.378 . S
C18 H3 0.940 . S
C18 C17 1.378 . S
C18 C19 1.396 . S
C19 H4 0.940 . S
C19 C14 1.391 . S
C19 C18 1.396 . S
C20 P0 1.803 . S
C20 C21 1.378 . S
C20 C25 1.400 . S
C21 H5 0.939 . S
C21 C20 1.378 . S
C21 C22 1.361 . S
C22 H6 0.942 . S
C22 C21 1.361 . S
C22 C23 1.369 . S
C23 C22 1.369 . S
C23 C24 1.404 . S
C24 H7 0.940 . S
C24 C23 1.404 . S
C24 C25 1.389 . S
C25 H8 0.939 . S
C25 C20 1.400 . S
C25 C24 1.389 . S
C26 P0 1.819 . S
C26 C27 1.391 . S
C26 C31 1.391 . S
C27 H9 0.941 . S
C27 C26 1.391 . S
C27 C28 1.396 . S
C28 H12 0.939 . S
C28 C27 1.396 . S
C28 C29 1.397 . S
C29 C28 1.397 . S
C29 C30 1.385 . S
C30 H13 0.940 . S
C30 C29 1.385 . S
C30 C31 1.388 . S
C31 H10 0.939 . S
C31 C26 1.391 . S
C31 C30 1.388 . S
P32 O43 1.490 1_655 S
P32 C46 1.812 . S
P32 C52 1.803 . S
P32 C58 1.819 . S
H33 C47 0.941 1_455 S
H34 C48 0.939 . S
H35 C50 0.940 . S
H36 C51 0.940 . S
H37 C53 0.939 1_455 S
H38 C54 0.931 1_455 S
H39 C56 0.940 . S
H40 C57 0.939 . S
H41 C59 0.941 1_455 S
H42 C63 0.939 . S
O43 P32 1.490 1_455 S
H44 C60 0.939 . S
H45 C62 0.940 . S
C46 P32 1.812 . S
C46 C47 1.389 . S
C46 C51 1.391 . S
C47 H33 0.941 1_655 S
C47 C46 1.389 . S
C47 C48 1.397 . S
C48 H34 0.939 . S
C48 C47 1.397 . S
C48 C49 1.378 . S
C49 C48 1.378 . S
C49 C50 1.378 . S
C50 H35 0.940 . S
C50 C49 1.378 . S
C50 C51 1.396 . S
C51 H36 0.940 . S
C51 C46 1.391 . S
C51 C50 1.396 . S
C52 P32 1.803 . S
C52 C53 1.378 . S
C52 C57 1.400 . S
C53 H37 0.939 1_655 S
C53 C52 1.378 . S
C53 C54 1.361 . S
C54 H38 0.931 1_655 S
C54 C53 1.361 . S
C54 C55 1.369 . S
C55 C54 1.369 . S
C55 C56 1.404 . S
C56 H39 0.940 . S
C56 C55 1.404 . S
C56 C57 1.389 . S
C57 H40 0.939 . S
C57 C52 1.400 . S
C57 C56 1.389 . S
C58 P32 1.819 . S
C58 C59 1.391 . S
C58 C63 1.391 . S
C59 H41 0.941 1_655 S
C59 C58 1.391 . S
C59 C60 1.396 . S
C60 H44 0.939 . S
C60 C59 1.396 . S
C60 C61 1.397 . S
C61 C60 1.397 . S
C61 C62 1.385 . S
C62 H45 0.940 . S
C62 C61 1.385 . S
C62 C63 1.388 . S
C63 H42 0.939 . S
C63 C58 1.391 . S
C63 C62 1.388 . S
P64 O75 1.490 1_565 S
P64 C78 1.812 . S
P64 C84 1.803 . S
P64 C90 1.819 . S
H65 C79 0.941 1_545 S
H66 C80 0.939 . S
H67 C82 0.940 . S
H68 C83 0.940 . S
H69 C85 0.939 1_545 S
H70 C86 0.942 . S
H71 C88 0.940 . S
H72 C89 0.939 . S
H73 C91 0.941 1_545 S
H74 C95 0.939 . S
O75 P64 1.490 1_545 S
H76 C92 0.939 . S
H77 C94 0.940 . S
C78 P64 1.812 . S
C78 C79 1.389 . S
C78 C83 1.391 . S
C79 H65 0.941 1_565 S
C79 C78 1.389 . S
C79 C80 1.397 . S
C80 H66 0.939 . S
C80 C79 1.397 . S
C80 C81 1.378 . S
C81 C80 1.378 . S
C81 C82 1.378 . S
C82 H67 0.940 . S
C82 C81 1.378 . S
C82 C83 1.396 . S
C83 H68 0.940 . S
C83 C78 1.391 . S
C83 C82 1.396 . S
C84 P64 1.803 . S
C84 C85 1.378 . S
C84 C89 1.400 . S
C85 H69 0.939 1_565 S
C85 C84 1.378 . S
C85 C86 1.361 . S
C86 H70 0.942 . S
C86 C85 1.361 . S
C86 C87 1.369 . S
C87 C86 1.369 . S
C87 C88 1.404 . S
C88 H71 0.940 . S
C88 C87 1.404 . S
C88 C89 1.389 . S
C89 H72 0.939 . S
C89 C84 1.400 . S
C89 C88 1.389 . S
C90 P64 1.819 . S
C90 C91 1.391 . S
C90 C95 1.391 . S
C91 H73 0.941 1_565 S
C91 C90 1.391 . S
C91 C92 1.396 . S
C92 H76 0.939 . S
C92 C91 1.396 . S
C92 C93 1.397 . S
C93 C92 1.397 . S
C93 C94 1.385 . S
C94 H77 0.940 . S
C94 C93 1.385 . S
C94 C95 1.388 . S
C95 H74 0.939 . S
C95 C90 1.391 . S
C95 C94 1.388 . S
P96 O107 1.490 . S
P96 C110 1.812 . S
P96 C116 1.803 . S
P96 C122 1.819 . S
H97 C111 0.941 . S
H98 C112 0.939 . S
H99 C114 0.940 . S
H100 C115 0.940 . S
H101 C117 0.939 . S
H102 C118 0.942 . S
H103 C120 0.940 . S
H104 C121 0.939 . S
H105 C123 0.941 . S
H106 C127 0.939 . S
O107 P96 1.490 . S
H108 C124 0.939 . S
H109 C126 0.940 . S
C110 P96 1.812 . S
C110 C111 1.389 . S
C110 C115 1.391 . S
C111 H97 0.941 . S
C111 C110 1.389 . S
C111 C112 1.397 . S
C112 H98 0.939 . S
C112 C111 1.397 . S
C112 C113 1.378 . S
C113 C112 1.378 . S
C113 C114 1.378 . S
C114 H99 0.940 . S
C114 C113 1.378 . S
C114 C115 1.396 . S
C115 H100 0.940 . S
C115 C110 1.391 . S
C115 C114 1.396 . S
C116 P96 1.803 . S
C116 C117 1.378 . S
C116 C121 1.400 . S
C117 H101 0.939 . S
C117 C116 1.378 . S
C117 C118 1.361 . S
C118 H102 0.942 . S
C118 C117 1.361 . S
C118 C119 1.369 . S
C119 C118 1.369 . S
C119 C120 1.404 . S
C120 H103 0.940 . S
C120 C119 1.404 . S
C120 C121 1.389 . S
C121 H104 0.939 . S
C121 C116 1.400 . S
C121 C120 1.389 . S
C122 P96 1.819 . S
C122 C123 1.391 . S
C122 C127 1.391 . S
C123 H105 0.941 . S
C123 C122 1.391 . S
C123 C124 1.396 . S
C124 H108 0.939 . S
C124 C123 1.396 . S
C124 C125 1.397 . S
C125 C124 1.397 . S
C125 C126 1.385 . S
C126 H109 0.940 . S
C126 C125 1.385 . S
C126 C127 1.388 . S
C127 H106 0.939 . S
C127 C122 1.391 . S
C127 C126 1.388 . S
P128 O139 1.490 . S
P128 C142 1.812 . S
P128 C148 1.803 . S
P128 C154 1.819 . S
H129 C143 0.941 . S
H130 C144 0.939 . S
H131 C146 0.940 . S
H132 C147 0.940 1_554 S
H133 C149 0.939 . S
H134 C150 0.942 . S
H135 C152 0.940 . S
H136 C153 0.939 . S
H137 C155 0.941 . S
H138 C159 0.939 . S
O139 P128 1.490 . S
H140 C156 0.939 . S
H141 C158 0.940 . S
C142 P128 1.812 . S
C142 C143 1.389 1_554 S
C142 C147 1.391 1_554 S
C143 H129 0.941 . S
C143 C142 1.389 1_556 S
C143 C144 1.397 . S
C144 H130 0.939 . S
C144 C143 1.397 . S
C144 C145 1.378 . S
C145 C144 1.378 . S
C145 C146 1.378 . S
C146 H131 0.940 . S
C146 C145 1.378 . S
C146 C147 1.396 . S
C147 H132 0.940 1_556 S
C147 C142 1.391 1_556 S
C147 C146 1.396 . S
C148 P128 1.803 . S
C148 C149 1.378 . S
C148 C153 1.400 . S
C149 H133 0.939 . S
C149 C148 1.378 . S
C149 C150 1.361 . S
C150 H134 0.942 . S
C150 C149 1.361 . S
C150 C151 1.369 . S
C151 C150 1.369 . S
C151 C152 1.404 . S
C152 H135 0.940 . S
C152 C151 1.404 . S
C152 C153 1.389 . S
C153 H136 0.939 . S
C153 C148 1.400 . S
C153 C152 1.389 . S
C154 P128 1.819 . S
C154 C155 1.391 . S
C154 C159 1.391 . S
C155 H137 0.941 . S
C155 C154 1.391 . S
C155 C156 1.396 . S
C156 H140 0.939 . S
C156 C155 1.396 . S
C156 C157 1.397 . S
C157 C156 1.397 . S
C157 C158 1.385 . S
C158 H141 0.940 . S
C158 C157 1.385 . S
C158 C159 1.388 . S
C159 H138 0.939 . S
C159 C154 1.391 . S
C159 C158 1.388 . S
P160 O171 1.490 . S
P160 C174 1.812 1_554 S
P160 C180 1.803 . S
P160 C186 1.819 . S
H161 C175 0.941 . S
H162 C176 0.939 . S
H163 C178 0.940 . S
H164 C179 0.940 . S
H165 C181 0.939 . S
H166 C182 0.942 . S
H167 C184 0.940 . S
H168 C185 0.939 . S
H169 C187 0.941 . S
H170 C191 0.939 . S
O171 P160 1.490 . S
H172 C188 0.939 . S
H173 C190 0.940 . S
C174 P160 1.812 1_556 S
C174 C175 1.389 . S
C174 C179 1.391 . S
C175 H161 0.941 . S
C175 C174 1.389 . S
C175 C176 1.397 . S
C176 H162 0.939 . S
C176 C175 1.397 . S
C176 C177 1.378 . S
C177 C176 1.378 . S
C177 C178 1.378 . S
C178 H163 0.940 . S
C178 C177 1.378 . S
C178 C179 1.396 . S
C179 H164 0.940 . S
C179 C174 1.391 . S
C179 C178 1.396 . S
C180 P160 1.803 . S
C180 C181 1.378 . S
C180 C185 1.400 . S
C181 H165 0.939 . S
C181 C180 1.378 . S
C181 C182 1.361 . S
C182 H166 0.942 . S
C182 C181 1.361 . S
C182 C183 1.369 . S
C183 C182 1.369 . S
C183 C184 1.404 . S
C184 H167 0.940 . S
C184 C183 1.404 . S
C184 C185 1.389 . S
C185 H168 0.939 . S
C185 C180 1.400 . S
C185 C184 1.389 . S
C186 P160 1.819 . S
C186 C187 1.391 . S
C186 C191 1.391 . S
C187 H169 0.941 . S
C187 C186 1.391 . S
C187 C188 1.396 . S
C188 H172 0.939 . S
C188 C187 1.396 . S
C188 C189 1.397 . S
C189 C188 1.397 . S
C189 C190 1.385 . S
C190 H173 0.940 . S
C190 C189 1.385 . S
C190 C191 1.388 . S
C191 H170 0.939 . S
C191 C186 1.391 . S
C191 C190 1.388 . S
P192 O203 1.490 . S
P192 C206 1.812 1_554 S
P192 C212 1.803 . S
P192 C218 1.819 . S
H193 C207 0.941 . S
H194 C208 0.939 . S
H195 C210 0.940 . S
H196 C211 0.940 . S
H197 C213 0.939 . S
H198 C214 0.942 . S
H199 C216 0.940 . S
H200 C217 0.939 1_556 S
H201 C219 0.941 . S
H202 C223 0.939 . S
O203 P192 1.490 . S
H204 C220 0.939 . S
H205 C222 0.940 . S
C206 P192 1.812 1_556 S
C206 C207 1.389 . S
C206 C211 1.391 . S
C207 H193 0.941 . S
C207 C206 1.389 . S
C207 C208 1.397 . S
C208 H194 0.939 . S
C208 C207 1.397 . S
C208 C209 1.378 . S
C209 C208 1.378 . S
C209 C210 1.378 . S
C210 H195 0.940 . S
C210 C209 1.378 . S
C210 C211 1.396 . S
C211 H196 0.940 . S
C211 C206 1.391 . S
C211 C210 1.396 . S
C212 P192 1.803 . S
C212 C213 1.378 . S
C212 C217 1.400 . S
C213 H197 0.939 . S
C213 C212 1.378 . S
C213 C214 1.361 . S
C214 H198 0.942 . S
C214 C213 1.361 . S
C214 C215 1.369 . S
C215 C214 1.369 . S
C215 C216 1.404 . S
C216 H199 0.940 . S
C216 C215 1.404 . S
C216 C217 1.389 . S
C217 H200 0.939 1_554 S
C217 C212 1.400 . S
C217 C216 1.389 . S
C218 P192 1.819 . S
C218 C219 1.391 . S
C218 C223 1.391 . S
C219 H201 0.941 . S
C219 C218 1.391 . S
C219 C220 1.396 . S
C220 H204 0.939 . S
C220 C219 1.396 . S
C220 C221 1.397 . S
C221 C220 1.397 . S
C221 C222 1.385 . S
C222 H205 0.940 . S
C222 C221 1.385 . S
C222 C223 1.388 . S
C223 H202 0.939 . S
C223 C218 1.391 . S
C223 C222 1.388 . S
P224 O235 1.490 . S
P224 C238 1.812 1_554 S
P224 C244 1.803 . S
P224 C250 1.819 . S
H225 C239 0.941 . S
H226 C240 0.939 . S
H227 C242 0.940 . S
H228 C243 0.940 1_554 S
H229 C245 0.939 . S
H230 C246 0.942 . S
H231 C248 0.940 . S
H232 C249 0.939 . S
H233 C251 0.941 . S
H234 C255 0.939 . S
O235 P224 1.490 . S
H236 C252 0.939 . S
H237 C254 0.940 . S
C238 P224 1.812 1_556 S
C238 C239 1.389 . S
C238 C243 1.391 . S
C239 H225 0.941 . S
C239 C238 1.389 . S
C239 C240 1.397 . S
C240 H226 0.939 . S
C240 C239 1.397 . S
C240 C241 1.378 . S
C241 C240 1.378 . S
C241 C242 1.378 . S
C242 H227 0.940 . S
C242 C241 1.378 . S
C242 C243 1.396 . S
C243 H228 0.940 1_556 S
C243 C238 1.391 . S
C243 C242 1.396 . S
C244 P224 1.803 . S
C244 C245 1.378 . S
C244 C249 1.400 . S
C245 H229 0.939 . S
C245 C244 1.378 . S
C245 C246 1.361 . S
C246 H230 0.942 . S
C246 C245 1.361 . S
C246 C247 1.369 . S
C247 C246 1.369 . S
C247 C248 1.404 . S
C248 H231 0.940 . S
C248 C247 1.404 . S
C248 C249 1.389 . S
C249 H232 0.939 . S
C249 C244 1.400 . S
C249 C248 1.389 . S
C250 P224 1.819 . S
C250 C251 1.391 . S
C250 C255 1.391 . S
C251 H233 0.941 . S
C251 C250 1.391 . S
C251 C252 1.396 . S
C252 H236 0.939 . S
C252 C251 1.396 . S
C252 C253 1.397 . S
C253 C252 1.397 . S
C253 C254 1.385 . S
C254 H237 0.940 . S
C254 C253 1.385 . S
C254 C255 1.388 . S
C255 H234 0.939 . S
C255 C250 1.391 . S
C255 C254 1.388 . S
Eu256 C265 2.828 . S
Eu256 O267 2.392 . S
Eu256 O269 2.418 1_545 S
Eu256 O274 2.373 1_655 S
Eu256 O277 2.488 . S
Eu256 O278 2.471 . S
Eu256 O279 2.349 1_655 S
Eu257 O266 2.373 1_455 S
Eu257 O270 2.488 . S
Eu257 O271 2.471 . S
Eu257 O272 2.349 . S
Eu257 O275 2.392 1_565 S
Eu257 O276 2.418 1_565 S
Eu257 C286 2.828 . S
C258 O276 1.244 . S
C258 O279 1.265 . S
C259 C260 1.379 1_655 S
C259 C263 1.373 . S
C259 C265 1.505 . S
C260 C259 1.379 1_455 S
C260 C262 1.369 . S
C260 H288 0.930 . S
C261 C263 1.383 . S
C261 C264 1.353 1_655 S
C261 H289 0.930 . S
C262 C260 1.369 . S
C262 C264 1.414 . S
C262 H290 0.930 . S
C263 C259 1.373 . S
C263 C261 1.383 . S
C263 H291 0.931 . S
C264 C261 1.353 1_455 S
C264 C262 1.414 . S
C265 Eu256 2.828 . S
C265 C259 1.505 . S
C265 O277 1.249 . S
C265 O278 1.244 . S
O266 Eu257 2.373 1_655 S
O266 C268 1.258 . S
O267 Eu256 2.392 . S
O267 C268 1.242 1_545 S
C268 O266 1.258 . S
C268 O267 1.242 1_565 S
O269 Eu256 2.418 1_565 S
O269 C273 1.244 . S
O270 Eu257 2.488 . S
O270 C286 1.249 . S
O271 Eu257 2.471 . S
O271 C286 1.244 . S
O272 Eu257 2.349 . S
O272 C273 1.265 1_455 S
C273 O269 1.244 . S
C273 O272 1.265 1_655 S
O274 Eu256 2.373 1_455 S
O274 C287 1.258 . S
O275 Eu257 2.392 1_545 S
O275 C287 1.242 . S
O276 Eu257 2.418 1_545 S
O276 C258 1.244 . S
O277 Eu256 2.488 . S
O277 C265 1.249 . S
O278 Eu256 2.471 . S
O278 C265 1.244 . S
O279 Eu256 2.349 1_455 S
O279 C258 1.265 . S
C280 C281 1.379 . S
C280 C284 1.373 . S
C280 C286 1.505 . S
C281 C280 1.379 . S
C281 C283 1.369 . S
C281 H292 0.930 1_455 S
C282 C284 1.383 . S
C282 C285 1.382 . S
C282 H293 0.930 1_556 S
C283 C281 1.369 . S
C283 C285 1.392 . S
C283 H294 0.930 1_455 S
C284 C280 1.373 . S
C284 C282 1.383 . S
C284 H295 0.931 . S
C285 C282 1.382 . S
C285 C283 1.392 . S
C286 Eu257 2.828 . S
C286 O270 1.249 . S
C286 O271 1.244 . S
C286 C280 1.505 . S
C287 O274 1.258 . S
C287 O275 1.242 . S
H288 C260 0.930 . S
H289 C261 0.930 . S
H290 C262 0.930 . S
H291 C263 0.931 . S
H292 C281 0.930 1_655 S
H293 C282 0.930 1_554 S
H294 C283 0.930 1_655 S
H295 C284 0.931 . S
Eu296 C305 2.828 . S
Eu296 O307 2.392 . S
Eu296 O309 2.418 . S
Eu296 O314 2.373 . S
Eu296 O317 2.488 . S
Eu296 O318 2.471 . S
Eu296 O319 2.349 1_545 S
Eu297 O306 2.373 1_565 S
Eu297 O310 2.488 . S
Eu297 O311 2.471 1_565 S
Eu297 O312 2.349 1_565 S
Eu297 O315 2.392 . S
Eu297 O316 2.418 . S
Eu297 C326 2.828 . S
C298 O316 1.244 . S
C298 O319 1.265 . S
C299 C300 1.379 1_545 S
C299 C303 1.373 . S
C299 C305 1.505 . S
C300 C299 1.379 1_565 S
C300 C302 1.369 . S
C300 H328 0.930 . S
C301 C303 1.383 . S
C301 C304 1.382 . S
C301 H329 0.930 . S
C302 C300 1.369 . S
C302 C304 1.392 1_565 S
C302 H330 0.930 . S
C303 C299 1.373 . S
C303 C301 1.383 . S
C303 H331 0.931 . S
C304 C301 1.382 . S
C304 C302 1.392 1_545 S
C305 Eu296 2.828 . S
C305 C299 1.505 . S
C305 O317 1.249 . S
C305 O318 1.244 . S
O306 Eu297 2.373 1_545 S
O306 C308 1.258 . S
O307 Eu296 2.392 . S
O307 C308 1.242 . S
C308 O306 1.258 . S
C308 O307 1.242 . S
O309 Eu296 2.418 . S
O309 C313 1.244 . S
O310 Eu297 2.488 . S
O310 C326 1.249 . S
O311 Eu297 2.471 1_545 S
O311 C326 1.244 1_545 S
O312 Eu297 2.349 1_545 S
O312 C313 1.265 . S
C313 O309 1.244 . S
C313 O312 1.265 . S
O314 Eu296 2.373 . S
O314 C327 1.258 1_545 S
O315 Eu297 2.392 . S
O315 C327 1.242 . S
O316 Eu297 2.418 . S
O316 C298 1.244 . S
O317 Eu296 2.488 . S
O317 C305 1.249 . S
O318 Eu296 2.471 . S
O318 C305 1.244 . S
O319 Eu296 2.349 1_565 S
O319 C298 1.265 . S
C320 C321 1.379 1_565 S
C320 C324 1.373 . S
C320 C326 1.505 . S
C321 C320 1.379 1_545 S
C321 C323 1.369 . S
C321 H332 0.930 . S
C322 C324 1.383 . S
C322 C325 1.382 . S
C322 H333 0.930 . S
C323 C321 1.369 . S
C323 C325 1.392 1_545 S
C323 H334 0.930 . S
C324 C320 1.373 . S
C324 C322 1.383 . S
C324 H335 0.931 . S
C325 C322 1.382 . S
C325 C323 1.392 1_565 S
C326 Eu297 2.828 . S
C326 O310 1.249 . S
C326 O311 1.244 1_565 S
C326 C320 1.505 . S
C327 O314 1.258 1_565 S
C327 O315 1.242 . S
H328 C300 0.930 . S
H329 C301 0.930 . S
H330 C302 0.930 . S
H331 C303 0.931 . S
H332 C321 0.930 . S
H333 C322 0.930 . S
H334 C323 0.930 . S
H335 C324 0.931 . S
Eu336 C345 2.828 . S
Eu336 O347 2.392 . S
Eu336 O349 2.418 . S
Eu336 O354 2.373 . S
Eu336 O357 2.488 . S
Eu336 O358 2.471 . S
Eu336 O359 2.349 . S
Eu337 O346 2.373 . S
Eu337 O350 2.488 . S
Eu337 O351 2.471 . S
Eu337 O352 2.349 . S
Eu337 O355 2.392 . S
Eu337 O356 2.418 . S
Eu337 C366 2.828 . S
C338 O356 1.244 . S
C338 O359 1.265 . S
C339 C340 1.379 . S
C339 C343 1.373 . S
C339 C345 1.505 . S
C340 C339 1.379 . S
C340 C342 1.369 . S
C340 H368 0.930 . S
C341 C343 1.383 . S
C341 C344 1.382 . S
C341 H369 0.930 . S
C342 C340 1.369 . S
C342 C344 1.392 . S
C342 H370 0.930 . S
C343 C339 1.373 . S
C343 C341 1.383 . S
C343 H371 0.931 . S
C344 C341 1.382 . S
C344 C342 1.392 . S
C345 Eu336 2.828 . S
C345 C339 1.505 . S
C345 O357 1.249 . S
C345 O358 1.244 . S
O346 Eu337 2.373 . S
O346 C348 1.258 . S
O347 Eu336 2.392 . S
O347 C348 1.242 . S
C348 O346 1.258 . S
C348 O347 1.242 . S
O349 Eu336 2.418 . S
O349 C353 1.244 . S
O350 Eu337 2.488 . S
O350 C366 1.249 . S
O351 Eu337 2.471 . S
O351 C366 1.244 . S
O352 Eu337 2.349 . S
O352 C353 1.265 . S
C353 O349 1.244 . S
C353 O352 1.265 . S
O354 Eu336 2.373 . S
O354 C367 1.258 . S
O355 Eu337 2.392 . S
O355 C367 1.242 . S
O356 Eu337 2.418 . S
O356 C338 1.244 . S
O357 Eu336 2.488 . S
O357 C345 1.249 . S
O358 Eu336 2.471 . S
O358 C345 1.244 . S
O359 Eu336 2.349 . S
O359 C338 1.265 . S
C360 C361 1.379 . S
C360 C364 1.373 . S
C360 C366 1.505 . S
C361 C360 1.379 . S
C361 C363 1.369 . S
C361 H372 0.930 . S
C362 C364 1.383 . S
C362 C365 1.382 . S
C362 H373 0.930 . S
C363 C361 1.369 . S
C363 C365 1.392 . S
C363 H374 0.930 . S
C364 C360 1.373 . S
C364 C362 1.383 . S
C364 H375 0.931 . S
C365 C362 1.382 . S
C365 C363 1.392 . S
C366 Eu337 2.828 . S
C366 O350 1.249 . S
C366 O351 1.244 . S
C366 C360 1.505 . S
C367 O354 1.258 . S
C367 O355 1.242 . S
H368 C340 0.930 . S
H369 C341 0.930 . S
H370 C342 0.930 . S
H371 C343 0.931 . S
H372 C361 0.930 . S
H373 C362 0.930 . S
H374 C363 0.930 . S
H375 C364 0.931 . S
Eu376 C385 2.828 . S
Eu376 O387 2.392 . S
Eu376 O389 2.418 1_455 S
Eu376 O394 2.373 . S
Eu376 O397 2.488 . S
Eu376 O398 2.471 . S
Eu376 O399 2.349 . S
Eu377 O386 2.373 . S
Eu377 O390 2.488 . S
Eu377 O391 2.471 . S
Eu377 O392 2.349 . S
Eu377 O395 2.392 1_655 S
Eu377 O396 2.418 1_655 S
Eu377 C406 2.828 . S
C378 O396 1.244 . S
C378 O399 1.265 . S
C379 C380 1.379 . S
C379 C383 1.373 . S
C379 C385 1.505 . S
C380 C379 1.379 . S
C380 C382 1.369 . S
C380 H408 0.930 . S
C381 C383 1.383 . S
C381 C384 1.382 . S
C381 H409 0.930 . S
C382 C380 1.369 . S
C382 C384 1.392 . S
C382 H410 0.930 . S
C383 C379 1.373 . S
C383 C381 1.383 . S
C383 H411 0.931 . S
C384 C381 1.382 . S
C384 C382 1.392 . S
C385 Eu376 2.828 . S
C385 C379 1.505 . S
C385 O397 1.249 . S
C385 O398 1.244 . S
O386 Eu377 2.373 . S
O386 C388 1.249 1_655 S
O387 Eu376 2.392 . S
O387 C388 1.261 . S
C388 O386 1.249 1_455 S
C388 O387 1.261 . S
O389 Eu376 2.418 1_655 S
O389 C393 1.244 . S
O390 Eu377 2.488 . S
O390 C406 1.249 . S
O391 Eu377 2.471 . S
O391 C406 1.244 . S
O392 Eu377 2.349 . S
O392 C393 1.265 . S
C393 O389 1.244 . S
C393 O392 1.265 . S
O394 Eu376 2.373 . S
O394 C407 1.258 . S
O395 Eu377 2.392 1_455 S
O395 C407 1.242 . S
O396 Eu377 2.418 1_455 S
O396 C378 1.244 . S
O397 Eu376 2.488 . S
O397 C385 1.249 . S
O398 Eu376 2.471 . S
O398 C385 1.244 . S
O399 Eu376 2.349 . S
O399 C378 1.265 . S
C400 C401 1.379 . S
C400 C404 1.373 . S
C400 C406 1.505 . S
C401 C400 1.379 . S
C401 C403 1.369 . S
C401 H412 0.930 . S
C402 C404 1.383 . S
C402 C405 1.382 . S
C402 H413 0.930 . S
C403 C401 1.369 . S
C403 C405 1.392 . S
C403 H414 0.930 . S
C404 C400 1.373 . S
C404 C402 1.383 . S
C404 H415 0.931 . S
C405 C402 1.382 . S
C405 C403 1.392 . S
C406 Eu377 2.828 . S
C406 O390 1.249 . S
C406 O391 1.244 . S
C406 C400 1.505 . S
C407 O394 1.258 . S
C407 O395 1.242 . S
H408 C380 0.930 . S
H409 C381 0.930 . S
H410 C382 0.930 . S
H411 C383 0.931 . S
H412 C401 0.930 . S
H413 C402 0.930 . S
H414 C403 0.930 . S
H415 C404 0.931 . S
H416 C424 0.950 . S
H417 C429 0.950 . S
H418 C426 0.950 . S
H419 C428 0.950 . S
H420 C430 0.950 . S
H421 C432 0.950 . S
H422 C434 0.950 . S
H423 C435 0.950 . S
C424 H416 0.950 . S
C424 C425 1.386 . S
C424 C426 1.391 . S
C425 C424 1.386 . S
C425 C429 1.393 . S
C426 H418 0.950 . S
C426 C424 1.391 . S
C426 C427 1.400 . S
C427 C426 1.400 . S
C427 C428 1.398 . S
C427 C433 1.491 . S
C428 H419 0.950 . S
C428 C427 1.398 . S
C428 C429 1.391 . S
C429 H417 0.950 . S
C429 C425 1.393 . S
C429 C428 1.391 . S
C430 H420 0.950 . S
C430 C431 1.386 . S
C430 C432 1.391 . S
C431 C430 1.386 . S
C431 C435 1.393 . S
C432 H421 0.950 . S
C432 C430 1.391 . S
C432 C433 1.400 . S
C433 C427 1.491 . S
C433 C432 1.400 . S
C433 C434 1.398 . S
C434 H422 0.950 . S
C434 C433 1.398 . S
C434 C435 1.391 . S
C435 H423 0.950 . S
C435 C431 1.393 . S
C435 C434 1.391 . S
H436 C444 0.950 . S
H437 C449 0.950 . S
H438 C446 0.950 . S
H439 C448 0.950 . S
H440 C450 0.950 . S
H441 C452 0.950 . S
H442 C454 0.950 . S
H443 C455 0.950 . S
C444 H436 0.950 . S
C444 C445 1.386 . S
C444 C446 1.391 . S
C445 C444 1.386 . S
C445 C449 1.393 . S
C446 H438 0.950 . S
C446 C444 1.391 . S
C446 C447 1.400 . S
C447 C446 1.400 . S
C447 C448 1.398 . S
C447 C453 1.491 . S
C448 H439 0.950 . S
C448 C447 1.398 . S
C448 C449 1.391 . S
C449 H437 0.950 . S
C449 C445 1.393 . S
C449 C448 1.391 . S
C450 H440 0.950 . S
C450 C451 1.386 . S
C450 C452 1.391 . S
C451 C450 1.386 . S
C451 C455 1.393 . S
C452 H441 0.950 . S
C452 C450 1.391 . S
C452 C453 1.400 . S
C453 C447 1.491 . S
C453 C452 1.400 . S
C453 C454 1.398 . S
C454 H442 0.950 . S
C454 C453 1.398 . S
C454 C455 1.391 . S
C455 H443 0.950 . S
C455 C451 1.393 . S
C455 C454 1.391 . S
H456 C464 0.950 . S
H457 C469 0.950 . S
H458 C466 0.950 . S
H459 C468 0.950 . S
H460 C470 0.950 . S
H461 C472 0.950 . S
H462 C474 0.950 . S
H463 C475 0.950 . S
C464 H456 0.950 . S
C464 C465 1.386 . S
C464 C466 1.391 . S
C465 C464 1.386 . S
C465 C469 1.393 . S
C466 H458 0.950 . S
C466 C464 1.391 . S
C466 C467 1.400 . S
C467 C466 1.400 . S
C467 C468 1.398 . S
C467 C473 1.491 . S
C468 H459 0.950 . S
C468 C467 1.398 . S
C468 C469 1.391 . S
C469 H457 0.950 . S
C469 C465 1.393 . S
C469 C468 1.391 . S
C470 H460 0.950 . S
C470 C471 1.386 . S
C470 C472 1.391 . S
C471 C470 1.386 . S
C471 C475 1.393 . S
C472 H461 0.950 . S
C472 C470 1.391 . S
C472 C473 1.400 . S
C473 C467 1.491 . S
C473 C472 1.400 . S
C473 C474 1.398 . S
C474 H462 0.950 . S
C474 C473 1.398 . S
C474 C475 1.391 . S
C475 H463 0.950 . S
C475 C471 1.393 . S
C475 C474 1.391 . S
H476 C484 0.950 . S
H477 C489 0.950 . S
H478 C486 0.950 . S
H479 C488 0.950 . S
H480 C490 0.950 . S
H481 C492 0.950 . S
H482 C494 0.950 . S
H483 C495 0.950 1_655 S
C484 H476 0.950 . S
C484 C485 1.386 . S
C484 C486 1.391 . S
C485 C484 1.386 . S
C485 C489 1.393 . S
C486 H478 0.950 . S
C486 C484 1.391 . S
C486 C487 1.400 . S
C487 C486 1.400 . S
C487 C488 1.398 . S
C487 C493 1.491 . S
C488 H479 0.950 . S
C488 C487 1.398 . S
C488 C489 1.391 . S
C489 H477 0.950 . S
C489 C485 1.393 . S
C489 C488 1.391 . S
C490 H480 0.950 . S
C490 C491 1.386 . S
C490 C492 1.391 . S
C491 C490 1.386 . S
C491 C495 1.393 . S
C492 H481 0.950 . S
C492 C490 1.391 . S
C492 C493 1.400 . S
C493 C487 1.491 . S
C493 C492 1.400 . S
C493 C494 1.398 . S
C494 H482 0.950 . S
C494 C493 1.398 . S
C494 C495 1.391 . S
C495 H483 0.950 1_455 S
C495 C491 1.393 . S
C495 C494 1.391 . S
H496 C504 0.950 . S
H497 C509 0.950 . S
H498 C506 0.950 1_545 S
H499 C508 0.950 . S
H500 C510 0.950 . S
H501 C512 0.950 . S
H502 C514 0.950 1_545 S
H503 C515 0.950 . S
C504 H496 0.950 . S
C504 C505 1.386 . S
C504 C506 1.391 . S
C505 C504 1.386 . S
C505 C509 1.393 . S
C506 H498 0.950 1_565 S
C506 C504 1.391 . S
C506 C507 1.400 . S
C507 C506 1.400 . S
C507 C508 1.398 . S
C507 C513 1.491 1_554 S
C508 H499 0.950 . S
C508 C507 1.398 . S
C508 C509 1.391 . S
C509 H497 0.950 . S
C509 C505 1.393 . S
C509 C508 1.391 . S
C510 H500 0.950 . S
C510 C511 1.386 . S
C510 C512 1.391 . S
C511 C510 1.386 . S
C511 C515 1.393 1_565 S
C512 H501 0.950 . S
C512 C510 1.391 . S
C512 C513 1.400 . S
C513 C507 1.491 1_556 S
C513 C512 1.400 . S
C513 C514 1.398 . S
C514 H502 0.950 1_565 S
C514 C513 1.398 . S
C514 C515 1.391 1_565 S
C515 H503 0.950 . S
C515 C511 1.393 1_545 S
C515 C514 1.391 1_545 S
H516 C524 0.950 . S
H517 C529 0.950 . S
H518 C526 0.950 1_556 S
H519 C528 0.950 . S
H520 C530 0.950 . S
H521 C532 0.950 . S
H522 C534 0.950 . S
H523 C535 0.950 . S
C524 H516 0.950 . S
C524 C525 1.386 . S
C524 C526 1.391 . S
C525 C524 1.386 . S
C525 C529 1.393 . S
C526 H518 0.950 1_554 S
C526 C524 1.391 . S
C526 C527 1.400 1_554 S
C527 C526 1.400 1_556 S
C527 C528 1.398 1_556 S
C527 C533 1.491 . S
C528 H519 0.950 . S
C528 C527 1.398 1_554 S
C528 C529 1.391 . S
C529 H517 0.950 . S
C529 C525 1.393 . S
C529 C528 1.391 . S
C530 H520 0.950 . S
C530 C531 1.386 . S
C530 C532 1.391 . S
C531 C530 1.386 . S
C531 C535 1.393 . S
C532 H521 0.950 . S
C532 C530 1.391 . S
C532 C533 1.400 . S
C533 C527 1.491 . S
C533 C532 1.400 . S
C533 C534 1.398 . S
C534 H522 0.950 . S
C534 C533 1.398 . S
C534 C535 1.391 . S
C535 H523 0.950 . S
C535 C531 1.393 . S
C535 C534 1.391 . S
H536 C544 0.950 . S
H537 C549 0.950 . S
H538 C546 0.950 . S
H539 C548 0.950 . S
H540 C550 0.950 . S
H541 C552 0.950 . S
H542 C554 0.950 . S
H543 C555 0.950 . S
C544 H536 0.950 . S
C544 C545 1.386 . S
C544 C546 1.391 . S
C545 C544 1.386 . S
C545 C549 1.393 . S
C546 H538 0.950 . S
C546 C544 1.391 . S
C546 C547 1.400 1_554 S
C547 C546 1.400 1_556 S
C547 C548 1.398 . S
C547 C553 1.491 . S
C548 H539 0.950 . S
C548 C547 1.398 . S
C548 C549 1.391 1_556 S
C549 H537 0.950 . S
C549 C545 1.393 . S
C549 C548 1.391 1_554 S
C550 H540 0.950 . S
C550 C551 1.386 . S
C550 C552 1.391 . S
C551 C550 1.386 . S
C551 C555 1.393 . S
C552 H541 0.950 . S
C552 C550 1.391 . S
C552 C553 1.400 . S
C553 C547 1.491 . S
C553 C552 1.400 . S
C553 C554 1.398 . S
C554 H542 0.950 . S
C554 C553 1.398 . S
C554 C555 1.391 . S
C555 H543 0.950 . S
C555 C551 1.393 . S
C555 C554 1.391 . S
H556 C564 0.950 . S
H557 C569 0.950 . S
H558 C566 0.950 1_556 S
H559 C568 0.950 . S
H560 C570 0.950 . S
H561 C572 0.950 . S
H562 C574 0.950 . S
H563 C575 0.950 1_455 S
C564 H556 0.950 . S
C564 C565 1.386 . S
C564 C566 1.391 . S
C565 C564 1.386 . S
C565 C569 1.393 . S
C566 H558 0.950 1_554 S
C566 C564 1.391 . S
C566 C567 1.400 . S
C567 C566 1.400 . S
C567 C568 1.398 . S
C567 C573 1.491 1_554 S
C568 H559 0.950 . S
C568 C567 1.398 . S
C568 C569 1.391 . S
C569 H557 0.950 . S
C569 C565 1.393 . S
C569 C568 1.391 . S
C570 H560 0.950 . S
C570 C571 1.386 . S
C570 C572 1.391 . S
C571 C570 1.386 . S
C571 C575 1.393 . S
C572 H561 0.950 . S
C572 C570 1.391 . S
C572 C573 1.400 . S
C573 C567 1.491 1_556 S
C573 C572 1.400 . S
C573 C574 1.398 . S
C574 H562 0.950 . S
C574 C573 1.398 . S
C574 C575 1.391 . S
C575 H563 0.950 1_655 S
C575 C571 1.393 . S
C575 C574 1.391 . S
H576 C584 0.950 . S
H577 C589 0.950 . S
H578 C586 0.950 . S
H579 C588 0.950 . S
H580 C590 0.950 . S
H581 C592 0.950 . S
H582 C594 0.950 . S
H583 C595 0.950 . S
C584 H576 0.950 . S
C584 C585 1.386 . S
C584 C586 1.391 . S
C585 C584 1.386 . S
C585 C589 1.393 . S
C586 H578 0.950 . S
C586 C584 1.391 . S
C586 C587 1.400 . S
C587 C586 1.400 . S
C587 C588 1.398 . S
C587 C593 1.491 . S
C588 H579 0.950 . S
C588 C587 1.398 . S
C588 C589 1.391 . S
C589 H577 0.950 . S
C589 C585 1.393 . S
C589 C588 1.391 . S
C590 H580 0.950 . S
C590 C591 1.399 . S
C590 C592 1.391 . S
C591 C590 1.399 . S
C591 C595 1.369 1_655 S
C592 H581 0.950 . S
C592 C590 1.391 . S
C592 C593 1.400 1_655 S
C593 C587 1.491 . S
C593 C592 1.400 1_455 S
C593 C594 1.398 . S
C594 H582 0.950 . S
C594 C593 1.398 . S
C594 C595 1.391 . S
C595 H583 0.950 . S
C595 C591 1.369 1_455 S
C595 C594 1.391 . S
H596 C604 0.950 . S
H597 C609 0.950 . S
H598 C606 0.950 . S
H599 C608 0.950 . S
H600 C610 0.950 . S
H601 C612 0.950 . S
H602 C614 0.945 1_565 S
H603 C615 0.950 . S
C604 H596 0.950 . S
C604 C605 1.386 . S
C604 C606 1.391 . S
C605 C604 1.386 . S
C605 C609 1.393 . S
C606 H598 0.950 . S
C606 C604 1.391 . S
C606 C607 1.400 . S
C607 C606 1.400 . S
C607 C608 1.398 . S
C607 C613 1.491 . S
C608 H599 0.950 . S
C608 C607 1.398 . S
C608 C609 1.391 . S
C609 H597 0.950 . S
C609 C605 1.393 . S
C609 C608 1.391 . S
C610 H600 0.950 . S
C610 C611 1.386 1_545 S
C610 C612 1.391 . S
C611 C610 1.386 1_565 S
C611 C615 1.393 . S
C612 H601 0.950 . S
C612 C610 1.391 . S
C612 C613 1.400 . S
C613 C607 1.491 . S
C613 C612 1.400 . S
C613 C614 1.413 . S
C614 H602 0.945 1_545 S
C614 C613 1.413 . S
C614 C615 1.381 1_545 S
C615 H603 0.950 . S
C615 C611 1.393 . S
C615 C614 1.381 1_565 S
H616 C624 0.950 . S
H617 C629 0.950 . S
H618 C626 0.950 . S
H619 C628 0.950 . S
H620 C630 0.950 . S
H621 C632 0.950 . S
H622 C634 0.950 . S
H623 C635 0.950 . S
C624 H616 0.950 . S
C624 C625 1.386 . S
C624 C626 1.391 . S
C625 C624 1.386 . S
C625 C629 1.393 . S
C626 H618 0.950 . S
C626 C624 1.391 . S
C626 C627 1.400 . S
C627 C626 1.400 . S
C627 C628 1.398 . S
C627 C633 1.491 . S
C628 H619 0.950 . S
C628 C627 1.398 . S
C628 C629 1.391 . S
C629 H617 0.950 . S
C629 C625 1.393 . S
C629 C628 1.391 . S
C630 H620 0.950 . S
C630 C631 1.386 . S
C630 C632 1.391 . S
C631 C630 1.386 . S
C631 C635 1.393 . S
C632 H621 0.950 . S
C632 C630 1.391 . S
C632 C633 1.400 . S
C633 C627 1.491 . S
C633 C632 1.400 . S
C633 C634 1.398 . S
C634 H622 0.950 . S
C634 C633 1.398 . S
C634 C635 1.391 . S
C635 H623 0.950 . S
C635 C631 1.393 . S
C635 C634 1.391 . S
H636 C644 0.950 . S
H637 C649 0.950 . S
H638 C646 0.950 . S
H639 C648 0.950 . S
H640 C650 0.950 . S
H641 C652 0.950 . S
H642 C654 0.950 . S
H643 C655 0.950 . S
C644 H636 0.950 . S
C644 C645 1.386 . S
C644 C646 1.391 . S
C645 C644 1.386 . S
C645 C649 1.393 . S
C646 H638 0.950 . S
C646 C644 1.391 . S
C646 C647 1.400 . S
C647 C646 1.400 . S
C647 C648 1.398 . S
C647 C653 1.491 . S
C648 H639 0.950 . S
C648 C647 1.398 . S
C648 C649 1.391 . S
C649 H637 0.950 . S
C649 C645 1.393 . S
C649 C648 1.391 . S
C650 H640 0.950 . S
C650 C651 1.386 . S
C650 C652 1.391 . S
C651 C650 1.386 . S
C651 C655 1.393 . S
C652 H641 0.950 . S
C652 C650 1.391 . S
C652 C653 1.400 . S
C653 C647 1.491 . S
C653 C652 1.400 . S
C653 C654 1.398 . S
C654 H642 0.950 . S
C654 C653 1.398 . S
C654 C655 1.391 . S
C655 H643 0.950 . S
C655 C651 1.393 . S
C655 C654 1.391 . S
H656 C664 0.950 . S
H657 C669 0.950 . S
H658 C666 0.950 1_455 S
H659 C668 0.950 1_556 S
H660 C670 0.950 . S
H661 C672 0.950 . S
H662 C674 0.950 . S
H663 C675 0.950 . S
C664 H656 0.950 . S
C664 C665 1.386 . S
C664 C666 1.391 . S
C665 C664 1.386 . S
C665 C669 1.393 . S
C666 H658 0.950 1_655 S
C666 C664 1.391 . S
C666 C667 1.400 . S
C667 C666 1.400 . S
C667 C668 1.398 . S
C667 C673 1.491 . S
C668 H659 0.950 1_554 S
C668 C667 1.398 . S
C668 C669 1.391 . S
C669 H657 0.950 . S
C669 C665 1.393 . S
C669 C668 1.391 . S
C670 H660 0.950 . S
C670 C671 1.386 1_655 S
C670 C672 1.391 . S
C671 C670 1.386 1_455 S
C671 C675 1.393 1_556 S
C672 H661 0.950 . S
C672 C670 1.391 . S
C672 C673 1.400 1_556 S
C673 C667 1.491 . S
C673 C672 1.400 1_554 S
C673 C674 1.398 1_655 S
C674 H662 0.950 . S
C674 C673 1.398 1_455 S
C674 C675 1.391 . S
C675 H663 0.950 . S
C675 C671 1.393 1_554 S
C675 C674 1.391 . S
H676 C684 0.950 . S
H677 C689 0.950 . S
H678 C686 0.950 1_556 S
H679 C688 0.950 1_545 S
H680 C690 0.950 . S
H681 C692 0.950 1_554 S
H682 C694 0.950 . S
H683 C695 0.950 . S
C684 H676 0.950 . S
C684 C685 1.386 . S
C684 C686 1.391 . S
C685 C684 1.386 . S
C685 C689 1.393 . S
C686 H678 0.950 1_554 S
C686 C684 1.391 . S
C686 C687 1.400 . S
C687 C686 1.400 . S
C687 C688 1.398 . S
C687 C693 1.491 1_554 S
C688 H679 0.950 1_565 S
C688 C687 1.398 . S
C688 C689 1.391 . S
C689 H677 0.950 . S
C689 C685 1.393 . S
C689 C688 1.391 . S
C690 H680 0.950 . S
C690 C691 1.386 . S
C690 C692 1.391 . S
C691 C690 1.386 . S
C691 C695 1.393 1_545 S
C692 H681 0.950 1_556 S
C692 C690 1.391 . S
C692 C693 1.400 1_545 S
C693 C687 1.491 1_556 S
C693 C692 1.400 1_565 S
C693 C694 1.398 . S
C694 H682 0.950 . S
C694 C693 1.398 . S
C694 C695 1.391 . S
C695 H683 0.950 . S
C695 C691 1.393 1_565 S
C695 C694 1.391 . S
H696 C704 0.950 . S
H697 C709 0.950 . S
H698 C706 0.950 1_556 S
H699 C708 0.950 . S
H700 C710 0.950 . S
H701 C712 0.950 . S
H702 C714 0.950 . S
H703 C715 0.950 . S
C704 H696 0.950 . S
C704 C705 1.386 . S
C704 C706 1.391 . S
C705 C704 1.386 . S
C705 C709 1.393 . S
C706 H698 0.950 1_554 S
C706 C704 1.391 . S
C706 C707 1.400 1_554 S
C707 C706 1.400 1_556 S
C707 C708 1.398 1_556 S
C707 C713 1.491 . S
C708 H699 0.950 . S
C708 C707 1.398 1_554 S
C708 C709 1.391 . S
C709 H697 0.950 . S
C709 C705 1.393 . S
C709 C708 1.391 . S
C710 H700 0.950 . S
C710 C711 1.386 . S
C710 C712 1.391 . S
C711 C710 1.386 . S
C711 C715 1.393 . S
C712 H701 0.950 . S
C712 C710 1.391 . S
C712 C713 1.400 . S
C713 C707 1.491 . S
C713 C712 1.400 . S
C713 C714 1.398 . S
C714 H702 0.950 . S
C714 C713 1.398 . S
C714 C715 1.391 . S
C715 H703 0.950 . S
C715 C711 1.393 . S
C715 C714 1.391 . S
H716 C724 0.950 . S
H717 C729 0.950 . S
H718 C726 0.940 1_556 S
H719 C728 0.950 . S
H720 C730 0.950 . S
H721 C732 0.950 . S
H722 C734 0.950 . S
H723 C735 0.950 . S
C724 H716 0.950 . S
C724 C725 1.386 . S
C724 C726 1.396 . S
C725 C724 1.386 . S
C725 C729 1.393 . S
C726 H718 0.940 1_554 S
C726 C724 1.396 . S
C726 C727 1.405 . S
C727 C726 1.405 . S
C727 C728 1.398 . S
C727 C733 1.491 . S
C728 H719 0.950 . S
C728 C727 1.398 . S
C728 C729 1.391 . S
C729 H717 0.950 . S
C729 C725 1.393 . S
C729 C728 1.391 . S
C730 H720 0.950 . S
C730 C731 1.386 1_554 S
C730 C732 1.391 . S
C731 C730 1.386 1_556 S
C731 C735 1.393 . S
C732 H721 0.950 . S
C732 C730 1.391 . S
C732 C733 1.400 . S
C733 C727 1.491 . S
C733 C732 1.400 . S
C733 C734 1.398 1_554 S
C734 H722 0.950 . S
C734 C733 1.398 1_556 S
C734 C735 1.391 . S
C735 H723 0.950 . S
C735 C731 1.393 . S
C735 C734 1.391 . S
H736 C744 0.950 . S
H737 C749 0.950 . S
H738 C746 0.950 . S
H739 C748 0.950 . S
H740 C750 0.950 . S
H741 C752 0.950 . S
H742 C754 0.950 . S
H743 C755 0.950 . S
C744 H736 0.950 . S
C744 C745 1.386 . S
C744 C746 1.391 . S
C745 C744 1.386 . S
C745 C749 1.393 . S
C746 H738 0.950 . S
C746 C744 1.391 . S
C746 C747 1.400 . S
C747 C746 1.400 . S
C747 C748 1.398 . S
C747 C753 1.491 . S
C748 H739 0.950 . S
C748 C747 1.398 . S
C748 C749 1.391 . S
C749 H737 0.950 . S
C749 C745 1.393 . S
C749 C748 1.391 . S
C750 H740 0.950 . S
C750 C751 1.386 . S
C750 C752 1.391 . S
C751 C750 1.386 . S
C751 C755 1.393 . S
C752 H741 0.950 . S
C752 C750 1.391 . S
C752 C753 1.400 . S
C753 C747 1.491 . S
C753 C752 1.400 . S
C753 C754 1.398 . S
C754 H742 0.950 . S
C754 C753 1.398 . S
C754 C755 1.391 . S
C755 H743 0.950 . S
C755 C751 1.393 . S
C755 C754 1.391 . S
H756 C764 0.950 . S
H757 C769 0.950 . S
H758 C766 0.950 . S
H759 C768 0.950 . S
H760 C770 0.950 . S
H761 C772 0.950 . S
H762 C774 0.950 . S
H763 C775 0.950 . S
C764 H756 0.950 . S
C764 C765 1.386 . S
C764 C766 1.391 . S
C765 C764 1.386 . S
C765 C769 1.393 . S
C766 H758 0.950 . S
C766 C764 1.391 . S
C766 C767 1.400 . S
C767 C766 1.400 . S
C767 C768 1.398 . S
C767 C773 1.491 . S
C768 H759 0.950 . S
C768 C767 1.398 . S
C768 C769 1.391 . S
C769 H757 0.950 . S
C769 C765 1.393 . S
C769 C768 1.391 . S
C770 H760 0.950 . S
C770 C771 1.386 . S
C770 C772 1.391 . S
C771 C770 1.386 . S
C771 C775 1.393 . S
C772 H761 0.950 . S
C772 C770 1.391 . S
C772 C773 1.400 . S
C773 C767 1.491 . S
C773 C772 1.400 . S
C773 C774 1.398 . S
C774 H762 0.950 . S
C774 C773 1.398 . S
C774 C775 1.391 . S
C775 H763 0.950 . S
C775 C771 1.393 . S
C775 C774 1.391 . S
H776 C784 0.950 . S
H777 C789 0.950 . S
H778 C786 0.950 . S
H779 C788 0.950 . S
H780 C790 0.950 . S
H781 C792 0.950 . S
H782 C794 0.950 . S
H783 C795 0.950 . S
C784 H776 0.950 . S
C784 C785 1.386 . S
C784 C786 1.391 . S
C785 C784 1.386 . S
C785 C789 1.393 . S
C786 H778 0.950 . S
C786 C784 1.391 . S
C786 C787 1.400 . S
C787 C786 1.400 . S
C787 C788 1.398 . S
C787 C793 1.491 . S
C788 H779 0.950 . S
C788 C787 1.398 . S
C788 C789 1.391 . S
C789 H777 0.950 . S
C789 C785 1.393 . S
C789 C788 1.391 . S
C790 H780 0.950 . S
C790 C791 1.386 . S
C790 C792 1.391 . S
C791 C790 1.386 . S
C791 C795 1.393 . S
C792 H781 0.950 . S
C792 C790 1.391 . S
C792 C793 1.400 . S
C793 C787 1.491 . S
C793 C792 1.400 . S
C793 C794 1.398 . S
C794 H782 0.950 . S
C794 C793 1.398 . S
C794 C795 1.391 . S
C795 H783 0.950 . S
C795 C791 1.393 . S
C795 C794 1.391 . S
H796 C804 0.950 . S
H797 C809 0.950 . S
H798 C806 0.950 . S
H799 C808 0.950 . S
H800 C810 0.950 . S
H801 C812 0.950 . S
H802 C814 0.950 . S
H803 C815 0.950 . S
C804 H796 0.950 . S
C804 C805 1.386 . S
C804 C806 1.391 . S
C805 C804 1.386 . S
C805 C809 1.393 . S
C806 H798 0.950 . S
C806 C804 1.391 . S
C806 C807 1.400 . S
C807 C806 1.400 . S
C807 C808 1.398 . S
C807 C813 1.491 . S
C808 H799 0.950 . S
C808 C807 1.398 . S
C808 C809 1.391 . S
C809 H797 0.950 . S
C809 C805 1.393 . S
C809 C808 1.391 . S
C810 H800 0.950 . S
C810 C811 1.386 . S
C810 C812 1.391 . S
C811 C810 1.386 . S
C811 C815 1.393 . S
C812 H801 0.950 . S
C812 C810 1.391 . S
C812 C813 1.400 . S
C813 C807 1.491 . S
C813 C812 1.400 . S
C813 C814 1.398 . S
C814 H802 0.950 . S
C814 C813 1.398 . S
C814 C815 1.391 . S
C815 H803 0.950 . S
C815 C811 1.393 . S
C815 C814 1.391 . S
H816 C824 0.950 1_455 S
H817 C829 0.950 . S
H818 C826 0.950 1_455 S
H819 C828 0.950 . S
H820 C830 0.950 . S
H821 C832 0.950 . S
H822 C834 0.950 . S
H823 C835 0.950 . S
C824 H816 0.950 1_655 S
C824 C825 1.386 . S
C824 C826 1.391 . S
C825 C824 1.386 . S
C825 C829 1.393 . S
C826 H818 0.950 1_655 S
C826 C824 1.391 . S
C826 C827 1.400 . S
C827 C826 1.400 . S
C827 C828 1.398 . S
C827 C833 1.491 . S
C828 H819 0.950 . S
C828 C827 1.398 . S
C828 C829 1.391 . S
C829 H817 0.950 . S
C829 C825 1.393 . S
C829 C828 1.391 . S
C830 H820 0.950 . S
C830 C831 1.386 . S
C830 C832 1.391 . S
C831 C830 1.386 . S
C831 C835 1.393 1_655 S
C832 H821 0.950 . S
C832 C830 1.391 . S
C832 C833 1.400 . S
C833 C827 1.491 . S
C833 C832 1.400 . S
C833 C834 1.398 1_655 S
C834 H822 0.950 . S
C834 C833 1.398 1_455 S
C834 C835 1.391 . S
C835 H823 0.950 . S
C835 C831 1.393 1_455 S
C835 C834 1.391 . S
H836 C844 0.950 . S
H837 C849 0.950 . S
H838 C846 0.950 1_545 S
H839 C848 0.950 . S
H840 C850 0.950 . S
H841 C852 0.950 . S
H842 C854 0.950 1_545 S
H843 C855 0.950 1_545 S
C844 H836 0.950 . S
C844 C845 1.386 . S
C844 C846 1.391 . S
C845 C844 1.386 . S
C845 C849 1.393 . S
C846 H838 0.950 1_565 S
C846 C844 1.391 . S
C846 C847 1.400 . S
C847 C846 1.400 . S
C847 C848 1.398 . S
C847 C853 1.491 . S
C848 H839 0.950 . S
C848 C847 1.398 . S
C848 C849 1.391 . S
C849 H837 0.950 . S
C849 C845 1.393 . S
C849 C848 1.391 . S
C850 H840 0.950 . S
C850 C851 1.386 . S
C850 C852 1.391 . S
C851 C850 1.386 . S
C851 C855 1.393 . S
C852 H841 0.950 . S
C852 C850 1.391 . S
C852 C853 1.400 . S
C853 C847 1.491 . S
C853 C852 1.400 . S
C853 C854 1.398 . S
C854 H842 0.950 1_565 S
C854 C853 1.398 . S
C854 C855 1.391 . S
C855 H843 0.950 1_565 S
C855 C851 1.393 . S
C855 C854 1.391 . S
H856 C864 0.950 . S
H857 C869 0.950 . S
H858 C866 0.950 . S
H859 C868 0.950 . S
H860 C870 0.950 . S
H861 C872 0.950 . S
H862 C874 0.950 . S
H863 C875 0.950 . S
C864 H856 0.950 . S
C864 C865 1.386 . S
C864 C866 1.391 . S
C865 C864 1.386 . S
C865 C869 1.393 . S
C866 H858 0.950 . S
C866 C864 1.391 . S
C866 C867 1.400 . S
C867 C866 1.400 . S
C867 C868 1.398 . S
C867 C873 1.491 . S
C868 H859 0.950 . S
C868 C867 1.398 . S
C868 C869 1.391 . S
C869 H857 0.950 . S
C869 C865 1.393 . S
C869 C868 1.391 . S
C870 H860 0.950 . S
C870 C871 1.386 . S
C870 C872 1.391 . S
C871 C870 1.386 . S
C871 C875 1.393 . S
C872 H861 0.950 . S
C872 C870 1.391 . S
C872 C873 1.400 . S
C873 C867 1.491 . S
C873 C872 1.400 . S
C873 C874 1.398 . S
C874 H862 0.950 . S
C874 C873 1.398 . S
C874 C875 1.391 . S
C875 H863 0.950 . S
C875 C871 1.393 . S
C875 C874 1.391 . S
H876 C884 0.950 . S
H877 C889 0.950 . S
H878 C886 0.950 . S
H879 C888 0.950 . S
H880 C890 0.950 . S
H881 C892 0.950 . S
H882 C894 0.950 . S
H883 C895 0.950 . S
C884 H876 0.950 . S
C884 C885 1.386 . S
C884 C886 1.391 . S
C885 C884 1.386 . S
C885 C889 1.393 . S
C886 H878 0.950 . S
C886 C884 1.391 . S
C886 C887 1.400 . S
C887 C886 1.400 . S
C887 C888 1.398 . S
C887 C893 1.491 . S
C888 H879 0.950 . S
C888 C887 1.398 . S
C888 C889 1.391 . S
C889 H877 0.950 . S
C889 C885 1.393 . S
C889 C888 1.391 . S
C890 H880 0.950 . S
C890 C891 1.386 . S
C890 C892 1.391 . S
C891 C890 1.386 . S
C891 C895 1.393 . S
C892 H881 0.950 . S
C892 C890 1.391 . S
C892 C893 1.400 . S
C893 C887 1.491 . S
C893 C892 1.400 . S
C893 C894 1.398 . S
C894 H882 0.950 . S
C894 C893 1.398 . S
C894 C895 1.391 . S
C895 H883 0.950 . S
C895 C891 1.393 . S
C895 C894 1.391 . S
C425 C215 2.527 . S
C431 C287 2.667 . S
C451 C313 2.133 . S
C445 C247 1.907 . S
C471 C353 2.160 . S
C465 C151 2.034 . S
C491 C407 2.634 . S
C485 C183 2.511 . S
C511 C268 2.671 . S
C505 C87 2.457 . S
C525 C119 1.999 . S
C531 C298 2.139 . S
C545 C23 1.969 . S
C551 C338 2.156 . S
C565 C55 2.445 . S
C571 C388 2.630 1_655 S
C591 C264 0.414 1_655 S
C585 C189 0.333 . S
C611 C325 0.653 . S
C605 C221 0.634 . S
C631 C365 0.417 . S
C625 C253 0.436 . S
C645 C157 0.190 . S
C651 C384 0.298 . S
C665 C61 0.580 . S
C671 C285 0.407 . S
C691 C304 0.676 . S
C685 C93 0.698 . S
C711 C344 0.426 . S
C705 C125 0.479 . S
C725 C29 0.637 . S
C731 C405 0.354 . S
C745 C177 2.286 . S
C751 C258 2.523 . S
C765 C209 2.866 . S
C771 C308 3.115 . S
C791 C348 2.861 . S
C785 C241 2.576 . S
C811 C378 2.261 . S
C805 C145 2.056 . S
C825 C49 2.201 . S
C831 C273 2.524 . S
C851 C327 3.113 . S
C845 C81 2.806 . S
C871 C367 2.861 . S
C865 C113 2.649 . S
C885 C17 1.978 . S
C891 C393 2.263 . S
