# Generated by pormake.
# Topology sqc, (4,8)-cn, num edge types: 1
# Building blocks:
#     Node 0, Type 0, BuildingBlock: MIFKUJ_clean_linker_1, # of connection points: 4
#     Node 1, Type 0, BuildingBlock: MIFKUJ_clean_linker_1, # of connection points: 4
#     Node 2, Type 0, BuildingBlock: MIFKUJ_clean_linker_1, # of connection points: 4
#     Node 3, Type 0, BuildingBlock: MIFKUJ_clean_linker_1, # of connection points: 4
#     Node 4, Type 0, BuildingBlock: MIFKUJ_clean_linker_1, # of connection points: 4
#     Node 5, Type 0, BuildingBlock: MIFKUJ_clean_linker_1, # of connection points: 4
#     Node 6, Type 0, BuildingBlock: MIFKUJ_clean_linker_1, # of connection points: 4
#     Node 7, Type 0, BuildingBlock: MIFKUJ_clean_linker_1, # of connection points: 4
#     Node 8, Type 1, BuildingBlock: VETTIZ_charged_sbu_0, # of connection points: 8
#     Node 9, Type 1, BuildingBlock: VETTIZ_charged_sbu_0, # of connection points: 8
#     Node 10, Type 1, BuildingBlock: VETTIZ_charged_sbu_0, # of connection points: 8
#     Node 11, Type 1, BuildingBlock: VETTIZ_charged_sbu_0, # of connection points: 8
#     Edge 12, Type (0, 1), BuildingBlock: KIFKEQ_clean_linker_1, # of connection points: 2
#     Edge 13, Type (0, 1), BuildingBlock: KIFKEQ_clean_linker_1, # of connection points: 2
#     Edge 14, Type (0, 1), BuildingBlock: KIFKEQ_clean_linker_1, # of connection points: 2
#     Edge 15, Type (0, 1), BuildingBlock: KIFKEQ_clean_linker_1, # of connection points: 2
#     Edge 16, Type (0, 1), BuildingBlock: KIFKEQ_clean_linker_1, # of connection points: 2
#     Edge 17, Type (0, 1), BuildingBlock: KIFKEQ_clean_linker_1, # of connection points: 2
#     Edge 18, Type (0, 1), BuildingBlock: KIFKEQ_clean_linker_1, # of connection points: 2
#     Edge 19, Type (0, 1), BuildingBlock: KIFKEQ_clean_linker_1, # of connection points: 2
#     Edge 20, Type (0, 1), BuildingBlock: KIFKEQ_clean_linker_1, # of connection points: 2
#     Edge 21, Type (0, 1), BuildingBlock: KIFKEQ_clean_linker_1, # of connection points: 2
#     Edge 22, Type (0, 1), BuildingBlock: KIFKEQ_clean_linker_1, # of connection points: 2
#     Edge 23, Type (0, 1), BuildingBlock: KIFKEQ_clean_linker_1, # of connection points: 2
#     Edge 24, Type (0, 1), BuildingBlock: KIFKEQ_clean_linker_1, # of connection points: 2
#     Edge 25, Type (0, 1), BuildingBlock: KIFKEQ_clean_linker_1, # of connection points: 2
#     Edge 26, Type (0, 1), BuildingBlock: KIFKEQ_clean_linker_1, # of connection points: 2
#     Edge 27, Type (0, 1), BuildingBlock: KIFKEQ_clean_linker_1, # of connection points: 2
#     Edge 28, Type (0, 1), BuildingBlock: KIFKEQ_clean_linker_1, # of connection points: 2
#     Edge 29, Type (0, 1), BuildingBlock: KIFKEQ_clean_linker_1, # of connection points: 2
#     Edge 30, Type (0, 1), BuildingBlock: KIFKEQ_clean_linker_1, # of connection points: 2
#     Edge 31, Type (0, 1), BuildingBlock: KIFKEQ_clean_linker_1, # of connection points: 2
#     Edge 32, Type (0, 1), BuildingBlock: KIFKEQ_clean_linker_1, # of connection points: 2
#     Edge 33, Type (0, 1), BuildingBlock: KIFKEQ_clean_linker_1, # of connection points: 2
#     Edge 34, Type (0, 1), BuildingBlock: KIFKEQ_clean_linker_1, # of connection points: 2
#     Edge 35, Type (0, 1), BuildingBlock: KIFKEQ_clean_linker_1, # of connection points: 2
#     Edge 36, Type (0, 1), BuildingBlock: KIFKEQ_clean_linker_1, # of connection points: 2
#     Edge 37, Type (0, 1), BuildingBlock: KIFKEQ_clean_linker_1, # of connection points: 2
#     Edge 38, Type (0, 1), BuildingBlock: KIFKEQ_clean_linker_1, # of connection points: 2
#     Edge 39, Type (0, 1), BuildingBlock: KIFKEQ_clean_linker_1, # of connection points: 2
#     Edge 40, Type (0, 1), BuildingBlock: KIFKEQ_clean_linker_1, # of connection points: 2
#     Edge 41, Type (0, 1), BuildingBlock: KIFKEQ_clean_linker_1, # of connection points: 2
#     Edge 42, Type (0, 1), BuildingBlock: KIFKEQ_clean_linker_1, # of connection points: 2
#     Edge 43, Type (0, 1), BuildingBlock: KIFKEQ_clean_linker_1, # of connection points: 2
# Relax obj value: 0.137
# Max RMSD: 0.270
# Mean RMSD: 0.176
data_MOF--net-sqc--node1-VETTIZ_charged_sbu_0--node2-MIFKUJ_clean_linker_1--edge1-KIFKEQ_clean_linker_1
_symmetry_space_group_name_H-M    P1
_symmetry_Int_Tables_number       1
_symmetry_cell_setting            triclinic
loop_
_symmetry_equiv_pos_as_xyz
'x, y, z'
_cell_length_a     28.911439
_cell_length_b     28.765502
_cell_length_c     82.236294
_cell_angle_alpha  89.369116
_cell_angle_beta   90.196174
_cell_angle_gamma 90.308273
loop_
_atom_site_label
_atom_site_type_symbol
_atom_site_fract_x
_atom_site_fract_y
_atom_site_fract_z
_atom_type_partial_charge
H0 H 0.93705 0.92392 0.49814 0.0
H1 H 0.86796 0.88985 0.48576 0.0
H2 H 0.80711 0.02641 0.48177 0.0
H3 H 0.87636 0.06024 0.49413 0.0
H4 H 0.99726 0.98584 0.48522 0.0
H5 H 0.9175 0.98583 0.54117 0.0
H6 H 0.8597 1.00656 0.56141 0.0
H7 H 0.84101 0.1395 0.53718 0.0
H8 H 0.9008 0.1192 0.51763 0.0
H9 H 0.07887 0.13356 0.52138 0.0
H10 H 0.14263 0.15214 0.53985 0.0
H11 H 0.1532 1.00641 0.55304 0.0
H12 H 0.09171 0.98831 0.53377 0.0
H13 H 0.99641 0.07855 0.53571 0.0
H14 H 0.09985 0.08608 0.49005 0.0
H15 H 0.17191 0.07049 0.47543 0.0
H16 H 0.14768 0.92295 0.48113 0.0
H17 H 0.0756 0.93868 0.49562 0.0
C18 C 0.91168 0.99456 0.49725 0.0
C19 C 0.90873 0.94649 0.49465 0.0
C20 C 0.86932 0.92709 0.48751 0.0
C21 C 0.83206 0.95543 0.48276 0.0
C22 C 0.83491 1.00355 0.48551 0.0
C23 C 0.87443 0.02294 0.49263 0.0
C24 C 0.95468 0.01498 0.50403 0.0
C25 C 0.99698 1.00604 0.49628 0.0
C26 C 0.95461 0.04244 0.51816 0.0
C27 C 0.91273 0.05077 0.52783 0.0
C28 C 0.90005 0.01897 0.54007 0.0
C29 C 0.86703 0.03098 0.55164 0.0
C30 C 0.84596 0.07501 0.5511 0.0
C31 C 0.85728 0.10579 0.53825 0.0
C32 C 0.89082 0.09399 0.52687 0.0
C33 C 0.0812 0.05961 0.52613 0.0
C34 C 0.09592 0.10569 0.52799 0.0
C35 C 0.13187 0.1162 0.53875 0.0
C36 C 0.15286 0.08089 0.54819 0.0
C37 C 0.13858 0.03453 0.54588 0.0
C38 C 0.10333 0.02402 0.53487 0.0
C39 C 0.03852 0.0489 0.51704 0.0
C40 C 0.99643 0.0593 0.52442 0.0
C41 C 0.03892 0.02295 0.50261 0.0
C42 C 0.0826 0.01349 0.49396 0.0
C43 C 0.1102 0.05039 0.48817 0.0
C44 C 0.1511 0.04151 0.47976 0.0
C45 C 0.16531 0.99556 0.4772 0.0
C46 C 0.13766 0.9587 0.48306 0.0
C47 C 0.09647 0.9676 0.49126 0.0
H48 H 0.25588 0.83167 0.79892 0.0
H49 H 0.23608 0.905 0.81174 0.0
H50 H 0.14464 0.9377 0.77149 0.0
H51 H 0.16659 0.86527 0.75843 0.0
H52 H 0.19968 0.7577 0.7902 0.0
H53 H 0.3031 0.86291 0.76694 0.0
H54 H 0.33402 0.93282 0.75377 0.0
H55 H 0.26164 0.89779 0.70954 0.0
H56 H 0.22939 0.82837 0.72293 0.0
H57 H 0.19171 0.68885 0.7266 0.0
H58 H 0.20049 0.61801 0.71081 0.0
H59 H 0.30263 0.56856 0.74534 0.0
H60 H 0.29259 0.63907 0.76128 0.0
H61 H 0.26329 0.75356 0.73431 0.0
H62 H 0.16372 0.63987 0.76187 0.0
H63 H 0.14926 0.56807 0.77703 0.0
H64 H 0.23334 0.61939 0.81664 0.0
H65 H 0.2507 0.68926 0.80081 0.0
C66 C 0.21271 0.84308 0.77775 0.0
C67 C 0.23166 0.85476 0.79288 0.0
C68 C 0.22005 0.89669 0.80021 0.0
C69 C 0.18838 0.92739 0.79274 0.0
C70 C 0.16964 0.91548 0.77752 0.0
C71 C 0.18185 0.87386 0.77008 0.0
C72 C 0.22484 0.7986 0.76994 0.0
C73 C 0.21412 0.7566 0.77805 0.0
C74 C 0.24448 0.79763 0.75421 0.0
C75 C 0.263 0.84054 0.74609 0.0
C76 C 0.29295 0.87062 0.75452 0.0
C77 C 0.31087 0.91057 0.74695 0.0
C78 C 0.30014 0.92097 0.73064 0.0
C79 C 0.27077 0.89058 0.7221 0.0
C80 C 0.25229 0.85088 0.72975 0.0
C81 C 0.24142 0.66908 0.7451 0.0
C82 C 0.21582 0.66257 0.73078 0.0
C83 C 0.22098 0.62211 0.72176 0.0
C84 C 0.25229 0.58752 0.72678 0.0
C85 C 0.2776 0.59404 0.74125 0.0
C86 C 0.27221 0.63446 0.75033 0.0
C87 C 0.23632 0.71272 0.75428 0.0
C88 C 0.24877 0.75465 0.74644 0.0
C89 C 0.22011 0.71335 0.77053 0.0
C90 C 0.20921 0.6699 0.77997 0.0
C91 C 0.17989 0.6353 0.77367 0.0
C92 C 0.17101 0.59432 0.78253 0.0
C93 C 0.19021 0.58728 0.79815 0.0
C94 C 0.21872 0.62258 0.80455 0.0
C95 C 0.22821 0.66313 0.79556 0.0
H96 H 0.45275 0.05782 0.06976 0.0
H97 H 0.38261 0.03383 0.08435 0.0
H98 H 0.33513 0.96096 0.04176 0.0
H99 H 0.40538 0.98405 0.02739 0.0
H100 H 0.52135 0.01113 0.05778 0.0
H101 H 0.41002 0.11671 0.03357 0.0
H102 H 0.33997 0.1421 0.01922 0.0
H103 H 0.37444 0.05274 0.97915 0.0
H104 H 0.44457 0.02863 0.99335 0.0
H105 H 0.58002 0.02375 0.99086 0.0
H106 H 0.64738 0.04139 0.97407 0.0
H107 H 0.70653 0.12121 0.01329 0.0
H108 H 0.63797 0.10499 0.02979 0.0
H109 H 0.5173 0.08013 1.0023 0.0
H110 H 0.62972 0.97691 0.02601 0.0
H111 H 0.70142 0.95365 0.03958 0.0
H112 H 0.66505 0.03616 0.08115 0.0
H113 H 0.59364 0.06002 0.0674 0.0
C114 C 0.4342 0.02355 0.04733 0.0
C115 C 0.42723 0.0367 0.06355 0.0
C116 C 0.38713 0.02293 0.0719 0.0
C117 C 0.35304 0.99584 0.06418 0.0
C118 C 0.36019 0.98262 0.04797 0.0
C119 C 0.40041 0.99595 0.0397 0.0
C120 C 0.47742 0.03708 0.03854 0.0
C121 C 0.5205 0.02705 0.04576 0.0
C122 C 0.47646 0.057 0.02271 0.0
C123 C 0.43263 0.07084 0.01451 0.0
C124 C 0.40224 0.10245 0.02173 0.0
C125 C 0.36213 0.11684 0.01352 0.0
C126 C 0.35168 0.0999 0.99793 0.0
C127 C 0.38182 0.06746 0.99095 0.0
C128 C 0.4219 0.05337 0.99909 0.0
C129 C 0.60384 0.06277 0.01167 0.0
C130 C 0.60749 0.04507 0.99587 0.0
C131 C 0.64636 0.05483 0.98631 0.0
C132 C 0.68267 0.08267 0.99229 0.0
C133 C 0.67912 0.10007 1.00819 0.0
C134 C 0.64008 0.0904 0.01773 0.0
C135 C 0.56124 0.05359 0.02141 0.0
C136 C 0.51824 0.06461 0.01438 0.0
C137 C 0.56244 0.03476 0.03743 0.0
C138 C 0.60645 0.02084 0.04555 0.0
C139 C 0.63746 0.99066 0.03793 0.0
C140 C 0.67848 0.97733 0.04571 0.0
C141 C 0.68906 0.99326 0.06142 0.0
C142 C 0.65778 0.02308 0.0691 0.0
C143 C 0.61697 0.03677 0.06124 0.0
H144 H 0.2408 0.19208 0.3083 0.0
H145 H 0.26503 0.12319 0.32359 0.0
H146 H 0.35672 0.0868 0.28433 0.0
H147 H 0.33486 0.15744 0.26973 0.0
H148 H 0.28627 0.26644 0.29924 0.0
H149 H 0.21107 0.14121 0.27006 0.0
H150 H 0.2058 0.07016 0.25406 0.0
H151 H 0.28755 0.13487 0.21618 0.0
H152 H 0.29416 0.20542 0.23243 0.0
H153 H 0.27275 0.33828 0.23239 0.0
H154 H 0.24272 0.40512 0.21726 0.0
H155 H 0.15669 0.43978 0.25824 0.0
H156 H 0.18449 0.37125 0.2728 0.0
H157 H 0.23213 0.2636 0.24199 0.0
H158 H 0.33169 0.36903 0.27273 0.0
H159 H 0.35154 0.43877 0.28774 0.0
H160 H 0.23253 0.41603 0.31875 0.0
H161 H 0.21557 0.34406 0.30434 0.0
C162 C 0.2855 0.17987 0.28773 0.0
C163 C 0.26637 0.16939 0.30304 0.0
C164 C 0.27991 0.12955 0.31171 0.0
C165 C 0.31282 0.09899 0.30525 0.0
C166 C 0.33184 0.10964 0.28988 0.0
C167 C 0.31881 0.14984 0.28135 0.0
C168 C 0.27123 0.22272 0.2787 0.0
C169 C 0.27374 0.26552 0.28679 0.0
C170 C 0.2569 0.22217 0.26216 0.0
C171 C 0.25357 0.1786 0.25259 0.0
C172 C 0.2286 0.13992 0.25846 0.0
C173 C 0.22558 0.09932 0.2493 0.0
C174 C 0.24655 0.09694 0.23392 0.0
C175 C 0.27101 0.13579 0.22797 0.0
C176 C 0.27468 0.17611 0.23725 0.0
C177 C 0.23147 0.34984 0.25387 0.0
C178 C 0.24743 0.3603 0.23812 0.0
C179 C 0.23046 0.39889 0.22951 0.0
C180 C 0.19716 0.4281 0.23647 0.0
C181 C 0.18177 0.41786 0.25235 0.0
C182 C 0.19838 0.37902 0.26086 0.0
C183 C 0.24707 0.30691 0.26255 0.0
C184 C 0.24466 0.26424 0.25443 0.0
C185 C 0.26271 0.30749 0.27886 0.0
C186 C 0.27215 0.35159 0.28741 0.0
C187 C 0.30992 0.37928 0.28276 0.0
C188 C 0.32088 0.41957 0.29132 0.0
C189 C 0.29361 0.43381 0.30455 0.0
C190 C 0.25507 0.40613 0.30892 0.0
C191 C 0.24493 0.36509 0.30059 0.0
H192 H 0.73693 0.34098 0.2266 0.0
H193 H 0.76642 0.40971 0.21209 0.0
H194 H 0.85017 0.44463 0.25382 0.0
H195 H 0.82184 0.37538 0.2681 0.0
H196 H 0.7774 0.26752 0.23607 0.0
H197 H 0.68902 0.3808 0.26585 0.0
H198 H 0.66421 0.44235 0.28418 0.0
H199 H 0.75835 0.39065 0.32102 0.0
H200 H 0.78377 0.33029 0.30254 0.0
H201 H 0.77988 0.19325 0.30064 0.0
H202 H 0.75509 0.12818 0.31783 0.0
H203 H 0.65035 0.09254 0.2824 0.0
H204 H 0.67486 0.15861 0.26534 0.0
H205 H 0.72426 0.26536 0.29327 0.0
H206 H 0.80552 0.14857 0.2654 0.0
H207 H 0.81915 0.07807 0.25026 0.0
H208 H 0.73922 0.13334 0.20999 0.0
H209 H 0.72255 0.20263 0.22585 0.0
C210 C 0.77657 0.35315 0.24857 0.0
C211 C 0.76155 0.36347 0.23266 0.0
C212 C 0.77847 0.40268 0.22436 0.0
C213 C 0.81048 0.43255 0.23185 0.0
C214 C 0.82499 0.4226 0.24783 0.0
C215 C 0.80855 0.38311 0.25605 0.0
C216 C 0.76141 0.30948 0.25688 0.0
C217 C 0.76484 0.26721 0.24849 0.0
C218 C 0.74654 0.30859 0.27326 0.0
C219 C 0.73822 0.35102 0.28284 0.0
C220 C 0.70524 0.38364 0.2777 0.0
C221 C 0.69066 0.41836 0.28827 0.0
C222 C 0.70883 0.42094 0.30415 0.0
C223 C 0.74383 0.38984 0.30887 0.0
C224 C 0.75831 0.35522 0.29833 0.0
C225 C 0.72922 0.1807 0.28172 0.0
C226 C 0.75193 0.17107 0.29648 0.0
C227 C 0.73789 0.13372 0.30626 0.0
C228 C 0.70062 0.10536 0.30151 0.0
C229 C 0.67883 0.11416 0.28646 0.0
C230 C 0.69305 0.15155 0.27663 0.0
C231 C 0.7408 0.22384 0.27258 0.0
C232 C 0.73655 0.26587 0.28081 0.0
C233 C 0.75484 0.2243 0.25612 0.0
C234 C 0.76231 0.18077 0.24693 0.0
C235 C 0.78982 0.14514 0.2535 0.0
C236 C 0.79832 0.10503 0.24465 0.0
C237 C 0.78073 0.10004 0.22877 0.0
C238 C 0.75292 0.13565 0.22222 0.0
C239 C 0.74376 0.17556 0.23123 0.0
H240 H 0.66802 0.83462 0.75231 0.0
H241 H 0.63594 0.90424 0.73942 0.0
H242 H 0.77301 0.96437 0.73656 0.0
H243 H 0.80508 0.89395 0.74923 0.0
H244 H 0.72957 0.77611 0.73854 0.0
H245 H 0.722 0.87263 0.78627 0.0
H246 H 0.73765 0.94266 0.80207 0.0
H247 H 0.88438 0.91814 0.79792 0.0
H248 H 0.86848 0.84864 0.78187 0.0
H249 H 0.87633 0.70295 0.78166 0.0
H250 H 0.89857 0.62896 0.79405 0.0
H251 H 0.7599 0.57626 0.7861 0.0
H252 H 0.737 0.65158 0.77548 0.0
H253 H 0.82047 0.76803 0.78973 0.0
H254 H 0.82586 0.6687 0.74194 0.0
H255 H 0.80651 0.59831 0.72661 0.0
H256 H 0.66129 0.63001 0.73098 0.0
H257 H 0.68067 0.69983 0.74629 0.0
C258 C 0.73888 0.8592 0.75179 0.0
C259 C 0.69113 0.86294 0.749 0.0
C260 C 0.67282 0.90286 0.74173 0.0
C261 C 0.70194 0.93982 0.73697 0.0
C262 C 0.74976 0.93629 0.73996 0.0
C263 C 0.76807 0.89631 0.74733 0.0
C264 C 0.75801 0.81517 0.75842 0.0
C265 C 0.74921 0.77424 0.74979 0.0
C266 C 0.7847 0.81322 0.77287 0.0
C267 C 0.79407 0.85549 0.78272 0.0
C268 C 0.75756 0.88251 0.78866 0.0
C269 C 0.76655 0.92241 0.7978 0.0
C270 C 0.8123 0.93628 0.80121 0.0
C271 C 0.84876 0.90897 0.79531 0.0
C272 C 0.83973 0.86894 0.78626 0.0
C273 C 0.80516 0.68289 0.77729 0.0
C274 C 0.85065 0.67554 0.78273 0.0
C275 C 0.8635 0.63272 0.78961 0.0
C276 C 0.83129 0.5959 0.79104 0.0
C277 C 0.78578 0.60354 0.78551 0.0
C278 C 0.77272 0.64665 0.77907 0.0
C279 C 0.79124 0.72844 0.76997 0.0
C280 C 0.8013 0.76982 0.77838 0.0
C281 C 0.76564 0.73104 0.75525 0.0
C282 C 0.75469 0.68934 0.74538 0.0
C283 C 0.78989 0.66047 0.73955 0.0
C284 C 0.77884 0.62047 0.73072 0.0
C285 C 0.73239 0.60852 0.7277 0.0
C286 C 0.69736 0.638 0.73329 0.0
C287 C 0.7084 0.67808 0.74194 0.0
H288 H 0.43915 0.3798 1.00783 0.0
H289 H 0.37218 0.3581 0.99121 0.0
H290 H 0.33601 0.50303 0.98597 0.0
H291 H 0.40299 0.52446 1.00241 0.0
H292 H 0.51333 0.42834 1.00021 0.0
H293 H 0.41437 0.44654 0.04968 0.0
H294 H 0.35532 0.47524 0.06812 0.0
H295 H 0.36286 0.61024 0.04445 0.0
H296 H 0.42409 0.58173 0.02687 0.0
H297 H 0.58126 0.58814 0.03051 0.0
H298 H 0.64525 0.62091 0.04633 0.0
H299 H 0.67533 0.48452 0.06599 0.0
H300 H 0.61143 0.4517 0.04988 0.0
H301 H 0.50581 0.53753 0.04636 0.0
H302 H 0.6208 0.52208 1.0051 0.0
H303 H 0.69395 0.4978 0.99325 0.0
H304 H 0.65813 0.35407 1.00277 0.0
H305 H 0.58507 0.37877 0.01501 0.0
C306 C 0.42577 0.45372 1.00666 0.0
C307 C 0.41661 0.40687 1.0032 0.0
C308 C 0.37843 0.39454 0.99363 0.0
C309 C 0.34867 0.42885 0.98728 0.0
C310 C 0.3577 0.47568 0.9909 0.0
C311 C 0.39595 0.48797 1.00039 0.0
C312 C 0.46812 0.46727 0.0158 0.0
C313 C 0.51152 0.4515 0.01051 0.0
C314 C 0.46643 0.4981 0.02903 0.0
C315 C 0.42298 0.51193 0.03685 0.0
C316 C 0.40229 0.48195 0.04825 0.0
C317 C 0.36859 0.49855 0.0588 0.0
C318 C 0.35471 0.54539 0.05799 0.0
C319 C 0.37358 0.5744 0.04578 0.0
C320 C 0.40793 0.55799 0.03548 0.0
C321 C 0.59203 0.51754 0.03896 0.0
C322 C 0.60207 0.56524 0.03806 0.0
C323 C 0.6385 0.58387 0.04708 0.0
C324 C 0.66495 0.55521 0.05741 0.0
C325 C 0.65514 0.50732 0.0582 0.0
C326 C 0.61907 0.48854 0.04893 0.0
C327 C 0.55051 0.49923 0.03064 0.0
C328 C 0.50745 0.51401 0.03614 0.0
C329 C 0.55279 0.46721 0.01779 0.0
C330 C 0.59769 0.45225 0.01106 0.0
C331 C 0.62895 0.48538 1.00487 0.0
C332 C 0.67056 0.47143 0.99797 0.0
C333 C 0.68169 0.42401 0.99704 0.0
C334 C 0.65067 0.39085 1.00346 0.0
C335 C 0.60884 0.40487 0.01033 0.0
H336 H 0.92061 0.50399 0.48361 0.0
H337 H 0.85224 0.53326 0.46931 0.0
H338 H 0.81638 0.61414 0.5113 0.0
H339 H 0.88551 0.58585 0.52543 0.0
H340 H 0.99376 0.54325 0.49344 0.0
H341 H 0.87526 0.45832 0.51995 0.0
H342 H 0.80452 0.44072 0.53499 0.0
H343 H 0.85791 0.51571 0.57627 0.0
H344 H 0.92849 0.53401 0.56105 0.0
H345 H 0.06659 0.52565 0.55935 0.0
H346 H 0.13522 0.4987 0.57391 0.0
H347 H 0.17182 0.41465 0.53265 0.0
H348 H 0.10134 0.43872 0.51882 0.0
H349 H 0.99301 0.48148 0.54994 0.0
H350 H 0.1124 0.5687 0.51975 0.0
H351 H 0.18152 0.57867 0.50298 0.0
H352 H 0.1241 0.48388 0.46771 0.0
H353 H 0.05471 0.47518 0.48434 0.0
C354 C 0.90825 0.54227 0.5057 0.0
C355 C 0.8982 0.52816 0.48975 0.0
C356 C 0.85909 0.54493 0.48157 0.0
C357 C 0.8289 0.57598 0.48918 0.0
C358 C 0.83869 0.58982 0.50518 0.0
C359 C 0.87817 0.57351 0.51329 0.0
C360 C 0.95108 0.52567 0.51408 0.0
C361 C 0.99336 0.52924 0.50574 0.0
C362 C 0.95089 0.50767 0.53022 0.0
C363 C 0.90715 0.4981 0.53924 0.0
C364 C 0.8715 0.47177 0.53212 0.0
C365 C 0.83101 0.46168 0.54075 0.0
C366 C 0.82547 0.477 0.55681 0.0
C367 C 0.86122 0.50317 0.56396 0.0
C368 C 0.90157 0.51367 0.55526 0.0
C369 C 0.0788 0.4848 0.53785 0.0
C370 C 0.08932 0.50124 0.55347 0.0
C371 C 0.12906 0.48618 0.56173 0.0
C372 C 0.15953 0.45443 0.55453 0.0
C373 C 0.14908 0.4385 0.53878 0.0
C374 C 0.10897 0.45294 0.53067 0.0
C375 C 0.03556 0.49985 0.52937 0.0
C376 C 0.99321 0.49583 0.53768 0.0
C377 C 0.03542 0.51634 0.51306 0.0
C378 C 0.0784 0.52119 0.50331 0.0
C379 C 0.11492 0.54985 0.50846 0.0
C380 C 0.15457 0.55526 0.49888 0.0
C381 C 0.15855 0.53207 0.48394 0.0
C382 C 0.12206 0.50285 0.47898 0.0
C383 C 0.08237 0.4977 0.48851 0.0
Fe384 Fe 0.0123 0.79705 0.18341 0.0
O385 O 0.01796 0.80124 0.15952 0.0
Fe386 Fe 0.96245 0.77306 0.14584 0.0
Fe387 Fe 0.07054 0.77221 0.14758 0.0
O388 O 0.01276 0.80106 0.15947 0.0
O389 O 0.01528 0.74567 0.13374 0.0
O390 O 0.01995 0.74569 0.13382 0.0
Fe391 Fe 0.02029 0.7469 0.11004 0.0
C392 C 0.10749 0.83553 0.17551 0.0
O393 O 0.06119 0.74569 0.18636 0.0
O394 O 0.06777 0.71342 0.16208 0.0
O395 O 0.96536 0.70141 0.11199 0.0
O396 O 0.91688 0.73837 0.12988 0.0
O397 O 0.9599 0.71421 0.16029 0.0
O398 O 0.96161 0.74668 0.18466 0.0
O399 O 0.11847 0.73604 0.13319 0.0
O400 O 0.07288 0.70028 0.11382 0.0
C401 C 0.95314 0.71231 0.17553 0.0
O402 O 0.97096 0.7977 0.1069 0.0
O403 O 0.96143 0.83125 0.13093 0.0
O404 O 0.06725 0.84217 0.18202 0.0
O405 O 0.11629 0.80584 0.16399 0.0
C406 C 0.07111 0.71129 0.17748 0.0
C407 C 0.11123 0.70516 0.12191 0.0
C408 C 0.08597 0.82944 0.1175 0.0
O409 O 0.07729 0.83021 0.13269 0.0
O410 O 0.07165 0.79667 0.10845 0.0
C411 C 0.9252 0.70795 0.1186 0.0
O412 O 0.9138 0.80724 0.16063 0.0
O413 O 0.95898 0.84303 0.18021 0.0
C414 C 0.95562 0.83062 0.11557 0.0
C415 C 0.92043 0.83689 0.17235 0.0
Fe416 Fe 0.46281 0.76132 0.43345 0.0
O417 O 0.4638 0.75734 0.40958 0.0
Fe418 Fe 0.49538 0.81241 0.3966 0.0
Fe419 Fe 0.49285 0.70421 0.39796 0.0
O420 O 0.46364 0.76227 0.40947 0.0
O421 O 0.52362 0.75926 0.38489 0.0
O422 O 0.52386 0.75464 0.38502 0.0
Fe423 Fe 0.5269 0.7557 0.36121 0.0
C424 C 0.54745 0.69965 0.42906 0.0
O425 O 0.4158 0.70824 0.43051 0.0
O426 O 0.45426 0.65862 0.41322 0.0
O427 O 0.47901 0.80731 0.35732 0.0
O428 O 0.44054 0.81629 0.38048 0.0
O429 O 0.4602 0.86158 0.41079 0.0
O430 O 0.41947 0.81674 0.42949 0.0
O431 O 0.43797 0.70132 0.38205 0.0
O432 O 0.47533 0.70652 0.35836 0.0
C433 C 0.42799 0.85532 0.42169 0.0
O434 O 0.57366 0.80939 0.36437 0.0
O435 O 0.53371 0.85778 0.38153 0.0
O436 O 0.51176 0.71007 0.43725 0.0
O437 O 0.54834 0.70364 0.41367 0.0
C438 C 0.42131 0.66851 0.42345 0.0
C439 C 0.44062 0.69384 0.36685 0.0
C440 C 0.56156 0.66158 0.37316 0.0
O441 O 0.52882 0.65536 0.3839 0.0
O442 O 0.57041 0.7005 0.36559 0.0
C443 C 0.44485 0.82318 0.36522 0.0
O444 O 0.5509 0.81213 0.41226 0.0
O445 O 0.51456 0.81044 0.43604 0.0
C446 C 0.56586 0.84964 0.37084 0.0
C447 C 0.55035 0.81875 0.42751 0.0
Fe448 Fe 0.49633 0.29672 0.68226 0.0
O449 O 0.50027 0.29668 0.65833 0.0
Fe450 Fe 0.44574 0.26408 0.64566 0.0
Fe451 Fe 0.5533 0.26893 0.64631 0.0
O452 O 0.49543 0.29625 0.65834 0.0
O453 O 0.49876 0.23657 0.63372 0.0
O454 O 0.50339 0.23678 0.63375 0.0
Fe455 Fe 0.50121 0.23428 0.60996 0.0
C456 C 0.5889 0.33913 0.67232 0.0
O457 O 0.54788 0.24845 0.68578 0.0
O458 O 0.55557 0.2129 0.66207 0.0
O459 O 0.44956 0.1858 0.61363 0.0
O460 O 0.40081 0.22514 0.63078 0.0
O461 O 0.44617 0.20792 0.66126 0.0
O462 O 0.44795 0.24366 0.68507 0.0
O463 O 0.60219 0.23396 0.63195 0.0
O464 O 0.55765 0.19218 0.61379 0.0
C465 C 0.43943 0.20797 0.6765 0.0
O466 O 0.44755 0.28046 0.60657 0.0
O467 O 0.44195 0.31967 0.6296 0.0
O468 O 0.54924 0.3443 0.67944 0.0
O469 O 0.59827 0.308 0.66136 0.0
C470 C 0.56008 0.21364 0.67744 0.0
C471 C 0.59645 0.2015 0.62112 0.0
C472 C 0.562 0.32198 0.61501 0.0
O473 O 0.55473 0.32458 0.63025 0.0
O474 O 0.54868 0.2872 0.60672 0.0
C475 C 0.40934 0.19295 0.62014 0.0
O476 O 0.39655 0.29889 0.65994 0.0
O477 O 0.44114 0.34019 0.6783 0.0
C478 C 0.43246 0.31473 0.6146 0.0
C479 C 0.40303 0.33207 0.67041 0.0
Fe480 Fe 0.01207 0.25641 0.91389 0.0
O481 O 0.0351 0.2187 0.8955 0.0
Fe482 Fe 0.99111 0.36378 0.89631 0.0
Fe483 Fe 0.02935 0.15087 0.89564 0.0
O484 O 0.98446 0.29581 0.8963 0.0
O485 O 0.98385 0.29573 0.89455 0.0
O486 O 0.03524 0.21898 0.8938 0.0
Fe487 Fe 0.00768 0.25821 0.87591 0.0
C488 C 0.07687 0.17878 0.92708 0.0
O489 O 0.95205 0.21877 0.915 0.0
O490 O 0.98103 0.14762 0.91448 0.0
O491 O 0.97437 0.30633 0.86009 0.0
O492 O 0.94375 0.36108 0.8775 0.0
O493 O 0.94662 0.35746 0.91561 0.0
O494 O 0.98197 0.30045 0.93113 0.0
O495 O 0.97632 0.1469 0.87921 0.0
O496 O 0.94753 0.21828 0.8753 0.0
C497 C 0.95243 0.33408 0.92904 0.0
O498 O 0.06774 0.29781 0.87421 0.0
O499 O 0.03974 0.3689 0.87838 0.0
O500 O 0.04672 0.21107 0.93018 0.0
O501 O 0.0789 0.15648 0.91347 0.0
C502 C 0.94907 0.17578 0.91839 0.0
C503 C 0.94486 0.17408 0.87406 0.0
C504 C 0.06626 0.17745 0.8618 0.0
O505 O 0.0721 0.15572 0.87562 0.0
O506 O 0.03804 0.2122 0.85918 0.0
C507 C 0.94744 0.34152 0.86336 0.0
O508 O 0.04377 0.3652 0.91367 0.0
O509 O 0.07214 0.29383 0.91337 0.0
C510 C 0.07007 0.34195 0.87264 0.0
C511 C 0.07603 0.33643 0.91684 0.0
H512 H 0.19483 0.03162 0.44806 0.0
H513 H 0.23395 0.93726 0.48683 0.0
H514 H 0.26501 0.01102 0.43308 0.0
H515 H 0.30357 0.91673 0.47199 0.0
H516 H 0.35214 0.89046 0.4065 0.0
H517 H 0.29165 0.936 0.41959 0.0
H518 H 0.37848 0.95049 0.4621 0.0
H519 H 0.4385 0.90477 0.44897 0.0
C520 C 0.21876 0.00699 0.45345 0.0
C521 C 0.20897 0.98578 0.46855 0.0
C522 C 0.25871 0.99513 0.44487 0.0
C523 C 0.28989 0.96255 0.45141 0.0
C524 C 0.2806 0.94251 0.46674 0.0
C525 C 0.24052 0.95383 0.47517 0.0
C526 C 0.35898 0.90543 0.41829 0.0
C527 C 0.39991 0.89484 0.42671 0.0
C528 C 0.32435 0.93124 0.42584 0.0
C529 C 0.33015 0.94617 0.44196 0.0
C530 C 0.37289 0.93892 0.44975 0.0
C531 C 0.40739 0.91328 0.4422 0.0
H532 H 0.30522 0.0094 0.74244 0.0
H533 H 0.34036 0.9277 0.70062 0.0
H534 H 0.33839 0.07831 0.72939 0.0
H535 H 0.37505 0.9961 0.68771 0.0
H536 H 0.39344 0.13593 0.66204 0.0
H537 H 0.35922 0.06755 0.67498 0.0
H538 H 0.40794 0.11478 0.72177 0.0
H539 H 0.44047 0.18416 0.70885 0.0
C540 C 0.32045 1.00613 0.73049 0.0
C541 C 0.32008 0.9631 0.72255 0.0
C542 C 0.33974 0.04563 0.72301 0.0
C543 C 0.3597 0.0431 0.70744 0.0
C544 C 0.35934 0.99986 0.69954 0.0
C545 C 0.33954 0.96049 0.70696 0.0
C546 C 0.39689 0.13171 0.6751 0.0
C547 C 0.41955 0.1657 0.68441 0.0
C548 C 0.37744 0.09223 0.68254 0.0
C549 C 0.38062 0.08528 0.69949 0.0
C550 C 0.40385 0.11915 0.70875 0.0
C551 C 0.4228 0.15893 0.70133 0.0
H552 H 0.34502 0.11913 0.96539 0.0
H553 H 0.2643 0.11859 1.00954 0.0
H554 H 0.27641 0.13956 0.94976 0.0
H555 H 0.19553 0.14054 0.99374 0.0
H556 H 0.09837 0.22431 0.95564 0.0
H557 H 0.16378 0.20832 0.97402 0.0
H558 H 0.20247 0.09189 0.94447 0.0
H559 H 0.13791 0.107 0.92639 0.0
C560 C 0.31266 0.12326 0.97179 0.0
C561 C 0.31015 0.11625 0.98872 0.0
C562 C 0.27339 0.13528 0.96282 0.0
C563 C 0.23057 0.14114 0.97052 0.0
C564 C 0.22818 0.13636 0.98752 0.0
C565 C 0.26758 0.12384 0.99654 0.0
C566 C 0.12043 0.19489 0.95323 0.0
C567 C 0.1129 0.16724 0.93942 0.0
C568 C 0.15785 0.18582 0.96373 0.0
C569 C 0.1885 0.14927 0.96051 0.0
C570 C 0.1799 0.12079 0.94709 0.0
C571 C 0.14264 0.1295 0.93674 0.0
H572 H 0.26006 1.00668 0.24327 0.0
H573 H 0.22071 0.09179 0.20202 0.0
H574 H 0.24242 0.93678 0.22783 0.0
H575 H 0.2014 0.02213 0.18671 0.0
H576 H 0.17326 0.89019 0.16031 0.0
H577 H 0.22085 0.95018 0.17346 0.0
H578 H 0.17101 0.90331 0.22041 0.0
H579 H 0.12498 0.84393 0.20735 0.0
C580 C 0.24788 0.01034 0.23085 0.0
C581 C 0.24111 0.05461 0.22392 0.0
C582 C 0.23776 0.97035 0.22198 0.0
C583 C 0.21981 0.97368 0.20607 0.0
C584 C 0.21562 0.01805 0.19884 0.0
C585 C 0.22637 0.05806 0.20765 0.0
C586 C 0.17398 0.89197 0.17345 0.0
C587 C 0.14533 0.86283 0.18283 0.0
C588 C 0.20075 0.92656 0.18099 0.0
C589 C 0.19945 0.93206 0.19802 0.0
C590 C 0.17352 0.9001 0.20734 0.0
C591 C 0.14682 0.86606 0.19984 0.0
H592 H 0.1574 0.15808 0.56752 0.0
H593 H 0.22851 0.02958 0.55763 0.0
H594 H 0.21709 0.17872 0.58695 0.0
H595 H 0.28562 0.04813 0.57822 0.0
H596 H 0.41232 0.12783 0.59629 0.0
H597 H 0.34857 0.09721 0.58078 0.0
H598 H 0.25212 0.16621 0.61242 0.0
H599 H 0.31677 0.19935 0.62759 0.0
C600 C 0.18561 0.13405 0.5695 0.0
C601 C 0.18831 0.09244 0.56072 0.0
C602 C 0.21941 0.14547 0.58098 0.0
C603 C 0.25643 0.1152 0.58421 0.0
C604 C 0.25815 0.07277 0.57589 0.0
C605 C 0.22488 0.06179 0.56418 0.0
C606 C 0.3776 0.13617 0.60017 0.0
C607 C 0.36987 0.16686 0.61307 0.0
C608 C 0.34074 0.11812 0.59127 0.0
C609 C 0.29494 0.12954 0.59517 0.0
C610 C 0.28698 0.15757 0.60881 0.0
C611 C 0.32406 0.17618 0.61764 0.0
H612 H 0.16724 0.01314 0.7792 0.0
H613 H 0.17527 0.93977 0.82532 0.0
H614 H 0.14154 0.08298 0.79333 0.0
H615 H 0.1519 0.00966 0.83922 0.0
H616 H 0.15413 0.14639 0.86206 0.0
H617 H 0.1878 0.09161 0.84315 0.0
H618 H 0.06826 0.10505 0.81191 0.0
H619 H 0.03429 0.16041 0.83098 0.0
C620 C 0.16362 0.01174 0.79229 0.0
C621 C 0.17381 0.97067 0.8011 0.0
C622 C 0.14915 0.05184 0.80034 0.0
C623 C 0.14543 0.05182 0.81735 0.0
C624 C 0.15549 0.01093 0.82611 0.0
C625 C 0.16916 0.97086 0.81812 0.0
C626 C 0.1357 0.13886 0.85089 0.0
C627 C 0.09144 0.15717 0.84804 0.0
C628 C 0.15487 0.10737 0.84012 0.0
C629 C 0.13016 0.09345 0.82628 0.0
C630 C 0.08796 0.11528 0.82252 0.0
C631 C 0.06865 0.14707 0.83337 0.0
H632 H 0.26372 0.99538 0.05308 0.0
H633 H 0.34642 0.96086 0.09526 0.0
H634 H 0.19525 0.96403 0.06659 0.0
H635 H 0.2781 0.92862 0.10873 0.0
H636 H 0.14134 0.8938 0.13297 0.0
H637 H 0.20303 0.94129 0.12086 0.0
H638 H 0.16701 0.88878 0.07342 0.0
H639 H 0.1054 0.84267 0.08536 0.0
C640 C 0.26726 0.98108 0.06526 0.0
C641 C 0.31065 0.98021 0.07302 0.0
C642 C 0.22798 0.96304 0.07302 0.0
C643 C 0.23104 0.94326 0.08873 0.0
C644 C 0.27417 0.94401 0.09673 0.0
C645 C 0.31346 0.96238 0.08898 0.0
C646 C 0.14614 0.89311 0.11993 0.0
C647 C 0.11857 0.86401 0.1102 0.0
C648 C 0.18177 0.92004 0.11299 0.0
C649 C 0.1904 0.91872 0.09614 0.0
C650 C 0.16129 0.89129 0.08638 0.0
C651 C 0.12593 0.86446 0.0933 0.0
H652 H 0.39928 0.06011 0.30648 0.0
H653 H 0.2609 0.04177 0.32541 0.0
H654 H 0.4236 0.9901 0.32084 0.0
H655 H 0.28635 0.97249 0.34042 0.0
H656 H 0.3837 0.88598 0.37821 0.0
H657 H 0.34686 0.95136 0.36388 0.0
H658 H 0.40219 0.90303 0.31848 0.0
H659 H 0.43817 0.83784 0.33254 0.0
C660 C 0.37383 0.04111 0.31357 0.0
C661 C 0.32786 0.05666 0.31455 0.0
C662 C 0.38794 1.00104 0.32189 0.0
C663 C 0.35676 0.97567 0.33164 0.0
C664 C 0.31112 0.99152 0.33303 0.0
C665 C 0.2967 0.03137 0.32447 0.0
C666 C 0.3869 0.8886 0.36513 0.0
C667 C 0.41438 0.85689 0.35659 0.0
C668 C 0.36595 0.92612 0.35694 0.0
C669 C 0.37246 0.93267 0.34012 0.0
C670 C 0.39733 0.89931 0.33149 0.0
C671 C 0.41779 0.86182 0.33958 0.0
H672 H 0.8372 0.16141 0.56448 0.0
H673 H 0.78223 0.02154 0.56768 0.0
H674 H 0.78118 0.18669 0.58435 0.0
H675 H 0.72869 0.04607 0.58858 0.0
H676 H 0.59645 0.12229 0.60333 0.0
H677 H 0.66042 0.0887 0.58897 0.0
H678 H 0.75408 0.18664 0.6115 0.0
H679 H 0.68885 0.22218 0.62543 0.0
C680 C 0.81333 0.13591 0.56947 0.0
C681 C 0.81371 0.08957 0.56416 0.0
C682 C 0.78177 0.15027 0.58118 0.0
C683 C 0.75012 0.11854 0.58808 0.0
C684 C 0.75197 0.07171 0.58334 0.0
C685 C 0.7831 0.05749 0.57145 0.0
C686 C 0.6307 0.13653 0.60543 0.0
C687 C 0.63729 0.17565 0.6153 0.0
C688 C 0.66769 0.11678 0.59727 0.0
C689 C 0.71254 0.13519 0.59887 0.0
C690 C 0.7198 0.17219 0.6097 0.0
C691 C 0.6825 0.19228 0.61783 0.0
H692 H 0.75121 0.04333 0.31962 0.0
H693 H 0.61081 0.08436 0.30882 0.0
H694 H 0.7225 0.98477 0.33885 0.0
H695 H 0.58208 0.0249 0.32763 0.0
H696 H 0.54422 0.94214 0.37237 0.0
H697 H 0.57956 1.00585 0.35691 0.0
H698 H 0.68027 0.91099 0.3376 0.0
H699 H 0.64571 0.84762 0.35321 0.0
C700 C 0.71423 0.03983 0.32136 0.0
C701 C 0.68326 0.06834 0.31266 0.0
C702 C 0.6978 1.00615 0.3323 0.0
C703 C 0.65005 1.00039 0.33482 0.0
C704 C 0.6191 0.02896 0.32614 0.0
C705 C 0.63552 0.06251 0.31517 0.0
C706 C 0.57455 0.93507 0.36513 0.0
C707 C 0.59185 0.88966 0.36392 0.0
C708 C 0.59447 0.97148 0.35613 0.0
C709 C 0.63228 0.96329 0.34586 0.0
C710 C 0.65128 0.9185 0.34544 0.0
C711 C 0.63128 0.8821 0.35435 0.0
H712 H 0.69871 0.96381 0.09301 0.0
H713 H 0.77645 0.98746 0.04895 0.0
H714 H 0.76764 0.93272 0.10627 0.0
H715 H 0.84575 0.95729 0.06226 0.0
H716 H 0.93426 0.83821 0.08329 0.0
H717 H 0.87325 0.88351 0.07078 0.0
H718 H 0.84396 0.94669 0.11702 0.0
H719 H 0.90493 0.90006 0.12973 0.0
C720 C 0.73078 0.96317 0.08625 0.0
C721 C 0.73199 0.9777 0.06988 0.0
C722 C 0.77043 0.9455 0.09388 0.0
C723 C 0.81239 0.94219 0.08534 0.0
C724 C 0.81391 0.95843 0.06913 0.0
C725 C 0.77418 0.97576 0.06148 0.0
C726 C 0.91541 0.86221 0.09082 0.0
C727 C 0.92419 0.86487 0.10763 0.0
C728 C 0.88039 0.88854 0.08357 0.0
C729 C 0.85319 0.91859 0.09287 0.0
C730 C 0.8636 0.92325 0.10953 0.0
C731 C 0.89879 0.89677 0.11681 0.0
H732 H 0.76811 0.96475 0.82885 0.0
H733 H 0.87882 1.00324 0.79618 0.0
H734 H 0.78768 0.03058 0.84614 0.0
H735 H 0.89904 0.06835 0.81365 0.0
H736 H 0.9161 0.19654 0.84331 0.0
H737 H 0.87506 0.14428 0.82472 0.0
H738 H 0.85296 0.04689 0.86432 0.0
H739 H 0.89375 0.09894 0.88269 0.0
C740 C 0.79623 0.98759 0.82523 0.0
C741 C 0.82212 0.97838 0.81117 0.0
C742 C 0.80763 0.0252 0.8352 0.0
C743 C 0.84498 0.05483 0.83132 0.0
C744 C 0.86972 0.04666 0.81694 0.0
C745 C 0.85853 0.00888 0.80703 0.0
C746 C 0.90059 0.16492 0.84813 0.0
C747 C 0.90767 0.15193 0.86445 0.0
C748 C 0.87778 0.1346 0.83745 0.0
C749 C 0.8612 0.09104 0.84296 0.0
C750 C 0.8649 0.08016 0.85963 0.0
C751 C 0.88816 0.11007 0.8702 0.0
H752 H 0.74091 0.97556 0.488 0.0
H753 H 0.8299 0.88906 0.45919 0.0
H754 H 0.67328 0.94256 0.47445 0.0
H755 H 0.76222 0.85499 0.44603 0.0
H756 H 0.63281 0.84417 0.41352 0.0
H757 H 0.70078 0.87703 0.42686 0.0
H758 H 0.63084 0.86881 0.47314 0.0
H759 H 0.56269 0.83661 0.45985 0.0
C760 C 0.74603 0.94954 0.47877 0.0
C761 C 0.79078 0.93492 0.47469 0.0
C762 C 0.70727 0.93028 0.47113 0.0
C763 C 0.71238 0.89608 0.45918 0.0
C764 C 0.75713 0.88155 0.45507 0.0
C765 C 0.79588 0.9007 0.46275 0.0
C766 C 0.63189 0.84932 0.42654 0.0
C767 C 0.59212 0.83793 0.43558 0.0
C768 C 0.67096 0.86795 0.4342 0.0
C769 C 0.67115 0.87567 0.45105 0.0
C770 C 0.63155 0.86394 0.4601 0.0
C771 C 0.59254 0.84525 0.45247 0.0
H772 H 0.86358 0.05509 0.22825 0.0
H773 H 0.72686 0.05177 0.20672 0.0
H774 H 0.88388 0.98561 0.2135 0.0
H775 H 0.74867 0.98268 0.19123 0.0
H776 H 0.86815 0.90127 0.1558 0.0
H777 H 0.82394 0.96384 0.16864 0.0
H778 H 0.84407 0.89808 0.21551 0.0
H779 H 0.888 0.83626 0.20279 0.0
C780 C 0.83762 0.03944 0.22049 0.0
C781 C 0.7932 0.05869 0.21898 0.0
C782 C 0.84947 0.99981 0.21194 0.0
C783 C 0.81759 0.9787 0.20143 0.0
C784 C 0.7737 0.99845 0.19934 0.0
C785 C 0.76144 0.03802 0.20815 0.0
C786 C 0.8612 0.89927 0.16871 0.0
C787 C 0.88152 0.86436 0.17837 0.0
C788 C 0.83609 0.935 0.17604 0.0
C789 C 0.83131 0.93581 0.19305 0.0
C790 C 0.8476 0.89824 0.20239 0.0
C791 C 0.87253 0.86287 0.19512 0.0
H792 H 0.72807 0.02669 0.97068 0.0
H793 H 0.72929 0.16585 0.98991 0.0
H794 H 0.7912 0.04771 0.95239 0.0
H795 H 0.79378 0.18614 0.97224 0.0
H796 H 0.87197 0.2248 0.92648 0.0
H797 H 0.80894 0.20118 0.94419 0.0
H798 H 0.87239 0.06673 0.95113 0.0
H799 H 0.93545 0.09021 0.93304 0.0
C800 C 0.74183 0.06174 0.97106 0.0
C801 C 0.72323 0.09459 0.98176 0.0
C802 C 0.77849 0.07365 0.96068 0.0
C803 C 0.7976 0.11873 0.96072 0.0
C804 C 0.77954 0.1513 0.97164 0.0
C805 C 0.74287 0.13943 0.98198 0.0
C806 C 0.87256 0.19007 0.9317 0.0
C807 C 0.9091 0.15952 0.92835 0.0
C808 C 0.83642 0.17661 0.942 0.0
C809 C 0.83564 0.13217 0.9493 0.0
C810 C 0.8716 0.10112 0.94565 0.0
C811 C 0.90787 0.11462 0.9353 0.0
H812 H 0.73618 0.98579 0.71025 0.0
H813 H 0.62314 0.98698 0.74445 0.0
H814 H 0.7024 0.05213 0.6958 0.0
H815 H 0.58871 0.05229 0.72975 0.0
H816 H 0.56831 0.19986 0.71023 0.0
H817 H 0.60363 0.13469 0.72454 0.0
H818 H 0.6344 0.07037 0.67864 0.0
H819 H 0.59961 0.13617 0.6642 0.0
C820 C 0.70429 1.0004 0.71474 0.0
C821 C 0.68237 0.98119 0.72851 0.0
C822 C 0.68465 0.03801 0.70634 0.0
C823 C 0.64281 0.05738 0.7116 0.0
C824 C 0.62117 0.03843 0.72547 0.0
C825 C 0.64069 1.00076 0.73381 0.0
C826 C 0.58263 0.17193 0.70313 0.0
C827 C 0.58115 0.17338 0.68603 0.0
C828 C 0.60265 0.13439 0.71137 0.0
C829 C 0.62179 0.09733 0.70273 0.0
C830 C 0.6204 0.09867 0.68563 0.0
C831 C 0.60018 0.13623 0.67737 0.0
H832 H 0.74493 0.35817 1.00673 0.0
H833 H 0.71444 0.45644 0.96815 0.0
H834 H 0.81597 0.33586 0.99267 0.0
H835 H 0.78423 0.43394 0.95408 0.0
H836 H 0.92739 0.4205 0.93782 0.0
H837 H 0.86584 0.44172 0.95635 0.0
H838 H 0.84399 0.29662 0.96845 0.0
H839 H 0.90766 0.27573 0.95036 0.0
C840 C 0.75334 0.37481 0.99523 0.0
C841 C 0.72448 0.40947 0.98863 0.0
C842 C 0.79394 0.36205 0.98719 0.0
C843 C 0.80625 0.38363 0.97238 0.0
C844 C 0.7767 0.41758 0.9657 0.0
C845 C 0.73652 0.43044 0.97374 0.0
C846 C 0.91007 0.39327 0.94472 0.0
C847 C 0.92179 0.34651 0.94257 0.0
C848 C 0.87452 0.40532 0.95522 0.0
C849 C 0.84907 0.3708 0.96355 0.0
C850 C 0.86287 0.32409 0.96223 0.0
C851 C 0.89925 0.31207 0.95188 0.0
H852 H 0.81992 0.52125 0.24278 0.0
H853 H 0.8444 0.43596 0.20086 0.0
H854 H 0.8538 0.58791 0.22861 0.0
H855 H 0.87972 0.50228 0.18676 0.0
H856 H 0.90177 0.64367 0.16101 0.0
H857 H 0.86584 0.57601 0.17418 0.0
H858 H 0.92653 0.61628 0.22008 0.0
H859 H 0.96066 0.68438 0.20708 0.0
C860 C 0.83287 0.51676 0.23055 0.0
C861 C 0.82965 0.47342 0.22294 0.0
C862 C 0.85252 0.55489 0.22243 0.0
C863 C 0.87001 0.5505 0.20656 0.0
C864 C 0.86617 0.50717 0.19888 0.0
C865 C 0.84602 0.46912 0.20696 0.0
C866 C 0.90744 0.63786 0.1739 0.0
C867 C 0.93354 0.66963 0.18305 0.0
C868 C 0.88701 0.59901 0.18146 0.0
C869 C 0.89274 0.59087 0.19827 0.0
C870 C 0.92019 0.62201 0.20723 0.0
C871 C 0.94004 0.66099 0.19975 0.0
H872 H 0.82453 0.61033 0.45809 0.0
H873 H 0.7402 0.58299 0.50035 0.0
H874 H 0.75734 0.64094 0.44364 0.0
H875 H 0.67247 0.61209 0.4858 0.0
H876 H 0.56887 0.70832 0.46128 0.0
H877 H 0.6369 0.6797 0.47564 0.0
H878 H 0.68721 0.62034 0.43102 0.0
H879 H 0.61996 0.65071 0.41656 0.0
C880 C 0.79143 0.61042 0.46423 0.0
C881 C 0.78767 0.59426 0.48036 0.0
C882 C 0.75277 0.62781 0.45592 0.0
C883 C 0.70915 0.62904 0.46348 0.0
C884 C 0.7055 0.61261 0.47963 0.0
C885 C 0.7443 0.59571 0.48799 0.0
C886 C 0.59442 0.68905 0.45454 0.0
C887 C 0.58883 0.68165 0.43778 0.0
C888 C 0.63344 0.67238 0.4628 0.0
C889 C 0.66775 0.64737 0.45457 0.0
C890 C 0.66205 0.64001 0.43777 0.0
C891 C 0.62327 0.6572 0.42946 0.0
H892 H 0.76867 0.57411 0.69943 0.0
H893 H 0.66784 0.54439 0.73676 0.0
H894 H 0.74466 0.50358 0.685 0.0
H895 H 0.64368 0.47484 0.72242 0.0
H896 H 0.62817 0.33565 0.70194 0.0
H897 H 0.6721 0.39751 0.7151 0.0
H898 H 0.67301 0.47592 0.67 0.0
H899 H 0.62944 0.41323 0.65683 0.0
C900 C 0.74172 0.5523 0.70461 0.0
C901 C 0.71994 0.56486 0.71918 0.0
C902 C 0.72783 0.51215 0.69632 0.0
C903 C 0.69248 0.48344 0.7026 0.0
C904 C 0.67151 0.49571 0.71735 0.0
C905 C 0.68497 0.53589 0.72549 0.0
C906 C 0.63934 0.36537 0.69472 0.0
C907 C 0.62601 0.36962 0.67837 0.0
C908 C 0.664 0.40101 0.70227 0.0
C909 C 0.67534 0.44199 0.69367 0.0
C910 C 0.66502 0.44469 0.67694 0.0
C911 C 0.64033 0.40877 0.66935 0.0
H912 H 0.67974 0.54442 0.09009 0.0
H913 H 0.73416 0.61242 0.04712 0.0
H914 H 0.74151 0.57984 0.10651 0.0
H915 H 0.79575 0.64731 0.06342 0.0
H916 H 0.92826 0.64791 0.09319 0.0
H917 H 0.86434 0.60988 0.07959 0.0
H918 H 0.76896 0.66732 0.11411 0.0
H919 H 0.83342 0.70657 0.12795 0.0
C920 C 0.70505 0.56673 0.08419 0.0
C921 C 0.70246 0.57562 0.06736 0.0
C922 C 0.73997 0.58723 0.09357 0.0
C923 C 0.77325 0.61614 0.08619 0.0
C924 C 0.77059 0.62491 0.06937 0.0
C925 C 0.73537 0.60511 0.06007 0.0
C926 C 0.89389 0.65246 0.0981 0.0
C927 C 0.8861 0.68095 0.11163 0.0
C928 C 0.85724 0.63064 0.0902 0.0
C929 C 0.81185 0.63617 0.0957 0.0
C930 C 0.80383 0.66264 0.10967 0.0
C931 C 0.84068 0.68513 0.11753 0.0
H932 H 0.61796 0.44214 0.30897 0.0
H933 H 0.75548 0.47299 0.32668 0.0
H934 H 0.58558 0.49536 0.32868 0.0
H935 H 0.72289 0.52489 0.34687 0.0
H936 H 0.64859 0.66197 0.36093 0.0
H937 H 0.68603 0.60013 0.34615 0.0
H938 H 0.57243 0.50748 0.35777 0.0
H939 H 0.53422 0.57021 0.37238 0.0
C940 C 0.6413 0.46036 0.31705 0.0
C941 C 0.68936 0.45375 0.31612 0.0
C942 C 0.62266 0.49019 0.32857 0.0
C943 C 0.65162 0.51414 0.33943 0.0
C944 C 0.69965 0.50711 0.33863 0.0
C945 C 0.71831 0.47724 0.32711 0.0
C946 C 0.63197 0.62814 0.36061 0.0
C947 C 0.58821 0.62107 0.36765 0.0
C948 C 0.6536 0.59256 0.35221 0.0
C949 C 0.63194 0.54905 0.3506 0.0
C950 C 0.5896 0.54093 0.35859 0.0
C951 C 0.56798 0.57662 0.36711 0.0
H952 H 0.8202 0.44524 0.58825 0.0
H953 H 0.7353 0.47929 0.54656 0.0
H954 H 0.75204 0.41702 0.60275 0.0
H955 H 0.66684 0.45195 0.56114 0.0
H956 H 0.57577 0.33391 0.58244 0.0
H957 H 0.63629 0.37854 0.56913 0.0
H958 H 0.67929 0.43345 0.61553 0.0
H959 H 0.61911 0.38721 0.62899 0.0
C960 C 0.78679 0.44759 0.5823 0.0
C961 C 0.78325 0.46408 0.56619 0.0
C962 C 0.74759 0.43156 0.59064 0.0
C963 C 0.70379 0.43187 0.58311 0.0
C964 C 0.70007 0.4503 0.56723 0.0
C965 C 0.73931 0.46601 0.55886 0.0
C966 C 0.59757 0.35605 0.58983 0.0
C967 C 0.59274 0.35657 0.60685 0.0
C968 C 0.63227 0.382 0.58215 0.0
C969 C 0.66314 0.40942 0.59123 0.0
C970 C 0.65665 0.41211 0.60816 0.0
C971 C 0.62179 0.38602 0.61588 0.0
H972 H 0.77664 0.53635 0.80921 0.0
H973 H 0.91589 0.55151 0.79073 0.0
H974 H 0.79838 0.46507 0.8229 0.0
H975 H 0.93878 0.48245 0.80592 0.0
H976 H 0.97006 0.347 0.83086 0.0
H977 H 0.93769 0.40122 0.8107 0.0
H978 H 0.83843 0.44701 0.84628 0.0
H979 H 0.86892 0.3919 0.86578 0.0
C980 C 0.81188 0.52453 0.80788 0.0
C981 C 0.84447 0.55053 0.79885 0.0
C982 C 0.82461 0.4837 0.81605 0.0
C983 C 0.87064 0.46809 0.81585 0.0
C984 C 0.90292 0.49298 0.80634 0.0
C985 C 0.88993 0.53339 0.79786 0.0
C986 C 0.94027 0.36756 0.8341 0.0
C987 C 0.9223 0.36539 0.84995 0.0
C988 C 0.92213 0.39921 0.82265 0.0
C989 C 0.88571 0.42921 0.82684 0.0
C990 C 0.86599 0.42442 0.84238 0.0
C991 C 0.88382 0.39286 0.8537 0.0
H992 H 0.35598 0.63217 0.0715 0.0
H993 H 0.28077 0.50181 0.07271 0.0
H994 H 0.3003 0.66544 0.08994 0.0
H995 H 0.22758 0.53381 0.09235 0.0
H996 H 0.10484 0.62733 0.10362 0.0
H997 H 0.16647 0.58554 0.09088 0.0
H998 H 0.26726 0.67001 0.11616 0.0
H999 H 0.20452 0.71415 0.12844 0.0
C1000 C 0.32771 0.61044 0.07574 0.0
C1001 C 0.32237 0.56454 0.07024 0.0
C1002 C 0.2963 0.62929 0.08666 0.0
C1003 C 0.25913 0.6025 0.09261 0.0
C1004 C 0.25523 0.55583 0.08779 0.0
C1005 C 0.28614 0.53724 0.07663 0.0
C1006 C 0.14008 0.637 0.10664 0.0
C1007 C 0.14967 0.67489 0.1168 0.0
C1008 C 0.17567 0.61242 0.09943 0.0
C1009 C 0.22205 0.6245 0.10233 0.0
C1010 C 0.23187 0.66037 0.11339 0.0
C1011 C 0.19596 0.6854 0.12056 0.0
H1012 H 0.24668 0.54066 0.81999 0.0
H1013 H 0.10981 0.53513 0.79866 0.0
H1014 H 0.22724 0.47403 0.83733 0.0
H1015 H 0.0917 0.46727 0.81541 0.0
H1016 H 0.08055 0.32721 0.84032 0.0
H1017 H 0.11605 0.3818 0.82084 0.0
H1018 H 0.16793 0.46381 0.86064 0.0
H1019 H 0.13156 0.40987 0.88 0.0
C1020 C 0.21253 0.5254 0.8189 0.0
C1021 C 0.17978 0.54405 0.8079 0.0
C1022 C 0.20164 0.48683 0.82876 0.0
C1023 C 0.15808 0.46522 0.82767 0.0
C1024 C 0.12588 0.48265 0.81634 0.0
C1025 C 0.13642 0.52168 0.80668 0.0
C1026 C 0.10133 0.35575 0.84486 0.0
C1027 C 0.10411 0.36396 0.86164 0.0
C1028 C 0.12102 0.38737 0.83373 0.0
C1029 C 0.14448 0.42729 0.83921 0.0
C1030 C 0.15041 0.43325 0.85604 0.0
C1031 C 0.1299 0.40224 0.86713 0.0
H1032 H 0.19724 0.36715 0.55355 0.0
H1033 H 0.21609 0.50082 0.57624 0.0
H1034 H 0.26371 0.33754 0.5681 0.0
H1035 H 0.28086 0.4697 0.59194 0.0
H1036 H 0.42444 0.40717 0.60596 0.0
H1037 H 0.35905 0.44334 0.59147 0.0
H1038 H 0.28451 0.31265 0.59398 0.0
H1039 H 0.35024 0.27688 0.60745 0.0
C1040 C 0.21554 0.39046 0.5616 0.0
C1041 C 0.20092 0.4366 0.56359 0.0
C1042 C 0.25342 0.37307 0.57026 0.0
C1043 C 0.27753 0.40086 0.58148 0.0
C1044 C 0.26339 0.44722 0.58338 0.0
C1045 C 0.2257 0.46489 0.57452 0.0
C1046 C 0.39376 0.38666 0.60344 0.0
C1047 C 0.39226 0.33931 0.60767 0.0
C1048 C 0.35625 0.40723 0.5952 0.0
C1049 C 0.31656 0.38079 0.59123 0.0
C1050 C 0.3148 0.33391 0.59628 0.0
C1051 C 0.3523 0.31341 0.60419 0.0
H1052 H 0.33646 0.51391 0.29346 0.0
H1053 H 0.27965 0.45141 0.33715 0.0
H1054 H 0.36508 0.57832 0.30908 0.0
H1055 H 0.30318 0.51888 0.35246 0.0
H1056 H 0.40638 0.61288 0.37916 0.0
H1057 H 0.36504 0.55286 0.3644 0.0
H1058 H 0.35513 0.64519 0.32257 0.0
H1059 H 0.40031 0.70328 0.33707 0.0
C1060 C 0.32959 0.51387 0.30638 0.0
C1061 C 0.30634 0.4764 0.31395 0.0
C1062 C 0.34518 0.55182 0.31539 0.0
C1063 C 0.33683 0.55444 0.33222 0.0
C1064 C 0.31148 0.51807 0.33965 0.0
C1065 C 0.29702 0.47943 0.33071 0.0
C1066 C 0.39449 0.62046 0.3669 0.0
C1067 C 0.40659 0.66252 0.3592 0.0
C1068 C 0.37054 0.58602 0.35837 0.0
C1069 C 0.35701 0.59333 0.34204 0.0
C1070 C 0.36621 0.63717 0.33486 0.0
C1071 C 0.3915 0.67095 0.34323 0.0
H1072 H 0.3473 0.36537 0.96275 0.0
H1073 H 0.2606 0.46369 0.98746 0.0
H1074 H 0.28288 0.34481 0.945 0.0
H1075 H 0.19592 0.44284 0.9698 0.0
H1076 H 0.10117 0.42501 0.92567 0.0
H1077 H 0.16773 0.44833 0.94211 0.0
H1078 H 0.21009 0.30479 0.94601 0.0
H1079 H 0.14477 0.28173 0.92932 0.0
C1080 C 0.31433 0.38226 0.9645 0.0
C1081 C 0.30907 0.41603 0.97657 0.0
C1082 C 0.27736 0.37052 0.95431 0.0
C1083 C 0.23409 0.39211 0.95596 0.0
C1084 C 0.2289 0.42604 0.968 0.0
C1085 C 0.26595 0.4379 0.97817 0.0
C1086 C 0.1249 0.39852 0.92993 0.0
C1087 C 0.11755 0.35153 0.92611 0.0
C1088 C 0.1629 0.41183 0.93946 0.0
C1089 C 0.19434 0.37846 0.94542 0.0
C1090 C 0.18713 0.33158 0.94143 0.0
C1091 C 0.14939 0.31832 0.93188 0.0
H1092 H 0.25663 0.58396 0.69355 0.0
H1093 H 0.26692 0.49733 0.73667 0.0
H1094 H 0.27833 0.51834 0.67687 0.0
H1095 H 0.29096 0.4323 0.72003 0.0
H1096 H 0.32339 0.31555 0.68718 0.0
H1097 H 0.27365 0.37525 0.699 0.0
H1098 H 0.35235 0.48168 0.6737 0.0
H1099 H 0.40098 0.42219 0.66194 0.0
C1100 C 0.26271 0.55074 0.69948 0.0
C1101 C 0.26055 0.54613 0.71651 0.0
C1102 C 0.27555 0.51318 0.68989 0.0
C1103 C 0.28682 0.47017 0.6971 0.0
C1104 C 0.28215 0.4648 0.71404 0.0
C1105 C 0.2691 0.50233 0.72363 0.0
C1106 C 0.3285 0.35164 0.6837 0.0
C1107 C 0.36543 0.36461 0.6736 0.0
C1108 C 0.30055 0.38581 0.69059 0.0
C1109 C 0.30927 0.43329 0.68741 0.0
C1110 C 0.34417 0.44557 0.67627 0.0
C1111 C 0.37212 0.41156 0.66952 0.0
H1112 H 0.16035 0.54005 0.45067 0.0
H1113 H 0.24977 0.54246 0.49287 0.0
H1114 H 0.22587 0.55923 0.43335 0.0
H1115 H 0.31488 0.56412 0.4756 0.0
H1116 H 0.43177 0.58826 0.44113 0.0
H1117 H 0.36907 0.5439 0.45426 0.0
H1118 H 0.26872 0.62958 0.4291 0.0
H1119 H 0.3311 0.67273 0.41603 0.0
C1120 C 0.19407 0.544 0.45627 0.0
C1121 C 0.19952 0.54008 0.47324 0.0
C1122 C 0.23164 0.55547 0.44632 0.0
C1123 C 0.27568 0.56364 0.45305 0.0
C1124 C 0.28162 0.55769 0.46994 0.0
C1125 C 0.24404 0.546 0.4799 0.0
C1126 C 0.39622 0.59603 0.43797 0.0
C1127 C 0.38599 0.63334 0.42746 0.0
C1128 C 0.36033 0.57122 0.44564 0.0
C1129 C 0.31376 0.58342 0.44287 0.0
C1130 C 0.30396 0.6187 0.43141 0.0
C1131 C 0.33968 0.64349 0.42388 0.0
H1132 H 0.24226 0.48714 0.21515 0.0
H1133 H 0.10801 0.46072 0.23645 0.0
H1134 H 0.21045 0.55327 0.20009 0.0
H1135 H 0.0769 0.52765 0.22178 0.0
H1136 H 0.05863 0.6838 0.20898 0.0
H1137 H 0.08825 0.61432 0.22257 0.0
H1138 H 0.1517 0.57135 0.17777 0.0
H1139 H 0.12184 0.64109 0.16405 0.0
C1140 C 0.20594 0.49506 0.21655 0.0
C1141 C 0.17788 0.4685 0.22714 0.0
C1142 C 0.18776 0.53307 0.20792 0.0
C1143 C 0.14122 0.54574 0.20979 0.0
C1144 C 0.11306 0.51911 0.22025 0.0
C1145 C 0.13106 0.48086 0.22874 0.0
C1146 C 0.07887 0.65957 0.202 0.0
C1147 C 0.08809 0.66812 0.18545 0.0
C1148 C 0.09557 0.61959 0.20977 0.0
C1149 C 0.12238 0.58742 0.20125 0.0
C1150 C 0.13145 0.59575 0.18468 0.0
C1151 C 0.11413 0.6355 0.17681 0.0
loop_
_geom_bond_atom_site_label_1
_geom_bond_atom_site_label_2
_geom_bond_distance
_geom_bond_site_symmetry_2
_ccdc_geom_bond_type
H0 C19 0.949 . S
H1 C20 0.950 . S
H2 C22 0.942 1_545 S
H3 C23 0.950 . S
H4 C25 0.950 . S
H5 C28 0.950 1_565 S
H6 C29 0.950 . S
H7 C31 0.951 . S
H8 C32 0.949 . S
H9 C34 0.949 . S
H10 C35 0.950 . S
H11 C37 0.950 . S
H12 C38 0.950 1_565 S
H13 C40 0.950 . S
H14 C43 0.950 . S
H15 C44 0.950 1_545 S
H16 C46 0.951 . S
H17 C47 0.949 . S
C18 C19 1.376 . S
C18 C23 1.386 1_565 S
C18 C24 1.483 . S
C19 H0 0.949 . S
C19 C18 1.376 . S
C19 C20 1.397 . S
C20 H1 0.950 . S
C20 C19 1.397 . S
C20 C21 1.391 . S
C21 C20 1.391 . S
C21 C22 1.417 . S
C22 H2 0.942 1_565 S
C22 C21 1.417 . S
C22 C23 1.364 1_565 S
C23 H3 0.950 . S
C23 C18 1.386 1_545 S
C23 C22 1.364 1_545 S
C24 C18 1.483 . S
C24 C25 1.382 . S
C24 C26 1.403 1_565 S
C25 H4 0.950 . S
C25 C24 1.382 . S
C25 C41 1.411 1_655 S
C26 C24 1.403 1_545 S
C26 C27 1.489 . S
C26 C40 1.411 1_655 S
C27 C26 1.489 . S
C27 C28 1.383 . S
C27 C32 1.382 . S
C28 H5 0.950 1_545 S
C28 C27 1.383 . S
C28 C29 1.395 . S
C29 H6 0.950 . S
C29 C28 1.395 . S
C29 C30 1.288 . S
C30 C29 1.288 . S
C30 C31 1.392 . S
C31 H7 0.951 . S
C31 C30 1.392 . S
C31 C32 1.392 . S
C32 H8 0.949 . S
C32 C27 1.382 . S
C32 C31 1.392 . S
C33 C34 1.376 . S
C33 C38 1.386 . S
C33 C39 1.483 . S
C34 H9 0.949 . S
C34 C33 1.376 . S
C34 C35 1.397 . S
C35 H10 0.950 . S
C35 C34 1.397 . S
C35 C36 1.391 . S
C36 C35 1.391 . S
C36 C37 1.405 . S
C37 H11 0.950 . S
C37 C36 1.405 . S
C37 C38 1.367 . S
C38 H12 0.950 1_545 S
C38 C33 1.386 . S
C38 C37 1.367 . S
C39 C33 1.483 . S
C39 C40 1.382 . S
C39 C41 1.403 1_545 S
C40 H13 0.950 . S
C40 C26 1.411 1_455 S
C40 C39 1.382 . S
C41 C25 1.411 1_455 S
C41 C39 1.403 1_565 S
C41 C42 1.489 . S
C42 C41 1.489 . S
C42 C43 1.383 1_565 S
C42 C47 1.382 . S
C43 H14 0.950 . S
C43 C42 1.383 1_545 S
C43 C44 1.395 1_545 S
C44 H15 0.950 1_565 S
C44 C43 1.395 1_565 S
C44 C45 1.288 . S
C45 C44 1.288 . S
C45 C46 1.392 . S
C46 H16 0.951 . S
C46 C45 1.392 . S
C46 C47 1.392 . S
C47 H17 0.949 . S
C47 C42 1.382 . S
C47 C46 1.392 . S
H48 C67 0.949 . S
H49 C68 0.950 . S
H50 C70 0.950 . S
H51 C71 0.950 . S
H52 C73 0.950 . S
H53 C76 0.950 . S
H54 C77 0.950 . S
H55 C79 0.951 . S
H56 C80 0.949 . S
H57 C82 0.949 . S
H58 C83 0.950 . S
H59 C85 0.950 . S
H60 C86 0.950 . S
H61 C88 0.950 . S
H62 C91 0.950 . S
H63 C92 0.950 . S
H64 C94 0.951 . S
H65 C95 0.949 . S
C66 C67 1.376 . S
C66 C71 1.386 . S
C66 C72 1.483 . S
C67 H48 0.949 . S
C67 C66 1.376 . S
C67 C68 1.397 . S
C68 H49 0.950 . S
C68 C67 1.397 . S
C68 C69 1.391 . S
C69 C68 1.391 . S
C69 C70 1.405 . S
C70 H50 0.950 . S
C70 C69 1.405 . S
C70 C71 1.367 . S
C71 H51 0.950 . S
C71 C66 1.386 . S
C71 C70 1.367 . S
C72 C66 1.483 . S
C72 C73 1.382 . S
C72 C74 1.403 . S
C73 H52 0.950 . S
C73 C72 1.382 . S
C73 C89 1.411 . S
C74 C72 1.403 . S
C74 C75 1.489 . S
C74 C88 1.411 . S
C75 C74 1.489 . S
C75 C76 1.383 . S
C75 C80 1.382 . S
C76 H53 0.950 . S
C76 C75 1.383 . S
C76 C77 1.395 . S
C77 H54 0.950 . S
C77 C76 1.395 . S
C77 C78 1.288 . S
C78 C77 1.288 . S
C78 C79 1.392 . S
C79 H55 0.951 . S
C79 C78 1.392 . S
C79 C80 1.392 . S
C80 H56 0.949 . S
C80 C75 1.382 . S
C80 C79 1.392 . S
C81 C82 1.376 . S
C81 C86 1.386 . S
C81 C87 1.483 . S
C82 H57 0.949 . S
C82 C81 1.376 . S
C82 C83 1.397 . S
C83 H58 0.950 . S
C83 C82 1.397 . S
C83 C84 1.391 . S
C84 C83 1.391 . S
C84 C85 1.405 . S
C85 H59 0.950 . S
C85 C84 1.405 . S
C85 C86 1.367 . S
C86 H60 0.950 . S
C86 C81 1.386 . S
C86 C85 1.367 . S
C87 C81 1.483 . S
C87 C88 1.382 . S
C87 C89 1.403 . S
C88 H61 0.950 . S
C88 C74 1.411 . S
C88 C87 1.382 . S
C89 C73 1.411 . S
C89 C87 1.403 . S
C89 C90 1.489 . S
C90 C89 1.489 . S
C90 C91 1.383 . S
C90 C95 1.382 . S
C91 H62 0.950 . S
C91 C90 1.383 . S
C91 C92 1.395 . S
C92 H63 0.950 . S
C92 C91 1.395 . S
C92 C93 1.288 . S
C93 C92 1.288 . S
C93 C94 1.392 . S
C94 H64 0.951 . S
C94 C93 1.392 . S
C94 C95 1.392 . S
C95 H65 0.949 . S
C95 C90 1.382 . S
C95 C94 1.392 . S
H96 C115 0.949 1_545 S
H97 C116 0.950 . S
H98 C118 0.950 . S
H99 C119 0.950 . S
H100 C121 0.950 . S
H101 C124 0.950 . S
H102 C125 0.950 . S
H103 C127 0.951 . S
H104 C128 0.949 . S
H105 C130 0.949 1_565 S
H106 C131 0.950 . S
H107 C133 0.952 1_554 S
H108 C134 0.950 . S
H109 C136 0.950 . S
H110 C139 0.950 . S
H111 C140 0.950 . S
H112 C142 0.951 . S
H113 C143 0.955 . S
C114 C115 1.376 . S
C114 C119 1.386 . S
C114 C120 1.483 . S
C115 H96 0.949 1_565 S
C115 C114 1.376 . S
C115 C116 1.397 . S
C116 H97 0.950 . S
C116 C115 1.397 . S
C116 C117 1.391 . S
C117 C116 1.391 . S
C117 C118 1.405 . S
C118 H98 0.950 . S
C118 C117 1.405 . S
C118 C119 1.367 . S
C119 H99 0.950 . S
C119 C114 1.386 . S
C119 C118 1.367 . S
C120 C114 1.483 . S
C120 C121 1.382 . S
C120 C122 1.403 1_565 S
C121 H100 0.950 . S
C121 C120 1.382 . S
C121 C137 1.411 . S
C122 C120 1.403 1_545 S
C122 C123 1.489 1_554 S
C122 C136 1.411 1_554 S
C123 C122 1.489 1_556 S
C123 C124 1.383 1_556 S
C123 C128 1.382 . S
C124 H101 0.950 . S
C124 C123 1.383 1_554 S
C124 C125 1.395 1_554 S
C125 H102 0.950 . S
C125 C124 1.395 1_556 S
C125 C126 1.288 . S
C126 C125 1.288 . S
C126 C127 1.392 . S
C127 H103 0.951 . S
C127 C126 1.392 . S
C127 C128 1.392 . S
C128 H104 0.949 . S
C128 C123 1.382 . S
C128 C127 1.392 . S
C129 C130 1.376 . S
C129 C134 1.386 1_556 S
C129 C135 1.483 1_556 S
C130 H105 0.949 1_545 S
C130 C129 1.376 . S
C130 C131 1.397 . S
C131 H106 0.950 . S
C131 C130 1.397 . S
C131 C132 1.391 . S
C132 C131 1.391 . S
C132 C133 1.405 . S
C133 H107 0.952 1_556 S
C133 C132 1.405 . S
C133 C134 1.367 1_556 S
C134 H108 0.950 . S
C134 C129 1.386 1_554 S
C134 C133 1.367 1_554 S
C135 C129 1.483 1_554 S
C135 C136 1.382 1_554 S
C135 C137 1.403 1_545 S
C136 H109 0.950 . S
C136 C122 1.411 1_556 S
C136 C135 1.382 1_556 S
C137 C121 1.411 . S
C137 C135 1.403 1_565 S
C137 C138 1.489 . S
C138 C137 1.489 . S
C138 C139 1.383 . S
C138 C143 1.382 . S
C139 H110 0.950 . S
C139 C138 1.383 . S
C139 C140 1.395 . S
C140 H111 0.950 . S
C140 C139 1.395 . S
C140 C141 1.288 . S
C141 C140 1.288 . S
C141 C142 1.392 . S
C142 H112 0.951 . S
C142 C141 1.392 . S
C142 C143 1.392 . S
C143 H113 0.955 . S
C143 C138 1.382 . S
C143 C142 1.392 . S
H144 C163 0.949 . S
H145 C164 0.950 . S
H146 C166 0.950 . S
H147 C167 0.950 . S
H148 C169 0.950 . S
H149 C172 0.950 . S
H150 C173 0.950 . S
H151 C175 0.951 . S
H152 C176 0.949 . S
H153 C178 0.949 . S
H154 C179 0.950 . S
H155 C181 0.950 . S
H156 C182 0.950 . S
H157 C184 0.950 . S
H158 C187 0.950 . S
H159 C188 0.950 . S
H160 C190 0.951 . S
H161 C191 0.949 . S
C162 C163 1.376 . S
C162 C167 1.386 . S
C162 C168 1.483 . S
C163 H144 0.949 . S
C163 C162 1.376 . S
C163 C164 1.397 . S
C164 H145 0.950 . S
C164 C163 1.397 . S
C164 C165 1.391 . S
C165 C164 1.391 . S
C165 C166 1.405 . S
C166 H146 0.950 . S
C166 C165 1.405 . S
C166 C167 1.367 . S
C167 H147 0.950 . S
C167 C162 1.386 . S
C167 C166 1.367 . S
C168 C162 1.483 . S
C168 C169 1.382 . S
C168 C170 1.403 . S
C169 H148 0.950 . S
C169 C168 1.382 . S
C169 C185 1.411 . S
C170 C168 1.403 . S
C170 C171 1.489 . S
C170 C184 1.411 . S
C171 C170 1.489 . S
C171 C172 1.383 . S
C171 C176 1.382 . S
C172 H149 0.950 . S
C172 C171 1.383 . S
C172 C173 1.395 . S
C173 H150 0.950 . S
C173 C172 1.395 . S
C173 C174 1.288 . S
C174 C173 1.288 . S
C174 C175 1.392 . S
C175 H151 0.951 . S
C175 C174 1.392 . S
C175 C176 1.392 . S
C176 H152 0.949 . S
C176 C171 1.382 . S
C176 C175 1.392 . S
C177 C178 1.376 . S
C177 C182 1.386 . S
C177 C183 1.483 . S
C178 H153 0.949 . S
C178 C177 1.376 . S
C178 C179 1.397 . S
C179 H154 0.950 . S
C179 C178 1.397 . S
C179 C180 1.391 . S
C180 C179 1.391 . S
C180 C181 1.405 . S
C181 H155 0.950 . S
C181 C180 1.405 . S
C181 C182 1.367 . S
C182 H156 0.950 . S
C182 C177 1.386 . S
C182 C181 1.367 . S
C183 C177 1.483 . S
C183 C184 1.382 . S
C183 C185 1.403 . S
C184 H157 0.950 . S
C184 C170 1.411 . S
C184 C183 1.382 . S
C185 C169 1.411 . S
C185 C183 1.403 . S
C185 C186 1.489 . S
C186 C185 1.489 . S
C186 C187 1.383 . S
C186 C191 1.382 . S
C187 H158 0.950 . S
C187 C186 1.383 . S
C187 C188 1.395 . S
C188 H159 0.950 . S
C188 C187 1.395 . S
C188 C189 1.288 . S
C189 C188 1.288 . S
C189 C190 1.392 . S
C190 H160 0.951 . S
C190 C189 1.392 . S
C190 C191 1.392 . S
C191 H161 0.949 . S
C191 C186 1.382 . S
C191 C190 1.392 . S
H192 C211 0.949 . S
H193 C212 0.950 . S
H194 C214 0.950 . S
H195 C215 0.950 . S
H196 C217 0.950 . S
H197 C220 0.950 . S
H198 C221 0.950 . S
H199 C223 0.951 . S
H200 C224 0.949 . S
H201 C226 0.949 . S
H202 C227 0.950 . S
H203 C229 0.950 . S
H204 C230 0.950 . S
H205 C232 0.950 . S
H206 C235 0.950 . S
H207 C236 0.950 . S
H208 C238 0.951 . S
H209 C239 0.949 . S
C210 C211 1.376 . S
C210 C215 1.386 . S
C210 C216 1.483 . S
C211 H192 0.949 . S
C211 C210 1.376 . S
C211 C212 1.397 . S
C212 H193 0.950 . S
C212 C211 1.397 . S
C212 C213 1.391 . S
C213 C212 1.391 . S
C213 C214 1.405 . S
C214 H194 0.950 . S
C214 C213 1.405 . S
C214 C215 1.367 . S
C215 H195 0.950 . S
C215 C210 1.386 . S
C215 C214 1.367 . S
C216 C210 1.483 . S
C216 C217 1.382 . S
C216 C218 1.403 . S
C217 H196 0.950 . S
C217 C216 1.382 . S
C217 C233 1.411 . S
C218 C216 1.403 . S
C218 C219 1.489 . S
C218 C232 1.411 . S
C219 C218 1.489 . S
C219 C220 1.383 . S
C219 C224 1.382 . S
C220 H197 0.950 . S
C220 C219 1.383 . S
C220 C221 1.395 . S
C221 H198 0.950 . S
C221 C220 1.395 . S
C221 C222 1.288 . S
C222 C221 1.288 . S
C222 C223 1.392 . S
C223 H199 0.951 . S
C223 C222 1.392 . S
C223 C224 1.392 . S
C224 H200 0.949 . S
C224 C219 1.382 . S
C224 C223 1.392 . S
C225 C226 1.376 . S
C225 C230 1.386 . S
C225 C231 1.483 . S
C226 H201 0.949 . S
C226 C225 1.376 . S
C226 C227 1.397 . S
C227 H202 0.950 . S
C227 C226 1.397 . S
C227 C228 1.391 . S
C228 C227 1.391 . S
C228 C229 1.405 . S
C229 H203 0.950 . S
C229 C228 1.405 . S
C229 C230 1.367 . S
C230 H204 0.950 . S
C230 C225 1.386 . S
C230 C229 1.367 . S
C231 C225 1.483 . S
C231 C232 1.382 . S
C231 C233 1.403 . S
C232 H205 0.950 . S
C232 C218 1.411 . S
C232 C231 1.382 . S
C233 C217 1.411 . S
C233 C231 1.403 . S
C233 C234 1.489 . S
C234 C233 1.489 . S
C234 C235 1.383 . S
C234 C239 1.382 . S
C235 H206 0.950 . S
C235 C234 1.383 . S
C235 C236 1.395 . S
C236 H207 0.950 . S
C236 C235 1.395 . S
C236 C237 1.288 . S
C237 C236 1.288 . S
C237 C238 1.392 . S
C238 H208 0.951 . S
C238 C237 1.392 . S
C238 C239 1.392 . S
C239 H209 0.949 . S
C239 C234 1.382 . S
C239 C238 1.392 . S
H240 C259 0.949 . S
H241 C260 0.950 . S
H242 C262 0.950 . S
H243 C263 0.950 . S
H244 C265 0.950 . S
H245 C268 0.950 . S
H246 C269 0.950 . S
H247 C271 0.951 . S
H248 C272 0.949 . S
H249 C274 0.949 . S
H250 C275 0.950 . S
H251 C277 0.950 . S
H252 C278 0.950 . S
H253 C280 0.950 . S
H254 C283 0.950 . S
H255 C284 0.950 . S
H256 C286 0.951 . S
H257 C287 0.949 . S
C258 C259 1.376 . S
C258 C263 1.386 . S
C258 C264 1.483 . S
C259 H240 0.949 . S
C259 C258 1.376 . S
C259 C260 1.397 . S
C260 H241 0.950 . S
C260 C259 1.397 . S
C260 C261 1.391 . S
C261 C260 1.391 . S
C261 C262 1.405 . S
C262 H242 0.950 . S
C262 C261 1.405 . S
C262 C263 1.367 . S
C263 H243 0.950 . S
C263 C258 1.386 . S
C263 C262 1.367 . S
C264 C258 1.483 . S
C264 C265 1.382 . S
C264 C266 1.403 . S
C265 H244 0.950 . S
C265 C264 1.382 . S
C265 C281 1.411 . S
C266 C264 1.403 . S
C266 C267 1.489 . S
C266 C280 1.411 . S
C267 C266 1.489 . S
C267 C268 1.383 . S
C267 C272 1.382 . S
C268 H245 0.950 . S
C268 C267 1.383 . S
C268 C269 1.395 . S
C269 H246 0.950 . S
C269 C268 1.395 . S
C269 C270 1.288 . S
C270 C269 1.288 . S
C270 C271 1.392 . S
C271 H247 0.951 . S
C271 C270 1.392 . S
C271 C272 1.392 . S
C272 H248 0.949 . S
C272 C267 1.382 . S
C272 C271 1.392 . S
C273 C274 1.376 . S
C273 C278 1.386 . S
C273 C279 1.483 . S
C274 H249 0.949 . S
C274 C273 1.376 . S
C274 C275 1.397 . S
C275 H250 0.950 . S
C275 C274 1.397 . S
C275 C276 1.391 . S
C276 C275 1.391 . S
C276 C277 1.405 . S
C277 H251 0.950 . S
C277 C276 1.405 . S
C277 C278 1.367 . S
C278 H252 0.950 . S
C278 C273 1.386 . S
C278 C277 1.367 . S
C279 C273 1.483 . S
C279 C280 1.382 . S
C279 C281 1.403 . S
C280 H253 0.950 . S
C280 C266 1.411 . S
C280 C279 1.382 . S
C281 C265 1.411 . S
C281 C279 1.403 . S
C281 C282 1.489 . S
C282 C281 1.489 . S
C282 C283 1.383 . S
C282 C287 1.382 . S
C283 H254 0.950 . S
C283 C282 1.383 . S
C283 C284 1.395 . S
C284 H255 0.950 . S
C284 C283 1.395 . S
C284 C285 1.288 . S
C285 C284 1.288 . S
C285 C286 1.392 . S
C286 H256 0.951 . S
C286 C285 1.392 . S
C286 C287 1.392 . S
C287 H257 0.949 . S
C287 C282 1.382 . S
C287 C286 1.392 . S
H288 C307 0.947 . S
H289 C308 0.950 . S
H290 C310 0.950 . S
H291 C311 0.950 . S
H292 C313 0.950 . S
H293 C316 0.950 . S
H294 C317 0.950 . S
H295 C319 0.951 . S
H296 C320 0.949 . S
H297 C322 0.949 . S
H298 C323 0.950 . S
H299 C325 0.950 . S
H300 C326 0.950 . S
H301 C328 0.950 . S
H302 C331 0.950 . S
H303 C332 0.950 . S
H304 C334 0.951 . S
H305 C335 0.949 . S
C306 C307 1.376 . S
C306 C311 1.386 . S
C306 C312 1.483 1_556 S
C307 H288 0.947 . S
C307 C306 1.376 . S
C307 C308 1.397 . S
C308 H289 0.950 . S
C308 C307 1.397 . S
C308 C309 1.391 . S
C309 C308 1.391 . S
C309 C310 1.405 . S
C310 H290 0.950 . S
C310 C309 1.405 . S
C310 C311 1.367 . S
C311 H291 0.950 . S
C311 C306 1.386 . S
C311 C310 1.367 . S
C312 C306 1.483 1_554 S
C312 C313 1.382 1_554 S
C312 C314 1.403 . S
C313 H292 0.950 . S
C313 C312 1.382 1_556 S
C313 C329 1.411 1_556 S
C314 C312 1.403 . S
C314 C315 1.489 . S
C314 C328 1.411 . S
C315 C314 1.489 . S
C315 C316 1.383 . S
C315 C320 1.382 . S
C316 H293 0.950 . S
C316 C315 1.383 . S
C316 C317 1.395 . S
C317 H294 0.950 . S
C317 C316 1.395 . S
C317 C318 1.288 . S
C318 C317 1.288 . S
C318 C319 1.392 . S
C319 H295 0.951 . S
C319 C318 1.392 . S
C319 C320 1.392 . S
C320 H296 0.949 . S
C320 C315 1.382 . S
C320 C319 1.392 . S
C321 C322 1.376 . S
C321 C326 1.386 . S
C321 C327 1.483 . S
C322 H297 0.949 . S
C322 C321 1.376 . S
C322 C323 1.397 . S
C323 H298 0.950 . S
C323 C322 1.397 . S
C323 C324 1.391 . S
C324 C323 1.391 . S
C324 C325 1.405 . S
C325 H299 0.950 . S
C325 C324 1.405 . S
C325 C326 1.367 . S
C326 H300 0.950 . S
C326 C321 1.386 . S
C326 C325 1.367 . S
C327 C321 1.483 . S
C327 C328 1.382 . S
C327 C329 1.403 . S
C328 H301 0.950 . S
C328 C314 1.411 . S
C328 C327 1.382 . S
C329 C313 1.411 1_554 S
C329 C327 1.403 . S
C329 C330 1.489 1_554 S
C330 C329 1.489 1_556 S
C330 C331 1.383 . S
C330 C335 1.382 . S
C331 H302 0.950 . S
C331 C330 1.383 . S
C331 C332 1.395 . S
C332 H303 0.950 . S
C332 C331 1.395 . S
C332 C333 1.288 . S
C333 C332 1.288 . S
C333 C334 1.392 . S
C334 H304 0.951 . S
C334 C333 1.392 . S
C334 C335 1.392 . S
C335 H305 0.949 . S
C335 C330 1.382 . S
C335 C334 1.392 . S
H336 C355 0.949 . S
H337 C356 0.950 . S
H338 C358 0.950 . S
H339 C359 0.950 . S
H340 C361 0.950 . S
H341 C364 0.950 . S
H342 C365 0.950 . S
H343 C367 0.951 . S
H344 C368 0.949 . S
H345 C370 0.949 . S
H346 C371 0.950 . S
H347 C373 0.950 . S
H348 C374 0.950 . S
H349 C376 0.950 . S
H350 C379 0.950 . S
H351 C380 0.950 . S
H352 C382 0.951 . S
H353 C383 0.949 . S
C354 C355 1.376 . S
C354 C359 1.386 . S
C354 C360 1.483 . S
C355 H336 0.949 . S
C355 C354 1.376 . S
C355 C356 1.397 . S
C356 H337 0.950 . S
C356 C355 1.397 . S
C356 C357 1.391 . S
C357 C356 1.391 . S
C357 C358 1.405 . S
C358 H338 0.950 . S
C358 C357 1.405 . S
C358 C359 1.367 . S
C359 H339 0.950 . S
C359 C354 1.386 . S
C359 C358 1.367 . S
C360 C354 1.483 . S
C360 C361 1.382 . S
C360 C362 1.403 . S
C361 H340 0.950 . S
C361 C360 1.382 . S
C361 C377 1.411 1_655 S
C362 C360 1.403 . S
C362 C363 1.489 . S
C362 C376 1.411 1_655 S
C363 C362 1.489 . S
C363 C364 1.383 . S
C363 C368 1.382 . S
C364 H341 0.950 . S
C364 C363 1.383 . S
C364 C365 1.395 . S
C365 H342 0.950 . S
C365 C364 1.395 . S
C365 C366 1.288 . S
C366 C365 1.288 . S
C366 C367 1.392 . S
C367 H343 0.951 . S
C367 C366 1.392 . S
C367 C368 1.392 . S
C368 H344 0.949 . S
C368 C363 1.382 . S
C368 C367 1.392 . S
C369 C370 1.376 . S
C369 C374 1.386 . S
C369 C375 1.483 . S
C370 H345 0.949 . S
C370 C369 1.376 . S
C370 C371 1.397 . S
C371 H346 0.950 . S
C371 C370 1.397 . S
C371 C372 1.391 . S
C372 C371 1.391 . S
C372 C373 1.405 . S
C373 H347 0.950 . S
C373 C372 1.405 . S
C373 C374 1.367 . S
C374 H348 0.950 . S
C374 C369 1.386 . S
C374 C373 1.367 . S
C375 C369 1.483 . S
C375 C376 1.382 . S
C375 C377 1.403 . S
C376 H349 0.950 . S
C376 C362 1.411 1_455 S
C376 C375 1.382 . S
C377 C361 1.411 1_455 S
C377 C375 1.403 . S
C377 C378 1.489 . S
C378 C377 1.489 . S
C378 C379 1.383 . S
C378 C383 1.382 . S
C379 H350 0.950 . S
C379 C378 1.383 . S
C379 C380 1.395 . S
C380 H351 0.950 . S
C380 C379 1.395 . S
C380 C381 1.288 . S
C381 C380 1.288 . S
C381 C382 1.392 . S
C382 H352 0.951 . S
C382 C381 1.392 . S
C382 C383 1.392 . S
C383 H353 0.949 . S
C383 C378 1.382 . S
C383 C382 1.392 . S
Fe384 O385 1.886 . S
Fe384 O388 1.715 1_455 S
Fe384 O393 2.077 . S
Fe384 O398 1.935 1_455 S
Fe384 O404 2.077 . S
Fe384 O413 1.935 1_455 S
O385 Fe384 1.886 . S
O385 Fe387 1.715 . S
Fe386 O388 1.886 . S
Fe386 O389 1.715 . S
Fe386 O396 1.935 . S
Fe386 O397 2.077 . S
Fe386 O403 1.935 . S
Fe386 O412 2.077 . S
Fe387 O385 1.715 . S
Fe387 O390 1.886 . S
Fe387 O394 1.935 . S
Fe387 O399 2.077 . S
Fe387 O405 1.935 . S
Fe387 O409 2.077 . S
O388 Fe384 1.715 1_655 S
O388 Fe386 1.886 . S
O389 Fe386 1.715 . S
O389 Fe391 1.902 . S
O390 Fe387 1.886 . S
O390 Fe391 1.699 1_455 S
Fe391 O389 1.902 . S
Fe391 O390 1.699 1_655 S
Fe391 O395 2.092 . S
Fe391 O400 1.923 1_655 S
Fe391 O402 2.092 . S
Fe391 O410 1.923 1_655 S
C392 O404 1.381 . S
C392 O405 1.421 . S
O393 Fe384 2.077 . S
O393 C406 1.381 . S
O394 Fe387 1.935 . S
O394 C406 1.421 . S
O395 Fe391 2.092 . S
O395 C411 1.381 . S
O396 Fe386 1.935 . S
O396 C411 1.421 . S
O397 Fe386 2.077 . S
O397 C401 1.381 . S
O398 Fe384 1.935 1_655 S
O398 C401 1.421 . S
O399 Fe387 2.077 . S
O399 C407 1.381 . S
O400 Fe391 1.923 1_455 S
O400 C407 1.421 . S
C401 O397 1.381 . S
C401 O398 1.421 . S
O402 Fe391 2.092 . S
O402 C414 1.381 . S
O403 Fe386 1.935 . S
O403 C414 1.421 . S
O404 Fe384 2.077 . S
O404 C392 1.381 . S
O405 Fe387 1.935 . S
O405 C392 1.421 . S
C406 O393 1.381 . S
C406 O394 1.421 . S
C407 O399 1.381 . S
C407 O400 1.421 . S
C408 O409 1.381 . S
C408 O410 1.421 . S
O409 Fe387 2.077 . S
O409 C408 1.381 . S
O410 Fe391 1.923 1_455 S
O410 C408 1.421 . S
C411 O395 1.381 . S
C411 O396 1.421 . S
O412 Fe386 2.077 . S
O412 C415 1.381 . S
O413 Fe384 1.935 1_655 S
O413 C415 1.421 . S
C414 O402 1.381 . S
C414 O403 1.421 . S
C415 O412 1.381 . S
C415 O413 1.421 . S
Fe416 O417 1.886 . S
Fe416 O420 1.715 . S
Fe416 O425 2.077 . S
Fe416 O430 1.935 . S
Fe416 O436 2.077 . S
Fe416 O445 1.935 . S
O417 Fe416 1.886 . S
O417 Fe419 1.715 . S
Fe418 O420 1.886 . S
Fe418 O421 1.715 . S
Fe418 O428 1.935 . S
Fe418 O429 2.077 . S
Fe418 O435 1.935 . S
Fe418 O444 2.077 . S
Fe419 O417 1.715 . S
Fe419 O422 1.886 . S
Fe419 O426 1.935 . S
Fe419 O431 2.077 . S
Fe419 O437 1.935 . S
Fe419 O441 2.077 . S
O420 Fe416 1.715 . S
O420 Fe418 1.886 . S
O421 Fe418 1.715 . S
O421 Fe423 1.886 . S
O422 Fe419 1.886 . S
O422 Fe423 1.715 . S
Fe423 O421 1.886 . S
Fe423 O422 1.715 . S
Fe423 O427 2.077 . S
Fe423 O432 1.935 . S
Fe423 O434 2.077 . S
Fe423 O442 1.935 . S
C424 O436 1.381 . S
C424 O437 1.421 . S
O425 Fe416 2.077 . S
O425 C438 1.381 . S
O426 Fe419 1.935 . S
O426 C438 1.421 . S
O427 Fe423 2.077 . S
O427 C443 1.381 . S
O428 Fe418 1.935 . S
O428 C443 1.421 . S
O429 Fe418 2.077 . S
O429 C433 1.381 . S
O430 Fe416 1.935 . S
O430 C433 1.421 . S
O431 Fe419 2.077 . S
O431 C439 1.381 . S
O432 Fe423 1.935 . S
O432 C439 1.421 . S
C433 O429 1.381 . S
C433 O430 1.421 . S
O434 Fe423 2.077 . S
O434 C446 1.381 . S
O435 Fe418 1.935 . S
O435 C446 1.421 . S
O436 Fe416 2.077 . S
O436 C424 1.381 . S
O437 Fe419 1.935 . S
O437 C424 1.421 . S
C438 O425 1.381 . S
C438 O426 1.421 . S
C439 O431 1.381 . S
C439 O432 1.421 . S
C440 O441 1.381 . S
C440 O442 1.421 . S
O441 Fe419 2.077 . S
O441 C440 1.381 . S
O442 Fe423 1.935 . S
O442 C440 1.421 . S
C443 O427 1.381 . S
C443 O428 1.421 . S
O444 Fe418 2.077 . S
O444 C447 1.381 . S
O445 Fe416 1.935 . S
O445 C447 1.421 . S
C446 O434 1.381 . S
C446 O435 1.421 . S
C447 O444 1.381 . S
C447 O445 1.421 . S
Fe448 O449 1.886 . S
Fe448 O452 1.715 . S
Fe448 O457 2.077 . S
Fe448 O462 1.935 . S
Fe448 O468 2.077 . S
Fe448 O477 1.935 . S
O449 Fe448 1.886 . S
O449 Fe451 1.715 . S
Fe450 O452 1.886 . S
Fe450 O453 1.715 . S
Fe450 O460 1.935 . S
Fe450 O461 2.077 . S
Fe450 O467 1.935 . S
Fe450 O476 2.077 . S
Fe451 O449 1.715 . S
Fe451 O454 1.886 . S
Fe451 O458 1.935 . S
Fe451 O463 2.077 . S
Fe451 O469 1.935 . S
Fe451 O473 2.077 . S
O452 Fe448 1.715 . S
O452 Fe450 1.886 . S
O453 Fe450 1.715 . S
O453 Fe455 1.886 . S
O454 Fe451 1.886 . S
O454 Fe455 1.715 . S
Fe455 O453 1.886 . S
Fe455 O454 1.715 . S
Fe455 O459 2.077 . S
Fe455 O464 1.935 . S
Fe455 O466 2.077 . S
Fe455 O474 1.935 . S
C456 O468 1.381 . S
C456 O469 1.421 . S
O457 Fe448 2.077 . S
O457 C470 1.381 . S
O458 Fe451 1.935 . S
O458 C470 1.421 . S
O459 Fe455 2.077 . S
O459 C475 1.381 . S
O460 Fe450 1.935 . S
O460 C475 1.421 . S
O461 Fe450 2.077 . S
O461 C465 1.381 . S
O462 Fe448 1.935 . S
O462 C465 1.421 . S
O463 Fe451 2.077 . S
O463 C471 1.381 . S
O464 Fe455 1.935 . S
O464 C471 1.421 . S
C465 O461 1.381 . S
C465 O462 1.421 . S
O466 Fe455 2.077 . S
O466 C478 1.381 . S
O467 Fe450 1.935 . S
O467 C478 1.421 . S
O468 Fe448 2.077 . S
O468 C456 1.381 . S
O469 Fe451 1.935 . S
O469 C456 1.421 . S
C470 O457 1.381 . S
C470 O458 1.421 . S
C471 O463 1.381 . S
C471 O464 1.421 . S
C472 O473 1.381 . S
C472 O474 1.421 . S
O473 Fe451 2.077 . S
O473 C472 1.381 . S
O474 Fe455 1.935 . S
O474 C472 1.421 . S
C475 O459 1.381 . S
C475 O460 1.421 . S
O476 Fe450 2.077 . S
O476 C479 1.381 . S
O477 Fe448 1.935 . S
O477 C479 1.421 . S
C478 O466 1.381 . S
C478 O467 1.421 . S
C479 O476 1.381 . S
C479 O477 1.421 . S
Fe480 O481 1.886 . S
Fe480 O484 1.715 . S
Fe480 O489 2.076 1_455 S
Fe480 O494 1.934 1_455 S
Fe480 O500 2.078 . S
Fe480 O509 1.936 . S
O481 Fe480 1.886 . S
O481 Fe483 1.715 . S
Fe482 O484 1.886 . S
Fe482 O485 1.715 . S
Fe482 O492 1.935 1_455 S
Fe482 O493 2.077 1_455 S
Fe482 O499 1.936 . S
Fe482 O508 2.078 . S
Fe483 O481 1.715 . S
Fe483 O486 1.886 . S
Fe483 O490 1.935 1_455 S
Fe483 O495 2.077 1_455 S
Fe483 O501 1.936 . S
Fe483 O505 2.078 . S
O484 Fe480 1.715 . S
O484 Fe482 1.886 . S
O485 Fe482 1.715 . S
O485 Fe487 1.886 . S
O486 Fe483 1.886 . S
O486 Fe487 1.715 . S
Fe487 O485 1.886 . S
Fe487 O486 1.715 . S
Fe487 O491 2.077 1_455 S
Fe487 O496 1.935 1_455 S
Fe487 O498 2.077 . S
Fe487 O506 1.935 . S
C488 O500 1.381 . S
C488 O501 1.421 . S
O489 Fe480 2.076 1_655 S
O489 C502 1.381 . S
O490 Fe483 1.935 1_655 S
O490 C502 1.421 . S
O491 Fe487 2.077 1_655 S
O491 C507 1.381 . S
O492 Fe482 1.935 1_655 S
O492 C507 1.421 . S
O493 Fe482 2.077 1_655 S
O493 C497 1.381 . S
O494 Fe480 1.934 1_655 S
O494 C497 1.421 . S
O495 Fe483 2.077 1_655 S
O495 C503 1.381 . S
O496 Fe487 1.935 1_655 S
O496 C503 1.421 . S
C497 O493 1.381 . S
C497 O494 1.421 . S
O498 Fe487 2.077 . S
O498 C510 1.381 . S
O499 Fe482 1.936 . S
O499 C510 1.421 . S
O500 Fe480 2.078 . S
O500 C488 1.381 . S
O501 Fe483 1.936 . S
O501 C488 1.421 . S
C502 O489 1.381 . S
C502 O490 1.421 . S
C503 O495 1.381 . S
C503 O496 1.421 . S
C504 O505 1.381 . S
C504 O506 1.421 . S
O505 Fe483 2.078 . S
O505 C504 1.381 . S
O506 Fe487 1.935 . S
O506 C504 1.421 . S
C507 O491 1.381 . S
C507 O492 1.421 . S
O508 Fe482 2.078 . S
O508 C511 1.381 . S
O509 Fe480 1.936 . S
O509 C511 1.421 . S
C510 O498 1.381 . S
C510 O499 1.421 . S
C511 O508 1.381 . S
C511 O509 1.421 . S
H512 C520 0.950 . S
H513 C525 0.950 . S
H514 C522 0.950 . S
H515 C524 0.950 . S
H516 C526 0.950 . S
H517 C528 0.950 . S
H518 C530 0.950 . S
H519 C531 0.950 . S
C520 H512 0.950 . S
C520 C521 1.386 . S
C520 C522 1.391 . S
C521 C520 1.386 . S
C521 C525 1.393 . S
C522 H514 0.950 . S
C522 C520 1.391 . S
C522 C523 1.400 . S
C523 C522 1.400 . S
C523 C524 1.398 . S
C523 C529 1.491 . S
C524 H515 0.950 . S
C524 C523 1.398 . S
C524 C525 1.391 . S
C525 H513 0.950 . S
C525 C521 1.393 . S
C525 C524 1.391 . S
C526 H516 0.950 . S
C526 C527 1.386 . S
C526 C528 1.391 . S
C527 C526 1.386 . S
C527 C531 1.393 . S
C528 H517 0.950 . S
C528 C526 1.391 . S
C528 C529 1.400 . S
C529 C523 1.491 . S
C529 C528 1.400 . S
C529 C530 1.398 . S
C530 H518 0.950 . S
C530 C529 1.398 . S
C530 C531 1.391 . S
C531 H519 0.950 . S
C531 C527 1.393 . S
C531 C530 1.391 . S
H532 C540 0.950 . S
H533 C545 0.950 . S
H534 C542 0.950 . S
H535 C544 0.950 . S
H536 C546 0.950 . S
H537 C548 0.950 . S
H538 C550 0.950 . S
H539 C551 0.950 . S
C540 H532 0.950 . S
C540 C541 1.386 . S
C540 C542 1.391 1_565 S
C541 C540 1.386 . S
C541 C545 1.393 . S
C542 H534 0.950 . S
C542 C540 1.391 1_545 S
C542 C543 1.400 . S
C543 C542 1.400 . S
C543 C544 1.398 1_545 S
C543 C549 1.491 . S
C544 H535 0.950 . S
C544 C543 1.398 1_565 S
C544 C545 1.391 . S
C545 H533 0.950 . S
C545 C541 1.393 . S
C545 C544 1.391 . S
C546 H536 0.950 . S
C546 C547 1.386 . S
C546 C548 1.391 . S
C547 C546 1.386 . S
C547 C551 1.393 . S
C548 H537 0.950 . S
C548 C546 1.391 . S
C548 C549 1.400 . S
C549 C543 1.491 . S
C549 C548 1.400 . S
C549 C550 1.398 . S
C550 H538 0.950 . S
C550 C549 1.398 . S
C550 C551 1.391 . S
C551 H539 0.950 . S
C551 C547 1.393 . S
C551 C550 1.391 . S
H552 C560 0.950 . S
H553 C565 0.950 . S
H554 C562 0.950 . S
H555 C564 0.950 . S
H556 C566 0.950 . S
H557 C568 0.950 . S
H558 C570 0.950 . S
H559 C571 0.950 . S
C560 H552 0.950 . S
C560 C561 1.386 . S
C560 C562 1.391 . S
C561 C560 1.386 . S
C561 C565 1.393 . S
C562 H554 0.950 . S
C562 C560 1.391 . S
C562 C563 1.400 . S
C563 C562 1.400 . S
C563 C564 1.398 . S
C563 C569 1.491 . S
C564 H555 0.950 . S
C564 C563 1.398 . S
C564 C565 1.391 . S
C565 H553 0.950 . S
C565 C561 1.393 . S
C565 C564 1.391 . S
C566 H556 0.950 . S
C566 C567 1.386 . S
C566 C568 1.391 . S
C567 C566 1.386 . S
C567 C571 1.393 . S
C568 H557 0.950 . S
C568 C566 1.391 . S
C568 C569 1.400 . S
C569 C563 1.491 . S
C569 C568 1.400 . S
C569 C570 1.398 . S
C570 H558 0.950 . S
C570 C569 1.398 . S
C570 C571 1.391 . S
C571 H559 0.950 . S
C571 C567 1.393 . S
C571 C570 1.391 . S
H572 C580 0.950 . S
H573 C585 0.950 . S
H574 C582 0.950 . S
H575 C584 0.950 . S
H576 C586 0.950 . S
H577 C588 0.950 . S
H578 C590 0.950 . S
H579 C591 0.950 . S
C580 H572 0.950 . S
C580 C581 1.386 . S
C580 C582 1.391 1_545 S
C581 C580 1.386 . S
C581 C585 1.393 . S
C582 H574 0.950 . S
C582 C580 1.391 1_565 S
C582 C583 1.400 . S
C583 C582 1.400 . S
C583 C584 1.398 1_565 S
C583 C589 1.491 . S
C584 H575 0.950 . S
C584 C583 1.398 1_545 S
C584 C585 1.391 . S
C585 H573 0.950 . S
C585 C581 1.393 . S
C585 C584 1.391 . S
C586 H576 0.950 . S
C586 C587 1.386 . S
C586 C588 1.391 . S
C587 C586 1.386 . S
C587 C591 1.393 . S
C588 H577 0.950 . S
C588 C586 1.391 . S
C588 C589 1.400 . S
C589 C583 1.491 . S
C589 C588 1.400 . S
C589 C590 1.398 . S
C590 H578 0.950 . S
C590 C589 1.398 . S
C590 C591 1.391 . S
C591 H579 0.950 . S
C591 C587 1.393 . S
C591 C590 1.391 . S
H592 C600 0.950 . S
H593 C605 0.950 . S
H594 C602 0.950 . S
H595 C604 0.950 . S
H596 C606 0.950 . S
H597 C608 0.950 . S
H598 C610 0.950 . S
H599 C611 0.950 . S
C600 H592 0.950 . S
C600 C601 1.386 . S
C600 C602 1.391 . S
C601 C600 1.386 . S
C601 C605 1.393 . S
C602 H594 0.950 . S
C602 C600 1.391 . S
C602 C603 1.400 . S
C603 C602 1.400 . S
C603 C604 1.398 . S
C603 C609 1.491 . S
C604 H595 0.950 . S
C604 C603 1.398 . S
C604 C605 1.391 . S
C605 H593 0.950 . S
C605 C601 1.393 . S
C605 C604 1.391 . S
C606 H596 0.950 . S
C606 C607 1.386 . S
C606 C608 1.391 . S
C607 C606 1.386 . S
C607 C611 1.393 . S
C608 H597 0.950 . S
C608 C606 1.391 . S
C608 C609 1.400 . S
C609 C603 1.491 . S
C609 C608 1.400 . S
C609 C610 1.398 . S
C610 H598 0.950 . S
C610 C609 1.398 . S
C610 C611 1.391 . S
C611 H599 0.950 . S
C611 C607 1.393 . S
C611 C610 1.391 . S
H612 C620 0.950 . S
H613 C625 0.950 . S
H614 C622 0.950 . S
H615 C624 0.950 . S
H616 C626 0.950 . S
H617 C628 0.950 . S
H618 C630 0.950 . S
H619 C631 0.950 . S
C620 H612 0.950 . S
C620 C621 1.386 . S
C620 C622 1.391 1_565 S
C621 C620 1.386 . S
C621 C625 1.393 . S
C622 H614 0.950 . S
C622 C620 1.391 1_545 S
C622 C623 1.400 . S
C623 C622 1.400 . S
C623 C624 1.398 1_545 S
C623 C629 1.491 . S
C624 H615 0.950 . S
C624 C623 1.398 1_565 S
C624 C625 1.391 . S
C625 H613 0.950 . S
C625 C621 1.393 . S
C625 C624 1.391 . S
C626 H616 0.950 . S
C626 C627 1.386 . S
C626 C628 1.391 . S
C627 C626 1.386 . S
C627 C631 1.393 . S
C628 H617 0.950 . S
C628 C626 1.391 . S
C628 C629 1.400 . S
C629 C623 1.491 . S
C629 C628 1.400 . S
C629 C630 1.398 . S
C630 H618 0.950 . S
C630 C629 1.398 . S
C630 C631 1.391 . S
C631 H619 0.950 . S
C631 C627 1.393 . S
C631 C630 1.391 . S
H632 C640 0.950 . S
H633 C645 0.950 . S
H634 C642 0.950 . S
H635 C644 0.950 . S
H636 C646 0.950 . S
H637 C648 0.950 . S
H638 C650 0.950 . S
H639 C651 0.950 . S
C640 H632 0.950 . S
C640 C641 1.386 . S
C640 C642 1.391 . S
C641 C640 1.386 . S
C641 C645 1.393 . S
C642 H634 0.950 . S
C642 C640 1.391 . S
C642 C643 1.400 . S
C643 C642 1.400 . S
C643 C644 1.398 . S
C643 C649 1.491 . S
C644 H635 0.950 . S
C644 C643 1.398 . S
C644 C645 1.391 . S
C645 H633 0.950 . S
C645 C641 1.393 . S
C645 C644 1.391 . S
C646 H636 0.950 . S
C646 C647 1.386 . S
C646 C648 1.391 . S
C647 C646 1.386 . S
C647 C651 1.393 . S
C648 H637 0.950 . S
C648 C646 1.391 . S
C648 C649 1.400 . S
C649 C643 1.491 . S
C649 C648 1.400 . S
C649 C650 1.398 . S
C650 H638 0.950 . S
C650 C649 1.398 . S
C650 C651 1.391 . S
C651 H639 0.950 . S
C651 C647 1.393 . S
C651 C650 1.391 . S
H652 C660 0.950 . S
H653 C665 0.950 . S
H654 C662 0.950 1_565 S
H655 C664 0.950 . S
H656 C666 0.950 . S
H657 C668 0.950 . S
H658 C670 0.950 . S
H659 C671 0.950 . S
C660 H652 0.950 . S
C660 C661 1.386 . S
C660 C662 1.391 . S
C661 C660 1.386 . S
C661 C665 1.393 . S
C662 H654 0.950 1_545 S
C662 C660 1.391 . S
C662 C663 1.400 1_545 S
C663 C662 1.400 1_565 S
C663 C664 1.398 . S
C663 C669 1.491 . S
C664 H655 0.950 . S
C664 C663 1.398 . S
C664 C665 1.391 1_565 S
C665 H653 0.950 . S
C665 C661 1.393 . S
C665 C664 1.391 1_545 S
C666 H656 0.950 . S
C666 C667 1.386 . S
C666 C668 1.391 . S
C667 C666 1.386 . S
C667 C671 1.393 . S
C668 H657 0.950 . S
C668 C666 1.391 . S
C668 C669 1.400 . S
C669 C663 1.491 . S
C669 C668 1.400 . S
C669 C670 1.398 . S
C670 H658 0.950 . S
C670 C669 1.398 . S
C670 C671 1.391 . S
C671 H659 0.950 . S
C671 C667 1.393 . S
C671 C670 1.391 . S
H672 C680 0.950 . S
H673 C685 0.950 . S
H674 C682 0.950 . S
H675 C684 0.950 . S
H676 C686 0.950 . S
H677 C688 0.950 . S
H678 C690 0.950 . S
H679 C691 0.950 . S
C680 H672 0.950 . S
C680 C681 1.386 . S
C680 C682 1.391 . S
C681 C680 1.386 . S
C681 C685 1.393 . S
C682 H674 0.950 . S
C682 C680 1.391 . S
C682 C683 1.400 . S
C683 C682 1.400 . S
C683 C684 1.398 . S
C683 C689 1.491 . S
C684 H675 0.950 . S
C684 C683 1.398 . S
C684 C685 1.391 . S
C685 H673 0.950 . S
C685 C681 1.393 . S
C685 C684 1.391 . S
C686 H676 0.950 . S
C686 C687 1.386 . S
C686 C688 1.391 . S
C687 C686 1.386 . S
C687 C691 1.393 . S
C688 H677 0.950 . S
C688 C686 1.391 . S
C688 C689 1.400 . S
C689 C683 1.491 . S
C689 C688 1.400 . S
C689 C690 1.398 . S
C690 H678 0.950 . S
C690 C689 1.398 . S
C690 C691 1.391 . S
C691 H679 0.950 . S
C691 C687 1.393 . S
C691 C690 1.391 . S
H692 C700 0.950 . S
H693 C705 0.950 . S
H694 C702 0.950 . S
H695 C704 0.950 . S
H696 C706 0.950 . S
H697 C708 0.950 . S
H698 C710 0.950 . S
H699 C711 0.950 . S
C700 H692 0.950 . S
C700 C701 1.386 . S
C700 C702 1.391 1_545 S
C701 C700 1.386 . S
C701 C705 1.393 . S
C702 H694 0.950 . S
C702 C700 1.391 1_565 S
C702 C703 1.400 . S
C703 C702 1.400 . S
C703 C704 1.398 1_565 S
C703 C709 1.491 . S
C704 H695 0.950 . S
C704 C703 1.398 1_545 S
C704 C705 1.391 . S
C705 H693 0.950 . S
C705 C701 1.393 . S
C705 C704 1.391 . S
C706 H696 0.950 . S
C706 C707 1.386 . S
C706 C708 1.391 . S
C707 C706 1.386 . S
C707 C711 1.393 . S
C708 H697 0.950 . S
C708 C706 1.391 . S
C708 C709 1.400 . S
C709 C703 1.491 . S
C709 C708 1.400 . S
C709 C710 1.398 . S
C710 H698 0.950 . S
C710 C709 1.398 . S
C710 C711 1.391 . S
C711 H699 0.950 . S
C711 C707 1.393 . S
C711 C710 1.391 . S
H712 C720 0.950 . S
H713 C725 0.950 . S
H714 C722 0.950 . S
H715 C724 0.950 . S
H716 C726 0.950 . S
H717 C728 0.950 . S
H718 C730 0.950 . S
H719 C731 0.950 . S
C720 H712 0.950 . S
C720 C721 1.386 . S
C720 C722 1.391 . S
C721 C720 1.386 . S
C721 C725 1.393 . S
C722 H714 0.950 . S
C722 C720 1.391 . S
C722 C723 1.400 . S
C723 C722 1.400 . S
C723 C724 1.398 . S
C723 C729 1.491 . S
C724 H715 0.950 . S
C724 C723 1.398 . S
C724 C725 1.391 . S
C725 H713 0.950 . S
C725 C721 1.393 . S
C725 C724 1.391 . S
C726 H716 0.950 . S
C726 C727 1.386 . S
C726 C728 1.391 . S
C727 C726 1.386 . S
C727 C731 1.393 . S
C728 H717 0.950 . S
C728 C726 1.391 . S
C728 C729 1.400 . S
C729 C723 1.491 . S
C729 C728 1.400 . S
C729 C730 1.398 . S
C730 H718 0.950 . S
C730 C729 1.398 . S
C730 C731 1.391 . S
C731 H719 0.950 . S
C731 C727 1.393 . S
C731 C730 1.391 . S
H732 C740 0.950 . S
H733 C745 0.950 . S
H734 C742 0.950 . S
H735 C744 0.950 . S
H736 C746 0.950 . S
H737 C748 0.950 . S
H738 C750 0.950 . S
H739 C751 0.950 . S
C740 H732 0.950 . S
C740 C741 1.386 . S
C740 C742 1.391 1_565 S
C741 C740 1.386 . S
C741 C745 1.393 . S
C742 H734 0.950 . S
C742 C740 1.391 1_545 S
C742 C743 1.400 . S
C743 C742 1.400 . S
C743 C744 1.398 . S
C743 C749 1.491 . S
C744 H735 0.950 . S
C744 C743 1.398 . S
C744 C745 1.391 1_545 S
C745 H733 0.950 . S
C745 C741 1.393 . S
C745 C744 1.391 1_565 S
C746 H736 0.950 . S
C746 C747 1.386 . S
C746 C748 1.391 . S
C747 C746 1.386 . S
C747 C751 1.393 . S
C748 H737 0.950 . S
C748 C746 1.391 . S
C748 C749 1.400 . S
C749 C743 1.491 . S
C749 C748 1.400 . S
C749 C750 1.398 . S
C750 H738 0.950 . S
C750 C749 1.398 . S
C750 C751 1.391 . S
C751 H739 0.950 . S
C751 C747 1.393 . S
C751 C750 1.391 . S
H752 C760 0.950 . S
H753 C765 0.950 . S
H754 C762 0.950 . S
H755 C764 0.950 . S
H756 C766 0.950 . S
H757 C768 0.950 . S
H758 C770 0.950 . S
H759 C771 0.950 . S
C760 H752 0.950 . S
C760 C761 1.386 . S
C760 C762 1.391 . S
C761 C760 1.386 . S
C761 C765 1.393 . S
C762 H754 0.950 . S
C762 C760 1.391 . S
C762 C763 1.400 . S
C763 C762 1.400 . S
C763 C764 1.398 . S
C763 C769 1.491 . S
C764 H755 0.950 . S
C764 C763 1.398 . S
C764 C765 1.391 . S
C765 H753 0.950 . S
C765 C761 1.393 . S
C765 C764 1.391 . S
C766 H756 0.950 . S
C766 C767 1.386 . S
C766 C768 1.391 . S
C767 C766 1.386 . S
C767 C771 1.393 . S
C768 H757 0.950 . S
C768 C766 1.391 . S
C768 C769 1.400 . S
C769 C763 1.491 . S
C769 C768 1.400 . S
C769 C770 1.398 . S
C770 H758 0.950 . S
C770 C769 1.398 . S
C770 C771 1.391 . S
C771 H759 0.950 . S
C771 C767 1.393 . S
C771 C770 1.391 . S
H772 C780 0.950 . S
H773 C785 0.950 . S
H774 C782 0.950 . S
H775 C784 0.950 1_565 S
H776 C786 0.950 . S
H777 C788 0.950 . S
H778 C790 0.950 . S
H779 C791 0.950 . S
C780 H772 0.950 . S
C780 C781 1.386 . S
C780 C782 1.391 1_545 S
C781 C780 1.386 . S
C781 C785 1.393 . S
C782 H774 0.950 . S
C782 C780 1.391 1_565 S
C782 C783 1.400 . S
C783 C782 1.400 . S
C783 C784 1.398 1_565 S
C783 C789 1.491 . S
C784 H775 0.950 1_545 S
C784 C783 1.398 1_545 S
C784 C785 1.391 . S
C785 H773 0.950 . S
C785 C781 1.393 . S
C785 C784 1.391 . S
C786 H776 0.950 . S
C786 C787 1.386 . S
C786 C788 1.391 . S
C787 C786 1.386 . S
C787 C791 1.393 . S
C788 H777 0.950 . S
C788 C786 1.391 . S
C788 C789 1.400 . S
C789 C783 1.491 . S
C789 C788 1.400 . S
C789 C790 1.398 . S
C790 H778 0.950 . S
C790 C789 1.398 . S
C790 C791 1.391 . S
C791 H779 0.950 . S
C791 C787 1.393 . S
C791 C790 1.391 . S
H792 C800 0.950 . S
H793 C805 0.950 . S
H794 C802 0.950 . S
H795 C804 0.950 . S
H796 C806 0.950 . S
H797 C808 0.950 . S
H798 C810 0.950 . S
H799 C811 0.950 . S
C800 H792 0.950 . S
C800 C801 1.386 . S
C800 C802 1.391 . S
C801 C800 1.386 . S
C801 C805 1.393 . S
C802 H794 0.950 . S
C802 C800 1.391 . S
C802 C803 1.400 . S
C803 C802 1.400 . S
C803 C804 1.398 . S
C803 C809 1.491 . S
C804 H795 0.950 . S
C804 C803 1.398 . S
C804 C805 1.391 . S
C805 H793 0.950 . S
C805 C801 1.393 . S
C805 C804 1.391 . S
C806 H796 0.950 . S
C806 C807 1.386 . S
C806 C808 1.391 . S
C807 C806 1.386 . S
C807 C811 1.393 . S
C808 H797 0.950 . S
C808 C806 1.391 . S
C808 C809 1.400 . S
C809 C803 1.491 . S
C809 C808 1.400 . S
C809 C810 1.398 . S
C810 H798 0.950 . S
C810 C809 1.398 . S
C810 C811 1.391 . S
C811 H799 0.950 . S
C811 C807 1.393 . S
C811 C810 1.391 . S
H812 C820 0.950 . S
H813 C825 0.950 . S
H814 C822 0.950 . S
H815 C824 0.950 . S
H816 C826 0.950 . S
H817 C828 0.950 . S
H818 C830 0.950 . S
H819 C831 0.950 . S
C820 H812 0.950 . S
C820 C821 1.386 . S
C820 C822 1.391 . S
C821 C820 1.386 . S
C821 C825 1.393 1_565 S
C822 H814 0.950 . S
C822 C820 1.391 . S
C822 C823 1.400 1_565 S
C823 C822 1.400 1_545 S
C823 C824 1.398 . S
C823 C829 1.491 . S
C824 H815 0.950 . S
C824 C823 1.398 . S
C824 C825 1.391 . S
C825 H813 0.950 . S
C825 C821 1.393 1_545 S
C825 C824 1.391 . S
C826 H816 0.950 . S
C826 C827 1.386 . S
C826 C828 1.391 . S
C827 C826 1.386 . S
C827 C831 1.393 . S
C828 H817 0.950 . S
C828 C826 1.391 . S
C828 C829 1.400 . S
C829 C823 1.491 . S
C829 C828 1.400 . S
C829 C830 1.398 . S
C830 H818 0.950 . S
C830 C829 1.398 . S
C830 C831 1.391 . S
C831 H819 0.950 . S
C831 C827 1.393 . S
C831 C830 1.391 . S
H832 C840 0.950 . S
H833 C845 0.950 . S
H834 C842 0.950 . S
H835 C844 0.950 . S
H836 C846 0.950 . S
H837 C848 0.950 . S
H838 C850 0.950 . S
H839 C851 0.950 . S
C840 H832 0.950 . S
C840 C841 1.386 . S
C840 C842 1.391 . S
C841 C840 1.386 . S
C841 C845 1.393 . S
C842 H834 0.950 . S
C842 C840 1.391 . S
C842 C843 1.400 . S
C843 C842 1.400 . S
C843 C844 1.398 . S
C843 C849 1.491 . S
C844 H835 0.950 . S
C844 C843 1.398 . S
C844 C845 1.391 . S
C845 H833 0.950 . S
C845 C841 1.393 . S
C845 C844 1.391 . S
C846 H836 0.950 . S
C846 C847 1.386 . S
C846 C848 1.391 . S
C847 C846 1.386 . S
C847 C851 1.393 . S
C848 H837 0.950 . S
C848 C846 1.391 . S
C848 C849 1.400 . S
C849 C843 1.491 . S
C849 C848 1.400 . S
C849 C850 1.398 . S
C850 H838 0.950 . S
C850 C849 1.398 . S
C850 C851 1.391 . S
C851 H839 0.950 . S
C851 C847 1.393 . S
C851 C850 1.391 . S
H852 C860 0.950 . S
H853 C865 0.950 . S
H854 C862 0.950 . S
H855 C864 0.950 . S
H856 C866 0.950 . S
H857 C868 0.950 . S
H858 C870 0.950 . S
H859 C871 0.950 . S
C860 H852 0.950 . S
C860 C861 1.386 . S
C860 C862 1.391 . S
C861 C860 1.386 . S
C861 C865 1.393 . S
C862 H854 0.950 . S
C862 C860 1.391 . S
C862 C863 1.400 . S
C863 C862 1.400 . S
C863 C864 1.398 . S
C863 C869 1.491 . S
C864 H855 0.950 . S
C864 C863 1.398 . S
C864 C865 1.391 . S
C865 H853 0.950 . S
C865 C861 1.393 . S
C865 C864 1.391 . S
C866 H856 0.950 . S
C866 C867 1.386 . S
C866 C868 1.391 . S
C867 C866 1.386 . S
C867 C871 1.393 . S
C868 H857 0.950 . S
C868 C866 1.391 . S
C868 C869 1.400 . S
C869 C863 1.491 . S
C869 C868 1.400 . S
C869 C870 1.398 . S
C870 H858 0.950 . S
C870 C869 1.398 . S
C870 C871 1.391 . S
C871 H859 0.950 . S
C871 C867 1.393 . S
C871 C870 1.391 . S
H872 C880 0.950 . S
H873 C885 0.950 . S
H874 C882 0.950 . S
H875 C884 0.950 . S
H876 C886 0.950 . S
H877 C888 0.950 . S
H878 C890 0.950 . S
H879 C891 0.950 . S
C880 H872 0.950 . S
C880 C881 1.386 . S
C880 C882 1.391 . S
C881 C880 1.386 . S
C881 C885 1.393 . S
C882 H874 0.950 . S
C882 C880 1.391 . S
C882 C883 1.400 . S
C883 C882 1.400 . S
C883 C884 1.398 . S
C883 C889 1.491 . S
C884 H875 0.950 . S
C884 C883 1.398 . S
C884 C885 1.391 . S
C885 H873 0.950 . S
C885 C881 1.393 . S
C885 C884 1.391 . S
C886 H876 0.950 . S
C886 C887 1.386 . S
C886 C888 1.391 . S
C887 C886 1.386 . S
C887 C891 1.393 . S
C888 H877 0.950 . S
C888 C886 1.391 . S
C888 C889 1.400 . S
C889 C883 1.491 . S
C889 C888 1.400 . S
C889 C890 1.398 . S
C890 H878 0.950 . S
C890 C889 1.398 . S
C890 C891 1.391 . S
C891 H879 0.950 . S
C891 C887 1.393 . S
C891 C890 1.391 . S
H892 C900 0.950 . S
H893 C905 0.950 . S
H894 C902 0.950 . S
H895 C904 0.950 . S
H896 C906 0.950 . S
H897 C908 0.950 . S
H898 C910 0.950 . S
H899 C911 0.950 . S
C900 H892 0.950 . S
C900 C901 1.386 . S
C900 C902 1.391 . S
C901 C900 1.386 . S
C901 C905 1.393 . S
C902 H894 0.950 . S
C902 C900 1.391 . S
C902 C903 1.400 . S
C903 C902 1.400 . S
C903 C904 1.398 . S
C903 C909 1.491 . S
C904 H895 0.950 . S
C904 C903 1.398 . S
C904 C905 1.391 . S
C905 H893 0.950 . S
C905 C901 1.393 . S
C905 C904 1.391 . S
C906 H896 0.950 . S
C906 C907 1.386 . S
C906 C908 1.391 . S
C907 C906 1.386 . S
C907 C911 1.393 . S
C908 H897 0.950 . S
C908 C906 1.391 . S
C908 C909 1.400 . S
C909 C903 1.491 . S
C909 C908 1.400 . S
C909 C910 1.398 . S
C910 H898 0.950 . S
C910 C909 1.398 . S
C910 C911 1.391 . S
C911 H899 0.950 . S
C911 C907 1.393 . S
C911 C910 1.391 . S
H912 C920 0.950 . S
H913 C925 0.950 . S
H914 C922 0.950 . S
H915 C924 0.950 . S
H916 C926 0.950 . S
H917 C928 0.950 . S
H918 C930 0.950 . S
H919 C931 0.950 . S
C920 H912 0.950 . S
C920 C921 1.386 . S
C920 C922 1.391 . S
C921 C920 1.386 . S
C921 C925 1.393 . S
C922 H914 0.950 . S
C922 C920 1.391 . S
C922 C923 1.400 . S
C923 C922 1.400 . S
C923 C924 1.398 . S
C923 C929 1.491 . S
C924 H915 0.950 . S
C924 C923 1.398 . S
C924 C925 1.391 . S
C925 H913 0.950 . S
C925 C921 1.393 . S
C925 C924 1.391 . S
C926 H916 0.950 . S
C926 C927 1.386 . S
C926 C928 1.391 . S
C927 C926 1.386 . S
C927 C931 1.393 . S
C928 H917 0.950 . S
C928 C926 1.391 . S
C928 C929 1.400 . S
C929 C923 1.491 . S
C929 C928 1.400 . S
C929 C930 1.398 . S
C930 H918 0.950 . S
C930 C929 1.398 . S
C930 C931 1.391 . S
C931 H919 0.950 . S
C931 C927 1.393 . S
C931 C930 1.391 . S
H932 C940 0.950 . S
H933 C945 0.950 . S
H934 C942 0.950 . S
H935 C944 0.950 . S
H936 C946 0.950 . S
H937 C948 0.950 . S
H938 C950 0.950 . S
H939 C951 0.950 . S
C940 H932 0.950 . S
C940 C941 1.386 . S
C940 C942 1.391 . S
C941 C940 1.386 . S
C941 C945 1.393 . S
C942 H934 0.950 . S
C942 C940 1.391 . S
C942 C943 1.400 . S
C943 C942 1.400 . S
C943 C944 1.398 . S
C943 C949 1.491 . S
C944 H935 0.950 . S
C944 C943 1.398 . S
C944 C945 1.391 . S
C945 H933 0.950 . S
C945 C941 1.393 . S
C945 C944 1.391 . S
C946 H936 0.950 . S
C946 C947 1.386 . S
C946 C948 1.391 . S
C947 C946 1.386 . S
C947 C951 1.393 . S
C948 H937 0.950 . S
C948 C946 1.391 . S
C948 C949 1.400 . S
C949 C943 1.491 . S
C949 C948 1.400 . S
C949 C950 1.398 . S
C950 H938 0.950 . S
C950 C949 1.398 . S
C950 C951 1.391 . S
C951 H939 0.950 . S
C951 C947 1.393 . S
C951 C950 1.391 . S
H952 C960 0.950 . S
H953 C965 0.950 . S
H954 C962 0.950 . S
H955 C964 0.950 . S
H956 C966 0.950 . S
H957 C968 0.950 . S
H958 C970 0.950 . S
H959 C971 0.950 . S
C960 H952 0.950 . S
C960 C961 1.386 . S
C960 C962 1.391 . S
C961 C960 1.386 . S
C961 C965 1.393 . S
C962 H954 0.950 . S
C962 C960 1.391 . S
C962 C963 1.400 . S
C963 C962 1.400 . S
C963 C964 1.398 . S
C963 C969 1.491 . S
C964 H955 0.950 . S
C964 C963 1.398 . S
C964 C965 1.391 . S
C965 H953 0.950 . S
C965 C961 1.393 . S
C965 C964 1.391 . S
C966 H956 0.950 . S
C966 C967 1.386 . S
C966 C968 1.391 . S
C967 C966 1.386 . S
C967 C971 1.393 . S
C968 H957 0.950 . S
C968 C966 1.391 . S
C968 C969 1.400 . S
C969 C963 1.491 . S
C969 C968 1.400 . S
C969 C970 1.398 . S
C970 H958 0.950 . S
C970 C969 1.398 . S
C970 C971 1.391 . S
C971 H959 0.950 . S
C971 C967 1.393 . S
C971 C970 1.391 . S
H972 C980 0.950 . S
H973 C985 0.950 . S
H974 C982 0.950 . S
H975 C984 0.950 . S
H976 C986 0.950 . S
H977 C988 0.950 . S
H978 C990 0.950 . S
H979 C991 0.950 . S
C980 H972 0.950 . S
C980 C981 1.386 . S
C980 C982 1.391 . S
C981 C980 1.386 . S
C981 C985 1.393 . S
C982 H974 0.950 . S
C982 C980 1.391 . S
C982 C983 1.400 . S
C983 C982 1.400 . S
C983 C984 1.398 . S
C983 C989 1.491 . S
C984 H975 0.950 . S
C984 C983 1.398 . S
C984 C985 1.391 . S
C985 H973 0.950 . S
C985 C981 1.393 . S
C985 C984 1.391 . S
C986 H976 0.950 . S
C986 C987 1.386 . S
C986 C988 1.391 . S
C987 C986 1.386 . S
C987 C991 1.393 . S
C988 H977 0.950 . S
C988 C986 1.391 . S
C988 C989 1.400 . S
C989 C983 1.491 . S
C989 C988 1.400 . S
C989 C990 1.398 . S
C990 H978 0.950 . S
C990 C989 1.398 . S
C990 C991 1.391 . S
C991 H979 0.950 . S
C991 C987 1.393 . S
C991 C990 1.391 . S
H992 C1000 0.950 . S
H993 C1005 0.950 . S
H994 C1002 0.950 . S
H995 C1004 0.950 . S
H996 C1006 0.950 . S
H997 C1008 0.950 . S
H998 C1010 0.950 . S
H999 C1011 0.950 . S
C1000 H992 0.950 . S
C1000 C1001 1.386 . S
C1000 C1002 1.391 . S
C1001 C1000 1.386 . S
C1001 C1005 1.393 . S
C1002 H994 0.950 . S
C1002 C1000 1.391 . S
C1002 C1003 1.400 . S
C1003 C1002 1.400 . S
C1003 C1004 1.398 . S
C1003 C1009 1.491 . S
C1004 H995 0.950 . S
C1004 C1003 1.398 . S
C1004 C1005 1.391 . S
C1005 H993 0.950 . S
C1005 C1001 1.393 . S
C1005 C1004 1.391 . S
C1006 H996 0.950 . S
C1006 C1007 1.386 . S
C1006 C1008 1.391 . S
C1007 C1006 1.386 . S
C1007 C1011 1.393 . S
C1008 H997 0.950 . S
C1008 C1006 1.391 . S
C1008 C1009 1.400 . S
C1009 C1003 1.491 . S
C1009 C1008 1.400 . S
C1009 C1010 1.398 . S
C1010 H998 0.950 . S
C1010 C1009 1.398 . S
C1010 C1011 1.391 . S
C1011 H999 0.950 . S
C1011 C1007 1.393 . S
C1011 C1010 1.391 . S
H1012 C1020 0.950 . S
H1013 C1025 0.950 . S
H1014 C1022 0.950 . S
H1015 C1024 0.950 . S
H1016 C1026 0.950 . S
H1017 C1028 0.950 . S
H1018 C1030 0.950 . S
H1019 C1031 0.950 . S
C1020 H1012 0.950 . S
C1020 C1021 1.386 . S
C1020 C1022 1.391 . S
C1021 C1020 1.386 . S
C1021 C1025 1.393 . S
C1022 H1014 0.950 . S
C1022 C1020 1.391 . S
C1022 C1023 1.400 . S
C1023 C1022 1.400 . S
C1023 C1024 1.398 . S
C1023 C1029 1.491 . S
C1024 H1015 0.950 . S
C1024 C1023 1.398 . S
C1024 C1025 1.391 . S
C1025 H1013 0.950 . S
C1025 C1021 1.393 . S
C1025 C1024 1.391 . S
C1026 H1016 0.950 . S
C1026 C1027 1.386 . S
C1026 C1028 1.391 . S
C1027 C1026 1.386 . S
C1027 C1031 1.393 . S
C1028 H1017 0.950 . S
C1028 C1026 1.391 . S
C1028 C1029 1.400 . S
C1029 C1023 1.491 . S
C1029 C1028 1.400 . S
C1029 C1030 1.398 . S
C1030 H1018 0.950 . S
C1030 C1029 1.398 . S
C1030 C1031 1.391 . S
C1031 H1019 0.950 . S
C1031 C1027 1.393 . S
C1031 C1030 1.391 . S
H1032 C1040 0.950 . S
H1033 C1045 0.950 . S
H1034 C1042 0.950 . S
H1035 C1044 0.950 . S
H1036 C1046 0.950 . S
H1037 C1048 0.950 . S
H1038 C1050 0.950 . S
H1039 C1051 0.950 . S
C1040 H1032 0.950 . S
C1040 C1041 1.386 . S
C1040 C1042 1.391 . S
C1041 C1040 1.386 . S
C1041 C1045 1.393 . S
C1042 H1034 0.950 . S
C1042 C1040 1.391 . S
C1042 C1043 1.400 . S
C1043 C1042 1.400 . S
C1043 C1044 1.398 . S
C1043 C1049 1.491 . S
C1044 H1035 0.950 . S
C1044 C1043 1.398 . S
C1044 C1045 1.391 . S
C1045 H1033 0.950 . S
C1045 C1041 1.393 . S
C1045 C1044 1.391 . S
C1046 H1036 0.950 . S
C1046 C1047 1.386 . S
C1046 C1048 1.391 . S
C1047 C1046 1.386 . S
C1047 C1051 1.393 . S
C1048 H1037 0.950 . S
C1048 C1046 1.391 . S
C1048 C1049 1.400 . S
C1049 C1043 1.491 . S
C1049 C1048 1.400 . S
C1049 C1050 1.398 . S
C1050 H1038 0.950 . S
C1050 C1049 1.398 . S
C1050 C1051 1.391 . S
C1051 H1039 0.950 . S
C1051 C1047 1.393 . S
C1051 C1050 1.391 . S
H1052 C1060 0.950 . S
H1053 C1065 0.950 . S
H1054 C1062 0.950 . S
H1055 C1064 0.950 . S
H1056 C1066 0.950 . S
H1057 C1068 0.950 . S
H1058 C1070 0.950 . S
H1059 C1071 0.950 . S
C1060 H1052 0.950 . S
C1060 C1061 1.386 . S
C1060 C1062 1.391 . S
C1061 C1060 1.386 . S
C1061 C1065 1.393 . S
C1062 H1054 0.950 . S
C1062 C1060 1.391 . S
C1062 C1063 1.400 . S
C1063 C1062 1.400 . S
C1063 C1064 1.398 . S
C1063 C1069 1.491 . S
C1064 H1055 0.950 . S
C1064 C1063 1.398 . S
C1064 C1065 1.391 . S
C1065 H1053 0.950 . S
C1065 C1061 1.393 . S
C1065 C1064 1.391 . S
C1066 H1056 0.950 . S
C1066 C1067 1.386 . S
C1066 C1068 1.391 . S
C1067 C1066 1.386 . S
C1067 C1071 1.393 . S
C1068 H1057 0.950 . S
C1068 C1066 1.391 . S
C1068 C1069 1.400 . S
C1069 C1063 1.491 . S
C1069 C1068 1.400 . S
C1069 C1070 1.398 . S
C1070 H1058 0.950 . S
C1070 C1069 1.398 . S
C1070 C1071 1.391 . S
C1071 H1059 0.950 . S
C1071 C1067 1.393 . S
C1071 C1070 1.391 . S
H1072 C1080 0.950 . S
H1073 C1085 0.950 . S
H1074 C1082 0.950 . S
H1075 C1084 0.950 . S
H1076 C1086 0.950 . S
H1077 C1088 0.950 . S
H1078 C1090 0.950 . S
H1079 C1091 0.950 . S
C1080 H1072 0.950 . S
C1080 C1081 1.386 . S
C1080 C1082 1.391 . S
C1081 C1080 1.386 . S
C1081 C1085 1.393 . S
C1082 H1074 0.950 . S
C1082 C1080 1.391 . S
C1082 C1083 1.400 . S
C1083 C1082 1.400 . S
C1083 C1084 1.398 . S
C1083 C1089 1.491 . S
C1084 H1075 0.950 . S
C1084 C1083 1.398 . S
C1084 C1085 1.391 . S
C1085 H1073 0.950 . S
C1085 C1081 1.393 . S
C1085 C1084 1.391 . S
C1086 H1076 0.950 . S
C1086 C1087 1.386 . S
C1086 C1088 1.391 . S
C1087 C1086 1.386 . S
C1087 C1091 1.393 . S
C1088 H1077 0.950 . S
C1088 C1086 1.391 . S
C1088 C1089 1.400 . S
C1089 C1083 1.491 . S
C1089 C1088 1.400 . S
C1089 C1090 1.398 . S
C1090 H1078 0.950 . S
C1090 C1089 1.398 . S
C1090 C1091 1.391 . S
C1091 H1079 0.950 . S
C1091 C1087 1.393 . S
C1091 C1090 1.391 . S
H1092 C1100 0.950 . S
H1093 C1105 0.950 . S
H1094 C1102 0.950 . S
H1095 C1104 0.950 . S
H1096 C1106 0.950 . S
H1097 C1108 0.950 . S
H1098 C1110 0.950 . S
H1099 C1111 0.950 . S
C1100 H1092 0.950 . S
C1100 C1101 1.386 . S
C1100 C1102 1.391 . S
C1101 C1100 1.386 . S
C1101 C1105 1.393 . S
C1102 H1094 0.950 . S
C1102 C1100 1.391 . S
C1102 C1103 1.400 . S
C1103 C1102 1.400 . S
C1103 C1104 1.398 . S
C1103 C1109 1.491 . S
C1104 H1095 0.950 . S
C1104 C1103 1.398 . S
C1104 C1105 1.391 . S
C1105 H1093 0.950 . S
C1105 C1101 1.393 . S
C1105 C1104 1.391 . S
C1106 H1096 0.950 . S
C1106 C1107 1.386 . S
C1106 C1108 1.391 . S
C1107 C1106 1.386 . S
C1107 C1111 1.393 . S
C1108 H1097 0.950 . S
C1108 C1106 1.391 . S
C1108 C1109 1.400 . S
C1109 C1103 1.491 . S
C1109 C1108 1.400 . S
C1109 C1110 1.398 . S
C1110 H1098 0.950 . S
C1110 C1109 1.398 . S
C1110 C1111 1.391 . S
C1111 H1099 0.950 . S
C1111 C1107 1.393 . S
C1111 C1110 1.391 . S
H1112 C1120 0.950 . S
H1113 C1125 0.950 . S
H1114 C1122 0.950 . S
H1115 C1124 0.950 . S
H1116 C1126 0.950 . S
H1117 C1128 0.950 . S
H1118 C1130 0.950 . S
H1119 C1131 0.950 . S
C1120 H1112 0.950 . S
C1120 C1121 1.386 . S
C1120 C1122 1.391 . S
C1121 C1120 1.386 . S
C1121 C1125 1.393 . S
C1122 H1114 0.950 . S
C1122 C1120 1.391 . S
C1122 C1123 1.400 . S
C1123 C1122 1.400 . S
C1123 C1124 1.398 . S
C1123 C1129 1.491 . S
C1124 H1115 0.950 . S
C1124 C1123 1.398 . S
C1124 C1125 1.391 . S
C1125 H1113 0.950 . S
C1125 C1121 1.393 . S
C1125 C1124 1.391 . S
C1126 H1116 0.950 . S
C1126 C1127 1.386 . S
C1126 C1128 1.391 . S
C1127 C1126 1.386 . S
C1127 C1131 1.393 . S
C1128 H1117 0.950 . S
C1128 C1126 1.391 . S
C1128 C1129 1.400 . S
C1129 C1123 1.491 . S
C1129 C1128 1.400 . S
C1129 C1130 1.398 . S
C1130 H1118 0.950 . S
C1130 C1129 1.398 . S
C1130 C1131 1.391 . S
C1131 H1119 0.950 . S
C1131 C1127 1.393 . S
C1131 C1130 1.391 . S
H1132 C1140 0.950 . S
H1133 C1145 0.950 . S
H1134 C1142 0.950 . S
H1135 C1144 0.950 . S
H1136 C1146 0.950 . S
H1137 C1148 0.950 . S
H1138 C1150 0.950 . S
H1139 C1151 0.950 . S
C1140 H1132 0.950 . S
C1140 C1141 1.386 . S
C1140 C1142 1.391 . S
C1141 C1140 1.386 . S
C1141 C1145 1.393 . S
C1142 H1134 0.950 . S
C1142 C1140 1.391 . S
C1142 C1143 1.400 . S
C1143 C1142 1.400 . S
C1143 C1144 1.398 . S
C1143 C1149 1.491 . S
C1144 H1135 0.950 . S
C1144 C1143 1.398 . S
C1144 C1145 1.391 . S
C1145 H1133 0.950 . S
C1145 C1141 1.393 . S
C1145 C1144 1.391 . S
C1146 H1136 0.950 . S
C1146 C1147 1.386 . S
C1146 C1148 1.391 . S
C1147 C1146 1.386 . S
C1147 C1151 1.393 . S
C1148 H1137 0.950 . S
C1148 C1146 1.391 . S
C1148 C1149 1.400 . S
C1149 C1143 1.491 . S
C1149 C1148 1.400 . S
C1149 C1150 1.398 . S
C1150 H1138 0.950 . S
C1150 C1149 1.398 . S
C1150 C1151 1.391 . S
C1151 H1139 0.950 . S
C1151 C1147 1.393 . S
C1151 C1150 1.391 . S
C527 C433 1.517 . S
C521 C45 1.532 . S
C541 C78 1.519 . S
C547 C465 1.507 . S
C561 C126 1.518 . S
C567 C488 1.524 . S
C587 C392 1.521 . S
C581 C174 1.524 . S
C607 C475 1.347 . S
C601 C36 1.499 . S
C627 C504 1.396 . S
C621 C69 1.500 . S
C647 C408 1.393 . S
C641 C117 1.502 . S
C667 C443 1.372 . S
C661 C165 1.493 . S
C681 C30 1.495 . S
C687 C471 1.392 . S
C701 C228 1.492 . S
C707 C446 1.359 . S
C721 C141 1.486 . S
C727 C414 1.383 . S
C747 C503 1.376 . S
C741 C270 1.490 . S
C767 C447 1.505 . S
C761 C21 1.534 . S
C781 C237 1.524 . S
C787 C415 1.516 . S
C801 C132 1.533 . S
C807 C502 1.521 . S
C827 C470 1.530 . S
C821 C261 1.537 . S
C841 C333 1.523 . S
C847 C497 1.501 . S
C861 C213 1.533 . S
C867 C401 1.509 . S
C881 C357 1.531 . S
C887 C424 1.527 . S
C901 C285 1.530 . S
C907 C456 1.525 . S
C927 C411 1.352 . S
C921 C324 1.502 . S
C941 C222 1.477 . S
C947 C440 1.358 . S
C961 C366 1.483 . S
C967 C472 1.360 . S
C987 C507 1.353 . S
C981 C276 1.503 . S
C1001 C318 1.491 . S
C1007 C407 1.392 . S
C1021 C93 1.477 . S
C1027 C510 1.372 . S
C1041 C372 1.497 . S
C1047 C478 1.357 . S
C1067 C439 1.357 . S
C1061 C189 1.481 . S
C1087 C511 1.522 . S
C1081 C309 1.537 . S
C1107 C479 1.520 . S
C1101 C84 1.537 . S
C1127 C438 1.525 . S
C1121 C381 1.527 . S
C1147 C406 1.518 . S
C1141 C180 1.530 . S
