# Generated by pormake.
# Topology eea, (3,6)-cn, num edge types: 1
# Building blocks:
#     Node 0, Type 0, BuildingBlock: BELTOD_clean_linker_0, # of connection points: 3
#     Node 1, Type 0, BuildingBlock: BELTOD_clean_linker_0, # of connection points: 3
#     Node 2, Type 0, BuildingBlock: BELTOD_clean_linker_0, # of connection points: 3
#     Node 3, Type 0, BuildingBlock: BELTOD_clean_linker_0, # of connection points: 3
#     Node 4, Type 0, BuildingBlock: BELTOD_clean_linker_0, # of connection points: 3
#     Node 5, Type 0, BuildingBlock: BELTOD_clean_linker_0, # of connection points: 3
#     Node 6, Type 0, BuildingBlock: BELTOD_clean_linker_0, # of connection points: 3
#     Node 7, Type 0, BuildingBlock: BELTOD_clean_linker_0, # of connection points: 3
#     Node 8, Type 0, BuildingBlock: BELTOD_clean_linker_0, # of connection points: 3
#     Node 9, Type 0, BuildingBlock: BELTOD_clean_linker_0, # of connection points: 3
#     Node 10, Type 0, BuildingBlock: BELTOD_clean_linker_0, # of connection points: 3
#     Node 11, Type 0, BuildingBlock: BELTOD_clean_linker_0, # of connection points: 3
#     Node 12, Type 0, BuildingBlock: BELTOD_clean_linker_0, # of connection points: 3
#     Node 13, Type 0, BuildingBlock: BELTOD_clean_linker_0, # of connection points: 3
#     Node 14, Type 0, BuildingBlock: BELTOD_clean_linker_0, # of connection points: 3
#     Node 15, Type 0, BuildingBlock: BELTOD_clean_linker_0, # of connection points: 3
#     Node 16, Type 0, BuildingBlock: BELTOD_clean_linker_0, # of connection points: 3
#     Node 17, Type 0, BuildingBlock: BELTOD_clean_linker_0, # of connection points: 3
#     Node 18, Type 1, BuildingBlock: KUMBOL_clean_sbu_0, # of connection points: 6
#     Node 19, Type 1, BuildingBlock: KUMBOL_clean_sbu_0, # of connection points: 6
#     Node 20, Type 1, BuildingBlock: KUMBOL_clean_sbu_0, # of connection points: 6
#     Node 21, Type 1, BuildingBlock: KUMBOL_clean_sbu_0, # of connection points: 6
#     Node 22, Type 1, BuildingBlock: KUMBOL_clean_sbu_0, # of connection points: 6
#     Node 23, Type 1, BuildingBlock: KUMBOL_clean_sbu_0, # of connection points: 6
#     Node 24, Type 1, BuildingBlock: KUMBOL_clean_sbu_0, # of connection points: 6
#     Node 25, Type 1, BuildingBlock: KUMBOL_clean_sbu_0, # of connection points: 6
#     Node 26, Type 1, BuildingBlock: KUMBOL_clean_sbu_0, # of connection points: 6
#     Edge 27, Type (0, 1), BuildingBlock: ZUJKAS_clean_linker_0, # of connection points: 2
#     Edge 28, Type (0, 1), BuildingBlock: ZUJKAS_clean_linker_0, # of connection points: 2
#     Edge 29, Type (0, 1), BuildingBlock: ZUJKAS_clean_linker_0, # of connection points: 2
#     Edge 30, Type (0, 1), BuildingBlock: ZUJKAS_clean_linker_0, # of connection points: 2
#     Edge 31, Type (0, 1), BuildingBlock: ZUJKAS_clean_linker_0, # of connection points: 2
#     Edge 32, Type (0, 1), BuildingBlock: ZUJKAS_clean_linker_0, # of connection points: 2
#     Edge 33, Type (0, 1), BuildingBlock: ZUJKAS_clean_linker_0, # of connection points: 2
#     Edge 34, Type (0, 1), BuildingBlock: ZUJKAS_clean_linker_0, # of connection points: 2
#     Edge 35, Type (0, 1), BuildingBlock: ZUJKAS_clean_linker_0, # of connection points: 2
#     Edge 36, Type (0, 1), BuildingBlock: ZUJKAS_clean_linker_0, # of connection points: 2
#     Edge 37, Type (0, 1), BuildingBlock: ZUJKAS_clean_linker_0, # of connection points: 2
#     Edge 38, Type (0, 1), BuildingBlock: ZUJKAS_clean_linker_0, # of connection points: 2
#     Edge 39, Type (0, 1), BuildingBlock: ZUJKAS_clean_linker_0, # of connection points: 2
#     Edge 40, Type (0, 1), BuildingBlock: ZUJKAS_clean_linker_0, # of connection points: 2
#     Edge 41, Type (0, 1), BuildingBlock: ZUJKAS_clean_linker_0, # of connection points: 2
#     Edge 42, Type (0, 1), BuildingBlock: ZUJKAS_clean_linker_0, # of connection points: 2
#     Edge 43, Type (0, 1), BuildingBlock: ZUJKAS_clean_linker_0, # of connection points: 2
#     Edge 44, Type (0, 1), BuildingBlock: ZUJKAS_clean_linker_0, # of connection points: 2
#     Edge 45, Type (0, 1), BuildingBlock: ZUJKAS_clean_linker_0, # of connection points: 2
#     Edge 46, Type (0, 1), BuildingBlock: ZUJKAS_clean_linker_0, # of connection points: 2
#     Edge 47, Type (0, 1), BuildingBlock: ZUJKAS_clean_linker_0, # of connection points: 2
#     Edge 48, Type (0, 1), BuildingBlock: ZUJKAS_clean_linker_0, # of connection points: 2
#     Edge 49, Type (0, 1), BuildingBlock: ZUJKAS_clean_linker_0, # of connection points: 2
#     Edge 50, Type (0, 1), BuildingBlock: ZUJKAS_clean_linker_0, # of connection points: 2
#     Edge 51, Type (0, 1), BuildingBlock: ZUJKAS_clean_linker_0, # of connection points: 2
#     Edge 52, Type (0, 1), BuildingBlock: ZUJKAS_clean_linker_0, # of connection points: 2
#     Edge 53, Type (0, 1), BuildingBlock: ZUJKAS_clean_linker_0, # of connection points: 2
#     Edge 54, Type (0, 1), BuildingBlock: ZUJKAS_clean_linker_0, # of connection points: 2
#     Edge 55, Type (0, 1), BuildingBlock: ZUJKAS_clean_linker_0, # of connection points: 2
#     Edge 56, Type (0, 1), BuildingBlock: ZUJKAS_clean_linker_0, # of connection points: 2
#     Edge 57, Type (0, 1), BuildingBlock: ZUJKAS_clean_linker_0, # of connection points: 2
#     Edge 58, Type (0, 1), BuildingBlock: ZUJKAS_clean_linker_0, # of connection points: 2
#     Edge 59, Type (0, 1), BuildingBlock: ZUJKAS_clean_linker_0, # of connection points: 2
#     Edge 60, Type (0, 1), BuildingBlock: ZUJKAS_clean_linker_0, # of connection points: 2
#     Edge 61, Type (0, 1), BuildingBlock: ZUJKAS_clean_linker_0, # of connection points: 2
#     Edge 62, Type (0, 1), BuildingBlock: ZUJKAS_clean_linker_0, # of connection points: 2
#     Edge 63, Type (0, 1), BuildingBlock: ZUJKAS_clean_linker_0, # of connection points: 2
#     Edge 64, Type (0, 1), BuildingBlock: ZUJKAS_clean_linker_0, # of connection points: 2
#     Edge 65, Type (0, 1), BuildingBlock: ZUJKAS_clean_linker_0, # of connection points: 2
#     Edge 66, Type (0, 1), BuildingBlock: ZUJKAS_clean_linker_0, # of connection points: 2
#     Edge 67, Type (0, 1), BuildingBlock: ZUJKAS_clean_linker_0, # of connection points: 2
#     Edge 68, Type (0, 1), BuildingBlock: ZUJKAS_clean_linker_0, # of connection points: 2
#     Edge 69, Type (0, 1), BuildingBlock: ZUJKAS_clean_linker_0, # of connection points: 2
#     Edge 70, Type (0, 1), BuildingBlock: ZUJKAS_clean_linker_0, # of connection points: 2
#     Edge 71, Type (0, 1), BuildingBlock: ZUJKAS_clean_linker_0, # of connection points: 2
#     Edge 72, Type (0, 1), BuildingBlock: ZUJKAS_clean_linker_0, # of connection points: 2
#     Edge 73, Type (0, 1), BuildingBlock: ZUJKAS_clean_linker_0, # of connection points: 2
#     Edge 74, Type (0, 1), BuildingBlock: ZUJKAS_clean_linker_0, # of connection points: 2
#     Edge 75, Type (0, 1), BuildingBlock: ZUJKAS_clean_linker_0, # of connection points: 2
#     Edge 76, Type (0, 1), BuildingBlock: ZUJKAS_clean_linker_0, # of connection points: 2
#     Edge 77, Type (0, 1), BuildingBlock: ZUJKAS_clean_linker_0, # of connection points: 2
#     Edge 78, Type (0, 1), BuildingBlock: ZUJKAS_clean_linker_0, # of connection points: 2
#     Edge 79, Type (0, 1), BuildingBlock: ZUJKAS_clean_linker_0, # of connection points: 2
#     Edge 80, Type (0, 1), BuildingBlock: ZUJKAS_clean_linker_0, # of connection points: 2
# Relax obj value: 0.009
# Max RMSD: 0.091
# Mean RMSD: 0.059
data_MOF--net-eea--node1-KUMBOL_clean_sbu_0--node2-BELTOD_clean_linker_0--edge1-ZUJKAS_clean_linker_0
_symmetry_space_group_name_H-M    P1
_symmetry_Int_Tables_number       1
_symmetry_cell_setting            triclinic
loop_
_symmetry_equiv_pos_as_xyz
'x, y, z'
_cell_length_a     74.679916
_cell_length_b     76.260158
_cell_length_c     100.04283
_cell_angle_alpha  90.710135
_cell_angle_beta   90.204943
_cell_angle_gamma 120.06457
loop_
_atom_site_label
_atom_site_type_symbol
_atom_site_fract_x
_atom_site_fract_y
_atom_site_fract_z
_atom_type_partial_charge
P0 P 0.27487 0.13751 0.41273 0.0
H1 H 0.27075 0.12087 0.38591 0.0
H2 H 0.25332 0.08626 0.37681 0.0
H3 H 0.23109 0.06332 0.41624 0.0
H4 H 0.24818 0.09799 0.42519 0.0
H5 H 0.29021 0.17997 0.40704 0.0
H6 H 0.27334 0.19852 0.39965 0.0
H7 H 0.21385 0.14357 0.40146 0.0
H8 H 0.23105 0.12499 0.40854 0.0
H9 H 0.30575 0.13506 0.42904 0.0
H10 H 0.25152 0.1402 0.43559 0.0
O11 O 0.2982 0.14896 0.40575 0.0
H12 H 0.31131 0.13572 0.45312 0.0
H13 H 0.25669 0.14042 0.45981 0.0
C14 C 0.26108 0.11195 0.40624 0.0
C15 C 0.26208 0.10837 0.39258 0.0
C16 C 0.25218 0.08858 0.38741 0.0
C17 C 0.24099 0.072 0.39583 0.0
C18 C 0.23948 0.07574 0.40947 0.0
C19 C 0.2494 0.09557 0.41463 0.0
C20 C 0.26192 0.15107 0.40806 0.0
C21 C 0.27354 0.17192 0.40584 0.0
C22 C 0.26382 0.18254 0.40172 0.0
C23 C 0.24221 0.17254 0.3999 0.0
C24 C 0.23054 0.15167 0.40253 0.0
C25 C 0.24033 0.14104 0.40662 0.0
C26 C 0.2785 0.13802 0.43055 0.0
C27 C 0.29504 0.13636 0.43569 0.0
C28 C 0.29807 0.13653 0.44948 0.0
C29 C 0.28445 0.13814 0.45842 0.0
C30 C 0.26764 0.13947 0.4532 0.0
C31 C 0.26464 0.13931 0.43937 0.0
P32 P 0.90622 0.10087 0.43693 0.0
H33 H 0.90077 0.06273 0.42624 0.0
H34 H 0.87329 0.03523 0.41309 0.0
H35 H 0.84115 0.06906 0.41064 0.0
H36 H 0.86876 0.09651 0.42407 0.0
H37 H 0.94605 0.10911 0.42668 0.0
H38 H 0.97211 0.13606 0.41313 0.0
H39 H 0.93369 0.16348 0.41065 0.0
H40 H 0.9073 0.13595 0.42406 0.0
H41 H 0.86771 0.07979 0.45166 0.0
H42 H 0.92085 0.14001 0.45091 0.0
O43 O 0.91823 0.09076 0.4452 0.0
H44 H 0.85441 0.08941 0.47094 0.0
H45 H 0.90765 0.14973 0.4703 0.0
C46 C 0.88656 0.08144 0.42635 0.0
C47 C 0.88784 0.06427 0.42286 0.0
C48 C 0.87217 0.0486 0.41524 0.0
C49 C 0.85493 0.04987 0.41085 0.0
C50 C 0.85404 0.06746 0.41403 0.0
C51 C 0.86982 0.08318 0.42165 0.0
C52 C 0.92501 0.12086 0.4267 0.0
C53 C 0.94323 0.12095 0.42329 0.0
C54 C 0.95818 0.13644 0.41555 0.0
C55 C 0.95519 0.15216 0.41097 0.0
C56 C 0.9365 0.15161 0.414 0.0
C57 C 0.92148 0.136 0.42175 0.0
C58 C 0.89495 0.10935 0.44955 0.0
C59 C 0.87628 0.09525 0.45542 0.0
C60 C 0.8688 0.1007 0.46656 0.0
C61 C 0.87999 0.12033 0.47217 0.0
C62 C 0.89852 0.13458 0.4661 0.0
C63 C 0.90605 0.12905 0.45498 0.0
P64 P 0.8708 0.74482 0.42037 0.0
H65 H 0.84841 0.73702 0.39507 0.0
H66 H 0.82656 0.74927 0.38565 0.0
H67 H 0.84021 0.78925 0.41989 0.0
H68 H 0.8623 0.77697 0.42922 0.0
H69 H 0.90251 0.73381 0.42361 0.0
H70 H 0.93731 0.74738 0.41473 0.0
H71 H 0.93243 0.79571 0.39619 0.0
H72 H 0.89745 0.7819 0.40508 0.0
H73 H 0.83443 0.72732 0.43703 0.0
H74 H 0.90055 0.75895 0.44323 0.0
O75 O 0.85968 0.72085 0.41488 0.0
H76 H 0.82928 0.72123 0.46097 0.0
H77 H 0.89553 0.75299 0.46726 0.0
C78 C 0.85661 0.75577 0.41298 0.0
C79 C 0.84678 0.74848 0.40054 0.0
C80 C 0.83421 0.75544 0.39519 0.0
C81 C 0.83135 0.77001 0.40211 0.0
C82 C 0.84208 0.77803 0.41429 0.0
C83 C 0.85463 0.77097 0.41967 0.0
C84 C 0.8974 0.75685 0.41507 0.0
C85 C 0.90905 0.7475 0.41779 0.0
C86 C 0.929 0.75533 0.41273 0.0
C87 C 0.93771 0.77266 0.40472 0.0
C88 C 0.92611 0.78224 0.40221 0.0
C89 C 0.90614 0.77442 0.40736 0.0
C90 C 0.86784 0.74353 0.43831 0.0
C91 C 0.84786 0.73326 0.44359 0.0
C92 C 0.84494 0.72984 0.45731 0.0
C93 C 0.86199 0.73654 0.46607 0.0
C94 C 0.88205 0.74738 0.46078 0.0
C95 C 0.88495 0.75088 0.44702 0.0
P96 P 0.1247 0.2513 0.59574 0.0
H97 H 0.11097 0.25924 0.62111 0.0
H98 H 0.07689 0.2469 0.6309 0.0
H99 H 0.04865 0.20641 0.59698 0.0
H100 H 0.08302 0.21884 0.58724 0.0
H101 H 0.16862 0.26531 0.59471 0.0
H102 H 0.19013 0.25219 0.60338 0.0
H103 H 0.13565 0.20005 0.6186 0.0
H104 H 0.11414 0.21339 0.60986 0.0
H105 H 0.1043 0.26544 0.57755 0.0
H106 H 0.14271 0.23825 0.57412 0.0
O107 O 0.13754 0.27564 0.60053 0.0
H108 H 0.10708 0.27145 0.55349 0.0
H109 H 0.14557 0.24423 0.55012 0.0
C110 C 0.09949 0.24028 0.60331 0.0
C111 C 0.09747 0.24765 0.61578 0.0
C112 C 0.07794 0.24063 0.62136 0.0
C113 C 0.05999 0.22588 0.61464 0.0
C114 C 0.06216 0.21777 0.60242 0.0
C115 C 0.08177 0.22492 0.59681 0.0
C116 C 0.13981 0.24039 0.60168 0.0
C117 C 0.16128 0.25099 0.59985 0.0
C118 C 0.17355 0.2434 0.60476 0.0
C119 C 0.16464 0.22504 0.61169 0.0
C120 C 0.14303 0.21432 0.61342 0.0
C121 C 0.13069 0.22189 0.60838 0.0
C122 C 0.12327 0.2514 0.57769 0.0
C123 C 0.11295 0.26034 0.57158 0.0
C124 C 0.11455 0.26377 0.5578 0.0
C125 C 0.12672 0.2585 0.54987 0.0
C126 C 0.13635 0.24877 0.55596 0.0
C127 C 0.13462 0.24523 0.56973 0.0
P128 P 0.80084 0.89798 0.57669 0.0
H129 H 0.83286 0.93359 0.59087 0.0
H130 H 0.83207 0.95975 0.60466 0.0
H131 H 0.76533 0.9281 0.60122 0.0
H132 H 0.76638 0.90217 0.58707 0.0
H133 H 0.8193 0.87264 0.57265 0.0
H134 H 0.81798 0.84481 0.58518 0.0
H135 H 0.77608 0.84855 0.61323 0.0
H136 H 0.77781 0.87676 0.6007 0.0
H137 H 0.78849 0.92047 0.55943 0.0
H138 H 0.77124 0.85797 0.56492 0.0
O139 O 0.82375 0.90947 0.56916 0.0
H140 H 0.76499 0.91067 0.54019 0.0
H141 H 0.74801 0.84808 0.54553 0.0
C142 C 0.79972 0.91622 0.58773 0.0
C143 C 0.81805 0.93226 0.59309 0.0
C144 C 0.81755 0.94714 0.6011 0.0
C145 C 0.79863 0.94611 0.60402 0.0
C146 C 0.78018 0.92955 0.59898 0.0
C147 C 0.78074 0.91468 0.59094 0.0
C148 C 0.79901 0.87703 0.58591 0.0
C149 C 0.80988 0.86752 0.58152 0.0
C150 C 0.80894 0.85146 0.58863 0.0
C151 C 0.79696 0.84446 0.60024 0.0
C152 C 0.7857 0.85377 0.60445 0.0
C153 C 0.78663 0.86987 0.59728 0.0
C154 C 0.78144 0.88995 0.5637 0.0
C155 C 0.77943 0.9046 0.5566 0.0
C156 C 0.76613 0.89899 0.54553 0.0
C157 C 0.7547 0.8786 0.54128 0.0
C158 C 0.7564 0.86388 0.54863 0.0
C159 C 0.76975 0.86953 0.55972 0.0
P160 P 0.12352 0.85916 0.59801 0.0
H161 H 0.14166 0.87562 0.62418 0.0
H162 H 0.16093 0.9101 0.63336 0.0
H163 H 0.15267 0.93316 0.59597 0.0
H164 H 0.13276 0.89853 0.58708 0.0
H165 H 0.09538 0.81583 0.59985 0.0
H166 H 0.06068 0.79558 0.6089 0.0
H167 H 0.05895 0.85032 0.61775 0.0
H168 H 0.09387 0.87053 0.60877 0.0
H169 H 0.15862 0.87914 0.58037 0.0
H170 H 0.09279 0.83896 0.57611 0.0
O171 O 0.1363 0.84799 0.60371 0.0
H172 H 0.16255 0.87756 0.55623 0.0
H173 H 0.09659 0.83734 0.55192 0.0
C174 C 0.13625 0.88458 0.60486 0.0
C175 C 0.14393 0.88812 0.618 0.0
C176 C 0.15506 0.90786 0.62319 0.0
C177 C 0.15869 0.92449 0.61534 0.0
C178 C 0.15015 0.92076 0.60233 0.0
C179 C 0.13891 0.90095 0.59717 0.0
C180 C 0.09729 0.84466 0.60379 0.0
C181 C 0.08749 0.82347 0.60369 0.0
C182 C 0.06759 0.81191 0.6088 0.0
C183 C 0.05704 0.82133 0.61411 0.0
C184 C 0.06677 0.84262 0.61391 0.0
C185 C 0.08669 0.85418 0.60873 0.0
C186 C 0.12543 0.85931 0.58004 0.0
C187 C 0.14496 0.87021 0.5742 0.0
C188 C 0.14717 0.86934 0.56039 0.0
C189 C 0.12987 0.85735 0.55213 0.0
C190 C 0.11024 0.8466 0.55801 0.0
C191 C 0.10803 0.84759 0.57186 0.0
P192 P 0.94088 0.46928 0.74879 0.0
H193 H 0.94697 0.45137 0.72461 0.0
H194 H 0.92952 0.41695 0.71531 0.0
H195 H 0.88636 0.39717 0.74798 0.0
H196 H 0.90409 0.43176 0.7573 0.0
H197 H 0.95833 0.50874 0.73611 0.0
H198 H 0.94291 0.52792 0.72739 0.0
H199 H 0.88255 0.48057 0.73957 0.0
H200 H 0.89817 0.46125 0.74814 0.0
H201 H 0.94326 0.44195 0.76804 0.0
H202 H 0.94192 0.49784 0.76909 0.0
O203 O 0.96536 0.48018 0.74372 0.0
H204 H 0.94818 0.444 0.79229 0.0
H205 H 0.947 0.50005 0.79336 0.0
C206 C 0.92716 0.44397 0.74182 0.0
C207 C 0.93377 0.43963 0.72978 0.0
C208 C 0.92365 0.41997 0.72441 0.0
C209 C 0.90663 0.40429 0.73096 0.0
C210 C 0.89963 0.40886 0.74283 0.0
C211 C 0.90972 0.4286 0.74815 0.0
C212 C 0.92935 0.48346 0.74261 0.0
C213 C 0.94178 0.50243 0.73689 0.0
C214 C 0.93294 0.51347 0.73199 0.0
C215 C 0.91148 0.50578 0.73277 0.0
C216 C 0.89909 0.48679 0.73865 0.0
C217 C 0.90798 0.47577 0.74359 0.0
C218 C 0.94159 0.46941 0.76679 0.0
C219 C 0.94349 0.4544 0.77352 0.0
C220 C 0.94635 0.4556 0.78739 0.0
C221 C 0.94787 0.47214 0.79474 0.0
C222 C 0.94591 0.48715 0.78796 0.0
C223 C 0.94284 0.48581 0.7741 0.0
P224 P 0.57176 0.43513 0.77062 0.0
H225 H 0.56386 0.39437 0.76393 0.0
H226 H 0.53565 0.36565 0.75199 0.0
H227 H 0.50749 0.40184 0.74344 0.0
H228 H 0.53572 0.43063 0.75572 0.0
H229 H 0.61175 0.46997 0.77704 0.0
H230 H 0.63764 0.4978 0.7639 0.0
H231 H 0.59705 0.47513 0.72931 0.0
H232 H 0.57135 0.44706 0.7425 0.0
H233 H 0.54001 0.41069 0.78956 0.0
H234 H 0.57712 0.47423 0.78078 0.0
O235 O 0.58574 0.42656 0.77821 0.0
H236 H 0.52559 0.41894 0.80888 0.0
H237 H 0.56325 0.48267 0.80034 0.0
C238 C 0.5519 0.41466 0.76069 0.0
C239 C 0.55172 0.39624 0.75946 0.0
C240 C 0.53554 0.37978 0.75268 0.0
C241 C 0.51936 0.38151 0.74686 0.0
C242 C 0.51983 0.40015 0.74779 0.0
C243 C 0.5359 0.41656 0.75478 0.0
C244 C 0.58959 0.45644 0.7608 0.0
C245 C 0.60835 0.47108 0.76666 0.0
C246 C 0.6231 0.48707 0.75913 0.0
C247 C 0.61943 0.48875 0.74553 0.0
C248 C 0.60045 0.47418 0.73972 0.0
C249 C 0.58564 0.45817 0.7473 0.0
C250 C 0.55961 0.4418 0.7837 0.0
C251 C 0.54493 0.42643 0.79173 0.0
C252 C 0.53685 0.43119 0.80286 0.0
C253 C 0.54342 0.4515 0.80627 0.0
C254 C 0.55773 0.46687 0.79796 0.0
C255 C 0.56578 0.46205 0.78678 0.0
P256 P 0.53732 0.07846 0.75199 0.0
H257 H 0.51272 0.06946 0.72761 0.0
H258 H 0.4913 0.08233 0.71847 0.0
H259 H 0.51109 0.12656 0.75071 0.0
H260 H 0.53294 0.11375 0.75969 0.0
H261 H 0.56012 0.05924 0.7421 0.0
H262 H 0.59439 0.07228 0.73265 0.0
H263 H 0.60627 0.13348 0.73823 0.0
H264 H 0.57164 0.12016 0.74784 0.0
H265 H 0.50647 0.076 0.77093 0.0
H266 H 0.56579 0.07934 0.77273 0.0
O267 O 0.52399 0.054 0.74751 0.0
H268 H 0.50244 0.07018 0.7949 0.0
H269 H 0.56152 0.0727 0.79668 0.0
C270 C 0.52398 0.09027 0.74454 0.0
C271 C 0.51258 0.08202 0.73269 0.0
C272 C 0.50022 0.08933 0.7275 0.0
C273 C 0.49907 0.10519 0.73401 0.0
C274 C 0.51154 0.11429 0.74546 0.0
C275 C 0.52397 0.10692 0.75065 0.0
C276 C 0.56315 0.08871 0.74547 0.0
C277 C 0.56999 0.07547 0.74126 0.0
C278 C 0.58962 0.08296 0.73578 0.0
C279 C 0.60301 0.10393 0.73448 0.0
C280 C 0.59635 0.11724 0.73908 0.0
C281 C 0.57654 0.10967 0.74452 0.0
C282 C 0.53672 0.07873 0.77005 0.0
C283 C 0.51891 0.07603 0.77654 0.0
C284 C 0.51647 0.07234 0.79026 0.0
C285 C 0.53157 0.07078 0.79778 0.0
C286 C 0.54969 0.07408 0.7913 0.0
C287 C 0.55217 0.0779 0.77755 0.0
P288 P 0.78908 0.58255 0.92988 0.0
H289 H 0.7754 0.58924 0.95563 0.0
H290 H 0.7413 0.57683 0.96543 0.0
H291 H 0.71289 0.53858 0.93058 0.0
H292 H 0.74725 0.55105 0.92084 0.0
H293 H 0.83284 0.59618 0.92815 0.0
H294 H 0.85453 0.58319 0.93672 0.0
H295 H 0.80052 0.53192 0.95317 0.0
H296 H 0.77885 0.54514 0.94455 0.0
H297 H 0.77118 0.5992 0.91168 0.0
H298 H 0.80472 0.56696 0.9083 0.0
O299 O 0.80181 0.60684 0.93479 0.0
H300 H 0.77421 0.60493 0.88758 0.0
H301 H 0.80782 0.57263 0.88424 0.0
C302 C 0.76383 0.57138 0.9374 0.0
C303 C 0.76185 0.57811 0.95011 0.0
C304 C 0.74232 0.57106 0.95569 0.0
C305 C 0.72432 0.55693 0.94871 0.0
C306 C 0.72643 0.54945 0.93622 0.0
C307 C 0.74605 0.55663 0.93061 0.0
C308 C 0.80427 0.57169 0.93575 0.0
C309 C 0.82564 0.58207 0.93354 0.0
C310 C 0.83801 0.57456 0.93839 0.0
C311 C 0.82928 0.55648 0.94563 0.0
C312 C 0.80775 0.54598 0.94774 0.0
C313 C 0.79533 0.55347 0.94277 0.0
C314 C 0.7878 0.58277 0.91184 0.0
C315 C 0.77883 0.593 0.90571 0.0
C316 C 0.78056 0.59624 0.89192 0.0
C317 C 0.79146 0.58943 0.88398 0.0
C318 C 0.79963 0.57838 0.89009 0.0
C319 C 0.79778 0.57504 0.90388 0.0
P320 P 0.4718 0.23378 0.90901 0.0
H321 H 0.50322 0.26827 0.92434 0.0
H322 H 0.50221 0.2945 0.93802 0.0
H323 H 0.4361 0.26539 0.93149 0.0
H324 H 0.43722 0.23887 0.91811 0.0
H325 H 0.49155 0.20947 0.9056 0.0
H326 H 0.49026 0.18171 0.91821 0.0
H327 H 0.44669 0.18416 0.94541 0.0
H328 H 0.44836 0.21229 0.93278 0.0
H329 H 0.45795 0.25513 0.89175 0.0
H330 H 0.44341 0.19338 0.89731 0.0
O331 O 0.49465 0.2455 0.90142 0.0
H332 H 0.43388 0.24431 0.87277 0.0
H333 H 0.41919 0.18243 0.87839 0.0
C334 C 0.4704 0.25198 0.91993 0.0
C335 C 0.48851 0.2675 0.9259 0.0
C336 C 0.48791 0.28254 0.93367 0.0
C337 C 0.46913 0.28226 0.93566 0.0
C338 C 0.45082 0.26607 0.93017 0.0
C339 C 0.45145 0.25099 0.92242 0.0
C340 C 0.47039 0.21319 0.91843 0.0
C341 C 0.48179 0.20411 0.91432 0.0
C342 C 0.48088 0.18809 0.92147 0.0
C343 C 0.46839 0.18072 0.93284 0.0
C344 C 0.45668 0.18968 0.93681 0.0
C345 C 0.45759 0.20572 0.9296 0.0
C346 C 0.45222 0.22504 0.89609 0.0
C347 C 0.44928 0.23918 0.88904 0.0
C348 C 0.43548 0.23296 0.8782 0.0
C349 C 0.42457 0.21249 0.8741 0.0
C350 C 0.42746 0.19832 0.88126 0.0
C351 C 0.44121 0.20456 0.89215 0.0
P352 P 0.79168 0.19259 0.93063 0.0
H353 H 0.81463 0.21042 0.95538 0.0
H354 H 0.8331 0.24506 0.96429 0.0
H355 H 0.81287 0.26519 0.93021 0.0
H356 H 0.79453 0.23038 0.92128 0.0
H357 H 0.76994 0.15294 0.94308 0.0
H358 H 0.73544 0.13311 0.95234 0.0
H359 H 0.72156 0.17963 0.94124 0.0
H360 H 0.75631 0.19943 0.93179 0.0
H361 H 0.82429 0.21754 0.91218 0.0
H362 H 0.76191 0.16707 0.90956 0.0
O363 O 0.80556 0.18226 0.93577 0.0
H364 H 0.82796 0.21551 0.88809 0.0
H365 H 0.76533 0.1651 0.88534 0.0
C366 C 0.80366 0.21795 0.93753 0.0
C367 C 0.81411 0.22228 0.94984 0.0
C368 C 0.82455 0.24209 0.95497 0.0
C369 C 0.82461 0.25795 0.94791 0.0
C370 C 0.81342 0.25338 0.93578 0.0
C371 C 0.8029 0.2335 0.93068 0.0
C372 C 0.76578 0.17779 0.93691 0.0
C373 C 0.75954 0.15894 0.94264 0.0
C374 C 0.7398 0.14764 0.94801 0.0
C375 C 0.72582 0.1549 0.9477 0.0
C376 C 0.73195 0.1736 0.94162 0.0
C377 C 0.75181 0.18496 0.93627 0.0
C378 C 0.79269 0.19276 0.91263 0.0
C379 C 0.81118 0.20634 0.90636 0.0
C380 C 0.81325 0.20517 0.89255 0.0
C381 C 0.79691 0.19019 0.88474 0.0
C382 C 0.77826 0.17674 0.89106 0.0
C383 C 0.77621 0.17797 0.90491 0.0
P384 P 0.6088 0.80343 0.07997 0.0
H385 H 0.618 0.78419 0.05773 0.0
H386 H 0.60086 0.74948 0.04891 0.0
H387 H 0.55314 0.73191 0.07855 0.0
H388 H 0.57049 0.76682 0.08736 0.0
H389 H 0.61717 0.83013 0.05738 0.0
H390 H 0.59973 0.84741 0.04854 0.0
H391 H 0.55347 0.82076 0.07922 0.0
H392 H 0.57129 0.8037 0.08815 0.0
H393 H 0.60848 0.77524 0.0998 0.0
H394 H 0.61355 0.83412 0.09968 0.0
O395 O 0.63318 0.81537 0.07465 0.0
H396 H 0.61355 0.77784 0.12402 0.0
H397 H 0.61869 0.83684 0.12395 0.0
C398 C 0.59577 0.77791 0.0734 0.0
C399 C 0.60388 0.77288 0.06235 0.0
C400 C 0.59396 0.75306 0.05725 0.0
C401 C 0.57571 0.73794 0.06308 0.0
C402 C 0.56734 0.74318 0.07397 0.0
C403 C 0.57721 0.76308 0.07899 0.0
C404 C 0.59577 0.81605 0.0736 0.0
C405 C 0.60334 0.82809 0.06226 0.0
C406 C 0.59322 0.8378 0.05712 0.0
C407 C 0.57522 0.8355 0.06319 0.0
C408 C 0.56746 0.82307 0.07444 0.0
C409 C 0.57759 0.8133 0.07954 0.0
C410 C 0.60996 0.8042 0.09797 0.0
C411 C 0.61014 0.78851 0.10501 0.0
C412 C 0.61309 0.79002 0.11887 0.0
C413 C 0.61639 0.80749 0.12591 0.0
C414 C 0.61622 0.82321 0.11881 0.0
C415 C 0.6131 0.82159 0.10495 0.0
P416 P 0.23771 0.76855 0.10212 0.0
H417 H 0.23255 0.73122 0.09003 0.0
H418 H 0.20431 0.70354 0.07748 0.0
H419 H 0.17057 0.73595 0.07816 0.0
H420 H 0.19881 0.76341 0.09113 0.0
H421 H 0.28027 0.79943 0.1077 0.0
H422 H 0.30658 0.82731 0.09476 0.0
H423 H 0.26258 0.81211 0.06235 0.0
H424 H 0.23627 0.78409 0.07539 0.0
H425 H 0.2026 0.74545 0.11937 0.0
H426 H 0.24867 0.80828 0.11433 0.0
O427 O 0.25028 0.75837 0.1096 0.0
H428 H 0.18921 0.75459 0.13884 0.0
H429 H 0.23529 0.81755 0.13378 0.0
C430 C 0.2176 0.74918 0.0917 0.0
C431 C 0.21911 0.73241 0.08745 0.0
C432 C 0.20297 0.71663 0.08016 0.0
C433 C 0.18504 0.7174 0.07685 0.0
C434 C 0.18395 0.73465 0.08075 0.0
C435 C 0.20012 0.75042 0.08809 0.0
C436 C 0.25639 0.78957 0.09248 0.0
C437 C 0.27626 0.80212 0.09782 0.0
C438 C 0.29125 0.81815 0.09044 0.0
C439 C 0.28668 0.82194 0.07751 0.0
C440 C 0.26663 0.80945 0.07222 0.0
C441 C 0.25156 0.79347 0.07969 0.0
C442 C 0.22644 0.77617 0.11525 0.0
C443 C 0.20958 0.76127 0.12229 0.0
C444 C 0.20192 0.76653 0.13342 0.0
C445 C 0.21116 0.78682 0.13786 0.0
C446 C 0.22793 0.80177 0.13068 0.0
C447 C 0.23552 0.79649 0.11948 0.0
P448 P 0.20061 0.40805 0.08443 0.0
H449 H 0.17538 0.39783 0.06024 0.0
H450 H 0.15431 0.41072 0.05054 0.0
H451 H 0.17533 0.45683 0.08163 0.0
H452 H 0.19673 0.4439 0.09123 0.0
H453 H 0.22392 0.38934 0.07455 0.0
H454 H 0.25844 0.40287 0.06542 0.0
H455 H 0.26965 0.46376 0.07147 0.0
H456 H 0.23477 0.44996 0.08077 0.0
H457 H 0.16973 0.40628 0.10313 0.0
H458 H 0.22847 0.40847 0.10539 0.0
O459 O 0.18767 0.38355 0.08003 0.0
H460 H 0.16517 0.40025 0.12708 0.0
H461 H 0.22369 0.40166 0.12929 0.0
C462 C 0.18719 0.41956 0.07667 0.0
C463 C 0.17556 0.41077 0.06497 0.0
C464 C 0.16343 0.41812 0.05945 0.0
C465 C 0.16279 0.43457 0.06544 0.0
C466 C 0.17543 0.44411 0.07676 0.0
C467 C 0.18758 0.43669 0.08231 0.0
C468 C 0.2266 0.41863 0.07814 0.0
C469 C 0.2337 0.40561 0.07388 0.0
C470 C 0.25348 0.41338 0.06858 0.0
C471 C 0.26675 0.4344 0.06751 0.0
C472 C 0.25982 0.44749 0.07215 0.0
C473 C 0.23988 0.43964 0.07742 0.0
C474 C 0.19973 0.40844 0.10248 0.0
C475 C 0.18195 0.40602 0.10884 0.0
C476 C 0.17919 0.40222 0.12254 0.0
C477 C 0.19397 0.40028 0.13018 0.0
C478 C 0.2121 0.40333 0.12383 0.0
C479 C 0.21488 0.40726 0.11011 0.0
P480 P 0.45674 0.91566 0.26429 0.0
H481 H 0.44153 0.90792 0.29151 0.0
H482 H 0.40708 0.89417 0.30104 0.0
H483 H 0.38053 0.88201 0.2612 0.0
H484 H 0.41497 0.89512 0.25179 0.0
H485 H 0.5002 0.92922 0.26064 0.0
H486 H 0.52301 0.91738 0.26896 0.0
H487 H 0.47083 0.86683 0.28755 0.0
H488 H 0.44799 0.87842 0.27875 0.0
H489 H 0.44755 0.94156 0.24808 0.0
H490 H 0.46627 0.89719 0.24116 0.0
O491 O 0.46817 0.93884 0.27118 0.0
H492 H 0.45063 0.949 0.22426 0.0
H493 H 0.46994 0.90491 0.2173 0.0
C494 C 0.43087 0.90254 0.27095 0.0
C495 C 0.42823 0.90195 0.28484 0.0
C496 C 0.40851 0.89426 0.29027 0.0
C497 C 0.39095 0.88717 0.28191 0.0
C498 C 0.39361 0.88716 0.26797 0.0
C499 C 0.41338 0.89476 0.26255 0.0
C500 C 0.47244 0.90483 0.26914 0.0
C501 C 0.49363 0.91543 0.26637 0.0
C502 C 0.50669 0.90874 0.27125 0.0
C503 C 0.49887 0.8913 0.27913 0.0
C504 C 0.47742 0.88026 0.28149 0.0
C505 C 0.46432 0.88696 0.27652 0.0
C506 C 0.457 0.91908 0.24644 0.0
C507 C 0.4523 0.93339 0.24141 0.0
C508 C 0.45421 0.93772 0.22778 0.0
C509 C 0.46088 0.92781 0.21884 0.0
C510 C 0.46473 0.91281 0.22386 0.0
C511 C 0.46276 0.90845 0.23754 0.0
P512 P 0.13926 0.56774 0.24185 0.0
H513 H 0.16425 0.61171 0.24113 0.0
H514 H 0.16315 0.63883 0.25357 0.0
H515 H 0.11008 0.59435 0.27525 0.0
H516 H 0.11161 0.56718 0.26287 0.0
H517 H 0.11695 0.52389 0.23647 0.0
H518 H 0.11329 0.49533 0.24932 0.0
H519 H 0.14768 0.53617 0.28204 0.0
H520 H 0.15073 0.5646 0.26925 0.0
H521 H 0.14563 0.57115 0.21295 0.0
H522 H 0.09419 0.54875 0.23997 0.0
O523 O 0.16327 0.57683 0.23621 0.0
H524 H 0.12189 0.56131 0.19391 0.0
H525 H 0.07016 0.53854 0.22087 0.0
C526 C 0.13827 0.58747 0.25128 0.0
C527 C 0.15246 0.60777 0.24862 0.0
C528 C 0.15167 0.62329 0.25566 0.0
C529 C 0.13651 0.61878 0.26541 0.0
C530 C 0.12212 0.59833 0.26793 0.0
C531 C 0.12293 0.5828 0.26085 0.0
C532 C 0.1337 0.54633 0.25203 0.0
C533 C 0.12324 0.52666 0.24654 0.0
C534 C 0.12137 0.51034 0.25385 0.0
C535 C 0.13024 0.51343 0.26671 0.0
C536 C 0.14036 0.53316 0.27227 0.0
C537 C 0.14215 0.54946 0.26495 0.0
C538 C 0.12164 0.56059 0.22786 0.0
C539 C 0.1292 0.56404 0.2148 0.0
C540 C 0.11558 0.55829 0.2039 0.0
C541 C 0.09411 0.54902 0.20587 0.0
C542 C 0.08661 0.5458 0.21902 0.0
C543 C 0.1003 0.55155 0.22993 0.0
P544 P 0.45699 0.52451 0.26607 0.0
H545 H 0.48308 0.54346 0.28966 0.0
H546 H 0.50374 0.57857 0.29735 0.0
H547 H 0.48318 0.59797 0.26305 0.0
H548 H 0.4627 0.56263 0.2553 0.0
H549 H 0.41841 0.49074 0.25502 0.0
H550 H 0.3832 0.47222 0.26368 0.0
H551 H 0.40215 0.51312 0.29776 0.0
H552 H 0.43721 0.53185 0.28893 0.0
H553 H 0.48874 0.52207 0.25096 0.0
H554 H 0.43408 0.52552 0.24215 0.0
O555 O 0.4665 0.51144 0.27358 0.0
H556 H 0.49452 0.52032 0.22718 0.0
H557 H 0.43925 0.52295 0.21817 0.0
C558 C 0.47168 0.55049 0.27178 0.0
C559 C 0.48305 0.55525 0.28376 0.0
C560 C 0.49472 0.57535 0.28822 0.0
C561 C 0.49517 0.59112 0.2808 0.0
C562 C 0.48341 0.58622 0.2689 0.0
C563 C 0.47166 0.56604 0.26447 0.0
C564 C 0.43033 0.51314 0.27106 0.0
C565 C 0.41486 0.49618 0.2641 0.0
C566 C 0.39475 0.48552 0.2691 0.0
C567 C 0.38993 0.49129 0.28137 0.0
C568 C 0.40543 0.50835 0.28828 0.0
C569 C 0.42544 0.51917 0.28317 0.0
C570 C 0.46061 0.52324 0.24833 0.0
C571 C 0.47778 0.52214 0.24388 0.0
C572 C 0.48101 0.52105 0.23024 0.0
C573 C 0.46714 0.52107 0.22069 0.0
C574 C 0.45025 0.52287 0.22521 0.0
C575 C 0.44713 0.52411 0.23892 0.0
Gd576 Gd 0.50677 0.01113 0.02402 0.0
Gd577 Gd 0.48691 0.98322 0.9917 0.0
C578 C 0.42288 0.92663 0.98833 0.0
C579 C 0.43134 0.90031 0.9835 0.0
C580 C 0.45868 0.93541 0.98623 0.0
C581 C 0.44416 0.94115 0.98868 0.0
C582 C 0.45246 0.91501 0.98327 0.0
C583 C 0.41657 0.90611 0.98605 0.0
C584 C 0.40859 0.93324 0.98992 0.0
C585 C 0.41565 0.95394 0.99127 0.0
N586 N 0.45083 0.96112 0.99071 0.0
C587 C 0.43693 0.96777 0.99144 0.0
H588 H 0.44212 0.98369 0.99257 0.0
C589 C 0.49361 0.94555 0.9819 0.0
N590 N 0.47888 0.95003 0.98598 0.0
C591 C 0.48823 0.92552 0.97892 0.0
C592 C 0.46759 0.91012 0.97979 0.0
H593 H 0.50961 0.95738 0.98132 0.0
H594 H 0.4003 0.8947 0.98588 0.0
H595 H 0.55092 0.00936 0.02426 0.0
H596 H 0.3921 0.92257 0.98978 0.0
H597 H 0.40473 0.95927 0.99224 0.0
H598 H 0.42625 0.88452 0.98139 0.0
H599 H 0.48446 0.03814 0.0324 0.0
H600 H 0.60163 0.06938 0.03029 0.0
H601 H 0.58826 0.03274 0.02682 0.0
H602 H 0.56889 0.10931 0.03542 0.0
H603 H 0.50001 0.92196 0.976 0.0
H604 H 0.46345 0.89463 0.97744 0.0
H605 H 0.59435 0.09804 0.03275 0.0
H606 H 0.49468 0.07383 0.03738 0.0
N607 N 0.5429 0.03247 0.02576 0.0
C608 C 0.58516 0.05921 0.02893 0.0
C609 C 0.57766 0.03852 0.02708 0.0
C610 C 0.57128 0.06646 0.02941 0.0
C611 C 0.54994 0.05249 0.02794 0.0
C612 C 0.55638 0.02528 0.02564 0.0
N613 N 0.51529 0.04462 0.02915 0.0
C614 C 0.53567 0.05879 0.0296 0.0
C615 C 0.50637 0.06982 0.03516 0.0
C616 C 0.52726 0.08475 0.03509 0.0
C617 C 0.50064 0.04965 0.03238 0.0
C618 C 0.54225 0.07928 0.03254 0.0
H619 H 0.53168 0.10035 0.03736 0.0
O620 O 0.49217 0.00728 0.04335 0.0
O621 O 0.48086 0.9854 0.01316 0.0
O622 O 0.47873 0.00803 0.9949 0.0
O623 O 0.50383 0.03186 0.00946 0.0
O624 O 0.47282 0.00085 0.02657 0.0
O625 O 0.51657 9e-05 0.04084 0.0
O626 O 0.50166 0.98857 0.9723 0.0
O627 O 0.51294 0.00874 1.00265 0.0
O628 O 0.51477 0.98617 0.02111 0.0
O629 O 0.4912 0.96258 0.00563 0.0
O630 O 0.52086 0.99356 0.98895 0.0
O631 O 0.47572 0.99335 0.9751 0.0
C632 C 0.46564 0.98555 0.01842 0.0
C633 C 0.56351 0.09346 0.03328 0.0
C634 C 0.57801 0.08705 0.03177 0.0
C635 C 0.50404 0.00163 0.04919 0.0
C636 C 0.51293 0.01121 0.06226 0.0
C637 C 0.52827 0.03169 0.06314 0.0
C638 C 0.50605 -0.00024 0.07399 0.0
C639 C 0.51452 0.00872 0.08658 0.0
C640 C 0.53665 0.04069 0.07553 0.0
C641 C 0.52986 0.02936 0.08717 0.0
C642 C 0.48958 0.02669 0.99997 0.0
C643 C 0.5281 0.00847 0.99741 0.0
C644 C 0.48875 0.99301 0.96661 0.0
C645 C 0.48011 0.98308 0.95358 0.0
C646 C 0.46504 0.96249 0.95288 0.0
C647 C 0.48698 0.99423 0.94173 0.0
C648 C 0.47877 0.98484 0.92919 0.0
C649 C 0.45697 0.95306 0.94054 0.0
C650 C 0.46375 0.96408 0.92878 0.0
C651 C 0.50501 0.96784 0.01543 0.0
H652 H 0.53375 0.04071 0.05426 0.0
H653 H 0.49434 0.98387 0.07327 0.0
H654 H 0.54843 0.05655 0.07614 0.0
H655 H 0.53644 0.03687 0.09667 0.0
H656 H 0.45953 0.9537 0.96186 0.0
H657 H 0.49847 0.01021 0.94231 0.0
H658 H 0.44542 0.93711 0.94008 0.0
H659 H 0.45739 0.95624 0.91935 0.0
Gd660 Gd 0.97888 0.49119 0.02253 0.0
Gd661 Gd 0.01122 0.50009 0.99253 0.0
C662 C 0.06924 0.49435 0.99348 0.0
C663 C 0.09658 0.52929 0.99088 0.0
C664 C 0.06054 0.52072 0.99086 0.0
C665 C 0.05441 0.50061 0.99281 0.0
C666 C 0.08166 0.53525 0.98955 0.0
C667 C 0.09038 0.50886 0.99286 0.0
C668 C 0.06235 0.47363 0.99436 0.0
C669 C 0.04115 0.45973 0.99408 0.0
N670 N 0.03385 0.487 0.99326 0.0
C671 C 0.02704 0.4667 0.99335 0.0
H672 H 0.01072 0.45578 0.99324 0.0
C673 C 0.0508 0.54503 0.98584 0.0
N674 N 0.0457 0.52588 0.98949 0.0
C675 C 0.07155 0.56003 0.98451 0.0
C676 C 0.08708 0.55518 0.98654 0.0
H677 H 0.03885 0.54888 0.98436 0.0
H678 H 0.10201 0.50438 0.99353 0.0
H679 H 0.97906 0.53526 0.02203 0.0
H680 H 0.07323 0.46819 0.99493 0.0
H681 H 0.03564 0.44365 0.9945 0.0
H682 H 0.11291 0.54026 0.99005 0.0
H683 H 0.95175 0.44204 0.03003 0.0
H684 H 0.91646 0.52259 0.02294 0.0
H685 H 0.95402 0.54726 0.02223 0.0
H686 H 0.87734 0.45046 0.02726 0.0
H687 H 0.07556 0.5753 0.98195 0.0
H688 H 0.10314 0.5668 0.98546 0.0
H689 H 0.88791 0.48638 0.02443 0.0
H690 H 0.91526 0.41547 0.03292 0.0
N691 N 0.95605 0.50401 0.02236 0.0
C692 C 0.92742 0.51722 0.02281 0.0
C693 C 0.94859 0.53118 0.02244 0.0
C694 C 0.92066 0.49651 0.0234 0.0
C695 C 0.93557 0.49033 0.02331 0.0
C696 C 0.96277 0.52429 0.02234 0.0
N697 N 0.94458 0.46511 0.02574 0.0
C698 C 0.92963 0.47019 0.02498 0.0
C699 C 0.91908 0.43078 0.03064 0.0
C700 C 0.90342 0.4356 0.0293 0.0
C701 C 0.93972 0.44587 0.02903 0.0
C702 C 0.90861 0.45558 0.02667 0.0
H703 H 0.88744 0.42391 0.03063 0.0
O704 O 0.98159 0.4814 0.04234 0.0
O705 O 0.00628 0.49153 0.01383 0.0
O706 O 0.98549 0.46712 0.99427 0.0
O707 O 0.95955 0.4676 0.00693 0.0
O708 O 0.98913 0.46837 0.02672 0.0
O709 O 0.98703 0.51184 0.03955 0.0
O710 O 0.00862 0.50987 0.97269 0.0
O711 O 0.98388 0.49986 1.00125 0.0
O712 O 0.00453 0.52424 0.02082 0.0
O713 O 0.03044 0.52388 0.00803 0.0
O714 O 0.00095 0.52291 0.98827 0.0
O715 O 0.00357 0.47958 0.97548 0.0
C716 C 0.00543 0.47645 0.01944 0.0
C717 C 0.89358 0.46149 0.0261 0.0
C718 C 0.89961 0.48194 0.02448 0.0
C719 C 0.98541 0.49836 0.0481 0.0
C720 C 0.97381 0.49655 0.06032 0.0
C721 C 0.95274 0.49053 0.05976 0.0
C722 C 0.98396 0.50065 0.07275 0.0
C723 C 0.97317 0.49863 0.08469 0.0
C724 C 0.94192 0.48853 0.07151 0.0
C725 C 0.952 0.49251 0.08391 0.0
C726 C 0.96596 0.45884 0.99816 0.0
C727 C 0.98471 0.51493 0.99561 0.0
C728 C 0.00524 0.49306 0.96691 0.0
C729 C 0.01746 0.4953 0.95491 0.0
C730 C 0.03827 0.50049 0.95599 0.0
C731 C 0.00835 0.49278 0.94221 0.0
C732 C 0.02002 0.49566 0.93059 0.0
C733 C 0.04992 0.5033 0.94451 0.0
C734 C 0.04091 0.50098 0.93188 0.0
C735 C 0.02407 0.53253 0.01691 0.0
H736 H 0.94467 0.48732 0.05028 0.0
H737 H 0.00033 0.50559 0.07309 0.0
H738 H 0.92562 0.48378 0.07102 0.0
H739 H 0.94315 0.49051 0.09288 0.0
H740 H 0.04553 0.50242 0.96566 0.0
H741 H 0.9923 0.48896 0.9414 0.0
H742 H 0.06598 0.50731 0.94541 0.0
H743 H 0.05021 0.50311 0.92311 0.0
Gd744 Gd 0.4835 0.50018 0.99276 0.0
Gd745 Gd 0.50776 0.49346 0.02327 0.0
C746 C 0.57184 0.49965 0.02287 0.0
C747 C 0.56373 0.46494 0.02633 0.0
C748 C 0.53628 0.47327 0.02587 0.0
C749 C 0.55059 0.4933 0.02353 0.0
C750 C 0.54269 0.45892 0.0276 0.0
C751 C 0.57828 0.48528 0.02396 0.0
C752 C 0.58602 0.52031 0.02151 0.0
C753 C 0.5789 0.5341 0.02129 0.0
N754 N 0.54382 0.50676 0.0226 0.0
C755 C 0.55766 0.52705 0.02203 0.0
H756 H 0.55242 0.53789 0.02174 0.0
C757 C 0.50176 0.44899 0.03104 0.0
N758 N 0.51614 0.46803 0.02713 0.0
C759 C 0.50734 0.43417 0.03278 0.0
C760 C 0.52785 0.43908 0.03089 0.0
H761 H 0.48586 0.44509 0.03241 0.0
H762 H 0.59452 0.48983 0.02331 0.0
H763 H 0.4391 0.45558 0.99492 0.0
H764 H 0.60247 0.52581 0.02092 0.0
H765 H 0.58976 0.55015 0.02048 0.0
H766 H 0.56895 0.4541 0.02748 0.0
H767 H 0.50488 0.54809 0.98285 0.0
H768 H 0.38856 0.46692 0.99466 0.0
H769 H 0.40171 0.44298 0.99597 0.0
H770 H 0.42134 0.53824 0.98675 0.0
H771 H 0.49581 0.41897 0.03556 0.0
H772 H 0.53214 0.42759 0.03228 0.0
H773 H 0.39608 0.50262 0.99147 0.0
H774 H 0.49451 0.5737 0.9788 0.0
N775 N 0.44737 0.48657 0.9934 0.0
C776 C 0.40506 0.47259 0.99421 0.0
C777 C 0.41241 0.45902 0.99491 0.0
C778 C 0.41904 0.49322 0.99253 0.0
C779 C 0.44036 0.49979 0.99203 0.0
C780 C 0.4337 0.46627 0.9943 0.0
N781 N 0.4747 0.52516 0.98833 0.0
C782 C 0.4545 0.51976 0.98942 0.0
C783 C 0.48311 0.55861 0.98184 0.0
C784 C 0.46252 0.55355 0.98356 0.0
C785 C 0.48892 0.54407 0.9841 0.0
C786 C 0.44785 0.53383 0.98719 0.0
H787 H 0.45804 0.56482 0.98177 0.0
O788 O 0.49594 0.5087 0.97279 0.0
O789 O 0.51096 0.50077 1.00175 0.0
O790 O 0.51557 0.52617 0.02055 0.0
O791 O 0.48931 0.52535 0.00729 0.0
O792 O 0.51689 0.52305 0.98818 0.0
O793 O 0.47048 0.47842 0.97631 0.0
O794 O 0.49543 0.48471 0.04323 0.0
O795 O 0.48043 0.4932 0.01434 0.0
O796 O 0.47575 0.46746 0.9956 0.0
O797 O 0.50273 0.46904 0.00838 0.0
O798 O 0.4743 0.47078 0.02782 0.0
O799 O 0.5212 0.51488 0.03989 0.0
C800 C 0.52528 0.51561 0.9958 0.0
C801 C 0.42675 0.52761 0.98828 0.0
C802 C 0.41237 0.50733 0.99096 0.0
C803 C 0.4825 0.49132 0.96745 0.0
C804 C 0.47263 0.49212 0.95492 0.0
C805 C 0.45601 0.49576 0.95499 0.0
C806 C 0.48021 0.48948 0.9427 0.0
C807 C 0.47126 0.4904 0.93049 0.0
C808 C 0.44704 0.49673 0.94296 0.0
C809 C 0.45458 0.49408 0.93078 0.0
C810 C 0.50472 0.53441 0.01608 0.0
C811 C 0.46604 0.47846 0.02031 0.0
C812 C 0.50915 0.50188 0.0487 0.0
C813 C 0.5191 0.50048 0.06102 0.0
C814 C 0.53477 0.4955 0.06051 0.0
C815 C 0.51249 0.50374 0.07347 0.0
C816 C 0.52139 0.50191 0.08545 0.0
C817 C 0.54368 0.49366 0.0723 0.0
C818 C 0.53704 0.49676 0.08468 0.0
C819 C 0.48721 0.4597 0.99972 0.0
H820 H 0.44997 0.49784 0.96431 0.0
H821 H 0.49328 0.48697 0.94271 0.0
H822 H 0.43417 0.49949 0.94306 0.0
H823 H 0.44715 0.49463 0.9216 0.0
H824 H 0.54005 0.49295 0.05103 0.0
H825 H 0.50054 0.50783 0.07376 0.0
H826 H 0.55569 0.48968 0.07184 0.0
H827 H 0.54397 0.49481 0.09365 0.0
Gd828 Gd 0.17226 0.34483 0.35616 0.0
Gd829 Gd 0.15069 0.31529 0.32448 0.0
C830 C 0.08644 0.25879 0.32276 0.0
C831 C 0.09455 0.23211 0.31847 0.0
C832 C 0.12209 0.26727 0.32019 0.0
C833 C 0.10774 0.27324 0.32263 0.0
C834 C 0.11566 0.2467 0.31773 0.0
C835 C 0.07996 0.23814 0.32101 0.0
C836 C 0.07229 0.26559 0.32428 0.0
C837 C 0.07949 0.28637 0.32509 0.0
N838 N 0.11457 0.29332 0.32417 0.0
C839 C 0.10078 0.30011 0.32482 0.0
H840 H 0.10609 0.31609 0.32554 0.0
C841 C 0.15676 0.27698 0.31536 0.0
N842 N 0.14228 0.28178 0.31947 0.0
C843 C 0.15119 0.25678 0.31285 0.0
C844 C 0.13058 0.24152 0.31423 0.0
H845 H 0.17274 0.28871 0.3144 0.0
H846 H 0.06368 0.22679 0.32123 0.0
H847 H 0.21701 0.34416 0.35591 0.0
H848 H 0.0558 0.25499 0.3245 0.0
H849 H 0.06867 0.29182 0.32599 0.0
H850 H 0.08931 0.21619 0.31676 0.0
H851 H 0.14977 0.37139 0.36537 0.0
H852 H 0.26716 0.40528 0.35742 0.0
H853 H 0.2544 0.36846 0.35601 0.0
H854 H 0.23329 0.44395 0.36414 0.0
H855 H 0.16278 0.25298 0.30991 0.0
H856 H 0.12628 0.22589 0.31225 0.0
H857 H 0.25911 0.43341 0.36028 0.0
H858 H 0.15953 0.40711 0.36966 0.0
N859 N 0.20838 0.36686 0.35693 0.0
C860 C 0.25067 0.39465 0.35741 0.0
C861 C 0.24352 0.37389 0.35665 0.0
C862 C 0.23644 0.40141 0.35859 0.0
C863 C 0.21513 0.38693 0.35844 0.0
C864 C 0.22223 0.36012 0.35661 0.0
N865 N 0.18047 0.37832 0.36103 0.0
C866 C 0.20069 0.39285 0.36059 0.0
C867 C 0.17126 0.40332 0.36707 0.0
C868 C 0.19193 0.41858 0.36603 0.0
C869 C 0.1658 0.38312 0.36468 0.0
C870 C 0.207 0.41342 0.36295 0.0
H871 H 0.19614 0.43421 0.36791 0.0
O872 O 0.15869 0.34134 0.37584 0.0
O873 O 0.14577 0.31873 0.34596 0.0
O874 O 0.14285 0.34041 0.32736 0.0
O875 O 0.16837 0.36483 0.34147 0.0
O876 O 0.13848 0.33473 0.35941 0.0
O877 O 0.18313 0.33436 0.37271 0.0
O878 O 0.16476 0.31978 0.30491 0.0
O879 O 0.1772 0.34124 0.33472 0.0
O880 O 0.18052 0.32008 0.35325 0.0
O881 O 0.15574 0.29549 0.33879 0.0
O882 O 0.18443 0.32539 0.32105 0.0
O883 O 0.13882 0.32457 0.30778 0.0
C884 C 0.13087 0.31922 0.35144 0.0
C885 C 0.22813 0.42804 0.36249 0.0
C886 C 0.24283 0.42204 0.3603 0.0
C887 C 0.17097 0.33592 0.38136 0.0
C888 C 0.18044 0.34568 0.39427 0.0
C889 C 0.19688 0.36572 0.39484 0.0
C890 C 0.17316 0.33471 0.40615 0.0
C891 C 0.18243 0.34363 0.41858 0.0
C892 C 0.20605 0.3747 0.4071 0.0
C893 C 0.19895 0.36377 0.41889 0.0
C894 C 0.15382 0.35925 0.33213 0.0
C895 C 0.19205 0.3407 0.3292 0.0
C896 C 0.15167 0.324 0.29924 0.0
C897 C 0.14281 0.31374 0.28633 0.0
C898 C 0.12794 0.29308 0.28583 0.0
C899 C 0.14942 0.32466 0.27438 0.0
C900 C 0.14116 0.31499 0.26192 0.0
C901 C 0.11979 0.28338 0.27357 0.0
C902 C 0.12633 0.29417 0.2617 0.0
C903 C 0.1703 0.30137 0.34817 0.0
H904 H 0.20267 0.37437 0.38581 0.0
H905 H 0.16056 0.31915 0.40568 0.0
H906 H 0.21873 0.39019 0.40748 0.0
H907 H 0.20624 0.37117 0.42828 0.0
H908 H 0.12267 0.28447 0.2949 0.0
H909 H 0.16076 0.34069 0.27483 0.0
H910 H 0.10839 0.26738 0.27325 0.0
H911 H 0.11993 0.28611 0.25234 0.0
Gd912 Gd 0.64948 0.8253 0.35378 0.0
Gd913 Gd 0.68159 0.83508 0.3236 0.0
C914 C 0.73893 0.82829 0.32226 0.0
C915 C 0.76653 0.86316 0.31982 0.0
C916 C 0.73075 0.85521 0.32128 0.0
C917 C 0.72439 0.83493 0.32274 0.0
C918 C 0.75185 0.86953 0.31955 0.0
C919 C 0.76007 0.84256 0.32112 0.0
C920 C 0.73172 0.80746 0.32246 0.0
C921 C 0.71051 0.79385 0.323 0.0
N922 N 0.70383 0.82153 0.32364 0.0
C923 C 0.6967 0.80117 0.32344 0.0
H924 H 0.68037 0.79041 0.32378 0.0
C925 C 0.72135 0.8801 0.31749 0.0
N926 N 0.71611 0.86072 0.32064 0.0
C927 C 0.7421 0.89493 0.31591 0.0
C928 C 0.75746 0.88967 0.3171 0.0
H929 H 0.70951 0.88422 0.31657 0.0
H930 H 0.7715 0.83777 0.32088 0.0
H931 H 0.65004 0.86968 0.35375 0.0
H932 H 0.74236 0.80172 0.32195 0.0
H933 H 0.70477 0.7777 0.32303 0.0
H934 H 0.78284 0.87395 0.31862 0.0
H935 H 0.62198 0.77635 0.36154 0.0
H936 H 0.58754 0.85735 0.35299 0.0
H937 H 0.62513 0.88186 0.35312 0.0
H938 H 0.5479 0.78521 0.35742 0.0
H939 H 0.74623 0.91036 0.31375 0.0
H940 H 0.77351 0.90113 0.31575 0.0
H941 H 0.55877 0.82117 0.35438 0.0
H942 H 0.58533 0.74992 0.36418 0.0
N943 N 0.62688 0.83845 0.35362 0.0
C944 C 0.59842 0.85189 0.35328 0.0
C945 C 0.61962 0.86576 0.35339 0.0
C946 C 0.59152 0.83116 0.35395 0.0
C947 C 0.60634 0.82485 0.35423 0.0
C948 C 0.63372 0.85876 0.35375 0.0
N949 N 0.61506 0.79948 0.35693 0.0
C950 C 0.60022 0.80469 0.35593 0.0
C951 C 0.5893 0.76525 0.3618 0.0
C952 C 0.57375 0.77016 0.36014 0.0
C953 C 0.61002 0.78025 0.36034 0.0
C954 C 0.57913 0.79016 0.35739 0.0
H955 H 0.55771 0.75854 0.36133 0.0
O956 O 0.65196 0.81487 0.37343 0.0
O957 O 0.67691 0.82603 0.34479 0.0
O958 O 0.6559 0.80206 0.32493 0.0
O959 O 0.63007 0.80161 0.33824 0.0
O960 O 0.65996 0.80247 0.3574 0.0
O961 O 0.65771 0.84549 0.37104 0.0
O962 O 0.67932 0.84583 0.30403 0.0
O963 O 0.65419 0.83432 0.33258 0.0
O964 O 0.6752 0.8584 0.35242 0.0
O965 O 0.70096 0.85833 0.33932 0.0
O966 O 0.67124 0.85799 0.32001 0.0
O967 O 0.6734 0.81513 0.3062 0.0
C968 C 0.67622 0.81082 0.35009 0.0
C969 C 0.56421 0.79618 0.35646 0.0
C970 C 0.5704 0.81665 0.35474 0.0
C971 C 0.6559 0.83173 0.37941 0.0
C972 C 0.64426 0.82974 0.39164 0.0
C973 C 0.6233 0.82412 0.39107 0.0
C974 C 0.65428 0.83333 0.4041 0.0
C975 C 0.64348 0.83133 0.41602 0.0
C976 C 0.61245 0.82206 0.40283 0.0
C977 C 0.62243 0.82561 0.41524 0.0
C978 C 0.63649 0.79335 0.32911 0.0
C979 C 0.65493 0.84955 0.32727 0.0
C980 C 0.6754 0.82907 0.29792 0.0
C981 C 0.68734 0.83133 0.28578 0.0
C982 C 0.70813 0.83638 0.2866 0.0
C983 C 0.67793 0.82886 0.2732 0.0
C984 C 0.68927 0.83162 0.26144 0.0
C985 C 0.71946 0.83909 0.27499 0.0
C986 C 0.71015 0.8368 0.26247 0.0
C987 C 0.6947 0.86677 0.34843 0.0
H988 H 0.61534 0.82135 0.38157 0.0
H989 H 0.67043 0.83743 0.40449 0.0
H990 H 0.59627 0.81776 0.40233 0.0
H991 H 0.61374 0.82416 0.42421 0.0
H992 H 0.7156 0.83825 0.29618 0.0
H993 H 0.66189 0.82513 0.27258 0.0
H994 H 0.7355 0.84298 0.27569 0.0
H995 H 0.7192 0.83882 0.25359 0.0
Gd996 Gd 0.15178 0.83523 0.32504 0.0
Gd997 Gd 0.17505 0.82897 0.35615 0.0
C998 C 0.23943 0.83577 0.35696 0.0
C999 C 0.23158 0.80141 0.36147 0.0
C1000 C 0.2039 0.80934 0.36 0.0
C1001 C 0.21811 0.82926 0.35732 0.0
C1002 C 0.21048 0.79526 0.36244 0.0
C1003 C 0.24603 0.82164 0.35872 0.0
C1004 C 0.25348 0.85638 0.35524 0.0
C1005 C 0.24619 0.86999 0.35439 0.0
N1006 N 0.21118 0.84251 0.3558 0.0
C1007 C 0.2249 0.86279 0.35488 0.0
H1008 H 0.21954 0.8735 0.35413 0.0
C1009 C 0.1694 0.78516 0.36524 0.0
N1010 N 0.18371 0.80399 0.36097 0.0
C1011 C 0.17513 0.77062 0.36772 0.0
C1012 C 0.19573 0.7756 0.36614 0.0
H1013 H 0.15343 0.78119 0.36638 0.0
H1014 H 0.26232 0.8263 0.35832 0.0
H1015 H 0.10725 0.79085 0.32657 0.0
H1016 H 0.26997 0.862 0.35487 0.0
H1017 H 0.25694 0.88601 0.3533 0.0
H1018 H 0.23692 0.79077 0.36316 0.0
H1019 H 0.17416 0.88354 0.31568 0.0
H1020 H 0.05694 0.80241 0.32398 0.0
H1021 H 0.0698 0.77832 0.32624 0.0
H1022 H 0.09055 0.87389 0.31674 0.0
H1023 H 0.16367 0.75557 0.37081 0.0
H1024 H 0.20015 0.76433 0.3681 0.0
H1025 H 0.06483 0.83819 0.32079 0.0
H1026 H 0.16426 0.90937 0.3112 0.0
N1027 N 0.11572 0.82186 0.32492 0.0
C1028 C 0.07344 0.80802 0.3242 0.0
C1029 C 0.08064 0.79438 0.32543 0.0
C1030 C 0.08761 0.82868 0.32287 0.0
C1031 C 0.10893 0.83518 0.32314 0.0
C1032 C 0.10194 0.80157 0.32561 0.0
N1033 N 0.14356 0.86054 0.32031 0.0
C1034 C 0.12332 0.85519 0.32079 0.0
C1035 C 0.1526 0.89421 0.31394 0.0
C1036 C 0.13192 0.88917 0.31498 0.0
C1037 C 0.15814 0.87954 0.31645 0.0
C1038 C 0.11692 0.86937 0.31822 0.0
H1039 H 0.12764 0.90053 0.31296 0.0
O1040 O 0.16455 0.84381 0.30514 0.0
O1041 O 0.1789 0.83579 0.33455 0.0
O1042 O 0.18279 0.86157 0.35296 0.0
O1043 O 0.15637 0.85998 0.33956 0.0
O1044 O 0.18533 0.85795 0.32081 0.0
O1045 O 0.13927 0.8134 0.3086 0.0
O1046 O 0.16244 0.82069 0.37611 0.0
O1047 O 0.14783 0.82821 0.34661 0.0
O1048 O 0.14408 0.80255 0.32803 0.0
O1049 O 0.17009 0.80394 0.34181 0.0
O1050 O 0.14153 0.80613 0.3604 0.0
O1051 O 0.18779 0.85097 0.3725 0.0
C1052 C 0.19344 0.85047 0.32863 0.0
C1053 C 0.09577 0.86319 0.31858 0.0
C1054 C 0.08114 0.84287 0.32089 0.0
C1055 C 0.15132 0.82636 0.29977 0.0
C1056 C 0.14147 0.827 0.28718 0.0
C1057 C 0.12476 0.83052 0.28718 0.0
C1058 C 0.14895 0.82408 0.27499 0.0
C1059 C 0.13974 0.82455 0.26278 0.0
C1060 C 0.1156 0.83108 0.27514 0.0
C1061 C 0.12298 0.82811 0.26301 0.0
C1062 C 0.17165 0.8694 0.34838 0.0
C1063 C 0.13332 0.81342 0.35249 0.0
C1064 C 0.17588 0.83812 0.38142 0.0
C1065 C 0.18601 0.83733 0.39384 0.0
C1066 C 0.20279 0.83394 0.39346 0.0
C1067 C 0.17866 0.83976 0.40624 0.0
C1068 C 0.18798 0.83878 0.41828 0.0
C1069 C 0.21208 0.83289 0.40531 0.0
C1070 C 0.20475 0.83524 0.41763 0.0
C1071 C 0.15519 0.79472 0.33271 0.0
H1072 H 0.1188 0.83279 0.29646 0.0
H1073 H 0.16173 0.82114 0.27504 0.0
H1074 H 0.10273 0.83386 0.2752 0.0
H1075 H 0.11572 0.82883 0.2538 0.0
H1076 H 0.20869 0.83208 0.38404 0.0
H1077 H 0.16583 0.84262 0.40647 0.0
H1078 H 0.22496 0.83014 0.40494 0.0
H1079 H 0.21205 0.834 0.42666 0.0
Gd1080 Gd 0.84026 0.67755 0.69092 0.0
Gd1081 Gd 0.81821 0.6487 0.65907 0.0
C1082 C 0.75416 0.59194 0.6571 0.0
C1083 C 0.7625 0.56558 0.65213 0.0
C1084 C 0.78986 0.60077 0.65423 0.0
C1085 C 0.77543 0.60651 0.657 0.0
C1086 C 0.78356 0.5803 0.65145 0.0
C1087 C 0.74781 0.57139 0.65497 0.0
C1088 C 0.73991 0.59854 0.65899 0.0
C1089 C 0.74697 0.61925 0.6602 0.0
N1090 N 0.78213 0.62651 0.6589 0.0
C1091 C 0.76823 0.63312 0.65993 0.0
H1092 H 0.77341 0.64905 0.66095 0.0
C1093 C 0.82458 0.61085 0.64924 0.0
N1094 N 0.81001 0.6154 0.65356 0.0
C1095 C 0.81914 0.59076 0.64644 0.0
C1096 C 0.79857 0.57537 0.64771 0.0
H1097 H 0.84053 0.62269 0.64834 0.0
H1098 H 0.73156 0.55994 0.65515 0.0
H1099 H 0.8853 0.6775 0.68979 0.0
H1100 H 0.72344 0.58783 0.6592 0.0
H1101 H 0.73606 0.62455 0.6614 0.0
H1102 H 0.75736 0.54974 0.65015 0.0
H1103 H 0.81725 0.70342 0.70063 0.0
H1104 H 0.93498 0.73877 0.69236 0.0
H1105 H 0.92261 0.70211 0.69003 0.0
H1106 H 0.90042 0.77651 0.70035 0.0
H1107 H 0.8308 0.58716 0.64332 0.0
H1108 H 0.79438 0.55982 0.6455 0.0
H1109 H 0.92654 0.76648 0.69608 0.0
H1110 H 0.82663 0.73889 0.70548 0.0
N1111 N 0.87633 0.69987 0.69164 0.0
C1112 C 0.91852 0.728 0.69229 0.0
C1113 C 0.9116 0.70732 0.69101 0.0
C1114 C 0.90412 0.73448 0.69385 0.0
C1115 C 0.88287 0.71983 0.69359 0.0
C1116 C 0.89035 0.69338 0.69089 0.0
N1117 N 0.84808 0.71079 0.69628 0.0
C1118 C 0.86826 0.72547 0.69599 0.0
C1119 C 0.83849 0.73534 0.70277 0.0
C1120 C 0.85911 0.75077 0.70194 0.0
C1121 C 0.83324 0.71528 0.70007 0.0
C1122 C 0.87435 0.74591 0.6987 0.0
H1123 H 0.86315 0.7663 0.70407 0.0
O1124 O 0.8269 0.67334 0.71072 0.0
O1125 O 0.81376 0.65151 0.6807 0.0
O1126 O 0.81003 0.67345 0.66269 0.0
O1127 O 0.83591 0.69775 0.67665 0.0
O1128 O 0.80645 0.66689 0.69463 0.0
O1129 O 0.85167 0.66696 0.7071 0.0
O1130 O 0.83149 0.65326 0.63924 0.0
O1131 O 0.84479 0.67453 0.66934 0.0
O1132 O 0.84892 0.65318 0.6873 0.0
O1133 O 0.8238 0.62878 0.67292 0.0
O1134 O 0.85196 0.6594 0.65508 0.0
O1135 O 0.80617 0.65876 0.64294 0.0
C1136 C 0.79886 0.65159 0.68648 0.0
C1137 C 0.89543 0.7607 0.69842 0.0
C1138 C 0.9103 0.75499 0.69598 0.0
C1139 C 0.83948 0.66808 0.71595 0.0
C1140 C 0.849 0.67758 0.72891 0.0
C1141 C 0.86584 0.69741 0.72958 0.0
C1142 C 0.84128 0.6666 0.74074 0.0
C1143 C 0.85049 0.67529 0.75323 0.0
C1144 C 0.87496 0.70616 0.7419 0.0
C1145 C 0.86742 0.69521 0.75364 0.0
C1146 C 0.82106 0.69224 0.66753 0.0
C1147 C 0.85962 0.67444 0.66344 0.0
C1148 C 0.81845 0.65794 0.63403 0.0
C1149 C 0.80888 0.64799 0.62118 0.0
C1150 C 0.79241 0.62796 0.62076 0.0
C1151 C 0.81638 0.65861 0.6092 0.0
C1152 C 0.80748 0.64928 0.59678 0.0
C1153 C 0.78348 0.61863 0.60853 0.0
C1154 C 0.79089 0.62915 0.59663 0.0
C1155 C 0.83867 0.63457 0.68207 0.0
H1156 H 0.87195 0.70609 0.72059 0.0
H1157 H 0.82837 0.65121 0.74018 0.0
H1158 H 0.88795 0.72149 0.74236 0.0
H1159 H 0.87468 0.70244 0.76308 0.0
H1160 H 0.78644 0.61958 0.62986 0.0
H1161 H 0.82929 0.67402 0.60957 0.0
H1162 H 0.77069 0.60318 0.60827 0.0
H1163 H 0.78342 0.6216 0.58731 0.0
Gd1164 Gd 0.31505 0.15888 0.68779 0.0
Gd1165 Gd 0.34578 0.16757 0.65711 0.0
C1166 C 0.40253 0.15976 0.65558 0.0
C1167 C 0.43032 0.19428 0.65215 0.0
C1168 C 0.39477 0.18691 0.65405 0.0
C1169 C 0.38823 0.16671 0.65604 0.0
C1170 C 0.41583 0.20088 0.65181 0.0
C1171 C 0.42367 0.17373 0.65397 0.0
C1172 C 0.39506 0.13891 0.65619 0.0
C1173 C 0.37382 0.12556 0.65701 0.0
N1174 N 0.36765 0.15359 0.65727 0.0
C1175 C 0.36026 0.13317 0.65737 0.0
H1176 H 0.3439 0.12259 0.65791 0.0
C1177 C 0.38559 0.21179 0.64959 0.0
N1178 N 0.38028 0.19261 0.65332 0.0
C1179 C 0.40632 0.22627 0.64745 0.0
C1180 C 0.42155 0.22087 0.64873 0.0
H1181 H 0.37385 0.21603 0.64861 0.0
H1182 H 0.43491 0.16871 0.65373 0.0
H1183 H 0.31526 0.20299 0.68761 0.0
H1184 H 0.4055 0.13293 0.65571 0.0
H1185 H 0.36787 0.10939 0.65731 0.0
H1186 H 0.4466 0.2048 0.65056 0.0
H1187 H 0.28827 0.1099 0.6957 0.0
H1188 H 0.2527 0.19034 0.68944 0.0
H1189 H 0.29021 0.215 0.68822 0.0
H1190 H 0.21378 0.1183 0.69426 0.0
H1191 H 0.41052 0.24157 0.6448 0.0
H1192 H 0.43757 0.23206 0.64696 0.0
H1193 H 0.22423 0.15417 0.6913 0.0
H1194 H 0.25191 0.08339 0.69923 0.0
N1195 N 0.29226 0.17175 0.68811 0.0
C1196 C 0.26365 0.18497 0.6891 0.0
C1197 C 0.2848 0.19892 0.68846 0.0
C1198 C 0.25692 0.16427 0.68971 0.0
C1199 C 0.27182 0.15807 0.68933 0.0
C1200 C 0.29898 0.19203 0.68812 0.0
N1201 N 0.28091 0.13287 0.69157 0.0
C1202 C 0.26594 0.13796 0.69108 0.0
C1203 C 0.25563 0.09867 0.6969 0.0
C1204 C 0.23993 0.10347 0.69584 0.0
C1205 C 0.2762 0.11371 0.69492 0.0
C1206 C 0.24501 0.12339 0.69313 0.0
H1207 H 0.22402 0.09182 0.69745 0.0
O1208 O 0.3181 0.149 0.70752 0.0
O1209 O 0.34221 0.1594 0.67847 0.0
O1210 O 0.31993 0.13471 0.65906 0.0
O1211 O 0.29477 0.13524 0.6725 0.0
O1212 O 0.32566 0.13614 0.69136 0.0
O1213 O 0.32401 0.17961 0.70479 0.0
O1214 O 0.34413 0.17776 0.63717 0.0
O1215 O 0.31895 0.16755 0.66648 0.0
O1216 O 0.34061 0.19187 0.68594 0.0
O1217 O 0.36581 0.19174 0.67226 0.0
O1218 O 0.33557 0.19056 0.65339 0.0
O1219 O 0.33535 0.14641 0.6403 0.0
C1220 C 0.34173 0.14435 0.68388 0.0
C1221 C 0.22997 0.1293 0.69282 0.0
C1222 C 0.23592 0.14972 0.69114 0.0
C1223 C 0.32233 0.16607 0.71331 0.0
C1224 C 0.31102 0.16456 0.72564 0.0
C1225 C 0.29035 0.15992 0.72517 0.0
C1226 C 0.32113 0.16789 0.73805 0.0
C1227 C 0.31071 0.1667 0.75001 0.0
C1228 C 0.27987 0.15865 0.73697 0.0
C1229 C 0.28995 0.16203 0.74932 0.0
C1230 C 0.30064 0.12647 0.6634 0.0
C1231 C 0.31966 0.18268 0.66102 0.0
C1232 C 0.33854 0.16021 0.63157 0.0
C1233 C 0.34989 0.16042 0.61953 0.0
C1234 C 0.36984 0.16311 0.62059 0.0
C1235 C 0.34057 0.15753 0.60685 0.0
C1236 C 0.35106 0.15712 0.59528 0.0
C1237 C 0.38037 0.16287 0.60918 0.0
C1238 C 0.37108 0.15986 0.5966 0.0
C1239 C 0.35992 0.20022 0.68159 0.0
H1240 H 0.28232 0.15735 0.71574 0.0
H1241 H 0.33721 0.17172 0.73835 0.0
H1242 H 0.26389 0.15502 0.73654 0.0
H1243 H 0.28143 0.16077 0.75834 0.0
H1244 H 0.37723 0.1653 0.6302 0.0
H1245 H 0.32506 0.15526 0.60603 0.0
H1246 H 0.39579 0.165 0.61009 0.0
H1247 H 0.37965 0.1599 0.58787 0.0
Gd1248 Gd 0.81883 0.16825 0.65842 0.0
Gd1249 Gd 0.84319 0.16221 0.68909 0.0
C1250 C 0.90777 0.16951 0.689 0.0
C1251 C 0.90027 0.13514 0.69309 0.0
C1252 C 0.8724 0.14285 0.69223 0.0
C1253 C 0.88644 0.16285 0.68961 0.0
C1254 C 0.87917 0.12884 0.69433 0.0
C1255 C 0.91455 0.15545 0.69041 0.0
C1256 C 0.92167 0.19019 0.6874 0.0
C1257 C 0.91423 0.2037 0.68695 0.0
N1258 N 0.87934 0.17602 0.68842 0.0
C1259 C 0.89293 0.19636 0.68766 0.0
H1260 H 0.88745 0.20699 0.68721 0.0
C1261 C 0.83807 0.1184 0.69766 0.0
N1262 N 0.85219 0.13735 0.69345 0.0
C1263 C 0.84401 0.10392 0.69981 0.0
C1264 C 0.8646 0.10908 0.69796 0.0
H1265 H 0.8221 0.1143 0.69899 0.0
H1266 H 0.93085 0.16024 0.68981 0.0
H1267 H 0.77484 0.12331 0.66065 0.0
H1268 H 0.93817 0.19591 0.68684 0.0
H1269 H 0.92488 0.21978 0.68598 0.0
H1270 H 0.90576 0.12456 0.69451 0.0
H1271 H 0.83957 0.21605 0.64835 0.0
H1272 H 0.72373 0.1338 0.66053 0.0
H1273 H 0.73736 0.11024 0.66181 0.0
H1274 H 0.75557 0.20501 0.65247 0.0
H1275 H 0.83269 0.0888 0.70285 0.0
H1276 H 0.86917 0.09786 0.69966 0.0
H1277 H 0.73071 0.16931 0.65727 0.0
H1278 H 0.82868 0.24128 0.64431 0.0
N1279 N 0.78265 0.15417 0.65908 0.0
C1280 C 0.74025 0.13966 0.66001 0.0
C1281 C 0.74788 0.12631 0.6607 0.0
C1282 C 0.754 0.16033 0.65827 0.0
C1283 C 0.77538 0.16717 0.65772 0.0
C1284 C 0.76921 0.13382 0.66003 0.0
N1285 N 0.80956 0.19288 0.65395 0.0
C1286 C 0.7893 0.1872 0.65508 0.0
C1287 C 0.81745 0.22615 0.6474 0.0
C1288 C 0.7968 0.22082 0.64918 0.0
C1289 C 0.82356 0.21183 0.64966 0.0
C1290 C 0.78235 0.20105 0.65286 0.0
H1291 H 0.79209 0.23192 0.64739 0.0
O1292 O 0.83164 0.17679 0.63855 0.0
O1293 O 0.84639 0.16912 0.6675 0.0
O1294 O 0.8506 0.19477 0.68616 0.0
O1295 O 0.82418 0.1934 0.67282 0.0
O1296 O 0.85216 0.19138 0.65394 0.0
O1297 O 0.80566 0.14673 0.64183 0.0
O1298 O 0.83113 0.15356 0.70914 0.0
O1299 O 0.81569 0.16141 0.68001 0.0
O1300 O 0.81167 0.1357 0.66125 0.0
O1301 O 0.83833 0.13749 0.67451 0.0
O1302 O 0.80981 0.13924 0.69363 0.0
O1303 O 0.85603 0.18409 0.70548 0.0
C1304 C 0.86064 0.18403 0.66155 0.0
C1305 C 0.76119 0.19456 0.654 0.0
C1306 C 0.74704 0.17423 0.65672 0.0
C1307 C 0.81802 0.1596 0.63307 0.0
C1308 C 0.80856 0.16091 0.6205 0.0
C1309 C 0.79267 0.16562 0.62051 0.0
C1310 C 0.81598 0.15795 0.6083 0.0
C1311 C 0.80772 0.15981 0.59607 0.0
C1312 C 0.78437 0.16747 0.60844 0.0
C1313 C 0.79184 0.16465 0.59629 0.0
C1314 C 0.83952 0.20271 0.68162 0.0
C1315 C 0.80138 0.14663 0.686 0.0
C1316 C 0.84444 0.17106 0.71442 0.0
C1317 C 0.85488 0.17047 0.72675 0.0
C1318 C 0.87202 0.16764 0.72623 0.0
C1319 C 0.84752 0.17267 0.7392 0.0
C1320 C 0.85726 0.17213 0.75115 0.0
C1321 C 0.88172 0.16702 0.73802 0.0
C1322 C 0.87443 0.16925 0.7504 0.0
C1323 C 0.82311 0.12807 0.66565 0.0
H1324 H 0.78675 0.16792 0.6298 0.0
H1325 H 0.82846 0.15456 0.60834 0.0
H1326 H 0.77209 0.1711 0.60849 0.0
H1327 H 0.78502 0.16599 0.58706 0.0
H1328 H 0.8779 0.16592 0.71675 0.0
H1329 H 0.83439 0.17506 0.73954 0.0
H1330 H 0.8949 0.16476 0.73756 0.0
H1331 H 0.8821 0.16845 0.75939 0.0
H1332 H 0.31458 0.86037 0.08608 0.0
H1333 H 0.34308 0.88703 0.07358 0.0
H1334 H 0.3246 0.84798 0.03861 0.0
H1335 H 0.29593 0.82122 0.05107 0.0
H1336 H 0.37524 0.88485 0.0625 0.0
H1337 H 0.33263 0.90075 0.02334 0.0
H1338 H 0.32023 0.88655 0.03812 0.0
H1339 H 0.32574 0.87461 0.0244 0.0
C1340 C 0.31651 0.85748 0.07571 0.0
C1341 C 0.30301 0.83865 0.06958 0.0
C1342 C 0.33277 0.87276 0.06856 0.0
C1343 C 0.33589 0.8696 0.05512 0.0
C1344 C 0.32225 0.85094 0.04888 0.0
H1345 H 0.45598 0.9458 0.01793 0.0
H1346 H 0.42366 0.91641 0.02499 0.0
C1347 C 0.30588 0.83564 0.05602 0.0
C1348 C 0.35419 0.88545 0.048 0.0
H1349 H 0.36914 0.91715 0.02132 0.0
C1350 C 0.3739 0.89188 0.05348 0.0
C1351 C 0.35241 0.89469 0.03627 0.0
C1352 C 0.33162 0.88897 0.03022 0.0
C1353 C 0.39184 0.90739 0.04766 0.0
C1354 C 0.39011 0.91647 0.03584 0.0
C1355 C 0.37043 0.91 0.03029 0.0
C1356 C 0.40851 0.93359 0.02966 0.0
C1357 C 0.41245 0.91437 0.05448 0.0
C1358 C 0.41038 0.95283 0.02934 0.0
C1359 C 0.42874 0.96959 0.0251 0.0
C1360 C 0.44543 0.96735 0.02094 0.0
C1361 C 0.44327 0.94796 0.02082 0.0
C1362 C 0.42487 0.93117 0.025 0.0
H1363 H 0.41061 0.90912 0.06496 0.0
H1364 H 0.42093 0.90811 0.04896 0.0
H1365 H 0.42207 0.93115 0.05453 0.0
H1366 H 0.39795 0.95503 0.0329 0.0
H1367 H 0.43011 0.98442 0.0254 0.0
H1368 H 0.12266 0.4102 0.05738 0.0
H1369 H 0.09838 0.42016 0.04894 0.0
H1370 H 0.14501 0.48313 0.05358 0.0
H1371 H 0.16965 0.47325 0.06191 0.0
H1372 H 0.08583 0.4455 0.06321 0.0
H1373 H 0.1223 0.47756 0.01435 0.0
H1374 H 0.12781 0.46049 0.0235 0.0
H1375 H 0.13871 0.48635 0.02901 0.0
C1376 C 0.12791 0.42619 0.05644 0.0
C1377 C 0.1482 0.44093 0.06023 0.0
C1378 C 0.11395 0.43185 0.05168 0.0
C1379 C 0.11994 0.45237 0.05048 0.0
C1380 C 0.14015 0.46719 0.05425 0.0
H1381 H 0.04634 0.50567 0.02232 0.0
H1382 H 0.07493 0.5009 0.02978 0.0
C1383 C 0.15415 0.46153 0.05912 0.0
C1384 C 0.10459 0.458 0.04579 0.0
H1385 H 0.0919 0.47826 0.01961 0.0
C1386 C 0.08719 0.45272 0.05369 0.0
C1387 C 0.10649 0.46758 0.03343 0.0
C1388 C 0.12474 0.47327 0.02449 0.0
C1389 C 0.07152 0.45658 0.04954 0.0
C1390 C 0.073 0.46549 0.03695 0.0
C1391 C 0.09069 0.47128 0.02919 0.0
C1392 C 0.05604 0.46836 0.0316 0.0
C1393 C 0.05362 0.45125 0.05877 0.0
C1394 C 0.03603 0.45164 0.02981 0.0
C1395 C 0.01975 0.45435 0.02556 0.0
C1396 C 0.02323 0.47376 0.02265 0.0
C1397 C 0.04331 0.49048 0.02418 0.0
C1398 C 0.05963 0.48778 0.02852 0.0
H1399 H 0.0578 0.45046 0.06933 0.0
H1400 H 0.04834 0.46249 0.05817 0.0
H1401 H 0.0405 0.43615 0.05585 0.0
H1402 H 0.03296 0.43647 0.03187 0.0
H1403 H 0.00436 0.44125 0.02456 0.0
H1404 H 0.56068 0.70343 0.07769 0.0
H1405 H 0.54689 0.66866 0.06933 0.0
H1406 H 0.55458 0.68966 0.02879 0.0
H1407 H 0.56857 0.72448 0.03708 0.0
H1408 H 0.51355 0.64374 0.05315 0.0
H1409 H 0.58716 0.66004 0.02925 0.0
H1410 H 0.58547 0.67761 0.04069 0.0
H1411 H 0.57721 0.67577 0.02357 0.0
C1412 C 0.55922 0.7006 0.067 0.0
C1413 C 0.56588 0.7167 0.05804 0.0
C1414 C 0.5514 0.68075 0.06224 0.0
C1415 C 0.55009 0.67664 0.04844 0.0
C1416 C 0.55595 0.69257 0.03947 0.0
H1417 H 0.48452 0.55561 0.01172 0.0
H1418 H 0.49499 0.59004 0.01928 0.0
C1419 C 0.5639 0.71243 0.04422 0.0
C1420 C 0.54301 0.65575 0.04348 0.0
H1421 H 0.55818 0.62746 0.02518 0.0
C1422 C 0.52328 0.64015 0.04703 0.0
C1423 C 0.55588 0.65108 0.03567 0.0
C1424 C 0.57769 0.66695 0.03216 0.0
C1425 C 0.516 0.62 0.0429 0.0
C1426 C 0.52866 0.61543 0.03479 0.0
C1427 C 0.54842 0.63103 0.0313 0.0
C1428 C 0.52209 0.59449 0.03018 0.0
C1429 C 0.49506 0.60373 0.04756 0.0
C1430 C 0.53411 0.58571 0.0335 0.0
C1431 C 0.52841 0.5662 0.02897 0.0
C1432 C 0.51058 0.55504 0.02096 0.0
C1433 C 0.49849 0.56384 0.0177 0.0
C1434 C 0.5043 0.58345 0.02217 0.0
H1435 H 0.48985 0.60881 0.05644 0.0
H1436 H 0.48351 0.59997 0.03942 0.0
H1437 H 0.49529 0.58972 0.05011 0.0
H1438 H 0.54792 0.59398 0.03964 0.0
H1439 H 0.53809 0.55995 0.03171 0.0
H1440 H 0.82833 0.27199 0.9737 0.0
H1441 H 0.85074 0.30657 0.98219 0.0
H1442 H 0.87157 0.3265 0.94215 0.0
H1443 H 0.84924 0.29198 0.9336 0.0
H1444 H 0.89307 0.32899 0.98054 0.0
H1445 H 0.85734 0.3687 0.95558 0.0
H1446 H 0.84445 0.34144 0.95666 0.0
H1447 H 0.86396 0.35441 0.94427 0.0
C1448 C 0.83761 0.28375 0.96669 0.0
C1449 C 0.83697 0.27922 0.95297 0.0
C1450 C 0.85036 0.30352 0.97155 0.0
C1451 C 0.86265 0.31917 0.96279 0.0
C1452 C 0.86187 0.31477 0.94907 0.0
H1453 H 0.97342 0.43266 0.98345 0.0
H1454 H 0.94816 0.39892 0.97495 0.0
C1455 C 0.84909 0.29501 0.94419 0.0
C1456 C 0.87715 0.33983 0.96812 0.0
H1457 H 0.89029 0.38954 0.96597 0.0
C1458 C 0.89239 0.34222 0.9774 0.0
C1459 C 0.87613 0.35705 0.96413 0.0
C1460 C 0.85947 0.35532 0.95471 0.0
C1461 C 0.90687 0.36139 0.98262 0.0
C1462 C 0.90632 0.37868 0.97826 0.0
C1463 C 0.89083 0.37627 0.96918 0.0
C1464 C 0.92159 0.39939 0.9831 0.0
C1465 C 0.92246 0.36291 0.99289 0.0
C1466 C 0.91499 0.41111 0.99015 0.0
C1467 C 0.92937 0.43048 0.99494 0.0
C1468 C 0.95067 0.43852 0.99277 0.0
C1469 C 0.95718 0.4269 0.98542 0.0
C1470 C 0.94277 0.40754 0.98062 0.0
H1471 H 0.91748 0.34812 0.99768 0.0
H1472 H 0.93745 0.36772 0.98792 0.0
H1473 H 0.92501 0.3743 1.0008 0.0
H1474 H 0.8987 0.40517 0.99207 0.0
H1475 H 0.92376 0.43914 1.00032 0.0
H1476 H 0.71154 0.58135 0.96033 0.0
H1477 H 0.67737 0.57176 0.96913 0.0
H1478 H 0.65557 0.50937 0.95829 0.0
H1479 H 0.68988 0.51882 0.94946 0.0
H1480 H 0.63661 0.54649 0.9518 0.0
H1481 H 0.64109 0.51383 1.00039 0.0
H1482 H 0.66404 0.53318 0.99233 0.0
H1483 H 0.65068 0.50797 0.98545 0.0
C1484 C 0.69959 0.56553 0.95995 0.0
C1485 C 0.7035 0.55083 0.95424 0.0
C1486 C 0.68004 0.56011 0.96494 0.0
C1487 C 0.66403 0.53986 0.96446 0.0
C1488 C 0.6678 0.52507 0.95884 0.0
H1489 H 0.53703 0.48684 0.99386 0.0
H1490 H 0.57055 0.49188 0.98642 0.0
C1491 C 0.68735 0.53051 0.95372 0.0
C1492 C 0.64316 0.53452 0.96931 0.0
H1493 H 0.61074 0.51503 0.9959 0.0
C1494 C 0.63089 0.53954 0.96141 0.0
C1495 C 0.63571 0.52529 0.98178 0.0
C1496 C 0.64848 0.51973 0.99058 0.0
C1497 C 0.61138 0.53572 0.9657 0.0
C1498 C 0.60419 0.52719 0.97843 0.0
C1499 C 0.6163 0.52172 0.98621 0.0
C1500 C 0.58435 0.52424 0.98388 0.0
C1501 C 0.59855 0.54063 0.95644 0.0
C1502 C 0.58112 0.5408 0.98531 0.0
C1503 C 0.56203 0.53794 0.98953 0.0
C1504 C 0.54596 0.51855 0.99279 0.0
C1505 C 0.54931 0.50202 0.99171 0.0
C1506 C 0.56841 0.50487 0.98738 0.0
H1507 H 0.60317 0.54103 0.94585 0.0
H1508 H 0.58181 0.52937 0.95726 0.0
H1509 H 0.60092 0.55581 0.95913 0.0
H1510 H 0.59331 0.55595 0.98296 0.0
H1511 H 0.55976 0.55088 0.99019 0.0
H1512 H 0.46705 0.14641 0.92307 0.0
H1513 H 0.46889 0.12011 0.93568 0.0
H1514 H 0.47052 0.15063 0.97263 0.0
H1515 H 0.46889 0.17717 0.96007 0.0
H1516 H 0.5012 0.12653 0.95319 0.0
H1517 H 0.42547 0.09122 0.97894 0.0
H1518 H 0.43096 0.10726 0.96461 0.0
H1519 H 0.44098 0.11829 0.98083 0.0
C1520 C 0.46778 0.14754 0.93388 0.0
C1521 C 0.46791 0.16395 0.94056 0.0
C1522 C 0.46873 0.13245 0.94107 0.0
C1523 C 0.46968 0.13334 0.95508 0.0
C1524 C 0.46943 0.14946 0.96182 0.0
H1525 H 0.51257 0.06773 0.00426 0.0
H1526 H 0.50738 0.09394 0.99422 0.0
C1527 C 0.46848 0.16461 0.95463 0.0
C1528 C 0.47209 0.11796 0.96253 0.0
H1529 H 0.44872 0.08003 0.98517 0.0
C1530 C 0.48975 0.11637 0.96019 0.0
C1531 C 0.45703 0.10466 0.97159 0.0
C1532 C 0.43744 0.10524 0.9741 0.0
C1533 C 0.4928 0.10187 0.96669 0.0
C1534 C 0.47791 0.08876 0.97589 0.0
C1535 C 0.46019 0.09026 0.9782 0.0
C1536 C 0.48017 0.0729 0.98279 0.0
C1537 C 0.51171 0.10035 0.96342 0.0
C1538 C 0.46623 0.05238 0.97999 0.0
C1539 C 0.46905 0.03734 0.98577 0.0
C1540 C 0.48582 0.04255 0.99453 0.0
C1541 C 0.49943 0.06315 0.99761 0.0
C1542 C 0.49659 0.07817 0.99181 0.0
H1543 H 0.51927 0.10852 0.95414 0.0
H1544 H 0.52311 0.10715 0.97176 0.0
H1545 H 0.50761 0.08427 0.96221 0.0
H1546 H 0.45343 0.04803 0.97307 0.0
H1547 H 0.45823 0.02164 0.98321 0.0
H1548 H 0.71626 0.13512 0.97148 0.0
H1549 H 0.68196 0.11325 0.98074 0.0
H1550 H 0.65398 0.12595 0.94725 0.0
H1551 H 0.68831 0.14755 0.93773 0.0
H1552 H 0.64955 0.12115 0.98778 0.0
H1553 H 0.62658 0.06342 0.94693 0.0
H1554 H 0.65307 0.08312 0.94973 0.0
H1555 H 0.63508 0.0889 0.9418 0.0
C1556 C 0.70281 0.13322 0.96605 0.0
C1557 C 0.70501 0.14288 0.95377 0.0
C1558 C 0.68324 0.12085 0.97141 0.0
C1559 C 0.66542 0.11778 0.96461 0.0
C1560 C 0.66753 0.12792 0.95258 0.0
H1561 H 0.53959 0.04875 0.99699 0.0
H1562 H 0.57296 0.07681 0.9899 0.0
C1563 C 0.68716 0.14037 0.94721 0.0
C1564 C 0.64471 0.10327 0.9699 0.0
H1565 H 0.60214 0.05696 0.96367 0.0
C1566 C 0.63908 0.10716 0.98249 0.0
C1567 C 0.63121 0.08497 0.96302 0.0
C1568 C 0.63676 0.07967 0.94967 0.0
C1569 C 0.62038 0.09309 0.98848 0.0
C1570 C 0.60694 0.07469 0.98165 0.0
C1571 C 0.61247 0.07103 0.96894 0.0
C1572 C 0.58749 0.0585 0.9876 0.0
C1573 C 0.61562 0.09767 1.00228 0.0
C1574 C 0.58448 0.03886 0.98874 0.0
C1575 C 0.56539 0.02283 0.99266 0.0
C1576 C 0.54899 0.02612 0.99571 0.0
C1577 C 0.55214 0.04588 0.99505 0.0
C1578 C 0.57124 0.06194 0.991 0.0
H1579 H 0.62944 0.11033 0.00728 0.0
H1580 H 0.60348 0.10196 1.0016 0.0
H1581 H 0.60973 0.08408 0.00856 0.0
H1582 H 0.59675 0.0358 0.98617 0.0
H1583 H 0.56325 0.00769 0.99294 0.0
H1584 H 0.86153 0.55539 0.93347 0.0
H1585 H 0.88544 0.54584 0.94322 0.0
H1586 H 0.85171 0.53124 0.98014 0.0
H1587 H 0.82791 0.54117 0.97053 0.0
H1588 H 0.89467 0.55643 0.98347 0.0
H1589 H 0.87661 0.48945 0.95162 0.0
H1590 H 0.88218 0.51162 0.94236 0.0
H1591 H 0.85965 0.49991 0.95272 0.0
C1592 C 0.85913 0.55008 0.94365 0.0
C1593 C 0.84279 0.54908 0.95122 0.0
C1594 C 0.8727 0.54442 0.94917 0.0
C1595 C 0.87024 0.53759 0.96236 0.0
C1596 C 0.85382 0.53633 0.9699 0.0
H1597 H 0.94334 0.48647 0.99434 0.0
H1598 H 0.91475 0.49174 0.98785 0.0
C1599 C 0.84015 0.54189 0.96437 0.0
C1600 C 0.88551 0.53291 0.96849 0.0
H1601 H 0.90753 0.50324 0.9648 0.0
C1602 C 0.89735 0.54466 0.97948 0.0
C1603 C 0.8889 0.51745 0.96336 0.0
C1604 C 0.87605 0.50374 0.95194 0.0
C1605 C 0.91289 0.54182 0.98524 0.0
C1606 C 0.91691 0.5269 0.97976 0.0
C1607 C 0.9046 0.51473 0.969 0.0
C1608 C 0.9341 0.52398 0.98473 0.0
C1609 C 0.92477 0.55492 0.99712 0.0
C1610 C 0.95456 0.54026 0.98514 0.0
C1611 C 0.97083 0.53731 0.98913 0.0
C1612 C 0.96704 0.51802 0.99274 0.0
C1613 C 0.94666 0.50164 0.99209 0.0
C1614 C 0.93033 0.50462 0.98823 0.0
H1615 H 0.91524 0.5597 1.00294 0.0
H1616 H 0.93001 0.54697 0.00388 0.0
H1617 H 0.93857 0.56882 0.99355 0.0
H1618 H 0.95807 0.5552 0.98206 0.0
H1619 H 0.98648 0.5501 0.98921 0.0
H1620 H 0.44068 0.28032 0.95384 0.0
H1621 H 0.44007 0.30869 0.96522 0.0
H1622 H 0.49658 0.35077 0.94564 0.0
H1623 H 0.49696 0.32272 0.93393 0.0
H1624 H 0.46937 0.33835 0.98251 0.0
H1625 H 0.45814 0.37293 0.93722 0.0
H1626 H 0.45408 0.34752 0.93721 0.0
H1627 H 0.47981 0.36895 0.93601 0.0
C1628 C 0.45286 0.29564 0.95186 0.0
C1629 C 0.46885 0.29924 0.94295 0.0
C1630 C 0.45255 0.3118 0.95843 0.0
C1631 C 0.4681 0.33183 0.95611 0.0
C1632 C 0.48421 0.33545 0.94739 0.0
H1633 H 0.511 0.44186 1.00171 0.0
H1634 H 0.50416 0.40961 0.99194 0.0
C1635 C 0.48454 0.31935 0.94083 0.0
C1636 C 0.46785 0.34906 0.96296 0.0
H1637 H 0.46916 0.39367 0.95705 0.0
C1638 C 0.4691 0.35035 0.97697 0.0
C1639 C 0.46714 0.36452 0.95572 0.0
C1640 C 0.4645 0.36336 0.94071 0.0
C1641 C 0.47055 0.36715 0.98391 0.0
C1642 C 0.4711 0.38319 0.97661 0.0
C1643 C 0.46897 0.38147 0.96263 0.0
C1644 C 0.4746 0.40221 0.98318 0.0
C1645 C 0.47147 0.36754 0.99899 0.0
C1646 C 0.46046 0.40903 0.98128 0.0
C1647 C 0.46439 0.42758 0.9868 0.0
C1648 C 0.48257 0.43969 0.9943 0.0
C1649 C 0.49666 0.43277 0.9962 0.0
C1650 C 0.49275 0.41427 0.99066 0.0
H1651 H 0.46449 0.352 0.00303 0.0
H1652 H 0.48788 0.37608 1.00234 0.0
H1653 H 0.46333 0.3751 0.0033 0.0
H1654 H 0.44644 0.40003 0.97545 0.0
H1655 H 0.45323 0.43245 0.9851 0.0
H1656 H 0.14349 0.70154 0.08115 0.0
H1657 H 0.11466 0.67174 0.07043 0.0
H1658 H 0.15757 0.66328 0.04633 0.0
H1659 H 0.18644 0.6936 0.05653 0.0
H1660 H 0.12385 0.65747 0.03187 0.0
H1661 H 0.09877 0.61395 0.07887 0.0
H1662 H 0.09944 0.6378 0.07965 0.0
H1663 H 0.12309 0.6373 0.07757 0.0
C1664 C 0.14682 0.69356 0.07342 0.0
C1665 C 0.16736 0.69993 0.0698 0.0
C1666 C 0.1303 0.67634 0.06743 0.0
C1667 C 0.13397 0.665 0.0578 0.0
C1668 C 0.15438 0.67167 0.05384 0.0
H1669 H 0.06614 0.55194 0.01436 0.0
H1670 H 0.09176 0.58473 0.0238 0.0
C1671 C 0.17089 0.68894 0.05977 0.0
C1672 C 0.11666 0.64607 0.05189 0.0
H1673 H 0.07782 0.59861 0.05967 0.0
C1674 C 0.11378 0.64461 0.03795 0.0
C1675 C 0.10351 0.62928 0.05984 0.0
C1676 C 0.10642 0.62951 0.07479 0.0
C1677 C 0.09814 0.62684 0.03176 0.0
C1678 C 0.08516 0.61004 0.03969 0.0
C1679 C 0.08777 0.61157 0.05363 0.0
C1680 C 0.06939 0.5904 0.03367 0.0
C1681 C 0.09555 0.62619 0.01676 0.0
C1682 C 0.04829 0.58251 0.03629 0.0
C1683 C 0.0335 0.56376 0.0308 0.0
C1684 C 0.03959 0.5525 0.02268 0.0
C1685 C 0.0608 0.56037 0.02028 0.0
C1686 C 0.07552 0.57913 0.02569 0.0
H1687 H 0.10312 0.64163 0.01251 0.0
H1688 H 0.10274 0.61788 0.01223 0.0
H1689 H 0.07891 0.6181 0.01386 0.0
H1690 H 0.04328 0.59092 0.04254 0.0
H1691 H 0.01733 0.55813 0.03293 0.0
H1692 H 0.30379 0.46652 0.07628 0.0
H1693 H 0.33835 0.47796 0.06722 0.0
H1694 H 0.31163 0.4314 0.03656 0.0
H1695 H 0.27714 0.42019 0.04534 0.0
H1696 H 0.35754 0.4549 0.06524 0.0
H1697 H 0.35069 0.48142 0.01519 0.0
H1698 H 0.33279 0.47743 0.02848 0.0
H1699 H 0.33012 0.4563 0.01868 0.0
C1700 C 0.30525 0.45897 0.06745 0.0
C1701 C 0.28768 0.44239 0.06157 0.0
C1702 C 0.32501 0.46546 0.06232 0.0
C1703 C 0.32759 0.4557 0.0511 0.0
C1704 C 0.31004 0.43942 0.04506 0.0
H1705 H 0.4318 0.44392 0.02747 0.0
H1706 H 0.39858 0.43969 0.03478 0.0
C1707 C 0.29033 0.43287 0.05021 0.0
C1708 C 0.34865 0.46146 0.04628 0.0
H1709 H 0.37914 0.47573 0.01853 0.0
C1710 C 0.36231 0.45964 0.05506 0.0
C1711 C 0.35502 0.46785 0.03303 0.0
C1712 C 0.34147 0.47107 0.02333 0.0
C1713 C 0.38179 0.46328 0.05084 0.0
C1714 C 0.38772 0.46868 0.03742 0.0
C1715 C 0.37445 0.4713 0.02876 0.0
C1716 C 0.40745 0.47114 0.0322 0.0
C1717 C 0.39588 0.46126 0.06077 0.0
C1718 C 0.42327 0.49011 0.02799 0.0
C1719 C 0.44227 0.49253 0.0238 0.0
C1720 C 0.44554 0.47591 0.02346 0.0
C1721 C 0.42958 0.45691 0.0275 0.0
C1722 C 0.41066 0.45451 0.03172 0.0
H1723 H 0.39144 0.46212 0.07125 0.0
H1724 H 0.39486 0.44635 0.05924 0.0
H1725 H 0.41223 0.47328 0.05937 0.0
H1726 H 0.42112 0.50314 0.02828 0.0
H1727 H 0.45447 0.50746 0.02107 0.0
H1728 H 0.56791 0.84039 0.03705 0.0
H1729 H 0.55359 0.86074 0.0284 0.0
H1730 H 0.54498 0.87565 0.06869 0.0
H1731 H 0.55938 0.85542 0.07744 0.0
H1732 H 0.51116 0.86597 0.05112 0.0
H1733 H 0.58647 0.92313 0.02991 0.0
H1734 H 0.5774 0.89749 0.02443 0.0
H1735 H 0.58426 0.90445 0.0417 0.0
C1736 C 0.563 0.84803 0.04408 0.0
C1737 C 0.56499 0.84647 0.05794 0.0
C1738 C 0.5548 0.85961 0.03912 0.0
C1739 C 0.54855 0.86995 0.04791 0.0
C1740 C 0.54977 0.86782 0.06174 0.0
H1741 H 0.5359 0.97393 0.03292 0.0
H1742 H 0.54506 0.94923 0.04061 0.0
C1743 C 0.55793 0.8562 0.06672 0.0
C1744 C 0.54148 0.8836 0.04272 0.0
H1745 H 0.55771 0.92718 0.02537 0.0
C1746 C 0.52128 0.87934 0.04546 0.0
C1747 C 0.55484 0.90114 0.03548 0.0
C1748 C 0.57701 0.907 0.03278 0.0
C1749 C 0.51405 0.89217 0.04112 0.0
C1750 C 0.52733 0.90953 0.0337 0.0
C1751 C 0.54752 0.91376 0.03097 0.0
C1752 C 0.52103 0.92413 0.02919 0.0
C1753 C 0.4925 0.88734 0.04481 0.0
C1754 C 0.50446 0.91821 0.02018 0.0
C1755 C 0.49908 0.93233 0.01578 0.0
C1756 C 0.51036 0.95267 0.02018 0.0
C1757 C 0.5269 0.95846 0.02925 0.0
C1758 C 0.5322 0.94435 0.03367 0.0
H1759 H 0.48618 0.87633 0.05308 0.0
H1760 H 0.49232 0.9013 0.04786 0.0
H1761 H 0.48209 0.88058 0.036 0.0
H1762 H 0.49582 0.90274 0.01645 0.0
H1763 H 0.48608 0.92727 0.00896 0.0
H1764 H 0.95126 0.17158 0.38907 0.0
H1765 H 0.97899 0.19977 0.37688 0.0
H1766 H 0.02434 0.19917 0.40338 0.0
H1767 H 0.99684 0.1716 0.41583 0.0
H1768 H 0.03019 0.2374 0.39976 0.0
H1769 H 0.02063 0.19806 0.35088 0.0
H1770 H 0.99771 0.19716 0.35724 0.0
H1771 H 0.00897 0.18458 0.36602 0.0
C1772 C 0.96714 0.17752 0.39233 0.0
C1773 C 0.97181 0.16921 0.40339 0.0
C1774 C 0.98298 0.19347 0.38525 0.0
C1775 C 0.00377 0.20135 0.38908 0.0
C1776 C 0.00843 0.19321 0.40017 0.0
H1777 H 0.12082 0.27943 0.35216 0.0
H1778 H 0.08841 0.25076 0.35994 0.0
C1779 C 0.99267 0.17734 0.40723 0.0
C1780 C 0.02079 0.21862 0.38198 0.0
H1781 H 0.04581 0.23294 0.35209 0.0
C1782 C 0.03353 0.23646 0.38932 0.0
C1783 C 0.02525 0.21728 0.36838 0.0
C1784 C 0.01256 0.19821 0.36015 0.0
C1785 C 0.0507 0.25292 0.38351 0.0
C1786 C 0.05505 0.25169 0.36989 0.0
C1787 C 0.04229 0.2339 0.36249 0.0
C1788 C 0.07344 0.26842 0.36344 0.0
C1789 C 0.06445 0.27125 0.39215 0.0
C1790 C 0.07552 0.28769 0.36242 0.0
C1791 C 0.09401 0.30406 0.35797 0.0
C1792 C 0.11056 0.30134 0.3542 0.0
C1793 C 0.10818 0.28188 0.35473 0.0
C1794 C 0.08969 0.26551 0.35922 0.0
H1795 H 0.0617 0.26794 0.40298 0.0
H1796 H 0.08103 0.27681 0.39011 0.0
H1797 H 0.06121 0.2836 0.38988 0.0
H1798 H 0.06307 0.2902 0.36548 0.0
H1799 H 0.09556 0.31896 0.35773 0.0
H1800 H 0.83619 0.8082 0.40109 0.0
H1801 H 0.81142 0.81769 0.39244 0.0
H1802 H 0.76854 0.75508 0.3825 0.0
H1803 H 0.79292 0.74546 0.39128 0.0
H1804 H 0.79353 0.81069 0.36606 0.0
H1805 H 0.73384 0.773 0.40477 0.0
H1806 H 0.76018 0.77851 0.40695 0.0
H1807 H 0.74209 0.75681 0.39716 0.0
C1808 C 0.8214 0.79645 0.39716 0.0
C1809 C 0.81655 0.77607 0.39687 0.0
C1810 C 0.80732 0.80191 0.39217 0.0
C1811 C 0.78804 0.78706 0.38697 0.0
C1812 C 0.78321 0.76676 0.38663 0.0
H1813 H 0.67607 0.77582 0.35431 0.0
H1814 H 0.70463 0.77157 0.36236 0.0
C1815 C 0.79727 0.76132 0.39153 0.0
C1816 C 0.773 0.79265 0.38162 0.0
H1817 H 0.72355 0.78326 0.38524 0.0
C1818 C 0.77827 0.80486 0.37029 0.0
C1819 C 0.75317 0.78513 0.3872 0.0
C1820 C 0.74699 0.77279 0.39977 0.0
C1821 C 0.76389 0.80895 0.364 0.0
C1822 C 0.74372 0.80085 0.36932 0.0
C1823 C 0.73881 0.78923 0.38096 0.0
C1824 C 0.7272 0.80366 0.36296 0.0
C1825 C 0.77027 0.8212 0.35143 0.0
C1826 C 0.73029 0.82307 0.36032 0.0
C1827 C 0.71403 0.82543 0.3554 0.0
C1828 C 0.69428 0.80847 0.35321 0.0
C1829 C 0.69121 0.78911 0.35575 0.0
C1830 C 0.70753 0.78671 0.36042 0.0
H1831 H 0.78343 0.82089 0.34651 0.0
H1832 H 0.75721 0.81544 0.34423 0.0
H1833 H 0.77526 0.83722 0.35394 0.0
H1834 H 0.74503 0.83646 0.36254 0.0
H1835 H 0.7167 0.84058 0.35391 0.0
H1836 H 0.25772 0.05681 0.37809 0.0
H1837 H 0.2427 0.02203 0.36967 0.0
H1838 H 0.18812 0.0045 0.39313 0.0
H1839 H 0.20302 0.0394 0.40158 0.0
H1840 H 0.20376 0.97866 0.39583 0.0
H1841 H 0.19612 0.99176 0.34229 0.0
H1842 H 0.22172 0.00796 0.3489 0.0
H1843 H 0.20044 0.01023 0.35523 0.0
C1844 C 0.24237 0.04565 0.38129 0.0
C1845 C 0.23152 0.05092 0.39045 0.0
C1846 C 0.2338 0.02577 0.37645 0.0
C1847 C 0.21415 0.01076 0.38059 0.0
C1848 C 0.20327 0.0159 0.38975 0.0
H1849 H 0.1496 0.8889 0.34465 0.0
H1850 H 0.15842 0.92273 0.35271 0.0
C1851 C 0.21185 0.03581 0.39462 0.0
C1852 C 0.20549 0.98952 0.37583 0.0
H1853 H 0.19345 0.96001 0.34758 0.0
C1854 C 0.2013 0.97453 0.38529 0.0
C1855 C 0.20202 0.98411 0.3621 0.0
C1856 C 0.2051 -0.00068 0.35155 0.0
C1857 C 0.19448 0.95441 0.38133 0.0
C1858 C 0.19212 0.94926 0.36755 0.0
C1859 C 0.19552 0.96406 0.35813 0.0
C1860 C 0.18671 0.92873 0.36271 0.0
C1861 C 0.18987 0.93887 0.39195 0.0
C1862 C 0.19985 0.92101 0.3655 0.0
C1863 C 0.19494 0.90175 0.36086 0.0
C1864 C 0.17685 0.88987 0.35322 0.0
C1865 C 0.16377 0.89771 0.35037 0.0
C1866 C 0.16872 0.91701 0.35501 0.0
H1867 H 0.18666 0.94372 0.40174 0.0
H1868 H 0.1764 0.92396 0.38903 0.0
H1869 H 0.20351 0.93688 0.39329 0.0
H1870 H 0.21404 0.92998 0.37118 0.0
H1871 H 0.20543 0.89627 0.3632 0.0
H1872 H 0.51965 0.62433 0.26569 0.0
H1873 H 0.54283 0.65916 0.27353 0.0
H1874 H 0.52358 0.64125 0.31406 0.0
H1875 H 0.50028 0.60645 0.30632 0.0
H1876 H 0.53511 0.68665 0.28812 0.0
H1877 H 0.58687 0.667 0.31605 0.0
H1878 H 0.56796 0.64998 0.30394 0.0
H1879 H 0.56008 0.65242 0.32049 0.0
C1880 C 0.52015 0.62784 0.27625 0.0
C1881 C 0.50824 0.61255 0.2854 0.0
C1882 C 0.53347 0.64774 0.28072 0.0
C1883 C 0.53519 0.6527 0.2944 0.0
C1884 C 0.52283 0.63764 0.30349 0.0
H1885 H 0.59431 0.77272 0.33175 0.0
H1886 H 0.56963 0.73887 0.32314 0.0
C1887 C 0.50954 0.61776 0.29905 0.0
C1888 C 0.55015 0.67353 0.29918 0.0
H1889 H 0.59298 0.70045 0.31903 0.0
C1890 C 0.54779 0.6897 0.29486 0.0
C1891 C 0.56685 0.67748 0.30783 0.0
C1892 C 0.57078 0.66086 0.31227 0.0
C1893 C 0.5615 0.70972 0.29914 0.0
C1894 C 0.57782 0.71358 0.3081 0.0
C1895 C 0.58035 0.69743 0.31225 0.0
C1896 C 0.59268 0.73428 0.31317 0.0
C1897 C 0.55861 0.72659 0.29384 0.0
C1898 C 0.61388 0.74281 0.31066 0.0
C1899 C 0.62808 0.76205 0.31573 0.0
C1900 C 0.62137 0.77311 0.32351 0.0
C1901 C 0.60007 0.76455 0.32595 0.0
C1902 C 0.58589 0.74528 0.32089 0.0
H1903 H 0.54892 0.72188 0.2846 0.0
H1904 H 0.55075 0.73092 0.3015 0.0
H1905 H 0.57375 0.74018 0.29167 0.0
H1906 H 0.61946 0.73455 0.30476 0.0
H1907 H 0.64433 0.76814 0.31362 0.0
H1908 H 0.38179 0.90434 0.30312 0.0
H1909 H 0.34785 0.89499 0.31205 0.0
H1910 H 0.31885 0.84684 0.2826 0.0
H1911 H 0.35286 0.85587 0.27369 0.0
H1912 H 0.30124 0.8715 0.284 0.0
H1913 H 0.30811 0.84648 0.3346 0.0
H1914 H 0.32919 0.87102 0.33044 0.0
H1915 H 0.32532 0.84901 0.32117 0.0
C1916 C 0.36828 0.89146 0.29869 0.0
C1917 C 0.37018 0.88081 0.2877 0.0
C1918 C 0.34883 0.88614 0.30383 0.0
C1919 C 0.33079 0.87001 0.29814 0.0
C1920 C 0.33256 0.85928 0.2872 0.0
H1921 H 0.20463 0.8212 0.3282 0.0
H1922 H 0.23786 0.82509 0.32119 0.0
C1923 C 0.35204 0.86455 0.28206 0.0
C1924 C 0.31008 0.86526 0.30307 0.0
H1925 H 0.28002 0.85252 0.33099 0.0
C1926 C 0.29655 0.8672 0.29424 0.0
C1927 C 0.30385 0.85945 0.31642 0.0
C1928 C 0.31728 0.85616 0.32619 0.0
C1929 C 0.27729 0.86414 0.29849 0.0
C1930 C 0.27147 0.85921 0.31197 0.0
C1931 C 0.28465 0.85657 0.3207 0.0
C1932 C 0.25187 0.85709 0.31714 0.0
C1933 C 0.26329 0.86619 0.2885 0.0
C1934 C 0.24889 0.87385 0.31747 0.0
C1935 C 0.23003 0.8717 0.3216 0.0
C1936 C 0.2139 0.85281 0.32566 0.0
C1937 C 0.21696 0.83605 0.32547 0.0
C1938 C 0.23589 0.83823 0.32138 0.0
H1939 H 0.26766 0.86514 0.27804 0.0
H1940 H 0.24691 0.85431 0.28996 0.0
H1941 H 0.26446 0.88119 0.28994 0.0
H1942 H 0.26109 0.88858 0.31437 0.0
H1943 H 0.22796 0.88478 0.32151 0.0
H1944 H 0.13607 0.4834 0.25625 0.0
H1945 H 0.13771 0.45648 0.26812 0.0
H1946 H 0.12723 0.47865 0.30543 0.0
H1947 H 0.12475 0.50523 0.29355 0.0
H1948 H 0.16583 0.46149 0.28751 0.0
H1949 H 0.08597 0.418 0.30704 0.0
H1950 H 0.09305 0.43651 0.29406 0.0
H1951 H 0.09912 0.44455 0.31126 0.0
C1952 C 0.13362 0.4823 0.26694 0.0
C1953 C 0.13014 0.49643 0.27393 0.0
C1954 C 0.13475 0.46699 0.27373 0.0
C1955 C 0.13238 0.46541 0.28764 0.0
C1956 C 0.12874 0.47936 0.29466 0.0
H1957 H 0.17554 0.40025 0.33689 0.0
H1958 H 0.16979 0.42607 0.3269 0.0
C1959 C 0.12756 0.49468 0.28787 0.0
C1960 C 0.13487 0.44984 0.2948 0.0
H1961 H 0.11015 0.40889 0.31504 0.0
C1962 C 0.15365 0.44997 0.29352 0.0
C1963 C 0.11888 0.43472 0.30252 0.0
C1964 C 0.09804 0.43324 0.30373 0.0
C1965 C 0.15693 0.43546 0.2998 0.0
C1966 C 0.14115 0.42065 0.30781 0.0
C1967 C 0.1223 0.42041 0.30902 0.0
C1968 C 0.14373 0.40489 0.31464 0.0
C1969 C 0.1771 0.43583 0.29752 0.0
C1970 C 0.13049 0.38434 0.31146 0.0
C1971 C 0.13352 0.36947 0.31732 0.0
C1972 C 0.14982 0.37488 0.32653 0.0
C1973 C 0.16274 0.39548 0.32993 0.0
C1974 C 0.15962 0.41032 0.32412 0.0
H1975 H 0.18514 0.44461 0.28852 0.0
H1976 H 0.18749 0.44313 0.30628 0.0
H1977 H 0.17454 0.42024 0.29632 0.0
H1978 H 0.11808 0.37983 0.3042 0.0
H1979 H 0.12323 0.35377 0.31448 0.0
H1980 H 0.35206 0.47687 0.26935 0.0
H1981 H 0.318 0.45445 0.27887 0.0
H1982 H 0.34715 0.454 0.31609 0.0
H1983 H 0.38109 0.47696 0.30675 0.0
H1984 H 0.30304 0.41759 0.28661 0.0
H1985 H 0.30209 0.46203 0.33037 0.0
H1986 H 0.32137 0.47301 0.31753 0.0
H1987 H 0.32426 0.45882 0.3308 0.0
C1988 C 0.35113 0.47219 0.27962 0.0
C1989 C 0.36919 0.47875 0.28734 0.0
C1990 C 0.33168 0.4594 0.28507 0.0
C1991 C 0.32989 0.45275 0.29831 0.0
C1992 C 0.34797 0.45939 0.30603 0.0
H1993 H 0.2271 0.33958 0.32498 0.0
H1994 H 0.26088 0.36757 0.31844 0.0
C1995 C 0.3674 0.47243 0.30065 0.0
C1996 C 0.30933 0.43755 0.3036 0.0
H1997 H 0.27707 0.42641 0.33029 0.0
C1998 C 0.29732 0.41967 0.2961 0.0
C1999 C 0.30163 0.44027 0.31592 0.0
C2000 C 0.31292 0.45967 0.32404 0.0
C2001 C 0.27816 0.40431 0.30066 0.0
C2002 C 0.27104 0.4065 0.31333 0.0
C2003 C 0.28272 0.42458 0.3207 0.0
C2004 C 0.25143 0.39017 0.31894 0.0
C2005 C 0.26559 0.38601 0.29171 0.0
C2006 C 0.23525 0.3938 0.32214 0.0
C2007 C 0.21606 0.37787 0.32613 0.0
C2008 C 0.21287 0.35815 0.32711 0.0
C2009 C 0.22927 0.3547 0.32435 0.0
C2010 C 0.24847 0.37063 0.32053 0.0
H2011 H 0.27 0.38942 0.28106 0.0
H2012 H 0.26848 0.37365 0.29466 0.0
H2013 H 0.24877 0.38045 0.29256 0.0
H2014 H 0.23721 0.40877 0.32106 0.0
H2015 H 0.20355 0.38085 0.32794 0.0
H2016 H 0.49281 0.85284 0.28224 0.0
H2017 H 0.51657 0.84324 0.29232 0.0
H2018 H 0.56134 0.90628 0.29939 0.0
H2019 H 0.53749 0.91595 0.28989 0.0
H2020 H 0.55513 0.85246 0.28446 0.0
H2021 H 0.5599 0.88293 0.33562 0.0
H2022 H 0.54033 0.87992 0.32369 0.0
H2023 H 0.56592 0.90175 0.32317 0.0
C2024 C 0.50759 0.86465 0.28612 0.0
C2025 C 0.51318 0.88519 0.28522 0.0
C2026 C 0.5212 0.85913 0.29182 0.0
C2027 C 0.54063 0.874 0.29684 0.0
C2028 C 0.54628 0.89448 0.29589 0.0
H2029 H 0.6554 0.88461 0.32248 0.0
H2030 H 0.62625 0.88899 0.31576 0.0
C2031 C 0.5327 0.90001 0.29024 0.0
C2032 C 0.55545 0.8683 0.3025 0.0
H2033 H 0.58654 0.87552 0.32964 0.0
C2034 C 0.56177 0.85724 0.29441 0.0
C2035 C 0.56409 0.87447 0.31552 0.0
C2036 C 0.55705 0.88524 0.32505 0.0
C2037 C 0.57712 0.853 0.29874 0.0
C2038 C 0.58626 0.85984 0.31155 0.0
C2039 C 0.57957 0.87039 0.31979 0.0
C2040 C 0.60352 0.85704 0.31627 0.0
C2041 C 0.58402 0.84189 0.28941 0.0
C2042 C 0.60034 0.83765 0.31893 0.0
C2043 C 0.61695 0.83516 0.32283 0.0
C2044 C 0.63695 0.85204 0.32428 0.0
C2045 C 0.64008 0.87141 0.32161 0.0
C2046 C 0.62346 0.87391 0.3178 0.0
H2047 H 0.57786 0.84056 0.27909 0.0
H2048 H 0.60117 0.84974 0.28905 0.0
H2049 H 0.57844 0.82638 0.29317 0.0
H2050 H 0.58505 0.82445 0.31789 0.0
H2051 H 0.61419 0.82001 0.3245 0.0
H2052 H 0.14198 0.65448 0.25567 0.0
H2053 H 0.14351 0.68287 0.26826 0.0
H2054 H 0.13109 0.64927 0.3047 0.0
H2055 H 0.12972 0.62077 0.29219 0.0
H2056 H 0.10845 0.66991 0.30178 0.0
H2057 H 0.19238 0.72026 0.29317 0.0
H2058 H 0.17743 0.70948 0.27813 0.0
H2059 H 0.17941 0.69323 0.29019 0.0
C2060 C 0.13967 0.65314 0.26638 0.0
C2061 C 0.13598 0.63544 0.27295 0.0
C2062 C 0.14052 0.66937 0.27354 0.0
C2063 C 0.13777 0.66828 0.28743 0.0
C2064 C 0.13334 0.65041 0.29398 0.0
H2065 H 0.17663 0.77505 0.33783 0.0
H2066 H 0.17091 0.74319 0.32809 0.0
C2067 C 0.13249 0.63413 0.28681 0.0
C2068 C 0.13998 0.68602 0.2951 0.0
H2069 H 0.17429 0.73566 0.30245 0.0
C2070 C 0.12285 0.68428 0.30201 0.0
C2071 C 0.15889 0.70461 0.29555 0.0
C2072 C 0.17815 0.70704 0.28898 0.0
C2073 C 0.124 0.70086 0.30909 0.0
C2074 C 0.14268 0.71972 0.30904 0.0
C2075 C 0.15992 0.72126 0.30239 0.0
C2076 C 0.14482 0.73815 0.31577 0.0
C2077 C 0.10529 0.69792 0.31667 0.0
C2078 C 0.13201 0.74593 0.31213 0.0
C2079 C 0.13503 0.76405 0.31787 0.0
C2080 C 0.1511 0.77488 0.32724 0.0
C2081 C 0.16386 0.76699 0.33086 0.0
C2082 C 0.16071 0.74881 0.32522 0.0
H2083 H 0.09479 0.68172 0.31903 0.0
H2084 H 0.10986 0.70691 0.32615 0.0
H2085 H 0.09648 0.70299 0.31043 0.0
H2086 H 0.12001 0.73828 0.3046 0.0
H2087 H 0.125 0.76973 0.31474 0.0
H2088 H 0.81316 0.03415 0.41386 0.0
H2089 H 0.78502 0.00393 0.40286 0.0
H2090 H 0.82956 -0.00395 0.38021 0.0
H2091 H 0.85775 0.02631 0.39101 0.0
H2092 H 0.7746 0.99374 0.37496 0.0
H2093 H 0.79568 0.94189 0.39999 0.0
H2094 H 0.8054 0.96772 0.40561 0.0
H2095 H 0.81654 0.96241 0.39133 0.0
C2096 C 0.81697 0.02617 0.40639 0.0
C2097 C 0.83774 0.03255 0.40341 0.0
C2098 C 0.80087 0.00886 0.40017 0.0
C2099 C 0.80524 -0.00243 0.39092 0.0
C2100 C 0.82588 0.00431 0.38754 0.0
H2101 H 0.73675 0.88581 0.34601 0.0
H2102 H 0.7626 0.91801 0.35602 0.0
C2103 C 0.84197 0.0216 0.39374 0.0
C2104 C 0.78831 0.97846 0.385 0.0
H2105 H 0.77011 0.92755 0.38287 0.0
C2106 C 0.7735 0.97923 0.37673 0.0
C2107 C 0.78692 0.95958 0.38738 0.0
C2108 C 0.80185 0.95772 0.39665 0.0
C2109 C 0.75768 0.96164 0.37043 0.0
C2110 C 0.75646 0.94279 0.37268 0.0
C2111 C 0.77111 0.94203 0.38111 0.0
C2112 C 0.74042 0.92366 0.36619 0.0
C2113 C 0.74281 0.96349 0.3611 0.0
C2114 C 0.7193 0.91603 0.36863 0.0
C2115 C 0.70438 0.89762 0.3628 0.0
C2116 C 0.71033 0.88646 0.35446 0.0
C2117 C 0.73153 0.89412 0.35215 0.0
C2118 C 0.74639 0.91251 0.35794 0.0
H2119 H 0.74885 0.97936 0.35791 0.0
H2120 H 0.73956 0.95371 0.35206 0.0
H2121 H 0.72797 0.9585 0.36632 0.0
H2122 H 0.71437 0.92415 0.37521 0.0
H2123 H 0.68822 0.89212 0.36488 0.0
H2124 H 0.97252 0.77576 0.41637 0.0
H2125 H 0.00559 0.78527 0.40584 0.0
H2126 H 0.98315 0.79595 0.36882 0.0
H2127 H 0.94979 0.78596 0.37919 0.0
H2128 H 0.00117 0.77193 0.36562 0.0
H2129 H 0.05273 0.84109 0.39538 0.0
H2130 H 0.03697 0.81948 0.40545 0.0
H2131 H 0.02493 0.8299 0.39513 0.0
C2132 C 0.97462 0.78019 0.406 0.0
C2133 C 0.95846 0.78009 0.39864 0.0
C2134 C 0.99363 0.78584 0.40002 0.0
C2135 C 0.99698 0.79159 0.38658 0.0
C2136 C 0.98099 0.79172 0.37923 0.0
H2137 H 0.12079 0.8417 0.3523 0.0
H2138 H 0.08695 0.83674 0.35876 0.0
C2139 C 0.96197 0.78614 0.38521 0.0
C2140 C 0.01672 0.7963 0.38002 0.0
H2141 H 0.06919 0.82674 0.38244 0.0
C2142 C 0.01604 0.78406 0.3692 0.0
C2143 C 0.03611 0.81225 0.38457 0.0
C2144 C 0.03779 0.82657 0.39569 0.0
C2145 C 0.03423 0.78687 0.36314 0.0
C2146 C 0.05372 0.80221 0.36812 0.0
C2147 C 0.05433 0.81491 0.37863 0.0
C2148 C 0.07366 0.80484 0.36301 0.0
C2149 C 0.03224 0.77327 0.35147 0.0
C2150 C 0.07755 0.78863 0.3632 0.0
C2151 C 0.09673 0.79138 0.35926 0.0
C2152 C 0.11249 0.8104 0.35509 0.0
C2153 C 0.10873 0.82671 0.35503 0.0
C2154 C 0.08945 0.82392 0.35886 0.0
H2155 H 0.01747 0.76803 0.34591 0.0
H2156 H 0.04522 0.78102 0.34442 0.0
H2157 H 0.03224 0.75965 0.35525 0.0
H2158 H 0.06594 0.77394 0.36675 0.0
H2159 H 0.09941 0.77868 0.35972 0.0
H2160 H 0.25128 0.21104 0.40679 0.0
H2161 H 0.2366 0.23052 0.39729 0.0
H2162 H 0.19542 0.17922 0.37247 0.0
H2163 H 0.21035 0.1597 0.38167 0.0
H2164 H 0.23605 0.23741 0.36824 0.0
H2165 H 0.15795 0.19907 0.39122 0.0
H2166 H 0.17956 0.1979 0.39839 0.0
H2167 H 0.16682 0.1833 0.38362 0.0
C2168 C 0.23912 0.20387 0.3993 0.0
C2169 C 0.23208 0.18381 0.39495 0.0
C2170 C 0.23068 0.21499 0.39395 0.0
C2171 C 0.21487 0.20625 0.38426 0.0
C2172 C 0.20743 0.18613 0.38008 0.0
H2173 H 0.15105 0.2604 0.34285 0.0
H2174 H 0.16154 0.23648 0.35056 0.0
C2175 C 0.21595 0.17499 0.38539 0.0
C2176 C 0.20708 0.21867 0.37801 0.0
H2177 H 0.16539 0.22562 0.3764 0.0
C2178 C 0.22059 0.23482 0.36998 0.0
C2179 C 0.18683 0.21505 0.38019 0.0
C2180 C 0.17189 0.19797 0.38888 0.0
C2181 C 0.21446 0.24765 0.36416 0.0
C2182 C 0.19445 0.24453 0.36674 0.0
C2183 C 0.18073 0.22802 0.37449 0.0
C2184 C 0.18795 0.25887 0.36203 0.0
C2185 C 0.22944 0.26435 0.35524 0.0
C2186 C 0.19907 0.27929 0.36611 0.0
C2187 C 0.1933 0.293 0.36162 0.0
C2188 C 0.17612 0.28658 0.35301 0.0
C2189 C 0.16463 0.26597 0.34922 0.0
C2190 C 0.1705 0.25224 0.35369 0.0
H2191 H 0.24106 0.26086 0.351 0.0
H2192 H 0.22124 0.26692 0.34688 0.0
H2193 H 0.23791 0.27862 0.3612 0.0
H2194 H 0.21226 0.28463 0.37283 0.0
H2195 H 0.20239 0.30867 0.3649 0.0
H2196 H 0.64461 0.52854 0.75288 0.0
H2197 H 0.67332 0.55498 0.74039 0.0
H2198 H 0.66 0.51309 0.70746 0.0
H2199 H 0.63135 0.48642 0.71995 0.0
H2200 H 0.70771 0.55272 0.73143 0.0
H2201 H 0.66613 0.56416 0.68926 0.0
H2202 H 0.65332 0.5516 0.70443 0.0
H2203 H 0.65964 0.53839 0.69204 0.0
C2204 C 0.64773 0.52493 0.74297 0.0
C2205 C 0.63571 0.50531 0.73745 0.0
C2206 C 0.66408 0.54009 0.73582 0.0
C2207 C 0.6687 0.53605 0.72296 0.0
C2208 C 0.65648 0.51664 0.71727 0.0
H2209 H 0.78924 0.6119 0.6863 0.0
H2210 H 0.75689 0.58259 0.69351 0.0
C2211 C 0.64009 0.50142 0.72443 0.0
C2212 C 0.68716 0.55184 0.71596 0.0
H2213 H 0.70276 0.58203 0.68851 0.0
C2214 C 0.70663 0.55909 0.72203 0.0
C2215 C 0.68568 0.56016 0.70372 0.0
C2216 C 0.66508 0.55335 0.69699 0.0
C2217 C 0.72468 0.57452 0.71625 0.0
C2218 C 0.72324 0.58278 0.70398 0.0
C2219 C 0.70379 0.57551 0.69786 0.0
C2220 C 0.74172 0.59983 0.69787 0.0
C2221 C 0.74508 0.58229 0.72353 0.0
C2222 C 0.74363 0.61908 0.69749 0.0
C2223 C 0.76204 0.6358 0.69328 0.0
C2224 C 0.77869 0.63347 0.68915 0.0
C2225 C 0.77653 0.61408 0.68915 0.0
C2226 C 0.75812 0.59735 0.69337 0.0
H2227 H 0.74297 0.57713 0.73403 0.0
H2228 H 0.75434 0.57662 0.71833 0.0
H2229 H 0.75408 0.59911 0.72354 0.0
H2230 H 0.73118 0.62131 0.70096 0.0
H2231 H 0.76345 0.65065 0.6935 0.0
H2232 H 0.50488 0.14372 0.73188 0.0
H2233 H 0.47991 0.15334 0.72384 0.0
H2234 H 0.43483 0.09036 0.71693 0.0
H2235 H 0.45934 0.08063 0.72519 0.0
H2236 H 0.45978 0.14509 0.69859 0.0
H2237 H 0.40295 0.11091 0.73922 0.0
H2238 H 0.42908 0.11553 0.7406 0.0
H2239 H 0.40964 0.09353 0.73165 0.0
C2240 C 0.48958 0.13192 0.72878 0.0
C2241 C 0.48416 0.1114 0.72916 0.0
C2242 C 0.47536 0.13745 0.72412 0.0
C2243 C 0.45539 0.12256 0.71995 0.0
C2244 C 0.45001 0.10211 0.7203 0.0
H2245 H 0.34203 0.10978 0.68896 0.0
H2246 H 0.37103 0.10618 0.69694 0.0
C2247 C 0.46417 0.09659 0.72488 0.0
C2248 C 0.44023 0.12819 0.71485 0.0
H2249 H 0.39118 0.11948 0.7195 0.0
C2250 C 0.44484 0.1397 0.70322 0.0
C2251 C 0.42081 0.12124 0.72094 0.0
C2252 C 0.41536 0.10979 0.73387 0.0
C2253 C 0.43016 0.14355 0.69711 0.0
C2254 C 0.41036 0.13591 0.70291 0.0
C2255 C 0.40614 0.12508 0.71486 0.0
C2256 C 0.39346 0.13828 0.69669 0.0
C2257 C 0.43578 0.15497 0.6842 0.0
C2258 C 0.39631 0.15748 0.69363 0.0
C2259 C 0.37977 0.15946 0.68877 0.0
C2260 C 0.35999 0.14233 0.68705 0.0
C2261 C 0.35718 0.12319 0.69004 0.0
C2262 C 0.37374 0.12116 0.69466 0.0
H2263 H 0.44882 0.15457 0.67916 0.0
H2264 H 0.42236 0.14854 0.67726 0.0
H2265 H 0.44059 0.17106 0.68628 0.0
H2266 H 0.4111 0.17102 0.69545 0.0
H2267 H 0.38228 0.17447 0.68692 0.0
H2268 H 0.89435 0.36958 0.74497 0.0
H2269 H 0.88084 0.33517 0.73601 0.0
H2270 H 0.88326 0.35676 0.69606 0.0
H2271 H 0.8968 0.39123 0.70492 0.0
H2272 H 0.84588 0.30967 0.72051 0.0
H2273 H 0.91843 0.32948 0.69366 0.0
H2274 H 0.9169 0.34609 0.70603 0.0
H2275 H 0.9071 0.34463 0.68936 0.0
C2276 C 0.89174 0.36696 0.73429 0.0
C2277 C 0.89681 0.38316 0.72564 0.0
C2278 C 0.88409 0.34731 0.72919 0.0
C2279 C 0.88141 0.34349 0.71536 0.0
C2280 C 0.88567 0.35947 0.70674 0.0
H2281 H 0.81818 0.22289 0.67764 0.0
H2282 H 0.82769 0.25701 0.68543 0.0
C2283 C 0.89339 0.37914 0.71182 0.0
C2284 C 0.87471 0.32289 0.70997 0.0
H2285 H 0.89028 0.29628 0.69021 0.0
C2286 C 0.85554 0.30671 0.71386 0.0
C2287 C 0.8875 0.31907 0.70144 0.0
C2288 C 0.90871 0.33567 0.69745 0.0
C2289 C 0.84877 0.28678 0.70942 0.0
C2290 C 0.86139 0.28304 0.70069 0.0
C2291 C 0.88056 0.29923 0.69682 0.0
C2292 C 0.85546 0.26234 0.69587 0.0
C2293 C 0.82844 0.26985 0.7144 0.0
C2294 C 0.86814 0.25419 0.69889 0.0
C2295 C 0.86294 0.23484 0.69428 0.0
C2296 C 0.84496 0.22324 0.68648 0.0
C2297 C 0.83225 0.23146 0.68348 0.0
C2298 C 0.83753 0.25088 0.68806 0.0
H2299 H 0.82316 0.27451 0.72344 0.0
H2300 H 0.81644 0.26546 0.70648 0.0
H2301 H 0.82966 0.25631 0.71679 0.0
H2302 H 0.88207 0.2628 0.70488 0.0
H2303 H 0.87309 0.22904 0.69682 0.0
H2304 H 0.19417 0.93957 0.63042 0.0
H2305 H 0.21621 0.97421 0.63872 0.0
H2306 H 0.17594 0.99221 0.62004 0.0
H2307 H 0.15346 0.9574 0.61187 0.0
H2308 H 0.21907 0.01811 0.61495 0.0
H2309 H 0.20334 0.00355 0.66907 0.0
H2310 H 0.21061 0.98706 0.66076 0.0
H2311 H 0.18678 0.98599 0.65621 0.0
C2312 C 0.18973 0.95077 0.62826 0.0
C2313 C 0.1719 0.9456 0.62055 0.0
C2314 C 0.20241 0.9706 0.63299 0.0
C2315 C 0.19756 0.9857 0.63015 0.0
C2316 C 0.17991 0.98073 0.62238 0.0
H2317 H 0.25864 0.10659 0.66685 0.0
H2318 H 0.23306 0.07287 0.6585 0.0
C2319 C 0.16714 0.96085 0.61767 0.0
C2320 C 0.21132 0.00681 0.63496 0.0
H2321 H 0.23173 0.03568 0.6633 0.0
C2322 C 0.22174 0.02201 0.62552 0.0
C2323 C 0.2146 0.01187 0.64874 0.0
C2324 C 0.20312 -0.00368 0.65931 0.0
C2325 C 0.23585 0.04205 0.62951 0.0
C2326 C 0.23975 0.04692 0.6433 0.0
C2327 C 0.22885 0.03186 0.65274 0.0
C2328 C 0.25529 0.06751 0.64815 0.0
C2329 C 0.24642 0.05786 0.61895 0.0
C2330 C 0.2763 0.07561 0.64518 0.0
C2331 C 0.29102 0.09481 0.65005 0.0
C2332 C 0.28501 0.10625 0.65805 0.0
C2333 C 0.26389 0.0981 0.66092 0.0
C2334 C 0.2492 0.07886 0.65609 0.0
H2335 H 0.23799 0.05298 0.60922 0.0
H2336 H 0.24774 0.07248 0.6221 0.0
H2337 H 0.26226 0.06044 0.61742 0.0
H2338 H 0.28136 0.06696 0.63925 0.0
H2339 H 0.30712 0.10056 0.64765 0.0
H2340 H 0.04665 0.25044 0.62527 0.0
H2341 H 0.01245 0.2408 0.63404 0.0
H2342 H 0.99171 0.17804 0.62509 0.0
H2343 H 0.02606 0.18756 0.61629 0.0
H2344 H 0.97194 0.21475 0.61749 0.0
H2345 H 0.97714 0.18372 0.66657 0.0
H2346 H -7e-05 0.20262 0.65814 0.0
H2347 H 0.98634 0.1771 0.65178 0.0
C2348 C 0.03492 0.23455 0.6253 0.0
C2349 C 0.03915 0.21976 0.62013 0.0
C2350 C 0.01536 0.22909 0.63027 0.0
C2351 C -0.00037 0.20871 0.63032 0.0
C2352 C 0.00372 0.19384 0.62524 0.0
H2353 H 0.8727 0.15546 0.65996 0.0
H2354 H 0.90626 0.16058 0.65253 0.0
C2355 C 0.02329 0.19932 0.62014 0.0
C2356 C 0.97873 0.2033 0.63516 0.0
H2357 H 0.94645 0.1842 0.66186 0.0
C2358 C 0.96631 0.208 0.62716 0.0
C2359 C 0.97139 0.19433 0.64772 0.0
C2360 C 0.98431 0.18914 0.65665 0.0
C2361 C 0.94676 0.2041 0.63142 0.0
C2362 C 0.93967 0.19583 0.64422 0.0
C2363 C 0.95193 0.19068 0.6521 0.0
C2364 C 0.9198 0.19284 0.64963 0.0
C2365 C 0.93377 0.20865 0.62204 0.0
C2366 C 0.9164 0.20932 0.65083 0.0
C2367 C 0.89727 0.2064 0.65504 0.0
C2368 C 0.88134 0.18705 0.6585 0.0
C2369 C 0.88486 0.17061 0.65763 0.0
C2370 C 0.90399 0.17351 0.65333 0.0
H2371 H 0.93836 0.20884 0.61146 0.0
H2372 H 0.91707 0.19732 0.62294 0.0
H2373 H 0.93603 0.22384 0.62455 0.0
H2374 H 0.92847 0.22445 0.64834 0.0
H2375 H 0.89488 0.21928 0.65555 0.0
H2376 H 0.79499 0.80978 0.59057 0.0
H2377 H 0.79726 0.78374 0.60323 0.0
H2378 H 0.80057 0.81524 0.64006 0.0
H2379 H 0.79854 0.84153 0.62747 0.0
H2380 H 0.83035 0.7906 0.62025 0.0
H2381 H 0.75568 0.756 0.64724 0.0
H2382 H 0.76059 0.77162 0.63275 0.0
H2383 H 0.77124 0.78311 0.64877 0.0
C2384 C 0.79618 0.81119 0.60137 0.0
C2385 C 0.79666 0.8278 0.608 0.0
C2386 C 0.79737 0.79624 0.60859 0.0
C2387 C 0.79892 0.79748 0.62258 0.0
C2388 C 0.79901 0.81381 0.62928 0.0
H2389 H 0.84388 0.73338 0.67149 0.0
H2390 H 0.83815 0.75923 0.66143 0.0
C2391 C 0.79784 0.82881 0.62206 0.0
C2392 C 0.80162 0.78227 0.63004 0.0
H2393 H 0.77919 0.74499 0.6532 0.0
C2394 C 0.81919 0.78063 0.62746 0.0
C2395 C 0.78694 0.76922 0.63937 0.0
C2396 C 0.76744 0.76988 0.64216 0.0
C2397 C 0.82252 0.76633 0.63399 0.0
C2398 C 0.80802 0.75349 0.64347 0.0
C2399 C 0.79038 0.75502 0.64601 0.0
C2400 C 0.81059 0.73785 0.65044 0.0
C2401 C 0.84132 0.76475 0.63048 0.0
C2402 C 0.79663 0.71725 0.64791 0.0
C2403 C 0.79977 0.7024 0.65369 0.0
C2404 C 0.81689 0.7079 0.66219 0.0
C2405 C 0.83049 0.72857 0.66504 0.0
C2406 C 0.82733 0.7434 0.65923 0.0
H2407 H 0.84853 0.77268 0.62107 0.0
H2408 H 0.85301 0.77176 0.63865 0.0
H2409 H 0.8372 0.74864 0.62939 0.0
H2410 H 0.78358 0.71268 0.64117 0.0
H2411 H 0.78894 0.68664 0.65131 0.0
H2412 H 0.04217 0.82887 0.63722 0.0
H2413 H 0.00852 0.80734 0.64756 0.0
H2414 H 0.99143 0.764 0.61508 0.0
H2415 H 0.02474 0.78562 0.60452 0.0
H2416 H 0.96002 0.77243 0.62236 0.0
H2417 H 0.99259 0.75375 0.66646 0.0
H2418 H 0.00288 0.78026 0.66341 0.0
H2419 H 0.0075 0.76502 0.65165 0.0
C2420 C 0.03115 0.81487 0.63219 0.0
C2421 C 0.03621 0.8089 0.62008 0.0
C2422 C 0.01201 0.8025 0.63819 0.0
C2423 C 0.99761 0.78392 0.6322 0.0
C2424 C 0.00238 0.77821 0.61993 0.0
H2425 H 0.89451 0.67369 0.65782 0.0
H2426 H 0.92819 0.70223 0.65164 0.0
C2427 C 0.02148 0.79053 0.61394 0.0
C2428 C 0.9776 0.7702 0.63867 0.0
H2429 H 0.95635 0.73928 0.66543 0.0
C2430 C 0.95919 0.76532 0.63184 0.0
C2431 C 0.9766 0.76086 0.651 0.0
C2432 C 0.9959 0.76506 0.65856 0.0
C2433 C 0.93981 0.75103 0.63686 0.0
C2434 C 0.93882 0.74154 0.64912 0.0
C2435 C 0.95719 0.74672 0.65609 0.0
C2436 C 0.91901 0.72484 0.65417 0.0
C2437 C 0.92059 0.74555 0.62873 0.0
C2438 C 0.90283 0.72817 0.6579 0.0
C2439 C 0.88358 0.71186 0.66143 0.0
C2440 C 0.88038 0.69207 0.66149 0.0
C2441 C 0.89672 0.68886 0.65803 0.0
C2442 C 0.91593 0.70513 0.65452 0.0
H2443 H 0.9243 0.75157 0.61843 0.0
H2444 H 0.91037 0.72885 0.62807 0.0
H2445 H 0.91185 0.75199 0.63369 0.0
H2446 H 0.90495 0.74329 0.6578 0.0
H2447 H 0.87111 0.71469 0.66374 0.0
H2448 H 0.19731 0.22447 0.59977 0.0
H2449 H 0.22097 0.21464 0.60959 0.0
H2450 H 0.18615 0.19878 0.64609 0.0
H2451 H 0.16256 0.20894 0.6364 0.0
H2452 H 0.22928 0.22404 0.64989 0.0
H2453 H 0.21162 0.15777 0.61739 0.0
H2454 H 0.21731 0.18017 0.60837 0.0
H2455 H 0.19464 0.16819 0.61859 0.0
C2456 C 0.19462 0.21882 0.60988 0.0
C2457 C 0.17803 0.21752 0.6173 0.0
C2458 C 0.20806 0.21302 0.61543 0.0
C2459 C 0.20521 0.20575 0.62852 0.0
C2460 C 0.18856 0.20421 0.63593 0.0
H2461 H 0.27827 0.15419 0.66009 0.0
H2462 H 0.24954 0.15942 0.65388 0.0
C2463 C 0.17502 0.20991 0.63035 0.0
C2464 C 0.22032 0.20085 0.63468 0.0
H2465 H 0.24234 0.17123 0.63074 0.0
C2466 C 0.232 0.21234 0.6458 0.0
C2467 C 0.22374 0.18549 0.62942 0.0
C2468 C 0.21105 0.17205 0.61786 0.0
C2469 C 0.24747 0.20936 0.65153 0.0
C2470 C 0.25155 0.19457 0.64592 0.0
C2471 C 0.23936 0.18262 0.63505 0.0
C2472 C 0.26879 0.19167 0.65079 0.0
C2473 C 0.25923 0.2222 0.66354 0.0
C2474 C 0.28924 0.20798 0.65114 0.0
C2475 C 0.30559 0.20505 0.65494 0.0
C2476 C 0.3019 0.18575 0.65843 0.0
C2477 C 0.28152 0.16935 0.6579 0.0
C2478 C 0.26511 0.17231 0.65422 0.0
H2479 H 0.24967 0.22687 0.6694 0.0
H2480 H 0.2644 0.21409 0.67021 0.0
H2481 H 0.27309 0.23617 0.6601 0.0
H2482 H 0.29266 0.22293 0.64813 0.0
H2483 H 0.32123 0.21785 0.65493 0.0
H2484 H 0.82244 0.9669 0.62589 0.0
H2485 H 0.82439 -0.00358 0.63723 0.0
H2486 H 0.77624 0.9925 0.61132 0.0
H2487 H 0.77447 0.96325 0.59969 0.0
H2488 H 0.83339 0.03321 0.62324 0.0
H2489 H 0.75842 -0.00138 0.64998 0.0
H2490 H 0.77002 0.98401 0.64433 0.0
H2491 H 0.7573 0.99184 0.63258 0.0
C2492 C 0.81222 0.97227 0.6226 0.0
C2493 C 0.79837 0.96274 0.61182 0.0
C2494 C 0.81328 0.98906 0.62915 0.0
C2495 C 0.80035 -0.00349 0.62517 0.0
C2496 C 0.7861 0.98675 0.61468 0.0
H2497 H 0.79144 0.102 0.6489 0.0
H2498 H 0.78578 0.07004 0.63911 0.0
C2499 C 0.7851 0.97 0.60807 0.0
C2500 C 0.8029 0.01538 0.63134 0.0
H2501 H 0.77871 0.03441 0.65058 0.0
C2502 C 0.82149 0.03349 0.62927 0.0
C2503 C 0.78723 0.01566 0.63905 0.0
C2504 C 0.76713 -0.0035 0.64174 0.0
C2505 C 0.8248 0.05199 0.63461 0.0
C2506 C 0.80929 0.05227 0.64255 0.0
C2507 C 0.7906 0.03415 0.64454 0.0
C2508 C 0.81227 0.07125 0.6489 0.0
C2509 C 0.84469 0.07111 0.63142 0.0
C2510 C 0.82881 0.08235 0.65784 0.0
C2511 C 0.83223 0.1007 0.66334 0.0
C2512 C 0.81893 0.10818 0.66021 0.0
C2513 C 0.80202 0.09674 0.65152 0.0
C2514 C 0.79871 0.07843 0.64594 0.0
H2515 H 0.85197 0.06918 0.62228 0.0
H2516 H 0.84203 0.08404 0.62997 0.0
H2517 H 0.85581 0.07497 0.63985 0.0
H2518 H 0.83923 0.0769 0.66048 0.0
H2519 H 0.84552 0.10915 0.66986 0.0
H2520 H 0.50295 0.37928 0.72197 0.0
H2521 H 0.47518 0.34918 0.7106 0.0
H2522 H 0.46825 0.31365 0.74548 0.0
H2523 H 0.49648 0.34349 0.75662 0.0
H2524 H 0.4687 0.29407 0.72422 0.0
H2525 H 0.41399 0.32163 0.71474 0.0
H2526 H 0.43885 0.3377 0.70758 0.0
H2527 H 0.43644 0.33519 0.72546 0.0
C2528 C 0.49532 0.36506 0.72722 0.0
C2529 C 0.50184 0.36367 0.74015 0.0
C2530 C 0.47937 0.34789 0.72076 0.0
C2531 C 0.46932 0.32916 0.72725 0.0
C2532 C 0.47571 0.3279 0.74025 0.0
H2533 H 0.3545 0.22298 0.70089 0.0
H2534 H 0.38104 0.25405 0.71188 0.0
C2535 C 0.49185 0.34493 0.74661 0.0
C2536 C 0.45287 0.3106 0.72034 0.0
H2537 H 0.40673 0.29095 0.7035 0.0
C2538 C 0.4551 0.29338 0.71975 0.0
C2539 C 0.43494 0.30954 0.71467 0.0
C2540 C 0.43077 0.32693 0.71575 0.0
C2541 C 0.44005 0.27523 0.71362 0.0
C2542 C 0.42259 0.27445 0.70741 0.0
C2543 C 0.42023 0.2916 0.7081 0.0
C2544 C 0.40642 0.25588 0.70039 0.0
C2545 C 0.44283 0.25696 0.71423 0.0
C2546 C 0.41173 0.24668 0.69011 0.0
C2547 C 0.39665 0.22867 0.684 0.0
C2548 C 0.37578 0.21976 0.68773 0.0
C2549 C 0.37039 0.22937 0.69773 0.0
C2550 C 0.38556 0.24721 0.70401 0.0
H2551 H 0.45301 0.25817 0.72275 0.0
H2552 H 0.42775 0.24275 0.71525 0.0
H2553 H 0.45024 0.25588 0.70491 0.0
H2554 H 0.4276 0.25332 0.68687 0.0
H2555 H 0.40149 0.22164 0.67649 0.0
H2556 H 0.64039 0.13599 0.74282 0.0
H2557 H 0.67468 0.14693 0.73347 0.0
H2558 H 0.64693 0.09979 0.70324 0.0
H2559 H 0.6127 0.08907 0.71232 0.0
H2560 H 0.69348 0.12349 0.73146 0.0
H2561 H 0.68579 0.14927 0.68134 0.0
H2562 H 0.66826 0.14571 0.69479 0.0
H2563 H 0.66518 0.12431 0.68512 0.0
C2564 C 0.64156 0.12821 0.73403 0.0
C2565 C 0.62378 0.11161 0.72835 0.0
C2566 C 0.66117 0.13441 0.72873 0.0
C2567 C 0.66339 0.12435 0.71754 0.0
C2568 C 0.64563 0.10804 0.71172 0.0
H2569 H 0.76727 0.11208 0.69334 0.0
H2570 H 0.73408 0.1078 0.70077 0.0
C2571 C 0.62606 0.10177 0.71703 0.0
C2572 C 0.68429 0.12984 0.71254 0.0
H2573 H 0.71423 0.14355 0.68455 0.0
C2574 C 0.69807 0.12805 0.72124 0.0
C2575 C 0.69041 0.13599 0.69923 0.0
C2576 C 0.67673 0.13914 0.6896 0.0
C2577 C 0.71744 0.13154 0.71688 0.0
C2578 C 0.72313 0.13675 0.7034 0.0
C2579 C 0.70972 0.13929 0.69482 0.0
C2580 C 0.7428 0.13919 0.69807 0.0
C2581 C 0.73167 0.1296 0.72673 0.0
C2582 C 0.75853 0.15813 0.69375 0.0
C2583 C 0.7775 0.16058 0.68949 0.0
C2584 C 0.78086 0.14401 0.68919 0.0
C2585 C 0.76498 0.12503 0.69333 0.0
C2586 C 0.74608 0.1226 0.69763 0.0
H2587 H 0.7274 0.13056 0.73723 0.0
H2588 H 0.73062 0.11468 0.72521 0.0
H2589 H 0.748 0.1416 0.72521 0.0
H2590 H 0.75632 0.17113 0.69402 0.0
H2591 H 0.78963 0.1755 0.68669 0.0
H2592 H 0.87551 0.49168 0.7182 0.0
H2593 H 0.86124 0.51153 0.70853 0.0
H2594 H 0.9121 0.56621 0.72545 0.0
H2595 H 0.92637 0.54654 0.73521 0.0
H2596 H 0.84938 0.53768 0.72097 0.0
H2597 H 0.91362 0.57897 0.68556 0.0
H2598 H 0.90947 0.55645 0.69399 0.0
H2599 H 0.92214 0.5806 0.70257 0.0
C2600 C 0.88356 0.50791 0.71996 0.0
C2601 C 0.9022 0.51756 0.72737 0.0
C2602 C 0.87543 0.51922 0.71438 0.0
C2603 C 0.88584 0.54037 0.71605 0.0
C2604 C 0.90411 0.54996 0.72375 0.0
H2605 H 0.8722 0.64191 0.69735 0.0
H2606 H 0.88204 0.61761 0.70488 0.0
C2607 C 0.91224 0.53869 0.72932 0.0
C2608 C 0.87766 0.55252 0.70984 0.0
H2609 H 0.8907 0.5919 0.68876 0.0
C2610 C 0.85827 0.54938 0.71381 0.0
C2611 C 0.88927 0.56769 0.70045 0.0
C2612 C 0.90969 0.57104 0.69528 0.0
C2613 C 0.85059 0.56165 0.70907 0.0
C2614 C 0.86253 0.57724 0.7 0.0
C2615 C 0.88163 0.57998 0.69575 0.0
C2616 C 0.85609 0.59166 0.69537 0.0
C2617 C 0.83018 0.5584 0.71418 0.0
C2618 C 0.83826 0.58512 0.68742 0.0
C2619 C 0.83253 0.59902 0.68308 0.0
C2620 C 0.84462 0.61971 0.68654 0.0
C2621 C 0.8625 0.62614 0.69447 0.0
C2622 C 0.8682 0.61226 0.69878 0.0
H2623 H 0.82486 0.54841 0.72302 0.0
H2624 H 0.83136 0.57309 0.71695 0.0
H2625 H 0.81825 0.55118 0.70618 0.0
H2626 H 0.82885 0.5693 0.68453 0.0
H2627 H 0.81856 0.59351 0.6771 0.0
H2628 H 0.47845 0.96599 0.20866 0.0
H2629 H 0.48456 0.97596 0.18531 0.0
H2630 H 0.45833 0.91339 0.17305 0.0
H2631 H 0.452 0.90319 0.1965 0.0
H2632 H 0.49499 0.93866 0.16023 0.0
H2633 H 0.44217 0.96972 0.15715 0.0
H2634 H 0.46035 0.98055 0.17078 0.0
H2635 H 0.4414 0.95396 0.17071 0.0
C2636 C 0.47365 0.95426 0.20102 0.0
C2637 C 0.4645 0.93373 0.2045 0.0
C2638 C 0.47718 0.96002 0.18764 0.0
C2639 C 0.47154 0.94541 0.17738 0.0
C2640 C 0.46269 0.92492 0.18079 0.0
H2641 H 0.47485 0.98053 0.09366 0.0
H2642 H 0.4633 0.96259 0.11484 0.0
C2643 C 0.45916 0.91913 0.19421 0.0
C2644 C 0.47554 0.95173 0.16317 0.0
H2645 H 0.46708 0.97906 0.13971 0.0
C2646 C 0.48871 0.94731 0.1557 0.0
C2647 C 0.46708 0.96271 0.15714 0.0
C2648 C 0.45179 0.96684 0.16431 0.0
C2649 C 0.49435 0.95431 0.14258 0.0
C2650 C 0.48689 0.96637 0.13686 0.0
C2651 C 0.473 0.97003 0.14413 0.0
C2652 C 0.49399 0.9761 0.12362 0.0
C2653 C 0.50824 0.94872 0.13499 0.0
C2654 C 0.51507 0.98965 0.12147 0.0
C2655 C 0.52171 -0.00019 0.10936 0.0
C2656 C 0.50742 -0.00318 0.09913 0.0
C2657 C 0.48631 0.98303 0.10124 0.0
C2658 C 0.47967 0.97286 0.11338 0.0
H2659 H 0.5071 0.93459 0.13884 0.0
H2660 H 0.50435 0.94661 0.12415 0.0
H2661 H 0.52454 0.96105 0.13625 0.0
H2662 H 0.52639 0.99275 0.12929 0.0
H2663 H 0.5381 0.01013 0.10806 0.0
H2664 H 0.09558 0.53034 0.18275 0.0
H2665 H 0.07282 0.52123 0.16313 0.0
H2666 H 0.03701 0.54368 0.18303 0.0
H2667 H 0.06002 0.55331 0.20262 0.0
H2668 H 0.02863 0.4949 0.16155 0.0
H2669 H 0.05353 0.57401 0.14699 0.0
H2670 H 0.06837 0.56802 0.15845 0.0
H2671 H 0.04528 0.56753 0.16397 0.0
C2672 C 0.08296 0.5335 0.18292 0.0
C2673 C 0.07972 0.54272 0.1942 0.0
C2674 C 0.0699 0.52815 0.17175 0.0
C2675 C 0.05342 0.53201 0.17159 0.0
C2676 C 0.04984 0.54083 0.1829 0.0
H2677 H 0.96853 0.51782 0.10666 0.0
H2678 H 0.98632 0.52465 0.1283 0.0
C2679 C 0.06288 0.54615 0.19412 0.0
C2680 C 0.04011 0.52684 0.1595 0.0
H2681 H 0.02744 0.54779 0.13381 0.0
C2682 C 0.02829 0.50643 0.15549 0.0
C2683 C 0.03966 0.54194 0.15168 0.0
C2684 C 0.05248 0.56414 0.15538 0.0
C2685 C 0.01602 0.50068 0.14383 0.0
C2686 C 0.01599 0.51582 0.1358 0.0
C2687 C 0.02751 0.53621 0.13996 0.0
C2688 C 0.00462 0.51094 0.12285 0.0
C2689 C 0.00304 0.47843 0.14031 0.0
C2690 C 0.00911 0.5011 0.11256 0.0
C2691 C -0.0012 0.49696 0.10024 0.0
C2692 C 0.98395 0.50281 0.09788 0.0
C2693 C 0.97961 0.51281 0.10819 0.0
C2694 C 0.98988 0.51686 0.12054 0.0
H2695 H -0.00022 0.46888 0.14928 0.0
H2696 H 0.98811 0.47493 0.13559 0.0
H2697 H 0.01159 0.47419 0.13314 0.0
H2698 H 0.02077 0.4968 0.11401 0.0
H2699 H 0.0024 0.48906 0.09259 0.0
H2700 H 0.48051 0.49718 0.20886 0.0
H2701 H 0.48776 0.49523 0.18534 0.0
H2702 H 0.46714 0.53731 0.17579 0.0
H2703 H 0.46084 0.5402 0.1995 0.0
H2704 H 0.4631 0.48286 0.16359 0.0
H2705 H 0.52329 0.56375 0.15847 0.0
H2706 H 0.51343 0.5525 0.17448 0.0
H2707 H 0.49872 0.5598 0.16401 0.0
C2708 C 0.47778 0.50629 0.20182 0.0
C2709 C 0.47038 0.5191 0.20617 0.0
C2710 C 0.48175 0.50499 0.18833 0.0
C2711 C 0.47835 0.51639 0.1788 0.0
C2712 C 0.47034 0.52872 0.18299 0.0
H2713 H 0.4818 0.4909 0.09313 0.0
H2714 H 0.4703 0.49532 0.11511 0.0
C2715 C 0.46648 0.53014 0.19655 0.0
C2716 C 0.48328 0.51521 0.16453 0.0
H2717 H 0.51388 0.54334 0.13887 0.0
C2718 C 0.47414 0.4961 0.15816 0.0
C2719 C 0.49788 0.53246 0.1575 0.0
C2720 C 0.50906 0.55327 0.16398 0.0
C2721 C 0.47938 0.49369 0.14506 0.0
C2722 C 0.49378 0.51098 0.13797 0.0
C2723 C 0.50272 0.53013 0.14427 0.0
C2724 C 0.50074 0.50938 0.12432 0.0
C2725 C 0.47004 0.47256 0.13917 0.0
C2726 C 0.52181 0.5166 0.12199 0.0
C2727 C 0.52851 0.5145 0.10935 0.0
C2728 C 0.51429 0.50507 0.09873 0.0
C2729 C 0.49324 0.49833 0.10101 0.0
C2730 C 0.48657 0.50059 0.11365 0.0
H2731 H 0.46369 0.46084 0.14701 0.0
H2732 H 0.45716 0.46975 0.13229 0.0
H2733 H 0.48168 0.4707 0.13339 0.0
H2734 H 0.53308 0.5236 0.13002 0.0
H2735 H 0.54488 0.52029 0.10793 0.0
H2736 H 0.97637 0.50593 0.80846 0.0
H2737 H 0.98599 0.50888 0.83212 0.0
H2738 H 0.93971 0.44622 0.83759 0.0
H2739 H 0.9303 0.44308 0.81384 0.0
H2740 H 0.96471 0.50389 0.85491 0.0
H2741 H 0.99069 0.44731 0.85209 0.0
H2742 H 0.98493 0.4571 0.83738 0.0
H2743 H 0.96433 0.43749 0.84683 0.0
C2744 C 0.96812 0.49283 0.81473 0.0
C2745 C 0.95266 0.47423 0.80929 0.0
C2746 C 0.97368 0.49451 0.82824 0.0
C2747 C 0.96387 0.47767 0.83658 0.0
C2748 C 0.9479 0.45927 0.83128 0.0
H2749 H 0.98267 0.46489 0.92148 0.0
H2750 H 0.96763 0.46036 0.89896 0.0
C2751 C 0.94247 0.45751 0.81773 0.0
C2752 C 0.97056 0.47942 0.85077 0.0
H2753 H 0.99027 0.4604 0.87361 0.0
C2754 C 0.97029 0.49437 0.85898 0.0
C2755 C 0.97792 0.46703 0.85609 0.0
C2756 C 0.9797 0.45146 0.84763 0.0
C2757 C 0.97715 0.49724 0.87234 0.0
C2758 C 0.98448 0.48487 0.87761 0.0
C2759 C 0.9845 0.46975 0.86951 0.0
C2760 C 0.99309 0.488 0.89133 0.0
C2761 C 0.97654 0.51345 0.88079 0.0
C2762 C 0.01239 0.50499 0.89441 0.0
C2763 C 0.02105 0.50754 0.90719 0.0
C2764 C 0.01051 0.49318 0.91714 0.0
C2765 C 0.99105 0.47629 0.91405 0.0
C2766 C 0.98248 0.47364 0.90121 0.0
H2767 H 0.96707 0.51923 0.87604 0.0
H2768 H 0.97018 0.50754 0.89081 0.0
H2769 H 0.99252 0.52634 0.88225 0.0
H2770 H 0.02086 0.51613 0.88686 0.0
H2771 H 0.03599 0.52078 0.90931 0.0
H2772 H 0.53785 0.43395 0.83073 0.0
H2773 H 0.52562 0.44198 0.85123 0.0
H2774 H 0.52094 0.4891 0.83094 0.0
H2775 H 0.53254 0.48071 0.81019 0.0
H2776 H 0.5434 0.4785 0.86553 0.0
H2777 H 0.46398 0.45636 0.84807 0.0
H2778 H 0.48027 0.44903 0.83917 0.0
H2779 H 0.4845 0.4743 0.83777 0.0
C2780 C 0.53391 0.44581 0.83053 0.0
C2781 C 0.53598 0.45654 0.81874 0.0
C2782 C 0.52708 0.45049 0.8423 0.0
C2783 C 0.52209 0.46595 0.84258 0.0
C2784 C 0.52434 0.47687 0.8309 0.0
H2785 H 0.47708 0.51126 0.90725 0.0
H2786 H 0.49 0.50619 0.88593 0.0
C2787 C 0.53119 0.47219 0.81908 0.0
C2788 C 0.51498 0.4708 0.8552 0.0
H2789 H 0.47384 0.47127 0.86966 0.0
C2790 C 0.52819 0.47693 0.86644 0.0
C2791 C 0.49516 0.4688 0.85635 0.0
C2792 C 0.48004 0.4616 0.84475 0.0
C2793 C 0.52215 0.48114 0.87878 0.0
C2794 C 0.5022 0.47882 0.87999 0.0
C2795 C 0.48911 0.47301 0.86871 0.0
C2796 C 0.49447 0.48192 0.89295 0.0
C2797 C 0.53726 0.48828 0.89038 0.0
C2798 C 0.49243 0.46978 0.90392 0.0
C2799 C 0.48497 0.47256 0.91609 0.0
C2800 C 0.47926 0.48749 0.91753 0.0
C2801 C 0.48114 0.4995 0.90646 0.0
C2802 C 0.48861 0.4967 0.89429 0.0
H2803 H 0.55345 0.49456 0.88696 0.0
H2804 H 0.53626 0.50004 0.89646 0.0
H2805 H 0.53354 0.47525 0.89691 0.0
H2806 H 0.49639 0.45796 0.90302 0.0
H2807 H 0.48335 0.46278 0.92431 0.0
H2808 H 0.4951 0.04251 0.80891 0.0
H2809 H 0.48872 0.03096 0.83191 0.0
H2810 H 0.5529 0.07157 0.84193 0.0
H2811 H 0.5593 0.08388 0.81896 0.0
H2812 H 0.50615 0.01209 0.84533 0.0
H2813 H 0.52366 0.0833 0.8721 0.0
H2814 H 0.51976 0.08018 0.85422 0.0
H2815 H 0.54393 0.0852 0.86152 0.0
C2816 C 0.50782 0.04939 0.81603 0.0
C2817 C 0.5277 0.06432 0.81203 0.0
C2818 C 0.50416 0.0426 0.82919 0.0
C2819 C 0.52024 0.05055 0.83873 0.0
C2820 C 0.54013 0.06547 0.83484 0.0
H2821 H 0.51823 0.01376 0.92205 0.0
H2822 H 0.52952 0.03067 0.90047 0.0
C2823 C 0.54382 0.07233 0.82163 0.0
C2824 C 0.51618 0.04237 0.85253 0.0
H2825 H 0.51602 0.05501 0.88546 0.0
C2826 C 0.50834 0.02151 0.85409 0.0
C2827 C 0.51916 0.05467 0.864 0.0
C2828 C 0.52692 0.07705 0.86294 0.0
C2829 C 0.50322 0.01258 0.86672 0.0
C2830 C 0.50573 0.02476 0.87814 0.0
C2831 C 0.51407 0.04571 0.87668 0.0
C2832 C 0.49888 0.01572 0.89155 0.0
C2833 C 0.49518 0.99012 0.86776 0.0
C2834 C 0.47786 0.00217 0.89383 0.0
C2835 C 0.47135 0.99261 0.90613 0.0
C2836 C 0.48572 -0.00363 0.91649 0.0
C2837 C 0.50672 0.01056 0.91434 0.0
C2838 C 0.51323 0.02018 0.90199 0.0
H2839 H 0.4991 0.98399 0.85881 0.0
H2840 H 0.50157 0.98677 0.87678 0.0
H2841 H 0.47808 0.98207 0.8686 0.0
H2842 H 0.46647 -0.00119 0.88601 0.0
H2843 H 0.45501 0.98217 0.9075 0.0
H2844 H 0.16334 0.27478 0.53646 0.0
H2845 H 0.17012 0.28644 0.51342 0.0
H2846 H 0.10557 0.26724 0.5077 0.0
H2847 H 0.0987 0.25572 0.53085 0.0
H2848 H 0.15569 0.26713 0.4895 0.0
H2849 H 0.13268 0.32552 0.49622 0.0
H2850 H 0.13614 0.31265 0.51013 0.0
H2851 H 0.11277 0.30034 0.50021 0.0
C2852 C 0.15051 0.27282 0.53028 0.0
C2853 C 0.13047 0.26437 0.53554 0.0
C2854 C 0.15444 0.2796 0.5171 0.0
C2855 C 0.13845 0.2781 0.50886 0.0
C2856 C 0.11829 0.26908 0.51395 0.0
H2857 H 0.14239 0.31933 0.42672 0.0
H2858 H 0.13055 0.30173 0.44805 0.0
C2859 C 0.11436 0.26243 0.52717 0.0
C2860 C 0.14306 0.28611 0.49502 0.0
H2861 H 0.14157 0.32077 0.47435 0.0
C2862 C 0.15256 0.27883 0.4862 0.0
C2863 C 0.139 0.3014 0.49067 0.0
C2864 C 0.12977 0.3106 0.49982 0.0
C2865 C 0.15813 0.28645 0.47321 0.0
C2866 C 0.15429 0.30188 0.46895 0.0
C2867 C 0.14442 0.30888 0.47764 0.0
C2868 C 0.16133 0.3117 0.45577 0.0
C2869 C 0.16806 0.27789 0.46413 0.0
C2870 C 0.18254 0.3232 0.45305 0.0
C2871 C 0.18933 0.33329 0.44092 0.0
C2872 C 0.17505 0.33211 0.43123 0.0
C2873 C 0.15377 0.32038 0.43391 0.0
C2874 C 0.14699 0.3104 0.44611 0.0
H2875 H 0.1652 0.2629 0.46754 0.0
H2876 H 0.16218 0.27625 0.45371 0.0
H2877 H 0.18503 0.28841 0.46409 0.0
H2878 H 0.19389 0.32465 0.46041 0.0
H2879 H 0.20581 0.34205 0.43914 0.0
H2880 H 0.76466 0.89846 0.51755 0.0
H2881 H 0.7441 0.88897 0.49692 0.0
H2882 H 0.69571 0.83602 0.51591 0.0
H2883 H 0.71601 0.84569 0.53677 0.0
H2884 H 0.72956 0.85222 0.48205 0.0
H2885 H 0.66511 0.8633 0.49928 0.0
H2886 H 0.68954 0.87398 0.50815 0.0
H2887 H 0.67088 0.84752 0.50952 0.0
C2888 C 0.7495 0.88497 0.51743 0.0
C2889 C 0.7419 0.87292 0.52884 0.0
C2890 C 0.73784 0.87949 0.50559 0.0
C2891 C 0.71831 0.86193 0.50494 0.0
C2892 C 0.71063 0.84981 0.51628 0.0
H2893 H 0.62897 0.80958 0.43899 0.0
H2894 H 0.64683 0.81612 0.46063 0.0
C2895 C 0.72233 0.85525 0.52814 0.0
C2896 C 0.70637 0.85609 0.4922 0.0
H2897 H 0.66237 0.85017 0.47738 0.0
C2898 C 0.71486 0.85175 0.48102 0.0
C2899 C 0.68716 0.85538 0.49093 0.0
C2900 C 0.67763 0.86043 0.50256 0.0
C2901 C 0.70465 0.84673 0.46857 0.0
C2902 C 0.68565 0.84647 0.4672 0.0
C2903 C 0.67697 0.85044 0.47845 0.0
C2904 C 0.67481 0.84258 0.45412 0.0
C2905 C 0.71419 0.84152 0.45702 0.0
C2906 C 0.6845 0.85548 0.44335 0.0
C2907 C 0.67434 0.85182 0.431 0.0
C2908 C 0.6542 0.83527 0.4292 0.0
C2909 C 0.64441 0.82255 0.44008 0.0
C2910 C 0.65461 0.8262 0.45243 0.0
H2911 H 0.72524 0.83678 0.46053 0.0
H2912 H 0.70213 0.82917 0.45067 0.0
H2913 H 0.72285 0.85509 0.45074 0.0
H2914 H 0.69988 0.8685 0.44453 0.0
H2915 H 0.68216 0.86213 0.42292 0.0
H2916 H 0.15427 0.88738 0.53481 0.0
H2917 H 0.16103 0.88366 0.51132 0.0
H2918 H 0.1185 0.81934 0.51297 0.0
H2919 H 0.11194 0.82287 0.53655 0.0
H2920 H 0.15755 0.8298 0.50261 0.0
H2921 H 0.12451 0.87199 0.47761 0.0
H2922 H 0.14207 0.88559 0.49118 0.0
H2923 H 0.11804 0.86292 0.49449 0.0
C2924 C 0.14626 0.87246 0.53015 0.0
C2925 C 0.13257 0.85542 0.53756 0.0
C2926 C 0.14998 0.87039 0.51669 0.0
C2927 C 0.14008 0.85126 0.51036 0.0
C2928 C 0.12617 0.83426 0.51765 0.0
H2929 H 0.14769 0.82416 0.42598 0.0
H2930 H 0.13523 0.82705 0.44807 0.0
C2931 C 0.12236 0.83633 0.53109 0.0
C2932 C 0.1454 0.84879 0.49645 0.0
H2933 H 0.1458 0.86371 0.46432 0.0
C2934 C 0.15484 0.83709 0.49422 0.0
C2935 C 0.14171 0.85819 0.48551 0.0
C2936 C 0.13085 0.87024 0.48724 0.0
C2937 C 0.16122 0.83499 0.48141 0.0
C2938 C 0.15823 0.845 0.47056 0.0
C2939 C 0.14824 0.85622 0.47269 0.0
C2940 C 0.16575 0.84421 0.457 0.0
C2941 C 0.17113 0.82209 0.47956 0.0
C2942 C 0.18704 0.85329 0.45466 0.0
C2943 C 0.19423 0.85184 0.44204 0.0
C2944 C 0.18025 0.84123 0.43149 0.0
C2945 C 0.1589 0.83258 0.43381 0.0
C2946 C 0.15173 0.83413 0.44645 0.0
H2947 H 0.1681 0.81187 0.48813 0.0
H2948 H 0.16538 0.81277 0.47025 0.0
H2949 H 0.18812 0.83207 0.47873 0.0
H2950 H 0.19812 0.86143 0.46262 0.0
H2951 H 0.21077 0.85908 0.44056 0.0
H2952 H 0.64675 0.84055 0.13927 0.0
H2953 H 0.65605 0.84357 0.16299 0.0
H2954 H 0.60602 0.78269 0.16919 0.0
H2955 H 0.59683 0.77946 0.14539 0.0
H2956 H 0.63477 0.84088 0.18565 0.0
H2957 H 0.65488 0.77994 0.18417 0.0
H2958 H 0.65045 0.79025 0.16921 0.0
H2959 H 0.62894 0.77192 0.17873 0.0
C2960 C 0.63761 0.82787 0.14571 0.0
C2961 C 0.62113 0.80972 0.14046 0.0
C2962 C 0.64298 0.82959 0.15925 0.0
C2963 C 0.63198 0.81323 0.16781 0.0
C2964 C 0.61507 0.79532 0.1627 0.0
H2965 H 0.6515 0.80108 0.25274 0.0
H2966 H 0.63592 0.79647 0.2304 0.0
C2967 C 0.60979 0.79352 0.14912 0.0
C2968 C 0.63846 0.81496 0.18204 0.0
H2969 H 0.6561 0.79465 0.20534 0.0
C2970 C 0.6394 0.83075 0.18996 0.0
C2971 C 0.64453 0.80174 0.18764 0.0
C2972 C 0.64486 0.78512 0.17949 0.0
C2973 C 0.64631 0.83371 0.20331 0.0
C2974 C 0.65251 0.8206 0.20884 0.0
C2975 C 0.65121 0.80459 0.20104 0.0
C2976 C 0.6614 0.82385 0.22249 0.0
C2977 C 0.64694 0.85081 0.21143 0.0
C2978 C 0.68088 0.84072 0.22537 0.0
C2979 C 0.68984 0.84333 0.23805 0.0
C2980 C 0.67943 0.82913 0.2481 0.0
C2981 C 0.65978 0.81236 0.24523 0.0
C2982 C 0.65091 0.80967 0.23249 0.0
H2983 H 0.63753 0.8567 0.20674 0.0
H2984 H 0.64123 0.84579 0.2217 0.0
H2985 H 0.66317 0.86343 0.21226 0.0
H2986 H 0.6893 0.8517 0.21772 0.0
H2987 H 0.70491 0.85647 0.24 0.0
H2988 H 0.23462 0.81287 0.1581 0.0
H2989 H 0.22261 0.81989 0.17915 0.0
H2990 H 0.15933 0.77982 0.16681 0.0
H2991 H 0.1712 0.77268 0.14575 0.0
H2992 H 0.19707 0.83576 0.18446 0.0
H2993 H 0.16221 0.75716 0.2029 0.0
H2994 H 0.17935 0.76595 0.18879 0.0
H2995 H 0.15261 0.7589 0.18679 0.0
C2996 C 0.21813 0.80572 0.1598 0.0
C2997 C 0.20386 0.7921 0.15028 0.0
C2998 C 0.21131 0.80967 0.17187 0.0
C2999 C 0.19009 0.80007 0.17467 0.0
C3000 C 0.17579 0.78699 0.16501 0.0
H3001 H 0.11698 0.80178 0.24119 0.0
H3002 H 0.12967 0.7967 0.21981 0.0
C3003 C 0.18259 0.78296 0.15297 0.0
C3004 C 0.18295 0.8037 0.18771 0.0
H3005 H 0.15548 0.77979 0.21548 0.0
C3006 C 0.18806 0.82355 0.19128 0.0
C3007 C 0.17125 0.78774 0.19661 0.0
C3008 C 0.16618 0.76627 0.19367 0.0
C3009 C 0.1814 0.82781 0.20338 0.0
C3010 C 0.16954 0.81182 0.21221 0.0
C3011 C 0.16451 0.792 0.20867 0.0
C3012 C 0.16204 0.81528 0.22514 0.0
C3013 C 0.18668 0.8493 0.20649 0.0
C3014 C 0.17605 0.82725 0.23528 0.0
C3015 C 0.16885 0.83023 0.24751 0.0
C3016 C 0.14748 0.82127 0.24983 0.0
C3017 C 0.13352 0.80915 0.23966 0.0
C3018 C 0.14073 0.80613 0.22747 0.0
H3019 H 0.19162 0.85882 0.19743 0.0
H3020 H 0.17325 0.84966 0.2109 0.0
H3021 H 0.19961 0.85613 0.21388 0.0
H3022 H 0.19256 0.83419 0.23377 0.0
H3023 H 0.18002 0.83975 0.2551 0.0
H3024 H 0.22128 0.41274 0.15157 0.0
H3025 H 0.21434 0.39988 0.17443 0.0
H3026 H 0.15017 0.36031 0.16392 0.0
H3027 H 0.15703 0.37239 0.14104 0.0
H3028 H 0.18727 0.39952 0.19386 0.0
H3029 H 0.16661 0.32121 0.17937 0.0
H3030 H 0.17926 0.34218 0.16811 0.0
H3031 H 0.15174 0.32998 0.1705 0.0
C3032 C 0.20571 0.4012 0.15409 0.0
C3033 C 0.18975 0.39359 0.14438 0.0
C3034 C 0.20175 0.39396 0.1672 0.0
C3035 C 0.18181 0.37887 0.17085 0.0
C3036 C 0.16577 0.37167 0.1613 0.0
H3037 H 0.11726 0.31137 0.24005 0.0
H3038 H 0.12849 0.32802 0.21853 0.0
C3039 C 0.16969 0.37884 0.14822 0.0
C3040 C 0.17763 0.37047 0.18458 0.0
H3041 H 0.15802 0.32604 0.20152 0.0
C3042 C 0.18107 0.38349 0.19556 0.0
C3043 C 0.16966 0.34956 0.18682 0.0
C3044 C 0.16679 0.33494 0.17559 0.0
C3045 C 0.17597 0.37603 0.20864 0.0
C3046 C 0.16741 0.35503 0.21079 0.0
C3047 C 0.16444 0.34211 0.19985 0.0
C3048 C 0.16078 0.34593 0.22422 0.0
C3049 C 0.17912 0.39052 0.22 0.0
C3050 C 0.1752 0.35048 0.23463 0.0
C3051 C 0.16884 0.34082 0.24697 0.0
C3052 C 0.14793 0.32633 0.24912 0.0
C3053 C 0.13352 0.32215 0.23871 0.0
C3054 C 0.13989 0.33175 0.22641 0.0
H3055 H 0.18197 0.40541 0.21636 0.0
H3056 H 0.16542 0.38405 0.2266 0.0
H3057 H 0.1927 0.39314 0.2261 0.0
H3058 H 0.19145 0.36113 0.2331 0.0
H3059 H 0.18041 0.34425 0.25468 0.0
H3060 H 0.76451 0.58923 0.86509 0.0
H3061 H 0.77197 0.6004 0.84189 0.0
H3062 H 0.83502 0.61413 0.84737 0.0
H3063 H 0.82764 0.60282 0.87044 0.0
H3064 H 0.7988 0.63727 0.83266 0.0
H3065 H 0.82053 0.58259 0.81272 0.0
H3066 H 0.80793 0.57926 0.82861 0.0
H3067 H 0.83546 0.59585 0.8273 0.0
C3068 C 0.77992 0.59449 0.86131 0.0
C3069 C 0.79543 0.59497 0.86961 0.0
C3070 C 0.78416 0.60083 0.84803 0.0
C3071 C 0.80397 0.60778 0.84276 0.0
C3072 C 0.81945 0.60826 0.85103 0.0
H3073 H 0.87298 0.67284 0.77403 0.0
H3074 H 0.86019 0.65538 0.79523 0.0
C3075 C 0.8152 0.60181 0.86426 0.0
C3076 C 0.80885 0.61568 0.8289 0.0
H3077 H 0.83046 0.61217 0.79962 0.0
C3078 C 0.80546 0.63158 0.82538 0.0
C3079 C 0.81751 0.60827 0.81935 0.0
C3080 C 0.82037 0.59041 0.82213 0.0
C3081 C 0.81119 0.64074 0.81281 0.0
C3082 C 0.82044 0.63373 0.80346 0.0
C3083 C 0.82345 0.61758 0.80684 0.0
C3084 C 0.82788 0.64357 0.79033 0.0
C3085 C 0.80799 0.65831 0.80978 0.0
C3086 C 0.81393 0.64245 0.78044 0.0
C3087 C 0.8212 0.65241 0.76829 0.0
C3088 C 0.84258 0.66376 0.76583 0.0
C3089 C 0.85645 0.66448 0.77567 0.0
C3090 C 0.84917 0.65442 0.78776 0.0
H3091 H 0.80394 0.6641 0.81885 0.0
H3092 H 0.82215 0.67092 0.80536 0.0
H3093 H 0.7952 0.65336 0.80237 0.0
H3094 H 0.79742 0.63398 0.78217 0.0
H3095 H 0.81012 0.65162 0.76095 0.0
H3096 H 0.42168 0.18653 0.85399 0.0
H3097 H 0.40101 0.17791 0.83339 0.0
H3098 H 0.37616 0.21556 0.84623 0.0
H3099 H 0.39682 0.22428 0.86685 0.0
H3100 H 0.35851 0.1599 0.82903 0.0
H3101 H 0.3999 0.23825 0.80965 0.0
H3102 H 0.40955 0.23048 0.82359 0.0
H3103 H 0.38915 0.2362 0.82597 0.0
C3104 C 0.41164 0.19279 0.8525 0.0
C3105 C 0.41099 0.2062 0.86201 0.0
C3106 C 0.39991 0.18792 0.8407 0.0
C3107 C 0.38736 0.1964 0.83817 0.0
C3108 C 0.38614 0.20924 0.84784 0.0
H3109 H 0.30926 0.18882 0.77129 0.0
H3110 H 0.32704 0.19507 0.79291 0.0
C3111 C 0.39792 0.21419 0.85962 0.0
C3112 C 0.37574 0.19194 0.82535 0.0
H3113 H 0.37039 0.21417 0.79736 0.0
C3114 C 0.36113 0.17174 0.82208 0.0
C3115 C 0.37924 0.20743 0.8163 0.0
C3116 C 0.39544 0.22929 0.81896 0.0
C3117 C 0.34968 0.16665 0.81008 0.0
C3118 C 0.35316 0.18215 0.80105 0.0
C3119 C 0.36773 0.20234 0.80433 0.0
C3120 C 0.34197 0.17777 0.78809 0.0
C3121 C 0.3337 0.14479 0.80725 0.0
C3122 C 0.34463 0.16611 0.77818 0.0
C3123 C 0.33446 0.16247 0.76583 0.0
C3124 C 0.32147 0.17047 0.76315 0.0
C3125 C 0.31892 0.1822 0.7731 0.0
C3126 C 0.32914 0.18589 0.78543 0.0
H3127 H 0.32941 0.13561 0.81645 0.0
H3128 H 0.3195 0.14355 0.80273 0.0
H3129 H 0.34008 0.13822 0.80004 0.0
H3130 H 0.35474 0.15999 0.77996 0.0
H3131 H 0.33664 0.15326 0.75841 0.0
H3132 H 0.78423 0.1551 0.87025 0.0
H3133 H 0.79186 0.1516 0.84693 0.0
H3134 H 0.82468 0.21658 0.84318 0.0
H3135 H 0.81658 0.22022 0.86638 0.0
H3136 H 0.79941 0.19563 0.82076 0.0
H3137 H 0.85018 0.16507 0.83548 0.0
H3138 H 0.82434 0.1514 0.84185 0.0
H3139 H 0.84139 0.1771 0.84731 0.0
C3140 C 0.79274 0.16865 0.86441 0.0
C3141 C 0.79992 0.18796 0.87023 0.0
C3142 C 0.79728 0.16662 0.85112 0.0
C3143 C 0.80916 0.18384 0.84341 0.0
C3144 C 0.81562 0.20309 0.84899 0.0
H3145 H 0.88015 0.19405 0.77295 0.0
H3146 H 0.86768 0.19696 0.79496 0.0
C3147 C 0.81109 0.20514 0.86228 0.0
C3148 C 0.81555 0.18188 0.82969 0.0
H3149 H 0.84424 0.16592 0.81235 0.0
C3150 C 0.80918 0.1891 0.81889 0.0
C3151 C 0.82854 0.17362 0.82733 0.0
C3152 C 0.8367 0.16651 0.8386 0.0
C3153 C 0.81532 0.18814 0.80576 0.0
C3154 C 0.82797 0.17951 0.80337 0.0
C3155 C 0.83442 0.1724 0.81419 0.0
C3156 C 0.83525 0.17821 0.7898 0.0
C3157 C 0.80863 0.19679 0.7946 0.0
C3158 C 0.82115 0.16663 0.77958 0.0
C3159 C 0.82825 0.16487 0.76698 0.0
C3160 C 0.84959 0.17452 0.76439 0.0
C3161 C 0.86363 0.18619 0.77465 0.0
C3162 C 0.85653 0.18796 0.78722 0.0
H3163 H 0.80331 0.20713 0.79846 0.0
H3164 H 0.82146 0.20522 0.78752 0.0
H3165 H 0.79558 0.18422 0.78898 0.0
H3166 H 0.80467 0.15863 0.78143 0.0
H3167 H 0.81703 0.15553 0.75937 0.0
H3168 H 0.29689 0.11557 0.47261 0.0
H3169 H 0.30553 0.1184 0.49642 0.0
H3170 H 0.28872 0.16453 0.50137 0.0
H3171 H 0.28037 0.16208 0.47748 0.0
H3172 H 0.33613 0.15557 0.50934 0.0
H3173 H 0.25838 0.12407 0.53219 0.0
H3174 H 0.26184 0.11905 0.51497 0.0
H3175 H 0.265 0.14319 0.51979 0.0
C3176 C 0.29502 0.12633 0.47875 0.0
C3177 C 0.28805 0.13869 0.4731 0.0
C3178 C 0.29984 0.12783 0.49236 0.0
C3179 C 0.2976 0.14155 0.50066 0.0
C3180 C 0.29021 0.1536 0.49517 0.0
H3181 H 0.32987 0.17468 0.58491 0.0
H3182 H 0.31626 0.17106 0.56206 0.0
C3183 C 0.28543 0.15216 0.48152 0.0
C3184 C 0.3044 0.14415 0.51483 0.0
H3185 H 0.28718 0.13747 0.54697 0.0
C3186 C 0.32544 0.15159 0.51757 0.0
C3187 C 0.29042 0.13916 0.52552 0.0
C3188 C 0.2676 0.13078 0.52305 0.0
C3189 C 0.33293 0.15417 0.53074 0.0
C3190 C 0.31889 0.14867 0.54146 0.0
C3191 C 0.29787 0.14157 0.53874 0.0
C3192 C 0.3258 0.14985 0.55553 0.0
C3193 C 0.35587 0.16304 0.53305 0.0
C3194 C 0.33509 0.13867 0.55953 0.0
C3195 C 0.3429 0.14074 0.57251 0.0
C3196 C 0.34136 0.15388 0.58181 0.0
C3197 C 0.33123 0.16441 0.57797 0.0
C3198 C 0.32351 0.1624 0.56492 0.0
H3199 H 0.36494 0.17173 0.52429 0.0
H3200 H 0.36129 0.17322 0.542 0.0
H3201 H 0.35919 0.15058 0.53469 0.0
H3202 H 0.33653 0.12848 0.55254 0.0
H3203 H 0.35023 0.13211 0.57526 0.0
H3204 H 0.87866 0.15488 0.47822 0.0
H3205 H 0.86731 0.16324 0.49917 0.0
H3206 H 0.85399 0.10585 0.51532 0.0
H3207 H 0.86543 0.09747 0.49455 0.0
H3208 H 0.82638 0.13856 0.51209 0.0
H3209 H 0.893 0.14999 0.54353 0.0
H3210 H 0.89409 0.15123 0.52551 0.0
H3211 H 0.88084 0.12711 0.53352 0.0
C3212 C 0.87341 0.14411 0.48627 0.0
C3213 C 0.8729 0.1255 0.48472 0.0
C3214 C 0.86687 0.14887 0.49819 0.0
C3215 C 0.86001 0.13523 0.50881 0.0
C3216 C 0.85943 0.11665 0.50728 0.0
H3217 H 0.81641 0.12999 0.58934 0.0
H3218 H 0.82904 0.12475 0.56798 0.0
C3219 C 0.86579 0.11182 0.49536 0.0
C3220 C 0.85313 0.14017 0.52147 0.0
H3221 H 0.86465 0.14895 0.5548 0.0
C3222 C 0.83479 0.14101 0.52143 0.0
C3223 C 0.86412 0.14323 0.53361 0.0
C3224 C 0.88421 0.14302 0.53412 0.0
C3225 C 0.82679 0.14424 0.53331 0.0
C3226 C 0.83774 0.14722 0.5455 0.0
C3227 C 0.85625 0.14664 0.54548 0.0
C3228 C 0.8301 0.15057 0.55845 0.0
C3229 C 0.80632 0.1437 0.53275 0.0
C3230 C 0.82676 0.167 0.56028 0.0
C3231 C 0.81946 0.16997 0.57247 0.0
C3232 C 0.81562 0.15674 0.58314 0.0
C3233 C 0.81935 0.14053 0.58136 0.0
C3234 C 0.82651 0.13748 0.56914 0.0
H3235 H 0.79734 0.13579 0.52356 0.0
H3236 H 0.79678 0.13601 0.54159 0.0
H3237 H 0.80917 0.15944 0.53266 0.0
H3238 H 0.82996 0.17763 0.55232 0.0
H3239 H 0.81709 0.18281 0.5736 0.0
H3240 H 0.83314 0.73688 0.48284 0.0
H3241 H 0.82578 0.72521 0.5059 0.0
H3242 H 0.87567 0.71217 0.50501 0.0
H3243 H 0.88309 0.72375 0.48195 0.0
H3244 H 0.81387 0.68706 0.51442 0.0
H3245 H 0.88634 0.74265 0.54053 0.0
H3246 H 0.87965 0.74674 0.52394 0.0
H3247 H 0.89054 0.73062 0.52631 0.0
C3248 C 0.84264 0.73164 0.48757 0.0
C3249 C 0.85871 0.73126 0.48051 0.0
C3250 C 0.83846 0.72505 0.50078 0.0
C3251 C 0.85031 0.71802 0.50727 0.0
C3252 C 0.86661 0.71797 0.50035 0.0
H3253 H 0.81301 0.63466 0.57293 0.0
H3254 H 0.82356 0.65205 0.5516 0.0
C3255 C 0.87083 0.72459 0.48714 0.0
C3256 C 0.84464 0.70937 0.52089 0.0
H3257 H 0.86344 0.713 0.55265 0.0
C3258 C 0.82468 0.69284 0.52279 0.0
C3259 C 0.85865 0.71702 0.53186 0.0
C3260 C 0.87993 0.73536 0.53063 0.0
C3261 C 0.81854 0.68344 0.53524 0.0
C3262 C 0.83282 0.69054 0.54607 0.0
C3263 C 0.85259 0.70742 0.5443 0.0
C3264 C 0.82746 0.68042 0.55924 0.0
C3265 C 0.79672 0.66603 0.53672 0.0
C3266 C 0.82678 0.69079 0.57075 0.0
C3267 C 0.82067 0.68085 0.583 0.0
C3268 C 0.81522 0.66036 0.58399 0.0
C3269 C 0.81662 0.65028 0.57249 0.0
C3270 C 0.8227 0.66021 0.56028 0.0
H3271 H 0.78629 0.66586 0.52871 0.0
H3272 H 0.7968 0.65153 0.53607 0.0
H3273 H 0.7903 0.66679 0.54657 0.0
H3274 H 0.83047 0.70643 0.57018 0.0
H3275 H 0.81965 0.68905 0.5916 0.0
loop_
_geom_bond_atom_site_label_1
_geom_bond_atom_site_label_2
_geom_bond_distance
_geom_bond_site_symmetry_2
_ccdc_geom_bond_type
P0 O11 1.490 . S
P0 C14 1.812 . S
P0 C20 1.803 . S
P0 C26 1.819 . S
H1 C15 0.941 . S
H2 C16 0.939 . S
H3 C18 0.940 . S
H4 C19 0.940 . S
H5 C21 0.939 . S
H6 C22 0.942 . S
H7 C24 0.940 . S
H8 C25 0.939 . S
H9 C27 0.941 . S
H10 C31 0.939 . S
O11 P0 1.490 . S
H12 C28 0.939 . S
H13 C30 0.940 . S
C14 P0 1.812 . S
C14 C15 1.389 . S
C14 C19 1.391 . S
C15 H1 0.941 . S
C15 C14 1.389 . S
C15 C16 1.397 . S
C16 H2 0.939 . S
C16 C15 1.397 . S
C16 C17 1.378 . S
C17 C16 1.378 . S
C17 C18 1.378 . S
C18 H3 0.940 . S
C18 C17 1.378 . S
C18 C19 1.396 . S
C19 H4 0.940 . S
C19 C14 1.391 . S
C19 C18 1.396 . S
C20 P0 1.803 . S
C20 C21 1.378 . S
C20 C25 1.400 . S
C21 H5 0.939 . S
C21 C20 1.378 . S
C21 C22 1.361 . S
C22 H6 0.942 . S
C22 C21 1.361 . S
C22 C23 1.369 . S
C23 C22 1.369 . S
C23 C24 1.404 . S
C24 H7 0.940 . S
C24 C23 1.404 . S
C24 C25 1.389 . S
C25 H8 0.939 . S
C25 C20 1.400 . S
C25 C24 1.389 . S
C26 P0 1.819 . S
C26 C27 1.391 . S
C26 C31 1.391 . S
C27 H9 0.941 . S
C27 C26 1.391 . S
C27 C28 1.396 . S
C28 H12 0.939 . S
C28 C27 1.396 . S
C28 C29 1.397 . S
C29 C28 1.397 . S
C29 C30 1.385 . S
C30 H13 0.940 . S
C30 C29 1.385 . S
C30 C31 1.388 . S
C31 H10 0.939 . S
C31 C26 1.391 . S
C31 C30 1.388 . S
P32 O43 1.490 . S
P32 C46 1.812 . S
P32 C52 1.803 . S
P32 C58 1.819 . S
H33 C47 0.941 . S
H34 C48 0.939 . S
H35 C50 0.940 . S
H36 C51 0.940 . S
H37 C53 0.939 . S
H38 C54 0.942 . S
H39 C56 0.940 . S
H40 C57 0.939 . S
H41 C59 0.941 . S
H42 C63 0.939 . S
O43 P32 1.490 . S
H44 C60 0.939 . S
H45 C62 0.940 . S
C46 P32 1.812 . S
C46 C47 1.389 . S
C46 C51 1.391 . S
C47 H33 0.941 . S
C47 C46 1.389 . S
C47 C48 1.397 . S
C48 H34 0.939 . S
C48 C47 1.397 . S
C48 C49 1.378 . S
C49 C48 1.378 . S
C49 C50 1.378 . S
C50 H35 0.940 . S
C50 C49 1.378 . S
C50 C51 1.396 . S
C51 H36 0.940 . S
C51 C46 1.391 . S
C51 C50 1.396 . S
C52 P32 1.803 . S
C52 C53 1.378 . S
C52 C57 1.400 . S
C53 H37 0.939 . S
C53 C52 1.378 . S
C53 C54 1.361 . S
C54 H38 0.942 . S
C54 C53 1.361 . S
C54 C55 1.369 . S
C55 C54 1.369 . S
C55 C56 1.404 . S
C56 H39 0.940 . S
C56 C55 1.404 . S
C56 C57 1.389 . S
C57 H40 0.939 . S
C57 C52 1.400 . S
C57 C56 1.389 . S
C58 P32 1.819 . S
C58 C59 1.391 . S
C58 C63 1.391 . S
C59 H41 0.941 . S
C59 C58 1.391 . S
C59 C60 1.396 . S
C60 H44 0.939 . S
C60 C59 1.396 . S
C60 C61 1.397 . S
C61 C60 1.397 . S
C61 C62 1.385 . S
C62 H45 0.940 . S
C62 C61 1.385 . S
C62 C63 1.388 . S
C63 H42 0.939 . S
C63 C58 1.391 . S
C63 C62 1.388 . S
P64 O75 1.490 . S
P64 C78 1.812 . S
P64 C84 1.803 . S
P64 C90 1.819 . S
H65 C79 0.941 . S
H66 C80 0.939 . S
H67 C82 0.940 . S
H68 C83 0.940 . S
H69 C85 0.939 . S
H70 C86 0.942 . S
H71 C88 0.940 . S
H72 C89 0.939 . S
H73 C91 0.941 . S
H74 C95 0.939 . S
O75 P64 1.490 . S
H76 C92 0.939 . S
H77 C94 0.940 . S
C78 P64 1.812 . S
C78 C79 1.389 . S
C78 C83 1.391 . S
C79 H65 0.941 . S
C79 C78 1.389 . S
C79 C80 1.397 . S
C80 H66 0.939 . S
C80 C79 1.397 . S
C80 C81 1.378 . S
C81 C80 1.378 . S
C81 C82 1.378 . S
C82 H67 0.940 . S
C82 C81 1.378 . S
C82 C83 1.396 . S
C83 H68 0.940 . S
C83 C78 1.391 . S
C83 C82 1.396 . S
C84 P64 1.803 . S
C84 C85 1.378 . S
C84 C89 1.400 . S
C85 H69 0.939 . S
C85 C84 1.378 . S
C85 C86 1.361 . S
C86 H70 0.942 . S
C86 C85 1.361 . S
C86 C87 1.369 . S
C87 C86 1.369 . S
C87 C88 1.404 . S
C88 H71 0.940 . S
C88 C87 1.404 . S
C88 C89 1.389 . S
C89 H72 0.939 . S
C89 C84 1.400 . S
C89 C88 1.389 . S
C90 P64 1.819 . S
C90 C91 1.391 . S
C90 C95 1.391 . S
C91 H73 0.941 . S
C91 C90 1.391 . S
C91 C92 1.396 . S
C92 H76 0.939 . S
C92 C91 1.396 . S
C92 C93 1.397 . S
C93 C92 1.397 . S
C93 C94 1.385 . S
C94 H77 0.940 . S
C94 C93 1.385 . S
C94 C95 1.388 . S
C95 H74 0.939 . S
C95 C90 1.391 . S
C95 C94 1.388 . S
P96 O107 1.490 . S
P96 C110 1.812 . S
P96 C116 1.803 . S
P96 C122 1.819 . S
H97 C111 0.941 . S
H98 C112 0.939 . S
H99 C114 0.940 . S
H100 C115 0.940 . S
H101 C117 0.939 . S
H102 C118 0.942 . S
H103 C120 0.940 . S
H104 C121 0.939 . S
H105 C123 0.941 . S
H106 C127 0.939 . S
O107 P96 1.490 . S
H108 C124 0.939 . S
H109 C126 0.940 . S
C110 P96 1.812 . S
C110 C111 1.389 . S
C110 C115 1.391 . S
C111 H97 0.941 . S
C111 C110 1.389 . S
C111 C112 1.397 . S
C112 H98 0.939 . S
C112 C111 1.397 . S
C112 C113 1.378 . S
C113 C112 1.378 . S
C113 C114 1.378 . S
C114 H99 0.940 . S
C114 C113 1.378 . S
C114 C115 1.396 . S
C115 H100 0.940 . S
C115 C110 1.391 . S
C115 C114 1.396 . S
C116 P96 1.803 . S
C116 C117 1.378 . S
C116 C121 1.400 . S
C117 H101 0.939 . S
C117 C116 1.378 . S
C117 C118 1.361 . S
C118 H102 0.942 . S
C118 C117 1.361 . S
C118 C119 1.369 . S
C119 C118 1.369 . S
C119 C120 1.404 . S
C120 H103 0.940 . S
C120 C119 1.404 . S
C120 C121 1.389 . S
C121 H104 0.939 . S
C121 C116 1.400 . S
C121 C120 1.389 . S
C122 P96 1.819 . S
C122 C123 1.391 . S
C122 C127 1.391 . S
C123 H105 0.941 . S
C123 C122 1.391 . S
C123 C124 1.396 . S
C124 H108 0.939 . S
C124 C123 1.396 . S
C124 C125 1.397 . S
C125 C124 1.397 . S
C125 C126 1.385 . S
C126 H109 0.940 . S
C126 C125 1.385 . S
C126 C127 1.388 . S
C127 H106 0.939 . S
C127 C122 1.391 . S
C127 C126 1.388 . S
P128 O139 1.490 . S
P128 C142 1.812 . S
P128 C148 1.803 . S
P128 C154 1.819 . S
H129 C143 0.941 . S
H130 C144 0.939 . S
H131 C146 0.940 . S
H132 C147 0.940 . S
H133 C149 0.939 . S
H134 C150 0.942 . S
H135 C152 0.940 . S
H136 C153 0.939 . S
H137 C155 0.941 . S
H138 C159 0.939 . S
O139 P128 1.490 . S
H140 C156 0.939 . S
H141 C158 0.940 . S
C142 P128 1.812 . S
C142 C143 1.389 . S
C142 C147 1.391 . S
C143 H129 0.941 . S
C143 C142 1.389 . S
C143 C144 1.397 . S
C144 H130 0.939 . S
C144 C143 1.397 . S
C144 C145 1.378 . S
C145 C144 1.378 . S
C145 C146 1.378 . S
C146 H131 0.940 . S
C146 C145 1.378 . S
C146 C147 1.396 . S
C147 H132 0.940 . S
C147 C142 1.391 . S
C147 C146 1.396 . S
C148 P128 1.803 . S
C148 C149 1.378 . S
C148 C153 1.400 . S
C149 H133 0.939 . S
C149 C148 1.378 . S
C149 C150 1.361 . S
C150 H134 0.942 . S
C150 C149 1.361 . S
C150 C151 1.369 . S
C151 C150 1.369 . S
C151 C152 1.404 . S
C152 H135 0.940 . S
C152 C151 1.404 . S
C152 C153 1.389 . S
C153 H136 0.939 . S
C153 C148 1.400 . S
C153 C152 1.389 . S
C154 P128 1.819 . S
C154 C155 1.391 . S
C154 C159 1.391 . S
C155 H137 0.941 . S
C155 C154 1.391 . S
C155 C156 1.396 . S
C156 H140 0.939 . S
C156 C155 1.396 . S
C156 C157 1.397 . S
C157 C156 1.397 . S
C157 C158 1.385 . S
C158 H141 0.940 . S
C158 C157 1.385 . S
C158 C159 1.388 . S
C159 H138 0.939 . S
C159 C154 1.391 . S
C159 C158 1.388 . S
P160 O171 1.490 . S
P160 C174 1.812 . S
P160 C180 1.803 . S
P160 C186 1.819 . S
H161 C175 0.941 . S
H162 C176 0.939 . S
H163 C178 0.940 . S
H164 C179 0.940 . S
H165 C181 0.939 . S
H166 C182 0.942 . S
H167 C184 0.940 . S
H168 C185 0.939 . S
H169 C187 0.941 . S
H170 C191 0.939 . S
O171 P160 1.490 . S
H172 C188 0.939 . S
H173 C190 0.940 . S
C174 P160 1.812 . S
C174 C175 1.389 . S
C174 C179 1.391 . S
C175 H161 0.941 . S
C175 C174 1.389 . S
C175 C176 1.397 . S
C176 H162 0.939 . S
C176 C175 1.397 . S
C176 C177 1.378 . S
C177 C176 1.378 . S
C177 C178 1.378 . S
C178 H163 0.940 . S
C178 C177 1.378 . S
C178 C179 1.396 . S
C179 H164 0.940 . S
C179 C174 1.391 . S
C179 C178 1.396 . S
C180 P160 1.803 . S
C180 C181 1.378 . S
C180 C185 1.400 . S
C181 H165 0.939 . S
C181 C180 1.378 . S
C181 C182 1.361 . S
C182 H166 0.942 . S
C182 C181 1.361 . S
C182 C183 1.369 . S
C183 C182 1.369 . S
C183 C184 1.404 . S
C184 H167 0.940 . S
C184 C183 1.404 . S
C184 C185 1.389 . S
C185 H168 0.939 . S
C185 C180 1.400 . S
C185 C184 1.389 . S
C186 P160 1.819 . S
C186 C187 1.391 . S
C186 C191 1.391 . S
C187 H169 0.941 . S
C187 C186 1.391 . S
C187 C188 1.396 . S
C188 H172 0.939 . S
C188 C187 1.396 . S
C188 C189 1.397 . S
C189 C188 1.397 . S
C189 C190 1.385 . S
C190 H173 0.940 . S
C190 C189 1.385 . S
C190 C191 1.388 . S
C191 H170 0.939 . S
C191 C186 1.391 . S
C191 C190 1.388 . S
P192 O203 1.490 . S
P192 C206 1.812 . S
P192 C212 1.803 . S
P192 C218 1.819 . S
H193 C207 0.941 . S
H194 C208 0.939 . S
H195 C210 0.940 . S
H196 C211 0.940 . S
H197 C213 0.939 . S
H198 C214 0.942 . S
H199 C216 0.940 . S
H200 C217 0.939 . S
H201 C219 0.941 . S
H202 C223 0.939 . S
O203 P192 1.490 . S
H204 C220 0.939 . S
H205 C222 0.940 . S
C206 P192 1.812 . S
C206 C207 1.389 . S
C206 C211 1.391 . S
C207 H193 0.941 . S
C207 C206 1.389 . S
C207 C208 1.397 . S
C208 H194 0.939 . S
C208 C207 1.397 . S
C208 C209 1.378 . S
C209 C208 1.378 . S
C209 C210 1.378 . S
C210 H195 0.940 . S
C210 C209 1.378 . S
C210 C211 1.396 . S
C211 H196 0.940 . S
C211 C206 1.391 . S
C211 C210 1.396 . S
C212 P192 1.803 . S
C212 C213 1.378 . S
C212 C217 1.400 . S
C213 H197 0.939 . S
C213 C212 1.378 . S
C213 C214 1.361 . S
C214 H198 0.942 . S
C214 C213 1.361 . S
C214 C215 1.369 . S
C215 C214 1.369 . S
C215 C216 1.404 . S
C216 H199 0.940 . S
C216 C215 1.404 . S
C216 C217 1.389 . S
C217 H200 0.939 . S
C217 C212 1.400 . S
C217 C216 1.389 . S
C218 P192 1.819 . S
C218 C219 1.391 . S
C218 C223 1.391 . S
C219 H201 0.941 . S
C219 C218 1.391 . S
C219 C220 1.396 . S
C220 H204 0.939 . S
C220 C219 1.396 . S
C220 C221 1.397 . S
C221 C220 1.397 . S
C221 C222 1.385 . S
C222 H205 0.940 . S
C222 C221 1.385 . S
C222 C223 1.388 . S
C223 H202 0.939 . S
C223 C218 1.391 . S
C223 C222 1.388 . S
P224 O235 1.490 . S
P224 C238 1.812 . S
P224 C244 1.803 . S
P224 C250 1.819 . S
H225 C239 0.941 . S
H226 C240 0.939 . S
H227 C242 0.940 . S
H228 C243 0.940 . S
H229 C245 0.939 . S
H230 C246 0.942 . S
H231 C248 0.940 . S
H232 C249 0.939 . S
H233 C251 0.941 . S
H234 C255 0.939 . S
O235 P224 1.490 . S
H236 C252 0.939 . S
H237 C254 0.940 . S
C238 P224 1.812 . S
C238 C239 1.389 . S
C238 C243 1.391 . S
C239 H225 0.941 . S
C239 C238 1.389 . S
C239 C240 1.397 . S
C240 H226 0.939 . S
C240 C239 1.397 . S
C240 C241 1.378 . S
C241 C240 1.378 . S
C241 C242 1.378 . S
C242 H227 0.940 . S
C242 C241 1.378 . S
C242 C243 1.396 . S
C243 H228 0.940 . S
C243 C238 1.391 . S
C243 C242 1.396 . S
C244 P224 1.803 . S
C244 C245 1.378 . S
C244 C249 1.400 . S
C245 H229 0.939 . S
C245 C244 1.378 . S
C245 C246 1.361 . S
C246 H230 0.942 . S
C246 C245 1.361 . S
C246 C247 1.369 . S
C247 C246 1.369 . S
C247 C248 1.404 . S
C248 H231 0.940 . S
C248 C247 1.404 . S
C248 C249 1.389 . S
C249 H232 0.939 . S
C249 C244 1.400 . S
C249 C248 1.389 . S
C250 P224 1.819 . S
C250 C251 1.391 . S
C250 C255 1.391 . S
C251 H233 0.941 . S
C251 C250 1.391 . S
C251 C252 1.396 . S
C252 H236 0.939 . S
C252 C251 1.396 . S
C252 C253 1.397 . S
C253 C252 1.397 . S
C253 C254 1.385 . S
C254 H237 0.940 . S
C254 C253 1.385 . S
C254 C255 1.388 . S
C255 H234 0.939 . S
C255 C250 1.391 . S
C255 C254 1.388 . S
P256 O267 1.490 . S
P256 C270 1.812 . S
P256 C276 1.803 . S
P256 C282 1.819 . S
H257 C271 0.941 . S
H258 C272 0.939 . S
H259 C274 0.940 . S
H260 C275 0.940 . S
H261 C277 0.939 . S
H262 C278 0.942 . S
H263 C280 0.940 . S
H264 C281 0.939 . S
H265 C283 0.941 . S
H266 C287 0.939 . S
O267 P256 1.490 . S
H268 C284 0.939 . S
H269 C286 0.940 . S
C270 P256 1.812 . S
C270 C271 1.389 . S
C270 C275 1.391 . S
C271 H257 0.941 . S
C271 C270 1.389 . S
C271 C272 1.397 . S
C272 H258 0.939 . S
C272 C271 1.397 . S
C272 C273 1.378 . S
C273 C272 1.378 . S
C273 C274 1.378 . S
C274 H259 0.940 . S
C274 C273 1.378 . S
C274 C275 1.396 . S
C275 H260 0.940 . S
C275 C270 1.391 . S
C275 C274 1.396 . S
C276 P256 1.803 . S
C276 C277 1.378 . S
C276 C281 1.400 . S
C277 H261 0.939 . S
C277 C276 1.378 . S
C277 C278 1.361 . S
C278 H262 0.942 . S
C278 C277 1.361 . S
C278 C279 1.369 . S
C279 C278 1.369 . S
C279 C280 1.404 . S
C280 H263 0.940 . S
C280 C279 1.404 . S
C280 C281 1.389 . S
C281 H264 0.939 . S
C281 C276 1.400 . S
C281 C280 1.389 . S
C282 P256 1.819 . S
C282 C283 1.391 . S
C282 C287 1.391 . S
C283 H265 0.941 . S
C283 C282 1.391 . S
C283 C284 1.396 . S
C284 H268 0.939 . S
C284 C283 1.396 . S
C284 C285 1.397 . S
C285 C284 1.397 . S
C285 C286 1.385 . S
C286 H269 0.940 . S
C286 C285 1.385 . S
C286 C287 1.388 . S
C287 H266 0.939 . S
C287 C282 1.391 . S
C287 C286 1.388 . S
P288 O299 1.490 . S
P288 C302 1.812 . S
P288 C308 1.803 . S
P288 C314 1.819 . S
H289 C303 0.941 . S
H290 C304 0.939 . S
H291 C306 0.940 . S
H292 C307 0.940 . S
H293 C309 0.939 . S
H294 C310 0.942 . S
H295 C312 0.940 . S
H296 C313 0.939 . S
H297 C315 0.941 . S
H298 C319 0.939 . S
O299 P288 1.490 . S
H300 C316 0.939 . S
H301 C318 0.940 . S
C302 P288 1.812 . S
C302 C303 1.389 . S
C302 C307 1.391 . S
C303 H289 0.941 . S
C303 C302 1.389 . S
C303 C304 1.397 . S
C304 H290 0.939 . S
C304 C303 1.397 . S
C304 C305 1.378 . S
C305 C304 1.378 . S
C305 C306 1.378 . S
C306 H291 0.940 . S
C306 C305 1.378 . S
C306 C307 1.396 . S
C307 H292 0.940 . S
C307 C302 1.391 . S
C307 C306 1.396 . S
C308 P288 1.803 . S
C308 C309 1.378 . S
C308 C313 1.400 . S
C309 H293 0.939 . S
C309 C308 1.378 . S
C309 C310 1.361 . S
C310 H294 0.942 . S
C310 C309 1.361 . S
C310 C311 1.369 . S
C311 C310 1.369 . S
C311 C312 1.404 . S
C312 H295 0.940 . S
C312 C311 1.404 . S
C312 C313 1.389 . S
C313 H296 0.939 . S
C313 C308 1.400 . S
C313 C312 1.389 . S
C314 P288 1.819 . S
C314 C315 1.391 . S
C314 C319 1.391 . S
C315 H297 0.941 . S
C315 C314 1.391 . S
C315 C316 1.396 . S
C316 H300 0.939 . S
C316 C315 1.396 . S
C316 C317 1.397 . S
C317 C316 1.397 . S
C317 C318 1.385 . S
C318 H301 0.940 . S
C318 C317 1.385 . S
C318 C319 1.388 . S
C319 H298 0.939 . S
C319 C314 1.391 . S
C319 C318 1.388 . S
P320 O331 1.490 . S
P320 C334 1.812 . S
P320 C340 1.803 . S
P320 C346 1.819 . S
H321 C335 0.941 . S
H322 C336 0.939 . S
H323 C338 0.940 . S
H324 C339 0.940 . S
H325 C341 0.939 . S
H326 C342 0.942 . S
H327 C344 0.940 . S
H328 C345 0.939 . S
H329 C347 0.941 . S
H330 C351 0.939 . S
O331 P320 1.490 . S
H332 C348 0.939 . S
H333 C350 0.940 . S
C334 P320 1.812 . S
C334 C335 1.389 . S
C334 C339 1.391 . S
C335 H321 0.941 . S
C335 C334 1.389 . S
C335 C336 1.397 . S
C336 H322 0.939 . S
C336 C335 1.397 . S
C336 C337 1.378 . S
C337 C336 1.378 . S
C337 C338 1.378 . S
C338 H323 0.940 . S
C338 C337 1.378 . S
C338 C339 1.396 . S
C339 H324 0.940 . S
C339 C334 1.391 . S
C339 C338 1.396 . S
C340 P320 1.803 . S
C340 C341 1.378 . S
C340 C345 1.400 . S
C341 H325 0.939 . S
C341 C340 1.378 . S
C341 C342 1.361 . S
C342 H326 0.942 . S
C342 C341 1.361 . S
C342 C343 1.369 . S
C343 C342 1.369 . S
C343 C344 1.404 . S
C344 H327 0.940 . S
C344 C343 1.404 . S
C344 C345 1.389 . S
C345 H328 0.939 . S
C345 C340 1.400 . S
C345 C344 1.389 . S
C346 P320 1.819 . S
C346 C347 1.391 . S
C346 C351 1.391 . S
C347 H329 0.941 . S
C347 C346 1.391 . S
C347 C348 1.396 . S
C348 H332 0.939 . S
C348 C347 1.396 . S
C348 C349 1.397 . S
C349 C348 1.397 . S
C349 C350 1.385 . S
C350 H333 0.940 . S
C350 C349 1.385 . S
C350 C351 1.388 . S
C351 H330 0.939 . S
C351 C346 1.391 . S
C351 C350 1.388 . S
P352 O363 1.490 . S
P352 C366 1.812 . S
P352 C372 1.803 . S
P352 C378 1.819 . S
H353 C367 0.941 . S
H354 C368 0.939 . S
H355 C370 0.940 . S
H356 C371 0.940 . S
H357 C373 0.939 . S
H358 C374 0.942 . S
H359 C376 0.940 . S
H360 C377 0.939 . S
H361 C379 0.941 . S
H362 C383 0.939 . S
O363 P352 1.490 . S
H364 C380 0.939 . S
H365 C382 0.940 . S
C366 P352 1.812 . S
C366 C367 1.389 . S
C366 C371 1.391 . S
C367 H353 0.941 . S
C367 C366 1.389 . S
C367 C368 1.397 . S
C368 H354 0.939 . S
C368 C367 1.397 . S
C368 C369 1.378 . S
C369 C368 1.378 . S
C369 C370 1.378 . S
C370 H355 0.940 . S
C370 C369 1.378 . S
C370 C371 1.396 . S
C371 H356 0.940 . S
C371 C366 1.391 . S
C371 C370 1.396 . S
C372 P352 1.803 . S
C372 C373 1.378 . S
C372 C377 1.400 . S
C373 H357 0.939 . S
C373 C372 1.378 . S
C373 C374 1.361 . S
C374 H358 0.942 . S
C374 C373 1.361 . S
C374 C375 1.369 . S
C375 C374 1.369 . S
C375 C376 1.404 . S
C376 H359 0.940 . S
C376 C375 1.404 . S
C376 C377 1.389 . S
C377 H360 0.939 . S
C377 C372 1.400 . S
C377 C376 1.389 . S
C378 P352 1.819 . S
C378 C379 1.391 . S
C378 C383 1.391 . S
C379 H361 0.941 . S
C379 C378 1.391 . S
C379 C380 1.396 . S
C380 H364 0.939 . S
C380 C379 1.396 . S
C380 C381 1.397 . S
C381 C380 1.397 . S
C381 C382 1.385 . S
C382 H365 0.940 . S
C382 C381 1.385 . S
C382 C383 1.388 . S
C383 H362 0.939 . S
C383 C378 1.391 . S
C383 C382 1.388 . S
P384 O395 1.490 . S
P384 C398 1.812 . S
P384 C404 1.803 . S
P384 C410 1.819 . S
H385 C399 0.941 . S
H386 C400 0.939 . S
H387 C402 0.940 . S
H388 C403 0.940 . S
H389 C405 0.939 . S
H390 C406 0.942 . S
H391 C408 0.940 . S
H392 C409 0.939 . S
H393 C411 0.941 . S
H394 C415 0.939 . S
O395 P384 1.490 . S
H396 C412 0.939 . S
H397 C414 0.940 . S
C398 P384 1.812 . S
C398 C399 1.389 . S
C398 C403 1.391 . S
C399 H385 0.941 . S
C399 C398 1.389 . S
C399 C400 1.397 . S
C400 H386 0.939 . S
C400 C399 1.397 . S
C400 C401 1.378 . S
C401 C400 1.378 . S
C401 C402 1.378 . S
C402 H387 0.940 . S
C402 C401 1.378 . S
C402 C403 1.396 . S
C403 H388 0.940 . S
C403 C398 1.391 . S
C403 C402 1.396 . S
C404 P384 1.803 . S
C404 C405 1.378 . S
C404 C409 1.400 . S
C405 H389 0.939 . S
C405 C404 1.378 . S
C405 C406 1.361 . S
C406 H390 0.942 . S
C406 C405 1.361 . S
C406 C407 1.369 . S
C407 C406 1.369 . S
C407 C408 1.404 . S
C408 H391 0.940 . S
C408 C407 1.404 . S
C408 C409 1.389 . S
C409 H392 0.939 . S
C409 C404 1.400 . S
C409 C408 1.389 . S
C410 P384 1.819 . S
C410 C411 1.391 . S
C410 C415 1.391 . S
C411 H393 0.941 . S
C411 C410 1.391 . S
C411 C412 1.396 . S
C412 H396 0.939 . S
C412 C411 1.396 . S
C412 C413 1.397 . S
C413 C412 1.397 . S
C413 C414 1.385 . S
C414 H397 0.940 . S
C414 C413 1.385 . S
C414 C415 1.388 . S
C415 H394 0.939 . S
C415 C410 1.391 . S
C415 C414 1.388 . S
P416 O427 1.490 . S
P416 C430 1.812 . S
P416 C436 1.803 . S
P416 C442 1.819 . S
H417 C431 0.941 . S
H418 C432 0.939 . S
H419 C434 0.940 . S
H420 C435 0.940 . S
H421 C437 0.939 . S
H422 C438 0.942 . S
H423 C440 0.940 . S
H424 C441 0.939 . S
H425 C443 0.941 . S
H426 C447 0.939 . S
O427 P416 1.490 . S
H428 C444 0.939 . S
H429 C446 0.940 . S
C430 P416 1.812 . S
C430 C431 1.389 . S
C430 C435 1.391 . S
C431 H417 0.941 . S
C431 C430 1.389 . S
C431 C432 1.397 . S
C432 H418 0.939 . S
C432 C431 1.397 . S
C432 C433 1.378 . S
C433 C432 1.378 . S
C433 C434 1.378 . S
C434 H419 0.940 . S
C434 C433 1.378 . S
C434 C435 1.396 . S
C435 H420 0.940 . S
C435 C430 1.391 . S
C435 C434 1.396 . S
C436 P416 1.803 . S
C436 C437 1.378 . S
C436 C441 1.400 . S
C437 H421 0.939 . S
C437 C436 1.378 . S
C437 C438 1.361 . S
C438 H422 0.942 . S
C438 C437 1.361 . S
C438 C439 1.369 . S
C439 C438 1.369 . S
C439 C440 1.404 . S
C440 H423 0.940 . S
C440 C439 1.404 . S
C440 C441 1.389 . S
C441 H424 0.939 . S
C441 C436 1.400 . S
C441 C440 1.389 . S
C442 P416 1.819 . S
C442 C443 1.391 . S
C442 C447 1.391 . S
C443 H425 0.941 . S
C443 C442 1.391 . S
C443 C444 1.396 . S
C444 H428 0.939 . S
C444 C443 1.396 . S
C444 C445 1.397 . S
C445 C444 1.397 . S
C445 C446 1.385 . S
C446 H429 0.940 . S
C446 C445 1.385 . S
C446 C447 1.388 . S
C447 H426 0.939 . S
C447 C442 1.391 . S
C447 C446 1.388 . S
P448 O459 1.490 . S
P448 C462 1.812 . S
P448 C468 1.803 . S
P448 C474 1.819 . S
H449 C463 0.941 . S
H450 C464 0.939 . S
H451 C466 0.940 . S
H452 C467 0.940 . S
H453 C469 0.939 . S
H454 C470 0.942 . S
H455 C472 0.940 . S
H456 C473 0.939 . S
H457 C475 0.941 . S
H458 C479 0.939 . S
O459 P448 1.490 . S
H460 C476 0.939 . S
H461 C478 0.940 . S
C462 P448 1.812 . S
C462 C463 1.389 . S
C462 C467 1.391 . S
C463 H449 0.941 . S
C463 C462 1.389 . S
C463 C464 1.397 . S
C464 H450 0.939 . S
C464 C463 1.397 . S
C464 C465 1.378 . S
C465 C464 1.378 . S
C465 C466 1.378 . S
C466 H451 0.940 . S
C466 C465 1.378 . S
C466 C467 1.396 . S
C467 H452 0.940 . S
C467 C462 1.391 . S
C467 C466 1.396 . S
C468 P448 1.803 . S
C468 C469 1.378 . S
C468 C473 1.400 . S
C469 H453 0.939 . S
C469 C468 1.378 . S
C469 C470 1.361 . S
C470 H454 0.942 . S
C470 C469 1.361 . S
C470 C471 1.369 . S
C471 C470 1.369 . S
C471 C472 1.404 . S
C472 H455 0.940 . S
C472 C471 1.404 . S
C472 C473 1.389 . S
C473 H456 0.939 . S
C473 C468 1.400 . S
C473 C472 1.389 . S
C474 P448 1.819 . S
C474 C475 1.391 . S
C474 C479 1.391 . S
C475 H457 0.941 . S
C475 C474 1.391 . S
C475 C476 1.396 . S
C476 H460 0.939 . S
C476 C475 1.396 . S
C476 C477 1.397 . S
C477 C476 1.397 . S
C477 C478 1.385 . S
C478 H461 0.940 . S
C478 C477 1.385 . S
C478 C479 1.388 . S
C479 H458 0.939 . S
C479 C474 1.391 . S
C479 C478 1.388 . S
P480 O491 1.490 . S
P480 C494 1.812 . S
P480 C500 1.803 . S
P480 C506 1.819 . S
H481 C495 0.941 . S
H482 C496 0.939 . S
H483 C498 0.940 . S
H484 C499 0.940 . S
H485 C501 0.939 . S
H486 C502 0.942 . S
H487 C504 0.940 . S
H488 C505 0.939 . S
H489 C507 0.941 . S
H490 C511 0.939 . S
O491 P480 1.490 . S
H492 C508 0.939 . S
H493 C510 0.940 . S
C494 P480 1.812 . S
C494 C495 1.389 . S
C494 C499 1.391 . S
C495 H481 0.941 . S
C495 C494 1.389 . S
C495 C496 1.397 . S
C496 H482 0.939 . S
C496 C495 1.397 . S
C496 C497 1.378 . S
C497 C496 1.378 . S
C497 C498 1.378 . S
C498 H483 0.940 . S
C498 C497 1.378 . S
C498 C499 1.396 . S
C499 H484 0.940 . S
C499 C494 1.391 . S
C499 C498 1.396 . S
C500 P480 1.803 . S
C500 C501 1.378 . S
C500 C505 1.400 . S
C501 H485 0.939 . S
C501 C500 1.378 . S
C501 C502 1.361 . S
C502 H486 0.942 . S
C502 C501 1.361 . S
C502 C503 1.369 . S
C503 C502 1.369 . S
C503 C504 1.404 . S
C504 H487 0.940 . S
C504 C503 1.404 . S
C504 C505 1.389 . S
C505 H488 0.939 . S
C505 C500 1.400 . S
C505 C504 1.389 . S
C506 P480 1.819 . S
C506 C507 1.391 . S
C506 C511 1.391 . S
C507 H489 0.941 . S
C507 C506 1.391 . S
C507 C508 1.396 . S
C508 H492 0.939 . S
C508 C507 1.396 . S
C508 C509 1.397 . S
C509 C508 1.397 . S
C509 C510 1.385 . S
C510 H493 0.940 . S
C510 C509 1.385 . S
C510 C511 1.388 . S
C511 H490 0.939 . S
C511 C506 1.391 . S
C511 C510 1.388 . S
P512 O523 1.490 . S
P512 C526 1.812 . S
P512 C532 1.803 . S
P512 C538 1.819 . S
H513 C527 0.941 . S
H514 C528 0.939 . S
H515 C530 0.940 . S
H516 C531 0.940 . S
H517 C533 0.939 . S
H518 C534 0.942 . S
H519 C536 0.940 . S
H520 C537 0.939 . S
H521 C539 0.941 . S
H522 C543 0.939 . S
O523 P512 1.490 . S
H524 C540 0.939 . S
H525 C542 0.940 . S
C526 P512 1.812 . S
C526 C527 1.389 . S
C526 C531 1.391 . S
C527 H513 0.941 . S
C527 C526 1.389 . S
C527 C528 1.397 . S
C528 H514 0.939 . S
C528 C527 1.397 . S
C528 C529 1.378 . S
C529 C528 1.378 . S
C529 C530 1.378 . S
C530 H515 0.940 . S
C530 C529 1.378 . S
C530 C531 1.396 . S
C531 H516 0.940 . S
C531 C526 1.391 . S
C531 C530 1.396 . S
C532 P512 1.803 . S
C532 C533 1.378 . S
C532 C537 1.400 . S
C533 H517 0.939 . S
C533 C532 1.378 . S
C533 C534 1.361 . S
C534 H518 0.942 . S
C534 C533 1.361 . S
C534 C535 1.369 . S
C535 C534 1.369 . S
C535 C536 1.404 . S
C536 H519 0.940 . S
C536 C535 1.404 . S
C536 C537 1.389 . S
C537 H520 0.939 . S
C537 C532 1.400 . S
C537 C536 1.389 . S
C538 P512 1.819 . S
C538 C539 1.391 . S
C538 C543 1.391 . S
C539 H521 0.941 . S
C539 C538 1.391 . S
C539 C540 1.396 . S
C540 H524 0.939 . S
C540 C539 1.396 . S
C540 C541 1.397 . S
C541 C540 1.397 . S
C541 C542 1.385 . S
C542 H525 0.940 . S
C542 C541 1.385 . S
C542 C543 1.388 . S
C543 H522 0.939 . S
C543 C538 1.391 . S
C543 C542 1.388 . S
P544 O555 1.490 . S
P544 C558 1.812 . S
P544 C564 1.803 . S
P544 C570 1.819 . S
H545 C559 0.941 . S
H546 C560 0.939 . S
H547 C562 0.940 . S
H548 C563 0.940 . S
H549 C565 0.939 . S
H550 C566 0.942 . S
H551 C568 0.940 . S
H552 C569 0.939 . S
H553 C571 0.941 . S
H554 C575 0.939 . S
O555 P544 1.490 . S
H556 C572 0.939 . S
H557 C574 0.940 . S
C558 P544 1.812 . S
C558 C559 1.389 . S
C558 C563 1.391 . S
C559 H545 0.941 . S
C559 C558 1.389 . S
C559 C560 1.397 . S
C560 H546 0.939 . S
C560 C559 1.397 . S
C560 C561 1.378 . S
C561 C560 1.378 . S
C561 C562 1.378 . S
C562 H547 0.940 . S
C562 C561 1.378 . S
C562 C563 1.396 . S
C563 H548 0.940 . S
C563 C558 1.391 . S
C563 C562 1.396 . S
C564 P544 1.803 . S
C564 C565 1.378 . S
C564 C569 1.400 . S
C565 H549 0.939 . S
C565 C564 1.378 . S
C565 C566 1.361 . S
C566 H550 0.942 . S
C566 C565 1.361 . S
C566 C567 1.369 . S
C567 C566 1.369 . S
C567 C568 1.404 . S
C568 H551 0.940 . S
C568 C567 1.404 . S
C568 C569 1.389 . S
C569 H552 0.939 . S
C569 C564 1.400 . S
C569 C568 1.389 . S
C570 P544 1.819 . S
C570 C571 1.391 . S
C570 C575 1.391 . S
C571 H553 0.941 . S
C571 C570 1.391 . S
C571 C572 1.396 . S
C572 H556 0.939 . S
C572 C571 1.396 . S
C572 C573 1.397 . S
C573 C572 1.397 . S
C573 C574 1.385 . S
C574 H557 0.940 . S
C574 C573 1.385 . S
C574 C575 1.388 . S
C575 H554 0.939 . S
C575 C570 1.391 . S
C575 C574 1.388 . S
Gd576 N607 2.661 . S
Gd576 N613 2.601 . S
Gd576 O620 2.545 . S
Gd576 O621 2.606 1_545 S
Gd576 O623 2.429 . S
Gd576 O624 2.545 1_545 S
Gd576 O625 2.412 . S
Gd576 O627 2.424 . S
Gd576 O628 2.324 1_545 S
Gd576 C635 2.828 . S
Gd577 N586 2.661 . S
Gd577 N590 2.601 . S
Gd577 O621 2.362 1_556 S
Gd577 O622 2.324 1_565 S
Gd577 O626 2.545 . S
Gd577 O627 2.569 1_566 S
Gd577 O629 2.477 . S
Gd577 O630 2.545 1_565 S
Gd577 O631 2.412 . S
Gd577 C644 2.828 . S
C578 C581 1.417 . S
C578 C583 1.431 . S
C578 C584 1.412 . S
C579 C582 1.437 . S
C579 C583 1.317 . S
C579 H598 0.929 . S
C580 C581 1.426 . S
C580 C582 1.413 . S
C580 N590 1.359 . S
C581 C578 1.417 . S
C581 C580 1.426 . S
C581 N586 1.350 . S
C582 C579 1.437 . S
C582 C580 1.413 . S
C582 C592 1.391 . S
C583 C578 1.431 . S
C583 C579 1.317 . S
C583 H594 0.930 . S
C584 C578 1.412 . S
C584 C585 1.355 . S
C584 H596 0.930 . S
C585 C584 1.355 . S
C585 C587 1.402 . S
C585 H597 0.930 . S
N586 Gd577 2.661 . S
N586 C581 1.350 . S
N586 C587 1.307 . S
C587 C585 1.402 . S
C587 N586 1.307 . S
C587 H588 0.930 . S
H588 C587 0.930 . S
C589 N590 1.334 . S
C589 C591 1.394 . S
C589 H593 0.930 . S
N590 Gd577 2.601 . S
N590 C580 1.359 . S
N590 C589 1.334 . S
C591 C589 1.394 . S
C591 C592 1.359 . S
C591 H603 0.930 . S
C592 C582 1.391 . S
C592 C591 1.359 . S
C592 H604 0.929 . S
H593 C589 0.930 . S
H594 C583 0.930 . S
H595 C612 0.930 . S
H596 C584 0.930 . S
H597 C585 0.930 . S
H598 C579 0.929 . S
H599 C617 0.930 . S
H600 C608 0.930 . S
H601 C609 0.930 . S
H602 C633 0.929 . S
H603 C591 0.930 . S
H604 C592 0.929 . S
H605 C634 0.930 . S
H606 C615 0.930 . S
N607 Gd576 2.661 . S
N607 C611 1.350 . S
N607 C612 1.307 . S
C608 H600 0.930 . S
C608 C609 1.355 . S
C608 C610 1.412 . S
C609 H601 0.930 . S
C609 C608 1.355 . S
C609 C612 1.402 . S
C610 C608 1.412 . S
C610 C611 1.417 . S
C610 C634 1.431 . S
C611 N607 1.350 . S
C611 C610 1.417 . S
C611 C614 1.426 . S
C612 H595 0.930 . S
C612 N607 1.307 . S
C612 C609 1.402 . S
N613 Gd576 2.601 . S
N613 C614 1.359 . S
N613 C617 1.334 . S
C614 C611 1.426 . S
C614 N613 1.359 . S
C614 C618 1.413 . S
C615 H606 0.930 . S
C615 C616 1.359 . S
C615 C617 1.394 . S
C616 C615 1.359 . S
C616 C618 1.391 . S
C616 H619 0.929 . S
C617 H599 0.930 . S
C617 N613 1.334 . S
C617 C615 1.394 . S
C618 C614 1.413 . S
C618 C616 1.391 . S
C618 C633 1.437 . S
H619 C616 0.929 . S
O620 Gd576 2.545 . S
O620 C635 1.258 . S
O621 Gd576 2.606 1_565 S
O621 Gd577 2.362 1_554 S
O621 C632 1.284 . S
O622 Gd577 2.324 1_545 S
O622 C642 1.254 . S
O623 Gd576 2.429 . S
O623 C642 1.268 1_554 S
O624 Gd576 2.545 1_565 S
O624 C632 1.250 . S
O625 Gd576 2.412 . S
O625 C635 1.252 . S
O626 Gd577 2.545 . S
O626 C644 1.258 . S
O627 Gd576 2.424 . S
O627 Gd577 2.569 1_544 S
O627 C643 1.235 1_554 S
O628 Gd576 2.324 1_565 S
O628 C651 1.254 . S
O629 Gd577 2.477 . S
O629 C651 1.182 1_556 S
O630 Gd577 2.545 1_545 S
O630 C643 1.250 . S
O631 Gd577 2.412 . S
O631 C644 1.252 . S
C632 O621 1.284 . S
C632 O624 1.250 . S
C633 H602 0.929 . S
C633 C618 1.437 . S
C633 C634 1.317 . S
C634 H605 0.930 . S
C634 C610 1.431 . S
C634 C633 1.317 . S
C635 Gd576 2.828 . S
C635 O620 1.258 . S
C635 O625 1.252 . S
C635 C636 1.497 . S
C636 C635 1.497 . S
C636 C637 1.395 . S
C636 C638 1.380 1_545 S
C637 C636 1.395 . S
C637 C640 1.398 . S
C637 H652 0.930 . S
C638 C636 1.380 1_565 S
C638 C639 1.391 . S
C638 H653 0.930 . S
C639 C638 1.391 . S
C639 C641 1.387 1_565 S
C640 C637 1.398 . S
C640 C641 1.380 . S
C640 H654 0.930 . S
C641 C639 1.387 1_545 S
C641 C640 1.380 . S
C641 H655 0.930 . S
C642 O622 1.254 . S
C642 O623 1.268 1_556 S
C643 O627 1.235 1_556 S
C643 O630 1.250 . S
C644 Gd577 2.828 . S
C644 O626 1.258 . S
C644 O631 1.252 . S
C644 C645 1.497 . S
C645 C644 1.497 . S
C645 C646 1.395 . S
C645 C647 1.380 1_565 S
C646 C645 1.395 . S
C646 C649 1.398 . S
C646 H656 0.930 . S
C647 C645 1.380 1_545 S
C647 C648 1.391 . S
C647 H657 0.930 . S
C648 C647 1.391 . S
C648 C650 1.387 1_545 S
C649 C646 1.398 . S
C649 C650 1.380 . S
C649 H658 0.930 . S
C650 C648 1.387 1_565 S
C650 C649 1.380 . S
C650 H659 0.932 . S
C651 O628 1.254 . S
C651 O629 1.182 1_554 S
H652 C637 0.930 . S
H653 C638 0.930 . S
H654 C640 0.930 . S
H655 C641 0.930 . S
H656 C646 0.930 . S
H657 C647 0.930 . S
H658 C649 0.930 . S
H659 C650 0.932 . S
Gd660 N691 2.661 . S
Gd660 N697 2.601 . S
Gd660 O704 2.545 . S
Gd660 O705 2.606 1_655 S
Gd660 O707 2.429 . S
Gd660 O708 2.545 1_655 S
Gd660 O709 2.412 . S
Gd660 O711 2.430 . S
Gd660 O712 2.324 1_655 S
Gd660 C719 2.828 . S
Gd661 N670 2.661 . S
Gd661 N674 2.601 . S
Gd661 O705 2.362 1_556 S
Gd661 O706 2.324 1_455 S
Gd661 O710 2.545 . S
Gd661 O711 2.566 1_456 S
Gd661 O713 2.418 1_556 S
Gd661 O714 2.545 1_455 S
Gd661 O715 2.412 . S
Gd661 C728 2.828 . S
C662 C665 1.417 . S
C662 C667 1.431 . S
C662 C668 1.412 . S
C663 C666 1.437 . S
C663 C667 1.317 . S
C663 H682 0.929 . S
C664 C665 1.426 . S
C664 C666 1.413 . S
C664 N674 1.359 . S
C665 C662 1.417 . S
C665 C664 1.426 . S
C665 N670 1.350 . S
C666 C663 1.437 . S
C666 C664 1.413 . S
C666 C676 1.391 . S
C667 C662 1.431 . S
C667 C663 1.317 . S
C667 H678 0.930 . S
C668 C662 1.412 . S
C668 C669 1.355 . S
C668 H680 0.930 . S
C669 C668 1.355 . S
C669 C671 1.402 . S
C669 H681 0.930 . S
N670 Gd661 2.661 . S
N670 C665 1.350 . S
N670 C671 1.307 . S
C671 C669 1.402 . S
C671 N670 1.307 . S
C671 H672 0.930 . S
H672 C671 0.930 . S
C673 N674 1.334 . S
C673 C675 1.394 . S
C673 H677 0.930 . S
N674 Gd661 2.601 . S
N674 C664 1.359 . S
N674 C673 1.334 . S
C675 C673 1.394 . S
C675 C676 1.359 . S
C675 H687 0.930 . S
C676 C666 1.391 . S
C676 C675 1.359 . S
C676 H688 0.929 . S
H677 C673 0.930 . S
H678 C667 0.930 . S
H679 C696 0.930 . S
H680 C668 0.930 . S
H681 C669 0.930 . S
H682 C663 0.929 . S
H683 C701 0.930 . S
H684 C692 0.930 . S
H685 C693 0.930 . S
H686 C717 0.929 . S
H687 C675 0.930 . S
H688 C676 0.929 . S
H689 C718 0.930 . S
H690 C699 0.930 . S
N691 Gd660 2.661 . S
N691 C695 1.350 . S
N691 C696 1.307 . S
C692 H684 0.930 . S
C692 C693 1.355 . S
C692 C694 1.412 . S
C693 H685 0.930 . S
C693 C692 1.355 . S
C693 C696 1.402 . S
C694 C692 1.412 . S
C694 C695 1.417 . S
C694 C718 1.431 . S
C695 N691 1.350 . S
C695 C694 1.417 . S
C695 C698 1.426 . S
C696 H679 0.930 . S
C696 N691 1.307 . S
C696 C693 1.402 . S
N697 Gd660 2.601 . S
N697 C698 1.359 . S
N697 C701 1.334 . S
C698 C695 1.426 . S
C698 N697 1.359 . S
C698 C702 1.413 . S
C699 H690 0.930 . S
C699 C700 1.359 . S
C699 C701 1.394 . S
C700 C699 1.359 . S
C700 C702 1.391 . S
C700 H703 0.929 . S
C701 H683 0.930 . S
C701 N697 1.334 . S
C701 C699 1.394 . S
C702 C698 1.413 . S
C702 C700 1.391 . S
C702 C717 1.437 . S
H703 C700 0.929 . S
O704 Gd660 2.545 . S
O704 C719 1.258 . S
O705 Gd660 2.606 1_455 S
O705 Gd661 2.362 1_554 S
O705 C716 1.284 . S
O706 Gd661 2.324 1_655 S
O706 C726 1.254 . S
O707 Gd660 2.429 . S
O707 C726 1.268 1_554 S
O708 Gd660 2.545 1_455 S
O708 C716 1.250 . S
O709 Gd660 2.412 . S
O709 C719 1.252 . S
O710 Gd661 2.545 . S
O710 C728 1.258 . S
O711 Gd660 2.430 . S
O711 Gd661 2.566 1_654 S
O711 C727 1.230 1_554 S
O712 Gd660 2.324 1_455 S
O712 C735 1.254 . S
O713 Gd661 2.418 1_554 S
O713 C735 1.287 . S
O714 Gd661 2.545 1_655 S
O714 C727 1.250 . S
O715 Gd661 2.412 . S
O715 C728 1.252 . S
C716 O705 1.284 . S
C716 O708 1.250 . S
C717 H686 0.929 . S
C717 C702 1.437 . S
C717 C718 1.317 . S
C718 H689 0.930 . S
C718 C694 1.431 . S
C718 C717 1.317 . S
C719 Gd660 2.828 . S
C719 O704 1.258 . S
C719 O709 1.252 . S
C719 C720 1.497 . S
C720 C719 1.497 . S
C720 C721 1.395 . S
C720 C722 1.380 1_655 S
C721 C720 1.395 . S
C721 C724 1.398 . S
C721 H736 0.930 . S
C722 C720 1.380 1_455 S
C722 C723 1.391 . S
C722 H737 0.930 . S
C723 C722 1.391 . S
C723 C725 1.387 1_455 S
C724 C721 1.398 . S
C724 C725 1.380 . S
C724 H738 0.930 . S
C725 C723 1.387 1_655 S
C725 C724 1.380 . S
C725 H739 0.930 . S
C726 O706 1.254 . S
C726 O707 1.268 1_556 S
C727 O711 1.230 1_556 S
C727 O714 1.250 . S
C728 Gd661 2.828 . S
C728 O710 1.258 . S
C728 O715 1.252 . S
C728 C729 1.497 . S
C729 C728 1.497 . S
C729 C730 1.395 . S
C729 C731 1.380 1_455 S
C730 C729 1.395 . S
C730 C733 1.398 . S
C730 H740 0.930 . S
C731 C729 1.380 1_655 S
C731 C732 1.391 . S
C731 H741 0.930 . S
C732 C731 1.391 . S
C732 C734 1.387 1_655 S
C733 C730 1.398 . S
C733 C734 1.380 . S
C733 H742 0.930 . S
C734 C732 1.387 1_455 S
C734 C733 1.380 . S
C734 H743 0.930 . S
C735 O712 1.254 . S
C735 O713 1.287 . S
H736 C721 0.930 . S
H737 C722 0.930 . S
H738 C724 0.930 . S
H739 C725 0.930 . S
H740 C730 0.930 . S
H741 C731 0.930 . S
H742 C733 0.930 . S
H743 C734 0.930 . S
Gd744 N775 2.661 . S
Gd744 N781 2.601 . S
Gd744 O788 2.545 . S
Gd744 O789 2.606 1_556 S
Gd744 O791 2.478 . S
Gd744 O792 2.545 . S
Gd744 O793 2.412 . S
Gd744 O795 2.362 1_556 S
Gd744 O796 2.324 . S
Gd744 C803 2.828 . S
Gd745 N754 2.661 . S
Gd745 N758 2.601 . S
Gd745 O789 2.361 . S
Gd745 O790 2.324 . S
Gd745 O794 2.545 . S
Gd745 O795 2.606 . S
Gd745 O797 2.429 . S
Gd745 O798 2.545 . S
Gd745 O799 2.412 . S
Gd745 C812 2.828 . S
C746 C749 1.417 . S
C746 C751 1.431 . S
C746 C752 1.412 . S
C747 C750 1.437 . S
C747 C751 1.317 . S
C747 H766 0.929 . S
C748 C749 1.426 . S
C748 C750 1.413 . S
C748 N758 1.359 . S
C749 C746 1.417 . S
C749 C748 1.426 . S
C749 N754 1.350 . S
C750 C747 1.437 . S
C750 C748 1.413 . S
C750 C760 1.391 . S
C751 C746 1.431 . S
C751 C747 1.317 . S
C751 H762 0.930 . S
C752 C746 1.412 . S
C752 C753 1.355 . S
C752 H764 0.930 . S
C753 C752 1.355 . S
C753 C755 1.402 . S
C753 H765 0.930 . S
N754 Gd745 2.661 . S
N754 C749 1.350 . S
N754 C755 1.307 . S
C755 C753 1.402 . S
C755 N754 1.307 . S
C755 H756 0.930 . S
H756 C755 0.930 . S
C757 N758 1.334 . S
C757 C759 1.394 . S
C757 H761 0.930 . S
N758 Gd745 2.601 . S
N758 C748 1.359 . S
N758 C757 1.334 . S
C759 C757 1.394 . S
C759 C760 1.359 . S
C759 H771 0.930 . S
C760 C750 1.391 . S
C760 C759 1.359 . S
C760 H772 0.929 . S
H761 C757 0.930 . S
H762 C751 0.930 . S
H763 C780 0.930 . S
H764 C752 0.930 . S
H765 C753 0.930 . S
H766 C747 0.929 . S
H767 C785 0.930 . S
H768 C776 0.930 . S
H769 C777 0.930 . S
H770 C801 0.929 . S
H771 C759 0.930 . S
H772 C760 0.929 . S
H773 C802 0.930 . S
H774 C783 0.930 . S
N775 Gd744 2.661 . S
N775 C779 1.350 . S
N775 C780 1.307 . S
C776 H768 0.930 . S
C776 C777 1.355 . S
C776 C778 1.412 . S
C777 H769 0.930 . S
C777 C776 1.355 . S
C777 C780 1.402 . S
C778 C776 1.412 . S
C778 C779 1.417 . S
C778 C802 1.431 . S
C779 N775 1.350 . S
C779 C778 1.417 . S
C779 C782 1.426 . S
C780 H763 0.930 . S
C780 N775 1.307 . S
C780 C777 1.402 . S
N781 Gd744 2.601 . S
N781 C782 1.359 . S
N781 C785 1.334 . S
C782 C779 1.426 . S
C782 N781 1.359 . S
C782 C786 1.413 . S
C783 H774 0.930 . S
C783 C784 1.359 . S
C783 C785 1.394 . S
C784 C783 1.359 . S
C784 C786 1.391 . S
C784 H787 0.929 . S
C785 H767 0.930 . S
C785 N781 1.334 . S
C785 C783 1.394 . S
C786 C782 1.413 . S
C786 C784 1.391 . S
C786 C801 1.437 . S
H787 C784 0.929 . S
O788 Gd744 2.545 . S
O788 C803 1.258 . S
O789 Gd744 2.606 1_554 S
O789 Gd745 2.361 . S
O789 C800 1.285 1_554 S
O790 Gd745 2.324 . S
O790 C810 1.254 . S
O791 Gd744 2.478 . S
O791 C810 1.180 1_556 S
O792 Gd744 2.545 . S
O792 C800 1.250 . S
O793 Gd744 2.412 . S
O793 C803 1.252 . S
O794 Gd745 2.545 . S
O794 C812 1.258 . S
O795 Gd744 2.362 1_554 S
O795 Gd745 2.606 . S
O795 C811 1.284 . S
O796 Gd744 2.324 . S
O796 C819 1.254 . S
O797 Gd745 2.429 . S
O797 C819 1.268 1_554 S
O798 Gd745 2.545 . S
O798 C811 1.250 . S
O799 Gd745 2.412 . S
O799 C812 1.252 . S
C800 O789 1.285 1_556 S
C800 O792 1.250 . S
C801 H770 0.929 . S
C801 C786 1.437 . S
C801 C802 1.317 . S
C802 H773 0.930 . S
C802 C778 1.431 . S
C802 C801 1.317 . S
C803 Gd744 2.828 . S
C803 O788 1.258 . S
C803 O793 1.252 . S
C803 C804 1.497 . S
C804 C803 1.497 . S
C804 C805 1.395 . S
C804 C806 1.380 . S
C805 C804 1.395 . S
C805 C808 1.398 . S
C805 H820 0.930 . S
C806 C804 1.380 . S
C806 C807 1.391 . S
C806 H821 0.930 . S
C807 C806 1.391 . S
C807 C809 1.387 . S
C808 C805 1.398 . S
C808 C809 1.380 . S
C808 H822 0.930 . S
C809 C807 1.387 . S
C809 C808 1.380 . S
C809 H823 0.930 . S
C810 O790 1.254 . S
C810 O791 1.180 1_554 S
C811 O795 1.284 . S
C811 O798 1.250 . S
C812 Gd745 2.828 . S
C812 O794 1.258 . S
C812 O799 1.252 . S
C812 C813 1.497 . S
C813 C812 1.497 . S
C813 C814 1.395 . S
C813 C815 1.380 . S
C814 C813 1.395 . S
C814 C817 1.398 . S
C814 H824 0.930 . S
C815 C813 1.380 . S
C815 C816 1.391 . S
C815 H825 0.930 . S
C816 C815 1.391 . S
C816 C818 1.387 . S
C817 C814 1.398 . S
C817 C818 1.380 . S
C817 H826 0.930 . S
C818 C816 1.387 . S
C818 C817 1.380 . S
C818 H827 0.930 . S
C819 O796 1.254 . S
C819 O797 1.268 1_556 S
H820 C805 0.930 . S
H821 C806 0.930 . S
H822 C808 0.930 . S
H823 C809 0.930 . S
H824 C814 0.930 . S
H825 C815 0.930 . S
H826 C817 0.930 . S
H827 C818 0.930 . S
Gd828 N859 2.661 . S
Gd828 N865 2.601 . S
Gd828 O872 2.545 . S
Gd828 O873 2.606 . S
Gd828 O875 2.429 . S
Gd828 O876 2.545 . S
Gd828 O877 2.412 . S
Gd828 O879 2.362 . S
Gd828 O880 2.324 . S
Gd828 C887 2.828 . S
Gd829 N838 2.661 . S
Gd829 N842 2.601 . S
Gd829 O873 2.362 . S
Gd829 O874 2.324 . S
Gd829 O878 2.545 . S
Gd829 O879 2.606 . S
Gd829 O881 2.429 . S
Gd829 O882 2.545 . S
Gd829 O883 2.412 . S
Gd829 C896 2.828 . S
C830 C833 1.417 . S
C830 C835 1.431 . S
C830 C836 1.412 . S
C831 C834 1.437 . S
C831 C835 1.317 . S
C831 H850 0.929 . S
C832 C833 1.426 . S
C832 C834 1.413 . S
C832 N842 1.359 . S
C833 C830 1.417 . S
C833 C832 1.426 . S
C833 N838 1.350 . S
C834 C831 1.437 . S
C834 C832 1.413 . S
C834 C844 1.391 . S
C835 C830 1.431 . S
C835 C831 1.317 . S
C835 H846 0.930 . S
C836 C830 1.412 . S
C836 C837 1.355 . S
C836 H848 0.930 . S
C837 C836 1.355 . S
C837 C839 1.402 . S
C837 H849 0.930 . S
N838 Gd829 2.661 . S
N838 C833 1.350 . S
N838 C839 1.307 . S
C839 C837 1.402 . S
C839 N838 1.307 . S
C839 H840 0.930 . S
H840 C839 0.930 . S
C841 N842 1.334 . S
C841 C843 1.394 . S
C841 H845 0.930 . S
N842 Gd829 2.601 . S
N842 C832 1.359 . S
N842 C841 1.334 . S
C843 C841 1.394 . S
C843 C844 1.359 . S
C843 H855 0.930 . S
C844 C834 1.391 . S
C844 C843 1.359 . S
C844 H856 0.929 . S
H845 C841 0.930 . S
H846 C835 0.930 . S
H847 C864 0.930 . S
H848 C836 0.930 . S
H849 C837 0.930 . S
H850 C831 0.929 . S
H851 C869 0.930 . S
H852 C860 0.930 . S
H853 C861 0.930 . S
H854 C885 0.929 . S
H855 C843 0.930 . S
H856 C844 0.929 . S
H857 C886 0.930 . S
H858 C867 0.930 . S
N859 Gd828 2.661 . S
N859 C863 1.350 . S
N859 C864 1.307 . S
C860 H852 0.930 . S
C860 C861 1.355 . S
C860 C862 1.412 . S
C861 H853 0.930 . S
C861 C860 1.355 . S
C861 C864 1.402 . S
C862 C860 1.412 . S
C862 C863 1.417 . S
C862 C886 1.431 . S
C863 N859 1.350 . S
C863 C862 1.417 . S
C863 C866 1.426 . S
C864 H847 0.930 . S
C864 N859 1.307 . S
C864 C861 1.402 . S
N865 Gd828 2.601 . S
N865 C866 1.359 . S
N865 C869 1.334 . S
C866 C863 1.426 . S
C866 N865 1.359 . S
C866 C870 1.413 . S
C867 H858 0.930 . S
C867 C868 1.359 . S
C867 C869 1.394 . S
C868 C867 1.359 . S
C868 C870 1.391 . S
C868 H871 0.929 . S
C869 H851 0.930 . S
C869 N865 1.334 . S
C869 C867 1.394 . S
C870 C866 1.413 . S
C870 C868 1.391 . S
C870 C885 1.437 . S
H871 C868 0.929 . S
O872 Gd828 2.545 . S
O872 C887 1.258 . S
O873 Gd828 2.606 . S
O873 Gd829 2.362 . S
O873 C884 1.284 . S
O874 Gd829 2.324 . S
O874 C894 1.254 . S
O875 Gd828 2.429 . S
O875 C894 1.268 . S
O876 Gd828 2.545 . S
O876 C884 1.250 . S
O877 Gd828 2.412 . S
O877 C887 1.252 . S
O878 Gd829 2.545 . S
O878 C896 1.258 . S
O879 Gd828 2.362 . S
O879 Gd829 2.606 . S
O879 C895 1.284 . S
O880 Gd828 2.324 . S
O880 C903 1.254 . S
O881 Gd829 2.429 . S
O881 C903 1.268 . S
O882 Gd829 2.545 . S
O882 C895 1.250 . S
O883 Gd829 2.412 . S
O883 C896 1.252 . S
C884 O873 1.284 . S
C884 O876 1.250 . S
C885 H854 0.929 . S
C885 C870 1.437 . S
C885 C886 1.317 . S
C886 H857 0.930 . S
C886 C862 1.431 . S
C886 C885 1.317 . S
C887 Gd828 2.828 . S
C887 O872 1.258 . S
C887 O877 1.252 . S
C887 C888 1.497 . S
C888 C887 1.497 . S
C888 C889 1.395 . S
C888 C890 1.380 . S
C889 C888 1.395 . S
C889 C892 1.398 . S
C889 H904 0.930 . S
C890 C888 1.380 . S
C890 C891 1.391 . S
C890 H905 0.930 . S
C891 C890 1.391 . S
C891 C893 1.387 . S
C892 C889 1.398 . S
C892 C893 1.380 . S
C892 H906 0.930 . S
C893 C891 1.387 . S
C893 C892 1.380 . S
C893 H907 0.930 . S
C894 O874 1.254 . S
C894 O875 1.268 . S
C895 O879 1.284 . S
C895 O882 1.250 . S
C896 Gd829 2.828 . S
C896 O878 1.258 . S
C896 O883 1.252 . S
C896 C897 1.497 . S
C897 C896 1.497 . S
C897 C898 1.395 . S
C897 C899 1.380 . S
C898 C897 1.395 . S
C898 C901 1.398 . S
C898 H908 0.930 . S
C899 C897 1.380 . S
C899 C900 1.391 . S
C899 H909 0.930 . S
C900 C899 1.391 . S
C900 C902 1.387 . S
C901 C898 1.398 . S
C901 C902 1.380 . S
C901 H910 0.930 . S
C902 C900 1.387 . S
C902 C901 1.380 . S
C902 H911 0.930 . S
C903 O880 1.254 . S
C903 O881 1.268 . S
H904 C889 0.930 . S
H905 C890 0.930 . S
H906 C892 0.930 . S
H907 C893 0.930 . S
H908 C898 0.930 . S
H909 C899 0.930 . S
H910 C901 0.930 . S
H911 C902 0.930 . S
Gd912 N943 2.661 . S
Gd912 N949 2.601 . S
Gd912 O956 2.545 . S
Gd912 O957 2.606 . S
Gd912 O959 2.429 . S
Gd912 O960 2.545 . S
Gd912 O961 2.412 . S
Gd912 O963 2.362 . S
Gd912 O964 2.324 . S
Gd912 C971 2.828 . S
Gd913 N922 2.661 . S
Gd913 N926 2.601 . S
Gd913 O957 2.362 . S
Gd913 O958 2.324 . S
Gd913 O962 2.545 . S
Gd913 O963 2.606 . S
Gd913 O965 2.429 . S
Gd913 O966 2.545 . S
Gd913 O967 2.412 . S
Gd913 C980 2.828 . S
C914 C917 1.417 . S
C914 C919 1.431 . S
C914 C920 1.412 . S
C915 C918 1.437 . S
C915 C919 1.317 . S
C915 H934 0.929 . S
C916 C917 1.426 . S
C916 C918 1.413 . S
C916 N926 1.359 . S
C917 C914 1.417 . S
C917 C916 1.426 . S
C917 N922 1.350 . S
C918 C915 1.437 . S
C918 C916 1.413 . S
C918 C928 1.391 . S
C919 C914 1.431 . S
C919 C915 1.317 . S
C919 H930 0.930 . S
C920 C914 1.412 . S
C920 C921 1.355 . S
C920 H932 0.930 . S
C921 C920 1.355 . S
C921 C923 1.402 . S
C921 H933 0.930 . S
N922 Gd913 2.661 . S
N922 C917 1.350 . S
N922 C923 1.307 . S
C923 C921 1.402 . S
C923 N922 1.307 . S
C923 H924 0.930 . S
H924 C923 0.930 . S
C925 N926 1.334 . S
C925 C927 1.394 . S
C925 H929 0.930 . S
N926 Gd913 2.601 . S
N926 C916 1.359 . S
N926 C925 1.334 . S
C927 C925 1.394 . S
C927 C928 1.359 . S
C927 H939 0.930 . S
C928 C918 1.391 . S
C928 C927 1.359 . S
C928 H940 0.929 . S
H929 C925 0.930 . S
H930 C919 0.930 . S
H931 C948 0.930 . S
H932 C920 0.930 . S
H933 C921 0.930 . S
H934 C915 0.929 . S
H935 C953 0.930 . S
H936 C944 0.930 . S
H937 C945 0.930 . S
H938 C969 0.929 . S
H939 C927 0.930 . S
H940 C928 0.929 . S
H941 C970 0.930 . S
H942 C951 0.930 . S
N943 Gd912 2.661 . S
N943 C947 1.350 . S
N943 C948 1.307 . S
C944 H936 0.930 . S
C944 C945 1.355 . S
C944 C946 1.412 . S
C945 H937 0.930 . S
C945 C944 1.355 . S
C945 C948 1.402 . S
C946 C944 1.412 . S
C946 C947 1.417 . S
C946 C970 1.431 . S
C947 N943 1.350 . S
C947 C946 1.417 . S
C947 C950 1.426 . S
C948 H931 0.930 . S
C948 N943 1.307 . S
C948 C945 1.402 . S
N949 Gd912 2.601 . S
N949 C950 1.359 . S
N949 C953 1.334 . S
C950 C947 1.426 . S
C950 N949 1.359 . S
C950 C954 1.413 . S
C951 H942 0.930 . S
C951 C952 1.359 . S
C951 C953 1.394 . S
C952 C951 1.359 . S
C952 C954 1.391 . S
C952 H955 0.929 . S
C953 H935 0.930 . S
C953 N949 1.334 . S
C953 C951 1.394 . S
C954 C950 1.413 . S
C954 C952 1.391 . S
C954 C969 1.437 . S
H955 C952 0.929 . S
O956 Gd912 2.545 . S
O956 C971 1.258 . S
O957 Gd912 2.606 . S
O957 Gd913 2.362 . S
O957 C968 1.284 . S
O958 Gd913 2.324 . S
O958 C978 1.254 . S
O959 Gd912 2.429 . S
O959 C978 1.268 . S
O960 Gd912 2.545 . S
O960 C968 1.250 . S
O961 Gd912 2.412 . S
O961 C971 1.252 . S
O962 Gd913 2.545 . S
O962 C980 1.258 . S
O963 Gd912 2.362 . S
O963 Gd913 2.606 . S
O963 C979 1.284 . S
O964 Gd912 2.324 . S
O964 C987 1.254 . S
O965 Gd913 2.429 . S
O965 C987 1.268 . S
O966 Gd913 2.545 . S
O966 C979 1.250 . S
O967 Gd913 2.412 . S
O967 C980 1.252 . S
C968 O957 1.284 . S
C968 O960 1.250 . S
C969 H938 0.929 . S
C969 C954 1.437 . S
C969 C970 1.317 . S
C970 H941 0.930 . S
C970 C946 1.431 . S
C970 C969 1.317 . S
C971 Gd912 2.828 . S
C971 O956 1.258 . S
C971 O961 1.252 . S
C971 C972 1.497 . S
C972 C971 1.497 . S
C972 C973 1.395 . S
C972 C974 1.380 . S
C973 C972 1.395 . S
C973 C976 1.398 . S
C973 H988 0.930 . S
C974 C972 1.380 . S
C974 C975 1.391 . S
C974 H989 0.930 . S
C975 C974 1.391 . S
C975 C977 1.387 . S
C976 C973 1.398 . S
C976 C977 1.380 . S
C976 H990 0.930 . S
C977 C975 1.387 . S
C977 C976 1.380 . S
C977 H991 0.930 . S
C978 O958 1.254 . S
C978 O959 1.268 . S
C979 O963 1.284 . S
C979 O966 1.250 . S
C980 Gd913 2.828 . S
C980 O962 1.258 . S
C980 O967 1.252 . S
C980 C981 1.497 . S
C981 C980 1.497 . S
C981 C982 1.395 . S
C981 C983 1.380 . S
C982 C981 1.395 . S
C982 C985 1.398 . S
C982 H992 0.930 . S
C983 C981 1.380 . S
C983 C984 1.391 . S
C983 H993 0.930 . S
C984 C983 1.391 . S
C984 C986 1.387 . S
C985 C982 1.398 . S
C985 C986 1.380 . S
C985 H994 0.930 . S
C986 C984 1.387 . S
C986 C985 1.380 . S
C986 H995 0.930 . S
C987 O964 1.254 . S
C987 O965 1.268 . S
H988 C973 0.930 . S
H989 C974 0.930 . S
H990 C976 0.930 . S
H991 C977 0.930 . S
H992 C982 0.930 . S
H993 C983 0.930 . S
H994 C985 0.930 . S
H995 C986 0.930 . S
Gd996 N1027 2.661 . S
Gd996 N1033 2.601 . S
Gd996 O1040 2.545 . S
Gd996 O1041 2.606 . S
Gd996 O1043 2.429 . S
Gd996 O1044 2.545 . S
Gd996 O1045 2.412 . S
Gd996 O1047 2.362 . S
Gd996 O1048 2.324 . S
Gd996 C1055 2.828 . S
Gd997 N1006 2.661 . S
Gd997 N1010 2.601 . S
Gd997 O1041 2.362 . S
Gd997 O1042 2.324 . S
Gd997 O1046 2.545 . S
Gd997 O1047 2.606 . S
Gd997 O1049 2.429 . S
Gd997 O1050 2.545 . S
Gd997 O1051 2.412 . S
Gd997 C1064 2.828 . S
C998 C1001 1.417 . S
C998 C1003 1.431 . S
C998 C1004 1.412 . S
C999 C1002 1.437 . S
C999 C1003 1.317 . S
C999 H1018 0.929 . S
C1000 C1001 1.426 . S
C1000 C1002 1.413 . S
C1000 N1010 1.359 . S
C1001 C998 1.417 . S
C1001 C1000 1.426 . S
C1001 N1006 1.350 . S
C1002 C999 1.437 . S
C1002 C1000 1.413 . S
C1002 C1012 1.391 . S
C1003 C998 1.431 . S
C1003 C999 1.317 . S
C1003 H1014 0.930 . S
C1004 C998 1.412 . S
C1004 C1005 1.355 . S
C1004 H1016 0.930 . S
C1005 C1004 1.355 . S
C1005 C1007 1.402 . S
C1005 H1017 0.930 . S
N1006 Gd997 2.661 . S
N1006 C1001 1.350 . S
N1006 C1007 1.307 . S
C1007 C1005 1.402 . S
C1007 N1006 1.307 . S
C1007 H1008 0.930 . S
H1008 C1007 0.930 . S
C1009 N1010 1.334 . S
C1009 C1011 1.394 . S
C1009 H1013 0.930 . S
N1010 Gd997 2.601 . S
N1010 C1000 1.359 . S
N1010 C1009 1.334 . S
C1011 C1009 1.394 . S
C1011 C1012 1.359 . S
C1011 H1023 0.930 . S
C1012 C1002 1.391 . S
C1012 C1011 1.359 . S
C1012 H1024 0.929 . S
H1013 C1009 0.930 . S
H1014 C1003 0.930 . S
H1015 C1032 0.930 . S
H1016 C1004 0.930 . S
H1017 C1005 0.930 . S
H1018 C999 0.929 . S
H1019 C1037 0.930 . S
H1020 C1028 0.930 . S
H1021 C1029 0.930 . S
H1022 C1053 0.929 . S
H1023 C1011 0.930 . S
H1024 C1012 0.929 . S
H1025 C1054 0.930 . S
H1026 C1035 0.930 . S
N1027 Gd996 2.661 . S
N1027 C1031 1.350 . S
N1027 C1032 1.307 . S
C1028 H1020 0.930 . S
C1028 C1029 1.355 . S
C1028 C1030 1.412 . S
C1029 H1021 0.930 . S
C1029 C1028 1.355 . S
C1029 C1032 1.402 . S
C1030 C1028 1.412 . S
C1030 C1031 1.417 . S
C1030 C1054 1.431 . S
C1031 N1027 1.350 . S
C1031 C1030 1.417 . S
C1031 C1034 1.426 . S
C1032 H1015 0.930 . S
C1032 N1027 1.307 . S
C1032 C1029 1.402 . S
N1033 Gd996 2.601 . S
N1033 C1034 1.359 . S
N1033 C1037 1.334 . S
C1034 C1031 1.426 . S
C1034 N1033 1.359 . S
C1034 C1038 1.413 . S
C1035 H1026 0.930 . S
C1035 C1036 1.359 . S
C1035 C1037 1.394 . S
C1036 C1035 1.359 . S
C1036 C1038 1.391 . S
C1036 H1039 0.929 . S
C1037 H1019 0.930 . S
C1037 N1033 1.334 . S
C1037 C1035 1.394 . S
C1038 C1034 1.413 . S
C1038 C1036 1.391 . S
C1038 C1053 1.437 . S
H1039 C1036 0.929 . S
O1040 Gd996 2.545 . S
O1040 C1055 1.258 . S
O1041 Gd996 2.606 . S
O1041 Gd997 2.362 . S
O1041 C1052 1.284 . S
O1042 Gd997 2.324 . S
O1042 C1062 1.254 . S
O1043 Gd996 2.429 . S
O1043 C1062 1.268 . S
O1044 Gd996 2.545 . S
O1044 C1052 1.250 . S
O1045 Gd996 2.412 . S
O1045 C1055 1.252 . S
O1046 Gd997 2.545 . S
O1046 C1064 1.258 . S
O1047 Gd996 2.362 . S
O1047 Gd997 2.606 . S
O1047 C1063 1.284 . S
O1048 Gd996 2.324 . S
O1048 C1071 1.254 . S
O1049 Gd997 2.429 . S
O1049 C1071 1.268 . S
O1050 Gd997 2.545 . S
O1050 C1063 1.250 . S
O1051 Gd997 2.412 . S
O1051 C1064 1.252 . S
C1052 O1041 1.284 . S
C1052 O1044 1.250 . S
C1053 H1022 0.929 . S
C1053 C1038 1.437 . S
C1053 C1054 1.317 . S
C1054 H1025 0.930 . S
C1054 C1030 1.431 . S
C1054 C1053 1.317 . S
C1055 Gd996 2.828 . S
C1055 O1040 1.258 . S
C1055 O1045 1.252 . S
C1055 C1056 1.497 . S
C1056 C1055 1.497 . S
C1056 C1057 1.395 . S
C1056 C1058 1.380 . S
C1057 C1056 1.395 . S
C1057 C1060 1.398 . S
C1057 H1072 0.930 . S
C1058 C1056 1.380 . S
C1058 C1059 1.391 . S
C1058 H1073 0.930 . S
C1059 C1058 1.391 . S
C1059 C1061 1.387 . S
C1060 C1057 1.398 . S
C1060 C1061 1.380 . S
C1060 H1074 0.930 . S
C1061 C1059 1.387 . S
C1061 C1060 1.380 . S
C1061 H1075 0.930 . S
C1062 O1042 1.254 . S
C1062 O1043 1.268 . S
C1063 O1047 1.284 . S
C1063 O1050 1.250 . S
C1064 Gd997 2.828 . S
C1064 O1046 1.258 . S
C1064 O1051 1.252 . S
C1064 C1065 1.497 . S
C1065 C1064 1.497 . S
C1065 C1066 1.395 . S
C1065 C1067 1.380 . S
C1066 C1065 1.395 . S
C1066 C1069 1.398 . S
C1066 H1076 0.930 . S
C1067 C1065 1.380 . S
C1067 C1068 1.391 . S
C1067 H1077 0.930 . S
C1068 C1067 1.391 . S
C1068 C1070 1.387 . S
C1069 C1066 1.398 . S
C1069 C1070 1.380 . S
C1069 H1078 0.930 . S
C1070 C1068 1.387 . S
C1070 C1069 1.380 . S
C1070 H1079 0.930 . S
C1071 O1048 1.254 . S
C1071 O1049 1.268 . S
H1072 C1057 0.930 . S
H1073 C1058 0.930 . S
H1074 C1060 0.930 . S
H1075 C1061 0.930 . S
H1076 C1066 0.930 . S
H1077 C1067 0.930 . S
H1078 C1069 0.930 . S
H1079 C1070 0.930 . S
Gd1080 N1111 2.661 . S
Gd1080 N1117 2.601 . S
Gd1080 O1124 2.545 . S
Gd1080 O1125 2.606 . S
Gd1080 O1127 2.429 . S
Gd1080 O1128 2.545 . S
Gd1080 O1129 2.412 . S
Gd1080 O1131 2.362 . S
Gd1080 O1132 2.324 . S
Gd1080 C1139 2.828 . S
Gd1081 N1090 2.661 . S
Gd1081 N1094 2.601 . S
Gd1081 O1125 2.362 . S
Gd1081 O1126 2.324 . S
Gd1081 O1130 2.545 . S
Gd1081 O1131 2.606 . S
Gd1081 O1133 2.429 . S
Gd1081 O1134 2.545 . S
Gd1081 O1135 2.412 . S
Gd1081 C1148 2.828 . S
C1082 C1085 1.417 . S
C1082 C1087 1.431 . S
C1082 C1088 1.412 . S
C1083 C1086 1.437 . S
C1083 C1087 1.317 . S
C1083 H1102 0.929 . S
C1084 C1085 1.426 . S
C1084 C1086 1.413 . S
C1084 N1094 1.359 . S
C1085 C1082 1.417 . S
C1085 C1084 1.426 . S
C1085 N1090 1.350 . S
C1086 C1083 1.437 . S
C1086 C1084 1.413 . S
C1086 C1096 1.391 . S
C1087 C1082 1.431 . S
C1087 C1083 1.317 . S
C1087 H1098 0.930 . S
C1088 C1082 1.412 . S
C1088 C1089 1.355 . S
C1088 H1100 0.930 . S
C1089 C1088 1.355 . S
C1089 C1091 1.402 . S
C1089 H1101 0.930 . S
N1090 Gd1081 2.661 . S
N1090 C1085 1.350 . S
N1090 C1091 1.307 . S
C1091 C1089 1.402 . S
C1091 N1090 1.307 . S
C1091 H1092 0.930 . S
H1092 C1091 0.930 . S
C1093 N1094 1.334 . S
C1093 C1095 1.394 . S
C1093 H1097 0.930 . S
N1094 Gd1081 2.601 . S
N1094 C1084 1.359 . S
N1094 C1093 1.334 . S
C1095 C1093 1.394 . S
C1095 C1096 1.359 . S
C1095 H1107 0.930 . S
C1096 C1086 1.391 . S
C1096 C1095 1.359 . S
C1096 H1108 0.929 . S
H1097 C1093 0.930 . S
H1098 C1087 0.930 . S
H1099 C1116 0.930 . S
H1100 C1088 0.930 . S
H1101 C1089 0.930 . S
H1102 C1083 0.929 . S
H1103 C1121 0.930 . S
H1104 C1112 0.930 . S
H1105 C1113 0.930 . S
H1106 C1137 0.929 . S
H1107 C1095 0.930 . S
H1108 C1096 0.929 . S
H1109 C1138 0.930 . S
H1110 C1119 0.930 . S
N1111 Gd1080 2.661 . S
N1111 C1115 1.350 . S
N1111 C1116 1.307 . S
C1112 H1104 0.930 . S
C1112 C1113 1.355 . S
C1112 C1114 1.412 . S
C1113 H1105 0.930 . S
C1113 C1112 1.355 . S
C1113 C1116 1.402 . S
C1114 C1112 1.412 . S
C1114 C1115 1.417 . S
C1114 C1138 1.431 . S
C1115 N1111 1.350 . S
C1115 C1114 1.417 . S
C1115 C1118 1.426 . S
C1116 H1099 0.930 . S
C1116 N1111 1.307 . S
C1116 C1113 1.402 . S
N1117 Gd1080 2.601 . S
N1117 C1118 1.359 . S
N1117 C1121 1.334 . S
C1118 C1115 1.426 . S
C1118 N1117 1.359 . S
C1118 C1122 1.413 . S
C1119 H1110 0.930 . S
C1119 C1120 1.359 . S
C1119 C1121 1.394 . S
C1120 C1119 1.359 . S
C1120 C1122 1.391 . S
C1120 H1123 0.929 . S
C1121 H1103 0.930 . S
C1121 N1117 1.334 . S
C1121 C1119 1.394 . S
C1122 C1118 1.413 . S
C1122 C1120 1.391 . S
C1122 C1137 1.437 . S
H1123 C1120 0.929 . S
O1124 Gd1080 2.545 . S
O1124 C1139 1.258 . S
O1125 Gd1080 2.606 . S
O1125 Gd1081 2.362 . S
O1125 C1136 1.284 . S
O1126 Gd1081 2.324 . S
O1126 C1146 1.254 . S
O1127 Gd1080 2.429 . S
O1127 C1146 1.268 . S
O1128 Gd1080 2.545 . S
O1128 C1136 1.250 . S
O1129 Gd1080 2.412 . S
O1129 C1139 1.252 . S
O1130 Gd1081 2.545 . S
O1130 C1148 1.258 . S
O1131 Gd1080 2.362 . S
O1131 Gd1081 2.606 . S
O1131 C1147 1.284 . S
O1132 Gd1080 2.324 . S
O1132 C1155 1.254 . S
O1133 Gd1081 2.429 . S
O1133 C1155 1.268 . S
O1134 Gd1081 2.545 . S
O1134 C1147 1.250 . S
O1135 Gd1081 2.412 . S
O1135 C1148 1.252 . S
C1136 O1125 1.284 . S
C1136 O1128 1.250 . S
C1137 H1106 0.929 . S
C1137 C1122 1.437 . S
C1137 C1138 1.317 . S
C1138 H1109 0.930 . S
C1138 C1114 1.431 . S
C1138 C1137 1.317 . S
C1139 Gd1080 2.828 . S
C1139 O1124 1.258 . S
C1139 O1129 1.252 . S
C1139 C1140 1.497 . S
C1140 C1139 1.497 . S
C1140 C1141 1.395 . S
C1140 C1142 1.380 . S
C1141 C1140 1.395 . S
C1141 C1144 1.398 . S
C1141 H1156 0.930 . S
C1142 C1140 1.380 . S
C1142 C1143 1.391 . S
C1142 H1157 0.930 . S
C1143 C1142 1.391 . S
C1143 C1145 1.387 . S
C1144 C1141 1.398 . S
C1144 C1145 1.380 . S
C1144 H1158 0.930 . S
C1145 C1143 1.387 . S
C1145 C1144 1.380 . S
C1145 H1159 0.930 . S
C1146 O1126 1.254 . S
C1146 O1127 1.268 . S
C1147 O1131 1.284 . S
C1147 O1134 1.250 . S
C1148 Gd1081 2.828 . S
C1148 O1130 1.258 . S
C1148 O1135 1.252 . S
C1148 C1149 1.497 . S
C1149 C1148 1.497 . S
C1149 C1150 1.395 . S
C1149 C1151 1.380 . S
C1150 C1149 1.395 . S
C1150 C1153 1.398 . S
C1150 H1160 0.930 . S
C1151 C1149 1.380 . S
C1151 C1152 1.391 . S
C1151 H1161 0.930 . S
C1152 C1151 1.391 . S
C1152 C1154 1.387 . S
C1153 C1150 1.398 . S
C1153 C1154 1.380 . S
C1153 H1162 0.930 . S
C1154 C1152 1.387 . S
C1154 C1153 1.380 . S
C1154 H1163 0.930 . S
C1155 O1132 1.254 . S
C1155 O1133 1.268 . S
H1156 C1141 0.930 . S
H1157 C1142 0.930 . S
H1158 C1144 0.930 . S
H1159 C1145 0.930 . S
H1160 C1150 0.930 . S
H1161 C1151 0.930 . S
H1162 C1153 0.930 . S
H1163 C1154 0.930 . S
Gd1164 N1195 2.661 . S
Gd1164 N1201 2.601 . S
Gd1164 O1208 2.545 . S
Gd1164 O1209 2.606 . S
Gd1164 O1211 2.429 . S
Gd1164 O1212 2.545 . S
Gd1164 O1213 2.412 . S
Gd1164 O1215 2.362 . S
Gd1164 O1216 2.324 . S
Gd1164 C1223 2.828 . S
Gd1165 N1174 2.661 . S
Gd1165 N1178 2.601 . S
Gd1165 O1209 2.362 . S
Gd1165 O1210 2.324 . S
Gd1165 O1214 2.545 . S
Gd1165 O1215 2.606 . S
Gd1165 O1217 2.429 . S
Gd1165 O1218 2.545 . S
Gd1165 O1219 2.412 . S
Gd1165 C1232 2.828 . S
C1166 C1169 1.417 . S
C1166 C1171 1.431 . S
C1166 C1172 1.412 . S
C1167 C1170 1.437 . S
C1167 C1171 1.317 . S
C1167 H1186 0.929 . S
C1168 C1169 1.426 . S
C1168 C1170 1.413 . S
C1168 N1178 1.359 . S
C1169 C1166 1.417 . S
C1169 C1168 1.426 . S
C1169 N1174 1.350 . S
C1170 C1167 1.437 . S
C1170 C1168 1.413 . S
C1170 C1180 1.391 . S
C1171 C1166 1.431 . S
C1171 C1167 1.317 . S
C1171 H1182 0.930 . S
C1172 C1166 1.412 . S
C1172 C1173 1.355 . S
C1172 H1184 0.930 . S
C1173 C1172 1.355 . S
C1173 C1175 1.402 . S
C1173 H1185 0.930 . S
N1174 Gd1165 2.661 . S
N1174 C1169 1.350 . S
N1174 C1175 1.307 . S
C1175 C1173 1.402 . S
C1175 N1174 1.307 . S
C1175 H1176 0.930 . S
H1176 C1175 0.930 . S
C1177 N1178 1.334 . S
C1177 C1179 1.394 . S
C1177 H1181 0.930 . S
N1178 Gd1165 2.601 . S
N1178 C1168 1.359 . S
N1178 C1177 1.334 . S
C1179 C1177 1.394 . S
C1179 C1180 1.359 . S
C1179 H1191 0.930 . S
C1180 C1170 1.391 . S
C1180 C1179 1.359 . S
C1180 H1192 0.929 . S
H1181 C1177 0.930 . S
H1182 C1171 0.930 . S
H1183 C1200 0.930 . S
H1184 C1172 0.930 . S
H1185 C1173 0.930 . S
H1186 C1167 0.929 . S
H1187 C1205 0.930 . S
H1188 C1196 0.930 . S
H1189 C1197 0.930 . S
H1190 C1221 0.929 . S
H1191 C1179 0.930 . S
H1192 C1180 0.929 . S
H1193 C1222 0.930 . S
H1194 C1203 0.930 . S
N1195 Gd1164 2.661 . S
N1195 C1199 1.350 . S
N1195 C1200 1.307 . S
C1196 H1188 0.930 . S
C1196 C1197 1.355 . S
C1196 C1198 1.412 . S
C1197 H1189 0.930 . S
C1197 C1196 1.355 . S
C1197 C1200 1.402 . S
C1198 C1196 1.412 . S
C1198 C1199 1.417 . S
C1198 C1222 1.431 . S
C1199 N1195 1.350 . S
C1199 C1198 1.417 . S
C1199 C1202 1.426 . S
C1200 H1183 0.930 . S
C1200 N1195 1.307 . S
C1200 C1197 1.402 . S
N1201 Gd1164 2.601 . S
N1201 C1202 1.359 . S
N1201 C1205 1.334 . S
C1202 C1199 1.426 . S
C1202 N1201 1.359 . S
C1202 C1206 1.413 . S
C1203 H1194 0.930 . S
C1203 C1204 1.359 . S
C1203 C1205 1.394 . S
C1204 C1203 1.359 . S
C1204 C1206 1.391 . S
C1204 H1207 0.929 . S
C1205 H1187 0.930 . S
C1205 N1201 1.334 . S
C1205 C1203 1.394 . S
C1206 C1202 1.413 . S
C1206 C1204 1.391 . S
C1206 C1221 1.437 . S
H1207 C1204 0.929 . S
O1208 Gd1164 2.545 . S
O1208 C1223 1.258 . S
O1209 Gd1164 2.606 . S
O1209 Gd1165 2.362 . S
O1209 C1220 1.284 . S
O1210 Gd1165 2.324 . S
O1210 C1230 1.254 . S
O1211 Gd1164 2.429 . S
O1211 C1230 1.268 . S
O1212 Gd1164 2.545 . S
O1212 C1220 1.250 . S
O1213 Gd1164 2.412 . S
O1213 C1223 1.252 . S
O1214 Gd1165 2.545 . S
O1214 C1232 1.258 . S
O1215 Gd1164 2.362 . S
O1215 Gd1165 2.606 . S
O1215 C1231 1.284 . S
O1216 Gd1164 2.324 . S
O1216 C1239 1.254 . S
O1217 Gd1165 2.429 . S
O1217 C1239 1.268 . S
O1218 Gd1165 2.545 . S
O1218 C1231 1.250 . S
O1219 Gd1165 2.412 . S
O1219 C1232 1.252 . S
C1220 O1209 1.284 . S
C1220 O1212 1.250 . S
C1221 H1190 0.929 . S
C1221 C1206 1.437 . S
C1221 C1222 1.317 . S
C1222 H1193 0.930 . S
C1222 C1198 1.431 . S
C1222 C1221 1.317 . S
C1223 Gd1164 2.828 . S
C1223 O1208 1.258 . S
C1223 O1213 1.252 . S
C1223 C1224 1.497 . S
C1224 C1223 1.497 . S
C1224 C1225 1.395 . S
C1224 C1226 1.380 . S
C1225 C1224 1.395 . S
C1225 C1228 1.398 . S
C1225 H1240 0.930 . S
C1226 C1224 1.380 . S
C1226 C1227 1.391 . S
C1226 H1241 0.930 . S
C1227 C1226 1.391 . S
C1227 C1229 1.387 . S
C1228 C1225 1.398 . S
C1228 C1229 1.380 . S
C1228 H1242 0.930 . S
C1229 C1227 1.387 . S
C1229 C1228 1.380 . S
C1229 H1243 0.930 . S
C1230 O1210 1.254 . S
C1230 O1211 1.268 . S
C1231 O1215 1.284 . S
C1231 O1218 1.250 . S
C1232 Gd1165 2.828 . S
C1232 O1214 1.258 . S
C1232 O1219 1.252 . S
C1232 C1233 1.497 . S
C1233 C1232 1.497 . S
C1233 C1234 1.395 . S
C1233 C1235 1.380 . S
C1234 C1233 1.395 . S
C1234 C1237 1.398 . S
C1234 H1244 0.930 . S
C1235 C1233 1.380 . S
C1235 C1236 1.391 . S
C1235 H1245 0.930 . S
C1236 C1235 1.391 . S
C1236 C1238 1.387 . S
C1237 C1234 1.398 . S
C1237 C1238 1.380 . S
C1237 H1246 0.930 . S
C1238 C1236 1.387 . S
C1238 C1237 1.380 . S
C1238 H1247 0.930 . S
C1239 O1216 1.254 . S
C1239 O1217 1.268 . S
H1240 C1225 0.930 . S
H1241 C1226 0.930 . S
H1242 C1228 0.930 . S
H1243 C1229 0.930 . S
H1244 C1234 0.930 . S
H1245 C1235 0.930 . S
H1246 C1237 0.930 . S
H1247 C1238 0.930 . S
Gd1248 N1279 2.661 . S
Gd1248 N1285 2.601 . S
Gd1248 O1292 2.545 . S
Gd1248 O1293 2.606 . S
Gd1248 O1295 2.429 . S
Gd1248 O1296 2.545 . S
Gd1248 O1297 2.412 . S
Gd1248 O1299 2.362 . S
Gd1248 O1300 2.324 . S
Gd1248 C1307 2.828 . S
Gd1249 N1258 2.661 . S
Gd1249 N1262 2.601 . S
Gd1249 O1293 2.362 . S
Gd1249 O1294 2.324 . S
Gd1249 O1298 2.545 . S
Gd1249 O1299 2.606 . S
Gd1249 O1301 2.429 . S
Gd1249 O1302 2.545 . S
Gd1249 O1303 2.412 . S
Gd1249 C1316 2.828 . S
C1250 C1253 1.417 . S
C1250 C1255 1.431 . S
C1250 C1256 1.412 . S
C1251 C1254 1.437 . S
C1251 C1255 1.317 . S
C1251 H1270 0.929 . S
C1252 C1253 1.426 . S
C1252 C1254 1.413 . S
C1252 N1262 1.359 . S
C1253 C1250 1.417 . S
C1253 C1252 1.426 . S
C1253 N1258 1.350 . S
C1254 C1251 1.437 . S
C1254 C1252 1.413 . S
C1254 C1264 1.391 . S
C1255 C1250 1.431 . S
C1255 C1251 1.317 . S
C1255 H1266 0.930 . S
C1256 C1250 1.412 . S
C1256 C1257 1.355 . S
C1256 H1268 0.930 . S
C1257 C1256 1.355 . S
C1257 C1259 1.402 . S
C1257 H1269 0.930 . S
N1258 Gd1249 2.661 . S
N1258 C1253 1.350 . S
N1258 C1259 1.307 . S
C1259 C1257 1.402 . S
C1259 N1258 1.307 . S
C1259 H1260 0.930 . S
H1260 C1259 0.930 . S
C1261 N1262 1.334 . S
C1261 C1263 1.394 . S
C1261 H1265 0.930 . S
N1262 Gd1249 2.601 . S
N1262 C1252 1.359 . S
N1262 C1261 1.334 . S
C1263 C1261 1.394 . S
C1263 C1264 1.359 . S
C1263 H1275 0.930 . S
C1264 C1254 1.391 . S
C1264 C1263 1.359 . S
C1264 H1276 0.929 . S
H1265 C1261 0.930 . S
H1266 C1255 0.930 . S
H1267 C1284 0.930 . S
H1268 C1256 0.930 . S
H1269 C1257 0.930 . S
H1270 C1251 0.929 . S
H1271 C1289 0.930 . S
H1272 C1280 0.930 . S
H1273 C1281 0.930 . S
H1274 C1305 0.929 . S
H1275 C1263 0.930 . S
H1276 C1264 0.929 . S
H1277 C1306 0.930 . S
H1278 C1287 0.930 . S
N1279 Gd1248 2.661 . S
N1279 C1283 1.350 . S
N1279 C1284 1.307 . S
C1280 H1272 0.930 . S
C1280 C1281 1.355 . S
C1280 C1282 1.412 . S
C1281 H1273 0.930 . S
C1281 C1280 1.355 . S
C1281 C1284 1.402 . S
C1282 C1280 1.412 . S
C1282 C1283 1.417 . S
C1282 C1306 1.431 . S
C1283 N1279 1.350 . S
C1283 C1282 1.417 . S
C1283 C1286 1.426 . S
C1284 H1267 0.930 . S
C1284 N1279 1.307 . S
C1284 C1281 1.402 . S
N1285 Gd1248 2.601 . S
N1285 C1286 1.359 . S
N1285 C1289 1.334 . S
C1286 C1283 1.426 . S
C1286 N1285 1.359 . S
C1286 C1290 1.413 . S
C1287 H1278 0.930 . S
C1287 C1288 1.359 . S
C1287 C1289 1.394 . S
C1288 C1287 1.359 . S
C1288 C1290 1.391 . S
C1288 H1291 0.929 . S
C1289 H1271 0.930 . S
C1289 N1285 1.334 . S
C1289 C1287 1.394 . S
C1290 C1286 1.413 . S
C1290 C1288 1.391 . S
C1290 C1305 1.437 . S
H1291 C1288 0.929 . S
O1292 Gd1248 2.545 . S
O1292 C1307 1.258 . S
O1293 Gd1248 2.606 . S
O1293 Gd1249 2.362 . S
O1293 C1304 1.284 . S
O1294 Gd1249 2.324 . S
O1294 C1314 1.254 . S
O1295 Gd1248 2.429 . S
O1295 C1314 1.268 . S
O1296 Gd1248 2.545 . S
O1296 C1304 1.250 . S
O1297 Gd1248 2.412 . S
O1297 C1307 1.252 . S
O1298 Gd1249 2.545 . S
O1298 C1316 1.258 . S
O1299 Gd1248 2.362 . S
O1299 Gd1249 2.606 . S
O1299 C1315 1.284 . S
O1300 Gd1248 2.324 . S
O1300 C1323 1.254 . S
O1301 Gd1249 2.429 . S
O1301 C1323 1.268 . S
O1302 Gd1249 2.545 . S
O1302 C1315 1.250 . S
O1303 Gd1249 2.412 . S
O1303 C1316 1.252 . S
C1304 O1293 1.284 . S
C1304 O1296 1.250 . S
C1305 H1274 0.929 . S
C1305 C1290 1.437 . S
C1305 C1306 1.317 . S
C1306 H1277 0.930 . S
C1306 C1282 1.431 . S
C1306 C1305 1.317 . S
C1307 Gd1248 2.828 . S
C1307 O1292 1.258 . S
C1307 O1297 1.252 . S
C1307 C1308 1.497 . S
C1308 C1307 1.497 . S
C1308 C1309 1.395 . S
C1308 C1310 1.380 . S
C1309 C1308 1.395 . S
C1309 C1312 1.398 . S
C1309 H1324 0.930 . S
C1310 C1308 1.380 . S
C1310 C1311 1.391 . S
C1310 H1325 0.930 . S
C1311 C1310 1.391 . S
C1311 C1313 1.387 . S
C1312 C1309 1.398 . S
C1312 C1313 1.380 . S
C1312 H1326 0.930 . S
C1313 C1311 1.387 . S
C1313 C1312 1.380 . S
C1313 H1327 0.930 . S
C1314 O1294 1.254 . S
C1314 O1295 1.268 . S
C1315 O1299 1.284 . S
C1315 O1302 1.250 . S
C1316 Gd1249 2.828 . S
C1316 O1298 1.258 . S
C1316 O1303 1.252 . S
C1316 C1317 1.497 . S
C1317 C1316 1.497 . S
C1317 C1318 1.395 . S
C1317 C1319 1.380 . S
C1318 C1317 1.395 . S
C1318 C1321 1.398 . S
C1318 H1328 0.930 . S
C1319 C1317 1.380 . S
C1319 C1320 1.391 . S
C1319 H1329 0.930 . S
C1320 C1319 1.391 . S
C1320 C1322 1.387 . S
C1321 C1318 1.398 . S
C1321 C1322 1.380 . S
C1321 H1330 0.930 . S
C1322 C1320 1.387 . S
C1322 C1321 1.380 . S
C1322 H1331 0.930 . S
C1323 O1300 1.254 . S
C1323 O1301 1.268 . S
H1324 C1309 0.930 . S
H1325 C1310 0.930 . S
H1326 C1312 0.930 . S
H1327 C1313 0.930 . S
H1328 C1318 0.930 . S
H1329 C1319 0.930 . S
H1330 C1321 0.930 . S
H1331 C1322 0.930 . S
H1332 C1340 0.929 . S
H1333 C1342 0.930 . S
H1334 C1344 0.930 . S
H1335 C1347 0.929 . S
H1336 C1350 0.930 . S
H1337 C1352 0.960 . S
H1338 C1352 0.960 . S
H1339 C1352 0.960 . S
C1340 H1332 0.929 . S
C1340 C1341 1.377 . S
C1340 C1342 1.384 . S
C1341 C1340 1.377 . S
C1341 C1347 1.390 . S
C1342 H1333 0.930 . S
C1342 C1340 1.384 . S
C1342 C1343 1.372 . S
C1343 C1342 1.372 . S
C1343 C1344 1.400 . S
C1343 C1348 1.490 . S
C1344 H1334 0.930 . S
C1344 C1343 1.400 . S
C1344 C1347 1.386 . S
H1345 C1361 0.930 . S
H1346 C1362 0.931 . S
C1347 H1335 0.929 . S
C1347 C1341 1.390 . S
C1347 C1344 1.386 . S
C1348 C1343 1.490 . S
C1348 C1350 1.395 . S
C1348 C1351 1.403 . S
H1349 C1355 0.930 . S
C1350 H1336 0.930 . S
C1350 C1348 1.395 . S
C1350 C1353 1.403 . S
C1351 C1348 1.403 . S
C1351 C1352 1.524 . S
C1351 C1355 1.400 . S
C1352 H1337 0.960 . S
C1352 H1338 0.960 . S
C1352 H1339 0.960 . S
C1352 C1351 1.524 . S
C1353 C1350 1.403 . S
C1353 C1354 1.392 . S
C1353 C1357 1.495 . S
C1354 C1353 1.392 . S
C1354 C1355 1.385 . S
C1354 C1356 1.478 . S
C1355 H1349 0.930 . S
C1355 C1351 1.400 . S
C1355 C1354 1.385 . S
C1356 C1354 1.478 . S
C1356 C1358 1.381 . S
C1356 C1362 1.383 . S
C1357 C1353 1.495 . S
C1357 H1363 0.959 . S
C1357 H1364 0.961 . S
C1357 H1365 0.960 . S
C1358 C1356 1.381 . S
C1358 C1359 1.394 . S
C1358 H1366 0.930 . S
C1359 C1358 1.394 . S
C1359 C1360 1.383 . S
C1359 H1367 0.929 . S
C1360 C1359 1.383 . S
C1360 C1361 1.377 . S
C1361 H1345 0.930 . S
C1361 C1360 1.377 . S
C1361 C1362 1.379 . S
C1362 H1346 0.931 . S
C1362 C1356 1.383 . S
C1362 C1361 1.379 . S
H1363 C1357 0.959 . S
H1364 C1357 0.961 . S
H1365 C1357 0.960 . S
H1366 C1358 0.930 . S
H1367 C1359 0.929 . S
H1368 C1376 0.929 . S
H1369 C1378 0.930 . S
H1370 C1380 0.930 . S
H1371 C1383 0.929 . S
H1372 C1386 0.930 . S
H1373 C1388 0.960 . S
H1374 C1388 0.960 . S
H1375 C1388 0.960 . S
C1376 H1368 0.929 . S
C1376 C1377 1.377 . S
C1376 C1378 1.384 . S
C1377 C1376 1.377 . S
C1377 C1383 1.390 . S
C1378 H1369 0.930 . S
C1378 C1376 1.384 . S
C1378 C1379 1.372 . S
C1379 C1378 1.372 . S
C1379 C1380 1.400 . S
C1379 C1384 1.490 . S
C1380 H1370 0.930 . S
C1380 C1379 1.400 . S
C1380 C1383 1.386 . S
H1381 C1397 0.930 . S
H1382 C1398 0.931 . S
C1383 H1371 0.929 . S
C1383 C1377 1.390 . S
C1383 C1380 1.386 . S
C1384 C1379 1.490 . S
C1384 C1386 1.395 . S
C1384 C1387 1.403 . S
H1385 C1391 0.930 . S
C1386 H1372 0.930 . S
C1386 C1384 1.395 . S
C1386 C1389 1.403 . S
C1387 C1384 1.403 . S
C1387 C1388 1.524 . S
C1387 C1391 1.400 . S
C1388 H1373 0.960 . S
C1388 H1374 0.960 . S
C1388 H1375 0.960 . S
C1388 C1387 1.524 . S
C1389 C1386 1.403 . S
C1389 C1390 1.392 . S
C1389 C1393 1.495 . S
C1390 C1389 1.392 . S
C1390 C1391 1.385 . S
C1390 C1392 1.478 . S
C1391 H1385 0.930 . S
C1391 C1387 1.400 . S
C1391 C1390 1.385 . S
C1392 C1390 1.478 . S
C1392 C1394 1.381 . S
C1392 C1398 1.383 . S
C1393 C1389 1.495 . S
C1393 H1399 0.959 . S
C1393 H1400 0.961 . S
C1393 H1401 0.960 . S
C1394 C1392 1.381 . S
C1394 C1395 1.394 . S
C1394 H1402 0.930 . S
C1395 C1394 1.394 . S
C1395 C1396 1.383 . S
C1395 H1403 0.929 . S
C1396 C1395 1.383 . S
C1396 C1397 1.377 . S
C1397 H1381 0.930 . S
C1397 C1396 1.377 . S
C1397 C1398 1.379 . S
C1398 H1382 0.931 . S
C1398 C1392 1.383 . S
C1398 C1397 1.379 . S
H1399 C1393 0.959 . S
H1400 C1393 0.961 . S
H1401 C1393 0.960 . S
H1402 C1394 0.930 . S
H1403 C1395 0.929 . S
H1404 C1412 0.929 . S
H1405 C1414 0.930 . S
H1406 C1416 0.930 . S
H1407 C1419 0.929 . S
H1408 C1422 0.930 . S
H1409 C1424 0.960 . S
H1410 C1424 0.960 . S
H1411 C1424 0.960 . S
C1412 H1404 0.929 . S
C1412 C1413 1.377 . S
C1412 C1414 1.384 . S
C1413 C1412 1.377 . S
C1413 C1419 1.390 . S
C1414 H1405 0.930 . S
C1414 C1412 1.384 . S
C1414 C1415 1.372 . S
C1415 C1414 1.372 . S
C1415 C1416 1.400 . S
C1415 C1420 1.490 . S
C1416 H1406 0.930 . S
C1416 C1415 1.400 . S
C1416 C1419 1.386 . S
H1417 C1433 0.930 . S
H1418 C1434 0.931 . S
C1419 H1407 0.929 . S
C1419 C1413 1.390 . S
C1419 C1416 1.386 . S
C1420 C1415 1.490 . S
C1420 C1422 1.395 . S
C1420 C1423 1.403 . S
H1421 C1427 0.930 . S
C1422 H1408 0.930 . S
C1422 C1420 1.395 . S
C1422 C1425 1.403 . S
C1423 C1420 1.403 . S
C1423 C1424 1.524 . S
C1423 C1427 1.400 . S
C1424 H1409 0.960 . S
C1424 H1410 0.960 . S
C1424 H1411 0.960 . S
C1424 C1423 1.524 . S
C1425 C1422 1.403 . S
C1425 C1426 1.392 . S
C1425 C1429 1.495 . S
C1426 C1425 1.392 . S
C1426 C1427 1.385 . S
C1426 C1428 1.478 . S
C1427 H1421 0.930 . S
C1427 C1423 1.400 . S
C1427 C1426 1.385 . S
C1428 C1426 1.478 . S
C1428 C1430 1.381 . S
C1428 C1434 1.383 . S
C1429 C1425 1.495 . S
C1429 H1435 0.959 . S
C1429 H1436 0.961 . S
C1429 H1437 0.960 . S
C1430 C1428 1.381 . S
C1430 C1431 1.394 . S
C1430 H1438 0.930 . S
C1431 C1430 1.394 . S
C1431 C1432 1.383 . S
C1431 H1439 0.929 . S
C1432 C1431 1.383 . S
C1432 C1433 1.377 . S
C1433 H1417 0.930 . S
C1433 C1432 1.377 . S
C1433 C1434 1.379 . S
C1434 H1418 0.931 . S
C1434 C1428 1.383 . S
C1434 C1433 1.379 . S
H1435 C1429 0.959 . S
H1436 C1429 0.961 . S
H1437 C1429 0.960 . S
H1438 C1430 0.930 . S
H1439 C1431 0.929 . S
H1440 C1448 0.929 . S
H1441 C1450 0.930 . S
H1442 C1452 0.930 . S
H1443 C1455 0.929 . S
H1444 C1458 0.930 . S
H1445 C1460 0.960 . S
H1446 C1460 0.960 . S
H1447 C1460 0.960 . S
C1448 H1440 0.929 . S
C1448 C1449 1.377 . S
C1448 C1450 1.384 . S
C1449 C1448 1.377 . S
C1449 C1455 1.390 . S
C1450 H1441 0.930 . S
C1450 C1448 1.384 . S
C1450 C1451 1.372 . S
C1451 C1450 1.372 . S
C1451 C1452 1.400 . S
C1451 C1456 1.490 . S
C1452 H1442 0.930 . S
C1452 C1451 1.400 . S
C1452 C1455 1.386 . S
H1453 C1469 0.930 . S
H1454 C1470 0.931 . S
C1455 H1443 0.929 . S
C1455 C1449 1.390 . S
C1455 C1452 1.386 . S
C1456 C1451 1.490 . S
C1456 C1458 1.395 . S
C1456 C1459 1.403 . S
H1457 C1463 0.930 . S
C1458 H1444 0.930 . S
C1458 C1456 1.395 . S
C1458 C1461 1.403 . S
C1459 C1456 1.403 . S
C1459 C1460 1.524 . S
C1459 C1463 1.400 . S
C1460 H1445 0.960 . S
C1460 H1446 0.960 . S
C1460 H1447 0.960 . S
C1460 C1459 1.524 . S
C1461 C1458 1.403 . S
C1461 C1462 1.392 . S
C1461 C1465 1.495 . S
C1462 C1461 1.392 . S
C1462 C1463 1.385 . S
C1462 C1464 1.478 . S
C1463 H1457 0.930 . S
C1463 C1459 1.400 . S
C1463 C1462 1.385 . S
C1464 C1462 1.478 . S
C1464 C1466 1.381 . S
C1464 C1470 1.383 . S
C1465 C1461 1.495 . S
C1465 H1471 0.959 . S
C1465 H1472 0.961 . S
C1465 H1473 0.960 . S
C1466 C1464 1.381 . S
C1466 C1467 1.394 . S
C1466 H1474 0.930 . S
C1467 C1466 1.394 . S
C1467 C1468 1.383 . S
C1467 H1475 0.929 1_556 S
C1468 C1467 1.383 . S
C1468 C1469 1.377 . S
C1469 H1453 0.930 . S
C1469 C1468 1.377 . S
C1469 C1470 1.379 . S
C1470 H1454 0.931 . S
C1470 C1464 1.383 . S
C1470 C1469 1.379 . S
H1471 C1465 0.959 . S
H1472 C1465 0.961 . S
H1473 C1465 0.960 . S
H1474 C1466 0.930 . S
H1475 C1467 0.929 1_554 S
H1476 C1484 0.929 . S
H1477 C1486 0.930 . S
H1478 C1488 0.930 . S
H1479 C1491 0.929 . S
H1480 C1494 0.930 . S
H1481 C1496 0.960 . S
H1482 C1496 0.960 . S
H1483 C1496 0.960 . S
C1484 H1476 0.929 . S
C1484 C1485 1.377 . S
C1484 C1486 1.384 . S
C1485 C1484 1.377 . S
C1485 C1491 1.390 . S
C1486 H1477 0.930 . S
C1486 C1484 1.384 . S
C1486 C1487 1.372 . S
C1487 C1486 1.372 . S
C1487 C1488 1.400 . S
C1487 C1492 1.490 . S
C1488 H1478 0.930 . S
C1488 C1487 1.400 . S
C1488 C1491 1.386 . S
H1489 C1505 0.930 . S
H1490 C1506 0.931 . S
C1491 H1479 0.929 . S
C1491 C1485 1.390 . S
C1491 C1488 1.386 . S
C1492 C1487 1.490 . S
C1492 C1494 1.395 . S
C1492 C1495 1.403 . S
H1493 C1499 0.930 . S
C1494 H1480 0.930 . S
C1494 C1492 1.395 . S
C1494 C1497 1.403 . S
C1495 C1492 1.403 . S
C1495 C1496 1.524 . S
C1495 C1499 1.400 . S
C1496 H1481 0.960 . S
C1496 H1482 0.960 . S
C1496 H1483 0.960 . S
C1496 C1495 1.524 . S
C1497 C1494 1.403 . S
C1497 C1498 1.392 . S
C1497 C1501 1.495 . S
C1498 C1497 1.392 . S
C1498 C1499 1.385 . S
C1498 C1500 1.478 . S
C1499 H1493 0.930 . S
C1499 C1495 1.400 . S
C1499 C1498 1.385 . S
C1500 C1498 1.478 . S
C1500 C1502 1.381 . S
C1500 C1506 1.383 . S
C1501 C1497 1.495 . S
C1501 H1507 0.959 . S
C1501 H1508 0.961 . S
C1501 H1509 0.960 . S
C1502 C1500 1.381 . S
C1502 C1503 1.394 . S
C1502 H1510 0.930 . S
C1503 C1502 1.394 . S
C1503 C1504 1.383 . S
C1503 H1511 0.929 . S
C1504 C1503 1.383 . S
C1504 C1505 1.377 . S
C1505 H1489 0.930 . S
C1505 C1504 1.377 . S
C1505 C1506 1.379 . S
C1506 H1490 0.931 . S
C1506 C1500 1.383 . S
C1506 C1505 1.379 . S
H1507 C1501 0.959 . S
H1508 C1501 0.961 . S
H1509 C1501 0.960 . S
H1510 C1502 0.930 . S
H1511 C1503 0.929 . S
H1512 C1520 0.929 . S
H1513 C1522 0.930 . S
H1514 C1524 0.930 . S
H1515 C1527 0.929 . S
H1516 C1530 0.930 . S
H1517 C1532 0.960 . S
H1518 C1532 0.960 . S
H1519 C1532 0.960 . S
C1520 H1512 0.929 . S
C1520 C1521 1.377 . S
C1520 C1522 1.384 . S
C1521 C1520 1.377 . S
C1521 C1527 1.390 . S
C1522 H1513 0.930 . S
C1522 C1520 1.384 . S
C1522 C1523 1.372 . S
C1523 C1522 1.372 . S
C1523 C1524 1.400 . S
C1523 C1528 1.490 . S
C1524 H1514 0.930 . S
C1524 C1523 1.400 . S
C1524 C1527 1.386 . S
H1525 C1541 0.930 1_554 S
H1526 C1542 0.970 . S
C1527 H1515 0.929 . S
C1527 C1521 1.390 . S
C1527 C1524 1.386 . S
C1528 C1523 1.490 . S
C1528 C1530 1.395 . S
C1528 C1531 1.403 . S
H1529 C1535 0.930 . S
C1530 H1516 0.930 . S
C1530 C1528 1.395 . S
C1530 C1533 1.403 . S
C1531 C1528 1.403 . S
C1531 C1532 1.524 . S
C1531 C1535 1.400 . S
C1532 H1517 0.960 . S
C1532 H1518 0.960 . S
C1532 H1519 0.960 . S
C1532 C1531 1.524 . S
C1533 C1530 1.403 . S
C1533 C1534 1.392 . S
C1533 C1537 1.495 . S
C1534 C1533 1.392 . S
C1534 C1535 1.385 . S
C1534 C1536 1.478 . S
C1535 H1529 0.930 . S
C1535 C1531 1.400 . S
C1535 C1534 1.385 . S
C1536 C1534 1.478 . S
C1536 C1538 1.381 . S
C1536 C1542 1.383 . S
C1537 C1533 1.495 . S
C1537 H1543 0.959 . S
C1537 H1544 0.961 . S
C1537 H1545 0.960 . S
C1538 C1536 1.381 . S
C1538 C1539 1.394 . S
C1538 H1546 0.930 . S
C1539 C1538 1.394 . S
C1539 C1540 1.383 . S
C1539 H1547 0.929 . S
C1540 C1539 1.383 . S
C1540 C1541 1.377 . S
C1541 H1525 0.930 1_556 S
C1541 C1540 1.377 . S
C1541 C1542 1.379 . S
C1542 H1526 0.970 . S
C1542 C1536 1.383 . S
C1542 C1541 1.379 . S
H1543 C1537 0.959 . S
H1544 C1537 0.961 . S
H1545 C1537 0.960 . S
H1546 C1538 0.930 . S
H1547 C1539 0.929 . S
H1548 C1556 0.929 . S
H1549 C1558 0.930 . S
H1550 C1560 0.930 . S
H1551 C1563 0.929 . S
H1552 C1566 0.930 . S
H1553 C1568 0.960 . S
H1554 C1568 0.960 . S
H1555 C1568 0.960 . S
C1556 H1548 0.929 . S
C1556 C1557 1.377 . S
C1556 C1558 1.384 . S
C1557 C1556 1.377 . S
C1557 C1563 1.390 . S
C1558 H1549 0.930 . S
C1558 C1556 1.384 . S
C1558 C1559 1.372 . S
C1559 C1558 1.372 . S
C1559 C1560 1.400 . S
C1559 C1564 1.490 . S
C1560 H1550 0.930 . S
C1560 C1559 1.400 . S
C1560 C1563 1.386 . S
H1561 C1577 0.930 . S
H1562 C1578 0.931 . S
C1563 H1551 0.929 . S
C1563 C1557 1.390 . S
C1563 C1560 1.386 . S
C1564 C1559 1.490 . S
C1564 C1566 1.395 . S
C1564 C1567 1.403 . S
H1565 C1571 0.930 . S
C1566 H1552 0.930 . S
C1566 C1564 1.395 . S
C1566 C1569 1.403 . S
C1567 C1564 1.403 . S
C1567 C1568 1.524 . S
C1567 C1571 1.400 . S
C1568 H1553 0.960 . S
C1568 H1554 0.960 . S
C1568 H1555 0.960 . S
C1568 C1567 1.524 . S
C1569 C1566 1.403 . S
C1569 C1570 1.392 . S
C1569 C1573 1.495 . S
C1570 C1569 1.392 . S
C1570 C1571 1.385 . S
C1570 C1572 1.478 . S
C1571 H1565 0.930 . S
C1571 C1567 1.400 . S
C1571 C1570 1.385 . S
C1572 C1570 1.478 . S
C1572 C1574 1.381 . S
C1572 C1578 1.383 . S
C1573 C1569 1.495 . S
C1573 H1579 0.959 . S
C1573 H1580 0.961 . S
C1573 H1581 0.995 . S
C1574 C1572 1.381 . S
C1574 C1575 1.394 . S
C1574 H1582 0.940 . S
C1575 C1574 1.394 . S
C1575 C1576 1.383 . S
C1575 H1583 0.929 1_556 S
C1576 C1575 1.383 . S
C1576 C1577 1.377 . S
C1577 H1561 0.930 . S
C1577 C1576 1.377 . S
C1577 C1578 1.379 . S
C1578 H1562 0.931 . S
C1578 C1572 1.383 . S
C1578 C1577 1.379 . S
H1579 C1573 0.959 . S
H1580 C1573 0.961 . S
H1581 C1573 0.995 . S
H1582 C1574 0.940 . S
H1583 C1575 0.929 1_554 S
H1584 C1592 0.929 . S
H1585 C1594 0.930 . S
H1586 C1596 0.930 . S
H1587 C1599 0.929 . S
H1588 C1602 0.930 . S
H1589 C1604 0.960 . S
H1590 C1604 0.960 . S
H1591 C1604 0.960 . S
C1592 H1584 0.929 . S
C1592 C1593 1.377 . S
C1592 C1594 1.384 . S
C1593 C1592 1.377 . S
C1593 C1599 1.390 . S
C1594 H1585 0.930 . S
C1594 C1592 1.384 . S
C1594 C1595 1.372 . S
C1595 C1594 1.372 . S
C1595 C1596 1.400 . S
C1595 C1600 1.490 . S
C1596 H1586 0.930 . S
C1596 C1595 1.400 . S
C1596 C1599 1.386 . S
H1597 C1613 0.930 1_554 S
H1598 C1614 0.931 . S
C1599 H1587 0.929 . S
C1599 C1593 1.390 . S
C1599 C1596 1.386 . S
C1600 C1595 1.490 . S
C1600 C1602 1.395 . S
C1600 C1603 1.403 . S
H1601 C1607 0.930 . S
C1602 H1588 0.930 . S
C1602 C1600 1.395 . S
C1602 C1605 1.403 . S
C1603 C1600 1.403 . S
C1603 C1604 1.524 . S
C1603 C1607 1.400 . S
C1604 H1589 0.960 . S
C1604 H1590 0.960 . S
C1604 H1591 0.960 . S
C1604 C1603 1.524 . S
C1605 C1602 1.403 . S
C1605 C1606 1.392 . S
C1605 C1609 1.495 . S
C1606 C1605 1.392 . S
C1606 C1607 1.385 . S
C1606 C1608 1.478 . S
C1607 H1601 0.930 . S
C1607 C1603 1.400 . S
C1607 C1606 1.385 . S
C1608 C1606 1.478 . S
C1608 C1610 1.381 . S
C1608 C1614 1.383 . S
C1609 C1605 1.495 . S
C1609 H1615 0.959 . S
C1609 H1616 0.961 . S
C1609 H1617 0.960 . S
C1610 C1608 1.381 . S
C1610 C1611 1.394 . S
C1610 H1618 0.930 . S
C1611 C1610 1.394 . S
C1611 C1612 1.383 . S
C1611 H1619 0.929 . S
C1612 C1611 1.383 . S
C1612 C1613 1.377 . S
C1613 H1597 0.930 1_556 S
C1613 C1612 1.377 . S
C1613 C1614 1.379 . S
C1614 H1598 0.931 . S
C1614 C1608 1.383 . S
C1614 C1613 1.379 . S
H1615 C1609 0.959 . S
H1616 C1609 0.961 . S
H1617 C1609 0.960 . S
H1618 C1610 0.930 . S
H1619 C1611 0.929 . S
H1620 C1628 0.929 . S
H1621 C1630 0.930 . S
H1622 C1632 0.930 . S
H1623 C1635 0.929 . S
H1624 C1638 0.930 . S
H1625 C1640 0.960 . S
H1626 C1640 0.960 . S
H1627 C1640 0.960 . S
C1628 H1620 0.929 . S
C1628 C1629 1.377 . S
C1628 C1630 1.384 . S
C1629 C1628 1.377 . S
C1629 C1635 1.390 . S
C1630 H1621 0.930 . S
C1630 C1628 1.384 . S
C1630 C1631 1.372 . S
C1631 C1630 1.372 . S
C1631 C1632 1.400 . S
C1631 C1636 1.490 . S
C1632 H1622 0.930 . S
C1632 C1631 1.400 . S
C1632 C1635 1.386 . S
H1633 C1649 0.930 . S
H1634 C1650 0.931 . S
C1635 H1623 0.929 . S
C1635 C1629 1.390 . S
C1635 C1632 1.386 . S
C1636 C1631 1.490 . S
C1636 C1638 1.395 . S
C1636 C1639 1.403 . S
H1637 C1643 0.930 . S
C1638 H1624 0.930 . S
C1638 C1636 1.395 . S
C1638 C1641 1.403 . S
C1639 C1636 1.403 . S
C1639 C1640 1.524 . S
C1639 C1643 1.400 . S
C1640 H1625 0.960 . S
C1640 H1626 0.960 . S
C1640 H1627 0.960 . S
C1640 C1639 1.524 . S
C1641 C1638 1.403 . S
C1641 C1642 1.392 . S
C1641 C1645 1.494 . S
C1642 C1641 1.392 . S
C1642 C1643 1.385 . S
C1642 C1644 1.478 . S
C1643 H1637 0.930 . S
C1643 C1639 1.400 . S
C1643 C1642 1.385 . S
C1644 C1642 1.478 . S
C1644 C1646 1.381 . S
C1644 C1650 1.383 . S
C1645 C1641 1.494 . S
C1645 H1651 0.960 1_556 S
C1645 H1652 0.961 1_556 S
C1645 H1653 0.960 1_556 S
C1646 C1644 1.381 . S
C1646 C1647 1.394 . S
C1646 H1654 0.930 . S
C1647 C1646 1.394 . S
C1647 C1648 1.383 . S
C1647 H1655 0.969 . S
C1648 C1647 1.383 . S
C1648 C1649 1.377 . S
C1649 H1633 0.930 . S
C1649 C1648 1.377 . S
C1649 C1650 1.379 . S
C1650 H1634 0.931 . S
C1650 C1644 1.383 . S
C1650 C1649 1.379 . S
H1651 C1645 0.960 1_554 S
H1652 C1645 0.961 1_554 S
H1653 C1645 0.960 1_554 S
H1654 C1646 0.930 . S
H1655 C1647 0.969 . S
H1656 C1664 0.929 . S
H1657 C1666 0.930 . S
H1658 C1668 0.930 . S
H1659 C1671 0.929 . S
H1660 C1674 0.930 . S
H1661 C1676 0.960 . S
H1662 C1676 0.960 . S
H1663 C1676 0.960 . S
C1664 H1656 0.929 . S
C1664 C1665 1.377 . S
C1664 C1666 1.384 . S
C1665 C1664 1.377 . S
C1665 C1671 1.390 . S
C1666 H1657 0.930 . S
C1666 C1664 1.384 . S
C1666 C1667 1.372 . S
C1667 C1666 1.372 . S
C1667 C1668 1.400 . S
C1667 C1672 1.490 . S
C1668 H1658 0.930 . S
C1668 C1667 1.400 . S
C1668 C1671 1.386 . S
H1669 C1685 0.930 . S
H1670 C1686 0.931 . S
C1671 H1659 0.929 . S
C1671 C1665 1.390 . S
C1671 C1668 1.386 . S
C1672 C1667 1.490 . S
C1672 C1674 1.395 . S
C1672 C1675 1.403 . S
H1673 C1679 0.930 . S
C1674 H1660 0.930 . S
C1674 C1672 1.395 . S
C1674 C1677 1.403 . S
C1675 C1672 1.403 . S
C1675 C1676 1.524 . S
C1675 C1679 1.400 . S
C1676 H1661 0.960 . S
C1676 H1662 0.960 . S
C1676 H1663 0.960 . S
C1676 C1675 1.524 . S
C1677 C1674 1.403 . S
C1677 C1678 1.392 . S
C1677 C1681 1.495 . S
C1678 C1677 1.392 . S
C1678 C1679 1.385 . S
C1678 C1680 1.478 . S
C1679 H1673 0.930 . S
C1679 C1675 1.400 . S
C1679 C1678 1.385 . S
C1680 C1678 1.478 . S
C1680 C1682 1.381 . S
C1680 C1686 1.383 . S
C1681 C1677 1.495 . S
C1681 H1687 0.959 . S
C1681 H1688 0.961 . S
C1681 H1689 0.960 . S
C1682 C1680 1.381 . S
C1682 C1683 1.394 . S
C1682 H1690 0.930 . S
C1683 C1682 1.394 . S
C1683 C1684 1.383 . S
C1683 H1691 0.929 . S
C1684 C1683 1.383 . S
C1684 C1685 1.377 . S
C1685 H1669 0.930 . S
C1685 C1684 1.377 . S
C1685 C1686 1.379 . S
C1686 H1670 0.931 . S
C1686 C1680 1.383 . S
C1686 C1685 1.379 . S
H1687 C1681 0.959 . S
H1688 C1681 0.961 . S
H1689 C1681 0.960 . S
H1690 C1682 0.930 . S
H1691 C1683 0.929 . S
H1692 C1700 0.929 . S
H1693 C1702 0.930 . S
H1694 C1704 0.930 . S
H1695 C1707 0.929 . S
H1696 C1710 0.930 . S
H1697 C1712 0.960 . S
H1698 C1712 0.960 . S
H1699 C1712 0.960 . S
C1700 H1692 0.929 . S
C1700 C1701 1.377 . S
C1700 C1702 1.384 . S
C1701 C1700 1.377 . S
C1701 C1707 1.390 . S
C1702 H1693 0.930 . S
C1702 C1700 1.384 . S
C1702 C1703 1.372 . S
C1703 C1702 1.372 . S
C1703 C1704 1.400 . S
C1703 C1708 1.490 . S
C1704 H1694 0.930 . S
C1704 C1703 1.400 . S
C1704 C1707 1.386 . S
H1705 C1721 0.930 . S
H1706 C1722 0.931 . S
C1707 H1695 0.929 . S
C1707 C1701 1.390 . S
C1707 C1704 1.386 . S
C1708 C1703 1.490 . S
C1708 C1710 1.395 . S
C1708 C1711 1.403 . S
H1709 C1715 0.930 . S
C1710 H1696 0.930 . S
C1710 C1708 1.395 . S
C1710 C1713 1.403 . S
C1711 C1708 1.403 . S
C1711 C1712 1.524 . S
C1711 C1715 1.400 . S
C1712 H1697 0.960 . S
C1712 H1698 0.960 . S
C1712 H1699 0.960 . S
C1712 C1711 1.524 . S
C1713 C1710 1.403 . S
C1713 C1714 1.392 . S
C1713 C1717 1.495 . S
C1714 C1713 1.392 . S
C1714 C1715 1.385 . S
C1714 C1716 1.478 . S
C1715 H1709 0.930 . S
C1715 C1711 1.400 . S
C1715 C1714 1.385 . S
C1716 C1714 1.478 . S
C1716 C1718 1.381 . S
C1716 C1722 1.383 . S
C1717 C1713 1.495 . S
C1717 H1723 0.959 . S
C1717 H1724 0.961 . S
C1717 H1725 0.960 . S
C1718 C1716 1.381 . S
C1718 C1719 1.394 . S
C1718 H1726 0.930 . S
C1719 C1718 1.394 . S
C1719 C1720 1.383 . S
C1719 H1727 0.929 . S
C1720 C1719 1.383 . S
C1720 C1721 1.377 . S
C1721 H1705 0.930 . S
C1721 C1720 1.377 . S
C1721 C1722 1.379 . S
C1722 H1706 0.931 . S
C1722 C1716 1.383 . S
C1722 C1721 1.379 . S
H1723 C1717 0.959 . S
H1724 C1717 0.961 . S
H1725 C1717 0.960 . S
H1726 C1718 0.930 . S
H1727 C1719 0.929 . S
H1728 C1736 0.929 . S
H1729 C1738 0.930 . S
H1730 C1740 0.930 . S
H1731 C1743 0.929 . S
H1732 C1746 0.930 . S
H1733 C1748 0.960 . S
H1734 C1748 0.960 . S
H1735 C1748 0.960 . S
C1736 H1728 0.929 . S
C1736 C1737 1.377 . S
C1736 C1738 1.384 . S
C1737 C1736 1.377 . S
C1737 C1743 1.390 . S
C1738 H1729 0.930 . S
C1738 C1736 1.384 . S
C1738 C1739 1.372 . S
C1739 C1738 1.372 . S
C1739 C1740 1.400 . S
C1739 C1744 1.490 . S
C1740 H1730 0.930 . S
C1740 C1739 1.400 . S
C1740 C1743 1.386 . S
H1741 C1757 0.930 . S
H1742 C1758 0.931 . S
C1743 H1731 0.929 . S
C1743 C1737 1.390 . S
C1743 C1740 1.386 . S
C1744 C1739 1.490 . S
C1744 C1746 1.395 . S
C1744 C1747 1.403 . S
H1745 C1751 0.930 . S
C1746 H1732 0.930 . S
C1746 C1744 1.395 . S
C1746 C1749 1.403 . S
C1747 C1744 1.403 . S
C1747 C1748 1.524 . S
C1747 C1751 1.400 . S
C1748 H1733 0.960 . S
C1748 H1734 0.960 . S
C1748 H1735 0.960 . S
C1748 C1747 1.524 . S
C1749 C1746 1.403 . S
C1749 C1750 1.392 . S
C1749 C1753 1.495 . S
C1750 C1749 1.392 . S
C1750 C1751 1.385 . S
C1750 C1752 1.478 . S
C1751 H1745 0.930 . S
C1751 C1747 1.400 . S
C1751 C1750 1.385 . S
C1752 C1750 1.478 . S
C1752 C1754 1.381 . S
C1752 C1758 1.383 . S
C1753 C1749 1.495 . S
C1753 H1759 0.959 . S
C1753 H1760 0.961 . S
C1753 H1761 0.960 . S
C1754 C1752 1.381 . S
C1754 C1755 1.394 . S
C1754 H1762 0.930 . S
C1755 C1754 1.394 . S
C1755 C1756 1.383 . S
C1755 H1763 0.929 . S
C1756 C1755 1.383 . S
C1756 C1757 1.377 . S
C1757 H1741 0.930 . S
C1757 C1756 1.377 . S
C1757 C1758 1.379 . S
C1758 H1742 0.931 . S
C1758 C1752 1.383 . S
C1758 C1757 1.379 . S
H1759 C1753 0.959 . S
H1760 C1753 0.961 . S
H1761 C1753 0.960 . S
H1762 C1754 0.930 . S
H1763 C1755 0.929 . S
H1764 C1772 0.929 . S
H1765 C1774 0.930 . S
H1766 C1776 0.930 1_455 S
H1767 C1779 0.929 . S
H1768 C1782 0.930 . S
H1769 C1784 0.960 . S
H1770 C1784 0.960 . S
H1771 C1784 0.960 . S
C1772 H1764 0.929 . S
C1772 C1773 1.377 . S
C1772 C1774 1.384 . S
C1773 C1772 1.377 . S
C1773 C1779 1.390 . S
C1774 H1765 0.930 . S
C1774 C1772 1.384 . S
C1774 C1775 1.372 . S
C1775 C1774 1.372 . S
C1775 C1776 1.400 . S
C1775 C1780 1.490 1_655 S
C1776 H1766 0.930 1_655 S
C1776 C1775 1.400 . S
C1776 C1779 1.386 . S
H1777 C1793 0.930 . S
H1778 C1794 0.931 . S
C1779 H1767 0.929 . S
C1779 C1773 1.390 . S
C1779 C1776 1.386 . S
C1780 C1775 1.490 1_455 S
C1780 C1782 1.395 . S
C1780 C1783 1.403 . S
H1781 C1787 0.930 . S
C1782 H1768 0.930 . S
C1782 C1780 1.395 . S
C1782 C1785 1.403 . S
C1783 C1780 1.403 . S
C1783 C1784 1.524 . S
C1783 C1787 1.400 . S
C1784 H1769 0.960 . S
C1784 H1770 0.960 . S
C1784 H1771 0.960 . S
C1784 C1783 1.524 . S
C1785 C1782 1.403 . S
C1785 C1786 1.392 . S
C1785 C1789 1.495 . S
C1786 C1785 1.392 . S
C1786 C1787 1.385 . S
C1786 C1788 1.478 . S
C1787 H1781 0.930 . S
C1787 C1783 1.400 . S
C1787 C1786 1.385 . S
C1788 C1786 1.478 . S
C1788 C1790 1.381 . S
C1788 C1794 1.383 . S
C1789 C1785 1.495 . S
C1789 H1795 0.959 . S
C1789 H1796 0.961 . S
C1789 H1797 0.960 . S
C1790 C1788 1.381 . S
C1790 C1791 1.394 . S
C1790 H1798 0.930 . S
C1791 C1790 1.394 . S
C1791 C1792 1.383 . S
C1791 H1799 0.929 . S
C1792 C1791 1.383 . S
C1792 C1793 1.377 . S
C1793 H1777 0.930 . S
C1793 C1792 1.377 . S
C1793 C1794 1.379 . S
C1794 H1778 0.931 . S
C1794 C1788 1.383 . S
C1794 C1793 1.379 . S
H1795 C1789 0.959 . S
H1796 C1789 0.961 . S
H1797 C1789 0.960 . S
H1798 C1790 0.930 . S
H1799 C1791 0.929 . S
H1800 C1808 0.929 . S
H1801 C1810 0.930 . S
H1802 C1812 0.930 . S
H1803 C1815 0.929 . S
H1804 C1818 0.930 . S
H1805 C1820 0.960 . S
H1806 C1820 0.960 . S
H1807 C1820 0.960 . S
C1808 H1800 0.929 . S
C1808 C1809 1.377 . S
C1808 C1810 1.384 . S
C1809 C1808 1.377 . S
C1809 C1815 1.390 . S
C1810 H1801 0.930 . S
C1810 C1808 1.384 . S
C1810 C1811 1.372 . S
C1811 C1810 1.372 . S
C1811 C1812 1.400 . S
C1811 C1816 1.490 . S
C1812 H1802 0.930 . S
C1812 C1811 1.400 . S
C1812 C1815 1.386 . S
H1813 C1829 0.930 . S
H1814 C1830 0.931 . S
C1815 H1803 0.929 . S
C1815 C1809 1.390 . S
C1815 C1812 1.386 . S
C1816 C1811 1.490 . S
C1816 C1818 1.395 . S
C1816 C1819 1.403 . S
H1817 C1823 0.930 . S
C1818 H1804 0.930 . S
C1818 C1816 1.395 . S
C1818 C1821 1.403 . S
C1819 C1816 1.403 . S
C1819 C1820 1.524 . S
C1819 C1823 1.400 . S
C1820 H1805 0.960 . S
C1820 H1806 0.960 . S
C1820 H1807 0.960 . S
C1820 C1819 1.524 . S
C1821 C1818 1.403 . S
C1821 C1822 1.392 . S
C1821 C1825 1.495 . S
C1822 C1821 1.392 . S
C1822 C1823 1.385 . S
C1822 C1824 1.478 . S
C1823 H1817 0.930 . S
C1823 C1819 1.400 . S
C1823 C1822 1.385 . S
C1824 C1822 1.478 . S
C1824 C1826 1.381 . S
C1824 C1830 1.383 . S
C1825 C1821 1.495 . S
C1825 H1831 0.959 . S
C1825 H1832 0.961 . S
C1825 H1833 0.960 . S
C1826 C1824 1.381 . S
C1826 C1827 1.394 . S
C1826 H1834 0.930 . S
C1827 C1826 1.394 . S
C1827 C1828 1.383 . S
C1827 H1835 0.929 . S
C1828 C1827 1.383 . S
C1828 C1829 1.377 . S
C1829 H1813 0.930 . S
C1829 C1828 1.377 . S
C1829 C1830 1.379 . S
C1830 H1814 0.931 . S
C1830 C1824 1.383 . S
C1830 C1829 1.379 . S
H1831 C1825 0.959 . S
H1832 C1825 0.961 . S
H1833 C1825 0.960 . S
H1834 C1826 0.930 . S
H1835 C1827 0.929 . S
H1836 C1844 0.929 . S
H1837 C1846 0.930 . S
H1838 C1848 0.930 . S
H1839 C1851 0.929 . S
H1840 C1854 0.930 . S
H1841 C1856 0.960 . S
H1842 C1856 0.960 1_545 S
H1843 C1856 0.960 . S
C1844 H1836 0.929 . S
C1844 C1845 1.377 . S
C1844 C1846 1.384 . S
C1845 C1844 1.377 . S
C1845 C1851 1.390 . S
C1846 H1837 0.930 . S
C1846 C1844 1.384 . S
C1846 C1847 1.372 . S
C1847 C1846 1.372 . S
C1847 C1848 1.400 . S
C1847 C1852 1.490 1_545 S
C1848 H1838 0.930 . S
C1848 C1847 1.400 . S
C1848 C1851 1.386 . S
H1849 C1865 0.930 . S
H1850 C1866 0.931 . S
C1851 H1839 0.929 . S
C1851 C1845 1.390 . S
C1851 C1848 1.386 . S
C1852 C1847 1.490 1_565 S
C1852 C1854 1.395 . S
C1852 C1855 1.403 . S
H1853 C1859 0.930 . S
C1854 H1840 0.930 . S
C1854 C1852 1.395 . S
C1854 C1857 1.403 . S
C1855 C1852 1.403 . S
C1855 C1856 1.524 . S
C1855 C1859 1.400 . S
C1856 H1841 0.960 . S
C1856 H1842 0.960 1_565 S
C1856 H1843 0.960 . S
C1856 C1855 1.524 . S
C1857 C1854 1.403 . S
C1857 C1858 1.392 . S
C1857 C1861 1.495 . S
C1858 C1857 1.392 . S
C1858 C1859 1.385 . S
C1858 C1860 1.478 . S
C1859 H1853 0.930 . S
C1859 C1855 1.400 . S
C1859 C1858 1.385 . S
C1860 C1858 1.478 . S
C1860 C1862 1.381 . S
C1860 C1866 1.383 . S
C1861 C1857 1.495 . S
C1861 H1867 0.959 . S
C1861 H1868 0.961 . S
C1861 H1869 0.960 . S
C1862 C1860 1.381 . S
C1862 C1863 1.394 . S
C1862 H1870 0.930 . S
C1863 C1862 1.394 . S
C1863 C1864 1.383 . S
C1863 H1871 0.929 . S
C1864 C1863 1.383 . S
C1864 C1865 1.377 . S
C1865 H1849 0.930 . S
C1865 C1864 1.377 . S
C1865 C1866 1.379 . S
C1866 H1850 0.931 . S
C1866 C1860 1.383 . S
C1866 C1865 1.379 . S
H1867 C1861 0.959 . S
H1868 C1861 0.961 . S
H1869 C1861 0.960 . S
H1870 C1862 0.930 . S
H1871 C1863 0.929 . S
H1872 C1880 0.929 . S
H1873 C1882 0.930 . S
H1874 C1884 0.930 . S
H1875 C1887 0.929 . S
H1876 C1890 0.930 . S
H1877 C1892 0.960 . S
H1878 C1892 0.960 . S
H1879 C1892 0.960 . S
C1880 H1872 0.929 . S
C1880 C1881 1.377 . S
C1880 C1882 1.384 . S
C1881 C1880 1.377 . S
C1881 C1887 1.390 . S
C1882 H1873 0.930 . S
C1882 C1880 1.384 . S
C1882 C1883 1.372 . S
C1883 C1882 1.372 . S
C1883 C1884 1.400 . S
C1883 C1888 1.490 . S
C1884 H1874 0.930 . S
C1884 C1883 1.400 . S
C1884 C1887 1.386 . S
H1885 C1901 0.930 . S
H1886 C1902 0.931 . S
C1887 H1875 0.929 . S
C1887 C1881 1.390 . S
C1887 C1884 1.386 . S
C1888 C1883 1.490 . S
C1888 C1890 1.395 . S
C1888 C1891 1.403 . S
H1889 C1895 0.930 . S
C1890 H1876 0.930 . S
C1890 C1888 1.395 . S
C1890 C1893 1.403 . S
C1891 C1888 1.403 . S
C1891 C1892 1.524 . S
C1891 C1895 1.400 . S
C1892 H1877 0.960 . S
C1892 H1878 0.960 . S
C1892 H1879 0.960 . S
C1892 C1891 1.524 . S
C1893 C1890 1.403 . S
C1893 C1894 1.392 . S
C1893 C1897 1.495 . S
C1894 C1893 1.392 . S
C1894 C1895 1.385 . S
C1894 C1896 1.478 . S
C1895 H1889 0.930 . S
C1895 C1891 1.400 . S
C1895 C1894 1.385 . S
C1896 C1894 1.478 . S
C1896 C1898 1.381 . S
C1896 C1902 1.383 . S
C1897 C1893 1.495 . S
C1897 H1903 0.959 . S
C1897 H1904 0.961 . S
C1897 H1905 0.960 . S
C1898 C1896 1.381 . S
C1898 C1899 1.394 . S
C1898 H1906 0.930 . S
C1899 C1898 1.394 . S
C1899 C1900 1.383 . S
C1899 H1907 0.929 . S
C1900 C1899 1.383 . S
C1900 C1901 1.377 . S
C1901 H1885 0.930 . S
C1901 C1900 1.377 . S
C1901 C1902 1.379 . S
C1902 H1886 0.931 . S
C1902 C1896 1.383 . S
C1902 C1901 1.379 . S
H1903 C1897 0.959 . S
H1904 C1897 0.961 . S
H1905 C1897 0.960 . S
H1906 C1898 0.930 . S
H1907 C1899 0.929 . S
H1908 C1916 0.929 . S
H1909 C1918 0.930 . S
H1910 C1920 0.930 . S
H1911 C1923 0.929 . S
H1912 C1926 0.930 . S
H1913 C1928 0.960 . S
H1914 C1928 0.960 . S
H1915 C1928 0.960 . S
C1916 H1908 0.929 . S
C1916 C1917 1.377 . S
C1916 C1918 1.384 . S
C1917 C1916 1.377 . S
C1917 C1923 1.390 . S
C1918 H1909 0.930 . S
C1918 C1916 1.384 . S
C1918 C1919 1.372 . S
C1919 C1918 1.372 . S
C1919 C1920 1.400 . S
C1919 C1924 1.490 . S
C1920 H1910 0.930 . S
C1920 C1919 1.400 . S
C1920 C1923 1.386 . S
H1921 C1937 0.930 . S
H1922 C1938 0.931 . S
C1923 H1911 0.929 . S
C1923 C1917 1.390 . S
C1923 C1920 1.386 . S
C1924 C1919 1.490 . S
C1924 C1926 1.395 . S
C1924 C1927 1.403 . S
H1925 C1931 0.930 . S
C1926 H1912 0.930 . S
C1926 C1924 1.395 . S
C1926 C1929 1.403 . S
C1927 C1924 1.403 . S
C1927 C1928 1.524 . S
C1927 C1931 1.400 . S
C1928 H1913 0.960 . S
C1928 H1914 0.960 . S
C1928 H1915 0.960 . S
C1928 C1927 1.524 . S
C1929 C1926 1.403 . S
C1929 C1930 1.392 . S
C1929 C1933 1.495 . S
C1930 C1929 1.392 . S
C1930 C1931 1.385 . S
C1930 C1932 1.478 . S
C1931 H1925 0.930 . S
C1931 C1927 1.400 . S
C1931 C1930 1.385 . S
C1932 C1930 1.478 . S
C1932 C1934 1.381 . S
C1932 C1938 1.383 . S
C1933 C1929 1.495 . S
C1933 H1939 0.959 . S
C1933 H1940 0.961 . S
C1933 H1941 0.960 . S
C1934 C1932 1.381 . S
C1934 C1935 1.394 . S
C1934 H1942 0.930 . S
C1935 C1934 1.394 . S
C1935 C1936 1.383 . S
C1935 H1943 0.929 . S
C1936 C1935 1.383 . S
C1936 C1937 1.377 . S
C1937 H1921 0.930 . S
C1937 C1936 1.377 . S
C1937 C1938 1.379 . S
C1938 H1922 0.931 . S
C1938 C1932 1.383 . S
C1938 C1937 1.379 . S
H1939 C1933 0.959 . S
H1940 C1933 0.961 . S
H1941 C1933 0.960 . S
H1942 C1934 0.930 . S
H1943 C1935 0.929 . S
H1944 C1952 0.929 . S
H1945 C1954 0.930 . S
H1946 C1956 0.930 . S
H1947 C1959 0.929 . S
H1948 C1962 0.930 . S
H1949 C1964 0.960 . S
H1950 C1964 0.960 . S
H1951 C1964 0.960 . S
C1952 H1944 0.929 . S
C1952 C1953 1.377 . S
C1952 C1954 1.384 . S
C1953 C1952 1.377 . S
C1953 C1959 1.390 . S
C1954 H1945 0.930 . S
C1954 C1952 1.384 . S
C1954 C1955 1.372 . S
C1955 C1954 1.372 . S
C1955 C1956 1.400 . S
C1955 C1960 1.490 . S
C1956 H1946 0.930 . S
C1956 C1955 1.400 . S
C1956 C1959 1.386 . S
H1957 C1973 0.930 . S
H1958 C1974 0.931 . S
C1959 H1947 0.929 . S
C1959 C1953 1.390 . S
C1959 C1956 1.386 . S
C1960 C1955 1.490 . S
C1960 C1962 1.395 . S
C1960 C1963 1.403 . S
H1961 C1967 0.930 . S
C1962 H1948 0.930 . S
C1962 C1960 1.395 . S
C1962 C1965 1.403 . S
C1963 C1960 1.403 . S
C1963 C1964 1.524 . S
C1963 C1967 1.400 . S
C1964 H1949 0.960 . S
C1964 H1950 0.960 . S
C1964 H1951 0.960 . S
C1964 C1963 1.524 . S
C1965 C1962 1.403 . S
C1965 C1966 1.392 . S
C1965 C1969 1.495 . S
C1966 C1965 1.392 . S
C1966 C1967 1.385 . S
C1966 C1968 1.478 . S
C1967 H1961 0.930 . S
C1967 C1963 1.400 . S
C1967 C1966 1.385 . S
C1968 C1966 1.478 . S
C1968 C1970 1.381 . S
C1968 C1974 1.383 . S
C1969 C1965 1.495 . S
C1969 H1975 0.959 . S
C1969 H1976 0.961 . S
C1969 H1977 0.960 . S
C1970 C1968 1.381 . S
C1970 C1971 1.394 . S
C1970 H1978 0.930 . S
C1971 C1970 1.394 . S
C1971 C1972 1.383 . S
C1971 H1979 0.929 . S
C1972 C1971 1.383 . S
C1972 C1973 1.377 . S
C1973 H1957 0.930 . S
C1973 C1972 1.377 . S
C1973 C1974 1.379 . S
C1974 H1958 0.931 . S
C1974 C1968 1.383 . S
C1974 C1973 1.379 . S
H1975 C1969 0.959 . S
H1976 C1969 0.961 . S
H1977 C1969 0.960 . S
H1978 C1970 0.930 . S
H1979 C1971 0.929 . S
H1980 C1988 0.929 . S
H1981 C1990 0.930 . S
H1982 C1992 0.930 . S
H1983 C1995 0.929 . S
H1984 C1998 0.930 . S
H1985 C2000 0.960 . S
H1986 C2000 0.960 . S
H1987 C2000 0.960 . S
C1988 H1980 0.929 . S
C1988 C1989 1.377 . S
C1988 C1990 1.384 . S
C1989 C1988 1.377 . S
C1989 C1995 1.390 . S
C1990 H1981 0.930 . S
C1990 C1988 1.384 . S
C1990 C1991 1.372 . S
C1991 C1990 1.372 . S
C1991 C1992 1.400 . S
C1991 C1996 1.490 . S
C1992 H1982 0.930 . S
C1992 C1991 1.400 . S
C1992 C1995 1.386 . S
H1993 C2009 0.930 . S
H1994 C2010 0.931 . S
C1995 H1983 0.929 . S
C1995 C1989 1.390 . S
C1995 C1992 1.386 . S
C1996 C1991 1.490 . S
C1996 C1998 1.395 . S
C1996 C1999 1.403 . S
H1997 C2003 0.930 . S
C1998 H1984 0.930 . S
C1998 C1996 1.395 . S
C1998 C2001 1.403 . S
C1999 C1996 1.403 . S
C1999 C2000 1.524 . S
C1999 C2003 1.400 . S
C2000 H1985 0.960 . S
C2000 H1986 0.960 . S
C2000 H1987 0.960 . S
C2000 C1999 1.524 . S
C2001 C1998 1.403 . S
C2001 C2002 1.392 . S
C2001 C2005 1.495 . S
C2002 C2001 1.392 . S
C2002 C2003 1.385 . S
C2002 C2004 1.478 . S
C2003 H1997 0.930 . S
C2003 C1999 1.400 . S
C2003 C2002 1.385 . S
C2004 C2002 1.478 . S
C2004 C2006 1.381 . S
C2004 C2010 1.383 . S
C2005 C2001 1.495 . S
C2005 H2011 0.959 . S
C2005 H2012 0.961 . S
C2005 H2013 0.960 . S
C2006 C2004 1.381 . S
C2006 C2007 1.394 . S
C2006 H2014 0.930 . S
C2007 C2006 1.394 . S
C2007 C2008 1.383 . S
C2007 H2015 0.929 . S
C2008 C2007 1.383 . S
C2008 C2009 1.377 . S
C2009 H1993 0.930 . S
C2009 C2008 1.377 . S
C2009 C2010 1.379 . S
C2010 H1994 0.931 . S
C2010 C2004 1.383 . S
C2010 C2009 1.379 . S
H2011 C2005 0.959 . S
H2012 C2005 0.961 . S
H2013 C2005 0.960 . S
H2014 C2006 0.930 . S
H2015 C2007 0.929 . S
H2016 C2024 0.929 . S
H2017 C2026 0.930 . S
H2018 C2028 0.930 . S
H2019 C2031 0.929 . S
H2020 C2034 0.930 . S
H2021 C2036 0.960 . S
H2022 C2036 0.960 . S
H2023 C2036 0.960 . S
C2024 H2016 0.929 . S
C2024 C2025 1.377 . S
C2024 C2026 1.384 . S
C2025 C2024 1.377 . S
C2025 C2031 1.390 . S
C2026 H2017 0.930 . S
C2026 C2024 1.384 . S
C2026 C2027 1.372 . S
C2027 C2026 1.372 . S
C2027 C2028 1.400 . S
C2027 C2032 1.490 . S
C2028 H2018 0.930 . S
C2028 C2027 1.400 . S
C2028 C2031 1.386 . S
H2029 C2045 0.930 . S
H2030 C2046 0.931 . S
C2031 H2019 0.929 . S
C2031 C2025 1.390 . S
C2031 C2028 1.386 . S
C2032 C2027 1.490 . S
C2032 C2034 1.395 . S
C2032 C2035 1.403 . S
H2033 C2039 0.930 . S
C2034 H2020 0.930 . S
C2034 C2032 1.395 . S
C2034 C2037 1.403 . S
C2035 C2032 1.403 . S
C2035 C2036 1.524 . S
C2035 C2039 1.400 . S
C2036 H2021 0.960 . S
C2036 H2022 0.960 . S
C2036 H2023 0.960 . S
C2036 C2035 1.524 . S
C2037 C2034 1.403 . S
C2037 C2038 1.392 . S
C2037 C2041 1.495 . S
C2038 C2037 1.392 . S
C2038 C2039 1.385 . S
C2038 C2040 1.478 . S
C2039 H2033 0.930 . S
C2039 C2035 1.400 . S
C2039 C2038 1.385 . S
C2040 C2038 1.478 . S
C2040 C2042 1.381 . S
C2040 C2046 1.383 . S
C2041 C2037 1.495 . S
C2041 H2047 0.959 . S
C2041 H2048 0.961 . S
C2041 H2049 0.960 . S
C2042 C2040 1.381 . S
C2042 C2043 1.394 . S
C2042 H2050 0.930 . S
C2043 C2042 1.394 . S
C2043 C2044 1.383 . S
C2043 H2051 0.929 . S
C2044 C2043 1.383 . S
C2044 C2045 1.377 . S
C2045 H2029 0.930 . S
C2045 C2044 1.377 . S
C2045 C2046 1.379 . S
C2046 H2030 0.931 . S
C2046 C2040 1.383 . S
C2046 C2045 1.379 . S
H2047 C2041 0.959 . S
H2048 C2041 0.961 . S
H2049 C2041 0.960 . S
H2050 C2042 0.930 . S
H2051 C2043 0.929 . S
H2052 C2060 0.929 . S
H2053 C2062 0.930 . S
H2054 C2064 0.930 . S
H2055 C2067 0.929 . S
H2056 C2070 0.930 . S
H2057 C2072 0.960 . S
H2058 C2072 0.960 . S
H2059 C2072 0.960 . S
C2060 H2052 0.929 . S
C2060 C2061 1.377 . S
C2060 C2062 1.384 . S
C2061 C2060 1.377 . S
C2061 C2067 1.390 . S
C2062 H2053 0.930 . S
C2062 C2060 1.384 . S
C2062 C2063 1.372 . S
C2063 C2062 1.372 . S
C2063 C2064 1.400 . S
C2063 C2068 1.490 . S
C2064 H2054 0.930 . S
C2064 C2063 1.400 . S
C2064 C2067 1.386 . S
H2065 C2081 0.930 . S
H2066 C2082 0.931 . S
C2067 H2055 0.929 . S
C2067 C2061 1.390 . S
C2067 C2064 1.386 . S
C2068 C2063 1.490 . S
C2068 C2070 1.395 . S
C2068 C2071 1.403 . S
H2069 C2075 0.930 . S
C2070 H2056 0.930 . S
C2070 C2068 1.395 . S
C2070 C2073 1.403 . S
C2071 C2068 1.403 . S
C2071 C2072 1.524 . S
C2071 C2075 1.400 . S
C2072 H2057 0.960 . S
C2072 H2058 0.960 . S
C2072 H2059 0.960 . S
C2072 C2071 1.524 . S
C2073 C2070 1.403 . S
C2073 C2074 1.392 . S
C2073 C2077 1.495 . S
C2074 C2073 1.392 . S
C2074 C2075 1.385 . S
C2074 C2076 1.478 . S
C2075 H2069 0.930 . S
C2075 C2071 1.400 . S
C2075 C2074 1.385 . S
C2076 C2074 1.478 . S
C2076 C2078 1.381 . S
C2076 C2082 1.383 . S
C2077 C2073 1.495 . S
C2077 H2083 0.959 . S
C2077 H2084 0.961 . S
C2077 H2085 0.960 . S
C2078 C2076 1.381 . S
C2078 C2079 1.394 . S
C2078 H2086 0.930 . S
C2079 C2078 1.394 . S
C2079 C2080 1.383 . S
C2079 H2087 0.929 . S
C2080 C2079 1.383 . S
C2080 C2081 1.377 . S
C2081 H2065 0.930 . S
C2081 C2080 1.377 . S
C2081 C2082 1.379 . S
C2082 H2066 0.931 . S
C2082 C2076 1.383 . S
C2082 C2081 1.379 . S
H2083 C2077 0.959 . S
H2084 C2077 0.961 . S
H2085 C2077 0.960 . S
H2086 C2078 0.930 . S
H2087 C2079 0.929 . S
H2088 C2096 0.929 . S
H2089 C2098 0.930 . S
H2090 C2100 0.930 . S
H2091 C2103 0.929 . S
H2092 C2106 0.930 . S
H2093 C2108 0.960 . S
H2094 C2108 0.960 . S
H2095 C2108 0.960 . S
C2096 H2088 0.929 . S
C2096 C2097 1.377 . S
C2096 C2098 1.384 . S
C2097 C2096 1.377 . S
C2097 C2103 1.390 . S
C2098 H2089 0.930 . S
C2098 C2096 1.384 . S
C2098 C2099 1.372 . S
C2099 C2098 1.372 . S
C2099 C2100 1.400 . S
C2099 C2104 1.490 1_545 S
C2100 H2090 0.930 . S
C2100 C2099 1.400 . S
C2100 C2103 1.386 . S
H2101 C2117 0.930 . S
H2102 C2118 0.931 . S
C2103 H2091 0.929 . S
C2103 C2097 1.390 . S
C2103 C2100 1.386 . S
C2104 C2099 1.490 1_565 S
C2104 C2106 1.395 . S
C2104 C2107 1.403 . S
H2105 C2111 0.930 . S
C2106 H2092 0.930 . S
C2106 C2104 1.395 . S
C2106 C2109 1.403 . S
C2107 C2104 1.403 . S
C2107 C2108 1.524 . S
C2107 C2111 1.400 . S
C2108 H2093 0.960 . S
C2108 H2094 0.960 . S
C2108 H2095 0.960 . S
C2108 C2107 1.524 . S
C2109 C2106 1.403 . S
C2109 C2110 1.392 . S
C2109 C2113 1.495 . S
C2110 C2109 1.392 . S
C2110 C2111 1.385 . S
C2110 C2112 1.478 . S
C2111 H2105 0.930 . S
C2111 C2107 1.400 . S
C2111 C2110 1.385 . S
C2112 C2110 1.478 . S
C2112 C2114 1.381 . S
C2112 C2118 1.383 . S
C2113 C2109 1.495 . S
C2113 H2119 0.959 . S
C2113 H2120 0.961 . S
C2113 H2121 0.960 . S
C2114 C2112 1.381 . S
C2114 C2115 1.394 . S
C2114 H2122 0.930 . S
C2115 C2114 1.394 . S
C2115 C2116 1.383 . S
C2115 H2123 0.929 . S
C2116 C2115 1.383 . S
C2116 C2117 1.377 . S
C2117 H2101 0.930 . S
C2117 C2116 1.377 . S
C2117 C2118 1.379 . S
C2118 H2102 0.931 . S
C2118 C2112 1.383 . S
C2118 C2117 1.379 . S
H2119 C2113 0.959 . S
H2120 C2113 0.961 . S
H2121 C2113 0.960 . S
H2122 C2114 0.930 . S
H2123 C2115 0.929 . S
H2124 C2132 0.929 . S
H2125 C2134 0.930 1_455 S
H2126 C2136 0.930 . S
H2127 C2139 0.929 . S
H2128 C2142 0.930 . S
H2129 C2144 0.960 . S
H2130 C2144 0.960 . S
H2131 C2144 0.960 . S
C2132 H2124 0.929 . S
C2132 C2133 1.377 . S
C2132 C2134 1.384 . S
C2133 C2132 1.377 . S
C2133 C2139 1.390 . S
C2134 H2125 0.930 1_655 S
C2134 C2132 1.384 . S
C2134 C2135 1.372 1_655 S
C2135 C2134 1.372 1_455 S
C2135 C2136 1.400 1_455 S
C2135 C2140 1.490 . S
C2136 H2126 0.930 . S
C2136 C2135 1.400 1_655 S
C2136 C2139 1.386 . S
H2137 C2153 0.930 . S
H2138 C2154 0.931 . S
C2139 H2127 0.929 . S
C2139 C2133 1.390 . S
C2139 C2136 1.386 . S
C2140 C2135 1.490 . S
C2140 C2142 1.395 . S
C2140 C2143 1.403 . S
H2141 C2147 0.930 . S
C2142 H2128 0.930 . S
C2142 C2140 1.395 . S
C2142 C2145 1.403 . S
C2143 C2140 1.403 . S
C2143 C2144 1.524 . S
C2143 C2147 1.400 . S
C2144 H2129 0.960 . S
C2144 H2130 0.960 . S
C2144 H2131 0.960 . S
C2144 C2143 1.524 . S
C2145 C2142 1.403 . S
C2145 C2146 1.392 . S
C2145 C2149 1.495 . S
C2146 C2145 1.392 . S
C2146 C2147 1.385 . S
C2146 C2148 1.478 . S
C2147 H2141 0.930 . S
C2147 C2143 1.400 . S
C2147 C2146 1.385 . S
C2148 C2146 1.478 . S
C2148 C2150 1.381 . S
C2148 C2154 1.383 . S
C2149 C2145 1.495 . S
C2149 H2155 0.959 . S
C2149 H2156 0.961 . S
C2149 H2157 0.960 . S
C2150 C2148 1.381 . S
C2150 C2151 1.394 . S
C2150 H2158 0.930 . S
C2151 C2150 1.394 . S
C2151 C2152 1.383 . S
C2151 H2159 0.929 . S
C2152 C2151 1.383 . S
C2152 C2153 1.377 . S
C2153 H2137 0.930 . S
C2153 C2152 1.377 . S
C2153 C2154 1.379 . S
C2154 H2138 0.931 . S
C2154 C2148 1.383 . S
C2154 C2153 1.379 . S
H2155 C2149 0.959 . S
H2156 C2149 0.961 . S
H2157 C2149 0.960 . S
H2158 C2150 0.930 . S
H2159 C2151 0.929 . S
H2160 C2168 0.929 . S
H2161 C2170 0.930 . S
H2162 C2172 0.930 . S
H2163 C2175 0.929 . S
H2164 C2178 0.930 . S
H2165 C2180 0.960 . S
H2166 C2180 0.960 . S
H2167 C2180 0.960 . S
C2168 H2160 0.929 . S
C2168 C2169 1.377 . S
C2168 C2170 1.384 . S
C2169 C2168 1.377 . S
C2169 C2175 1.390 . S
C2170 H2161 0.930 . S
C2170 C2168 1.384 . S
C2170 C2171 1.372 . S
C2171 C2170 1.372 . S
C2171 C2172 1.400 . S
C2171 C2176 1.490 . S
C2172 H2162 0.930 . S
C2172 C2171 1.400 . S
C2172 C2175 1.386 . S
H2173 C2189 0.930 . S
H2174 C2190 0.931 . S
C2175 H2163 0.929 . S
C2175 C2169 1.390 . S
C2175 C2172 1.386 . S
C2176 C2171 1.490 . S
C2176 C2178 1.395 . S
C2176 C2179 1.403 . S
H2177 C2183 0.930 . S
C2178 H2164 0.930 . S
C2178 C2176 1.395 . S
C2178 C2181 1.403 . S
C2179 C2176 1.403 . S
C2179 C2180 1.524 . S
C2179 C2183 1.400 . S
C2180 H2165 0.960 . S
C2180 H2166 0.960 . S
C2180 H2167 0.960 . S
C2180 C2179 1.524 . S
C2181 C2178 1.403 . S
C2181 C2182 1.392 . S
C2181 C2185 1.495 . S
C2182 C2181 1.392 . S
C2182 C2183 1.385 . S
C2182 C2184 1.478 . S
C2183 H2177 0.930 . S
C2183 C2179 1.400 . S
C2183 C2182 1.385 . S
C2184 C2182 1.478 . S
C2184 C2186 1.381 . S
C2184 C2190 1.383 . S
C2185 C2181 1.495 . S
C2185 H2191 0.959 . S
C2185 H2192 0.961 . S
C2185 H2193 0.960 . S
C2186 C2184 1.381 . S
C2186 C2187 1.394 . S
C2186 H2194 0.930 . S
C2187 C2186 1.394 . S
C2187 C2188 1.383 . S
C2187 H2195 0.929 . S
C2188 C2187 1.383 . S
C2188 C2189 1.377 . S
C2189 H2173 0.930 . S
C2189 C2188 1.377 . S
C2189 C2190 1.379 . S
C2190 H2174 0.931 . S
C2190 C2184 1.383 . S
C2190 C2189 1.379 . S
H2191 C2185 0.959 . S
H2192 C2185 0.961 . S
H2193 C2185 0.960 . S
H2194 C2186 0.930 . S
H2195 C2187 0.929 . S
H2196 C2204 0.929 . S
H2197 C2206 0.930 . S
H2198 C2208 0.930 . S
H2199 C2211 0.929 . S
H2200 C2214 0.930 . S
H2201 C2216 0.960 . S
H2202 C2216 0.960 . S
H2203 C2216 0.960 . S
C2204 H2196 0.929 . S
C2204 C2205 1.377 . S
C2204 C2206 1.384 . S
C2205 C2204 1.377 . S
C2205 C2211 1.390 . S
C2206 H2197 0.930 . S
C2206 C2204 1.384 . S
C2206 C2207 1.372 . S
C2207 C2206 1.372 . S
C2207 C2208 1.400 . S
C2207 C2212 1.490 . S
C2208 H2198 0.930 . S
C2208 C2207 1.400 . S
C2208 C2211 1.386 . S
H2209 C2225 0.930 . S
H2210 C2226 0.931 . S
C2211 H2199 0.929 . S
C2211 C2205 1.390 . S
C2211 C2208 1.386 . S
C2212 C2207 1.490 . S
C2212 C2214 1.395 . S
C2212 C2215 1.403 . S
H2213 C2219 0.930 . S
C2214 H2200 0.930 . S
C2214 C2212 1.395 . S
C2214 C2217 1.403 . S
C2215 C2212 1.403 . S
C2215 C2216 1.524 . S
C2215 C2219 1.400 . S
C2216 H2201 0.960 . S
C2216 H2202 0.960 . S
C2216 H2203 0.960 . S
C2216 C2215 1.524 . S
C2217 C2214 1.403 . S
C2217 C2218 1.392 . S
C2217 C2221 1.495 . S
C2218 C2217 1.392 . S
C2218 C2219 1.385 . S
C2218 C2220 1.478 . S
C2219 H2213 0.930 . S
C2219 C2215 1.400 . S
C2219 C2218 1.385 . S
C2220 C2218 1.478 . S
C2220 C2222 1.381 . S
C2220 C2226 1.383 . S
C2221 C2217 1.495 . S
C2221 H2227 0.959 . S
C2221 H2228 0.961 . S
C2221 H2229 0.960 . S
C2222 C2220 1.381 . S
C2222 C2223 1.394 . S
C2222 H2230 0.930 . S
C2223 C2222 1.394 . S
C2223 C2224 1.383 . S
C2223 H2231 0.929 . S
C2224 C2223 1.383 . S
C2224 C2225 1.377 . S
C2225 H2209 0.930 . S
C2225 C2224 1.377 . S
C2225 C2226 1.379 . S
C2226 H2210 0.931 . S
C2226 C2220 1.383 . S
C2226 C2225 1.379 . S
H2227 C2221 0.959 . S
H2228 C2221 0.961 . S
H2229 C2221 0.960 . S
H2230 C2222 0.930 . S
H2231 C2223 0.929 . S
H2232 C2240 0.929 . S
H2233 C2242 0.930 . S
H2234 C2244 0.930 . S
H2235 C2247 0.929 . S
H2236 C2250 0.930 . S
H2237 C2252 0.960 . S
H2238 C2252 0.960 . S
H2239 C2252 0.960 . S
C2240 H2232 0.929 . S
C2240 C2241 1.377 . S
C2240 C2242 1.384 . S
C2241 C2240 1.377 . S
C2241 C2247 1.390 . S
C2242 H2233 0.930 . S
C2242 C2240 1.384 . S
C2242 C2243 1.372 . S
C2243 C2242 1.372 . S
C2243 C2244 1.400 . S
C2243 C2248 1.490 . S
C2244 H2234 0.930 . S
C2244 C2243 1.400 . S
C2244 C2247 1.386 . S
H2245 C2261 0.930 . S
H2246 C2262 0.931 . S
C2247 H2235 0.929 . S
C2247 C2241 1.390 . S
C2247 C2244 1.386 . S
C2248 C2243 1.490 . S
C2248 C2250 1.395 . S
C2248 C2251 1.403 . S
H2249 C2255 0.930 . S
C2250 H2236 0.930 . S
C2250 C2248 1.395 . S
C2250 C2253 1.403 . S
C2251 C2248 1.403 . S
C2251 C2252 1.524 . S
C2251 C2255 1.400 . S
C2252 H2237 0.960 . S
C2252 H2238 0.960 . S
C2252 H2239 0.960 . S
C2252 C2251 1.524 . S
C2253 C2250 1.403 . S
C2253 C2254 1.392 . S
C2253 C2257 1.495 . S
C2254 C2253 1.392 . S
C2254 C2255 1.385 . S
C2254 C2256 1.478 . S
C2255 H2249 0.930 . S
C2255 C2251 1.400 . S
C2255 C2254 1.385 . S
C2256 C2254 1.478 . S
C2256 C2258 1.381 . S
C2256 C2262 1.383 . S
C2257 C2253 1.495 . S
C2257 H2263 0.959 . S
C2257 H2264 0.961 . S
C2257 H2265 0.960 . S
C2258 C2256 1.381 . S
C2258 C2259 1.394 . S
C2258 H2266 0.930 . S
C2259 C2258 1.394 . S
C2259 C2260 1.383 . S
C2259 H2267 0.929 . S
C2260 C2259 1.383 . S
C2260 C2261 1.377 . S
C2261 H2245 0.930 . S
C2261 C2260 1.377 . S
C2261 C2262 1.379 . S
C2262 H2246 0.931 . S
C2262 C2256 1.383 . S
C2262 C2261 1.379 . S
H2263 C2257 0.959 . S
H2264 C2257 0.961 . S
H2265 C2257 0.960 . S
H2266 C2258 0.930 . S
H2267 C2259 0.929 . S
H2268 C2276 0.929 . S
H2269 C2278 0.930 . S
H2270 C2280 0.930 . S
H2271 C2283 0.929 . S
H2272 C2286 0.930 . S
H2273 C2288 0.960 . S
H2274 C2288 0.960 . S
H2275 C2288 0.960 . S
C2276 H2268 0.929 . S
C2276 C2277 1.377 . S
C2276 C2278 1.384 . S
C2277 C2276 1.377 . S
C2277 C2283 1.390 . S
C2278 H2269 0.930 . S
C2278 C2276 1.384 . S
C2278 C2279 1.372 . S
C2279 C2278 1.372 . S
C2279 C2280 1.400 . S
C2279 C2284 1.490 . S
C2280 H2270 0.930 . S
C2280 C2279 1.400 . S
C2280 C2283 1.386 . S
H2281 C2297 0.930 . S
H2282 C2298 0.931 . S
C2283 H2271 0.929 . S
C2283 C2277 1.390 . S
C2283 C2280 1.386 . S
C2284 C2279 1.490 . S
C2284 C2286 1.395 . S
C2284 C2287 1.403 . S
H2285 C2291 0.930 . S
C2286 H2272 0.930 . S
C2286 C2284 1.395 . S
C2286 C2289 1.403 . S
C2287 C2284 1.403 . S
C2287 C2288 1.524 . S
C2287 C2291 1.400 . S
C2288 H2273 0.960 . S
C2288 H2274 0.960 . S
C2288 H2275 0.960 . S
C2288 C2287 1.524 . S
C2289 C2286 1.403 . S
C2289 C2290 1.392 . S
C2289 C2293 1.495 . S
C2290 C2289 1.392 . S
C2290 C2291 1.385 . S
C2290 C2292 1.478 . S
C2291 H2285 0.930 . S
C2291 C2287 1.400 . S
C2291 C2290 1.385 . S
C2292 C2290 1.478 . S
C2292 C2294 1.381 . S
C2292 C2298 1.383 . S
C2293 C2289 1.495 . S
C2293 H2299 0.959 . S
C2293 H2300 0.961 . S
C2293 H2301 0.960 . S
C2294 C2292 1.381 . S
C2294 C2295 1.394 . S
C2294 H2302 0.930 . S
C2295 C2294 1.394 . S
C2295 C2296 1.383 . S
C2295 H2303 0.929 . S
C2296 C2295 1.383 . S
C2296 C2297 1.377 . S
C2297 H2281 0.930 . S
C2297 C2296 1.377 . S
C2297 C2298 1.379 . S
C2298 H2282 0.931 . S
C2298 C2292 1.383 . S
C2298 C2297 1.379 . S
H2299 C2293 0.959 . S
H2300 C2293 0.961 . S
H2301 C2293 0.960 . S
H2302 C2294 0.930 . S
H2303 C2295 0.929 . S
H2304 C2312 0.929 . S
H2305 C2314 0.930 . S
H2306 C2316 0.930 . S
H2307 C2319 0.929 . S
H2308 C2322 0.930 . S
H2309 C2324 0.960 . S
H2310 C2324 0.960 1_565 S
H2311 C2324 0.960 . S
C2312 H2304 0.929 . S
C2312 C2313 1.377 . S
C2312 C2314 1.384 . S
C2313 C2312 1.377 . S
C2313 C2319 1.390 . S
C2314 H2305 0.930 . S
C2314 C2312 1.384 . S
C2314 C2315 1.372 . S
C2315 C2314 1.372 . S
C2315 C2316 1.400 . S
C2315 C2320 1.490 1_565 S
C2316 H2306 0.930 . S
C2316 C2315 1.400 . S
C2316 C2319 1.386 . S
H2317 C2333 0.930 . S
H2318 C2334 0.931 . S
C2319 H2307 0.929 . S
C2319 C2313 1.390 . S
C2319 C2316 1.386 . S
C2320 C2315 1.490 1_545 S
C2320 C2322 1.395 . S
C2320 C2323 1.403 . S
H2321 C2327 0.930 . S
C2322 H2308 0.930 . S
C2322 C2320 1.395 . S
C2322 C2325 1.403 . S
C2323 C2320 1.403 . S
C2323 C2324 1.524 . S
C2323 C2327 1.400 . S
C2324 H2309 0.960 . S
C2324 H2310 0.960 1_545 S
C2324 H2311 0.960 . S
C2324 C2323 1.524 . S
C2325 C2322 1.403 . S
C2325 C2326 1.392 . S
C2325 C2329 1.495 . S
C2326 C2325 1.392 . S
C2326 C2327 1.385 . S
C2326 C2328 1.478 . S
C2327 H2321 0.930 . S
C2327 C2323 1.400 . S
C2327 C2326 1.385 . S
C2328 C2326 1.478 . S
C2328 C2330 1.381 . S
C2328 C2334 1.383 . S
C2329 C2325 1.495 . S
C2329 H2335 0.959 . S
C2329 H2336 0.961 . S
C2329 H2337 0.960 . S
C2330 C2328 1.381 . S
C2330 C2331 1.394 . S
C2330 H2338 0.930 . S
C2331 C2330 1.394 . S
C2331 C2332 1.383 . S
C2331 H2339 0.929 . S
C2332 C2331 1.383 . S
C2332 C2333 1.377 . S
C2333 H2317 0.930 . S
C2333 C2332 1.377 . S
C2333 C2334 1.379 . S
C2334 H2318 0.931 . S
C2334 C2328 1.383 . S
C2334 C2333 1.379 . S
H2335 C2329 0.959 . S
H2336 C2329 0.961 . S
H2337 C2329 0.960 . S
H2338 C2330 0.930 . S
H2339 C2331 0.929 . S
H2340 C2348 0.929 . S
H2341 C2350 0.930 . S
H2342 C2352 0.930 1_655 S
H2343 C2355 0.929 . S
H2344 C2358 0.930 . S
H2345 C2360 0.960 . S
H2346 C2360 0.960 . S
H2347 C2360 0.960 . S
C2348 H2340 0.929 . S
C2348 C2349 1.377 . S
C2348 C2350 1.384 . S
C2349 C2348 1.377 . S
C2349 C2355 1.390 . S
C2350 H2341 0.930 . S
C2350 C2348 1.384 . S
C2350 C2351 1.372 . S
C2351 C2350 1.372 . S
C2351 C2352 1.400 . S
C2351 C2356 1.490 1_455 S
C2352 H2342 0.930 1_455 S
C2352 C2351 1.400 . S
C2352 C2355 1.386 . S
H2353 C2369 0.930 . S
H2354 C2370 0.931 . S
C2355 H2343 0.929 . S
C2355 C2349 1.390 . S
C2355 C2352 1.386 . S
C2356 C2351 1.490 1_655 S
C2356 C2358 1.395 . S
C2356 C2359 1.403 . S
H2357 C2363 0.930 . S
C2358 H2344 0.930 . S
C2358 C2356 1.395 . S
C2358 C2361 1.403 . S
C2359 C2356 1.403 . S
C2359 C2360 1.524 . S
C2359 C2363 1.400 . S
C2360 H2345 0.960 . S
C2360 H2346 0.960 . S
C2360 H2347 0.960 . S
C2360 C2359 1.524 . S
C2361 C2358 1.403 . S
C2361 C2362 1.392 . S
C2361 C2365 1.495 . S
C2362 C2361 1.392 . S
C2362 C2363 1.385 . S
C2362 C2364 1.478 . S
C2363 H2357 0.930 . S
C2363 C2359 1.400 . S
C2363 C2362 1.385 . S
C2364 C2362 1.478 . S
C2364 C2366 1.381 . S
C2364 C2370 1.383 . S
C2365 C2361 1.495 . S
C2365 H2371 0.959 . S
C2365 H2372 0.961 . S
C2365 H2373 0.960 . S
C2366 C2364 1.381 . S
C2366 C2367 1.394 . S
C2366 H2374 0.930 . S
C2367 C2366 1.394 . S
C2367 C2368 1.383 . S
C2367 H2375 0.929 . S
C2368 C2367 1.383 . S
C2368 C2369 1.377 . S
C2369 H2353 0.930 . S
C2369 C2368 1.377 . S
C2369 C2370 1.379 . S
C2370 H2354 0.931 . S
C2370 C2364 1.383 . S
C2370 C2369 1.379 . S
H2371 C2365 0.959 . S
H2372 C2365 0.961 . S
H2373 C2365 0.960 . S
H2374 C2366 0.930 . S
H2375 C2367 0.929 . S
H2376 C2384 0.929 . S
H2377 C2386 0.930 . S
H2378 C2388 0.930 . S
H2379 C2391 0.929 . S
H2380 C2394 0.930 . S
H2381 C2396 0.960 . S
H2382 C2396 0.960 . S
H2383 C2396 0.960 . S
C2384 H2376 0.929 . S
C2384 C2385 1.377 . S
C2384 C2386 1.384 . S
C2385 C2384 1.377 . S
C2385 C2391 1.390 . S
C2386 H2377 0.930 . S
C2386 C2384 1.384 . S
C2386 C2387 1.372 . S
C2387 C2386 1.372 . S
C2387 C2388 1.400 . S
C2387 C2392 1.490 . S
C2388 H2378 0.930 . S
C2388 C2387 1.400 . S
C2388 C2391 1.386 . S
H2389 C2405 0.930 . S
H2390 C2406 0.931 . S
C2391 H2379 0.929 . S
C2391 C2385 1.390 . S
C2391 C2388 1.386 . S
C2392 C2387 1.490 . S
C2392 C2394 1.395 . S
C2392 C2395 1.403 . S
H2393 C2399 0.930 . S
C2394 H2380 0.930 . S
C2394 C2392 1.395 . S
C2394 C2397 1.403 . S
C2395 C2392 1.403 . S
C2395 C2396 1.524 . S
C2395 C2399 1.400 . S
C2396 H2381 0.960 . S
C2396 H2382 0.960 . S
C2396 H2383 0.960 . S
C2396 C2395 1.524 . S
C2397 C2394 1.403 . S
C2397 C2398 1.392 . S
C2397 C2401 1.495 . S
C2398 C2397 1.392 . S
C2398 C2399 1.385 . S
C2398 C2400 1.478 . S
C2399 H2393 0.930 . S
C2399 C2395 1.400 . S
C2399 C2398 1.385 . S
C2400 C2398 1.478 . S
C2400 C2402 1.381 . S
C2400 C2406 1.383 . S
C2401 C2397 1.495 . S
C2401 H2407 0.959 . S
C2401 H2408 0.961 . S
C2401 H2409 0.960 . S
C2402 C2400 1.381 . S
C2402 C2403 1.394 . S
C2402 H2410 0.930 . S
C2403 C2402 1.394 . S
C2403 C2404 1.383 . S
C2403 H2411 0.929 . S
C2404 C2403 1.383 . S
C2404 C2405 1.377 . S
C2405 H2389 0.930 . S
C2405 C2404 1.377 . S
C2405 C2406 1.379 . S
C2406 H2390 0.931 . S
C2406 C2400 1.383 . S
C2406 C2405 1.379 . S
H2407 C2401 0.959 . S
H2408 C2401 0.961 . S
H2409 C2401 0.960 . S
H2410 C2402 0.930 . S
H2411 C2403 0.929 . S
H2412 C2420 0.929 . S
H2413 C2422 0.930 . S
H2414 C2424 0.930 1_655 S
H2415 C2427 0.929 . S
H2416 C2430 0.930 . S
H2417 C2432 0.960 . S
H2418 C2432 0.960 1_455 S
H2419 C2432 0.960 . S
C2420 H2412 0.929 . S
C2420 C2421 1.377 . S
C2420 C2422 1.384 . S
C2421 C2420 1.377 . S
C2421 C2427 1.390 . S
C2422 H2413 0.930 . S
C2422 C2420 1.384 . S
C2422 C2423 1.372 . S
C2423 C2422 1.372 . S
C2423 C2424 1.400 . S
C2423 C2428 1.490 1_455 S
C2424 H2414 0.930 1_455 S
C2424 C2423 1.400 . S
C2424 C2427 1.386 . S
H2425 C2441 0.930 . S
H2426 C2442 0.931 . S
C2427 H2415 0.929 . S
C2427 C2421 1.390 . S
C2427 C2424 1.386 . S
C2428 C2423 1.490 1_655 S
C2428 C2430 1.395 . S
C2428 C2431 1.403 . S
H2429 C2435 0.930 . S
C2430 H2416 0.930 . S
C2430 C2428 1.395 . S
C2430 C2433 1.403 . S
C2431 C2428 1.403 . S
C2431 C2432 1.524 . S
C2431 C2435 1.400 . S
C2432 H2417 0.960 . S
C2432 H2418 0.960 1_655 S
C2432 H2419 0.960 . S
C2432 C2431 1.524 . S
C2433 C2430 1.403 . S
C2433 C2434 1.392 . S
C2433 C2437 1.495 . S
C2434 C2433 1.392 . S
C2434 C2435 1.385 . S
C2434 C2436 1.478 . S
C2435 H2429 0.930 . S
C2435 C2431 1.400 . S
C2435 C2434 1.385 . S
C2436 C2434 1.478 . S
C2436 C2438 1.381 . S
C2436 C2442 1.383 . S
C2437 C2433 1.495 . S
C2437 H2443 0.959 . S
C2437 H2444 0.961 . S
C2437 H2445 0.960 . S
C2438 C2436 1.381 . S
C2438 C2439 1.394 . S
C2438 H2446 0.930 . S
C2439 C2438 1.394 . S
C2439 C2440 1.383 . S
C2439 H2447 0.929 . S
C2440 C2439 1.383 . S
C2440 C2441 1.377 . S
C2441 H2425 0.930 . S
C2441 C2440 1.377 . S
C2441 C2442 1.379 . S
C2442 H2426 0.931 . S
C2442 C2436 1.383 . S
C2442 C2441 1.379 . S
H2443 C2437 0.959 . S
H2444 C2437 0.961 . S
H2445 C2437 0.960 . S
H2446 C2438 0.930 . S
H2447 C2439 0.929 . S
H2448 C2456 0.929 . S
H2449 C2458 0.930 . S
H2450 C2460 0.930 . S
H2451 C2463 0.929 . S
H2452 C2466 0.930 . S
H2453 C2468 0.960 . S
H2454 C2468 0.960 . S
H2455 C2468 0.960 . S
C2456 H2448 0.929 . S
C2456 C2457 1.377 . S
C2456 C2458 1.384 . S
C2457 C2456 1.377 . S
C2457 C2463 1.390 . S
C2458 H2449 0.930 . S
C2458 C2456 1.384 . S
C2458 C2459 1.372 . S
C2459 C2458 1.372 . S
C2459 C2460 1.400 . S
C2459 C2464 1.490 . S
C2460 H2450 0.930 . S
C2460 C2459 1.400 . S
C2460 C2463 1.386 . S
H2461 C2477 0.930 . S
H2462 C2478 0.931 . S
C2463 H2451 0.929 . S
C2463 C2457 1.390 . S
C2463 C2460 1.386 . S
C2464 C2459 1.490 . S
C2464 C2466 1.395 . S
C2464 C2467 1.403 . S
H2465 C2471 0.930 . S
C2466 H2452 0.930 . S
C2466 C2464 1.395 . S
C2466 C2469 1.403 . S
C2467 C2464 1.403 . S
C2467 C2468 1.524 . S
C2467 C2471 1.400 . S
C2468 H2453 0.960 . S
C2468 H2454 0.960 . S
C2468 H2455 0.960 . S
C2468 C2467 1.524 . S
C2469 C2466 1.403 . S
C2469 C2470 1.392 . S
C2469 C2473 1.495 . S
C2470 C2469 1.392 . S
C2470 C2471 1.385 . S
C2470 C2472 1.478 . S
C2471 H2465 0.930 . S
C2471 C2467 1.400 . S
C2471 C2470 1.385 . S
C2472 C2470 1.478 . S
C2472 C2474 1.381 . S
C2472 C2478 1.383 . S
C2473 C2469 1.495 . S
C2473 H2479 0.959 . S
C2473 H2480 0.961 . S
C2473 H2481 0.960 . S
C2474 C2472 1.381 . S
C2474 C2475 1.394 . S
C2474 H2482 0.930 . S
C2475 C2474 1.394 . S
C2475 C2476 1.383 . S
C2475 H2483 0.929 . S
C2476 C2475 1.383 . S
C2476 C2477 1.377 . S
C2477 H2461 0.930 . S
C2477 C2476 1.377 . S
C2477 C2478 1.379 . S
C2478 H2462 0.931 . S
C2478 C2472 1.383 . S
C2478 C2477 1.379 . S
H2479 C2473 0.959 . S
H2480 C2473 0.961 . S
H2481 C2473 0.960 . S
H2482 C2474 0.930 . S
H2483 C2475 0.929 . S
H2484 C2492 0.929 . S
H2485 C2494 0.930 . S
H2486 C2496 0.930 . S
H2487 C2499 0.929 . S
H2488 C2502 0.930 . S
H2489 C2504 0.960 . S
H2490 C2504 0.960 1_565 S
H2491 C2504 0.960 . S
C2492 H2484 0.929 . S
C2492 C2493 1.377 . S
C2492 C2494 1.384 . S
C2493 C2492 1.377 . S
C2493 C2499 1.390 . S
C2494 H2485 0.930 . S
C2494 C2492 1.384 . S
C2494 C2495 1.372 . S
C2495 C2494 1.372 . S
C2495 C2496 1.400 . S
C2495 C2500 1.490 1_565 S
C2496 H2486 0.930 . S
C2496 C2495 1.400 . S
C2496 C2499 1.386 . S
H2497 C2513 0.930 . S
H2498 C2514 0.931 . S
C2499 H2487 0.929 . S
C2499 C2493 1.390 . S
C2499 C2496 1.386 . S
C2500 C2495 1.490 1_545 S
C2500 C2502 1.395 . S
C2500 C2503 1.403 . S
H2501 C2507 0.930 . S
C2502 H2488 0.930 . S
C2502 C2500 1.395 . S
C2502 C2505 1.403 . S
C2503 C2500 1.403 . S
C2503 C2504 1.524 . S
C2503 C2507 1.400 . S
C2504 H2489 0.960 . S
C2504 H2490 0.960 1_545 S
C2504 H2491 0.960 . S
C2504 C2503 1.524 . S
C2505 C2502 1.403 . S
C2505 C2506 1.392 . S
C2505 C2509 1.495 . S
C2506 C2505 1.392 . S
C2506 C2507 1.385 . S
C2506 C2508 1.478 . S
C2507 H2501 0.930 . S
C2507 C2503 1.400 . S
C2507 C2506 1.385 . S
C2508 C2506 1.478 . S
C2508 C2510 1.381 . S
C2508 C2514 1.383 . S
C2509 C2505 1.495 . S
C2509 H2515 0.959 . S
C2509 H2516 0.961 . S
C2509 H2517 0.960 . S
C2510 C2508 1.381 . S
C2510 C2511 1.394 . S
C2510 H2518 0.930 . S
C2511 C2510 1.394 . S
C2511 C2512 1.383 . S
C2511 H2519 0.929 . S
C2512 C2511 1.383 . S
C2512 C2513 1.377 . S
C2513 H2497 0.930 . S
C2513 C2512 1.377 . S
C2513 C2514 1.379 . S
C2514 H2498 0.931 . S
C2514 C2508 1.383 . S
C2514 C2513 1.379 . S
H2515 C2509 0.959 . S
H2516 C2509 0.961 . S
H2517 C2509 0.960 . S
H2518 C2510 0.930 . S
H2519 C2511 0.929 . S
H2520 C2528 0.929 . S
H2521 C2530 0.930 . S
H2522 C2532 0.930 . S
H2523 C2535 0.929 . S
H2524 C2538 0.930 . S
H2525 C2540 0.960 . S
H2526 C2540 0.960 . S
H2527 C2540 0.960 . S
C2528 H2520 0.929 . S
C2528 C2529 1.377 . S
C2528 C2530 1.384 . S
C2529 C2528 1.377 . S
C2529 C2535 1.390 . S
C2530 H2521 0.930 . S
C2530 C2528 1.384 . S
C2530 C2531 1.372 . S
C2531 C2530 1.372 . S
C2531 C2532 1.400 . S
C2531 C2536 1.490 . S
C2532 H2522 0.930 . S
C2532 C2531 1.400 . S
C2532 C2535 1.386 . S
H2533 C2549 0.930 . S
H2534 C2550 0.931 . S
C2535 H2523 0.929 . S
C2535 C2529 1.390 . S
C2535 C2532 1.386 . S
C2536 C2531 1.490 . S
C2536 C2538 1.395 . S
C2536 C2539 1.403 . S
H2537 C2543 0.930 . S
C2538 H2524 0.930 . S
C2538 C2536 1.395 . S
C2538 C2541 1.403 . S
C2539 C2536 1.403 . S
C2539 C2540 1.524 . S
C2539 C2543 1.400 . S
C2540 H2525 0.960 . S
C2540 H2526 0.960 . S
C2540 H2527 0.960 . S
C2540 C2539 1.524 . S
C2541 C2538 1.403 . S
C2541 C2542 1.392 . S
C2541 C2545 1.495 . S
C2542 C2541 1.392 . S
C2542 C2543 1.385 . S
C2542 C2544 1.478 . S
C2543 H2537 0.930 . S
C2543 C2539 1.400 . S
C2543 C2542 1.385 . S
C2544 C2542 1.478 . S
C2544 C2546 1.381 . S
C2544 C2550 1.383 . S
C2545 C2541 1.495 . S
C2545 H2551 0.959 . S
C2545 H2552 0.961 . S
C2545 H2553 0.960 . S
C2546 C2544 1.381 . S
C2546 C2547 1.394 . S
C2546 H2554 0.930 . S
C2547 C2546 1.394 . S
C2547 C2548 1.383 . S
C2547 H2555 0.929 . S
C2548 C2547 1.383 . S
C2548 C2549 1.377 . S
C2549 H2533 0.930 . S
C2549 C2548 1.377 . S
C2549 C2550 1.379 . S
C2550 H2534 0.931 . S
C2550 C2544 1.383 . S
C2550 C2549 1.379 . S
H2551 C2545 0.959 . S
H2552 C2545 0.961 . S
H2553 C2545 0.960 . S
H2554 C2546 0.930 . S
H2555 C2547 0.929 . S
H2556 C2564 0.929 . S
H2557 C2566 0.930 . S
H2558 C2568 0.930 . S
H2559 C2571 0.929 . S
H2560 C2574 0.930 . S
H2561 C2576 0.960 . S
H2562 C2576 0.960 . S
H2563 C2576 0.960 . S
C2564 H2556 0.929 . S
C2564 C2565 1.377 . S
C2564 C2566 1.384 . S
C2565 C2564 1.377 . S
C2565 C2571 1.390 . S
C2566 H2557 0.930 . S
C2566 C2564 1.384 . S
C2566 C2567 1.372 . S
C2567 C2566 1.372 . S
C2567 C2568 1.400 . S
C2567 C2572 1.490 . S
C2568 H2558 0.930 . S
C2568 C2567 1.400 . S
C2568 C2571 1.386 . S
H2569 C2585 0.930 . S
H2570 C2586 0.931 . S
C2571 H2559 0.929 . S
C2571 C2565 1.390 . S
C2571 C2568 1.386 . S
C2572 C2567 1.490 . S
C2572 C2574 1.395 . S
C2572 C2575 1.403 . S
H2573 C2579 0.930 . S
C2574 H2560 0.930 . S
C2574 C2572 1.395 . S
C2574 C2577 1.403 . S
C2575 C2572 1.403 . S
C2575 C2576 1.524 . S
C2575 C2579 1.400 . S
C2576 H2561 0.960 . S
C2576 H2562 0.960 . S
C2576 H2563 0.960 . S
C2576 C2575 1.524 . S
C2577 C2574 1.403 . S
C2577 C2578 1.392 . S
C2577 C2581 1.495 . S
C2578 C2577 1.392 . S
C2578 C2579 1.385 . S
C2578 C2580 1.478 . S
C2579 H2573 0.930 . S
C2579 C2575 1.400 . S
C2579 C2578 1.385 . S
C2580 C2578 1.478 . S
C2580 C2582 1.381 . S
C2580 C2586 1.383 . S
C2581 C2577 1.495 . S
C2581 H2587 0.959 . S
C2581 H2588 0.961 . S
C2581 H2589 0.960 . S
C2582 C2580 1.381 . S
C2582 C2583 1.394 . S
C2582 H2590 0.930 . S
C2583 C2582 1.394 . S
C2583 C2584 1.383 . S
C2583 H2591 0.929 . S
C2584 C2583 1.383 . S
C2584 C2585 1.377 . S
C2585 H2569 0.930 . S
C2585 C2584 1.377 . S
C2585 C2586 1.379 . S
C2586 H2570 0.931 . S
C2586 C2580 1.383 . S
C2586 C2585 1.379 . S
H2587 C2581 0.959 . S
H2588 C2581 0.961 . S
H2589 C2581 0.960 . S
H2590 C2582 0.930 . S
H2591 C2583 0.929 . S
H2592 C2600 0.929 . S
H2593 C2602 0.930 . S
H2594 C2604 0.930 . S
H2595 C2607 0.929 . S
H2596 C2610 0.930 . S
H2597 C2612 0.960 . S
H2598 C2612 0.960 . S
H2599 C2612 0.960 . S
C2600 H2592 0.929 . S
C2600 C2601 1.377 . S
C2600 C2602 1.384 . S
C2601 C2600 1.377 . S
C2601 C2607 1.390 . S
C2602 H2593 0.930 . S
C2602 C2600 1.384 . S
C2602 C2603 1.372 . S
C2603 C2602 1.372 . S
C2603 C2604 1.400 . S
C2603 C2608 1.490 . S
C2604 H2594 0.930 . S
C2604 C2603 1.400 . S
C2604 C2607 1.386 . S
H2605 C2621 0.930 . S
H2606 C2622 0.931 . S
C2607 H2595 0.929 . S
C2607 C2601 1.390 . S
C2607 C2604 1.386 . S
C2608 C2603 1.490 . S
C2608 C2610 1.395 . S
C2608 C2611 1.403 . S
H2609 C2615 0.930 . S
C2610 H2596 0.930 . S
C2610 C2608 1.395 . S
C2610 C2613 1.403 . S
C2611 C2608 1.403 . S
C2611 C2612 1.524 . S
C2611 C2615 1.400 . S
C2612 H2597 0.960 . S
C2612 H2598 0.960 . S
C2612 H2599 0.960 . S
C2612 C2611 1.524 . S
C2613 C2610 1.403 . S
C2613 C2614 1.392 . S
C2613 C2617 1.495 . S
C2614 C2613 1.392 . S
C2614 C2615 1.385 . S
C2614 C2616 1.478 . S
C2615 H2609 0.930 . S
C2615 C2611 1.400 . S
C2615 C2614 1.385 . S
C2616 C2614 1.478 . S
C2616 C2618 1.381 . S
C2616 C2622 1.383 . S
C2617 C2613 1.495 . S
C2617 H2623 0.959 . S
C2617 H2624 0.961 . S
C2617 H2625 0.960 . S
C2618 C2616 1.381 . S
C2618 C2619 1.394 . S
C2618 H2626 0.930 . S
C2619 C2618 1.394 . S
C2619 C2620 1.383 . S
C2619 H2627 0.929 . S
C2620 C2619 1.383 . S
C2620 C2621 1.377 . S
C2621 H2605 0.930 . S
C2621 C2620 1.377 . S
C2621 C2622 1.379 . S
C2622 H2606 0.931 . S
C2622 C2616 1.383 . S
C2622 C2621 1.379 . S
H2623 C2617 0.959 . S
H2624 C2617 0.961 . S
H2625 C2617 0.960 . S
H2626 C2618 0.930 . S
H2627 C2619 0.929 . S
H2628 C2636 0.929 . S
H2629 C2638 0.930 . S
H2630 C2640 0.930 . S
H2631 C2643 0.929 . S
H2632 C2646 0.930 . S
H2633 C2648 0.960 . S
H2634 C2648 0.960 . S
H2635 C2648 0.960 . S
C2636 H2628 0.929 . S
C2636 C2637 1.377 . S
C2636 C2638 1.384 . S
C2637 C2636 1.377 . S
C2637 C2643 1.390 . S
C2638 H2629 0.930 . S
C2638 C2636 1.384 . S
C2638 C2639 1.372 . S
C2639 C2638 1.372 . S
C2639 C2640 1.400 . S
C2639 C2644 1.490 . S
C2640 H2630 0.930 . S
C2640 C2639 1.400 . S
C2640 C2643 1.386 . S
H2641 C2657 0.930 . S
H2642 C2658 0.931 . S
C2643 H2631 0.929 . S
C2643 C2637 1.390 . S
C2643 C2640 1.386 . S
C2644 C2639 1.490 . S
C2644 C2646 1.395 . S
C2644 C2647 1.403 . S
H2645 C2651 0.930 . S
C2646 H2632 0.930 . S
C2646 C2644 1.395 . S
C2646 C2649 1.403 . S
C2647 C2644 1.403 . S
C2647 C2648 1.524 . S
C2647 C2651 1.400 . S
C2648 H2633 0.960 . S
C2648 H2634 0.960 . S
C2648 H2635 0.960 . S
C2648 C2647 1.524 . S
C2649 C2646 1.403 . S
C2649 C2650 1.392 . S
C2649 C2653 1.495 . S
C2650 C2649 1.392 . S
C2650 C2651 1.385 . S
C2650 C2652 1.478 . S
C2651 H2645 0.930 . S
C2651 C2647 1.400 . S
C2651 C2650 1.385 . S
C2652 C2650 1.478 . S
C2652 C2654 1.381 . S
C2652 C2658 1.383 . S
C2653 C2649 1.495 . S
C2653 H2659 0.959 . S
C2653 H2660 0.961 . S
C2653 H2661 0.960 . S
C2654 C2652 1.381 . S
C2654 C2655 1.394 . S
C2654 H2662 0.930 . S
C2655 C2654 1.394 . S
C2655 C2656 1.383 . S
C2655 H2663 0.929 1_565 S
C2656 C2655 1.383 . S
C2656 C2657 1.377 . S
C2657 H2641 0.930 . S
C2657 C2656 1.377 . S
C2657 C2658 1.379 . S
C2658 H2642 0.931 . S
C2658 C2652 1.383 . S
C2658 C2657 1.379 . S
H2659 C2653 0.959 . S
H2660 C2653 0.961 . S
H2661 C2653 0.960 . S
H2662 C2654 0.930 . S
H2663 C2655 0.929 1_545 S
H2664 C2672 0.929 . S
H2665 C2674 0.930 . S
H2666 C2676 0.930 . S
H2667 C2679 0.929 . S
H2668 C2682 0.930 . S
H2669 C2684 0.960 . S
H2670 C2684 0.960 . S
H2671 C2684 0.960 . S
C2672 H2664 0.929 . S
C2672 C2673 1.377 . S
C2672 C2674 1.384 . S
C2673 C2672 1.377 . S
C2673 C2679 1.390 . S
C2674 H2665 0.930 . S
C2674 C2672 1.384 . S
C2674 C2675 1.372 . S
C2675 C2674 1.372 . S
C2675 C2676 1.400 . S
C2675 C2680 1.490 . S
C2676 H2666 0.930 . S
C2676 C2675 1.400 . S
C2676 C2679 1.386 . S
H2677 C2693 0.930 1_655 S
H2678 C2694 0.931 . S
C2679 H2667 0.929 . S
C2679 C2673 1.390 . S
C2679 C2676 1.386 . S
C2680 C2675 1.490 . S
C2680 C2682 1.395 . S
C2680 C2683 1.403 . S
H2681 C2687 0.930 . S
C2682 H2668 0.930 . S
C2682 C2680 1.395 . S
C2682 C2685 1.403 . S
C2683 C2680 1.403 . S
C2683 C2684 1.524 . S
C2683 C2687 1.400 . S
C2684 H2669 0.960 . S
C2684 H2670 0.960 . S
C2684 H2671 0.960 . S
C2684 C2683 1.524 . S
C2685 C2682 1.403 . S
C2685 C2686 1.392 . S
C2685 C2689 1.495 . S
C2686 C2685 1.392 . S
C2686 C2687 1.385 . S
C2686 C2688 1.478 . S
C2687 H2681 0.930 . S
C2687 C2683 1.400 . S
C2687 C2686 1.385 . S
C2688 C2686 1.478 . S
C2688 C2690 1.381 . S
C2688 C2694 1.383 . S
C2689 C2685 1.495 . S
C2689 H2695 0.959 . S
C2689 H2696 0.961 . S
C2689 H2697 0.960 . S
C2690 C2688 1.381 . S
C2690 C2691 1.394 . S
C2690 H2698 0.930 . S
C2691 C2690 1.394 . S
C2691 C2692 1.383 . S
C2691 H2699 0.929 . S
C2692 C2691 1.383 . S
C2692 C2693 1.377 . S
C2693 H2677 0.930 1_455 S
C2693 C2692 1.377 . S
C2693 C2694 1.379 . S
C2694 H2678 0.931 . S
C2694 C2688 1.383 . S
C2694 C2693 1.379 . S
H2695 C2689 0.959 . S
H2696 C2689 0.961 . S
H2697 C2689 0.960 . S
H2698 C2690 0.930 . S
H2699 C2691 0.929 . S
H2700 C2708 0.929 . S
H2701 C2710 0.930 . S
H2702 C2712 0.930 . S
H2703 C2715 0.929 . S
H2704 C2718 0.930 . S
H2705 C2720 0.960 . S
H2706 C2720 0.960 . S
H2707 C2720 0.960 . S
C2708 H2700 0.929 . S
C2708 C2709 1.377 . S
C2708 C2710 1.384 . S
C2709 C2708 1.377 . S
C2709 C2715 1.390 . S
C2710 H2701 0.930 . S
C2710 C2708 1.384 . S
C2710 C2711 1.372 . S
C2711 C2710 1.372 . S
C2711 C2712 1.400 . S
C2711 C2716 1.490 . S
C2712 H2702 0.930 . S
C2712 C2711 1.400 . S
C2712 C2715 1.386 . S
H2713 C2729 0.930 . S
H2714 C2730 0.931 . S
C2715 H2703 0.929 . S
C2715 C2709 1.390 . S
C2715 C2712 1.386 . S
C2716 C2711 1.490 . S
C2716 C2718 1.395 . S
C2716 C2719 1.403 . S
H2717 C2723 0.930 . S
C2718 H2704 0.930 . S
C2718 C2716 1.395 . S
C2718 C2721 1.403 . S
C2719 C2716 1.403 . S
C2719 C2720 1.524 . S
C2719 C2723 1.400 . S
C2720 H2705 0.960 . S
C2720 H2706 0.960 . S
C2720 H2707 0.960 . S
C2720 C2719 1.524 . S
C2721 C2718 1.403 . S
C2721 C2722 1.392 . S
C2721 C2725 1.495 . S
C2722 C2721 1.392 . S
C2722 C2723 1.385 . S
C2722 C2724 1.478 . S
C2723 H2717 0.930 . S
C2723 C2719 1.400 . S
C2723 C2722 1.385 . S
C2724 C2722 1.478 . S
C2724 C2726 1.381 . S
C2724 C2730 1.383 . S
C2725 C2721 1.495 . S
C2725 H2731 0.959 . S
C2725 H2732 0.961 . S
C2725 H2733 0.960 . S
C2726 C2724 1.381 . S
C2726 C2727 1.394 . S
C2726 H2734 0.930 . S
C2727 C2726 1.394 . S
C2727 C2728 1.383 . S
C2727 H2735 0.929 . S
C2728 C2727 1.383 . S
C2728 C2729 1.377 . S
C2729 H2713 0.930 . S
C2729 C2728 1.377 . S
C2729 C2730 1.379 . S
C2730 H2714 0.931 . S
C2730 C2724 1.383 . S
C2730 C2729 1.379 . S
H2731 C2725 0.959 . S
H2732 C2725 0.961 . S
H2733 C2725 0.960 . S
H2734 C2726 0.930 . S
H2735 C2727 0.929 . S
H2736 C2744 0.929 . S
H2737 C2746 0.930 . S
H2738 C2748 0.930 . S
H2739 C2751 0.929 . S
H2740 C2754 0.930 . S
H2741 C2756 0.960 . S
H2742 C2756 0.960 . S
H2743 C2756 0.960 . S
C2744 H2736 0.929 . S
C2744 C2745 1.377 . S
C2744 C2746 1.384 . S
C2745 C2744 1.377 . S
C2745 C2751 1.390 . S
C2746 H2737 0.930 . S
C2746 C2744 1.384 . S
C2746 C2747 1.372 . S
C2747 C2746 1.372 . S
C2747 C2748 1.400 . S
C2747 C2752 1.490 . S
C2748 H2738 0.930 . S
C2748 C2747 1.400 . S
C2748 C2751 1.386 . S
H2749 C2765 0.930 . S
H2750 C2766 0.931 . S
C2751 H2739 0.929 . S
C2751 C2745 1.390 . S
C2751 C2748 1.386 . S
C2752 C2747 1.490 . S
C2752 C2754 1.395 . S
C2752 C2755 1.403 . S
H2753 C2759 0.930 . S
C2754 H2740 0.930 . S
C2754 C2752 1.395 . S
C2754 C2757 1.403 . S
C2755 C2752 1.403 . S
C2755 C2756 1.524 . S
C2755 C2759 1.400 . S
C2756 H2741 0.960 . S
C2756 H2742 0.960 . S
C2756 H2743 0.960 . S
C2756 C2755 1.524 . S
C2757 C2754 1.403 . S
C2757 C2758 1.392 . S
C2757 C2761 1.495 . S
C2758 C2757 1.392 . S
C2758 C2759 1.385 . S
C2758 C2760 1.478 . S
C2759 H2753 0.930 . S
C2759 C2755 1.400 . S
C2759 C2758 1.385 . S
C2760 C2758 1.478 . S
C2760 C2762 1.381 . S
C2760 C2766 1.383 . S
C2761 C2757 1.495 . S
C2761 H2767 0.959 . S
C2761 H2768 0.961 . S
C2761 H2769 0.960 . S
C2762 C2760 1.381 . S
C2762 C2763 1.394 . S
C2762 H2770 0.930 . S
C2763 C2762 1.394 . S
C2763 C2764 1.383 . S
C2763 H2771 0.929 1_655 S
C2764 C2763 1.383 . S
C2764 C2765 1.377 . S
C2765 H2749 0.930 . S
C2765 C2764 1.377 . S
C2765 C2766 1.379 . S
C2766 H2750 0.931 . S
C2766 C2760 1.383 . S
C2766 C2765 1.379 . S
H2767 C2761 0.959 . S
H2768 C2761 0.961 . S
H2769 C2761 0.960 . S
H2770 C2762 0.930 . S
H2771 C2763 0.929 1_455 S
H2772 C2780 0.929 . S
H2773 C2782 0.930 . S
H2774 C2784 0.930 . S
H2775 C2787 0.929 . S
H2776 C2790 0.930 . S
H2777 C2792 0.960 . S
H2778 C2792 0.960 . S
H2779 C2792 0.960 . S
C2780 H2772 0.929 . S
C2780 C2781 1.377 . S
C2780 C2782 1.384 . S
C2781 C2780 1.377 . S
C2781 C2787 1.390 . S
C2782 H2773 0.930 . S
C2782 C2780 1.384 . S
C2782 C2783 1.372 . S
C2783 C2782 1.372 . S
C2783 C2784 1.400 . S
C2783 C2788 1.490 . S
C2784 H2774 0.930 . S
C2784 C2783 1.400 . S
C2784 C2787 1.386 . S
H2785 C2801 0.930 . S
H2786 C2802 0.931 . S
C2787 H2775 0.929 . S
C2787 C2781 1.390 . S
C2787 C2784 1.386 . S
C2788 C2783 1.490 . S
C2788 C2790 1.395 . S
C2788 C2791 1.403 . S
H2789 C2795 0.930 . S
C2790 H2776 0.930 . S
C2790 C2788 1.395 . S
C2790 C2793 1.403 . S
C2791 C2788 1.403 . S
C2791 C2792 1.524 . S
C2791 C2795 1.400 . S
C2792 H2777 0.960 . S
C2792 H2778 0.960 . S
C2792 H2779 0.960 . S
C2792 C2791 1.524 . S
C2793 C2790 1.403 . S
C2793 C2794 1.392 . S
C2793 C2797 1.495 . S
C2794 C2793 1.392 . S
C2794 C2795 1.385 . S
C2794 C2796 1.478 . S
C2795 H2789 0.930 . S
C2795 C2791 1.400 . S
C2795 C2794 1.385 . S
C2796 C2794 1.478 . S
C2796 C2798 1.381 . S
C2796 C2802 1.383 . S
C2797 C2793 1.495 . S
C2797 H2803 0.959 . S
C2797 H2804 0.961 . S
C2797 H2805 0.960 . S
C2798 C2796 1.381 . S
C2798 C2799 1.394 . S
C2798 H2806 0.930 . S
C2799 C2798 1.394 . S
C2799 C2800 1.383 . S
C2799 H2807 0.929 . S
C2800 C2799 1.383 . S
C2800 C2801 1.377 . S
C2801 H2785 0.930 . S
C2801 C2800 1.377 . S
C2801 C2802 1.379 . S
C2802 H2786 0.931 . S
C2802 C2796 1.383 . S
C2802 C2801 1.379 . S
H2803 C2797 0.959 . S
H2804 C2797 0.961 . S
H2805 C2797 0.960 . S
H2806 C2798 0.930 . S
H2807 C2799 0.929 . S
H2808 C2816 0.929 . S
H2809 C2818 0.930 . S
H2810 C2820 0.930 . S
H2811 C2823 0.929 . S
H2812 C2826 0.930 . S
H2813 C2828 0.960 . S
H2814 C2828 0.960 . S
H2815 C2828 0.960 . S
C2816 H2808 0.929 . S
C2816 C2817 1.377 . S
C2816 C2818 1.384 . S
C2817 C2816 1.377 . S
C2817 C2823 1.390 . S
C2818 H2809 0.930 . S
C2818 C2816 1.384 . S
C2818 C2819 1.372 . S
C2819 C2818 1.372 . S
C2819 C2820 1.400 . S
C2819 C2824 1.490 . S
C2820 H2810 0.930 . S
C2820 C2819 1.400 . S
C2820 C2823 1.386 . S
H2821 C2837 0.930 . S
H2822 C2838 0.931 . S
C2823 H2811 0.929 . S
C2823 C2817 1.390 . S
C2823 C2820 1.386 . S
C2824 C2819 1.490 . S
C2824 C2826 1.395 . S
C2824 C2827 1.403 . S
H2825 C2831 0.930 . S
C2826 H2812 0.930 . S
C2826 C2824 1.395 . S
C2826 C2829 1.403 . S
C2827 C2824 1.403 . S
C2827 C2828 1.524 . S
C2827 C2831 1.400 . S
C2828 H2813 0.960 . S
C2828 H2814 0.960 . S
C2828 H2815 0.960 . S
C2828 C2827 1.524 . S
C2829 C2826 1.403 . S
C2829 C2830 1.392 . S
C2829 C2833 1.495 . S
C2830 C2829 1.392 . S
C2830 C2831 1.385 . S
C2830 C2832 1.478 . S
C2831 H2825 0.930 . S
C2831 C2827 1.400 . S
C2831 C2830 1.385 . S
C2832 C2830 1.478 . S
C2832 C2834 1.381 . S
C2832 C2838 1.383 . S
C2833 C2829 1.495 . S
C2833 H2839 0.959 . S
C2833 H2840 0.961 . S
C2833 H2841 0.959 . S
C2834 C2832 1.381 . S
C2834 C2835 1.394 . S
C2834 H2842 0.930 . S
C2835 C2834 1.394 . S
C2835 C2836 1.383 . S
C2835 H2843 0.929 . S
C2836 C2835 1.383 . S
C2836 C2837 1.377 . S
C2837 H2821 0.930 . S
C2837 C2836 1.377 . S
C2837 C2838 1.379 . S
C2838 H2822 0.931 . S
C2838 C2832 1.383 . S
C2838 C2837 1.379 . S
H2839 C2833 0.959 . S
H2840 C2833 0.961 . S
H2841 C2833 0.959 . S
H2842 C2834 0.930 . S
H2843 C2835 0.929 . S
H2844 C2852 0.929 . S
H2845 C2854 0.930 . S
H2846 C2856 0.930 . S
H2847 C2859 0.929 . S
H2848 C2862 0.930 . S
H2849 C2864 0.960 . S
H2850 C2864 0.960 . S
H2851 C2864 0.960 . S
C2852 H2844 0.929 . S
C2852 C2853 1.377 . S
C2852 C2854 1.384 . S
C2853 C2852 1.377 . S
C2853 C2859 1.390 . S
C2854 H2845 0.930 . S
C2854 C2852 1.384 . S
C2854 C2855 1.372 . S
C2855 C2854 1.372 . S
C2855 C2856 1.400 . S
C2855 C2860 1.490 . S
C2856 H2846 0.930 . S
C2856 C2855 1.400 . S
C2856 C2859 1.386 . S
H2857 C2873 0.930 . S
H2858 C2874 0.931 . S
C2859 H2847 0.929 . S
C2859 C2853 1.390 . S
C2859 C2856 1.386 . S
C2860 C2855 1.490 . S
C2860 C2862 1.395 . S
C2860 C2863 1.403 . S
H2861 C2867 0.930 . S
C2862 H2848 0.930 . S
C2862 C2860 1.395 . S
C2862 C2865 1.403 . S
C2863 C2860 1.403 . S
C2863 C2864 1.524 . S
C2863 C2867 1.400 . S
C2864 H2849 0.960 . S
C2864 H2850 0.960 . S
C2864 H2851 0.960 . S
C2864 C2863 1.524 . S
C2865 C2862 1.403 . S
C2865 C2866 1.392 . S
C2865 C2869 1.495 . S
C2866 C2865 1.392 . S
C2866 C2867 1.385 . S
C2866 C2868 1.478 . S
C2867 H2861 0.930 . S
C2867 C2863 1.400 . S
C2867 C2866 1.385 . S
C2868 C2866 1.478 . S
C2868 C2870 1.381 . S
C2868 C2874 1.383 . S
C2869 C2865 1.495 . S
C2869 H2875 0.959 . S
C2869 H2876 0.961 . S
C2869 H2877 0.960 . S
C2870 C2868 1.381 . S
C2870 C2871 1.394 . S
C2870 H2878 0.930 . S
C2871 C2870 1.394 . S
C2871 C2872 1.383 . S
C2871 H2879 0.929 . S
C2872 C2871 1.383 . S
C2872 C2873 1.377 . S
C2873 H2857 0.930 . S
C2873 C2872 1.377 . S
C2873 C2874 1.379 . S
C2874 H2858 0.931 . S
C2874 C2868 1.383 . S
C2874 C2873 1.379 . S
H2875 C2869 0.959 . S
H2876 C2869 0.961 . S
H2877 C2869 0.960 . S
H2878 C2870 0.930 . S
H2879 C2871 0.929 . S
H2880 C2888 0.929 . S
H2881 C2890 0.930 . S
H2882 C2892 0.930 . S
H2883 C2895 0.929 . S
H2884 C2898 0.930 . S
H2885 C2900 0.960 . S
H2886 C2900 0.960 . S
H2887 C2900 0.960 . S
C2888 H2880 0.929 . S
C2888 C2889 1.377 . S
C2888 C2890 1.384 . S
C2889 C2888 1.377 . S
C2889 C2895 1.390 . S
C2890 H2881 0.930 . S
C2890 C2888 1.384 . S
C2890 C2891 1.372 . S
C2891 C2890 1.372 . S
C2891 C2892 1.400 . S
C2891 C2896 1.490 . S
C2892 H2882 0.930 . S
C2892 C2891 1.400 . S
C2892 C2895 1.386 . S
H2893 C2909 0.930 . S
H2894 C2910 0.931 . S
C2895 H2883 0.929 . S
C2895 C2889 1.390 . S
C2895 C2892 1.386 . S
C2896 C2891 1.490 . S
C2896 C2898 1.395 . S
C2896 C2899 1.403 . S
H2897 C2903 0.930 . S
C2898 H2884 0.930 . S
C2898 C2896 1.395 . S
C2898 C2901 1.403 . S
C2899 C2896 1.403 . S
C2899 C2900 1.524 . S
C2899 C2903 1.400 . S
C2900 H2885 0.960 . S
C2900 H2886 0.960 . S
C2900 H2887 0.960 . S
C2900 C2899 1.524 . S
C2901 C2898 1.403 . S
C2901 C2902 1.392 . S
C2901 C2905 1.495 . S
C2902 C2901 1.392 . S
C2902 C2903 1.385 . S
C2902 C2904 1.478 . S
C2903 H2897 0.930 . S
C2903 C2899 1.400 . S
C2903 C2902 1.385 . S
C2904 C2902 1.478 . S
C2904 C2906 1.381 . S
C2904 C2910 1.383 . S
C2905 C2901 1.495 . S
C2905 H2911 0.959 . S
C2905 H2912 0.961 . S
C2905 H2913 0.960 . S
C2906 C2904 1.381 . S
C2906 C2907 1.394 . S
C2906 H2914 0.930 . S
C2907 C2906 1.394 . S
C2907 C2908 1.383 . S
C2907 H2915 0.929 . S
C2908 C2907 1.383 . S
C2908 C2909 1.377 . S
C2909 H2893 0.930 . S
C2909 C2908 1.377 . S
C2909 C2910 1.379 . S
C2910 H2894 0.931 . S
C2910 C2904 1.383 . S
C2910 C2909 1.379 . S
H2911 C2905 0.959 . S
H2912 C2905 0.961 . S
H2913 C2905 0.960 . S
H2914 C2906 0.930 . S
H2915 C2907 0.929 . S
H2916 C2924 0.929 . S
H2917 C2926 0.930 . S
H2918 C2928 0.930 . S
H2919 C2931 0.929 . S
H2920 C2934 0.930 . S
H2921 C2936 0.960 . S
H2922 C2936 0.960 . S
H2923 C2936 0.960 . S
C2924 H2916 0.929 . S
C2924 C2925 1.377 . S
C2924 C2926 1.384 . S
C2925 C2924 1.377 . S
C2925 C2931 1.390 . S
C2926 H2917 0.930 . S
C2926 C2924 1.384 . S
C2926 C2927 1.372 . S
C2927 C2926 1.372 . S
C2927 C2928 1.400 . S
C2927 C2932 1.490 . S
C2928 H2918 0.930 . S
C2928 C2927 1.400 . S
C2928 C2931 1.386 . S
H2929 C2945 0.930 . S
H2930 C2946 0.931 . S
C2931 H2919 0.929 . S
C2931 C2925 1.390 . S
C2931 C2928 1.386 . S
C2932 C2927 1.490 . S
C2932 C2934 1.395 . S
C2932 C2935 1.403 . S
H2933 C2939 0.930 . S
C2934 H2920 0.930 . S
C2934 C2932 1.395 . S
C2934 C2937 1.403 . S
C2935 C2932 1.403 . S
C2935 C2936 1.524 . S
C2935 C2939 1.400 . S
C2936 H2921 0.960 . S
C2936 H2922 0.960 . S
C2936 H2923 0.960 . S
C2936 C2935 1.524 . S
C2937 C2934 1.403 . S
C2937 C2938 1.392 . S
C2937 C2941 1.495 . S
C2938 C2937 1.392 . S
C2938 C2939 1.385 . S
C2938 C2940 1.478 . S
C2939 H2933 0.930 . S
C2939 C2935 1.400 . S
C2939 C2938 1.385 . S
C2940 C2938 1.478 . S
C2940 C2942 1.381 . S
C2940 C2946 1.383 . S
C2941 C2937 1.495 . S
C2941 H2947 0.959 . S
C2941 H2948 0.961 . S
C2941 H2949 0.960 . S
C2942 C2940 1.381 . S
C2942 C2943 1.394 . S
C2942 H2950 0.930 . S
C2943 C2942 1.394 . S
C2943 C2944 1.383 . S
C2943 H2951 0.929 . S
C2944 C2943 1.383 . S
C2944 C2945 1.377 . S
C2945 H2929 0.930 . S
C2945 C2944 1.377 . S
C2945 C2946 1.379 . S
C2946 H2930 0.931 . S
C2946 C2940 1.383 . S
C2946 C2945 1.379 . S
H2947 C2941 0.959 . S
H2948 C2941 0.961 . S
H2949 C2941 0.960 . S
H2950 C2942 0.930 . S
H2951 C2943 0.929 . S
H2952 C2960 0.929 . S
H2953 C2962 0.930 . S
H2954 C2964 0.930 . S
H2955 C2967 0.929 . S
H2956 C2970 0.930 . S
H2957 C2972 0.960 . S
H2958 C2972 0.960 . S
H2959 C2972 0.960 . S
C2960 H2952 0.929 . S
C2960 C2961 1.377 . S
C2960 C2962 1.384 . S
C2961 C2960 1.377 . S
C2961 C2967 1.390 . S
C2962 H2953 0.930 . S
C2962 C2960 1.384 . S
C2962 C2963 1.372 . S
C2963 C2962 1.372 . S
C2963 C2964 1.400 . S
C2963 C2968 1.490 . S
C2964 H2954 0.930 . S
C2964 C2963 1.400 . S
C2964 C2967 1.386 . S
H2965 C2981 0.930 . S
H2966 C2982 0.931 . S
C2967 H2955 0.929 . S
C2967 C2961 1.390 . S
C2967 C2964 1.386 . S
C2968 C2963 1.490 . S
C2968 C2970 1.395 . S
C2968 C2971 1.403 . S
H2969 C2975 0.930 . S
C2970 H2956 0.930 . S
C2970 C2968 1.395 . S
C2970 C2973 1.403 . S
C2971 C2968 1.403 . S
C2971 C2972 1.524 . S
C2971 C2975 1.400 . S
C2972 H2957 0.960 . S
C2972 H2958 0.960 . S
C2972 H2959 0.960 . S
C2972 C2971 1.524 . S
C2973 C2970 1.403 . S
C2973 C2974 1.392 . S
C2973 C2977 1.495 . S
C2974 C2973 1.392 . S
C2974 C2975 1.385 . S
C2974 C2976 1.478 . S
C2975 H2969 0.930 . S
C2975 C2971 1.400 . S
C2975 C2974 1.385 . S
C2976 C2974 1.478 . S
C2976 C2978 1.381 . S
C2976 C2982 1.383 . S
C2977 C2973 1.495 . S
C2977 H2983 0.959 . S
C2977 H2984 0.961 . S
C2977 H2985 0.960 . S
C2978 C2976 1.381 . S
C2978 C2979 1.394 . S
C2978 H2986 0.930 . S
C2979 C2978 1.394 . S
C2979 C2980 1.383 . S
C2979 H2987 0.929 . S
C2980 C2979 1.383 . S
C2980 C2981 1.377 . S
C2981 H2965 0.930 . S
C2981 C2980 1.377 . S
C2981 C2982 1.379 . S
C2982 H2966 0.931 . S
C2982 C2976 1.383 . S
C2982 C2981 1.379 . S
H2983 C2977 0.959 . S
H2984 C2977 0.961 . S
H2985 C2977 0.960 . S
H2986 C2978 0.930 . S
H2987 C2979 0.929 . S
H2988 C2996 0.929 . S
H2989 C2998 0.930 . S
H2990 C3000 0.930 . S
H2991 C3003 0.929 . S
H2992 C3006 0.930 . S
H2993 C3008 0.960 . S
H2994 C3008 0.960 . S
H2995 C3008 0.960 . S
C2996 H2988 0.929 . S
C2996 C2997 1.377 . S
C2996 C2998 1.384 . S
C2997 C2996 1.377 . S
C2997 C3003 1.390 . S
C2998 H2989 0.930 . S
C2998 C2996 1.384 . S
C2998 C2999 1.372 . S
C2999 C2998 1.372 . S
C2999 C3000 1.400 . S
C2999 C3004 1.490 . S
C3000 H2990 0.930 . S
C3000 C2999 1.400 . S
C3000 C3003 1.386 . S
H3001 C3017 0.930 . S
H3002 C3018 0.931 . S
C3003 H2991 0.929 . S
C3003 C2997 1.390 . S
C3003 C3000 1.386 . S
C3004 C2999 1.490 . S
C3004 C3006 1.395 . S
C3004 C3007 1.403 . S
H3005 C3011 0.930 . S
C3006 H2992 0.930 . S
C3006 C3004 1.395 . S
C3006 C3009 1.403 . S
C3007 C3004 1.403 . S
C3007 C3008 1.524 . S
C3007 C3011 1.400 . S
C3008 H2993 0.960 . S
C3008 H2994 0.960 . S
C3008 H2995 0.960 . S
C3008 C3007 1.524 . S
C3009 C3006 1.403 . S
C3009 C3010 1.392 . S
C3009 C3013 1.495 . S
C3010 C3009 1.392 . S
C3010 C3011 1.385 . S
C3010 C3012 1.478 . S
C3011 H3005 0.930 . S
C3011 C3007 1.400 . S
C3011 C3010 1.385 . S
C3012 C3010 1.478 . S
C3012 C3014 1.381 . S
C3012 C3018 1.383 . S
C3013 C3009 1.495 . S
C3013 H3019 0.959 . S
C3013 H3020 0.961 . S
C3013 H3021 0.960 . S
C3014 C3012 1.381 . S
C3014 C3015 1.394 . S
C3014 H3022 0.930 . S
C3015 C3014 1.394 . S
C3015 C3016 1.383 . S
C3015 H3023 0.929 . S
C3016 C3015 1.383 . S
C3016 C3017 1.377 . S
C3017 H3001 0.930 . S
C3017 C3016 1.377 . S
C3017 C3018 1.379 . S
C3018 H3002 0.931 . S
C3018 C3012 1.383 . S
C3018 C3017 1.379 . S
H3019 C3013 0.959 . S
H3020 C3013 0.961 . S
H3021 C3013 0.960 . S
H3022 C3014 0.930 . S
H3023 C3015 0.929 . S
H3024 C3032 0.929 . S
H3025 C3034 0.930 . S
H3026 C3036 0.930 . S
H3027 C3039 0.929 . S
H3028 C3042 0.930 . S
H3029 C3044 0.960 . S
H3030 C3044 0.960 . S
H3031 C3044 0.960 . S
C3032 H3024 0.929 . S
C3032 C3033 1.377 . S
C3032 C3034 1.384 . S
C3033 C3032 1.377 . S
C3033 C3039 1.390 . S
C3034 H3025 0.930 . S
C3034 C3032 1.384 . S
C3034 C3035 1.372 . S
C3035 C3034 1.372 . S
C3035 C3036 1.400 . S
C3035 C3040 1.490 . S
C3036 H3026 0.930 . S
C3036 C3035 1.400 . S
C3036 C3039 1.386 . S
H3037 C3053 0.930 . S
H3038 C3054 0.931 . S
C3039 H3027 0.929 . S
C3039 C3033 1.390 . S
C3039 C3036 1.386 . S
C3040 C3035 1.490 . S
C3040 C3042 1.395 . S
C3040 C3043 1.403 . S
H3041 C3047 0.930 . S
C3042 H3028 0.930 . S
C3042 C3040 1.395 . S
C3042 C3045 1.403 . S
C3043 C3040 1.403 . S
C3043 C3044 1.524 . S
C3043 C3047 1.400 . S
C3044 H3029 0.960 . S
C3044 H3030 0.960 . S
C3044 H3031 0.960 . S
C3044 C3043 1.524 . S
C3045 C3042 1.403 . S
C3045 C3046 1.392 . S
C3045 C3049 1.495 . S
C3046 C3045 1.392 . S
C3046 C3047 1.385 . S
C3046 C3048 1.478 . S
C3047 H3041 0.930 . S
C3047 C3043 1.400 . S
C3047 C3046 1.385 . S
C3048 C3046 1.478 . S
C3048 C3050 1.381 . S
C3048 C3054 1.383 . S
C3049 C3045 1.495 . S
C3049 H3055 0.959 . S
C3049 H3056 0.961 . S
C3049 H3057 0.960 . S
C3050 C3048 1.381 . S
C3050 C3051 1.394 . S
C3050 H3058 0.930 . S
C3051 C3050 1.394 . S
C3051 C3052 1.383 . S
C3051 H3059 0.929 . S
C3052 C3051 1.383 . S
C3052 C3053 1.377 . S
C3053 H3037 0.930 . S
C3053 C3052 1.377 . S
C3053 C3054 1.379 . S
C3054 H3038 0.931 . S
C3054 C3048 1.383 . S
C3054 C3053 1.379 . S
H3055 C3049 0.959 . S
H3056 C3049 0.961 . S
H3057 C3049 0.960 . S
H3058 C3050 0.930 . S
H3059 C3051 0.929 . S
H3060 C3068 0.929 . S
H3061 C3070 0.930 . S
H3062 C3072 0.930 . S
H3063 C3075 0.929 . S
H3064 C3078 0.930 . S
H3065 C3080 0.960 . S
H3066 C3080 0.960 . S
H3067 C3080 0.960 . S
C3068 H3060 0.929 . S
C3068 C3069 1.377 . S
C3068 C3070 1.384 . S
C3069 C3068 1.377 . S
C3069 C3075 1.390 . S
C3070 H3061 0.930 . S
C3070 C3068 1.384 . S
C3070 C3071 1.372 . S
C3071 C3070 1.372 . S
C3071 C3072 1.400 . S
C3071 C3076 1.490 . S
C3072 H3062 0.930 . S
C3072 C3071 1.400 . S
C3072 C3075 1.386 . S
H3073 C3089 0.930 . S
H3074 C3090 0.931 . S
C3075 H3063 0.929 . S
C3075 C3069 1.390 . S
C3075 C3072 1.386 . S
C3076 C3071 1.490 . S
C3076 C3078 1.395 . S
C3076 C3079 1.403 . S
H3077 C3083 0.930 . S
C3078 H3064 0.930 . S
C3078 C3076 1.395 . S
C3078 C3081 1.403 . S
C3079 C3076 1.403 . S
C3079 C3080 1.524 . S
C3079 C3083 1.400 . S
C3080 H3065 0.960 . S
C3080 H3066 0.960 . S
C3080 H3067 0.960 . S
C3080 C3079 1.524 . S
C3081 C3078 1.403 . S
C3081 C3082 1.392 . S
C3081 C3085 1.495 . S
C3082 C3081 1.392 . S
C3082 C3083 1.385 . S
C3082 C3084 1.478 . S
C3083 H3077 0.930 . S
C3083 C3079 1.400 . S
C3083 C3082 1.385 . S
C3084 C3082 1.478 . S
C3084 C3086 1.381 . S
C3084 C3090 1.383 . S
C3085 C3081 1.495 . S
C3085 H3091 0.959 . S
C3085 H3092 0.961 . S
C3085 H3093 0.960 . S
C3086 C3084 1.381 . S
C3086 C3087 1.394 . S
C3086 H3094 0.930 . S
C3087 C3086 1.394 . S
C3087 C3088 1.383 . S
C3087 H3095 0.929 . S
C3088 C3087 1.383 . S
C3088 C3089 1.377 . S
C3089 H3073 0.930 . S
C3089 C3088 1.377 . S
C3089 C3090 1.379 . S
C3090 H3074 0.931 . S
C3090 C3084 1.383 . S
C3090 C3089 1.379 . S
H3091 C3085 0.959 . S
H3092 C3085 0.961 . S
H3093 C3085 0.960 . S
H3094 C3086 0.930 . S
H3095 C3087 0.929 . S
H3096 C3104 0.929 . S
H3097 C3106 0.930 . S
H3098 C3108 0.930 . S
H3099 C3111 0.929 . S
H3100 C3114 0.930 . S
H3101 C3116 0.960 . S
H3102 C3116 0.960 . S
H3103 C3116 0.960 . S
C3104 H3096 0.929 . S
C3104 C3105 1.377 . S
C3104 C3106 1.384 . S
C3105 C3104 1.377 . S
C3105 C3111 1.390 . S
C3106 H3097 0.930 . S
C3106 C3104 1.384 . S
C3106 C3107 1.372 . S
C3107 C3106 1.372 . S
C3107 C3108 1.400 . S
C3107 C3112 1.490 . S
C3108 H3098 0.930 . S
C3108 C3107 1.400 . S
C3108 C3111 1.386 . S
H3109 C3125 0.930 . S
H3110 C3126 0.931 . S
C3111 H3099 0.929 . S
C3111 C3105 1.390 . S
C3111 C3108 1.386 . S
C3112 C3107 1.490 . S
C3112 C3114 1.395 . S
C3112 C3115 1.403 . S
H3113 C3119 0.930 . S
C3114 H3100 0.930 . S
C3114 C3112 1.395 . S
C3114 C3117 1.403 . S
C3115 C3112 1.403 . S
C3115 C3116 1.524 . S
C3115 C3119 1.400 . S
C3116 H3101 0.960 . S
C3116 H3102 0.960 . S
C3116 H3103 0.960 . S
C3116 C3115 1.524 . S
C3117 C3114 1.403 . S
C3117 C3118 1.392 . S
C3117 C3121 1.495 . S
C3118 C3117 1.392 . S
C3118 C3119 1.385 . S
C3118 C3120 1.478 . S
C3119 H3113 0.930 . S
C3119 C3115 1.400 . S
C3119 C3118 1.385 . S
C3120 C3118 1.478 . S
C3120 C3122 1.381 . S
C3120 C3126 1.383 . S
C3121 C3117 1.495 . S
C3121 H3127 0.959 . S
C3121 H3128 0.961 . S
C3121 H3129 0.960 . S
C3122 C3120 1.381 . S
C3122 C3123 1.394 . S
C3122 H3130 0.930 . S
C3123 C3122 1.394 . S
C3123 C3124 1.383 . S
C3123 H3131 0.929 . S
C3124 C3123 1.383 . S
C3124 C3125 1.377 . S
C3125 H3109 0.930 . S
C3125 C3124 1.377 . S
C3125 C3126 1.379 . S
C3126 H3110 0.931 . S
C3126 C3120 1.383 . S
C3126 C3125 1.379 . S
H3127 C3121 0.959 . S
H3128 C3121 0.961 . S
H3129 C3121 0.960 . S
H3130 C3122 0.930 . S
H3131 C3123 0.929 . S
H3132 C3140 0.929 . S
H3133 C3142 0.930 . S
H3134 C3144 0.930 . S
H3135 C3147 0.929 . S
H3136 C3150 0.930 . S
H3137 C3152 0.960 . S
H3138 C3152 0.960 . S
H3139 C3152 0.960 . S
C3140 H3132 0.929 . S
C3140 C3141 1.377 . S
C3140 C3142 1.384 . S
C3141 C3140 1.377 . S
C3141 C3147 1.390 . S
C3142 H3133 0.930 . S
C3142 C3140 1.384 . S
C3142 C3143 1.372 . S
C3143 C3142 1.372 . S
C3143 C3144 1.400 . S
C3143 C3148 1.490 . S
C3144 H3134 0.930 . S
C3144 C3143 1.400 . S
C3144 C3147 1.386 . S
H3145 C3161 0.930 . S
H3146 C3162 0.931 . S
C3147 H3135 0.929 . S
C3147 C3141 1.390 . S
C3147 C3144 1.386 . S
C3148 C3143 1.490 . S
C3148 C3150 1.395 . S
C3148 C3151 1.403 . S
H3149 C3155 0.930 . S
C3150 H3136 0.930 . S
C3150 C3148 1.395 . S
C3150 C3153 1.403 . S
C3151 C3148 1.403 . S
C3151 C3152 1.524 . S
C3151 C3155 1.400 . S
C3152 H3137 0.960 . S
C3152 H3138 0.960 . S
C3152 H3139 0.960 . S
C3152 C3151 1.524 . S
C3153 C3150 1.403 . S
C3153 C3154 1.392 . S
C3153 C3157 1.495 . S
C3154 C3153 1.392 . S
C3154 C3155 1.385 . S
C3154 C3156 1.478 . S
C3155 H3149 0.930 . S
C3155 C3151 1.400 . S
C3155 C3154 1.385 . S
C3156 C3154 1.478 . S
C3156 C3158 1.381 . S
C3156 C3162 1.383 . S
C3157 C3153 1.495 . S
C3157 H3163 0.959 . S
C3157 H3164 0.961 . S
C3157 H3165 0.960 . S
C3158 C3156 1.381 . S
C3158 C3159 1.394 . S
C3158 H3166 0.930 . S
C3159 C3158 1.394 . S
C3159 C3160 1.383 . S
C3159 H3167 0.929 . S
C3160 C3159 1.383 . S
C3160 C3161 1.377 . S
C3161 H3145 0.930 . S
C3161 C3160 1.377 . S
C3161 C3162 1.379 . S
C3162 H3146 0.931 . S
C3162 C3156 1.383 . S
C3162 C3161 1.379 . S
H3163 C3157 0.959 . S
H3164 C3157 0.961 . S
H3165 C3157 0.960 . S
H3166 C3158 0.930 . S
H3167 C3159 0.929 . S
H3168 C3176 0.929 . S
H3169 C3178 0.930 . S
H3170 C3180 0.930 . S
H3171 C3183 0.929 . S
H3172 C3186 0.930 . S
H3173 C3188 0.960 . S
H3174 C3188 0.960 . S
H3175 C3188 0.960 . S
C3176 H3168 0.929 . S
C3176 C3177 1.377 . S
C3176 C3178 1.384 . S
C3177 C3176 1.377 . S
C3177 C3183 1.390 . S
C3178 H3169 0.930 . S
C3178 C3176 1.384 . S
C3178 C3179 1.372 . S
C3179 C3178 1.372 . S
C3179 C3180 1.400 . S
C3179 C3184 1.490 . S
C3180 H3170 0.930 . S
C3180 C3179 1.400 . S
C3180 C3183 1.386 . S
H3181 C3197 0.930 . S
H3182 C3198 0.931 . S
C3183 H3171 0.929 . S
C3183 C3177 1.390 . S
C3183 C3180 1.386 . S
C3184 C3179 1.490 . S
C3184 C3186 1.395 . S
C3184 C3187 1.403 . S
H3185 C3191 0.930 . S
C3186 H3172 0.930 . S
C3186 C3184 1.395 . S
C3186 C3189 1.403 . S
C3187 C3184 1.403 . S
C3187 C3188 1.524 . S
C3187 C3191 1.400 . S
C3188 H3173 0.960 . S
C3188 H3174 0.960 . S
C3188 H3175 0.960 . S
C3188 C3187 1.524 . S
C3189 C3186 1.403 . S
C3189 C3190 1.392 . S
C3189 C3193 1.495 . S
C3190 C3189 1.392 . S
C3190 C3191 1.385 . S
C3190 C3192 1.478 . S
C3191 H3185 0.930 . S
C3191 C3187 1.400 . S
C3191 C3190 1.385 . S
C3192 C3190 1.478 . S
C3192 C3194 1.381 . S
C3192 C3198 1.383 . S
C3193 C3189 1.495 . S
C3193 H3199 0.959 . S
C3193 H3200 0.961 . S
C3193 H3201 0.960 . S
C3194 C3192 1.381 . S
C3194 C3195 1.394 . S
C3194 H3202 0.930 . S
C3195 C3194 1.394 . S
C3195 C3196 1.383 . S
C3195 H3203 0.929 . S
C3196 C3195 1.383 . S
C3196 C3197 1.377 . S
C3197 H3181 0.930 . S
C3197 C3196 1.377 . S
C3197 C3198 1.379 . S
C3198 H3182 0.931 . S
C3198 C3192 1.383 . S
C3198 C3197 1.379 . S
H3199 C3193 0.959 . S
H3200 C3193 0.961 . S
H3201 C3193 0.960 . S
H3202 C3194 0.930 . S
H3203 C3195 0.929 . S
H3204 C3212 0.929 . S
H3205 C3214 0.930 . S
H3206 C3216 0.930 . S
H3207 C3219 0.929 . S
H3208 C3222 0.930 . S
H3209 C3224 0.960 . S
H3210 C3224 0.960 . S
H3211 C3224 0.960 . S
C3212 H3204 0.929 . S
C3212 C3213 1.377 . S
C3212 C3214 1.384 . S
C3213 C3212 1.377 . S
C3213 C3219 1.390 . S
C3214 H3205 0.930 . S
C3214 C3212 1.384 . S
C3214 C3215 1.372 . S
C3215 C3214 1.372 . S
C3215 C3216 1.400 . S
C3215 C3220 1.490 . S
C3216 H3206 0.930 . S
C3216 C3215 1.400 . S
C3216 C3219 1.386 . S
H3217 C3233 0.930 . S
H3218 C3234 0.931 . S
C3219 H3207 0.929 . S
C3219 C3213 1.390 . S
C3219 C3216 1.386 . S
C3220 C3215 1.490 . S
C3220 C3222 1.395 . S
C3220 C3223 1.403 . S
H3221 C3227 0.930 . S
C3222 H3208 0.930 . S
C3222 C3220 1.395 . S
C3222 C3225 1.403 . S
C3223 C3220 1.403 . S
C3223 C3224 1.524 . S
C3223 C3227 1.400 . S
C3224 H3209 0.960 . S
C3224 H3210 0.960 . S
C3224 H3211 0.960 . S
C3224 C3223 1.524 . S
C3225 C3222 1.403 . S
C3225 C3226 1.392 . S
C3225 C3229 1.495 . S
C3226 C3225 1.392 . S
C3226 C3227 1.385 . S
C3226 C3228 1.478 . S
C3227 H3221 0.930 . S
C3227 C3223 1.400 . S
C3227 C3226 1.385 . S
C3228 C3226 1.478 . S
C3228 C3230 1.381 . S
C3228 C3234 1.383 . S
C3229 C3225 1.495 . S
C3229 H3235 0.959 . S
C3229 H3236 0.961 . S
C3229 H3237 0.960 . S
C3230 C3228 1.381 . S
C3230 C3231 1.394 . S
C3230 H3238 0.930 . S
C3231 C3230 1.394 . S
C3231 C3232 1.383 . S
C3231 H3239 0.929 . S
C3232 C3231 1.383 . S
C3232 C3233 1.377 . S
C3233 H3217 0.930 . S
C3233 C3232 1.377 . S
C3233 C3234 1.379 . S
C3234 H3218 0.931 . S
C3234 C3228 1.383 . S
C3234 C3233 1.379 . S
H3235 C3229 0.959 . S
H3236 C3229 0.961 . S
H3237 C3229 0.960 . S
H3238 C3230 0.930 . S
H3239 C3231 0.929 . S
H3240 C3248 0.929 . S
H3241 C3250 0.930 . S
H3242 C3252 0.930 . S
H3243 C3255 0.929 . S
H3244 C3258 0.930 . S
H3245 C3260 0.960 . S
H3246 C3260 0.960 . S
H3247 C3260 0.960 . S
C3248 H3240 0.929 . S
C3248 C3249 1.377 . S
C3248 C3250 1.384 . S
C3249 C3248 1.377 . S
C3249 C3255 1.390 . S
C3250 H3241 0.930 . S
C3250 C3248 1.384 . S
C3250 C3251 1.372 . S
C3251 C3250 1.372 . S
C3251 C3252 1.400 . S
C3251 C3256 1.490 . S
C3252 H3242 0.930 . S
C3252 C3251 1.400 . S
C3252 C3255 1.386 . S
H3253 C3269 0.930 . S
H3254 C3270 0.931 . S
C3255 H3243 0.929 . S
C3255 C3249 1.390 . S
C3255 C3252 1.386 . S
C3256 C3251 1.490 . S
C3256 C3258 1.395 . S
C3256 C3259 1.403 . S
H3257 C3263 0.930 . S
C3258 H3244 0.930 . S
C3258 C3256 1.395 . S
C3258 C3261 1.403 . S
C3259 C3256 1.403 . S
C3259 C3260 1.524 . S
C3259 C3263 1.400 . S
C3260 H3245 0.960 . S
C3260 H3246 0.960 . S
C3260 H3247 0.960 . S
C3260 C3259 1.524 . S
C3261 C3258 1.403 . S
C3261 C3262 1.392 . S
C3261 C3265 1.495 . S
C3262 C3261 1.392 . S
C3262 C3263 1.385 . S
C3262 C3264 1.478 . S
C3263 H3257 0.930 . S
C3263 C3259 1.400 . S
C3263 C3262 1.385 . S
C3264 C3262 1.478 . S
C3264 C3266 1.381 . S
C3264 C3270 1.383 . S
C3265 C3261 1.495 . S
C3265 H3271 0.959 . S
C3265 H3272 0.961 . S
C3265 H3273 0.960 . S
C3266 C3264 1.381 . S
C3266 C3267 1.394 . S
C3266 H3274 0.930 . S
C3267 C3266 1.394 . S
C3267 C3268 1.383 . S
C3267 H3275 0.929 . S
C3268 C3267 1.383 . S
C3268 C3269 1.377 . S
C3269 H3253 0.930 . S
C3269 C3268 1.377 . S
C3269 C3270 1.379 . S
C3270 H3254 0.931 . S
C3270 C3264 1.383 . S
C3270 C3269 1.379 . S
H3271 C3265 0.959 . S
H3272 C3265 0.961 . S
H3273 C3265 0.960 . S
H3274 C3266 0.930 . S
H3275 C3267 0.929 . S
C1341 C439 1.333 . S
C1360 C632 1.294 . S
C1377 C465 1.488 . S
C1396 C716 1.400 . S
C1413 C401 1.441 . S
C1432 C810 1.424 . S
C1449 C369 1.396 . S
C1468 C726 1.346 . S
C1504 C800 1.330 . S
C1485 C305 1.423 . S
C1521 C343 1.292 . S
C1540 C642 1.322 . S
C1576 C643 1.367 . S
C1557 C375 1.401 . S
C1612 C727 1.368 . S
C1593 C311 1.455 . S
C1629 C337 1.405 . S
C1648 C819 1.397 . S
C1665 C433 1.368 . S
C1684 C735 1.344 . S
C1701 C471 1.389 . S
C1720 C811 1.289 . S
C1756 C651 1.345 . S
C1737 C407 1.369 . S
C1792 C884 1.279 . S
C1773 C55 1.327 . S
C1809 C81 1.493 . S
C1828 C968 1.448 . S
C1845 C17 1.438 . S
C1864 C1062 1.399 . S
C1881 C561 1.395 . S
C1900 C978 1.388 . S
C1917 C497 1.423 . S
C1936 C1052 1.322 . S
C1953 C535 1.287 . S
C1972 C894 1.314 . S
C1989 C567 1.407 . S
C2008 C895 1.304 . S
C2025 C503 1.455 . S
C2044 C979 1.361 . S
C2080 C1071 1.401 . S
C2061 C529 1.395 . S
C2097 C49 1.365 . S
C2116 C987 1.341 . S
C2152 C1063 1.311 . S
C2133 C87 1.390 . S
C2169 C23 1.372 . S
C2188 C903 1.310 . S
C2224 C1136 1.300 . S
C2205 C247 1.332 . S
C2241 C273 1.493 . S
C2260 C1220 1.453 . S
C2296 C1314 1.427 . S
C2277 C209 1.440 . S
C2332 C1230 1.366 . S
C2313 C177 1.395 . S
C2368 C1304 1.325 . S
C2349 C113 1.424 . S
C2385 C151 1.292 . S
C2404 C1146 1.322 . S
C2421 C183 1.401 . S
C2440 C1147 1.356 . S
C2457 C119 1.454 . S
C2476 C1231 1.379 . S
C2512 C1323 1.424 . S
C2493 C145 1.405 . S
C2529 C241 1.372 . S
C2548 C1239 1.374 . S
C2565 C279 1.391 . S
C2584 C1315 1.286 . S
C2601 C215 1.369 . S
C2620 C1155 1.360 . S
C2637 C509 1.426 . S
C2656 C639 1.342 . S
C2692 C723 1.336 . S
C2673 C541 1.427 . S
C2709 C573 1.438 . S
C2728 C816 1.300 . S
C2745 C221 1.478 . S
C2764 C732 1.353 . S
C2781 C253 1.401 . S
C2800 C807 1.334 . S
C2836 C648 1.291 . S
C2817 C285 1.429 . S
C2853 C125 1.424 . S
C2872 C891 1.366 . S
C2889 C157 1.430 . S
C2908 C975 1.354 . S
C2925 C189 1.443 . S
C2944 C1068 1.286 . S
C2961 C413 1.478 . S
C2980 C984 1.354 . S
C3016 C1059 1.266 . S
C2997 C445 1.394 . S
C3033 C477 1.428 . S
C3052 C900 1.373 . S
C3069 C317 1.433 . S
C3088 C1143 1.304 . S
C3105 C349 1.424 . S
C3124 C1227 1.298 . S
C3160 C1320 1.372 . S
C3141 C381 1.439 . S
C3177 C29 1.484 . S
C3196 C1236 1.314 . S
C3213 C61 1.399 . S
C3232 C1311 1.279 . S
C3249 C93 1.432 . S
C3268 C1152 1.321 . S
