# Generated by pormake.
# Topology sit, (3,6)-cn, num edge types: 1
# Building blocks:
#     Node 0, Type 0, BuildingBlock: KAKCAD_clean_linker_0, # of connection points: 3
#     Node 1, Type 0, BuildingBlock: KAKCAD_clean_linker_0, # of connection points: 3
#     Node 2, Type 0, BuildingBlock: KAKCAD_clean_linker_0, # of connection points: 3
#     Node 3, Type 0, BuildingBlock: KAKCAD_clean_linker_0, # of connection points: 3
#     Node 4, Type 1, BuildingBlock: MIDCAF_clean_sbu_0, # of connection points: 6
#     Node 5, Type 1, BuildingBlock: MIDCAF_clean_sbu_0, # of connection points: 6
#     Edge 6, Type (0, 1), BuildingBlock: CIFDUS_clean_linker_0, # of connection points: 2
#     Edge 7, Type (0, 1), BuildingBlock: CIFDUS_clean_linker_0, # of connection points: 2
#     Edge 8, Type (0, 1), BuildingBlock: CIFDUS_clean_linker_0, # of connection points: 2
#     Edge 9, Type (0, 1), BuildingBlock: CIFDUS_clean_linker_0, # of connection points: 2
#     Edge 10, Type (0, 1), BuildingBlock: CIFDUS_clean_linker_0, # of connection points: 2
#     Edge 11, Type (0, 1), BuildingBlock: CIFDUS_clean_linker_0, # of connection points: 2
#     Edge 12, Type (0, 1), BuildingBlock: CIFDUS_clean_linker_0, # of connection points: 2
#     Edge 13, Type (0, 1), BuildingBlock: CIFDUS_clean_linker_0, # of connection points: 2
#     Edge 14, Type (0, 1), BuildingBlock: CIFDUS_clean_linker_0, # of connection points: 2
#     Edge 15, Type (0, 1), BuildingBlock: CIFDUS_clean_linker_0, # of connection points: 2
#     Edge 16, Type (0, 1), BuildingBlock: CIFDUS_clean_linker_0, # of connection points: 2
#     Edge 17, Type (0, 1), BuildingBlock: CIFDUS_clean_linker_0, # of connection points: 2
# Relax obj value: 0.110
# Max RMSD: 0.193
# Mean RMSD: 0.106
data_MOF--net-sit--node1-MIDCAF_clean_sbu_0--node2-KAKCAD_clean_linker_0--edge1-CIFDUS_clean_linker_0
_symmetry_space_group_name_H-M    P1
_symmetry_Int_Tables_number       1
_symmetry_cell_setting            triclinic
loop_
_symmetry_equiv_pos_as_xyz
'x, y, z'
_cell_length_a     25.642782
_cell_length_b     34.794268
_cell_length_c     39.093402
_cell_angle_alpha  90.105484
_cell_angle_beta   89.43076
_cell_angle_gamma 84.485396
loop_
_atom_site_label
_atom_site_type_symbol
_atom_site_fract_x
_atom_site_fract_y
_atom_site_fract_z
_atom_type_partial_charge
C0 C 0.26829 0.35465 0.0076 0.0
C1 C 0.26075 0.39496 0.00366 0.0
C2 C 0.22864 0.33457 0.02171 0.0
C3 C 0.181 0.35456 0.03222 0.0
C4 C 0.17578 0.39519 0.03145 0.0
C5 C 0.21513 0.41519 0.01704 0.0
C6 C 0.13422 0.33343 0.03813 0.0
C7 C 0.13648 0.29915 0.05735 0.0
C8 C 0.09211 0.27832 0.06034 0.0
C9 C 0.04589 0.29204 0.04339 0.0
C10 C 0.04323 0.32618 0.02427 0.0
C11 C 0.08745 0.34656 0.02179 0.0
C12 C -0.00528 0.34026 0.00613 0.0
C13 C 0.96629 0.31435 0.9882 0.0
C14 C 0.97697 0.3798 0.00621 0.0
C15 C 0.93141 0.39309 0.98892 0.0
C16 C 0.90268 0.36704 0.97143 0.0
C17 C 0.09307 0.24255 0.08126 0.0
C18 C 0.13741 0.21536 0.08169 0.0
C19 C 0.04877 0.23516 0.1008 0.0
C20 C 0.04857 0.20152 0.12005 0.0
C21 C 0.09288 0.17453 0.12072 0.0
C22 C 0.1374 0.18176 0.1014 0.0
C23 C 0.92071 0.32761 0.97105 0.0
H24 H 0.30311 0.33836 -0.00264 0.0
H25 H 0.23371 0.3033 0.02184 0.0
H26 H 0.13982 0.41139 0.04004 0.0
H27 H 0.2088 0.44632 0.01477 0.0
H28 H 0.17239 0.28915 0.07031 0.0
H29 H 0.08606 0.372 0.00573 0.0
H30 H 0.01171 0.27607 0.045 0.0
H31 H 0.97959 0.28387 0.98707 0.0
H32 H -0.00214 0.40039 0.0201 0.0
H33 H 0.91801 0.42357 0.98987 0.0
H34 H 0.17196 0.21988 0.06664 0.0
H35 H 0.01437 0.25579 0.10183 0.0
H36 H 0.89966 0.307 0.95729 0.0
H37 H 0.17218 0.16146 0.10159 0.0
H38 H 0.01421 0.19731 0.13543 0.0
C39 C 0.87869 0.68848 0.96791 0.0
C40 C 0.87751 0.6484 0.96366 0.0
C41 C 0.91633 0.7031 0.98855 0.0
C42 C 0.9535 0.67796 0.0056 0.0
C43 C 0.95073 0.63788 0.00266 0.0
C44 C 0.91329 0.62326 0.98185 0.0
C45 C -0.00243 0.69331 0.02395 0.0
C46 C 0.98993 0.72716 0.04381 0.0
C47 C 0.03266 0.743 0.05905 0.0
C48 C 0.08324 0.72393 0.05451 0.0
C49 C 0.09134 0.68972 0.03531 0.0
C50 C 0.04836 0.67493 0.01991 0.0
C51 C 0.14484 0.67021 0.02966 0.0
C52 C 0.18729 0.69192 0.02306 0.0
C53 C 0.15321 0.62964 0.0287 0.0
C54 C 0.20215 0.61128 0.01947 0.0
C55 C 0.24384 0.63312 0.01155 0.0
C56 C 0.02479 0.77925 0.07974 0.0
C57 C 0.98568 0.80893 0.07135 0.0
C58 C 0.05644 0.78441 0.1083 0.0
C59 C 0.04927 0.8181 0.12784 0.0
C60 C 0.00955 0.84713 0.11986 0.0
C61 C 0.97771 0.84233 0.09151 0.0
C62 C 0.23636 0.67354 0.01424 0.0
H63 H 0.85093 0.70867 0.95485 0.0
H64 H 0.91751 0.73408 0.99007 0.0
H65 H 0.97832 0.61773 0.0159 0.0
H66 H 0.91357 0.59227 0.97914 0.0
H67 H 0.95055 0.74081 0.0477 0.0
H68 H 0.05481 0.6498 0.00345 0.0
H69 H 0.11665 0.73584 0.06568 0.0
H70 H 0.18214 0.72318 0.0231 0.0
H71 H 0.1216 0.61204 0.03436 0.0
H72 H 0.20714 0.58006 0.01782 0.0
H73 H 0.96113 0.80647 0.04924 0.0
H74 H 0.08602 0.76202 0.11627 0.0
H75 H 0.26773 0.69106 0.00778 0.0
H76 H 0.94657 0.86433 0.08508 0.0
H77 H 0.07348 0.82078 0.15012 0.0
C78 C 0.77748 0.83083 0.50796 0.0
C79 C 0.77205 0.87148 0.50931 0.0
C80 C 0.73395 0.81001 0.51237 0.0
C81 C 0.68407 0.82941 0.51798 0.0
C82 C 0.67917 0.86981 0.52168 0.0
C83 C 0.72272 0.89062 0.51747 0.0
C84 C 0.63675 0.80823 0.51564 0.0
C85 C 0.63305 0.77329 0.53309 0.0
C86 C 0.58895 0.75231 0.52906 0.0
C87 C 0.54903 0.7671 0.50674 0.0
C88 C 0.55137 0.80274 0.49033 0.0
C89 C 0.59566 0.82273 0.49456 0.0
C90 C 0.50649 0.82016 0.47008 0.0
C91 C 0.47894 0.79749 0.44813 0.0
C92 C 0.48995 0.85971 0.4735 0.0
C93 C 0.44652 0.87613 0.45573 0.0
C94 C 0.41838 0.85338 0.43425 0.0
C95 C 0.58286 0.71655 0.54957 0.0
C96 C 0.62672 0.69318 0.56172 0.0
C97 C 0.53267 0.70638 0.55865 0.0
C98 C 0.52656 0.675 0.57994 0.0
C99 C 0.57025 0.65375 0.59441 0.0
C100 C 0.62052 0.66261 0.58421 0.0
C101 C 0.43531 0.81393 0.43041 0.0
H102 H 0.81473 0.8151 0.50136 0.0
H103 H 0.73878 0.77893 0.50917 0.0
H104 H 0.6412 0.88543 0.52655 0.0
H105 H 0.71738 0.92181 0.51938 0.0
H106 H 0.66402 0.76337 0.55048 0.0
H107 H 0.59864 0.84945 0.48076 0.0
H108 H 0.51517 0.75149 0.5026 0.0
H109 H 0.49103 0.76703 0.44469 0.0
H110 H 0.50994 0.8779 0.49051 0.0
H111 H 0.4349 0.9067 0.4589 0.0
H112 H 0.66612 0.69887 0.55463 0.0
H113 H 0.49744 0.72339 0.55065 0.0
H114 H 0.41418 0.79553 0.41428 0.0
H115 H 0.65537 0.64715 0.59469 0.0
H116 H 0.48712 0.66845 0.58604 0.0
C117 C 0.32274 0.19321 0.50687 0.0
C118 C 0.33203 0.15265 0.50655 0.0
C119 C 0.36454 0.2162 0.50697 0.0
C120 C 0.41631 0.19902 0.50657 0.0
C121 C 0.42552 0.15863 0.50894 0.0
C122 C 0.3838 0.13567 0.50897 0.0
C123 C 0.46036 0.22256 0.49965 0.0
C124 C 0.46626 0.25645 0.51824 0.0
C125 C 0.50857 0.27855 0.51132 0.0
C126 C 0.54387 0.26627 0.48468 0.0
C127 C 0.53972 0.23148 0.46712 0.0
C128 C 0.49716 0.21041 0.47421 0.0
C129 C 0.5833 0.21474 0.44476 0.0
C130 C 0.61033 0.23822 0.42296 0.0
C131 C 0.60162 0.17548 0.44793 0.0
C132 C 0.64763 0.16062 0.4314 0.0
C133 C 0.67651 0.18471 0.41145 0.0
C134 C 0.51943 0.31151 0.53415 0.0
C135 C 0.47904 0.33287 0.55279 0.0
C136 C 0.57137 0.31996 0.53966 0.0
C137 C 0.58275 0.34702 0.56408 0.0
C138 C 0.54303 0.36534 0.58504 0.0
C139 C 0.49074 0.35911 0.57822 0.0
C140 C 0.65655 0.22335 0.40649 0.0
H141 H 0.28335 0.20724 0.50468 0.0
H142 H 0.35643 0.24725 0.50506 0.0
H143 H 0.46517 0.14472 0.50932 0.0
H144 H 0.39217 0.10456 0.5094 0.0
H145 H 0.43915 0.26426 0.53906 0.0
H146 H 0.49288 0.18415 0.45996 0.0
H147 H 0.57641 0.28269 0.47857 0.0
H148 H 0.59672 0.26839 0.41953 0.0
H149 H 0.58222 0.15666 0.46489 0.0
H150 H 0.66232 0.13087 0.43606 0.0
H151 H 0.43838 0.32844 0.54873 0.0
H152 H 0.60425 0.30431 0.52667 0.0
H153 H 0.67769 0.24242 0.39082 0.0
H154 H 0.45896 0.37276 0.59372 0.0
H155 H 0.62338 0.35193 0.56779 0.0
Zn156 Zn 0.0581 0.08068 0.35586 0.0
Zn157 Zn 0.04793 0.94748 0.34753 0.0
Zn158 Zn 0.05059 0.01438 0.35092 0.0
C159 C 0.02739 0.96985 0.28343 0.0
C160 C 0.97524 0.97127 0.39661 0.0
O161 O 0.11646 0.02581 0.38544 0.0
O162 O 0.0882 0.08476 0.40181 0.0
C163 C 0.09542 0.06228 0.29204 0.0
O164 O 0.05113 0.99743 0.29618 0.0
O165 O 0.01129 0.9447 0.30307 0.0
O166 O 0.0078 0.94251 0.39055 0.0
O167 O 0.97811 1.00255 0.3793 0.0
O168 O 0.10561 0.08512 0.31563 0.0
O169 O 0.06729 0.03447 0.29879 0.0
O170 O 0.97216 0.04067 0.36742 0.0
O171 O 0.9839 0.09985 0.35091 0.0
C172 C 0.95358 0.07568 0.36105 0.0
O173 O 0.11899 0.98594 0.3778 0.0
O174 O 0.12427 0.93065 0.34978 0.0
C175 C 0.12001 0.05514 0.4052 0.0
C176 C 0.14408 0.95309 0.37031 0.0
Zn177 Zn 0.54792 0.58121 0.84399 0.0
Zn178 Zn 0.56727 0.43325 0.83378 0.0
Zn179 Zn 0.55852 0.50759 0.83875 0.0
C180 C 0.55259 0.459 0.76794 0.0
C181 C 0.48768 0.44959 0.87987 0.0
O182 O 0.63047 0.52709 0.86193 0.0
O183 O 0.62033 0.59043 0.85507 0.0
C184 C 0.52881 0.56616 0.77643 0.0
O185 O 0.55186 0.49174 0.78354 0.0
O186 O 0.55771 0.42788 0.78457 0.0
O187 O 0.51272 0.42049 0.86625 0.0
O188 O 0.49797 0.48398 0.87173 0.0
O189 O 0.52252 0.59359 0.79765 0.0
O190 O 0.54487 0.53183 0.78655 0.0
O191 O 0.4902 0.52459 0.87254 0.0
O192 O 0.49649 0.58674 0.88186 0.0
C193 C 0.47429 0.55661 0.88767 0.0
O194 O 0.63657 0.48659 0.85898 0.0
O195 O 0.63851 0.42351 0.85099 0.0
C196 C 0.64773 0.56055 0.86494 0.0
C197 C 0.66014 0.45231 0.86143 0.0
H198 H 0.16871 0.1504 0.16551 0.0
H199 H 0.01767 0.12461 0.12934 0.0
H200 H 0.00983 0.07978 0.17686 0.0
H201 H 0.0389 0.05769 0.23412 0.0
H202 H 0.18662 0.08851 0.27199 0.0
H203 H 0.20369 0.1205 0.21808 0.0
C204 C 0.13487 0.13404 0.16743 0.0
C205 C 0.09354 0.14115 0.14431 0.0
C206 C 0.12989 0.1094 0.19539 0.0
C207 C 0.04964 0.12 0.14723 0.0
C208 C 0.04512 0.09442 0.17439 0.0
C209 C 0.07553 0.0703 0.23 0.0
C210 C 0.1113 0.07115 0.25688 0.0
C211 C 0.08393 0.09027 0.19949 0.0
C212 C 0.15844 0.08784 0.25157 0.0
C213 C 0.16806 0.10632 0.22087 0.0
H214 H 0.07626 0.89868 0.14011 0.0
H215 H 0.91841 0.86807 0.15339 0.0
H216 H 0.90615 0.91071 0.20317 0.0
H217 H 0.94644 0.94609 0.24869 0.0
H218 H 0.10394 0.97738 0.23582 0.0
H219 H 0.11002 0.94608 0.17951 0.0
C220 C 0.03878 0.90233 0.15342 0.0
C221 C -0.00152 0.88002 0.14362 0.0
C222 C 0.03221 0.92671 0.18213 0.0
C223 C 0.94987 0.88502 0.16063 0.0
C224 C 0.94301 0.90915 0.18919 0.0
C225 C 0.9814 0.94711 0.23297 0.0
C226 C 0.02498 0.9633 0.24634 0.0
C227 C 0.98474 0.92863 0.20105 0.0
C228 C 0.06997 0.96498 0.22589 0.0
C229 C 0.07362 0.94671 0.19392 0.0
H230 H 0.49247 0.65784 0.6425 0.0
H231 H 0.63236 0.58686 0.61114 0.0
H232 H 0.62756 0.54862 0.6633 0.0
H233 H 0.58982 0.54151 0.72154 0.0
H234 H 0.44981 0.61322 0.75064 0.0
H235 H 0.44699 0.64364 0.69456 0.0
C236 C 0.52109 0.63322 0.64605 0.0
C237 C 0.56316 0.62587 0.62278 0.0
C238 C 0.51795 0.61128 0.67582 0.0
C239 C 0.60024 0.59409 0.62889 0.0
C240 C 0.59735 0.57195 0.65866 0.0
C241 C 0.55786 0.56287 0.71505 0.0
C242 C 0.52028 0.57545 0.7401 0.0
C243 C 0.55732 0.58115 0.6829 0.0
C244 C 0.47927 0.60336 0.73169 0.0
C245 C 0.47784 0.62092 0.69975 0.0
H246 H 0.49152 0.43016 0.61577 0.0
H247 H 0.62591 0.34597 0.62643 0.0
H248 H 0.64549 0.37327 0.68106 0.0
H249 H 0.61858 0.41421 0.72937 0.0
H250 H 0.48159 0.49558 0.72337 0.0
H251 H 0.4692 0.47673 0.66345 0.0
C252 C 0.52528 0.41802 0.62994 0.0
C253 C 0.55714 0.38599 0.61659 0.0
C254 C 0.53576 0.43322 0.66235 0.0
C255 C 0.60113 0.37102 0.63531 0.0
C256 C 0.61223 0.38635 0.66693 0.0
C257 C 0.58663 0.42839 0.71463 0.0
C258 C 0.55091 0.45596 0.73046 0.0
C259 C 0.57904 0.41655 0.68106 0.0
C260 C 0.50976 0.47442 0.7114 0.0
C261 C 0.50242 0.46329 0.67735 0.0
H262 H 0.36696 0.38996 0.00625 0.0
H263 H 0.23479 0.44362 0.95097 0.0
H264 H 0.29359 0.46796 0.90836 0.0
H265 H 0.38237 0.46672 0.88309 0.0
H266 H 0.51443 0.41506 0.93923 0.0
H267 H 0.45614 0.39613 0.98482 0.0
C268 C 0.35125 0.40748 0.98513 0.0
C269 C 0.29683 0.41482 0.98158 0.0
C270 C 0.38522 0.42118 0.96065 0.0
C271 C 0.27669 0.43783 0.95432 0.0
C272 C 0.31022 0.45147 0.92979 0.0
C273 C 0.39823 0.4529 0.90603 0.0
C274 C 0.45225 0.44307 0.90844 0.0
C275 C 0.36449 0.44248 0.93222 0.0
C276 C 0.47268 0.42312 0.93725 0.0
C277 C 0.43948 0.41232 0.96322 0.0
H278 H 0.822 0.58564 0.97191 0.0
H279 H 0.84978 0.67635 0.90064 0.0
H280 H 0.78489 0.65421 0.86207 0.0
H281 H 0.71595 0.61225 0.8504 0.0
H282 H 0.68636 0.52214 0.92142 0.0
H283 H 0.7579 0.53973 0.95761 0.0
C284 C 0.81447 0.6002 0.94771 0.0
C285 C 0.8401 0.63308 0.93953 0.0
C286 C 0.77722 0.58715 0.92544 0.0
C287 C 0.8296 0.65167 0.90808 0.0
C288 C 0.79285 0.63882 0.88582 0.0
C289 C 0.7259 0.59605 0.87351 0.0
C290 C 0.69656 0.56573 0.88312 0.0
C291 C 0.76579 0.60708 0.89453 0.0
C292 C 0.70926 0.5451 0.91321 0.0
C293 C 0.74966 0.55549 0.93408 0.0
H294 H 0.88319 0.42925 0.92938 0.0
H295 H 0.81085 0.33494 0.97594 0.0
H296 H 0.72927 0.35443 0.94663 0.0
H297 H 0.67947 0.39657 0.90696 0.0
H298 H 0.74961 0.49022 0.85827 0.0
H299 H 0.83117 0.47339 0.88989 0.0
C300 C 0.84932 0.41329 0.93326 0.0
C301 C 0.85303 0.38049 0.95448 0.0
C302 C 0.80243 0.4246 0.91615 0.0
C303 C 0.80911 0.35986 0.95926 0.0
C304 C 0.76245 0.37107 0.94267 0.0
C305 C 0.7127 0.41331 0.90326 0.0
C306 C 0.70889 0.44465 0.88066 0.0
C307 C 0.75894 0.40304 0.92086 0.0
C308 C 0.75177 0.4663 0.87605 0.0
C309 C 0.79829 0.45648 0.8939 0.0
H310 H 0.25472 0.58129 0.95984 0.0
H311 H 0.34352 0.64427 0.03013 0.0
H312 H 0.42471 0.62153 -9e-05 0.0
H313 H 0.46855 0.59007 0.94967 0.0
H314 H 0.37856 0.53272 0.87638 0.0
H315 H 0.29964 0.5458 0.91198 0.0
C316 C 0.29204 0.58919 0.96901 0.0
C317 C 0.29337 0.61444 -0.00297 0.0
C318 C 0.33816 0.57693 0.95095 0.0
C319 C 0.34174 0.62505 0.00842 0.0
C320 C 0.38802 0.61211 0.99117 0.0
C321 C 0.43174 0.5798 0.94201 0.0
C322 C 0.42919 0.5594 0.91119 0.0
C323 C 0.38644 0.58904 0.96181 0.0
C324 C 0.3815 0.54686 0.90087 0.0
C325 C 0.33637 0.55498 0.9209 0.0
H326 H 0.76742 0.93601 0.46962 0.0
H327 H 0.87626 0.85628 0.52398 0.0
H328 H 0.9497 0.88456 0.49689 0.0
H329 H 0.98209 0.92558 0.45214 0.0
H330 H 0.87392 1.00444 0.39735 0.0
H331 H 0.80094 0.98406 0.43122 0.0
C332 C 0.80714 0.92551 0.4764 0.0
C333 C 0.81623 0.89354 0.49839 0.0
C334 C 0.84922 0.94174 0.46055 0.0
C335 C 0.86811 0.88023 0.50656 0.0
C336 C 0.91013 0.89646 0.49116 0.0
C337 C 0.9426 0.93886 0.44806 0.0
C338 C 0.93313 0.96625 0.42185 0.0
C339 C 0.90103 0.9262 0.46717 0.0
C340 C 0.88211 0.98358 0.41727 0.0
C341 C 0.84037 0.97152 0.43648 0.0
H342 H 0.33446 0.09183 0.46283 0.0
H343 H 0.23191 0.16021 0.53253 0.0
H344 H 0.15679 0.12984 0.51078 0.0
H345 H 0.1193 0.09192 0.46584 0.0
H346 H 0.22143 0.02702 0.39385 0.0
H347 H 0.29808 0.04654 0.42361 0.0
C348 C 0.29598 0.09922 0.4741 0.0
C349 C 0.28868 0.12865 0.49897 0.0
C350 C 0.25293 0.0822 0.461 0.0
C351 C 0.23839 0.13816 0.51295 0.0
C352 C 0.19547 0.12077 0.50056 0.0
C353 C 0.15844 0.08122 0.45733 0.0
C354 C 0.16492 0.05787 0.42794 0.0
C355 C 0.20207 0.09399 0.47363 0.0
C356 C 0.21559 0.04431 0.41688 0.0
C357 C 0.25936 0.05598 0.43358 0.0
H358 H 0.34137 0.90455 0.46042 0.0
H359 H 0.38819 0.84056 0.36865 0.0
H360 H 0.30793 0.86675 0.34053 0.0
H361 H 0.22366 0.90662 0.34247 0.0
H362 H 0.17646 0.97018 0.4342 0.0
H363 H 0.25859 0.9463 0.46164 0.0
C364 C 0.33444 0.89677 0.43409 0.0
C365 C 0.37068 0.87054 0.41669 0.0
C366 C 0.28839 0.91206 0.41804 0.0
C367 C 0.36059 0.86025 0.38278 0.0
C368 C 0.31487 0.87537 0.36662 0.0
C369 C 0.23158 0.91535 0.36842 0.0
C370 C 0.19467 0.94056 0.38619 0.0
C371 C 0.27835 0.90103 0.3841 0.0
C372 C 0.20502 0.95153 0.4198 0.0
C373 C 0.25167 0.9376 0.43557 0.0
H374 H 0.70969 0.11555 0.38125 0.0
H375 H 0.76389 0.22239 0.41638 0.0
H376 H 0.85404 0.1977 0.40367 0.0
H377 H 0.91778 0.14491 0.38588 0.0
H378 H 0.86596 0.03902 0.34761 0.0
H379 H 0.77436 0.0636 0.35924 0.0
C380 C 0.7413 0.13342 0.3859 0.0
C381 C 0.7301 0.17077 0.39967 0.0
C382 C 0.79333 0.1189 0.37878 0.0
C383 C 0.77132 0.1938 0.4053 0.0
C384 C 0.82296 0.17957 0.3984 0.0
C385 C 0.88637 0.1272 0.38007 0.0
C386 C 0.89831 0.08958 0.36742 0.0
C387 C 0.83438 0.14204 0.38566 0.0
C388 C 0.85749 0.06726 0.35917 0.0
C389 C 0.80528 0.08159 0.36526 0.0
loop_
_geom_bond_atom_site_label_1
_geom_bond_atom_site_label_2
_geom_bond_distance
_geom_bond_site_symmetry_2
_ccdc_geom_bond_type
C0 C1 1.386 . S
C0 C2 1.397 . S
C0 H24 0.931 . S
C1 C0 1.386 . S
C1 C5 1.397 . S
C2 C0 1.397 . S
C2 C3 1.384 . S
C2 H25 0.930 . S
C3 C2 1.384 . S
C3 C4 1.377 . S
C3 C6 1.481 1_556 S
C4 C3 1.377 . S
C4 C5 1.389 . S
C4 H26 0.929 . S
C5 C1 1.397 . S
C5 C4 1.389 . S
C5 H27 0.931 . S
C6 C3 1.481 1_554 S
C6 C7 1.387 . S
C6 C11 1.390 1_554 S
C7 C6 1.387 . S
C7 C8 1.401 . S
C7 H28 0.930 . S
C8 C7 1.401 . S
C8 C9 1.376 . S
C8 C17 1.511 . S
C9 C8 1.376 . S
C9 C10 1.392 . S
C9 H30 0.931 . S
C10 C9 1.392 . S
C10 C11 1.361 1_554 S
C10 C12 1.500 1_554 S
C11 C6 1.390 1_556 S
C11 C10 1.361 1_556 S
C11 H29 0.931 . S
C12 C10 1.500 1_556 S
C12 C13 1.371 1_455 S
C12 C14 1.365 . S
C13 C12 1.371 1_655 S
C13 C23 1.386 . S
C13 H31 0.931 . S
C14 C12 1.365 . S
C14 C15 1.409 1_455 S
C14 H32 0.929 . S
C15 C14 1.409 1_655 S
C15 C16 1.380 . S
C15 H33 0.930 . S
C16 C15 1.380 . S
C16 C23 1.357 . S
C17 C8 1.511 . S
C17 C18 1.341 . S
C17 C19 1.371 . S
C18 C17 1.341 . S
C18 C22 1.394 . S
C18 H34 0.930 . S
C19 C17 1.371 . S
C19 C20 1.392 . S
C19 H35 0.931 . S
C20 C19 1.392 . S
C20 C21 1.331 . S
C20 H38 0.932 . S
C21 C20 1.331 . S
C21 C22 1.336 . S
C22 C18 1.394 . S
C22 C21 1.336 . S
C22 H37 0.929 . S
C23 C13 1.386 . S
C23 C16 1.357 . S
C23 H36 0.928 . S
H24 C0 0.931 . S
H25 C2 0.930 . S
H26 C4 0.929 . S
H27 C5 0.931 . S
H28 C7 0.930 . S
H29 C11 0.931 . S
H30 C9 0.931 . S
H31 C13 0.931 . S
H32 C14 0.929 . S
H33 C15 0.930 . S
H34 C18 0.930 . S
H35 C19 0.931 . S
H36 C23 0.928 . S
H37 C22 0.929 . S
H38 C20 0.932 . S
C39 C40 1.386 . S
C39 C41 1.397 . S
C39 H63 0.931 . S
C40 C39 1.386 . S
C40 C44 1.397 . S
C41 C39 1.397 . S
C41 C42 1.384 . S
C41 H64 0.930 . S
C42 C41 1.384 . S
C42 C43 1.377 . S
C42 C45 1.481 1_556 S
C43 C42 1.377 . S
C43 C44 1.389 . S
C43 H65 0.929 . S
C44 C40 1.397 . S
C44 C43 1.389 . S
C44 H66 0.931 . S
C45 C42 1.481 1_554 S
C45 C46 1.387 . S
C45 C50 1.390 1_654 S
C46 C45 1.387 . S
C46 C47 1.401 1_655 S
C46 H67 0.930 . S
C47 C46 1.401 1_455 S
C47 C48 1.376 . S
C47 C56 1.511 . S
C48 C47 1.376 . S
C48 C49 1.392 . S
C48 H69 0.931 . S
C49 C48 1.392 . S
C49 C50 1.361 1_554 S
C49 C51 1.500 1_554 S
C50 C45 1.390 1_456 S
C50 C49 1.361 1_556 S
C50 H68 0.931 . S
C51 C49 1.500 1_556 S
C51 C52 1.371 . S
C51 C53 1.365 . S
C52 C51 1.371 . S
C52 C62 1.386 . S
C52 H70 0.931 . S
C53 C51 1.365 . S
C53 C54 1.409 . S
C53 H71 0.929 . S
C54 C53 1.409 . S
C54 C55 1.380 . S
C54 H72 0.930 . S
C55 C54 1.380 . S
C55 C62 1.357 . S
C56 C47 1.511 . S
C56 C57 1.341 1_455 S
C56 C58 1.371 . S
C57 C56 1.341 1_655 S
C57 C61 1.394 . S
C57 H73 0.930 . S
C58 C56 1.371 . S
C58 C59 1.392 . S
C58 H74 0.931 . S
C59 C58 1.392 . S
C59 C60 1.313 1_455 S
C59 H77 0.932 . S
C60 C59 1.313 1_655 S
C60 C61 1.355 . S
C61 C57 1.394 . S
C61 C60 1.355 . S
C61 H76 0.929 . S
C62 C52 1.386 . S
C62 C55 1.357 . S
C62 H75 0.928 . S
H63 C39 0.931 . S
H64 C41 0.930 . S
H65 C43 0.929 . S
H66 C44 0.931 . S
H67 C46 0.930 . S
H68 C50 0.931 . S
H69 C48 0.931 . S
H70 C52 0.931 . S
H71 C53 0.929 . S
H72 C54 0.930 . S
H73 C57 0.930 . S
H74 C58 0.931 . S
H75 C62 0.928 . S
H76 C61 0.929 . S
H77 C59 0.932 . S
C78 C79 1.386 . S
C78 C80 1.397 . S
C78 H102 0.931 . S
C79 C78 1.386 . S
C79 C83 1.397 . S
C80 C78 1.397 . S
C80 C81 1.384 . S
C80 H103 0.930 . S
C81 C80 1.384 . S
C81 C82 1.377 . S
C81 C84 1.481 . S
C82 C81 1.377 . S
C82 C83 1.389 . S
C82 H104 0.929 . S
C83 C79 1.397 . S
C83 C82 1.389 . S
C83 H105 0.931 . S
C84 C81 1.481 . S
C84 C85 1.387 . S
C84 C89 1.390 . S
C85 C84 1.387 . S
C85 C86 1.401 . S
C85 H106 0.930 . S
C86 C85 1.401 . S
C86 C87 1.376 . S
C86 C95 1.511 . S
C87 C86 1.376 . S
C87 C88 1.392 . S
C87 H108 0.931 . S
C88 C87 1.392 . S
C88 C89 1.361 . S
C88 C90 1.500 . S
C89 C84 1.390 . S
C89 C88 1.361 . S
C89 H107 0.931 . S
C90 C88 1.500 . S
C90 C91 1.371 . S
C90 C92 1.365 . S
C91 C90 1.371 . S
C91 C101 1.386 . S
C91 H109 0.931 . S
C92 C90 1.365 . S
C92 C93 1.409 . S
C92 H110 0.929 . S
C93 C92 1.409 . S
C93 C94 1.380 . S
C93 H111 0.930 . S
C94 C93 1.380 . S
C94 C101 1.357 . S
C95 C86 1.511 . S
C95 C96 1.341 . S
C95 C97 1.371 . S
C96 C95 1.341 . S
C96 C100 1.394 . S
C96 H112 0.930 . S
C97 C95 1.371 . S
C97 C98 1.392 . S
C97 H113 0.931 . S
C98 C97 1.392 . S
C98 C99 1.331 . S
C98 H116 0.932 . S
C99 C98 1.331 . S
C99 C100 1.336 . S
C100 C96 1.394 . S
C100 C99 1.336 . S
C100 H115 0.929 . S
C101 C91 1.386 . S
C101 C94 1.357 . S
C101 H114 0.928 . S
H102 C78 0.931 . S
H103 C80 0.930 . S
H104 C82 0.929 . S
H105 C83 0.931 . S
H106 C85 0.930 . S
H107 C89 0.931 . S
H108 C87 0.931 . S
H109 C91 0.931 . S
H110 C92 0.929 . S
H111 C93 0.930 . S
H112 C96 0.930 . S
H113 C97 0.931 . S
H114 C101 0.928 . S
H115 C100 0.929 . S
H116 C98 0.932 . S
C117 C118 1.386 . S
C117 C119 1.397 . S
C117 H141 0.931 . S
C118 C117 1.386 . S
C118 C122 1.397 . S
C119 C117 1.397 . S
C119 C120 1.384 . S
C119 H142 0.930 . S
C120 C119 1.384 . S
C120 C121 1.377 . S
C120 C123 1.481 . S
C121 C120 1.377 . S
C121 C122 1.389 . S
C121 H143 0.929 . S
C122 C118 1.397 . S
C122 C121 1.389 . S
C122 H144 0.931 . S
C123 C120 1.481 . S
C123 C124 1.387 . S
C123 C128 1.390 . S
C124 C123 1.387 . S
C124 C125 1.401 . S
C124 H145 0.930 . S
C125 C124 1.401 . S
C125 C126 1.376 . S
C125 C134 1.511 . S
C126 C125 1.376 . S
C126 C127 1.392 . S
C126 H147 0.931 . S
C127 C126 1.392 . S
C127 C128 1.361 . S
C127 C129 1.500 . S
C128 C123 1.390 . S
C128 C127 1.361 . S
C128 H146 0.931 . S
C129 C127 1.500 . S
C129 C130 1.371 . S
C129 C131 1.365 . S
C130 C129 1.371 . S
C130 C140 1.386 . S
C130 H148 0.931 . S
C131 C129 1.365 . S
C131 C132 1.409 . S
C131 H149 0.929 . S
C132 C131 1.409 . S
C132 C133 1.380 . S
C132 H150 0.930 . S
C133 C132 1.380 . S
C133 C140 1.357 . S
C134 C125 1.511 . S
C134 C135 1.341 . S
C134 C136 1.371 . S
C135 C134 1.341 . S
C135 C139 1.394 . S
C135 H151 0.930 . S
C136 C134 1.371 . S
C136 C137 1.392 . S
C136 H152 0.931 . S
C137 C136 1.392 . S
C137 C138 1.331 . S
C137 H155 0.932 . S
C138 C137 1.331 . S
C138 C139 1.336 . S
C139 C135 1.394 . S
C139 C138 1.336 . S
C139 H154 0.929 . S
C140 C130 1.386 . S
C140 C133 1.357 . S
C140 H153 0.928 . S
H141 C117 0.931 . S
H142 C119 0.930 . S
H143 C121 0.929 . S
H144 C122 0.931 . S
H145 C124 0.930 . S
H146 C128 0.931 . S
H147 C126 0.931 . S
H148 C130 0.931 . S
H149 C131 0.929 . S
H150 C132 0.930 . S
H151 C135 0.930 . S
H152 C136 0.931 . S
H153 C140 0.928 . S
H154 C139 0.929 . S
H155 C137 0.932 . S
Zn156 O162 1.920 . S
Zn156 O168 1.898 . S
Zn156 O171 1.905 1_455 S
Zn157 O165 1.905 . S
Zn157 O166 1.898 . S
Zn157 O174 1.920 . S
Zn158 O161 2.080 . S
Zn158 O164 2.114 1_545 S
Zn158 O167 2.120 1_545 S
Zn158 O169 2.120 . S
Zn158 O170 2.114 1_455 S
Zn158 O173 2.080 1_545 S
C159 O164 1.166 . S
C159 O165 1.182 . S
C160 O166 1.167 . S
C160 O167 1.299 . S
O161 Zn158 2.080 . S
O161 C175 1.305 . S
O162 Zn156 1.920 . S
O162 C175 1.234 . S
C163 O168 1.167 . S
C163 O169 1.299 . S
O164 Zn158 2.114 1_565 S
O164 C159 1.166 . S
O165 Zn157 1.905 . S
O165 C159 1.182 . S
O166 Zn157 1.898 . S
O166 C160 1.167 . S
O167 Zn158 2.120 1_565 S
O167 C160 1.299 . S
O168 Zn156 1.898 . S
O168 C163 1.167 . S
O169 Zn158 2.120 . S
O169 C163 1.299 . S
O170 Zn158 2.114 1_655 S
O170 C172 1.166 . S
O171 Zn156 1.905 1_655 S
O171 C172 1.182 . S
C172 O170 1.166 . S
C172 O171 1.182 . S
O173 Zn158 2.080 1_565 S
O173 C176 1.305 . S
O174 Zn157 1.920 . S
O174 C176 1.234 . S
C175 O161 1.305 . S
C175 O162 1.234 . S
C176 O173 1.305 . S
C176 O174 1.234 . S
Zn177 O183 1.920 . S
Zn177 O189 1.898 . S
Zn177 O192 1.905 . S
Zn178 O186 1.905 . S
Zn178 O187 1.898 . S
Zn178 O195 1.920 . S
Zn179 O182 2.080 . S
Zn179 O185 2.114 . S
Zn179 O188 2.120 . S
Zn179 O190 2.120 . S
Zn179 O191 2.114 . S
Zn179 O194 2.080 . S
C180 O185 1.166 . S
C180 O186 1.182 . S
C181 O187 1.167 . S
C181 O188 1.299 . S
O182 Zn179 2.080 . S
O182 C196 1.305 . S
O183 Zn177 1.920 . S
O183 C196 1.234 . S
C184 O189 1.167 . S
C184 O190 1.299 . S
O185 Zn179 2.114 . S
O185 C180 1.166 . S
O186 Zn178 1.905 . S
O186 C180 1.182 . S
O187 Zn178 1.898 . S
O187 C181 1.167 . S
O188 Zn179 2.120 . S
O188 C181 1.299 . S
O189 Zn177 1.898 . S
O189 C184 1.167 . S
O190 Zn179 2.120 . S
O190 C184 1.299 . S
O191 Zn179 2.114 . S
O191 C193 1.166 . S
O192 Zn177 1.905 . S
O192 C193 1.182 . S
C193 O191 1.166 . S
C193 O192 1.182 . S
O194 Zn179 2.080 . S
O194 C197 1.305 . S
O195 Zn178 1.920 . S
O195 C197 1.234 . S
C196 O182 1.305 . S
C196 O183 1.234 . S
C197 O194 1.305 . S
C197 O195 1.234 . S
H198 C204 0.930 . S
H199 C207 0.930 . S
H200 C208 0.930 . S
H201 C209 0.930 . S
H202 C212 0.930 . S
H203 C213 0.930 . S
C204 H198 0.930 . S
C204 C205 1.355 . S
C204 C206 1.415 . S
C205 C204 1.355 . S
C205 C207 1.419 . S
C206 C204 1.415 . S
C206 C211 1.425 . S
C206 C213 1.409 . S
C207 H199 0.930 . S
C207 C205 1.419 . S
C207 C208 1.362 . S
C208 H200 0.930 . S
C208 C207 1.362 . S
C208 C211 1.409 . S
C209 H201 0.930 . S
C209 C210 1.355 . S
C209 C211 1.415 . S
C210 C209 1.355 . S
C210 C212 1.419 . S
C211 C206 1.425 . S
C211 C208 1.409 . S
C211 C209 1.415 . S
C212 H202 0.930 . S
C212 C210 1.419 . S
C212 C213 1.362 . S
C213 H203 0.930 . S
C213 C206 1.409 . S
C213 C212 1.362 . S
H214 C220 0.929 1_655 S
H215 C223 0.930 . S
H216 C224 0.930 . S
H217 C225 0.930 . S
H218 C228 0.930 . S
H219 C229 0.930 . S
C220 H214 0.929 1_455 S
C220 C221 1.355 . S
C220 C222 1.415 . S
C221 C220 1.355 . S
C221 C223 1.419 . S
C222 C220 1.415 . S
C222 C227 1.425 . S
C222 C229 1.409 . S
C223 H215 0.930 . S
C223 C221 1.419 . S
C223 C224 1.362 . S
C224 H216 0.930 . S
C224 C223 1.362 . S
C224 C227 1.409 . S
C225 H217 0.930 . S
C225 C226 1.355 . S
C225 C227 1.415 . S
C226 C225 1.355 . S
C226 C228 1.419 . S
C227 C222 1.425 . S
C227 C224 1.409 . S
C227 C225 1.415 . S
C228 H218 0.930 . S
C228 C226 1.419 . S
C228 C229 1.362 . S
C229 H219 0.930 . S
C229 C222 1.409 . S
C229 C228 1.362 . S
H230 C236 0.930 . S
H231 C239 0.930 . S
H232 C240 0.930 . S
H233 C241 0.930 . S
H234 C244 0.930 . S
H235 C245 0.930 . S
C236 H230 0.930 . S
C236 C237 1.355 . S
C236 C238 1.415 . S
C237 C236 1.355 . S
C237 C239 1.419 . S
C238 C236 1.415 . S
C238 C243 1.425 . S
C238 C245 1.409 . S
C239 H231 0.930 . S
C239 C237 1.419 . S
C239 C240 1.362 . S
C240 H232 0.930 . S
C240 C239 1.362 . S
C240 C243 1.409 . S
C241 H233 0.930 . S
C241 C242 1.355 . S
C241 C243 1.415 . S
C242 C241 1.355 . S
C242 C244 1.419 . S
C243 C238 1.425 . S
C243 C240 1.409 . S
C243 C241 1.415 . S
C244 H234 0.930 . S
C244 C242 1.419 . S
C244 C245 1.362 . S
C245 H235 0.930 . S
C245 C238 1.409 . S
C245 C244 1.362 . S
H246 C252 0.930 . S
H247 C255 0.930 . S
H248 C256 0.930 . S
H249 C257 0.930 . S
H250 C260 0.930 . S
H251 C261 0.930 . S
C252 H246 0.930 . S
C252 C253 1.355 . S
C252 C254 1.415 . S
C253 C252 1.355 . S
C253 C255 1.419 . S
C254 C252 1.415 . S
C254 C259 1.425 . S
C254 C261 1.409 . S
C255 H247 0.930 . S
C255 C253 1.419 . S
C255 C256 1.362 . S
C256 H248 0.930 . S
C256 C255 1.362 . S
C256 C259 1.409 . S
C257 H249 0.930 . S
C257 C258 1.355 . S
C257 C259 1.415 . S
C258 C257 1.355 . S
C258 C260 1.419 . S
C259 C254 1.425 . S
C259 C256 1.409 . S
C259 C257 1.415 . S
C260 H250 0.930 . S
C260 C258 1.419 . S
C260 C261 1.362 . S
C261 H251 0.930 . S
C261 C254 1.409 . S
C261 C260 1.362 . S
H262 C268 0.930 . S
H263 C271 0.930 . S
H264 C272 0.930 . S
H265 C273 0.930 . S
H266 C276 0.930 . S
H267 C277 0.930 . S
C268 H262 0.930 . S
C268 C269 1.355 . S
C268 C270 1.415 . S
C269 C268 1.355 . S
C269 C271 1.419 . S
C270 C268 1.415 . S
C270 C275 1.425 . S
C270 C277 1.409 . S
C271 H263 0.930 . S
C271 C269 1.419 . S
C271 C272 1.362 . S
C272 H264 0.930 . S
C272 C271 1.362 . S
C272 C275 1.409 . S
C273 H265 0.930 . S
C273 C274 1.355 . S
C273 C275 1.415 . S
C274 C273 1.355 . S
C274 C276 1.419 . S
C275 C270 1.425 . S
C275 C272 1.409 . S
C275 C273 1.415 . S
C276 H266 0.930 . S
C276 C274 1.419 . S
C276 C277 1.362 . S
C277 H267 0.930 . S
C277 C270 1.409 . S
C277 C276 1.362 . S
H278 C284 0.930 . S
H279 C287 0.930 . S
H280 C288 0.930 . S
H281 C289 0.930 . S
H282 C292 0.930 . S
H283 C293 0.930 . S
C284 H278 0.930 . S
C284 C285 1.355 . S
C284 C286 1.415 . S
C285 C284 1.355 . S
C285 C287 1.419 . S
C286 C284 1.415 . S
C286 C291 1.425 . S
C286 C293 1.409 . S
C287 H279 0.930 . S
C287 C285 1.419 . S
C287 C288 1.362 . S
C288 H280 0.930 . S
C288 C287 1.362 . S
C288 C291 1.409 . S
C289 H281 0.930 . S
C289 C290 1.355 . S
C289 C291 1.415 . S
C290 C289 1.355 . S
C290 C292 1.419 . S
C291 C286 1.425 . S
C291 C288 1.409 . S
C291 C289 1.415 . S
C292 H282 0.930 . S
C292 C290 1.419 . S
C292 C293 1.362 . S
C293 H283 0.930 . S
C293 C286 1.409 . S
C293 C292 1.362 . S
H294 C300 0.930 . S
H295 C303 0.930 . S
H296 C304 0.930 . S
H297 C305 0.930 . S
H298 C308 0.930 . S
H299 C309 0.930 . S
C300 H294 0.930 . S
C300 C301 1.355 . S
C300 C302 1.415 . S
C301 C300 1.355 . S
C301 C303 1.419 . S
C302 C300 1.415 . S
C302 C307 1.425 . S
C302 C309 1.409 . S
C303 H295 0.930 . S
C303 C301 1.419 . S
C303 C304 1.362 . S
C304 H296 0.930 . S
C304 C303 1.362 . S
C304 C307 1.409 . S
C305 H297 0.930 . S
C305 C306 1.355 . S
C305 C307 1.415 . S
C306 C305 1.355 . S
C306 C308 1.419 . S
C307 C302 1.425 . S
C307 C304 1.409 . S
C307 C305 1.415 . S
C308 H298 0.930 . S
C308 C306 1.419 . S
C308 C309 1.362 . S
C309 H299 0.930 . S
C309 C302 1.409 . S
C309 C308 1.362 . S
H310 C316 0.930 . S
H311 C319 0.930 . S
H312 C320 0.930 . S
H313 C321 0.930 . S
H314 C324 0.930 . S
H315 C325 0.930 . S
C316 H310 0.930 . S
C316 C317 1.355 . S
C316 C318 1.415 . S
C317 C316 1.355 . S
C317 C319 1.419 . S
C318 C316 1.415 . S
C318 C323 1.425 . S
C318 C325 1.409 . S
C319 H311 0.930 . S
C319 C317 1.419 . S
C319 C320 1.362 . S
C320 H312 0.930 . S
C320 C319 1.362 . S
C320 C323 1.409 . S
C321 H313 0.930 . S
C321 C322 1.355 . S
C321 C323 1.415 . S
C322 C321 1.355 . S
C322 C324 1.419 . S
C323 C318 1.425 . S
C323 C320 1.409 . S
C323 C321 1.415 . S
C324 H314 0.930 . S
C324 C322 1.419 . S
C324 C325 1.362 . S
C325 H315 0.930 . S
C325 C318 1.409 . S
C325 C324 1.362 . S
H326 C332 0.930 . S
H327 C335 0.930 . S
H328 C336 0.930 . S
H329 C337 0.930 1_455 S
H330 C340 0.930 . S
H331 C341 0.930 . S
C332 H326 0.930 . S
C332 C333 1.355 . S
C332 C334 1.415 . S
C333 C332 1.355 . S
C333 C335 1.419 . S
C334 C332 1.415 . S
C334 C339 1.425 . S
C334 C341 1.409 . S
C335 H327 0.930 . S
C335 C333 1.419 . S
C335 C336 1.362 . S
C336 H328 0.930 . S
C336 C335 1.362 . S
C336 C339 1.409 . S
C337 H329 0.930 1_655 S
C337 C338 1.355 . S
C337 C339 1.415 . S
C338 C337 1.355 . S
C338 C340 1.419 . S
C339 C334 1.425 . S
C339 C336 1.409 . S
C339 C337 1.415 . S
C340 H330 0.930 . S
C340 C338 1.419 . S
C340 C341 1.362 . S
C341 H331 0.930 . S
C341 C334 1.409 . S
C341 C340 1.362 . S
H342 C348 0.930 . S
H343 C351 0.930 . S
H344 C352 0.930 . S
H345 C353 0.930 . S
H346 C356 0.930 . S
H347 C357 0.930 . S
C348 H342 0.930 . S
C348 C349 1.355 . S
C348 C350 1.415 . S
C349 C348 1.355 . S
C349 C351 1.419 . S
C350 C348 1.415 . S
C350 C355 1.425 . S
C350 C357 1.409 . S
C351 H343 0.930 . S
C351 C349 1.419 . S
C351 C352 1.362 . S
C352 H344 0.930 . S
C352 C351 1.362 . S
C352 C355 1.409 . S
C353 H345 0.930 . S
C353 C354 1.355 . S
C353 C355 1.415 . S
C354 C353 1.355 . S
C354 C356 1.419 . S
C355 C350 1.425 . S
C355 C352 1.409 . S
C355 C353 1.415 . S
C356 H346 0.930 . S
C356 C354 1.419 . S
C356 C357 1.362 . S
C357 H347 0.930 . S
C357 C350 1.409 . S
C357 C356 1.362 . S
H358 C364 0.930 . S
H359 C367 0.930 . S
H360 C368 0.930 . S
H361 C369 0.930 . S
H362 C372 0.930 . S
H363 C373 0.930 . S
C364 H358 0.930 . S
C364 C365 1.355 . S
C364 C366 1.415 . S
C365 C364 1.355 . S
C365 C367 1.419 . S
C366 C364 1.415 . S
C366 C371 1.425 . S
C366 C373 1.409 . S
C367 H359 0.930 . S
C367 C365 1.419 . S
C367 C368 1.362 . S
C368 H360 0.930 . S
C368 C367 1.362 . S
C368 C371 1.409 . S
C369 H361 0.930 . S
C369 C370 1.355 . S
C369 C371 1.415 . S
C370 C369 1.355 . S
C370 C372 1.419 . S
C371 C366 1.425 . S
C371 C368 1.409 . S
C371 C369 1.415 . S
C372 H362 0.930 . S
C372 C370 1.419 . S
C372 C373 1.362 . S
C373 H363 0.930 . S
C373 C366 1.409 . S
C373 C372 1.362 . S
H374 C380 0.930 . S
H375 C383 0.930 . S
H376 C384 0.930 . S
H377 C385 0.930 . S
H378 C388 0.930 . S
H379 C389 0.930 . S
C380 H374 0.930 . S
C380 C381 1.355 . S
C380 C382 1.415 . S
C381 C380 1.355 . S
C381 C383 1.419 . S
C382 C380 1.415 . S
C382 C387 1.425 . S
C382 C389 1.409 . S
C383 H375 0.930 . S
C383 C381 1.419 . S
C383 C384 1.362 . S
C384 H376 0.930 . S
C384 C383 1.362 . S
C384 C387 1.409 . S
C385 H377 0.930 . S
C385 C386 1.355 . S
C385 C387 1.415 . S
C386 C385 1.355 . S
C386 C388 1.419 . S
C387 C382 1.425 . S
C387 C384 1.409 . S
C387 C385 1.415 . S
C388 H378 0.930 . S
C388 C386 1.419 . S
C388 C389 1.362 . S
C389 H379 0.930 . S
C389 C382 1.409 . S
C389 C388 1.362 . S
C210 C163 1.418 . S
C205 C21 1.543 . S
C226 C159 1.505 . S
C221 C60 1.511 1_455 S
C242 C184 1.414 . S
C237 C99 1.554 . S
C253 C138 1.513 . S
C258 C180 1.501 . S
C269 C1 1.252 . S
C274 C181 1.058 . S
C290 C196 1.212 . S
C285 C40 1.331 . S
C301 C16 1.696 . S
C306 C197 1.581 . S
C322 C193 1.567 . S
C317 C55 1.694 . S
C338 C160 1.190 1_655 S
C333 C79 1.314 . S
C349 C118 1.332 . S
C354 C175 1.212 . S
C370 C176 1.575 . S
C365 C94 1.698 . S
C386 C172 1.544 . S
C381 C133 1.688 . S
