# Generated by pormake.
# Topology the, (3,8)-cn, num edge types: 1
# Building blocks:
#     Node 0, Type 0, BuildingBlock: ESEHIV_clean_linker_0, # of connection points: 3
#     Node 1, Type 0, BuildingBlock: ESEHIV_clean_linker_0, # of connection points: 3
#     Node 2, Type 0, BuildingBlock: ESEHIV_clean_linker_0, # of connection points: 3
#     Node 3, Type 0, BuildingBlock: ESEHIV_clean_linker_0, # of connection points: 3
#     Node 4, Type 0, BuildingBlock: ESEHIV_clean_linker_0, # of connection points: 3
#     Node 5, Type 0, BuildingBlock: ESEHIV_clean_linker_0, # of connection points: 3
#     Node 6, Type 0, BuildingBlock: ESEHIV_clean_linker_0, # of connection points: 3
#     Node 7, Type 0, BuildingBlock: ESEHIV_clean_linker_0, # of connection points: 3
#     Node 8, Type 1, BuildingBlock: GIZVER_clean_sbu_0, # of connection points: 8
#     Node 9, Type 1, BuildingBlock: GIZVER_clean_sbu_0, # of connection points: 8
#     Node 10, Type 1, BuildingBlock: GIZVER_clean_sbu_0, # of connection points: 8
#     Edge 11, Type (0, 1), BuildingBlock: KIFKEQ_clean_linker_1, # of connection points: 2
#     Edge 12, Type (0, 1), BuildingBlock: KIFKEQ_clean_linker_1, # of connection points: 2
#     Edge 13, Type (0, 1), BuildingBlock: KIFKEQ_clean_linker_1, # of connection points: 2
#     Edge 14, Type (0, 1), BuildingBlock: KIFKEQ_clean_linker_1, # of connection points: 2
#     Edge 15, Type (0, 1), BuildingBlock: KIFKEQ_clean_linker_1, # of connection points: 2
#     Edge 16, Type (0, 1), BuildingBlock: KIFKEQ_clean_linker_1, # of connection points: 2
#     Edge 17, Type (0, 1), BuildingBlock: KIFKEQ_clean_linker_1, # of connection points: 2
#     Edge 18, Type (0, 1), BuildingBlock: KIFKEQ_clean_linker_1, # of connection points: 2
#     Edge 19, Type (0, 1), BuildingBlock: KIFKEQ_clean_linker_1, # of connection points: 2
#     Edge 20, Type (0, 1), BuildingBlock: KIFKEQ_clean_linker_1, # of connection points: 2
#     Edge 21, Type (0, 1), BuildingBlock: KIFKEQ_clean_linker_1, # of connection points: 2
#     Edge 22, Type (0, 1), BuildingBlock: KIFKEQ_clean_linker_1, # of connection points: 2
#     Edge 23, Type (0, 1), BuildingBlock: KIFKEQ_clean_linker_1, # of connection points: 2
#     Edge 24, Type (0, 1), BuildingBlock: KIFKEQ_clean_linker_1, # of connection points: 2
#     Edge 25, Type (0, 1), BuildingBlock: KIFKEQ_clean_linker_1, # of connection points: 2
#     Edge 26, Type (0, 1), BuildingBlock: KIFKEQ_clean_linker_1, # of connection points: 2
#     Edge 27, Type (0, 1), BuildingBlock: KIFKEQ_clean_linker_1, # of connection points: 2
#     Edge 28, Type (0, 1), BuildingBlock: KIFKEQ_clean_linker_1, # of connection points: 2
#     Edge 29, Type (0, 1), BuildingBlock: KIFKEQ_clean_linker_1, # of connection points: 2
#     Edge 30, Type (0, 1), BuildingBlock: KIFKEQ_clean_linker_1, # of connection points: 2
#     Edge 31, Type (0, 1), BuildingBlock: KIFKEQ_clean_linker_1, # of connection points: 2
#     Edge 32, Type (0, 1), BuildingBlock: KIFKEQ_clean_linker_1, # of connection points: 2
#     Edge 33, Type (0, 1), BuildingBlock: KIFKEQ_clean_linker_1, # of connection points: 2
#     Edge 34, Type (0, 1), BuildingBlock: KIFKEQ_clean_linker_1, # of connection points: 2
# Relax obj value: 0.048
# Max RMSD: 0.137
# Mean RMSD: 0.071
data_MOF--net-the--node1-GIZVER_clean_sbu_0--node2-ESEHIV_clean_linker_0--edge1-KIFKEQ_clean_linker_1
_symmetry_space_group_name_H-M    P1
_symmetry_Int_Tables_number       1
_symmetry_cell_setting            triclinic
loop_
_symmetry_equiv_pos_as_xyz
'x, y, z'
_cell_length_a     39.784294
_cell_length_b     37.5487
_cell_length_c     34.525066
_cell_angle_alpha  86.460935
_cell_angle_beta   95.769464
_cell_angle_gamma 104.5003
loop_
_atom_site_label
_atom_site_type_symbol
_atom_site_fract_x
_atom_site_fract_y
_atom_site_fract_z
_atom_type_partial_charge
H0 H 0.29371 0.39108 0.37427 0.0
H1 H 0.37029 0.32853 0.37043 0.0
H2 H 0.29615 0.30114 0.45669 0.0
C3 C 0.30557 0.36914 0.38579 0.0
C4 C 0.29206 0.34699 0.41752 0.0
C5 C 0.33414 0.36307 0.3689 0.0
C6 C 0.3489 0.33429 0.38402 0.0
C7 C 0.33538 0.31195 0.41574 0.0
C8 C 0.30737 0.3189 0.43289 0.0
H9 H 0.73163 0.30163 0.37234 0.0
H10 H 0.72919 0.39348 0.29151 0.0
H11 H 0.64296 0.29787 0.28941 0.0
C12 C 0.71867 0.31435 0.34825 0.0
C13 C 0.68562 0.29527 0.33223 0.0
C14 C 0.73487 0.34983 0.33382 0.0
C15 C 0.71723 0.36619 0.30283 0.0
C16 C 0.68388 0.34769 0.28681 0.0
C17 C 0.66862 0.31222 0.30157 0.0
H18 H 0.6744 0.76081 0.2909 0.0
H19 H 0.74859 0.69484 0.29311 0.0
H20 H 0.75552 0.76947 0.38482 0.0
C21 C 0.69715 0.75277 0.30483 0.0
C22 C 0.71329 0.7686 0.34003 0.0
C23 C 0.70935 0.72585 0.28781 0.0
C24 C 0.73958 0.71638 0.30523 0.0
C25 C 0.75658 0.73224 0.34008 0.0
C26 C 0.7432 0.75824 0.35729 0.0
H27 H 0.28542 0.72581 0.37536 0.0
H28 H 0.37322 0.73397 0.30957 0.0
H29 H 0.28081 0.64818 0.28659 0.0
C30 C 0.2969 0.71584 0.35249 0.0
C31 C 0.27829 0.68403 0.33265 0.0
C32 C 0.33076 0.73481 0.34366 0.0
C33 C 0.34663 0.72074 0.31544 0.0
C34 C 0.32881 0.68913 0.29531 0.0
C35 C 0.2944 0.6719 0.30306 0.0
H36 H 0.30996 0.73476 0.68022 0.0
H37 H 0.30996 0.64566 0.76485 0.0
H38 H 0.39923 0.73834 0.76171 0.0
C39 C 0.32269 0.72248 0.70484 0.0
C40 C 0.35597 0.74131 0.72042 0.0
C41 C 0.30609 0.68758 0.7202 0.0
C42 C 0.32313 0.67196 0.7523 0.0
C43 C 0.35668 0.69027 0.76836 0.0
C44 C 0.37278 0.72469 0.75154 0.0
H45 H 0.30208 0.34234 0.7555 0.0
H46 H 0.37042 0.27083 0.75244 0.0
H47 H 0.28504 0.26545 0.66388 0.0
C48 C 0.30905 0.32018 0.74207 0.0
C49 C 0.29006 0.30559 0.70758 0.0
C50 C 0.33817 0.30799 0.7583 0.0
C51 C 0.34747 0.27964 0.74043 0.0
C52 C 0.32827 0.26358 0.70659 0.0
C53 C 0.2995 0.27681 0.69043 0.0
H54 H 0.67431 0.30273 0.73491 0.0
H55 H 0.76135 0.30508 0.66951 0.0
H56 H 0.76449 0.39439 0.74287 0.0
C57 C 0.70022 0.31619 0.72698 0.0
C58 C 0.71786 0.35015 0.74324 0.0
C59 C 0.71537 0.29993 0.69974 0.0
C60 C 0.74908 0.31776 0.68963 0.0
C61 C 0.7672 0.35169 0.70528 0.0
C62 C 0.75132 0.36755 0.73204 0.0
H63 H 0.67802 0.71057 0.6767 0.0
H64 H 0.75505 0.64852 0.67594 0.0
H65 H 0.7456 0.72867 0.58373 0.0
C66 C 0.69855 0.70372 0.6625 0.0
C67 C 0.70947 0.72259 0.62779 0.0
C68 C 0.71462 0.67673 0.67976 0.0
C69 C 0.74196 0.66876 0.66224 0.0
C70 C 0.75333 0.68773 0.62782 0.0
C71 C 0.73665 0.71406 0.61031 0.0
Co72 Co 0.0889 0.47628 0.54877 0.0
Co73 Co 0.05004 0.45934 0.48237 0.0
Co74 Co 0.02359 0.51856 0.52107 0.0
O75 O 0.04091 0.47289 0.53075 0.0
H76 H 0.02479 0.45299 0.54333 0.0
O77 O 1.0058 0.56385 0.51165 0.0
Co78 Co 0.95784 0.56045 0.49184 0.0
Co79 Co 0.99475 0.57636 0.55992 0.0
H80 H 0.02219 0.58409 0.49992 0.0
O81 O 0.05715 0.41315 0.4744 0.0
O82 O 0.09673 0.46308 0.49679 0.0
O83 O 0.05049 0.49436 0.43907 0.0
O84 O 0.05578 0.54003 0.47877 0.0
O85 O 0.98692 0.49178 0.48134 0.0
O86 O 0.9151 0.56135 0.47286 0.0
O87 O 0.96316 0.60823 0.47408 0.0
O88 O 0.94543 0.50996 0.50594 0.0
O89 O 0.99119 0.49667 0.56282 0.0
O90 O 0.99247 0.54068 0.60316 0.0
O91 O 0.94844 0.57298 0.54346 0.0
O92 O 0.98741 0.62245 0.56778 0.0
C93 C 0.1177 0.44154 0.57511 0.0
C94 C 0.09298 0.54738 0.55727 0.0
C95 C 0.06106 0.52818 0.44654 0.0
C96 C 0.08924 0.42968 0.48483 0.0
C97 C 0.92972 0.59566 0.46483 0.0
C98 C 0.95461 0.48854 0.48442 0.0
C99 C 0.98388 0.507 0.59486 0.0
C100 C 0.95558 0.60618 0.55591 0.0
O101 O 0.13194 0.47577 0.56626 0.0
O102 O 0.08413 0.42868 0.56707 0.0
O103 O 0.06085 0.54543 0.56084 0.0
O104 O 0.1004 0.52629 0.53389 0.0
Co105 Co 0.55812 0.94965 0.50257 0.0
Co106 Co 0.57577 0.97877 0.57193 0.0
Co107 Co 0.52084 0.01682 0.52445 0.0
O108 O 0.56298 0.99746 0.52244 0.0
H109 H 0.58236 0.01573 0.51282 0.0
O110 O 0.47854 0.03577 0.5264 0.0
Co111 Co 0.48198 0.08192 0.54878 0.0
Co112 Co 0.46612 0.05653 0.4785 0.0
H113 H 0.45901 0.01687 0.53473 0.0
O114 O 0.61963 0.96871 0.58491 0.0
O115 O 0.57211 0.9321 0.55487 0.0
O116 O 0.54217 0.97078 0.61023 0.0
O117 O 0.50001 0.97977 0.56627 0.0
O118 O 0.5484 0.05222 0.56476 0.0
O119 O 0.48154 0.12293 0.57134 0.0
O120 O 0.43769 0.07199 0.56303 0.0
O121 O 0.52876 0.09849 0.53764 0.0
O122 O 0.54178 0.05406 0.48273 0.0
O123 O 0.49986 0.06668 0.44055 0.0
O124 O 0.46727 0.10186 0.49762 0.0
O125 O 0.42164 0.06374 0.46567 0.0
C126 C 0.58943 0.92331 0.47714 0.0
C127 C 0.48947 0.94674 0.4904 0.0
C128 C 0.51006 0.96644 0.59913 0.0
C129 C 0.60387 0.93719 0.57042 0.0
C130 C 0.44977 0.10494 0.57656 0.0
C131 C 0.5516 0.08687 0.55952 0.0
C132 C 0.53185 0.06917 0.45082 0.0
C133 C 0.43559 0.0952 0.48131 0.0
O134 O 0.55741 0.90692 0.48322 0.0
O135 O 0.60226 0.95719 0.4879 0.0
O136 O 0.49331 0.98137 0.48418 0.0
O137 O 0.51141 0.93529 0.51388 0.0
Co138 Co 0.48469 0.53636 0.09833 0.0
Co139 Co 0.46714 0.46874 0.07633 0.0
Co140 Co 0.52384 0.51698 0.02249 0.0
O141 O 0.48074 0.51333 0.04948 0.0
H142 H 0.46161 0.51782 0.03193 0.0
O143 O 0.56685 0.52104 0.99545 0.0
Co144 Co 0.56396 0.50095 0.94507 0.0
Co145 Co 0.57957 0.56766 0.97128 0.0
H146 H 0.58596 0.51623 1.01281 0.0
O147 O 0.42203 0.45107 0.09073 0.0
O148 O 0.4673 0.48805 0.12457 0.0
O149 O 0.50005 0.43854 0.08307 0.0
O150 O 0.54356 0.48218 0.06079 0.0
O151 O 0.49718 0.47503 0.98928 0.0
O152 O 0.56455 0.48178 0.89954 0.0
O153 O 0.60774 0.4934 0.94787 0.0
O154 O 0.5176 0.50423 0.93607 0.0
O155 O 0.50379 0.55121 0.98418 0.0
O156 O 0.54618 0.59802 0.96563 0.0
O157 O 0.58049 0.55113 0.92205 0.0
O158 O 0.62473 0.58701 0.95852 0.0
C159 C 0.45437 0.56096 0.12747 0.0
C160 C 0.55326 0.55553 0.09243 0.0
C161 C 0.53233 0.45178 0.07979 0.0
C162 C 0.4354 0.46809 0.1224 0.0
C163 C 0.59582 0.48047 0.91347 0.0
C164 C 0.49544 0.47866 0.95211 0.0
C165 C 0.5141 0.58284 0.96746 0.0
C166 C 0.61225 0.57153 0.92577 0.0
O167 O 0.48534 0.55906 0.14198 0.0
O168 O 0.44148 0.54539 0.09453 0.0
O169 O 0.551 0.55921 0.05531 0.0
O170 O 0.53031 0.53112 0.10857 0.0
H171 H 0.22984 0.34397 0.37703 0.0
H172 H 0.28346 0.36024 0.49204 0.0
H173 H 0.17818 0.35653 0.40047 0.0
H174 H 0.2317 0.3734 0.51558 0.0
H175 H 0.1587 0.4584 0.50134 0.0
H176 H 0.206 0.43033 0.49261 0.0
H177 H 0.13171 0.33241 0.45142 0.0
H178 H 0.08379 0.35999 0.46143 0.0
C179 C 0.23027 0.3499 0.40742 0.0
C180 C 0.26041 0.3517 0.43277 0.0
C181 C 0.20074 0.35662 0.4209 0.0
C182 C 0.20117 0.36574 0.45976 0.0
C183 C 0.23094 0.36629 0.4855 0.0
C184 C 0.26036 0.35892 0.47213 0.0
C185 C 0.15227 0.43053 0.49134 0.0
C186 C 0.11751 0.41138 0.48206 0.0
C187 C 0.1794 0.41445 0.48657 0.0
C188 C 0.1723 0.37928 0.47154 0.0
C189 C 0.13762 0.35959 0.46319 0.0
C190 C 0.11034 0.37544 0.46872 0.0
H191 H 0.64896 0.23506 0.29184 0.0
H192 H 0.68181 0.27169 0.40886 0.0
H193 H 0.6153 0.17656 0.31785 0.0
H194 H 0.64816 0.2132 0.4349 0.0
H195 H 0.60152 0.09557 0.47263 0.0
H196 H 0.64221 0.14694 0.44253 0.0
H197 H 0.56235 0.15608 0.35068 0.0
H198 H 0.52188 0.10446 0.38029 0.0
C199 C 0.64908 0.2306 0.32314 0.0
C200 C 0.66791 0.25824 0.34824 0.0
C201 C 0.62977 0.19703 0.33805 0.0
C202 C 0.62881 0.19016 0.37848 0.0
C203 C 0.64865 0.21729 0.40362 0.0
C204 C 0.66796 0.2509 0.38868 0.0
C205 C 0.59283 0.10795 0.44553 0.0
C206 C 0.55828 0.09582 0.42899 0.0
C207 C 0.6161 0.13771 0.42849 0.0
C208 C 0.60551 0.15596 0.39437 0.0
C209 C 0.57155 0.14257 0.37676 0.0
C210 C 0.54825 0.11295 0.39385 0.0
H211 H 0.76527 0.71104 0.41677 0.0
H212 H 0.8142 0.72213 0.30909 0.0
H213 H 0.81031 0.68276 0.44876 0.0
H214 H 0.85942 0.69374 0.34129 0.0
H215 H 0.94895 0.66428 0.42805 0.0
H216 H 0.90999 0.70241 0.3992 0.0
H217 H 0.82124 0.61992 0.43605 0.0
H218 H 0.8594 0.58185 0.46361 0.0
C219 C 0.78604 0.70813 0.40013 0.0
C220 C 0.78613 0.71874 0.36036 0.0
C221 C 0.81171 0.69175 0.4184 0.0
C222 C 0.83831 0.68599 0.39747 0.0
C223 C 0.83938 0.6981 0.35818 0.0
C224 C 0.81338 0.71405 0.33972 0.0
C225 C 0.92113 0.65443 0.42995 0.0
C226 C 0.90732 0.61996 0.44795 0.0
C227 C 0.89889 0.67617 0.41343 0.0
C228 C 0.86262 0.66417 0.4156 0.0
C229 C 0.84906 0.63008 0.43426 0.0
C230 C 0.87103 0.60815 0.44983 0.0
H231 H 0.33263 0.74775 0.42148 0.0
H232 H 0.37305 0.79827 0.31438 0.0
H233 H 0.36549 0.80155 0.45652 0.0
H234 H 0.40733 0.85152 0.34992 0.0
H235 H 0.44872 0.95472 0.42207 0.0
H236 H 0.40672 0.90553 0.38633 0.0
H237 H 0.42539 0.82646 0.47705 0.0
H238 H 0.4662 0.87501 0.51254 0.0
C239 C 0.34826 0.77044 0.40525 0.0
C240 C 0.35016 0.76843 0.36499 0.0
C241 C 0.36748 0.80124 0.42549 0.0
C242 C 0.38936 0.83093 0.40619 0.0
C243 C 0.39058 0.8294 0.36575 0.0
C244 C 0.37128 0.79857 0.34545 0.0
C245 C 0.44331 0.9269 0.43454 0.0
C246 C 0.46097 0.91883 0.47006 0.0
C247 C 0.41951 0.89865 0.41395 0.0
C248 C 0.41264 0.86188 0.4287 0.0
C249 C 0.42951 0.85434 0.46488 0.0
C250 C 0.45324 0.88231 0.48517 0.0
H251 H 0.28608 0.61455 0.7035 0.0
H252 H 0.2486 0.71344 0.69327 0.0
H253 H 0.23275 0.58164 0.66717 0.0
H254 H 0.19526 0.68045 0.65622 0.0
H255 H 0.09047 0.59349 0.61642 0.0
H256 H 0.13994 0.6275 0.65918 0.0
H257 H 0.21065 0.58623 0.59766 0.0
H258 H 0.16227 0.55309 0.55536 0.0
C259 C 0.26626 0.62918 0.69404 0.0
C260 C 0.27186 0.66677 0.70122 0.0
C261 C 0.23576 0.61037 0.67285 0.0
C262 C 0.2098 0.62848 0.65841 0.0
C263 C 0.21463 0.66564 0.66698 0.0
C264 C 0.24537 0.68461 0.68793 0.0
C265 C 0.11661 0.59191 0.61198 0.0
C266 C 0.12215 0.5702 0.58255 0.0
C267 C 0.14494 0.61137 0.63645 0.0
C268 C 0.17925 0.60911 0.63226 0.0
C269 C 0.18461 0.58799 0.60236 0.0
C270 C 0.15665 0.56906 0.57787 0.0
H271 H 0.32799 0.254 0.62788 0.0
H272 H 0.35542 0.20773 0.74096 0.0
H273 H 0.35265 0.21074 0.59682 0.0
H274 H 0.38143 0.16593 0.7097 0.0
H275 H 0.47069 0.15009 0.6369 0.0
H276 H 0.43666 0.18401 0.66827 0.0
H277 H 0.34588 0.13669 0.5918 0.0
H278 H 0.37997 0.10157 0.56089 0.0
C279 C 0.33862 0.23427 0.64617 0.0
C280 C 0.33995 0.23479 0.68712 0.0
C281 C 0.35284 0.20956 0.62827 0.0
C282 C 0.3691 0.1852 0.6509 0.0
C283 C 0.36931 0.18469 0.69161 0.0
C284 C 0.35464 0.20889 0.70947 0.0
C285 C 0.44334 0.14653 0.62711 0.0
C286 C 0.42784 0.12299 0.59676 0.0
C287 C 0.42388 0.16586 0.64511 0.0
C288 C 0.38864 0.16283 0.63256 0.0
C289 C 0.373 0.13937 0.60206 0.0
C290 C 0.39236 0.11916 0.58463 0.0
H291 H 0.78847 0.35813 0.63151 0.0
H292 H 0.82468 0.39062 0.74931 0.0
H293 H 0.84404 0.39236 0.60947 0.0
H294 H 0.88045 0.42517 0.72711 0.0
H295 H 0.95369 0.52042 0.65891 0.0
H296 H 0.90371 0.48055 0.68812 0.0
H297 H 0.90547 0.39389 0.61229 0.0
H298 H 0.95502 0.43386 0.58257 0.0
C299 C 0.80848 0.37206 0.65288 0.0
C300 C 0.80197 0.37148 0.69226 0.0
C301 C 0.84046 0.39174 0.64021 0.0
C302 C 0.8669 0.41149 0.6665 0.0
C303 C 0.86059 0.41062 0.70597 0.0
C304 C 0.82856 0.39083 0.71869 0.0
C305 C 0.94393 0.49261 0.64897 0.0
C306 C 0.95835 0.48058 0.61808 0.0
C307 C 0.9152 0.46968 0.6658 0.0
C308 C 0.90015 0.43413 0.6522 0.0
C309 C 0.91589 0.42136 0.62295 0.0
C310 C 0.9446 0.44423 0.60615 0.0
H311 H 0.74331 0.78955 0.59768 0.0
H312 H 0.64101 0.72436 0.62177 0.0
H313 H 0.71869 0.84149 0.57675 0.0
H314 H 0.61684 0.77688 0.60344 0.0
H315 H 0.57583 0.86755 0.54631 0.0
H316 H 0.60264 0.81608 0.55165 0.0
H317 H 0.69637 0.88465 0.60827 0.0
H318 H 0.67023 0.93713 0.6004 0.0
C319 C 0.7155 0.78615 0.59804 0.0
C320 C 0.69409 0.75293 0.61159 0.0
C321 C 0.7015 0.81609 0.58658 0.0
C322 C 0.6659 0.81345 0.58877 0.0
C323 C 0.64432 0.77978 0.60097 0.0
C324 C 0.65824 0.74978 0.61202 0.0
C325 C 0.60242 0.87195 0.55921 0.0
C326 C 0.62097 0.90648 0.57285 0.0
C327 C 0.61766 0.84226 0.56262 0.0
C328 C 0.65149 0.84613 0.58074 0.0
C329 C 0.67039 0.88086 0.59369 0.0
C330 C 0.65531 0.91085 0.5896 0.0
H331 H 0.34472 0.25946 0.37041 0.0
H332 H 0.3542 0.29064 0.49013 0.0
H333 H 0.3649 0.20453 0.39123 0.0
H334 H 0.37433 0.23527 0.51111 0.0
H335 H 0.37159 0.09352 0.44331 0.0
H336 H 0.34396 0.14484 0.43144 0.0
H337 H 0.42936 0.21432 0.49989 0.0
H338 H 0.4573 0.16353 0.51134 0.0
C339 C 0.35131 0.25456 0.40117 0.0
C340 C 0.34833 0.27931 0.42869 0.0
C341 C 0.36234 0.22295 0.4131 0.0
C342 C 0.37084 0.21568 0.45275 0.0
C343 C 0.36787 0.24039 0.48037 0.0
C344 C 0.35642 0.2719 0.46843 0.0
C345 C 0.38426 0.11959 0.45622 0.0
C346 C 0.41678 0.12457 0.47792 0.0
C347 C 0.36847 0.14888 0.4494 0.0
C348 C 0.38475 0.18343 0.46456 0.0
C349 C 0.41622 0.18784 0.4881 0.0
C350 C 0.43224 0.15875 0.49449 0.0
H351 H 0.75699 0.42305 0.35059 0.0
H352 H 0.79155 0.32237 0.35916 0.0
H353 H 0.81229 0.45516 0.38365 0.0
H354 H 0.84689 0.35451 0.3924 0.0
H355 H 0.9219 0.41598 0.49334 0.0
H356 H 0.87017 0.3819 0.45441 0.0
H357 H 0.87379 0.47761 0.37716 0.0
H358 H 0.92501 0.51146 0.41666 0.0
C359 C 0.77655 0.40783 0.35896 0.0
C360 C 0.7696 0.37001 0.35217 0.0
C361 C 0.80837 0.42629 0.378 0.0
C362 C 0.83422 0.4075 0.39083 0.0
C363 C 0.82748 0.3698 0.38351 0.0
C364 C 0.79567 0.35135 0.36442 0.0
C365 C 0.91197 0.42924 0.46748 0.0
C366 C 0.92754 0.46604 0.45755 0.0
C367 C 0.88234 0.40984 0.44517 0.0
C368 C 0.86754 0.42701 0.41265 0.0
C369 C 0.88403 0.46362 0.40225 0.0
C370 C 0.9136 0.48292 0.42455 0.0
H371 H 0.74564 0.83002 0.3823 0.0
H372 H 0.64384 0.76322 0.34412 0.0
H373 H 0.71819 0.86819 0.4175 0.0
H374 H 0.61674 0.80241 0.37674 0.0
H375 H 0.57548 0.84928 0.47125 0.0
H376 H 0.60753 0.81367 0.44044 0.0
H377 H 0.68351 0.91345 0.41113 0.0
H378 H 0.65177 0.94936 0.44397 0.0
C379 C 0.71748 0.82354 0.38118 0.0
C380 C 0.69707 0.79344 0.36016 0.0
C381 C 0.70172 0.84572 0.40102 0.0
C382 C 0.66519 0.83833 0.40032 0.0
C383 C 0.64493 0.80865 0.37871 0.0
C384 C 0.66058 0.78644 0.35927 0.0
C385 C 0.59907 0.8638 0.45837 0.0
C386 C 0.61078 0.9023 0.45965 0.0
C387 C 0.61742 0.84329 0.4404 0.0
C388 C 0.64777 0.86062 0.42239 0.0
C389 C 0.66026 0.89912 0.42471 0.0
C390 C 0.64201 0.91975 0.44334 0.0
H391 H 0.24749 0.60964 0.32471 0.0
H392 H 0.22801 0.70794 0.36759 0.0
H393 H 0.19242 0.57465 0.34367 0.0
H394 H 0.17536 0.6713 0.39275 0.0
H395 H 0.07067 0.60107 0.42269 0.0
H396 H 0.11967 0.63915 0.3899 0.0
H397 H 0.16509 0.54533 0.3927 0.0
H398 H 0.11482 0.50749 0.42119 0.0
C399 C 0.23175 0.62421 0.33813 0.0
C400 C 0.2432 0.66228 0.34429 0.0
C401 C 0.20003 0.60347 0.35034 0.0
C402 C 0.17908 0.61935 0.3711 0.0
C403 C 0.19014 0.65753 0.3768 0.0
C404 C 0.22126 0.67869 0.36302 0.0
C405 C 0.09088 0.58871 0.41514 0.0
C406 C 0.08858 0.55121 0.42363 0.0
C407 C 0.1194 0.61061 0.39683 0.0
C408 C 0.14703 0.59582 0.38808 0.0
C409 C 0.14434 0.55811 0.39714 0.0
C410 C 0.11536 0.53612 0.41392 0.0
H411 H 0.3599 0.76366 0.64332 0.0
H412 H 0.39357 0.8017 0.75969 0.0
H413 H 0.39405 0.82155 0.61641 0.0
H414 H 0.42767 0.85954 0.73285 0.0
H415 H 0.44048 0.93921 0.57759 0.0
H416 H 0.40019 0.88778 0.60801 0.0
H417 H 0.48046 0.87956 0.69969 0.0
H418 H 0.5206 0.93129 0.66972 0.0
C419 C 0.37407 0.78462 0.66316 0.0
C420 C 0.37417 0.77786 0.70368 0.0
C421 C 0.39367 0.81787 0.64774 0.0
C422 C 0.41384 0.84521 0.67246 0.0
C423 C 0.41297 0.8389 0.71295 0.0
C424 C 0.39339 0.80571 0.72834 0.0
C425 C 0.44939 0.92699 0.60469 0.0
C426 C 0.48395 0.93948 0.62111 0.0
C427 C 0.42633 0.89718 0.62191 0.0
C428 C 0.43711 0.87921 0.65611 0.0
C429 C 0.47111 0.89286 0.67354 0.0
C430 C 0.49422 0.92256 0.65626 0.0
H431 H 0.22654 0.27205 0.66924 0.0
H432 H 0.2915 0.37869 0.70065 0.0
H433 H 0.18323 0.30199 0.63513 0.0
H434 H 0.2479 0.40795 0.66905 0.0
H435 H 0.18783 0.45631 0.57494 0.0
H436 H 0.22714 0.42065 0.60429 0.0
H437 H 0.13999 0.33749 0.64409 0.0
H438 H 0.09984 0.37303 0.61266 0.0
C439 C 0.23154 0.30176 0.66909 0.0
C440 C 0.26255 0.32287 0.68792 0.0
C441 C 0.20655 0.31887 0.6499 0.0
C442 C 0.21214 0.35743 0.64903 0.0
C443 C 0.24288 0.37827 0.66842 0.0
C444 C 0.26776 0.36134 0.68723 0.0
C445 C 0.1768 0.43039 0.58982 0.0
C446 C 0.14064 0.41783 0.59199 0.0
C447 C 0.1995 0.40995 0.60688 0.0
C448 C 0.1869 0.37659 0.62746 0.0
C449 C 0.15058 0.36312 0.6285 0.0
C450 C 0.1276 0.38353 0.61073 0.0
H451 H 0.7132 0.28359 0.62313 0.0
H452 H 0.67181 0.23818 0.73149 0.0
H453 H 0.67886 0.22937 0.58994 0.0
H454 H 0.63614 0.18432 0.69768 0.0
H455 H 0.59267 0.07909 0.6276 0.0
H456 H 0.63565 0.12828 0.66239 0.0
H457 H 0.61789 0.20656 0.57043 0.0
H458 H 0.57592 0.15802 0.53599 0.0
C459 C 0.69708 0.26188 0.64007 0.0
C460 C 0.69535 0.26552 0.68012 0.0
C461 C 0.67702 0.23085 0.62086 0.0
C462 C 0.65443 0.20247 0.64098 0.0
C463 C 0.6534 0.20547 0.68127 0.0
C464 C 0.67354 0.23663 0.70057 0.0
C465 C 0.5985 0.10672 0.61465 0.0
C466 C 0.58077 0.11462 0.5791 0.0
C467 C 0.62284 0.13497 0.63471 0.0
C468 C 0.63027 0.1715 0.61929 0.0
C469 C 0.6133 0.17884 0.58309 0.0
C470 C 0.58895 0.15091 0.56339 0.0
H471 H 0.81659 0.69124 0.66629 0.0
H472 H 0.75954 0.67176 0.55328 0.0
H473 H 0.86742 0.67852 0.64129 0.0
H474 H 0.81067 0.65891 0.52806 0.0
H475 H 0.88632 0.57745 0.53777 0.0
H476 H 0.83859 0.60446 0.54762 0.0
H477 H 0.9121 0.70215 0.59067 0.0
H478 H 0.96037 0.67548 0.57993 0.0
C479 C 0.81513 0.68442 0.63602 0.0
C480 C 0.78425 0.68187 0.61175 0.0
C481 C 0.84426 0.67769 0.62161 0.0
C482 C 0.84283 0.66796 0.58279 0.0
C483 C 0.81224 0.66643 0.55811 0.0
C484 C 0.78316 0.67367 0.57246 0.0
C485 C 0.89247 0.60505 0.54845 0.0
C486 C 0.92711 0.62428 0.5583 0.0
C487 C 0.86509 0.62056 0.55386 0.0
C488 C 0.87183 0.65526 0.56993 0.0
C489 C 0.90642 0.67524 0.57831 0.0
C490 C 0.93392 0.65993 0.57231 0.0
H491 H 0.40188 0.39197 0.35407 0.0
H492 H 0.29604 0.38408 0.30523 0.0
H493 H 0.42349 0.42366 0.29445 0.0
H494 H 0.3177 0.41708 0.24611 0.0
H495 H 0.37227 0.42031 0.13168 0.0
H496 H 0.34583 0.40087 0.19249 0.0
H497 H 0.4287 0.48008 0.25389 0.0
H498 H 0.45566 0.49898 0.19322 0.0
C499 C 0.38327 0.39737 0.33073 0.0
C500 C 0.3473 0.3853 0.33418 0.0
C501 C 0.39563 0.41596 0.29679 0.0
C502 C 0.37226 0.42286 0.26559 0.0
C503 C 0.3363 0.41188 0.26956 0.0
C504 C 0.32394 0.39329 0.30353 0.0
C505 C 0.38457 0.43401 0.15801 0.0
C506 C 0.41637 0.46071 0.15774 0.0
C507 C 0.36929 0.42302 0.19286 0.0
C508 C 0.38546 0.43864 0.22805 0.0
C509 C 0.41603 0.46707 0.22732 0.0
C510 C 0.43136 0.47798 0.19251 0.0
H511 H 0.35252 0.61654 0.78759 0.0
H512 H 0.4045 0.72564 0.82598 0.0
H513 H 0.38576 0.59029 0.83909 0.0
H514 H 0.44093 0.69984 0.87374 0.0
H515 H 0.49452 0.64712 0.97375 0.0
H516 H 0.45249 0.6713 0.93024 0.0
H517 H 0.43677 0.57718 0.85791 0.0
H518 H 0.47609 0.55211 0.90357 0.0
C519 C 0.37101 0.63512 0.80681 0.0
C520 C 0.37583 0.67351 0.80164 0.0
C521 C 0.3909 0.61995 0.83616 0.0
C522 C 0.41707 0.64261 0.86074 0.0
C523 C 0.42114 0.68096 0.85615 0.0
C524 C 0.40052 0.69602 0.82769 0.0
C525 C 0.48155 0.63163 0.94872 0.0
C526 C 0.48831 0.59777 0.94203 0.0
C527 C 0.45764 0.64558 0.92331 0.0
C528 C 0.4408 0.62659 0.88977 0.0
C529 C 0.44802 0.59256 0.8835 0.0
C530 C 0.47099 0.57818 0.90955 0.0
H531 H 0.31832 0.33035 0.82504 0.0
H532 H 0.40917 0.33078 0.76608 0.0
H533 H 0.35545 0.36935 0.87495 0.0
H534 H 0.44606 0.36888 0.81611 0.0
H535 H 0.48963 0.47902 0.87301 0.0
H536 H 0.45156 0.43453 0.83022 0.0
H537 H 0.40555 0.37267 0.92944 0.0
H538 H 0.44428 0.41771 0.97314 0.0
C539 C 0.34622 0.33836 0.82301 0.0
C540 C 0.36075 0.32759 0.79144 0.0
C541 C 0.36747 0.36043 0.85174 0.0
C542 C 0.40362 0.37246 0.84925 0.0
C543 C 0.41823 0.3604 0.8186 0.0
C544 C 0.3971 0.33823 0.79011 0.0
C545 C 0.47151 0.45602 0.88604 0.0
C546 C 0.47029 0.45187 0.92671 0.0
C547 C 0.44977 0.43033 0.86135 0.0
C548 C 0.42592 0.39977 0.87643 0.0
C549 C 0.42378 0.39594 0.91701 0.0
C550 C 0.44595 0.42167 0.94199 0.0
H551 H 0.64893 0.35182 0.74055 0.0
H552 H 0.74797 0.39069 0.80726 0.0
H553 H 0.62152 0.38306 0.78296 0.0
H554 H 0.72089 0.42413 0.84822 0.0
H555 H 0.65226 0.45187 0.93738 0.0
H556 H 0.68233 0.41981 0.89775 0.0
H557 H 0.6177 0.44241 0.79552 0.0
H558 H 0.58712 0.47281 0.83517 0.0
C559 C 0.66494 0.36685 0.76436 0.0
C560 C 0.70081 0.36855 0.77025 0.0
C561 C 0.64926 0.38544 0.78842 0.0
C562 C 0.66896 0.40672 0.81892 0.0
C563 C 0.70473 0.40795 0.82526 0.0
C564 C 0.72039 0.38908 0.80136 0.0
C565 C 0.64474 0.45013 0.90639 0.0
C566 C 0.61704 0.4645 0.88956 0.0
C567 C 0.662 0.43181 0.88358 0.0
C568 C 0.65215 0.42782 0.84335 0.0
C569 C 0.62541 0.44376 0.82648 0.0
C570 C 0.608 0.46155 0.84926 0.0
H571 H 0.69857 0.60303 0.69833 0.0
H572 H 0.70691 0.70917 0.74525 0.0
H573 H 0.6785 0.57281 0.75982 0.0
H574 H 0.68676 0.6792 0.80626 0.0
H575 H 0.67631 0.6188 0.92125 0.0
H576 H 0.7057 0.64076 0.86258 0.0
H577 H 0.62349 0.56731 0.79396 0.0
H578 H 0.59391 0.54531 0.8525 0.0
C579 C 0.69638 0.6198 0.72194 0.0
C580 C 0.70395 0.65832 0.71715 0.0
C581 C 0.68484 0.60258 0.75692 0.0
C582 C 0.68127 0.62372 0.78773 0.0
C583 C 0.68973 0.66227 0.78315 0.0
C584 C 0.70085 0.6794 0.74815 0.0
C585 C 0.66473 0.60689 0.89378 0.0
C586 C 0.63251 0.58072 0.89143 0.0
C587 C 0.68155 0.61953 0.86023 0.0
C588 C 0.66661 0.60602 0.82379 0.0
C589 C 0.63562 0.57808 0.82175 0.0
C590 C 0.61862 0.56563 0.85527 0.0
H591 H 0.63878 0.6998 0.2789 0.0
H592 H 0.73165 0.70303 0.22239 0.0
H593 H 0.60367 0.66112 0.22849 0.0
H594 H 0.69605 0.66329 0.17181 0.0
H595 H 0.60443 0.61685 0.0716 0.0
H596 H 0.6443 0.66064 0.11591 0.0
H597 H 0.60127 0.59523 0.21464 0.0
H598 H 0.56217 0.55206 0.17138 0.0
C599 C 0.65171 0.69282 0.25534 0.0
C600 C 0.68811 0.70467 0.25475 0.0
C601 C 0.63156 0.6703 0.22661 0.0
C602 C 0.64713 0.65891 0.19636 0.0
C603 C 0.68335 0.67174 0.19472 0.0
C604 C 0.7037 0.69421 0.22382 0.0
C605 C 0.60378 0.61178 0.10277 0.0
C606 C 0.57976 0.58113 0.11781 0.0
C607 C 0.62661 0.63676 0.12807 0.0
C608 C 0.62547 0.63163 0.16872 0.0
C609 C 0.6023 0.60036 0.1835 0.0
C610 C 0.57991 0.57549 0.15851 0.0
H611 H 0.39201 0.67316 0.30956 0.0
H612 H 0.30615 0.66568 0.22115 0.0
H613 H 0.42067 0.64193 0.26836 0.0
H614 H 0.3355 0.63571 0.17867 0.0
H615 H 0.3832 0.55043 0.12745 0.0
H616 H 0.35224 0.58164 0.167 0.0
H617 H 0.45103 0.64891 0.21395 0.0
H618 H 0.48139 0.61656 0.17635 0.0
C619 C 0.37961 0.66547 0.28087 0.0
C620 C 0.34699 0.6722 0.26849 0.0
C621 C 0.39608 0.64757 0.25703 0.0
C622 C 0.38073 0.63638 0.21973 0.0
C623 C 0.34806 0.64336 0.20728 0.0
C624 C 0.3313 0.66082 0.23148 0.0
C625 C 0.3981 0.57199 0.14621 0.0
C626 C 0.4347 0.58083 0.14902 0.0
C627 C 0.38042 0.59005 0.16882 0.0
C628 C 0.39899 0.61773 0.19426 0.0
C629 C 0.43563 0.62713 0.19581 0.0
C630 C 0.45315 0.60871 0.17391 0.0
H631 H 0.6155 0.34934 0.28269 0.0
H632 H 0.7073 0.38584 0.21994 0.0
H633 H 0.58134 0.37347 0.22993 0.0
H634 H 0.67282 0.41001 0.16648 0.0
H635 H 0.60217 0.48115 0.09918 0.0
H636 H 0.64054 0.45696 0.14788 0.0
H637 H 0.55797 0.35928 0.16433 0.0
H638 H 0.51953 0.38367 0.1165 0.0
C639 C 0.62837 0.36235 0.25743 0.0
C640 C 0.66407 0.3652 0.25537 0.0
C641 C 0.60871 0.3761 0.22701 0.0
C642 C 0.62408 0.39312 0.19346 0.0
C643 C 0.66009 0.39711 0.19185 0.0
C644 C 0.67988 0.38332 0.2225 0.0
C645 C 0.59239 0.4542 0.11267 0.0
C646 C 0.55758 0.43453 0.10405 0.0
C647 C 0.61444 0.44033 0.14067 0.0
C648 C 0.60222 0.40643 0.16066 0.0
C649 C 0.56804 0.38592 0.15034 0.0
C650 C 0.54603 0.39979 0.12257 0.0
loop_
_geom_bond_atom_site_label_1
_geom_bond_atom_site_label_2
_geom_bond_distance
_geom_bond_site_symmetry_2
_ccdc_geom_bond_type
H0 C3 0.931 . S
H1 C6 0.928 . S
H2 C8 0.930 . S
C3 H0 0.931 . S
C3 C4 1.413 . S
C3 C5 1.360 . S
C4 C3 1.413 . S
C4 C8 1.429 . S
C5 C3 1.360 . S
C5 C6 1.372 . S
C6 H1 0.928 . S
C6 C5 1.372 . S
C6 C7 1.404 . S
C7 C6 1.404 . S
C7 C8 1.391 . S
C8 H2 0.930 . S
C8 C4 1.429 . S
C8 C7 1.391 . S
H9 C12 0.931 . S
H10 C15 0.928 . S
H11 C17 0.930 . S
C12 H9 0.931 . S
C12 C13 1.413 . S
C12 C14 1.360 . S
C13 C12 1.413 . S
C13 C17 1.429 . S
C14 C12 1.360 . S
C14 C15 1.372 . S
C15 H10 0.928 . S
C15 C14 1.372 . S
C15 C16 1.404 . S
C16 C15 1.404 . S
C16 C17 1.391 . S
C17 H11 0.930 . S
C17 C13 1.429 . S
C17 C16 1.391 . S
H18 C21 0.931 . S
H19 C24 0.928 . S
H20 C26 0.930 . S
C21 H18 0.931 . S
C21 C22 1.413 . S
C21 C23 1.360 . S
C22 C21 1.413 . S
C22 C26 1.429 . S
C23 C21 1.360 . S
C23 C24 1.372 . S
C24 H19 0.928 . S
C24 C23 1.372 . S
C24 C25 1.404 . S
C25 C24 1.404 . S
C25 C26 1.391 . S
C26 H20 0.930 . S
C26 C22 1.429 . S
C26 C25 1.391 . S
H27 C30 0.931 . S
H28 C33 0.928 . S
H29 C35 0.930 . S
C30 H27 0.931 . S
C30 C31 1.413 . S
C30 C32 1.360 . S
C31 C30 1.413 . S
C31 C35 1.429 . S
C32 C30 1.360 . S
C32 C33 1.372 . S
C33 H28 0.928 . S
C33 C32 1.372 . S
C33 C34 1.404 . S
C34 C33 1.404 . S
C34 C35 1.391 . S
C35 H29 0.930 . S
C35 C31 1.429 . S
C35 C34 1.391 . S
H36 C39 0.931 . S
H37 C42 0.928 . S
H38 C44 0.930 . S
C39 H36 0.931 . S
C39 C40 1.413 . S
C39 C41 1.360 . S
C40 C39 1.413 . S
C40 C44 1.429 . S
C41 C39 1.360 . S
C41 C42 1.372 . S
C42 H37 0.928 . S
C42 C41 1.372 . S
C42 C43 1.404 . S
C43 C42 1.404 . S
C43 C44 1.391 . S
C44 H38 0.930 . S
C44 C40 1.429 . S
C44 C43 1.391 . S
H45 C48 0.931 . S
H46 C51 0.928 . S
H47 C53 0.930 . S
C48 H45 0.931 . S
C48 C49 1.413 . S
C48 C50 1.360 . S
C49 C48 1.413 . S
C49 C53 1.429 . S
C50 C48 1.360 . S
C50 C51 1.372 . S
C51 H46 0.928 . S
C51 C50 1.372 . S
C51 C52 1.404 . S
C52 C51 1.404 . S
C52 C53 1.391 . S
C53 H47 0.930 . S
C53 C49 1.429 . S
C53 C52 1.391 . S
H54 C57 0.931 . S
H55 C60 0.928 . S
H56 C62 0.930 . S
C57 H54 0.931 . S
C57 C58 1.413 . S
C57 C59 1.360 . S
C58 C57 1.413 . S
C58 C62 1.429 . S
C59 C57 1.360 . S
C59 C60 1.372 . S
C60 H55 0.928 . S
C60 C59 1.372 . S
C60 C61 1.404 . S
C61 C60 1.404 . S
C61 C62 1.391 . S
C62 H56 0.930 . S
C62 C58 1.429 . S
C62 C61 1.391 . S
H63 C66 0.931 . S
H64 C69 0.928 . S
H65 C71 0.930 . S
C66 H63 0.931 . S
C66 C67 1.413 . S
C66 C68 1.360 . S
C67 C66 1.413 . S
C67 C71 1.429 . S
C68 C66 1.360 . S
C68 C69 1.372 . S
C69 H64 0.928 . S
C69 C68 1.372 . S
C69 C70 1.404 . S
C70 C69 1.404 . S
C70 C71 1.391 . S
C71 H65 0.930 . S
C71 C67 1.429 . S
C71 C70 1.391 . S
Co72 O75 2.042 . S
Co72 O82 2.264 . S
Co72 O101 2.286 . S
Co72 O102 2.069 . S
Co72 O104 2.015 . S
Co73 O75 2.122 . S
Co73 O81 2.073 . S
Co73 O82 2.327 . S
Co73 O83 1.976 . S
Co74 O75 2.087 . S
Co74 O77 2.087 1_455 S
Co74 O84 2.111 . S
Co74 O85 2.143 1_455 S
Co74 O89 2.111 1_455 S
Co74 O103 2.143 . S
O75 Co72 2.042 . S
O75 Co73 2.122 . S
O75 Co74 2.087 . S
O75 H76 0.980 . S
H76 O75 0.980 . S
O77 Co74 2.087 1_655 S
O77 Co78 2.042 . S
O77 Co79 2.122 . S
O77 H80 0.980 . S
Co78 O77 2.042 . S
Co78 O86 2.286 . S
Co78 O87 2.069 . S
Co78 O88 2.015 . S
Co78 O91 2.264 . S
Co79 O77 2.122 . S
Co79 O90 1.976 . S
Co79 O91 2.327 . S
Co79 O92 2.073 . S
H80 O77 0.980 . S
O81 Co73 2.073 . S
O81 C96 1.245 . S
O82 Co72 2.264 . S
O82 Co73 2.327 . S
O82 C96 1.257 . S
O83 Co73 1.976 . S
O83 C95 1.251 . S
O84 Co74 2.111 . S
O84 C95 1.274 . S
O85 Co74 2.143 1_655 S
O85 C98 1.246 . S
O86 Co78 2.286 . S
O86 C97 1.259 . S
O87 Co78 2.069 . S
O87 C97 1.289 . S
O88 Co78 2.015 . S
O88 C98 1.257 . S
O89 Co74 2.111 1_655 S
O89 C99 1.274 . S
O90 Co79 1.976 . S
O90 C99 1.251 . S
O91 Co78 2.264 . S
O91 Co79 2.327 . S
O91 C100 1.257 . S
O92 Co79 2.073 . S
O92 C100 1.245 . S
C93 O101 1.259 . S
C93 O102 1.289 . S
C94 O103 1.246 . S
C94 O104 1.257 . S
C95 O83 1.251 . S
C95 O84 1.274 . S
C96 O81 1.245 . S
C96 O82 1.257 . S
C97 O86 1.259 . S
C97 O87 1.289 . S
C98 O85 1.246 . S
C98 O88 1.257 . S
C99 O89 1.274 . S
C99 O90 1.251 . S
C100 O91 1.257 . S
C100 O92 1.245 . S
O101 Co72 2.286 . S
O101 C93 1.259 . S
O102 Co72 2.069 . S
O102 C93 1.289 . S
O103 Co74 2.143 . S
O103 C94 1.246 . S
O104 Co72 2.015 . S
O104 C94 1.257 . S
Co105 O108 2.042 . S
Co105 O115 2.264 . S
Co105 O134 2.286 . S
Co105 O135 2.069 . S
Co105 O137 2.015 . S
Co106 O108 2.122 . S
Co106 O114 2.073 . S
Co106 O115 2.327 . S
Co106 O116 1.976 . S
Co107 O108 2.087 1_545 S
Co107 O110 2.087 . S
Co107 O117 2.111 1_545 S
Co107 O118 2.143 . S
Co107 O122 2.111 . S
Co107 O136 2.143 1_545 S
O108 Co105 2.042 . S
O108 Co106 2.122 . S
O108 Co107 2.087 1_565 S
O108 H109 0.980 . S
H109 O108 0.980 . S
O110 Co107 2.087 . S
O110 Co111 2.042 . S
O110 Co112 2.122 . S
O110 H113 0.980 . S
Co111 O110 2.042 . S
Co111 O119 2.286 . S
Co111 O120 2.069 . S
Co111 O121 2.015 . S
Co111 O124 2.264 . S
Co112 O110 2.122 . S
Co112 O123 1.976 . S
Co112 O124 2.327 . S
Co112 O125 2.073 . S
H113 O110 0.980 . S
O114 Co106 2.073 . S
O114 C129 1.245 . S
O115 Co105 2.264 . S
O115 Co106 2.327 . S
O115 C129 1.257 . S
O116 Co106 1.976 . S
O116 C128 1.251 . S
O117 Co107 2.111 1_565 S
O117 C128 1.274 . S
O118 Co107 2.143 . S
O118 C131 1.246 . S
O119 Co111 2.286 . S
O119 C130 1.259 . S
O120 Co111 2.069 . S
O120 C130 1.289 . S
O121 Co111 2.015 . S
O121 C131 1.257 . S
O122 Co107 2.111 . S
O122 C132 1.274 . S
O123 Co112 1.976 . S
O123 C132 1.251 . S
O124 Co111 2.264 . S
O124 Co112 2.327 . S
O124 C133 1.257 . S
O125 Co112 2.073 . S
O125 C133 1.245 . S
C126 O134 1.259 . S
C126 O135 1.289 . S
C127 O136 1.246 . S
C127 O137 1.257 . S
C128 O116 1.251 . S
C128 O117 1.274 . S
C129 O114 1.245 . S
C129 O115 1.257 . S
C130 O119 1.259 . S
C130 O120 1.289 . S
C131 O118 1.246 . S
C131 O121 1.257 . S
C132 O122 1.274 . S
C132 O123 1.251 . S
C133 O124 1.257 . S
C133 O125 1.245 . S
O134 Co105 2.286 . S
O134 C126 1.259 . S
O135 Co105 2.069 . S
O135 C126 1.289 . S
O136 Co107 2.143 1_565 S
O136 C127 1.246 . S
O137 Co105 2.015 . S
O137 C127 1.257 . S
Co138 O141 2.042 . S
Co138 O148 2.264 . S
Co138 O167 2.286 . S
Co138 O168 2.069 . S
Co138 O170 2.015 . S
Co139 O141 2.122 . S
Co139 O147 2.073 . S
Co139 O148 2.327 . S
Co139 O149 1.976 . S
Co140 O141 2.087 . S
Co140 O143 2.087 1_554 S
Co140 O150 2.111 . S
Co140 O151 2.143 1_554 S
Co140 O155 2.111 1_554 S
Co140 O169 2.143 . S
O141 Co138 2.042 . S
O141 Co139 2.122 . S
O141 Co140 2.087 . S
O141 H142 0.980 . S
H142 O141 0.980 . S
O143 Co140 2.087 1_556 S
O143 Co144 2.042 . S
O143 Co145 2.122 . S
O143 H146 0.980 . S
Co144 O143 2.042 . S
Co144 O152 2.286 . S
Co144 O153 2.069 . S
Co144 O154 2.015 . S
Co144 O157 2.264 . S
Co145 O143 2.122 . S
Co145 O156 1.976 . S
Co145 O157 2.327 . S
Co145 O158 2.073 . S
H146 O143 0.980 . S
O147 Co139 2.073 . S
O147 C162 1.245 . S
O148 Co138 2.264 . S
O148 Co139 2.327 . S
O148 C162 1.257 . S
O149 Co139 1.976 . S
O149 C161 1.251 . S
O150 Co140 2.111 . S
O150 C161 1.274 . S
O151 Co140 2.143 1_556 S
O151 C164 1.246 . S
O152 Co144 2.286 . S
O152 C163 1.259 . S
O153 Co144 2.069 . S
O153 C163 1.289 . S
O154 Co144 2.015 . S
O154 C164 1.257 . S
O155 Co140 2.111 1_556 S
O155 C165 1.274 . S
O156 Co145 1.976 . S
O156 C165 1.251 . S
O157 Co144 2.264 . S
O157 Co145 2.327 . S
O157 C166 1.257 . S
O158 Co145 2.073 . S
O158 C166 1.245 . S
C159 O167 1.259 . S
C159 O168 1.289 . S
C160 O169 1.246 . S
C160 O170 1.257 . S
C161 O149 1.251 . S
C161 O150 1.274 . S
C162 O147 1.245 . S
C162 O148 1.257 . S
C163 O152 1.259 . S
C163 O153 1.289 . S
C164 O151 1.246 . S
C164 O154 1.257 . S
C165 O155 1.274 . S
C165 O156 1.251 . S
C166 O157 1.257 . S
C166 O158 1.245 . S
O167 Co138 2.286 . S
O167 C159 1.259 . S
O168 Co138 2.069 . S
O168 C159 1.289 . S
O169 Co140 2.143 . S
O169 C160 1.246 . S
O170 Co138 2.015 . S
O170 C160 1.257 . S
H171 C179 0.950 . S
H172 C184 0.950 . S
H173 C181 0.950 . S
H174 C183 0.950 . S
H175 C185 0.950 . S
H176 C187 0.950 . S
H177 C189 0.950 . S
H178 C190 0.950 . S
C179 H171 0.950 . S
C179 C180 1.386 . S
C179 C181 1.391 . S
C180 C179 1.386 . S
C180 C184 1.393 . S
C181 H173 0.950 . S
C181 C179 1.391 . S
C181 C182 1.400 . S
C182 C181 1.400 . S
C182 C183 1.398 . S
C182 C188 1.491 . S
C183 H174 0.950 . S
C183 C182 1.398 . S
C183 C184 1.391 . S
C184 H172 0.950 . S
C184 C180 1.393 . S
C184 C183 1.391 . S
C185 H175 0.950 . S
C185 C186 1.386 . S
C185 C187 1.391 . S
C186 C185 1.386 . S
C186 C190 1.393 . S
C187 H176 0.950 . S
C187 C185 1.391 . S
C187 C188 1.400 . S
C188 C182 1.491 . S
C188 C187 1.400 . S
C188 C189 1.398 . S
C189 H177 0.950 . S
C189 C188 1.398 . S
C189 C190 1.391 . S
C190 H178 0.950 . S
C190 C186 1.393 . S
C190 C189 1.391 . S
H191 C199 0.950 . S
H192 C204 0.950 . S
H193 C201 0.950 . S
H194 C203 0.950 . S
H195 C205 0.950 . S
H196 C207 0.950 . S
H197 C209 0.950 . S
H198 C210 0.950 . S
C199 H191 0.950 . S
C199 C200 1.386 . S
C199 C201 1.391 . S
C200 C199 1.386 . S
C200 C204 1.393 . S
C201 H193 0.950 . S
C201 C199 1.391 . S
C201 C202 1.400 . S
C202 C201 1.400 . S
C202 C203 1.398 . S
C202 C208 1.491 . S
C203 H194 0.950 . S
C203 C202 1.398 . S
C203 C204 1.391 . S
C204 H192 0.950 . S
C204 C200 1.393 . S
C204 C203 1.391 . S
C205 H195 0.950 . S
C205 C206 1.386 . S
C205 C207 1.391 . S
C206 C205 1.386 . S
C206 C210 1.393 . S
C207 H196 0.950 . S
C207 C205 1.391 . S
C207 C208 1.400 . S
C208 C202 1.491 . S
C208 C207 1.400 . S
C208 C209 1.398 . S
C209 H197 0.950 . S
C209 C208 1.398 . S
C209 C210 1.391 . S
C210 H198 0.950 . S
C210 C206 1.393 . S
C210 C209 1.391 . S
H211 C219 0.950 . S
H212 C224 0.950 . S
H213 C221 0.950 . S
H214 C223 0.950 . S
H215 C225 0.950 . S
H216 C227 0.950 . S
H217 C229 0.950 . S
H218 C230 0.950 . S
C219 H211 0.950 . S
C219 C220 1.386 . S
C219 C221 1.391 . S
C220 C219 1.386 . S
C220 C224 1.393 . S
C221 H213 0.950 . S
C221 C219 1.391 . S
C221 C222 1.400 . S
C222 C221 1.400 . S
C222 C223 1.398 . S
C222 C228 1.491 . S
C223 H214 0.950 . S
C223 C222 1.398 . S
C223 C224 1.391 . S
C224 H212 0.950 . S
C224 C220 1.393 . S
C224 C223 1.391 . S
C225 H215 0.950 . S
C225 C226 1.386 . S
C225 C227 1.391 . S
C226 C225 1.386 . S
C226 C230 1.393 . S
C227 H216 0.950 . S
C227 C225 1.391 . S
C227 C228 1.400 . S
C228 C222 1.491 . S
C228 C227 1.400 . S
C228 C229 1.398 . S
C229 H217 0.950 . S
C229 C228 1.398 . S
C229 C230 1.391 . S
C230 H218 0.950 . S
C230 C226 1.393 . S
C230 C229 1.391 . S
H231 C239 0.950 . S
H232 C244 0.950 . S
H233 C241 0.950 . S
H234 C243 0.950 . S
H235 C245 0.950 . S
H236 C247 0.950 . S
H237 C249 0.950 . S
H238 C250 0.950 . S
C239 H231 0.950 . S
C239 C240 1.386 . S
C239 C241 1.391 . S
C240 C239 1.386 . S
C240 C244 1.393 . S
C241 H233 0.950 . S
C241 C239 1.391 . S
C241 C242 1.400 . S
C242 C241 1.400 . S
C242 C243 1.398 . S
C242 C248 1.491 . S
C243 H234 0.950 . S
C243 C242 1.398 . S
C243 C244 1.391 . S
C244 H232 0.950 . S
C244 C240 1.393 . S
C244 C243 1.391 . S
C245 H235 0.950 . S
C245 C246 1.386 . S
C245 C247 1.391 . S
C246 C245 1.386 . S
C246 C250 1.393 . S
C247 H236 0.950 . S
C247 C245 1.391 . S
C247 C248 1.400 . S
C248 C242 1.491 . S
C248 C247 1.400 . S
C248 C249 1.398 . S
C249 H237 0.950 . S
C249 C248 1.398 . S
C249 C250 1.391 . S
C250 H238 0.950 . S
C250 C246 1.393 . S
C250 C249 1.391 . S
H251 C259 0.950 . S
H252 C264 0.950 . S
H253 C261 0.950 . S
H254 C263 0.950 . S
H255 C265 0.950 . S
H256 C267 0.950 . S
H257 C269 0.950 . S
H258 C270 0.950 . S
C259 H251 0.950 . S
C259 C260 1.386 . S
C259 C261 1.391 . S
C260 C259 1.386 . S
C260 C264 1.393 . S
C261 H253 0.950 . S
C261 C259 1.391 . S
C261 C262 1.400 . S
C262 C261 1.400 . S
C262 C263 1.398 . S
C262 C268 1.491 . S
C263 H254 0.950 . S
C263 C262 1.398 . S
C263 C264 1.391 . S
C264 H252 0.950 . S
C264 C260 1.393 . S
C264 C263 1.391 . S
C265 H255 0.950 . S
C265 C266 1.386 . S
C265 C267 1.391 . S
C266 C265 1.386 . S
C266 C270 1.393 . S
C267 H256 0.950 . S
C267 C265 1.391 . S
C267 C268 1.400 . S
C268 C262 1.491 . S
C268 C267 1.400 . S
C268 C269 1.398 . S
C269 H257 0.950 . S
C269 C268 1.398 . S
C269 C270 1.391 . S
C270 H258 0.950 . S
C270 C266 1.393 . S
C270 C269 1.391 . S
H271 C279 0.950 . S
H272 C284 0.950 . S
H273 C281 0.950 . S
H274 C283 0.950 . S
H275 C285 0.950 . S
H276 C287 0.950 . S
H277 C289 0.950 . S
H278 C290 0.950 . S
C279 H271 0.950 . S
C279 C280 1.386 . S
C279 C281 1.391 . S
C280 C279 1.386 . S
C280 C284 1.393 . S
C281 H273 0.950 . S
C281 C279 1.391 . S
C281 C282 1.400 . S
C282 C281 1.400 . S
C282 C283 1.398 . S
C282 C288 1.491 . S
C283 H274 0.950 . S
C283 C282 1.398 . S
C283 C284 1.391 . S
C284 H272 0.950 . S
C284 C280 1.393 . S
C284 C283 1.391 . S
C285 H275 0.950 . S
C285 C286 1.386 . S
C285 C287 1.391 . S
C286 C285 1.386 . S
C286 C290 1.393 . S
C287 H276 0.950 . S
C287 C285 1.391 . S
C287 C288 1.400 . S
C288 C282 1.491 . S
C288 C287 1.400 . S
C288 C289 1.398 . S
C289 H277 0.950 . S
C289 C288 1.398 . S
C289 C290 1.391 . S
C290 H278 0.950 . S
C290 C286 1.393 . S
C290 C289 1.391 . S
H291 C299 0.950 . S
H292 C304 0.950 . S
H293 C301 0.950 . S
H294 C303 0.950 . S
H295 C305 0.950 . S
H296 C307 0.950 . S
H297 C309 0.950 . S
H298 C310 0.950 . S
C299 H291 0.950 . S
C299 C300 1.386 . S
C299 C301 1.391 . S
C300 C299 1.386 . S
C300 C304 1.393 . S
C301 H293 0.950 . S
C301 C299 1.391 . S
C301 C302 1.400 . S
C302 C301 1.400 . S
C302 C303 1.398 . S
C302 C308 1.491 . S
C303 H294 0.950 . S
C303 C302 1.398 . S
C303 C304 1.391 . S
C304 H292 0.950 . S
C304 C300 1.393 . S
C304 C303 1.391 . S
C305 H295 0.950 . S
C305 C306 1.386 . S
C305 C307 1.391 . S
C306 C305 1.386 . S
C306 C310 1.393 . S
C307 H296 0.950 . S
C307 C305 1.391 . S
C307 C308 1.400 . S
C308 C302 1.491 . S
C308 C307 1.400 . S
C308 C309 1.398 . S
C309 H297 0.950 . S
C309 C308 1.398 . S
C309 C310 1.391 . S
C310 H298 0.950 . S
C310 C306 1.393 . S
C310 C309 1.391 . S
H311 C319 0.950 . S
H312 C324 0.950 . S
H313 C321 0.950 . S
H314 C323 0.950 . S
H315 C325 0.950 . S
H316 C327 0.950 . S
H317 C329 0.950 . S
H318 C330 0.950 . S
C319 H311 0.950 . S
C319 C320 1.386 . S
C319 C321 1.391 . S
C320 C319 1.386 . S
C320 C324 1.393 . S
C321 H313 0.950 . S
C321 C319 1.391 . S
C321 C322 1.400 . S
C322 C321 1.400 . S
C322 C323 1.398 . S
C322 C328 1.491 . S
C323 H314 0.950 . S
C323 C322 1.398 . S
C323 C324 1.391 . S
C324 H312 0.950 . S
C324 C320 1.393 . S
C324 C323 1.391 . S
C325 H315 0.950 . S
C325 C326 1.386 . S
C325 C327 1.391 . S
C326 C325 1.386 . S
C326 C330 1.393 . S
C327 H316 0.950 . S
C327 C325 1.391 . S
C327 C328 1.400 . S
C328 C322 1.491 . S
C328 C327 1.400 . S
C328 C329 1.398 . S
C329 H317 0.950 . S
C329 C328 1.398 . S
C329 C330 1.391 . S
C330 H318 0.950 . S
C330 C326 1.393 . S
C330 C329 1.391 . S
H331 C339 0.950 . S
H332 C344 0.950 . S
H333 C341 0.950 . S
H334 C343 0.950 . S
H335 C345 0.950 . S
H336 C347 0.950 . S
H337 C349 0.950 . S
H338 C350 0.950 . S
C339 H331 0.950 . S
C339 C340 1.386 . S
C339 C341 1.391 . S
C340 C339 1.386 . S
C340 C344 1.393 . S
C341 H333 0.950 . S
C341 C339 1.391 . S
C341 C342 1.400 . S
C342 C341 1.400 . S
C342 C343 1.398 . S
C342 C348 1.491 . S
C343 H334 0.950 . S
C343 C342 1.398 . S
C343 C344 1.391 . S
C344 H332 0.950 . S
C344 C340 1.393 . S
C344 C343 1.391 . S
C345 H335 0.950 . S
C345 C346 1.386 . S
C345 C347 1.391 . S
C346 C345 1.386 . S
C346 C350 1.393 . S
C347 H336 0.950 . S
C347 C345 1.391 . S
C347 C348 1.400 . S
C348 C342 1.491 . S
C348 C347 1.400 . S
C348 C349 1.398 . S
C349 H337 0.950 . S
C349 C348 1.398 . S
C349 C350 1.391 . S
C350 H338 0.950 . S
C350 C346 1.393 . S
C350 C349 1.391 . S
H351 C359 0.950 . S
H352 C364 0.950 . S
H353 C361 0.950 . S
H354 C363 0.950 . S
H355 C365 0.950 . S
H356 C367 0.950 . S
H357 C369 0.950 . S
H358 C370 0.950 . S
C359 H351 0.950 . S
C359 C360 1.386 . S
C359 C361 1.391 . S
C360 C359 1.386 . S
C360 C364 1.393 . S
C361 H353 0.950 . S
C361 C359 1.391 . S
C361 C362 1.400 . S
C362 C361 1.400 . S
C362 C363 1.398 . S
C362 C368 1.491 . S
C363 H354 0.950 . S
C363 C362 1.398 . S
C363 C364 1.391 . S
C364 H352 0.950 . S
C364 C360 1.393 . S
C364 C363 1.391 . S
C365 H355 0.950 . S
C365 C366 1.386 . S
C365 C367 1.391 . S
C366 C365 1.386 . S
C366 C370 1.393 . S
C367 H356 0.950 . S
C367 C365 1.391 . S
C367 C368 1.400 . S
C368 C362 1.491 . S
C368 C367 1.400 . S
C368 C369 1.398 . S
C369 H357 0.950 . S
C369 C368 1.398 . S
C369 C370 1.391 . S
C370 H358 0.950 . S
C370 C366 1.393 . S
C370 C369 1.391 . S
H371 C379 0.950 . S
H372 C384 0.950 . S
H373 C381 0.950 . S
H374 C383 0.950 . S
H375 C385 0.950 . S
H376 C387 0.950 . S
H377 C389 0.950 . S
H378 C390 0.950 . S
C379 H371 0.950 . S
C379 C380 1.386 . S
C379 C381 1.391 . S
C380 C379 1.386 . S
C380 C384 1.393 . S
C381 H373 0.950 . S
C381 C379 1.391 . S
C381 C382 1.400 . S
C382 C381 1.400 . S
C382 C383 1.398 . S
C382 C388 1.491 . S
C383 H374 0.950 . S
C383 C382 1.398 . S
C383 C384 1.391 . S
C384 H372 0.950 . S
C384 C380 1.393 . S
C384 C383 1.391 . S
C385 H375 0.950 . S
C385 C386 1.386 . S
C385 C387 1.391 . S
C386 C385 1.386 . S
C386 C390 1.393 . S
C387 H376 0.950 . S
C387 C385 1.391 . S
C387 C388 1.400 . S
C388 C382 1.491 . S
C388 C387 1.400 . S
C388 C389 1.398 . S
C389 H377 0.950 . S
C389 C388 1.398 . S
C389 C390 1.391 . S
C390 H378 0.950 . S
C390 C386 1.393 . S
C390 C389 1.391 . S
H391 C399 0.950 . S
H392 C404 0.950 . S
H393 C401 0.950 . S
H394 C403 0.950 . S
H395 C405 0.950 . S
H396 C407 0.950 . S
H397 C409 0.950 . S
H398 C410 0.950 . S
C399 H391 0.950 . S
C399 C400 1.386 . S
C399 C401 1.391 . S
C400 C399 1.386 . S
C400 C404 1.393 . S
C401 H393 0.950 . S
C401 C399 1.391 . S
C401 C402 1.400 . S
C402 C401 1.400 . S
C402 C403 1.398 . S
C402 C408 1.491 . S
C403 H394 0.950 . S
C403 C402 1.398 . S
C403 C404 1.391 . S
C404 H392 0.950 . S
C404 C400 1.393 . S
C404 C403 1.391 . S
C405 H395 0.950 . S
C405 C406 1.386 . S
C405 C407 1.391 . S
C406 C405 1.386 . S
C406 C410 1.393 . S
C407 H396 0.950 . S
C407 C405 1.391 . S
C407 C408 1.400 . S
C408 C402 1.491 . S
C408 C407 1.400 . S
C408 C409 1.398 . S
C409 H397 0.950 . S
C409 C408 1.398 . S
C409 C410 1.391 . S
C410 H398 0.950 . S
C410 C406 1.393 . S
C410 C409 1.391 . S
H411 C419 0.950 . S
H412 C424 0.950 . S
H413 C421 0.950 . S
H414 C423 0.950 . S
H415 C425 0.950 . S
H416 C427 0.950 . S
H417 C429 0.950 . S
H418 C430 0.950 . S
C419 H411 0.950 . S
C419 C420 1.386 . S
C419 C421 1.391 . S
C420 C419 1.386 . S
C420 C424 1.393 . S
C421 H413 0.950 . S
C421 C419 1.391 . S
C421 C422 1.400 . S
C422 C421 1.400 . S
C422 C423 1.398 . S
C422 C428 1.491 . S
C423 H414 0.950 . S
C423 C422 1.398 . S
C423 C424 1.391 . S
C424 H412 0.950 . S
C424 C420 1.393 . S
C424 C423 1.391 . S
C425 H415 0.950 . S
C425 C426 1.386 . S
C425 C427 1.391 . S
C426 C425 1.386 . S
C426 C430 1.393 . S
C427 H416 0.950 . S
C427 C425 1.391 . S
C427 C428 1.400 . S
C428 C422 1.491 . S
C428 C427 1.400 . S
C428 C429 1.398 . S
C429 H417 0.950 . S
C429 C428 1.398 . S
C429 C430 1.391 . S
C430 H418 0.950 . S
C430 C426 1.393 . S
C430 C429 1.391 . S
H431 C439 0.950 . S
H432 C444 0.950 . S
H433 C441 0.950 . S
H434 C443 0.950 . S
H435 C445 0.950 . S
H436 C447 0.950 . S
H437 C449 0.950 . S
H438 C450 0.950 . S
C439 H431 0.950 . S
C439 C440 1.386 . S
C439 C441 1.391 . S
C440 C439 1.386 . S
C440 C444 1.393 . S
C441 H433 0.950 . S
C441 C439 1.391 . S
C441 C442 1.400 . S
C442 C441 1.400 . S
C442 C443 1.398 . S
C442 C448 1.491 . S
C443 H434 0.950 . S
C443 C442 1.398 . S
C443 C444 1.391 . S
C444 H432 0.950 . S
C444 C440 1.393 . S
C444 C443 1.391 . S
C445 H435 0.950 . S
C445 C446 1.386 . S
C445 C447 1.391 . S
C446 C445 1.386 . S
C446 C450 1.393 . S
C447 H436 0.950 . S
C447 C445 1.391 . S
C447 C448 1.400 . S
C448 C442 1.491 . S
C448 C447 1.400 . S
C448 C449 1.398 . S
C449 H437 0.950 . S
C449 C448 1.398 . S
C449 C450 1.391 . S
C450 H438 0.950 . S
C450 C446 1.393 . S
C450 C449 1.391 . S
H451 C459 0.950 . S
H452 C464 0.950 . S
H453 C461 0.950 . S
H454 C463 0.950 . S
H455 C465 0.950 . S
H456 C467 0.950 . S
H457 C469 0.950 . S
H458 C470 0.950 . S
C459 H451 0.950 . S
C459 C460 1.386 . S
C459 C461 1.391 . S
C460 C459 1.386 . S
C460 C464 1.393 . S
C461 H453 0.950 . S
C461 C459 1.391 . S
C461 C462 1.400 . S
C462 C461 1.400 . S
C462 C463 1.398 . S
C462 C468 1.491 . S
C463 H454 0.950 . S
C463 C462 1.398 . S
C463 C464 1.391 . S
C464 H452 0.950 . S
C464 C460 1.393 . S
C464 C463 1.391 . S
C465 H455 0.950 . S
C465 C466 1.386 . S
C465 C467 1.391 . S
C466 C465 1.386 . S
C466 C470 1.393 . S
C467 H456 0.950 . S
C467 C465 1.391 . S
C467 C468 1.400 . S
C468 C462 1.491 . S
C468 C467 1.400 . S
C468 C469 1.398 . S
C469 H457 0.950 . S
C469 C468 1.398 . S
C469 C470 1.391 . S
C470 H458 0.950 . S
C470 C466 1.393 . S
C470 C469 1.391 . S
H471 C479 0.950 . S
H472 C484 0.950 . S
H473 C481 0.950 . S
H474 C483 0.950 . S
H475 C485 0.950 . S
H476 C487 0.950 . S
H477 C489 0.950 . S
H478 C490 0.950 . S
C479 H471 0.950 . S
C479 C480 1.386 . S
C479 C481 1.391 . S
C480 C479 1.386 . S
C480 C484 1.393 . S
C481 H473 0.950 . S
C481 C479 1.391 . S
C481 C482 1.400 . S
C482 C481 1.400 . S
C482 C483 1.398 . S
C482 C488 1.491 . S
C483 H474 0.950 . S
C483 C482 1.398 . S
C483 C484 1.391 . S
C484 H472 0.950 . S
C484 C480 1.393 . S
C484 C483 1.391 . S
C485 H475 0.950 . S
C485 C486 1.386 . S
C485 C487 1.391 . S
C486 C485 1.386 . S
C486 C490 1.393 . S
C487 H476 0.950 . S
C487 C485 1.391 . S
C487 C488 1.400 . S
C488 C482 1.491 . S
C488 C487 1.400 . S
C488 C489 1.398 . S
C489 H477 0.950 . S
C489 C488 1.398 . S
C489 C490 1.391 . S
C490 H478 0.950 . S
C490 C486 1.393 . S
C490 C489 1.391 . S
H491 C499 0.950 . S
H492 C504 0.950 . S
H493 C501 0.950 . S
H494 C503 0.950 . S
H495 C505 0.950 . S
H496 C507 0.950 . S
H497 C509 0.950 . S
H498 C510 0.950 . S
C499 H491 0.950 . S
C499 C500 1.386 . S
C499 C501 1.391 . S
C500 C499 1.386 . S
C500 C504 1.393 . S
C501 H493 0.950 . S
C501 C499 1.391 . S
C501 C502 1.400 . S
C502 C501 1.400 . S
C502 C503 1.398 . S
C502 C508 1.491 . S
C503 H494 0.950 . S
C503 C502 1.398 . S
C503 C504 1.391 . S
C504 H492 0.950 . S
C504 C500 1.393 . S
C504 C503 1.391 . S
C505 H495 0.950 . S
C505 C506 1.386 . S
C505 C507 1.391 . S
C506 C505 1.386 . S
C506 C510 1.393 . S
C507 H496 0.950 . S
C507 C505 1.391 . S
C507 C508 1.400 . S
C508 C502 1.491 . S
C508 C507 1.400 . S
C508 C509 1.398 . S
C509 H497 0.950 . S
C509 C508 1.398 . S
C509 C510 1.391 . S
C510 H498 0.950 . S
C510 C506 1.393 . S
C510 C509 1.391 . S
H511 C519 0.950 . S
H512 C524 0.950 . S
H513 C521 0.950 . S
H514 C523 0.950 . S
H515 C525 0.950 . S
H516 C527 0.950 . S
H517 C529 0.950 . S
H518 C530 0.950 . S
C519 H511 0.950 . S
C519 C520 1.386 . S
C519 C521 1.391 . S
C520 C519 1.386 . S
C520 C524 1.393 . S
C521 H513 0.950 . S
C521 C519 1.391 . S
C521 C522 1.400 . S
C522 C521 1.400 . S
C522 C523 1.398 . S
C522 C528 1.491 . S
C523 H514 0.950 . S
C523 C522 1.398 . S
C523 C524 1.391 . S
C524 H512 0.950 . S
C524 C520 1.393 . S
C524 C523 1.391 . S
C525 H515 0.950 . S
C525 C526 1.386 . S
C525 C527 1.391 . S
C526 C525 1.386 . S
C526 C530 1.393 . S
C527 H516 0.950 . S
C527 C525 1.391 . S
C527 C528 1.400 . S
C528 C522 1.491 . S
C528 C527 1.400 . S
C528 C529 1.398 . S
C529 H517 0.950 . S
C529 C528 1.398 . S
C529 C530 1.391 . S
C530 H518 0.950 . S
C530 C526 1.393 . S
C530 C529 1.391 . S
H531 C539 0.950 . S
H532 C544 0.950 . S
H533 C541 0.950 . S
H534 C543 0.950 . S
H535 C545 0.950 . S
H536 C547 0.950 . S
H537 C549 0.950 . S
H538 C550 0.950 . S
C539 H531 0.950 . S
C539 C540 1.386 . S
C539 C541 1.391 . S
C540 C539 1.386 . S
C540 C544 1.393 . S
C541 H533 0.950 . S
C541 C539 1.391 . S
C541 C542 1.400 . S
C542 C541 1.400 . S
C542 C543 1.398 . S
C542 C548 1.491 . S
C543 H534 0.950 . S
C543 C542 1.398 . S
C543 C544 1.391 . S
C544 H532 0.950 . S
C544 C540 1.393 . S
C544 C543 1.391 . S
C545 H535 0.950 . S
C545 C546 1.386 . S
C545 C547 1.391 . S
C546 C545 1.386 . S
C546 C550 1.393 . S
C547 H536 0.950 . S
C547 C545 1.391 . S
C547 C548 1.400 . S
C548 C542 1.491 . S
C548 C547 1.400 . S
C548 C549 1.398 . S
C549 H537 0.950 . S
C549 C548 1.398 . S
C549 C550 1.391 . S
C550 H538 0.950 . S
C550 C546 1.393 . S
C550 C549 1.391 . S
H551 C559 0.950 . S
H552 C564 0.950 . S
H553 C561 0.950 . S
H554 C563 0.950 . S
H555 C565 0.950 . S
H556 C567 0.950 . S
H557 C569 0.950 . S
H558 C570 0.950 . S
C559 H551 0.950 . S
C559 C560 1.386 . S
C559 C561 1.391 . S
C560 C559 1.386 . S
C560 C564 1.393 . S
C561 H553 0.950 . S
C561 C559 1.391 . S
C561 C562 1.400 . S
C562 C561 1.400 . S
C562 C563 1.398 . S
C562 C568 1.491 . S
C563 H554 0.950 . S
C563 C562 1.398 . S
C563 C564 1.391 . S
C564 H552 0.950 . S
C564 C560 1.393 . S
C564 C563 1.391 . S
C565 H555 0.950 . S
C565 C566 1.386 . S
C565 C567 1.391 . S
C566 C565 1.386 . S
C566 C570 1.393 . S
C567 H556 0.950 . S
C567 C565 1.391 . S
C567 C568 1.400 . S
C568 C562 1.491 . S
C568 C567 1.400 . S
C568 C569 1.398 . S
C569 H557 0.950 . S
C569 C568 1.398 . S
C569 C570 1.391 . S
C570 H558 0.950 . S
C570 C566 1.393 . S
C570 C569 1.391 . S
H571 C579 0.950 . S
H572 C584 0.950 . S
H573 C581 0.950 . S
H574 C583 0.950 . S
H575 C585 0.950 . S
H576 C587 0.950 . S
H577 C589 0.950 . S
H578 C590 0.950 . S
C579 H571 0.950 . S
C579 C580 1.386 . S
C579 C581 1.391 . S
C580 C579 1.386 . S
C580 C584 1.393 . S
C581 H573 0.950 . S
C581 C579 1.391 . S
C581 C582 1.400 . S
C582 C581 1.400 . S
C582 C583 1.398 . S
C582 C588 1.491 . S
C583 H574 0.950 . S
C583 C582 1.398 . S
C583 C584 1.391 . S
C584 H572 0.950 . S
C584 C580 1.393 . S
C584 C583 1.391 . S
C585 H575 0.950 . S
C585 C586 1.386 . S
C585 C587 1.391 . S
C586 C585 1.386 . S
C586 C590 1.393 . S
C587 H576 0.950 . S
C587 C585 1.391 . S
C587 C588 1.400 . S
C588 C582 1.491 . S
C588 C587 1.400 . S
C588 C589 1.398 . S
C589 H577 0.950 . S
C589 C588 1.398 . S
C589 C590 1.391 . S
C590 H578 0.950 . S
C590 C586 1.393 . S
C590 C589 1.391 . S
H591 C599 0.950 . S
H592 C604 0.950 . S
H593 C601 0.950 . S
H594 C603 0.950 . S
H595 C605 0.950 . S
H596 C607 0.950 . S
H597 C609 0.950 . S
H598 C610 0.950 . S
C599 H591 0.950 . S
C599 C600 1.386 . S
C599 C601 1.391 . S
C600 C599 1.386 . S
C600 C604 1.393 . S
C601 H593 0.950 . S
C601 C599 1.391 . S
C601 C602 1.400 . S
C602 C601 1.400 . S
C602 C603 1.398 . S
C602 C608 1.491 . S
C603 H594 0.950 . S
C603 C602 1.398 . S
C603 C604 1.391 . S
C604 H592 0.950 . S
C604 C600 1.393 . S
C604 C603 1.391 . S
C605 H595 0.950 . S
C605 C606 1.386 . S
C605 C607 1.391 . S
C606 C605 1.386 . S
C606 C610 1.393 . S
C607 H596 0.950 . S
C607 C605 1.391 . S
C607 C608 1.400 . S
C608 C602 1.491 . S
C608 C607 1.400 . S
C608 C609 1.398 . S
C609 H597 0.950 . S
C609 C608 1.398 . S
C609 C610 1.391 . S
C610 H598 0.950 . S
C610 C606 1.393 . S
C610 C609 1.391 . S
H611 C619 0.950 . S
H612 C624 0.950 . S
H613 C621 0.950 . S
H614 C623 0.950 . S
H615 C625 0.950 . S
H616 C627 0.950 . S
H617 C629 0.950 . S
H618 C630 0.950 . S
C619 H611 0.950 . S
C619 C620 1.386 . S
C619 C621 1.391 . S
C620 C619 1.386 . S
C620 C624 1.393 . S
C621 H613 0.950 . S
C621 C619 1.391 . S
C621 C622 1.400 . S
C622 C621 1.400 . S
C622 C623 1.398 . S
C622 C628 1.491 . S
C623 H614 0.950 . S
C623 C622 1.398 . S
C623 C624 1.391 . S
C624 H612 0.950 . S
C624 C620 1.393 . S
C624 C623 1.391 . S
C625 H615 0.950 . S
C625 C626 1.386 . S
C625 C627 1.391 . S
C626 C625 1.386 . S
C626 C630 1.393 . S
C627 H616 0.950 . S
C627 C625 1.391 . S
C627 C628 1.400 . S
C628 C622 1.491 . S
C628 C627 1.400 . S
C628 C629 1.398 . S
C629 H617 0.950 . S
C629 C628 1.398 . S
C629 C630 1.391 . S
C630 H618 0.950 . S
C630 C626 1.393 . S
C630 C629 1.391 . S
H631 C639 0.950 . S
H632 C644 0.950 . S
H633 C641 0.950 . S
H634 C643 0.950 . S
H635 C645 0.950 . S
H636 C647 0.950 . S
H637 C649 0.950 . S
H638 C650 0.950 . S
C639 H631 0.950 . S
C639 C640 1.386 . S
C639 C641 1.391 . S
C640 C639 1.386 . S
C640 C644 1.393 . S
C641 H633 0.950 . S
C641 C639 1.391 . S
C641 C642 1.400 . S
C642 C641 1.400 . S
C642 C643 1.398 . S
C642 C648 1.491 . S
C643 H634 0.950 . S
C643 C642 1.398 . S
C643 C644 1.391 . S
C644 H632 0.950 . S
C644 C640 1.393 . S
C644 C643 1.391 . S
C645 H635 0.950 . S
C645 C646 1.386 . S
C645 C647 1.391 . S
C646 C645 1.386 . S
C646 C650 1.393 . S
C647 H636 0.950 . S
C647 C645 1.391 . S
C647 C648 1.400 . S
C648 C642 1.491 . S
C648 C647 1.400 . S
C648 C649 1.398 . S
C649 H637 0.950 . S
C649 C648 1.398 . S
C649 C650 1.391 . S
C650 H638 0.950 . S
C650 C646 1.393 . S
C650 C649 1.391 . S
C186 C96 1.149 . S
C180 C4 1.212 . S
C206 C132 1.597 . S
C200 C13 1.722 . S
C226 C97 1.338 . S
C220 C25 1.342 . S
C246 C127 1.467 . S
C240 C32 1.507 . S
C266 C94 1.422 . S
C260 C41 1.495 . S
C280 C52 1.572 . S
C286 C130 1.585 . S
C300 C61 1.247 . S
C306 C99 1.157 . S
C326 C129 1.341 . S
C320 C67 1.409 . S
C346 C133 1.349 . S
C340 C7 1.392 . S
C366 C98 1.438 . S
C360 C14 1.498 . S
C386 C126 1.601 . S
C380 C22 1.597 . S
C406 C95 1.104 . S
C400 C31 1.237 . S
C426 C128 1.572 . S
C420 C40 1.702 . S
C440 C49 1.355 . S
C446 C93 1.341 . S
C460 C59 1.524 . S
C466 C131 1.446 . S
C486 C100 1.156 . S
C480 C70 1.204 . S
C506 C162 1.596 . S
C500 C5 1.697 . S
C520 C43 1.935 . S
C526 C165 1.811 . S
C546 C164 1.570 . S
C540 C50 1.620 . S
C560 C58 1.947 . S
C566 C163 1.928 . S
C586 C166 1.575 . S
C580 C68 1.694 . S
C600 C23 1.629 . S
C606 C160 1.578 . S
C626 C159 1.898 . S
C620 C34 1.915 . S
C640 C16 1.950 . S
C646 C161 1.809 . S
