# Generated by pormake.
# Topology zzz, (3,6)-cn, num edge types: 1
# Building blocks:
#     Node 0, Type 0, BuildingBlock: BELTOD_clean_linker_0, # of connection points: 3
#     Node 1, Type 0, BuildingBlock: BELTOD_clean_linker_0, # of connection points: 3
#     Node 2, Type 0, BuildingBlock: BELTOD_clean_linker_0, # of connection points: 3
#     Node 3, Type 0, BuildingBlock: BELTOD_clean_linker_0, # of connection points: 3
#     Node 4, Type 0, BuildingBlock: BELTOD_clean_linker_0, # of connection points: 3
#     Node 5, Type 0, BuildingBlock: BELTOD_clean_linker_0, # of connection points: 3
#     Node 6, Type 0, BuildingBlock: BELTOD_clean_linker_0, # of connection points: 3
#     Node 7, Type 0, BuildingBlock: BELTOD_clean_linker_0, # of connection points: 3
#     Node 8, Type 1, BuildingBlock: BETFAJ_clean_sbu_0, # of connection points: 6
#     Node 9, Type 1, BuildingBlock: BETFAJ_clean_sbu_0, # of connection points: 6
#     Node 10, Type 1, BuildingBlock: BETFAJ_clean_sbu_0, # of connection points: 6
#     Node 11, Type 1, BuildingBlock: BETFAJ_clean_sbu_0, # of connection points: 6
#     Edge 12, Type (0, 1), BuildingBlock: OJICUG_clean_linker_0, # of connection points: 2
#     Edge 13, Type (0, 1), BuildingBlock: OJICUG_clean_linker_0, # of connection points: 2
#     Edge 14, Type (0, 1), BuildingBlock: OJICUG_clean_linker_0, # of connection points: 2
#     Edge 15, Type (0, 1), BuildingBlock: OJICUG_clean_linker_0, # of connection points: 2
#     Edge 16, Type (0, 1), BuildingBlock: OJICUG_clean_linker_0, # of connection points: 2
#     Edge 17, Type (0, 1), BuildingBlock: OJICUG_clean_linker_0, # of connection points: 2
#     Edge 18, Type (0, 1), BuildingBlock: OJICUG_clean_linker_0, # of connection points: 2
#     Edge 19, Type (0, 1), BuildingBlock: OJICUG_clean_linker_0, # of connection points: 2
#     Edge 20, Type (0, 1), BuildingBlock: OJICUG_clean_linker_0, # of connection points: 2
#     Edge 21, Type (0, 1), BuildingBlock: OJICUG_clean_linker_0, # of connection points: 2
#     Edge 22, Type (0, 1), BuildingBlock: OJICUG_clean_linker_0, # of connection points: 2
#     Edge 23, Type (0, 1), BuildingBlock: OJICUG_clean_linker_0, # of connection points: 2
#     Edge 24, Type (0, 1), BuildingBlock: OJICUG_clean_linker_0, # of connection points: 2
#     Edge 25, Type (0, 1), BuildingBlock: OJICUG_clean_linker_0, # of connection points: 2
#     Edge 26, Type (0, 1), BuildingBlock: OJICUG_clean_linker_0, # of connection points: 2
#     Edge 27, Type (0, 1), BuildingBlock: OJICUG_clean_linker_0, # of connection points: 2
#     Edge 28, Type (0, 1), BuildingBlock: OJICUG_clean_linker_0, # of connection points: 2
#     Edge 29, Type (0, 1), BuildingBlock: OJICUG_clean_linker_0, # of connection points: 2
#     Edge 30, Type (0, 1), BuildingBlock: OJICUG_clean_linker_0, # of connection points: 2
#     Edge 31, Type (0, 1), BuildingBlock: OJICUG_clean_linker_0, # of connection points: 2
#     Edge 32, Type (0, 1), BuildingBlock: OJICUG_clean_linker_0, # of connection points: 2
#     Edge 33, Type (0, 1), BuildingBlock: OJICUG_clean_linker_0, # of connection points: 2
#     Edge 34, Type (0, 1), BuildingBlock: OJICUG_clean_linker_0, # of connection points: 2
#     Edge 35, Type (0, 1), BuildingBlock: OJICUG_clean_linker_0, # of connection points: 2
# Relax obj value: 0.506
# Max RMSD: 0.250
# Mean RMSD: 0.246
data_MOF--net-zzz--node1-BETFAJ_clean_sbu_0--node2-BELTOD_clean_linker_0--edge1-OJICUG_clean_linker_0
_symmetry_space_group_name_H-M    P1
_symmetry_Int_Tables_number       1
_symmetry_cell_setting            triclinic
loop_
_symmetry_equiv_pos_as_xyz
'x, y, z'
_cell_length_a     42.389583
_cell_length_b     42.354437
_cell_length_c     13.16395
_cell_angle_alpha  89.79488
_cell_angle_beta   89.822101
_cell_angle_gamma 89.968155
loop_
_atom_site_label
_atom_site_type_symbol
_atom_site_fract_x
_atom_site_fract_y
_atom_site_fract_z
_atom_type_partial_charge
P0 P 0.70692 0.47844 0.50281 0.0
H1 H 0.74206 0.45712 0.68241 0.0
H2 H 0.79516 0.46669 0.73947 0.0
H3 H 0.80259 0.54508 0.52977 0.0
H4 H 0.74815 0.53621 0.47707 0.0
H5 H 0.66433 0.43959 0.392 0.0
H6 H 0.62549 0.44875 0.26306 0.0
H7 H 0.63011 0.54903 0.32264 0.0
H8 H 0.67149 0.53924 0.44969 0.0
H9 H 0.7442 0.42348 0.44506 0.0
H10 H 0.72 0.51505 0.32182 0.0
O11 O 0.69787 0.44482 0.56279 0.0
H12 H 0.78474 0.41782 0.31391 0.0
H13 H 0.7603 0.50932 0.1918 0.0
C14 C 0.73993 0.49603 0.57526 0.0
C15 C 0.75433 0.47732 0.65098 0.0
C16 C 0.78571 0.48237 0.68213 0.0
C17 C 0.8047 0.50618 0.63794 0.0
C18 C 0.78955 0.52637 0.56691 0.0
C19 C 0.75782 0.52146 0.53658 0.0
C20 C 0.67064 0.48856 0.43388 0.0
C21 C 0.65646 0.46366 0.38007 0.0
C22 C 0.63382 0.46902 0.30485 0.0
C23 C 0.6239 0.49978 0.27979 0.0
C24 C 0.63712 0.52489 0.33719 0.0
C25 C 0.6605 0.51941 0.41222 0.0
C26 C 0.72919 0.4695 0.39233 0.0
C27 C 0.74663 0.44162 0.38742 0.0
C28 C 0.76951 0.43837 0.31263 0.0
C29 C 0.77506 0.46315 0.24382 0.0
C30 C 0.75572 0.48979 0.2432 0.0
C31 C 0.7329 0.49303 0.31781 0.0
P32 P 0.03241 0.70717 0.5066 0.0
H33 H 0.05828 0.74535 0.67219 0.0
H34 H 0.04993 0.79997 0.72162 0.0
H35 H 0.9652 0.80324 0.5431 0.0
H36 H 0.9737 0.74791 0.49131 0.0
H37 H 0.07083 0.65961 0.41418 0.0
H38 H 0.06204 0.62016 0.28566 0.0
H39 H 0.96168 0.63544 0.31049 0.0
H40 H 0.97091 0.67553 0.44257 0.0
H41 H 0.08696 0.74315 0.43742 0.0
H42 H 0.99335 0.72012 0.3313 0.0
O43 O 0.06657 0.69842 0.56304 0.0
H44 H 0.09128 0.78294 0.30305 0.0
H45 H 0.99815 0.75899 0.19694 0.0
C46 C 0.01639 0.74122 0.57857 0.0
C47 C 0.03702 0.75688 0.64604 0.0
C48 C 0.03253 0.78867 0.67387 0.0
C49 C 1.00701 0.80626 0.63629 0.0
C50 C 0.98512 0.79041 0.57386 0.0
C51 C 0.98977 0.75841 0.54518 0.0
C52 C 0.02157 0.67015 0.44276 0.0
C53 C 0.04665 0.65346 0.39703 0.0
C54 C 0.04162 0.63085 0.32133 0.0
C55 C 0.01112 0.6242 0.28626 0.0
C56 C 0.98563 0.63984 0.33488 0.0
C57 C 0.99076 0.66251 0.41217 0.0
C58 C 0.04016 0.7284 0.39297 0.0
C59 C 0.06814 0.74543 0.38245 0.0
C60 C 0.07065 0.76785 0.30581 0.0
C61 C 0.04515 0.77314 0.24029 0.0
C62 C 0.01825 0.75436 0.24549 0.0
C63 C 0.01563 0.73221 0.32243 0.0
P64 P 0.81339 0.03317 0.51201 0.0
H65 H 0.77664 0.05717 0.68239 0.0
H66 H 0.72291 0.04954 0.73028 0.0
H67 H 0.71978 0.96392 0.55245 0.0
H68 H 0.7741 0.97368 0.49701 0.0
H69 H 0.85612 0.07329 0.40829 0.0
H70 H 0.89596 0.06568 0.27966 0.0
H71 H 0.89033 0.96501 0.32304 0.0
H72 H 0.84973 0.97286 0.45702 0.0
H73 H 0.77231 0.08493 0.45103 0.0
H74 H 0.80347 0.99501 0.33278 0.0
O75 O 0.82109 0.06775 0.56736 0.0
H76 H 0.73228 0.08751 0.31761 0.0
H77 H 0.76418 0.99812 0.19947 0.0
C78 C 0.78064 0.01591 0.58629 0.0
C79 C 0.76518 0.03598 0.65556 0.0
C80 C 0.73351 0.0315 0.68351 0.0
C81 C 0.71557 1.00602 0.64602 0.0
C82 C 0.73178 0.98437 0.5823 0.0
C83 C 0.7636 0.9894 0.55225 0.0
C84 C 0.85049 0.02383 0.44701 0.0
C85 C 0.86452 0.04946 0.39574 0.0
C86 C 0.88724 0.04515 0.32039 0.0
C87 C 0.89667 0.01483 0.29154 0.0
C88 C 0.88404 0.98877 0.34541 0.0
C89 C 0.86092 0.9932 0.42244 0.0
C90 C 0.7912 0.04022 0.40012 0.0
C91 C 0.77164 0.06667 0.39373 0.0
C92 C 0.74905 0.06818 0.31782 0.0
C93 C 0.74617 0.04326 0.24874 0.0
C94 C 0.76697 0.01783 0.25097 0.0
C95 C 0.78936 0.01621 0.32703 0.0
P96 P 0.47813 0.81236 0.5135 0.0
H97 H 0.45771 0.77604 0.69225 0.0
H98 H 0.468 0.72173 0.74357 0.0
H99 H 0.5464 0.71766 0.53571 0.0
H100 H 0.53655 0.77283 0.48489 0.0
H101 H 0.43805 0.85426 0.40578 0.0
H102 H 0.44588 0.89355 0.27501 0.0
H103 H 0.54635 0.88942 0.32266 0.0
H104 H 0.53823 0.84908 0.45753 0.0
H105 H 0.42597 0.77072 0.46174 0.0
H106 H 0.51359 0.80277 0.32763 0.0
O107 O 0.44432 0.82037 0.57362 0.0
H108 H 0.42193 0.73056 0.3291 0.0
H109 H 0.5089 0.76358 0.19507 0.0
C110 C 0.49662 0.77969 0.58515 0.0
C111 C 0.47822 0.76444 0.66053 0.0
C112 C 0.48381 0.73287 0.68943 0.0
C113 C 0.50788 0.71511 0.64348 0.0
C114 C 0.52756 0.73062 0.57252 0.0
C115 C 0.52221 0.76251 0.54448 0.0
C116 C 0.48738 0.84907 0.44527 0.0
C117 C 0.4619 0.86252 0.39221 0.0
C118 C 0.46636 0.88492 0.31568 0.0
C119 C 0.49671 0.8947 0.28744 0.0
C120 C 0.52255 0.8827 0.34351 0.0
C121 C 0.51797 0.85977 0.42128 0.0
C122 C 0.46963 0.79003 0.40307 0.0
C123 C 0.44334 0.77023 0.4013 0.0
C124 C 0.44097 0.74759 0.32577 0.0
C125 C 0.46486 0.74496 0.25238 0.0
C126 C 0.48992 0.76618 0.24979 0.0
C127 C 0.49248 0.78848 0.32565 0.0
P128 P 0.3061 0.48504 0.05717 0.0
H129 H 0.2783 0.45638 0.87542 0.0
H130 H 0.22597 0.46193 0.80998 0.0
H131 H 0.2181 0.55308 0.95604 0.0
H132 H 0.27016 0.54549 0.0289 0.0
H133 H 0.356 0.44418 0.12864 0.0
H134 H 0.39788 0.45333 0.2459 0.0
H135 H 0.38971 0.55377 0.19597 0.0
H136 H 0.34661 0.54415 0.07463 0.0
H137 H 0.24639 0.46109 0.12843 0.0
H138 H 0.31508 0.52939 0.23121 0.0
O139 O 0.3048 0.44589 0.0431 0.0
H140 H 0.20872 0.48221 0.25163 0.0
H141 H 0.2778 0.54985 0.3516 0.0
C142 C 0.27877 0.50009 0.9597 0.0
C143 C 0.26586 0.47811 0.89159 0.0
C144 C 0.23498 0.48138 0.85389 0.0
C145 C 0.21573 0.50748 0.87965 0.0
C146 C 0.23053 0.53164 0.93701 0.0
C147 C 0.26133 0.52791 0.9767 0.0
C148 C 0.34725 0.49336 0.09198 0.0
C149 C 0.36383 0.4683 0.13769 0.0
C150 C 0.38823 0.47363 0.20665 0.0
C151 C 0.39738 0.50439 0.23306 0.0
C152 C 0.38322 0.52965 0.17902 0.0
C153 C 0.35887 0.52415 0.10746 0.0
C154 C 0.28388 0.49321 0.17 0.0
C155 C 0.254 0.47945 0.17996 0.0
C156 C 0.23254 0.4915 0.24979 0.0
C157 C 0.24098 0.51724 0.31034 0.0
C158 C 0.27131 0.52971 0.30559 0.0
C159 C 0.29269 0.51775 0.2358 0.0
P160 P 0.0469 0.30966 0.04449 0.0
H161 H 0.07475 0.27712 0.86866 0.0
H162 H 0.06771 0.22311 0.81117 0.0
H163 H 0.9789 0.21801 0.96979 0.0
H164 H 0.9865 0.27223 0.03151 0.0
H165 H 0.08615 0.35841 0.12742 0.0
H166 H 0.07594 0.39917 0.24793 0.0
H167 H 0.97603 0.39155 0.19011 0.0
H168 H 0.98675 0.34916 0.06671 0.0
H169 H 0.08058 0.25587 0.12625 0.0
H170 H 1.00053 0.31332 0.21198 0.0
O171 O 0.08551 0.31094 0.01917 0.0
H172 H 0.06196 0.21471 0.24124 0.0
H173 H 0.98199 0.27288 0.32243 0.0
C174 C 0.03135 0.27968 0.95588 0.0
C175 C 0.05306 0.2652 0.8891 0.0
C176 C 0.0493 0.23375 0.85692 0.0
C177 C 0.0231 0.21568 0.88733 0.0
C178 C 0.99953 0.23104 0.945 0.0
C179 C 1.00364 0.26251 0.97913 0.0
C180 C 0.0374 0.35003 0.08619 0.0
C181 C 0.06195 0.36616 0.13557 0.0
C182 C 0.056 0.3899 0.20655 0.0
C183 C 0.02505 0.39899 0.23139 0.0
C184 C 1.00028 0.38508 0.1748 0.0
C185 C 1.00641 0.36116 0.10197 0.0
C186 C 0.04225 0.28793 0.15998 0.0
C187 C 0.06005 0.26045 0.17317 0.0
C188 C 0.04911 0.2368 0.23763 0.0
C189 C 0.02011 0.24046 0.2884 0.0
C190 C 1.00445 0.26945 0.28457 0.0
C191 C 0.01538 0.29296 0.22049 0.0
P192 P 0.21162 0.04832 0.04348 0.0
H193 H 0.24089 0.07186 0.85409 0.0
H194 H 0.29386 0.06411 0.78965 0.0
H195 H 0.30374 0.98205 0.98337 0.0
H196 H 0.24979 0.98873 0.04073 0.0
H197 H 0.16327 0.08781 0.12787 0.0
H198 H 0.12248 0.07737 0.24916 0.0
H199 H 0.12931 0.97757 0.18625 0.0
H200 H 0.17188 0.98853 0.06307 0.0
H201 H 0.26643 0.08073 0.12168 0.0
H202 H 0.20663 1.00305 0.21446 0.0
O203 O 0.21112 0.08687 0.01638 0.0
H204 H 0.3073 0.06117 0.2354 0.0
H205 H 0.24692 0.98354 0.32364 0.0
C206 C 0.24067 0.03129 0.95445 0.0
C207 C 0.25378 0.05126 0.87964 0.0
C208 C 0.285 0.04727 0.84463 0.0
C209 C 0.30474 0.02322 0.88371 0.0
C210 C 0.2903 1.00117 0.95045 0.0
C211 C 0.25874 1.00482 0.98349 0.0
C212 C 0.17122 0.03913 0.08473 0.0
C213 C 0.15529 0.06364 0.13526 0.0
C214 C 0.13158 0.05754 0.20657 0.0
C215 C 0.12237 0.02649 0.23025 0.0
C216 C 0.13598 1.00185 0.17204 0.0
C217 C 0.15994 1.00813 0.09923 0.0
C218 C 0.23322 0.04367 0.15898 0.0
C219 C 0.26131 0.06058 0.16989 0.0
C220 C 0.2848 0.04908 0.23349 0.0
C221 C 0.28031 0.02048 0.28605 0.0
C222 C 0.2509 1.00571 0.28429 0.0
C223 C 0.22752 0.01721 0.22108 0.0
P224 P 0.48298 0.2142 0.05493 0.0
H225 H 0.45497 0.24188 0.87127 0.0
H226 H 0.46021 0.29426 0.80578 0.0
H227 H 0.55029 0.30303 0.95799 0.0
H228 H 0.54314 0.25065 0.02912 0.0
H229 H 0.44443 0.1614 0.11983 0.0
H230 H 0.45512 0.11927 0.23762 0.0
H231 H 0.55507 0.1346 0.20074 0.0
H232 H 0.54406 0.17757 0.07891 0.0
H233 H 0.46026 0.27562 0.11246 0.0
H234 H 0.52077 0.20439 0.24561 0.0
O235 O 0.44398 0.21387 0.03739 0.0
H236 H 0.48367 0.31484 0.22458 0.0
H237 H 0.5438 0.24342 0.35517 0.0
C238 C 0.49822 0.24171 0.95768 0.0
C239 C 0.47644 0.25456 0.88859 0.0
C240 C 0.47947 0.28559 0.85127 0.0
C241 C 0.50507 0.30522 0.87891 0.0
C242 C 0.52916 0.29046 0.93718 0.0
C243 C 0.52572 0.25943 0.97601 0.0
C244 C 0.4933 0.17344 0.08975 0.0
C245 C 0.46885 0.15504 0.13179 0.0
C246 C 0.475 0.13063 0.20083 0.0
C247 C 0.50595 0.12365 0.23109 0.0
C248 C 0.53083 0.13955 0.18039 0.0
C249 C 0.52458 0.16381 0.10874 0.0
C250 C 0.48928 0.23712 0.16728 0.0
C251 C 0.4775 0.26801 0.16799 0.0
C252 C 0.49098 0.2904 0.23116 0.0
C253 C 0.51566 0.28173 0.29597 0.0
C254 C 0.52485 0.25027 0.30454 0.0
C255 C 0.51169 0.22797 0.24037 0.0
Sm256 Sm 0.04097 1.0059 0.82241 0.0
Sm257 Sm 0.9804 0.01571 0.70191 0.0
C258 C 0.07675 0.985 0.96731 0.0
C259 C 0.0695 0.95451 0.01249 0.0
C260 C 0.03774 0.94484 0.01533 0.0
C261 C 0.02999 0.9138 0.03696 0.0
C262 C 0.05401 0.89198 0.05334 0.0
C263 C 0.08575 0.90109 0.04836 0.0
C264 C 0.09352 0.93238 0.02773 0.0
C265 C 0.05962 0.01539 0.62303 0.0
C266 C 1.00435 0.9428 0.72108 0.0
C267 C 0.94344 0.03865 0.56214 0.0
C268 C 0.94969 0.06952 0.51781 0.0
C269 C 0.98105 0.07992 0.51498 0.0
C270 C 0.98808 0.11028 0.48402 0.0
C271 C 0.9638 0.13058 0.45449 0.0
C272 C 0.93225 0.12123 0.46286 0.0
C273 C 0.92523 0.09082 0.49724 0.0
C274 C 0.96042 1.0061 0.89823 0.0
C275 C 0.01812 0.07887 0.80183 0.0
O276 O 0.05595 1.00736 0.98397 0.0
O277 O 0.08508 0.98268 0.8721 0.0
O278 O 0.03145 0.01542 0.65602 0.0
O279 O 0.07897 0.01158 0.6978 0.0
O280 O 0.02568 0.95391 0.7852 0.0
O281 O 0.9845 0.96188 0.67365 0.0
O282 O 0.96437 0.0167 0.54141 0.0
O283 O 0.9363 0.04016 0.65835 0.0
O284 O 0.98937 1.00603 0.87105 0.0
O285 O 0.94224 1.00718 0.81975 0.0
O286 O 0.9955 0.06749 0.74291 0.0
O287 O 0.03896 0.05986 0.84459 0.0
H288 H 0.01891 0.96095 0.99628 0.0
H289 H 1.00541 0.90687 0.04173 0.0
H290 H 0.10438 0.88412 0.06262 0.0
H291 H 0.11809 0.93912 0.02076 0.0
H292 H 1.00006 0.06469 0.53913 0.0
H293 H 0.01254 0.11774 0.48066 0.0
H294 H 0.91333 0.13716 0.44201 0.0
H295 H 0.901 0.08423 0.51015 0.0
Sm296 Sm 0.51476 0.04159 0.82548 0.0
Sm297 Sm 0.50512 0.98146 0.70198 0.0
C298 C 0.53548 0.07678 0.97226 0.0
C299 C 0.5655 0.06941 0.02012 0.0
C300 C 0.57439 0.03752 0.02834 0.0
C301 C 0.60506 0.02933 0.05283 0.0
C302 C 0.62752 0.053 0.06555 0.0
C303 C 0.61917 0.08488 0.05503 0.0
C304 C 0.58814 0.09309 0.03259 0.0
C305 C 0.50926 0.06111 0.62557 0.0
C306 C 0.57787 1.00341 0.7276 0.0
C307 C 0.48196 0.94633 0.55853 0.0
C308 C 0.45043 0.95218 0.51921 0.0
C309 C 0.43918 0.98333 0.51795 0.0
C310 C 0.40859 0.98966 0.48834 0.0
C311 C 0.38889 0.96489 0.45933 0.0
C312 C 0.39901 0.93355 0.46734 0.0
C313 C 0.42964 0.92725 0.5002 0.0
C314 C 0.51197 0.96088 0.89909 0.0
C315 C 0.44199 0.01968 0.80023 0.0
O316 O 0.51275 0.05625 0.98739 0.0
O317 O 0.53871 0.085 0.87719 0.0
O318 O 0.50777 0.03276 0.6573 0.0
O319 O 0.51194 0.08004 0.70191 0.0
O320 O 0.56637 0.02424 0.79323 0.0
O321 O 0.55894 0.98434 0.67697 0.0
O322 O 0.50287 0.96836 0.53895 0.0
O323 O 0.48199 0.93718 0.65311 0.0
O324 O 0.51299 0.98985 0.87194 0.0
O325 O 0.51137 0.94273 0.82034 0.0
O326 O 0.45355 0.99626 0.74498 0.0
O327 O 0.46058 0.04117 0.84083 0.0
H328 H 0.55803 0.01891 0.01027 0.0
H329 H 0.61141 1.00463 0.0601 0.0
H330 H 0.63654 0.10333 0.06555 0.0
H331 H 0.5821 0.11769 0.02109 0.0
H332 H 0.45387 1.00276 0.54168 0.0
H333 H 0.40055 0.01396 0.48495 0.0
H334 H 0.38354 0.91425 0.44693 0.0
H335 H 0.43689 0.9032 0.51288 0.0
Sm336 Sm 0.47796 0.51431 0.82615 0.0
Sm337 Sm 0.54028 0.50697 0.69247 0.0
C338 C 0.44361 0.53279 0.97754 0.0
C339 C 0.44942 0.56368 0.02174 0.0
C340 C 0.48082 0.57406 0.03201 0.0
C341 C 0.48719 0.60552 0.05175 0.0
C342 C 0.46232 0.62691 0.0604 0.0
C343 C 0.43105 0.61696 0.04865 0.0
C344 C 0.42462 0.5854 0.02886 0.0
C345 C 0.4603 0.50874 0.62457 0.0
C346 C 0.51378 0.57863 0.72514 0.0
C347 C 0.57669 0.48747 0.54575 0.0
C348 C 0.57451 0.45568 0.50304 0.0
C349 C 0.54506 0.44428 0.47142 0.0
C350 C 0.54108 0.41257 0.4498 0.0
C351 C 0.56663 0.39188 0.45789 0.0
C352 C 0.59616 0.40283 0.48864 0.0
C353 C 0.59988 0.43459 0.51348 0.0
C354 C 0.55748 0.51399 0.8945 0.0
C355 C 0.50397 0.44258 0.79146 0.0
O356 O 0.46602 0.51175 0.9903 0.0
O357 O 0.43333 0.53451 0.88416 0.0
O358 O 0.48817 0.50799 0.65975 0.0
O359 O 0.44047 0.51106 0.69929 0.0
O360 O 0.49423 0.5666 0.79451 0.0
O361 O 0.53285 0.5606 0.67038 0.0
O362 O 0.55271 0.50636 0.52858 0.0
O363 O 0.5861 0.48787 0.64009 0.0
O364 O 0.52982 0.51381 0.85824 0.0
O365 O 0.57752 0.51355 0.81999 0.0
O366 O 0.52561 0.45478 0.72946 0.0
O367 O 0.48301 0.46024 0.83975 0.0
H368 H 0.50057 0.55812 0.02167 0.0
H369 H 0.5114 0.61312 0.06167 0.0
H370 H 0.41168 0.63346 0.05726 0.0
H371 H 0.40046 0.57813 0.01617 0.0
H372 H 0.52482 0.45964 0.46651 0.0
H373 H 0.51811 0.40417 0.42586 0.0
H374 H 0.61602 0.38683 0.49465 0.0
H375 H 0.62221 0.44252 0.54369 0.0
Sm376 Sm 1.0077 0.47988 0.82289 0.0
Sm377 Sm 0.01352 0.5422 0.69448 0.0
C378 C 0.9897 0.44465 0.97345 0.0
C379 C 0.95866 0.44953 0.0184 0.0
C380 C 0.94751 0.48062 0.03123 0.0
C381 C 0.91589 0.48611 0.05196 0.0
C382 C 0.89514 0.46066 0.05864 0.0
C383 C 0.90588 0.42972 0.04465 0.0
C384 C 0.93758 0.42415 0.02425 0.0
C385 C 0.01564 0.46242 0.6222 0.0
C386 C 0.94214 0.51399 0.72405 0.0
C387 C 0.03214 0.57887 0.54657 0.0
C388 C 0.06344 0.5764 0.49935 0.0
C389 C 0.07301 0.54762 0.45636 0.0
C390 C 0.1047 0.54193 0.43719 0.0
C391 C 0.12715 0.56517 0.45839 0.0
C392 C 0.11776 0.59455 0.49577 0.0
C393 C 0.08607 0.5999 0.51813 0.0
C394 C 1.00473 0.55981 0.89498 0.0
C395 C 0.07882 0.50717 0.79131 0.0
O396 O 1.01014 0.46751 0.98672 0.0
O397 O 0.98832 0.43468 0.87975 0.0
O398 O 0.01486 0.49041 0.65664 0.0
O399 O 0.01367 0.4425 0.6969 0.0
O400 O 0.95504 0.49268 0.78582 0.0
O401 O 0.95955 0.53555 0.67684 0.0
O402 O 0.01264 0.55532 0.53101 0.0
O403 O 0.03295 0.5878 0.64142 0.0
O404 O 1.00604 0.53172 0.86132 0.0
O405 O 1.00512 0.57942 0.81925 0.0
O406 O 0.06614 0.52918 0.73187 0.0
O407 O 0.06154 0.48544 0.83747 0.0
H408 H 0.963 0.50081 0.02256 0.0
H409 H 0.90772 0.51004 0.06466 0.0
H410 H 0.88984 0.40991 0.05199 0.0
H411 H 0.9455 0.40023 0.01027 0.0
H412 H 0.05631 0.52886 0.44244 0.0
H413 H 0.11177 0.5192 0.40701 0.0
H414 H 0.13503 0.6127 0.51173 0.0
H415 H 0.07946 0.62175 0.55502 0.0
C416 C 0.10686 0.99441 0.38664 0.0
C417 C 0.10157 0.02053 0.3222 0.0
H418 H 0.09749 0.97239 0.53108 0.0
C419 C 0.07894 0.04306 0.35399 0.0
H420 H 0.12415 0.97664 0.3668 0.0
C421 C 0.06384 0.04066 0.44911 0.0
C422 C 0.07041 0.01542 0.51491 0.0
H423 H 0.07364 0.06339 0.30703 0.0
H424 H 0.04867 0.05967 0.4734 0.0
C425 C 0.09167 0.99204 0.48163 0.0
C426 C 0.49238 0.07645 0.34394 0.0
C427 C 0.51113 0.1034 0.32419 0.0
H428 H 0.47741 0.04145 0.45255 0.0
C429 C 0.53163 0.11353 0.40135 0.0
H430 H 0.4763 0.06781 0.28663 0.0
C431 C 0.53177 0.09862 0.49692 0.0
C432 C 0.51197 0.07267 0.51818 0.0
H433 H 0.54617 0.13428 0.39027 0.0
H434 H 0.5468 0.10814 0.55578 0.0
C435 C 0.49304 0.06111 0.43928 0.0
C436 C 0.44192 0.48679 0.35058 0.0
C437 C 0.41856 0.50926 0.32419 0.0
H438 H 0.47267 0.46843 0.46627 0.0
C439 C 0.41274 0.53385 0.39367 0.0
H440 H 0.44753 0.46759 0.29961 0.0
C441 C 0.42808 0.53463 0.48835 0.0
C442 C 0.45003 0.51118 0.51634 0.0
H443 H 0.39482 0.55142 0.37808 0.0
H444 H 0.42169 0.55294 0.54191 0.0
C445 C 0.45714 0.48759 0.44554 0.0
C446 C 0.99358 0.41494 0.38842 0.0
C447 C 0.01941 0.42009 0.32267 0.0
H448 H 0.97219 0.42459 0.53338 0.0
C449 C 0.04194 0.44296 0.35249 0.0
H450 H 0.97586 0.39747 0.3703 0.0
C451 C 0.03981 0.45844 0.44693 0.0
C452 C 0.01486 0.45197 0.51394 0.0
H453 H 0.06205 0.44817 0.30449 0.0
H454 H 0.05877 0.47389 0.47013 0.0
C455 C 0.99152 0.43046 0.48267 0.0
C456 C 0.90024 0.02269 0.10444 0.0
C457 C 0.91438 0.01136 0.19357 0.0
H458 H 0.90368 0.02999 0.94475 0.0
C459 C 0.94535 0.99931 0.18727 0.0
H460 H 0.87672 0.03273 0.10676 0.0
C461 C 0.96151 0.99832 0.09284 0.0
C462 C 0.94658 1.00858 1.00297 0.0
H463 H 0.95716 0.99115 0.2553 0.0
H464 H 0.98527 0.98925 0.09055 0.0
C465 C 0.91589 0.02113 0.0112 0.0
C466 C 0.51856 0.94158 0.1853 0.0
C467 C 0.50061 0.91358 0.19115 0.0
H468 H 0.5356 0.97948 0.09061 0.0
C469 C 0.48525 0.90334 0.10271 0.0
H470 H 0.53031 0.95042 0.25234 0.0
C471 C 0.48848 0.9197 0.01087 0.0
C472 C 0.50688 0.94727 1.00335 0.0
H473 H 0.47114 0.88201 0.10379 0.0
H474 H 0.47667 0.91035 0.94456 0.0
C475 C 0.52134 0.95848 0.09255 0.0
C476 C 0.58148 0.48154 0.15312 0.0
C477 C 0.60217 0.50531 0.18929 0.0
H478 H 0.55081 0.46575 0.03299 0.0
C479 C 0.60376 0.53356 0.13219 0.0
H480 H 0.57869 0.45951 0.19398 0.0
C481 C 0.58698 0.53722 0.04075 0.0
C482 C 0.56758 0.51309 1.0032 0.0
H483 H 0.61942 0.55243 0.15438 0.0
H484 H 0.59039 0.55857 0.99653 0.0
C485 C 0.56468 0.4853 0.06131 0.0
C486 C 0.02597 0.57737 0.17184 0.0
C487 C 1.00665 0.60394 0.19262 0.0
H488 H 0.04002 0.54178 0.06322 0.0
C489 C 0.98477 0.61294 0.11769 0.0
H490 H 0.04328 0.56962 0.22691 0.0
C491 C 0.98308 0.59702 0.02441 0.0
C492 C 1.00265 0.57105 1.00268 0.0
H493 H 0.96999 0.6335 0.1286 0.0
H494 H 0.96704 0.60589 0.96708 0.0
C495 C 0.02385 0.56102 0.07839 0.0
C496 C 0.98561 0.21516 0.41978 0.0
C497 C 1.00366 0.21293 0.33024 0.0
H498 H 0.95758 0.19001 0.52938 0.0
C499 C 1.00434 0.18452 0.27586 0.0
H500 H 0.98435 0.23702 0.46202 0.0
C501 C 0.98906 0.15818 0.31378 0.0
C502 C 0.97263 0.15998 0.40576 0.0
H503 H 0.0169 0.18249 0.20435 0.0
H504 H 0.99118 0.13597 0.27362 0.0
C505 C 0.97006 0.18863 0.45759 0.0
C506 C 0.3048 0.98753 0.42238 0.0
C507 C 0.30731 1.00366 0.32918 0.0
H508 H 0.32956 0.96143 0.53729 0.0
C509 C 0.33557 1.00249 0.27366 0.0
H510 H 0.28299 0.98774 0.4655 0.0
C511 C 0.36161 0.98737 0.3139 0.0
C512 C 0.35962 0.97302 0.40943 0.0
H513 H 0.33773 0.01365 0.19975 0.0
H514 H 0.3838 0.98817 0.27275 0.0
C515 C 0.33105 0.97225 0.46273 0.0
C516 C 0.53317 0.311 0.44799 0.0
C517 C 0.5345 0.3062 0.34301 0.0
H518 H 0.5433 0.3432 0.56882 0.0
C519 C 0.55186 0.32661 0.28032 0.0
H520 H 0.51983 0.29515 0.49656 0.0
C521 C 0.56579 0.35324 0.32136 0.0
C522 C 0.56213 0.3596 0.42484 0.0
H523 H 0.5531 0.32284 0.19897 0.0
H524 H 0.57706 0.3702 0.27118 0.0
C525 C 0.54675 0.33801 0.48899 0.0
C526 C 0.20377 0.56145 0.3213 0.0
C527 C 0.21654 0.53409 0.36506 0.0
H528 H 0.1645 0.59323 0.31919 0.0
C529 C 0.20263 0.52037 0.45077 0.0
H530 H 0.2143 0.57187 0.25392 0.0
C531 C 0.17447 0.53256 0.48799 0.0
C532 C 0.16023 0.5583 0.43883 0.0
H533 H 0.21247 0.49918 0.48452 0.0
H534 H 0.16269 0.52063 0.55044 0.0
C535 C 0.17557 0.57361 0.35837 0.0
C536 C 0.04473 0.80477 0.08158 0.0
C537 C 0.04325 0.80301 0.18763 0.0
H538 H 0.04941 0.83593 0.95331 0.0
C539 C 0.04072 0.8303 0.2466 0.0
H540 H 0.04596 0.78354 0.03605 0.0
C541 C 0.04214 0.85953 0.20037 0.0
C542 C 0.04621 0.86147 0.0953 0.0
H543 H 0.03881 0.82894 0.3287 0.0
H544 H 0.04178 0.88059 0.24694 0.0
C545 C 0.04653 0.83429 0.03498 0.0
C546 C 0.71516 0.05157 0.09266 0.0
C547 C 0.71724 0.04034 0.19228 0.0
H548 H 0.68369 0.06433 0.97218 0.0
C549 C 0.6906 0.02913 0.24386 0.0
H550 H 0.73592 0.06002 0.05279 0.0
C551 C 0.66133 0.03118 0.19834 0.0
C552 C 0.65872 0.04475 0.1017 0.0
H553 H 0.69228 0.02043 0.32127 0.0
H554 H 0.64056 0.02424 0.24113 0.0
C555 C 0.68568 0.05396 0.04723 0.0
C556 C 0.47639 0.68875 0.25154 0.0
C557 C 0.46785 0.7158 0.197 0.0
H558 H 0.48177 0.63877 0.24762 0.0
C559 C 0.46166 0.71444 0.09285 0.0
H560 H 0.48171 0.68992 0.33198 0.0
C561 C 0.46153 0.68522 0.04478 0.0
C562 C 0.4683 0.65795 0.10124 0.0
H563 H 0.45564 0.73558 0.05054 0.0
H564 H 0.45507 0.68371 0.96537 0.0
C565 C 0.47675 0.65985 0.20356 0.0
C566 C 0.80752 0.46719 0.08666 0.0
C567 C 0.80529 0.46476 0.19261 0.0
H568 H 0.83917 0.46762 0.95872 0.0
C569 C 0.83243 0.46473 0.25291 0.0
H570 H 0.7865 0.46805 0.04011 0.0
C571 C 0.86178 0.46509 0.2076 0.0
C572 C 0.86418 0.46544 0.10189 0.0
H573 H 0.83085 0.4639 0.33512 0.0
H574 H 0.88267 0.4639 0.25485 0.0
C575 C 0.83722 0.46717 0.04082 0.0
C576 C 0.99503 0.1668 0.81874 0.0
C577 C 0.02168 0.18067 0.86413 0.0
H578 H 0.97326 0.1246 0.76124 0.0
C579 C 0.04734 0.16068 0.88745 0.0
H580 H 0.97492 0.18131 0.79894 0.0
C581 C 0.04622 0.12794 0.86762 0.0
C582 C 0.01963 0.11403 0.82166 0.0
H583 H 0.06824 0.17032 0.92286 0.0
H584 H 0.06635 0.11355 0.88815 0.0
C585 C 0.99418 0.13415 0.79675 0.0
C586 C 0.35799 0.99414 0.87027 0.0
C587 C 0.34008 0.02216 0.85908 0.0
H588 H 0.40343 0.97152 0.86103 0.0
C589 C 0.35683 0.04949 0.82725 0.0
H590 H 0.34691 0.97229 0.89329 0.0
C591 C 0.38966 0.04883 0.80856 0.0
C592 C 0.40707 0.0208 0.8199 0.0
H593 H 0.34493 0.07191 0.81863 0.0
H594 H 0.40141 0.07029 0.78432 0.0
C595 C 0.39072 0.99349 0.85063 0.0
C596 C 0.52774 0.36169 0.89617 0.0
C597 C 0.50557 0.34068 0.85231 0.0
H598 H 0.54478 0.40941 0.91057 0.0
C599 C 0.48294 0.35467 0.78639 0.0
H600 H 0.54543 0.35346 0.94871 0.0
C601 C 0.48217 0.3875 0.76758 0.0
C602 C 0.50444 0.40774 0.81133 0.0
H603 H 0.46541 0.34072 0.74798 0.0
H604 H 0.46423 0.39704 0.7177 0.0
C605 C 0.52735 0.39438 0.87512 0.0
C606 C 0.15925 0.52947 0.90092 0.0
C607 C 0.18049 0.50844 0.85233 0.0
H608 H 0.11137 0.5458 0.91887 0.0
C609 C 0.16699 0.48728 0.78102 0.0
H610 H 0.16727 0.54586 0.95785 0.0
C611 C 0.13424 0.48671 0.76172 0.0
C612 C 0.11367 0.50781 0.8104 0.0
H613 H 0.18137 0.4709 0.73871 0.0
H614 H 0.12501 0.46982 0.70784 0.0
C615 C 0.12664 0.52935 0.87946 0.0
C616 C 0.98684 0.85367 0.7371 0.0
C617 C 1.00498 0.84137 0.65638 0.0
H618 H 0.97241 0.89504 0.82111 0.0
C619 C 0.02275 0.86289 0.5976 0.0
H620 H 0.97327 0.83783 0.78495 0.0
C621 C 0.02216 0.89563 0.61805 0.0
C622 C 1.00397 0.90795 0.69841 0.0
H623 H 0.03731 0.85432 0.53581 0.0
H624 H 0.03623 0.91137 0.57133 0.0
C625 C 0.98639 0.88647 0.75794 0.0
C626 C 0.66665 0.01917 0.75425 0.0
C627 C 0.68025 1.00336 0.67007 0.0
H628 H 0.62491 0.03217 0.83664 0.0
C629 C 0.65922 0.98627 0.60746 0.0
H630 H 0.68112 0.03191 0.80759 0.0
C631 C 0.62639 0.9855 0.62732 0.0
C632 C 0.61309 1.00224 0.70943 0.0
H633 H 0.66775 0.97398 0.54099 0.0
H634 H 0.61133 0.97236 0.57638 0.0
C635 C 0.6339 0.01899 0.77248 0.0
C636 C 0.52067 0.66847 0.75925 0.0
C637 C 0.51064 0.68013 0.66416 0.0
H638 H 0.52982 0.62751 0.85294 0.0
C639 C 0.50167 0.65799 0.59002 0.0
H640 H 0.5276 0.68479 0.81823 0.0
C641 C 0.50301 0.62524 0.60981 0.0
C642 C 0.51312 0.61357 0.70464 0.0
H643 H 0.49309 0.66608 0.51699 0.0
H644 H 0.49554 0.60896 0.55132 0.0
C645 C 0.52186 0.63565 0.77924 0.0
C646 C 0.85712 0.53722 0.64897 0.0
C647 C 0.83998 0.50881 0.66283 0.0
H648 H 0.90192 0.56125 0.656 0.0
C649 C 0.85739 0.48249 0.69898 0.0
H650 H 0.8453 0.55842 0.62339 0.0
C651 C 0.88992 0.48452 0.72071 0.0
C652 C 0.90692 0.51269 0.70502 0.0
H653 H 0.84626 0.45973 0.7088 0.0
H654 H 0.90197 0.46354 0.74752 0.0
C655 C 0.88991 0.53901 0.66859 0.0
loop_
_geom_bond_atom_site_label_1
_geom_bond_atom_site_label_2
_geom_bond_distance
_geom_bond_site_symmetry_2
_ccdc_geom_bond_type
P0 O11 1.490 . S
P0 C14 1.812 . S
P0 C20 1.803 . S
P0 C26 1.819 . S
H1 C15 0.941 . S
H2 C16 0.939 . S
H3 C18 0.940 . S
H4 C19 0.940 . S
H5 C21 0.939 . S
H6 C22 0.942 . S
H7 C24 0.940 . S
H8 C25 0.939 . S
H9 C27 0.941 . S
H10 C31 0.939 . S
O11 P0 1.490 . S
H12 C28 0.939 . S
H13 C30 0.940 . S
C14 P0 1.812 . S
C14 C15 1.389 . S
C14 C19 1.391 . S
C15 H1 0.941 . S
C15 C14 1.389 . S
C15 C16 1.397 . S
C16 H2 0.939 . S
C16 C15 1.397 . S
C16 C17 1.378 . S
C17 C16 1.378 . S
C17 C18 1.378 . S
C18 H3 0.940 . S
C18 C17 1.378 . S
C18 C19 1.396 . S
C19 H4 0.940 . S
C19 C14 1.391 . S
C19 C18 1.396 . S
C20 P0 1.803 . S
C20 C21 1.378 . S
C20 C25 1.400 . S
C21 H5 0.939 . S
C21 C20 1.378 . S
C21 C22 1.361 . S
C22 H6 0.942 . S
C22 C21 1.361 . S
C22 C23 1.369 . S
C23 C22 1.369 . S
C23 C24 1.404 . S
C24 H7 0.940 . S
C24 C23 1.404 . S
C24 C25 1.389 . S
C25 H8 0.939 . S
C25 C20 1.400 . S
C25 C24 1.389 . S
C26 P0 1.819 . S
C26 C27 1.391 . S
C26 C31 1.391 . S
C27 H9 0.941 . S
C27 C26 1.391 . S
C27 C28 1.396 . S
C28 H12 0.939 . S
C28 C27 1.396 . S
C28 C29 1.397 . S
C29 C28 1.397 . S
C29 C30 1.385 . S
C30 H13 0.940 . S
C30 C29 1.385 . S
C30 C31 1.388 . S
C31 H10 0.939 . S
C31 C26 1.391 . S
C31 C30 1.388 . S
P32 O43 1.490 . S
P32 C46 1.812 . S
P32 C52 1.803 . S
P32 C58 1.819 . S
H33 C47 0.941 . S
H34 C48 0.939 . S
H35 C50 0.940 . S
H36 C51 0.950 . S
H37 C53 0.939 . S
H38 C54 0.942 . S
H39 C56 0.940 . S
H40 C57 0.959 . S
H41 C59 0.941 . S
H42 C63 0.929 1_655 S
O43 P32 1.490 . S
H44 C60 0.939 . S
H45 C62 0.940 . S
C46 P32 1.812 . S
C46 C47 1.389 . S
C46 C51 1.375 1_455 S
C47 H33 0.941 . S
C47 C46 1.389 . S
C47 C48 1.397 . S
C48 H34 0.939 . S
C48 C47 1.397 . S
C48 C49 1.378 . S
C49 C48 1.378 . S
C49 C50 1.378 1_455 S
C50 H35 0.940 . S
C50 C49 1.378 1_655 S
C50 C51 1.403 . S
C51 H36 0.950 . S
C51 C46 1.375 1_655 S
C51 C50 1.403 . S
C52 P32 1.803 . S
C52 C53 1.378 . S
C52 C57 1.368 1_455 S
C53 H37 0.939 . S
C53 C52 1.378 . S
C53 C54 1.361 . S
C54 H38 0.942 . S
C54 C53 1.361 . S
C54 C55 1.369 . S
C55 C54 1.369 . S
C55 C56 1.404 1_455 S
C56 H39 0.940 . S
C56 C55 1.404 1_655 S
C56 C57 1.402 . S
C57 H40 0.959 . S
C57 C52 1.368 1_655 S
C57 C56 1.402 . S
C58 P32 1.819 . S
C58 C59 1.391 . S
C58 C63 1.391 . S
C59 H41 0.941 . S
C59 C58 1.391 . S
C59 C60 1.396 . S
C60 H44 0.939 . S
C60 C59 1.396 . S
C60 C61 1.397 . S
C61 C60 1.397 . S
C61 C62 1.385 1_455 S
C62 H45 0.940 . S
C62 C61 1.385 1_655 S
C62 C63 1.388 1_655 S
C63 H42 0.929 1_455 S
C63 C58 1.391 . S
C63 C62 1.388 1_455 S
P64 O75 1.490 . S
P64 C78 1.812 . S
P64 C84 1.803 . S
P64 C90 1.819 . S
H65 C79 0.941 . S
H66 C80 0.939 . S
H67 C82 0.940 . S
H68 C83 0.950 . S
H69 C85 0.939 . S
H70 C86 0.942 . S
H71 C88 0.940 . S
H72 C89 0.959 . S
H73 C91 0.941 . S
H74 C95 0.929 1_565 S
O75 P64 1.490 . S
H76 C92 0.939 . S
H77 C94 0.940 . S
C78 P64 1.812 . S
C78 C79 1.389 . S
C78 C83 1.375 1_545 S
C79 H65 0.941 . S
C79 C78 1.389 . S
C79 C80 1.397 . S
C80 H66 0.939 . S
C80 C79 1.397 . S
C80 C81 1.378 . S
C81 C80 1.378 . S
C81 C82 1.378 1_545 S
C82 H67 0.940 . S
C82 C81 1.378 1_565 S
C82 C83 1.402 . S
C83 H68 0.950 . S
C83 C78 1.375 1_565 S
C83 C82 1.402 . S
C84 P64 1.803 . S
C84 C85 1.378 . S
C84 C89 1.368 1_545 S
C85 H69 0.939 . S
C85 C84 1.378 . S
C85 C86 1.361 . S
C86 H70 0.942 . S
C86 C85 1.361 . S
C86 C87 1.369 . S
C87 C86 1.369 . S
C87 C88 1.404 1_545 S
C88 H71 0.940 . S
C88 C87 1.404 1_565 S
C88 C89 1.402 . S
C89 H72 0.959 . S
C89 C84 1.368 1_565 S
C89 C88 1.402 . S
C90 P64 1.819 . S
C90 C91 1.391 . S
C90 C95 1.391 . S
C91 H73 0.941 . S
C91 C90 1.391 . S
C91 C92 1.396 . S
C92 H76 0.939 . S
C92 C91 1.396 . S
C92 C93 1.397 . S
C93 C92 1.397 . S
C93 C94 1.385 1_545 S
C94 H77 0.940 . S
C94 C93 1.385 1_565 S
C94 C95 1.388 1_565 S
C95 H74 0.929 1_545 S
C95 C90 1.391 . S
C95 C94 1.388 1_545 S
P96 O107 1.490 . S
P96 C110 1.812 . S
P96 C116 1.803 . S
P96 C122 1.819 . S
H97 C111 0.941 . S
H98 C112 0.939 . S
H99 C114 0.940 . S
H100 C115 0.940 . S
H101 C117 0.939 . S
H102 C118 0.942 . S
H103 C120 0.940 . S
H104 C121 0.939 . S
H105 C123 0.941 . S
H106 C127 0.939 . S
O107 P96 1.490 . S
H108 C124 0.939 . S
H109 C126 0.940 . S
C110 P96 1.812 . S
C110 C111 1.389 . S
C110 C115 1.391 . S
C111 H97 0.941 . S
C111 C110 1.389 . S
C111 C112 1.397 . S
C112 H98 0.939 . S
C112 C111 1.397 . S
C112 C113 1.378 . S
C113 C112 1.378 . S
C113 C114 1.378 . S
C114 H99 0.940 . S
C114 C113 1.378 . S
C114 C115 1.396 . S
C115 H100 0.940 . S
C115 C110 1.391 . S
C115 C114 1.396 . S
C116 P96 1.803 . S
C116 C117 1.378 . S
C116 C121 1.400 . S
C117 H101 0.939 . S
C117 C116 1.378 . S
C117 C118 1.361 . S
C118 H102 0.942 . S
C118 C117 1.361 . S
C118 C119 1.369 . S
C119 C118 1.369 . S
C119 C120 1.404 . S
C120 H103 0.940 . S
C120 C119 1.404 . S
C120 C121 1.389 . S
C121 H104 0.939 . S
C121 C116 1.400 . S
C121 C120 1.389 . S
C122 P96 1.819 . S
C122 C123 1.391 . S
C122 C127 1.391 . S
C123 H105 0.941 . S
C123 C122 1.391 . S
C123 C124 1.396 . S
C124 H108 0.939 . S
C124 C123 1.396 . S
C124 C125 1.397 . S
C125 C124 1.397 . S
C125 C126 1.385 . S
C126 H109 0.940 . S
C126 C125 1.385 . S
C126 C127 1.388 . S
C127 H106 0.939 . S
C127 C122 1.391 . S
C127 C126 1.388 . S
P128 O139 1.490 . S
P128 C142 1.812 1_554 S
P128 C148 1.803 . S
P128 C154 1.819 . S
H129 C143 0.941 . S
H130 C144 0.939 . S
H131 C146 0.940 . S
H132 C147 0.940 . S
H133 C149 0.939 . S
H134 C150 0.942 . S
H135 C152 0.940 . S
H136 C153 0.939 . S
H137 C155 0.941 . S
H138 C159 0.939 . S
O139 P128 1.490 . S
H140 C156 0.939 . S
H141 C158 0.940 . S
C142 P128 1.812 1_556 S
C142 C143 1.389 . S
C142 C147 1.391 . S
C143 H129 0.941 . S
C143 C142 1.389 . S
C143 C144 1.397 . S
C144 H130 0.939 . S
C144 C143 1.397 . S
C144 C145 1.378 . S
C145 C144 1.378 . S
C145 C146 1.378 . S
C146 H131 0.940 . S
C146 C145 1.378 . S
C146 C147 1.396 . S
C147 H132 0.940 . S
C147 C142 1.391 . S
C147 C146 1.396 . S
C148 P128 1.803 . S
C148 C149 1.378 . S
C148 C153 1.400 . S
C149 H133 0.939 . S
C149 C148 1.378 . S
C149 C150 1.361 . S
C150 H134 0.942 . S
C150 C149 1.361 . S
C150 C151 1.369 . S
C151 C150 1.369 . S
C151 C152 1.404 . S
C152 H135 0.940 . S
C152 C151 1.404 . S
C152 C153 1.389 . S
C153 H136 0.939 . S
C153 C148 1.400 . S
C153 C152 1.389 . S
C154 P128 1.819 . S
C154 C155 1.391 . S
C154 C159 1.391 . S
C155 H137 0.941 . S
C155 C154 1.391 . S
C155 C156 1.396 . S
C156 H140 0.939 . S
C156 C155 1.396 . S
C156 C157 1.397 . S
C157 C156 1.397 . S
C157 C158 1.385 . S
C158 H141 0.940 . S
C158 C157 1.385 . S
C158 C159 1.388 . S
C159 H138 0.939 . S
C159 C154 1.391 . S
C159 C158 1.388 . S
P160 O171 1.490 . S
P160 C174 1.812 1_554 S
P160 C180 1.803 . S
P160 C186 1.819 . S
H161 C175 0.941 . S
H162 C176 0.939 . S
H163 C178 0.940 . S
H164 C179 0.945 . S
H165 C181 0.939 . S
H166 C182 0.942 . S
H167 C184 0.940 . S
H168 C185 0.954 . S
H169 C187 0.941 . S
H170 C191 0.932 1_655 S
O171 P160 1.490 . S
H172 C188 0.939 . S
H173 C190 0.940 . S
C174 P160 1.812 1_556 S
C174 C175 1.389 . S
C174 C179 1.383 1_455 S
C175 H161 0.941 . S
C175 C174 1.389 . S
C175 C176 1.397 . S
C176 H162 0.939 . S
C176 C175 1.397 . S
C176 C177 1.378 . S
C177 C176 1.378 . S
C177 C178 1.378 1_455 S
C178 H163 0.940 . S
C178 C177 1.378 1_655 S
C178 C179 1.400 . S
C179 H164 0.945 . S
C179 C174 1.383 1_655 S
C179 C178 1.400 . S
C180 P160 1.803 . S
C180 C181 1.378 . S
C180 C185 1.376 1_455 S
C181 H165 0.939 . S
C181 C180 1.378 . S
C181 C182 1.361 . S
C182 H166 0.942 . S
C182 C181 1.361 . S
C182 C183 1.369 . S
C183 C182 1.369 . S
C183 C184 1.404 1_455 S
C184 H167 0.940 . S
C184 C183 1.404 1_655 S
C184 C185 1.399 . S
C185 H168 0.954 . S
C185 C180 1.376 1_655 S
C185 C184 1.399 . S
C186 P160 1.819 . S
C186 C187 1.391 . S
C186 C191 1.391 . S
C187 H169 0.941 . S
C187 C186 1.391 . S
C187 C188 1.396 . S
C188 H172 0.939 . S
C188 C187 1.396 . S
C188 C189 1.397 . S
C189 C188 1.397 . S
C189 C190 1.385 1_455 S
C190 H173 0.940 . S
C190 C189 1.385 1_655 S
C190 C191 1.388 1_655 S
C191 H170 0.932 1_455 S
C191 C186 1.391 . S
C191 C190 1.388 1_455 S
P192 O203 1.490 . S
P192 C206 1.812 1_554 S
P192 C212 1.803 . S
P192 C218 1.819 . S
H193 C207 0.941 . S
H194 C208 0.939 . S
H195 C210 0.940 . S
H196 C211 0.945 . S
H197 C213 0.939 . S
H198 C214 0.942 . S
H199 C216 0.940 . S
H200 C217 0.954 . S
H201 C219 0.941 . S
H202 C223 0.932 1_565 S
O203 P192 1.490 . S
H204 C220 0.939 . S
H205 C222 0.940 . S
C206 P192 1.812 1_556 S
C206 C207 1.389 . S
C206 C211 1.383 1_545 S
C207 H193 0.941 . S
C207 C206 1.389 . S
C207 C208 1.397 . S
C208 H194 0.939 . S
C208 C207 1.397 . S
C208 C209 1.378 . S
C209 C208 1.378 . S
C209 C210 1.378 1_545 S
C210 H195 0.940 . S
C210 C209 1.378 1_565 S
C210 C211 1.400 . S
C211 H196 0.945 . S
C211 C206 1.383 1_565 S
C211 C210 1.400 . S
C212 P192 1.803 . S
C212 C213 1.378 . S
C212 C217 1.376 1_545 S
C213 H197 0.939 . S
C213 C212 1.378 . S
C213 C214 1.361 . S
C214 H198 0.942 . S
C214 C213 1.361 . S
C214 C215 1.369 . S
C215 C214 1.369 . S
C215 C216 1.404 1_545 S
C216 H199 0.940 . S
C216 C215 1.404 1_565 S
C216 C217 1.399 . S
C217 H200 0.954 . S
C217 C212 1.376 1_565 S
C217 C216 1.399 . S
C218 P192 1.819 . S
C218 C219 1.391 . S
C218 C223 1.391 . S
C219 H201 0.941 . S
C219 C218 1.391 . S
C219 C220 1.396 . S
C220 H204 0.939 . S
C220 C219 1.396 . S
C220 C221 1.397 . S
C221 C220 1.397 . S
C221 C222 1.385 1_545 S
C222 H205 0.940 . S
C222 C221 1.385 1_565 S
C222 C223 1.388 1_565 S
C223 H202 0.932 1_545 S
C223 C218 1.391 . S
C223 C222 1.388 1_545 S
P224 O235 1.490 . S
P224 C238 1.812 1_554 S
P224 C244 1.803 . S
P224 C250 1.819 . S
H225 C239 0.941 . S
H226 C240 0.939 . S
H227 C242 0.940 . S
H228 C243 0.940 . S
H229 C245 0.939 . S
H230 C246 0.942 . S
H231 C248 0.940 . S
H232 C249 0.939 . S
H233 C251 0.941 . S
H234 C255 0.939 . S
O235 P224 1.490 . S
H236 C252 0.939 . S
H237 C254 0.940 . S
C238 P224 1.812 1_556 S
C238 C239 1.389 . S
C238 C243 1.391 . S
C239 H225 0.941 . S
C239 C238 1.389 . S
C239 C240 1.397 . S
C240 H226 0.939 . S
C240 C239 1.397 . S
C240 C241 1.378 . S
C241 C240 1.378 . S
C241 C242 1.378 . S
C242 H227 0.940 . S
C242 C241 1.378 . S
C242 C243 1.396 . S
C243 H228 0.940 . S
C243 C238 1.391 . S
C243 C242 1.396 . S
C244 P224 1.803 . S
C244 C245 1.378 . S
C244 C249 1.400 . S
C245 H229 0.939 . S
C245 C244 1.378 . S
C245 C246 1.361 . S
C246 H230 0.942 . S
C246 C245 1.361 . S
C246 C247 1.369 . S
C247 C246 1.369 . S
C247 C248 1.404 . S
C248 H231 0.940 . S
C248 C247 1.404 . S
C248 C249 1.389 . S
C249 H232 0.939 . S
C249 C244 1.400 . S
C249 C248 1.389 . S
C250 P224 1.819 . S
C250 C251 1.391 . S
C250 C255 1.391 . S
C251 H233 0.941 . S
C251 C250 1.391 . S
C251 C252 1.396 . S
C252 H236 0.939 . S
C252 C251 1.396 . S
C252 C253 1.397 . S
C253 C252 1.397 . S
C253 C254 1.385 . S
C254 H237 0.940 . S
C254 C253 1.385 . S
C254 C255 1.388 . S
C255 H234 0.939 . S
C255 C250 1.391 . S
C255 C254 1.388 . S
Sm256 C258 2.846 . S
Sm256 O276 2.543 . S
Sm256 O277 2.450 . S
Sm256 O278 2.681 1_565 S
Sm256 O279 2.464 . S
Sm256 O280 2.396 . S
Sm256 O284 2.386 1_455 S
Sm256 O287 2.408 1_565 S
Sm257 C267 2.846 . S
Sm257 O278 2.386 1_655 S
Sm257 O281 2.408 1_545 S
Sm257 O282 2.543 . S
Sm257 O283 2.450 . S
Sm257 O284 2.681 1_545 S
Sm257 O285 2.464 . S
Sm257 O286 2.396 . S
C258 Sm256 2.846 . S
C258 C259 1.506 1_556 S
C258 O276 1.261 . S
C258 O277 1.242 . S
C259 C258 1.506 1_554 S
C259 C260 1.358 . S
C259 C264 1.382 . S
C260 C259 1.358 . S
C260 C261 1.385 . S
C260 H288 0.930 1_455 S
C261 C260 1.385 . S
C261 C262 1.395 . S
C261 H289 0.929 . S
C262 C261 1.395 . S
C262 C263 1.335 . S
C263 C262 1.335 . S
C263 C264 1.398 . S
C263 H290 0.930 . S
C264 C259 1.382 . S
C264 C263 1.398 . S
C264 H291 0.929 1_554 S
C265 O278 1.271 1_565 S
C265 O279 1.251 . S
C266 O280 1.252 1_655 S
C266 O281 1.272 . S
C267 Sm257 2.846 . S
C267 C268 1.506 . S
C267 O282 1.261 . S
C267 O283 1.242 . S
C268 C267 1.506 . S
C268 C269 1.358 . S
C268 C273 1.382 . S
C269 C268 1.358 . S
C269 C270 1.385 . S
C269 H292 0.930 1_655 S
C270 C269 1.385 . S
C270 C271 1.395 . S
C270 H293 0.929 . S
C271 C270 1.395 . S
C271 C272 1.335 . S
C272 C271 1.335 . S
C272 C273 1.398 . S
C272 H294 0.930 . S
C273 C268 1.382 . S
C273 C272 1.398 . S
C273 H295 0.929 . S
C274 O284 1.271 1_545 S
C274 O285 1.251 . S
C275 O286 1.252 1_455 S
C275 O287 1.272 . S
O276 Sm256 2.543 . S
O276 C258 1.261 . S
O277 Sm256 2.450 . S
O277 C258 1.242 . S
O278 Sm256 2.681 1_545 S
O278 Sm257 2.386 1_455 S
O278 C265 1.271 1_545 S
O279 Sm256 2.464 . S
O279 C265 1.251 . S
O280 Sm256 2.396 . S
O280 C266 1.252 1_455 S
O281 Sm257 2.408 1_565 S
O281 C266 1.272 . S
O282 Sm257 2.543 . S
O282 C267 1.261 . S
O283 Sm257 2.450 . S
O283 C267 1.242 . S
O284 Sm256 2.386 1_655 S
O284 Sm257 2.681 1_565 S
O284 C274 1.271 1_565 S
O285 Sm257 2.464 . S
O285 C274 1.251 . S
O286 Sm257 2.396 . S
O286 C275 1.252 1_655 S
O287 Sm256 2.408 1_545 S
O287 C275 1.272 . S
H288 C260 0.930 1_655 S
H289 C261 0.929 . S
H290 C263 0.930 . S
H291 C264 0.929 1_556 S
H292 C269 0.930 1_455 S
H293 C270 0.929 . S
H294 C272 0.930 . S
H295 C273 0.929 . S
Sm296 C298 2.846 . S
Sm296 O316 2.543 . S
Sm296 O317 2.450 . S
Sm296 O318 2.681 . S
Sm296 O319 2.464 . S
Sm296 O320 2.396 . S
Sm296 O324 2.386 1_545 S
Sm296 O327 2.408 . S
Sm297 C307 2.846 . S
Sm297 O318 2.386 1_565 S
Sm297 O321 2.408 . S
Sm297 O322 2.543 . S
Sm297 O323 2.450 . S
Sm297 O324 2.681 . S
Sm297 O325 2.464 . S
Sm297 O326 2.396 . S
C298 Sm296 2.846 . S
C298 C299 1.506 1_556 S
C298 O316 1.261 . S
C298 O317 1.242 . S
C299 C298 1.506 1_554 S
C299 C300 1.358 . S
C299 C304 1.382 . S
C300 C299 1.358 . S
C300 C301 1.385 . S
C300 H328 0.930 1_545 S
C301 C300 1.385 . S
C301 C302 1.395 . S
C301 H329 0.929 . S
C302 C301 1.395 . S
C302 C303 1.335 . S
C303 C302 1.335 . S
C303 C304 1.398 . S
C303 H330 0.930 . S
C304 C299 1.382 . S
C304 C303 1.398 . S
C304 H331 0.929 1_554 S
C305 O318 1.271 . S
C305 O319 1.251 . S
C306 O320 1.252 1_565 S
C306 O321 1.272 . S
C307 Sm297 2.846 . S
C307 C308 1.506 . S
C307 O322 1.261 . S
C307 O323 1.242 . S
C308 C307 1.506 . S
C308 C309 1.358 . S
C308 C313 1.382 . S
C309 C308 1.358 . S
C309 C310 1.385 . S
C309 H332 0.930 1_565 S
C310 C309 1.385 . S
C310 C311 1.395 . S
C310 H333 0.929 . S
C311 C310 1.395 . S
C311 C312 1.335 . S
C312 C311 1.335 . S
C312 C313 1.398 . S
C312 H334 0.930 . S
C313 C308 1.382 . S
C313 C312 1.398 . S
C313 H335 0.929 . S
C314 O324 1.271 . S
C314 O325 1.251 . S
C315 O326 1.252 1_545 S
C315 O327 1.272 . S
O316 Sm296 2.543 . S
O316 C298 1.261 . S
O317 Sm296 2.450 . S
O317 C298 1.242 . S
O318 Sm296 2.681 . S
O318 Sm297 2.386 1_545 S
O318 C305 1.271 . S
O319 Sm296 2.464 . S
O319 C305 1.251 . S
O320 Sm296 2.396 . S
O320 C306 1.252 1_545 S
O321 Sm297 2.408 . S
O321 C306 1.272 . S
O322 Sm297 2.543 . S
O322 C307 1.261 . S
O323 Sm297 2.450 . S
O323 C307 1.242 . S
O324 Sm296 2.386 1_565 S
O324 Sm297 2.681 . S
O324 C314 1.271 . S
O325 Sm297 2.464 . S
O325 C314 1.251 . S
O326 Sm297 2.396 . S
O326 C315 1.252 1_565 S
O327 Sm296 2.408 . S
O327 C315 1.272 . S
H328 C300 0.930 1_565 S
H329 C301 0.929 . S
H330 C303 0.930 . S
H331 C304 0.929 1_556 S
H332 C309 0.930 1_545 S
H333 C310 0.929 . S
H334 C312 0.930 . S
H335 C313 0.929 . S
Sm336 C338 2.846 . S
Sm336 O356 2.543 . S
Sm336 O357 2.450 . S
Sm336 O358 2.681 . S
Sm336 O359 2.464 . S
Sm336 O360 2.396 . S
Sm336 O364 2.386 . S
Sm336 O367 2.408 . S
Sm337 C347 2.846 . S
Sm337 O358 2.386 . S
Sm337 O361 2.408 . S
Sm337 O362 2.543 . S
Sm337 O363 2.450 . S
Sm337 O364 2.681 . S
Sm337 O365 2.464 . S
Sm337 O366 2.396 . S
C338 Sm336 2.846 . S
C338 C339 1.506 1_556 S
C338 O356 1.261 . S
C338 O357 1.242 . S
C339 C338 1.506 1_554 S
C339 C340 1.358 . S
C339 C344 1.382 . S
C340 C339 1.358 . S
C340 C341 1.385 . S
C340 H368 0.930 . S
C341 C340 1.385 . S
C341 C342 1.395 . S
C341 H369 0.929 . S
C342 C341 1.395 . S
C342 C343 1.335 . S
C343 C342 1.335 . S
C343 C344 1.398 . S
C343 H370 0.930 . S
C344 C339 1.382 . S
C344 C343 1.398 . S
C344 H371 0.929 1_554 S
C345 O358 1.271 . S
C345 O359 1.251 . S
C346 O360 1.252 . S
C346 O361 1.272 . S
C347 Sm337 2.846 . S
C347 C348 1.506 . S
C347 O362 1.261 . S
C347 O363 1.242 . S
C348 C347 1.506 . S
C348 C349 1.358 . S
C348 C353 1.382 . S
C349 C348 1.358 . S
C349 C350 1.385 . S
C349 H372 0.930 . S
C350 C349 1.385 . S
C350 C351 1.395 . S
C350 H373 0.929 . S
C351 C350 1.395 . S
C351 C352 1.335 . S
C352 C351 1.335 . S
C352 C353 1.398 . S
C352 H374 0.930 . S
C353 C348 1.382 . S
C353 C352 1.398 . S
C353 H375 0.929 . S
C354 O364 1.271 . S
C354 O365 1.251 . S
C355 O366 1.252 . S
C355 O367 1.272 . S
O356 Sm336 2.543 . S
O356 C338 1.261 . S
O357 Sm336 2.450 . S
O357 C338 1.242 . S
O358 Sm336 2.681 . S
O358 Sm337 2.386 . S
O358 C345 1.271 . S
O359 Sm336 2.464 . S
O359 C345 1.251 . S
O360 Sm336 2.396 . S
O360 C346 1.252 . S
O361 Sm337 2.408 . S
O361 C346 1.272 . S
O362 Sm337 2.543 . S
O362 C347 1.261 . S
O363 Sm337 2.450 . S
O363 C347 1.242 . S
O364 Sm336 2.386 . S
O364 Sm337 2.681 . S
O364 C354 1.271 . S
O365 Sm337 2.464 . S
O365 C354 1.251 . S
O366 Sm337 2.396 . S
O366 C355 1.252 . S
O367 Sm336 2.408 . S
O367 C355 1.272 . S
H368 C340 0.930 . S
H369 C341 0.929 . S
H370 C343 0.930 . S
H371 C344 0.929 1_556 S
H372 C349 0.930 . S
H373 C350 0.929 . S
H374 C352 0.930 . S
H375 C353 0.929 . S
Sm376 C378 2.846 . S
Sm376 O396 2.543 . S
Sm376 O397 2.450 . S
Sm376 O398 2.681 1_655 S
Sm376 O399 2.464 . S
Sm376 O400 2.396 . S
Sm376 O404 2.386 . S
Sm376 O407 2.408 1_655 S
Sm377 C387 2.846 . S
Sm377 O398 2.386 . S
Sm377 O401 2.408 1_455 S
Sm377 O402 2.543 . S
Sm377 O403 2.450 . S
Sm377 O404 2.681 1_455 S
Sm377 O405 2.464 . S
Sm377 O406 2.396 . S
C378 Sm376 2.846 . S
C378 C379 1.506 1_556 S
C378 O396 1.261 . S
C378 O397 1.242 . S
C379 C378 1.506 1_554 S
C379 C380 1.358 . S
C379 C384 1.382 . S
C380 C379 1.358 . S
C380 C381 1.385 . S
C380 H408 0.930 . S
C381 C380 1.385 . S
C381 C382 1.395 . S
C381 H409 0.929 . S
C382 C381 1.395 . S
C382 C383 1.335 . S
C383 C382 1.335 . S
C383 C384 1.398 . S
C383 H410 0.930 . S
C384 C379 1.382 . S
C384 C383 1.398 . S
C384 H411 0.929 1_554 S
C385 O398 1.268 1_655 S
C385 O399 1.257 . S
C386 O400 1.252 . S
C386 O401 1.272 . S
C387 Sm377 2.846 . S
C387 C388 1.506 . S
C387 O402 1.261 . S
C387 O403 1.242 . S
C388 C387 1.506 . S
C388 C389 1.358 . S
C388 C393 1.382 . S
C389 C388 1.358 . S
C389 C390 1.385 . S
C389 H412 0.930 . S
C390 C389 1.385 . S
C390 C391 1.395 . S
C390 H413 0.929 . S
C391 C390 1.395 . S
C391 C392 1.335 . S
C392 C391 1.335 . S
C392 C393 1.398 . S
C392 H414 0.930 . S
C393 C388 1.382 . S
C393 C392 1.398 . S
C393 H415 0.929 . S
C394 O404 1.265 1_455 S
C394 O405 1.261 . S
C395 O406 1.252 . S
C395 O407 1.272 . S
O396 Sm376 2.543 . S
O396 C378 1.261 . S
O397 Sm376 2.450 . S
O397 C378 1.242 . S
O398 Sm376 2.681 1_455 S
O398 Sm377 2.386 . S
O398 C385 1.268 1_455 S
O399 Sm376 2.464 . S
O399 C385 1.257 . S
O400 Sm376 2.396 . S
O400 C386 1.252 . S
O401 Sm377 2.408 1_655 S
O401 C386 1.272 . S
O402 Sm377 2.543 . S
O402 C387 1.261 . S
O403 Sm377 2.450 . S
O403 C387 1.242 . S
O404 Sm376 2.386 . S
O404 Sm377 2.681 1_655 S
O404 C394 1.265 1_655 S
O405 Sm377 2.464 . S
O405 C394 1.261 . S
O406 Sm377 2.396 . S
O406 C395 1.252 . S
O407 Sm376 2.408 1_455 S
O407 C395 1.272 . S
H408 C380 0.930 . S
H409 C381 0.929 . S
H410 C383 0.930 . S
H411 C384 0.929 1_556 S
H412 C389 0.930 . S
H413 C390 0.929 . S
H414 C392 0.930 . S
H415 C393 0.929 . S
C416 C417 1.378 1_565 S
C416 H420 0.950 . S
C416 C425 1.390 . S
C417 C416 1.378 1_545 S
C417 C419 1.397 . S
H418 C425 0.950 . S
C419 C417 1.397 . S
C419 C421 1.390 . S
C419 H423 0.950 . S
H420 C416 0.950 . S
C421 C419 1.390 . S
C421 C422 1.412 . S
C421 H424 0.950 . S
C422 C421 1.412 . S
C422 C425 1.363 1_545 S
H423 C419 0.950 . S
H424 C421 0.950 . S
C425 C416 1.390 . S
C425 H418 0.950 . S
C425 C422 1.363 1_565 S
C426 C427 1.387 . S
C426 H430 0.950 . S
C426 C435 1.390 . S
C427 C426 1.387 . S
C427 C429 1.387 . S
H428 C435 0.950 . S
C429 C427 1.387 . S
C429 C431 1.390 . S
C429 H433 0.950 . S
H430 C426 0.950 . S
C431 C429 1.390 . S
C431 C432 1.387 . S
C431 H434 0.950 . S
C432 C431 1.387 . S
C432 C435 1.387 . S
H433 C429 0.950 . S
H434 C431 0.950 . S
C435 C426 1.390 . S
C435 H428 0.950 . S
C435 C432 1.387 . S
C436 C437 1.387 . S
C436 H440 0.950 . S
C436 C445 1.390 . S
C437 C436 1.387 . S
C437 C439 1.387 . S
H438 C445 0.950 . S
C439 C437 1.387 . S
C439 C441 1.390 . S
C439 H443 0.950 . S
H440 C436 0.950 . S
C441 C439 1.390 . S
C441 C442 1.387 . S
C441 H444 0.950 . S
C442 C441 1.387 . S
C442 C445 1.387 . S
H443 C439 0.950 . S
H444 C441 0.950 . S
C445 C436 1.390 . S
C445 H438 0.950 . S
C445 C442 1.387 . S
C446 C447 1.360 1_655 S
C446 H450 0.950 . S
C446 C455 1.390 . S
C447 C446 1.360 1_455 S
C447 C449 1.415 . S
H448 C455 0.950 . S
C449 C447 1.415 . S
C449 C451 1.390 . S
C449 H453 0.950 . S
H450 C446 0.950 . S
C451 C449 1.390 . S
C451 C452 1.387 . S
C451 H454 0.950 . S
C452 C451 1.387 . S
C452 C455 1.387 1_455 S
H453 C449 0.950 . S
H454 C451 0.950 . S
C455 C446 1.390 . S
C455 H448 0.950 . S
C455 C452 1.387 1_655 S
C456 C457 1.384 1_545 S
C456 H460 0.950 . S
C456 C465 1.390 . S
C457 C456 1.384 1_565 S
C457 C459 1.391 . S
H458 C465 0.950 . S
C459 C457 1.391 . S
C459 C461 1.390 . S
C459 H463 0.950 . S
H460 C456 0.950 . S
C461 C459 1.390 . S
C461 C462 1.393 . S
C461 H464 0.950 . S
C462 C461 1.393 . S
C462 C465 1.382 1_565 S
H463 C459 0.950 . S
H464 C461 0.950 . S
C465 C456 1.390 . S
C465 H458 0.950 . S
C465 C462 1.382 1_545 S
C466 C467 1.387 . S
C466 H470 0.950 . S
C466 C475 1.390 . S
C467 C466 1.387 . S
C467 C469 1.387 . S
H468 C475 0.950 . S
C469 C467 1.387 . S
C469 C471 1.390 . S
C469 H473 0.950 . S
H470 C466 0.950 . S
C471 C469 1.390 . S
C471 C472 1.387 . S
C471 H474 0.950 . S
C472 C471 1.387 . S
C472 C475 1.387 . S
H473 C469 0.950 . S
H474 C471 0.950 . S
C475 C466 1.390 . S
C475 H468 0.950 . S
C475 C472 1.387 . S
C476 C477 1.387 . S
C476 H480 0.950 . S
C476 C485 1.390 . S
C477 C476 1.387 . S
C477 C479 1.387 . S
H478 C485 0.950 . S
C479 C477 1.387 . S
C479 C481 1.390 . S
C479 H483 0.950 . S
H480 C476 0.950 . S
C481 C479 1.390 . S
C481 C482 1.387 . S
C481 H484 0.950 . S
C482 C481 1.387 . S
C482 C485 1.387 . S
H483 C479 0.950 . S
H484 C481 0.950 . S
C485 C476 1.390 . S
C485 H478 0.950 . S
C485 C482 1.387 . S
C486 C487 1.369 1_455 S
C486 H490 0.950 . S
C486 C495 1.390 . S
C487 C486 1.369 1_655 S
C487 C489 1.407 . S
H488 C495 0.950 . S
C489 C487 1.407 . S
C489 C491 1.390 . S
C489 H493 0.950 . S
H490 C486 0.950 . S
C491 C489 1.390 . S
C491 C492 1.387 . S
C491 H494 0.950 . S
C492 C491 1.387 . S
C492 C495 1.387 1_655 S
H493 C489 0.950 . S
H494 C491 0.950 . S
C495 C486 1.390 . S
C495 H488 0.950 . S
C495 C492 1.387 1_455 S
C496 C497 1.387 . S
C496 H500 0.950 . S
C496 C505 1.390 . S
C497 C496 1.387 . S
C497 C499 1.387 1_655 S
H498 C505 0.950 . S
C499 C497 1.387 1_455 S
C499 C501 1.390 1_455 S
C499 H503 0.950 . S
H500 C496 0.950 . S
C501 C499 1.390 1_655 S
C501 C502 1.387 . S
C501 H504 0.950 . S
C502 C501 1.387 . S
C502 C505 1.387 . S
H503 C499 0.950 . S
H504 C501 0.950 . S
C505 C496 1.390 . S
C505 H498 0.950 . S
C505 C502 1.387 . S
C506 C507 1.387 . S
C506 H510 0.950 . S
C506 C515 1.390 . S
C507 C506 1.387 . S
C507 C509 1.387 1_565 S
H508 C515 0.950 . S
C509 C507 1.387 1_545 S
C509 C511 1.390 1_545 S
C509 H513 0.950 . S
H510 C506 0.950 . S
C511 C509 1.390 1_565 S
C511 C512 1.387 . S
C511 H514 0.950 . S
C512 C511 1.387 . S
C512 C515 1.387 . S
H513 C509 0.950 . S
H514 C511 0.950 . S
C515 C506 1.390 . S
C515 H508 0.950 . S
C515 C512 1.387 . S
C516 C517 1.387 . S
C516 H520 0.950 . S
C516 C525 1.390 . S
C517 C516 1.387 . S
C517 C519 1.387 . S
H518 C525 0.950 . S
C519 C517 1.387 . S
C519 C521 1.390 . S
C519 H523 0.950 . S
H520 C516 0.950 . S
C521 C519 1.390 . S
C521 C522 1.387 . S
C521 H524 0.950 . S
C522 C521 1.387 . S
C522 C525 1.387 . S
H523 C519 0.950 . S
H524 C521 0.950 . S
C525 C516 1.390 . S
C525 H518 0.950 . S
C525 C522 1.387 . S
C526 C527 1.387 . S
C526 H530 0.950 . S
C526 C535 1.390 . S
C527 C526 1.387 . S
C527 C529 1.387 . S
H528 C535 0.950 . S
C529 C527 1.387 . S
C529 C531 1.390 . S
C529 H533 0.950 . S
H530 C526 0.950 . S
C531 C529 1.390 . S
C531 C532 1.387 . S
C531 H534 0.950 . S
C532 C531 1.387 . S
C532 C535 1.387 . S
H533 C529 0.950 . S
H534 C531 0.950 . S
C535 C526 1.390 . S
C535 H528 0.950 . S
C535 C532 1.387 . S
C536 C537 1.387 . S
C536 H540 0.950 1_455 S
C536 C545 1.390 . S
C537 C536 1.387 . S
C537 C539 1.387 . S
H538 C545 0.950 1_556 S
C539 C537 1.387 . S
C539 C541 1.390 . S
C539 H543 0.950 . S
H540 C536 0.950 1_655 S
C541 C539 1.390 . S
C541 C542 1.387 . S
C541 H544 0.950 . S
C542 C541 1.387 . S
C542 C545 1.387 . S
H543 C539 0.950 . S
H544 C541 0.950 . S
C545 C536 1.390 . S
C545 H538 0.950 1_554 S
C545 C542 1.387 . S
C546 C547 1.387 . S
C546 H550 0.950 . S
C546 C555 1.390 . S
C547 C546 1.387 . S
C547 C549 1.387 . S
H548 C555 0.950 1_556 S
C549 C547 1.387 . S
C549 C551 1.390 . S
C549 H553 0.950 . S
H550 C546 0.950 . S
C551 C549 1.390 . S
C551 C552 1.387 . S
C551 H554 0.950 . S
C552 C551 1.387 . S
C552 C555 1.387 . S
H553 C549 0.950 . S
H554 C551 0.950 . S
C555 C546 1.390 . S
C555 H548 0.950 1_554 S
C555 C552 1.387 . S
C556 C557 1.387 . S
C556 H560 0.950 . S
C556 C565 1.390 . S
C557 C556 1.387 . S
C557 C559 1.387 . S
H558 C565 0.950 . S
C559 C557 1.387 . S
C559 C561 1.390 . S
C559 H563 0.950 . S
H560 C556 0.950 . S
C561 C559 1.390 . S
C561 C562 1.387 . S
C561 H564 0.960 . S
C562 C561 1.387 . S
C562 C565 1.387 . S
H563 C559 0.950 . S
H564 C561 0.960 . S
C565 C556 1.390 . S
C565 H558 0.950 . S
C565 C562 1.387 . S
C566 C567 1.387 . S
C566 H570 0.950 . S
C566 C575 1.390 . S
C567 C566 1.387 . S
C567 C569 1.387 . S
H568 C575 0.950 . S
C569 C567 1.387 . S
C569 C571 1.390 . S
C569 H573 0.950 . S
H570 C566 0.950 . S
C571 C569 1.390 . S
C571 C572 1.387 . S
C571 H574 0.950 . S
C572 C571 1.387 . S
C572 C575 1.387 . S
H573 C569 0.950 . S
H574 C571 0.950 . S
C575 C566 1.390 . S
C575 H568 0.950 . S
C575 C572 1.387 . S
C576 C577 1.387 1_655 S
C576 H580 0.950 . S
C576 C585 1.390 . S
C577 C576 1.387 1_455 S
C577 C579 1.387 . S
H578 C585 0.950 . S
C579 C577 1.387 . S
C579 C581 1.390 . S
C579 H583 0.950 . S
H580 C576 0.950 . S
C581 C579 1.390 . S
C581 C582 1.387 . S
C581 H584 0.950 . S
C582 C581 1.387 . S
C582 C585 1.387 1_455 S
H583 C579 0.950 . S
H584 C581 0.950 . S
C585 C576 1.390 . S
C585 H578 0.950 . S
C585 C582 1.387 1_655 S
C586 C587 1.387 1_565 S
C586 H590 0.950 . S
C586 C595 1.390 . S
C587 C586 1.387 1_545 S
C587 C589 1.387 . S
H588 C595 0.950 . S
C589 C587 1.387 . S
C589 C591 1.390 . S
C589 H593 0.950 . S
H590 C586 0.950 . S
C591 C589 1.390 . S
C591 C592 1.387 . S
C591 H594 0.950 . S
C592 C591 1.387 . S
C592 C595 1.387 1_545 S
H593 C589 0.950 . S
H594 C591 0.950 . S
C595 C586 1.390 . S
C595 H588 0.950 . S
C595 C592 1.387 1_565 S
C596 C597 1.387 . S
C596 H600 0.950 . S
C596 C605 1.390 . S
C597 C596 1.387 . S
C597 C599 1.387 . S
H598 C605 0.950 . S
C599 C597 1.387 . S
C599 C601 1.390 . S
C599 H603 0.950 . S
H600 C596 0.950 . S
C601 C599 1.390 . S
C601 C602 1.387 . S
C601 H604 0.950 . S
C602 C601 1.387 . S
C602 C605 1.387 . S
H603 C599 0.950 . S
H604 C601 0.950 . S
C605 C596 1.390 . S
C605 H598 0.950 . S
C605 C602 1.387 . S
C606 C607 1.387 . S
C606 H610 0.950 . S
C606 C615 1.390 . S
C607 C606 1.387 . S
C607 C609 1.387 . S
H608 C615 0.950 . S
C609 C607 1.387 . S
C609 C611 1.390 . S
C609 H613 0.950 . S
H610 C606 0.950 . S
C611 C609 1.390 . S
C611 C612 1.387 . S
C611 H614 0.950 . S
C612 C611 1.387 . S
C612 C615 1.387 . S
H613 C609 0.950 . S
H614 C611 0.950 . S
C615 C606 1.390 . S
C615 H608 0.950 . S
C615 C612 1.387 . S
C616 C617 1.387 . S
C616 H620 0.950 . S
C616 C625 1.390 . S
C617 C616 1.387 . S
C617 C619 1.387 1_655 S
H618 C625 0.950 . S
C619 C617 1.387 1_455 S
C619 C621 1.390 . S
C619 H623 0.950 . S
H620 C616 0.950 . S
C621 C619 1.390 . S
C621 C622 1.387 1_455 S
C621 H624 0.950 . S
C622 C621 1.387 1_655 S
C622 C625 1.387 . S
H623 C619 0.950 . S
H624 C621 0.950 . S
C625 C616 1.390 . S
C625 H618 0.950 . S
C625 C622 1.387 . S
C626 C627 1.387 1_545 S
C626 H630 0.950 . S
C626 C635 1.390 . S
C627 C626 1.387 1_565 S
C627 C629 1.387 . S
H628 C635 0.950 . S
C629 C627 1.387 . S
C629 C631 1.390 . S
C629 H633 0.950 . S
H630 C626 0.950 . S
C631 C629 1.390 . S
C631 C632 1.387 . S
C631 H634 0.950 . S
C632 C631 1.387 . S
C632 C635 1.387 1_565 S
H633 C629 0.950 . S
H634 C631 0.950 . S
C635 C626 1.390 . S
C635 H628 0.950 . S
C635 C632 1.387 1_545 S
C636 C637 1.387 . S
C636 H640 0.950 . S
C636 C645 1.390 . S
C637 C636 1.387 . S
C637 C639 1.387 . S
H638 C645 0.950 . S
C639 C637 1.387 . S
C639 C641 1.390 . S
C639 H643 0.950 . S
H640 C636 0.950 . S
C641 C639 1.390 . S
C641 C642 1.387 . S
C641 H644 0.950 . S
C642 C641 1.387 . S
C642 C645 1.387 . S
H643 C639 0.950 . S
H644 C641 0.950 . S
C645 C636 1.390 . S
C645 H638 0.950 . S
C645 C642 1.387 . S
C646 C647 1.387 . S
C646 H650 0.950 . S
C646 C655 1.390 . S
C647 C646 1.387 . S
C647 C649 1.387 . S
H648 C655 0.950 . S
C649 C647 1.387 . S
C649 C651 1.390 . S
C649 H653 0.950 . S
H650 C646 0.950 . S
C651 C649 1.390 . S
C651 C652 1.387 . S
C651 H654 0.950 . S
C652 C651 1.387 . S
C652 C655 1.387 . S
H653 C649 0.950 . S
H654 C651 0.950 . S
C655 C646 1.390 . S
C655 H648 0.950 . S
C655 C652 1.387 . S
C417 C215 2.311 . S
C422 C265 2.600 1_545 S
C432 C305 2.620 . S
C427 C247 2.310 . S
C442 C345 2.627 . S
C437 C151 2.319 . S
C452 C385 2.608 1_455 S
C447 C183 2.320 . S
C462 C274 2.601 1_564 S
C457 C87 2.310 1_565 S
C467 C119 2.353 . S
C472 C314 2.623 1_554 S
C477 C23 2.362 . S
C482 C354 2.627 1_554 S
C487 C55 2.317 1_655 S
C492 C394 2.608 1_654 S
C502 C271 0.832 . S
C497 C189 0.881 1_655 S
C512 C311 0.827 . S
C507 C221 0.870 1_565 S
C522 C351 0.800 . S
C517 C253 0.823 . S
C527 C157 0.832 . S
C532 C391 0.796 . S
C537 C61 0.798 . S
C542 C262 0.831 . S
C552 C302 0.820 . S
C547 C93 0.791 . S
C562 C342 0.801 . S
C557 C125 0.787 . S
C567 C29 0.782 . S
C572 C382 0.801 . S
C577 C177 2.849 . S
C582 C275 3.279 . S
C587 C209 2.809 . S
C592 C315 3.245 . S
C602 C355 3.234 . S
C597 C241 2.785 . S
C612 C395 3.272 . S
C607 C145 2.820 . S
C617 C49 2.895 1_655 S
C622 C266 3.287 . S
C632 C306 3.245 . S
C627 C81 2.858 1_565 S
C642 C346 3.234 . S
C637 C113 2.863 . S
C647 C17 2.898 . S
C652 C386 3.277 . S
