# Generated by pormake.
# Topology ctn, (3,4)-cn, num edge types: 1
# Building blocks:
#     Node 0, Type 0, BuildingBlock: PAMTOO_clean_linker_0, # of connection points: 3
#     Node 1, Type 0, BuildingBlock: PAMTOO_clean_linker_0, # of connection points: 3
#     Node 2, Type 0, BuildingBlock: PAMTOO_clean_linker_0, # of connection points: 3
#     Node 3, Type 0, BuildingBlock: PAMTOO_clean_linker_0, # of connection points: 3
#     Node 4, Type 0, BuildingBlock: PAMTOO_clean_linker_0, # of connection points: 3
#     Node 5, Type 0, BuildingBlock: PAMTOO_clean_linker_0, # of connection points: 3
#     Node 6, Type 0, BuildingBlock: PAMTOO_clean_linker_0, # of connection points: 3
#     Node 7, Type 0, BuildingBlock: PAMTOO_clean_linker_0, # of connection points: 3
#     Node 8, Type 0, BuildingBlock: PAMTOO_clean_linker_0, # of connection points: 3
#     Node 9, Type 0, BuildingBlock: PAMTOO_clean_linker_0, # of connection points: 3
#     Node 10, Type 0, BuildingBlock: PAMTOO_clean_linker_0, # of connection points: 3
#     Node 11, Type 0, BuildingBlock: PAMTOO_clean_linker_0, # of connection points: 3
#     Node 12, Type 0, BuildingBlock: PAMTOO_clean_linker_0, # of connection points: 3
#     Node 13, Type 0, BuildingBlock: PAMTOO_clean_linker_0, # of connection points: 3
#     Node 14, Type 0, BuildingBlock: PAMTOO_clean_linker_0, # of connection points: 3
#     Node 15, Type 0, BuildingBlock: PAMTOO_clean_linker_0, # of connection points: 3
#     Node 16, Type 1, BuildingBlock: AZAVOO_clean_sbu_0, # of connection points: 4
#     Node 17, Type 1, BuildingBlock: AZAVOO_clean_sbu_0, # of connection points: 4
#     Node 18, Type 1, BuildingBlock: AZAVOO_clean_sbu_0, # of connection points: 4
#     Node 19, Type 1, BuildingBlock: AZAVOO_clean_sbu_0, # of connection points: 4
#     Node 20, Type 1, BuildingBlock: AZAVOO_clean_sbu_0, # of connection points: 4
#     Node 21, Type 1, BuildingBlock: AZAVOO_clean_sbu_0, # of connection points: 4
#     Node 22, Type 1, BuildingBlock: AZAVOO_clean_sbu_0, # of connection points: 4
#     Node 23, Type 1, BuildingBlock: AZAVOO_clean_sbu_0, # of connection points: 4
#     Node 24, Type 1, BuildingBlock: AZAVOO_clean_sbu_0, # of connection points: 4
#     Node 25, Type 1, BuildingBlock: AZAVOO_clean_sbu_0, # of connection points: 4
#     Node 26, Type 1, BuildingBlock: AZAVOO_clean_sbu_0, # of connection points: 4
#     Node 27, Type 1, BuildingBlock: AZAVOO_clean_sbu_0, # of connection points: 4
#     Edge 28, Type (0, 1), BuildingBlock: MIFKUJ_clean_linker_0, # of connection points: 2
#     Edge 29, Type (0, 1), BuildingBlock: MIFKUJ_clean_linker_0, # of connection points: 2
#     Edge 30, Type (0, 1), BuildingBlock: MIFKUJ_clean_linker_0, # of connection points: 2
#     Edge 31, Type (0, 1), BuildingBlock: MIFKUJ_clean_linker_0, # of connection points: 2
#     Edge 32, Type (0, 1), BuildingBlock: MIFKUJ_clean_linker_0, # of connection points: 2
#     Edge 33, Type (0, 1), BuildingBlock: MIFKUJ_clean_linker_0, # of connection points: 2
#     Edge 34, Type (0, 1), BuildingBlock: MIFKUJ_clean_linker_0, # of connection points: 2
#     Edge 35, Type (0, 1), BuildingBlock: MIFKUJ_clean_linker_0, # of connection points: 2
#     Edge 36, Type (0, 1), BuildingBlock: MIFKUJ_clean_linker_0, # of connection points: 2
#     Edge 37, Type (0, 1), BuildingBlock: MIFKUJ_clean_linker_0, # of connection points: 2
#     Edge 38, Type (0, 1), BuildingBlock: MIFKUJ_clean_linker_0, # of connection points: 2
#     Edge 39, Type (0, 1), BuildingBlock: MIFKUJ_clean_linker_0, # of connection points: 2
#     Edge 40, Type (0, 1), BuildingBlock: MIFKUJ_clean_linker_0, # of connection points: 2
#     Edge 41, Type (0, 1), BuildingBlock: MIFKUJ_clean_linker_0, # of connection points: 2
#     Edge 42, Type (0, 1), BuildingBlock: MIFKUJ_clean_linker_0, # of connection points: 2
#     Edge 43, Type (0, 1), BuildingBlock: MIFKUJ_clean_linker_0, # of connection points: 2
#     Edge 44, Type (0, 1), BuildingBlock: MIFKUJ_clean_linker_0, # of connection points: 2
#     Edge 45, Type (0, 1), BuildingBlock: MIFKUJ_clean_linker_0, # of connection points: 2
#     Edge 46, Type (0, 1), BuildingBlock: MIFKUJ_clean_linker_0, # of connection points: 2
#     Edge 47, Type (0, 1), BuildingBlock: MIFKUJ_clean_linker_0, # of connection points: 2
#     Edge 48, Type (0, 1), BuildingBlock: MIFKUJ_clean_linker_0, # of connection points: 2
#     Edge 49, Type (0, 1), BuildingBlock: MIFKUJ_clean_linker_0, # of connection points: 2
#     Edge 50, Type (0, 1), BuildingBlock: MIFKUJ_clean_linker_0, # of connection points: 2
#     Edge 51, Type (0, 1), BuildingBlock: MIFKUJ_clean_linker_0, # of connection points: 2
#     Edge 52, Type (0, 1), BuildingBlock: MIFKUJ_clean_linker_0, # of connection points: 2
#     Edge 53, Type (0, 1), BuildingBlock: MIFKUJ_clean_linker_0, # of connection points: 2
#     Edge 54, Type (0, 1), BuildingBlock: MIFKUJ_clean_linker_0, # of connection points: 2
#     Edge 55, Type (0, 1), BuildingBlock: MIFKUJ_clean_linker_0, # of connection points: 2
#     Edge 56, Type (0, 1), BuildingBlock: MIFKUJ_clean_linker_0, # of connection points: 2
#     Edge 57, Type (0, 1), BuildingBlock: MIFKUJ_clean_linker_0, # of connection points: 2
#     Edge 58, Type (0, 1), BuildingBlock: MIFKUJ_clean_linker_0, # of connection points: 2
#     Edge 59, Type (0, 1), BuildingBlock: MIFKUJ_clean_linker_0, # of connection points: 2
#     Edge 60, Type (0, 1), BuildingBlock: MIFKUJ_clean_linker_0, # of connection points: 2
#     Edge 61, Type (0, 1), BuildingBlock: MIFKUJ_clean_linker_0, # of connection points: 2
#     Edge 62, Type (0, 1), BuildingBlock: MIFKUJ_clean_linker_0, # of connection points: 2
#     Edge 63, Type (0, 1), BuildingBlock: MIFKUJ_clean_linker_0, # of connection points: 2
#     Edge 64, Type (0, 1), BuildingBlock: MIFKUJ_clean_linker_0, # of connection points: 2
#     Edge 65, Type (0, 1), BuildingBlock: MIFKUJ_clean_linker_0, # of connection points: 2
#     Edge 66, Type (0, 1), BuildingBlock: MIFKUJ_clean_linker_0, # of connection points: 2
#     Edge 67, Type (0, 1), BuildingBlock: MIFKUJ_clean_linker_0, # of connection points: 2
#     Edge 68, Type (0, 1), BuildingBlock: MIFKUJ_clean_linker_0, # of connection points: 2
#     Edge 69, Type (0, 1), BuildingBlock: MIFKUJ_clean_linker_0, # of connection points: 2
#     Edge 70, Type (0, 1), BuildingBlock: MIFKUJ_clean_linker_0, # of connection points: 2
#     Edge 71, Type (0, 1), BuildingBlock: MIFKUJ_clean_linker_0, # of connection points: 2
#     Edge 72, Type (0, 1), BuildingBlock: MIFKUJ_clean_linker_0, # of connection points: 2
#     Edge 73, Type (0, 1), BuildingBlock: MIFKUJ_clean_linker_0, # of connection points: 2
#     Edge 74, Type (0, 1), BuildingBlock: MIFKUJ_clean_linker_0, # of connection points: 2
#     Edge 75, Type (0, 1), BuildingBlock: MIFKUJ_clean_linker_0, # of connection points: 2
# Relax obj value: 0.055
# Max RMSD: 0.172
# Mean RMSD: 0.111
data_MOF--net-ctn--node1-AZAVOO_clean_sbu_0--node2-PAMTOO_clean_linker_0--edge1-MIFKUJ_clean_linker_0
_symmetry_space_group_name_H-M    P1
_symmetry_Int_Tables_number       1
_symmetry_cell_setting            triclinic
loop_
_symmetry_equiv_pos_as_xyz
'x, y, z'
_cell_length_a     69.036602
_cell_length_b     70.487754
_cell_length_c     71.763467
_cell_angle_alpha  85.182194
_cell_angle_beta   95.142473
_cell_angle_gamma 100.35167
loop_
_atom_site_label
_atom_site_type_symbol
_atom_site_fract_x
_atom_site_fract_y
_atom_site_fract_z
_atom_type_partial_charge
H0 H 0.99856 0.05422 0.03535 0.0
H1 H 0.02011 0.00084 0.04942 0.0
H2 H 0.03919 0.03649 0.00086 0.0
H3 H 0.03117 0.99566 0.99624 0.0
C4 C 0.03748 0.99021 0.01006 0.0
O5 O 0.04314 0.00519 0.02166 0.0
H6 H 0.02586 0.9792 0.01643 0.0
C7 C 0.00711 0.04368 0.03197 0.0
C8 C 0.01845 0.04745 0.01631 0.0
C9 C 0.00738 0.02687 0.04393 0.0
C10 C 0.01951 0.0138 0.04029 0.0
C11 C 0.03095 0.01741 0.02477 0.0
C12 C 0.03035 0.03409 0.01284 0.0
H13 H 0.32031 0.7068 0.27554 0.0
H14 H 0.28817 0.72628 0.2255 0.0
H15 H 0.33918 0.76333 0.24853 0.0
H16 H 0.30726 0.7846 0.23178 0.0
C17 C 0.29948 0.77342 0.22237 0.0
O18 O 0.31129 0.75973 0.22141 0.0
H19 H 0.28525 0.76664 0.22819 0.0
C20 C 0.31846 0.71784 0.26439 0.0
C21 C 0.33185 0.73545 0.26382 0.0
C22 C 0.30255 0.71443 0.25073 0.0
C23 C 0.30023 0.72871 0.23626 0.0
C24 C 0.31352 0.74619 0.23551 0.0
C25 C 0.32923 0.74956 0.2492 0.0
H26 H 0.97689 0.50887 0.11142 0.0
H27 H 0.95508 0.48732 0.05762 0.0
H28 H 0.00244 0.46479 0.08926 0.0
H29 H 0.00688 0.47475 0.04908 0.0
C30 C 0.99158 0.46884 0.04359 0.0
O31 O 0.97969 0.46313 0.05823 0.0
H32 H 0.98577 0.48047 0.03451 0.0
C33 C 0.97738 0.49931 0.10047 0.0
C34 C 0.99142 0.48689 0.10242 0.0
C35 C 0.96407 0.49959 0.0844 0.0
C36 C 0.96493 0.48719 0.07024 0.0
C37 C 0.97887 0.47486 0.072 0.0
C38 C 0.99194 0.47463 0.08805 0.0
H39 H 0.71351 0.84732 0.26626 0.0
H40 H 0.68981 0.78975 0.25012 0.0
H41 H 0.74244 0.82081 0.22711 0.0
H42 H 0.70619 0.79987 0.20241 0.0
C43 C 0.70656 0.78571 0.21049 0.0
O44 O 0.71715 0.78848 0.22758 0.0
H45 H 0.69108 0.7789 0.21287 0.0
C46 C 0.7141 0.83531 0.25796 0.0
C47 C 0.72983 0.83626 0.24654 0.0
C48 C 0.69958 0.81859 0.25943 0.0
C49 C 0.7009 0.80273 0.24928 0.0
C50 C 0.71624 0.80367 0.23758 0.0
C51 C 0.73067 0.82033 0.23625 0.0
H52 H 0.07476 0.98774 0.52814 0.0
H53 H 0.02261 0.97445 0.49061 0.0
H54 H 0.06369 0.0267 0.4803 0.0
H55 H 0.0228 0.03147 0.47283 0.0
C56 C 0.01604 0.0168 0.46854 0.0
O57 O 0.03054 0.00563 0.46839 0.0
H58 H 0.00525 0.00995 0.47879 0.0
C59 C 0.06557 0.99155 0.51584 0.0
C60 C 0.07144 0.0089 0.50501 0.0
C61 C 0.04803 0.97894 0.51074 0.0
C62 C 0.03619 0.98395 0.49476 0.0
C63 C 0.04177 0.00123 0.48402 0.0
C64 C 0.05936 0.0136 0.48906 0.0
H65 H 0.18214 0.74757 0.78964 0.0
H66 H 0.20129 0.70574 0.75829 0.0
H67 H 0.23385 0.72321 0.80944 0.0
H68 H 0.25852 0.71835 0.77994 0.0
C69 C 0.24851 0.70677 0.77243 0.0
O70 O 0.23154 0.70101 0.78169 0.0
H71 H 0.24477 0.71286 0.758 0.0
C72 C 0.19247 0.73806 0.78796 0.0
C73 C 0.20826 0.73688 0.8016 0.0
C74 C 0.18979 0.72701 0.77219 0.0
C75 C 0.20318 0.7146 0.77017 0.0
C76 C 0.21895 0.71325 0.78363 0.0
C77 C 0.22146 0.72432 0.79927 0.0
H78 H 0.93811 0.54027 0.5079 0.0
H79 H 0.95507 0.50844 0.46517 0.0
H80 H 0.99503 0.55741 0.48548 0.0
H81 H 0.99211 0.55426 0.444 0.0
C82 C 0.98922 0.53821 0.44386 0.0
O83 O 0.98963 0.53008 0.46203 0.0
H84 H 0.97433 0.53387 0.4366 0.0
C85 C 0.94885 0.53813 0.49851 0.0
C86 C 0.96712 0.55075 0.49831 0.0
C87 C 0.94428 0.52276 0.48667 0.0
C88 C 0.95831 0.52007 0.47455 0.0
C89 C 0.97643 0.53267 0.47402 0.0
C90 C 0.98084 0.54793 0.48588 0.0
H91 H 0.78366 0.79848 0.84722 0.0
H92 H 0.82752 0.77259 0.82436 0.0
H93 H 0.7996 0.81438 0.79053 0.0
H94 H 0.80561 0.78062 0.77107 0.0
C95 C 0.81972 0.77799 0.77876 0.0
O96 O 0.82569 0.79166 0.79173 0.0
H97 H 0.81705 0.76328 0.78603 0.0
C98 C 0.79221 0.79699 0.83566 0.0
C99 C 0.78991 0.80827 0.8187 0.0
C100 C 0.8056 0.78389 0.83789 0.0
C101 C 0.81684 0.78226 0.8229 0.0
C102 C 0.81462 0.79325 0.80595 0.0
C103 C 0.8012 0.80614 0.80384 0.0
H104 H 0.28586 0.30011 0.34718 0.0
H105 H 0.32991 0.27434 0.32452 0.0
H106 H 0.30388 0.31796 0.29145 0.0
H107 H 0.30959 0.28507 0.27097 0.0
C108 C 0.32337 0.28175 0.27881 0.0
O109 O 0.32944 0.29468 0.29245 0.0
H110 H 0.32003 0.2668 0.28544 0.0
C111 C 0.2948 0.29898 0.3358 0.0
C112 C 0.29318 0.31089 0.31915 0.0
C113 C 0.30788 0.2856 0.33791 0.0
C114 C 0.31955 0.28433 0.32314 0.0
C115 C 0.31808 0.29603 0.30652 0.0
C116 C 0.30496 0.30922 0.30453 0.0
H117 H 0.47002 0.00998 0.61204 0.0
H118 H 0.45286 0.98943 0.55703 0.0
H119 H 0.50061 0.96934 0.59027 0.0
H120 H 0.5071 0.97883 0.55166 0.0
C121 C 0.49235 0.97273 0.54504 0.0
O122 O 0.47912 0.96686 0.55861 0.0
H123 H 0.48691 0.98412 0.53534 0.0
C124 C 0.472 0.00113 0.60096 0.0
C125 C 0.4869 0.98963 0.60345 0.0
C126 C 0.45965 0.00135 0.58421 0.0
C127 C 0.46234 0.9898 0.56992 0.0
C128 C 0.477 0.97826 0.57226 0.0
C129 C 0.48915 0.97815 0.58892 0.0
H130 H 0.20868 0.34595 0.76523 0.0
H131 H 0.18404 0.28901 0.74789 0.0
H132 H 0.23451 0.32176 0.72227 0.0
H133 H 0.19822 0.30073 0.6984 0.0
C134 C 0.19876 0.28647 0.70624 0.0
O135 O 0.20973 0.28905 0.72317 0.0
H136 H 0.18339 0.27951 0.70886 0.0
C137 C 0.20892 0.33413 0.75656 0.0
C138 C 0.22341 0.33597 0.74366 0.0
C139 C 0.19456 0.31733 0.75819 0.0
C140 C 0.19475 0.30224 0.74663 0.0
C141 C 0.20909 0.30395 0.73366 0.0
C142 C 0.22328 0.3208 0.73211 0.0
H143 H 0.81156 0.20476 0.77358 0.0
H144 H 0.77856 0.22509 0.72448 0.0
H145 H 0.83238 0.25995 0.74494 0.0
H146 H 0.80577 0.28434 0.72778 0.0
C147 C 0.79489 0.27328 0.72047 0.0
O148 O 0.8034 0.25727 0.71884 0.0
H149 H 0.78175 0.26915 0.72884 0.0
C150 C 0.80983 0.21576 0.76236 0.0
C151 C 0.82401 0.23277 0.76109 0.0
C152 C 0.79334 0.21285 0.74927 0.0
C153 C 0.79109 0.22714 0.73479 0.0
C154 C 0.8053 0.24393 0.73321 0.0
C155 C 0.82171 0.2467 0.74624 0.0
H156 H 0.49979 0.55755 0.54172 0.0
H157 H 0.52288 0.50486 0.55527 0.0
H158 H 0.54081 0.54129 0.50677 0.0
H159 H 0.53257 0.50136 0.49992 0.0
C160 C 0.53742 0.4947 0.51376 0.0
O161 O 0.54395 0.50886 0.52615 0.0
H162 H 0.52459 0.48461 0.51934 0.0
C163 C 0.50925 0.54766 0.53868 0.0
C164 C 0.52029 0.55173 0.52286 0.0
C165 C 0.51029 0.53106 0.55074 0.0
C166 C 0.52172 0.51773 0.54616 0.0
C167 C 0.53242 0.52136 0.53015 0.0
C168 C 0.53189 0.5384 0.51869 0.0
H169 H 0.58246 0.49233 0.03047 0.0
H170 H 0.52827 0.47733 0.99612 0.0
H171 H 0.56697 0.53064 0.98362 0.0
H172 H 0.52285 0.53194 0.97948 0.0
C173 C 0.51776 0.51722 0.97444 0.0
O174 O 0.53392 0.50841 0.97346 0.0
H175 H 0.50762 0.50864 0.98445 0.0
C176 C 0.57243 0.49571 0.01867 0.0
C177 C 0.57702 0.51316 0.00762 0.0
C178 C 0.55479 0.48272 0.01479 0.0
C179 C 0.54169 0.48735 0.99967 0.0
C180 C 0.54606 0.50467 0.98863 0.0
C181 C 0.5636 0.51753 0.99262 0.0
H182 H 0.68086 0.24754 0.29153 0.0
H183 H 0.69822 0.20218 0.26372 0.0
H184 H 0.73043 0.22122 0.31452 0.0
H185 H 0.75624 0.21449 0.28766 0.0
C186 C 0.74594 0.20425 0.27885 0.0
O187 O 0.72855 0.19832 0.28745 0.0
H188 H 0.74292 0.21201 0.26502 0.0
C189 C 0.69056 0.23714 0.29097 0.0
C190 C 0.70598 0.23603 0.30504 0.0
C191 C 0.68744 0.22482 0.27616 0.0
C192 C 0.7002 0.21156 0.27521 0.0
C193 C 0.71587 0.21061 0.28886 0.0
C194 C 0.71853 0.22256 0.30385 0.0
H195 H 0.43779 0.04035 0.00886 0.0
H196 H 0.45725 0.00592 0.96973 0.0
H197 H 0.49477 0.05775 0.9866 0.0
H198 H 0.49662 0.05193 0.94708 0.0
C199 C 0.49151 0.03603 0.94735 0.0
O200 O 0.49107 0.02845 0.96572 0.0
H201 H 0.47637 0.03325 0.94021 0.0
C202 C 0.44886 0.03788 0.99999 0.0
C203 C 0.46675 0.05108 0.99927 0.0
C204 C 0.4451 0.02155 0.98933 0.0
C205 C 0.45959 0.0185 0.97788 0.0
C206 C 0.47739 0.03154 0.97695 0.0
C207 C 0.481 0.04769 0.98767 0.0
Mg208 Mg 0.22372 0.85824 0.00617 0.0
O209 O 0.25407 0.8775 0.00181 0.0
O210 O 0.27605 0.85744 0.00659 0.0
Mg211 Mg 0.26081 0.82665 0.01439 0.0
C212 C 0.27182 0.8743 0.00255 0.0
C213 C 0.19157 0.88037 0.00475 0.0
O214 O 0.18913 0.866 0.0177 0.0
O215 O 0.22359 0.84575 0.97754 0.0
O216 O 0.24496 0.82541 0.98489 0.0
O217 O 0.2278 0.86307 0.03674 0.0
O218 O 0.23713 0.8389 0.02435 0.0
C219 C 0.23268 0.83262 0.97322 0.0
C220 C 0.2365 0.84817 0.03892 0.0
O221 O 0.20624 0.88201 0.9948 0.0
Mg222 Mg 0.16082 0.49977 0.29874 0.0
O223 O 0.14064 0.49565 0.27135 0.0
O224 O 0.16064 0.4995 0.248 0.0
Mg225 Mg 0.19283 0.50638 0.25976 0.0
C226 C 0.14336 0.49609 0.25391 0.0
C227 C 0.13734 0.49939 0.33136 0.0
O228 O 0.15408 0.51145 0.33395 0.0
O229 O 0.1694 0.46962 0.29805 0.0
O230 O 0.19017 0.47634 0.27526 0.0
O231 O 0.16123 0.53176 0.29534 0.0
O232 O 0.18314 0.51735 0.28428 0.0
C233 C 0.18183 0.46469 0.28796 0.0
C234 C 0.17665 0.53304 0.28601 0.0
O235 O 0.13478 0.48958 0.31695 0.0
Mg236 Mg 0.80184 0.66382 0.05959 0.0
O237 O 0.77069 0.64679 0.05188 0.0
O238 O 0.75064 0.66866 0.04729 0.0
Mg239 Mg 0.76791 0.6988 0.05261 0.0
C240 C 0.75359 0.65125 0.04767 0.0
C241 C 0.83483 0.64068 0.06221 0.0
O242 O 0.84254 0.65754 0.06862 0.0
O243 O 0.8045 0.67534 0.02869 0.0
O244 O 0.78528 0.69794 0.02712 0.0
O245 O 0.79588 0.66129 0.09024 0.0
O246 O 0.78973 0.68525 0.07019 0.0
C247 C 0.79721 0.68929 0.01985 0.0
C248 C 0.78885 0.67717 0.08687 0.0
O249 O 0.81672 0.63788 0.05615 0.0
Mg250 Mg 0.90362 0.04792 0.24284 0.0
O251 O 0.88475 0.01752 0.24336 0.0
O252 O 0.90507 0.99656 0.24115 0.0
Mg253 Mg 0.9365 0.01322 0.23852 0.0
C254 C 0.88785 1.00026 0.24268 0.0
C255 C 0.8695 0.07141 0.24091 0.0
O256 O 0.87496 0.07407 0.22368 0.0
O257 O 0.91603 0.04174 0.27305 0.0
O258 O 0.93737 0.0224 0.26859 0.0
O259 O 0.89971 0.05042 0.21133 0.0
O260 O 0.92416 0.03878 0.22743 0.0
C261 C 0.92948 0.032 0.27926 0.0
C262 C 0.91521 0.04248 0.21141 0.0
O263 O 0.87824 0.06069 0.25274 0.0
Mg264 Mg 0.29496 0.16207 0.55731 0.0
O265 O 0.26378 0.14386 0.55184 0.0
O266 O 0.2427 0.16478 0.54753 0.0
Mg267 Mg 0.25942 0.19556 0.54963 0.0
C268 C 0.24625 0.14754 0.54854 0.0
C269 C 0.31238 0.12427 0.56833 0.0
O270 O 0.30454 0.12637 0.58389 0.0
O271 O 0.29567 0.17159 0.52582 0.0
O272 O 0.27425 0.19219 0.52311 0.0
O273 O 0.29051 0.16164 0.5882 0.0
O274 O 0.2828 0.18405 0.56703 0.0
C275 C 0.28635 0.1836 0.51604 0.0
C276 C 0.28288 0.17709 0.58414 0.0
O277 O 0.31012 0.13611 0.55423 0.0
Mg278 Mg 0.40329 0.54404 0.74967 0.0
O279 O 0.38214 0.51473 0.74791 0.0
O280 O 0.40108 0.49234 0.74647 0.0
Mg281 Mg 0.43342 0.50663 0.74673 0.0
C282 C 0.38418 0.49717 0.74688 0.0
C283 C 0.36422 0.5616 0.74703 0.0
O284 O 0.36265 0.55488 0.73033 0.0
O285 O 0.41308 0.53618 0.78034 0.0
O286 O 0.43212 0.51436 0.77696 0.0
O287 O 0.40195 0.5481 0.71824 0.0
O288 O 0.42385 0.53362 0.73541 0.0
C289 C 0.42453 0.52457 0.78725 0.0
C290 C 0.41651 0.5387 0.71903 0.0
O291 O 0.3788 0.55876 0.75843 0.0
Mg292 Mg 0.72086 0.36274 0.50497 0.0
O293 O 0.7512 0.38292 0.50259 0.0
O294 O 0.77382 0.36362 0.5081 0.0
Mg295 Mg 0.75906 0.33243 0.51396 0.0
C296 C 0.76918 0.38032 0.50419 0.0
C297 C 0.68518 0.38038 0.49064 0.0
O298 O 0.67865 0.36171 0.49314 0.0
O299 O 0.72299 0.35156 0.47627 0.0
O300 O 0.74581 0.33269 0.48342 0.0
O301 O 0.72222 0.36613 0.53564 0.0
O302 O 0.73405 0.34335 0.52332 0.0
C303 C 0.73361 0.33986 0.47164 0.0
C304 C 0.73165 0.35172 0.53803 0.0
O305 O 0.70369 0.38637 0.49287 0.0
Mg306 Mg 0.65631 0.99642 0.79973 0.0
O307 O 0.63625 0.99281 0.77227 0.0
O308 O 0.65623 0.99771 0.74885 0.0
Mg309 Mg 0.68835 0.00501 0.76075 0.0
C310 C 0.63897 0.99382 0.75479 0.0
C311 C 0.63444 0.98713 0.83494 0.0
O312 O 0.65291 0.99337 0.84076 0.0
O313 O 0.66573 0.96677 0.79816 0.0
O314 O 0.68659 0.9747 0.77555 0.0
O315 O 0.65581 0.02822 0.79729 0.0
O316 O 0.67825 0.01495 0.78564 0.0
C317 C 0.67847 0.96254 0.78798 0.0
C318 C 0.6712 0.03025 0.78779 0.0
O319 O 0.63035 0.98475 0.81756 0.0
Mg320 Mg 0.02721 0.27562 0.92325 0.0
O321 O 0.9979 0.26835 0.90529 0.0
O322 O 0.97514 0.25382 0.92452 0.0
Mg323 Mg 0.98976 0.25126 0.95427 0.0
C324 C 0.98019 0.26036 0.9082 0.0
C325 C 0.05944 0.30099 0.90149 0.0
O326 O 0.06808 0.29909 0.91845 0.0
O327 O 0.01626 0.30059 0.93511 0.0
O328 O 0.99504 0.28441 0.95505 0.0
O329 O 0.03486 0.24714 0.91894 0.0
O330 O 0.0182 0.25227 0.94236 0.0
C331 C 0.00423 0.30028 0.94773 0.0
C332 C 0.02531 0.24028 0.93342 0.0
O333 O 0.04113 0.29429 0.89886 0.0
Mg334 Mg 0.53315 0.77834 0.42733 0.0
O335 O 0.50333 0.77339 0.40991 0.0
O336 O 0.48057 0.75957 0.42944 0.0
Mg337 Mg 0.49554 0.75582 0.45897 0.0
C338 C 0.48548 0.76619 0.41308 0.0
C339 C 0.56503 0.79163 0.40219 0.0
O340 O 0.57103 0.77951 0.41545 0.0
O341 O 0.52473 0.80427 0.43999 0.0
O342 O 0.50342 0.78887 0.46027 0.0
O343 O 0.53751 0.74877 0.42206 0.0
O344 O 0.52321 0.75536 0.44646 0.0
C345 C 0.51334 0.80442 0.45307 0.0
C346 C 0.52836 0.74264 0.43693 0.0
O347 O 0.5482 0.79635 0.40303 0.0
Mg348 Mg 0.98366 0.74897 0.61886 0.0
O349 O 0.01348 0.74651 0.63528 0.0
O350 O 0.03458 0.74419 0.61402 0.0
Mg351 Mg 0.01858 0.74423 0.58467 0.0
C352 C 0.0307 0.74497 0.63099 0.0
C353 C 0.95473 0.76418 0.64085 0.0
O354 O 0.94743 0.76529 0.62331 0.0
O355 O 0.99568 0.78029 0.60888 0.0
O356 O 0.01473 0.77573 0.5866 0.0
O357 O 0.9749 0.71666 0.62037 0.0
O358 O 0.99069 0.7337 0.59746 0.0
C359 C 0.00684 0.78682 0.59567 0.0
C360 C 0.98341 0.71702 0.60495 0.0
O361 O 0.97113 0.75832 0.64444 0.0
Mg362 Mg 0.48557 0.25146 0.11823 0.0
O363 O 0.51414 0.24683 0.13604 0.0
O364 O 0.53644 0.2443 0.11604 0.0
Mg365 Mg 0.52264 0.24697 0.08606 0.0
C366 C 0.53144 0.24454 0.13271 0.0
C367 C 0.45906 0.27059 0.14077 0.0
O368 O 0.45452 0.27682 0.12344 0.0
O369 O 0.49929 0.28283 0.11012 0.0
O370 O 0.5208 0.27861 0.08996 0.0
O371 O 0.47555 0.21941 0.11788 0.0
O372 O 0.49338 0.23698 0.09657 0.0
C373 C 0.51243 0.28958 0.0987 0.0
C374 C 0.48505 0.22019 0.10299 0.0
O375 O 0.47231 0.26004 0.14378 0.0
H376 H 0.20249 0.77426 0.80329 0.0
H377 H 0.20463 0.79252 0.83106 0.0
H378 H 0.22247 0.74453 0.8655 0.0
H379 H 0.21931 0.7258 0.83797 0.0
H380 H 0.19583 0.75791 0.88168 0.0
H381 H 0.25549 0.78669 0.8528 0.0
H382 H 0.27528 0.8031 0.82729 0.0
H383 H 0.24482 0.85134 0.82532 0.0
H384 H 0.22466 0.83509 0.85068 0.0
H385 H 0.24253 0.79967 0.96259 0.0
H386 H 0.23605 0.78614 0.93213 0.0
H387 H 0.20769 0.83399 0.91041 0.0
H388 H 0.21399 0.84777 0.94123 0.0
H389 H 0.23614 0.82334 0.88663 0.0
H390 H 0.17867 0.79483 0.91822 0.0
H391 H 0.16053 0.77816 0.94468 0.0
H392 H 0.18863 0.72889 0.94221 0.0
H393 H 0.20718 0.74539 0.9159 0.0
C394 C 0.20671 0.76751 0.81679 0.0
C395 C 0.21067 0.74849 0.81835 0.0
C396 C 0.20816 0.77808 0.83265 0.0
C397 C 0.2139 0.77 0.85039 0.0
C398 C 0.21803 0.75111 0.85197 0.0
C399 C 0.21643 0.74047 0.83615 0.0
C400 C 0.21514 0.78094 0.86744 0.0
C401 C 0.20479 0.77215 0.88276 0.0
C402 C 0.22632 0.79981 0.86873 0.0
C403 C 0.23841 0.80958 0.85348 0.0
C404 C 0.25289 0.80073 0.84682 0.0
C405 C 0.2642 0.81001 0.83241 0.0
C406 C 0.26127 0.82822 0.82465 0.0
C407 C 0.24705 0.83721 0.83132 0.0
C408 C 0.23569 0.82798 0.84572 0.0
C409 C 0.23494 0.80745 0.9514 0.0
C410 C 0.22876 0.82484 0.9544 0.0
C411 C 0.23121 0.79961 0.93398 0.0
C412 C 0.22129 0.80899 0.91909 0.0
C413 C 0.21534 0.82653 0.9218 0.0
C414 C 0.21889 0.83433 0.9394 0.0
C415 C 0.21719 0.80007 0.90084 0.0
C416 C 0.22698 0.80922 0.88535 0.0
C417 C 0.20565 0.78145 0.89942 0.0
C418 C 0.19442 0.77141 0.91516 0.0
C419 C 0.1811 0.7805 0.92341 0.0
C420 C 0.17072 0.77107 0.93836 0.0
C421 C 0.17345 0.75249 0.94514 0.0
C422 C 0.18654 0.74329 0.93695 0.0
C423 C 0.19697 0.75266 0.92199 0.0
H424 H 0.1654 0.74521 0.95672 0.0
H425 H 0.27004 0.83539 0.8135 0.0
H426 H 0.9865 0.5038 0.42788 0.0
H427 H 0.01046 0.4937 0.40913 0.0
H428 H 0.05013 0.54748 0.41787 0.0
H429 H 0.02613 0.5576 0.43642 0.0
H430 H 0.0461 0.5402 0.38167 0.0
H431 H 0.05906 0.50493 0.44024 0.0
H432 H 0.05087 0.48235 0.46767 0.0
H433 H 0.03077 0.43611 0.4315 0.0
H434 H 0.0386 0.4585 0.4038 0.0
H435 H 0.13764 0.52306 0.35939 0.0
H436 H 0.1107 0.52571 0.37811 0.0
H437 H 0.07366 0.47848 0.3509 0.0
H438 H 0.10071 0.47587 0.33159 0.0
H439 H 0.07379 0.47969 0.39419 0.0
H440 H 0.0628 0.51587 0.33548 0.0
H441 H 0.07276 0.53907 0.30895 0.0
H442 H 0.09055 0.58429 0.34667 0.0
H443 H 0.08099 0.56126 0.37348 0.0
C444 C 1.0004 0.51336 0.42582 0.0
C445 C 0.0044 0.53157 0.4333 0.0
C446 C 0.0141 0.50757 0.4152 0.0
C447 C 0.03211 0.51984 0.41206 0.0
C448 C 0.03629 0.53783 0.41999 0.0
C449 C 0.02262 0.54359 0.4306 0.0
C450 C 0.04633 0.51436 0.39995 0.0
C451 C 0.05221 0.52702 0.38452 0.0
C452 C 0.05396 0.49691 0.40332 0.0
C453 C 0.04919 0.48344 0.41994 0.0
C454 C 0.05272 0.48999 0.43812 0.0
C455 C 0.04818 0.47721 0.45372 0.0
C456 C 0.04024 0.45782 0.45133 0.0
C457 C 0.03688 0.45115 0.43333 0.0
C458 C 0.04137 0.46387 0.41767 0.0
C459 C 0.12388 0.51304 0.35742 0.0
C460 C 0.12132 0.4993 0.34387 0.0
C461 C 0.10848 0.51461 0.36818 0.0
C462 C 0.0902 0.50237 0.36582 0.0
C463 C 0.08772 0.48804 0.35292 0.0
C464 C 0.10314 0.48661 0.34188 0.0
C465 C 0.07359 0.50565 0.37617 0.0
C466 C 0.06736 0.49268 0.39124 0.0
C467 C 0.06568 0.52287 0.37259 0.0
C468 C 0.07135 0.53679 0.3565 0.0
C469 C 0.06901 0.53072 0.33814 0.0
C470 C 0.07455 0.54385 0.32305 0.0
C471 C 0.08232 0.56313 0.32613 0.0
C472 C 0.08454 0.56934 0.34431 0.0
C473 C 0.07905 0.55626 0.35945 0.0
H474 H 0.0866 0.57328 0.31442 0.0
H475 H 0.03675 0.44795 0.46342 0.0
H476 H 0.80969 0.74574 0.84297 0.0
H477 H 0.81333 0.7264 0.87262 0.0
H478 H 0.8099 0.77577 0.90309 0.0
H479 H 0.80704 0.79535 0.87359 0.0
H480 H 0.83817 0.75727 0.91913 0.0
H481 H 0.76989 0.73918 0.89552 0.0
H482 H 0.74308 0.72665 0.87232 0.0
H483 H 0.76454 0.6729 0.87476 0.0
H484 H 0.79164 0.68522 0.89782 0.0
H485 H 0.79771 0.72547 0.00384 0.0
H486 H 0.80468 0.73756 0.97198 0.0
H487 H 0.81603 0.68171 0.96028 0.0
H488 H 0.8092 0.66937 0.99267 0.0
H489 H 0.78902 0.69835 0.93317 0.0
H490 H 0.85383 0.7154 0.96189 0.0
H491 H 0.87925 0.72843 0.98607 0.0
H492 H 0.86335 0.78467 0.97482 0.0
H493 H 0.83762 0.77192 0.95076 0.0
C494 C 0.80995 0.75254 0.85599 0.0
C495 C 0.80796 0.77209 0.85588 0.0
C496 C 0.81186 0.74142 0.87293 0.0
C497 C 0.81169 0.74957 0.89009 0.0
C498 C 0.81005 0.76914 0.89002 0.0
C499 C 0.80819 0.78028 0.87313 0.0
C500 C 0.81281 0.73778 0.90821 0.0
C501 C 0.8274 0.74441 0.9222 0.0
C502 C 0.79919 0.72059 0.91204 0.0
C503 C 0.78293 0.7132 0.89819 0.0
C504 C 0.76898 0.72475 0.89098 0.0
C505 C 0.75372 0.71768 0.87789 0.0
C506 C 0.75215 0.69902 0.87202 0.0
C507 C 0.76581 0.68737 0.87928 0.0
C508 C 0.78111 0.69438 0.89237 0.0
C509 C 0.80181 0.71572 0.99459 0.0
C510 C 0.80282 0.69642 0.00075 0.0
C511 C 0.8059 0.72271 0.97639 0.0
C512 C 0.81099 0.71058 0.96382 0.0
C513 C 0.8122 0.69131 0.96985 0.0
C514 C 0.80838 0.68432 0.98831 0.0
C515 C 0.81396 0.71824 0.94421 0.0
C516 C 0.80012 0.7109 0.92993 0.0
C517 C 0.82817 0.73486 0.94015 0.0
C518 C 0.84372 0.74266 0.95456 0.0
C519 C 0.85565 0.73052 0.96465 0.0
C520 C 0.87014 0.73786 0.97833 0.0
C521 C 0.8729 0.75736 0.98199 0.0
C522 C 0.8612 0.76957 0.97196 0.0
C523 C 0.84668 0.76229 0.95828 0.0
H524 H 0.88412 0.76302 0.99259 0.0
H525 H 0.74032 0.69357 0.86188 0.0
H526 H 0.03177 0.02013 0.43422 0.0
H527 H 0.01493 0.02428 0.40312 0.0
H528 H 0.9604 0.02409 0.42829 0.0
H529 H 0.97713 0.01914 0.45948 0.0
H530 H 0.95295 0.0036 0.39895 0.0
H531 H 0.98832 0.06649 0.41005 0.0
H532 H 0.01696 0.09129 0.41877 0.0
H533 H 0.04711 0.07827 0.37289 0.0
H534 H 0.01875 0.05318 0.36404 0.0
H535 H 0.91055 0.03943 0.30932 0.0
H536 H 0.92306 0.03853 0.34253 0.0
H537 H 0.97745 0.02414 0.32741 0.0
H538 H 0.96506 0.02464 0.29451 0.0
H539 H 0.98191 0.05476 0.35267 0.0
H540 H 0.94645 0.98957 0.34406 0.0
H541 H 0.91683 0.96588 0.33533 0.0
H542 H 0.88545 0.98538 0.37698 0.0
H543 H 0.91482 0.00941 0.38577 0.0
C544 C 0.01614 0.02071 0.43311 0.0
C545 C 0.00563 0.01883 0.44924 0.0
C546 C 0.00655 0.02332 0.41533 0.0
C547 C 0.98641 0.02473 0.41332 0.0
C548 C 0.97592 0.02298 0.42945 0.0
C549 C 0.98547 0.02016 0.44724 0.0
C550 C 0.97635 0.02788 0.39437 0.0
C551 C 0.95911 0.01503 0.38898 0.0
C552 C 0.98436 0.04273 0.38124 0.0
C553 C 0.00145 0.05784 0.38647 0.0
C554 C 1.00111 0.06881 0.4019 0.0
C555 C 0.01729 0.08294 0.40685 0.0
C556 C 0.03386 0.08633 0.39642 0.0
C557 C 0.03427 0.07562 0.38097 0.0
C558 C 0.01813 0.06146 0.37597 0.0
C559 C 0.92518 0.03612 0.31311 0.0
C560 C 0.93678 0.03202 0.29931 0.0
C561 C 0.93227 0.03557 0.33204 0.0
C562 C 0.95116 0.03125 0.33736 0.0
C563 C 0.96285 0.02753 0.32357 0.0
C564 C 0.95568 0.02773 0.30478 0.0
C565 C 0.9589 0.03027 0.35728 0.0
C566 C 0.97568 0.04354 0.36281 0.0
C567 C 0.95033 0.016 0.37057 0.0
C568 C 0.93274 0.00145 0.36541 0.0
C569 C 0.93318 0.98893 0.35124 0.0
C570 C 0.91644 0.97542 0.3463 0.0
C571 C 0.89924 0.97417 0.35555 0.0
C572 C 0.89877 0.98639 0.3698 0.0
C573 C 0.91545 0.99995 0.37477 0.0
H574 H 0.8863 0.96371 0.3517 0.0
H575 H 0.04637 0.09727 0.40027 0.0
H576 H 0.20672 0.25016 0.71644 0.0
H577 H 0.22026 0.22883 0.69759 0.0
H578 H 0.22354 0.27241 0.65148 0.0
H579 H 0.21007 0.29369 0.67026 0.0
H580 H 0.20703 0.23644 0.64033 0.0
H581 H 0.26455 0.26526 0.67828 0.0
H582 H 0.28389 0.27342 0.70799 0.0
H583 H 0.27959 0.21308 0.72524 0.0
H584 H 0.25998 0.20456 0.69571 0.0
H585 H 0.27099 0.21201 0.58021 0.0
H586 H 0.25571 0.22728 0.6028 0.0
H587 H 0.25903 0.17853 0.64279 0.0
H588 H 0.27462 0.16304 0.62006 0.0
H589 H 0.26994 0.21283 0.65918 0.0
H590 H 0.21528 0.18372 0.62012 0.0
H591 H 0.1963 0.17531 0.5903 0.0
H592 H 0.19464 0.23531 0.57542 0.0
H593 H 0.2139 0.24413 0.60502 0.0
C594 C 0.2105 0.25517 0.70232 0.0
C595 C 0.20758 0.27362 0.69485 0.0
C596 C 0.21822 0.24302 0.69159 0.0
C597 C 0.22304 0.24909 0.67317 0.0
C598 C 0.21994 0.26744 0.66566 0.0
C599 C 0.21232 0.27961 0.6764 0.0
C600 C 0.23113 0.23634 0.66155 0.0
C601 C 0.22085 0.23139 0.64439 0.0
C602 C 0.2488 0.22917 0.66716 0.0
C603 C 0.2606 0.23428 0.68489 0.0
C604 C 0.26758 0.25373 0.68848 0.0
C605 C 0.27862 0.25842 0.70527 0.0
C606 C 0.28291 0.24378 0.71853 0.0
C607 C 0.27622 0.22441 0.71498 0.0
C608 C 0.26515 0.21964 0.69822 0.0
C609 C 0.26834 0.20437 0.59372 0.0
C610 C 0.27376 0.18615 0.59822 0.0
C611 C 0.25959 0.21316 0.60665 0.0
C612 C 0.25587 0.2039 0.62437 0.0
C613 C 0.26164 0.18587 0.62914 0.0
C614 C 0.2705 0.17703 0.61614 0.0
C615 C 0.24608 0.21335 0.63774 0.0
C616 C 0.25598 0.21764 0.65523 0.0
C617 C 0.22798 0.21984 0.63249 0.0
C618 C 0.21615 0.2146 0.61476 0.0
C619 C 0.21097 0.19514 0.61044 0.0
C620 C 0.20016 0.1903 0.59358 0.0
C621 C 0.1943 0.20477 0.58096 0.0
C622 C 0.1992 0.22412 0.58521 0.0
C623 C 0.21004 0.22904 0.60204 0.0
H624 H 0.18593 0.20099 0.56791 0.0
H625 H 0.29147 0.24743 0.73152 0.0
H626 H 0.50873 0.55866 0.57466 0.0
H627 H 0.49172 0.5553 0.60331 0.0
H628 H 0.47284 0.49437 0.59653 0.0
H629 H 0.48935 0.49779 0.56717 0.0
H630 H 0.44308 0.51051 0.60721 0.0
H631 H 0.50998 0.50895 0.62867 0.0
H632 H 0.54608 0.51963 0.63051 0.0
H633 H 0.53923 0.57376 0.65012 0.0
H634 H 0.50305 0.56353 0.64814 0.0
H635 H 0.44645 0.51855 0.71667 0.0
H636 H 0.46058 0.5118 0.68861 0.0
H637 H 0.4196 0.54195 0.65429 0.0
H638 H 0.40475 0.54805 0.68242 0.0
H639 H 0.47977 0.53547 0.66528 0.0
H640 H 0.41179 0.52577 0.61057 0.0
H641 H 0.37621 0.51226 0.60956 0.0
H642 H 0.38603 0.47479 0.65851 0.0
H643 H 0.42169 0.48787 0.65967 0.0
C644 C 0.50079 0.54455 0.57909 0.0
C645 C 0.50029 0.52851 0.56853 0.0
C646 C 0.49123 0.54262 0.59561 0.0
C647 C 0.48119 0.52455 0.60219 0.0
C648 C 0.48055 0.50844 0.59172 0.0
C649 C 0.49012 0.51038 0.57505 0.0
C650 C 0.47147 0.52276 0.62005 0.0
C651 C 0.45108 0.51584 0.61996 0.0
C652 C 0.48201 0.52931 0.63679 0.0
C653 C 0.50378 0.5355 0.63814 0.0
C654 C 0.51616 0.52318 0.63326 0.0
C655 C 0.53664 0.52915 0.63435 0.0
C656 C 0.54494 0.54737 0.6404 0.0
C657 C 0.53278 0.55965 0.64543 0.0
C658 C 0.51228 0.55376 0.64435 0.0
C659 C 0.4401 0.5234 0.70318 0.0
C660 C 0.42433 0.53372 0.70183 0.0
C661 C 0.44832 0.51963 0.6871 0.0
C662 C 0.44111 0.52622 0.66928 0.0
C663 C 0.4252 0.53636 0.66784 0.0
C664 C 0.4168 0.53996 0.68396 0.0
C665 C 0.45119 0.5237 0.65241 0.0
C666 C 0.47171 0.5299 0.65264 0.0
C667 C 0.44082 0.51605 0.63599 0.0
C668 C 0.4194 0.50794 0.63529 0.0
C669 C 0.40637 0.51459 0.62107 0.0
C670 C 0.38618 0.50702 0.62048 0.0
C671 C 0.37885 0.49272 0.63399 0.0
C672 C 0.39171 0.48592 0.64809 0.0
C673 C 0.41191 0.49343 0.64874 0.0
H674 H 0.36322 0.48689 0.63352 0.0
H675 H 0.5608 0.55197 0.64123 0.0
H676 H 0.76695 0.29605 0.71202 0.0
H677 H 0.75692 0.31096 0.68147 0.0
H678 H 0.79915 0.28533 0.65562 0.0
H679 H 0.80976 0.27112 0.6862 0.0
H680 H 0.80008 0.3205 0.64152 0.0
H681 H 0.74842 0.26659 0.65254 0.0
H682 H 0.7224 0.24579 0.66993 0.0
H683 H 0.69067 0.29301 0.66894 0.0
H684 H 0.71665 0.31418 0.65176 0.0
H685 H 0.75645 0.32546 0.54734 0.0
H686 H 0.76812 0.31415 0.57872 0.0
H687 H 0.73547 0.35131 0.60304 0.0
H688 H 0.72404 0.36309 0.57164 0.0
H689 H 0.72947 0.31138 0.61791 0.0
H690 H 0.78185 0.36461 0.605 0.0
H691 H 0.8077 0.38369 0.58619 0.0
H692 H 0.83792 0.33519 0.58922 0.0
H693 H 0.81207 0.31572 0.60781 0.0
C694 C 0.77397 0.29353 0.69977 0.0
C695 C 0.78864 0.28191 0.70141 0.0
C696 C 0.76821 0.30199 0.68232 0.0
C697 C 0.77694 0.2989 0.66614 0.0
C698 C 0.79206 0.28778 0.66786 0.0
C699 C 0.79798 0.27951 0.68534 0.0
C700 C 0.7704 0.30728 0.64745 0.0
C701 C 0.78465 0.31829 0.6363 0.0
C702 C 0.75023 0.30471 0.6407 0.0
C703 C 0.73459 0.29202 0.65104 0.0
C704 C 0.73597 0.27258 0.65616 0.0
C705 C 0.72122 0.26071 0.66596 0.0
C706 C 0.70492 0.26809 0.67058 0.0
C707 C 0.70332 0.28733 0.66538 0.0
C708 C 0.71805 0.29926 0.6556 0.0
C709 C 0.75192 0.33144 0.55929 0.0
C710 C 0.73942 0.34529 0.55695 0.0
C711 C 0.7586 0.32493 0.57723 0.0
C712 C 0.75269 0.33196 0.59314 0.0
C713 C 0.7402 0.34575 0.5909 0.0
C714 C 0.73376 0.3525 0.57295 0.0
C715 C 0.75914 0.32447 0.61211 0.0
C716 C 0.74486 0.31361 0.62325 0.0
C717 C 0.77928 0.32692 0.61871 0.0
C718 C 0.79491 0.33865 0.60764 0.0
C719 C 0.79391 0.35795 0.60151 0.0
C720 C 0.80859 0.36885 0.59092 0.0
C721 C 0.82442 0.36064 0.58647 0.0
C722 C 0.82563 0.34153 0.59265 0.0
C723 C 0.81098 0.33056 0.60324 0.0
H724 H 0.83576 0.3691 0.57827 0.0
H725 H 0.69351 0.25888 0.67816 0.0
H726 H 0.50164 0.95916 0.62248 0.0
H727 H 0.52544 0.95996 0.64976 0.0
H728 H 0.52585 0.02099 0.65207 0.0
H729 H 0.50294 0.02056 0.6241 0.0
H730 H 0.56155 0.01511 0.65649 0.0
H731 H 0.50255 0.98586 0.68451 0.0
H732 H 0.47172 0.96257 0.68843 0.0
H733 H 0.50452 0.91585 0.69668 0.0
H734 H 0.53554 0.93883 0.69256 0.0
H735 H 0.59995 0.99318 0.76035 0.0
H736 H 0.5722 0.99243 0.73645 0.0
H737 H 0.611 0.98798 0.69373 0.0
H738 H 0.63877 0.98916 0.71734 0.0
H739 H 0.55381 0.96791 0.71178 0.0
H740 H 0.59934 0.01372 0.65431 0.0
H741 H 0.62867 0.03937 0.65217 0.0
H742 H 0.61967 0.05748 0.70593 0.0
H743 H 0.59014 0.03213 0.70827 0.0
C744 C 0.50686 0.97281 0.62869 0.0
C745 C 0.50035 0.98982 0.62096 0.0
C746 C 0.5203 0.97318 0.6445 0.0
C747 C 0.52732 0.99049 0.65319 0.0
C748 C 0.52064 0.00743 0.64569 0.0
C749 C 0.50734 0.00711 0.62976 0.0
C750 C 0.54234 0.99111 0.6695 0.0
C751 C 0.55978 0.00481 0.66858 0.0
C752 C 0.53998 0.97794 0.68553 0.0
C753 C 0.52136 0.96406 0.68807 0.0
C754 C 0.50318 0.9706 0.68703 0.0
C755 C 0.48567 0.95746 0.68931 0.0
C756 C 0.48615 0.93774 0.69276 0.0
C757 C 0.50416 0.93112 0.69399 0.0
C758 C 0.52172 0.94421 0.6917 0.0
C759 C 0.60254 0.9919 0.74589 0.0
C760 C 0.62166 0.99146 0.74077 0.0
C761 C 0.58665 0.99145 0.73224 0.0
C762 C 0.58957 0.99053 0.71323 0.0
C763 C 0.60844 0.98916 0.70823 0.0
C764 C 0.62433 0.98976 0.7218 0.0
C765 C 0.57312 0.99159 0.69848 0.0
C766 C 0.55548 0.97823 0.6997 0.0
C767 C 0.57504 0.00541 0.68294 0.0
C768 C 0.59263 0.0209 0.68152 0.0
C769 C 0.60357 0.02323 0.66563 0.0
C770 C 0.62024 0.03771 0.66439 0.0
C771 C 0.62607 0.05001 0.67893 0.0
C772 C 0.61519 0.0479 0.69471 0.0
C773 C 0.59849 0.03347 0.696 0.0
H774 H 0.63899 0.06119 0.67795 0.0
H775 H 0.47258 0.92758 0.69452 0.0
H776 H 0.86273 0.24791 0.7557 0.0
H777 H 0.89027 0.25405 0.77961 0.0
H778 H 0.85114 0.23104 0.82279 0.0
H779 H 0.82346 0.22546 0.79906 0.0
H780 H 0.87444 0.26404 0.83232 0.0
H781 H 0.88317 0.20462 0.8082 0.0
H782 H 0.88728 0.1836 0.78357 0.0
H783 H 0.94032 0.2219 0.76905 0.0
H784 H 0.93637 0.2433 0.79344 0.0
H785 H 0.9408 0.2457 0.9092 0.0
H786 H 0.91565 0.24264 0.88304 0.0
H787 H 0.95949 0.26778 0.84474 0.0
H788 H 0.98495 0.27078 0.87089 0.0
H789 H 0.93529 0.236 0.83131 0.0
H790 H 0.92757 0.29445 0.85676 0.0
H791 H 0.92347 0.31532 0.88151 0.0
H792 H 0.86853 0.27891 0.89356 0.0
H793 H 0.87244 0.25765 0.86905 0.0
C794 C 0.85998 0.24427 0.7703 0.0
C795 C 0.84091 0.23613 0.77547 0.0
C796 C 0.87576 0.24764 0.78393 0.0
C797 C 0.8728 0.24283 0.80297 0.0
C798 C 0.85377 0.23481 0.80817 0.0
C799 C 0.83801 0.23146 0.79457 0.0
C800 C 0.88942 0.24629 0.81758 0.0
C801 C 0.88766 0.25774 0.83221 0.0
C802 C 0.90692 0.23855 0.81712 0.0
C803 C 0.90935 0.22566 0.8025 0.0
C804 C 0.89562 0.20864 0.79965 0.0
C805 C 0.89794 0.19664 0.78576 0.0
C806 C 0.91402 0.20144 0.77472 0.0
C807 C 0.92785 0.21822 0.77759 0.0
C808 C 0.92559 0.23028 0.79145 0.0
C809 C 0.94518 0.25062 0.89524 0.0
C810 C 0.96494 0.25856 0.8922 0.0
C811 C 0.93073 0.24893 0.88029 0.0
C812 C 0.93566 0.2552 0.86197 0.0
C813 C 0.95538 0.26291 0.85879 0.0
C814 C 0.96988 0.26466 0.87377 0.0
C815 C 0.92015 0.25349 0.84621 0.0
C816 C 0.92213 0.2424 0.83135 0.0
C817 C 0.90283 0.26156 0.84645 0.0
C818 C 0.90039 0.27436 0.86116 0.0
C819 C 0.91469 0.2908 0.86478 0.0
C820 C 0.91238 0.30272 0.87875 0.0
C821 C 0.89577 0.29842 0.88913 0.0
C822 C 0.8814 0.28221 0.88552 0.0
C823 C 0.88364 0.27023 0.87158 0.0
H824 H 0.89401 0.30767 0.89994 0.0
H825 H 0.91579 0.19213 0.76397 0.0
H826 H 0.49 0.93429 0.55755 0.0
H827 H 0.49493 0.90747 0.54012 0.0
H828 H 0.50691 0.94661 0.49134 0.0
H829 H 0.50112 0.97342 0.50858 0.0
H830 H 0.48488 0.91478 0.48068 0.0
H831 H 0.54436 0.92891 0.51966 0.0
H832 H 0.56527 0.93518 0.54894 0.0
H833 H 0.5423 0.87833 0.57226 0.0
H834 H 0.52103 0.87181 0.5432 0.0
H835 H 0.52445 0.84156 0.43773 0.0
H836 H 0.5223 0.87184 0.45147 0.0
H837 H 0.49744 0.83929 0.49986 0.0
H838 H 0.49926 0.80919 0.48629 0.0
H839 H 0.52909 0.86989 0.50842 0.0
H840 H 0.4678 0.85767 0.46906 0.0
H841 H 0.44812 0.85206 0.439 0.0
H842 H 0.47705 0.90666 0.4153 0.0
H843 H 0.49711 0.91247 0.44517 0.0
C844 C 0.49339 0.93714 0.54303 0.0
C845 C 0.49466 0.95587 0.53425 0.0
C846 C 0.49645 0.92182 0.53313 0.0
C847 C 0.50153 0.92501 0.51444 0.0
C848 C 0.50294 0.94375 0.5057 0.0
C849 C 0.49963 0.95904 0.51554 0.0
C850 C 0.50525 0.90874 0.50408 0.0
C851 C 0.49483 0.90519 0.48662 0.0
C852 C 0.51816 0.8961 0.51179 0.0
C853 C 0.53098 0.89993 0.5293 0.0
C854 C 0.54366 0.91779 0.53108 0.0
C855 C 0.55559 0.92138 0.54763 0.0
C856 C 0.55508 0.90718 0.56247 0.0
C857 C 0.54267 0.88933 0.56076 0.0
C858 C 0.53068 0.88567 0.54424 0.0
C859 C 0.51849 0.84088 0.45127 0.0
C860 C 0.51198 0.82294 0.46087 0.0
C861 C 0.51724 0.85817 0.45907 0.0
C862 C 0.5097 0.85776 0.47667 0.0
C863 C 0.50333 0.83991 0.48629 0.0
C864 C 0.5043 0.8227 0.47843 0.0
C865 C 0.50842 0.87582 0.48534 0.0
C866 C 0.51934 0.87968 0.50245 0.0
C867 C 0.49621 0.88886 0.47719 0.0
C868 C 0.48412 0.88539 0.45927 0.0
C869 C 0.4701 0.8684 0.45738 0.0
C870 C 0.45885 0.8652 0.44039 0.0
C871 C 0.46138 0.87897 0.42523 0.0
C872 C 0.47513 0.89599 0.42705 0.0
C873 C 0.48644 0.89925 0.444 0.0
H874 H 0.45265 0.87647 0.41209 0.0
H875 H 0.56434 0.90999 0.57527 0.0
H876 H 0.15467 0.30436 0.75347 0.0
H877 H 0.13022 0.30261 0.77665 0.0
H878 H 0.17653 0.32483 0.81762 0.0
H879 H 0.20097 0.32635 0.79469 0.0
H880 H 0.15117 0.29383 0.83196 0.0
H881 H 0.14696 0.35395 0.79556 0.0
H882 H 0.14214 0.37425 0.7664 0.0
H883 H 0.0838 0.34181 0.75607 0.0
H884 H 0.08839 0.32113 0.78505 0.0
H885 H 0.09838 0.31744 0.90238 0.0
H886 H 0.11988 0.32181 0.87658 0.0
H887 H 0.06994 0.30183 0.83836 0.0
H888 H 0.0482 0.29775 0.86408 0.0
H889 H 0.09564 0.33045 0.82152 0.0
H890 H 0.099 0.27069 0.85741 0.0
H891 H 0.10328 0.2495 0.88606 0.0
H892 H 0.16252 0.2798 0.89658 0.0
H893 H 0.1585 0.30137 0.86812 0.0
C894 C 0.15961 0.30872 0.76747 0.0
C895 C 0.1797 0.31559 0.77225 0.0
C896 C 0.14563 0.30787 0.78064 0.0
C897 C 0.15155 0.31379 0.79879 0.0
C898 C 0.17164 0.32027 0.80367 0.0
C899 C 0.18557 0.32124 0.79053 0.0
C900 C 0.13692 0.31317 0.81286 0.0
C901 C 0.13917 0.30201 0.82977 0.0
C902 C 0.12091 0.32338 0.80973 0.0
C903 C 0.1181 0.33586 0.79237 0.0
C904 C 0.13317 0.35104 0.78699 0.0
C905 C 0.13047 0.36263 0.77051 0.0
C906 C 0.1127 0.35929 0.75936 0.0
C907 C 0.09757 0.34437 0.7647 0.0
C908 C 0.10021 0.33272 0.78116 0.0
C909 C 0.09188 0.31432 0.88843 0.0
C910 C 0.07162 0.30701 0.88534 0.0
C911 C 0.10421 0.31673 0.87371 0.0
C912 C 0.09659 0.31168 0.85565 0.0
C913 C 0.07615 0.30568 0.85222 0.0
C914 C 0.06375 0.30337 0.86695 0.0
C915 C 0.11014 0.31138 0.84077 0.0
C916 C 0.10764 0.32226 0.8237 0.0
C917 C 0.12586 0.30077 0.84365 0.0
C918 C 0.12838 0.28776 0.86073 0.0
C919 C 0.11289 0.27293 0.86591 0.0
C920 C 0.11528 0.26084 0.88211 0.0
C921 C 0.13314 0.26333 0.89316 0.0
C922 C 0.14868 0.2779 0.88802 0.0
C923 C 0.14636 0.29005 0.87185 0.0
H924 H 0.13496 0.25395 0.90569 0.0
H925 H 0.11063 0.36828 0.74661 0.0
H926 H 0.51998 0.58736 0.53509 0.0
H927 H 0.51815 0.6175 0.51635 0.0
H928 H 0.51949 0.58891 0.4658 0.0
H929 H 0.52054 0.55824 0.48447 0.0
H930 H 0.54613 0.62561 0.46889 0.0
H931 H 0.47787 0.59862 0.47295 0.0
H932 H 0.44837 0.58308 0.489 0.0
H933 H 0.45404 0.63175 0.5225 0.0
H934 H 0.48376 0.64746 0.50686 0.0
H935 H 0.53085 0.7123 0.41649 0.0
H936 H 0.5264 0.67802 0.42713 0.0
H937 H 0.51257 0.69179 0.48135 0.0
H938 H 0.51634 0.72596 0.47059 0.0
H939 H 0.48973 0.65982 0.47191 0.0
H940 H 0.55974 0.68452 0.47209 0.0
H941 H 0.59043 0.70027 0.45807 0.0
H942 H 0.5827 0.65641 0.41867 0.0
H943 H 0.55181 0.64053 0.43233 0.0
C944 C 0.51956 0.5873 0.51997 0.0
C945 C 0.5201 0.57025 0.51129 0.0
C946 C 0.51863 0.6046 0.5093 0.0
C947 C 0.51842 0.60533 0.48972 0.0
C948 C 0.51955 0.58856 0.48093 0.0
C949 C 0.52025 0.5711 0.49162 0.0
C950 C 0.51726 0.62383 0.47868 0.0
C951 C 0.53363 0.63295 0.46915 0.0
C952 C 0.50111 0.63348 0.47946 0.0
C953 C 0.48314 0.62416 0.48881 0.0
C954 C 0.47292 0.60595 0.48384 0.0
C955 C 0.45614 0.59712 0.49285 0.0
C956 C 0.44935 0.60641 0.50678 0.0
C957 C 0.45931 0.62457 0.51171 0.0
C958 C 0.47612 0.63345 0.50276 0.0
C959 C 0.52667 0.70798 0.43062 0.0
C960 C 0.52408 0.72182 0.44277 0.0
C961 C 0.52421 0.68839 0.4367 0.0
C962 C 0.51952 0.68235 0.45516 0.0
C963 C 0.51622 0.6961 0.46706 0.0
C964 C 0.51841 0.71564 0.46091 0.0
C965 C 0.51884 0.66191 0.46244 0.0
C966 C 0.50211 0.6524 0.47131 0.0
C967 C 0.53478 0.65199 0.46126 0.0
C968 C 0.55336 0.66148 0.45308 0.0
C969 C 0.56451 0.67832 0.46035 0.0
C970 C 0.58195 0.68726 0.45248 0.0
C971 C 0.58847 0.67938 0.43744 0.0
C972 C 0.5776 0.66252 0.43029 0.0
C973 C 0.56014 0.65354 0.43809 0.0
H974 H 0.60198 0.68632 0.43137 0.0
H975 H 0.43636 0.59955 0.51374 0.0
H976 H 0.81746 0.78667 0.74068 0.0
H977 H 0.84239 0.78571 0.71873 0.0
H978 H 0.88239 0.76985 0.76469 0.0
H979 H 0.85737 0.77087 0.78676 0.0
H980 H 0.90139 0.79668 0.73878 0.0
H981 H 0.85798 0.73564 0.73866 0.0
H982 H 0.82587 0.71368 0.73649 0.0
H983 H 0.8138 0.73689 0.68025 0.0
H984 H 0.84573 0.7592 0.68218 0.0
H985 H 0.96387 0.76125 0.679 0.0
H986 H 0.9429 0.76525 0.70374 0.0
H987 H 0.89824 0.77982 0.66174 0.0
H988 H 0.91892 0.77578 0.63707 0.0
H989 H 0.88281 0.7525 0.68733 0.0
H990 H 0.92623 0.8141 0.68785 0.0
H991 H 0.9584 0.83593 0.69027 0.0
H992 H 0.97078 0.81127 0.74588 0.0
H993 H 0.93878 0.78909 0.7437 0.0
C994 C 0.83162 0.78312 0.7461 0.0
C995 C 0.83551 0.77875 0.76537 0.0
C996 C 0.84583 0.78253 0.73356 0.0
C997 C 0.86417 0.77749 0.74005 0.0
C998 C 0.86834 0.77376 0.75938 0.0
C999 C 0.85408 0.77429 0.77194 0.0
C1000 C 0.87858 0.77536 0.7265 0.0
C1001 C 0.89745 0.78683 0.72767 0.0
C1002 C 0.87336 0.76267 0.71189 0.0
C1003 C 0.85417 0.74922 0.71063 0.0
C1004 C 0.84841 0.73617 0.72588 0.0
C1005 C 0.83025 0.72364 0.72468 0.0
C1006 C 0.81778 0.72393 0.70826 0.0
C1007 C 0.82346 0.73671 0.69297 0.0
C1008 C 0.8416 0.74928 0.69411 0.0
C1009 C 0.94967 0.7655 0.67505 0.0
C1010 C 0.94305 0.76811 0.65604 0.0
C1011 C 0.93772 0.76783 0.68921 0.0
C1012 C 0.91899 0.77285 0.68459 0.0
C1013 C 0.91259 0.77587 0.66564 0.0
C1014 C 0.92449 0.77359 0.65154 0.0
C1015 C 0.90553 0.7741 0.69934 0.0
C1016 C 0.88681 0.76234 0.69844 0.0
C1017 C 0.91096 0.78647 0.71419 0.0
C1018 C 0.93021 0.79978 0.71553 0.0
C1019 C 0.93589 0.8132 0.70053 0.0
C1020 C 0.95408 0.82567 0.70187 0.0
C1021 C 0.96666 0.82495 0.7182 0.0
C1022 C 0.96104 0.81179 0.73323 0.0
C1023 C 0.94287 0.79928 0.73196 0.0
H1024 H 0.98073 0.83461 0.71921 0.0
H1025 H 0.80373 0.71421 0.70735 0.0
H1026 H 0.0471 0.97242 0.54884 0.0
H1027 H 0.03803 0.94139 0.56676 0.0
H1028 H 0.02775 0.91237 0.51523 0.0
H1029 H 0.03625 0.94335 0.49734 0.0
H1030 H 0.99991 0.89797 0.53674 0.0
H1031 H 0.07096 0.91296 0.5457 0.0
H1032 H 0.10295 0.93291 0.55509 0.0
H1033 H 0.08613 0.93088 0.6115 0.0
H1034 H 0.05392 0.91112 0.60237 0.0
H1035 H 0.01848 0.80383 0.56214 0.0
H1036 H 0.02318 0.83805 0.55175 0.0
H1037 H 0.00789 0.85176 0.60537 0.0
H1038 H 0.00265 0.81718 0.6159 0.0
H1039 H 0.04582 0.87524 0.58744 0.0
H1040 H 0.97532 0.85621 0.57746 0.0
H1041 H 0.94482 0.83482 0.56655 0.0
H1042 H 0.96254 0.84318 0.51018 0.0
H1043 H 0.9933 0.86438 0.52081 0.0
C1044 C 0.04291 0.95938 0.54139 0.0
C1045 C 0.04239 0.96027 0.52171 0.0
C1046 C 0.03777 0.94166 0.55163 0.0
C1047 C 0.03241 0.92446 0.54238 0.0
C1048 C 0.03174 0.92541 0.52271 0.0
C1049 C 0.03661 0.94312 0.51248 0.0
C1050 C 0.02765 0.90538 0.55303 0.0
C1051 C 0.01 0.89304 0.54779 0.0
C1052 C 0.04056 0.899 0.56777 0.0
C1053 C 0.05995 0.91077 0.5733 0.0
C1054 C 0.07403 0.91689 0.56008 0.0
C1055 C 0.09221 0.92814 0.56535 0.0
C1056 C 0.09654 0.93322 0.58387 0.0
C1057 C 0.08274 0.92698 0.59716 0.0
C1058 C 0.06452 0.91575 0.59194 0.0
C1059 C 0.01617 0.81406 0.57183 0.0
C1060 C 0.01019 0.80776 0.58988 0.0
C1061 C 0.01883 0.83361 0.56582 0.0
C1062 C 0.01584 0.84734 0.57779 0.0
C1063 C 0.01026 0.84129 0.59597 0.0
C1064 C 0.00721 0.82158 0.60191 0.0
C1065 C 0.01835 0.86793 0.57083 0.0
C1066 C 0.03558 0.88044 0.57668 0.0
C1067 C 0.00524 0.87439 0.55645 0.0
C1068 C 0.98669 0.86176 0.54997 0.0
C1069 C 0.9728 0.85335 0.56277 0.0
C1070 C 0.95544 0.84129 0.55663 0.0
C1071 C 0.95176 0.83761 0.53769 0.0
C1072 C 0.96541 0.84603 0.52485 0.0
C1073 C 0.9828 0.85809 0.53092 0.0
H1074 H 0.93832 0.82827 0.53296 0.0
H1075 H 0.11062 0.94193 0.58793 0.0
H1076 H 0.15148 0.72856 0.77817 0.0
H1077 H 0.12421 0.73212 0.75471 0.0
H1078 H 0.1626 0.73189 0.71053 0.0
H1079 H 0.19014 0.72895 0.73394 0.0
H1080 H 0.14078 0.76011 0.70345 0.0
H1081 H 0.12851 0.69219 0.722 0.0
H1082 H 0.12342 0.66355 0.74439 0.0
H1083 H 0.07251 0.68174 0.76264 0.0
H1084 H 0.07746 0.71064 0.74053 0.0
H1085 H 0.06936 0.74309 0.62712 0.0
H1086 H 0.09564 0.74067 0.65176 0.0
H1087 H 0.05504 0.7419 0.69376 0.0
H1088 H 0.02844 0.74413 0.66913 0.0
H1089 H 0.07737 0.71394 0.70274 0.0
H1090 H 0.08904 0.78137 0.68353 0.0
H1091 H 0.09413 0.81003 0.66118 0.0
H1092 H 0.14616 0.79287 0.64421 0.0
H1093 H 0.14122 0.76395 0.66628 0.0
C1094 C 0.15417 0.72939 0.76346 0.0
C1095 C 0.17301 0.72849 0.75792 0.0
C1096 C 0.13851 0.73125 0.75006 0.0
C1097 C 0.1413 0.73209 0.73086 0.0
C1098 C 0.16009 0.73122 0.72528 0.0
C1099 C 0.17577 0.72937 0.73867 0.0
C1100 C 0.12471 0.73414 0.71658 0.0
C1101 C 0.12701 0.74987 0.70314 0.0
C1102 C 0.10653 0.72109 0.71651 0.0
C1103 C 0.10347 0.70368 0.72975 0.0
C1104 C 0.11632 0.69016 0.7309 0.0
C1105 C 0.11344 0.67387 0.74351 0.0
C1106 C 0.09768 0.67086 0.75497 0.0
C1107 C 0.08473 0.68411 0.75378 0.0
C1108 C 0.08755 0.70044 0.7412 0.0
C1109 C 0.06594 0.7429 0.64157 0.0
C1110 C 0.04673 0.74385 0.64609 0.0
C1111 C 0.08106 0.7416 0.65566 0.0
C1112 C 0.07737 0.74132 0.6746 0.0
C1113 C 0.05821 0.74214 0.67923 0.0
C1114 C 0.04305 0.74347 0.66511 0.0
C1115 C 0.09351 0.73983 0.68952 0.0
C1116 C 0.09112 0.72421 0.70308 0.0
C1117 C 0.11161 0.75298 0.68971 0.0
C1118 C 0.11465 0.77039 0.67644 0.0
C1119 C 0.10148 0.78362 0.67492 0.0
C1120 C 0.10435 0.79993 0.66233 0.0
C1121 C 0.12043 0.80325 0.65125 0.0
C1122 C 0.1337 0.79028 0.65278 0.0
C1123 C 0.13088 0.77393 0.66535 0.0
H1124 H 0.12263 0.81589 0.6415 0.0
H1125 H 0.09548 0.65823 0.76473 0.0
H1126 H 0.9847 0.58823 0.49002 0.0
H1127 H 0.99016 0.61518 0.51033 0.0
H1128 H 0.96489 0.57696 0.55537 0.0
H1129 H 0.9595 0.54994 0.53519 0.0
H1130 H 0.94932 0.60921 0.55109 0.0
H1131 H 0.01453 0.59412 0.5565 0.0
H1132 H 0.04526 0.58775 0.54516 0.0
H1133 H 0.05544 0.6447 0.51754 0.0
H1134 H 0.02461 0.65133 0.5285 0.0
H1135 H 0.97197 0.67955 0.61858 0.0
H1136 H 0.97179 0.65009 0.60268 0.0
H1137 H 0.99688 0.68448 0.55528 0.0
H1138 H 0.99732 0.71386 0.57111 0.0
H1139 H 0.01341 0.65287 0.56267 0.0
H1140 H 0.94726 0.66701 0.55508 0.0
H1141 H 0.91635 0.67356 0.56591 0.0
H1142 H 0.90788 0.61838 0.59713 0.0
H1143 H 0.9389 0.61162 0.58667 0.0
C1144 C 0.98061 0.58549 0.50434 0.0
C1145 C 0.9716 0.56694 0.51095 0.0
C1146 C 0.98372 0.60092 0.51594 0.0
C1147 C 0.97804 0.59808 0.53443 0.0
C1148 C 0.96933 0.57952 0.54115 0.0
C1149 C 0.9662 0.5641 0.52956 0.0
C1150 C 0.9803 0.61462 0.54646 0.0
C1151 C 0.96342 0.61855 0.55389 0.0
C1152 C 0.99859 0.62708 0.54979 0.0
C1153 C 0.01716 0.62315 0.54319 0.0
C1154 C 0.02323 0.60523 0.54788 0.0
C1155 C 0.04069 0.60158 0.54154 0.0
C1156 C 0.05227 0.61579 0.5306 0.0
C1157 C 0.04644 0.6337 0.526 0.0
C1158 C 0.02899 0.63742 0.53229 0.0
C1159 C 0.97762 0.68082 0.60485 0.0
C1160 C 0.98463 0.69906 0.59611 0.0
C1161 C 0.97745 0.66397 0.59575 0.0
C1162 C 0.98409 0.66509 0.57767 0.0
C1163 C 0.99169 0.68325 0.56921 0.0
C1164 C 0.99193 0.70006 0.57831 0.0
C1165 C 0.98242 0.64748 0.56718 0.0
C1166 C 0.99937 0.6434 0.56 0.0
C1167 C 0.96418 0.63489 0.56402 0.0
C1168 C 0.9455 0.63891 0.57026 0.0
C1169 C 0.93888 0.65634 0.56437 0.0
C1170 C 0.92133 0.66008 0.57042 0.0
C1171 C 0.91019 0.64642 0.58225 0.0
C1172 C 0.91655 0.62897 0.588 0.0
C1173 C 0.9341 0.62517 0.58201 0.0
H1174 H 0.8966 0.64934 0.58692 0.0
H1175 H 0.06578 0.61294 0.5257 0.0
H1176 H 0.72569 0.87435 0.24439 0.0
H1177 H 0.75184 0.90283 0.24424 0.0
H1178 H 0.79574 0.86602 0.24659 0.0
H1179 H 0.76971 0.83747 0.24727 0.0
H1180 H 0.80592 0.89393 0.27109 0.0
H1181 H 0.78318 0.8905 0.20591 0.0
H1182 H 0.75843 0.88874 0.17883 0.0
H1183 H 0.74375 0.94289 0.19086 0.0
H1184 H 0.76825 0.94484 0.21818 0.0
H1185 H 0.88898 0.96153 0.24443 0.0
H1186 H 0.8613 0.93469 0.24566 0.0
H1187 H 0.82078 0.97485 0.24426 0.0
H1188 H 0.84843 0.00194 0.24288 0.0
H1189 H 0.80792 0.94628 0.22018 0.0
H1190 H 0.83158 0.95043 0.28459 0.0
H1191 H 0.85652 0.95236 0.31153 0.0
H1192 H 0.86942 0.89702 0.30106 0.0
H1193 H 0.84477 0.89488 0.27388 0.0
C1194 C 0.74092 0.87232 0.24496 0.0
C1195 C 0.74562 0.85364 0.24579 0.0
C1196 C 0.75583 0.88861 0.24473 0.0
C1197 C 0.77574 0.88655 0.24525 0.0
C1198 C 0.78048 0.86794 0.24615 0.0
C1199 C 0.76558 0.85164 0.24635 0.0
C1200 C 0.79167 0.90378 0.24505 0.0
C1201 C 0.80648 0.90527 0.25985 0.0
C1202 C 0.79209 0.91883 0.23065 0.0
C1203 C 0.7774 0.91771 0.2142 0.0
C1204 C 0.77456 0.90196 0.20287 0.0
C1205 C 0.7606 0.90094 0.18746 0.0
C1206 C 0.74948 0.91567 0.18316 0.0
C1207 C 0.75235 0.93148 0.19423 0.0
C1208 C 0.76628 0.93255 0.20966 0.0
C1209 C 0.87421 0.96473 0.24441 0.0
C1210 C 0.87097 0.98395 0.24361 0.0
C1211 C 0.85839 0.94933 0.24519 0.0
C1212 C 0.839 0.95276 0.24525 0.0
C1213 C 0.83564 0.97189 0.24427 0.0
C1214 C 0.85148 0.98735 0.24355 0.0
C1215 C 0.82227 0.93632 0.24611 0.0
C1216 C 0.8073 0.93498 0.23146 0.0
C1217 C 0.82168 0.92141 0.26066 0.0
C1218 C 0.83644 0.92258 0.27709 0.0
C1219 C 0.83984 0.93874 0.28794 0.0
C1220 C 0.85391 0.93986 0.30327 0.0
C1221 C 0.86458 0.92485 0.30797 0.0
C1222 C 0.86116 0.90865 0.29739 0.0
C1223 C 0.84713 0.90747 0.28203 0.0
H1224 H 0.87547 0.92575 0.31984 0.0
H1225 H 0.73868 0.91486 0.17122 0.0
H1226 H 0.75425 0.19099 0.24609 0.0
H1227 H 0.77234 0.16495 0.24228 0.0
H1228 H 0.77766 0.15302 0.30233 0.0
H1229 H 0.75988 0.17952 0.30615 0.0
H1230 H 0.81201 0.15419 0.28848 0.0
H1231 H 0.74648 0.12185 0.27339 0.0
H1232 H 0.71292 0.11743 0.2576 0.0
H1233 H 0.73706 0.12039 0.20412 0.0
H1234 H 0.77079 0.12511 0.21956 0.0
H1235 H 0.85703 0.07263 0.27609 0.0
H1236 H 0.83321 0.09155 0.28505 0.0
H1237 H 0.82391 0.11262 0.22734 0.0
H1238 H 0.84739 0.0937 0.21827 0.0
H1239 H 0.78944 0.10346 0.24362 0.0
H1240 H 0.85474 0.13981 0.25876 0.0
H1241 H 0.88833 0.1446 0.27454 0.0
H1242 H 0.86411 0.13382 0.32825 0.0
H1243 H 0.83037 0.12872 0.31277 0.0
C1244 C 0.7591 0.18267 0.25845 0.0
C1245 C 0.75562 0.18717 0.27642 0.0
C1246 C 0.76935 0.16771 0.25627 0.0
C1247 C 0.77616 0.1568 0.272 0.0
C1248 C 0.7725 0.16117 0.28998 0.0
C1249 C 0.7623 0.17621 0.29217 0.0
C1250 C 0.78798 0.14158 0.26962 0.0
C1251 C 0.80688 0.14284 0.27897 0.0
C1252 C 0.78147 0.12692 0.257 0.0
C1253 C 0.76118 0.12397 0.24765 0.0
C1254 C 0.74464 0.12169 0.25825 0.0
C1255 C 0.72559 0.11911 0.24936 0.0
C1256 C 0.72286 0.11866 0.22987 0.0
C1257 C 0.73919 0.12075 0.21922 0.0
C1258 C 0.75828 0.12335 0.22804 0.0
C1259 C 0.84979 0.08117 0.26529 0.0
C1260 C 0.85422 0.08174 0.24647 0.0
C1261 C 0.83623 0.09203 0.27045 0.0
C1262 C 0.82692 0.10367 0.25689 0.0
C1263 C 0.83089 0.10376 0.23805 0.0
C1264 C 0.84441 0.09297 0.2329 0.0
C1265 C 0.81355 0.11635 0.26219 0.0
C1266 C 0.79439 0.11461 0.25336 0.0
C1267 C 0.8198 0.13055 0.27531 0.0
C1268 C 0.84006 0.13366 0.28461 0.0
C1269 C 0.85659 0.13831 0.27393 0.0
C1270 C 0.87565 0.14111 0.28282 0.0
C1271 C 0.87836 0.13945 0.30238 0.0
C1272 C 0.862 0.13506 0.3131 0.0
C1273 C 0.8429 0.13222 0.30428 0.0
H1274 H 0.89312 0.14163 0.30924 0.0
H1275 H 0.70809 0.11667 0.22301 0.0
H1276 H 0.42435 0.00855 0.02016 0.0
H1277 H 0.3935 0.98547 0.02153 0.0
H1278 H 0.39236 0.97937 0.96212 0.0
H1279 H 0.42269 0.0032 0.96043 0.0
H1280 H 0.35626 0.97985 0.97138 0.0
H1281 H 0.40889 0.94597 0.99471 0.0
H1282 H 0.43827 0.94018 0.01507 0.0
H1283 H 0.40545 0.93642 0.06372 0.0
H1284 H 0.37593 0.94244 0.04365 0.0
H1285 H 0.30939 0.87199 0.99539 0.0
H1286 H 0.33728 0.89822 0.99189 0.0
H1287 H 0.30008 0.93967 0.99931 0.0
H1288 H 0.27178 0.91336 0.00237 0.0
H1289 H 0.3551 0.92199 0.01594 0.0
H1290 H 0.31882 0.98329 0.97675 0.0
H1291 H 0.29072 0.98732 0.95386 0.0
H1292 H 0.29283 0.93273 0.9324 0.0
H1293 H 0.32109 0.9285 0.95498 0.0
C1294 C 0.4174 0.00256 0.00731 0.0
C1295 C 0.42611 0.00769 0.99019 0.0
C1296 C 0.39983 0.98921 0.00816 0.0
C1297 C 0.39073 0.98046 0.99198 0.0
C1298 C 0.39912 0.98587 0.9748 0.0
C1299 C 0.41661 0.99933 0.97391 0.0
C1300 C 0.37288 0.96519 0.99305 0.0
C1301 C 0.35597 0.96722 0.98116 0.0
C1302 C 0.37257 0.94855 0.0056 0.0
C1303 C 0.39027 0.94485 0.0177 0.0
C1304 C 0.40798 0.94404 0.00976 0.0
C1305 C 0.42466 0.9407 0.02125 0.0
C1306 C 0.42375 0.93799 0.04068 0.0
C1307 C 0.40615 0.93855 0.04867 0.0
C1308 C 0.38944 0.94192 0.03725 0.0
C1309 C 0.30703 0.88668 0.99615 0.0
C1310 C 0.28832 0.89055 0.99922 0.0
C1311 C 0.32305 0.90169 0.99419 0.0
C1312 C 0.32085 0.92095 0.99533 0.0
C1313 C 0.30212 0.92495 0.99813 0.0
C1314 C 0.28596 0.90989 0.99992 0.0
C1315 C 0.33841 0.93659 0.99424 0.0
C1316 C 0.35529 0.93466 0.00621 0.0
C1317 C 0.33881 0.95305 0.98144 0.0
C1318 C 0.32192 0.95549 0.96771 0.0
C1319 C 0.31331 0.97218 0.96711 0.0
C1320 C 0.29736 0.97449 0.95419 0.0
C1321 C 0.28995 0.96026 0.94173 0.0
C1322 C 0.29853 0.94371 0.94211 0.0
C1323 C 0.3145 0.94133 0.95499 0.0
H1324 H 0.27759 0.96207 0.93175 0.0
H1325 H 0.43667 0.9354 0.04955 0.0
H1326 H 0.25597 0.30663 0.33169 0.0
H1327 H 0.23404 0.33047 0.32926 0.0
H1328 H 0.27663 0.37091 0.29891 0.0
H1329 H 0.2991 0.34762 0.30223 0.0
H1330 H 0.26298 0.38895 0.32341 0.0
H1331 H 0.23331 0.34437 0.27731 0.0
H1332 H 0.21861 0.31249 0.26596 0.0
H1333 H 0.17262 0.30709 0.30357 0.0
H1334 H 0.1872 0.33885 0.31532 0.0
H1335 H 0.20833 0.45067 0.26933 0.0
H1336 H 0.22314 0.42212 0.27785 0.0
H1337 H 0.18578 0.40657 0.32365 0.0
H1338 H 0.17088 0.43571 0.31547 0.0
H1339 H 0.19374 0.37473 0.29604 0.0
H1340 H 0.22367 0.42189 0.34011 0.0
H1341 H 0.23864 0.45476 0.34871 0.0
H1342 H 0.28471 0.45578 0.31202 0.0
H1343 H 0.26981 0.42302 0.30297 0.0
C1344 C 0.2608 0.32067 0.32467 0.0
C1345 C 0.27939 0.32514 0.31716 0.0
C1346 C 0.24809 0.33423 0.32309 0.0
C1347 C 0.25353 0.35246 0.31371 0.0
C1348 C 0.27204 0.35695 0.3062 0.0
C1349 C 0.28482 0.34349 0.30792 0.0
C1350 C 0.24019 0.36707 0.31186 0.0
C1351 C 0.24786 0.38576 0.3174 0.0
C1352 C 0.22026 0.36294 0.30442 0.0
C1353 C 0.21148 0.34387 0.29735 0.0
C1354 C 0.22015 0.33631 0.28327 0.0
C1355 C 0.21183 0.31828 0.27674 0.0
C1356 C 0.19473 0.30774 0.28408 0.0
C1357 C 0.18589 0.31525 0.29793 0.0
C1358 C 0.19417 0.33327 0.30452 0.0
C1359 C 0.20297 0.44118 0.28112 0.0
C1360 C 0.18848 0.44569 0.29183 0.0
C1361 C 0.2115 0.4248 0.28593 0.0
C1362 C 0.20565 0.41236 0.30142 0.0
C1363 C 0.19046 0.41607 0.31162 0.0
C1364 C 0.18199 0.43271 0.30693 0.0
C1365 C 0.21671 0.39643 0.30738 0.0
C1366 C 0.20871 0.37764 0.30248 0.0
C1367 C 0.23641 0.40046 0.31522 0.0
C1368 C 0.24552 0.42008 0.32075 0.0
C1369 C 0.23688 0.4292 0.33374 0.0
C1370 C 0.24538 0.44779 0.33873 0.0
C1371 C 0.26259 0.45737 0.33088 0.0
C1372 C 0.27137 0.44835 0.31807 0.0
C1373 C 0.26291 0.42976 0.31303 0.0
H1374 H 0.26915 0.47176 0.33475 0.0
H1375 H 0.18831 0.29379 0.27901 0.0
H1376 H 0.10747 0.99895 0.5164 0.0
H1377 H 0.13858 0.02053 0.52415 0.0
H1378 H 0.10917 0.06982 0.5128 0.0
H1379 H 0.07808 0.04833 0.50498 0.0
H1380 H 0.14329 0.07607 0.49694 0.0
H1381 H 0.12163 0.05229 0.55802 0.0
H1382 H 0.11077 0.02703 0.58263 0.0
H1383 H 0.16543 0.00595 0.58303 0.0
H1384 H 0.17651 0.03094 0.55823 0.0
H1385 H 0.20748 0.15045 0.54024 0.0
H1386 H 0.17982 0.12483 0.53318 0.0
H1387 H 0.21848 0.08266 0.54194 0.0
H1388 H 0.24657 0.1084 0.54916 0.0
H1389 H 0.18226 0.07049 0.55809 0.0
H1390 H 0.20486 0.09592 0.49861 0.0
H1391 H 0.21566 0.12136 0.47415 0.0
H1392 H 0.15915 0.13932 0.47073 0.0
H1393 H 0.14809 0.11416 0.49539 0.0
C1394 C 0.1076 0.01437 0.51575 0.0
C1395 C 0.09029 0.02193 0.51011 0.0
C1396 C 0.1254 0.0267 0.52017 0.0
C1397 C 0.1262 0.04681 0.51922 0.0
C1398 C 0.10894 0.05436 0.51358 0.0
C1399 C 0.09118 0.04207 0.50908 0.0
C1400 C 0.14502 0.0601 0.52379 0.0
C1401 C 0.15169 0.07494 0.51038 0.0
C1402 C 0.15638 0.05826 0.5411 0.0
C1403 C 0.14981 0.04335 0.55613 0.0
C1404 C 0.13127 0.04218 0.56326 0.0
C1405 C 0.12509 0.02792 0.57726 0.0
C1406 C 0.13738 0.01485 0.58435 0.0
C1407 C 0.15591 0.01606 0.5775 0.0
C1408 C 0.16216 0.03028 0.56349 0.0
C1409 C 0.21023 0.13576 0.54075 0.0
C1410 C 0.22937 0.13156 0.54515 0.0
C1411 C 0.19434 0.12111 0.53665 0.0
C1412 C 0.19713 0.10188 0.53677 0.0
C1413 C 0.21604 0.09744 0.54169 0.0
C1414 C 0.23207 0.11218 0.54576 0.0
C1415 C 0.18019 0.08667 0.5314 0.0
C1416 C 0.17393 0.07147 0.5446 0.0
C1417 C 0.16916 0.08815 0.51389 0.0
C1418 C 0.1757 0.10323 0.49896 0.0
C1419 C 0.19478 0.10538 0.49274 0.0
C1420 C 0.20094 0.11974 0.47883 0.0
C1421 C 0.18811 0.13197 0.47092 0.0
C1422 C 0.16907 0.12984 0.47688 0.0
C1423 C 0.16284 0.11551 0.49081 0.0
H1424 H 0.19291 0.14308 0.46015 0.0
H1425 H 0.13256 0.00382 0.59518 0.0
H1426 H 0.80036 0.17587 0.75316 0.0
H1427 H 0.77615 0.14598 0.75619 0.0
H1428 H 0.72902 0.17919 0.75185 0.0
H1429 H 0.75322 0.20921 0.74863 0.0
H1430 H 0.72819 0.15016 0.78272 0.0
H1431 H 0.73256 0.15651 0.71616 0.0
H1432 H 0.74974 0.16148 0.68702 0.0
H1433 H 0.77498 0.11041 0.70221 0.0
H1434 H 0.75818 0.10529 0.73161 0.0
H1435 H 0.65675 0.06422 0.78457 0.0
H1436 H 0.67404 0.09635 0.77437 0.0
H1437 H 0.72477 0.07173 0.76439 0.0
H1438 H 0.70734 0.03963 0.77384 0.0
H1439 H 0.72041 0.09853 0.73834 0.0
H1440 H 0.72085 0.09412 0.80582 0.0
H1441 H 0.70599 0.08891 0.83624 0.0
H1442 H 0.67437 0.13578 0.82088 0.0
H1443 H 0.68887 0.1411 0.79026 0.0
C1444 C 0.78483 0.17677 0.75283 0.0
C1445 C 0.77862 0.1948 0.75069 0.0
C1446 C 0.77104 0.15973 0.75445 0.0
C1447 C 0.75082 0.16042 0.75413 0.0
C1448 C 0.74456 0.1784 0.75206 0.0
C1449 C 0.75835 0.19547 0.75015 0.0
C1450 C 0.73639 0.1423 0.75657 0.0
C1451 C 0.72614 0.13899 0.77285 0.0
C1452 C 0.73417 0.12762 0.74388 0.0
C1453 C 0.74423 0.1306 0.72617 0.0
C1454 C 0.7419 0.14642 0.71337 0.0
C1455 C 0.75155 0.14925 0.69679 0.0
C1456 C 0.76348 0.13629 0.69278 0.0
C1457 C 0.76575 0.12045 0.70534 0.0
C1458 C 0.75615 0.11756 0.72195 0.0
C1459 C 0.6715 0.06566 0.77998 0.0
C1460 C 0.68073 0.04942 0.7801 0.0
C1461 C 0.68142 0.08404 0.77425 0.0
C1462 C 0.70088 0.08655 0.76896 0.0
C1463 C 0.70979 0.07021 0.76842 0.0
C1464 C 0.6998 0.05184 0.77387 0.0
C1465 C 0.71241 0.10615 0.76473 0.0
C1466 C 0.72218 0.10976 0.74811 0.0
C1467 C 0.71445 0.12101 0.77728 0.0
C1468 C 0.70575 0.11785 0.79568 0.0
C1469 C 0.71061 0.10321 0.80888 0.0
C1470 C 0.70227 0.10026 0.82616 0.0
C1471 C 0.68919 0.11197 0.83046 0.0
C1472 C 0.68447 0.12669 0.81751 0.0
C1473 C 0.69275 0.12969 0.8002 0.0
H1474 H 0.68275 0.10966 0.84385 0.0
H1475 H 0.77093 0.13851 0.67993 0.0
H1476 H 0.43431 0.00694 0.60979 0.0
H1477 H 0.40843 0.02682 0.60541 0.0
H1478 H 0.42307 0.04275 0.54836 0.0
H1479 H 0.44938 0.02337 0.55281 0.0
H1480 H 0.41776 0.07368 0.56534 0.0
H1481 H 0.38206 0.0096 0.558 0.0
H1482 H 0.37169 0.97493 0.56687 0.0
H1483 H 0.34849 0.98901 0.61653 0.0
H1484 H 0.35898 0.02377 0.60809 0.0
H1485 H 0.33335 0.11752 0.53949 0.0
H1486 H 0.35708 0.09543 0.54037 0.0
H1487 H 0.34509 0.07637 0.59754 0.0
H1488 H 0.32115 0.09809 0.59667 0.0
H1489 H 0.34858 0.04642 0.5786 0.0
H1490 H 0.38595 0.1102 0.58696 0.0
H1491 H 0.39671 0.14491 0.57852 0.0
H1492 H 0.417 0.13133 0.5272 0.0
H1493 H 0.40612 0.09653 0.53524 0.0
C1494 C 0.43215 0.01481 0.59636 0.0
C1495 C 0.44391 0.01351 0.58164 0.0
C1496 C 0.4172 0.02601 0.59381 0.0
C1497 C 0.41361 0.03609 0.57646 0.0
C1498 C 0.42548 0.03503 0.56183 0.0
C1499 C 0.44043 0.02382 0.56436 0.0
C1500 C 0.39765 0.04795 0.57368 0.0
C1501 C 0.40257 0.06764 0.56794 0.0
C1502 C 0.37788 0.04019 0.57742 0.0
C1503 C 0.37147 0.01929 0.58249 0.0
C1504 C 0.37488 0.0053 0.57089 0.0
C1505 C 0.36896 0.98563 0.57582 0.0
C1506 C 0.35948 0.97977 0.59227 0.0
C1507 C 0.35586 0.99357 0.6038 0.0
C1508 C 0.36177 0.01326 0.59894 0.0
C1509 C 0.3356 0.10848 0.55218 0.0
C1510 C 0.32542 0.10969 0.56805 0.0
C1511 C 0.34927 0.09592 0.5527 0.0
C1512 C 0.35313 0.08445 0.56913 0.0
C1513 C 0.34243 0.08511 0.58472 0.0
C1514 C 0.32875 0.0976 0.58421 0.0
C1515 C 0.36873 0.07218 0.57039 0.0
C1516 C 0.36374 0.05242 0.57586 0.0
C1517 C 0.38846 0.07988 0.56643 0.0
C1518 C 0.39502 0.10078 0.5616 0.0
C1519 C 0.39257 0.11463 0.57381 0.0
C1520 C 0.39871 0.13431 0.56911 0.0
C1521 C 0.40748 0.14032 0.55231 0.0
C1522 C 0.41017 0.12665 0.54019 0.0
C1523 C 0.40403 0.10695 0.54482 0.0
H1524 H 0.41223 0.15557 0.5487 0.0
H1525 H 0.35491 0.96454 0.59607 0.0
H1526 H 0.57642 0.50945 0.50866 0.0
H1527 H 0.6027 0.4918 0.50322 0.0
H1528 H 0.56106 0.43822 0.50546 0.0
H1529 H 0.53498 0.45577 0.51149 0.0
H1530 H 0.59391 0.43345 0.5249 0.0
H1531 H 0.57765 0.46181 0.46343 0.0
H1532 H 0.57263 0.48838 0.43988 0.0
H1533 H 0.63318 0.51521 0.45021 0.0
H1534 H 0.63849 0.48891 0.47401 0.0
H1535 H 0.64506 0.37156 0.486 0.0
H1536 H 0.62137 0.39297 0.48804 0.0
H1537 H 0.669 0.44144 0.49325 0.0
H1538 H 0.693 0.42003 0.4912 0.0
H1539 H 0.63515 0.45034 0.47071 0.0
H1540 H 0.65125 0.42105 0.53166 0.0
H1541 H 0.65595 0.39394 0.55466 0.0
H1542 H 0.59494 0.36843 0.54469 0.0
H1543 H 0.58994 0.39526 0.52141 0.0
C1544 C 0.57299 0.49387 0.5082 0.0
C1545 C 0.5538 0.4839 0.51094 0.0
C1546 C 0.58794 0.48382 0.50489 0.0
C1547 C 0.58386 0.46366 0.50379 0.0
C1548 C 0.56462 0.45374 0.50634 0.0
C1549 C 0.54973 0.46376 0.5098 0.0
C1550 C 0.5996 0.45275 0.50033 0.0
C1551 C 0.60273 0.43704 0.51291 0.0
C1552 C 0.61156 0.45771 0.48498 0.0
C1553 C 0.60841 0.4735 0.47064 0.0
C1554 C 0.58985 0.47345 0.46078 0.0
C1555 C 0.58696 0.48845 0.44737 0.0
C1556 C 0.60256 0.5035 0.44359 0.0
C1557 C 0.6211 0.50356 0.45317 0.0
C1558 C 0.62406 0.4886 0.46662 0.0
C1559 C 0.65056 0.38681 0.48728 0.0
C1560 C 0.67097 0.39403 0.48867 0.0
C1561 C 0.63697 0.39903 0.48849 0.0
C1562 C 0.64345 0.41871 0.49113 0.0
C1563 C 0.66372 0.42626 0.4913 0.0
C1564 C 0.6774 0.414 0.49013 0.0
C1565 C 0.62908 0.43093 0.49508 0.0
C1566 C 0.62631 0.44685 0.48269 0.0
C1567 C 0.61735 0.42616 0.51056 0.0
C1568 C 0.62027 0.41008 0.52467 0.0
C1569 C 0.63887 0.40959 0.53426 0.0
C1570 C 0.64158 0.39428 0.54737 0.0
C1571 C 0.62577 0.37945 0.5511 0.0
C1572 C 0.60718 0.37992 0.54177 0.0
C1573 C 0.6044 0.39518 0.52863 0.0
H1574 H 0.6279 0.36761 0.56125 0.0
H1575 H 0.60029 0.5151 0.4332 0.0
H1576 H 0.74092 0.25354 0.32243 0.0
H1577 H 0.74552 0.27348 0.34928 0.0
H1578 H 0.68243 0.26826 0.35014 0.0
H1579 H 0.67759 0.24768 0.32377 0.0
H1580 H 0.70424 0.30686 0.35443 0.0
H1581 H 0.70354 0.2412 0.38029 0.0
H1582 H 0.7144 0.20954 0.38335 0.0
H1583 H 0.77364 0.23693 0.39917 0.0
H1584 H 0.76318 0.2688 0.39592 0.0
H1585 H 0.70073 0.33674 0.4469 0.0
H1586 H 0.69617 0.32177 0.41685 0.0
H1587 H 0.75714 0.31413 0.42267 0.0
H1588 H 0.76145 0.32824 0.45295 0.0
H1589 H 0.73598 0.28232 0.41416 0.0
H1590 H 0.73801 0.34768 0.3892 0.0
H1591 H 0.72862 0.38 0.38533 0.0
H1592 H 0.66934 0.35482 0.36705 0.0
H1593 H 0.67831 0.32231 0.37105 0.0
C1594 C 0.72798 0.25644 0.32841 0.0
C1595 C 0.70887 0.24884 0.32095 0.0
C1596 C 0.73066 0.268 0.34365 0.0
C1597 C 0.71431 0.2723 0.35169 0.0
C1598 C 0.69524 0.2652 0.34404 0.0
C1599 C 0.69253 0.25347 0.32891 0.0
C1600 C 0.71711 0.28346 0.36862 0.0
C1601 C 0.71099 0.30148 0.36758 0.0
C1602 C 0.72634 0.27657 0.38558 0.0
C1603 C 0.73262 0.2574 0.38767 0.0
C1604 C 0.71892 0.24049 0.38426 0.0
C1605 C 0.72499 0.2225 0.38606 0.0
C1606 C 0.74471 0.22123 0.3914 0.0
C1607 C 0.75838 0.23794 0.39501 0.0
C1608 C 0.75238 0.25597 0.3932 0.0
C1609 C 0.71321 0.33214 0.44158 0.0
C1610 C 0.7314 0.33353 0.45231 0.0
C1611 C 0.71063 0.32364 0.42437 0.0
C1612 C 0.72633 0.31683 0.41739 0.0
C1613 C 0.74474 0.31909 0.42776 0.0
C1614 C 0.74721 0.32722 0.44507 0.0
C1615 C 0.72335 0.30604 0.40009 0.0
C1616 C 0.72933 0.28792 0.40105 0.0
C1617 C 0.71425 0.31301 0.38302 0.0
C1618 C 0.70879 0.33254 0.38061 0.0
C1619 C 0.72293 0.34902 0.3845 0.0
C1620 C 0.71769 0.36738 0.38226 0.0
C1621 C 0.69838 0.36946 0.376 0.0
C1622 C 0.68428 0.35319 0.37193 0.0
C1623 C 0.68944 0.33479 0.37416 0.0
H1624 H 0.69435 0.38369 0.37427 0.0
H1625 H 0.74939 0.20729 0.39279 0.0
H1626 H 0.52967 0.03193 0.95858 0.0
H1627 H 0.55319 0.01983 0.94095 0.0
H1628 H 0.50878 0.00961 0.89491 0.0
H1629 H 0.48513 0.02121 0.91273 0.0
H1630 H 0.52938 0.98073 0.89982 0.0
H1631 H 0.54486 0.05009 0.89442 0.0
H1632 H 0.55316 0.08275 0.90602 0.0
H1633 H 0.60609 0.06831 0.93542 0.0
H1634 H 0.59796 0.03546 0.9242 0.0
H1635 H 0.59429 0.98228 0.82645 0.0
H1636 H 0.56921 0.98659 0.84705 0.0
H1637 H 0.61381 0.99498 0.89311 0.0
H1638 H 0.63891 0.99088 0.87264 0.0
H1639 H 0.59308 0.02379 0.88879 0.0
H1640 H 0.57805 0.95452 0.89242 0.0
H1641 H 0.56952 0.92223 0.88005 0.0
H1642 H 0.51565 0.93687 0.8529 0.0
H1643 H 0.52398 0.96936 0.8649 0.0
C1644 C 0.52489 0.02681 0.94481 0.0
C1645 C 0.50554 0.02728 0.9371 0.0
C1646 C 0.53835 0.02003 0.93469 0.0
C1647 C 0.53283 0.01399 0.91649 0.0
C1648 C 0.51338 0.01412 0.90893 0.0
C1649 C 0.49989 0.02079 0.9191 0.0
C1650 C 0.54751 0.00827 0.90505 0.0
C1651 C 0.54323 0.99022 0.89725 0.0
C1652 C 0.56574 0.02049 0.90192 0.0
C1653 C 0.57069 0.04026 0.90863 0.0
C1654 C 0.55819 0.05384 0.90348 0.0
C1655 C 0.56288 0.07239 0.90996 0.0
C1656 C 0.58011 0.07758 0.92149 0.0
C1657 C 0.59273 0.06425 0.92652 0.0
C1658 C 0.5881 0.04567 0.92009 0.0
C1659 C 0.59868 0.98464 0.84105 0.0
C1660 C 0.61864 0.98637 0.84785 0.0
C1661 C 0.58432 0.98708 0.85284 0.0
C1662 C 0.58963 0.99115 0.87164 0.0
C1663 C 0.60938 0.99196 0.87864 0.0
C1664 C 0.62371 0.98954 0.8669 0.0
C1665 C 0.57504 0.99618 0.88363 0.0
C1666 C 0.5793 0.0142 0.89146 0.0
C1667 C 0.55679 0.98397 0.88665 0.0
C1668 C 0.55174 0.96444 0.87942 0.0
C1669 C 0.56447 0.95092 0.88368 0.0
C1670 C 0.55965 0.93256 0.87676 0.0
C1671 C 0.54208 0.92752 0.86566 0.0
C1672 C 0.52926 0.9408 0.86148 0.0
C1673 C 0.53402 0.95918 0.86836 0.0
H1674 H 0.53838 0.9133 0.86032 0.0
H1675 H 0.58372 0.09195 0.92649 0.0
H1676 H 0.31008 0.247 0.34142 0.0
H1677 H 0.31041 0.2258 0.37023 0.0
H1678 H 0.30829 0.27405 0.40274 0.0
H1679 H 0.3086 0.29542 0.3741 0.0
H1680 H 0.33296 0.25155 0.42023 0.0
H1681 H 0.26651 0.2426 0.39028 0.0
H1682 H 0.24127 0.23461 0.36425 0.0
H1683 H 0.25612 0.17796 0.36472 0.0
H1684 H 0.28164 0.18572 0.39062 0.0
H1685 H 0.26189 0.19853 0.4893 0.0
H1686 H 0.26891 0.21114 0.45759 0.0
H1687 H 0.3257 0.19299 0.46534 0.0
H1688 H 0.31877 0.18031 0.4975 0.0
H1689 H 0.2771 0.19682 0.42633 0.0
H1690 H 0.35829 0.22961 0.44257 0.0
H1691 H 0.38144 0.2399 0.46957 0.0
H1692 H 0.33357 0.25234 0.49811 0.0
H1693 H 0.31022 0.24235 0.4712 0.0
C1694 C 0.31002 0.25316 0.35473 0.0
C1695 C 0.30914 0.27288 0.35545 0.0
C1696 C 0.31008 0.24099 0.37118 0.0
C1697 C 0.30918 0.24829 0.38863 0.0
C1698 C 0.30899 0.26809 0.38944 0.0
C1699 C 0.30893 0.28025 0.37303 0.0
C1700 C 0.30729 0.23527 0.406 0.0
C1701 C 0.32089 0.23943 0.42149 0.0
C1702 C 0.2915 0.2195 0.40772 0.0
C1703 C 0.27613 0.21481 0.39221 0.0
C1704 C 0.26449 0.22849 0.38473 0.0
C1705 C 0.25012 0.224 0.37002 0.0
C1706 C 0.24713 0.20581 0.3628 0.0
C1707 C 0.25848 0.19206 0.37031 0.0
C1708 C 0.27289 0.19649 0.385 0.0
C1709 C 0.27582 0.19698 0.48426 0.0
C1710 C 0.28988 0.18861 0.49601 0.0
C1711 C 0.27975 0.20411 0.46604 0.0
C1712 C 0.2979 0.2032 0.45913 0.0
C1713 C 0.31166 0.19399 0.47046 0.0
C1714 C 0.30765 0.18668 0.48878 0.0
C1715 C 0.3026 0.21326 0.44064 0.0
C1716 C 0.28951 0.20857 0.42492 0.0
C1717 C 0.31862 0.22877 0.43882 0.0
C1718 C 0.33252 0.23499 0.455 0.0
C1719 C 0.35274 0.23457 0.45461 0.0
C1720 C 0.36589 0.24035 0.46989 0.0
C1721 C 0.35897 0.24669 0.48558 0.0
C1722 C 0.3389 0.24735 0.48599 0.0
C1723 C 0.32571 0.24161 0.47074 0.0
H1724 H 0.36917 0.25115 0.49739 0.0
H1725 H 0.23599 0.20236 0.35141 0.0
H1726 H 0.50029 0.54708 0.95783 0.0
H1727 H 0.4821 0.54893 0.92691 0.0
H1728 H 0.49142 0.49166 0.91772 0.0
H1729 H 0.50936 0.48966 0.94867 0.0
H1730 H 0.50106 0.51871 0.88779 0.0
H1731 H 0.44743 0.49777 0.92758 0.0
H1732 H 0.42758 0.49994 0.95398 0.0
H1733 H 0.41559 0.5551 0.93055 0.0
H1734 H 0.43562 0.55338 0.90413 0.0
H1735 H 0.43991 0.49575 0.80772 0.0
H1736 H 0.45336 0.4954 0.84026 0.0
H1737 H 0.43641 0.55056 0.84565 0.0
H1738 H 0.42242 0.55083 0.81296 0.0
H1739 H 0.43098 0.52721 0.87751 0.0
H1740 H 0.48347 0.54853 0.83768 0.0
H1741 H 0.5036 0.54743 0.81122 0.0
H1742 H 0.51861 0.49344 0.83475 0.0
H1743 H 0.49833 0.49407 0.86123 0.0
C1744 C 0.49848 0.53493 0.94916 0.0
C1745 C 0.50668 0.51843 0.9554 0.0
C1746 C 0.48801 0.53596 0.93158 0.0
C1747 C 0.48547 0.52045 0.92002 0.0
C1748 C 0.49335 0.50383 0.92638 0.0
C1749 C 0.50363 0.50273 0.944 0.0
C1750 C 0.47511 0.52167 0.90105 0.0
C1751 C 0.48567 0.52034 0.88555 0.0
C1752 C 0.45525 0.5245 0.89813 0.0
C1753 C 0.44321 0.52555 0.91399 0.0
C1754 C 0.44072 0.51045 0.92815 0.0
C1755 C 0.4294 0.51158 0.94309 0.0
C1756 C 0.42038 0.52768 0.94397 0.0
C1757 C 0.42262 0.54266 0.92987 0.0
C1758 C 0.43394 0.54161 0.9149 0.0
C1759 C 0.43884 0.50775 0.81583 0.0
C1760 C 0.43033 0.52345 0.80765 0.0
C1761 C 0.44659 0.50754 0.83445 0.0
C1762 C 0.44634 0.52317 0.84526 0.0
C1763 C 0.43689 0.53841 0.83751 0.0
C1764 C 0.42891 0.53854 0.81884 0.0
C1765 C 0.45684 0.52386 0.86426 0.0
C1766 C 0.44638 0.52565 0.87974 0.0
C1767 C 0.47691 0.52166 0.8672 0.0
C1768 C 0.48924 0.52128 0.85136 0.0
C1769 C 0.49095 0.53636 0.83714 0.0
C1770 C 0.5024 0.53583 0.82215 0.0
C1771 C 0.51234 0.52036 0.82128 0.0
C1772 C 0.51089 0.50541 0.83543 0.0
C1773 C 0.49943 0.50585 0.85045 0.0
H1774 H 0.5212 0.51997 0.80966 0.0
H1775 H 0.41162 0.52852 0.95555 0.0
H1776 H 0.72071 0.79328 0.17564 0.0
H1777 H 0.73346 0.77134 0.15708 0.0
H1778 H 0.72506 0.72659 0.20191 0.0
H1779 H 0.71222 0.74864 0.2206 0.0
H1780 H 0.7611 0.72924 0.18598 0.0
H1781 H 0.69272 0.72349 0.16557 0.0
H1782 H 0.66179 0.73511 0.15445 0.0
H1783 H 0.68825 0.76237 0.10489 0.0
H1784 H 0.71945 0.75116 0.11584 0.0
H1785 H 0.77919 0.66142 0.12198 0.0
H1786 H 0.76394 0.67632 0.14539 0.0
H1787 H 0.76294 0.72714 0.10761 0.0
H1788 H 0.77791 0.71248 0.08437 0.0
H1789 H 0.72853 0.71646 0.1227 0.0
H1790 H 0.79785 0.72559 0.1449 0.0
H1791 H 0.82909 0.71457 0.15605 0.0
H1792 H 0.80096 0.68112 0.20208 0.0
H1793 H 0.76946 0.69176 0.19105 0.0
C1794 C 0.72169 0.77881 0.18157 0.0
C1795 C 0.71551 0.77261 0.19953 0.0
C1796 C 0.7289 0.76627 0.17095 0.0
C1797 C 0.72999 0.74727 0.17805 0.0
C1798 C 0.7243 0.74118 0.19618 0.0
C1799 C 0.71698 0.75373 0.20681 0.0
C1800 C 0.73672 0.73381 0.16622 0.0
C1801 C 0.75379 0.72612 0.17228 0.0
C1802 C 0.72725 0.72988 0.1483 0.0
C1803 C 0.70847 0.73659 0.14161 0.0
C1804 C 0.69199 0.73208 0.15237 0.0
C1805 C 0.67441 0.73858 0.14608 0.0
C1806 C 0.67307 0.7495 0.12899 0.0
C1807 C 0.68931 0.75392 0.11813 0.0
C1808 C 0.70695 0.74747 0.12436 0.0
C1809 C 0.77566 0.67575 0.1187 0.0
C1810 C 0.77958 0.68568 0.10124 0.0
C1811 C 0.76702 0.68426 0.13209 0.0
C1812 C 0.76233 0.70287 0.12826 0.0
C1813 C 0.76627 0.71272 0.11084 0.0
C1814 C 0.77482 0.70426 0.09752 0.0
C1815 C 0.75333 0.71242 0.14215 0.0
C1816 C 0.73572 0.71932 0.1365 0.0
C1817 C 0.76234 0.71563 0.16039 0.0
C1818 C 0.78126 0.70927 0.16702 0.0
C1819 C 0.79829 0.71575 0.15731 0.0
C1820 C 0.81605 0.70961 0.16362 0.0
C1821 C 0.81699 0.6971 0.17973 0.0
C1822 C 0.80019 0.69077 0.18958 0.0
C1823 C 0.78239 0.69686 0.18331 0.0
H1824 H 0.83076 0.69236 0.1846 0.0
H1825 H 0.65944 0.75451 0.12415 0.0
H1826 H 0.01882 0.01547 0.08009 0.0
H1827 H 1.00038 0.01426 0.1079 0.0
H1828 H 0.95077 0.03019 0.07307 0.0
H1829 H 0.96913 0.03146 0.04529 0.0
H1830 H 0.96009 0.05273 0.10139 0.0
H1831 H 0.9489 0.9846 0.09476 0.0
H1832 H 0.95806 0.95294 0.09117 0.0
H1833 H 0.99282 0.95642 0.14386 0.0
H1834 H 0.9841 0.98824 0.14765 0.0
H1835 H 0.8975 0.04502 0.17577 0.0
H1836 H 0.91048 0.03872 0.14667 0.0
H1837 H 0.96214 0.02305 0.1782 0.0
H1838 H 0.94921 0.02908 0.20728 0.0
H1839 H 0.94976 0.99906 0.15075 0.0
H1840 H 0.96314 0.06799 0.1561 0.0
H1841 H 0.95459 0.09991 0.15972 0.0
H1842 H 0.91617 0.09498 0.10924 0.0
H1843 H 0.92431 0.06289 0.10545 0.0
C1844 C 0.00383 0.0183 0.07834 0.0
C1845 C 0.99547 0.02369 0.06053 0.0
C1846 C 0.9933 0.01761 0.09424 0.0
C1847 C 0.97415 0.0221 0.09258 0.0
C1848 C 0.96554 0.02677 0.07471 0.0
C1849 C 0.97606 0.02751 0.05886 0.0
C1850 C 0.96367 0.02336 0.10952 0.0
C1851 C 0.9575 0.04085 0.112 0.0
C1852 C 0.96073 0.00805 0.12362 0.0
C1853 C 0.96598 0.98889 0.1214 0.0
C1854 C 0.95863 0.97869 0.10551 0.0
C1855 C 0.96372 0.9607 0.10345 0.0
C1856 C 0.97605 0.95269 0.11725 0.0
C1857 C 0.98329 0.96265 0.13317 0.0
C1858 C 0.97826 0.98065 0.13529 0.0
C1859 C 0.91155 0.04008 0.17652 0.0
C1860 C 0.92233 0.03758 0.19385 0.0
C1861 C 0.91897 0.03653 0.15987 0.0
C1862 C 0.9374 0.03062 0.16023 0.0
C1863 C 0.94788 0.02756 0.17757 0.0
C1864 C 0.94046 0.03104 0.1942 0.0
C1865 C 0.94623 0.02842 0.14257 0.0
C1866 C 0.95216 0.01083 0.14001 0.0
C1867 C 0.94902 0.04365 0.12838 0.0
C1868 C 0.94416 0.06296 0.13061 0.0
C1869 C 0.95275 0.07365 0.14585 0.0
C1870 C 0.948 0.09178 0.14792 0.0
C1871 C 0.9348 0.09944 0.13475 0.0
C1872 C 0.92637 0.08901 0.11945 0.0
C1873 C 0.93105 0.07086 0.11733 0.0
H1874 H 0.93115 0.11349 0.13638 0.0
H1875 H 0.97997 0.93876 0.11564 0.0
H1876 H 0.29797 0.81146 0.21196 0.0
H1877 H 0.28921 0.82584 0.18069 0.0
H1878 H 0.28122 0.76979 0.15835 0.0
H1879 H 0.28973 0.75533 0.1896 0.0
H1880 H 0.30327 0.79974 0.1361 0.0
H1881 H 0.24214 0.78644 0.1667 0.0
H1882 H 0.2209 0.78846 0.19206 0.0
H1883 H 0.23064 0.85033 0.18305 0.0
H1884 H 0.25218 0.84868 0.15779 0.0
H1885 H 0.24884 0.81396 0.04948 0.0
H1886 H 0.26177 0.80316 0.08056 0.0
H1887 H 0.25798 0.85811 0.10111 0.0
H1888 H 0.24436 0.86873 0.07014 0.0
H1889 H 0.24376 0.83069 0.12484 0.0
H1890 H 0.30316 0.84484 0.09338 0.0
H1891 H 0.32496 0.84381 0.06823 0.0
H1892 H 0.31997 0.78235 0.07902 0.0
H1893 H 0.2979 0.78296 0.10407 0.0
C1894 C 0.29451 0.80228 0.20031 0.0
C1895 C 0.29496 0.78239 0.20306 0.0
C1896 C 0.28946 0.81047 0.18252 0.0
C1897 C 0.28464 0.79886 0.16724 0.0
C1898 C 0.28508 0.779 0.16995 0.0
C1899 C 0.28995 0.77078 0.18775 0.0
C1900 C 0.27868 0.80731 0.14848 0.0
C1901 C 0.29017 0.80637 0.13354 0.0
C1902 C 0.26194 0.81645 0.14537 0.0
C1903 C 0.24895 0.81745 0.16051 0.0
C1904 C 0.2399 0.80048 0.17024 0.0
C1905 C 0.22777 0.80156 0.18457 0.0
C1906 C 0.22447 0.81951 0.1892 0.0
C1907 C 0.23324 0.83643 0.17947 0.0
C1908 C 0.2454 0.83543 0.16514 0.0
C1909 C 0.25096 0.82382 0.06057 0.0
C1910 C 0.24563 0.8422 0.05737 0.0
C1911 C 0.25844 0.81766 0.07833 0.0
C1912 C 0.26112 0.82991 0.09316 0.0
C1913 C 0.25606 0.8484 0.0899 0.0
C1914 C 0.24833 0.85447 0.07219 0.0
C1915 C 0.26828 0.82307 0.11225 0.0
C1916 C 0.25699 0.82426 0.12732 0.0
C1917 C 0.28535 0.81436 0.1155 0.0
C1918 C 0.29874 0.81394 0.10052 0.0
C1919 C 0.3066 0.83109 0.09031 0.0
C1920 C 0.31902 0.83058 0.07608 0.0
C1921 C 0.32382 0.81302 0.072 0.0
C1922 C 0.31623 0.79594 0.08218 0.0
C1923 C 0.30378 0.79636 0.09642 0.0
H1924 H 0.33344 0.81266 0.06098 0.0
H1925 H 0.21508 0.82032 0.2003 0.0
H1926 H 0.98437 0.48812 0.13933 0.0
H1927 H 0.00807 0.48801 0.16685 0.0
H1928 H 0.05442 0.48551 0.13109 0.0
H1929 H 0.03087 0.48562 0.10359 0.0
H1930 H 0.0563 0.46068 0.16106 0.0
H1931 H 0.04953 0.52778 0.14989 0.0
H1932 H 0.0311 0.55493 0.14555 0.0
H1933 H 0.01007 0.54081 0.2004 0.0
H1934 H 0.02817 0.51339 0.20496 0.0
H1935 H 0.14358 0.4924 0.21633 0.0
H1936 H 0.11562 0.48885 0.19292 0.0
H1937 H 0.0759 0.4895 0.23584 0.0
H1938 H 0.10397 0.49323 0.25954 0.0
H1939 H 0.06794 0.5131 0.20487 0.0
H1940 H 0.07726 0.44773 0.21711 0.0
H1941 H 0.09588 0.42072 0.22139 0.0
H1942 H 0.11215 0.43154 0.16461 0.0
H1943 H 0.09386 0.4588 0.16006 0.0
C1944 C 0.99965 0.4877 0.13732 0.0
C1945 C 0.00572 0.48689 0.11924 0.0
C1946 C 0.01317 0.48761 0.15307 0.0
C1947 C 0.03309 0.4869 0.15105 0.0
C1948 C 0.03913 0.48598 0.13303 0.0
C1949 C 0.02563 0.486 0.11731 0.0
C1950 C 0.04773 0.48712 0.1676 0.0
C1951 C 0.05896 0.47224 0.17054 0.0
C1952 C 0.05079 0.50186 0.18035 0.0
C1953 C 0.04002 0.51841 0.17768 0.0
C1954 C 0.04085 0.53037 0.16097 0.0
C1955 C 0.03049 0.54583 0.15848 0.0
C1956 C 0.01937 0.54956 0.17267 0.0
C1957 C 0.01866 0.53788 0.18941 0.0
C1958 C 0.02897 0.52239 0.19196 0.0
C1959 C 0.12892 0.49171 0.2209 0.0
C1960 C 0.12608 0.49308 0.23989 0.0
C1961 C 0.11291 0.48958 0.20745 0.0
C1962 C 0.09363 0.48871 0.21263 0.0
C1963 C 0.09065 0.49009 0.23154 0.0
C1964 C 0.10671 0.49214 0.24507 0.0
C1965 C 0.07678 0.48688 0.19806 0.0
C1966 C 0.06513 0.50143 0.19551 0.0
C1967 C 0.07333 0.47184 0.18564 0.0
C1968 C 0.0843 0.45541 0.18829 0.0
C1969 C 0.08493 0.44444 0.20557 0.0
C1970 C 0.09541 0.42907 0.20805 0.0
C1971 C 0.10522 0.42444 0.1933 0.0
C1972 C 0.10455 0.43515 0.17603 0.0
C1973 C 0.09411 0.45055 0.17349 0.0
H1974 H 0.11332 0.41254 0.19524 0.0
H1975 H 0.01136 0.56152 0.17071 0.0
H1976 H 0.33072 0.7267 0.30164 0.0
H1977 H 0.35759 0.73336 0.326 0.0
H1978 H 0.39683 0.7601 0.2841 0.0
H1979 H 0.37017 0.75286 0.25953 0.0
H1980 H 0.41478 0.73721 0.30909 0.0
H1981 H 0.37734 0.78761 0.31173 0.0
H1982 H 0.34736 0.80156 0.31378 0.0
H1983 H 0.33855 0.77126 0.36763 0.0
H1984 H 0.36833 0.7569 0.3658 0.0
H1985 H 0.48964 0.77853 0.37609 0.0
H1986 H 0.46423 0.7751 0.34998 0.0
H1987 H 0.42111 0.74722 0.38796 0.0
H1988 H 0.44623 0.75085 0.41415 0.0
H1989 H 0.40611 0.77279 0.36371 0.0
H1990 H 0.44272 0.72107 0.36 0.0
H1991 H 0.47282 0.70735 0.35782 0.0
H1992 H 0.48338 0.7407 0.30571 0.0
H1993 H 0.45346 0.75481 0.3077 0.0
C1994 C 0.34512 0.7338 0.29756 0.0
C1995 C 0.34828 0.73928 0.27863 0.0
C1996 C 0.36042 0.73779 0.31154 0.0
C1997 C 0.37915 0.74749 0.3069 0.0
C1998 C 0.38247 0.7527 0.288 0.0
C1999 C 0.36717 0.74869 0.274 0.0
C2000 C 0.39527 0.7521 0.32181 0.0
C2001 C 0.41301 0.74525 0.32089 0.0
C2002 C 0.39284 0.76236 0.33734 0.0
C2003 C 0.37498 0.77105 0.33855 0.0
C2004 C 0.36893 0.78381 0.32395 0.0
C2005 C 0.35199 0.7918 0.32508 0.0
C2006 C 0.34104 0.78726 0.3408 0.0
C2007 C 0.34704 0.77475 0.35545 0.0
C2008 C 0.36396 0.76669 0.35438 0.0
C2009 C 0.47473 0.77174 0.37892 0.0
C2010 C 0.47003 0.76488 0.39725 0.0
C2011 C 0.46024 0.76972 0.36395 0.0
C2012 C 0.44082 0.76068 0.36698 0.0
C2013 C 0.436 0.75422 0.38529 0.0
C2014 C 0.45043 0.75627 0.40026 0.0
C2015 C 0.4255 0.75766 0.35112 0.0
C2016 C 0.40792 0.76484 0.35185 0.0
C2017 C 0.42809 0.74775 0.3354 0.0
C2018 C 0.44597 0.73915 0.3341 0.0
C2019 C 0.45154 0.72558 0.34814 0.0
C2020 C 0.46855 0.71771 0.34693 0.0
C2021 C 0.48004 0.72319 0.33166 0.0
C2022 C 0.47449 0.7365 0.31754 0.0
C2023 C 0.4575 0.74442 0.3187 0.0
H2024 H 0.49321 0.7171 0.33075 0.0
H2025 H 0.32792 0.79347 0.34165 0.0
H2026 H 0.97754 0.4628 0.00707 0.0
H2027 H 0.97934 0.43515 0.98914 0.0
H2028 H 0.00869 0.40871 0.03749 0.0
H2029 H 0.00726 0.43661 0.0553 0.0
H2030 H 0.02631 0.40531 0.00703 0.0
H2031 H 0.95946 0.39347 0.02451 0.0
H2032 H 0.92631 0.40107 0.02691 0.0
H2033 H 0.91752 0.40725 0.96686 0.0
H2034 H 0.95075 0.39993 0.96411 0.0
H2035 H 0.97912 0.30501 0.97364 0.0
H2036 H 0.97661 0.33452 0.98788 0.0
H2037 H 0.02022 0.36695 0.95264 0.0
H2038 H 0.02314 0.33727 0.93845 0.0
H2039 H 0.96618 0.36786 0.97578 0.0
H2040 H 0.04863 0.40246 0.97804 0.0
H2041 H 0.08125 0.39261 0.97865 0.0
H2042 H 0.05783 0.33703 0.00448 0.0
H2043 H 0.02517 0.34664 0.00425 0.0
C2044 C 0.98436 0.45106 0.01383 0.0
C2045 C 0.99226 0.45175 0.03255 0.0
C2046 C 0.98533 0.43526 0.00361 0.0
C2047 C 0.99401 0.41976 0.012 0.0
C2048 C 0.00196 0.4205 0.0307 0.0
C2049 C 1.00107 0.43635 0.04089 0.0
C2050 C 0.99481 0.40274 0.00134 0.0
C2051 C 0.01317 0.39718 1.00013 0.0
C2052 C 0.97765 0.39197 0.99249 0.0
C2053 C 0.95767 0.39635 0.99411 0.0
C2054 C 0.95052 0.3966 0.01182 0.0
C2055 C 0.93171 0.40083 0.01325 0.0
C2056 C 0.91984 0.4047 0.99705 0.0
C2057 C 0.92674 0.40429 0.9794 0.0
C2058 C 0.94556 0.40009 0.97789 0.0
C2059 C 0.98813 0.31839 0.96878 0.0
C2060 C 0.00148 0.31867 0.95499 0.0
C2061 C 0.9866 0.33532 0.97691 0.0
C2062 C 0.99838 0.35293 0.97151 0.0
C2063 C 0.01119 0.35346 0.95723 0.0
C2064 C 0.01277 0.33648 0.94908 0.0
C2065 C 0.99769 0.37046 0.98143 0.0
C2066 C 0.97935 0.37613 0.98249 0.0
C2067 C 0.0148 0.38107 0.99051 0.0
C2068 C 0.03442 0.3752 0.99091 0.0
C2069 C 0.05047 0.38816 0.98389 0.0
C2070 C 0.06896 0.38262 0.98417 0.0
C2071 C 0.07159 0.36418 0.99153 0.0
C2072 C 0.05575 0.35128 0.99871 0.0
C2073 C 0.03725 0.35675 0.99849 0.0
H2074 H 0.08591 0.35992 0.99172 0.0
H2075 H 0.90528 0.40796 0.99819 0.0
H2076 H 0.6767 0.84595 0.26257 0.0
H2077 H 0.65036 0.84442 0.28365 0.0
H2078 H 0.65969 0.78758 0.30559 0.0
H2079 H 0.68574 0.78894 0.28437 0.0
H2080 H 0.6217 0.78818 0.3006 0.0
H2081 H 0.67848 0.82941 0.32884 0.0
H2082 H 0.70539 0.85763 0.32966 0.0
H2083 H 0.663 0.89581 0.31986 0.0
H2084 H 0.63584 0.86778 0.31874 0.0
H2085 H 0.5962 0.77658 0.3933 0.0
H2086 H 0.61495 0.78462 0.36575 0.0
H2087 H 0.58006 0.82833 0.34635 0.0
H2088 H 0.56065 0.82005 0.37401 0.0
H2089 H 0.62597 0.83806 0.34638 0.0
H2090 H 0.5688 0.79491 0.32308 0.0
H2091 H 0.54321 0.76562 0.32438 0.0
H2092 H 0.58785 0.73001 0.3268 0.0
H2093 H 0.61374 0.7591 0.32582 0.0
C2094 C 0.67312 0.83316 0.27193 0.0
C2095 C 0.68331 0.81758 0.27187 0.0
C2096 C 0.65808 0.83229 0.28396 0.0
C2097 C 0.65317 0.81597 0.29636 0.0
C2098 C 0.66315 0.8003 0.2961 0.0
C2099 C 0.67803 0.80108 0.28397 0.0
C2100 C 0.63796 0.81518 0.30995 0.0
C2101 C 0.62267 0.7991 0.31059 0.0
C2102 C 0.63887 0.82967 0.32272 0.0
C2103 C 0.65516 0.84651 0.32347 0.0
C2104 C 0.67491 0.84382 0.32671 0.0
C2105 C 0.6902 0.85978 0.32726 0.0
C2106 C 0.68591 0.8785 0.32475 0.0
C2107 C 0.66631 0.8813 0.32175 0.0
C2108 C 0.65096 0.86539 0.32117 0.0
C2109 C 0.59249 0.788 0.38329 0.0
C2110 C 0.57689 0.79768 0.38585 0.0
C2111 C 0.60322 0.79252 0.36752 0.0
C2112 C 0.59879 0.80696 0.35403 0.0
C2113 C 0.58362 0.81711 0.35666 0.0
C2114 C 0.57257 0.81235 0.37241 0.0
C2115 C 0.61012 0.8109 0.33719 0.0
C2116 C 0.62474 0.82746 0.33602 0.0
C2117 C 0.60876 0.79676 0.32406 0.0
C2118 C 0.59323 0.7792 0.3245 0.0
C2119 C 0.57318 0.78084 0.32405 0.0
C2120 C 0.55862 0.76427 0.32469 0.0
C2121 C 0.56391 0.74596 0.3257 0.0
C2122 C 0.58377 0.7442 0.32602 0.0
C2123 C 0.5984 0.76073 0.32539 0.0
H2124 H 0.55261 0.73315 0.32621 0.0
H2125 H 0.69777 0.89084 0.32517 0.0
H2126 H 0.98728 0.06649 0.00628 0.0
H2127 H 0.988 0.09808 0.98969 0.0
H2128 H 0.04952 0.10091 0.98087 0.0
H2129 H 0.04939 0.07005 0.99897 0.0
H2130 H 0.04573 0.13307 0.99137 0.0
H2131 H 0.01013 0.09391 0.94451 0.0
H2132 H 0.98443 0.0688 0.93095 0.0
H2133 H 0.93942 0.09956 0.94358 0.0
H2134 H 0.96483 0.12473 0.95747 0.0
H2135 H 0.04725 0.21452 0.9243 0.0
H2136 H 0.04509 0.18057 0.93577 0.0
H2137 H 0.99582 0.18484 0.96711 0.0
H2138 H 0.99817 0.21898 0.95612 0.0
H2139 H 0.99397 0.14923 0.94315 0.0
H2140 H 0.03211 0.18716 0.99225 0.0
H2141 H 0.0593 0.21227 0.0035 0.0
H2142 H 0.10151 0.18279 0.98297 0.0
H2143 H 0.07451 0.15764 0.97134 0.0
C2144 C 1.00105 0.07385 0.00097 0.0
C2145 C 0.01834 0.0657 0.00421 0.0
C2146 C 1.00133 0.09183 0.99114 0.0
C2147 C 0.01875 0.10186 0.98376 0.0
C2148 C 0.03587 0.09348 0.9864 0.0
C2149 C 0.03571 0.07566 0.99658 0.0
C2150 C 0.01943 0.12162 0.97445 0.0
C2151 C 0.03455 0.13642 0.98059 0.0
C2152 C 0.00475 0.12624 0.96053 0.0
C2153 C 0.9894 0.11113 0.95218 0.0
C2154 C 0.99475 0.09525 0.94453 0.0
C2155 C 0.98023 0.08102 0.93676 0.0
C2156 C 0.96031 0.08256 0.93644 0.0
C2157 C 0.95486 0.09837 0.94385 0.0
C2158 C 0.96932 0.11264 0.95165 0.0
C2159 C 0.03583 0.20821 0.93351 0.0
C2160 C 0.02292 0.21946 0.93938 0.0
C2161 C 0.03464 0.18884 0.94002 0.0
C2162 C 0.0203 0.18031 0.95223 0.0
C2163 C 0.00693 0.19125 0.95761 0.0
C2164 C 0.00837 0.21076 0.95141 0.0
C2165 C 0.02007 0.16029 0.96024 0.0
C2166 C 0.0051 0.1456 0.95384 0.0
C2167 C 0.03507 0.15565 0.97362 0.0
C2168 C 0.05129 0.17067 0.98074 0.0
C2169 C 0.04718 0.18614 0.98997 0.0
C2170 C 0.06255 0.20035 0.99646 0.0
C2171 C 0.08212 0.19916 0.9939 0.0
C2172 C 0.08635 0.18371 0.98491 0.0
C2173 C 0.07102 0.16947 0.97838 0.0
H2174 H 0.094 0.21017 0.99893 0.0
H2175 H 0.94909 0.07153 0.93042 0.0
H2176 H 0.32652 0.30142 0.24427 0.0
H2177 H 0.35155 0.30157 0.22205 0.0
H2178 H 0.38142 0.26493 0.26161 0.0
H2179 H 0.35641 0.26492 0.28394 0.0
H2180 H 0.40764 0.29307 0.24387 0.0
H2181 H 0.35162 0.24536 0.22624 0.0
H2182 H 0.31644 0.23305 0.21786 0.0
H2183 H 0.31724 0.27401 0.17002 0.0
H2184 H 0.35237 0.28676 0.17827 0.0
H2185 H 0.46223 0.25744 0.17788 0.0
H2186 H 0.44117 0.26155 0.20242 0.0
H2187 H 0.40896 0.2964 0.16311 0.0
H2188 H 0.42973 0.29219 0.13852 0.0
H2189 H 0.38432 0.26917 0.18126 0.0
H2190 H 0.4408 0.31644 0.19852 0.0
H2191 H 0.47599 0.32857 0.207 0.0
H2192 H 0.47458 0.28829 0.25539 0.0
H2193 H 0.43943 0.27572 0.24706 0.0
C2194 C 0.33848 0.29347 0.2482 0.0
C2195 C 0.33937 0.28281 0.2656 0.0
C2196 C 0.35275 0.29354 0.23553 0.0
C2197 C 0.36817 0.28299 0.24004 0.0
C2198 C 0.3696 0.27309 0.25779 0.0
C2199 C 0.3553 0.273 0.27047 0.0
C2200 C 0.38228 0.28162 0.22592 0.0
C2201 C 0.40259 0.28764 0.23025 0.0
C2202 C 0.37567 0.27484 0.20804 0.0
C2203 C 0.35457 0.26714 0.20299 0.0
C2204 C 0.34425 0.25185 0.21402 0.0
C2205 C 0.32433 0.24477 0.20928 0.0
C2206 C 0.3146 0.25278 0.19344 0.0
C2207 C 0.32479 0.26785 0.18229 0.0
C2208 C 0.34471 0.27499 0.18699 0.0
C2209 C 0.4508 0.26616 0.17451 0.0
C2210 C 0.44763 0.27442 0.15619 0.0
C2211 C 0.43881 0.26856 0.18858 0.0
C2212 C 0.4235 0.27935 0.18464 0.0
C2213 C 0.42063 0.28797 0.16649 0.0
C2214 C 0.43258 0.28558 0.15244 0.0
C2215 C 0.40974 0.28081 0.19907 0.0
C2216 C 0.38944 0.27469 0.19483 0.0
C2217 C 0.4164 0.28747 0.21701 0.0
C2218 C 0.43753 0.295 0.22205 0.0
C2219 C 0.44804 0.31005 0.21088 0.0
C2220 C 0.46797 0.31703 0.21568 0.0
C2221 C 0.47753 0.30917 0.2317 0.0
C2222 C 0.46716 0.29435 0.24298 0.0
C2223 C 0.44723 0.2873 0.23823 0.0
H2224 H 0.49296 0.3146 0.23539 0.0
H2225 H 0.29917 0.24728 0.18979 0.0
H2226 H 0.57979 0.45724 0.02566 0.0
H2227 H 0.57214 0.42559 0.0427 0.0
H2228 H 0.5123 0.43409 0.04623 0.0
H2229 H 0.51988 0.4659 0.02922 0.0
H2230 H 0.52983 0.41757 0.08023 0.0
H2231 H 0.51927 0.40755 0.01436 0.0
H2232 H 0.52833 0.41082 0.98163 0.0
H2233 H 0.5776 0.38202 0.99805 0.0
H2234 H 0.56899 0.37883 0.03094 0.0
H2235 H 0.48985 0.31735 0.10176 0.0
H2236 H 0.49686 0.35142 0.09024 0.0
H2237 H 0.55371 0.34354 0.07466 0.0
H2238 H 0.5465 0.3095 0.08549 0.0
H2239 H 0.53606 0.36044 0.04675 0.0
H2240 H 0.54741 0.37043 0.11254 0.0
H2241 H 0.53922 0.36753 0.14552 0.0
H2242 H 0.48978 0.39633 0.13005 0.0
H2243 H 0.49753 0.39919 0.09691 0.0
C2244 C 0.56508 0.45249 0.03029 0.0
C2245 C 0.55041 0.46401 0.02605 0.0
C2246 C 0.56071 0.43439 0.03995 0.0
C2247 C 0.54163 0.42748 0.04562 0.0
C2248 C 0.52711 0.43919 0.04197 0.0
C2249 C 0.53142 0.45725 0.03214 0.0
C2250 C 0.53666 0.40762 0.05445 0.0
C2251 C 0.53094 0.40501 0.07289 0.0
C2252 C 0.53846 0.39134 0.04493 0.0
C2253 C 0.54359 0.39312 0.02514 0.0
C2254 C 0.53213 0.40206 0.01101 0.0
C2255 C 0.53717 0.40387 0.99243 0.0
C2256 C 0.55356 0.39667 0.98777 0.0
C2257 C 0.56492 0.3876 0.00168 0.0
C2258 C 0.55996 0.38578 0.02029 0.0
C2259 C 0.50397 0.32299 0.09617 0.0
C2260 C 0.51756 0.31071 0.0944 0.0
C2261 C 0.50799 0.34249 0.08962 0.0
C2262 C 0.52585 0.35011 0.08157 0.0
C2263 C 0.53977 0.33801 0.08065 0.0
C2264 C 0.53564 0.31854 0.0869 0.0
C2265 C 0.5296 0.37021 0.07283 0.0
C2266 C 0.53497 0.37291 0.05424 0.0
C2267 C 0.52759 0.38652 0.08231 0.0
C2268 C 0.52293 0.38484 0.10222 0.0
C2269 C 0.5347 0.37601 0.11614 0.0
C2270 C 0.53016 0.3744 0.13487 0.0
C2271 C 0.51396 0.38169 0.13987 0.0
C2272 C 0.50231 0.39066 0.12615 0.0
C2273 C 0.50677 0.39229 0.1074 0.0
H2274 H 0.51047 0.38043 0.15437 0.0
H2275 H 0.55744 0.39809 0.97338 0.0
H2276 H 0.67756 0.2569 0.25632 0.0
H2277 H 0.64956 0.25867 0.23321 0.0
H2278 H 0.6313 0.19684 0.24098 0.0
H2279 H 0.65976 0.19499 0.26363 0.0
H2280 H 0.62691 0.20659 0.20605 0.0
H2281 H 0.60753 0.22991 0.26051 0.0
H2282 H 0.61071 0.24997 0.28753 0.0
H2283 H 0.61395 0.30121 0.25027 0.0
H2284 H 0.61107 0.28147 0.22302 0.0
H2285 H 0.52584 0.2385 0.17037 0.0
H2286 H 0.55052 0.23323 0.19612 0.0
H2287 H 0.59534 0.24008 0.15671 0.0
H2288 H 0.57085 0.24487 0.13099 0.0
H2289 H 0.58301 0.25444 0.20998 0.0
H2290 H 0.62837 0.21127 0.16958 0.0
H2291 H 0.62246 0.1884 0.14464 0.0
H2292 H 0.56207 0.17138 0.15785 0.0
H2293 H 0.56769 0.19392 0.18306 0.0
C2294 C 0.66754 0.24371 0.25308 0.0
C2295 C 0.67075 0.22582 0.2618 0.0
C2296 C 0.65148 0.24473 0.23995 0.0
C2297 C 0.63803 0.22793 0.23559 0.0
C2298 C 0.64141 0.21001 0.24411 0.0
C2299 C 0.65767 0.20895 0.25703 0.0
C2300 C 0.62062 0.22907 0.22197 0.0
C2301 C 0.6173 0.21702 0.20697 0.0
C2302 C 0.60766 0.24228 0.22339 0.0
C2303 C 0.60923 0.25421 0.23973 0.0
C2304 C 0.60904 0.24546 0.25808 0.0
C2305 C 0.61078 0.25678 0.27344 0.0
C2306 C 0.61257 0.27685 0.27062 0.0
C2307 C 0.61257 0.28565 0.25243 0.0
C2308 C 0.61087 0.27441 0.23702 0.0
C2309 C 0.54095 0.23887 0.16719 0.0
C2310 C 0.5463 0.24194 0.14857 0.0
C2311 C 0.55505 0.23589 0.18194 0.0
C2312 C 0.57473 0.23594 0.17833 0.0
C2313 C 0.58017 0.23952 0.15982 0.0
C2314 C 0.56612 0.24234 0.1451 0.0
C2315 C 0.58972 0.23237 0.19383 0.0
C2316 C 0.59257 0.24394 0.20916 0.0
C2317 C 0.60184 0.21827 0.19306 0.0
C2318 C 0.59843 0.20442 0.17812 0.0
C2319 C 0.61386 0.20257 0.16724 0.0
C2320 C 0.61055 0.18968 0.15304 0.0
C2321 C 0.59189 0.17849 0.14963 0.0
C2322 C 0.57651 0.18011 0.16047 0.0
C2323 C 0.57974 0.19295 0.1747 0.0
H2324 H 0.58935 0.16854 0.13861 0.0
H2325 H 0.61391 0.28558 0.28253 0.0
H2326 H 0.44046 0.07436 0.00542 0.0
H2327 H 0.44619 0.10257 0.02391 0.0
H2328 H 0.50708 0.09615 0.03625 0.0
H2329 H 0.5012 0.06725 0.01846 0.0
H2330 H 0.49284 0.10522 0.0667 0.0
H2331 H 0.49412 0.1305 0.00302 0.0
H2332 H 0.48213 0.13414 0.96972 0.0
H2333 H 0.4305 0.15315 0.98533 0.0
H2334 H 0.44205 0.14936 0.01876 0.0
H2335 H 0.50288 0.21783 0.07097 0.0
H2336 H 0.50323 0.1891 0.05441 0.0
H2337 H 0.46955 0.15392 0.0965 0.0
H2338 H 0.46959 0.18262 0.11347 0.0
H2339 H 0.47388 0.16647 0.03815 0.0
H2340 H 0.47998 0.10818 0.09978 0.0
H2341 H 0.49564 0.10593 0.13198 0.0
H2342 H 0.53943 0.15551 0.11858 0.0
H2343 H 0.52421 0.15789 0.08624 0.0
C2344 C 0.45502 0.07874 0.01225 0.0
C2345 C 0.47037 0.06848 0.01042 0.0
C2346 C 0.45833 0.09505 0.02268 0.0
C2347 C 0.47714 0.10167 0.03128 0.0
C2348 C 0.49245 0.09136 0.02969 0.0
C2349 C 0.48912 0.07495 0.01934 0.0
C2350 C 0.48077 0.11949 0.04174 0.0
C2351 C 0.48872 0.11862 0.06046 0.0
C2352 C 0.47587 0.13714 0.0335 0.0
C2353 C 0.46888 0.13949 0.0134 0.0
C2354 C 0.48014 0.13532 0.99936 0.0
C2355 C 0.47343 0.13744 0.98046 0.0
C2356 C 0.45554 0.14383 0.97542 0.0
C2357 C 0.44435 0.14818 0.98926 0.0
C2358 C 0.45098 0.14607 0.00819 0.0
C2359 C 0.49583 0.20396 0.07692 0.0
C2360 C 0.4863 0.20253 0.09363 0.0
C2361 C 0.49594 0.18754 0.06734 0.0
C2362 C 0.48651 0.1693 0.07422 0.0
C2363 C 0.47719 0.16777 0.09105 0.0
C2364 C 0.47715 0.18422 0.1007 0.0
C2365 C 0.48555 0.15213 0.06325 0.0
C2366 C 0.47807 0.1531 0.04441 0.0
C2367 C 0.4914 0.13478 0.07125 0.0
C2368 C 0.50081 0.13331 0.09063 0.0
C2369 C 0.493 0.11855 0.10368 0.0
C2370 C 0.50179 0.11726 0.12196 0.0
C2371 C 0.51848 0.13061 0.12734 0.0
C2372 C 0.52646 0.14523 0.11442 0.0
C2373 C 0.51773 0.14657 0.09612 0.0
H2374 H 0.52526 0.1296 0.1415 0.0
H2375 H 0.45038 0.14546 0.96078 0.0
H2376 H 0.23721 0.35749 0.71246 0.0
H2377 H 0.26287 0.38646 0.71139 0.0
H2378 H 0.27043 0.38267 0.77186 0.0
H2379 H 0.24469 0.35399 0.77299 0.0
H2380 H 0.27107 0.41887 0.75956 0.0
H2381 H 0.30248 0.36688 0.74457 0.0
H2382 H 0.30646 0.33959 0.72673 0.0
H2383 H 0.31153 0.37709 0.67641 0.0
H2384 H 0.30731 0.40456 0.69393 0.0
H2385 H 0.38307 0.45836 0.75314 0.0
H2386 H 0.35441 0.43267 0.75128 0.0
H2387 H 0.31661 0.47495 0.73604 0.0
H2388 H 0.34534 0.50095 0.73847 0.0
H2389 H 0.32977 0.42067 0.72391 0.0
H2390 H 0.27077 0.45757 0.75093 0.0
H2391 H 0.26849 0.4832 0.77165 0.0
H2392 H 0.32187 0.47286 0.80323 0.0
H2393 H 0.32434 0.44705 0.78283 0.0
C2394 C 0.24441 0.36284 0.7255 0.0
C2395 C 0.23896 0.35348 0.74281 0.0
C2396 C 0.25904 0.37939 0.72488 0.0
C2397 C 0.26868 0.38668 0.74155 0.0
C2398 C 0.26312 0.37742 0.75882 0.0
C2399 C 0.24842 0.36101 0.75945 0.0
C2400 C 0.28494 0.40365 0.74116 0.0
C2401 C 0.28386 0.41931 0.75168 0.0
C2402 C 0.30173 0.40418 0.73104 0.0
C2403 C 0.30436 0.38771 0.72051 0.0
C2404 C 0.3043 0.36927 0.72967 0.0
C2405 C 0.30662 0.35377 0.71963 0.0
C2406 C 0.30919 0.35659 0.70044 0.0
C2407 C 0.3095 0.37492 0.69127 0.0
C2408 C 0.30716 0.39046 0.70125 0.0
C2409 C 0.36867 0.46226 0.74944 0.0
C2410 C 0.36651 0.48174 0.746 0.0
C2411 C 0.35227 0.44751 0.74831 0.0
C2412 C 0.3333 0.45182 0.74359 0.0
C2413 C 0.33105 0.47126 0.73999 0.0
C2414 C 0.34749 0.48611 0.74135 0.0
C2415 C 0.31606 0.4358 0.74254 0.0
C2416 C 0.31689 0.42035 0.73164 0.0
C2417 C 0.2993 0.43524 0.75271 0.0
C2418 C 0.29784 0.45055 0.76522 0.0
C2419 C 0.28198 0.46074 0.76233 0.0
C2420 C 0.28067 0.4753 0.77401 0.0
C2421 C 0.29507 0.4797 0.7887 0.0
C2422 C 0.31077 0.46949 0.7918 0.0
C2423 C 0.31215 0.45492 0.78017 0.0
H2424 H 0.29403 0.49099 0.79772 0.0
H2425 H 0.31098 0.34458 0.69268 0.0
H2426 H 0.27452 0.69285 0.79887 0.0
H2427 H 0.29246 0.66611 0.79683 0.0
H2428 H 0.26336 0.6557 0.74196 0.0
H2429 H 0.2452 0.68224 0.74416 0.0
H2430 H 0.26575 0.62214 0.76214 0.0
H2431 H 0.31046 0.68106 0.74707 0.0
H2432 H 0.32906 0.71367 0.75246 0.0
H2433 H 0.35859 0.69124 0.80249 0.0
H2434 H 0.33996 0.65852 0.79752 0.0
H2435 H 0.33245 0.57156 0.72532 0.0
H2436 H 0.31125 0.594 0.73202 0.0
H2437 H 0.34303 0.60201 0.78613 0.0
H2438 H 0.36452 0.57975 0.77943 0.0
H2439 H 0.33899 0.63596 0.76826 0.0
H2440 H 0.29579 0.57638 0.78201 0.0
H2441 H 0.27745 0.5438 0.77611 0.0
H2442 H 0.24524 0.56726 0.72833 0.0
H2443 H 0.26361 0.59996 0.73377 0.0
C2444 C 0.27197 0.68478 0.78642 0.0
C2445 C 0.25886 0.68982 0.77149 0.0
C2446 C 0.28223 0.66956 0.78524 0.0
C2447 C 0.27954 0.65911 0.76908 0.0
C2448 C 0.26577 0.66362 0.7545 0.0
C2449 C 0.25549 0.67881 0.75571 0.0
C2450 C 0.2915 0.6439 0.76711 0.0
C2451 C 0.28177 0.6252 0.76331 0.0
C2452 C 0.31241 0.64774 0.76905 0.0
C2453 C 0.32366 0.66739 0.77203 0.0
C2454 C 0.3208 0.68311 0.7593 0.0
C2455 C 0.33137 0.70161 0.76226 0.0
C2456 C 0.34496 0.70453 0.77784 0.0
C2457 C 0.34804 0.68896 0.79045 0.0
C2458 C 0.33749 0.67043 0.78756 0.0
C2459 C 0.33483 0.57792 0.73874 0.0
C2460 C 0.35024 0.57386 0.75182 0.0
C2461 C 0.32261 0.5907 0.74259 0.0
C2462 C 0.32542 0.59961 0.75965 0.0
C2463 C 0.34056 0.59531 0.77287 0.0
C2464 C 0.3528 0.58253 0.76904 0.0
C2465 C 0.31327 0.61418 0.76322 0.0
C2466 C 0.32298 0.63281 0.76727 0.0
C2467 C 0.29236 0.61026 0.76147 0.0
C2468 C 0.28121 0.59061 0.75821 0.0
C2469 C 0.28491 0.57458 0.77015 0.0
C2470 C 0.27448 0.55609 0.76691 0.0
C2471 C 0.26022 0.55346 0.75183 0.0
C2472 C 0.25631 0.56932 0.73999 0.0
C2473 C 0.26671 0.58784 0.74316 0.0
H2474 H 0.25217 0.53913 0.74935 0.0
H2475 H 0.35313 0.71886 0.78011 0.0
H2476 H 0.90772 0.5324 0.48789 0.0
H2477 H 0.87593 0.51061 0.48918 0.0
H2478 H 0.90516 0.46165 0.48747 0.0
H2479 H 0.93697 0.48336 0.48618 0.0
H2480 H 0.87224 0.45818 0.46446 0.0
H2481 H 0.89025 0.47411 0.52856 0.0
H2482 H 0.89978 0.49613 0.55405 0.0
H2483 H 0.84585 0.51862 0.54185 0.0
H2484 H 0.83613 0.4969 0.5161 0.0
H2485 H 0.80808 0.37903 0.50182 0.0
H2486 H 0.83506 0.40579 0.49683 0.0
H2487 H 0.79473 0.4462 0.49476 0.0
H2488 H 0.76729 0.41925 0.49983 0.0
H2489 H 0.83012 0.45709 0.51721 0.0
H2490 H 0.81067 0.43809 0.45514 0.0
H2491 H 0.80136 0.41531 0.43028 0.0
H2492 H 0.85822 0.39805 0.43908 0.0
H2493 H 0.86779 0.42051 0.46419 0.0
C2494 C 0.90738 0.51698 0.48792 0.0
C2495 C 0.92489 0.50959 0.48703 0.0
C2496 C 0.8892 0.50455 0.48862 0.0
C2497 C 0.88818 0.48448 0.48862 0.0
C2498 C 0.90558 0.4771 0.48745 0.0
C2499 C 0.92375 0.48951 0.48667 0.0
C2500 C 0.86904 0.47106 0.48993 0.0
C2501 C 0.86311 0.45786 0.47607 0.0
C2502 C 0.85679 0.47105 0.50475 0.0
C2503 C 0.86258 0.48405 0.52027 0.0
C2504 C 0.8805 0.48386 0.53122 0.0
C2505 C 0.88592 0.49627 0.54572 0.0
C2506 C 0.87346 0.50881 0.54953 0.0
C2507 C 0.85551 0.50893 0.53886 0.0
C2508 C 0.85004 0.49656 0.52432 0.0
C2509 C 0.80481 0.39356 0.50032 0.0
C2510 C 0.78543 0.39694 0.50118 0.0
C2511 C 0.8203 0.40887 0.49738 0.0
C2512 C 0.81687 0.42795 0.49521 0.0
C2513 C 0.79765 0.43153 0.49632 0.0
C2514 C 0.782 0.41613 0.49916 0.0
C2515 C 0.83363 0.44396 0.49198 0.0
C2516 C 0.83911 0.45763 0.50546 0.0
C2517 C 0.84553 0.44438 0.47684 0.0
C2518 C 0.8399 0.43091 0.46165 0.0
C2519 C 0.82115 0.42934 0.45187 0.0
C2520 C 0.81583 0.4165 0.43772 0.0
C2521 C 0.82918 0.40522 0.43312 0.0
C2522 C 0.8479 0.40679 0.44265 0.0
C2523 C 0.85328 0.4196 0.45683 0.0
H2524 H 0.82503 0.39528 0.42216 0.0
H2525 H 0.87768 0.51841 0.56077 0.0
H2526 H 0.79526 0.84434 0.80034 0.0
H2527 H 0.77321 0.86793 0.7974 0.0
H2528 H 0.7318 0.82905 0.83041 0.0
H2529 H 0.75331 0.80478 0.83248 0.0
H2530 H 0.71218 0.84614 0.80301 0.0
H2531 H 0.76234 0.86839 0.84948 0.0
H2532 H 0.79613 0.87742 0.864 0.0
H2533 H 0.80872 0.92264 0.82061 0.0
H2534 H 0.77508 0.9137 0.80565 0.0
H2535 H 0.66671 0.9319 0.81365 0.0
H2536 H 0.6822 0.90305 0.82128 0.0
H2537 H 0.72265 0.92258 0.77849 0.0
H2538 H 0.7073 0.95087 0.77053 0.0
H2539 H 0.74019 0.91391 0.81649 0.0
H2540 H 0.68946 0.88776 0.76901 0.0
H2541 H 0.65493 0.87847 0.75641 0.0
H2542 H 0.64256 0.84045 0.80548 0.0
H2543 H 0.67698 0.84975 0.81848 0.0
C2544 C 0.78134 0.8406 0.80675 0.0
C2545 C 0.77618 0.82259 0.81671 0.0
C2546 C 0.76883 0.85427 0.80528 0.0
C2547 C 0.75099 0.85048 0.81403 0.0
C2548 C 0.74555 0.8324 0.82367 0.0
C2549 C 0.75799 0.8186 0.825 0.0
C2550 C 0.73818 0.86552 0.81302 0.0
C2551 C 0.71824 0.86087 0.80631 0.0
C2552 C 0.74594 0.88477 0.81741 0.0
C2553 C 0.7662 0.89028 0.82637 0.0
C2554 C 0.77235 0.88017 0.84296 0.0
C2555 C 0.79148 0.88529 0.85128 0.0
C2556 C 0.80457 0.90057 0.84322 0.0
C2557 C 0.79855 0.9108 0.82683 0.0
C2558 C 0.77945 0.90573 0.81844 0.0
C2559 C 0.6787 0.92988 0.80568 0.0
C2560 C 0.68579 0.94384 0.79155 0.0
C2561 C 0.68753 0.91341 0.81008 0.0
C2562 C 0.70366 0.91081 0.80052 0.0
C2563 C 0.71031 0.92438 0.7861 0.0
C2564 C 0.70141 0.94058 0.78155 0.0
C2565 C 0.71455 0.89462 0.8059 0.0
C2566 C 0.73412 0.89908 0.81352 0.0
C2567 C 0.70634 0.87522 0.80267 0.0
C2568 C 0.6857 0.86965 0.79483 0.0
C2569 C 0.67932 0.87759 0.7772 0.0
C2570 C 0.65979 0.87228 0.76997 0.0
C2571 C 0.64654 0.85893 0.78017 0.0
C2572 C 0.65282 0.85082 0.79761 0.0
C2573 C 0.67234 0.85609 0.80491 0.0
H2574 H 0.63142 0.85483 0.77454 0.0
H2575 H 0.81938 0.90451 0.84968 0.0
H2576 H 0.61377 0.504 0.01702 0.0
H2577 H 0.64485 0.52609 0.02336 0.0
H2578 H 0.61437 0.57471 0.01308 0.0
H2579 H 0.5832 0.55271 0.00685 0.0
H2580 H 0.64833 0.58102 0.99582 0.0
H2581 H 0.62816 0.55854 0.05759 0.0
H2582 H 0.61784 0.53388 0.08289 0.0
H2583 H 0.67232 0.51258 0.08274 0.0
H2584 H 0.68285 0.53697 0.05725 0.0
H2585 H 0.71562 0.65569 0.03679 0.0
H2586 H 0.68735 0.63078 0.02932 0.0
H2587 H 0.72401 0.58701 0.04046 0.0
H2588 H 0.75258 0.61196 0.04821 0.0
H2589 H 0.68877 0.57641 0.05625 0.0
H2590 H 0.70995 0.60017 0.9959 0.0
H2591 H 0.72034 0.62479 0.97061 0.0
H2592 H 0.66421 0.64346 0.96783 0.0
H2593 H 0.65358 0.61913 0.99331 0.0
C2594 C 0.61363 0.51939 0.01631 0.0
C2595 C 0.59596 0.52658 0.01152 0.0
C2596 C 0.63143 0.532 0.01988 0.0
C2597 C 0.63192 0.55206 0.01886 0.0
C2598 C 0.61435 0.55929 0.01391 0.0
C2599 C 0.59655 0.5467 0.01032 0.0
C2600 C 0.65072 0.56556 0.02287 0.0
C2601 C 0.65707 0.58014 0.0091 0.0
C2602 C 0.66245 0.56403 0.03998 0.0
C2603 C 0.65619 0.54944 0.05538 0.0
C2604 C 0.63787 0.5485 0.06285 0.0
C2605 C 0.63199 0.53459 0.07724 0.0
C2606 C 0.64439 0.52164 0.08438 0.0
C2607 C 0.66272 0.52261 0.07718 0.0
C2608 C 0.66865 0.53648 0.06277 0.0
C2609 C 0.71779 0.6408 0.03765 0.0
C2610 C 0.73647 0.63588 0.04306 0.0
C2611 C 0.70157 0.62655 0.03328 0.0
C2612 C 0.7036 0.60705 0.03408 0.0
C2613 C 0.72213 0.60199 0.03968 0.0
C2614 C 0.73845 0.61628 0.04405 0.0
C2615 C 0.6862 0.59206 0.02931 0.0
C2616 C 0.68012 0.5772 0.0429 0.0
C2617 C 0.67472 0.5933 0.01202 0.0
C2618 C 0.68103 0.60792 0.99663 0.0
C2619 C 0.69987 0.60962 0.99 0.0
C2620 C 0.7058 0.62351 0.97561 0.0
C2621 C 0.69296 0.63571 0.96764 0.0
C2622 C 0.67415 0.63401 0.97403 0.0
C2623 C 0.66815 0.62016 0.98843 0.0
H2624 H 0.69758 0.64646 0.9565 0.0
H2625 H 0.63982 0.51088 0.09552 0.0
H2626 H 0.26235 0.70992 0.24841 0.0
H2627 H 0.23861 0.67961 0.2512 0.0
H2628 H 0.2866 0.64739 0.25801 0.0
H2629 H 0.31041 0.67766 0.25538 0.0
H2630 H 0.25351 0.63223 0.23226 0.0
H2631 H 0.26772 0.65409 0.29519 0.0
H2632 H 0.27003 0.67786 0.31897 0.0
H2633 H 0.20819 0.67972 0.30802 0.0
H2634 H 0.20559 0.65616 0.28395 0.0
H2635 H 0.21313 0.54092 0.2727 0.0
H2636 H 0.23184 0.57241 0.2633 0.0
H2637 H 0.18227 0.59935 0.2721 0.0
H2638 H 0.1637 0.56778 0.28229 0.0
H2639 H 0.2136 0.61882 0.28755 0.0
H2640 H 0.19765 0.59534 0.22699 0.0
H2641 H 0.19425 0.5723 0.20239 0.0
H2642 H 0.25702 0.57437 0.20699 0.0
H2643 H 0.26079 0.59722 0.23182 0.0
C2644 C 0.2678 0.69635 0.25035 0.0
C2645 C 0.28819 0.69609 0.25175 0.0
C2646 C 0.25426 0.67909 0.25198 0.0
C2647 C 0.2609 0.66132 0.25485 0.0
C2648 C 0.28122 0.66099 0.25578 0.0
C2649 C 0.29478 0.67825 0.25441 0.0
C2650 C 0.24671 0.64308 0.25759 0.0
C2651 C 0.24486 0.62916 0.24439 0.0
C2652 C 0.23497 0.63948 0.27309 0.0
C2653 C 0.23651 0.65355 0.28762 0.0
C2654 C 0.25465 0.65971 0.29773 0.0
C2655 C 0.25601 0.67311 0.31128 0.0
C2656 C 0.23928 0.68034 0.31496 0.0
C2657 C 0.22115 0.67414 0.30513 0.0
C2658 C 0.21972 0.66075 0.29154 0.0
C2659 C 0.20607 0.55349 0.27236 0.0
C2660 C 0.18693 0.55187 0.27821 0.0
C2661 C 0.21677 0.57153 0.26688 0.0
C2662 C 0.20841 0.58831 0.26672 0.0
C2663 C 0.18905 0.58664 0.27208 0.0
C2664 C 0.17843 0.56859 0.27784 0.0
C2665 C 0.22044 0.60763 0.2623 0.0
C2666 C 0.22197 0.62184 0.27522 0.0
C2667 C 0.23165 0.61159 0.24637 0.0
C2668 C 0.22948 0.5979 0.23137 0.0
C2669 C 0.21072 0.59078 0.22285 0.0
C2670 C 0.20873 0.57777 0.20885 0.0
C2671 C 0.2254 0.57184 0.20316 0.0
C2672 C 0.24412 0.57896 0.21143 0.0
C2673 C 0.24619 0.59197 0.22544 0.0
H2674 H 0.22383 0.56176 0.19232 0.0
H2675 H 0.24035 0.69072 0.32547 0.0
H2676 H 0.97029 0.53765 0.09222 0.0
H2677 H 0.94662 0.55988 0.08822 0.0
H2678 H 0.90142 0.51444 0.06738 0.0
H2679 H 0.92509 0.4921 0.07131 0.0
H2680 H 0.90044 0.54739 0.04629 0.0
H2681 H 0.9018 0.52875 0.11188 0.0
H2682 H 0.91724 0.52315 0.14373 0.0
H2683 H 0.94208 0.58348 0.14462 0.0
H2684 H 0.92701 0.58941 0.11265 0.0
H2685 H 0.82347 0.60295 0.05284 0.0
H2686 H 0.84369 0.57738 0.0562 0.0
H2687 H 0.89378 0.61795 0.07702 0.0
H2688 H 0.87377 0.64334 0.07393 0.0
H2689 H 0.88971 0.58503 0.09869 0.0
H2690 H 0.88983 0.60306 0.03223 0.0
H2691 H 0.87455 0.60841 1.00027 0.0
H2692 H 0.84652 0.54884 0.00121 0.0
H2693 H 0.86144 0.54319 0.0333 0.0
C2694 C 0.95526 0.53231 0.08698 0.0
C2695 C 0.94956 0.51306 0.08219 0.0
C2696 C 0.94173 0.54506 0.08467 0.0
C2697 C 0.92214 0.53879 0.07772 0.0
C2698 C 0.91644 0.51962 0.07276 0.0
C2699 C 0.93 0.50688 0.075 0.0
C2700 C 0.90771 0.55232 0.07552 0.0
C2701 C 0.89784 0.55539 0.05783 0.0
C2702 C 0.90448 0.56296 0.09049 0.0
C2703 C 0.9134 0.55949 0.1098 0.0
C2704 C 0.91066 0.5408 0.11882 0.0
C2705 C 0.91933 0.53757 0.1369 0.0
C2706 C 0.93067 0.55294 0.14618 0.0
C2707 C 0.9333 0.57159 0.13741 0.0
C2708 C 0.92468 0.5749 0.11931 0.0
C2709 C 0.83882 0.60642 0.05802 0.0
C2710 C 0.84698 0.6252 0.06313 0.0
C2711 C 0.85038 0.59181 0.0599 0.0
C2712 C 0.8703 0.59575 0.06682 0.0
C2713 C 0.87844 0.61452 0.07173 0.0
C2714 C 0.86696 0.62907 0.06988 0.0
C2715 C 0.88274 0.58039 0.06938 0.0
C2716 C 0.89219 0.57693 0.08718 0.0
C2717 C 0.88552 0.56938 0.05453 0.0
C2718 C 0.87657 0.57276 0.03524 0.0
C2719 C 0.88028 0.59114 0.02568 0.0
C2720 C 0.87171 0.59422 0.00753 0.0
C2721 C 0.85952 0.57899 0.99874 0.0
C2722 C 0.85593 0.56063 0.00806 0.0
C2723 C 0.86445 0.55748 0.02622 0.0
H2724 H 0.85291 0.5814 0.98468 0.0
H2725 H 0.93738 0.55041 0.16017 0.0
H2726 H 0.05383 0.96439 0.03416 0.0
H2727 H 0.08282 0.94985 0.03045 0.0
H2728 H 0.09023 0.98173 0.9768 0.0
H2729 H 0.06106 0.99619 0.98047 0.0
H2730 H 0.09438 0.94429 0.97513 0.0
H2731 H 0.12121 0.9956 0.01368 0.0
H2732 H 0.12334 0.01619 0.04016 0.0
H2733 H 0.1294 0.96754 0.07908 0.0
H2734 H 0.127 0.94656 0.05284 0.0
H2735 H 0.18751 0.90906 0.97665 0.0
H2736 H 0.16404 0.93185 0.97445 0.0
H2737 H 0.1416 0.90623 0.02667 0.0
H2738 H 0.16458 0.88365 0.0289 0.0
H2739 H 0.14889 0.94612 0.0253 0.0
H2740 H 0.11678 0.89443 0.98627 0.0
H2741 H 0.11439 0.87399 0.95961 0.0
H2742 H 0.11894 0.92445 0.92124 0.0
H2743 H 0.12162 0.94521 0.94772 0.0
C2744 C 0.06164 0.9682 0.02157 0.0
C2745 C 0.05512 0.98115 0.00749 0.0
C2746 C 0.07825 0.96002 0.0195 0.0
C2747 C 0.0888 0.96482 0.0034 0.0
C2748 C 0.08231 0.9778 0.9893 0.0
C2749 C 0.06569 0.98603 0.99141 0.0
C2750 C 0.10643 0.956 0.00134 0.0
C2751 C 0.10652 0.94503 0.98589 0.0
C2752 C 0.12225 0.95691 0.0154 0.0
C2753 C 0.12379 0.96947 0.03127 0.0
C2754 C 0.12285 0.98925 0.02788 0.0
C2755 C 0.12413 0.001 0.04285 0.0
C2756 C 0.12647 0.99317 0.06129 0.0
C2757 C 0.12758 0.97358 0.06479 0.0
C2758 C 0.12629 0.96176 0.04987 0.0
C2759 C 0.17757 0.90836 0.98763 0.0
C2760 C 0.17786 0.89449 0.0029 0.0
C2761 C 0.16418 0.92134 0.98636 0.0
C2762 C 0.15109 0.92071 1.00042 0.0
C2763 C 0.15161 0.90704 0.01571 0.0
C2764 C 0.16473 0.89404 0.01689 0.0
C2765 C 0.13646 0.9339 0.99945 0.0
C2766 C 0.13696 0.94573 0.01434 0.0
C2767 C 0.12127 0.93385 0.98485 0.0
C2768 C 0.11968 0.92138 0.96897 0.0
C2769 C 0.11747 0.90117 0.97216 0.0
C2770 C 0.11602 0.88953 0.95708 0.0
C2771 C 0.11659 0.89792 0.93875 0.0
C2772 C 0.11855 0.91797 0.93545 0.0
C2773 C 0.12004 0.92968 0.95048 0.0
H2774 H 0.11546 0.88888 0.92709 0.0
H2775 H 0.12746 0.00229 0.07286 0.0
loop_
_geom_bond_atom_site_label_1
_geom_bond_atom_site_label_2
_geom_bond_distance
_geom_bond_site_symmetry_2
_ccdc_geom_bond_type
H0 C7 0.929 . S
H1 C10 0.930 . S
H2 C12 0.929 . S
H3 C4 0.969 1_565 S
C4 H3 0.969 1_545 S
C4 O5 1.550 . S
C4 H6 0.976 . S
O5 C4 1.550 . S
O5 C11 1.412 . S
H6 C4 0.976 . S
C7 H0 0.929 . S
C7 C8 1.400 1_655 S
C7 C9 1.352 1_655 S
C8 C7 1.400 1_455 S
C8 C12 1.377 . S
C9 C7 1.352 1_455 S
C9 C10 1.413 . S
C10 H1 0.930 . S
C10 C9 1.413 . S
C10 C11 1.383 . S
C11 O5 1.412 . S
C11 C10 1.383 . S
C11 C12 1.394 . S
C12 H2 0.929 . S
C12 C8 1.377 . S
C12 C11 1.394 . S
H13 C20 0.929 . S
H14 C23 0.930 . S
H15 C25 0.929 . S
H16 C17 0.969 . S
C17 H16 0.969 . S
C17 O18 1.550 . S
C17 H19 0.973 . S
O18 C17 1.550 . S
O18 C24 1.412 . S
H19 C17 0.973 . S
C20 H13 0.929 . S
C20 C21 1.400 . S
C20 C22 1.364 . S
C21 C20 1.400 . S
C21 C25 1.377 . S
C22 C20 1.364 . S
C22 C23 1.374 . S
C23 H14 0.930 . S
C23 C22 1.374 . S
C23 C24 1.383 . S
C24 O18 1.412 . S
C24 C23 1.383 . S
C24 C25 1.394 . S
C25 H15 0.929 . S
C25 C21 1.377 . S
C25 C24 1.394 . S
H26 C33 0.929 . S
H27 C36 0.930 . S
H28 C38 0.929 1_455 S
H29 C30 0.969 . S
C30 H29 0.969 . S
C30 O31 1.550 . S
C30 H32 0.973 . S
O31 C30 1.550 . S
O31 C37 1.412 . S
H32 C30 0.973 . S
C33 H26 0.929 . S
C33 C34 1.400 . S
C33 C35 1.364 . S
C34 C33 1.400 . S
C34 C38 1.377 . S
C35 C33 1.364 . S
C35 C36 1.374 . S
C36 H27 0.930 . S
C36 C35 1.374 . S
C36 C37 1.383 . S
C37 O31 1.412 . S
C37 C36 1.383 . S
C37 C38 1.394 . S
C38 H28 0.929 1_655 S
C38 C34 1.377 . S
C38 C37 1.394 . S
H39 C46 0.929 . S
H40 C49 0.930 . S
H41 C51 0.929 . S
H42 C43 0.969 . S
C43 H42 0.969 . S
C43 O44 1.550 . S
C43 H45 0.973 . S
O44 C43 1.550 . S
O44 C50 1.412 . S
H45 C43 0.973 . S
C46 H39 0.929 . S
C46 C47 1.400 . S
C46 C48 1.364 . S
C47 C46 1.400 . S
C47 C51 1.377 . S
C48 C46 1.364 . S
C48 C49 1.374 . S
C49 H40 0.930 . S
C49 C48 1.374 . S
C49 C50 1.383 . S
C50 O44 1.412 . S
C50 C49 1.383 . S
C50 C51 1.394 . S
C51 H41 0.929 . S
C51 C47 1.377 . S
C51 C50 1.394 . S
H52 C59 0.929 . S
H53 C62 0.930 . S
H54 C64 0.960 . S
H55 C56 0.969 . S
C56 H55 0.969 . S
C56 O57 1.550 . S
C56 H58 0.973 . S
O57 C56 1.550 . S
O57 C63 1.412 . S
H58 C56 0.973 . S
C59 H52 0.929 . S
C59 C60 1.400 . S
C59 C61 1.364 . S
C60 C59 1.400 . S
C60 C64 1.365 1_565 S
C61 C59 1.364 . S
C61 C62 1.374 . S
C62 H53 0.930 . S
C62 C61 1.374 . S
C62 C63 1.383 . S
C63 O57 1.412 . S
C63 C62 1.383 . S
C63 C64 1.377 1_565 S
C64 H54 0.960 . S
C64 C60 1.365 1_545 S
C64 C63 1.377 1_545 S
H65 C72 0.929 . S
H66 C75 0.930 . S
H67 C77 0.929 . S
H68 C69 0.969 . S
C69 H68 0.969 . S
C69 O70 1.550 . S
C69 H71 0.973 . S
O70 C69 1.550 . S
O70 C76 1.412 . S
H71 C69 0.973 . S
C72 H65 0.929 . S
C72 C73 1.400 . S
C72 C74 1.364 . S
C73 C72 1.400 . S
C73 C77 1.377 . S
C74 C72 1.364 . S
C74 C75 1.374 . S
C75 H66 0.930 . S
C75 C74 1.374 . S
C75 C76 1.383 . S
C76 O70 1.412 . S
C76 C75 1.383 . S
C76 C77 1.394 . S
C77 H67 0.929 . S
C77 C73 1.377 . S
C77 C76 1.394 . S
H78 C85 0.929 . S
H79 C88 0.930 . S
H80 C90 0.929 . S
H81 C82 0.969 . S
C82 H81 0.969 . S
C82 O83 1.550 1_655 S
C82 H84 0.973 . S
O83 C82 1.550 1_455 S
O83 C89 1.412 1_455 S
H84 C82 0.973 . S
C85 H78 0.929 . S
C85 C86 1.400 . S
C85 C87 1.364 . S
C86 C85 1.400 . S
C86 C90 1.377 . S
C87 C85 1.364 . S
C87 C88 1.374 . S
C88 H79 0.930 . S
C88 C87 1.374 . S
C88 C89 1.383 . S
C89 O83 1.412 1_655 S
C89 C88 1.383 . S
C89 C90 1.394 . S
C90 H80 0.929 . S
C90 C86 1.377 . S
C90 C89 1.394 . S
H91 C98 0.929 . S
H92 C101 0.930 . S
H93 C103 0.929 . S
H94 C95 0.969 . S
C95 H94 0.969 . S
C95 O96 1.550 . S
C95 H97 0.973 . S
O96 C95 1.550 . S
O96 C102 1.412 . S
H97 C95 0.973 . S
C98 H91 0.929 . S
C98 C99 1.400 . S
C98 C100 1.364 . S
C99 C98 1.400 . S
C99 C103 1.377 . S
C100 C98 1.364 . S
C100 C101 1.374 . S
C101 H92 0.930 . S
C101 C100 1.374 . S
C101 C102 1.383 . S
C102 O96 1.412 . S
C102 C101 1.383 . S
C102 C103 1.394 . S
C103 H93 0.929 . S
C103 C99 1.377 . S
C103 C102 1.394 . S
H104 C111 0.929 . S
H105 C114 0.930 . S
H106 C116 0.929 . S
H107 C108 0.969 . S
C108 H107 0.969 . S
C108 O109 1.550 . S
C108 H110 0.973 . S
O109 C108 1.550 . S
O109 C115 1.412 . S
H110 C108 0.973 . S
C111 H104 0.929 . S
C111 C112 1.400 . S
C111 C113 1.364 . S
C112 C111 1.400 . S
C112 C116 1.377 . S
C113 C111 1.364 . S
C113 C114 1.374 . S
C114 H105 0.930 . S
C114 C113 1.374 . S
C114 C115 1.383 . S
C115 O109 1.412 . S
C115 C114 1.383 . S
C115 C116 1.394 . S
C116 H106 0.929 . S
C116 C112 1.377 . S
C116 C115 1.394 . S
H117 C124 0.929 . S
H118 C127 0.930 . S
H119 C129 0.929 . S
H120 C121 0.969 . S
C121 H120 0.969 . S
C121 O122 1.550 . S
C121 H123 0.973 . S
O122 C121 1.550 . S
O122 C128 1.412 . S
H123 C121 0.973 . S
C124 H117 0.929 . S
C124 C125 1.400 . S
C124 C126 1.364 . S
C125 C124 1.400 . S
C125 C129 1.377 . S
C126 C124 1.364 . S
C126 C127 1.374 . S
C127 H118 0.930 . S
C127 C126 1.374 . S
C127 C128 1.383 . S
C128 O122 1.412 . S
C128 C127 1.383 . S
C128 C129 1.394 . S
C129 H119 0.929 . S
C129 C125 1.377 . S
C129 C128 1.394 . S
H130 C137 0.929 . S
H131 C140 0.930 . S
H132 C142 0.929 . S
H133 C134 0.969 . S
C134 H133 0.969 . S
C134 O135 1.550 . S
C134 H136 0.973 . S
O135 C134 1.550 . S
O135 C141 1.412 . S
H136 C134 0.973 . S
C137 H130 0.929 . S
C137 C138 1.400 . S
C137 C139 1.364 . S
C138 C137 1.400 . S
C138 C142 1.377 . S
C139 C137 1.364 . S
C139 C140 1.374 . S
C140 H131 0.930 . S
C140 C139 1.374 . S
C140 C141 1.383 . S
C141 O135 1.412 . S
C141 C140 1.383 . S
C141 C142 1.394 . S
C142 H132 0.929 . S
C142 C138 1.377 . S
C142 C141 1.394 . S
H143 C150 0.929 . S
H144 C153 0.930 . S
H145 C155 0.929 . S
H146 C147 0.969 . S
C147 H146 0.969 . S
C147 O148 1.550 . S
C147 H149 0.973 . S
O148 C147 1.550 . S
O148 C154 1.412 . S
H149 C147 0.973 . S
C150 H143 0.929 . S
C150 C151 1.400 . S
C150 C152 1.364 . S
C151 C150 1.400 . S
C151 C155 1.377 . S
C152 C150 1.364 . S
C152 C153 1.374 . S
C153 H144 0.930 . S
C153 C152 1.374 . S
C153 C154 1.383 . S
C154 O148 1.412 . S
C154 C153 1.383 . S
C154 C155 1.394 . S
C155 H145 0.929 . S
C155 C151 1.377 . S
C155 C154 1.394 . S
H156 C163 0.929 . S
H157 C166 0.930 . S
H158 C168 0.929 . S
H159 C160 0.969 . S
C160 H159 0.969 . S
C160 O161 1.550 . S
C160 H162 0.973 . S
O161 C160 1.550 . S
O161 C167 1.412 . S
H162 C160 0.973 . S
C163 H156 0.929 . S
C163 C164 1.400 . S
C163 C165 1.364 . S
C164 C163 1.400 . S
C164 C168 1.377 . S
C165 C163 1.364 . S
C165 C166 1.374 . S
C166 H157 0.930 . S
C166 C165 1.374 . S
C166 C167 1.383 . S
C167 O161 1.412 . S
C167 C166 1.383 . S
C167 C168 1.394 . S
C168 H158 0.929 . S
C168 C164 1.377 . S
C168 C167 1.394 . S
H169 C176 0.929 1_554 S
H170 C179 0.930 . S
H171 C181 0.929 . S
H172 C173 0.969 . S
C173 H172 0.969 . S
C173 O174 1.550 . S
C173 H175 0.973 . S
O174 C173 1.550 . S
O174 C180 1.412 . S
H175 C173 0.973 . S
C176 H169 0.929 1_556 S
C176 C177 1.400 . S
C176 C178 1.364 . S
C177 C176 1.400 . S
C177 C181 1.377 . S
C178 C176 1.364 . S
C178 C179 1.374 . S
C179 H170 0.930 . S
C179 C178 1.374 . S
C179 C180 1.383 . S
C180 O174 1.412 . S
C180 C179 1.383 . S
C180 C181 1.394 . S
C181 H171 0.929 . S
C181 C177 1.377 . S
C181 C180 1.394 . S
H182 C189 0.929 . S
H183 C192 0.930 . S
H184 C194 0.929 . S
H185 C186 0.969 . S
C186 H185 0.969 . S
C186 O187 1.550 . S
C186 H188 0.973 . S
O187 C186 1.550 . S
O187 C193 1.412 . S
H188 C186 0.973 . S
C189 H182 0.929 . S
C189 C190 1.400 . S
C189 C191 1.364 . S
C190 C189 1.400 . S
C190 C194 1.377 . S
C191 C189 1.364 . S
C191 C192 1.374 . S
C192 H183 0.930 . S
C192 C191 1.374 . S
C192 C193 1.383 . S
C193 O187 1.412 . S
C193 C192 1.383 . S
C193 C194 1.394 . S
C194 H184 0.929 . S
C194 C190 1.377 . S
C194 C193 1.394 . S
H195 C202 0.929 . S
H196 C205 0.930 . S
H197 C207 0.929 . S
H198 C199 0.969 . S
C199 H198 0.969 . S
C199 O200 1.550 . S
C199 H201 0.973 . S
O200 C199 1.550 . S
O200 C206 1.412 . S
H201 C199 0.973 . S
C202 H195 0.929 . S
C202 C203 1.400 . S
C202 C204 1.364 . S
C203 C202 1.400 . S
C203 C207 1.377 . S
C204 C202 1.364 . S
C204 C205 1.374 1_554 S
C205 H196 0.930 . S
C205 C204 1.374 1_556 S
C205 C206 1.383 . S
C206 O200 1.412 . S
C206 C205 1.383 . S
C206 C207 1.394 1_556 S
C207 H197 0.929 . S
C207 C203 1.377 . S
C207 C206 1.394 1_554 S
Mg208 O209 2.028 . S
Mg208 O215 1.986 1_554 S
Mg208 O217 2.114 . S
Mg208 O218 2.251 . S
Mg208 O221 2.010 . S
O209 Mg208 2.028 . S
O209 C212 1.251 . S
O210 Mg211 2.027 1_554 S
O210 C212 1.247 . S
Mg211 O210 2.027 1_556 S
Mg211 O216 2.049 . S
Mg211 O218 2.065 1_556 S
C212 O209 1.251 . S
C212 O210 1.247 . S
C213 O214 1.264 . S
C213 O221 1.249 . S
O214 C213 1.264 . S
O215 Mg208 1.986 1_556 S
O215 C219 1.246 . S
O216 Mg211 2.049 . S
O216 C219 1.259 . S
O217 Mg208 2.114 . S
O217 C220 1.252 . S
O218 Mg208 2.251 . S
O218 Mg211 2.065 1_554 S
O218 C220 1.273 . S
C219 O215 1.246 . S
C219 O216 1.259 . S
C220 O217 1.252 . S
C220 O218 1.273 . S
O221 Mg208 2.010 . S
O221 C213 1.249 . S
Mg222 O223 2.028 . S
Mg222 O229 1.986 . S
Mg222 O231 2.114 . S
Mg222 O232 2.251 . S
Mg222 O235 2.010 . S
O223 Mg222 2.028 . S
O223 C226 1.250 . S
O224 Mg225 2.028 . S
O224 C226 1.248 . S
Mg225 O224 2.028 . S
Mg225 O230 2.032 . S
Mg225 O232 2.079 . S
C226 O223 1.250 . S
C226 O224 1.248 . S
C227 O228 1.264 . S
C227 O235 1.249 . S
O228 C227 1.264 . S
O229 Mg222 1.986 . S
O229 C233 1.246 . S
O230 Mg225 2.032 . S
O230 C233 1.259 . S
O231 Mg222 2.114 . S
O231 C234 1.252 . S
O232 Mg222 2.251 . S
O232 Mg225 2.079 . S
O232 C234 1.273 . S
C233 O229 1.246 . S
C233 O230 1.259 . S
C234 O231 1.252 . S
C234 O232 1.273 . S
O235 Mg222 2.010 . S
O235 C227 1.249 . S
Mg236 O237 2.028 . S
Mg236 O243 1.986 . S
Mg236 O245 2.114 . S
Mg236 O246 2.251 . S
Mg236 O249 2.010 . S
O237 Mg236 2.028 . S
O237 C240 1.250 . S
O238 Mg239 2.028 . S
O238 C240 1.248 . S
Mg239 O238 2.028 . S
Mg239 O244 2.032 . S
Mg239 O246 2.079 . S
C240 O237 1.250 . S
C240 O238 1.248 . S
C241 O242 1.264 . S
C241 O249 1.249 . S
O242 C241 1.264 . S
O243 Mg236 1.986 . S
O243 C247 1.246 . S
O244 Mg239 2.032 . S
O244 C247 1.259 . S
O245 Mg236 2.114 . S
O245 C248 1.252 . S
O246 Mg236 2.251 . S
O246 Mg239 2.079 . S
O246 C248 1.273 . S
C247 O243 1.246 . S
C247 O244 1.259 . S
C248 O245 1.252 . S
C248 O246 1.273 . S
O249 Mg236 2.010 . S
O249 C241 1.249 . S
Mg250 O251 2.028 . S
Mg250 O257 1.986 . S
Mg250 O259 2.114 . S
Mg250 O260 2.251 . S
Mg250 O263 2.010 . S
O251 Mg250 2.028 . S
O251 C254 1.250 . S
O252 Mg253 2.028 1_565 S
O252 C254 1.248 1_565 S
Mg253 O252 2.028 1_545 S
Mg253 O258 2.040 . S
Mg253 O260 2.095 . S
C254 O251 1.250 . S
C254 O252 1.248 1_545 S
C255 O256 1.264 . S
C255 O263 1.249 . S
O256 C255 1.264 . S
O257 Mg250 1.986 . S
O257 C261 1.246 . S
O258 Mg253 2.040 . S
O258 C261 1.259 . S
O259 Mg250 2.114 . S
O259 C262 1.252 . S
O260 Mg250 2.251 . S
O260 Mg253 2.095 . S
O260 C262 1.273 . S
C261 O257 1.246 . S
C261 O258 1.259 . S
C262 O259 1.252 . S
C262 O260 1.273 . S
O263 Mg250 2.010 . S
O263 C255 1.249 . S
Mg264 O265 2.028 . S
Mg264 O271 1.986 . S
Mg264 O273 2.114 . S
Mg264 O274 2.251 . S
Mg264 O277 2.010 . S
O265 Mg264 2.028 . S
O265 C268 1.250 . S
O266 Mg267 2.028 . S
O266 C268 1.248 . S
Mg267 O266 2.028 . S
Mg267 O272 2.032 . S
Mg267 O274 2.079 . S
C268 O265 1.250 . S
C268 O266 1.248 . S
C269 O270 1.264 . S
C269 O277 1.249 . S
O270 C269 1.264 . S
O271 Mg264 1.986 . S
O271 C275 1.246 . S
O272 Mg267 2.032 . S
O272 C275 1.259 . S
O273 Mg264 2.114 . S
O273 C276 1.252 . S
O274 Mg264 2.251 . S
O274 Mg267 2.079 . S
O274 C276 1.273 . S
C275 O271 1.246 . S
C275 O272 1.259 . S
C276 O273 1.252 . S
C276 O274 1.273 . S
O277 Mg264 2.010 . S
O277 C269 1.249 . S
Mg278 O279 2.028 . S
Mg278 O285 1.986 . S
Mg278 O287 2.114 . S
Mg278 O288 2.251 . S
Mg278 O291 2.010 . S
O279 Mg278 2.028 . S
O279 C282 1.250 . S
O280 Mg281 2.028 . S
O280 C282 1.248 . S
Mg281 O280 2.028 . S
Mg281 O286 2.032 . S
Mg281 O288 2.079 . S
C282 O279 1.250 . S
C282 O280 1.248 . S
C283 O284 1.264 . S
C283 O291 1.249 . S
O284 C283 1.264 . S
O285 Mg278 1.986 . S
O285 C289 1.246 . S
O286 Mg281 2.032 . S
O286 C289 1.259 . S
O287 Mg278 2.114 . S
O287 C290 1.252 . S
O288 Mg278 2.251 . S
O288 Mg281 2.079 . S
O288 C290 1.273 . S
C289 O285 1.246 . S
C289 O286 1.259 . S
C290 O287 1.252 . S
C290 O288 1.273 . S
O291 Mg278 2.010 . S
O291 C283 1.249 . S
Mg292 O293 2.028 . S
Mg292 O299 1.986 . S
Mg292 O301 2.114 . S
Mg292 O302 2.251 . S
Mg292 O305 2.010 . S
O293 Mg292 2.028 . S
O293 C296 1.250 . S
O294 Mg295 2.028 . S
O294 C296 1.248 . S
Mg295 O294 2.028 . S
Mg295 O300 2.032 . S
Mg295 O302 2.079 . S
C296 O293 1.250 . S
C296 O294 1.248 . S
C297 O298 1.264 . S
C297 O305 1.249 . S
O298 C297 1.264 . S
O299 Mg292 1.986 . S
O299 C303 1.246 . S
O300 Mg295 2.032 . S
O300 C303 1.259 . S
O301 Mg292 2.114 . S
O301 C304 1.252 . S
O302 Mg292 2.251 . S
O302 Mg295 2.079 . S
O302 C304 1.273 . S
C303 O299 1.246 . S
C303 O300 1.259 . S
C304 O301 1.252 . S
C304 O302 1.273 . S
O305 Mg292 2.010 . S
O305 C297 1.249 . S
Mg306 O307 2.028 1_545 S
Mg306 O313 1.986 1_545 S
Mg306 O315 2.114 . S
Mg306 O316 2.251 . S
Mg306 O319 2.010 . S
O307 Mg306 2.028 1_565 S
O307 C310 1.250 . S
O308 Mg309 2.028 . S
O308 C310 1.248 . S
Mg309 O308 2.028 . S
Mg309 O314 2.032 . S
Mg309 O316 2.079 1_565 S
C310 O307 1.250 . S
C310 O308 1.248 . S
C311 O312 1.264 . S
C311 O319 1.249 . S
O312 C311 1.264 . S
O313 Mg306 1.986 1_565 S
O313 C317 1.246 . S
O314 Mg309 2.032 . S
O314 C317 1.259 . S
O315 Mg306 2.114 . S
O315 C318 1.252 . S
O316 Mg306 2.251 . S
O316 Mg309 2.079 1_545 S
O316 C318 1.273 . S
C317 O313 1.246 . S
C317 O314 1.259 . S
C318 O315 1.252 . S
C318 O316 1.273 . S
O319 Mg306 2.010 . S
O319 C311 1.249 . S
Mg320 O321 2.028 1_455 S
Mg320 O327 1.986 . S
Mg320 O329 2.114 . S
Mg320 O330 2.251 1_455 S
Mg320 O333 2.010 . S
O321 Mg320 2.028 1_655 S
O321 C324 1.250 . S
O322 Mg323 2.028 . S
O322 C324 1.248 . S
Mg323 O322 2.028 . S
Mg323 O328 2.032 . S
Mg323 O330 2.079 . S
C324 O321 1.250 . S
C324 O322 1.248 . S
C325 O326 1.264 . S
C325 O333 1.249 . S
O326 C325 1.264 . S
O327 Mg320 1.986 . S
O327 C331 1.246 . S
O328 Mg323 2.032 . S
O328 C331 1.259 1_655 S
O329 Mg320 2.114 . S
O329 C332 1.252 . S
O330 Mg320 2.251 1_655 S
O330 Mg323 2.079 . S
O330 C332 1.273 1_655 S
C331 O327 1.246 . S
C331 O328 1.259 1_455 S
C332 O329 1.252 . S
C332 O330 1.273 1_455 S
O333 Mg320 2.010 . S
O333 C325 1.249 . S
Mg334 O335 2.028 . S
Mg334 O341 1.986 . S
Mg334 O343 2.114 . S
Mg334 O344 2.251 . S
Mg334 O347 2.010 . S
O335 Mg334 2.028 . S
O335 C338 1.250 . S
O336 Mg337 2.028 . S
O336 C338 1.248 . S
Mg337 O336 2.028 . S
Mg337 O342 2.032 . S
Mg337 O344 2.079 . S
C338 O335 1.250 . S
C338 O336 1.248 . S
C339 O340 1.264 . S
C339 O347 1.249 . S
O340 C339 1.264 . S
O341 Mg334 1.986 . S
O341 C345 1.246 . S
O342 Mg337 2.032 . S
O342 C345 1.259 . S
O343 Mg334 2.114 . S
O343 C346 1.252 . S
O344 Mg334 2.251 . S
O344 Mg337 2.079 . S
O344 C346 1.273 . S
C345 O341 1.246 . S
C345 O342 1.259 . S
C346 O343 1.252 . S
C346 O344 1.273 . S
O347 Mg334 2.010 . S
O347 C339 1.249 . S
Mg348 O349 2.028 1_655 S
Mg348 O355 1.986 1_655 S
Mg348 O357 2.114 . S
Mg348 O358 2.251 1_655 S
Mg348 O361 2.010 . S
O349 Mg348 2.028 1_455 S
O349 C352 1.250 . S
O350 Mg351 2.028 . S
O350 C352 1.248 . S
Mg351 O350 2.028 . S
Mg351 O356 2.032 . S
Mg351 O358 2.079 . S
C352 O349 1.250 . S
C352 O350 1.248 . S
C353 O354 1.264 . S
C353 O361 1.249 . S
O354 C353 1.264 . S
O355 Mg348 1.986 1_455 S
O355 C359 1.246 . S
O356 Mg351 2.032 . S
O356 C359 1.259 . S
O357 Mg348 2.114 . S
O357 C360 1.252 . S
O358 Mg348 2.251 1_455 S
O358 Mg351 2.079 . S
O358 C360 1.273 1_455 S
C359 O355 1.246 . S
C359 O356 1.259 . S
C360 O357 1.252 . S
C360 O358 1.273 1_655 S
O361 Mg348 2.010 . S
O361 C353 1.249 . S
Mg362 O363 2.028 . S
Mg362 O369 1.986 . S
Mg362 O371 2.114 . S
Mg362 O372 2.251 . S
Mg362 O375 2.010 . S
O363 Mg362 2.028 . S
O363 C366 1.250 . S
O364 Mg365 2.028 . S
O364 C366 1.248 . S
Mg365 O364 2.028 . S
Mg365 O370 2.032 . S
Mg365 O372 2.079 . S
C366 O363 1.250 . S
C366 O364 1.248 . S
C367 O368 1.264 . S
C367 O375 1.249 . S
O368 C367 1.264 . S
O369 Mg362 1.986 . S
O369 C373 1.246 . S
O370 Mg365 2.032 . S
O370 C373 1.259 . S
O371 Mg362 2.114 . S
O371 C374 1.252 . S
O372 Mg362 2.251 . S
O372 Mg365 2.079 . S
O372 C374 1.273 . S
C373 O369 1.246 . S
C373 O370 1.259 . S
C374 O371 1.252 . S
C374 O372 1.273 . S
O375 Mg362 2.010 . S
O375 C367 1.249 . S
H376 C394 0.951 . S
H377 C396 0.951 . S
H378 C398 0.950 . S
H379 C399 0.950 . S
H380 C401 0.950 . S
H381 C404 0.950 . S
H382 C405 0.950 . S
H383 C407 0.950 . S
H384 C408 0.950 . S
H385 C409 0.951 . S
H386 C411 0.951 . S
H387 C413 0.950 . S
H388 C414 0.950 . S
H389 C416 0.950 . S
H390 C419 0.950 . S
H391 C420 0.950 . S
H392 C422 0.950 . S
H393 C423 0.950 . S
C394 H376 0.951 . S
C394 C395 1.366 . S
C394 C396 1.388 . S
C395 C394 1.366 . S
C395 C399 1.385 . S
C396 H377 0.951 . S
C396 C394 1.388 . S
C396 C397 1.366 . S
C397 C396 1.366 . S
C397 C398 1.414 . S
C397 C400 1.499 . S
C398 H378 0.950 . S
C398 C397 1.414 . S
C398 C399 1.374 . S
C399 H379 0.950 . S
C399 C395 1.385 . S
C399 C398 1.374 . S
C400 C397 1.499 . S
C400 C401 1.373 . S
C400 C402 1.389 . S
C401 H380 0.950 . S
C401 C400 1.373 . S
C401 C417 1.377 . S
C402 C400 1.389 . S
C402 C403 1.524 . S
C402 C416 1.377 . S
C403 C402 1.524 . S
C403 C404 1.397 . S
C403 C408 1.363 . S
C404 H381 0.950 . S
C404 C403 1.397 . S
C404 C405 1.334 . S
C405 H382 0.950 . S
C405 C404 1.334 . S
C405 C406 1.287 . S
C406 C405 1.287 . S
C406 C407 1.524 . S
C406 H425 0.913 . S
C407 H383 0.950 . S
C407 C406 1.524 . S
C407 C408 1.415 . S
C408 H384 0.950 . S
C408 C403 1.363 . S
C408 C407 1.415 . S
C409 H385 0.951 . S
C409 C410 1.366 . S
C409 C411 1.388 . S
C410 C409 1.366 . S
C410 C414 1.385 . S
C411 H386 0.951 . S
C411 C409 1.388 . S
C411 C412 1.366 . S
C412 C411 1.366 . S
C412 C413 1.414 . S
C412 C415 1.499 . S
C413 H387 0.950 . S
C413 C412 1.414 . S
C413 C414 1.374 . S
C414 H388 0.950 . S
C414 C410 1.385 . S
C414 C413 1.374 . S
C415 C412 1.499 . S
C415 C416 1.373 . S
C415 C417 1.389 . S
C416 H389 0.950 . S
C416 C402 1.377 . S
C416 C415 1.373 . S
C417 C401 1.377 . S
C417 C415 1.389 . S
C417 C418 1.524 . S
C418 C417 1.524 . S
C418 C419 1.397 . S
C418 C423 1.363 . S
C419 H390 0.950 . S
C419 C418 1.397 . S
C419 C420 1.334 . S
C420 H391 0.950 . S
C420 C419 1.334 . S
C420 C421 1.287 . S
C421 C420 1.287 . S
C421 C422 1.524 . S
C421 H424 0.999 . S
C422 H392 0.950 . S
C422 C421 1.524 . S
C422 C423 1.415 . S
C423 H393 0.950 . S
C423 C418 1.363 . S
C423 C422 1.415 . S
H424 C421 0.999 . S
H425 C406 0.913 . S
H426 C444 0.951 . S
H427 C446 0.951 . S
H428 C448 0.950 . S
H429 C449 0.950 . S
H430 C451 0.950 . S
H431 C454 0.950 . S
H432 C455 0.950 . S
H433 C457 0.950 . S
H434 C458 0.950 . S
H435 C459 0.951 . S
H436 C461 0.951 . S
H437 C463 0.950 . S
H438 C464 0.950 . S
H439 C466 0.950 . S
H440 C469 0.950 . S
H441 C470 0.950 . S
H442 C472 0.950 . S
H443 C473 0.950 . S
C444 H426 0.951 . S
C444 C445 1.366 . S
C444 C446 1.388 . S
C445 C444 1.366 . S
C445 C449 1.385 . S
C446 H427 0.951 . S
C446 C444 1.388 . S
C446 C447 1.366 . S
C447 C446 1.366 . S
C447 C448 1.414 . S
C447 C450 1.499 . S
C448 H428 0.950 . S
C448 C447 1.414 . S
C448 C449 1.374 . S
C449 H429 0.950 . S
C449 C445 1.385 . S
C449 C448 1.374 . S
C450 C447 1.499 . S
C450 C451 1.373 . S
C450 C452 1.389 . S
C451 H430 0.950 . S
C451 C450 1.373 . S
C451 C467 1.377 . S
C452 C450 1.389 . S
C452 C453 1.524 . S
C452 C466 1.377 . S
C453 C452 1.524 . S
C453 C454 1.397 . S
C453 C458 1.363 . S
C454 H431 0.950 . S
C454 C453 1.397 . S
C454 C455 1.334 . S
C455 H432 0.950 . S
C455 C454 1.334 . S
C455 C456 1.287 . S
C456 C455 1.287 . S
C456 C457 1.524 . S
C456 H475 0.913 . S
C457 H433 0.950 . S
C457 C456 1.524 . S
C457 C458 1.415 . S
C458 H434 0.950 . S
C458 C453 1.363 . S
C458 C457 1.415 . S
C459 H435 0.951 . S
C459 C460 1.366 . S
C459 C461 1.388 . S
C460 C459 1.366 . S
C460 C464 1.385 . S
C461 H436 0.951 . S
C461 C459 1.388 . S
C461 C462 1.366 . S
C462 C461 1.366 . S
C462 C463 1.414 . S
C462 C465 1.499 . S
C463 H437 0.950 . S
C463 C462 1.414 . S
C463 C464 1.374 . S
C464 H438 0.950 . S
C464 C460 1.385 . S
C464 C463 1.374 . S
C465 C462 1.499 . S
C465 C466 1.373 . S
C465 C467 1.389 . S
C466 H439 0.950 . S
C466 C452 1.377 . S
C466 C465 1.373 . S
C467 C451 1.377 . S
C467 C465 1.389 . S
C467 C468 1.524 . S
C468 C467 1.524 . S
C468 C469 1.397 . S
C468 C473 1.363 . S
C469 H440 0.950 . S
C469 C468 1.397 . S
C469 C470 1.334 . S
C470 H441 0.950 . S
C470 C469 1.334 . S
C470 C471 1.287 . S
C471 C470 1.287 . S
C471 C472 1.524 . S
C471 H474 0.999 . S
C472 H442 0.950 . S
C472 C471 1.524 . S
C472 C473 1.415 . S
C473 H443 0.950 . S
C473 C468 1.363 . S
C473 C472 1.415 . S
H474 C471 0.999 . S
H475 C456 0.913 . S
H476 C494 0.951 . S
H477 C496 0.951 . S
H478 C498 0.950 . S
H479 C499 0.950 . S
H480 C501 0.950 . S
H481 C504 0.950 . S
H482 C505 0.950 . S
H483 C507 0.950 . S
H484 C508 0.950 . S
H485 C509 0.951 1_554 S
H486 C511 0.951 . S
H487 C513 0.950 . S
H488 C514 0.950 . S
H489 C516 0.950 . S
H490 C519 0.950 . S
H491 C520 0.950 . S
H492 C522 0.950 . S
H493 C523 0.950 . S
C494 H476 0.951 . S
C494 C495 1.366 . S
C494 C496 1.388 . S
C495 C494 1.366 . S
C495 C499 1.385 . S
C496 H477 0.951 . S
C496 C494 1.388 . S
C496 C497 1.366 . S
C497 C496 1.366 . S
C497 C498 1.414 . S
C497 C500 1.499 . S
C498 H478 0.950 . S
C498 C497 1.414 . S
C498 C499 1.374 . S
C499 H479 0.950 . S
C499 C495 1.385 . S
C499 C498 1.374 . S
C500 C497 1.499 . S
C500 C501 1.373 . S
C500 C502 1.389 . S
C501 H480 0.950 . S
C501 C500 1.373 . S
C501 C517 1.377 . S
C502 C500 1.389 . S
C502 C503 1.524 . S
C502 C516 1.377 . S
C503 C502 1.524 . S
C503 C504 1.397 . S
C503 C508 1.363 . S
C504 H481 0.950 . S
C504 C503 1.397 . S
C504 C505 1.334 . S
C505 H482 0.950 . S
C505 C504 1.334 . S
C505 C506 1.287 . S
C506 C505 1.287 . S
C506 C507 1.524 . S
C506 H525 0.913 . S
C507 H483 0.950 . S
C507 C506 1.524 . S
C507 C508 1.415 . S
C508 H484 0.950 . S
C508 C503 1.363 . S
C508 C507 1.415 . S
C509 H485 0.951 1_556 S
C509 C510 1.366 . S
C509 C511 1.388 . S
C510 C509 1.366 . S
C510 C514 1.385 . S
C511 H486 0.951 . S
C511 C509 1.388 . S
C511 C512 1.366 . S
C512 C511 1.366 . S
C512 C513 1.414 . S
C512 C515 1.499 . S
C513 H487 0.950 . S
C513 C512 1.414 . S
C513 C514 1.374 . S
C514 H488 0.950 . S
C514 C510 1.385 . S
C514 C513 1.374 . S
C515 C512 1.499 . S
C515 C516 1.373 . S
C515 C517 1.389 . S
C516 H489 0.950 . S
C516 C502 1.377 . S
C516 C515 1.373 . S
C517 C501 1.377 . S
C517 C515 1.389 . S
C517 C518 1.524 . S
C518 C517 1.524 . S
C518 C519 1.397 . S
C518 C523 1.363 . S
C519 H490 0.950 . S
C519 C518 1.397 . S
C519 C520 1.334 . S
C520 H491 0.950 . S
C520 C519 1.334 . S
C520 C521 1.287 . S
C521 C520 1.287 . S
C521 C522 1.524 . S
C521 H524 0.999 1_556 S
C522 H492 0.950 . S
C522 C521 1.524 . S
C522 C523 1.415 . S
C523 H493 0.950 . S
C523 C518 1.363 . S
C523 C522 1.415 . S
H524 C521 0.999 1_554 S
H525 C506 0.913 . S
H526 C544 0.951 . S
H527 C546 0.951 . S
H528 C548 0.950 . S
H529 C549 0.950 . S
H530 C551 0.950 . S
H531 C554 0.950 . S
H532 C555 0.950 . S
H533 C557 0.950 . S
H534 C558 0.938 1_455 S
H535 C559 0.951 . S
H536 C561 0.951 . S
H537 C563 0.950 . S
H538 C564 0.950 . S
H539 C566 0.950 . S
H540 C569 0.950 . S
H541 C570 0.950 . S
H542 C572 0.950 . S
H543 C573 0.950 . S
C544 H526 0.951 . S
C544 C545 1.366 1_545 S
C544 C546 1.388 . S
C545 C544 1.366 1_565 S
C545 C549 1.385 1_455 S
C546 H527 0.951 . S
C546 C544 1.388 . S
C546 C547 1.366 1_455 S
C547 C546 1.366 1_655 S
C547 C548 1.414 1_545 S
C547 C550 1.499 . S
C548 H528 0.950 . S
C548 C547 1.414 1_565 S
C548 C549 1.374 . S
C549 H529 0.950 . S
C549 C545 1.385 1_655 S
C549 C548 1.374 . S
C550 C547 1.499 . S
C550 C551 1.373 1_545 S
C550 C552 1.389 . S
C551 H530 0.950 . S
C551 C550 1.373 1_565 S
C551 C567 1.377 . S
C552 C550 1.389 . S
C552 C553 1.524 . S
C552 C566 1.377 . S
C553 C552 1.524 . S
C553 C554 1.397 . S
C553 C558 1.387 . S
C554 H531 0.950 . S
C554 C553 1.397 . S
C554 C555 1.334 . S
C555 H532 0.950 . S
C555 C554 1.334 . S
C555 C556 1.287 1_655 S
C556 C555 1.287 1_455 S
C556 C557 1.524 . S
C556 H575 0.913 . S
C557 H533 0.950 . S
C557 C556 1.524 . S
C557 C558 1.401 1_455 S
C558 H534 0.938 1_655 S
C558 C553 1.387 . S
C558 C557 1.401 1_655 S
C559 H535 0.951 . S
C559 C560 1.366 . S
C559 C561 1.388 . S
C560 C559 1.366 . S
C560 C564 1.385 . S
C561 H536 0.951 . S
C561 C559 1.388 . S
C561 C562 1.366 . S
C562 C561 1.366 . S
C562 C563 1.414 . S
C562 C565 1.499 . S
C563 H537 0.950 . S
C563 C562 1.414 . S
C563 C564 1.374 . S
C564 H538 0.950 . S
C564 C560 1.385 . S
C564 C563 1.374 . S
C565 C562 1.499 . S
C565 C566 1.373 . S
C565 C567 1.389 1_545 S
C566 H539 0.950 . S
C566 C552 1.377 . S
C566 C565 1.373 . S
C567 C551 1.377 . S
C567 C565 1.389 1_565 S
C567 C568 1.524 . S
C568 C567 1.524 . S
C568 C569 1.397 . S
C568 C573 1.363 . S
C569 H540 0.950 . S
C569 C568 1.397 . S
C569 C570 1.334 . S
C570 H541 0.950 . S
C570 C569 1.334 . S
C570 C571 1.287 . S
C571 C570 1.287 . S
C571 C572 1.524 . S
C571 H574 0.999 . S
C572 H542 0.950 . S
C572 C571 1.524 . S
C572 C573 1.415 . S
C573 H543 0.950 . S
C573 C568 1.363 . S
C573 C572 1.415 . S
H574 C571 0.999 . S
H575 C556 0.913 . S
H576 C594 0.951 . S
H577 C596 0.951 . S
H578 C598 0.950 . S
H579 C599 0.950 . S
H580 C601 0.950 . S
H581 C604 0.950 . S
H582 C605 0.950 . S
H583 C607 0.950 . S
H584 C608 0.950 . S
H585 C609 0.951 . S
H586 C611 0.951 . S
H587 C613 0.950 . S
H588 C614 0.950 . S
H589 C616 0.950 . S
H590 C619 0.950 . S
H591 C620 0.950 . S
H592 C622 0.950 . S
H593 C623 0.950 . S
C594 H576 0.951 . S
C594 C595 1.366 . S
C594 C596 1.388 . S
C595 C594 1.366 . S
C595 C599 1.385 . S
C596 H577 0.951 . S
C596 C594 1.388 . S
C596 C597 1.366 . S
C597 C596 1.366 . S
C597 C598 1.414 . S
C597 C600 1.499 . S
C598 H578 0.950 . S
C598 C597 1.414 . S
C598 C599 1.374 . S
C599 H579 0.950 . S
C599 C595 1.385 . S
C599 C598 1.374 . S
C600 C597 1.499 . S
C600 C601 1.373 . S
C600 C602 1.389 . S
C601 H580 0.950 . S
C601 C600 1.373 . S
C601 C617 1.377 . S
C602 C600 1.389 . S
C602 C603 1.524 . S
C602 C616 1.377 . S
C603 C602 1.524 . S
C603 C604 1.397 . S
C603 C608 1.363 . S
C604 H581 0.950 . S
C604 C603 1.397 . S
C604 C605 1.334 . S
C605 H582 0.950 . S
C605 C604 1.334 . S
C605 C606 1.287 . S
C606 C605 1.287 . S
C606 C607 1.524 . S
C606 H625 0.913 . S
C607 H583 0.950 . S
C607 C606 1.524 . S
C607 C608 1.415 . S
C608 H584 0.950 . S
C608 C603 1.363 . S
C608 C607 1.415 . S
C609 H585 0.951 . S
C609 C610 1.366 . S
C609 C611 1.388 . S
C610 C609 1.366 . S
C610 C614 1.385 . S
C611 H586 0.951 . S
C611 C609 1.388 . S
C611 C612 1.366 . S
C612 C611 1.366 . S
C612 C613 1.414 . S
C612 C615 1.499 . S
C613 H587 0.950 . S
C613 C612 1.414 . S
C613 C614 1.374 . S
C614 H588 0.950 . S
C614 C610 1.385 . S
C614 C613 1.374 . S
C615 C612 1.499 . S
C615 C616 1.373 . S
C615 C617 1.389 . S
C616 H589 0.950 . S
C616 C602 1.377 . S
C616 C615 1.373 . S
C617 C601 1.377 . S
C617 C615 1.389 . S
C617 C618 1.524 . S
C618 C617 1.524 . S
C618 C619 1.397 . S
C618 C623 1.363 . S
C619 H590 0.950 . S
C619 C618 1.397 . S
C619 C620 1.334 . S
C620 H591 0.950 . S
C620 C619 1.334 . S
C620 C621 1.287 . S
C621 C620 1.287 . S
C621 C622 1.524 . S
C621 H624 0.999 . S
C622 H592 0.950 . S
C622 C621 1.524 . S
C622 C623 1.415 . S
C623 H593 0.950 . S
C623 C618 1.363 . S
C623 C622 1.415 . S
H624 C621 0.999 . S
H625 C606 0.913 . S
H626 C644 0.951 . S
H627 C646 0.951 . S
H628 C648 0.950 . S
H629 C649 0.950 . S
H630 C651 0.950 . S
H631 C654 0.950 . S
H632 C655 0.950 . S
H633 C657 0.950 . S
H634 C658 0.950 . S
H635 C659 0.951 . S
H636 C661 0.951 . S
H637 C663 0.950 . S
H638 C664 0.950 . S
H639 C666 0.950 . S
H640 C669 0.950 . S
H641 C670 0.950 . S
H642 C672 0.950 . S
H643 C673 0.950 . S
C644 H626 0.951 . S
C644 C645 1.366 . S
C644 C646 1.388 . S
C645 C644 1.366 . S
C645 C649 1.385 . S
C646 H627 0.951 . S
C646 C644 1.388 . S
C646 C647 1.366 . S
C647 C646 1.366 . S
C647 C648 1.414 . S
C647 C650 1.499 . S
C648 H628 0.950 . S
C648 C647 1.414 . S
C648 C649 1.374 . S
C649 H629 0.950 . S
C649 C645 1.385 . S
C649 C648 1.374 . S
C650 C647 1.499 . S
C650 C651 1.373 . S
C650 C652 1.389 . S
C651 H630 0.950 . S
C651 C650 1.373 . S
C651 C667 1.377 . S
C652 C650 1.389 . S
C652 C653 1.524 . S
C652 C666 1.377 . S
C653 C652 1.524 . S
C653 C654 1.397 . S
C653 C658 1.363 . S
C654 H631 0.950 . S
C654 C653 1.397 . S
C654 C655 1.334 . S
C655 H632 0.950 . S
C655 C654 1.334 . S
C655 C656 1.287 . S
C656 C655 1.287 . S
C656 C657 1.524 . S
C656 H675 0.913 . S
C657 H633 0.950 . S
C657 C656 1.524 . S
C657 C658 1.415 . S
C658 H634 0.950 . S
C658 C653 1.363 . S
C658 C657 1.415 . S
C659 H635 0.951 . S
C659 C660 1.366 . S
C659 C661 1.388 . S
C660 C659 1.366 . S
C660 C664 1.385 . S
C661 H636 0.951 . S
C661 C659 1.388 . S
C661 C662 1.366 . S
C662 C661 1.366 . S
C662 C663 1.414 . S
C662 C665 1.499 . S
C663 H637 0.950 . S
C663 C662 1.414 . S
C663 C664 1.374 . S
C664 H638 0.950 . S
C664 C660 1.385 . S
C664 C663 1.374 . S
C665 C662 1.499 . S
C665 C666 1.373 . S
C665 C667 1.389 . S
C666 H639 0.950 . S
C666 C652 1.377 . S
C666 C665 1.373 . S
C667 C651 1.377 . S
C667 C665 1.389 . S
C667 C668 1.524 . S
C668 C667 1.524 . S
C668 C669 1.397 . S
C668 C673 1.363 . S
C669 H640 0.950 . S
C669 C668 1.397 . S
C669 C670 1.334 . S
C670 H641 0.950 . S
C670 C669 1.334 . S
C670 C671 1.287 . S
C671 C670 1.287 . S
C671 C672 1.524 . S
C671 H674 0.999 . S
C672 H642 0.950 . S
C672 C671 1.524 . S
C672 C673 1.415 . S
C673 H643 0.950 . S
C673 C668 1.363 . S
C673 C672 1.415 . S
H674 C671 0.999 . S
H675 C656 0.913 . S
H676 C694 0.951 . S
H677 C696 0.951 . S
H678 C698 0.950 . S
H679 C699 0.950 . S
H680 C701 0.950 . S
H681 C704 0.950 . S
H682 C705 0.950 . S
H683 C707 0.950 . S
H684 C708 0.950 . S
H685 C709 0.951 . S
H686 C711 0.951 . S
H687 C713 0.950 . S
H688 C714 0.950 . S
H689 C716 0.950 . S
H690 C719 0.950 . S
H691 C720 0.950 . S
H692 C722 0.950 . S
H693 C723 0.950 . S
C694 H676 0.951 . S
C694 C695 1.366 . S
C694 C696 1.388 . S
C695 C694 1.366 . S
C695 C699 1.385 . S
C696 H677 0.951 . S
C696 C694 1.388 . S
C696 C697 1.366 . S
C697 C696 1.366 . S
C697 C698 1.414 . S
C697 C700 1.499 . S
C698 H678 0.950 . S
C698 C697 1.414 . S
C698 C699 1.374 . S
C699 H679 0.950 . S
C699 C695 1.385 . S
C699 C698 1.374 . S
C700 C697 1.499 . S
C700 C701 1.373 . S
C700 C702 1.389 . S
C701 H680 0.950 . S
C701 C700 1.373 . S
C701 C717 1.377 . S
C702 C700 1.389 . S
C702 C703 1.524 . S
C702 C716 1.377 . S
C703 C702 1.524 . S
C703 C704 1.397 . S
C703 C708 1.363 . S
C704 H681 0.950 . S
C704 C703 1.397 . S
C704 C705 1.334 . S
C705 H682 0.950 . S
C705 C704 1.334 . S
C705 C706 1.287 . S
C706 C705 1.287 . S
C706 C707 1.524 . S
C706 H725 0.913 . S
C707 H683 0.950 . S
C707 C706 1.524 . S
C707 C708 1.415 . S
C708 H684 0.950 . S
C708 C703 1.363 . S
C708 C707 1.415 . S
C709 H685 0.951 . S
C709 C710 1.366 . S
C709 C711 1.388 . S
C710 C709 1.366 . S
C710 C714 1.385 . S
C711 H686 0.951 . S
C711 C709 1.388 . S
C711 C712 1.366 . S
C712 C711 1.366 . S
C712 C713 1.414 . S
C712 C715 1.499 . S
C713 H687 0.950 . S
C713 C712 1.414 . S
C713 C714 1.374 . S
C714 H688 0.950 . S
C714 C710 1.385 . S
C714 C713 1.374 . S
C715 C712 1.499 . S
C715 C716 1.373 . S
C715 C717 1.389 . S
C716 H689 0.950 . S
C716 C702 1.377 . S
C716 C715 1.373 . S
C717 C701 1.377 . S
C717 C715 1.389 . S
C717 C718 1.524 . S
C718 C717 1.524 . S
C718 C719 1.397 . S
C718 C723 1.363 . S
C719 H690 0.950 . S
C719 C718 1.397 . S
C719 C720 1.334 . S
C720 H691 0.950 . S
C720 C719 1.334 . S
C720 C721 1.287 . S
C721 C720 1.287 . S
C721 C722 1.524 . S
C721 H724 0.999 . S
C722 H692 0.950 . S
C722 C721 1.524 . S
C722 C723 1.415 . S
C723 H693 0.950 . S
C723 C718 1.363 . S
C723 C722 1.415 . S
H724 C721 0.999 . S
H725 C706 0.913 . S
H726 C744 0.951 . S
H727 C746 0.951 . S
H728 C748 0.916 1_545 S
H729 C749 0.950 . S
H730 C751 0.917 1_545 S
H731 C754 0.950 . S
H732 C755 0.950 . S
H733 C757 0.950 . S
H734 C758 0.950 . S
H735 C759 0.951 . S
H736 C761 0.951 . S
H737 C763 0.950 . S
H738 C764 0.950 . S
H739 C766 0.950 . S
H740 C769 0.950 1_565 S
H741 C770 0.950 . S
H742 C772 0.950 . S
H743 C773 0.950 . S
C744 H726 0.951 . S
C744 C745 1.366 . S
C744 C746 1.388 . S
C745 C744 1.366 . S
C745 C749 1.385 . S
C746 H727 0.951 . S
C746 C744 1.388 . S
C746 C747 1.366 . S
C747 C746 1.366 . S
C747 C748 1.414 . S
C747 C750 1.499 . S
C748 H728 0.916 1_565 S
C748 C747 1.414 . S
C748 C749 1.374 . S
C749 H729 0.950 . S
C749 C745 1.385 . S
C749 C748 1.374 . S
C750 C747 1.499 . S
C750 C751 1.373 . S
C750 C752 1.389 . S
C751 H730 0.917 1_565 S
C751 C750 1.373 . S
C751 C767 1.377 . S
C752 C750 1.389 . S
C752 C753 1.524 . S
C752 C766 1.377 . S
C753 C752 1.524 . S
C753 C754 1.397 . S
C753 C758 1.363 . S
C754 H731 0.950 . S
C754 C753 1.397 . S
C754 C755 1.334 . S
C755 H732 0.950 . S
C755 C754 1.334 . S
C755 C756 1.287 . S
C756 C755 1.287 . S
C756 C757 1.524 . S
C756 H775 0.913 . S
C757 H733 0.950 . S
C757 C756 1.524 . S
C757 C758 1.415 . S
C758 H734 0.950 . S
C758 C753 1.363 . S
C758 C757 1.415 . S
C759 H735 0.951 . S
C759 C760 1.366 1_545 S
C759 C761 1.388 . S
C760 C759 1.366 1_565 S
C760 C764 1.385 . S
C761 H736 0.951 . S
C761 C759 1.388 . S
C761 C762 1.366 1_545 S
C762 C761 1.366 1_565 S
C762 C763 1.414 . S
C762 C765 1.499 . S
C763 H737 0.950 . S
C763 C762 1.414 . S
C763 C764 1.374 . S
C764 H738 0.950 . S
C764 C760 1.385 . S
C764 C763 1.374 . S
C765 C762 1.499 . S
C765 C766 1.373 . S
C765 C767 1.389 . S
C766 H739 0.950 . S
C766 C752 1.377 . S
C766 C765 1.373 . S
C767 C751 1.377 . S
C767 C765 1.389 . S
C767 C768 1.524 1_565 S
C768 C767 1.524 1_545 S
C768 C769 1.397 . S
C768 C773 1.363 . S
C769 H740 0.950 1_545 S
C769 C768 1.397 . S
C769 C770 1.334 . S
C770 H741 0.950 . S
C770 C769 1.334 . S
C770 C771 1.287 . S
C771 C770 1.287 . S
C771 C772 1.524 . S
C771 H774 0.999 . S
C772 H742 0.950 . S
C772 C771 1.524 . S
C772 C773 1.415 . S
C773 H743 0.950 . S
C773 C768 1.363 . S
C773 C772 1.415 . S
H774 C771 0.999 . S
H775 C756 0.913 . S
H776 C794 0.951 . S
H777 C796 0.951 . S
H778 C798 0.950 . S
H779 C799 0.950 . S
H780 C801 0.950 . S
H781 C804 0.950 . S
H782 C805 0.950 . S
H783 C807 0.950 . S
H784 C808 0.950 . S
H785 C809 0.951 . S
H786 C811 0.951 . S
H787 C813 0.950 . S
H788 C814 0.950 . S
H789 C816 0.950 . S
H790 C819 0.950 . S
H791 C820 0.950 . S
H792 C822 0.950 . S
H793 C823 0.950 . S
C794 H776 0.951 . S
C794 C795 1.366 . S
C794 C796 1.388 . S
C795 C794 1.366 . S
C795 C799 1.385 . S
C796 H777 0.951 . S
C796 C794 1.388 . S
C796 C797 1.366 . S
C797 C796 1.366 . S
C797 C798 1.414 . S
C797 C800 1.499 . S
C798 H778 0.950 . S
C798 C797 1.414 . S
C798 C799 1.374 . S
C799 H779 0.950 . S
C799 C795 1.385 . S
C799 C798 1.374 . S
C800 C797 1.499 . S
C800 C801 1.373 . S
C800 C802 1.389 . S
C801 H780 0.950 . S
C801 C800 1.373 . S
C801 C817 1.377 . S
C802 C800 1.389 . S
C802 C803 1.524 . S
C802 C816 1.377 . S
C803 C802 1.524 . S
C803 C804 1.397 . S
C803 C808 1.363 . S
C804 H781 0.950 . S
C804 C803 1.397 . S
C804 C805 1.334 . S
C805 H782 0.950 . S
C805 C804 1.334 . S
C805 C806 1.287 . S
C806 C805 1.287 . S
C806 C807 1.524 . S
C806 H825 0.913 . S
C807 H783 0.950 . S
C807 C806 1.524 . S
C807 C808 1.415 . S
C808 H784 0.950 . S
C808 C803 1.363 . S
C808 C807 1.415 . S
C809 H785 0.951 . S
C809 C810 1.366 . S
C809 C811 1.388 . S
C810 C809 1.366 . S
C810 C814 1.385 . S
C811 H786 0.951 . S
C811 C809 1.388 . S
C811 C812 1.366 . S
C812 C811 1.366 . S
C812 C813 1.414 . S
C812 C815 1.499 . S
C813 H787 0.950 . S
C813 C812 1.414 . S
C813 C814 1.374 . S
C814 H788 0.950 . S
C814 C810 1.385 . S
C814 C813 1.374 . S
C815 C812 1.499 . S
C815 C816 1.373 . S
C815 C817 1.389 . S
C816 H789 0.950 . S
C816 C802 1.377 . S
C816 C815 1.373 . S
C817 C801 1.377 . S
C817 C815 1.389 . S
C817 C818 1.524 . S
C818 C817 1.524 . S
C818 C819 1.397 . S
C818 C823 1.363 . S
C819 H790 0.950 . S
C819 C818 1.397 . S
C819 C820 1.334 . S
C820 H791 0.950 . S
C820 C819 1.334 . S
C820 C821 1.287 . S
C821 C820 1.287 . S
C821 C822 1.524 . S
C821 H824 0.999 . S
C822 H792 0.950 . S
C822 C821 1.524 . S
C822 C823 1.415 . S
C823 H793 0.950 . S
C823 C818 1.363 . S
C823 C822 1.415 . S
H824 C821 0.999 . S
H825 C806 0.913 . S
H826 C844 0.951 . S
H827 C846 0.951 . S
H828 C848 0.950 . S
H829 C849 0.950 . S
H830 C851 0.950 . S
H831 C854 0.950 . S
H832 C855 0.950 . S
H833 C857 0.950 . S
H834 C858 0.950 . S
H835 C859 0.951 . S
H836 C861 0.951 . S
H837 C863 0.950 . S
H838 C864 0.950 . S
H839 C866 0.950 . S
H840 C869 0.950 . S
H841 C870 0.950 . S
H842 C872 0.950 . S
H843 C873 0.950 . S
C844 H826 0.951 . S
C844 C845 1.366 . S
C844 C846 1.388 . S
C845 C844 1.366 . S
C845 C849 1.385 . S
C846 H827 0.951 . S
C846 C844 1.388 . S
C846 C847 1.366 . S
C847 C846 1.366 . S
C847 C848 1.414 . S
C847 C850 1.499 . S
C848 H828 0.950 . S
C848 C847 1.414 . S
C848 C849 1.374 . S
C849 H829 0.950 . S
C849 C845 1.385 . S
C849 C848 1.374 . S
C850 C847 1.499 . S
C850 C851 1.373 . S
C850 C852 1.389 . S
C851 H830 0.950 . S
C851 C850 1.373 . S
C851 C867 1.377 . S
C852 C850 1.389 . S
C852 C853 1.524 . S
C852 C866 1.377 . S
C853 C852 1.524 . S
C853 C854 1.397 . S
C853 C858 1.363 . S
C854 H831 0.950 . S
C854 C853 1.397 . S
C854 C855 1.334 . S
C855 H832 0.950 . S
C855 C854 1.334 . S
C855 C856 1.287 . S
C856 C855 1.287 . S
C856 C857 1.524 . S
C856 H875 0.913 . S
C857 H833 0.950 . S
C857 C856 1.524 . S
C857 C858 1.415 . S
C858 H834 0.950 . S
C858 C853 1.363 . S
C858 C857 1.415 . S
C859 H835 0.951 . S
C859 C860 1.366 . S
C859 C861 1.388 . S
C860 C859 1.366 . S
C860 C864 1.385 . S
C861 H836 0.951 . S
C861 C859 1.388 . S
C861 C862 1.366 . S
C862 C861 1.366 . S
C862 C863 1.414 . S
C862 C865 1.499 . S
C863 H837 0.950 . S
C863 C862 1.414 . S
C863 C864 1.374 . S
C864 H838 0.950 . S
C864 C860 1.385 . S
C864 C863 1.374 . S
C865 C862 1.499 . S
C865 C866 1.373 . S
C865 C867 1.389 . S
C866 H839 0.950 . S
C866 C852 1.377 . S
C866 C865 1.373 . S
C867 C851 1.377 . S
C867 C865 1.389 . S
C867 C868 1.524 . S
C868 C867 1.524 . S
C868 C869 1.397 . S
C868 C873 1.363 . S
C869 H840 0.950 . S
C869 C868 1.397 . S
C869 C870 1.334 . S
C870 H841 0.950 . S
C870 C869 1.334 . S
C870 C871 1.287 . S
C871 C870 1.287 . S
C871 C872 1.524 . S
C871 H874 0.999 . S
C872 H842 0.950 . S
C872 C871 1.524 . S
C872 C873 1.415 . S
C873 H843 0.950 . S
C873 C868 1.363 . S
C873 C872 1.415 . S
H874 C871 0.999 . S
H875 C856 0.913 . S
H876 C894 0.951 . S
H877 C896 0.951 . S
H878 C898 0.950 . S
H879 C899 0.950 . S
H880 C901 0.950 . S
H881 C904 0.950 . S
H882 C905 0.950 . S
H883 C907 0.950 . S
H884 C908 0.950 . S
H885 C909 0.951 . S
H886 C911 0.951 . S
H887 C913 0.950 . S
H888 C914 0.950 . S
H889 C916 0.950 . S
H890 C919 0.950 . S
H891 C920 0.950 . S
H892 C922 0.950 . S
H893 C923 0.950 . S
C894 H876 0.951 . S
C894 C895 1.366 . S
C894 C896 1.388 . S
C895 C894 1.366 . S
C895 C899 1.385 . S
C896 H877 0.951 . S
C896 C894 1.388 . S
C896 C897 1.366 . S
C897 C896 1.366 . S
C897 C898 1.414 . S
C897 C900 1.499 . S
C898 H878 0.950 . S
C898 C897 1.414 . S
C898 C899 1.374 . S
C899 H879 0.950 . S
C899 C895 1.385 . S
C899 C898 1.374 . S
C900 C897 1.499 . S
C900 C901 1.373 . S
C900 C902 1.389 . S
C901 H880 0.950 . S
C901 C900 1.373 . S
C901 C917 1.377 . S
C902 C900 1.389 . S
C902 C903 1.524 . S
C902 C916 1.377 . S
C903 C902 1.524 . S
C903 C904 1.397 . S
C903 C908 1.363 . S
C904 H881 0.950 . S
C904 C903 1.397 . S
C904 C905 1.334 . S
C905 H882 0.950 . S
C905 C904 1.334 . S
C905 C906 1.287 . S
C906 C905 1.287 . S
C906 C907 1.524 . S
C906 H925 0.913 . S
C907 H883 0.950 . S
C907 C906 1.524 . S
C907 C908 1.415 . S
C908 H884 0.950 . S
C908 C903 1.363 . S
C908 C907 1.415 . S
C909 H885 0.951 . S
C909 C910 1.366 . S
C909 C911 1.388 . S
C910 C909 1.366 . S
C910 C914 1.385 . S
C911 H886 0.951 . S
C911 C909 1.388 . S
C911 C912 1.366 . S
C912 C911 1.366 . S
C912 C913 1.414 . S
C912 C915 1.499 . S
C913 H887 0.950 . S
C913 C912 1.414 . S
C913 C914 1.374 . S
C914 H888 0.950 . S
C914 C910 1.385 . S
C914 C913 1.374 . S
C915 C912 1.499 . S
C915 C916 1.373 . S
C915 C917 1.389 . S
C916 H889 0.950 . S
C916 C902 1.377 . S
C916 C915 1.373 . S
C917 C901 1.377 . S
C917 C915 1.389 . S
C917 C918 1.524 . S
C918 C917 1.524 . S
C918 C919 1.397 . S
C918 C923 1.363 . S
C919 H890 0.950 . S
C919 C918 1.397 . S
C919 C920 1.334 . S
C920 H891 0.950 . S
C920 C919 1.334 . S
C920 C921 1.287 . S
C921 C920 1.287 . S
C921 C922 1.524 . S
C921 H924 0.999 . S
C922 H892 0.950 . S
C922 C921 1.524 . S
C922 C923 1.415 . S
C923 H893 0.950 . S
C923 C918 1.363 . S
C923 C922 1.415 . S
H924 C921 0.999 . S
H925 C906 0.913 . S
H926 C944 0.951 . S
H927 C946 0.951 . S
H928 C948 0.950 . S
H929 C949 0.950 . S
H930 C951 0.950 . S
H931 C954 0.950 . S
H932 C955 0.950 . S
H933 C957 0.950 . S
H934 C958 0.950 . S
H935 C959 0.951 . S
H936 C961 0.951 . S
H937 C963 0.950 . S
H938 C964 0.950 . S
H939 C966 0.950 . S
H940 C969 0.950 . S
H941 C970 0.950 . S
H942 C972 0.950 . S
H943 C973 0.950 . S
C944 H926 0.951 . S
C944 C945 1.366 . S
C944 C946 1.388 . S
C945 C944 1.366 . S
C945 C949 1.385 . S
C946 H927 0.951 . S
C946 C944 1.388 . S
C946 C947 1.366 . S
C947 C946 1.366 . S
C947 C948 1.414 . S
C947 C950 1.499 . S
C948 H928 0.950 . S
C948 C947 1.414 . S
C948 C949 1.374 . S
C949 H929 0.950 . S
C949 C945 1.385 . S
C949 C948 1.374 . S
C950 C947 1.499 . S
C950 C951 1.373 . S
C950 C952 1.389 . S
C951 H930 0.950 . S
C951 C950 1.373 . S
C951 C967 1.377 . S
C952 C950 1.389 . S
C952 C953 1.524 . S
C952 C966 1.377 . S
C953 C952 1.524 . S
C953 C954 1.397 . S
C953 C958 1.363 . S
C954 H931 0.950 . S
C954 C953 1.397 . S
C954 C955 1.334 . S
C955 H932 0.950 . S
C955 C954 1.334 . S
C955 C956 1.287 . S
C956 C955 1.287 . S
C956 C957 1.524 . S
C956 H975 0.913 . S
C957 H933 0.950 . S
C957 C956 1.524 . S
C957 C958 1.415 . S
C958 H934 0.950 . S
C958 C953 1.363 . S
C958 C957 1.415 . S
C959 H935 0.951 . S
C959 C960 1.366 . S
C959 C961 1.388 . S
C960 C959 1.366 . S
C960 C964 1.385 . S
C961 H936 0.951 . S
C961 C959 1.388 . S
C961 C962 1.366 . S
C962 C961 1.366 . S
C962 C963 1.414 . S
C962 C965 1.499 . S
C963 H937 0.950 . S
C963 C962 1.414 . S
C963 C964 1.374 . S
C964 H938 0.950 . S
C964 C960 1.385 . S
C964 C963 1.374 . S
C965 C962 1.499 . S
C965 C966 1.373 . S
C965 C967 1.389 . S
C966 H939 0.950 . S
C966 C952 1.377 . S
C966 C965 1.373 . S
C967 C951 1.377 . S
C967 C965 1.389 . S
C967 C968 1.524 . S
C968 C967 1.524 . S
C968 C969 1.397 . S
C968 C973 1.363 . S
C969 H940 0.950 . S
C969 C968 1.397 . S
C969 C970 1.334 . S
C970 H941 0.950 . S
C970 C969 1.334 . S
C970 C971 1.287 . S
C971 C970 1.287 . S
C971 C972 1.524 . S
C971 H974 0.999 . S
C972 H942 0.950 . S
C972 C971 1.524 . S
C972 C973 1.415 . S
C973 H943 0.950 . S
C973 C968 1.363 . S
C973 C972 1.415 . S
H974 C971 0.999 . S
H975 C956 0.913 . S
H976 C994 0.951 . S
H977 C996 0.951 . S
H978 C998 0.950 . S
H979 C999 0.950 . S
H980 C1001 0.950 . S
H981 C1004 0.950 . S
H982 C1005 0.950 . S
H983 C1007 0.950 . S
H984 C1008 0.950 . S
H985 C1009 0.951 . S
H986 C1011 0.951 . S
H987 C1013 0.950 . S
H988 C1014 0.950 . S
H989 C1016 0.950 . S
H990 C1019 0.950 . S
H991 C1020 0.950 . S
H992 C1022 0.950 . S
H993 C1023 0.950 . S
C994 H976 0.951 . S
C994 C995 1.366 . S
C994 C996 1.388 . S
C995 C994 1.366 . S
C995 C999 1.385 . S
C996 H977 0.951 . S
C996 C994 1.388 . S
C996 C997 1.366 . S
C997 C996 1.366 . S
C997 C998 1.414 . S
C997 C1000 1.499 . S
C998 H978 0.950 . S
C998 C997 1.414 . S
C998 C999 1.374 . S
C999 H979 0.950 . S
C999 C995 1.385 . S
C999 C998 1.374 . S
C1000 C997 1.499 . S
C1000 C1001 1.373 . S
C1000 C1002 1.389 . S
C1001 H980 0.950 . S
C1001 C1000 1.373 . S
C1001 C1017 1.377 . S
C1002 C1000 1.389 . S
C1002 C1003 1.524 . S
C1002 C1016 1.377 . S
C1003 C1002 1.524 . S
C1003 C1004 1.397 . S
C1003 C1008 1.363 . S
C1004 H981 0.950 . S
C1004 C1003 1.397 . S
C1004 C1005 1.334 . S
C1005 H982 0.950 . S
C1005 C1004 1.334 . S
C1005 C1006 1.287 . S
C1006 C1005 1.287 . S
C1006 C1007 1.524 . S
C1006 H1025 0.913 . S
C1007 H983 0.950 . S
C1007 C1006 1.524 . S
C1007 C1008 1.415 . S
C1008 H984 0.950 . S
C1008 C1003 1.363 . S
C1008 C1007 1.415 . S
C1009 H985 0.951 . S
C1009 C1010 1.366 . S
C1009 C1011 1.388 . S
C1010 C1009 1.366 . S
C1010 C1014 1.385 . S
C1011 H986 0.951 . S
C1011 C1009 1.388 . S
C1011 C1012 1.366 . S
C1012 C1011 1.366 . S
C1012 C1013 1.414 . S
C1012 C1015 1.499 . S
C1013 H987 0.950 . S
C1013 C1012 1.414 . S
C1013 C1014 1.374 . S
C1014 H988 0.950 . S
C1014 C1010 1.385 . S
C1014 C1013 1.374 . S
C1015 C1012 1.499 . S
C1015 C1016 1.373 . S
C1015 C1017 1.389 . S
C1016 H989 0.950 . S
C1016 C1002 1.377 . S
C1016 C1015 1.373 . S
C1017 C1001 1.377 . S
C1017 C1015 1.389 . S
C1017 C1018 1.524 . S
C1018 C1017 1.524 . S
C1018 C1019 1.397 . S
C1018 C1023 1.363 . S
C1019 H990 0.950 . S
C1019 C1018 1.397 . S
C1019 C1020 1.334 . S
C1020 H991 0.950 . S
C1020 C1019 1.334 . S
C1020 C1021 1.287 . S
C1021 C1020 1.287 . S
C1021 C1022 1.524 . S
C1021 H1024 0.999 . S
C1022 H992 0.950 . S
C1022 C1021 1.524 . S
C1022 C1023 1.415 . S
C1023 H993 0.950 . S
C1023 C1018 1.363 . S
C1023 C1022 1.415 . S
H1024 C1021 0.999 . S
H1025 C1006 0.913 . S
H1026 C1044 0.951 . S
H1027 C1046 0.951 . S
H1028 C1048 0.950 . S
H1029 C1049 0.950 . S
H1030 C1051 0.950 . S
H1031 C1054 0.950 . S
H1032 C1055 0.950 . S
H1033 C1057 0.950 . S
H1034 C1058 0.950 . S
H1035 C1059 0.951 . S
H1036 C1061 0.951 . S
H1037 C1063 0.950 . S
H1038 C1064 0.950 . S
H1039 C1066 0.950 . S
H1040 C1069 0.950 . S
H1041 C1070 0.950 . S
H1042 C1072 0.950 . S
H1043 C1073 0.950 . S
C1044 H1026 0.951 . S
C1044 C1045 1.366 . S
C1044 C1046 1.388 . S
C1045 C1044 1.366 . S
C1045 C1049 1.385 . S
C1046 H1027 0.951 . S
C1046 C1044 1.388 . S
C1046 C1047 1.366 . S
C1047 C1046 1.366 . S
C1047 C1048 1.414 . S
C1047 C1050 1.499 . S
C1048 H1028 0.950 . S
C1048 C1047 1.414 . S
C1048 C1049 1.374 . S
C1049 H1029 0.950 . S
C1049 C1045 1.385 . S
C1049 C1048 1.374 . S
C1050 C1047 1.499 . S
C1050 C1051 1.373 . S
C1050 C1052 1.389 . S
C1051 H1030 0.950 . S
C1051 C1050 1.373 . S
C1051 C1067 1.377 . S
C1052 C1050 1.389 . S
C1052 C1053 1.524 . S
C1052 C1066 1.377 . S
C1053 C1052 1.524 . S
C1053 C1054 1.397 . S
C1053 C1058 1.363 . S
C1054 H1031 0.950 . S
C1054 C1053 1.397 . S
C1054 C1055 1.334 . S
C1055 H1032 0.950 . S
C1055 C1054 1.334 . S
C1055 C1056 1.287 . S
C1056 C1055 1.287 . S
C1056 C1057 1.524 . S
C1056 H1075 0.913 . S
C1057 H1033 0.950 . S
C1057 C1056 1.524 . S
C1057 C1058 1.415 . S
C1058 H1034 0.950 . S
C1058 C1053 1.363 . S
C1058 C1057 1.415 . S
C1059 H1035 0.951 . S
C1059 C1060 1.366 . S
C1059 C1061 1.388 . S
C1060 C1059 1.366 . S
C1060 C1064 1.385 . S
C1061 H1036 0.951 . S
C1061 C1059 1.388 . S
C1061 C1062 1.366 . S
C1062 C1061 1.366 . S
C1062 C1063 1.414 . S
C1062 C1065 1.499 . S
C1063 H1037 0.950 . S
C1063 C1062 1.414 . S
C1063 C1064 1.374 . S
C1064 H1038 0.950 . S
C1064 C1060 1.385 . S
C1064 C1063 1.374 . S
C1065 C1062 1.499 . S
C1065 C1066 1.373 . S
C1065 C1067 1.389 . S
C1066 H1039 0.950 . S
C1066 C1052 1.377 . S
C1066 C1065 1.373 . S
C1067 C1051 1.377 . S
C1067 C1065 1.389 . S
C1067 C1068 1.524 1_455 S
C1068 C1067 1.524 1_655 S
C1068 C1069 1.397 . S
C1068 C1073 1.363 . S
C1069 H1040 0.950 . S
C1069 C1068 1.397 . S
C1069 C1070 1.334 . S
C1070 H1041 0.950 . S
C1070 C1069 1.334 . S
C1070 C1071 1.287 . S
C1071 C1070 1.287 . S
C1071 C1072 1.524 . S
C1071 H1074 0.999 . S
C1072 H1042 0.950 . S
C1072 C1071 1.524 . S
C1072 C1073 1.415 . S
C1073 H1043 0.950 . S
C1073 C1068 1.363 . S
C1073 C1072 1.415 . S
H1074 C1071 0.999 . S
H1075 C1056 0.913 . S
H1076 C1094 0.951 . S
H1077 C1096 0.951 . S
H1078 C1098 0.950 . S
H1079 C1099 0.950 . S
H1080 C1101 0.950 . S
H1081 C1104 0.950 . S
H1082 C1105 0.950 . S
H1083 C1107 0.950 . S
H1084 C1108 0.950 . S
H1085 C1109 0.951 . S
H1086 C1111 0.951 . S
H1087 C1113 0.950 . S
H1088 C1114 0.950 . S
H1089 C1116 0.950 . S
H1090 C1119 0.950 . S
H1091 C1120 0.950 . S
H1092 C1122 0.950 . S
H1093 C1123 0.950 . S
C1094 H1076 0.951 . S
C1094 C1095 1.366 . S
C1094 C1096 1.388 . S
C1095 C1094 1.366 . S
C1095 C1099 1.385 . S
C1096 H1077 0.951 . S
C1096 C1094 1.388 . S
C1096 C1097 1.366 . S
C1097 C1096 1.366 . S
C1097 C1098 1.414 . S
C1097 C1100 1.499 . S
C1098 H1078 0.950 . S
C1098 C1097 1.414 . S
C1098 C1099 1.374 . S
C1099 H1079 0.950 . S
C1099 C1095 1.385 . S
C1099 C1098 1.374 . S
C1100 C1097 1.499 . S
C1100 C1101 1.373 . S
C1100 C1102 1.389 . S
C1101 H1080 0.950 . S
C1101 C1100 1.373 . S
C1101 C1117 1.377 . S
C1102 C1100 1.389 . S
C1102 C1103 1.524 . S
C1102 C1116 1.377 . S
C1103 C1102 1.524 . S
C1103 C1104 1.397 . S
C1103 C1108 1.363 . S
C1104 H1081 0.950 . S
C1104 C1103 1.397 . S
C1104 C1105 1.334 . S
C1105 H1082 0.950 . S
C1105 C1104 1.334 . S
C1105 C1106 1.287 . S
C1106 C1105 1.287 . S
C1106 C1107 1.524 . S
C1106 H1125 0.913 . S
C1107 H1083 0.950 . S
C1107 C1106 1.524 . S
C1107 C1108 1.415 . S
C1108 H1084 0.950 . S
C1108 C1103 1.363 . S
C1108 C1107 1.415 . S
C1109 H1085 0.951 . S
C1109 C1110 1.366 . S
C1109 C1111 1.388 . S
C1110 C1109 1.366 . S
C1110 C1114 1.385 . S
C1111 H1086 0.951 . S
C1111 C1109 1.388 . S
C1111 C1112 1.366 . S
C1112 C1111 1.366 . S
C1112 C1113 1.414 . S
C1112 C1115 1.499 . S
C1113 H1087 0.950 . S
C1113 C1112 1.414 . S
C1113 C1114 1.374 . S
C1114 H1088 0.950 . S
C1114 C1110 1.385 . S
C1114 C1113 1.374 . S
C1115 C1112 1.499 . S
C1115 C1116 1.373 . S
C1115 C1117 1.389 . S
C1116 H1089 0.950 . S
C1116 C1102 1.377 . S
C1116 C1115 1.373 . S
C1117 C1101 1.377 . S
C1117 C1115 1.389 . S
C1117 C1118 1.524 . S
C1118 C1117 1.524 . S
C1118 C1119 1.397 . S
C1118 C1123 1.363 . S
C1119 H1090 0.950 . S
C1119 C1118 1.397 . S
C1119 C1120 1.334 . S
C1120 H1091 0.950 . S
C1120 C1119 1.334 . S
C1120 C1121 1.287 . S
C1121 C1120 1.287 . S
C1121 C1122 1.524 . S
C1121 H1124 0.999 . S
C1122 H1092 0.950 . S
C1122 C1121 1.524 . S
C1122 C1123 1.415 . S
C1123 H1093 0.950 . S
C1123 C1118 1.363 . S
C1123 C1122 1.415 . S
H1124 C1121 0.999 . S
H1125 C1106 0.913 . S
H1126 C1144 0.951 . S
H1127 C1146 0.951 . S
H1128 C1148 0.950 . S
H1129 C1149 0.950 . S
H1130 C1151 0.950 . S
H1131 C1154 0.950 . S
H1132 C1155 0.950 . S
H1133 C1157 0.950 . S
H1134 C1158 0.950 . S
H1135 C1159 0.951 . S
H1136 C1161 0.951 . S
H1137 C1163 0.950 . S
H1138 C1164 0.950 . S
H1139 C1166 0.910 1_455 S
H1140 C1169 0.950 . S
H1141 C1170 0.950 . S
H1142 C1172 0.950 . S
H1143 C1173 0.950 . S
C1144 H1126 0.951 . S
C1144 C1145 1.366 . S
C1144 C1146 1.388 . S
C1145 C1144 1.366 . S
C1145 C1149 1.385 . S
C1146 H1127 0.951 . S
C1146 C1144 1.388 . S
C1146 C1147 1.366 . S
C1147 C1146 1.366 . S
C1147 C1148 1.414 . S
C1147 C1150 1.499 . S
C1148 H1128 0.950 . S
C1148 C1147 1.414 . S
C1148 C1149 1.374 . S
C1149 H1129 0.950 . S
C1149 C1145 1.385 . S
C1149 C1148 1.374 . S
C1150 C1147 1.499 . S
C1150 C1151 1.373 . S
C1150 C1152 1.389 . S
C1151 H1130 0.950 . S
C1151 C1150 1.373 . S
C1151 C1167 1.377 . S
C1152 C1150 1.389 . S
C1152 C1153 1.524 1_655 S
C1152 C1166 1.370 . S
C1153 C1152 1.524 1_455 S
C1153 C1154 1.397 . S
C1153 C1158 1.363 . S
C1154 H1131 0.950 . S
C1154 C1153 1.397 . S
C1154 C1155 1.334 . S
C1155 H1132 0.950 . S
C1155 C1154 1.334 . S
C1155 C1156 1.287 . S
C1156 C1155 1.287 . S
C1156 C1157 1.524 . S
C1156 H1175 0.913 . S
C1157 H1133 0.950 . S
C1157 C1156 1.524 . S
C1157 C1158 1.415 . S
C1158 H1134 0.950 . S
C1158 C1153 1.363 . S
C1158 C1157 1.415 . S
C1159 H1135 0.951 . S
C1159 C1160 1.366 . S
C1159 C1161 1.388 . S
C1160 C1159 1.366 . S
C1160 C1164 1.385 . S
C1161 H1136 0.951 . S
C1161 C1159 1.388 . S
C1161 C1162 1.366 . S
C1162 C1161 1.366 . S
C1162 C1163 1.414 . S
C1162 C1165 1.499 . S
C1163 H1137 0.950 . S
C1163 C1162 1.414 . S
C1163 C1164 1.374 . S
C1164 H1138 0.950 . S
C1164 C1160 1.385 . S
C1164 C1163 1.374 . S
C1165 C1162 1.499 . S
C1165 C1166 1.422 . S
C1165 C1167 1.389 . S
C1166 H1139 0.910 1_655 S
C1166 C1152 1.370 . S
C1166 C1165 1.422 . S
C1167 C1151 1.377 . S
C1167 C1165 1.389 . S
C1167 C1168 1.524 . S
C1168 C1167 1.524 . S
C1168 C1169 1.397 . S
C1168 C1173 1.363 . S
C1169 H1140 0.950 . S
C1169 C1168 1.397 . S
C1169 C1170 1.334 . S
C1170 H1141 0.950 . S
C1170 C1169 1.334 . S
C1170 C1171 1.287 . S
C1171 C1170 1.287 . S
C1171 C1172 1.524 . S
C1171 H1174 0.999 . S
C1172 H1142 0.950 . S
C1172 C1171 1.524 . S
C1172 C1173 1.415 . S
C1173 H1143 0.950 . S
C1173 C1168 1.363 . S
C1173 C1172 1.415 . S
H1174 C1171 0.999 . S
H1175 C1156 0.913 . S
H1176 C1194 0.951 . S
H1177 C1196 0.951 . S
H1178 C1198 0.950 . S
H1179 C1199 0.950 . S
H1180 C1201 0.950 . S
H1181 C1204 0.950 . S
H1182 C1205 0.950 . S
H1183 C1207 0.950 . S
H1184 C1208 0.950 . S
H1185 C1209 0.951 . S
H1186 C1211 0.951 . S
H1187 C1213 0.950 . S
H1188 C1214 0.986 . S
H1189 C1216 0.950 . S
H1190 C1219 0.950 . S
H1191 C1220 0.950 . S
H1192 C1222 0.950 . S
H1193 C1223 0.950 . S
C1194 H1176 0.951 . S
C1194 C1195 1.366 . S
C1194 C1196 1.388 . S
C1195 C1194 1.366 . S
C1195 C1199 1.385 . S
C1196 H1177 0.951 . S
C1196 C1194 1.388 . S
C1196 C1197 1.366 . S
C1197 C1196 1.366 . S
C1197 C1198 1.414 . S
C1197 C1200 1.499 . S
C1198 H1178 0.950 . S
C1198 C1197 1.414 . S
C1198 C1199 1.374 . S
C1199 H1179 0.950 . S
C1199 C1195 1.385 . S
C1199 C1198 1.374 . S
C1200 C1197 1.499 . S
C1200 C1201 1.373 . S
C1200 C1202 1.389 . S
C1201 H1180 0.950 . S
C1201 C1200 1.373 . S
C1201 C1217 1.377 . S
C1202 C1200 1.389 . S
C1202 C1203 1.524 . S
C1202 C1216 1.377 . S
C1203 C1202 1.524 . S
C1203 C1204 1.397 . S
C1203 C1208 1.363 . S
C1204 H1181 0.950 . S
C1204 C1203 1.397 . S
C1204 C1205 1.334 . S
C1205 H1182 0.950 . S
C1205 C1204 1.334 . S
C1205 C1206 1.287 . S
C1206 C1205 1.287 . S
C1206 C1207 1.524 . S
C1206 H1225 0.913 . S
C1207 H1183 0.950 . S
C1207 C1206 1.524 . S
C1207 C1208 1.415 . S
C1208 H1184 0.950 . S
C1208 C1203 1.363 . S
C1208 C1207 1.415 . S
C1209 H1185 0.951 . S
C1209 C1210 1.366 . S
C1209 C1211 1.388 . S
C1210 C1209 1.366 . S
C1210 C1214 1.385 . S
C1211 H1186 0.951 . S
C1211 C1209 1.388 . S
C1211 C1212 1.366 . S
C1212 C1211 1.366 . S
C1212 C1213 1.414 . S
C1212 C1215 1.499 . S
C1213 H1187 0.950 . S
C1213 C1212 1.414 . S
C1213 C1214 1.374 . S
C1214 H1188 0.986 . S
C1214 C1210 1.385 . S
C1214 C1213 1.374 . S
C1215 C1212 1.499 . S
C1215 C1216 1.373 . S
C1215 C1217 1.389 . S
C1216 H1189 0.950 . S
C1216 C1202 1.377 . S
C1216 C1215 1.373 . S
C1217 C1201 1.377 . S
C1217 C1215 1.389 . S
C1217 C1218 1.524 . S
C1218 C1217 1.524 . S
C1218 C1219 1.397 . S
C1218 C1223 1.363 . S
C1219 H1190 0.950 . S
C1219 C1218 1.397 . S
C1219 C1220 1.334 . S
C1220 H1191 0.950 . S
C1220 C1219 1.334 . S
C1220 C1221 1.287 . S
C1221 C1220 1.287 . S
C1221 C1222 1.524 . S
C1221 H1224 0.999 . S
C1222 H1192 0.950 . S
C1222 C1221 1.524 . S
C1222 C1223 1.415 . S
C1223 H1193 0.950 . S
C1223 C1218 1.363 . S
C1223 C1222 1.415 . S
H1224 C1221 0.999 . S
H1225 C1206 0.913 . S
H1226 C1244 0.951 . S
H1227 C1246 0.951 . S
H1228 C1248 0.950 . S
H1229 C1249 0.950 . S
H1230 C1251 0.950 . S
H1231 C1254 0.950 . S
H1232 C1255 0.950 . S
H1233 C1257 0.950 . S
H1234 C1258 0.950 . S
H1235 C1259 0.951 . S
H1236 C1261 0.951 . S
H1237 C1263 0.950 . S
H1238 C1264 0.950 . S
H1239 C1266 0.950 . S
H1240 C1269 0.950 . S
H1241 C1270 0.950 . S
H1242 C1272 0.950 . S
H1243 C1273 0.950 . S
C1244 H1226 0.951 . S
C1244 C1245 1.366 . S
C1244 C1246 1.388 . S
C1245 C1244 1.366 . S
C1245 C1249 1.385 . S
C1246 H1227 0.951 . S
C1246 C1244 1.388 . S
C1246 C1247 1.366 . S
C1247 C1246 1.366 . S
C1247 C1248 1.414 . S
C1247 C1250 1.499 . S
C1248 H1228 0.950 . S
C1248 C1247 1.414 . S
C1248 C1249 1.374 . S
C1249 H1229 0.950 . S
C1249 C1245 1.385 . S
C1249 C1248 1.374 . S
C1250 C1247 1.499 . S
C1250 C1251 1.373 . S
C1250 C1252 1.389 . S
C1251 H1230 0.950 . S
C1251 C1250 1.373 . S
C1251 C1267 1.377 . S
C1252 C1250 1.389 . S
C1252 C1253 1.524 . S
C1252 C1266 1.377 . S
C1253 C1252 1.524 . S
C1253 C1254 1.397 . S
C1253 C1258 1.363 . S
C1254 H1231 0.950 . S
C1254 C1253 1.397 . S
C1254 C1255 1.334 . S
C1255 H1232 0.950 . S
C1255 C1254 1.334 . S
C1255 C1256 1.287 . S
C1256 C1255 1.287 . S
C1256 C1257 1.524 . S
C1256 H1275 0.913 . S
C1257 H1233 0.950 . S
C1257 C1256 1.524 . S
C1257 C1258 1.415 . S
C1258 H1234 0.950 . S
C1258 C1253 1.363 . S
C1258 C1257 1.415 . S
C1259 H1235 0.951 . S
C1259 C1260 1.366 . S
C1259 C1261 1.388 . S
C1260 C1259 1.366 . S
C1260 C1264 1.385 . S
C1261 H1236 0.951 . S
C1261 C1259 1.388 . S
C1261 C1262 1.366 . S
C1262 C1261 1.366 . S
C1262 C1263 1.414 . S
C1262 C1265 1.499 . S
C1263 H1237 0.950 . S
C1263 C1262 1.414 . S
C1263 C1264 1.374 . S
C1264 H1238 0.950 . S
C1264 C1260 1.385 . S
C1264 C1263 1.374 . S
C1265 C1262 1.499 . S
C1265 C1266 1.373 . S
C1265 C1267 1.389 . S
C1266 H1239 0.950 . S
C1266 C1252 1.377 . S
C1266 C1265 1.373 . S
C1267 C1251 1.377 . S
C1267 C1265 1.389 . S
C1267 C1268 1.524 . S
C1268 C1267 1.524 . S
C1268 C1269 1.397 . S
C1268 C1273 1.363 . S
C1269 H1240 0.950 . S
C1269 C1268 1.397 . S
C1269 C1270 1.334 . S
C1270 H1241 0.950 . S
C1270 C1269 1.334 . S
C1270 C1271 1.287 . S
C1271 C1270 1.287 . S
C1271 C1272 1.524 . S
C1271 H1274 0.999 . S
C1272 H1242 0.950 . S
C1272 C1271 1.524 . S
C1272 C1273 1.415 . S
C1273 H1243 0.950 . S
C1273 C1268 1.363 . S
C1273 C1272 1.415 . S
H1274 C1271 0.999 . S
H1275 C1256 0.913 . S
H1276 C1294 0.951 . S
H1277 C1296 0.951 . S
H1278 C1298 0.950 . S
H1279 C1299 0.950 . S
H1280 C1301 0.950 . S
H1281 C1304 0.950 . S
H1282 C1305 0.950 . S
H1283 C1307 0.950 . S
H1284 C1308 0.950 . S
H1285 C1309 0.951 . S
H1286 C1311 0.951 . S
H1287 C1313 0.950 . S
H1288 C1314 0.950 . S
H1289 C1316 0.950 . S
H1290 C1319 0.950 . S
H1291 C1320 0.950 . S
H1292 C1322 0.950 . S
H1293 C1323 0.950 . S
C1294 H1276 0.951 . S
C1294 C1295 1.366 . S
C1294 C1296 1.388 . S
C1295 C1294 1.366 . S
C1295 C1299 1.385 1_554 S
C1296 H1277 0.951 . S
C1296 C1294 1.388 . S
C1296 C1297 1.366 1_545 S
C1297 C1296 1.366 1_565 S
C1297 C1298 1.414 1_554 S
C1297 C1300 1.499 . S
C1298 H1278 0.950 . S
C1298 C1297 1.414 1_556 S
C1298 C1299 1.374 1_565 S
C1299 H1279 0.950 . S
C1299 C1295 1.385 1_556 S
C1299 C1298 1.374 1_545 S
C1300 C1297 1.499 . S
C1300 C1301 1.373 1_554 S
C1300 C1302 1.389 . S
C1301 H1280 0.950 . S
C1301 C1300 1.373 1_556 S
C1301 C1317 1.377 . S
C1302 C1300 1.389 . S
C1302 C1303 1.524 . S
C1302 C1316 1.377 . S
C1303 C1302 1.524 . S
C1303 C1304 1.397 . S
C1303 C1308 1.363 . S
C1304 H1281 0.950 . S
C1304 C1303 1.397 . S
C1304 C1305 1.334 . S
C1305 H1282 0.950 . S
C1305 C1304 1.334 . S
C1305 C1306 1.287 . S
C1306 C1305 1.287 . S
C1306 C1307 1.524 . S
C1306 H1325 0.913 . S
C1307 H1283 0.950 . S
C1307 C1306 1.524 . S
C1307 C1308 1.415 . S
C1308 H1284 0.950 . S
C1308 C1303 1.363 . S
C1308 C1307 1.415 . S
C1309 H1285 0.951 . S
C1309 C1310 1.365 . S
C1309 C1311 1.388 . S
C1310 C1309 1.365 . S
C1310 C1314 1.385 1_556 S
C1311 H1286 0.951 . S
C1311 C1309 1.388 . S
C1311 C1312 1.370 . S
C1312 C1311 1.370 . S
C1312 C1313 1.409 1_556 S
C1312 C1315 1.499 1_556 S
C1313 H1287 0.950 . S
C1313 C1312 1.409 1_554 S
C1313 C1314 1.374 . S
C1314 H1288 0.950 . S
C1314 C1310 1.385 1_554 S
C1314 C1313 1.374 . S
C1315 C1312 1.499 1_554 S
C1315 C1316 1.395 . S
C1315 C1317 1.368 1_554 S
C1316 H1289 0.950 . S
C1316 C1302 1.377 . S
C1316 C1315 1.395 . S
C1317 C1301 1.377 . S
C1317 C1315 1.368 1_556 S
C1317 C1318 1.524 . S
C1318 C1317 1.524 . S
C1318 C1319 1.397 . S
C1318 C1323 1.363 . S
C1319 H1290 0.950 . S
C1319 C1318 1.397 . S
C1319 C1320 1.334 . S
C1320 H1291 0.950 . S
C1320 C1319 1.334 . S
C1320 C1321 1.287 . S
C1321 C1320 1.287 . S
C1321 C1322 1.524 . S
C1321 H1324 0.999 . S
C1322 H1292 0.950 . S
C1322 C1321 1.524 . S
C1322 C1323 1.415 . S
C1323 H1293 0.950 . S
C1323 C1318 1.363 . S
C1323 C1322 1.415 . S
H1324 C1321 0.999 . S
H1325 C1306 0.913 . S
H1326 C1344 0.951 . S
H1327 C1346 0.951 . S
H1328 C1348 0.950 . S
H1329 C1349 0.950 . S
H1330 C1351 0.950 . S
H1331 C1354 0.950 . S
H1332 C1355 0.950 . S
H1333 C1357 0.950 . S
H1334 C1358 0.950 . S
H1335 C1359 0.951 . S
H1336 C1361 0.951 . S
H1337 C1363 0.950 . S
H1338 C1364 0.950 . S
H1339 C1366 0.950 . S
H1340 C1369 0.950 . S
H1341 C1370 0.950 . S
H1342 C1372 0.950 . S
H1343 C1373 0.950 . S
C1344 H1326 0.951 . S
C1344 C1345 1.366 . S
C1344 C1346 1.388 . S
C1345 C1344 1.366 . S
C1345 C1349 1.385 . S
C1346 H1327 0.951 . S
C1346 C1344 1.388 . S
C1346 C1347 1.366 . S
C1347 C1346 1.366 . S
C1347 C1348 1.414 . S
C1347 C1350 1.499 . S
C1348 H1328 0.950 . S
C1348 C1347 1.414 . S
C1348 C1349 1.374 . S
C1349 H1329 0.950 . S
C1349 C1345 1.385 . S
C1349 C1348 1.374 . S
C1350 C1347 1.499 . S
C1350 C1351 1.373 . S
C1350 C1352 1.389 . S
C1351 H1330 0.950 . S
C1351 C1350 1.373 . S
C1351 C1367 1.377 . S
C1352 C1350 1.389 . S
C1352 C1353 1.524 . S
C1352 C1366 1.377 . S
C1353 C1352 1.524 . S
C1353 C1354 1.397 . S
C1353 C1358 1.363 . S
C1354 H1331 0.950 . S
C1354 C1353 1.397 . S
C1354 C1355 1.334 . S
C1355 H1332 0.950 . S
C1355 C1354 1.334 . S
C1355 C1356 1.287 . S
C1356 C1355 1.287 . S
C1356 C1357 1.524 . S
C1356 H1375 0.913 . S
C1357 H1333 0.950 . S
C1357 C1356 1.524 . S
C1357 C1358 1.415 . S
C1358 H1334 0.950 . S
C1358 C1353 1.363 . S
C1358 C1357 1.415 . S
C1359 H1335 0.951 . S
C1359 C1360 1.366 . S
C1359 C1361 1.388 . S
C1360 C1359 1.366 . S
C1360 C1364 1.385 . S
C1361 H1336 0.951 . S
C1361 C1359 1.388 . S
C1361 C1362 1.366 . S
C1362 C1361 1.366 . S
C1362 C1363 1.414 . S
C1362 C1365 1.499 . S
C1363 H1337 0.950 . S
C1363 C1362 1.414 . S
C1363 C1364 1.374 . S
C1364 H1338 0.950 . S
C1364 C1360 1.385 . S
C1364 C1363 1.374 . S
C1365 C1362 1.499 . S
C1365 C1366 1.373 . S
C1365 C1367 1.389 . S
C1366 H1339 0.950 . S
C1366 C1352 1.377 . S
C1366 C1365 1.373 . S
C1367 C1351 1.377 . S
C1367 C1365 1.389 . S
C1367 C1368 1.524 . S
C1368 C1367 1.524 . S
C1368 C1369 1.397 . S
C1368 C1373 1.363 . S
C1369 H1340 0.950 . S
C1369 C1368 1.397 . S
C1369 C1370 1.334 . S
C1370 H1341 0.950 . S
C1370 C1369 1.334 . S
C1370 C1371 1.287 . S
C1371 C1370 1.287 . S
C1371 C1372 1.524 . S
C1371 H1374 0.999 . S
C1372 H1342 0.950 . S
C1372 C1371 1.524 . S
C1372 C1373 1.415 . S
C1373 H1343 0.950 . S
C1373 C1368 1.363 . S
C1373 C1372 1.415 . S
H1374 C1371 0.999 . S
H1375 C1356 0.913 . S
H1376 C1394 0.951 . S
H1377 C1396 0.951 . S
H1378 C1398 0.950 . S
H1379 C1399 0.950 . S
H1380 C1401 0.950 . S
H1381 C1404 0.950 . S
H1382 C1405 0.950 . S
H1383 C1407 0.950 . S
H1384 C1408 0.950 . S
H1385 C1409 0.951 . S
H1386 C1411 0.951 . S
H1387 C1413 0.950 . S
H1388 C1414 0.950 . S
H1389 C1416 0.950 . S
H1390 C1419 0.950 . S
H1391 C1420 0.950 . S
H1392 C1422 0.950 . S
H1393 C1423 0.950 . S
C1394 H1376 0.951 . S
C1394 C1395 1.366 1_565 S
C1394 C1396 1.388 1_565 S
C1395 C1394 1.366 1_545 S
C1395 C1399 1.385 . S
C1396 H1377 0.951 . S
C1396 C1394 1.388 1_545 S
C1396 C1397 1.366 . S
C1397 C1396 1.366 . S
C1397 C1398 1.414 . S
C1397 C1400 1.499 . S
C1398 H1378 0.950 . S
C1398 C1397 1.414 . S
C1398 C1399 1.374 . S
C1399 H1379 0.950 . S
C1399 C1395 1.385 . S
C1399 C1398 1.374 . S
C1400 C1397 1.499 . S
C1400 C1401 1.373 . S
C1400 C1402 1.389 . S
C1401 H1380 0.950 . S
C1401 C1400 1.373 . S
C1401 C1417 1.377 . S
C1402 C1400 1.389 . S
C1402 C1403 1.524 . S
C1402 C1416 1.377 . S
C1403 C1402 1.524 . S
C1403 C1404 1.397 . S
C1403 C1408 1.363 . S
C1404 H1381 0.950 . S
C1404 C1403 1.397 . S
C1404 C1405 1.334 . S
C1405 H1382 0.950 . S
C1405 C1404 1.334 . S
C1405 C1406 1.287 1_545 S
C1406 C1405 1.287 1_565 S
C1406 C1407 1.524 . S
C1406 H1425 0.913 . S
C1407 H1383 0.950 . S
C1407 C1406 1.524 . S
C1407 C1408 1.415 1_565 S
C1408 H1384 0.950 . S
C1408 C1403 1.363 . S
C1408 C1407 1.415 1_545 S
C1409 H1385 0.951 . S
C1409 C1410 1.366 . S
C1409 C1411 1.388 . S
C1410 C1409 1.366 . S
C1410 C1414 1.385 . S
C1411 H1386 0.951 . S
C1411 C1409 1.388 . S
C1411 C1412 1.366 . S
C1412 C1411 1.366 . S
C1412 C1413 1.414 . S
C1412 C1415 1.499 . S
C1413 H1387 0.950 . S
C1413 C1412 1.414 . S
C1413 C1414 1.374 . S
C1414 H1388 0.950 . S
C1414 C1410 1.385 . S
C1414 C1413 1.374 . S
C1415 C1412 1.499 . S
C1415 C1416 1.373 . S
C1415 C1417 1.389 . S
C1416 H1389 0.950 . S
C1416 C1402 1.377 . S
C1416 C1415 1.373 . S
C1417 C1401 1.377 . S
C1417 C1415 1.389 . S
C1417 C1418 1.524 . S
C1418 C1417 1.524 . S
C1418 C1419 1.397 . S
C1418 C1423 1.363 . S
C1419 H1390 0.950 . S
C1419 C1418 1.397 . S
C1419 C1420 1.334 . S
C1420 H1391 0.950 . S
C1420 C1419 1.334 . S
C1420 C1421 1.287 . S
C1421 C1420 1.287 . S
C1421 C1422 1.524 . S
C1421 H1424 0.999 . S
C1422 H1392 0.950 . S
C1422 C1421 1.524 . S
C1422 C1423 1.415 . S
C1423 H1393 0.950 . S
C1423 C1418 1.363 . S
C1423 C1422 1.415 . S
H1424 C1421 0.999 . S
H1425 C1406 0.913 . S
H1426 C1444 0.951 . S
H1427 C1446 0.951 . S
H1428 C1448 0.950 . S
H1429 C1449 0.950 . S
H1430 C1451 0.950 . S
H1431 C1454 0.950 . S
H1432 C1455 0.950 . S
H1433 C1457 0.950 . S
H1434 C1458 0.950 . S
H1435 C1459 0.951 . S
H1436 C1461 0.951 . S
H1437 C1463 0.950 . S
H1438 C1464 0.950 . S
H1439 C1466 0.950 . S
H1440 C1469 0.950 . S
H1441 C1470 0.950 . S
H1442 C1472 0.950 . S
H1443 C1473 0.950 . S
C1444 H1426 0.951 . S
C1444 C1445 1.366 . S
C1444 C1446 1.388 . S
C1445 C1444 1.366 . S
C1445 C1449 1.385 . S
C1446 H1427 0.951 . S
C1446 C1444 1.388 . S
C1446 C1447 1.366 . S
C1447 C1446 1.366 . S
C1447 C1448 1.414 . S
C1447 C1450 1.499 . S
C1448 H1428 0.950 . S
C1448 C1447 1.414 . S
C1448 C1449 1.374 . S
C1449 H1429 0.950 . S
C1449 C1445 1.385 . S
C1449 C1448 1.374 . S
C1450 C1447 1.499 . S
C1450 C1451 1.373 . S
C1450 C1452 1.389 . S
C1451 H1430 0.950 . S
C1451 C1450 1.373 . S
C1451 C1467 1.377 . S
C1452 C1450 1.389 . S
C1452 C1453 1.524 . S
C1452 C1466 1.377 . S
C1453 C1452 1.524 . S
C1453 C1454 1.397 . S
C1453 C1458 1.363 . S
C1454 H1431 0.950 . S
C1454 C1453 1.397 . S
C1454 C1455 1.334 . S
C1455 H1432 0.950 . S
C1455 C1454 1.334 . S
C1455 C1456 1.287 . S
C1456 C1455 1.287 . S
C1456 C1457 1.524 . S
C1456 H1475 0.913 . S
C1457 H1433 0.950 . S
C1457 C1456 1.524 . S
C1457 C1458 1.415 . S
C1458 H1434 0.950 . S
C1458 C1453 1.363 . S
C1458 C1457 1.415 . S
C1459 H1435 0.951 . S
C1459 C1460 1.366 . S
C1459 C1461 1.388 . S
C1460 C1459 1.366 . S
C1460 C1464 1.385 . S
C1461 H1436 0.951 . S
C1461 C1459 1.388 . S
C1461 C1462 1.366 . S
C1462 C1461 1.366 . S
C1462 C1463 1.414 . S
C1462 C1465 1.499 . S
C1463 H1437 0.950 . S
C1463 C1462 1.414 . S
C1463 C1464 1.374 . S
C1464 H1438 0.950 . S
C1464 C1460 1.385 . S
C1464 C1463 1.374 . S
C1465 C1462 1.499 . S
C1465 C1466 1.373 . S
C1465 C1467 1.389 . S
C1466 H1439 0.950 . S
C1466 C1452 1.377 . S
C1466 C1465 1.373 . S
C1467 C1451 1.377 . S
C1467 C1465 1.389 . S
C1467 C1468 1.524 . S
C1468 C1467 1.524 . S
C1468 C1469 1.397 . S
C1468 C1473 1.363 . S
C1469 H1440 0.950 . S
C1469 C1468 1.397 . S
C1469 C1470 1.334 . S
C1470 H1441 0.950 . S
C1470 C1469 1.334 . S
C1470 C1471 1.287 . S
C1471 C1470 1.287 . S
C1471 C1472 1.524 . S
C1471 H1474 0.999 . S
C1472 H1442 0.950 . S
C1472 C1471 1.524 . S
C1472 C1473 1.415 . S
C1473 H1443 0.950 . S
C1473 C1468 1.363 . S
C1473 C1472 1.415 . S
H1474 C1471 0.999 . S
H1475 C1456 0.913 . S
H1476 C1494 0.951 . S
H1477 C1496 0.951 . S
H1478 C1498 0.950 . S
H1479 C1499 0.950 . S
H1480 C1501 0.950 . S
H1481 C1504 0.950 . S
H1482 C1505 0.950 . S
H1483 C1507 0.950 . S
H1484 C1508 0.950 . S
H1485 C1509 0.951 . S
H1486 C1511 0.951 . S
H1487 C1513 0.950 . S
H1488 C1514 0.950 . S
H1489 C1516 0.950 . S
H1490 C1519 0.950 . S
H1491 C1520 0.950 . S
H1492 C1522 0.950 . S
H1493 C1523 0.950 . S
C1494 H1476 0.951 . S
C1494 C1495 1.366 . S
C1494 C1496 1.388 1_565 S
C1495 C1494 1.366 . S
C1495 C1499 1.385 . S
C1496 H1477 0.951 . S
C1496 C1494 1.388 1_545 S
C1496 C1497 1.366 . S
C1497 C1496 1.366 . S
C1497 C1498 1.414 . S
C1497 C1500 1.499 . S
C1498 H1478 0.950 . S
C1498 C1497 1.414 . S
C1498 C1499 1.374 1_545 S
C1499 H1479 0.950 . S
C1499 C1495 1.385 . S
C1499 C1498 1.374 1_565 S
C1500 C1497 1.499 . S
C1500 C1501 1.373 . S
C1500 C1502 1.389 . S
C1501 H1480 0.950 . S
C1501 C1500 1.373 . S
C1501 C1517 1.377 . S
C1502 C1500 1.389 . S
C1502 C1503 1.524 . S
C1502 C1516 1.377 . S
C1503 C1502 1.524 . S
C1503 C1504 1.397 1_545 S
C1503 C1508 1.363 . S
C1504 H1481 0.950 . S
C1504 C1503 1.397 1_565 S
C1504 C1505 1.334 . S
C1505 H1482 0.950 . S
C1505 C1504 1.334 . S
C1505 C1506 1.287 . S
C1506 C1505 1.287 . S
C1506 C1507 1.524 . S
C1506 H1525 0.913 . S
C1507 H1483 0.950 . S
C1507 C1506 1.524 . S
C1507 C1508 1.415 1_565 S
C1508 H1484 0.950 . S
C1508 C1503 1.363 . S
C1508 C1507 1.415 1_545 S
C1509 H1485 0.951 . S
C1509 C1510 1.366 . S
C1509 C1511 1.388 . S
C1510 C1509 1.366 . S
C1510 C1514 1.385 . S
C1511 H1486 0.951 . S
C1511 C1509 1.388 . S
C1511 C1512 1.366 . S
C1512 C1511 1.366 . S
C1512 C1513 1.414 . S
C1512 C1515 1.499 . S
C1513 H1487 0.950 . S
C1513 C1512 1.414 . S
C1513 C1514 1.374 . S
C1514 H1488 0.950 . S
C1514 C1510 1.385 . S
C1514 C1513 1.374 . S
C1515 C1512 1.499 . S
C1515 C1516 1.373 . S
C1515 C1517 1.389 . S
C1516 H1489 0.950 . S
C1516 C1502 1.377 . S
C1516 C1515 1.373 . S
C1517 C1501 1.377 . S
C1517 C1515 1.389 . S
C1517 C1518 1.524 . S
C1518 C1517 1.524 . S
C1518 C1519 1.397 . S
C1518 C1523 1.363 . S
C1519 H1490 0.950 . S
C1519 C1518 1.397 . S
C1519 C1520 1.334 . S
C1520 H1491 0.950 . S
C1520 C1519 1.334 . S
C1520 C1521 1.287 . S
C1521 C1520 1.287 . S
C1521 C1522 1.524 . S
C1521 H1524 0.999 . S
C1522 H1492 0.950 . S
C1522 C1521 1.524 . S
C1522 C1523 1.415 . S
C1523 H1493 0.950 . S
C1523 C1518 1.363 . S
C1523 C1522 1.415 . S
H1524 C1521 0.999 . S
H1525 C1506 0.913 . S
H1526 C1544 0.951 . S
H1527 C1546 0.951 . S
H1528 C1548 0.950 . S
H1529 C1549 0.950 . S
H1530 C1551 0.950 . S
H1531 C1554 0.950 . S
H1532 C1555 0.950 . S
H1533 C1557 0.950 . S
H1534 C1558 0.950 . S
H1535 C1559 0.951 . S
H1536 C1561 0.951 . S
H1537 C1563 0.950 . S
H1538 C1564 0.950 . S
H1539 C1566 0.950 . S
H1540 C1569 0.950 . S
H1541 C1570 0.950 . S
H1542 C1572 0.950 . S
H1543 C1573 0.950 . S
C1544 H1526 0.951 . S
C1544 C1545 1.366 . S
C1544 C1546 1.388 . S
C1545 C1544 1.366 . S
C1545 C1549 1.385 . S
C1546 H1527 0.951 . S
C1546 C1544 1.388 . S
C1546 C1547 1.366 . S
C1547 C1546 1.366 . S
C1547 C1548 1.414 . S
C1547 C1550 1.499 . S
C1548 H1528 0.950 . S
C1548 C1547 1.414 . S
C1548 C1549 1.374 . S
C1549 H1529 0.950 . S
C1549 C1545 1.385 . S
C1549 C1548 1.374 . S
C1550 C1547 1.499 . S
C1550 C1551 1.373 . S
C1550 C1552 1.389 . S
C1551 H1530 0.950 . S
C1551 C1550 1.373 . S
C1551 C1567 1.377 . S
C1552 C1550 1.389 . S
C1552 C1553 1.524 . S
C1552 C1566 1.377 . S
C1553 C1552 1.524 . S
C1553 C1554 1.397 . S
C1553 C1558 1.363 . S
C1554 H1531 0.950 . S
C1554 C1553 1.397 . S
C1554 C1555 1.334 . S
C1555 H1532 0.950 . S
C1555 C1554 1.334 . S
C1555 C1556 1.287 . S
C1556 C1555 1.287 . S
C1556 C1557 1.524 . S
C1556 H1575 0.913 . S
C1557 H1533 0.950 . S
C1557 C1556 1.524 . S
C1557 C1558 1.415 . S
C1558 H1534 0.950 . S
C1558 C1553 1.363 . S
C1558 C1557 1.415 . S
C1559 H1535 0.951 . S
C1559 C1560 1.366 . S
C1559 C1561 1.388 . S
C1560 C1559 1.366 . S
C1560 C1564 1.385 . S
C1561 H1536 0.951 . S
C1561 C1559 1.388 . S
C1561 C1562 1.366 . S
C1562 C1561 1.366 . S
C1562 C1563 1.414 . S
C1562 C1565 1.499 . S
C1563 H1537 0.950 . S
C1563 C1562 1.414 . S
C1563 C1564 1.374 . S
C1564 H1538 0.950 . S
C1564 C1560 1.385 . S
C1564 C1563 1.374 . S
C1565 C1562 1.499 . S
C1565 C1566 1.373 . S
C1565 C1567 1.389 . S
C1566 H1539 0.950 . S
C1566 C1552 1.377 . S
C1566 C1565 1.373 . S
C1567 C1551 1.377 . S
C1567 C1565 1.389 . S
C1567 C1568 1.524 . S
C1568 C1567 1.524 . S
C1568 C1569 1.397 . S
C1568 C1573 1.363 . S
C1569 H1540 0.950 . S
C1569 C1568 1.397 . S
C1569 C1570 1.334 . S
C1570 H1541 0.950 . S
C1570 C1569 1.334 . S
C1570 C1571 1.287 . S
C1571 C1570 1.287 . S
C1571 C1572 1.524 . S
C1571 H1574 0.999 . S
C1572 H1542 0.950 . S
C1572 C1571 1.524 . S
C1572 C1573 1.415 . S
C1573 H1543 0.950 . S
C1573 C1568 1.363 . S
C1573 C1572 1.415 . S
H1574 C1571 0.999 . S
H1575 C1556 0.913 . S
H1576 C1594 0.951 . S
H1577 C1596 0.951 . S
H1578 C1598 0.950 . S
H1579 C1599 0.950 . S
H1580 C1601 0.950 . S
H1581 C1604 0.950 . S
H1582 C1605 0.950 . S
H1583 C1607 0.950 . S
H1584 C1608 0.950 . S
H1585 C1609 0.951 . S
H1586 C1611 0.951 . S
H1587 C1613 0.950 . S
H1588 C1614 0.950 . S
H1589 C1616 0.950 . S
H1590 C1619 0.950 . S
H1591 C1620 0.950 . S
H1592 C1622 0.950 . S
H1593 C1623 0.950 . S
C1594 H1576 0.951 . S
C1594 C1595 1.366 . S
C1594 C1596 1.388 . S
C1595 C1594 1.366 . S
C1595 C1599 1.385 . S
C1596 H1577 0.951 . S
C1596 C1594 1.388 . S
C1596 C1597 1.366 . S
C1597 C1596 1.366 . S
C1597 C1598 1.414 . S
C1597 C1600 1.499 . S
C1598 H1578 0.950 . S
C1598 C1597 1.414 . S
C1598 C1599 1.374 . S
C1599 H1579 0.950 . S
C1599 C1595 1.385 . S
C1599 C1598 1.374 . S
C1600 C1597 1.499 . S
C1600 C1601 1.373 . S
C1600 C1602 1.389 . S
C1601 H1580 0.950 . S
C1601 C1600 1.373 . S
C1601 C1617 1.377 . S
C1602 C1600 1.389 . S
C1602 C1603 1.524 . S
C1602 C1616 1.377 . S
C1603 C1602 1.524 . S
C1603 C1604 1.397 . S
C1603 C1608 1.363 . S
C1604 H1581 0.950 . S
C1604 C1603 1.397 . S
C1604 C1605 1.334 . S
C1605 H1582 0.950 . S
C1605 C1604 1.334 . S
C1605 C1606 1.287 . S
C1606 C1605 1.287 . S
C1606 C1607 1.524 . S
C1606 H1625 0.913 . S
C1607 H1583 0.950 . S
C1607 C1606 1.524 . S
C1607 C1608 1.415 . S
C1608 H1584 0.950 . S
C1608 C1603 1.363 . S
C1608 C1607 1.415 . S
C1609 H1585 0.951 . S
C1609 C1610 1.366 . S
C1609 C1611 1.388 . S
C1610 C1609 1.366 . S
C1610 C1614 1.385 . S
C1611 H1586 0.951 . S
C1611 C1609 1.388 . S
C1611 C1612 1.366 . S
C1612 C1611 1.366 . S
C1612 C1613 1.414 . S
C1612 C1615 1.499 . S
C1613 H1587 0.950 . S
C1613 C1612 1.414 . S
C1613 C1614 1.374 . S
C1614 H1588 0.950 . S
C1614 C1610 1.385 . S
C1614 C1613 1.374 . S
C1615 C1612 1.499 . S
C1615 C1616 1.373 . S
C1615 C1617 1.389 . S
C1616 H1589 0.950 . S
C1616 C1602 1.377 . S
C1616 C1615 1.373 . S
C1617 C1601 1.377 . S
C1617 C1615 1.389 . S
C1617 C1618 1.524 . S
C1618 C1617 1.524 . S
C1618 C1619 1.397 . S
C1618 C1623 1.363 . S
C1619 H1590 0.950 . S
C1619 C1618 1.397 . S
C1619 C1620 1.334 . S
C1620 H1591 0.950 . S
C1620 C1619 1.334 . S
C1620 C1621 1.287 . S
C1621 C1620 1.287 . S
C1621 C1622 1.524 . S
C1621 H1624 0.999 . S
C1622 H1592 0.950 . S
C1622 C1621 1.524 . S
C1622 C1623 1.415 . S
C1623 H1593 0.950 . S
C1623 C1618 1.363 . S
C1623 C1622 1.415 . S
H1624 C1621 0.999 . S
H1625 C1606 0.913 . S
H1626 C1644 0.951 . S
H1627 C1646 0.951 . S
H1628 C1648 0.950 . S
H1629 C1649 0.950 . S
H1630 C1651 0.950 1_565 S
H1631 C1654 0.950 . S
H1632 C1655 0.950 . S
H1633 C1657 0.950 . S
H1634 C1658 0.950 . S
H1635 C1659 0.951 1_565 S
H1636 C1661 0.951 . S
H1637 C1663 0.950 . S
H1638 C1664 0.950 . S
H1639 C1666 0.950 . S
H1640 C1669 0.950 . S
H1641 C1670 0.950 . S
H1642 C1672 0.950 . S
H1643 C1673 0.950 . S
C1644 H1626 0.951 . S
C1644 C1645 1.366 . S
C1644 C1646 1.388 . S
C1645 C1644 1.366 . S
C1645 C1649 1.385 . S
C1646 H1627 0.951 . S
C1646 C1644 1.388 . S
C1646 C1647 1.366 . S
C1647 C1646 1.366 . S
C1647 C1648 1.414 . S
C1647 C1650 1.499 . S
C1648 H1628 0.950 . S
C1648 C1647 1.414 . S
C1648 C1649 1.374 . S
C1649 H1629 0.950 . S
C1649 C1645 1.385 . S
C1649 C1648 1.374 . S
C1650 C1647 1.499 . S
C1650 C1651 1.373 . S
C1650 C1652 1.389 . S
C1651 H1630 0.950 1_545 S
C1651 C1650 1.373 . S
C1651 C1667 1.377 . S
C1652 C1650 1.389 . S
C1652 C1653 1.524 . S
C1652 C1666 1.377 . S
C1653 C1652 1.524 . S
C1653 C1654 1.397 . S
C1653 C1658 1.363 . S
C1654 H1631 0.950 . S
C1654 C1653 1.397 . S
C1654 C1655 1.334 . S
C1655 H1632 0.950 . S
C1655 C1654 1.334 . S
C1655 C1656 1.287 . S
C1656 C1655 1.287 . S
C1656 C1657 1.524 . S
C1656 H1675 0.913 . S
C1657 H1633 0.950 . S
C1657 C1656 1.524 . S
C1657 C1658 1.415 . S
C1658 H1634 0.950 . S
C1658 C1653 1.363 . S
C1658 C1657 1.415 . S
C1659 H1635 0.951 1_545 S
C1659 C1660 1.366 . S
C1659 C1661 1.388 . S
C1660 C1659 1.366 . S
C1660 C1664 1.385 . S
C1661 H1636 0.951 . S
C1661 C1659 1.388 . S
C1661 C1662 1.366 . S
C1662 C1661 1.366 . S
C1662 C1663 1.414 . S
C1662 C1665 1.499 . S
C1663 H1637 0.950 . S
C1663 C1662 1.414 . S
C1663 C1664 1.374 . S
C1664 H1638 0.950 . S
C1664 C1660 1.385 . S
C1664 C1663 1.374 . S
C1665 C1662 1.499 . S
C1665 C1666 1.373 . S
C1665 C1667 1.389 . S
C1666 H1639 0.950 . S
C1666 C1652 1.377 . S
C1666 C1665 1.373 . S
C1667 C1651 1.377 . S
C1667 C1665 1.389 . S
C1667 C1668 1.524 1_545 S
C1668 C1667 1.524 1_565 S
C1668 C1669 1.397 . S
C1668 C1673 1.363 . S
C1669 H1640 0.950 . S
C1669 C1668 1.397 . S
C1669 C1670 1.334 . S
C1670 H1641 0.950 . S
C1670 C1669 1.334 . S
C1670 C1671 1.287 . S
C1671 C1670 1.287 . S
C1671 C1672 1.524 . S
C1671 H1674 0.999 . S
C1672 H1642 0.950 . S
C1672 C1671 1.524 . S
C1672 C1673 1.415 . S
C1673 H1643 0.950 . S
C1673 C1668 1.363 . S
C1673 C1672 1.415 . S
H1674 C1671 0.999 . S
H1675 C1656 0.913 . S
H1676 C1694 0.951 . S
H1677 C1696 0.951 . S
H1678 C1698 0.950 . S
H1679 C1699 0.950 . S
H1680 C1701 0.950 . S
H1681 C1704 0.950 . S
H1682 C1705 0.950 . S
H1683 C1707 0.950 . S
H1684 C1708 0.950 . S
H1685 C1709 0.951 . S
H1686 C1711 0.951 . S
H1687 C1713 0.950 . S
H1688 C1714 0.950 . S
H1689 C1716 0.950 . S
H1690 C1719 0.950 . S
H1691 C1720 0.950 . S
H1692 C1722 0.950 . S
H1693 C1723 0.950 . S
C1694 H1676 0.951 . S
C1694 C1695 1.366 . S
C1694 C1696 1.388 . S
C1695 C1694 1.366 . S
C1695 C1699 1.385 . S
C1696 H1677 0.951 . S
C1696 C1694 1.388 . S
C1696 C1697 1.366 . S
C1697 C1696 1.366 . S
C1697 C1698 1.414 . S
C1697 C1700 1.499 . S
C1698 H1678 0.950 . S
C1698 C1697 1.414 . S
C1698 C1699 1.374 . S
C1699 H1679 0.950 . S
C1699 C1695 1.385 . S
C1699 C1698 1.374 . S
C1700 C1697 1.499 . S
C1700 C1701 1.373 . S
C1700 C1702 1.389 . S
C1701 H1680 0.950 . S
C1701 C1700 1.373 . S
C1701 C1717 1.377 . S
C1702 C1700 1.389 . S
C1702 C1703 1.524 . S
C1702 C1716 1.377 . S
C1703 C1702 1.524 . S
C1703 C1704 1.397 . S
C1703 C1708 1.363 . S
C1704 H1681 0.950 . S
C1704 C1703 1.397 . S
C1704 C1705 1.334 . S
C1705 H1682 0.950 . S
C1705 C1704 1.334 . S
C1705 C1706 1.287 . S
C1706 C1705 1.287 . S
C1706 C1707 1.524 . S
C1706 H1725 0.913 . S
C1707 H1683 0.950 . S
C1707 C1706 1.524 . S
C1707 C1708 1.415 . S
C1708 H1684 0.950 . S
C1708 C1703 1.363 . S
C1708 C1707 1.415 . S
C1709 H1685 0.951 . S
C1709 C1710 1.366 . S
C1709 C1711 1.388 . S
C1710 C1709 1.366 . S
C1710 C1714 1.385 . S
C1711 H1686 0.951 . S
C1711 C1709 1.388 . S
C1711 C1712 1.366 . S
C1712 C1711 1.366 . S
C1712 C1713 1.414 . S
C1712 C1715 1.499 . S
C1713 H1687 0.950 . S
C1713 C1712 1.414 . S
C1713 C1714 1.374 . S
C1714 H1688 0.950 . S
C1714 C1710 1.385 . S
C1714 C1713 1.374 . S
C1715 C1712 1.499 . S
C1715 C1716 1.373 . S
C1715 C1717 1.389 . S
C1716 H1689 0.950 . S
C1716 C1702 1.377 . S
C1716 C1715 1.373 . S
C1717 C1701 1.377 . S
C1717 C1715 1.389 . S
C1717 C1718 1.524 . S
C1718 C1717 1.524 . S
C1718 C1719 1.397 . S
C1718 C1723 1.363 . S
C1719 H1690 0.950 . S
C1719 C1718 1.397 . S
C1719 C1720 1.334 . S
C1720 H1691 0.950 . S
C1720 C1719 1.334 . S
C1720 C1721 1.287 . S
C1721 C1720 1.287 . S
C1721 C1722 1.524 . S
C1721 H1724 0.999 . S
C1722 H1692 0.950 . S
C1722 C1721 1.524 . S
C1722 C1723 1.415 . S
C1723 H1693 0.950 . S
C1723 C1718 1.363 . S
C1723 C1722 1.415 . S
H1724 C1721 0.999 . S
H1725 C1706 0.913 . S
H1726 C1744 0.951 . S
H1727 C1746 0.951 . S
H1728 C1748 0.950 . S
H1729 C1749 0.950 . S
H1730 C1751 0.950 . S
H1731 C1754 0.950 . S
H1732 C1755 0.950 . S
H1733 C1757 0.950 . S
H1734 C1758 0.950 . S
H1735 C1759 0.951 . S
H1736 C1761 0.951 . S
H1737 C1763 0.950 . S
H1738 C1764 0.950 . S
H1739 C1766 0.950 . S
H1740 C1769 0.950 . S
H1741 C1770 0.950 . S
H1742 C1772 0.950 . S
H1743 C1773 0.950 . S
C1744 H1726 0.951 . S
C1744 C1745 1.366 . S
C1744 C1746 1.388 . S
C1745 C1744 1.366 . S
C1745 C1749 1.385 . S
C1746 H1727 0.951 . S
C1746 C1744 1.388 . S
C1746 C1747 1.366 . S
C1747 C1746 1.366 . S
C1747 C1748 1.414 . S
C1747 C1750 1.499 . S
C1748 H1728 0.950 . S
C1748 C1747 1.414 . S
C1748 C1749 1.374 . S
C1749 H1729 0.950 . S
C1749 C1745 1.385 . S
C1749 C1748 1.374 . S
C1750 C1747 1.499 . S
C1750 C1751 1.373 . S
C1750 C1752 1.389 . S
C1751 H1730 0.950 . S
C1751 C1750 1.373 . S
C1751 C1767 1.377 . S
C1752 C1750 1.389 . S
C1752 C1753 1.524 . S
C1752 C1766 1.377 . S
C1753 C1752 1.524 . S
C1753 C1754 1.397 . S
C1753 C1758 1.363 . S
C1754 H1731 0.950 . S
C1754 C1753 1.397 . S
C1754 C1755 1.334 . S
C1755 H1732 0.950 . S
C1755 C1754 1.334 . S
C1755 C1756 1.287 . S
C1756 C1755 1.287 . S
C1756 C1757 1.524 . S
C1756 H1775 0.913 . S
C1757 H1733 0.950 . S
C1757 C1756 1.524 . S
C1757 C1758 1.415 . S
C1758 H1734 0.950 . S
C1758 C1753 1.363 . S
C1758 C1757 1.415 . S
C1759 H1735 0.951 . S
C1759 C1760 1.366 . S
C1759 C1761 1.388 . S
C1760 C1759 1.366 . S
C1760 C1764 1.385 . S
C1761 H1736 0.951 . S
C1761 C1759 1.388 . S
C1761 C1762 1.366 . S
C1762 C1761 1.366 . S
C1762 C1763 1.414 . S
C1762 C1765 1.499 . S
C1763 H1737 0.950 . S
C1763 C1762 1.414 . S
C1763 C1764 1.374 . S
C1764 H1738 0.950 . S
C1764 C1760 1.385 . S
C1764 C1763 1.374 . S
C1765 C1762 1.499 . S
C1765 C1766 1.373 . S
C1765 C1767 1.389 . S
C1766 H1739 0.950 . S
C1766 C1752 1.377 . S
C1766 C1765 1.373 . S
C1767 C1751 1.377 . S
C1767 C1765 1.389 . S
C1767 C1768 1.524 . S
C1768 C1767 1.524 . S
C1768 C1769 1.397 . S
C1768 C1773 1.363 . S
C1769 H1740 0.950 . S
C1769 C1768 1.397 . S
C1769 C1770 1.334 . S
C1770 H1741 0.950 . S
C1770 C1769 1.334 . S
C1770 C1771 1.287 . S
C1771 C1770 1.287 . S
C1771 C1772 1.524 . S
C1771 H1774 0.999 . S
C1772 H1742 0.950 . S
C1772 C1771 1.524 . S
C1772 C1773 1.415 . S
C1773 H1743 0.950 . S
C1773 C1768 1.363 . S
C1773 C1772 1.415 . S
H1774 C1771 0.999 . S
H1775 C1756 0.913 . S
H1776 C1794 0.951 . S
H1777 C1796 0.951 . S
H1778 C1798 0.950 . S
H1779 C1799 0.950 . S
H1780 C1801 0.950 . S
H1781 C1804 0.950 . S
H1782 C1805 0.950 . S
H1783 C1807 0.950 . S
H1784 C1808 0.950 . S
H1785 C1809 0.951 . S
H1786 C1811 0.951 . S
H1787 C1813 0.950 . S
H1788 C1814 0.950 . S
H1789 C1816 0.950 . S
H1790 C1819 0.950 . S
H1791 C1820 0.950 . S
H1792 C1822 0.950 . S
H1793 C1823 0.950 . S
C1794 H1776 0.951 . S
C1794 C1795 1.366 . S
C1794 C1796 1.388 . S
C1795 C1794 1.366 . S
C1795 C1799 1.385 . S
C1796 H1777 0.951 . S
C1796 C1794 1.388 . S
C1796 C1797 1.366 . S
C1797 C1796 1.366 . S
C1797 C1798 1.414 . S
C1797 C1800 1.499 . S
C1798 H1778 0.950 . S
C1798 C1797 1.414 . S
C1798 C1799 1.374 . S
C1799 H1779 0.950 . S
C1799 C1795 1.385 . S
C1799 C1798 1.374 . S
C1800 C1797 1.499 . S
C1800 C1801 1.373 . S
C1800 C1802 1.389 . S
C1801 H1780 0.950 . S
C1801 C1800 1.373 . S
C1801 C1817 1.377 . S
C1802 C1800 1.389 . S
C1802 C1803 1.524 . S
C1802 C1816 1.377 . S
C1803 C1802 1.524 . S
C1803 C1804 1.397 . S
C1803 C1808 1.363 . S
C1804 H1781 0.950 . S
C1804 C1803 1.397 . S
C1804 C1805 1.334 . S
C1805 H1782 0.950 . S
C1805 C1804 1.334 . S
C1805 C1806 1.287 . S
C1806 C1805 1.287 . S
C1806 C1807 1.524 . S
C1806 H1825 0.913 . S
C1807 H1783 0.950 . S
C1807 C1806 1.524 . S
C1807 C1808 1.415 . S
C1808 H1784 0.950 . S
C1808 C1803 1.363 . S
C1808 C1807 1.415 . S
C1809 H1785 0.951 . S
C1809 C1810 1.366 . S
C1809 C1811 1.388 . S
C1810 C1809 1.366 . S
C1810 C1814 1.385 . S
C1811 H1786 0.951 . S
C1811 C1809 1.388 . S
C1811 C1812 1.366 . S
C1812 C1811 1.366 . S
C1812 C1813 1.414 . S
C1812 C1815 1.499 . S
C1813 H1787 0.950 . S
C1813 C1812 1.414 . S
C1813 C1814 1.374 . S
C1814 H1788 0.950 . S
C1814 C1810 1.385 . S
C1814 C1813 1.374 . S
C1815 C1812 1.499 . S
C1815 C1816 1.373 . S
C1815 C1817 1.389 . S
C1816 H1789 0.950 . S
C1816 C1802 1.377 . S
C1816 C1815 1.373 . S
C1817 C1801 1.377 . S
C1817 C1815 1.389 . S
C1817 C1818 1.524 . S
C1818 C1817 1.524 . S
C1818 C1819 1.397 . S
C1818 C1823 1.363 . S
C1819 H1790 0.950 . S
C1819 C1818 1.397 . S
C1819 C1820 1.334 . S
C1820 H1791 0.950 . S
C1820 C1819 1.334 . S
C1820 C1821 1.287 . S
C1821 C1820 1.287 . S
C1821 C1822 1.524 . S
C1821 H1824 0.999 . S
C1822 H1792 0.950 . S
C1822 C1821 1.524 . S
C1822 C1823 1.415 . S
C1823 H1793 0.950 . S
C1823 C1818 1.363 . S
C1823 C1822 1.415 . S
H1824 C1821 0.999 . S
H1825 C1806 0.913 . S
H1826 C1844 0.951 1_455 S
H1827 C1846 0.951 . S
H1828 C1848 0.950 . S
H1829 C1849 0.950 . S
H1830 C1851 0.950 . S
H1831 C1854 0.950 . S
H1832 C1855 0.950 . S
H1833 C1857 0.950 1_455 S
H1834 C1858 0.950 . S
H1835 C1859 0.951 . S
H1836 C1861 0.951 . S
H1837 C1863 0.950 . S
H1838 C1864 0.950 . S
H1839 C1866 0.950 . S
H1840 C1869 0.950 . S
H1841 C1870 0.950 . S
H1842 C1872 0.950 . S
H1843 C1873 0.950 . S
C1844 H1826 0.951 1_655 S
C1844 C1845 1.366 . S
C1844 C1846 1.388 . S
C1845 C1844 1.366 . S
C1845 C1849 1.385 . S
C1846 H1827 0.951 . S
C1846 C1844 1.388 . S
C1846 C1847 1.366 . S
C1847 C1846 1.366 . S
C1847 C1848 1.414 . S
C1847 C1850 1.499 . S
C1848 H1828 0.950 . S
C1848 C1847 1.414 . S
C1848 C1849 1.374 . S
C1849 H1829 0.950 . S
C1849 C1845 1.385 . S
C1849 C1848 1.374 . S
C1850 C1847 1.499 . S
C1850 C1851 1.373 . S
C1850 C1852 1.389 . S
C1851 H1830 0.950 . S
C1851 C1850 1.373 . S
C1851 C1867 1.377 . S
C1852 C1850 1.389 . S
C1852 C1853 1.524 . S
C1852 C1866 1.377 . S
C1853 C1852 1.524 . S
C1853 C1854 1.397 1_545 S
C1853 C1858 1.363 . S
C1854 H1831 0.950 . S
C1854 C1853 1.397 1_565 S
C1854 C1855 1.334 . S
C1855 H1832 0.950 . S
C1855 C1854 1.334 . S
C1855 C1856 1.287 . S
C1856 C1855 1.287 . S
C1856 C1857 1.524 . S
C1856 H1875 0.913 . S
C1857 H1833 0.950 1_655 S
C1857 C1856 1.524 . S
C1857 C1858 1.415 1_565 S
C1858 H1834 0.950 . S
C1858 C1853 1.363 . S
C1858 C1857 1.415 1_545 S
C1859 H1835 0.951 . S
C1859 C1860 1.366 . S
C1859 C1861 1.388 . S
C1860 C1859 1.366 . S
C1860 C1864 1.385 . S
C1861 H1836 0.951 . S
C1861 C1859 1.388 . S
C1861 C1862 1.366 . S
C1862 C1861 1.366 . S
C1862 C1863 1.414 . S
C1862 C1865 1.499 . S
C1863 H1837 0.950 . S
C1863 C1862 1.414 . S
C1863 C1864 1.374 . S
C1864 H1838 0.950 . S
C1864 C1860 1.385 . S
C1864 C1863 1.374 . S
C1865 C1862 1.499 . S
C1865 C1866 1.373 . S
C1865 C1867 1.389 . S
C1866 H1839 0.950 . S
C1866 C1852 1.377 . S
C1866 C1865 1.373 . S
C1867 C1851 1.377 . S
C1867 C1865 1.389 . S
C1867 C1868 1.524 . S
C1868 C1867 1.524 . S
C1868 C1869 1.397 . S
C1868 C1873 1.363 . S
C1869 H1840 0.950 . S
C1869 C1868 1.397 . S
C1869 C1870 1.334 . S
C1870 H1841 0.950 . S
C1870 C1869 1.334 . S
C1870 C1871 1.287 . S
C1871 C1870 1.287 . S
C1871 C1872 1.524 . S
C1871 H1874 0.999 . S
C1872 H1842 0.950 . S
C1872 C1871 1.524 . S
C1872 C1873 1.415 . S
C1873 H1843 0.950 . S
C1873 C1868 1.363 . S
C1873 C1872 1.415 . S
H1874 C1871 0.999 . S
H1875 C1856 0.913 . S
H1876 C1894 0.951 . S
H1877 C1896 0.951 . S
H1878 C1898 0.950 . S
H1879 C1899 0.950 . S
H1880 C1901 0.950 . S
H1881 C1904 0.950 . S
H1882 C1905 0.950 . S
H1883 C1907 0.950 . S
H1884 C1908 0.950 . S
H1885 C1909 0.951 . S
H1886 C1911 0.951 . S
H1887 C1913 0.950 . S
H1888 C1914 0.950 . S
H1889 C1916 0.950 . S
H1890 C1919 0.950 . S
H1891 C1920 0.950 . S
H1892 C1922 0.950 . S
H1893 C1923 0.950 . S
C1894 H1876 0.951 . S
C1894 C1895 1.366 . S
C1894 C1896 1.388 . S
C1895 C1894 1.366 . S
C1895 C1899 1.385 . S
C1896 H1877 0.951 . S
C1896 C1894 1.388 . S
C1896 C1897 1.366 . S
C1897 C1896 1.366 . S
C1897 C1898 1.414 . S
C1897 C1900 1.499 . S
C1898 H1878 0.950 . S
C1898 C1897 1.414 . S
C1898 C1899 1.374 . S
C1899 H1879 0.950 . S
C1899 C1895 1.385 . S
C1899 C1898 1.374 . S
C1900 C1897 1.499 . S
C1900 C1901 1.373 . S
C1900 C1902 1.389 . S
C1901 H1880 0.950 . S
C1901 C1900 1.373 . S
C1901 C1917 1.377 . S
C1902 C1900 1.389 . S
C1902 C1903 1.524 . S
C1902 C1916 1.377 . S
C1903 C1902 1.524 . S
C1903 C1904 1.397 . S
C1903 C1908 1.363 . S
C1904 H1881 0.950 . S
C1904 C1903 1.397 . S
C1904 C1905 1.334 . S
C1905 H1882 0.950 . S
C1905 C1904 1.334 . S
C1905 C1906 1.287 . S
C1906 C1905 1.287 . S
C1906 C1907 1.524 . S
C1906 H1925 0.913 . S
C1907 H1883 0.950 . S
C1907 C1906 1.524 . S
C1907 C1908 1.415 . S
C1908 H1884 0.950 . S
C1908 C1903 1.363 . S
C1908 C1907 1.415 . S
C1909 H1885 0.951 . S
C1909 C1910 1.366 . S
C1909 C1911 1.388 . S
C1910 C1909 1.366 . S
C1910 C1914 1.385 . S
C1911 H1886 0.951 . S
C1911 C1909 1.388 . S
C1911 C1912 1.366 . S
C1912 C1911 1.366 . S
C1912 C1913 1.414 . S
C1912 C1915 1.499 . S
C1913 H1887 0.950 . S
C1913 C1912 1.414 . S
C1913 C1914 1.374 . S
C1914 H1888 0.950 . S
C1914 C1910 1.385 . S
C1914 C1913 1.374 . S
C1915 C1912 1.499 . S
C1915 C1916 1.373 . S
C1915 C1917 1.389 . S
C1916 H1889 0.950 . S
C1916 C1902 1.377 . S
C1916 C1915 1.373 . S
C1917 C1901 1.377 . S
C1917 C1915 1.389 . S
C1917 C1918 1.524 . S
C1918 C1917 1.524 . S
C1918 C1919 1.397 . S
C1918 C1923 1.363 . S
C1919 H1890 0.950 . S
C1919 C1918 1.397 . S
C1919 C1920 1.334 . S
C1920 H1891 0.950 . S
C1920 C1919 1.334 . S
C1920 C1921 1.287 . S
C1921 C1920 1.287 . S
C1921 C1922 1.524 . S
C1921 H1924 0.999 . S
C1922 H1892 0.950 . S
C1922 C1921 1.524 . S
C1922 C1923 1.415 . S
C1923 H1893 0.950 . S
C1923 C1918 1.363 . S
C1923 C1922 1.415 . S
H1924 C1921 0.999 . S
H1925 C1906 0.913 . S
H1926 C1944 0.934 1_655 S
H1927 C1946 0.951 . S
H1928 C1948 0.950 . S
H1929 C1949 0.950 . S
H1930 C1951 0.950 . S
H1931 C1954 0.950 . S
H1932 C1955 0.950 . S
H1933 C1957 0.950 1_655 S
H1934 C1958 0.950 . S
H1935 C1959 0.951 . S
H1936 C1961 0.951 . S
H1937 C1963 0.950 . S
H1938 C1964 0.950 . S
H1939 C1966 0.950 . S
H1940 C1969 0.950 . S
H1941 C1970 0.950 . S
H1942 C1972 0.950 . S
H1943 C1973 0.950 . S
C1944 H1926 0.934 1_455 S
C1944 C1945 1.374 . S
C1944 C1946 1.397 . S
C1945 C1944 1.374 . S
C1945 C1949 1.385 . S
C1946 H1927 0.951 . S
C1946 C1944 1.397 . S
C1946 C1947 1.366 . S
C1947 C1946 1.366 . S
C1947 C1948 1.414 . S
C1947 C1950 1.499 . S
C1948 H1928 0.950 . S
C1948 C1947 1.414 . S
C1948 C1949 1.374 . S
C1949 H1929 0.950 . S
C1949 C1945 1.385 . S
C1949 C1948 1.374 . S
C1950 C1947 1.499 . S
C1950 C1951 1.373 . S
C1950 C1952 1.389 . S
C1951 H1930 0.950 . S
C1951 C1950 1.373 . S
C1951 C1967 1.377 . S
C1952 C1950 1.389 . S
C1952 C1953 1.524 . S
C1952 C1966 1.377 . S
C1953 C1952 1.524 . S
C1953 C1954 1.397 . S
C1953 C1958 1.363 . S
C1954 H1931 0.950 . S
C1954 C1953 1.397 . S
C1954 C1955 1.334 . S
C1955 H1932 0.950 . S
C1955 C1954 1.334 . S
C1955 C1956 1.287 . S
C1956 C1955 1.287 . S
C1956 C1957 1.524 . S
C1956 H1975 0.913 1_455 S
C1957 H1933 0.950 1_455 S
C1957 C1956 1.524 . S
C1957 C1958 1.415 . S
C1958 H1934 0.950 . S
C1958 C1953 1.363 . S
C1958 C1957 1.415 . S
C1959 H1935 0.951 . S
C1959 C1960 1.366 . S
C1959 C1961 1.388 . S
C1960 C1959 1.366 . S
C1960 C1964 1.385 . S
C1961 H1936 0.951 . S
C1961 C1959 1.388 . S
C1961 C1962 1.366 . S
C1962 C1961 1.366 . S
C1962 C1963 1.414 . S
C1962 C1965 1.499 . S
C1963 H1937 0.950 . S
C1963 C1962 1.414 . S
C1963 C1964 1.374 . S
C1964 H1938 0.950 . S
C1964 C1960 1.385 . S
C1964 C1963 1.374 . S
C1965 C1962 1.499 . S
C1965 C1966 1.373 . S
C1965 C1967 1.389 . S
C1966 H1939 0.950 . S
C1966 C1952 1.377 . S
C1966 C1965 1.373 . S
C1967 C1951 1.377 . S
C1967 C1965 1.389 . S
C1967 C1968 1.524 . S
C1968 C1967 1.524 . S
C1968 C1969 1.397 . S
C1968 C1973 1.363 . S
C1969 H1940 0.950 . S
C1969 C1968 1.397 . S
C1969 C1970 1.334 . S
C1970 H1941 0.950 . S
C1970 C1969 1.334 . S
C1970 C1971 1.287 . S
C1971 C1970 1.287 . S
C1971 C1972 1.524 . S
C1971 H1974 0.999 . S
C1972 H1942 0.950 . S
C1972 C1971 1.524 . S
C1972 C1973 1.415 . S
C1973 H1943 0.950 . S
C1973 C1968 1.363 . S
C1973 C1972 1.415 . S
H1974 C1971 0.999 . S
H1975 C1956 0.913 1_655 S
H1976 C1994 0.951 . S
H1977 C1996 0.951 . S
H1978 C1998 0.950 . S
H1979 C1999 0.950 . S
H1980 C2001 0.950 . S
H1981 C2004 0.950 . S
H1982 C2005 0.950 . S
H1983 C2007 0.950 . S
H1984 C2008 0.950 . S
H1985 C2009 0.951 . S
H1986 C2011 0.951 . S
H1987 C2013 0.950 . S
H1988 C2014 0.950 . S
H1989 C2016 0.950 . S
H1990 C2019 0.950 . S
H1991 C2020 0.950 . S
H1992 C2022 0.950 . S
H1993 C2023 0.950 . S
C1994 H1976 0.951 . S
C1994 C1995 1.366 . S
C1994 C1996 1.388 . S
C1995 C1994 1.366 . S
C1995 C1999 1.385 . S
C1996 H1977 0.951 . S
C1996 C1994 1.388 . S
C1996 C1997 1.366 . S
C1997 C1996 1.366 . S
C1997 C1998 1.414 . S
C1997 C2000 1.499 . S
C1998 H1978 0.950 . S
C1998 C1997 1.414 . S
C1998 C1999 1.374 . S
C1999 H1979 0.950 . S
C1999 C1995 1.385 . S
C1999 C1998 1.374 . S
C2000 C1997 1.499 . S
C2000 C2001 1.373 . S
C2000 C2002 1.389 . S
C2001 H1980 0.950 . S
C2001 C2000 1.373 . S
C2001 C2017 1.377 . S
C2002 C2000 1.389 . S
C2002 C2003 1.524 . S
C2002 C2016 1.377 . S
C2003 C2002 1.524 . S
C2003 C2004 1.397 . S
C2003 C2008 1.363 . S
C2004 H1981 0.950 . S
C2004 C2003 1.397 . S
C2004 C2005 1.334 . S
C2005 H1982 0.950 . S
C2005 C2004 1.334 . S
C2005 C2006 1.287 . S
C2006 C2005 1.287 . S
C2006 C2007 1.524 . S
C2006 H2025 0.913 . S
C2007 H1983 0.950 . S
C2007 C2006 1.524 . S
C2007 C2008 1.415 . S
C2008 H1984 0.950 . S
C2008 C2003 1.363 . S
C2008 C2007 1.415 . S
C2009 H1985 0.951 . S
C2009 C2010 1.366 . S
C2009 C2011 1.388 . S
C2010 C2009 1.366 . S
C2010 C2014 1.385 . S
C2011 H1986 0.951 . S
C2011 C2009 1.388 . S
C2011 C2012 1.366 . S
C2012 C2011 1.366 . S
C2012 C2013 1.414 . S
C2012 C2015 1.499 . S
C2013 H1987 0.950 . S
C2013 C2012 1.414 . S
C2013 C2014 1.374 . S
C2014 H1988 0.950 . S
C2014 C2010 1.385 . S
C2014 C2013 1.374 . S
C2015 C2012 1.499 . S
C2015 C2016 1.373 . S
C2015 C2017 1.389 . S
C2016 H1989 0.950 . S
C2016 C2002 1.377 . S
C2016 C2015 1.373 . S
C2017 C2001 1.377 . S
C2017 C2015 1.389 . S
C2017 C2018 1.524 . S
C2018 C2017 1.524 . S
C2018 C2019 1.397 . S
C2018 C2023 1.363 . S
C2019 H1990 0.950 . S
C2019 C2018 1.397 . S
C2019 C2020 1.334 . S
C2020 H1991 0.950 . S
C2020 C2019 1.334 . S
C2020 C2021 1.287 . S
C2021 C2020 1.287 . S
C2021 C2022 1.524 . S
C2021 H2024 0.999 . S
C2022 H1992 0.950 . S
C2022 C2021 1.524 . S
C2022 C2023 1.415 . S
C2023 H1993 0.950 . S
C2023 C2018 1.363 . S
C2023 C2022 1.415 . S
H2024 C2021 0.999 . S
H2025 C2006 0.913 . S
H2026 C2044 0.951 . S
H2027 C2046 0.951 1_556 S
H2028 C2048 0.947 1_455 S
H2029 C2049 0.950 . S
H2030 C2051 0.950 1_554 S
H2031 C2054 0.950 . S
H2032 C2055 0.950 . S
H2033 C2057 0.950 . S
H2034 C2058 0.950 . S
H2035 C2059 0.951 . S
H2036 C2061 0.951 . S
H2037 C2063 0.950 . S
H2038 C2064 0.950 . S
H2039 C2066 0.950 . S
H2040 C2069 0.950 . S
H2041 C2070 0.950 . S
H2042 C2072 0.934 1_554 S
H2043 C2073 0.955 . S
C2044 H2026 0.951 . S
C2044 C2045 1.366 . S
C2044 C2046 1.388 . S
C2045 C2044 1.366 . S
C2045 C2049 1.385 . S
C2046 H2027 0.951 1_554 S
C2046 C2044 1.388 . S
C2046 C2047 1.366 . S
C2047 C2046 1.366 . S
C2047 C2048 1.414 . S
C2047 C2050 1.499 1_554 S
C2048 H2028 0.947 1_655 S
C2048 C2047 1.414 . S
C2048 C2049 1.374 . S
C2049 H2029 0.950 . S
C2049 C2045 1.385 . S
C2049 C2048 1.374 . S
C2050 C2047 1.499 1_556 S
C2050 C2051 1.373 1_655 S
C2050 C2052 1.389 . S
C2051 H2030 0.950 1_556 S
C2051 C2050 1.373 1_455 S
C2051 C2067 1.377 . S
C2052 C2050 1.389 . S
C2052 C2053 1.524 . S
C2052 C2066 1.377 . S
C2053 C2052 1.524 . S
C2053 C2054 1.397 1_556 S
C2053 C2058 1.363 . S
C2054 H2031 0.950 . S
C2054 C2053 1.397 1_554 S
C2054 C2055 1.334 . S
C2055 H2032 0.950 . S
C2055 C2054 1.334 . S
C2055 C2056 1.287 1_554 S
C2056 C2055 1.287 1_556 S
C2056 C2057 1.524 . S
C2056 H2075 0.913 . S
C2057 H2033 0.950 . S
C2057 C2056 1.524 . S
C2057 C2058 1.415 . S
C2058 H2034 0.950 . S
C2058 C2053 1.363 . S
C2058 C2057 1.415 . S
C2059 H2035 0.951 . S
C2059 C2060 1.366 . S
C2059 C2061 1.388 . S
C2060 C2059 1.366 . S
C2060 C2064 1.385 1_455 S
C2061 H2036 0.951 . S
C2061 C2059 1.388 . S
C2061 C2062 1.366 1_455 S
C2062 C2061 1.366 1_655 S
C2062 C2063 1.414 . S
C2062 C2065 1.499 . S
C2063 H2037 0.950 . S
C2063 C2062 1.414 . S
C2063 C2064 1.374 . S
C2064 H2038 0.950 . S
C2064 C2060 1.385 1_655 S
C2064 C2063 1.374 . S
C2065 C2062 1.499 . S
C2065 C2066 1.373 . S
C2065 C2067 1.389 1_655 S
C2066 H2039 0.950 . S
C2066 C2052 1.377 . S
C2066 C2065 1.373 . S
C2067 C2051 1.377 . S
C2067 C2065 1.389 1_455 S
C2067 C2068 1.524 . S
C2068 C2067 1.524 . S
C2068 C2069 1.397 . S
C2068 C2073 1.359 1_556 S
C2069 H2040 0.950 . S
C2069 C2068 1.397 . S
C2069 C2070 1.334 . S
C2070 H2041 0.950 . S
C2070 C2069 1.334 . S
C2070 C2071 1.287 . S
C2071 C2070 1.287 . S
C2071 C2072 1.545 . S
C2071 H2074 0.999 . S
C2072 H2042 0.934 1_556 S
C2072 C2071 1.545 . S
C2072 C2073 1.412 1_556 S
C2073 H2043 0.955 . S
C2073 C2068 1.359 1_554 S
C2073 C2072 1.412 1_554 S
H2074 C2071 0.999 . S
H2075 C2056 0.913 . S
H2076 C2094 0.951 . S
H2077 C2096 0.951 . S
H2078 C2098 0.950 . S
H2079 C2099 0.950 . S
H2080 C2101 0.950 . S
H2081 C2104 0.950 . S
H2082 C2105 0.950 . S
H2083 C2107 0.950 . S
H2084 C2108 0.950 . S
H2085 C2109 0.951 . S
H2086 C2111 0.951 . S
H2087 C2113 0.950 . S
H2088 C2114 0.950 . S
H2089 C2116 0.950 . S
H2090 C2119 0.950 . S
H2091 C2120 0.950 . S
H2092 C2122 0.950 . S
H2093 C2123 0.950 . S
C2094 H2076 0.951 . S
C2094 C2095 1.366 . S
C2094 C2096 1.388 . S
C2095 C2094 1.366 . S
C2095 C2099 1.385 . S
C2096 H2077 0.951 . S
C2096 C2094 1.388 . S
C2096 C2097 1.366 . S
C2097 C2096 1.366 . S
C2097 C2098 1.414 . S
C2097 C2100 1.499 . S
C2098 H2078 0.950 . S
C2098 C2097 1.414 . S
C2098 C2099 1.374 . S
C2099 H2079 0.950 . S
C2099 C2095 1.385 . S
C2099 C2098 1.374 . S
C2100 C2097 1.499 . S
C2100 C2101 1.373 . S
C2100 C2102 1.389 . S
C2101 H2080 0.950 . S
C2101 C2100 1.373 . S
C2101 C2117 1.377 . S
C2102 C2100 1.389 . S
C2102 C2103 1.524 . S
C2102 C2116 1.377 . S
C2103 C2102 1.524 . S
C2103 C2104 1.397 . S
C2103 C2108 1.363 . S
C2104 H2081 0.950 . S
C2104 C2103 1.397 . S
C2104 C2105 1.334 . S
C2105 H2082 0.950 . S
C2105 C2104 1.334 . S
C2105 C2106 1.287 . S
C2106 C2105 1.287 . S
C2106 C2107 1.524 . S
C2106 H2125 0.913 . S
C2107 H2083 0.950 . S
C2107 C2106 1.524 . S
C2107 C2108 1.415 . S
C2108 H2084 0.950 . S
C2108 C2103 1.363 . S
C2108 C2107 1.415 . S
C2109 H2085 0.951 . S
C2109 C2110 1.366 . S
C2109 C2111 1.388 . S
C2110 C2109 1.366 . S
C2110 C2114 1.385 . S
C2111 H2086 0.951 . S
C2111 C2109 1.388 . S
C2111 C2112 1.366 . S
C2112 C2111 1.366 . S
C2112 C2113 1.414 . S
C2112 C2115 1.499 . S
C2113 H2087 0.950 . S
C2113 C2112 1.414 . S
C2113 C2114 1.374 . S
C2114 H2088 0.950 . S
C2114 C2110 1.385 . S
C2114 C2113 1.374 . S
C2115 C2112 1.499 . S
C2115 C2116 1.373 . S
C2115 C2117 1.389 . S
C2116 H2089 0.950 . S
C2116 C2102 1.377 . S
C2116 C2115 1.373 . S
C2117 C2101 1.377 . S
C2117 C2115 1.389 . S
C2117 C2118 1.524 . S
C2118 C2117 1.524 . S
C2118 C2119 1.397 . S
C2118 C2123 1.363 . S
C2119 H2090 0.950 . S
C2119 C2118 1.397 . S
C2119 C2120 1.334 . S
C2120 H2091 0.950 . S
C2120 C2119 1.334 . S
C2120 C2121 1.287 . S
C2121 C2120 1.287 . S
C2121 C2122 1.524 . S
C2121 H2124 0.999 . S
C2122 H2092 0.950 . S
C2122 C2121 1.524 . S
C2122 C2123 1.415 . S
C2123 H2093 0.950 . S
C2123 C2118 1.363 . S
C2123 C2122 1.415 . S
H2124 C2121 0.999 . S
H2125 C2106 0.913 . S
H2126 C2144 0.952 . S
H2127 C2146 0.951 . S
H2128 C2148 0.950 . S
H2129 C2149 0.950 . S
H2130 C2151 0.950 . S
H2131 C2154 0.947 1_455 S
H2132 C2155 0.950 1_455 S
H2133 C2157 0.950 . S
H2134 C2158 0.950 . S
H2135 C2159 0.951 . S
H2136 C2161 0.951 . S
H2137 C2163 0.950 . S
H2138 C2164 0.950 . S
H2139 C2166 0.950 . S
H2140 C2169 0.912 1_655 S
H2141 C2170 0.950 . S
H2142 C2172 0.950 . S
H2143 C2173 0.950 . S
C2144 H2126 0.952 . S
C2144 C2145 1.366 1_656 S
C2144 C2146 1.388 . S
C2145 C2144 1.366 1_454 S
C2145 C2149 1.385 . S
C2146 H2127 0.951 . S
C2146 C2144 1.388 . S
C2146 C2147 1.366 1_655 S
C2147 C2146 1.366 1_455 S
C2147 C2148 1.414 . S
C2147 C2150 1.499 . S
C2148 H2128 0.950 . S
C2148 C2147 1.414 . S
C2148 C2149 1.374 1_556 S
C2149 H2129 0.950 . S
C2149 C2145 1.385 . S
C2149 C2148 1.374 1_554 S
C2150 C2147 1.499 . S
C2150 C2151 1.373 . S
C2150 C2152 1.389 1_455 S
C2151 H2130 0.950 . S
C2151 C2150 1.373 . S
C2151 C2167 1.377 . S
C2152 C2150 1.389 1_655 S
C2152 C2153 1.524 . S
C2152 C2166 1.377 . S
C2153 C2152 1.524 . S
C2153 C2154 1.399 . S
C2153 C2158 1.363 . S
C2154 H2131 0.947 1_655 S
C2154 C2153 1.399 . S
C2154 C2155 1.334 . S
C2155 H2132 0.950 1_655 S
C2155 C2154 1.334 . S
C2155 C2156 1.287 . S
C2156 C2155 1.287 . S
C2156 C2157 1.524 . S
C2156 H2175 0.913 . S
C2157 H2133 0.950 . S
C2157 C2156 1.524 . S
C2157 C2158 1.415 . S
C2158 H2134 0.950 . S
C2158 C2153 1.363 . S
C2158 C2157 1.415 . S
C2159 H2135 0.951 . S
C2159 C2160 1.366 . S
C2159 C2161 1.388 . S
C2160 C2159 1.366 . S
C2160 C2164 1.385 1_455 S
C2161 H2136 0.951 . S
C2161 C2159 1.388 . S
C2161 C2162 1.366 . S
C2162 C2161 1.366 . S
C2162 C2163 1.414 1_455 S
C2162 C2165 1.499 . S
C2163 H2137 0.950 . S
C2163 C2162 1.414 1_655 S
C2163 C2164 1.374 . S
C2164 H2138 0.950 . S
C2164 C2160 1.385 1_655 S
C2164 C2163 1.374 . S
C2165 C2162 1.499 . S
C2165 C2166 1.373 1_455 S
C2165 C2167 1.389 . S
C2166 H2139 0.950 . S
C2166 C2152 1.377 . S
C2166 C2165 1.373 1_655 S
C2167 C2151 1.377 . S
C2167 C2165 1.389 . S
C2167 C2168 1.524 . S
C2168 C2167 1.524 . S
C2168 C2169 1.397 . S
C2168 C2173 1.363 . S
C2169 H2140 0.912 1_455 S
C2169 C2168 1.397 . S
C2169 C2170 1.334 . S
C2170 H2141 0.950 . S
C2170 C2169 1.334 . S
C2170 C2171 1.287 1_556 S
C2171 C2170 1.287 1_554 S
C2171 C2172 1.524 . S
C2171 H2174 0.999 . S
C2172 H2142 0.950 . S
C2172 C2171 1.524 . S
C2172 C2173 1.415 1_554 S
C2173 H2143 0.950 . S
C2173 C2168 1.363 . S
C2173 C2172 1.415 1_556 S
H2174 C2171 0.999 . S
H2175 C2156 0.913 . S
H2176 C2194 0.951 . S
H2177 C2196 0.951 . S
H2178 C2198 0.950 . S
H2179 C2199 0.950 . S
H2180 C2201 0.950 . S
H2181 C2204 0.950 . S
H2182 C2205 0.950 . S
H2183 C2207 0.950 . S
H2184 C2208 0.950 . S
H2185 C2209 0.951 . S
H2186 C2211 0.951 . S
H2187 C2213 0.950 . S
H2188 C2214 0.950 . S
H2189 C2216 0.950 . S
H2190 C2219 0.950 . S
H2191 C2220 0.950 . S
H2192 C2222 0.950 . S
H2193 C2223 0.950 . S
C2194 H2176 0.951 . S
C2194 C2195 1.366 . S
C2194 C2196 1.388 . S
C2195 C2194 1.366 . S
C2195 C2199 1.385 . S
C2196 H2177 0.951 . S
C2196 C2194 1.388 . S
C2196 C2197 1.366 . S
C2197 C2196 1.366 . S
C2197 C2198 1.414 . S
C2197 C2200 1.499 . S
C2198 H2178 0.950 . S
C2198 C2197 1.414 . S
C2198 C2199 1.374 . S
C2199 H2179 0.950 . S
C2199 C2195 1.385 . S
C2199 C2198 1.374 . S
C2200 C2197 1.499 . S
C2200 C2201 1.373 . S
C2200 C2202 1.389 . S
C2201 H2180 0.950 . S
C2201 C2200 1.373 . S
C2201 C2217 1.377 . S
C2202 C2200 1.389 . S
C2202 C2203 1.524 . S
C2202 C2216 1.377 . S
C2203 C2202 1.524 . S
C2203 C2204 1.397 . S
C2203 C2208 1.363 . S
C2204 H2181 0.950 . S
C2204 C2203 1.397 . S
C2204 C2205 1.334 . S
C2205 H2182 0.950 . S
C2205 C2204 1.334 . S
C2205 C2206 1.287 . S
C2206 C2205 1.287 . S
C2206 C2207 1.524 . S
C2206 H2225 0.913 . S
C2207 H2183 0.950 . S
C2207 C2206 1.524 . S
C2207 C2208 1.415 . S
C2208 H2184 0.950 . S
C2208 C2203 1.363 . S
C2208 C2207 1.415 . S
C2209 H2185 0.951 . S
C2209 C2210 1.366 . S
C2209 C2211 1.388 . S
C2210 C2209 1.366 . S
C2210 C2214 1.385 . S
C2211 H2186 0.951 . S
C2211 C2209 1.388 . S
C2211 C2212 1.366 . S
C2212 C2211 1.366 . S
C2212 C2213 1.414 . S
C2212 C2215 1.499 . S
C2213 H2187 0.950 . S
C2213 C2212 1.414 . S
C2213 C2214 1.374 . S
C2214 H2188 0.950 . S
C2214 C2210 1.385 . S
C2214 C2213 1.374 . S
C2215 C2212 1.499 . S
C2215 C2216 1.373 . S
C2215 C2217 1.389 . S
C2216 H2189 0.950 . S
C2216 C2202 1.377 . S
C2216 C2215 1.373 . S
C2217 C2201 1.377 . S
C2217 C2215 1.389 . S
C2217 C2218 1.524 . S
C2218 C2217 1.524 . S
C2218 C2219 1.397 . S
C2218 C2223 1.363 . S
C2219 H2190 0.950 . S
C2219 C2218 1.397 . S
C2219 C2220 1.334 . S
C2220 H2191 0.950 . S
C2220 C2219 1.334 . S
C2220 C2221 1.287 . S
C2221 C2220 1.287 . S
C2221 C2222 1.524 . S
C2221 H2224 0.999 . S
C2222 H2192 0.950 . S
C2222 C2221 1.524 . S
C2222 C2223 1.415 . S
C2223 H2193 0.950 . S
C2223 C2218 1.363 . S
C2223 C2222 1.415 . S
H2224 C2221 0.999 . S
H2225 C2206 0.913 . S
H2226 C2244 0.951 1_556 S
H2227 C2246 0.951 . S
H2228 C2248 0.950 . S
H2229 C2249 0.950 . S
H2230 C2251 0.950 . S
H2231 C2254 0.950 1_554 S
H2232 C2255 0.950 . S
H2233 C2257 0.950 . S
H2234 C2258 0.950 . S
H2235 C2259 0.951 . S
H2236 C2261 0.951 . S
H2237 C2263 0.950 . S
H2238 C2264 0.950 . S
H2239 C2266 0.950 . S
H2240 C2269 0.950 . S
H2241 C2270 0.950 . S
H2242 C2272 0.950 . S
H2243 C2273 0.950 . S
C2244 H2226 0.951 1_554 S
C2244 C2245 1.366 1_554 S
C2244 C2246 1.388 . S
C2245 C2244 1.366 1_556 S
C2245 C2249 1.385 1_556 S
C2246 H2227 0.951 . S
C2246 C2244 1.388 . S
C2246 C2247 1.366 . S
C2247 C2246 1.366 . S
C2247 C2248 1.414 . S
C2247 C2250 1.499 . S
C2248 H2228 0.950 . S
C2248 C2247 1.414 . S
C2248 C2249 1.374 . S
C2249 H2229 0.950 . S
C2249 C2245 1.385 1_554 S
C2249 C2248 1.374 . S
C2250 C2247 1.499 . S
C2250 C2251 1.373 . S
C2250 C2252 1.389 . S
C2251 H2230 0.950 . S
C2251 C2250 1.373 . S
C2251 C2267 1.377 . S
C2252 C2250 1.389 . S
C2252 C2253 1.524 . S
C2252 C2266 1.377 . S
C2253 C2252 1.524 . S
C2253 C2254 1.399 1_554 S
C2253 C2258 1.363 . S
C2254 H2231 0.950 1_556 S
C2254 C2253 1.399 1_556 S
C2254 C2255 1.331 . S
C2255 H2232 0.950 . S
C2255 C2254 1.331 . S
C2255 C2256 1.287 . S
C2256 C2255 1.287 . S
C2256 C2257 1.524 . S
C2256 H2275 0.913 . S
C2257 H2233 0.950 . S
C2257 C2256 1.524 . S
C2257 C2258 1.415 1_556 S
C2258 H2234 0.950 . S
C2258 C2253 1.363 . S
C2258 C2257 1.415 1_554 S
C2259 H2235 0.951 . S
C2259 C2260 1.366 . S
C2259 C2261 1.388 . S
C2260 C2259 1.366 . S
C2260 C2264 1.385 . S
C2261 H2236 0.951 . S
C2261 C2259 1.388 . S
C2261 C2262 1.366 . S
C2262 C2261 1.366 . S
C2262 C2263 1.414 . S
C2262 C2265 1.499 . S
C2263 H2237 0.950 . S
C2263 C2262 1.414 . S
C2263 C2264 1.374 . S
C2264 H2238 0.950 . S
C2264 C2260 1.385 . S
C2264 C2263 1.374 . S
C2265 C2262 1.499 . S
C2265 C2266 1.373 . S
C2265 C2267 1.389 . S
C2266 H2239 0.950 . S
C2266 C2252 1.377 . S
C2266 C2265 1.373 . S
C2267 C2251 1.377 . S
C2267 C2265 1.389 . S
C2267 C2268 1.524 . S
C2268 C2267 1.524 . S
C2268 C2269 1.397 . S
C2268 C2273 1.363 . S
C2269 H2240 0.950 . S
C2269 C2268 1.397 . S
C2269 C2270 1.334 . S
C2270 H2241 0.950 . S
C2270 C2269 1.334 . S
C2270 C2271 1.287 . S
C2271 C2270 1.287 . S
C2271 C2272 1.524 . S
C2271 H2274 0.999 . S
C2272 H2242 0.950 . S
C2272 C2271 1.524 . S
C2272 C2273 1.415 . S
C2273 H2243 0.950 . S
C2273 C2268 1.363 . S
C2273 C2272 1.415 . S
H2274 C2271 0.999 . S
H2275 C2256 0.913 . S
H2276 C2294 0.951 . S
H2277 C2296 0.951 . S
H2278 C2298 0.950 . S
H2279 C2299 0.950 . S
H2280 C2301 0.950 . S
H2281 C2304 0.950 . S
H2282 C2305 0.950 . S
H2283 C2307 0.950 . S
H2284 C2308 0.950 . S
H2285 C2309 0.951 . S
H2286 C2311 0.951 . S
H2287 C2313 0.950 . S
H2288 C2314 0.950 . S
H2289 C2316 0.950 . S
H2290 C2319 0.950 . S
H2291 C2320 0.950 . S
H2292 C2322 0.950 . S
H2293 C2323 0.950 . S
C2294 H2276 0.951 . S
C2294 C2295 1.366 . S
C2294 C2296 1.388 . S
C2295 C2294 1.366 . S
C2295 C2299 1.385 . S
C2296 H2277 0.951 . S
C2296 C2294 1.388 . S
C2296 C2297 1.366 . S
C2297 C2296 1.366 . S
C2297 C2298 1.414 . S
C2297 C2300 1.499 . S
C2298 H2278 0.950 . S
C2298 C2297 1.414 . S
C2298 C2299 1.374 . S
C2299 H2279 0.950 . S
C2299 C2295 1.385 . S
C2299 C2298 1.374 . S
C2300 C2297 1.499 . S
C2300 C2301 1.373 . S
C2300 C2302 1.389 . S
C2301 H2280 0.950 . S
C2301 C2300 1.373 . S
C2301 C2317 1.377 . S
C2302 C2300 1.389 . S
C2302 C2303 1.524 . S
C2302 C2316 1.377 . S
C2303 C2302 1.524 . S
C2303 C2304 1.397 . S
C2303 C2308 1.363 . S
C2304 H2281 0.950 . S
C2304 C2303 1.397 . S
C2304 C2305 1.334 . S
C2305 H2282 0.950 . S
C2305 C2304 1.334 . S
C2305 C2306 1.287 . S
C2306 C2305 1.287 . S
C2306 C2307 1.524 . S
C2306 H2325 0.913 . S
C2307 H2283 0.950 . S
C2307 C2306 1.524 . S
C2307 C2308 1.415 . S
C2308 H2284 0.950 . S
C2308 C2303 1.363 . S
C2308 C2307 1.415 . S
C2309 H2285 0.951 . S
C2309 C2310 1.366 . S
C2309 C2311 1.388 . S
C2310 C2309 1.366 . S
C2310 C2314 1.385 . S
C2311 H2286 0.951 . S
C2311 C2309 1.388 . S
C2311 C2312 1.366 . S
C2312 C2311 1.366 . S
C2312 C2313 1.414 . S
C2312 C2315 1.499 . S
C2313 H2287 0.950 . S
C2313 C2312 1.414 . S
C2313 C2314 1.374 . S
C2314 H2288 0.950 . S
C2314 C2310 1.385 . S
C2314 C2313 1.374 . S
C2315 C2312 1.499 . S
C2315 C2316 1.373 . S
C2315 C2317 1.389 . S
C2316 H2289 0.950 . S
C2316 C2302 1.377 . S
C2316 C2315 1.373 . S
C2317 C2301 1.377 . S
C2317 C2315 1.389 . S
C2317 C2318 1.524 . S
C2318 C2317 1.524 . S
C2318 C2319 1.397 . S
C2318 C2323 1.363 . S
C2319 H2290 0.950 . S
C2319 C2318 1.397 . S
C2319 C2320 1.334 . S
C2320 H2291 0.950 . S
C2320 C2319 1.334 . S
C2320 C2321 1.287 . S
C2321 C2320 1.287 . S
C2321 C2322 1.524 . S
C2321 H2324 0.999 . S
C2322 H2292 0.950 . S
C2322 C2321 1.524 . S
C2322 C2323 1.415 . S
C2323 H2293 0.950 . S
C2323 C2318 1.363 . S
C2323 C2322 1.415 . S
H2324 C2321 0.999 . S
H2325 C2306 0.913 . S
H2326 C2344 0.951 . S
H2327 C2346 0.951 . S
H2328 C2348 0.950 . S
H2329 C2349 0.950 . S
H2330 C2351 0.950 . S
H2331 C2354 0.950 . S
H2332 C2355 0.946 . S
H2333 C2357 0.950 . S
H2334 C2358 0.950 . S
H2335 C2359 0.951 . S
H2336 C2361 0.951 . S
H2337 C2363 0.950 . S
H2338 C2364 0.950 . S
H2339 C2366 0.950 . S
H2340 C2369 0.950 . S
H2341 C2370 0.950 . S
H2342 C2372 0.950 . S
H2343 C2373 0.950 . S
C2344 H2326 0.951 . S
C2344 C2345 1.366 . S
C2344 C2346 1.388 . S
C2345 C2344 1.366 . S
C2345 C2349 1.385 . S
C2346 H2327 0.951 . S
C2346 C2344 1.388 . S
C2346 C2347 1.366 . S
C2347 C2346 1.366 . S
C2347 C2348 1.414 . S
C2347 C2350 1.499 . S
C2348 H2328 0.950 . S
C2348 C2347 1.414 . S
C2348 C2349 1.374 . S
C2349 H2329 0.950 . S
C2349 C2345 1.385 . S
C2349 C2348 1.374 . S
C2350 C2347 1.499 . S
C2350 C2351 1.373 . S
C2350 C2352 1.389 . S
C2351 H2330 0.950 . S
C2351 C2350 1.373 . S
C2351 C2367 1.377 . S
C2352 C2350 1.389 . S
C2352 C2353 1.524 . S
C2352 C2366 1.377 . S
C2353 C2352 1.524 . S
C2353 C2354 1.397 . S
C2353 C2358 1.363 . S
C2354 H2331 0.950 . S
C2354 C2353 1.397 . S
C2354 C2355 1.339 1_554 S
C2355 H2332 0.946 . S
C2355 C2354 1.339 1_556 S
C2355 C2356 1.286 . S
C2356 C2355 1.286 . S
C2356 C2357 1.524 1_556 S
C2356 H2375 0.913 . S
C2357 H2333 0.950 . S
C2357 C2356 1.524 1_554 S
C2357 C2358 1.415 . S
C2358 H2334 0.950 . S
C2358 C2353 1.363 . S
C2358 C2357 1.415 . S
C2359 H2335 0.951 . S
C2359 C2360 1.366 . S
C2359 C2361 1.388 . S
C2360 C2359 1.366 . S
C2360 C2364 1.385 . S
C2361 H2336 0.951 . S
C2361 C2359 1.388 . S
C2361 C2362 1.366 . S
C2362 C2361 1.366 . S
C2362 C2363 1.414 . S
C2362 C2365 1.499 . S
C2363 H2337 0.950 . S
C2363 C2362 1.414 . S
C2363 C2364 1.374 . S
C2364 H2338 0.950 . S
C2364 C2360 1.385 . S
C2364 C2363 1.374 . S
C2365 C2362 1.499 . S
C2365 C2366 1.373 . S
C2365 C2367 1.389 . S
C2366 H2339 0.950 . S
C2366 C2352 1.377 . S
C2366 C2365 1.373 . S
C2367 C2351 1.377 . S
C2367 C2365 1.389 . S
C2367 C2368 1.524 . S
C2368 C2367 1.524 . S
C2368 C2369 1.397 . S
C2368 C2373 1.363 . S
C2369 H2340 0.950 . S
C2369 C2368 1.397 . S
C2369 C2370 1.334 . S
C2370 H2341 0.950 . S
C2370 C2369 1.334 . S
C2370 C2371 1.287 . S
C2371 C2370 1.287 . S
C2371 C2372 1.524 . S
C2371 H2374 0.999 . S
C2372 H2342 0.950 . S
C2372 C2371 1.524 . S
C2372 C2373 1.415 . S
C2373 H2343 0.950 . S
C2373 C2368 1.363 . S
C2373 C2372 1.415 . S
H2374 C2371 0.999 . S
H2375 C2356 0.913 . S
H2376 C2394 0.951 . S
H2377 C2396 0.951 . S
H2378 C2398 0.950 . S
H2379 C2399 0.950 . S
H2380 C2401 0.950 . S
H2381 C2404 0.950 . S
H2382 C2405 0.950 . S
H2383 C2407 0.950 . S
H2384 C2408 0.950 . S
H2385 C2409 0.951 . S
H2386 C2411 0.951 . S
H2387 C2413 0.950 . S
H2388 C2414 0.950 . S
H2389 C2416 0.950 . S
H2390 C2419 0.950 . S
H2391 C2420 0.950 . S
H2392 C2422 0.950 . S
H2393 C2423 0.950 . S
C2394 H2376 0.951 . S
C2394 C2395 1.366 . S
C2394 C2396 1.388 . S
C2395 C2394 1.366 . S
C2395 C2399 1.385 . S
C2396 H2377 0.951 . S
C2396 C2394 1.388 . S
C2396 C2397 1.366 . S
C2397 C2396 1.366 . S
C2397 C2398 1.414 . S
C2397 C2400 1.499 . S
C2398 H2378 0.950 . S
C2398 C2397 1.414 . S
C2398 C2399 1.374 . S
C2399 H2379 0.950 . S
C2399 C2395 1.385 . S
C2399 C2398 1.374 . S
C2400 C2397 1.499 . S
C2400 C2401 1.373 . S
C2400 C2402 1.389 . S
C2401 H2380 0.950 . S
C2401 C2400 1.373 . S
C2401 C2417 1.377 . S
C2402 C2400 1.389 . S
C2402 C2403 1.524 . S
C2402 C2416 1.377 . S
C2403 C2402 1.524 . S
C2403 C2404 1.397 . S
C2403 C2408 1.363 . S
C2404 H2381 0.950 . S
C2404 C2403 1.397 . S
C2404 C2405 1.334 . S
C2405 H2382 0.950 . S
C2405 C2404 1.334 . S
C2405 C2406 1.287 . S
C2406 C2405 1.287 . S
C2406 C2407 1.524 . S
C2406 H2425 0.913 . S
C2407 H2383 0.950 . S
C2407 C2406 1.524 . S
C2407 C2408 1.415 . S
C2408 H2384 0.950 . S
C2408 C2403 1.363 . S
C2408 C2407 1.415 . S
C2409 H2385 0.951 . S
C2409 C2410 1.366 . S
C2409 C2411 1.388 . S
C2410 C2409 1.366 . S
C2410 C2414 1.385 . S
C2411 H2386 0.951 . S
C2411 C2409 1.388 . S
C2411 C2412 1.366 . S
C2412 C2411 1.366 . S
C2412 C2413 1.414 . S
C2412 C2415 1.499 . S
C2413 H2387 0.950 . S
C2413 C2412 1.414 . S
C2413 C2414 1.374 . S
C2414 H2388 0.950 . S
C2414 C2410 1.385 . S
C2414 C2413 1.374 . S
C2415 C2412 1.499 . S
C2415 C2416 1.373 . S
C2415 C2417 1.389 . S
C2416 H2389 0.950 . S
C2416 C2402 1.377 . S
C2416 C2415 1.373 . S
C2417 C2401 1.377 . S
C2417 C2415 1.389 . S
C2417 C2418 1.524 . S
C2418 C2417 1.524 . S
C2418 C2419 1.397 . S
C2418 C2423 1.363 . S
C2419 H2390 0.950 . S
C2419 C2418 1.397 . S
C2419 C2420 1.334 . S
C2420 H2391 0.950 . S
C2420 C2419 1.334 . S
C2420 C2421 1.287 . S
C2421 C2420 1.287 . S
C2421 C2422 1.524 . S
C2421 H2424 0.999 . S
C2422 H2392 0.950 . S
C2422 C2421 1.524 . S
C2422 C2423 1.415 . S
C2423 H2393 0.950 . S
C2423 C2418 1.363 . S
C2423 C2422 1.415 . S
H2424 C2421 0.999 . S
H2425 C2406 0.913 . S
H2426 C2444 0.951 . S
H2427 C2446 0.951 . S
H2428 C2448 0.950 . S
H2429 C2449 0.950 . S
H2430 C2451 0.950 . S
H2431 C2454 0.950 . S
H2432 C2455 0.950 . S
H2433 C2457 0.950 . S
H2434 C2458 0.950 . S
H2435 C2459 0.951 . S
H2436 C2461 0.951 . S
H2437 C2463 0.950 . S
H2438 C2464 0.950 . S
H2439 C2466 0.950 . S
H2440 C2469 0.950 . S
H2441 C2470 0.950 . S
H2442 C2472 0.950 . S
H2443 C2473 0.950 . S
C2444 H2426 0.951 . S
C2444 C2445 1.366 . S
C2444 C2446 1.388 . S
C2445 C2444 1.366 . S
C2445 C2449 1.385 . S
C2446 H2427 0.951 . S
C2446 C2444 1.388 . S
C2446 C2447 1.366 . S
C2447 C2446 1.366 . S
C2447 C2448 1.414 . S
C2447 C2450 1.499 . S
C2448 H2428 0.950 . S
C2448 C2447 1.414 . S
C2448 C2449 1.374 . S
C2449 H2429 0.950 . S
C2449 C2445 1.385 . S
C2449 C2448 1.374 . S
C2450 C2447 1.499 . S
C2450 C2451 1.373 . S
C2450 C2452 1.389 . S
C2451 H2430 0.950 . S
C2451 C2450 1.373 . S
C2451 C2467 1.377 . S
C2452 C2450 1.389 . S
C2452 C2453 1.524 . S
C2452 C2466 1.377 . S
C2453 C2452 1.524 . S
C2453 C2454 1.397 . S
C2453 C2458 1.363 . S
C2454 H2431 0.950 . S
C2454 C2453 1.397 . S
C2454 C2455 1.334 . S
C2455 H2432 0.950 . S
C2455 C2454 1.334 . S
C2455 C2456 1.287 . S
C2456 C2455 1.287 . S
C2456 C2457 1.524 . S
C2456 H2475 0.913 . S
C2457 H2433 0.950 . S
C2457 C2456 1.524 . S
C2457 C2458 1.415 . S
C2458 H2434 0.950 . S
C2458 C2453 1.363 . S
C2458 C2457 1.415 . S
C2459 H2435 0.951 . S
C2459 C2460 1.366 . S
C2459 C2461 1.388 . S
C2460 C2459 1.366 . S
C2460 C2464 1.385 . S
C2461 H2436 0.951 . S
C2461 C2459 1.388 . S
C2461 C2462 1.366 . S
C2462 C2461 1.366 . S
C2462 C2463 1.414 . S
C2462 C2465 1.499 . S
C2463 H2437 0.950 . S
C2463 C2462 1.414 . S
C2463 C2464 1.374 . S
C2464 H2438 0.950 . S
C2464 C2460 1.385 . S
C2464 C2463 1.374 . S
C2465 C2462 1.499 . S
C2465 C2466 1.373 . S
C2465 C2467 1.389 . S
C2466 H2439 0.950 . S
C2466 C2452 1.377 . S
C2466 C2465 1.373 . S
C2467 C2451 1.377 . S
C2467 C2465 1.389 . S
C2467 C2468 1.524 . S
C2468 C2467 1.524 . S
C2468 C2469 1.397 . S
C2468 C2473 1.363 . S
C2469 H2440 0.950 . S
C2469 C2468 1.397 . S
C2469 C2470 1.334 . S
C2470 H2441 0.950 . S
C2470 C2469 1.334 . S
C2470 C2471 1.287 . S
C2471 C2470 1.287 . S
C2471 C2472 1.524 . S
C2471 H2474 0.999 . S
C2472 H2442 0.950 . S
C2472 C2471 1.524 . S
C2472 C2473 1.415 . S
C2473 H2443 0.950 . S
C2473 C2468 1.363 . S
C2473 C2472 1.415 . S
H2474 C2471 0.999 . S
H2475 C2456 0.913 . S
H2476 C2494 0.951 . S
H2477 C2496 0.951 . S
H2478 C2498 0.950 . S
H2479 C2499 0.950 . S
H2480 C2501 0.950 . S
H2481 C2504 0.950 . S
H2482 C2505 0.950 . S
H2483 C2507 0.950 . S
H2484 C2508 0.950 . S
H2485 C2509 0.951 . S
H2486 C2511 0.951 . S
H2487 C2513 0.950 . S
H2488 C2514 0.950 . S
H2489 C2516 0.950 . S
H2490 C2519 0.950 . S
H2491 C2520 0.950 . S
H2492 C2522 0.950 . S
H2493 C2523 0.950 . S
C2494 H2476 0.951 . S
C2494 C2495 1.366 . S
C2494 C2496 1.388 . S
C2495 C2494 1.366 . S
C2495 C2499 1.385 . S
C2496 H2477 0.951 . S
C2496 C2494 1.388 . S
C2496 C2497 1.366 . S
C2497 C2496 1.366 . S
C2497 C2498 1.414 . S
C2497 C2500 1.499 . S
C2498 H2478 0.950 . S
C2498 C2497 1.414 . S
C2498 C2499 1.374 . S
C2499 H2479 0.950 . S
C2499 C2495 1.385 . S
C2499 C2498 1.374 . S
C2500 C2497 1.499 . S
C2500 C2501 1.373 . S
C2500 C2502 1.389 . S
C2501 H2480 0.950 . S
C2501 C2500 1.373 . S
C2501 C2517 1.377 . S
C2502 C2500 1.389 . S
C2502 C2503 1.524 . S
C2502 C2516 1.377 . S
C2503 C2502 1.524 . S
C2503 C2504 1.397 . S
C2503 C2508 1.363 . S
C2504 H2481 0.950 . S
C2504 C2503 1.397 . S
C2504 C2505 1.334 . S
C2505 H2482 0.950 . S
C2505 C2504 1.334 . S
C2505 C2506 1.287 . S
C2506 C2505 1.287 . S
C2506 C2507 1.524 . S
C2506 H2525 0.913 . S
C2507 H2483 0.950 . S
C2507 C2506 1.524 . S
C2507 C2508 1.415 . S
C2508 H2484 0.950 . S
C2508 C2503 1.363 . S
C2508 C2507 1.415 . S
C2509 H2485 0.951 . S
C2509 C2510 1.366 . S
C2509 C2511 1.388 . S
C2510 C2509 1.366 . S
C2510 C2514 1.385 . S
C2511 H2486 0.951 . S
C2511 C2509 1.388 . S
C2511 C2512 1.366 . S
C2512 C2511 1.366 . S
C2512 C2513 1.414 . S
C2512 C2515 1.499 . S
C2513 H2487 0.950 . S
C2513 C2512 1.414 . S
C2513 C2514 1.374 . S
C2514 H2488 0.950 . S
C2514 C2510 1.385 . S
C2514 C2513 1.374 . S
C2515 C2512 1.499 . S
C2515 C2516 1.373 . S
C2515 C2517 1.389 . S
C2516 H2489 0.950 . S
C2516 C2502 1.377 . S
C2516 C2515 1.373 . S
C2517 C2501 1.377 . S
C2517 C2515 1.389 . S
C2517 C2518 1.524 . S
C2518 C2517 1.524 . S
C2518 C2519 1.397 . S
C2518 C2523 1.363 . S
C2519 H2490 0.950 . S
C2519 C2518 1.397 . S
C2519 C2520 1.334 . S
C2520 H2491 0.950 . S
C2520 C2519 1.334 . S
C2520 C2521 1.287 . S
C2521 C2520 1.287 . S
C2521 C2522 1.524 . S
C2521 H2524 0.999 . S
C2522 H2492 0.950 . S
C2522 C2521 1.524 . S
C2522 C2523 1.415 . S
C2523 H2493 0.950 . S
C2523 C2518 1.363 . S
C2523 C2522 1.415 . S
H2524 C2521 0.999 . S
H2525 C2506 0.913 . S
H2526 C2544 0.951 . S
H2527 C2546 0.951 . S
H2528 C2548 0.950 . S
H2529 C2549 0.950 . S
H2530 C2551 0.950 . S
H2531 C2554 0.950 . S
H2532 C2555 0.950 . S
H2533 C2557 0.950 . S
H2534 C2558 0.950 . S
H2535 C2559 0.951 . S
H2536 C2561 0.951 . S
H2537 C2563 0.950 . S
H2538 C2564 0.950 . S
H2539 C2566 0.950 . S
H2540 C2569 0.950 . S
H2541 C2570 0.950 . S
H2542 C2572 0.950 . S
H2543 C2573 0.950 . S
C2544 H2526 0.951 . S
C2544 C2545 1.366 . S
C2544 C2546 1.388 . S
C2545 C2544 1.366 . S
C2545 C2549 1.385 . S
C2546 H2527 0.951 . S
C2546 C2544 1.388 . S
C2546 C2547 1.366 . S
C2547 C2546 1.366 . S
C2547 C2548 1.414 . S
C2547 C2550 1.499 . S
C2548 H2528 0.950 . S
C2548 C2547 1.414 . S
C2548 C2549 1.374 . S
C2549 H2529 0.950 . S
C2549 C2545 1.385 . S
C2549 C2548 1.374 . S
C2550 C2547 1.499 . S
C2550 C2551 1.373 . S
C2550 C2552 1.389 . S
C2551 H2530 0.950 . S
C2551 C2550 1.373 . S
C2551 C2567 1.377 . S
C2552 C2550 1.389 . S
C2552 C2553 1.524 . S
C2552 C2566 1.377 . S
C2553 C2552 1.524 . S
C2553 C2554 1.397 . S
C2553 C2558 1.363 . S
C2554 H2531 0.950 . S
C2554 C2553 1.397 . S
C2554 C2555 1.334 . S
C2555 H2532 0.950 . S
C2555 C2554 1.334 . S
C2555 C2556 1.287 . S
C2556 C2555 1.287 . S
C2556 C2557 1.524 . S
C2556 H2575 0.913 . S
C2557 H2533 0.950 . S
C2557 C2556 1.524 . S
C2557 C2558 1.415 . S
C2558 H2534 0.950 . S
C2558 C2553 1.363 . S
C2558 C2557 1.415 . S
C2559 H2535 0.951 . S
C2559 C2560 1.366 . S
C2559 C2561 1.388 . S
C2560 C2559 1.366 . S
C2560 C2564 1.385 . S
C2561 H2536 0.951 . S
C2561 C2559 1.388 . S
C2561 C2562 1.366 . S
C2562 C2561 1.366 . S
C2562 C2563 1.414 . S
C2562 C2565 1.499 . S
C2563 H2537 0.950 . S
C2563 C2562 1.414 . S
C2563 C2564 1.374 . S
C2564 H2538 0.950 . S
C2564 C2560 1.385 . S
C2564 C2563 1.374 . S
C2565 C2562 1.499 . S
C2565 C2566 1.373 . S
C2565 C2567 1.389 . S
C2566 H2539 0.950 . S
C2566 C2552 1.377 . S
C2566 C2565 1.373 . S
C2567 C2551 1.377 . S
C2567 C2565 1.389 . S
C2567 C2568 1.524 . S
C2568 C2567 1.524 . S
C2568 C2569 1.397 . S
C2568 C2573 1.363 . S
C2569 H2540 0.950 . S
C2569 C2568 1.397 . S
C2569 C2570 1.334 . S
C2570 H2541 0.950 . S
C2570 C2569 1.334 . S
C2570 C2571 1.287 . S
C2571 C2570 1.287 . S
C2571 C2572 1.524 . S
C2571 H2574 0.999 . S
C2572 H2542 0.950 . S
C2572 C2571 1.524 . S
C2572 C2573 1.415 . S
C2573 H2543 0.950 . S
C2573 C2568 1.363 . S
C2573 C2572 1.415 . S
H2574 C2571 0.999 . S
H2575 C2556 0.913 . S
H2576 C2594 0.958 . S
H2577 C2596 0.951 . S
H2578 C2598 0.950 . S
H2579 C2599 0.950 . S
H2580 C2601 0.950 . S
H2581 C2604 0.950 . S
H2582 C2605 0.950 . S
H2583 C2607 0.950 . S
H2584 C2608 0.950 . S
H2585 C2609 0.951 . S
H2586 C2611 0.951 . S
H2587 C2613 0.950 . S
H2588 C2614 0.950 . S
H2589 C2616 0.950 . S
H2590 C2619 0.950 . S
H2591 C2620 0.950 . S
H2592 C2622 0.950 . S
H2593 C2623 0.950 . S
C2594 H2576 0.958 . S
C2594 C2595 1.366 . S
C2594 C2596 1.388 1_556 S
C2595 C2594 1.366 . S
C2595 C2599 1.385 . S
C2596 H2577 0.951 . S
C2596 C2594 1.388 1_554 S
C2596 C2597 1.370 . S
C2597 C2596 1.370 . S
C2597 C2598 1.395 1_554 S
C2597 C2600 1.513 . S
C2598 H2578 0.950 . S
C2598 C2597 1.395 1_556 S
C2598 C2599 1.374 . S
C2599 H2579 0.950 . S
C2599 C2595 1.385 . S
C2599 C2598 1.374 . S
C2600 C2597 1.513 . S
C2600 C2601 1.373 1_554 S
C2600 C2602 1.389 . S
C2601 H2580 0.950 . S
C2601 C2600 1.373 1_556 S
C2601 C2617 1.367 1_556 S
C2602 C2600 1.389 . S
C2602 C2603 1.524 . S
C2602 C2616 1.377 . S
C2603 C2602 1.524 . S
C2603 C2604 1.397 . S
C2603 C2608 1.363 . S
C2604 H2581 0.950 . S
C2604 C2603 1.397 . S
C2604 C2605 1.334 . S
C2605 H2582 0.950 . S
C2605 C2604 1.334 . S
C2605 C2606 1.287 . S
C2606 C2605 1.287 . S
C2606 C2607 1.524 . S
C2606 H2625 0.913 . S
C2607 H2583 0.950 . S
C2607 C2606 1.524 . S
C2607 C2608 1.415 . S
C2608 H2584 0.950 . S
C2608 C2603 1.363 . S
C2608 C2607 1.415 . S
C2609 H2585 0.951 . S
C2609 C2610 1.366 . S
C2609 C2611 1.388 . S
C2610 C2609 1.366 . S
C2610 C2614 1.385 . S
C2611 H2586 0.951 . S
C2611 C2609 1.388 . S
C2611 C2612 1.366 . S
C2612 C2611 1.366 . S
C2612 C2613 1.414 . S
C2612 C2615 1.499 . S
C2613 H2587 0.950 . S
C2613 C2612 1.414 . S
C2613 C2614 1.374 . S
C2614 H2588 0.950 . S
C2614 C2610 1.385 . S
C2614 C2613 1.374 . S
C2615 C2612 1.499 . S
C2615 C2616 1.373 . S
C2615 C2617 1.424 . S
C2616 H2589 0.950 . S
C2616 C2602 1.377 . S
C2616 C2615 1.373 . S
C2617 C2601 1.367 1_554 S
C2617 C2615 1.424 . S
C2617 C2618 1.497 1_554 S
C2618 C2617 1.497 1_556 S
C2618 C2619 1.397 . S
C2618 C2623 1.363 . S
C2619 H2590 0.950 . S
C2619 C2618 1.397 . S
C2619 C2620 1.334 . S
C2620 H2591 0.950 . S
C2620 C2619 1.334 . S
C2620 C2621 1.287 . S
C2621 C2620 1.287 . S
C2621 C2622 1.524 . S
C2621 H2624 0.999 . S
C2622 H2592 0.950 . S
C2622 C2621 1.524 . S
C2622 C2623 1.415 . S
C2623 H2593 0.950 . S
C2623 C2618 1.363 . S
C2623 C2622 1.415 . S
H2624 C2621 0.999 . S
H2625 C2606 0.913 . S
H2626 C2644 0.951 . S
H2627 C2646 0.951 . S
H2628 C2648 0.950 . S
H2629 C2649 0.950 . S
H2630 C2651 0.950 . S
H2631 C2654 0.950 . S
H2632 C2655 0.950 . S
H2633 C2657 0.950 . S
H2634 C2658 0.950 . S
H2635 C2659 0.951 . S
H2636 C2661 0.951 . S
H2637 C2663 0.950 . S
H2638 C2664 0.950 . S
H2639 C2666 0.950 . S
H2640 C2669 0.950 . S
H2641 C2670 0.950 . S
H2642 C2672 0.950 . S
H2643 C2673 0.950 . S
C2644 H2626 0.951 . S
C2644 C2645 1.366 . S
C2644 C2646 1.388 . S
C2645 C2644 1.366 . S
C2645 C2649 1.385 . S
C2646 H2627 0.951 . S
C2646 C2644 1.388 . S
C2646 C2647 1.366 . S
C2647 C2646 1.366 . S
C2647 C2648 1.414 . S
C2647 C2650 1.499 . S
C2648 H2628 0.950 . S
C2648 C2647 1.414 . S
C2648 C2649 1.374 . S
C2649 H2629 0.950 . S
C2649 C2645 1.385 . S
C2649 C2648 1.374 . S
C2650 C2647 1.499 . S
C2650 C2651 1.373 . S
C2650 C2652 1.389 . S
C2651 H2630 0.950 . S
C2651 C2650 1.373 . S
C2651 C2667 1.377 . S
C2652 C2650 1.389 . S
C2652 C2653 1.524 . S
C2652 C2666 1.377 . S
C2653 C2652 1.524 . S
C2653 C2654 1.397 . S
C2653 C2658 1.363 . S
C2654 H2631 0.950 . S
C2654 C2653 1.397 . S
C2654 C2655 1.334 . S
C2655 H2632 0.950 . S
C2655 C2654 1.334 . S
C2655 C2656 1.287 . S
C2656 C2655 1.287 . S
C2656 C2657 1.524 . S
C2656 H2675 0.913 . S
C2657 H2633 0.950 . S
C2657 C2656 1.524 . S
C2657 C2658 1.415 . S
C2658 H2634 0.950 . S
C2658 C2653 1.363 . S
C2658 C2657 1.415 . S
C2659 H2635 0.951 . S
C2659 C2660 1.366 . S
C2659 C2661 1.388 . S
C2660 C2659 1.366 . S
C2660 C2664 1.385 . S
C2661 H2636 0.951 . S
C2661 C2659 1.388 . S
C2661 C2662 1.366 . S
C2662 C2661 1.366 . S
C2662 C2663 1.414 . S
C2662 C2665 1.499 . S
C2663 H2637 0.950 . S
C2663 C2662 1.414 . S
C2663 C2664 1.374 . S
C2664 H2638 0.950 . S
C2664 C2660 1.385 . S
C2664 C2663 1.374 . S
C2665 C2662 1.499 . S
C2665 C2666 1.373 . S
C2665 C2667 1.389 . S
C2666 H2639 0.950 . S
C2666 C2652 1.377 . S
C2666 C2665 1.373 . S
C2667 C2651 1.377 . S
C2667 C2665 1.389 . S
C2667 C2668 1.524 . S
C2668 C2667 1.524 . S
C2668 C2669 1.397 . S
C2668 C2673 1.363 . S
C2669 H2640 0.950 . S
C2669 C2668 1.397 . S
C2669 C2670 1.334 . S
C2670 H2641 0.950 . S
C2670 C2669 1.334 . S
C2670 C2671 1.287 . S
C2671 C2670 1.287 . S
C2671 C2672 1.524 . S
C2671 H2674 0.999 . S
C2672 H2642 0.950 . S
C2672 C2671 1.524 . S
C2672 C2673 1.415 . S
C2673 H2643 0.950 . S
C2673 C2668 1.363 . S
C2673 C2672 1.415 . S
H2674 C2671 0.999 . S
H2675 C2656 0.913 . S
H2676 C2694 0.951 . S
H2677 C2696 0.951 . S
H2678 C2698 0.950 . S
H2679 C2699 0.950 . S
H2680 C2701 0.950 . S
H2681 C2704 0.950 . S
H2682 C2705 0.950 . S
H2683 C2707 0.950 . S
H2684 C2708 0.950 . S
H2685 C2709 0.951 . S
H2686 C2711 0.951 . S
H2687 C2713 0.950 . S
H2688 C2714 0.950 . S
H2689 C2716 0.950 . S
H2690 C2719 0.950 . S
H2691 C2720 0.950 . S
H2692 C2722 0.950 . S
H2693 C2723 0.950 . S
C2694 H2676 0.951 . S
C2694 C2695 1.366 . S
C2694 C2696 1.388 . S
C2695 C2694 1.366 . S
C2695 C2699 1.385 . S
C2696 H2677 0.951 . S
C2696 C2694 1.388 . S
C2696 C2697 1.366 . S
C2697 C2696 1.366 . S
C2697 C2698 1.414 . S
C2697 C2700 1.499 . S
C2698 H2678 0.950 . S
C2698 C2697 1.414 . S
C2698 C2699 1.374 . S
C2699 H2679 0.950 . S
C2699 C2695 1.385 . S
C2699 C2698 1.374 . S
C2700 C2697 1.499 . S
C2700 C2701 1.373 . S
C2700 C2702 1.389 . S
C2701 H2680 0.950 . S
C2701 C2700 1.373 . S
C2701 C2717 1.377 . S
C2702 C2700 1.389 . S
C2702 C2703 1.524 . S
C2702 C2716 1.377 . S
C2703 C2702 1.524 . S
C2703 C2704 1.397 . S
C2703 C2708 1.363 . S
C2704 H2681 0.950 . S
C2704 C2703 1.397 . S
C2704 C2705 1.334 . S
C2705 H2682 0.950 . S
C2705 C2704 1.334 . S
C2705 C2706 1.287 . S
C2706 C2705 1.287 . S
C2706 C2707 1.524 . S
C2706 H2725 0.913 . S
C2707 H2683 0.950 . S
C2707 C2706 1.524 . S
C2707 C2708 1.415 . S
C2708 H2684 0.950 . S
C2708 C2703 1.363 . S
C2708 C2707 1.415 . S
C2709 H2685 0.951 . S
C2709 C2710 1.366 . S
C2709 C2711 1.388 . S
C2710 C2709 1.366 . S
C2710 C2714 1.385 . S
C2711 H2686 0.951 . S
C2711 C2709 1.388 . S
C2711 C2712 1.366 . S
C2712 C2711 1.366 . S
C2712 C2713 1.414 . S
C2712 C2715 1.499 . S
C2713 H2687 0.950 . S
C2713 C2712 1.414 . S
C2713 C2714 1.374 . S
C2714 H2688 0.950 . S
C2714 C2710 1.385 . S
C2714 C2713 1.374 . S
C2715 C2712 1.499 . S
C2715 C2716 1.373 . S
C2715 C2717 1.389 . S
C2716 H2689 0.950 . S
C2716 C2702 1.377 . S
C2716 C2715 1.373 . S
C2717 C2701 1.377 . S
C2717 C2715 1.389 . S
C2717 C2718 1.524 . S
C2718 C2717 1.524 . S
C2718 C2719 1.397 . S
C2718 C2723 1.363 . S
C2719 H2690 0.950 . S
C2719 C2718 1.397 . S
C2719 C2720 1.334 . S
C2720 H2691 0.950 . S
C2720 C2719 1.334 . S
C2720 C2721 1.287 . S
C2721 C2720 1.287 . S
C2721 C2722 1.524 . S
C2721 H2724 0.999 . S
C2722 H2692 0.950 . S
C2722 C2721 1.524 . S
C2722 C2723 1.415 . S
C2723 H2693 0.950 . S
C2723 C2718 1.363 . S
C2723 C2722 1.415 . S
H2724 C2721 0.999 . S
H2725 C2706 0.913 . S
H2726 C2744 0.951 . S
H2727 C2746 0.951 . S
H2728 C2748 0.950 1_556 S
H2729 C2749 0.953 1_556 S
H2730 C2751 0.950 1_556 S
H2731 C2754 0.950 . S
H2732 C2755 0.950 . S
H2733 C2757 0.950 . S
H2734 C2758 0.950 . S
H2735 C2759 0.951 . S
H2736 C2761 0.951 . S
H2737 C2763 0.950 . S
H2738 C2764 0.950 . S
H2739 C2766 0.950 . S
H2740 C2769 0.937 1_554 S
H2741 C2770 0.950 . S
H2742 C2772 0.950 . S
H2743 C2773 0.950 . S
C2744 H2726 0.951 . S
C2744 C2745 1.366 . S
C2744 C2746 1.388 . S
C2745 C2744 1.366 . S
C2745 C2749 1.385 . S
C2746 H2727 0.951 . S
C2746 C2744 1.388 . S
C2746 C2747 1.366 . S
C2747 C2746 1.366 . S
C2747 C2748 1.414 . S
C2747 C2750 1.499 . S
C2748 H2728 0.950 1_554 S
C2748 C2747 1.414 . S
C2748 C2749 1.374 . S
C2749 H2729 0.953 1_554 S
C2749 C2745 1.385 . S
C2749 C2748 1.374 . S
C2750 C2747 1.499 . S
C2750 C2751 1.373 . S
C2750 C2752 1.389 . S
C2751 H2730 0.950 1_554 S
C2751 C2750 1.373 . S
C2751 C2767 1.377 . S
C2752 C2750 1.389 . S
C2752 C2753 1.524 . S
C2752 C2766 1.377 . S
C2753 C2752 1.524 . S
C2753 C2754 1.397 1_565 S
C2753 C2758 1.363 . S
C2754 H2731 0.950 . S
C2754 C2753 1.397 1_545 S
C2754 C2755 1.334 . S
C2755 H2732 0.950 . S
C2755 C2754 1.334 . S
C2755 C2756 1.287 . S
C2756 C2755 1.287 . S
C2756 C2757 1.524 . S
C2756 H2775 0.913 . S
C2757 H2733 0.950 . S
C2757 C2756 1.524 . S
C2757 C2758 1.415 1_545 S
C2758 H2734 0.950 . S
C2758 C2753 1.363 . S
C2758 C2757 1.415 1_565 S
C2759 H2735 0.951 . S
C2759 C2760 1.366 1_556 S
C2759 C2761 1.388 . S
C2760 C2759 1.366 1_554 S
C2760 C2764 1.385 . S
C2761 H2736 0.951 . S
C2761 C2759 1.388 . S
C2761 C2762 1.366 1_556 S
C2762 C2761 1.366 1_554 S
C2762 C2763 1.414 . S
C2762 C2765 1.499 . S
C2763 H2737 0.950 . S
C2763 C2762 1.414 . S
C2763 C2764 1.374 . S
C2764 H2738 0.950 . S
C2764 C2760 1.385 . S
C2764 C2763 1.374 . S
C2765 C2762 1.499 . S
C2765 C2766 1.373 . S
C2765 C2767 1.389 . S
C2766 H2739 0.950 . S
C2766 C2752 1.377 . S
C2766 C2765 1.373 . S
C2767 C2751 1.377 . S
C2767 C2765 1.389 . S
C2767 C2768 1.524 1_554 S
C2768 C2767 1.524 1_556 S
C2768 C2769 1.402 . S
C2768 C2773 1.363 . S
C2769 H2740 0.937 1_556 S
C2769 C2768 1.402 . S
C2769 C2770 1.341 . S
C2770 H2741 0.950 . S
C2770 C2769 1.341 . S
C2770 C2771 1.287 . S
C2771 C2770 1.287 . S
C2771 C2772 1.524 . S
C2771 H2774 0.999 . S
C2772 H2742 0.950 . S
C2772 C2771 1.524 . S
C2772 C2773 1.415 . S
C2773 H2743 0.950 . S
C2773 C2768 1.363 . S
C2773 C2772 1.415 . S
H2774 C2771 0.999 . S
H2775 C2756 0.913 . S
C410 C219 1.725 . S
C395 C73 1.764 . S
C460 C227 1.098 . S
C445 C82 1.238 1_455 S
C495 C100 1.808 . S
C510 C247 1.767 1_556 S
C560 C261 1.286 . S
C545 C56 1.271 . S
C610 C276 1.373 . S
C595 C134 1.347 . S
C660 C290 1.776 . S
C645 C165 1.761 . S
C695 C147 1.189 . S
C710 C304 1.226 . S
C760 C310 1.807 . S
C745 C125 1.859 . S
C795 C151 1.409 . S
C810 C324 1.378 . S
C860 C345 1.457 . S
C845 C121 1.443 . S
C895 C139 1.753 . S
C910 C325 1.497 . S
C960 C346 1.294 . S
C945 C164 1.292 . S
C995 C95 1.248 . S
C1010 C353 1.109 . S
C1045 C61 1.526 . S
C1060 C359 1.507 . S
C1095 C74 1.394 . S
C1110 C352 1.363 . S
C1145 C86 1.752 . S
C1160 C360 1.755 . S
C1195 C47 1.368 . S
C1210 C254 1.316 1_565 S
C1245 C186 1.257 . S
C1260 C255 1.081 . S
C1310 C212 1.487 1_556 S
C1295 C204 1.549 . S
C1360 C233 1.833 . S
C1345 C112 1.879 . S
C1395 C60 1.347 1_545 S
C1410 C268 1.304 . S
C1460 C318 1.446 . S
C1445 C152 1.438 . S
C1510 C269 1.642 . S
C1495 C126 1.914 . S
C1560 C297 1.072 . S
C1545 C160 1.286 . S
C1610 C303 1.724 . S
C1595 C190 1.764 . S
C1645 C199 1.238 . S
C1660 C311 1.099 . S
C1695 C113 1.808 . S
C1710 C275 1.767 . S
C1760 C289 1.285 . S
C1745 C173 1.272 . S
C1795 C43 1.348 . S
C1810 C248 1.373 . S
C1860 C262 1.776 . S
C1845 C9 1.735 1_655 S
C1910 C220 1.226 . S
C1895 C17 1.188 . S
C1960 C226 1.807 . S
C1945 C34 1.859 1_455 S
C1995 C21 1.409 . S
C2010 C338 1.377 . S
C2045 C30 1.444 . S
C2060 C331 1.456 . S
C2095 C48 1.753 . S
C2110 C339 1.495 . S
C2145 C8 1.292 . S
C2160 C332 1.294 . S
C2210 C367 1.108 . S
C2195 C108 1.248 . S
C2260 C373 1.507 . S
C2245 C178 1.526 . S
C2310 C366 1.363 . S
C2295 C191 1.394 . S
C2345 C203 1.753 . S
C2360 C374 1.755 . S
C2395 C138 1.368 . S
C2410 C282 1.316 . S
C2460 C283 1.078 . S
C2445 C69 1.257 . S
C2510 C296 1.488 . S
C2495 C87 1.549 . S
C2560 C317 1.834 . S
C2545 C99 1.878 . S
C2595 C177 1.347 . S
C2610 C240 1.303 . S
C2660 C234 1.446 . S
C2645 C22 1.438 . S
C2695 C35 1.914 . S
C2710 C241 1.641 . S
C2760 C213 1.072 . S
C2745 C4 1.286 1_565 S
