# Generated by pormake.
# Topology nom, (4,4)-cn, num edge types: 1
# Building blocks:
#     Node 0, Type 0, BuildingBlock: NAWXER_clean_linker_0, # of connection points: 4
#     Node 1, Type 0, BuildingBlock: NAWXER_clean_linker_0, # of connection points: 4
#     Node 2, Type 0, BuildingBlock: NAWXER_clean_linker_0, # of connection points: 4
#     Node 3, Type 0, BuildingBlock: NAWXER_clean_linker_0, # of connection points: 4
#     Node 4, Type 0, BuildingBlock: NAWXER_clean_linker_0, # of connection points: 4
#     Node 5, Type 0, BuildingBlock: NAWXER_clean_linker_0, # of connection points: 4
#     Node 6, Type 1, BuildingBlock: QUQFOY_clean_sbu_1, # of connection points: 4
#     Node 7, Type 1, BuildingBlock: QUQFOY_clean_sbu_1, # of connection points: 4
#     Node 8, Type 1, BuildingBlock: QUQFOY_clean_sbu_1, # of connection points: 4
#     Node 9, Type 1, BuildingBlock: QUQFOY_clean_sbu_1, # of connection points: 4
#     Node 10, Type 1, BuildingBlock: QUQFOY_clean_sbu_1, # of connection points: 4
#     Node 11, Type 1, BuildingBlock: QUQFOY_clean_sbu_1, # of connection points: 4
#     Edge 12, Type (0, 1), BuildingBlock: UVAHIK_clean_linker_0, # of connection points: 2
#     Edge 13, Type (0, 1), BuildingBlock: UVAHIK_clean_linker_0, # of connection points: 2
#     Edge 14, Type (0, 1), BuildingBlock: UVAHIK_clean_linker_0, # of connection points: 2
#     Edge 15, Type (0, 1), BuildingBlock: UVAHIK_clean_linker_0, # of connection points: 2
#     Edge 16, Type (0, 1), BuildingBlock: UVAHIK_clean_linker_0, # of connection points: 2
#     Edge 17, Type (0, 1), BuildingBlock: UVAHIK_clean_linker_0, # of connection points: 2
#     Edge 18, Type (0, 1), BuildingBlock: UVAHIK_clean_linker_0, # of connection points: 2
#     Edge 19, Type (0, 1), BuildingBlock: UVAHIK_clean_linker_0, # of connection points: 2
#     Edge 20, Type (0, 1), BuildingBlock: UVAHIK_clean_linker_0, # of connection points: 2
#     Edge 21, Type (0, 1), BuildingBlock: UVAHIK_clean_linker_0, # of connection points: 2
#     Edge 22, Type (0, 1), BuildingBlock: UVAHIK_clean_linker_0, # of connection points: 2
#     Edge 23, Type (0, 1), BuildingBlock: UVAHIK_clean_linker_0, # of connection points: 2
#     Edge 24, Type (0, 1), BuildingBlock: UVAHIK_clean_linker_0, # of connection points: 2
#     Edge 25, Type (0, 1), BuildingBlock: UVAHIK_clean_linker_0, # of connection points: 2
#     Edge 26, Type (0, 1), BuildingBlock: UVAHIK_clean_linker_0, # of connection points: 2
#     Edge 27, Type (0, 1), BuildingBlock: UVAHIK_clean_linker_0, # of connection points: 2
#     Edge 28, Type (0, 1), BuildingBlock: UVAHIK_clean_linker_0, # of connection points: 2
#     Edge 29, Type (0, 1), BuildingBlock: UVAHIK_clean_linker_0, # of connection points: 2
#     Edge 30, Type (0, 1), BuildingBlock: UVAHIK_clean_linker_0, # of connection points: 2
#     Edge 31, Type (0, 1), BuildingBlock: UVAHIK_clean_linker_0, # of connection points: 2
#     Edge 32, Type (0, 1), BuildingBlock: UVAHIK_clean_linker_0, # of connection points: 2
#     Edge 33, Type (0, 1), BuildingBlock: UVAHIK_clean_linker_0, # of connection points: 2
#     Edge 34, Type (0, 1), BuildingBlock: UVAHIK_clean_linker_0, # of connection points: 2
#     Edge 35, Type (0, 1), BuildingBlock: UVAHIK_clean_linker_0, # of connection points: 2
# Relax obj value: 0.025
# Max RMSD: 0.129
# Mean RMSD: 0.123
data_MOF--net-nom--node1-QUQFOY_clean_sbu_1--node2-NAWXER_clean_linker_0--edge1-UVAHIK_clean_linker_0
_symmetry_space_group_name_H-M    P1
_symmetry_Int_Tables_number       1
_symmetry_cell_setting            triclinic
loop_
_symmetry_equiv_pos_as_xyz
'x, y, z'
_cell_length_a     67.533402
_cell_length_b     67.502322
_cell_length_c     68.401183
_cell_angle_alpha  89.96686
_cell_angle_beta   90.028088
_cell_angle_gamma 120.00564
loop_
_atom_site_label
_atom_site_type_symbol
_atom_site_fract_x
_atom_site_fract_y
_atom_site_fract_z
_atom_type_partial_charge
C0 C 0.92937 0.47775 0.33968 0.0
C1 C 0.92011 0.45837 0.35186 0.0
C2 C 0.95202 0.48797 0.33345 0.0
C3 C 0.9659 0.47895 0.33909 0.0
C4 C 0.93424 0.44974 0.35799 0.0
C5 C 0.957 0.46003 0.35171 0.0
C6 C 0.98977 0.48965 0.33206 0.0
C7 C 0.94549 0.45616 0.27943 0.0
C8 C 0.94523 0.47212 0.2663 0.0
C9 C 0.9617 0.46333 0.29442 0.0
C10 C 0.97809 0.48655 0.29648 0.0
C11 C 0.96169 0.49541 0.26857 0.0
C12 C 0.97811 0.5025 0.28335 0.0
C13 C 0.99546 0.4943 0.31211 0.0
C14 C 0.09721 0.53212 0.31011 0.0
C15 C 0.10354 0.55084 0.2975 0.0
C16 C 0.07497 0.51993 0.31763 0.0
C17 C 0.05875 0.52633 0.31273 0.0
C18 C 0.08711 0.55702 0.2926 0.0
C19 C 0.06494 0.54478 0.29999 0.0
C20 C 0.03506 0.51366 0.32022 0.0
C21 C 0.0806 0.54886 0.37156 0.0
C22 C 0.07807 0.53469 0.38749 0.0
C23 C 0.06481 0.5407 0.35624 0.0
C24 C 0.0467 0.51791 0.35619 0.0
C25 C 0.05963 0.51216 0.3878 0.0
C26 C 0.04413 0.50382 0.37225 0.0
C27 C 0.02945 0.50906 0.34028 0.0
H28 H 0.9192 0.48525 0.33515 0.0
H29 H 0.95873 0.50305 0.32428 0.0
H30 H 0.92761 0.43485 0.36738 0.0
H31 H 0.96753 0.45298 0.3564 0.0
H32 H 0.93345 0.43805 0.27795 0.0
H33 H 0.96164 0.45071 0.30424 0.0
H34 H 0.96182 0.50829 0.25904 0.0
H35 H 0.9906 0.52051 0.28476 0.0
H36 H 0.10932 0.52669 0.31398 0.0
H37 H 0.0704 0.50543 0.32714 0.0
H38 H 0.09144 0.5716 0.28328 0.0
H39 H 0.05268 0.54998 0.296 0.0
H40 H 0.09445 0.56645 0.37124 0.0
H41 H 0.06661 0.55239 0.34464 0.0
H42 H 0.05732 0.50098 0.40001 0.0
H43 H 0.03011 0.48633 0.37276 0.0
N44 N 0.00695 0.49707 0.3454 0.0
N45 N 0.01783 0.50621 0.30696 0.0
C46 C 0.39147 0.92692 0.5146 0.0
C47 C 0.40421 0.92095 0.52709 0.0
C48 C 0.40144 0.9487 0.50624 0.0
C49 C 0.42437 0.96492 0.51012 0.0
C50 C 0.42708 0.93732 0.53115 0.0
C51 C 0.43701 0.95916 0.52286 0.0
C52 C 0.43508 0.98804 0.5013 0.0
C53 C 0.42705 0.9418 0.45121 0.0
C54 C 0.40885 0.93762 0.43864 0.0
C55 C 0.43475 0.95907 0.46523 0.0
C56 C 0.42463 0.97274 0.46687 0.0
C57 C 0.3986 0.9513 0.44052 0.0
C58 C 0.40663 0.9689 0.45436 0.0
C59 C 0.43367 0.99164 0.48113 0.0
C60 C 0.50293 0.0897 0.47012 0.0
C61 C 0.49099 0.09906 0.46057 0.0
C62 C 0.49119 0.06789 0.47838 0.0
C63 C 0.4673 0.05485 0.47715 0.0
C64 C 0.46699 0.08572 0.45919 0.0
C65 C 0.45529 0.06372 0.46722 0.0
C66 C 0.45496 0.03191 0.48613 0.0
C67 C 0.47671 0.08357 0.53433 0.0
C68 C 0.4933 0.08353 0.54673 0.0
C69 C 0.46462 0.0656 0.52121 0.0
C70 C 0.46898 0.04734 0.52022 0.0
C71 C 0.49731 0.06502 0.54592 0.0
C72 C 0.48517 0.04704 0.53287 0.0
C73 C 0.45659 0.02833 0.50627 0.0
H74 H 0.37385 0.91466 0.5111 0.0
H75 H 0.39116 0.95289 0.49682 0.0
H76 H 0.43723 0.93332 0.54092 0.0
H77 H 0.45467 0.97148 0.5262 0.0
H78 H 0.43584 0.93214 0.44994 0.0
H79 H 0.44899 0.96209 0.47453 0.0
H80 H 0.38435 0.94844 0.43134 0.0
H81 H 0.39867 0.97937 0.45542 0.0
H82 H 0.52141 0.09913 0.47109 0.0
H83 H 0.50079 0.06113 0.4857 0.0
H84 H 0.45713 0.09239 0.45222 0.0
H85 H 0.43683 0.05384 0.46609 0.0
H86 H 0.47326 0.09761 0.53462 0.0
H87 H 0.45182 0.06594 0.5119 0.0
H88 H 0.5097 0.06432 0.55554 0.0
H89 H 0.48864 0.03301 0.53248 0.0
N90 N 0.44665 0.00652 0.5131 0.0
N91 N 0.44354 0.01344 0.47427 0.0
C92 C 0.5677 0.49872 0.61441 0.0
C93 C 0.5535 0.48653 0.59858 0.0
C94 C 0.55995 0.50774 0.62894 0.0
C95 C 0.53767 0.50433 0.62817 0.0
C96 C 0.53144 0.48375 0.59758 0.0
C97 C 0.52364 0.49258 0.61221 0.0
C98 C 0.52892 0.51335 0.6436 0.0
C99 C 0.5426 0.46182 0.67247 0.0
C100 C 0.56041 0.47131 0.68628 0.0
C101 C 0.53306 0.47454 0.66526 0.0
C102 C 0.54129 0.49712 0.67155 0.0
C103 C 0.56822 0.49375 0.69292 0.0
C104 C 0.55865 0.50649 0.68568 0.0
C105 C 0.53139 0.51075 0.66379 0.0
C106 C 0.46996 0.54091 0.70092 0.0
C107 C 0.48325 0.552 0.71742 0.0
C108 C 0.47899 0.53383 0.68587 0.0
C109 C 0.50177 0.53858 0.68673 0.0
C110 C 0.50571 0.55606 0.71862 0.0
C111 C 0.51492 0.54949 0.70337 0.0
C112 C 0.5117 0.53099 0.67112 0.0
C113 C 0.48808 0.57574 0.64262 0.0
C114 C 0.4722 0.56496 0.62739 0.0
C115 C 0.50068 0.56606 0.65 0.0
C116 C 0.49716 0.54507 0.64271 0.0
C117 C 0.46983 0.54468 0.61938 0.0
C118 C 0.48206 0.53484 0.627 0.0
C119 C 0.5092 0.53359 0.65086 0.0
H120 H 0.58474 0.50112 0.61571 0.0
H121 H 0.5714 0.51737 0.64078 0.0
H122 H 0.52023 0.47493 0.58539 0.0
H123 H 0.50651 0.49002 0.61114 0.0
H124 H 0.53577 0.4444 0.66741 0.0
H125 H 0.51919 0.46671 0.6548 0.0
H126 H 0.58198 0.50161 0.70348 0.0
H127 H 0.56507 0.5238 0.69087 0.0
H128 H 0.45245 0.53729 0.69991 0.0
H129 H 0.4681 0.52451 0.67365 0.0
H130 H 0.5162 0.56453 0.73128 0.0
H131 H 0.53238 0.55299 0.70455 0.0
H132 H 0.49044 0.59137 0.64917 0.0
H133 H 0.51289 0.57482 0.66162 0.0
H134 H 0.45838 0.53625 0.60722 0.0
H135 H 0.47937 0.51892 0.62078 0.0
N136 N 0.51783 0.52452 0.63798 0.0
N137 N 0.52287 0.51984 0.67673 0.0
C138 C 0.92527 0.39338 0.81104 0.0
C139 C 0.92033 0.40226 0.79437 0.0
C140 C 0.94747 0.40392 0.81856 0.0
C141 C 0.96493 0.42407 0.80998 0.0
C142 C 0.93797 0.42163 0.78516 0.0
C143 C 0.96006 0.43249 0.79294 0.0
C144 C 0.98833 0.43636 0.81838 0.0
C145 C 0.94156 0.43609 0.865 0.0
C146 C 0.94067 0.4238 0.88191 0.0
C147 C 0.95856 0.44159 0.85099 0.0
C148 C 0.97477 0.43455 0.85341 0.0
C149 C 0.95724 0.4172 0.88448 0.0
C150 C 0.9742 0.42264 0.8704 0.0
C151 C 0.99283 0.44029 0.83864 0.0
C152 C 0.09405 0.50622 0.84155 0.0
C153 C 0.10041 0.49698 0.85716 0.0
C154 C 0.07211 0.49414 0.83353 0.0
C155 C 0.05623 0.47235 0.84066 0.0
C156 C 0.08418 0.47547 0.86466 0.0
C157 C 0.06232 0.46333 0.85652 0.0
C158 C 0.03293 0.45925 0.8323 0.0
C159 C 0.08266 0.46942 0.78436 0.0
C160 C 0.08128 0.48167 0.76829 0.0
C161 C 0.06533 0.46046 0.79846 0.0
C162 C 0.04661 0.46406 0.79694 0.0
C163 C 0.06213 0.48454 0.76649 0.0
C164 C 0.04497 0.47578 0.78064 0.0
C165 C 0.02847 0.45568 0.81202 0.0
H166 H 0.91197 0.37819 0.81815 0.0
H167 H 0.95091 0.39639 0.83116 0.0
H168 H 0.93452 0.42869 0.77224 0.0
H169 H 0.97326 0.44778 0.78587 0.0
H170 H 0.929 0.44131 0.86249 0.0
H171 H 0.95902 0.45134 0.83824 0.0
H172 H 0.95732 0.40811 0.8975 0.0
H173 H 0.98677 0.41736 0.8727 0.0
H174 H 0.10611 0.52266 0.83532 0.0
H175 H 0.06759 0.50184 0.82173 0.0
H176 H 0.08829 0.46804 0.87695 0.0
H177 H 0.0502 0.44674 0.8625 0.0
H178 H 0.09705 0.46665 0.78596 0.0
H179 H 0.06664 0.45085 0.81059 0.0
H180 H 0.06068 0.49408 0.75438 0.0
H181 H 0.03062 0.47863 0.77907 0.0
N182 N 0.00636 0.44444 0.8059 0.0
N183 N 0.01492 0.4513 0.8448 0.0
C184 C 0.48473 0.92963 0.97723 0.0
C185 C 0.46621 0.92118 0.96412 0.0
C186 C 0.49475 0.95201 0.98423 0.0
C187 C 0.48633 0.96637 0.97845 0.0
C188 C 0.45822 0.93582 0.95793 0.0
C189 C 0.46828 0.95825 0.96497 0.0
C190 C 0.49658 0.98996 0.98615 0.0
C191 C 0.46239 0.94237 0.03651 0.0
C192 C 0.47696 0.94472 0.05215 0.0
C193 C 0.4698 0.95876 0.02167 0.0
C194 C 0.49216 0.97756 0.02185 0.0
C195 C 0.49917 0.96385 0.0525 0.0
C196 C 0.50666 0.98008 0.03752 0.0
C197 C 0.5003 0.99519 0.00629 0.0
C198 C 0.53547 0.09659 0.00945 0.0
C199 C 0.55443 0.10347 0.0219 0.0
C200 C 0.52378 0.07433 0.00191 0.0
C201 C 0.53089 0.0586 0.00663 0.0
C202 C 0.56124 0.08747 0.0267 0.0
C203 C 0.54947 0.06525 0.0193 0.0
C204 C 0.519 0.03504 0.99879 0.0
C205 C 0.5536 0.08223 0.94803 0.0
C206 C 0.53938 0.0792 0.93201 0.0
C207 C 0.54588 0.06623 0.9632 0.0
C208 C 0.52348 0.04741 0.96298 0.0
C209 C 0.51727 0.06012 0.93147 0.0
C210 C 0.50936 0.04441 0.94686 0.0
C211 C 0.51509 0.02983 0.97863 0.0
H212 H 0.49168 0.91901 0.98191 0.0
H213 H 0.50913 0.95812 0.99417 0.0
H214 H 0.44394 0.92983 0.94792 0.0
H215 H 0.46166 0.96913 0.96017 0.0
H216 H 0.44524 0.92782 0.03565 0.0
H217 H 0.45797 0.95677 0.01013 0.0
H218 H 0.51069 0.96653 0.06451 0.0
H219 H 0.52386 0.99462 0.03815 0.0
H220 H 0.52952 0.10831 0.00567 0.0
H221 H 0.50919 0.06939 0.99244 0.0
H222 H 0.576 0.0922 0.0359 0.0
H223 H 0.5552 0.05336 0.02315 0.0
H224 H 0.57088 0.09663 0.94852 0.0
H225 H 0.55763 0.06843 0.97488 0.0
H226 H 0.50607 0.05744 0.91918 0.0
H227 H 0.49217 0.02987 0.94615 0.0
N228 N 0.50392 0.00746 0.97315 0.0
N229 N 0.51155 0.01752 0.01178 0.0
C230 C 0.53983 0.62818 0.17941 0.0
C231 C 0.52601 0.61914 0.19604 0.0
C232 C 0.55115 0.61746 0.17153 0.0
C233 C 0.5481 0.59698 0.17969 0.0
C234 C 0.52387 0.59938 0.20482 0.0
C235 C 0.53475 0.58834 0.19667 0.0
C236 C 0.55909 0.58469 0.17104 0.0
C237 C 0.5138 0.58675 0.12403 0.0
C238 C 0.52554 0.59927 0.10732 0.0
C239 C 0.52497 0.58092 0.13812 0.0
C240 C 0.54823 0.58784 0.13597 0.0
C241 C 0.54873 0.60582 0.10506 0.0
C242 C 0.55992 0.60006 0.11921 0.0
C243 C 0.56015 0.58152 0.1507 0.0
C244 C 0.59707 0.51675 0.14646 0.0
C245 C 0.61335 0.52709 0.13146 0.0
C246 C 0.58627 0.52792 0.1545 0.0
C247 C 0.59192 0.54989 0.14804 0.0
C248 C 0.61823 0.54869 0.12449 0.0
C249 C 0.6076 0.55993 0.13269 0.0
C250 C 0.58112 0.56229 0.15669 0.0
C251 C 0.61917 0.55003 0.20479 0.0
C252 C 0.60502 0.5371 0.22038 0.0
C253 C 0.61126 0.5596 0.19084 0.0
C254 C 0.58887 0.5559 0.19199 0.0
C255 C 0.58295 0.53413 0.22184 0.0
C256 C 0.57499 0.54347 0.20781 0.0
C257 C 0.57961 0.56496 0.17705 0.0
H258 H 0.54202 0.64366 0.17262 0.0
H259 H 0.56219 0.62518 0.15902 0.0
H260 H 0.51334 0.59218 0.21771 0.0
H261 H 0.53238 0.57279 0.20345 0.0
H262 H 0.49598 0.58153 0.12629 0.0
H263 H 0.51541 0.57094 0.15068 0.0
H264 H 0.55816 0.6151 0.0922 0.0
H265 H 0.57777 0.60525 0.11712 0.0
H266 H 0.59294 0.50019 0.15226 0.0
H267 H 0.57364 0.51944 0.16588 0.0
H268 H 0.63024 0.55694 0.11266 0.0
H269 H 0.61187 0.57667 0.12719 0.0
H270 H 0.63638 0.55287 0.20349 0.0
H271 H 0.62258 0.56976 0.17912 0.0
H272 H 0.5716 0.52411 0.2336 0.0
H273 H 0.55774 0.54054 0.2091 0.0
N274 N 0.56864 0.57602 0.18337 0.0
N275 N 0.5714 0.57076 0.14434 0.0
O276 O 0.61152 0.38668 0.4263 0.0
Cd277 Cd 0.61758 0.37354 0.40123 0.0
Cd278 Cd 0.66133 0.40608 0.40792 0.0
O279 O 0.64773 0.41017 0.43353 0.0
O280 O 0.59082 0.34236 0.39764 0.0
O281 O 0.62565 0.34888 0.40455 0.0
C282 C 0.60428 0.33444 0.40144 0.0
C283 C 0.69623 0.40676 0.40877 0.0
C284 C 0.62664 0.40122 0.43773 0.0
C285 C 0.63904 0.41034 0.37122 0.0
O286 O 0.65605 0.41956 0.38275 0.0
O287 O 0.6219 0.39096 0.37531 0.0
O288 O 0.69491 0.4249 0.41172 0.0
O289 O 0.67741 0.38773 0.40597 0.0
O290 O 0.24582 0.60183 0.60418 0.0
Cd291 Cd 0.26448 0.61672 0.57907 0.0
Cd292 Cd 0.25177 0.64729 0.58749 0.0
O293 O 0.24047 0.63001 0.61355 0.0
O294 O 0.28032 0.59906 0.57432 0.0
O295 O 0.29884 0.63598 0.5812 0.0
C296 C 0.29942 0.6175 0.57763 0.0
C297 C 0.27784 0.68631 0.58642 0.0
C298 C 0.23843 0.61052 0.61666 0.0
C299 C 0.23289 0.62063 0.55076 0.0
O300 O 0.23096 0.6333 0.56344 0.0
O301 O 0.24693 0.61352 0.5534 0.0
O302 O 0.25663 0.67868 0.59073 0.0
O303 O 0.28443 0.6716 0.58328 0.0
O304 O 0.63219 0.23442 0.75694 0.0
Cd305 Cd 0.64642 0.25649 0.73364 0.0
Cd306 Cd 0.61216 0.26451 0.74018 0.0
O307 O 0.60916 0.24711 0.76588 0.0
O308 O 0.67799 0.26186 0.73054 0.0
O309 O 0.67041 0.28894 0.73944 0.0
C310 C 0.68529 0.28273 0.73578 0.0
C311 C 0.6122 0.29905 0.74101 0.0
C312 C 0.61794 0.23457 0.76897 0.0
C313 C 0.61098 0.24099 0.70264 0.0
O314 O 0.5997 0.24586 0.71466 0.0
O315 O 0.63116 0.24558 0.70679 0.0
O316 O 0.59375 0.27976 0.74386 0.0
O317 O 0.631 0.2988 0.73823 0.0
O318 O 0.42062 0.65356 0.93602 0.0
Cd319 Cd 0.40825 0.66033 0.91069 0.0
Cd320 Cd 0.3743 0.61738 0.91682 0.0
O321 O 0.39021 0.62049 0.94317 0.0
O322 O 0.42713 0.69404 0.90752 0.0
O323 O 0.38987 0.67628 0.91297 0.0
C324 C 0.40888 0.6952 0.91041 0.0
C325 C 0.33527 0.60448 0.91556 0.0
C326 C 0.41006 0.63664 0.94752 0.0
C327 C 0.40254 0.62557 0.88087 0.0
O328 O 0.38813 0.6108 0.89258 0.0
O329 O 0.41158 0.64679 0.8846 0.0
O330 O 0.34289 0.59072 0.91908 0.0
O331 O 0.34999 0.62594 0.91326 0.0
O332 O 0.77792 0.37096 0.05017 0.0
Cd333 Cd 0.75809 0.36485 0.07495 0.0
Cd334 Cd 0.76798 0.40775 0.06841 0.0
O335 O 0.78041 0.40377 0.04217 0.0
O336 O 0.74208 0.33117 0.07886 0.0
O337 O 0.724 0.34988 0.07118 0.0
C338 C 0.72324 0.33072 0.07476 0.0
C339 C 0.74271 0.42172 0.0698 0.0
C340 C 0.7843 0.38761 0.03834 0.0
C341 C 0.78737 0.39947 0.10468 0.0
O342 O 0.78846 0.41428 0.09261 0.0
O343 O 0.77449 0.37828 0.10123 0.0
O344 O 0.76409 0.43493 0.0659 0.0
O345 O 0.73541 0.40015 0.07223 0.0
O346 O 0.41164 0.7898 0.22804 0.0
Cd347 Cd 0.40291 0.76966 0.25288 0.0
Cd348 Cd 0.36095 0.75997 0.2435 0.0
O349 O 0.37623 0.77602 0.21774 0.0
O350 O 0.42841 0.76368 0.25838 0.0
O351 O 0.39392 0.73683 0.24882 0.0
C352 C 0.4147 0.74271 0.25343 0.0
C353 C 0.32783 0.72432 0.24347 0.0
C354 C 0.39761 0.78863 0.21506 0.0
C355 C 0.38015 0.78639 0.28024 0.0
O356 O 0.36496 0.78056 0.26707 0.0
O357 O 0.39615 0.78181 0.27832 0.0
O358 O 0.32758 0.74246 0.23797 0.0
O359 O 0.34716 0.72627 0.2485 0.0
C360 C 0.14627 0.56931 0.3014 0.0
C361 C 0.12721 0.56425 0.28963 0.0
C362 C 0.16848 0.58365 0.29447 0.0
C363 C 0.19893 0.63177 0.26189 0.0
H364 H 0.24953 0.62019 0.26586 0.0
C365 C 0.28724 0.69844 0.23391 0.0
C366 C 0.30622 0.70238 0.24519 0.0
C367 C 0.2659 0.67916 0.23724 0.0
C368 C 0.23566 0.62381 0.26483 0.0
H369 H 0.11671 0.56912 0.26085 0.0
H370 H 0.15537 0.59466 0.2491 0.0
H371 H 0.21126 0.5908 0.27625 0.0
H372 H 0.31808 0.68893 0.26829 0.0
H373 H 0.28061 0.65575 0.2748 0.0
H374 H 0.22302 0.66499 0.25148 0.0
C375 C 0.15306 0.58763 0.26371 0.0
C376 C 0.21375 0.60692 0.27071 0.0
C377 C 0.13093 0.57312 0.27052 0.0
C378 C 0.30371 0.6862 0.25932 0.0
C379 C 0.2822 0.66713 0.26298 0.0
C380 C 0.22078 0.64873 0.25635 0.0
C381 C 0.17202 0.59337 0.27574 0.0
C382 C 0.19521 0.61077 0.26923 0.0
C383 C 0.26288 0.66367 0.25231 0.0
C384 C 0.23949 0.64502 0.25767 0.0
H385 H 0.14406 0.56295 0.31624 0.0
H386 H 0.18284 0.58796 0.30407 0.0
H387 H 0.18499 0.63532 0.26093 0.0
H388 H 0.28879 0.71052 0.22274 0.0
H389 H 0.25165 0.67674 0.22827 0.0
C390 C 0.496 0.12823 0.43505 0.0
C391 C 0.50353 0.12268 0.45232 0.0
C392 C 0.50757 0.15049 0.42758 0.0
C393 C 0.56292 0.20327 0.42697 0.0
H394 H 0.52804 0.23354 0.41685 0.0
C395 C 0.60611 0.30097 0.41504 0.0
C396 C 0.59495 0.30954 0.40342 0.0
C397 C 0.59571 0.27754 0.41901 0.0
C398 C 0.53807 0.22529 0.41914 0.0
H399 H 0.52922 0.13658 0.47528 0.0
H400 H 0.54976 0.17511 0.46178 0.0
H401 H 0.50838 0.19375 0.42727 0.0
H402 H 0.56489 0.30026 0.38579 0.0
H403 H 0.54727 0.25937 0.39184 0.0
H404 H 0.59259 0.23455 0.41855 0.0
C405 C 0.5349 0.16211 0.45408 0.0
C406 C 0.52675 0.20249 0.42524 0.0
C407 C 0.52313 0.13997 0.46174 0.0
C408 C 0.57378 0.29414 0.39499 0.0
C409 C 0.56359 0.2707 0.39863 0.0
C410 C 0.57424 0.22599 0.42054 0.0
C411 C 0.52714 0.16761 0.43701 0.0
C412 C 0.53909 0.19136 0.42944 0.0
C413 C 0.57409 0.2621 0.41114 0.0
C414 C 0.56201 0.23743 0.41676 0.0
H415 H 0.48128 0.11535 0.42716 0.0
H416 H 0.50136 0.1543 0.41431 0.0
H417 H 0.57279 0.19496 0.42995 0.0
H418 H 0.62239 0.31248 0.42184 0.0
H419 H 0.60427 0.27172 0.42889 0.0
C420 C 0.46606 0.59803 0.61905 0.0
C421 C 0.45766 0.57429 0.62014 0.0
C422 C 0.45212 0.60646 0.61222 0.0
C423 C 0.40204 0.59088 0.58154 0.0
H424 H 0.39122 0.63168 0.61387 0.0
C425 C 0.3206 0.59619 0.57462 0.0
C426 C 0.32098 0.61682 0.57841 0.0
C427 C 0.34021 0.59454 0.57712 0.0
C428 C 0.3944 0.62071 0.60441 0.0
H429 H 0.42759 0.54092 0.61544 0.0
H430 H 0.40381 0.55565 0.60295 0.0
H431 H 0.42054 0.62239 0.62336 0.0
H432 H 0.34252 0.6522 0.58713 0.0
H433 H 0.37705 0.6494 0.59126 0.0
H434 H 0.37589 0.5889 0.56267 0.0
C435 C 0.42124 0.56769 0.60721 0.0
C436 C 0.41115 0.61535 0.60991 0.0
C437 C 0.43497 0.55928 0.6143 0.0
C438 C 0.34168 0.63605 0.58413 0.0
C439 C 0.36141 0.6344 0.58661 0.0
C440 C 0.38552 0.59642 0.57593 0.0
C441 C 0.42966 0.59133 0.60607 0.0
C442 C 0.41457 0.59981 0.59883 0.0
C443 C 0.3608 0.6135 0.58339 0.0
C444 C 0.38093 0.61077 0.58764 0.0
H445 H 0.48349 0.61013 0.62321 0.0
H446 H 0.45899 0.62478 0.61145 0.0
H447 H 0.40463 0.57913 0.57258 0.0
H448 H 0.30495 0.58102 0.57023 0.0
H449 H 0.33891 0.57806 0.57484 0.0
C450 C 0.87887 0.38892 0.79903 0.0
C451 C 0.89672 0.39154 0.7868 0.0
C452 C 0.85655 0.37906 0.79187 0.0
C453 C 0.81773 0.33769 0.75765 0.0
H454 H 0.78309 0.36925 0.76063 0.0
C455 C 0.72592 0.29507 0.72815 0.0
C456 C 0.70998 0.2985 0.73853 0.0
C457 C 0.74926 0.30837 0.73214 0.0
C458 C 0.79234 0.36001 0.75992 0.0
H459 H 0.90544 0.38586 0.75769 0.0
H460 H 0.86605 0.36775 0.74531 0.0
H461 H 0.82267 0.38829 0.77198 0.0
H462 H 0.70582 0.31878 0.76093 0.0
H463 H 0.74639 0.34126 0.76868 0.0
H464 H 0.78742 0.30896 0.74672 0.0
C465 C 0.86948 0.37368 0.7603 0.0
C466 C 0.81506 0.37103 0.76631 0.0
C467 C 0.89191 0.38403 0.76734 0.0
C468 C 0.71781 0.31591 0.75261 0.0
C469 C 0.74114 0.32888 0.75696 0.0
C470 C 0.7949 0.32647 0.75168 0.0
C471 C 0.85166 0.37122 0.7725 0.0
C472 C 0.82789 0.35993 0.76523 0.0
C473 C 0.75718 0.32503 0.74701 0.0
C474 C 0.78183 0.33744 0.75272 0.0
H475 H 0.88227 0.39473 0.81407 0.0
H476 H 0.84302 0.37718 0.80155 0.0
H477 H 0.82728 0.32873 0.7569 0.0
H478 H 0.72032 0.28189 0.71706 0.0
H479 H 0.76102 0.30531 0.7237 0.0
C480 C 0.45199 0.87944 0.96967 0.0
C481 C 0.45546 0.89723 0.95691 0.0
C482 C 0.44294 0.85708 0.96279 0.0
C483 C 0.43735 0.82518 0.91762 0.0
H484 H 0.39828 0.7728 0.95002 0.0
C485 C 0.43109 0.73781 0.90817 0.0
C486 C 0.41023 0.71772 0.91181 0.0
C487 C 0.4333 0.75925 0.91126 0.0
C488 C 0.40887 0.78718 0.94062 0.0
H489 H 0.45165 0.90532 0.92695 0.0
H490 H 0.43543 0.86618 0.915 0.0
H491 H 0.4074 0.81099 0.96038 0.0
H492 H 0.37504 0.70439 0.92086 0.0
H493 H 0.37888 0.74201 0.92618 0.0
H494 H 0.43891 0.80139 0.89791 0.0
C495 C 0.43999 0.86961 0.9303 0.0
C496 C 0.41434 0.80912 0.94669 0.0
C497 C 0.44908 0.892 0.93719 0.0
C498 C 0.39136 0.71956 0.91796 0.0
C499 C 0.39359 0.74109 0.92112 0.0
C500 C 0.43185 0.80325 0.91154 0.0
C501 C 0.43705 0.85192 0.94298 0.0
C502 C 0.42908 0.82843 0.93549 0.0
C503 C 0.41471 0.76118 0.91808 0.0
C504 C 0.418 0.78405 0.9232 0.0
H505 H 0.45641 0.88281 0.98501 0.0
H506 H 0.44117 0.84397 0.97293 0.0
H507 H 0.44885 0.83965 0.90868 0.0
H508 H 0.44597 0.73702 0.9034 0.0
H509 H 0.44989 0.77431 0.90903 0.0
C510 C 0.64889 0.52857 0.11855 0.0
C511 C 0.62557 0.51566 0.1234 0.0
C512 C 0.6606 0.51792 0.11142 0.0
C513 C 0.65213 0.46382 0.08955 0.0
H514 H 0.71443 0.48707 0.10732 0.0
C515 C 0.7045 0.4175 0.07799 0.0
C516 C 0.72758 0.43147 0.07274 0.0
C517 C 0.69104 0.42724 0.08272 0.0
C518 C 0.69712 0.48052 0.10207 0.0
H519 H 0.59621 0.48132 0.12413 0.0
H520 H 0.61685 0.46265 0.11237 0.0
H521 H 0.69299 0.50492 0.11875 0.0
H522 H 0.75432 0.46652 0.06752 0.0
H523 H 0.7309 0.48338 0.07578 0.0
H524 H 0.65634 0.43905 0.07317 0.0
C525 C 0.626 0.4811 0.11379 0.0
C526 C 0.68482 0.49079 0.10858 0.0
C527 C 0.61423 0.49179 0.12079 0.0
C528 C 0.73665 0.45525 0.07162 0.0
C529 C 0.72328 0.46496 0.07645 0.0
C530 C 0.66443 0.4534 0.08315 0.0
C531 C 0.64938 0.49402 0.10913 0.0
C532 C 0.66223 0.48271 0.1023 0.0
C533 C 0.70048 0.45112 0.08242 0.0
C534 C 0.68711 0.46178 0.08924 0.0
H535 H 0.65829 0.54694 0.12057 0.0
H536 H 0.6785 0.52848 0.1077 0.0
H537 H 0.63486 0.4573 0.08425 0.0
H538 H 0.69701 0.39911 0.07897 0.0
H539 H 0.67353 0.41616 0.08734 0.0
C540 C 0.37132 0.88731 0.54343 0.0
C541 C 0.39361 0.89771 0.53579 0.0
C542 C 0.36107 0.86519 0.55113 0.0
C543 C 0.363 0.81193 0.54813 0.0
H544 H 0.32588 0.7959 0.59503 0.0
C545 C 0.31652 0.71961 0.57834 0.0
C546 C 0.29372 0.71118 0.58412 0.0
C547 C 0.33081 0.74295 0.57457 0.0
C548 C 0.33607 0.80006 0.58184 0.0
H549 H 0.42265 0.89307 0.5303 0.0
H550 H 0.40474 0.8544 0.54383 0.0
H551 H 0.34681 0.83566 0.58424 0.0
H552 H 0.26825 0.72074 0.59103 0.0
H553 H 0.29296 0.76119 0.58424 0.0
H554 H 0.35182 0.77629 0.54539 0.0
C555 C 0.3952 0.86337 0.5438 0.0
C556 C 0.34807 0.82284 0.57568 0.0
C557 C 0.40552 0.88558 0.53621 0.0
C558 C 0.28574 0.72665 0.58663 0.0
C559 C 0.29998 0.74993 0.58284 0.0
C560 C 0.35093 0.78912 0.55424 0.0
C561 C 0.37282 0.8529 0.55127 0.0
C562 C 0.36141 0.82899 0.55861 0.0
C563 C 0.3226 0.75834 0.57651 0.0
C564 C 0.33704 0.78285 0.57102 0.0
H565 H 0.3618 0.8963 0.54349 0.0
H566 H 0.34372 0.85751 0.55658 0.0
H567 H 0.37293 0.81607 0.53479 0.0
H568 H 0.32321 0.70813 0.57634 0.0
H569 H 0.34824 0.74891 0.56998 0.0
C570 C 0.57444 0.44358 0.68111 0.0
C571 C 0.57057 0.45768 0.69379 0.0
C572 C 0.58287 0.42985 0.68825 0.0
C573 C 0.58593 0.40204 0.73353 0.0
H574 H 0.62579 0.38877 0.70227 0.0
C575 C 0.59052 0.31999 0.74308 0.0
C576 C 0.61129 0.32047 0.73981 0.0
C577 C 0.58876 0.33949 0.74003 0.0
C578 C 0.61496 0.39253 0.71137 0.0
H579 H 0.57303 0.46873 0.72391 0.0
H580 H 0.58822 0.44508 0.73631 0.0
H581 H 0.61769 0.41848 0.69173 0.0
H582 H 0.64681 0.3421 0.73154 0.0
H583 H 0.64379 0.37635 0.72636 0.0
H584 H 0.58316 0.37607 0.75314 0.0
C585 C 0.58442 0.44444 0.72086 0.0
C586 C 0.61007 0.40937 0.70518 0.0
C587 C 0.57594 0.45817 0.71372 0.0
C588 C 0.63054 0.34116 0.73413 0.0
C589 C 0.62878 0.36074 0.73105 0.0
C590 C 0.59086 0.38525 0.73973 0.0
C591 C 0.58774 0.42991 0.70824 0.0
C592 C 0.59506 0.41395 0.71594 0.0
C593 C 0.60775 0.36001 0.73365 0.0
C594 C 0.60499 0.3799 0.72848 0.0
H595 H 0.57081 0.44304 0.66563 0.0
H596 H 0.58495 0.41868 0.67813 0.0
H597 H 0.5742 0.40499 0.74213 0.0
H598 H 0.57535 0.30434 0.74746 0.0
H599 H 0.57223 0.33818 0.74192 0.0
C600 C 0.13514 0.49774 0.8713 0.0
C601 C 0.12392 0.50959 0.86548 0.0
C602 C 0.15729 0.50951 0.87889 0.0
C603 C 0.20948 0.5655 0.8785 0.0
H604 H 0.22602 0.54153 0.92325 0.0
C605 C 0.30188 0.61011 0.90861 0.0
C606 C 0.31043 0.59551 0.91326 0.0
C607 C 0.27853 0.60115 0.90496 0.0
C608 C 0.22173 0.54838 0.91066 0.0
H609 H 0.12721 0.54321 0.86345 0.0
H610 H 0.16612 0.56378 0.87635 0.0
H611 H 0.18632 0.52278 0.9124 0.0
H612 H 0.30111 0.56013 0.91818 0.0
H613 H 0.26072 0.54457 0.91153 0.0
H614 H 0.24495 0.59064 0.87632 0.0
C615 C 0.1577 0.54535 0.87493 0.0
C616 C 0.19898 0.53765 0.90448 0.0
C617 C 0.13544 0.53355 0.86748 0.0
C618 C 0.2951 0.57188 0.91469 0.0
C619 C 0.27185 0.56295 0.91099 0.0
C620 C 0.23228 0.57615 0.8846 0.0
C621 C 0.16885 0.53345 0.88071 0.0
C622 C 0.19267 0.54588 0.88815 0.0
C623 C 0.26328 0.57741 0.90586 0.0
C624 C 0.23875 0.56749 0.90056 0.0
H625 H 0.127 0.47936 0.86963 0.0
H626 H 0.16559 0.49991 0.88291 0.0
H627 H 0.20515 0.57211 0.86576 0.0
H628 H 0.31325 0.62841 0.90746 0.0
H629 H 0.27245 0.6128 0.9013 0.0
C630 C 0.5716 0.14609 0.01781 0.0
C631 C 0.56748 0.12728 0.02958 0.0
C632 C 0.58555 0.16848 0.02453 0.0
C633 C 0.63435 0.20059 0.05596 0.0
H634 H 0.62001 0.24944 0.0534 0.0
C635 C 0.69911 0.2897 0.08384 0.0
C636 C 0.70182 0.30859 0.07309 0.0
C637 C 0.68038 0.26798 0.08052 0.0
C638 C 0.62441 0.23608 0.05401 0.0
H639 H 0.57367 0.11745 0.05819 0.0
H640 H 0.59859 0.15646 0.06952 0.0
H641 H 0.59143 0.21072 0.04324 0.0
H642 H 0.68676 0.31987 0.05091 0.0
H643 H 0.65453 0.28174 0.04435 0.0
H644 H 0.66752 0.22565 0.0657 0.0
C645 C 0.59109 0.15379 0.05508 0.0
C646 C 0.60799 0.21391 0.04828 0.0
C647 C 0.57694 0.13146 0.0485 0.0
C648 C 0.68497 0.30556 0.05948 0.0
C649 C 0.66645 0.28368 0.05579 0.0
C650 C 0.65085 0.22272 0.06134 0.0
C651 C 0.59584 0.1725 0.04304 0.0
C652 C 0.61282 0.19598 0.0493 0.0
C653 C 0.66422 0.26448 0.06594 0.0
C654 C 0.64614 0.24081 0.06056 0.0
H655 H 0.56481 0.14357 0.00311 0.0
H656 H 0.5891 0.18265 0.01493 0.0
H657 H 0.63865 0.18714 0.05655 0.0
H658 H 0.71173 0.29165 0.09461 0.0
H659 H 0.67891 0.25384 0.08912 0.0
C660 C 0.49822 0.63301 0.19216 0.0
C661 C 0.51356 0.63012 0.20403 0.0
C662 C 0.48622 0.64319 0.1997 0.0
C663 C 0.49025 0.68513 0.2338 0.0
H664 H 0.42402 0.6541 0.23227 0.0
C665 C 0.44271 0.73016 0.262 0.0
C666 C 0.42322 0.72647 0.25163 0.0
C667 C 0.45238 0.71638 0.25863 0.0
C668 C 0.44252 0.66319 0.23259 0.0
H669 H 0.52865 0.63565 0.23286 0.0
H670 H 0.50821 0.65436 0.24589 0.0
H671 H 0.44385 0.63437 0.2209 0.0
H672 H 0.39823 0.70523 0.22993 0.0
H673 H 0.41561 0.68194 0.22327 0.0
H674 H 0.48936 0.71441 0.24427 0.0
C675 C 0.50524 0.64837 0.2309 0.0
C676 C 0.45381 0.65177 0.2262 0.0
C677 C 0.51685 0.63769 0.2235 0.0
C678 C 0.41316 0.70833 0.23825 0.0
C679 C 0.42313 0.69488 0.23453 0.0
C680 C 0.47903 0.69675 0.23977 0.0
C681 C 0.48977 0.65109 0.21907 0.0
C682 C 0.47775 0.6627 0.22668 0.0
C683 C 0.44314 0.69895 0.24442 0.0
C684 C 0.45498 0.68601 0.23915 0.0
H685 H 0.49538 0.62718 0.17713 0.0
H686 H 0.47447 0.64527 0.1903 0.0
H687 H 0.50877 0.69394 0.23411 0.0
H688 H 0.45069 0.74393 0.27255 0.0
H689 H 0.46734 0.71969 0.26699 0.0
C690 C 0.88956 0.44057 0.3777 0.0
C691 C 0.89587 0.44765 0.35823 0.0
C692 C 0.86712 0.43275 0.384 0.0
C693 C 0.81913 0.441 0.37255 0.0
H694 H 0.78335 0.38903 0.4065 0.0
C695 C 0.73879 0.42965 0.40998 0.0
C696 C 0.71885 0.40842 0.40712 0.0
C697 C 0.76021 0.43242 0.40577 0.0
C698 C 0.79318 0.40355 0.39699 0.0
H699 H 0.88317 0.45039 0.3298 0.0
H700 H 0.84424 0.4371 0.34087 0.0
H701 H 0.82093 0.39668 0.39474 0.0
H702 H 0.70589 0.37304 0.39878 0.0
H703 H 0.74363 0.37794 0.39146 0.0
H704 H 0.79171 0.44806 0.37478 0.0
C705 C 0.8567 0.43794 0.35131 0.0
C706 C 0.81466 0.40798 0.39036 0.0
C707 C 0.87901 0.44562 0.34501 0.0
C708 C 0.72094 0.38963 0.40107 0.0
C709 C 0.74251 0.3924 0.39693 0.0
C710 C 0.79791 0.43675 0.37933 0.0
C711 C 0.85065 0.43196 0.37097 0.0
C712 C 0.82778 0.42673 0.37801 0.0
C713 C 0.76226 0.41401 0.39868 0.0
C714 C 0.78474 0.41805 0.39165 0.0
H715 H 0.90217 0.44203 0.38826 0.0
H716 H 0.86294 0.42835 0.39926 0.0
H717 H 0.82896 0.45572 0.36324 0.0
H718 H 0.73784 0.44444 0.41481 0.0
H719 H 0.7752 0.44917 0.40756 0.0
C720 C 0.11786 0.55308 0.40074 0.0
C721 C 0.09433 0.5436 0.40399 0.0
C722 C 0.13323 0.56152 0.41637 0.0
C723 C 0.13536 0.56046 0.471 0.0
H724 H 0.19626 0.61223 0.46306 0.0
C725 C 0.19693 0.61272 0.53371 0.0
C726 C 0.21802 0.61329 0.5333 0.0
C727 C 0.18219 0.60453 0.51766 0.0
C728 C 0.17931 0.59771 0.4654 0.0
H729 H 0.06831 0.5359 0.42583 0.0
H730 H 0.09507 0.55159 0.45304 0.0
H731 H 0.16955 0.59754 0.43567 0.0
H732 H 0.24053 0.60641 0.51559 0.0
H733 H 0.21495 0.59279 0.48719 0.0
H734 H 0.14505 0.56147 0.501 0.0
C735 C 0.10178 0.55178 0.43863 0.0
C736 C 0.16402 0.58914 0.44971 0.0
C737 C 0.0864 0.54291 0.42305 0.0
C738 C 0.22435 0.60609 0.51632 0.0
C739 C 0.20981 0.59839 0.50009 0.0
C740 C 0.15049 0.56937 0.48674 0.0
C741 C 0.12543 0.5611 0.43556 0.0
C742 C 0.14181 0.57033 0.45226 0.0
C743 C 0.1885 0.59727 0.50076 0.0
C744 C 0.17258 0.588 0.48405 0.0
H745 H 0.1243 0.55364 0.38612 0.0
H746 H 0.15119 0.56809 0.41338 0.0
H747 H 0.11869 0.54566 0.47355 0.0
H748 H 0.19154 0.61805 0.54662 0.0
H749 H 0.16585 0.60387 0.51842 0.0
C750 C 0.52991 0.11161 0.56309 0.0
C751 C 0.50628 0.10257 0.56064 0.0
C752 C 0.54202 0.12874 0.57686 0.0
C753 C 0.53921 0.17231 0.60784 0.0
H754 H 0.58282 0.16529 0.6397 0.0
C755 C 0.57713 0.2215 0.68022 0.0
C756 C 0.60017 0.2287 0.68428 0.0
C757 C 0.56643 0.20812 0.66374 0.0
C758 C 0.57096 0.16772 0.63075 0.0
H759 H 0.47686 0.10466 0.57046 0.0
H760 H 0.49798 0.13448 0.59467 0.0
H761 H 0.56271 0.13817 0.61357 0.0
H762 H 0.63031 0.22838 0.6737 0.0
H763 H 0.6117 0.20527 0.64494 0.0
H764 H 0.54729 0.20172 0.62537 0.0
C765 C 0.50721 0.12854 0.58575 0.0
C766 C 0.55943 0.15216 0.61576 0.0
C767 C 0.49511 0.11144 0.57191 0.0
C768 C 0.61249 0.22297 0.67112 0.0
C769 C 0.6018 0.20962 0.65467 0.0
C770 C 0.55075 0.18789 0.62291 0.0
C771 C 0.53076 0.13718 0.58855 0.0
C772 C 0.54338 0.15422 0.60414 0.0
C773 C 0.57855 0.20168 0.651 0.0
C774 C 0.56673 0.18573 0.63455 0.0
H775 H 0.53906 0.10541 0.55435 0.0
H776 H 0.56022 0.13535 0.57837 0.0
H777 H 0.52714 0.17452 0.59901 0.0
H778 H 0.56715 0.22564 0.69004 0.0
H779 H 0.54845 0.20214 0.66139 0.0
C780 C 0.47276 0.55065 0.75251 0.0
C781 C 0.47365 0.55901 0.73359 0.0
C782 C 0.46418 0.55761 0.76797 0.0
C783 C 0.43115 0.58721 0.77902 0.0
H784 H 0.45733 0.59238 0.83054 0.0
C785 C 0.41866 0.63241 0.84693 0.0
C786 C 0.40944 0.61793 0.86323 0.0
C787 C 0.42569 0.62522 0.83049 0.0
C788 C 0.44988 0.59095 0.81622 0.0
H789 H 0.4665 0.58117 0.71577 0.0
H790 H 0.45253 0.59435 0.74288 0.0
H791 H 0.4717 0.58039 0.80303 0.0
H792 H 0.40042 0.58467 0.87515 0.0
H793 H 0.41347 0.57249 0.84665 0.0
H794 H 0.41003 0.59884 0.79243 0.0
C795 C 0.45766 0.5818 0.74583 0.0
C796 C 0.45793 0.58388 0.80044 0.0
C797 C 0.4658 0.57441 0.73029 0.0
C798 C 0.40736 0.59615 0.86277 0.0
C799 C 0.41488 0.5892 0.84655 0.0
C800 C 0.42348 0.59478 0.79477 0.0
C801 C 0.45679 0.57354 0.76492 0.0
C802 C 0.44851 0.58165 0.78163 0.0
C803 C 0.42411 0.60368 0.83032 0.0
C804 C 0.43264 0.59647 0.81349 0.0
H805 H 0.47855 0.53855 0.7553 0.0
H806 H 0.46324 0.55034 0.78228 0.0
H807 H 0.42317 0.58538 0.76491 0.0
H808 H 0.42038 0.64925 0.84687 0.0
H809 H 0.43285 0.63665 0.8181 0.0
C810 C 0.9121 0.39678 0.90634 0.0
C811 C 0.92271 0.41817 0.89691 0.0
C812 C 0.8954 0.39164 0.9206 0.0
C813 C 0.85473 0.40882 0.93877 0.0
H814 H 0.85811 0.38087 0.98726 0.0
C815 C 0.80617 0.40804 0.00827 0.0
C816 C 0.79726 0.38873 0.02051 0.0
C817 C 0.81969 0.40984 0.99217 0.0
C818 C 0.85666 0.38833 0.97369 0.0
H819 H 0.92422 0.451 0.89528 0.0
H820 H 0.895 0.44195 0.92004 0.0
H821 H 0.88514 0.38731 0.96107 0.0
H822 H 0.79498 0.35583 0.02503 0.0
H823 H 0.81832 0.35886 0.99677 0.0
H824 H 0.82637 0.41001 0.95142 0.0
C825 C 0.89938 0.42905 0.9162 0.0
C826 C 0.87219 0.39205 0.95869 0.0
C827 C 0.91612 0.43422 0.902 0.0
C828 C 0.80168 0.371 0.01597 0.0
C829 C 0.81517 0.37278 -0.00016 0.0
C830 C 0.83916 0.40504 0.95373 0.0
C831 C 0.88888 0.40773 0.9257 0.0
C832 C 0.87156 0.40259 0.94116 0.0
C833 C 0.82456 0.39235 0.98788 0.0
C834 C 0.84011 0.395 0.97147 0.0
H835 H 0.91653 0.38389 0.90255 0.0
H836 H 0.88742 0.37496 0.92751 0.0
H837 H 0.85359 0.41664 0.9253 0.0
H838 H 0.80315 0.42205 0.01134 0.0
H839 H 0.82688 0.42528 0.98343 0.0
C840 C 0.4838 0.92138 0.07713 0.0
C841 C 0.46889 0.92757 0.06824 0.0
C842 C 0.47635 0.90575 0.09259 0.0
C843 C 0.43059 0.87971 0.13006 0.0
H844 H 0.45186 0.83621 0.13558 0.0
C845 C 0.39067 0.8054 0.18501 0.0
C846 C 0.40602 0.80284 0.1972 0.0
C847 C 0.39861 0.81999 0.16888 0.0
C848 C 0.44592 0.84837 0.13425 0.0
H849 H 0.43432 0.922 0.06873 0.0
H850 H 0.42109 0.89406 0.09497 0.0
H851 H 0.46494 0.86274 0.10796 0.0
H852 H 0.44169 0.81305 0.20161 0.0
H853 H 0.45552 0.83838 0.17314 0.0
H854 H 0.41122 0.86499 0.15613 0.0
C855 C 0.43873 0.90167 0.09033 0.0
C856 C 0.45345 0.86363 0.11849 0.0
C857 C 0.44624 0.91746 0.07502 0.0
C858 C 0.42944 0.8147 0.19254 0.0
C859 C 0.43736 0.82911 0.17622 0.0
C860 C 0.42288 0.8643 0.14564 0.0
C861 C 0.45373 0.89575 0.09944 0.0
C862 C 0.44584 0.87948 0.11619 0.0
C863 C 0.42204 0.83214 0.16443 0.0
C864 C 0.43043 0.84847 0.14788 0.0
H865 H 0.50127 0.92855 0.07212 0.0
H866 H 0.48846 0.9018 0.09936 0.0
H867 H 0.42477 0.89199 0.12905 0.0
H868 H 0.37252 0.79652 0.18816 0.0
H869 H 0.38642 0.82183 0.15989 0.0
C870 C 0.6088 0.52728 0.25496 0.0
C871 C 0.61292 0.5263 0.23495 0.0
C872 C 0.61471 0.51577 0.26863 0.0
C873 C 0.62348 0.46669 0.27322 0.0
H874 H 0.64903 0.49358 0.32364 0.0
C875 C 0.6198 0.41366 0.34097 0.0
C876 C 0.63884 0.42289 0.35351 0.0
C877 C 0.61898 0.42637 0.32516 0.0
C878 C 0.64214 0.48589 0.30956 0.0
H879 H 0.6268 0.51282 0.21358 0.0
H880 H 0.63723 0.49268 0.23757 0.0
H881 H 0.64423 0.51662 0.29867 0.0
H882 H 0.67238 0.45243 0.35877 0.0
H883 H 0.67093 0.47448 0.33119 0.0
H884 H 0.62121 0.43588 0.2842 0.0
C885 C 0.62933 0.5023 0.24262 0.0
C886 C 0.63919 0.49903 0.29533 0.0
C887 C 0.62356 0.51399 0.22893 0.0
C888 C 0.65736 0.44483 0.3495 0.0
C889 C 0.65651 0.45754 0.33374 0.0
C890 C 0.62632 0.45349 0.2875 0.0
C891 C 0.62476 0.50291 0.26259 0.0
C892 C 0.62957 0.4895 0.27709 0.0
C893 C 0.63717 0.44861 0.32158 0.0
C894 C 0.63546 0.46289 0.3059 0.0
H895 H 0.6008 0.53681 0.26003 0.0
H896 H 0.61079 0.5164 0.28389 0.0
H897 H 0.61586 0.45882 0.25935 0.0
H898 H 0.60525 0.39681 0.34362 0.0
H899 H 0.60375 0.41909 0.31615 0.0
C900 C 0.40234 0.89963 0.42642 0.0
C901 C 0.40134 0.9197 0.42319 0.0
C902 C 0.39737 0.88383 0.41139 0.0
C903 C 0.39325 0.87968 0.35714 0.0
H904 H 0.3694 0.81517 0.36753 0.0
C905 C 0.36801 0.81178 0.29643 0.0
C906 C 0.3797 0.79945 0.29739 0.0
C907 C 0.36868 0.8253 0.31213 0.0
C908 C 0.37608 0.83316 0.36449 0.0
H909 H 0.39331 0.93824 0.40159 0.0
H910 H 0.3832 0.91006 0.37592 0.0
H911 H 0.37282 0.84065 0.39427 0.0
H912 H 0.4006 0.791 0.31578 0.0
H913 H 0.40119 0.81424 0.34353 0.0
H914 H 0.39582 0.87185 0.32722 0.0
C915 C 0.38872 0.90692 0.38985 0.0
C916 C 0.3782 0.84783 0.37979 0.0
C917 C 0.39414 0.92296 0.40477 0.0
C918 C 0.39151 0.80038 0.31461 0.0
C919 C 0.39176 0.81355 0.33049 0.0
C920 C 0.39068 0.86492 0.34182 0.0
C921 C 0.39078 0.88739 0.3928 0.0
C922 C 0.38709 0.87138 0.37637 0.0
C923 C 0.38063 0.82636 0.32924 0.0
C924 C 0.38232 0.84162 0.34541 0.0
H925 H 0.40728 0.89619 0.44052 0.0
H926 H 0.3994 0.86918 0.41428 0.0
H927 H 0.40065 0.89771 0.3539 0.0
H928 H 0.35883 0.81147 0.28333 0.0
H929 H 0.35992 0.83501 0.3109 0.0
C930 C 0.5844 0.48912 0.57642 0.0
C931 C 0.56167 0.47692 0.58306 0.0
C932 C 0.59194 0.48027 0.56158 0.0
C933 C 0.57702 0.42648 0.53513 0.0
H934 H 0.61811 0.46826 0.49587 0.0
C935 C 0.59673 0.39716 0.46171 0.0
C936 C 0.6197 0.40848 0.45564 0.0
C937 C 0.59007 0.40479 0.47808 0.0
C938 C 0.60682 0.45642 0.50684 0.0
H939 H 0.5292 0.44552 0.57954 0.0
H940 H 0.54208 0.43052 0.55319 0.0
H941 H 0.60562 0.48303 0.52274 0.0
H942 H 0.65375 0.43646 0.46224 0.0
H943 H 0.64204 0.44979 0.49071 0.0
H944 H 0.57788 0.39981 0.51882 0.0
C945 C 0.55422 0.44678 0.55966 0.0
C946 C 0.5997 0.46488 0.52228 0.0
C947 C 0.54673 0.45555 0.5746 0.0
C948 C 0.63591 0.42735 0.46648 0.0
C949 C 0.62921 0.43509 0.48273 0.0
C950 C 0.584 0.418 0.51957 0.0
C951 C 0.5769 0.45907 0.55291 0.0
C952 C 0.58471 0.45002 0.53664 0.0
C953 C 0.6062 0.424 0.4886 0.0
C954 C 0.59898 0.4329 0.50528 0.0
H955 H 0.59634 0.50573 0.58244 0.0
H956 H 0.60961 0.49006 0.55695 0.0
H957 H 0.56576 0.41459 0.54608 0.0
H958 H 0.58382 0.38254 0.4537 0.0
H959 H 0.57219 0.39601 0.4822 0.0
C960 C 0.1229 0.50433 0.75954 0.0
C961 C 0.0999 0.492 0.75362 0.0
C962 C 0.14028 0.51579 0.74577 0.0
C963 C 0.15295 0.51934 0.69278 0.0
H964 H 0.198 0.5824 0.70429 0.0
C965 C 0.22322 0.57532 0.63747 0.0
C966 C 0.22636 0.59731 0.63434 0.0
C967 C 0.21031 0.56209 0.6533 0.0
C968 C 0.18554 0.56481 0.70087 0.0
H969 H 0.07717 0.48113 0.72859 0.0
H970 H 0.10741 0.50125 0.7046 0.0
H971 H 0.17028 0.55901 0.72925 0.0
H972 H 0.21901 0.6229 0.64582 0.0
H973 H 0.19634 0.59973 0.67333 0.0
H974 H 0.16761 0.52536 0.66418 0.0
C975 C 0.11207 0.50203 0.71985 0.0
C976 C 0.16983 0.55134 0.71523 0.0
C977 C 0.09472 0.49069 0.7336 0.0
C978 C 0.21692 0.60604 0.64778 0.0
C979 C 0.20403 0.5928 0.66363 0.0
C980 C 0.16869 0.53278 0.67845 0.0
C981 C 0.13501 0.515 0.72579 0.0
C982 C 0.1531 0.52857 0.71123 0.0
C983 C 0.20028 0.57054 0.66639 0.0
C984 C 0.18492 0.55579 0.68222 0.0
H985 H 0.12739 0.50575 0.77488 0.0
H986 H 0.15783 0.52547 0.75076 0.0
H987 H 0.14042 0.50179 0.68933 0.0
H988 H 0.23037 0.5681 0.62748 0.0
H989 H 0.208 0.54512 0.65519 0.0
C990 C 0.55576 0.11887 0.91884 0.0
C991 C 0.54783 0.09559 0.9156 0.0
C992 C 0.56346 0.1343 0.90322 0.0
C993 C 0.56252 0.13615 0.84859 0.0
H994 H 0.61106 0.19876 0.85653 0.0
C995 C 0.61255 0.19954 0.78615 0.0
C996 C 0.61103 0.21955 0.78632 0.0
C997 C 0.60505 0.18473 0.80218 0.0
C998 C 0.59744 0.18132 0.8542 0.0
H999 H 0.54222 0.07008 0.89383 0.0
H1000 H 0.55672 0.097 0.86666 0.0
H1001 H 0.59794 0.17206 0.88398 0.0
H1002 H 0.60105 0.2401 0.80354 0.0
H1003 H 0.58863 0.21445 0.83192 0.0
H1004 H 0.56291 0.14543 0.81855 0.0
C1005 C 0.55619 0.10342 0.88103 0.0
C1006 C 0.58976 0.16602 0.86992 0.0
C1007 C 0.54804 0.08797 0.89659 0.0
C1008 C 0.60235 0.22474 0.803 0.0
C1009 C 0.59534 0.21018 0.81922 0.0
C1010 C 0.57057 0.15132 0.83283 0.0
C1011 C 0.56385 0.1268 0.88407 0.0
C1012 C 0.57213 0.1432 0.86735 0.0
C1013 C 0.59639 0.18995 0.81881 0.0
C1014 C 0.58802 0.17401 0.83553 0.0
H1015 H 0.55559 0.12505 0.93343 0.0
H1016 H 0.56876 0.15201 0.90617 0.0
H1017 H 0.54857 0.11896 0.84604 0.0
H1018 H 0.61908 0.19505 0.77346 0.0
H1019 H 0.60606 0.16922 0.80162 0.0
C1020 C 0.5245 0.62656 0.08289 0.0
C1021 C 0.51353 0.60507 0.09214 0.0
C1022 C 0.51331 0.6318 0.06833 0.0
C1023 C 0.45599 0.61447 0.04859 0.0
H1024 H 0.48895 0.64302 0.00087 0.0
C1025 C 0.41062 0.61574 0.97762 0.0
C1026 C 0.42133 0.63525 0.96563 0.0
C1027 C 0.42179 0.61379 0.99406 0.0
C1028 C 0.47959 0.63539 0.01422 0.0
H1029 H 0.48222 0.57219 0.0932 0.0
H1030 H 0.4627 0.58138 0.06792 0.0
H1031 H 0.50871 0.63649 0.02774 0.0
H1032 H 0.45197 0.66834 0.9619 0.0
H1033 H 0.47133 0.66502 0.99075 0.0
H1034 H 0.42681 0.61318 0.03503 0.0
C1035 C 0.47984 0.59429 0.07211 0.0
C1036 C 0.49092 0.63162 0.02961 0.0
C1037 C 0.49104 0.58903 0.08661 0.0
C1038 C 0.44326 0.65301 0.97075 0.0
C1039 C 0.45442 0.65107 0.98723 0.0
C1040 C 0.44467 0.61829 0.03323 0.0
C1041 C 0.49088 0.61569 0.06275 0.0
C1042 C 0.47918 0.62088 0.04687 0.0
C1043 C 0.44392 0.63132 -0.00105 0.0
C1044 C 0.45627 0.62856 0.01577 0.0
H1045 H 0.54169 0.63943 0.08701 0.0
H1046 H 0.52216 0.64853 0.06154 0.0
H1047 H 0.44658 0.60648 0.06184 0.0
H1048 H 0.39375 0.60172 0.9741 0.0
H1049 H 0.41332 0.59822 0.00262 0.0
C1050 C 0.9058 0.44606 0.25276 0.0
C1051 C 0.92815 0.46449 0.25015 0.0
C1052 C 0.88998 0.43868 0.23744 0.0
C1053 C 0.88667 0.44298 0.18332 0.0
H1054 H 0.82229 0.41972 0.19374 0.0
C1055 C 0.82134 0.42902 0.12306 0.0
C1056 C 0.80204 0.40698 0.12229 0.0
C1057 C 0.8361 0.43576 0.13909 0.0
C1058 C 0.84022 0.42608 0.19069 0.0
H1059 H 0.95123 0.48955 0.22914 0.0
H1060 H 0.92343 0.47766 0.20299 0.0
H1061 H 0.84943 0.43246 0.22089 0.0
H1062 H 0.78267 0.37497 0.138 0.0
H1063 H 0.8083 0.38708 0.16634 0.0
H1064 H 0.8774 0.4373 0.15304 0.0
C1065 C 0.91822 0.46839 0.21668 0.0
C1066 C 0.85578 0.43327 0.20621 0.0
C1067 C 0.93413 0.47552 0.23188 0.0
C1068 C 0.79745 0.39203 0.13815 0.0
C1069 C 0.81202 0.39896 0.15438 0.0
C1070 C 0.87118 0.43619 0.16782 0.0
C1071 C 0.89598 0.44974 0.21917 0.0
C1072 C 0.87925 0.44186 0.20273 0.0
C1073 C 0.83163 0.42076 0.15482 0.0
C1074 C 0.84785 0.42771 0.17137 0.0
H1075 H 0.9004 0.43734 0.26669 0.0
H1076 H 0.87313 0.42409 0.2399 0.0
H1077 H 0.90445 0.44892 0.18002 0.0
H1078 H 0.82539 0.44091 0.11105 0.0
H1079 H 0.85105 0.45272 0.13918 0.0
loop_
_geom_bond_atom_site_label_1
_geom_bond_atom_site_label_2
_geom_bond_distance
_geom_bond_site_symmetry_2
_ccdc_geom_bond_type
C0 C1 1.384 . S
C0 C2 1.384 . S
C0 H28 0.931 . S
C1 C0 1.384 . S
C1 C4 1.382 . S
C2 C0 1.384 . S
C2 C3 1.381 . S
C2 H29 0.930 . S
C3 C2 1.381 . S
C3 C5 1.381 . S
C3 C6 1.487 . S
C4 C1 1.382 . S
C4 C5 1.387 . S
C4 H30 0.930 . S
C5 C3 1.381 . S
C5 C4 1.387 . S
C5 H31 0.931 . S
C6 C3 1.487 . S
C6 C13 1.399 . S
C6 N44 1.343 1_655 S
C7 C8 1.384 . S
C7 C9 1.384 . S
C7 H32 0.931 . S
C8 C7 1.384 . S
C8 C11 1.382 . S
C9 C7 1.384 . S
C9 C10 1.381 . S
C9 H33 0.930 . S
C10 C9 1.381 . S
C10 C12 1.381 . S
C10 C13 1.487 . S
C11 C8 1.382 . S
C11 C12 1.387 . S
C11 H34 0.930 . S
C12 C10 1.381 . S
C12 C11 1.387 . S
C12 H35 0.931 . S
C13 C6 1.399 . S
C13 C10 1.487 . S
C13 N45 1.343 1_655 S
C14 C15 1.384 . S
C14 C16 1.384 . S
C14 H36 0.931 . S
C15 C14 1.384 . S
C15 C18 1.382 . S
C16 C14 1.384 . S
C16 C17 1.381 . S
C16 H37 0.930 . S
C17 C16 1.381 . S
C17 C19 1.381 . S
C17 C20 1.487 . S
C18 C15 1.382 . S
C18 C19 1.387 . S
C18 H38 0.930 . S
C19 C17 1.381 . S
C19 C18 1.387 . S
C19 H39 0.931 . S
C20 C17 1.487 . S
C20 C27 1.399 . S
C20 N45 1.343 . S
C21 C22 1.384 . S
C21 C23 1.384 . S
C21 H40 0.931 . S
C22 C21 1.384 . S
C22 C25 1.382 . S
C23 C21 1.384 . S
C23 C24 1.381 . S
C23 H41 0.930 . S
C24 C23 1.381 . S
C24 C26 1.381 . S
C24 C27 1.487 . S
C25 C22 1.382 . S
C25 C26 1.387 . S
C25 H42 0.930 . S
C26 C24 1.381 . S
C26 C25 1.387 . S
C26 H43 0.931 . S
C27 C20 1.399 . S
C27 C24 1.487 . S
C27 N44 1.343 . S
H28 C0 0.931 . S
H29 C2 0.930 . S
H30 C4 0.930 . S
H31 C5 0.931 . S
H32 C7 0.931 . S
H33 C9 0.930 . S
H34 C11 0.930 . S
H35 C12 0.931 . S
H36 C14 0.931 . S
H37 C16 0.930 . S
H38 C18 0.930 . S
H39 C19 0.931 . S
H40 C21 0.931 . S
H41 C23 0.930 . S
H42 C25 0.930 . S
H43 C26 0.931 . S
N44 C6 1.343 1_455 S
N44 C27 1.343 . S
N45 C13 1.343 1_455 S
N45 C20 1.343 . S
C46 C47 1.384 . S
C46 C48 1.384 . S
C46 H74 0.931 . S
C47 C46 1.384 . S
C47 C50 1.382 . S
C48 C46 1.384 . S
C48 C49 1.381 . S
C48 H75 0.930 . S
C49 C48 1.381 . S
C49 C51 1.381 . S
C49 C52 1.487 . S
C50 C47 1.382 . S
C50 C51 1.387 . S
C50 H76 0.930 . S
C51 C49 1.381 . S
C51 C50 1.387 . S
C51 H77 0.931 . S
C52 C49 1.487 . S
C52 C59 1.399 . S
C52 N90 1.343 1_565 S
C53 C54 1.384 . S
C53 C55 1.384 . S
C53 H78 0.931 . S
C54 C53 1.384 . S
C54 C57 1.382 . S
C55 C53 1.384 . S
C55 C56 1.381 . S
C55 H79 0.930 . S
C56 C55 1.381 . S
C56 C58 1.381 . S
C56 C59 1.487 . S
C57 C54 1.382 . S
C57 C58 1.387 . S
C57 H80 0.930 . S
C58 C56 1.381 . S
C58 C57 1.387 . S
C58 H81 0.931 . S
C59 C52 1.399 . S
C59 C56 1.487 . S
C59 N91 1.343 1_565 S
C60 C61 1.384 . S
C60 C62 1.384 . S
C60 H82 0.931 . S
C61 C60 1.384 . S
C61 C64 1.382 . S
C62 C60 1.384 . S
C62 C63 1.381 . S
C62 H83 0.930 . S
C63 C62 1.381 . S
C63 C65 1.381 . S
C63 C66 1.487 . S
C64 C61 1.382 . S
C64 C65 1.387 . S
C64 H84 0.930 . S
C65 C63 1.381 . S
C65 C64 1.387 . S
C65 H85 0.931 . S
C66 C63 1.487 . S
C66 C73 1.399 . S
C66 N91 1.343 . S
C67 C68 1.384 . S
C67 C69 1.384 . S
C67 H86 0.931 . S
C68 C67 1.384 . S
C68 C71 1.382 . S
C69 C67 1.384 . S
C69 C70 1.381 . S
C69 H87 0.930 . S
C70 C69 1.381 . S
C70 C72 1.381 . S
C70 C73 1.487 . S
C71 C68 1.382 . S
C71 C72 1.387 . S
C71 H88 0.930 . S
C72 C70 1.381 . S
C72 C71 1.387 . S
C72 H89 0.931 . S
C73 C66 1.399 . S
C73 C70 1.487 . S
C73 N90 1.343 . S
H74 C46 0.931 . S
H75 C48 0.930 . S
H76 C50 0.930 . S
H77 C51 0.931 . S
H78 C53 0.931 . S
H79 C55 0.930 . S
H80 C57 0.930 . S
H81 C58 0.931 . S
H82 C60 0.931 . S
H83 C62 0.930 . S
H84 C64 0.930 . S
H85 C65 0.931 . S
H86 C67 0.931 . S
H87 C69 0.930 . S
H88 C71 0.930 . S
H89 C72 0.931 . S
N90 C52 1.343 1_545 S
N90 C73 1.343 . S
N91 C59 1.343 1_545 S
N91 C66 1.343 . S
C92 C93 1.384 . S
C92 C94 1.384 . S
C92 H120 0.931 . S
C93 C92 1.384 . S
C93 C96 1.382 . S
C94 C92 1.384 . S
C94 C95 1.381 . S
C94 H121 0.930 . S
C95 C94 1.381 . S
C95 C97 1.381 . S
C95 C98 1.487 . S
C96 C93 1.382 . S
C96 C97 1.387 . S
C96 H122 0.930 . S
C97 C95 1.381 . S
C97 C96 1.387 . S
C97 H123 0.931 . S
C98 C95 1.487 . S
C98 C105 1.399 . S
C98 N136 1.343 . S
C99 C100 1.384 . S
C99 C101 1.384 . S
C99 H124 0.931 . S
C100 C99 1.384 . S
C100 C103 1.382 . S
C101 C99 1.384 . S
C101 C102 1.381 . S
C101 H125 0.930 . S
C102 C101 1.381 . S
C102 C104 1.381 . S
C102 C105 1.487 . S
C103 C100 1.382 . S
C103 C104 1.387 . S
C103 H126 0.930 . S
C104 C102 1.381 . S
C104 C103 1.387 . S
C104 H127 0.931 . S
C105 C98 1.399 . S
C105 C102 1.487 . S
C105 N137 1.343 . S
C106 C107 1.384 . S
C106 C108 1.384 . S
C106 H128 0.931 . S
C107 C106 1.384 . S
C107 C110 1.382 . S
C108 C106 1.384 . S
C108 C109 1.381 . S
C108 H129 0.930 . S
C109 C108 1.381 . S
C109 C111 1.381 . S
C109 C112 1.487 . S
C110 C107 1.382 . S
C110 C111 1.387 . S
C110 H130 0.930 . S
C111 C109 1.381 . S
C111 C110 1.387 . S
C111 H131 0.931 . S
C112 C109 1.487 . S
C112 C119 1.399 . S
C112 N137 1.343 . S
C113 C114 1.384 . S
C113 C115 1.384 . S
C113 H132 0.931 . S
C114 C113 1.384 . S
C114 C117 1.382 . S
C115 C113 1.384 . S
C115 C116 1.381 . S
C115 H133 0.930 . S
C116 C115 1.381 . S
C116 C118 1.381 . S
C116 C119 1.487 . S
C117 C114 1.382 . S
C117 C118 1.387 . S
C117 H134 0.930 . S
C118 C116 1.381 . S
C118 C117 1.387 . S
C118 H135 0.931 . S
C119 C112 1.399 . S
C119 C116 1.487 . S
C119 N136 1.343 . S
H120 C92 0.931 . S
H121 C94 0.930 . S
H122 C96 0.930 . S
H123 C97 0.931 . S
H124 C99 0.931 . S
H125 C101 0.930 . S
H126 C103 0.930 . S
H127 C104 0.931 . S
H128 C106 0.931 . S
H129 C108 0.930 . S
H130 C110 0.930 . S
H131 C111 0.931 . S
H132 C113 0.931 . S
H133 C115 0.930 . S
H134 C117 0.930 . S
H135 C118 0.931 . S
N136 C98 1.343 . S
N136 C119 1.343 . S
N137 C105 1.343 . S
N137 C112 1.343 . S
C138 C139 1.384 . S
C138 C140 1.384 . S
C138 H166 0.931 . S
C139 C138 1.384 . S
C139 C142 1.382 . S
C140 C138 1.384 . S
C140 C141 1.381 . S
C140 H167 0.930 . S
C141 C140 1.381 . S
C141 C143 1.381 . S
C141 C144 1.487 . S
C142 C139 1.382 . S
C142 C143 1.387 . S
C142 H168 0.930 . S
C143 C141 1.381 . S
C143 C142 1.387 . S
C143 H169 0.931 . S
C144 C141 1.487 . S
C144 C151 1.399 . S
C144 N182 1.343 1_655 S
C145 C146 1.384 . S
C145 C147 1.384 . S
C145 H170 0.931 . S
C146 C145 1.384 . S
C146 C149 1.382 . S
C147 C145 1.384 . S
C147 C148 1.381 . S
C147 H171 0.930 . S
C148 C147 1.381 . S
C148 C150 1.381 . S
C148 C151 1.487 . S
C149 C146 1.382 . S
C149 C150 1.387 . S
C149 H172 0.930 . S
C150 C148 1.381 . S
C150 C149 1.387 . S
C150 H173 0.931 . S
C151 C144 1.399 . S
C151 C148 1.487 . S
C151 N183 1.343 1_655 S
C152 C153 1.384 . S
C152 C154 1.384 . S
C152 H174 0.931 . S
C153 C152 1.384 . S
C153 C156 1.382 . S
C154 C152 1.384 . S
C154 C155 1.381 . S
C154 H175 0.930 . S
C155 C154 1.381 . S
C155 C157 1.381 . S
C155 C158 1.487 . S
C156 C153 1.382 . S
C156 C157 1.387 . S
C156 H176 0.930 . S
C157 C155 1.381 . S
C157 C156 1.387 . S
C157 H177 0.931 . S
C158 C155 1.487 . S
C158 C165 1.399 . S
C158 N183 1.343 . S
C159 C160 1.384 . S
C159 C161 1.384 . S
C159 H178 0.931 . S
C160 C159 1.384 . S
C160 C163 1.382 . S
C161 C159 1.384 . S
C161 C162 1.381 . S
C161 H179 0.930 . S
C162 C161 1.381 . S
C162 C164 1.381 . S
C162 C165 1.487 . S
C163 C160 1.382 . S
C163 C164 1.387 . S
C163 H180 0.930 . S
C164 C162 1.381 . S
C164 C163 1.387 . S
C164 H181 0.931 . S
C165 C158 1.399 . S
C165 C162 1.487 . S
C165 N182 1.343 . S
H166 C138 0.931 . S
H167 C140 0.930 . S
H168 C142 0.930 . S
H169 C143 0.931 . S
H170 C145 0.931 . S
H171 C147 0.930 . S
H172 C149 0.930 . S
H173 C150 0.931 . S
H174 C152 0.931 . S
H175 C154 0.930 . S
H176 C156 0.930 . S
H177 C157 0.931 . S
H178 C159 0.931 . S
H179 C161 0.930 . S
H180 C163 0.930 . S
H181 C164 0.931 . S
N182 C144 1.343 1_455 S
N182 C165 1.343 . S
N183 C151 1.343 1_455 S
N183 C158 1.343 . S
C184 C185 1.384 . S
C184 C186 1.384 . S
C184 H212 0.931 . S
C185 C184 1.384 . S
C185 C188 1.382 . S
C186 C184 1.384 . S
C186 C187 1.381 . S
C186 H213 0.919 1_556 S
C187 C186 1.381 . S
C187 C189 1.381 . S
C187 C190 1.487 . S
C188 C185 1.382 . S
C188 C189 1.387 . S
C188 H214 0.930 . S
C189 C187 1.381 . S
C189 C188 1.387 . S
C189 H215 0.931 . S
C190 C187 1.487 . S
C190 C197 1.399 1_556 S
C190 N228 1.343 1_565 S
C191 C192 1.384 . S
C191 C193 1.384 . S
C191 H216 0.931 . S
C192 C191 1.384 . S
C192 C195 1.382 . S
C193 C191 1.384 . S
C193 C194 1.381 . S
C193 H217 0.930 . S
C194 C193 1.381 . S
C194 C196 1.381 . S
C194 C197 1.487 . S
C195 C192 1.382 . S
C195 C196 1.387 . S
C195 H218 0.930 . S
C196 C194 1.381 . S
C196 C195 1.387 . S
C196 H219 0.931 . S
C197 C190 1.399 1_554 S
C197 C194 1.487 . S
C197 N229 1.343 1_565 S
C198 C199 1.384 . S
C198 C200 1.384 1_554 S
C198 H220 0.927 1_554 S
C199 C198 1.384 . S
C199 C202 1.382 . S
C200 C198 1.384 1_556 S
C200 C201 1.381 1_556 S
C200 H221 0.930 . S
C201 C200 1.381 1_554 S
C201 C203 1.381 . S
C201 C204 1.487 1_554 S
C202 C199 1.382 . S
C202 C203 1.387 . S
C202 H222 0.930 . S
C203 C201 1.381 . S
C203 C202 1.387 . S
C203 H223 0.931 . S
C204 C201 1.487 1_556 S
C204 C211 1.399 . S
C204 N229 1.343 1_556 S
C205 C206 1.384 . S
C205 C207 1.384 . S
C205 H224 0.931 . S
C206 C205 1.384 . S
C206 C209 1.382 . S
C207 C205 1.384 . S
C207 C208 1.381 . S
C207 H225 0.930 . S
C208 C207 1.381 . S
C208 C210 1.381 . S
C208 C211 1.487 . S
C209 C206 1.382 . S
C209 C210 1.387 . S
C209 H226 0.930 . S
C210 C208 1.381 . S
C210 C209 1.387 . S
C210 H227 0.931 . S
C211 C204 1.399 . S
C211 C208 1.487 . S
C211 N228 1.343 . S
H212 C184 0.931 . S
H213 C186 0.919 1_554 S
H214 C188 0.930 . S
H215 C189 0.931 . S
H216 C191 0.931 . S
H217 C193 0.930 . S
H218 C195 0.930 . S
H219 C196 0.931 . S
H220 C198 0.927 1_556 S
H221 C200 0.930 . S
H222 C202 0.930 . S
H223 C203 0.931 . S
H224 C205 0.931 . S
H225 C207 0.930 . S
H226 C209 0.930 . S
H227 C210 0.931 . S
N228 C190 1.343 1_545 S
N228 C211 1.343 . S
N229 C197 1.343 1_545 S
N229 C204 1.343 1_554 S
C230 C231 1.384 . S
C230 C232 1.384 . S
C230 H258 0.931 . S
C231 C230 1.384 . S
C231 C234 1.382 . S
C232 C230 1.384 . S
C232 C233 1.381 . S
C232 H259 0.930 . S
C233 C232 1.381 . S
C233 C235 1.381 . S
C233 C236 1.487 . S
C234 C231 1.382 . S
C234 C235 1.387 . S
C234 H260 0.930 . S
C235 C233 1.381 . S
C235 C234 1.387 . S
C235 H261 0.931 . S
C236 C233 1.487 . S
C236 C243 1.399 . S
C236 N274 1.343 . S
C237 C238 1.384 . S
C237 C239 1.384 . S
C237 H262 0.931 . S
C238 C237 1.384 . S
C238 C241 1.382 . S
C239 C237 1.384 . S
C239 C240 1.381 . S
C239 H263 0.930 . S
C240 C239 1.381 . S
C240 C242 1.381 . S
C240 C243 1.487 . S
C241 C238 1.382 . S
C241 C242 1.387 . S
C241 H264 0.930 . S
C242 C240 1.381 . S
C242 C241 1.387 . S
C242 H265 0.931 . S
C243 C236 1.399 . S
C243 C240 1.487 . S
C243 N275 1.343 . S
C244 C245 1.384 . S
C244 C246 1.384 . S
C244 H266 0.931 . S
C245 C244 1.384 . S
C245 C248 1.382 . S
C246 C244 1.384 . S
C246 C247 1.381 . S
C246 H267 0.930 . S
C247 C246 1.381 . S
C247 C249 1.381 . S
C247 C250 1.487 . S
C248 C245 1.382 . S
C248 C249 1.387 . S
C248 H268 0.930 . S
C249 C247 1.381 . S
C249 C248 1.387 . S
C249 H269 0.931 . S
C250 C247 1.487 . S
C250 C257 1.399 . S
C250 N275 1.343 . S
C251 C252 1.384 . S
C251 C253 1.384 . S
C251 H270 0.931 . S
C252 C251 1.384 . S
C252 C255 1.382 . S
C253 C251 1.384 . S
C253 C254 1.381 . S
C253 H271 0.930 . S
C254 C253 1.381 . S
C254 C256 1.381 . S
C254 C257 1.487 . S
C255 C252 1.382 . S
C255 C256 1.387 . S
C255 H272 0.930 . S
C256 C254 1.381 . S
C256 C255 1.387 . S
C256 H273 0.931 . S
C257 C250 1.399 . S
C257 C254 1.487 . S
C257 N274 1.343 . S
H258 C230 0.931 . S
H259 C232 0.930 . S
H260 C234 0.930 . S
H261 C235 0.931 . S
H262 C237 0.931 . S
H263 C239 0.930 . S
H264 C241 0.930 . S
H265 C242 0.931 . S
H266 C244 0.931 . S
H267 C246 0.930 . S
H268 C248 0.930 . S
H269 C249 0.931 . S
H270 C251 0.931 . S
H271 C253 0.930 . S
H272 C255 0.930 . S
H273 C256 0.931 . S
N274 C236 1.343 . S
N274 C257 1.343 . S
N275 C243 1.343 . S
N275 C250 1.343 . S
O276 Cd277 2.223 . S
O276 C284 1.315 . S
Cd277 O276 2.223 . S
Cd277 O280 2.297 . S
Cd277 O281 2.439 . S
Cd277 O287 2.240 . S
Cd278 O279 2.240 . S
Cd278 O286 2.223 . S
Cd278 O288 2.297 . S
Cd278 O289 2.439 . S
O279 Cd278 2.240 . S
O279 C284 1.279 . S
O280 Cd277 2.297 . S
O280 C282 1.247 . S
O281 Cd277 2.439 . S
O281 C282 1.208 . S
C282 O280 1.247 . S
C282 O281 1.208 . S
C283 O288 1.247 . S
C283 O289 1.208 . S
C284 O276 1.315 . S
C284 O279 1.279 . S
C285 O286 1.315 . S
C285 O287 1.279 . S
O286 Cd278 2.223 . S
O286 C285 1.315 . S
O287 Cd277 2.240 . S
O287 C285 1.279 . S
O288 Cd278 2.297 . S
O288 C283 1.247 . S
O289 Cd278 2.439 . S
O289 C283 1.208 . S
O290 Cd291 2.223 . S
O290 C298 1.315 . S
Cd291 O290 2.223 . S
Cd291 O294 2.297 . S
Cd291 O295 2.439 . S
Cd291 O301 2.240 . S
Cd292 O293 2.240 . S
Cd292 O300 2.223 . S
Cd292 O302 2.297 . S
Cd292 O303 2.439 . S
O293 Cd292 2.240 . S
O293 C298 1.279 . S
O294 Cd291 2.297 . S
O294 C296 1.247 . S
O295 Cd291 2.439 . S
O295 C296 1.208 . S
C296 O294 1.247 . S
C296 O295 1.208 . S
C297 O302 1.247 . S
C297 O303 1.208 . S
C298 O290 1.315 . S
C298 O293 1.279 . S
C299 O300 1.315 . S
C299 O301 1.279 . S
O300 Cd292 2.223 . S
O300 C299 1.315 . S
O301 Cd291 2.240 . S
O301 C299 1.279 . S
O302 Cd292 2.297 . S
O302 C297 1.247 . S
O303 Cd292 2.439 . S
O303 C297 1.208 . S
O304 Cd305 2.223 . S
O304 C312 1.315 . S
Cd305 O304 2.223 . S
Cd305 O308 2.297 . S
Cd305 O309 2.439 . S
Cd305 O315 2.240 . S
Cd306 O307 2.240 . S
Cd306 O314 2.223 . S
Cd306 O316 2.297 . S
Cd306 O317 2.439 . S
O307 Cd306 2.240 . S
O307 C312 1.279 . S
O308 Cd305 2.297 . S
O308 C310 1.247 . S
O309 Cd305 2.439 . S
O309 C310 1.208 . S
C310 O308 1.247 . S
C310 O309 1.208 . S
C311 O316 1.247 . S
C311 O317 1.208 . S
C312 O304 1.315 . S
C312 O307 1.279 . S
C313 O314 1.315 . S
C313 O315 1.279 . S
O314 Cd306 2.223 . S
O314 C313 1.315 . S
O315 Cd305 2.240 . S
O315 C313 1.279 . S
O316 Cd306 2.297 . S
O316 C311 1.247 . S
O317 Cd306 2.439 . S
O317 C311 1.208 . S
O318 Cd319 2.223 . S
O318 C326 1.315 . S
Cd319 O318 2.223 . S
Cd319 O322 2.297 . S
Cd319 O323 2.439 . S
Cd319 O329 2.240 . S
Cd320 O321 2.240 . S
Cd320 O328 2.223 . S
Cd320 O330 2.297 . S
Cd320 O331 2.439 . S
O321 Cd320 2.240 . S
O321 C326 1.279 . S
O322 Cd319 2.297 . S
O322 C324 1.247 . S
O323 Cd319 2.439 . S
O323 C324 1.208 . S
C324 O322 1.247 . S
C324 O323 1.208 . S
C325 O330 1.247 . S
C325 O331 1.208 . S
C326 O318 1.315 . S
C326 O321 1.279 . S
C327 O328 1.315 . S
C327 O329 1.279 . S
O328 Cd320 2.223 . S
O328 C327 1.315 . S
O329 Cd319 2.240 . S
O329 C327 1.279 . S
O330 Cd320 2.297 . S
O330 C325 1.247 . S
O331 Cd320 2.439 . S
O331 C325 1.208 . S
O332 Cd333 2.223 . S
O332 C340 1.315 . S
Cd333 O332 2.223 . S
Cd333 O336 2.297 . S
Cd333 O337 2.439 . S
Cd333 O343 2.240 . S
Cd334 O335 2.240 . S
Cd334 O342 2.223 . S
Cd334 O344 2.297 . S
Cd334 O345 2.439 . S
O335 Cd334 2.240 . S
O335 C340 1.279 . S
O336 Cd333 2.297 . S
O336 C338 1.247 . S
O337 Cd333 2.439 . S
O337 C338 1.208 . S
C338 O336 1.247 . S
C338 O337 1.208 . S
C339 O344 1.247 . S
C339 O345 1.208 . S
C340 O332 1.315 . S
C340 O335 1.279 . S
C341 O342 1.315 . S
C341 O343 1.279 . S
O342 Cd334 2.223 . S
O342 C341 1.315 . S
O343 Cd333 2.240 . S
O343 C341 1.279 . S
O344 Cd334 2.297 . S
O344 C339 1.247 . S
O345 Cd334 2.439 . S
O345 C339 1.208 . S
O346 Cd347 2.223 . S
O346 C354 1.315 . S
Cd347 O346 2.223 . S
Cd347 O350 2.297 . S
Cd347 O351 2.439 . S
Cd347 O357 2.240 . S
Cd348 O349 2.240 . S
Cd348 O356 2.223 . S
Cd348 O358 2.297 . S
Cd348 O359 2.439 . S
O349 Cd348 2.240 . S
O349 C354 1.279 . S
O350 Cd347 2.297 . S
O350 C352 1.247 . S
O351 Cd347 2.439 . S
O351 C352 1.208 . S
C352 O350 1.247 . S
C352 O351 1.208 . S
C353 O358 1.247 . S
C353 O359 1.208 . S
C354 O346 1.315 . S
C354 O349 1.279 . S
C355 O356 1.315 . S
C355 O357 1.279 . S
O356 Cd348 2.223 . S
O356 C355 1.315 . S
O357 Cd347 2.240 . S
O357 C355 1.279 . S
O358 Cd348 2.297 . S
O358 C353 1.247 . S
O359 Cd348 2.439 . S
O359 C353 1.208 . S
C360 C361 1.349 . S
C360 C362 1.327 . S
C360 H385 0.950 . S
C361 C360 1.349 . S
C361 C377 1.349 . S
C362 C360 1.327 . S
C362 C381 1.429 . S
C362 H386 0.950 . S
C363 C380 1.574 . S
C363 C382 1.368 . S
C363 H387 0.949 . S
H364 C368 0.949 . S
C365 C366 1.349 . S
C365 C367 1.327 . S
C365 H388 0.950 . S
C366 C365 1.349 . S
C366 C378 1.349 . S
C367 C365 1.327 . S
C367 C383 1.429 . S
C367 H389 0.950 . S
C368 H364 0.949 . S
C368 C376 1.574 . S
C368 C384 1.368 . S
H369 C377 0.950 . S
H370 C375 0.950 . S
H371 C376 0.949 . S
H372 C378 0.950 . S
H373 C379 0.950 . S
H374 C380 0.949 . S
C375 H370 0.950 . S
C375 C377 1.327 . S
C375 C381 1.429 . S
C376 C368 1.574 . S
C376 H371 0.949 . S
C376 C382 1.368 . S
C377 C361 1.349 . S
C377 H369 0.950 . S
C377 C375 1.327 . S
C378 C366 1.349 . S
C378 H372 0.950 . S
C378 C379 1.327 . S
C379 H373 0.950 . S
C379 C378 1.327 . S
C379 C383 1.429 . S
C380 C363 1.574 . S
C380 H374 0.949 . S
C380 C384 1.368 . S
C381 C362 1.429 . S
C381 C375 1.429 . S
C381 C382 1.523 . S
C382 C363 1.368 . S
C382 C376 1.368 . S
C382 C381 1.523 . S
C383 C367 1.429 . S
C383 C379 1.429 . S
C383 C384 1.523 . S
C384 C368 1.368 . S
C384 C380 1.368 . S
C384 C383 1.523 . S
H385 C360 0.950 . S
H386 C362 0.950 . S
H387 C363 0.949 . S
H388 C365 0.950 . S
H389 C367 0.950 . S
C390 C391 1.349 . S
C390 C392 1.327 . S
C390 H415 0.950 . S
C391 C390 1.349 . S
C391 C407 1.349 . S
C392 C390 1.327 . S
C392 C411 1.429 . S
C392 H416 0.950 . S
C393 C410 1.574 . S
C393 C412 1.368 . S
C393 H417 0.949 . S
H394 C398 0.949 . S
C395 C396 1.349 . S
C395 C397 1.327 . S
C395 H418 0.950 . S
C396 C395 1.349 . S
C396 C408 1.349 . S
C397 C395 1.327 . S
C397 C413 1.429 . S
C397 H419 0.950 . S
C398 H394 0.949 . S
C398 C406 1.574 . S
C398 C414 1.368 . S
H399 C407 0.950 . S
H400 C405 0.950 . S
H401 C406 0.949 . S
H402 C408 0.950 . S
H403 C409 0.950 . S
H404 C410 0.949 . S
C405 H400 0.950 . S
C405 C407 1.327 . S
C405 C411 1.429 . S
C406 C398 1.574 . S
C406 H401 0.949 . S
C406 C412 1.368 . S
C407 C391 1.349 . S
C407 H399 0.950 . S
C407 C405 1.327 . S
C408 C396 1.349 . S
C408 H402 0.950 . S
C408 C409 1.327 . S
C409 H403 0.950 . S
C409 C408 1.327 . S
C409 C413 1.429 . S
C410 C393 1.574 . S
C410 H404 0.949 . S
C410 C414 1.368 . S
C411 C392 1.429 . S
C411 C405 1.429 . S
C411 C412 1.523 . S
C412 C393 1.368 . S
C412 C406 1.368 . S
C412 C411 1.523 . S
C413 C397 1.429 . S
C413 C409 1.429 . S
C413 C414 1.523 . S
C414 C398 1.368 . S
C414 C410 1.368 . S
C414 C413 1.523 . S
H415 C390 0.950 . S
H416 C392 0.950 . S
H417 C393 0.949 . S
H418 C395 0.950 . S
H419 C397 0.950 . S
C420 C421 1.349 . S
C420 C422 1.327 . S
C420 H445 0.950 . S
C421 C420 1.349 . S
C421 C437 1.349 . S
C422 C420 1.327 . S
C422 C441 1.429 . S
C422 H446 0.950 . S
C423 C440 1.574 . S
C423 C442 1.368 . S
C423 H447 0.949 . S
H424 C428 0.949 . S
C425 C426 1.349 . S
C425 C427 1.327 . S
C425 H448 0.950 . S
C426 C425 1.349 . S
C426 C438 1.349 . S
C427 C425 1.327 . S
C427 C443 1.429 . S
C427 H449 0.950 . S
C428 H424 0.949 . S
C428 C436 1.574 . S
C428 C444 1.368 . S
H429 C437 0.950 . S
H430 C435 0.950 . S
H431 C436 0.949 . S
H432 C438 0.950 . S
H433 C439 0.950 . S
H434 C440 0.949 . S
C435 H430 0.950 . S
C435 C437 1.327 . S
C435 C441 1.429 . S
C436 C428 1.574 . S
C436 H431 0.949 . S
C436 C442 1.368 . S
C437 C421 1.349 . S
C437 H429 0.950 . S
C437 C435 1.327 . S
C438 C426 1.349 . S
C438 H432 0.950 . S
C438 C439 1.327 . S
C439 H433 0.950 . S
C439 C438 1.327 . S
C439 C443 1.429 . S
C440 C423 1.574 . S
C440 H434 0.949 . S
C440 C444 1.368 . S
C441 C422 1.429 . S
C441 C435 1.429 . S
C441 C442 1.523 . S
C442 C423 1.368 . S
C442 C436 1.368 . S
C442 C441 1.523 . S
C443 C427 1.429 . S
C443 C439 1.429 . S
C443 C444 1.523 . S
C444 C428 1.368 . S
C444 C440 1.368 . S
C444 C443 1.523 . S
H445 C420 0.950 . S
H446 C422 0.950 . S
H447 C423 0.949 . S
H448 C425 0.950 . S
H449 C427 0.950 . S
C450 C451 1.349 . S
C450 C452 1.327 . S
C450 H475 0.950 . S
C451 C450 1.349 . S
C451 C467 1.349 . S
C452 C450 1.327 . S
C452 C471 1.429 . S
C452 H476 0.950 . S
C453 C470 1.574 . S
C453 C472 1.368 . S
C453 H477 0.949 . S
H454 C458 0.949 . S
C455 C456 1.349 . S
C455 C457 1.327 . S
C455 H478 0.950 . S
C456 C455 1.349 . S
C456 C468 1.349 . S
C457 C455 1.327 . S
C457 C473 1.429 . S
C457 H479 0.950 . S
C458 H454 0.949 . S
C458 C466 1.574 . S
C458 C474 1.368 . S
H459 C467 0.950 . S
H460 C465 0.950 . S
H461 C466 0.949 . S
H462 C468 0.950 . S
H463 C469 0.950 . S
H464 C470 0.949 . S
C465 H460 0.950 . S
C465 C467 1.327 . S
C465 C471 1.429 . S
C466 C458 1.574 . S
C466 H461 0.949 . S
C466 C472 1.368 . S
C467 C451 1.349 . S
C467 H459 0.950 . S
C467 C465 1.327 . S
C468 C456 1.349 . S
C468 H462 0.950 . S
C468 C469 1.327 . S
C469 H463 0.950 . S
C469 C468 1.327 . S
C469 C473 1.429 . S
C470 C453 1.574 . S
C470 H464 0.949 . S
C470 C474 1.368 . S
C471 C452 1.429 . S
C471 C465 1.429 . S
C471 C472 1.523 . S
C472 C453 1.368 . S
C472 C466 1.368 . S
C472 C471 1.523 . S
C473 C457 1.429 . S
C473 C469 1.429 . S
C473 C474 1.523 . S
C474 C458 1.368 . S
C474 C470 1.368 . S
C474 C473 1.523 . S
H475 C450 0.950 . S
H476 C452 0.950 . S
H477 C453 0.949 . S
H478 C455 0.950 . S
H479 C457 0.950 . S
C480 C481 1.349 . S
C480 C482 1.327 . S
C480 H505 0.950 . S
C481 C480 1.349 . S
C481 C497 1.349 . S
C482 C480 1.327 . S
C482 C501 1.429 . S
C482 H506 0.950 . S
C483 C500 1.574 . S
C483 C502 1.368 . S
C483 H507 0.949 . S
H484 C488 0.949 . S
C485 C486 1.349 . S
C485 C487 1.327 . S
C485 H508 0.950 . S
C486 C485 1.349 . S
C486 C498 1.349 . S
C487 C485 1.327 . S
C487 C503 1.429 . S
C487 H509 0.950 . S
C488 H484 0.949 . S
C488 C496 1.574 . S
C488 C504 1.368 . S
H489 C497 0.950 . S
H490 C495 0.950 . S
H491 C496 0.949 . S
H492 C498 0.950 . S
H493 C499 0.950 . S
H494 C500 0.949 . S
C495 H490 0.950 . S
C495 C497 1.327 . S
C495 C501 1.429 . S
C496 C488 1.574 . S
C496 H491 0.949 . S
C496 C502 1.368 . S
C497 C481 1.349 . S
C497 H489 0.950 . S
C497 C495 1.327 . S
C498 C486 1.349 . S
C498 H492 0.950 . S
C498 C499 1.327 . S
C499 H493 0.950 . S
C499 C498 1.327 . S
C499 C503 1.429 . S
C500 C483 1.574 . S
C500 H494 0.949 . S
C500 C504 1.368 . S
C501 C482 1.429 . S
C501 C495 1.429 . S
C501 C502 1.523 . S
C502 C483 1.368 . S
C502 C496 1.368 . S
C502 C501 1.523 . S
C503 C487 1.429 . S
C503 C499 1.429 . S
C503 C504 1.523 . S
C504 C488 1.368 . S
C504 C500 1.368 . S
C504 C503 1.523 . S
H505 C480 0.950 . S
H506 C482 0.950 . S
H507 C483 0.949 . S
H508 C485 0.950 . S
H509 C487 0.950 . S
C510 C511 1.349 . S
C510 C512 1.327 . S
C510 H535 0.950 . S
C511 C510 1.349 . S
C511 C527 1.349 . S
C512 C510 1.327 . S
C512 C531 1.429 . S
C512 H536 0.950 . S
C513 C530 1.574 . S
C513 C532 1.368 . S
C513 H537 0.949 . S
H514 C518 0.949 . S
C515 C516 1.349 . S
C515 C517 1.327 . S
C515 H538 0.950 . S
C516 C515 1.349 . S
C516 C528 1.349 . S
C517 C515 1.327 . S
C517 C533 1.429 . S
C517 H539 0.950 . S
C518 H514 0.949 . S
C518 C526 1.574 . S
C518 C534 1.368 . S
H519 C527 0.950 . S
H520 C525 0.950 . S
H521 C526 0.949 . S
H522 C528 0.950 . S
H523 C529 0.950 . S
H524 C530 0.949 . S
C525 H520 0.950 . S
C525 C527 1.327 . S
C525 C531 1.429 . S
C526 C518 1.574 . S
C526 H521 0.949 . S
C526 C532 1.368 . S
C527 C511 1.349 . S
C527 H519 0.950 . S
C527 C525 1.327 . S
C528 C516 1.349 . S
C528 H522 0.950 . S
C528 C529 1.327 . S
C529 H523 0.950 . S
C529 C528 1.327 . S
C529 C533 1.429 . S
C530 C513 1.574 . S
C530 H524 0.949 . S
C530 C534 1.368 . S
C531 C512 1.429 . S
C531 C525 1.429 . S
C531 C532 1.523 . S
C532 C513 1.368 . S
C532 C526 1.368 . S
C532 C531 1.523 . S
C533 C517 1.429 . S
C533 C529 1.429 . S
C533 C534 1.523 . S
C534 C518 1.368 . S
C534 C530 1.368 . S
C534 C533 1.523 . S
H535 C510 0.950 . S
H536 C512 0.950 . S
H537 C513 0.949 . S
H538 C515 0.950 . S
H539 C517 0.950 . S
C540 C541 1.349 . S
C540 C542 1.327 . S
C540 H565 0.950 . S
C541 C540 1.349 . S
C541 C557 1.349 . S
C542 C540 1.327 . S
C542 C561 1.429 . S
C542 H566 0.950 . S
C543 C560 1.574 . S
C543 C562 1.368 . S
C543 H567 0.949 . S
H544 C548 0.949 . S
C545 C546 1.349 . S
C545 C547 1.327 . S
C545 H568 0.950 . S
C546 C545 1.349 . S
C546 C558 1.349 . S
C547 C545 1.327 . S
C547 C563 1.429 . S
C547 H569 0.950 . S
C548 H544 0.949 . S
C548 C556 1.574 . S
C548 C564 1.368 . S
H549 C557 0.950 . S
H550 C555 0.950 . S
H551 C556 0.949 . S
H552 C558 0.950 . S
H553 C559 0.950 . S
H554 C560 0.949 . S
C555 H550 0.950 . S
C555 C557 1.327 . S
C555 C561 1.429 . S
C556 C548 1.574 . S
C556 H551 0.949 . S
C556 C562 1.368 . S
C557 C541 1.349 . S
C557 H549 0.950 . S
C557 C555 1.327 . S
C558 C546 1.349 . S
C558 H552 0.950 . S
C558 C559 1.327 . S
C559 H553 0.950 . S
C559 C558 1.327 . S
C559 C563 1.429 . S
C560 C543 1.574 . S
C560 H554 0.949 . S
C560 C564 1.368 . S
C561 C542 1.429 . S
C561 C555 1.429 . S
C561 C562 1.523 . S
C562 C543 1.368 . S
C562 C556 1.368 . S
C562 C561 1.523 . S
C563 C547 1.429 . S
C563 C559 1.429 . S
C563 C564 1.523 . S
C564 C548 1.368 . S
C564 C560 1.368 . S
C564 C563 1.523 . S
H565 C540 0.950 . S
H566 C542 0.950 . S
H567 C543 0.949 . S
H568 C545 0.950 . S
H569 C547 0.950 . S
C570 C571 1.349 . S
C570 C572 1.327 . S
C570 H595 0.950 . S
C571 C570 1.349 . S
C571 C587 1.349 . S
C572 C570 1.327 . S
C572 C591 1.429 . S
C572 H596 0.950 . S
C573 C590 1.574 . S
C573 C592 1.368 . S
C573 H597 0.949 . S
H574 C578 0.949 . S
C575 C576 1.349 . S
C575 C577 1.327 . S
C575 H598 0.950 . S
C576 C575 1.349 . S
C576 C588 1.349 . S
C577 C575 1.327 . S
C577 C593 1.429 . S
C577 H599 0.950 . S
C578 H574 0.949 . S
C578 C586 1.574 . S
C578 C594 1.368 . S
H579 C587 0.950 . S
H580 C585 0.950 . S
H581 C586 0.949 . S
H582 C588 0.950 . S
H583 C589 0.950 . S
H584 C590 0.949 . S
C585 H580 0.950 . S
C585 C587 1.327 . S
C585 C591 1.429 . S
C586 C578 1.574 . S
C586 H581 0.949 . S
C586 C592 1.368 . S
C587 C571 1.349 . S
C587 H579 0.950 . S
C587 C585 1.327 . S
C588 C576 1.349 . S
C588 H582 0.950 . S
C588 C589 1.327 . S
C589 H583 0.950 . S
C589 C588 1.327 . S
C589 C593 1.429 . S
C590 C573 1.574 . S
C590 H584 0.949 . S
C590 C594 1.368 . S
C591 C572 1.429 . S
C591 C585 1.429 . S
C591 C592 1.523 . S
C592 C573 1.368 . S
C592 C586 1.368 . S
C592 C591 1.523 . S
C593 C577 1.429 . S
C593 C589 1.429 . S
C593 C594 1.523 . S
C594 C578 1.368 . S
C594 C590 1.368 . S
C594 C593 1.523 . S
H595 C570 0.950 . S
H596 C572 0.950 . S
H597 C573 0.949 . S
H598 C575 0.950 . S
H599 C577 0.950 . S
C600 C601 1.349 . S
C600 C602 1.327 . S
C600 H625 0.950 . S
C601 C600 1.349 . S
C601 C617 1.349 . S
C602 C600 1.327 . S
C602 C621 1.429 . S
C602 H626 0.950 . S
C603 C620 1.574 . S
C603 C622 1.368 . S
C603 H627 0.949 . S
H604 C608 0.949 . S
C605 C606 1.349 . S
C605 C607 1.327 . S
C605 H628 0.950 . S
C606 C605 1.349 . S
C606 C618 1.349 . S
C607 C605 1.327 . S
C607 C623 1.429 . S
C607 H629 0.950 . S
C608 H604 0.949 . S
C608 C616 1.574 . S
C608 C624 1.368 . S
H609 C617 0.950 . S
H610 C615 0.950 . S
H611 C616 0.949 . S
H612 C618 0.950 . S
H613 C619 0.950 . S
H614 C620 0.949 . S
C615 H610 0.950 . S
C615 C617 1.327 . S
C615 C621 1.429 . S
C616 C608 1.574 . S
C616 H611 0.949 . S
C616 C622 1.368 . S
C617 C601 1.349 . S
C617 H609 0.950 . S
C617 C615 1.327 . S
C618 C606 1.349 . S
C618 H612 0.950 . S
C618 C619 1.327 . S
C619 H613 0.950 . S
C619 C618 1.327 . S
C619 C623 1.429 . S
C620 C603 1.574 . S
C620 H614 0.949 . S
C620 C624 1.368 . S
C621 C602 1.429 . S
C621 C615 1.429 . S
C621 C622 1.523 . S
C622 C603 1.368 . S
C622 C616 1.368 . S
C622 C621 1.523 . S
C623 C607 1.429 . S
C623 C619 1.429 . S
C623 C624 1.523 . S
C624 C608 1.368 . S
C624 C620 1.368 . S
C624 C623 1.523 . S
H625 C600 0.950 . S
H626 C602 0.950 . S
H627 C603 0.949 . S
H628 C605 0.950 . S
H629 C607 0.950 . S
C630 C631 1.349 . S
C630 C632 1.327 . S
C630 H655 0.950 . S
C631 C630 1.349 . S
C631 C647 1.349 . S
C632 C630 1.327 . S
C632 C651 1.429 . S
C632 H656 0.950 . S
C633 C650 1.574 . S
C633 C652 1.368 . S
C633 H657 0.949 . S
H634 C638 0.949 . S
C635 C636 1.349 . S
C635 C637 1.327 . S
C635 H658 0.950 . S
C636 C635 1.349 . S
C636 C648 1.349 . S
C637 C635 1.327 . S
C637 C653 1.429 . S
C637 H659 0.950 . S
C638 H634 0.949 . S
C638 C646 1.574 . S
C638 C654 1.368 . S
H639 C647 0.950 . S
H640 C645 0.950 . S
H641 C646 0.949 . S
H642 C648 0.950 . S
H643 C649 0.950 . S
H644 C650 0.949 . S
C645 H640 0.950 . S
C645 C647 1.327 . S
C645 C651 1.429 . S
C646 C638 1.574 . S
C646 H641 0.949 . S
C646 C652 1.368 . S
C647 C631 1.349 . S
C647 H639 0.950 . S
C647 C645 1.327 . S
C648 C636 1.349 . S
C648 H642 0.950 . S
C648 C649 1.327 . S
C649 H643 0.950 . S
C649 C648 1.327 . S
C649 C653 1.429 . S
C650 C633 1.574 . S
C650 H644 0.949 . S
C650 C654 1.368 . S
C651 C632 1.429 . S
C651 C645 1.429 . S
C651 C652 1.523 . S
C652 C633 1.368 . S
C652 C646 1.368 . S
C652 C651 1.523 . S
C653 C637 1.429 . S
C653 C649 1.429 . S
C653 C654 1.523 . S
C654 C638 1.368 . S
C654 C650 1.368 . S
C654 C653 1.523 . S
H655 C630 0.950 . S
H656 C632 0.950 . S
H657 C633 0.949 . S
H658 C635 0.950 . S
H659 C637 0.950 . S
C660 C661 1.349 . S
C660 C662 1.327 . S
C660 H685 0.950 . S
C661 C660 1.349 . S
C661 C677 1.349 . S
C662 C660 1.327 . S
C662 C681 1.429 . S
C662 H686 0.950 . S
C663 C680 1.574 . S
C663 C682 1.368 . S
C663 H687 0.949 . S
H664 C668 0.949 . S
C665 C666 1.349 . S
C665 C667 1.327 . S
C665 H688 0.950 . S
C666 C665 1.349 . S
C666 C678 1.349 . S
C667 C665 1.327 . S
C667 C683 1.429 . S
C667 H689 0.950 . S
C668 H664 0.949 . S
C668 C676 1.574 . S
C668 C684 1.368 . S
H669 C677 0.950 . S
H670 C675 0.950 . S
H671 C676 0.949 . S
H672 C678 0.950 . S
H673 C679 0.950 . S
H674 C680 0.949 . S
C675 H670 0.950 . S
C675 C677 1.327 . S
C675 C681 1.429 . S
C676 C668 1.574 . S
C676 H671 0.949 . S
C676 C682 1.368 . S
C677 C661 1.349 . S
C677 H669 0.950 . S
C677 C675 1.327 . S
C678 C666 1.349 . S
C678 H672 0.950 . S
C678 C679 1.327 . S
C679 H673 0.950 . S
C679 C678 1.327 . S
C679 C683 1.429 . S
C680 C663 1.574 . S
C680 H674 0.949 . S
C680 C684 1.368 . S
C681 C662 1.429 . S
C681 C675 1.429 . S
C681 C682 1.523 . S
C682 C663 1.368 . S
C682 C676 1.368 . S
C682 C681 1.523 . S
C683 C667 1.429 . S
C683 C679 1.429 . S
C683 C684 1.523 . S
C684 C668 1.368 . S
C684 C680 1.368 . S
C684 C683 1.523 . S
H685 C660 0.950 . S
H686 C662 0.950 . S
H687 C663 0.949 . S
H688 C665 0.950 . S
H689 C667 0.950 . S
C690 C691 1.349 . S
C690 C692 1.327 . S
C690 H715 0.950 . S
C691 C690 1.349 . S
C691 C707 1.349 . S
C692 C690 1.327 . S
C692 C711 1.429 . S
C692 H716 0.950 . S
C693 C710 1.574 . S
C693 C712 1.368 . S
C693 H717 0.949 . S
H694 C698 0.949 . S
C695 C696 1.349 . S
C695 C697 1.327 . S
C695 H718 0.950 . S
C696 C695 1.349 . S
C696 C708 1.349 . S
C697 C695 1.327 . S
C697 C713 1.429 . S
C697 H719 0.950 . S
C698 H694 0.949 . S
C698 C706 1.574 . S
C698 C714 1.368 . S
H699 C707 0.950 . S
H700 C705 0.950 . S
H701 C706 0.949 . S
H702 C708 0.950 . S
H703 C709 0.950 . S
H704 C710 0.949 . S
C705 H700 0.950 . S
C705 C707 1.327 . S
C705 C711 1.429 . S
C706 C698 1.574 . S
C706 H701 0.949 . S
C706 C712 1.368 . S
C707 C691 1.349 . S
C707 H699 0.950 . S
C707 C705 1.327 . S
C708 C696 1.349 . S
C708 H702 0.950 . S
C708 C709 1.327 . S
C709 H703 0.950 . S
C709 C708 1.327 . S
C709 C713 1.429 . S
C710 C693 1.574 . S
C710 H704 0.949 . S
C710 C714 1.368 . S
C711 C692 1.429 . S
C711 C705 1.429 . S
C711 C712 1.523 . S
C712 C693 1.368 . S
C712 C706 1.368 . S
C712 C711 1.523 . S
C713 C697 1.429 . S
C713 C709 1.429 . S
C713 C714 1.523 . S
C714 C698 1.368 . S
C714 C710 1.368 . S
C714 C713 1.523 . S
H715 C690 0.950 . S
H716 C692 0.950 . S
H717 C693 0.949 . S
H718 C695 0.950 . S
H719 C697 0.950 . S
C720 C721 1.349 . S
C720 C722 1.327 . S
C720 H745 0.950 . S
C721 C720 1.349 . S
C721 C737 1.349 . S
C722 C720 1.327 . S
C722 C741 1.429 . S
C722 H746 0.950 . S
C723 C740 1.574 . S
C723 C742 1.368 . S
C723 H747 0.949 . S
H724 C728 0.949 . S
C725 C726 1.349 . S
C725 C727 1.327 . S
C725 H748 0.950 . S
C726 C725 1.349 . S
C726 C738 1.349 . S
C727 C725 1.327 . S
C727 C743 1.429 . S
C727 H749 0.950 . S
C728 H724 0.949 . S
C728 C736 1.574 . S
C728 C744 1.368 . S
H729 C737 0.950 . S
H730 C735 0.950 . S
H731 C736 0.949 . S
H732 C738 0.950 . S
H733 C739 0.950 . S
H734 C740 0.949 . S
C735 H730 0.950 . S
C735 C737 1.327 . S
C735 C741 1.429 . S
C736 C728 1.574 . S
C736 H731 0.949 . S
C736 C742 1.368 . S
C737 C721 1.349 . S
C737 H729 0.950 . S
C737 C735 1.327 . S
C738 C726 1.349 . S
C738 H732 0.950 . S
C738 C739 1.327 . S
C739 H733 0.950 . S
C739 C738 1.327 . S
C739 C743 1.429 . S
C740 C723 1.574 . S
C740 H734 0.949 . S
C740 C744 1.368 . S
C741 C722 1.429 . S
C741 C735 1.429 . S
C741 C742 1.523 . S
C742 C723 1.368 . S
C742 C736 1.368 . S
C742 C741 1.523 . S
C743 C727 1.429 . S
C743 C739 1.429 . S
C743 C744 1.523 . S
C744 C728 1.368 . S
C744 C740 1.368 . S
C744 C743 1.523 . S
H745 C720 0.950 . S
H746 C722 0.950 . S
H747 C723 0.949 . S
H748 C725 0.950 . S
H749 C727 0.950 . S
C750 C751 1.349 . S
C750 C752 1.327 . S
C750 H775 0.950 . S
C751 C750 1.349 . S
C751 C767 1.349 . S
C752 C750 1.327 . S
C752 C771 1.429 . S
C752 H776 0.950 . S
C753 C770 1.574 . S
C753 C772 1.368 . S
C753 H777 0.949 . S
H754 C758 0.949 . S
C755 C756 1.349 . S
C755 C757 1.327 . S
C755 H778 0.950 . S
C756 C755 1.349 . S
C756 C768 1.349 . S
C757 C755 1.327 . S
C757 C773 1.429 . S
C757 H779 0.950 . S
C758 H754 0.949 . S
C758 C766 1.574 . S
C758 C774 1.368 . S
H759 C767 0.950 . S
H760 C765 0.950 . S
H761 C766 0.949 . S
H762 C768 0.950 . S
H763 C769 0.950 . S
H764 C770 0.949 . S
C765 H760 0.950 . S
C765 C767 1.327 . S
C765 C771 1.429 . S
C766 C758 1.574 . S
C766 H761 0.949 . S
C766 C772 1.368 . S
C767 C751 1.349 . S
C767 H759 0.950 . S
C767 C765 1.327 . S
C768 C756 1.349 . S
C768 H762 0.950 . S
C768 C769 1.327 . S
C769 H763 0.950 . S
C769 C768 1.327 . S
C769 C773 1.429 . S
C770 C753 1.574 . S
C770 H764 0.949 . S
C770 C774 1.368 . S
C771 C752 1.429 . S
C771 C765 1.429 . S
C771 C772 1.523 . S
C772 C753 1.368 . S
C772 C766 1.368 . S
C772 C771 1.523 . S
C773 C757 1.429 . S
C773 C769 1.429 . S
C773 C774 1.523 . S
C774 C758 1.368 . S
C774 C770 1.368 . S
C774 C773 1.523 . S
H775 C750 0.950 . S
H776 C752 0.950 . S
H777 C753 0.949 . S
H778 C755 0.950 . S
H779 C757 0.950 . S
C780 C781 1.349 . S
C780 C782 1.327 . S
C780 H805 0.950 . S
C781 C780 1.349 . S
C781 C797 1.349 . S
C782 C780 1.327 . S
C782 C801 1.429 . S
C782 H806 0.950 . S
C783 C800 1.574 . S
C783 C802 1.368 . S
C783 H807 0.949 . S
H784 C788 0.949 . S
C785 C786 1.349 . S
C785 C787 1.327 . S
C785 H808 0.950 . S
C786 C785 1.349 . S
C786 C798 1.349 . S
C787 C785 1.327 . S
C787 C803 1.429 . S
C787 H809 0.950 . S
C788 H784 0.949 . S
C788 C796 1.574 . S
C788 C804 1.368 . S
H789 C797 0.950 . S
H790 C795 0.950 . S
H791 C796 0.949 . S
H792 C798 0.950 . S
H793 C799 0.950 . S
H794 C800 0.949 . S
C795 H790 0.950 . S
C795 C797 1.327 . S
C795 C801 1.429 . S
C796 C788 1.574 . S
C796 H791 0.949 . S
C796 C802 1.368 . S
C797 C781 1.349 . S
C797 H789 0.950 . S
C797 C795 1.327 . S
C798 C786 1.349 . S
C798 H792 0.950 . S
C798 C799 1.327 . S
C799 H793 0.950 . S
C799 C798 1.327 . S
C799 C803 1.429 . S
C800 C783 1.574 . S
C800 H794 0.949 . S
C800 C804 1.368 . S
C801 C782 1.429 . S
C801 C795 1.429 . S
C801 C802 1.523 . S
C802 C783 1.368 . S
C802 C796 1.368 . S
C802 C801 1.523 . S
C803 C787 1.429 . S
C803 C799 1.429 . S
C803 C804 1.523 . S
C804 C788 1.368 . S
C804 C800 1.368 . S
C804 C803 1.523 . S
H805 C780 0.950 . S
H806 C782 0.950 . S
H807 C783 0.949 . S
H808 C785 0.950 . S
H809 C787 0.950 . S
C810 C811 1.349 . S
C810 C812 1.327 . S
C810 H835 0.950 . S
C811 C810 1.349 . S
C811 C827 1.349 . S
C812 C810 1.327 . S
C812 C831 1.429 . S
C812 H836 0.950 . S
C813 C830 1.574 . S
C813 C832 1.368 . S
C813 H837 0.949 . S
H814 C818 0.949 . S
C815 C816 1.349 . S
C815 C817 1.327 . S
C815 H838 0.950 . S
C816 C815 1.349 . S
C816 C828 1.349 . S
C817 C815 1.327 . S
C817 C833 1.429 . S
C817 H839 0.950 1_554 S
C818 H814 0.949 . S
C818 C826 1.574 . S
C818 C834 1.368 . S
H819 C827 0.950 . S
H820 C825 0.950 . S
H821 C826 0.949 . S
H822 C828 0.950 . S
H823 C829 0.950 . S
H824 C830 0.949 . S
C825 H820 0.950 . S
C825 C827 1.327 . S
C825 C831 1.429 . S
C826 C818 1.574 . S
C826 H821 0.949 . S
C826 C832 1.368 . S
C827 C811 1.349 . S
C827 H819 0.950 . S
C827 C825 1.327 . S
C828 C816 1.349 . S
C828 H822 0.950 . S
C828 C829 1.327 . S
C829 H823 0.950 . S
C829 C828 1.327 . S
C829 C833 1.429 . S
C830 C813 1.574 . S
C830 H824 0.949 . S
C830 C834 1.368 . S
C831 C812 1.429 . S
C831 C825 1.429 . S
C831 C832 1.523 . S
C832 C813 1.368 . S
C832 C826 1.368 . S
C832 C831 1.523 . S
C833 C817 1.429 . S
C833 C829 1.429 . S
C833 C834 1.523 1_554 S
C834 C818 1.368 . S
C834 C830 1.368 . S
C834 C833 1.523 1_556 S
H835 C810 0.950 . S
H836 C812 0.950 . S
H837 C813 0.949 . S
H838 C815 0.950 . S
H839 C817 0.950 1_556 S
C840 C841 1.349 . S
C840 C842 1.327 . S
C840 H865 0.950 . S
C841 C840 1.349 . S
C841 C857 1.349 . S
C842 C840 1.327 . S
C842 C861 1.429 . S
C842 H866 0.950 . S
C843 C860 1.574 . S
C843 C862 1.368 . S
C843 H867 0.949 . S
H844 C848 0.949 . S
C845 C846 1.349 . S
C845 C847 1.327 . S
C845 H868 0.950 . S
C846 C845 1.349 . S
C846 C858 1.349 . S
C847 C845 1.327 . S
C847 C863 1.429 . S
C847 H869 0.950 . S
C848 H844 0.949 . S
C848 C856 1.574 . S
C848 C864 1.368 . S
H849 C857 0.950 . S
H850 C855 0.950 . S
H851 C856 0.949 . S
H852 C858 0.950 . S
H853 C859 0.950 . S
H854 C860 0.949 . S
C855 H850 0.950 . S
C855 C857 1.327 . S
C855 C861 1.429 . S
C856 C848 1.574 . S
C856 H851 0.949 . S
C856 C862 1.368 . S
C857 C841 1.349 . S
C857 H849 0.950 . S
C857 C855 1.327 . S
C858 C846 1.349 . S
C858 H852 0.950 . S
C858 C859 1.327 . S
C859 H853 0.950 . S
C859 C858 1.327 . S
C859 C863 1.429 . S
C860 C843 1.574 . S
C860 H854 0.949 . S
C860 C864 1.368 . S
C861 C842 1.429 . S
C861 C855 1.429 . S
C861 C862 1.523 . S
C862 C843 1.368 . S
C862 C856 1.368 . S
C862 C861 1.523 . S
C863 C847 1.429 . S
C863 C859 1.429 . S
C863 C864 1.523 . S
C864 C848 1.368 . S
C864 C860 1.368 . S
C864 C863 1.523 . S
H865 C840 0.950 . S
H866 C842 0.950 . S
H867 C843 0.949 . S
H868 C845 0.950 . S
H869 C847 0.950 . S
C870 C871 1.349 . S
C870 C872 1.327 . S
C870 H895 0.950 . S
C871 C870 1.349 . S
C871 C887 1.349 . S
C872 C870 1.327 . S
C872 C891 1.429 . S
C872 H896 0.950 . S
C873 C890 1.574 . S
C873 C892 1.368 . S
C873 H897 0.949 . S
H874 C878 0.949 . S
C875 C876 1.349 . S
C875 C877 1.327 . S
C875 H898 0.950 . S
C876 C875 1.349 . S
C876 C888 1.349 . S
C877 C875 1.327 . S
C877 C893 1.429 . S
C877 H899 0.950 . S
C878 H874 0.949 . S
C878 C886 1.574 . S
C878 C894 1.368 . S
H879 C887 0.950 . S
H880 C885 0.950 . S
H881 C886 0.949 . S
H882 C888 0.950 . S
H883 C889 0.950 . S
H884 C890 0.949 . S
C885 H880 0.950 . S
C885 C887 1.327 . S
C885 C891 1.429 . S
C886 C878 1.574 . S
C886 H881 0.949 . S
C886 C892 1.368 . S
C887 C871 1.349 . S
C887 H879 0.950 . S
C887 C885 1.327 . S
C888 C876 1.349 . S
C888 H882 0.950 . S
C888 C889 1.327 . S
C889 H883 0.950 . S
C889 C888 1.327 . S
C889 C893 1.429 . S
C890 C873 1.574 . S
C890 H884 0.949 . S
C890 C894 1.368 . S
C891 C872 1.429 . S
C891 C885 1.429 . S
C891 C892 1.523 . S
C892 C873 1.368 . S
C892 C886 1.368 . S
C892 C891 1.523 . S
C893 C877 1.429 . S
C893 C889 1.429 . S
C893 C894 1.523 . S
C894 C878 1.368 . S
C894 C890 1.368 . S
C894 C893 1.523 . S
H895 C870 0.950 . S
H896 C872 0.950 . S
H897 C873 0.949 . S
H898 C875 0.950 . S
H899 C877 0.950 . S
C900 C901 1.349 . S
C900 C902 1.327 . S
C900 H925 0.950 . S
C901 C900 1.349 . S
C901 C917 1.349 . S
C902 C900 1.327 . S
C902 C921 1.429 . S
C902 H926 0.950 . S
C903 C920 1.574 . S
C903 C922 1.368 . S
C903 H927 0.949 . S
H904 C908 0.949 . S
C905 C906 1.349 . S
C905 C907 1.327 . S
C905 H928 0.950 . S
C906 C905 1.349 . S
C906 C918 1.349 . S
C907 C905 1.327 . S
C907 C923 1.429 . S
C907 H929 0.950 . S
C908 H904 0.949 . S
C908 C916 1.574 . S
C908 C924 1.368 . S
H909 C917 0.950 . S
H910 C915 0.950 . S
H911 C916 0.949 . S
H912 C918 0.950 . S
H913 C919 0.950 . S
H914 C920 0.949 . S
C915 H910 0.950 . S
C915 C917 1.327 . S
C915 C921 1.429 . S
C916 C908 1.574 . S
C916 H911 0.949 . S
C916 C922 1.368 . S
C917 C901 1.349 . S
C917 H909 0.950 . S
C917 C915 1.327 . S
C918 C906 1.349 . S
C918 H912 0.950 . S
C918 C919 1.327 . S
C919 H913 0.950 . S
C919 C918 1.327 . S
C919 C923 1.429 . S
C920 C903 1.574 . S
C920 H914 0.949 . S
C920 C924 1.368 . S
C921 C902 1.429 . S
C921 C915 1.429 . S
C921 C922 1.523 . S
C922 C903 1.368 . S
C922 C916 1.368 . S
C922 C921 1.523 . S
C923 C907 1.429 . S
C923 C919 1.429 . S
C923 C924 1.523 . S
C924 C908 1.368 . S
C924 C920 1.368 . S
C924 C923 1.523 . S
H925 C900 0.950 . S
H926 C902 0.950 . S
H927 C903 0.949 . S
H928 C905 0.950 . S
H929 C907 0.950 . S
C930 C931 1.349 . S
C930 C932 1.327 . S
C930 H955 0.950 . S
C931 C930 1.349 . S
C931 C947 1.349 . S
C932 C930 1.327 . S
C932 C951 1.429 . S
C932 H956 0.950 . S
C933 C950 1.574 . S
C933 C952 1.368 . S
C933 H957 0.949 . S
H934 C938 0.949 . S
C935 C936 1.349 . S
C935 C937 1.327 . S
C935 H958 0.950 . S
C936 C935 1.349 . S
C936 C948 1.349 . S
C937 C935 1.327 . S
C937 C953 1.429 . S
C937 H959 0.950 . S
C938 H934 0.949 . S
C938 C946 1.574 . S
C938 C954 1.368 . S
H939 C947 0.950 . S
H940 C945 0.950 . S
H941 C946 0.949 . S
H942 C948 0.950 . S
H943 C949 0.950 . S
H944 C950 0.949 . S
C945 H940 0.950 . S
C945 C947 1.327 . S
C945 C951 1.429 . S
C946 C938 1.574 . S
C946 H941 0.949 . S
C946 C952 1.368 . S
C947 C931 1.349 . S
C947 H939 0.950 . S
C947 C945 1.327 . S
C948 C936 1.349 . S
C948 H942 0.950 . S
C948 C949 1.327 . S
C949 H943 0.950 . S
C949 C948 1.327 . S
C949 C953 1.429 . S
C950 C933 1.574 . S
C950 H944 0.949 . S
C950 C954 1.368 . S
C951 C932 1.429 . S
C951 C945 1.429 . S
C951 C952 1.523 . S
C952 C933 1.368 . S
C952 C946 1.368 . S
C952 C951 1.523 . S
C953 C937 1.429 . S
C953 C949 1.429 . S
C953 C954 1.523 . S
C954 C938 1.368 . S
C954 C950 1.368 . S
C954 C953 1.523 . S
H955 C930 0.950 . S
H956 C932 0.950 . S
H957 C933 0.949 . S
H958 C935 0.950 . S
H959 C937 0.950 . S
C960 C961 1.349 . S
C960 C962 1.327 . S
C960 H985 0.950 . S
C961 C960 1.349 . S
C961 C977 1.349 . S
C962 C960 1.327 . S
C962 C981 1.429 . S
C962 H986 0.950 . S
C963 C980 1.574 . S
C963 C982 1.368 . S
C963 H987 0.949 . S
H964 C968 0.949 . S
C965 C966 1.349 . S
C965 C967 1.327 . S
C965 H988 0.950 . S
C966 C965 1.349 . S
C966 C978 1.349 . S
C967 C965 1.327 . S
C967 C983 1.429 . S
C967 H989 0.950 . S
C968 H964 0.949 . S
C968 C976 1.574 . S
C968 C984 1.368 . S
H969 C977 0.950 . S
H970 C975 0.950 . S
H971 C976 0.949 . S
H972 C978 0.950 . S
H973 C979 0.950 . S
H974 C980 0.949 . S
C975 H970 0.950 . S
C975 C977 1.327 . S
C975 C981 1.429 . S
C976 C968 1.574 . S
C976 H971 0.949 . S
C976 C982 1.368 . S
C977 C961 1.349 . S
C977 H969 0.950 . S
C977 C975 1.327 . S
C978 C966 1.349 . S
C978 H972 0.950 . S
C978 C979 1.327 . S
C979 H973 0.950 . S
C979 C978 1.327 . S
C979 C983 1.429 . S
C980 C963 1.574 . S
C980 H974 0.949 . S
C980 C984 1.368 . S
C981 C962 1.429 . S
C981 C975 1.429 . S
C981 C982 1.523 . S
C982 C963 1.368 . S
C982 C976 1.368 . S
C982 C981 1.523 . S
C983 C967 1.429 . S
C983 C979 1.429 . S
C983 C984 1.523 . S
C984 C968 1.368 . S
C984 C980 1.368 . S
C984 C983 1.523 . S
H985 C960 0.950 . S
H986 C962 0.950 . S
H987 C963 0.949 . S
H988 C965 0.950 . S
H989 C967 0.950 . S
C990 C991 1.349 . S
C990 C992 1.327 . S
C990 H1015 0.950 . S
C991 C990 1.349 . S
C991 C1007 1.349 . S
C992 C990 1.327 . S
C992 C1011 1.429 . S
C992 H1016 0.950 . S
C993 C1010 1.574 . S
C993 C1012 1.368 . S
C993 H1017 0.949 . S
H994 C998 0.949 . S
C995 C996 1.349 . S
C995 C997 1.327 . S
C995 H1018 0.950 . S
C996 C995 1.349 . S
C996 C1008 1.349 . S
C997 C995 1.327 . S
C997 C1013 1.429 . S
C997 H1019 0.950 . S
C998 H994 0.949 . S
C998 C1006 1.574 . S
C998 C1014 1.368 . S
H999 C1007 0.950 . S
H1000 C1005 0.950 . S
H1001 C1006 0.949 . S
H1002 C1008 0.950 . S
H1003 C1009 0.950 . S
H1004 C1010 0.949 . S
C1005 H1000 0.950 . S
C1005 C1007 1.327 . S
C1005 C1011 1.429 . S
C1006 C998 1.574 . S
C1006 H1001 0.949 . S
C1006 C1012 1.368 . S
C1007 C991 1.349 . S
C1007 H999 0.950 . S
C1007 C1005 1.327 . S
C1008 C996 1.349 . S
C1008 H1002 0.950 . S
C1008 C1009 1.327 . S
C1009 H1003 0.950 . S
C1009 C1008 1.327 . S
C1009 C1013 1.429 . S
C1010 C993 1.574 . S
C1010 H1004 0.949 . S
C1010 C1014 1.368 . S
C1011 C992 1.429 . S
C1011 C1005 1.429 . S
C1011 C1012 1.523 . S
C1012 C993 1.368 . S
C1012 C1006 1.368 . S
C1012 C1011 1.523 . S
C1013 C997 1.429 . S
C1013 C1009 1.429 . S
C1013 C1014 1.523 . S
C1014 C998 1.368 . S
C1014 C1010 1.368 . S
C1014 C1013 1.523 . S
H1015 C990 0.950 . S
H1016 C992 0.950 . S
H1017 C993 0.949 . S
H1018 C995 0.950 . S
H1019 C997 0.950 . S
C1020 C1021 1.349 . S
C1020 C1022 1.327 . S
C1020 H1045 0.950 . S
C1021 C1020 1.349 . S
C1021 C1037 1.349 . S
C1022 C1020 1.327 . S
C1022 C1041 1.429 . S
C1022 H1046 0.950 . S
C1023 C1040 1.574 . S
C1023 C1042 1.368 . S
C1023 H1047 0.949 . S
H1024 C1028 0.992 . S
C1025 C1026 1.349 . S
C1025 C1027 1.327 . S
C1025 H1048 0.950 . S
C1026 C1025 1.349 . S
C1026 C1038 1.349 . S
C1027 C1025 1.327 . S
C1027 C1043 1.429 . S
C1027 H1049 0.950 . S
C1028 H1024 0.992 . S
C1028 C1036 1.532 1_556 S
C1028 C1044 1.365 1_556 S
H1029 C1037 0.950 . S
H1030 C1035 0.950 . S
H1031 C1036 0.949 . S
H1032 C1038 0.950 . S
H1033 C1039 0.950 . S
H1034 C1040 0.949 . S
C1035 H1030 0.950 . S
C1035 C1037 1.327 . S
C1035 C1041 1.429 . S
C1036 C1028 1.532 1_554 S
C1036 H1031 0.949 . S
C1036 C1042 1.368 . S
C1037 C1021 1.349 . S
C1037 H1029 0.950 . S
C1037 C1035 1.327 . S
C1038 C1026 1.349 . S
C1038 H1032 0.950 . S
C1038 C1039 1.327 . S
C1039 H1033 0.950 . S
C1039 C1038 1.327 . S
C1039 C1043 1.429 . S
C1040 C1023 1.574 . S
C1040 H1034 0.949 . S
C1040 C1044 1.385 . S
C1041 C1022 1.429 . S
C1041 C1035 1.429 . S
C1041 C1042 1.523 . S
C1042 C1023 1.368 . S
C1042 C1036 1.368 . S
C1042 C1041 1.523 . S
C1043 C1027 1.429 . S
C1043 C1039 1.429 . S
C1043 C1044 1.504 1_556 S
C1044 C1028 1.365 1_554 S
C1044 C1040 1.385 . S
C1044 C1043 1.504 1_554 S
H1045 C1020 0.950 . S
H1046 C1022 0.950 . S
H1047 C1023 0.949 . S
H1048 C1025 0.950 . S
H1049 C1027 0.950 . S
C1050 C1051 1.349 . S
C1050 C1052 1.327 . S
C1050 H1075 0.950 . S
C1051 C1050 1.349 . S
C1051 C1067 1.349 . S
C1052 C1050 1.327 . S
C1052 C1071 1.429 . S
C1052 H1076 0.950 . S
C1053 C1070 1.574 . S
C1053 C1072 1.368 . S
C1053 H1077 0.949 . S
H1054 C1058 0.949 . S
C1055 C1056 1.349 . S
C1055 C1057 1.327 . S
C1055 H1078 0.950 . S
C1056 C1055 1.349 . S
C1056 C1068 1.349 . S
C1057 C1055 1.327 . S
C1057 C1073 1.429 . S
C1057 H1079 0.950 . S
C1058 H1054 0.949 . S
C1058 C1066 1.574 . S
C1058 C1074 1.368 . S
H1059 C1067 0.950 . S
H1060 C1065 0.950 . S
H1061 C1066 0.949 . S
H1062 C1068 0.950 . S
H1063 C1069 0.950 . S
H1064 C1070 0.949 . S
C1065 H1060 0.950 . S
C1065 C1067 1.327 . S
C1065 C1071 1.429 . S
C1066 C1058 1.574 . S
C1066 H1061 0.949 . S
C1066 C1072 1.368 . S
C1067 C1051 1.349 . S
C1067 H1059 0.950 . S
C1067 C1065 1.327 . S
C1068 C1056 1.349 . S
C1068 H1062 0.950 . S
C1068 C1069 1.327 . S
C1069 H1063 0.950 . S
C1069 C1068 1.327 . S
C1069 C1073 1.429 . S
C1070 C1053 1.574 . S
C1070 H1064 0.949 . S
C1070 C1074 1.368 . S
C1071 C1052 1.429 . S
C1071 C1065 1.429 . S
C1071 C1072 1.523 . S
C1072 C1053 1.368 . S
C1072 C1066 1.368 . S
C1072 C1071 1.523 . S
C1073 C1057 1.429 . S
C1073 C1069 1.429 . S
C1073 C1074 1.523 . S
C1074 C1058 1.368 . S
C1074 C1070 1.368 . S
C1074 C1073 1.523 . S
H1075 C1050 0.950 . S
H1076 C1052 0.950 . S
H1077 C1053 0.949 . S
H1078 C1055 0.950 . S
H1079 C1057 0.950 . S
C366 C353 1.571 . S
C361 C15 1.571 . S
C391 C61 1.450 . S
C396 C282 1.423 . S
C421 C114 1.571 . S
C426 C296 1.571 . S
C451 C139 1.449 . S
C456 C310 1.423 . S
C486 C324 1.571 . S
C481 C185 1.583 . S
C511 C245 1.451 . S
C516 C339 1.423 . S
C541 C47 1.449 . S
C546 C297 1.423 . S
C571 C100 1.583 . S
C576 C311 1.571 . S
C601 C153 1.450 . S
C606 C325 1.423 . S
C636 C338 1.571 . S
C631 C199 1.571 . S
C666 C352 1.423 . S
C661 C231 1.450 . S
C696 C283 1.571 . S
C691 C1 1.583 . S
C721 C22 1.468 . S
C726 C299 1.454 . S
C751 C68 1.698 . S
C756 C313 1.689 . S
C786 C327 1.454 . S
C781 C107 1.467 . S
C811 C146 1.711 . S
C816 C340 1.689 . S
C846 C354 1.454 . S
C841 C192 1.468 . S
C876 C285 1.689 . S
C871 C252 1.698 . S
C906 C355 1.689 . S
C901 C54 1.711 . S
C931 C93 1.468 . S
C936 C284 1.454 . S
C966 C298 1.689 . S
C961 C160 1.698 . S
C991 C206 1.467 . S
C996 C312 1.454 . S
C1021 C238 1.711 . S
C1026 C326 1.689 . S
C1051 C8 1.468 . S
C1056 C341 1.454 . S
