# Generated by pormake.
# Topology pyr, (3,6)-cn, num edge types: 1
# Building blocks:
#     Node 0, Type 0, BuildingBlock: KAKCAD_clean_linker_0, # of connection points: 3
#     Node 1, Type 0, BuildingBlock: KAKCAD_clean_linker_0, # of connection points: 3
#     Node 2, Type 0, BuildingBlock: KAKCAD_clean_linker_0, # of connection points: 3
#     Node 3, Type 0, BuildingBlock: KAKCAD_clean_linker_0, # of connection points: 3
#     Node 4, Type 0, BuildingBlock: KAKCAD_clean_linker_0, # of connection points: 3
#     Node 5, Type 0, BuildingBlock: KAKCAD_clean_linker_0, # of connection points: 3
#     Node 6, Type 0, BuildingBlock: KAKCAD_clean_linker_0, # of connection points: 3
#     Node 7, Type 0, BuildingBlock: KAKCAD_clean_linker_0, # of connection points: 3
#     Node 8, Type 1, BuildingBlock: LEVNOQ01_clean_sbu_1, # of connection points: 6
#     Node 9, Type 1, BuildingBlock: LEVNOQ01_clean_sbu_1, # of connection points: 6
#     Node 10, Type 1, BuildingBlock: LEVNOQ01_clean_sbu_1, # of connection points: 6
#     Node 11, Type 1, BuildingBlock: LEVNOQ01_clean_sbu_1, # of connection points: 6
#     Edge 12, Type (0, 1), BuildingBlock: EZIPEK_clean_linker_0, # of connection points: 2
#     Edge 13, Type (0, 1), BuildingBlock: EZIPEK_clean_linker_0, # of connection points: 2
#     Edge 14, Type (0, 1), BuildingBlock: EZIPEK_clean_linker_0, # of connection points: 2
#     Edge 15, Type (0, 1), BuildingBlock: EZIPEK_clean_linker_0, # of connection points: 2
#     Edge 16, Type (0, 1), BuildingBlock: EZIPEK_clean_linker_0, # of connection points: 2
#     Edge 17, Type (0, 1), BuildingBlock: EZIPEK_clean_linker_0, # of connection points: 2
#     Edge 18, Type (0, 1), BuildingBlock: EZIPEK_clean_linker_0, # of connection points: 2
#     Edge 19, Type (0, 1), BuildingBlock: EZIPEK_clean_linker_0, # of connection points: 2
#     Edge 20, Type (0, 1), BuildingBlock: EZIPEK_clean_linker_0, # of connection points: 2
#     Edge 21, Type (0, 1), BuildingBlock: EZIPEK_clean_linker_0, # of connection points: 2
#     Edge 22, Type (0, 1), BuildingBlock: EZIPEK_clean_linker_0, # of connection points: 2
#     Edge 23, Type (0, 1), BuildingBlock: EZIPEK_clean_linker_0, # of connection points: 2
#     Edge 24, Type (0, 1), BuildingBlock: EZIPEK_clean_linker_0, # of connection points: 2
#     Edge 25, Type (0, 1), BuildingBlock: EZIPEK_clean_linker_0, # of connection points: 2
#     Edge 26, Type (0, 1), BuildingBlock: EZIPEK_clean_linker_0, # of connection points: 2
#     Edge 27, Type (0, 1), BuildingBlock: EZIPEK_clean_linker_0, # of connection points: 2
#     Edge 28, Type (0, 1), BuildingBlock: EZIPEK_clean_linker_0, # of connection points: 2
#     Edge 29, Type (0, 1), BuildingBlock: EZIPEK_clean_linker_0, # of connection points: 2
#     Edge 30, Type (0, 1), BuildingBlock: EZIPEK_clean_linker_0, # of connection points: 2
#     Edge 31, Type (0, 1), BuildingBlock: EZIPEK_clean_linker_0, # of connection points: 2
#     Edge 32, Type (0, 1), BuildingBlock: EZIPEK_clean_linker_0, # of connection points: 2
#     Edge 33, Type (0, 1), BuildingBlock: EZIPEK_clean_linker_0, # of connection points: 2
#     Edge 34, Type (0, 1), BuildingBlock: EZIPEK_clean_linker_0, # of connection points: 2
#     Edge 35, Type (0, 1), BuildingBlock: EZIPEK_clean_linker_0, # of connection points: 2
# Relax obj value: 0.034
# Max RMSD: 0.110
# Mean RMSD: 0.045
data_MOF--net-pry--node1-LEVNOQ01_clean_sbu_1--node2-KAKCAD_clean_linker_0--edge1-EZIPEK_clean_linker_0
_symmetry_space_group_name_H-M    P1
_symmetry_Int_Tables_number       1
_symmetry_cell_setting            triclinic
loop_
_symmetry_equiv_pos_as_xyz
'x, y, z'
_cell_length_a     35.856083
_cell_length_b     34.429179
_cell_length_c     34.314598
_cell_angle_alpha  92.770353
_cell_angle_beta   91.246084
_cell_angle_gamma 94.263521
loop_
_atom_site_label
_atom_site_type_symbol
_atom_site_fract_x
_atom_site_fract_y
_atom_site_fract_z
_atom_type_partial_charge
C0 C 0.06071 0.08816 0.23994 0.0
C1 C 0.08583 0.0908 0.27217 0.0
C2 C 0.07249 0.10019 0.20346 0.0
C3 C 0.10973 0.11437 0.1986 0.0
C4 C 0.13472 0.11727 0.23094 0.0
C5 C 0.12277 0.106 0.2675 0.0
C6 C 0.12317 0.12584 0.15996 0.0
C7 C 0.10766 0.1561 0.14084 0.0
C8 C 0.12382 0.17046 0.10692 0.0
C9 C 0.15579 0.1539 0.09217 0.0
C10 C 0.17097 0.12223 0.11013 0.0
C11 C 0.15367 0.10825 0.14378 0.0
C12 C 0.20584 0.10514 0.09548 0.0
C13 C 0.21644 0.10744 0.05619 0.0
C14 C 0.22979 0.08733 0.12127 0.0
C15 C 0.26315 0.07318 0.10859 0.0
C16 C 0.27472 0.07804 0.07026 0.0
C17 C 0.10843 0.20441 0.08865 0.0
C18 C 0.06985 0.20453 0.08038 0.0
C19 C 0.13178 0.23789 0.08172 0.0
C20 C 0.11659 0.27142 0.06861 0.0
C21 C 0.07787 0.27191 0.06164 0.0
C22 C 0.05477 0.2378 0.06657 0.0
C23 C 0.25076 0.09463 0.0439 0.0
H24 H 0.03205 0.07661 0.24303 0.0
H25 H 0.0528 0.09771 0.17892 0.0
H26 H 0.1635 0.12846 0.2279 0.0
H27 H 0.14246 0.10855 0.29206 0.0
H28 H 0.08417 0.16981 0.15349 0.0
H29 H 0.16378 0.08364 0.15812 0.0
H30 H 0.16892 0.16631 0.06705 0.0
H31 H 0.1987 0.11976 0.03487 0.0
H32 H 0.22404 0.08561 0.15194 0.0
H33 H 0.28128 0.06074 0.12955 0.0
H34 H 0.05126 0.17906 0.08523 0.0
H35 H 0.16156 0.23871 0.08807 0.0
H36 H 0.25911 0.09873 0.01414 0.0
H37 H 0.02485 0.23751 0.06129 0.0
H38 H 0.13491 0.29742 0.06507 0.0
C39 C 0.39004 0.97636 0.74061 0.0
C40 C 0.42583 0.97151 0.75593 0.0
C41 C 0.37917 0.96056 0.7035 0.0
C42 C 0.40439 0.94096 0.67992 0.0
C43 C 0.44136 0.93932 0.69433 0.0
C44 C 0.45177 0.95392 0.73211 0.0
C45 C 0.39108 0.91977 0.64231 0.0
C46 C 0.35976 0.93146 0.62166 0.0
C47 C 0.34216 0.90776 0.59105 0.0
C48 C 0.35838 0.87361 0.57856 0.0
C49 C 0.39111 0.86273 0.59677 0.0
C50 C 0.40701 0.88548 0.62886 0.0
C51 C 0.40699 0.82586 0.58402 0.0
C52 C 0.3841 0.79087 0.58114 0.0
C53 C 0.44495 0.82534 0.57481 0.0
C54 C 0.4598 0.79028 0.56312 0.0
C55 C 0.43709 0.75516 0.56154 0.0
C56 C 0.30514 0.91688 0.5747 0.0
C57 C 0.27865 0.93255 0.59945 0.0
C58 C 0.29509 0.90825 0.53511 0.0
C59 C 0.25935 0.91488 0.52083 0.0
C60 C 0.23338 0.93089 0.54574 0.0
C61 C 0.24331 0.93969 0.58505 0.0
C62 C 0.39908 0.7558 0.57023 0.0
H63 H 0.36964 0.98995 0.75851 0.0
H64 H 0.35025 0.96209 0.69451 0.0
H65 H 0.46215 0.92579 0.677 0.0
H66 H 0.47973 0.95028 0.74325 0.0
H67 H 0.34826 0.95874 0.62997 0.0
H68 H 0.43055 0.87497 0.64439 0.0
H69 H 0.34508 0.85475 0.5553 0.0
H70 H 0.35478 0.79052 0.58824 0.0
H71 H 0.46302 0.85204 0.57656 0.0
H72 H 0.48918 0.7903 0.55641 0.0
H73 H 0.28479 0.93854 0.63028 0.0
H74 H 0.31479 0.89642 0.51512 0.0
H75 H 0.38115 0.72899 0.56921 0.0
H76 H 0.22344 0.95172 0.60476 0.0
H77 H 0.252 0.90777 0.4904 0.0
C78 C 0.72608 0.46373 0.95989 0.0
C79 C 0.75521 0.43884 0.96351 0.0
C80 C 0.69253 0.45013 0.94048 0.0
C81 C 0.6874 0.41122 0.92586 0.0
C82 C 0.71514 0.38559 0.93333 0.0
C83 C 0.74882 0.39934 0.95181 0.0
C84 C 0.65566 0.3978 0.8991 0.0
C85 C 0.64861 0.41809 0.86543 0.0
C86 C 0.62346 0.40151 0.83616 0.0
C87 C 0.60541 0.36444 0.84079 0.0
C88 C 0.61201 0.3443 0.87439 0.0
C89 C 0.63651 0.36139 0.90374 0.0
C90 C 0.59713 0.30356 0.87735 0.0
C91 C 0.5763 0.29286 0.90973 0.0
C92 C 0.60792 0.27453 0.85058 0.0
C93 C 0.59984 0.23511 0.85742 0.0
C94 C 0.5805 0.22455 0.89083 0.0
C95 C 0.61763 0.42119 0.79938 0.0
C96 C 0.64821 0.4349 0.77749 0.0
C97 C 0.58117 0.42368 0.78453 0.0
C98 C 0.57532 0.43868 0.74812 0.0
C99 C 0.60577 0.45127 0.72578 0.0
C100 C 0.64232 0.44962 0.74069 0.0
C101 C 0.56784 0.25359 0.91628 0.0
H102 H 0.73061 0.49436 0.96885 0.0
H103 H 0.67138 0.47031 0.93533 0.0
H104 H 0.71197 0.35549 0.92226 0.0
H105 H 0.77094 0.37974 0.95436 0.0
H106 H 0.66386 0.4459 0.8612 0.0
H107 H 0.6425 0.34518 0.92918 0.0
H108 H 0.58716 0.35065 0.81771 0.0
H109 H 0.56787 0.31487 0.93071 0.0
H110 H 0.62446 0.28233 0.82569 0.0
H111 H 0.61003 0.21296 0.83775 0.0
H112 H 0.67661 0.43292 0.78822 0.0
H113 H 0.55717 0.41354 0.80092 0.0
H114 H 0.55295 0.24578 0.94226 0.0
H115 H 0.66607 0.45922 0.7237 0.0
H116 H 0.54693 0.43994 0.73702 0.0
C117 C 0.87441 0.56244 0.25927 0.0
C118 C 0.91143 0.56132 0.24729 0.0
C119 C 0.86693 0.57327 0.29798 0.0
C120 C 0.89637 0.58289 0.3255 0.0
C121 C 0.93344 0.58119 0.31325 0.0
C122 C 0.94086 0.57058 0.27451 0.0
C123 C 0.88839 0.59618 0.36629 0.0
C124 C 0.85709 0.57975 0.3854 0.0
C125 C 0.8468 0.59517 0.42201 0.0
C126 C 0.86886 0.62671 0.43997 0.0
C127 C 0.90051 0.64294 0.42175 0.0
C128 C 0.91036 0.62744 0.38516 0.0
C129 C 0.91965 0.67984 0.43801 0.0
C130 C 0.89953 0.71319 0.44119 0.0
C131 C 0.95787 0.68266 0.44856 0.0
C132 C 0.97584 0.71872 0.46148 0.0
C133 C 0.95603 0.7525 0.46239 0.0
C134 C 0.81092 0.58145 0.43958 0.0
C135 C 0.77839 0.57429 0.41591 0.0
C136 C 0.80814 0.57847 0.48025 0.0
C137 C 0.77339 0.56978 0.4969 0.0
C138 C 0.74099 0.56382 0.4731 0.0
C139 C 0.7438 0.56558 0.43254 0.0
C140 C 0.9176 0.74919 0.45299 0.0
H141 H 0.85139 0.55521 0.23859 0.0
H142 H 0.83805 0.57489 0.3061 0.0
H143 H 0.95677 0.5879 0.33364 0.0
H144 H 0.96962 0.56946 0.26575 0.0
H145 H 0.84029 0.55529 0.37148 0.0
H146 H 0.93367 0.64156 0.37036 0.0
H147 H 0.86041 0.64007 0.46733 0.0
H148 H 0.87005 0.71163 0.43312 0.0
H149 H 0.97378 0.65713 0.44642 0.0
H150 H 0.00543 0.72064 0.46904 0.0
H151 H 0.77933 0.57697 0.38463 0.0
H152 H 0.83274 0.58347 0.49922 0.0
H153 H 0.90175 0.7748 0.4537 0.0
H154 H 0.71897 0.56115 0.41381 0.0
H155 H 0.77162 0.56845 0.52829 0.0
C156 C 0.89978 0.88053 0.7377 0.0
C157 C 0.91544 0.91821 0.7313 0.0
C158 C 0.88941 0.87053 0.77519 0.0
C159 C 0.89358 0.89835 0.80662 0.0
C160 C 0.90857 0.93622 0.8001 0.0
C161 C 0.91978 0.94596 0.76281 0.0
C162 C 0.88112 0.88798 0.84584 0.0
C163 C 0.8959 0.85685 0.86422 0.0
C164 C 0.88218 0.84453 0.90013 0.0
C165 C 0.85333 0.86451 0.91758 0.0
C166 C 0.83819 0.89587 0.89931 0.0
C167 C 0.85282 0.90772 0.86375 0.0
C168 C 0.80501 0.91415 0.91533 0.0
C169 C 0.80262 0.92393 0.95545 0.0
C170 C 0.7748 0.92094 0.89031 0.0
C171 C 0.74255 0.93592 0.90511 0.0
C172 C 0.73977 0.94463 0.94522 0.0
C173 C 0.89668 0.80955 0.91788 0.0
C174 C 0.90652 0.77778 0.89379 0.0
C175 C 0.90065 0.80725 0.95867 0.0
C176 C 0.91399 0.77404 0.97478 0.0
C177 C 0.92392 0.74276 0.95037 0.0
C178 C 0.92015 0.74497 0.90985 0.0
C179 C 0.77038 0.93939 0.97023 0.0
H180 H 0.89592 0.85885 0.71373 0.0
H181 H 0.8775 0.84126 0.77956 0.0
H182 H 0.9119 0.95811 0.82394 0.0
H183 H 0.93169 0.97523 0.75843 0.0
H184 H 0.91823 0.84229 0.85029 0.0
H185 H 0.84134 0.93164 0.84925 0.0
H186 H 0.84127 0.85441 0.94429 0.0
H187 H 0.82554 0.91937 0.97538 0.0
H188 H 0.77552 0.91337 0.85934 0.0
H189 H 0.71922 0.93959 0.88537 0.0
H190 H 0.90301 0.77777 0.86238 0.0
H191 H 0.89368 0.83116 0.97817 0.0
H192 H 0.76873 0.94595 1.00131 0.0
H193 H 0.92713 0.72085 0.89059 0.0
H194 H 0.91642 0.77265 0.00618 0.0
C195 C 0.59613 0.03625 0.28602 0.0
C196 C 0.58777 0.06039 0.25571 0.0
C197 C 0.60718 0.05271 0.32299 0.0
C198 C 0.60944 0.09342 0.33015 0.0
C199 C 0.60138 0.11734 0.2995 0.0
C200 C 0.5907 0.10096 0.26263 0.0
C201 C 0.62063 0.11136 0.3692 0.0
C202 C 0.65285 0.10073 0.38859 0.0
C203 C 0.66595 0.12073 0.42348 0.0
C204 C 0.646 0.15105 0.43936 0.0
C205 C 0.6132 0.16158 0.4207 0.0
C206 C 0.60065 0.14133 0.38574 0.0
C207 C 0.59383 0.19569 0.43593 0.0
C208 C 0.59001 0.20311 0.47633 0.0
C209 C 0.58086 0.22241 0.40999 0.0
C210 C 0.56572 0.25632 0.42409 0.0
C211 C 0.56326 0.26428 0.46434 0.0
C212 C 0.70225 0.11195 0.44112 0.0
C213 C 0.71039 0.07311 0.44561 0.0
C214 C 0.73019 0.14211 0.45026 0.0
C215 C 0.76623 0.1334 0.46148 0.0
C216 C 0.77463 0.09446 0.46399 0.0
C217 C 0.7463 0.06445 0.45707 0.0
C218 C 0.57487 0.23723 0.49045 0.0
H219 H 0.59364 0.00484 0.28115 0.0
H220 H 0.61321 0.03367 0.34617 0.0
H221 H 0.60351 0.1488 0.30402 0.0
H222 H 0.58422 0.11994 0.23952 0.0
H223 H 0.66896 0.07841 0.37532 0.0
H224 H 0.57542 0.14913 0.37103 0.0
H225 H 0.65671 0.16717 0.46566 0.0
H226 H 0.59937 0.18292 0.49703 0.0
H227 H 0.5839 0.21805 0.37879 0.0
H228 H 0.55731 0.27722 0.40361 0.0
H229 H 0.68929 0.04939 0.439 0.0
H230 H 0.72475 0.17227 0.44664 0.0
H231 H 0.57348 0.24323 0.52164 0.0
H232 H 0.7525 0.03423 0.45865 0.0
H233 H 0.78799 0.15681 0.4663 0.0
C234 C 0.23584 0.58748 0.10798 0.0
C235 C 0.23839 0.58735 0.06728 0.0
C236 C 0.26632 0.60132 0.13191 0.0
C237 C 0.29999 0.6153 0.11553 0.0
C238 C 0.30298 0.61341 0.07459 0.0
C239 C 0.27232 0.59958 0.05059 0.0
C240 C 0.33067 0.63445 0.14104 0.0
C241 C 0.33943 0.61965 0.17732 0.0
C242 C 0.36697 0.63919 0.20219 0.0
C243 C 0.38599 0.67368 0.19077 0.0
C244 C 0.37705 0.68939 0.15506 0.0
C245 C 0.34953 0.6694 0.1303 0.0
C246 C 0.39504 0.7275 0.14424 0.0
C247 C 0.40143 0.75868 0.17232 0.0
C248 C 0.40463 0.73345 0.10536 0.0
C249 C 0.41943 0.76987 0.09463 0.0
C250 C 0.42512 0.80095 0.12253 0.0
C251 C 0.3757 0.62402 0.24051 0.0
C252 C 0.34802 0.61995 0.26872 0.0
C253 C 0.4122 0.6147 0.24943 0.0
C254 C 0.42086 0.60107 0.28587 0.0
C255 C 0.39333 0.59708 0.31418 0.0
C256 C 0.35692 0.60707 0.30563 0.0
C257 C 0.41651 0.79513 0.16154 0.0
H258 H 0.20971 0.5782 0.12122 0.0
H259 H 0.26288 0.60275 0.16321 0.0
H260 H 0.32876 0.62343 0.06113 0.0
H261 H 0.27464 0.59954 0.01917 0.0
H262 H 0.32511 0.59278 0.18618 0.0
H263 H 0.34148 0.68204 0.10334 0.0
H264 H 0.40737 0.68854 0.21008 0.0
H265 H 0.39397 0.7552 0.20242 0.0
H266 H 0.4007 0.70994 0.08317 0.0
H267 H 0.42643 0.77388 0.06445 0.0
H268 H 0.31977 0.62741 0.2624 0.0
H269 H 0.4339 0.6177 0.22806 0.0
H270 H 0.42102 0.81887 0.18341 0.0
H271 H 0.33548 0.6045 0.3273 0.0
H272 H 0.44915 0.59362 0.29207 0.0
C273 C 0.06772 0.28286 0.52623 0.0
C274 C 0.03944 0.26376 0.5472 0.0
C275 C 0.08104 0.3209 0.53734 0.0
C276 C 0.06532 0.34157 0.5688 0.0
C277 C 0.03295 0.324 0.5855 0.0
C278 C 0.02063 0.28515 0.57537 0.0
C279 C 0.08617 0.37757 0.58751 0.0
C280 C 0.11435 0.39819 0.56716 0.0
C281 C 0.14247 0.42265 0.58695 0.0
C282 C 0.13827 0.43219 0.62691 0.0
C283 C 0.10768 0.41589 0.6471 0.0
C284 C 0.08262 0.38772 0.62753 0.0
C285 C 0.10267 0.42652 0.6892 0.0
C286 C 0.1332 0.43001 0.71603 0.0
C287 C 0.06683 0.43292 0.70286 0.0
C288 C 0.06159 0.44255 0.74226 0.0
C289 C 0.09201 0.44599 0.76889 0.0
C290 C 0.17831 0.43334 0.56709 0.0
C291 C 0.19235 0.40691 0.53929 0.0
C292 C 0.20065 0.46764 0.57822 0.0
C293 C 0.23685 0.47386 0.56411 0.0
C294 C 0.25121 0.44624 0.5382 0.0
C295 C 0.22814 0.4136 0.52462 0.0
C296 C 0.12787 0.43955 0.75562 0.0
H297 H 0.08253 0.26679 0.5043 0.0
H298 H 0.10592 0.33205 0.52319 0.0
H299 H 0.01841 0.33908 0.60823 0.0
H300 H 0.99833 0.27099 0.59157 0.0
H301 H 0.11597 0.39358 0.5359 0.0
H302 H 0.06174 0.37243 0.64453 0.0
H303 H 0.15918 0.45149 0.64271 0.0
H304 H 0.16107 0.42477 0.70658 0.0
H305 H 0.04282 0.43083 0.68295 0.0
H306 H 0.03371 0.44746 0.75203 0.0
H307 H 0.17671 0.37975 0.53032 0.0
H308 H 0.19073 0.48916 0.59876 0.0
H309 H 0.15162 0.44191 0.77586 0.0
H310 H 0.23876 0.39201 0.5046 0.0
H311 H 0.25422 0.49948 0.57461 0.0
O312 O 0.00595 0.00455 0.61119 0.0
Mg313 Mg 0.04128 0.03365 0.57354 0.0
O314 O 0.97531 0.97832 0.55884 0.0
Mg315 Mg 0.00168 0.00553 0.50227 0.0
O316 O 0.02013 0.06793 0.5318 0.0
O317 O 0.04773 0.09037 0.58892 0.0
O318 O 0.02599 0.03138 0.44468 0.0
O319 O 0.94373 0.032 0.49185 0.0
Mg320 Mg 0.958 0.96855 0.42733 0.0
O321 O 0.98395 0.94478 0.4729 0.0
O322 O 0.99684 0.9997 0.39337 0.0
O323 O 0.91131 0.99721 0.44475 0.0
O324 O 0.9548 0.90913 0.4236 0.0
C325 C 0.08959 0.985 0.53131 0.0
C326 C 0.98013 0.9817 0.5959 0.0
C327 C 0.03267 0.09697 0.55562 0.0
C328 C 0.02138 0.02502 0.40775 0.0
C329 C 0.91387 0.02452 0.47094 0.0
C330 C 0.9738 0.91089 0.45609 0.0
O331 O 0.09109 0.00928 0.56012 0.0
O332 O 0.06003 0.97903 0.50984 0.0
O333 O 0.44798 0.09136 0.03867 0.0
Mg334 Mg 0.50628 0.09816 0.04335 0.0
O335 O 0.44644 0.02755 0.0252 0.0
Mg336 Mg 0.50817 0.01271 0.00705 0.0
O337 O 0.52761 0.07592 0.99371 0.0
O338 O 0.53312 0.13948 0.0115 0.0
O339 O 0.57021 0.99866 0.99184 0.0
O340 O 0.48549 0.00813 0.94136 0.0
Mg341 Mg 0.51123 0.93035 0.9676 0.0
O342 O 0.49094 0.94865 0.0202 0.0
O343 O 0.56957 0.93815 0.96662 0.0
O344 O 0.48135 0.94641 0.91933 0.0
O345 O 0.4883 0.88609 0.99834 0.0
C346 C 0.53704 0.04419 0.09925 0.0
C347 C 0.42979 0.05841 0.03412 0.0
C348 C 0.53851 0.11154 0.98631 0.0
C349 C 0.58737 0.96995 0.97798 0.0
C350 C 0.4764 0.98181 0.91454 0.0
C351 C 0.48193 0.91202 0.0253 0.0
O352 O 0.53203 0.0796 0.09406 0.0
O353 O 0.52908 0.01764 0.07247 0.0
O354 O 0.46084 0.58378 0.58078 0.0
Mg355 Mg 0.45748 0.52517 0.59614 0.0
O356 O 0.48489 0.57442 0.52197 0.0
Mg357 Mg 0.49771 0.50882 0.51302 0.0
O358 O 0.5055 0.50318 0.57813 0.0
O359 O 0.49124 0.50749 0.64062 0.0
O360 O 0.51245 0.44343 0.50418 0.0
O361 O 0.56144 0.52863 0.51264 0.0
Mg362 Mg 0.53281 0.48753 0.42631 0.0
O363 O 0.49058 0.51594 0.44878 0.0
O364 O 0.52262 0.4292 0.44138 0.0
O365 O 0.58224 0.51606 0.45272 0.0
O366 O 0.49917 0.51264 0.38532 0.0
C367 C 0.40713 0.48146 0.53597 0.0
C368 C 0.472 0.5966 0.54863 0.0
C369 C 0.51456 0.49862 0.61414 0.0
C370 C 0.51885 0.41897 0.47622 0.0
C371 C 0.5876 0.52904 0.48788 0.0
C372 C 0.48008 0.52445 0.41435 0.0
O373 O 0.41154 0.4903 0.57213 0.0
O374 O 0.43356 0.48747 0.512 0.0
O375 O 0.04783 0.44633 0.06768 0.0
Mg376 Mg 0.03706 0.50513 0.07594 0.0
O377 O 0.01187 0.44182 0.0145 0.0
Mg378 Mg 0.00123 0.50829 0.00644 0.0
O379 O 0.98268 0.5198 0.07267 0.0
O380 O 0.01555 0.51299 0.1285 0.0
O381 O 0.98963 0.57442 0.99927 0.0
O382 O 0.93564 0.49072 1.00091 0.0
Mg383 Mg 0.96809 0.51244 0.9333 0.0
O384 O 0.02066 0.49554 0.94093 0.0
O385 O 0.95817 0.5715 0.94316 0.0
O386 O 0.92464 0.47023 0.94014 0.0
O387 O 0.99282 0.50359 0.88246 0.0
C388 C 0.08945 0.54473 0.03491 0.0
C389 C 0.03209 0.42602 0.03953 0.0
C390 C 0.98529 0.52114 0.11079 0.0
C391 C 0.9712 0.59086 0.97324 0.0
C392 C 0.91329 0.47462 0.97442 0.0
C393 C 0.02088 0.49359 0.90279 0.0
O394 O 0.08089 0.54694 0.07021 0.0
O395 O 0.06614 0.52828 0.00961 0.0
C396 C 0.08718 0.04329 0.3259 0.0
C397 C 0.07339 0.07738 0.31081 0.0
C398 C 0.03027 0.08176 0.36521 0.0
C399 C 0.04403 0.0477 0.38 0.0
N400 N 0.09127 0.00184 0.38098 0.0
N401 N 0.03849 0.13414 0.32057 0.0
C402 C 0.07457 0.03053 0.36251 0.0
C403 C 0.04698 0.09825 0.33193 0.0
N404 N 0.11048 0.02173 0.30417 0.0
N405 N 0.00034 0.09746 0.38222 0.0
H406 H 0.05053 0.14721 0.29658 0.0
H407 H 0.02208 0.15242 0.33666 0.0
H408 H 0.98919 0.0876 0.40811 0.0
H409 H 0.98561 0.11898 0.36995 0.0
H410 H 0.11824 0.99448 0.3117 0.0
H411 H 0.11978 0.02947 0.27684 0.0
H412 H 0.11599 0.99061 0.37187 0.0
H413 H 0.08224 0.99193 0.40772 0.0
C414 C 0.46458 0.00929 0.80945 0.0
C415 C 0.43491 0.98105 0.79807 0.0
C416 C 0.42403 0.96941 0.8668 0.0
C417 C 0.45825 0.99081 0.87723 0.0
N418 N 0.51212 0.03125 0.85872 0.0
N419 N 0.38954 0.92983 0.81642 0.0
C420 C 0.47855 0.0115 0.84878 0.0
C421 C 0.41498 0.96033 0.8269 0.0
N422 N 0.47916 0.03398 0.78276 0.0
N423 N 0.40068 0.95699 0.89534 0.0
H424 H 0.38348 0.92018 0.78759 0.0
H425 H 0.37727 0.9114 0.83652 0.0
H426 H 0.40692 0.96341 0.92492 0.0
H427 H 0.37376 0.94415 0.88952 0.0
H428 H 0.4985 0.05742 0.79007 0.0
H429 H 0.46924 0.03318 0.75389 0.0
H430 H 0.53028 0.04305 0.83838 0.0
H431 H 0.52275 0.0341 0.88732 0.0
C432 C 0.58422 0.43708 0.65687 0.0
C433 C 0.59802 0.46503 0.68639 0.0
C434 C 0.57396 0.51689 0.64938 0.0
C435 C 0.55183 0.48816 0.62674 0.0
N436 N 0.53952 0.42171 0.60294 0.0
N437 N 0.61067 0.53211 0.7091 0.0
C438 C 0.55897 0.44845 0.62778 0.0
C439 C 0.59535 0.50535 0.68151 0.0
N440 N 0.59434 0.39969 0.65795 0.0
N441 N 0.57291 0.5551 0.64078 0.0
H442 H 0.62721 0.52439 0.73244 0.0
H443 H 0.60603 0.56162 0.70967 0.0
H444 H 0.55702 0.56338 0.61712 0.0
H445 H 0.58999 0.57772 0.65449 0.0
H446 H 0.58705 0.3781 0.6363 0.0
H447 H 0.61284 0.39131 0.67936 0.0
H448 H 0.5404 0.39168 0.60443 0.0
H449 H 0.52163 0.43008 0.58099 0.0
C450 C 0.92671 0.57847 0.17884 0.0
C451 C 0.91996 0.5495 0.20645 0.0
C452 C 0.93949 0.49977 0.15944 0.0
C453 C 0.95348 0.5297 0.13567 0.0
N454 N 0.95816 0.59697 0.1196 0.0
N455 N 0.91801 0.4822 0.22323 0.0
C456 C 0.94557 0.56887 0.14393 0.0
C457 C 0.92508 0.50983 0.19649 0.0
N458 N 0.91552 0.6151 0.18642 0.0
N459 N 0.94064 0.46178 0.14638 0.0
H460 H 0.90624 0.4884 0.25016 0.0
H461 H 0.92536 0.4536 0.21965 0.0
H462 H 0.95065 0.45432 0.11888 0.0
H463 H 0.92864 0.43819 0.16073 0.0
H464 H 0.91676 0.63681 0.16632 0.0
H465 H 0.90217 0.62291 0.21204 0.0
H466 H 0.95737 0.62675 0.12593 0.0
H467 H 0.97057 0.59024 0.09314 0.0
C468 C 0.32222 0.04254 0.03044 0.0
C469 C 0.31401 0.07079 0.06007 0.0
C470 C 0.38033 0.07979 0.0783 0.0
C471 C 0.38953 0.05705 0.04473 0.0
N472 N 0.36854 0.01983 0.9858 0.0
N473 N 0.33732 0.12381 0.10497 0.0
C474 C 0.36029 0.03889 0.01998 0.0
C475 C 0.34367 0.09156 0.08193 0.0
N476 N 0.29394 0.01871 0.01297 0.0
N477 N 0.40648 0.0896 0.10736 0.0
H478 H 0.3112 0.13515 0.10677 0.0
H479 H 0.3589 0.14183 0.1186 0.0
H480 H 0.43333 0.07992 0.10687 0.0
H481 H 0.40003 0.10336 0.13385 0.0
H482 H 0.29858 0.99514 0.99396 0.0
H483 H 0.26598 0.02044 0.02017 0.0
H484 H 0.34827 0.00957 0.96483 0.0
H485 H 0.39585 0.01692 0.97697 0.0
C486 C 0.18947 0.97097 0.50942 0.0
C487 C 0.19518 0.93812 0.53171 0.0
C488 C 0.12811 0.9294 0.54397 0.0
C489 C 0.12287 0.96344 0.52362 0.0
N490 N 0.14488 0.00976 0.47764 0.0
N491 N 0.16972 0.87983 0.56053 0.0
C492 C 0.15242 0.98173 0.50293 0.0
C493 C 0.16425 0.91513 0.54563 0.0
N494 N 0.21948 0.99337 0.49682 0.0
N495 N 0.0989 0.91201 0.56327 0.0
H496 H 0.196 0.8687 0.56174 0.0
H497 H 0.14807 0.86016 0.56842 0.0
H498 H 0.07174 0.9208 0.56091 0.0
H499 H 0.10174 0.89007 0.58272 0.0
H500 H 0.21734 0.02013 0.48441 0.0
H501 H 0.24705 0.98639 0.50082 0.0
H502 H 0.16448 0.02194 0.45892 0.0
H503 H 0.11784 0.01817 0.47285 0.0
C504 C 0.81437 0.44221 0.00501 0.0
C505 C 0.79428 0.45469 0.97228 0.0
C506 C 0.85062 0.49162 0.9523 0.0
C507 C 0.87222 0.47228 0.97934 0.0
N508 N 0.87507 0.42946 0.0326 0.0
N509 N 0.79569 0.4862 0.91051 0.0
C510 C 0.85422 0.44809 0.00661 0.0
C511 C 0.81285 0.47849 0.945 0.0
N512 N 0.79526 0.42487 0.03432 0.0
N513 N 0.86625 0.52268 0.93352 0.0
H514 H 0.76859 0.47556 0.90223 0.0
H515 H 0.8099 0.49985 0.88812 0.0
H516 H 0.89373 0.53388 0.93904 0.0
H517 H 0.85069 0.53991 0.91616 0.0
H518 H 0.80788 0.41802 0.06046 0.0
H519 H 0.76612 0.4206 0.03376 0.0
H520 H 0.86376 0.40826 0.05049 0.0
H521 H 0.90416 0.43375 0.03474 0.0
C522 C 0.68958 0.51975 0.49967 0.0
C523 C 0.70341 0.55764 0.48999 0.0
C524 C 0.64046 0.58056 0.49361 0.0
C525 C 0.62644 0.542 0.50003 0.0
N526 N 0.63733 0.47911 0.52324 0.0
N527 N 0.69503 0.62634 0.48953 0.0
C528 C 0.65109 0.51302 0.50802 0.0
C529 C 0.67975 0.58892 0.49116 0.0
N530 N 0.71264 0.48988 0.49859 0.0
N531 N 0.616 0.60846 0.48797 0.0
H532 H 0.72381 0.63301 0.48779 0.0
H533 H 0.67981 0.65078 0.49322 0.0
H534 H 0.58724 0.60316 0.49151 0.0
H535 H 0.62386 0.63618 0.47876 0.0
H536 H 0.70317 0.46075 0.5008 0.0
H537 H 0.74117 0.49403 0.49338 0.0
H538 H 0.65405 0.45761 0.53226 0.0
H539 H 0.60924 0.47447 0.53041 0.0
C540 C 0.06914 0.32672 0.01644 0.0
C541 C 0.06132 0.30908 0.05231 0.0
C542 C 0.02293 0.3627 0.07097 0.0
C543 C 0.036 0.38334 0.03864 0.0
N544 N 0.07299 0.3863 0.98099 0.0
N545 N 0.03478 0.31335 0.11645 0.0
C546 C 0.05913 0.36552 0.01109 0.0
C547 C 0.03889 0.32765 0.08017 0.0
N548 N 0.08569 0.30617 0.98739 0.0
N549 N 0.99512 0.37682 0.09291 0.0
H550 H 0.04703 0.28857 0.1252 0.0
H551 H 0.02217 0.32816 0.1392 0.0
H552 H 0.98256 0.40216 0.08626 0.0
H553 H 0.98192 0.36139 0.11477 0.0
H554 H 0.08904 0.31594 0.95934 0.0
H555 H 0.09312 0.27771 0.99036 0.0
H556 H 0.0935 0.37674 0.96258 0.0
H557 H 0.0654 0.41428 0.97574 0.0
C558 C 0.54307 0.16063 0.89312 0.0
C559 C 0.57672 0.18364 0.90247 0.0
C560 C 0.59283 0.13846 0.95181 0.0
C561 C 0.55556 0.12218 0.94933 0.0
N562 N 0.49676 0.11133 0.91441 0.0
N563 N 0.63643 0.19259 0.93657 0.0
C564 C 0.53154 0.13037 0.91801 0.0
C565 C 0.60304 0.17124 0.9298 0.0
N566 N 0.5219 0.16888 0.86145 0.0
N567 N 0.61752 0.12332 0.9767 0.0
H568 H 0.645 0.21606 0.91993 0.0
H569 H 0.6551 0.18793 0.9592 0.0
H570 H 0.60957 0.09934 0.993 0.0
H571 H 0.64594 0.13203 0.97869 0.0
H572 H 0.498 0.15206 0.85143 0.0
H573 H 0.53013 0.19128 0.84331 0.0
H574 H 0.47606 0.1182 0.89475 0.0
H575 H 0.48858 0.08845 0.93198 0.0
C576 C 0.99792 0.81 0.44262 0.0
C577 C 0.97472 0.79219 0.47083 0.0
C578 C 0.96508 0.85633 0.50153 0.0
C579 C 0.98498 0.87379 0.47097 0.0
N580 N 0.03242 0.86913 0.42333 0.0
N581 N 0.94778 0.79677 0.53429 0.0
C582 C 0.00602 0.851 0.44566 0.0
C583 C 0.9626 0.81498 0.50307 0.0
N584 N 0.00931 0.78864 0.41106 0.0
N585 N 0.94643 0.879 0.52707 0.0
H586 H 0.94592 0.76645 0.53561 0.0
H587 H 0.9407 0.81153 0.55996 0.0
H588 H 0.94868 0.90934 0.52675 0.0
H589 H 0.928 0.86786 0.54751 0.0
H590 H 0.0223 0.80113 0.38734 0.0
H591 H 0.00378 0.7586 0.40712 0.0
H592 H 0.05087 0.85419 0.40622 0.0
H593 H 0.03811 0.89939 0.42535 0.0
C594 C 0.44032 0.6941 0.51898 0.0
C595 C 0.45297 0.7171 0.55285 0.0
C596 C 0.49003 0.66437 0.57297 0.0
C597 C 0.47121 0.63901 0.54403 0.0
N598 N 0.42706 0.62884 0.48978 0.0
N599 N 0.48728 0.72254 0.61465 0.0
C600 C 0.44648 0.6537 0.51652 0.0
C601 C 0.47769 0.70211 0.58028 0.0
N602 N 0.42246 0.71095 0.48933 0.0
N603 N 0.51954 0.65203 0.59365 0.0
H604 H 0.4781 0.74988 0.62202 0.0
H605 H 0.50172 0.71084 0.63743 0.0
H606 H 0.52941 0.62453 0.58835 0.0
H607 H 0.5365 0.67034 0.61283 0.0
H608 H 0.41556 0.69656 0.46245 0.0
H609 H 0.41784 0.74055 0.49035 0.0
H610 H 0.40554 0.63719 0.47188 0.0
H611 H 0.43093 0.59913 0.48704 0.0
C612 C 0.90905 0.95878 0.67296 0.0
C613 C 0.92714 0.92914 0.69163 0.0
C614 C 0.96963 0.92461 0.63678 0.0
C615 C 0.95626 0.95896 0.62247 0.0
N616 N 0.91488 0.01082 0.6279 0.0
N617 N 0.97735 0.886 0.69308 0.0
C618 C 0.92602 0.97636 0.64049 0.0
C619 C 0.9578 0.91205 0.67371 0.0
N620 N 0.87556 0.96987 0.68614 0.0
N621 N 0.99425 0.90457 0.61534 0.0
H622 H 0.97053 0.8769 0.72073 0.0
H623 H 0.00232 0.87591 0.68323 0.0
H624 H 0.00342 0.91353 0.5883 0.0
H625 H 0.00252 0.87736 0.62241 0.0
H626 H 0.85946 0.98887 0.67162 0.0
H627 H 0.86213 0.95709 0.70953 0.0
H628 H 0.89596 0.02732 0.64269 0.0
H629 H 0.92651 0.02419 0.60389 0.0
C630 C 0.53448 0.04328 0.20859 0.0
C631 C 0.57342 0.0439 0.21704 0.0
C632 C 0.58529 0.02755 0.14824 0.0
C633 C 0.54768 0.03408 0.13915 0.0
N634 N 0.48465 0.04109 0.15906 0.0
N635 N 0.63596 0.03333 0.19699 0.0
C636 C 0.52158 0.03916 0.16906 0.0
C637 C 0.5988 0.03414 0.18755 0.0
N638 N 0.51023 0.04709 0.23855 0.0
N639 N 0.60787 0.01568 0.1191 0.0
H640 H 0.64636 0.03704 0.22566 0.0
H641 H 0.65674 0.03018 0.17666 0.0
H642 H 0.59825 0.01088 0.09022 0.0
H643 H 0.63497 0.00769 0.12365 0.0
H644 H 0.48128 0.04548 0.23515 0.0
H645 H 0.51913 0.04977 0.26778 0.0
H646 H 0.46414 0.04877 0.17832 0.0
H647 H 0.47442 0.03474 0.13059 0.0
C648 C 0.39449 0.54317 0.36107 0.0
C649 C 0.40393 0.58261 0.35261 0.0
C650 C 0.45411 0.58758 0.40234 0.0
C651 C 0.44775 0.54708 0.40676 0.0
N652 N 0.40498 0.49024 0.40358 0.0
N653 N 0.43271 0.64557 0.37392 0.0
C654 C 0.41507 0.52641 0.39092 0.0
C655 C 0.43019 0.60604 0.37671 0.0
N656 N 0.36826 0.52101 0.3386 0.0
N657 N 0.48448 0.60744 0.42062 0.0
H658 H 0.41517 0.65929 0.35513 0.0
H659 H 0.44957 0.66474 0.39231 0.0
H660 H 0.50127 0.59437 0.44066 0.0
H661 H 0.49338 0.63617 0.4155 0.0
H662 H 0.36331 0.49099 0.34051 0.0
H663 H 0.35243 0.53236 0.31665 0.0
H664 H 0.3799 0.47442 0.39549 0.0
H665 H 0.42042 0.47799 0.42539 0.0
C666 C 0.06878 0.42722 0.83422 0.0
C667 C 0.08539 0.45621 0.81068 0.0
C668 C 0.0758 0.50639 0.86185 0.0
C669 C 0.05232 0.4789 0.88083 0.0
N670 N 0.02906 0.41274 0.88911 0.0
N671 N 0.10743 0.52312 0.80241 0.0
C672 C 0.05043 0.4389 0.86877 0.0
C673 C 0.09059 0.49567 0.82505 0.0
N674 N 0.07015 0.38874 0.82296 0.0
N675 N 0.08293 0.54293 0.87891 0.0
H676 H 0.11919 0.51608 0.77569 0.0
H677 H 0.10845 0.55298 0.80915 0.0
H678 H 0.0721 0.55071 0.90597 0.0
H679 H 0.10187 0.56403 0.86836 0.0
H680 H 0.0609 0.36585 0.83988 0.0
H681 H 0.08341 0.37969 0.79768 0.0
H682 H 0.02266 0.38376 0.87982 0.0
H683 H 0.01686 0.42069 0.91538 0.0
C684 C 0.68946 0.99196 0.95111 0.0
C685 C 0.70341 0.95596 0.96082 0.0
C686 C 0.6457 0.93937 0.995 0.0
C687 C 0.62893 0.97086 0.97825 0.0
N688 N 0.63466 0.0277 0.93971 0.0
N689 N 0.69256 0.89287 0.98839 0.0
C690 C 0.6509 0.99786 0.95668 0.0
C691 C 0.68116 0.92916 0.9823 0.0
N692 N 0.71316 0.02039 0.93672 0.0
N693 N 0.62758 0.91926 0.02325 0.0
H694 H 0.71789 0.88343 0.97877 0.0
H695 H 0.67529 0.87081 0.99989 0.0
H696 H 0.60199 0.92695 0.03399 0.0
H697 H 0.6398 0.89811 0.03892 0.0
H698 H 0.70567 0.04854 0.93241 0.0
H699 H 0.74148 0.01679 0.93257 0.0
H700 H 0.64825 0.04571 0.9201 0.0
H701 H 0.60673 0.03315 0.94344 0.0
C702 C 0.83552 0.08058 0.43432 0.0
C703 C 0.81389 0.08435 0.4682 0.0
C704 C 0.86151 0.05472 0.50685 0.0
C705 C 0.88288 0.05061 0.47278 0.0
N706 N 0.89623 0.07051 0.4078 0.0
N707 N 0.80989 0.08478 0.5381 0.0
C708 C 0.87178 0.0672 0.43771 0.0
C709 C 0.82823 0.07479 0.50505 0.0
N710 N 0.82076 0.08797 0.39857 0.0
N711 N 0.87161 0.03735 0.54002 0.0
H712 H 0.78528 0.09916 0.53735 0.0
H713 H 0.82069 0.08198 0.56615 0.0
H714 H 0.89551 0.02203 0.54204 0.0
H715 H 0.85511 0.03581 0.56456 0.0
H716 H 0.83333 0.08079 0.37237 0.0
H717 H 0.79462 0.09886 0.39475 0.0
H718 H 0.89106 0.08558 0.38289 0.0
H719 H 0.92336 0.0616 0.40968 0.0
C720 C 0.19308 0.53759 0.0335 0.0
C721 C 0.204 0.57731 0.04312 0.0
C722 C 0.14106 0.59537 0.0267 0.0
C723 C 0.12865 0.55541 0.02536 0.0
N724 N 0.14178 0.48782 0.0215 0.0
N725 N 0.19132 0.645 0.04369 0.0
C726 C 0.15456 0.52625 0.02581 0.0
C727 C 0.17902 0.60665 0.03711 0.0
N728 N 0.21957 0.51103 0.03282 0.0
N729 N 0.116 0.62215 0.0189 0.0
H730 H 0.21934 0.65396 0.04993 0.0
H731 H 0.17406 0.66797 0.04373 0.0
H732 H 0.08814 0.61374 0.01132 0.0
H733 H 0.12297 0.65186 0.01708 0.0
H734 H 0.21431 0.48178 0.02399 0.0
H735 H 0.24786 0.51914 0.03856 0.0
H736 H 0.15825 0.46465 0.02552 0.0
H737 H 0.11392 0.47896 0.01433 0.0
C738 C 0.31639 0.42463 0.54562 0.0
C739 C 0.29154 0.4497 0.52855 0.0
C740 C 0.3448 0.48942 0.50396 0.0
C741 C 0.36937 0.46531 0.52266 0.0
N742 N 0.37948 0.40368 0.54912 0.0
N743 N 0.28109 0.49883 0.48275 0.0
C744 C 0.35527 0.43054 0.53907 0.0
C745 C 0.30549 0.47972 0.50464 0.0
N746 N 0.30335 0.39712 0.57045 0.0
N747 N 0.35888 0.52275 0.48779 0.0
H748 H 0.25221 0.4922 0.48284 0.0
H749 H 0.28949 0.51868 0.46213 0.0
H750 H 0.38751 0.52982 0.4855 0.0
H751 H 0.34237 0.54409 0.47799 0.0
H752 H 0.32079 0.38113 0.58704 0.0
H753 H 0.27524 0.39228 0.57711 0.0
H754 H 0.37086 0.376 0.55801 0.0
H755 H 0.40818 0.40792 0.54463 0.0
C756 C 0.97478 0.70186 0.97303 0.0
C757 C 0.93612 0.70622 0.96649 0.0
C758 C 0.92179 0.63753 0.97994 0.0
C759 C 0.96049 0.63158 0.97897 0.0
N760 N 0.02438 0.65748 0.97463 0.0
N761 N 0.87229 0.67856 0.96334 0.0
C762 C 0.98728 0.66374 0.97639 0.0
C763 C 0.9094 0.67424 0.9704 0.0
N764 N -0.00057 0.73416 0.97556 0.0
N765 N 0.89701 0.60794 0.99036 0.0
H766 H 0.86198 0.70542 0.95805 0.0
H767 H 0.85199 0.65529 0.96062 0.0
H768 H 0.90559 0.5811 0.99853 0.0
H769 H 0.86873 0.6111 0.99467 0.0
H770 H 0.02746 0.73354 0.98386 0.0
H771 H 0.99102 0.76225 0.97256 0.0
H772 H 0.04515 0.67892 0.96856 0.0
H773 H 0.03419 0.62995 0.97709 0.0
C774 C 0.41623 0.86599 0.09567 0.0
C775 C 0.44081 0.83924 0.11006 0.0
C776 C 0.49425 0.87726 0.08455 0.0
C777 C 0.46904 0.89802 0.06293 0.0
N778 N 0.40723 0.91761 0.05099 0.0
N779 N 0.5033 0.82048 0.12188 0.0
C780 C 0.43035 0.89477 0.07025 0.0
C781 C 0.48004 0.84578 0.10643 0.0
N782 N 0.37948 0.86299 0.1056 0.0
N783 N 0.53174 0.88739 0.08302 0.0
H784 H 0.49368 0.798 0.1393 0.0
H785 H 0.53174 0.82075 0.11641 0.0
H786 H 0.54213 0.91084 0.06722 0.0
H787 H 0.55196 0.87524 0.0998 0.0
H788 H 0.36037 0.88289 0.09824 0.0
H789 H 0.36866 0.84181 0.12388 0.0
H790 H 0.37818 0.91442 0.05159 0.0
H791 H 0.41762 0.93978 0.03356 0.0
C792 C 0.00397 0.1981 0.53103 0.0
C793 C 0.03647 0.22043 0.54608 0.0
C794 C 0.06814 0.16082 0.55281 0.0
C795 C 0.03404 0.13819 0.54468 0.0
N796 N 0.96796 0.13533 0.52848 0.0
N797 N 0.09622 0.22178 0.58061 0.0
C798 C 0.00145 0.1567 0.53394 0.0
C799 C 0.06771 0.20145 0.55952 0.0
N800 N 0.97588 0.21632 0.51374 0.0
N801 N 0.10115 0.14338 0.55394 0.0
H802 H 0.09628 0.25143 0.58842 0.0
H803 H 0.11772 0.20821 0.59415 0.0
H804 H 0.10267 0.11361 0.54746 0.0
H805 H 0.12712 0.15916 0.55677 0.0
H806 H 0.95315 0.20133 0.49887 0.0
H807 H 0.97693 0.24652 0.51166 0.0
H808 H 0.94263 0.1478 0.52462 0.0
H809 H 0.96509 0.10516 0.53035 0.0
C810 C 0.5155 0.30995 0.48708 0.0
C811 C 0.5531 0.30342 0.47836 0.0
C812 C 0.56951 0.37356 0.4784 0.0
C813 C 0.53139 0.38022 0.48464 0.0
N814 N 0.47018 0.35689 0.50426 0.0
N815 N 0.61772 0.32773 0.4764 0.0
C816 C 0.50507 0.34901 0.49244 0.0
C817 C 0.58074 0.33495 0.47775 0.0
N818 N 0.48963 0.27885 0.48834 0.0
N819 N 0.5946 0.40416 0.47122 0.0
H820 H 0.6268 0.29962 0.4755 0.0
H821 H 0.63961 0.34934 0.47955 0.0
H822 H 0.58798 0.43314 0.47354 0.0
H823 H 0.62143 0.401 0.46116 0.0
H824 H 0.46101 0.28133 0.49057 0.0
H825 H 0.49685 0.25005 0.48569 0.0
H826 H 0.45036 0.33589 0.51344 0.0
H827 H 0.46205 0.3853 0.50767 0.0
loop_
_geom_bond_atom_site_label_1
_geom_bond_atom_site_label_2
_geom_bond_distance
_geom_bond_site_symmetry_2
_ccdc_geom_bond_type
C0 C1 1.386 . S
C0 C2 1.397 . S
C0 H24 0.931 . S
C1 C0 1.386 . S
C1 C5 1.397 . S
C2 C0 1.397 . S
C2 C3 1.384 . S
C2 H25 0.930 . S
C3 C2 1.384 . S
C3 C4 1.377 . S
C3 C6 1.481 . S
C4 C3 1.377 . S
C4 C5 1.389 . S
C4 H26 0.929 . S
C5 C1 1.397 . S
C5 C4 1.389 . S
C5 H27 0.931 . S
C6 C3 1.481 . S
C6 C7 1.387 . S
C6 C11 1.390 . S
C7 C6 1.387 . S
C7 C8 1.401 . S
C7 H28 0.930 . S
C8 C7 1.401 . S
C8 C9 1.376 . S
C8 C17 1.511 . S
C9 C8 1.376 . S
C9 C10 1.392 . S
C9 H30 0.931 . S
C10 C9 1.392 . S
C10 C11 1.361 . S
C10 C12 1.500 . S
C11 C6 1.390 . S
C11 C10 1.361 . S
C11 H29 0.931 . S
C12 C10 1.500 . S
C12 C13 1.371 . S
C12 C14 1.365 . S
C13 C12 1.371 . S
C13 C23 1.386 . S
C13 H31 0.931 . S
C14 C12 1.365 . S
C14 C15 1.409 . S
C14 H32 0.929 . S
C15 C14 1.409 . S
C15 C16 1.380 . S
C15 H33 0.930 . S
C16 C15 1.380 . S
C16 C23 1.357 . S
C17 C8 1.511 . S
C17 C18 1.341 . S
C17 C19 1.371 . S
C18 C17 1.341 . S
C18 C22 1.394 . S
C18 H34 0.930 . S
C19 C17 1.371 . S
C19 C20 1.392 . S
C19 H35 0.931 . S
C20 C19 1.392 . S
C20 C21 1.331 . S
C20 H38 0.932 . S
C21 C20 1.331 . S
C21 C22 1.336 . S
C22 C18 1.394 . S
C22 C21 1.336 . S
C22 H37 0.929 . S
C23 C13 1.386 . S
C23 C16 1.357 . S
C23 H36 0.928 . S
H24 C0 0.931 . S
H25 C2 0.930 . S
H26 C4 0.929 . S
H27 C5 0.931 . S
H28 C7 0.930 . S
H29 C11 0.931 . S
H30 C9 0.931 . S
H31 C13 0.931 . S
H32 C14 0.929 . S
H33 C15 0.930 . S
H34 C18 0.930 . S
H35 C19 0.931 . S
H36 C23 0.928 . S
H37 C22 0.929 . S
H38 C20 0.932 . S
C39 C40 1.386 . S
C39 C41 1.397 . S
C39 H63 0.931 . S
C40 C39 1.386 . S
C40 C44 1.397 . S
C41 C39 1.397 . S
C41 C42 1.384 . S
C41 H64 0.930 . S
C42 C41 1.384 . S
C42 C43 1.377 . S
C42 C45 1.481 . S
C43 C42 1.377 . S
C43 C44 1.389 . S
C43 H65 0.929 . S
C44 C40 1.397 . S
C44 C43 1.389 . S
C44 H66 0.931 . S
C45 C42 1.481 . S
C45 C46 1.387 . S
C45 C50 1.390 . S
C46 C45 1.387 . S
C46 C47 1.401 . S
C46 H67 0.930 . S
C47 C46 1.401 . S
C47 C48 1.376 . S
C47 C56 1.511 . S
C48 C47 1.376 . S
C48 C49 1.392 . S
C48 H69 0.931 . S
C49 C48 1.392 . S
C49 C50 1.361 . S
C49 C51 1.500 . S
C50 C45 1.390 . S
C50 C49 1.361 . S
C50 H68 0.931 . S
C51 C49 1.500 . S
C51 C52 1.371 . S
C51 C53 1.365 . S
C52 C51 1.371 . S
C52 C62 1.386 . S
C52 H70 0.931 . S
C53 C51 1.365 . S
C53 C54 1.409 . S
C53 H71 0.929 . S
C54 C53 1.409 . S
C54 C55 1.380 . S
C54 H72 0.930 . S
C55 C54 1.380 . S
C55 C62 1.357 . S
C56 C47 1.511 . S
C56 C57 1.341 . S
C56 C58 1.371 . S
C57 C56 1.341 . S
C57 C61 1.394 . S
C57 H73 0.930 . S
C58 C56 1.371 . S
C58 C59 1.392 . S
C58 H74 0.931 . S
C59 C58 1.392 . S
C59 C60 1.331 . S
C59 H77 0.932 . S
C60 C59 1.331 . S
C60 C61 1.336 . S
C61 C57 1.394 . S
C61 C60 1.336 . S
C61 H76 0.929 . S
C62 C52 1.386 . S
C62 C55 1.357 . S
C62 H75 0.928 . S
H63 C39 0.931 . S
H64 C41 0.930 . S
H65 C43 0.929 . S
H66 C44 0.931 . S
H67 C46 0.930 . S
H68 C50 0.931 . S
H69 C48 0.931 . S
H70 C52 0.931 . S
H71 C53 0.929 . S
H72 C54 0.930 . S
H73 C57 0.930 . S
H74 C58 0.931 . S
H75 C62 0.928 . S
H76 C61 0.929 . S
H77 C59 0.932 . S
C78 C79 1.386 . S
C78 C80 1.397 . S
C78 H102 0.931 . S
C79 C78 1.386 . S
C79 C83 1.397 . S
C80 C78 1.397 . S
C80 C81 1.384 . S
C80 H103 0.930 . S
C81 C80 1.384 . S
C81 C82 1.377 . S
C81 C84 1.481 . S
C82 C81 1.377 . S
C82 C83 1.389 . S
C82 H104 0.929 . S
C83 C79 1.397 . S
C83 C82 1.389 . S
C83 H105 0.931 . S
C84 C81 1.481 . S
C84 C85 1.387 . S
C84 C89 1.390 . S
C85 C84 1.387 . S
C85 C86 1.401 . S
C85 H106 0.930 . S
C86 C85 1.401 . S
C86 C87 1.376 . S
C86 C95 1.511 . S
C87 C86 1.376 . S
C87 C88 1.392 . S
C87 H108 0.931 . S
C88 C87 1.392 . S
C88 C89 1.361 . S
C88 C90 1.500 . S
C89 C84 1.390 . S
C89 C88 1.361 . S
C89 H107 0.931 . S
C90 C88 1.500 . S
C90 C91 1.371 . S
C90 C92 1.365 . S
C91 C90 1.371 . S
C91 C101 1.386 . S
C91 H109 0.931 . S
C92 C90 1.365 . S
C92 C93 1.409 . S
C92 H110 0.929 . S
C93 C92 1.409 . S
C93 C94 1.380 . S
C93 H111 0.930 . S
C94 C93 1.380 . S
C94 C101 1.357 . S
C95 C86 1.511 . S
C95 C96 1.341 . S
C95 C97 1.371 . S
C96 C95 1.341 . S
C96 C100 1.394 . S
C96 H112 0.930 . S
C97 C95 1.371 . S
C97 C98 1.392 . S
C97 H113 0.931 . S
C98 C97 1.392 . S
C98 C99 1.331 . S
C98 H116 0.932 . S
C99 C98 1.331 . S
C99 C100 1.336 . S
C100 C96 1.394 . S
C100 C99 1.336 . S
C100 H115 0.929 . S
C101 C91 1.386 . S
C101 C94 1.357 . S
C101 H114 0.928 . S
H102 C78 0.931 . S
H103 C80 0.930 . S
H104 C82 0.929 . S
H105 C83 0.931 . S
H106 C85 0.930 . S
H107 C89 0.931 . S
H108 C87 0.931 . S
H109 C91 0.931 . S
H110 C92 0.929 . S
H111 C93 0.930 . S
H112 C96 0.930 . S
H113 C97 0.931 . S
H114 C101 0.928 . S
H115 C100 0.929 . S
H116 C98 0.932 . S
C117 C118 1.386 . S
C117 C119 1.397 . S
C117 H141 0.931 . S
C118 C117 1.386 . S
C118 C122 1.397 . S
C119 C117 1.397 . S
C119 C120 1.384 . S
C119 H142 0.930 . S
C120 C119 1.384 . S
C120 C121 1.377 . S
C120 C123 1.481 . S
C121 C120 1.377 . S
C121 C122 1.389 . S
C121 H143 0.929 . S
C122 C118 1.397 . S
C122 C121 1.389 . S
C122 H144 0.931 . S
C123 C120 1.481 . S
C123 C124 1.387 . S
C123 C128 1.390 . S
C124 C123 1.387 . S
C124 C125 1.401 . S
C124 H145 0.930 . S
C125 C124 1.401 . S
C125 C126 1.376 . S
C125 C134 1.511 . S
C126 C125 1.376 . S
C126 C127 1.392 . S
C126 H147 0.931 . S
C127 C126 1.392 . S
C127 C128 1.361 . S
C127 C129 1.500 . S
C128 C123 1.390 . S
C128 C127 1.361 . S
C128 H146 0.931 . S
C129 C127 1.500 . S
C129 C130 1.371 . S
C129 C131 1.365 . S
C130 C129 1.371 . S
C130 C140 1.386 . S
C130 H148 0.931 . S
C131 C129 1.365 . S
C131 C132 1.409 . S
C131 H149 0.929 . S
C132 C131 1.409 . S
C132 C133 1.380 . S
C132 H150 0.930 . S
C133 C132 1.380 . S
C133 C140 1.357 . S
C134 C125 1.511 . S
C134 C135 1.341 . S
C134 C136 1.371 . S
C135 C134 1.341 . S
C135 C139 1.394 . S
C135 H151 0.930 . S
C136 C134 1.371 . S
C136 C137 1.392 . S
C136 H152 0.931 . S
C137 C136 1.392 . S
C137 C138 1.331 . S
C137 H155 0.932 . S
C138 C137 1.331 . S
C138 C139 1.336 . S
C139 C135 1.394 . S
C139 C138 1.336 . S
C139 H154 0.929 . S
C140 C130 1.386 . S
C140 C133 1.357 . S
C140 H153 0.928 . S
H141 C117 0.931 . S
H142 C119 0.930 . S
H143 C121 0.929 . S
H144 C122 0.931 . S
H145 C124 0.930 . S
H146 C128 0.931 . S
H147 C126 0.931 . S
H148 C130 0.931 . S
H149 C131 0.929 . S
H150 C132 0.930 . S
H151 C135 0.930 . S
H152 C136 0.931 . S
H153 C140 0.928 . S
H154 C139 0.929 . S
H155 C137 0.932 . S
C156 C157 1.386 . S
C156 C158 1.397 . S
C156 H180 0.931 . S
C157 C156 1.386 . S
C157 C161 1.397 . S
C158 C156 1.397 . S
C158 C159 1.384 . S
C158 H181 0.930 . S
C159 C158 1.384 . S
C159 C160 1.377 . S
C159 C162 1.481 . S
C160 C159 1.377 . S
C160 C161 1.389 . S
C160 H182 0.929 . S
C161 C157 1.397 . S
C161 C160 1.389 . S
C161 H183 0.931 . S
C162 C159 1.481 . S
C162 C163 1.387 . S
C162 C167 1.390 . S
C163 C162 1.387 . S
C163 C164 1.401 . S
C163 H184 0.930 . S
C164 C163 1.401 . S
C164 C165 1.376 . S
C164 C173 1.511 . S
C165 C164 1.376 . S
C165 C166 1.392 . S
C165 H186 0.931 . S
C166 C165 1.392 . S
C166 C167 1.361 . S
C166 C168 1.500 . S
C167 C162 1.390 . S
C167 C166 1.361 . S
C167 H185 0.931 . S
C168 C166 1.500 . S
C168 C169 1.371 . S
C168 C170 1.365 . S
C169 C168 1.371 . S
C169 C179 1.386 . S
C169 H187 0.931 . S
C170 C168 1.365 . S
C170 C171 1.409 . S
C170 H188 0.929 . S
C171 C170 1.409 . S
C171 C172 1.380 . S
C171 H189 0.930 . S
C172 C171 1.380 . S
C172 C179 1.357 . S
C173 C164 1.511 . S
C173 C174 1.341 . S
C173 C175 1.371 . S
C174 C173 1.341 . S
C174 C178 1.394 . S
C174 H190 0.930 . S
C175 C173 1.371 . S
C175 C176 1.392 . S
C175 H191 0.931 . S
C176 C175 1.392 . S
C176 C177 1.331 . S
C176 H194 0.932 . S
C177 C176 1.331 . S
C177 C178 1.336 . S
C178 C174 1.394 . S
C178 C177 1.336 . S
C178 H193 0.929 . S
C179 C169 1.386 . S
C179 C172 1.357 . S
C179 H192 0.928 . S
H180 C156 0.931 . S
H181 C158 0.930 . S
H182 C160 0.929 . S
H183 C161 0.931 . S
H184 C163 0.930 . S
H185 C167 0.931 . S
H186 C165 0.931 . S
H187 C169 0.931 . S
H188 C170 0.929 . S
H189 C171 0.930 . S
H190 C174 0.930 . S
H191 C175 0.931 . S
H192 C179 0.928 . S
H193 C178 0.929 . S
H194 C176 0.932 . S
C195 C196 1.386 . S
C195 C197 1.397 . S
C195 H219 0.931 . S
C196 C195 1.386 . S
C196 C200 1.397 . S
C197 C195 1.397 . S
C197 C198 1.384 . S
C197 H220 0.930 . S
C198 C197 1.384 . S
C198 C199 1.377 . S
C198 C201 1.481 . S
C199 C198 1.377 . S
C199 C200 1.389 . S
C199 H221 0.929 . S
C200 C196 1.397 . S
C200 C199 1.389 . S
C200 H222 0.931 . S
C201 C198 1.481 . S
C201 C202 1.387 . S
C201 C206 1.390 . S
C202 C201 1.387 . S
C202 C203 1.401 . S
C202 H223 0.930 . S
C203 C202 1.401 . S
C203 C204 1.376 . S
C203 C212 1.511 . S
C204 C203 1.376 . S
C204 C205 1.392 . S
C204 H225 0.931 . S
C205 C204 1.392 . S
C205 C206 1.361 . S
C205 C207 1.500 . S
C206 C201 1.390 . S
C206 C205 1.361 . S
C206 H224 0.931 . S
C207 C205 1.500 . S
C207 C208 1.371 . S
C207 C209 1.365 . S
C208 C207 1.371 . S
C208 C218 1.386 . S
C208 H226 0.931 . S
C209 C207 1.365 . S
C209 C210 1.409 . S
C209 H227 0.929 . S
C210 C209 1.409 . S
C210 C211 1.380 . S
C210 H228 0.930 . S
C211 C210 1.380 . S
C211 C218 1.357 . S
C212 C203 1.511 . S
C212 C213 1.341 . S
C212 C214 1.371 . S
C213 C212 1.341 . S
C213 C217 1.394 . S
C213 H229 0.930 . S
C214 C212 1.371 . S
C214 C215 1.392 . S
C214 H230 0.931 . S
C215 C214 1.392 . S
C215 C216 1.331 . S
C215 H233 0.932 . S
C216 C215 1.331 . S
C216 C217 1.336 . S
C217 C213 1.394 . S
C217 C216 1.336 . S
C217 H232 0.929 . S
C218 C208 1.386 . S
C218 C211 1.357 . S
C218 H231 0.928 . S
H219 C195 0.931 . S
H220 C197 0.930 . S
H221 C199 0.929 . S
H222 C200 0.931 . S
H223 C202 0.930 . S
H224 C206 0.931 . S
H225 C204 0.931 . S
H226 C208 0.931 . S
H227 C209 0.929 . S
H228 C210 0.930 . S
H229 C213 0.930 . S
H230 C214 0.931 . S
H231 C218 0.928 . S
H232 C217 0.929 . S
H233 C215 0.932 . S
C234 C235 1.386 . S
C234 C236 1.397 . S
C234 H258 0.931 . S
C235 C234 1.386 . S
C235 C239 1.397 . S
C236 C234 1.397 . S
C236 C237 1.384 . S
C236 H259 0.930 . S
C237 C236 1.384 . S
C237 C238 1.377 . S
C237 C240 1.481 . S
C238 C237 1.377 . S
C238 C239 1.389 . S
C238 H260 0.929 . S
C239 C235 1.397 . S
C239 C238 1.389 . S
C239 H261 0.931 . S
C240 C237 1.481 . S
C240 C241 1.387 . S
C240 C245 1.390 . S
C241 C240 1.387 . S
C241 C242 1.401 . S
C241 H262 0.930 . S
C242 C241 1.401 . S
C242 C243 1.376 . S
C242 C251 1.511 . S
C243 C242 1.376 . S
C243 C244 1.392 . S
C243 H264 0.931 . S
C244 C243 1.392 . S
C244 C245 1.361 . S
C244 C246 1.500 . S
C245 C240 1.390 . S
C245 C244 1.361 . S
C245 H263 0.931 . S
C246 C244 1.500 . S
C246 C247 1.371 . S
C246 C248 1.365 . S
C247 C246 1.371 . S
C247 C257 1.386 . S
C247 H265 0.931 . S
C248 C246 1.365 . S
C248 C249 1.409 . S
C248 H266 0.929 . S
C249 C248 1.409 . S
C249 C250 1.380 . S
C249 H267 0.930 . S
C250 C249 1.380 . S
C250 C257 1.357 . S
C251 C242 1.511 . S
C251 C252 1.341 . S
C251 C253 1.371 . S
C252 C251 1.341 . S
C252 C256 1.394 . S
C252 H268 0.930 . S
C253 C251 1.371 . S
C253 C254 1.392 . S
C253 H269 0.931 . S
C254 C253 1.392 . S
C254 C255 1.331 . S
C254 H272 0.932 . S
C255 C254 1.331 . S
C255 C256 1.336 . S
C256 C252 1.394 . S
C256 C255 1.336 . S
C256 H271 0.929 . S
C257 C247 1.386 . S
C257 C250 1.357 . S
C257 H270 0.928 . S
H258 C234 0.931 . S
H259 C236 0.930 . S
H260 C238 0.929 . S
H261 C239 0.931 . S
H262 C241 0.930 . S
H263 C245 0.931 . S
H264 C243 0.931 . S
H265 C247 0.931 . S
H266 C248 0.929 . S
H267 C249 0.930 . S
H268 C252 0.930 . S
H269 C253 0.931 . S
H270 C257 0.928 . S
H271 C256 0.929 . S
H272 C254 0.932 . S
C273 C274 1.386 . S
C273 C275 1.397 . S
C273 H297 0.931 . S
C274 C273 1.386 . S
C274 C278 1.397 . S
C275 C273 1.397 . S
C275 C276 1.384 . S
C275 H298 0.930 . S
C276 C275 1.384 . S
C276 C277 1.377 . S
C276 C279 1.481 . S
C277 C276 1.377 . S
C277 C278 1.389 . S
C277 H299 0.929 . S
C278 C274 1.397 . S
C278 C277 1.389 . S
C278 H300 0.931 . S
C279 C276 1.481 . S
C279 C280 1.387 . S
C279 C284 1.390 . S
C280 C279 1.387 . S
C280 C281 1.401 . S
C280 H301 0.930 . S
C281 C280 1.401 . S
C281 C282 1.376 . S
C281 C290 1.511 . S
C282 C281 1.376 . S
C282 C283 1.392 . S
C282 H303 0.931 . S
C283 C282 1.392 . S
C283 C284 1.361 . S
C283 C285 1.500 . S
C284 C279 1.390 . S
C284 C283 1.361 . S
C284 H302 0.931 . S
C285 C283 1.500 . S
C285 C286 1.371 . S
C285 C287 1.365 . S
C286 C285 1.371 . S
C286 C296 1.386 . S
C286 H304 0.931 . S
C287 C285 1.365 . S
C287 C288 1.409 . S
C287 H305 0.929 . S
C288 C287 1.409 . S
C288 C289 1.380 . S
C288 H306 0.930 . S
C289 C288 1.380 . S
C289 C296 1.357 . S
C290 C281 1.511 . S
C290 C291 1.341 . S
C290 C292 1.371 . S
C291 C290 1.341 . S
C291 C295 1.394 . S
C291 H307 0.930 . S
C292 C290 1.371 . S
C292 C293 1.392 . S
C292 H308 0.931 . S
C293 C292 1.392 . S
C293 C294 1.331 . S
C293 H311 0.932 . S
C294 C293 1.331 . S
C294 C295 1.336 . S
C295 C291 1.394 . S
C295 C294 1.336 . S
C295 H310 0.929 . S
C296 C286 1.386 . S
C296 C289 1.357 . S
C296 H309 0.928 . S
H297 C273 0.931 . S
H298 C275 0.930 . S
H299 C277 0.929 . S
H300 C278 0.931 . S
H301 C280 0.930 . S
H302 C284 0.931 . S
H303 C282 0.931 . S
H304 C286 0.931 . S
H305 C287 0.929 . S
H306 C288 0.930 . S
H307 C291 0.930 . S
H308 C292 0.931 . S
H309 C296 0.928 . S
H310 C295 0.929 . S
H311 C293 0.932 . S
O312 Mg313 1.990 . S
O312 C326 1.253 1_445 S
Mg313 O312 1.990 . S
Mg313 O316 2.180 . S
Mg313 O317 2.117 . S
Mg313 O331 2.030 1_545 S
O314 Mg315 2.072 1_665 S
O314 C326 1.260 . S
Mg315 O314 2.072 1_445 S
Mg315 O316 2.099 . S
Mg315 O318 2.079 . S
Mg315 O319 2.072 1_455 S
Mg315 O321 2.099 1_445 S
Mg315 O332 2.079 1_545 S
O316 Mg313 2.180 . S
O316 Mg315 2.099 . S
O316 C327 1.279 . S
O317 Mg313 2.117 . S
O317 C327 1.250 . S
O318 Mg315 2.079 . S
O318 C328 1.264 . S
O319 Mg315 2.072 1_655 S
O319 C329 1.260 . S
Mg320 O321 2.180 . S
Mg320 O322 2.030 1_565 S
Mg320 O323 1.990 1_565 S
Mg320 O324 2.117 . S
O321 Mg315 2.099 1_665 S
O321 Mg320 2.180 . S
O321 C330 1.279 . S
O322 Mg320 2.030 1_545 S
O322 C328 1.248 1_655 S
O323 Mg320 1.990 1_545 S
O323 C329 1.253 . S
O324 Mg320 2.117 . S
O324 C330 1.250 . S
C325 O331 1.248 . S
C325 O332 1.264 . S
C326 O312 1.253 1_665 S
C326 O314 1.260 . S
C327 O316 1.279 . S
C327 O317 1.250 . S
C328 O318 1.264 . S
C328 O322 1.248 1_455 S
C329 O319 1.260 . S
C329 O323 1.253 . S
C330 O321 1.279 . S
C330 O324 1.250 . S
O331 Mg313 2.030 1_565 S
O331 C325 1.248 . S
O332 Mg315 2.079 1_565 S
O332 C325 1.264 . S
O333 Mg334 1.990 . S
O333 C347 1.253 . S
Mg334 O333 1.990 . S
Mg334 O337 2.180 1_554 S
Mg334 O338 2.117 1_554 S
Mg334 O352 2.030 . S
O335 Mg336 2.072 . S
O335 C347 1.260 . S
Mg336 O335 2.072 . S
Mg336 O337 2.099 1_554 S
Mg336 O339 2.079 1_544 S
Mg336 O340 2.072 1_554 S
Mg336 O342 2.099 1_545 S
Mg336 O353 2.079 . S
O337 Mg334 2.180 1_556 S
O337 Mg336 2.099 1_556 S
O337 C348 1.279 . S
O338 Mg334 2.117 1_556 S
O338 C348 1.250 . S
O339 Mg336 2.079 1_566 S
O339 C349 1.264 . S
O340 Mg336 2.072 1_556 S
O340 C350 1.260 1_545 S
Mg341 O342 2.180 1_556 S
Mg341 O343 2.030 . S
Mg341 O344 1.990 . S
Mg341 O345 2.117 1_556 S
O342 Mg336 2.099 1_565 S
O342 Mg341 2.180 1_554 S
O342 C351 1.279 . S
O343 Mg341 2.030 . S
O343 C349 1.248 . S
O344 Mg341 1.990 . S
O344 C350 1.253 . S
O345 Mg341 2.117 1_554 S
O345 C351 1.250 . S
C346 O352 1.248 . S
C346 O353 1.264 . S
C347 O333 1.253 . S
C347 O335 1.260 . S
C348 O337 1.279 . S
C348 O338 1.250 . S
C349 O339 1.264 . S
C349 O343 1.248 . S
C350 O340 1.260 1_565 S
C350 O344 1.253 . S
C351 O342 1.279 . S
C351 O345 1.250 . S
O352 Mg334 2.030 . S
O352 C346 1.248 . S
O353 Mg336 2.079 . S
O353 C346 1.264 . S
O354 Mg355 1.990 . S
O354 C368 1.253 . S
Mg355 O354 1.990 . S
Mg355 O358 2.180 . S
Mg355 O359 2.117 . S
Mg355 O373 2.030 . S
O356 Mg357 2.072 . S
O356 C368 1.260 . S
Mg357 O356 2.072 . S
Mg357 O358 2.099 . S
Mg357 O360 2.079 . S
Mg357 O361 2.072 . S
Mg357 O363 2.099 . S
Mg357 O374 2.079 . S
O358 Mg355 2.180 . S
O358 Mg357 2.099 . S
O358 C369 1.279 . S
O359 Mg355 2.117 . S
O359 C369 1.250 . S
O360 Mg357 2.079 . S
O360 C370 1.264 . S
O361 Mg357 2.072 . S
O361 C371 1.260 . S
Mg362 O363 2.180 . S
Mg362 O364 2.030 . S
Mg362 O365 1.990 . S
Mg362 O366 2.117 . S
O363 Mg357 2.099 . S
O363 Mg362 2.180 . S
O363 C372 1.279 . S
O364 Mg362 2.030 . S
O364 C370 1.248 . S
O365 Mg362 1.990 . S
O365 C371 1.253 . S
O366 Mg362 2.117 . S
O366 C372 1.250 . S
C367 O373 1.248 . S
C367 O374 1.264 . S
C368 O354 1.253 . S
C368 O356 1.260 . S
C369 O358 1.279 . S
C369 O359 1.250 . S
C370 O360 1.264 . S
C370 O364 1.248 . S
C371 O361 1.260 . S
C371 O365 1.253 . S
C372 O363 1.279 . S
C372 O366 1.250 . S
O373 Mg355 2.030 . S
O373 C367 1.248 . S
O374 Mg357 2.079 . S
O374 C367 1.264 . S
O375 Mg376 1.990 . S
O375 C389 1.253 . S
Mg376 O375 1.990 . S
Mg376 O379 2.180 1_455 S
Mg376 O380 2.117 1_455 S
Mg376 O394 2.030 . S
O377 Mg378 2.072 . S
O377 C389 1.260 . S
Mg378 O377 2.072 . S
Mg378 O379 2.099 1_455 S
Mg378 O381 2.079 1_454 S
Mg378 O382 2.072 1_455 S
Mg378 O384 2.099 1_554 S
Mg378 O395 2.079 . S
O379 Mg376 2.180 1_655 S
O379 Mg378 2.099 1_655 S
O379 C390 1.279 . S
O380 Mg376 2.117 1_655 S
O380 C390 1.250 . S
O381 Mg378 2.079 1_656 S
O381 C391 1.264 . S
O382 Mg378 2.072 1_655 S
O382 C392 1.260 1_554 S
Mg383 O384 2.180 1_655 S
Mg383 O385 2.030 . S
Mg383 O386 1.990 . S
Mg383 O387 2.117 . S
O384 Mg378 2.099 1_556 S
O384 Mg383 2.180 1_455 S
O384 C393 1.279 . S
O385 Mg383 2.030 . S
O385 C391 1.248 . S
O386 Mg383 1.990 . S
O386 C392 1.253 . S
O387 Mg383 2.117 . S
O387 C393 1.250 1_655 S
C388 O394 1.248 . S
C388 O395 1.264 . S
C389 O375 1.253 . S
C389 O377 1.260 . S
C390 O379 1.279 . S
C390 O380 1.250 . S
C391 O381 1.264 . S
C391 O385 1.248 . S
C392 O382 1.260 1_556 S
C392 O386 1.253 . S
C393 O384 1.279 . S
C393 O387 1.250 1_455 S
O394 Mg376 2.030 . S
O394 C388 1.248 . S
O395 Mg378 2.079 . S
O395 C388 1.264 . S
C396 C397 1.363 . S
C396 C402 1.379 . S
C396 N404 1.356 . S
C397 C396 1.363 . S
C397 C403 1.363 . S
C398 C399 1.363 . S
C398 C403 1.379 . S
C398 N405 1.356 1_455 S
C399 C398 1.363 . S
C399 C402 1.363 . S
N400 C402 1.356 . S
N400 H412 0.984 . S
N400 H413 0.985 . S
N401 C403 1.356 . S
N401 H406 0.984 . S
N401 H407 0.985 1_455 S
C402 C396 1.379 . S
C402 C399 1.363 . S
C402 N400 1.356 . S
C403 C397 1.363 . S
C403 C398 1.379 . S
C403 N401 1.356 . S
N404 C396 1.356 . S
N404 H410 0.984 . S
N404 H411 0.984 . S
N405 C398 1.356 1_655 S
N405 H408 0.984 . S
N405 H409 0.985 . S
H406 N401 0.984 . S
H407 N401 0.985 1_655 S
H408 N405 0.984 . S
H409 N405 0.985 . S
H410 N404 0.984 . S
H411 N404 0.984 . S
H412 N400 0.984 . S
H413 N400 0.985 . S
C414 C415 1.363 . S
C414 C420 1.379 1_565 S
C414 N422 1.356 1_565 S
C415 C414 1.363 . S
C415 C421 1.363 . S
C416 C417 1.363 . S
C416 C421 1.379 . S
C416 N423 1.356 . S
C417 C416 1.363 . S
C417 C420 1.363 1_565 S
N418 C420 1.356 . S
N418 H430 0.984 . S
N418 H431 0.985 . S
N419 C421 1.356 . S
N419 H424 0.984 . S
N419 H425 0.985 . S
C420 C414 1.379 1_545 S
C420 C417 1.363 1_545 S
C420 N418 1.356 . S
C421 C415 1.363 . S
C421 C416 1.379 . S
C421 N419 1.356 . S
N422 C414 1.356 1_545 S
N422 H428 0.984 . S
N422 H429 0.984 1_545 S
N423 C416 1.356 . S
N423 H426 0.984 . S
N423 H427 0.985 . S
H424 N419 0.984 . S
H425 N419 0.985 . S
H426 N423 0.984 . S
H427 N423 0.985 . S
H428 N422 0.984 . S
H429 N422 0.984 1_565 S
H430 N418 0.984 . S
H431 N418 0.985 . S
C432 C433 1.363 . S
C432 C438 1.379 . S
C432 N440 1.356 . S
C433 C432 1.363 . S
C433 C439 1.363 . S
C434 C435 1.363 . S
C434 C439 1.379 . S
C434 N441 1.356 . S
C435 C434 1.363 . S
C435 C438 1.363 . S
N436 C438 1.356 . S
N436 H448 0.984 . S
N436 H449 0.985 . S
N437 C439 1.356 . S
N437 H442 0.984 . S
N437 H443 0.985 . S
C438 C432 1.379 . S
C438 C435 1.363 . S
C438 N436 1.356 . S
C439 C433 1.363 . S
C439 C434 1.379 . S
C439 N437 1.356 . S
N440 C432 1.356 . S
N440 H446 0.984 . S
N440 H447 0.984 . S
N441 C434 1.356 . S
N441 H444 0.984 . S
N441 H445 0.985 . S
H442 N437 0.984 . S
H443 N437 0.985 . S
H444 N441 0.984 . S
H445 N441 0.985 . S
H446 N440 0.984 . S
H447 N440 0.984 . S
H448 N436 0.984 . S
H449 N436 0.985 . S
C450 C451 1.363 . S
C450 C456 1.379 . S
C450 N458 1.356 . S
C451 C450 1.363 . S
C451 C457 1.363 . S
C452 C453 1.363 . S
C452 C457 1.379 . S
C452 N459 1.356 . S
C453 C452 1.363 . S
C453 C456 1.363 . S
N454 C456 1.356 . S
N454 H466 0.984 . S
N454 H467 0.985 . S
N455 C457 1.356 . S
N455 H460 0.984 . S
N455 H461 0.985 . S
C456 C450 1.379 . S
C456 C453 1.363 . S
C456 N454 1.356 . S
C457 C451 1.363 . S
C457 C452 1.379 . S
C457 N455 1.356 . S
N458 C450 1.356 . S
N458 H464 0.984 . S
N458 H465 0.984 . S
N459 C452 1.356 . S
N459 H462 0.984 . S
N459 H463 0.985 . S
H460 N455 0.984 . S
H461 N455 0.985 . S
H462 N459 0.984 . S
H463 N459 0.985 . S
H464 N458 0.984 . S
H465 N458 0.984 . S
H466 N454 0.984 . S
H467 N454 0.985 . S
C468 C469 1.363 . S
C468 C474 1.379 . S
C468 N476 1.356 . S
C469 C468 1.363 . S
C469 C475 1.363 . S
C470 C471 1.363 . S
C470 C475 1.379 . S
C470 N477 1.356 . S
C471 C470 1.363 . S
C471 C474 1.363 . S
N472 C474 1.356 1_565 S
N472 H484 0.984 . S
N472 H485 0.985 . S
N473 C475 1.356 . S
N473 H478 0.984 . S
N473 H479 0.985 . S
C474 C468 1.379 . S
C474 C471 1.363 . S
C474 N472 1.356 1_545 S
C475 C469 1.363 . S
C475 C470 1.379 . S
C475 N473 1.356 . S
N476 C468 1.356 . S
N476 H482 0.984 1_545 S
N476 H483 0.984 . S
N477 C470 1.356 . S
N477 H480 0.984 . S
N477 H481 0.985 . S
H478 N473 0.984 . S
H479 N473 0.985 . S
H480 N477 0.984 . S
H481 N477 0.985 . S
H482 N476 0.984 1_565 S
H483 N476 0.984 . S
H484 N472 0.984 . S
H485 N472 0.985 . S
C486 C487 1.363 . S
C486 C492 1.379 . S
C486 N494 1.356 . S
C487 C486 1.363 . S
C487 C493 1.363 . S
C488 C489 1.363 . S
C488 C493 1.379 . S
C488 N495 1.356 . S
C489 C488 1.363 . S
C489 C492 1.363 . S
N490 C492 1.356 . S
N490 H502 0.984 . S
N490 H503 0.985 . S
N491 C493 1.356 . S
N491 H496 0.984 . S
N491 H497 0.985 . S
C492 C486 1.379 . S
C492 C489 1.363 . S
C492 N490 1.356 . S
C493 C487 1.363 . S
C493 C488 1.379 . S
C493 N491 1.356 . S
N494 C486 1.356 . S
N494 H500 0.984 . S
N494 H501 0.984 . S
N495 C488 1.356 . S
N495 H498 0.984 . S
N495 H499 0.985 . S
H496 N491 0.984 . S
H497 N491 0.985 . S
H498 N495 0.984 . S
H499 N495 0.985 . S
H500 N494 0.984 . S
H501 N494 0.984 . S
H502 N490 0.984 . S
H503 N490 0.985 . S
C504 C505 1.363 . S
C504 C510 1.379 . S
C504 N512 1.356 . S
C505 C504 1.363 . S
C505 C511 1.363 . S
C506 C507 1.363 . S
C506 C511 1.379 . S
C506 N513 1.356 . S
C507 C506 1.363 . S
C507 C510 1.363 . S
N508 C510 1.356 1_554 S
N508 H520 0.984 . S
N508 H521 0.985 . S
N509 C511 1.356 . S
N509 H514 0.984 . S
N509 H515 0.985 . S
C510 C504 1.379 . S
C510 C507 1.363 . S
C510 N508 1.356 1_556 S
C511 C505 1.363 . S
C511 C506 1.379 . S
C511 N509 1.356 . S
N512 C504 1.356 . S
N512 H518 0.984 1_556 S
N512 H519 0.984 . S
N513 C506 1.356 . S
N513 H516 0.984 . S
N513 H517 0.985 . S
H514 N509 0.984 . S
H515 N509 0.985 . S
H516 N513 0.984 . S
H517 N513 0.985 . S
H518 N512 0.984 1_554 S
H519 N512 0.984 . S
H520 N508 0.984 . S
H521 N508 0.985 . S
C522 C523 1.363 . S
C522 C528 1.379 . S
C522 N530 1.356 . S
C523 C522 1.363 . S
C523 C529 1.363 . S
C524 C525 1.363 . S
C524 C529 1.379 . S
C524 N531 1.356 . S
C525 C524 1.363 . S
C525 C528 1.363 . S
N526 C528 1.356 . S
N526 H538 0.984 . S
N526 H539 0.985 . S
N527 C529 1.356 . S
N527 H532 0.984 . S
N527 H533 0.985 . S
C528 C522 1.379 . S
C528 C525 1.363 . S
C528 N526 1.356 . S
C529 C523 1.363 . S
C529 C524 1.379 . S
C529 N527 1.356 . S
N530 C522 1.356 . S
N530 H536 0.984 . S
N530 H537 0.984 . S
N531 C524 1.356 . S
N531 H534 0.984 . S
N531 H535 0.985 . S
H532 N527 0.984 . S
H533 N527 0.985 . S
H534 N531 0.984 . S
H535 N531 0.985 . S
H536 N530 0.984 . S
H537 N530 0.984 . S
H538 N526 0.984 . S
H539 N526 0.985 . S
C540 C541 1.363 . S
C540 C546 1.379 . S
C540 N548 1.356 . S
C541 C540 1.363 . S
C541 C547 1.363 . S
C542 C543 1.363 . S
C542 C547 1.379 . S
C542 N549 1.356 . S
C543 C542 1.363 . S
C543 C546 1.363 . S
N544 C546 1.356 1_556 S
N544 H556 0.984 . S
N544 H557 0.985 . S
N545 C547 1.356 . S
N545 H550 0.984 . S
N545 H551 0.985 . S
C546 C540 1.379 . S
C546 C543 1.363 . S
C546 N544 1.356 1_554 S
C547 C541 1.363 . S
C547 C542 1.379 . S
C547 N545 1.356 . S
N548 C540 1.356 . S
N548 H554 0.984 1_554 S
N548 H555 0.984 . S
N549 C542 1.356 . S
N549 H552 0.984 . S
N549 H553 0.985 . S
H550 N545 0.984 . S
H551 N545 0.985 . S
H552 N549 0.984 . S
H553 N549 0.985 . S
H554 N548 0.984 1_556 S
H555 N548 0.984 . S
H556 N544 0.984 . S
H557 N544 0.985 . S
C558 C559 1.363 . S
C558 C564 1.379 . S
C558 N566 1.356 . S
C559 C558 1.363 . S
C559 C565 1.363 . S
C560 C561 1.363 . S
C560 C565 1.379 . S
C560 N567 1.356 1_556 S
C561 C560 1.363 . S
C561 C564 1.363 . S
N562 C564 1.356 . S
N562 H574 0.984 . S
N562 H575 0.985 . S
N563 C565 1.356 . S
N563 H568 0.984 . S
N563 H569 0.985 1_556 S
C564 C558 1.379 . S
C564 C561 1.363 . S
C564 N562 1.356 . S
C565 C559 1.363 . S
C565 C560 1.379 . S
C565 N563 1.356 . S
N566 C558 1.356 . S
N566 H572 0.984 . S
N566 H573 0.984 . S
N567 C560 1.356 1_554 S
N567 H570 0.983 1_554 S
N567 H571 0.985 . S
H568 N563 0.984 . S
H569 N563 0.985 1_554 S
H570 N567 0.983 1_556 S
H571 N567 0.985 . S
H572 N566 0.984 . S
H573 N566 0.984 . S
H574 N562 0.984 . S
H575 N562 0.985 . S
C576 C577 1.363 . S
C576 C582 1.379 . S
C576 N584 1.356 . S
C577 C576 1.363 . S
C577 C583 1.363 . S
C578 C579 1.363 . S
C578 C583 1.379 . S
C578 N585 1.356 . S
C579 C578 1.363 . S
C579 C582 1.363 . S
N580 C582 1.346 1_455 S
N580 H592 0.998 . S
N580 H593 0.982 1_455 S
N581 C583 1.356 . S
N581 H586 0.984 . S
N581 H587 0.985 . S
C582 C576 1.379 . S
C582 C579 1.363 . S
C582 N580 1.346 1_655 S
C583 C577 1.363 . S
C583 C578 1.379 . S
C583 N581 1.356 . S
N584 C576 1.356 . S
N584 H590 0.984 1_655 S
N584 H591 0.984 . S
N585 C578 1.356 . S
N585 H588 0.984 . S
N585 H589 0.985 . S
H586 N581 0.984 . S
H587 N581 0.985 . S
H588 N585 0.984 . S
H589 N585 0.985 . S
H590 N584 0.984 1_455 S
H591 N584 0.984 . S
H592 N580 0.998 . S
H593 N580 0.982 1_655 S
C594 C595 1.363 . S
C594 C600 1.379 . S
C594 N602 1.356 . S
C595 C594 1.363 . S
C595 C601 1.363 . S
C596 C597 1.363 . S
C596 C601 1.379 . S
C596 N603 1.356 . S
C597 C596 1.363 . S
C597 C600 1.363 . S
N598 C600 1.356 . S
N598 H610 0.984 . S
N598 H611 0.985 . S
N599 C601 1.356 . S
N599 H604 0.984 . S
N599 H605 0.985 . S
C600 C594 1.379 . S
C600 C597 1.363 . S
C600 N598 1.356 . S
C601 C595 1.363 . S
C601 C596 1.379 . S
C601 N599 1.356 . S
N602 C594 1.356 . S
N602 H608 0.984 . S
N602 H609 0.984 . S
N603 C596 1.356 . S
N603 H606 0.984 . S
N603 H607 0.985 . S
H604 N599 0.984 . S
H605 N599 0.985 . S
H606 N603 0.984 . S
H607 N603 0.985 . S
H608 N602 0.984 . S
H609 N602 0.984 . S
H610 N598 0.984 . S
H611 N598 0.985 . S
C612 C613 1.363 . S
C612 C618 1.379 . S
C612 N620 1.356 1_565 S
C613 C612 1.363 . S
C613 C619 1.363 . S
C614 C615 1.363 . S
C614 C619 1.379 . S
C614 N621 1.357 . S
C615 C614 1.363 . S
C615 C618 1.363 . S
N616 C618 1.356 1_545 S
N616 H628 0.984 . S
N616 H629 0.985 . S
N617 C619 1.356 . S
N617 H622 0.984 . S
N617 H623 0.985 . S
C618 C612 1.379 . S
C618 C615 1.363 . S
C618 N616 1.356 1_565 S
C619 C613 1.363 . S
C619 C614 1.379 . S
C619 N617 1.356 . S
N620 C612 1.356 1_545 S
N620 H626 0.984 . S
N620 H627 0.984 1_545 S
N621 C614 1.357 . S
N621 H624 0.984 1_655 S
N621 H625 0.984 1_655 S
H622 N617 0.984 . S
H623 N617 0.985 . S
H624 N621 0.984 1_455 S
H625 N621 0.984 1_455 S
H626 N620 0.984 . S
H627 N620 0.984 1_565 S
H628 N616 0.984 . S
H629 N616 0.985 . S
C630 C631 1.363 . S
C630 C636 1.379 . S
C630 N638 1.356 . S
C631 C630 1.363 . S
C631 C637 1.363 . S
C632 C633 1.363 . S
C632 C637 1.379 . S
C632 N639 1.356 1_545 S
C633 C632 1.363 . S
C633 C636 1.363 . S
N634 C636 1.356 . S
N634 H646 0.984 . S
N634 H647 0.985 . S
N635 C637 1.356 . S
N635 H640 0.984 . S
N635 H641 0.985 1_545 S
C636 C630 1.379 . S
C636 C633 1.363 . S
C636 N634 1.356 . S
C637 C631 1.363 . S
C637 C632 1.379 . S
C637 N635 1.356 . S
N638 C630 1.356 . S
N638 H644 0.984 . S
N638 H645 0.984 . S
N639 C632 1.356 1_565 S
N639 H642 0.985 . S
N639 H643 0.985 . S
H640 N635 0.984 . S
H641 N635 0.985 1_565 S
H642 N639 0.985 . S
H643 N639 0.985 . S
H644 N638 0.984 . S
H645 N638 0.984 . S
H646 N634 0.984 . S
H647 N634 0.985 . S
C648 C649 1.363 . S
C648 C654 1.379 . S
C648 N656 1.356 . S
C649 C648 1.363 . S
C649 C655 1.363 . S
C650 C651 1.363 . S
C650 C655 1.379 . S
C650 N657 1.356 . S
C651 C650 1.363 . S
C651 C654 1.363 . S
N652 C654 1.356 . S
N652 H664 0.984 . S
N652 H665 0.985 . S
N653 C655 1.356 . S
N653 H658 0.984 . S
N653 H659 0.985 . S
C654 C648 1.379 . S
C654 C651 1.363 . S
C654 N652 1.356 . S
C655 C649 1.363 . S
C655 C650 1.379 . S
C655 N653 1.356 . S
N656 C648 1.356 . S
N656 H662 0.984 . S
N656 H663 0.984 . S
N657 C650 1.356 . S
N657 H660 0.984 . S
N657 H661 0.985 . S
H658 N653 0.984 . S
H659 N653 0.985 . S
H660 N657 0.984 . S
H661 N657 0.985 . S
H662 N656 0.984 . S
H663 N656 0.984 . S
H664 N652 0.984 . S
H665 N652 0.985 . S
C666 C667 1.363 . S
C666 C672 1.379 . S
C666 N674 1.356 . S
C667 C666 1.363 . S
C667 C673 1.363 . S
C668 C669 1.363 . S
C668 C673 1.379 . S
C668 N675 1.356 . S
C669 C668 1.363 . S
C669 C672 1.363 . S
N670 C672 1.369 . S
N670 H682 0.970 1_455 S
N670 H683 0.988 . S
N671 C673 1.356 . S
N671 H676 0.984 . S
N671 H677 0.985 . S
C672 C666 1.379 . S
C672 C669 1.363 . S
C672 N670 1.369 . S
C673 C667 1.363 . S
C673 C668 1.379 . S
C673 N671 1.356 . S
N674 C666 1.356 . S
N674 H680 0.984 1_455 S
N674 H681 0.984 . S
N675 C668 1.356 . S
N675 H678 0.984 . S
N675 H679 0.985 . S
H676 N671 0.984 . S
H677 N671 0.985 . S
H678 N675 0.984 . S
H679 N675 0.985 . S
H680 N674 0.984 1_655 S
H681 N674 0.984 . S
H682 N670 0.970 1_655 S
H683 N670 0.988 . S
C684 C685 1.363 . S
C684 C690 1.371 1_565 S
C684 N692 1.356 1_565 S
C685 C684 1.363 . S
C685 C691 1.363 . S
C686 C687 1.363 . S
C686 C691 1.379 . S
C686 N693 1.356 . S
C687 C686 1.363 . S
C687 C690 1.345 1_565 S
N688 C690 1.379 . S
N688 H700 0.984 . S
N688 H701 0.985 . S
N689 C691 1.356 . S
N689 H694 0.984 . S
N689 H695 0.985 . S
C690 C684 1.371 1_545 S
C690 C687 1.345 1_545 S
C690 N688 1.379 . S
C691 C685 1.363 . S
C691 C686 1.379 . S
C691 N689 1.356 . S
N692 C684 1.356 1_545 S
N692 H698 0.984 . S
N692 H699 0.984 1_545 S
N693 C686 1.356 . S
N693 H696 0.984 . S
N693 H697 0.985 . S
H694 N689 0.984 . S
H695 N689 0.985 . S
H696 N693 0.984 . S
H697 N693 0.985 . S
H698 N692 0.984 . S
H699 N692 0.984 1_565 S
H700 N688 0.984 . S
H701 N688 0.985 . S
C702 C703 1.363 . S
C702 C708 1.379 . S
C702 N710 1.356 . S
C703 C702 1.363 . S
C703 C709 1.363 . S
C704 C705 1.363 . S
C704 C709 1.379 . S
C704 N711 1.356 . S
C705 C704 1.363 . S
C705 C708 1.363 . S
N706 C708 1.356 . S
N706 H718 0.984 . S
N706 H719 0.985 . S
N707 C709 1.356 . S
N707 H712 0.984 . S
N707 H713 0.985 . S
C708 C702 1.379 . S
C708 C705 1.363 . S
C708 N706 1.356 . S
C709 C703 1.363 . S
C709 C704 1.379 . S
C709 N707 1.356 . S
N710 C702 1.356 . S
N710 H716 0.984 . S
N710 H717 0.984 . S
N711 C704 1.356 . S
N711 H714 0.984 . S
N711 H715 0.985 . S
H712 N707 0.984 . S
H713 N707 0.985 . S
H714 N711 0.984 . S
H715 N711 0.985 . S
H716 N710 0.984 . S
H717 N710 0.984 . S
H718 N706 0.984 . S
H719 N706 0.985 . S
C720 C721 1.363 . S
C720 C726 1.379 . S
C720 N728 1.356 . S
C721 C720 1.363 . S
C721 C727 1.363 . S
C722 C723 1.363 . S
C722 C727 1.379 . S
C722 N729 1.356 . S
C723 C722 1.363 . S
C723 C726 1.363 . S
N724 C726 1.356 . S
N724 H736 0.984 . S
N724 H737 0.985 . S
N725 C727 1.356 . S
N725 H730 0.984 . S
N725 H731 0.985 . S
C726 C720 1.379 . S
C726 C723 1.363 . S
C726 N724 1.356 . S
C727 C721 1.363 . S
C727 C722 1.379 . S
C727 N725 1.356 . S
N728 C720 1.356 . S
N728 H734 0.984 . S
N728 H735 0.984 . S
N729 C722 1.356 . S
N729 H732 0.984 . S
N729 H733 0.985 . S
H730 N725 0.984 . S
H731 N725 0.985 . S
H732 N729 0.984 . S
H733 N729 0.985 . S
H734 N728 0.984 . S
H735 N728 0.984 . S
H736 N724 0.984 . S
H737 N724 0.985 . S
C738 C739 1.363 . S
C738 C744 1.379 . S
C738 N746 1.356 . S
C739 C738 1.363 . S
C739 C745 1.363 . S
C740 C741 1.363 . S
C740 C745 1.379 . S
C740 N747 1.356 . S
C741 C740 1.363 . S
C741 C744 1.363 . S
N742 C744 1.356 . S
N742 H754 0.984 . S
N742 H755 0.985 . S
N743 C745 1.356 . S
N743 H748 0.984 . S
N743 H749 0.985 . S
C744 C738 1.379 . S
C744 C741 1.363 . S
C744 N742 1.356 . S
C745 C739 1.363 . S
C745 C740 1.379 . S
C745 N743 1.356 . S
N746 C738 1.356 . S
N746 H752 0.984 . S
N746 H753 0.984 . S
N747 C740 1.356 . S
N747 H750 0.984 . S
N747 H751 0.985 . S
H748 N743 0.984 . S
H749 N743 0.985 . S
H750 N747 0.984 . S
H751 N747 0.985 . S
H752 N746 0.984 . S
H753 N746 0.984 . S
H754 N742 0.984 . S
H755 N742 0.985 . S
C756 C757 1.363 . S
C756 C762 1.379 . S
C756 N764 1.356 1_556 S
C757 C756 1.363 . S
C757 C763 1.363 . S
C758 C759 1.363 . S
C758 C763 1.379 . S
C758 N765 1.356 . S
C759 C758 1.363 . S
C759 C762 1.363 . S
N760 C762 1.356 1_554 S
N760 H772 0.984 1_655 S
N760 H773 0.985 . S
N761 C763 1.356 . S
N761 H766 0.984 . S
N761 H767 0.985 . S
C762 C756 1.379 . S
C762 C759 1.363 . S
C762 N760 1.356 1_556 S
C763 C757 1.363 . S
C763 C758 1.379 . S
C763 N761 1.356 . S
N764 C756 1.356 1_554 S
N764 H770 0.984 . S
N764 H771 0.984 1_554 S
N765 C758 1.356 . S
N765 H768 0.984 . S
N765 H769 0.985 . S
H766 N761 0.984 . S
H767 N761 0.985 . S
H768 N765 0.984 . S
H769 N765 0.985 . S
H770 N764 0.984 . S
H771 N764 0.984 1_556 S
H772 N760 0.984 1_455 S
H773 N760 0.985 . S
C774 C775 1.363 . S
C774 C780 1.379 . S
C774 N782 1.356 . S
C775 C774 1.363 . S
C775 C781 1.363 . S
C776 C777 1.363 . S
C776 C781 1.379 . S
C776 N783 1.356 . S
C777 C776 1.363 . S
C777 C780 1.363 . S
N778 C780 1.356 . S
N778 H790 0.984 . S
N778 H791 0.985 . S
N779 C781 1.356 . S
N779 H784 0.984 . S
N779 H785 0.985 . S
C780 C774 1.379 . S
C780 C777 1.363 . S
C780 N778 1.356 . S
C781 C775 1.363 . S
C781 C776 1.379 . S
C781 N779 1.356 . S
N782 C774 1.356 . S
N782 H788 0.984 . S
N782 H789 0.984 . S
N783 C776 1.356 . S
N783 H786 0.984 . S
N783 H787 0.985 1_554 S
H784 N779 0.984 . S
H785 N779 0.985 . S
H786 N783 0.984 . S
H787 N783 0.985 1_556 S
H788 N782 0.984 . S
H789 N782 0.984 . S
H790 N778 0.984 . S
H791 N778 0.985 . S
C792 C793 1.363 . S
C792 C798 1.379 . S
C792 N800 1.356 . S
C793 C792 1.363 . S
C793 C799 1.363 . S
C794 C795 1.363 . S
C794 C799 1.379 . S
C794 N801 1.356 . S
C795 C794 1.363 . S
C795 C798 1.363 . S
N796 C798 1.356 1_655 S
N796 H808 0.984 . S
N796 H809 0.985 . S
N797 C799 1.356 . S
N797 H802 0.984 . S
N797 H803 0.985 . S
C798 C792 1.379 . S
C798 C795 1.363 . S
C798 N796 1.356 1_455 S
C799 C793 1.363 . S
C799 C794 1.379 . S
C799 N797 1.356 . S
N800 C792 1.356 . S
N800 H806 0.984 1_455 S
N800 H807 0.984 . S
N801 C794 1.356 . S
N801 H804 0.984 . S
N801 H805 0.985 . S
H802 N797 0.984 . S
H803 N797 0.985 . S
H804 N801 0.984 . S
H805 N801 0.985 . S
H806 N800 0.984 1_655 S
H807 N800 0.984 . S
H808 N796 0.984 . S
H809 N796 0.985 . S
C810 C811 1.363 . S
C810 C816 1.379 . S
C810 N818 1.356 . S
C811 C810 1.363 . S
C811 C817 1.363 . S
C812 C813 1.363 . S
C812 C817 1.379 . S
C812 N819 1.356 . S
C813 C812 1.363 . S
C813 C816 1.363 . S
N814 C816 1.356 . S
N814 H826 0.984 . S
N814 H827 0.985 . S
N815 C817 1.356 . S
N815 H820 0.984 . S
N815 H821 0.985 . S
C816 C810 1.379 . S
C816 C813 1.363 . S
C816 N814 1.356 . S
C817 C811 1.363 . S
C817 C812 1.379 . S
C817 N815 1.356 . S
N818 C810 1.356 . S
N818 H824 0.984 . S
N818 H825 0.984 . S
N819 C812 1.356 . S
N819 H822 0.984 . S
N819 H823 0.985 . S
H820 N815 0.984 . S
H821 N815 0.985 . S
H822 N819 0.984 . S
H823 N819 0.985 . S
H824 N818 0.984 . S
H825 N818 0.984 . S
H826 N814 0.984 . S
H827 N814 0.985 . S
C397 C1 1.602 . S
C399 C328 1.546 . S
C415 C40 1.505 . S
C417 C350 1.473 . S
C435 C369 1.209 . S
C433 C99 1.516 . S
C451 C118 1.834 . S
C453 C390 1.441 . S
C471 C347 1.750 . S
C469 C16 1.785 . S
C489 C325 1.676 . S
C487 C60 1.700 . S
C507 C392 1.369 . S
C505 C79 1.431 . S
C525 C371 1.520 . S
C523 C138 1.521 . S
C541 C21 1.711 . S
C543 C389 1.678 . S
C561 C348 1.294 . S
C559 C94 1.642 . S
C577 C133 1.680 . S
C579 C330 1.591 . S
C595 C55 1.552 . S
C597 C368 1.566 . S
C615 C326 1.547 . S
C613 C157 1.629 . S
C631 C196 1.368 . S
C633 C346 1.345 . S
C649 C255 1.537 . S
C651 C372 1.259 . S
C667 C289 1.767 . S
C669 C393 1.363 . S
C685 C172 1.716 . S
C687 C349 1.706 . S
C705 C329 1.710 . S
C703 C216 1.778 . S
C723 C388 1.275 . S
C721 C235 1.329 . S
C741 C367 1.556 . S
C739 C294 1.577 . S
C757 C177 1.552 . S
C759 C391 1.544 . S
C777 C351 1.260 . S
C775 C250 1.557 . S
C795 C327 1.449 . S
C793 C274 1.535 . S
C811 C211 1.482 . S
C813 C370 1.497 . S
