# Generated by pormake.
# Topology tsx, (6,3)-cn, num edge types: 1
# Building blocks:
#     Node 0, Type 0, BuildingBlock: JUFBIX_clean_sbu_0, # of connection points: 6
#     Node 1, Type 0, BuildingBlock: JUFBIX_clean_sbu_0, # of connection points: 6
#     Node 2, Type 1, BuildingBlock: INOVEN_clean_linker_0, # of connection points: 3
#     Node 3, Type 1, BuildingBlock: INOVEN_clean_linker_0, # of connection points: 3
#     Node 4, Type 1, BuildingBlock: INOVEN_clean_linker_0, # of connection points: 3
#     Node 5, Type 1, BuildingBlock: INOVEN_clean_linker_0, # of connection points: 3
#     Edge 6, Type (0, 1), BuildingBlock: FUNLAD_clean_linker_0, # of connection points: 2
#     Edge 7, Type (0, 1), BuildingBlock: FUNLAD_clean_linker_0, # of connection points: 2
#     Edge 8, Type (0, 1), BuildingBlock: FUNLAD_clean_linker_0, # of connection points: 2
#     Edge 9, Type (0, 1), BuildingBlock: FUNLAD_clean_linker_0, # of connection points: 2
#     Edge 10, Type (0, 1), BuildingBlock: FUNLAD_clean_linker_0, # of connection points: 2
#     Edge 11, Type (0, 1), BuildingBlock: FUNLAD_clean_linker_0, # of connection points: 2
#     Edge 12, Type (0, 1), BuildingBlock: FUNLAD_clean_linker_0, # of connection points: 2
#     Edge 13, Type (0, 1), BuildingBlock: FUNLAD_clean_linker_0, # of connection points: 2
#     Edge 14, Type (0, 1), BuildingBlock: FUNLAD_clean_linker_0, # of connection points: 2
#     Edge 15, Type (0, 1), BuildingBlock: FUNLAD_clean_linker_0, # of connection points: 2
#     Edge 16, Type (0, 1), BuildingBlock: FUNLAD_clean_linker_0, # of connection points: 2
#     Edge 17, Type (0, 1), BuildingBlock: FUNLAD_clean_linker_0, # of connection points: 2
# Relax obj value: 0.097
# Max RMSD: 0.120
# Mean RMSD: 0.109
data_MOF--net-tsx--node1-JUFBIX_clean_sbu_0--node2-INOVEN_clean_linker_0--edge1-FUNLAD_clean_linker_0
_symmetry_space_group_name_H-M    P1
_symmetry_Int_Tables_number       1
_symmetry_cell_setting            triclinic
loop_
_symmetry_equiv_pos_as_xyz
'x, y, z'
_cell_length_a     23.313035
_cell_length_b     27.655853
_cell_length_c     38.128319
_cell_angle_alpha  91.922338
_cell_angle_beta   98.033628
_cell_angle_gamma 98.158528
loop_
_atom_site_label
_atom_site_type_symbol
_atom_site_fract_x
_atom_site_fract_y
_atom_site_fract_z
_atom_type_partial_charge
Co0 Co 0.05823 0.98967 -0.00451 0.0
C1 C 0.99369 0.01458 0.93275 0.0
Co2 Co 0.99021 0.03586 0.00264 0.0
C3 C 0.13178 0.9119 -0.00099 0.0
C4 C 0.15637 0.96822 0.96445 0.0
N5 N 0.11709 0.9543 0.98637 0.0
N6 N 0.17918 0.89946 0.98611 0.0
C7 C 0.19457 0.93485 0.96436 0.0
H8 H 0.10866 0.89092 0.01755 0.0
H9 H 0.15709 1.00063 0.94931 0.0
C10 C 0.05505 0.01137 0.06545 0.0
N11 N 0.93225 0.07197 0.01183 0.0
C12 C 0.91987 0.11457 -0.00145 0.0
C13 C 0.8951 0.0619 0.03559 0.0
N14 N 0.87653 0.13166 0.01321 0.0
C15 C 0.86088 0.09837 0.0365 0.0
C16 C 0.95212 0.9345 0.00031 0.0
O17 O 0.08134 0.98786 0.04504 0.0
O18 O 0.01469 0.03453 0.05206 0.0
O19 O 0.93742 0.9768 0.00375 0.0
O20 O 1.00456 0.93092 -0.00395 0.0
O21 O 0.96642 0.03703 0.95318 0.0
H22 H 0.89391 0.03056 0.05185 0.0
H23 H 0.94259 0.13269 0.97864 0.0
O24 O 0.03455 0.99188 0.94609 0.0
O25 O 0.11117 0.04886 -0.00496 0.0
O26 O 0.04343 0.09444 0.00126 0.0
C27 C 0.09597 0.09102 -0.00259 0.0
H28 H 0.23025 0.93596 0.94889 0.0
H29 H 0.82828 0.10076 0.05382 0.0
Co30 Co 0.54936 0.46565 0.49343 0.0
C31 C 0.4815 0.49111 0.43144 0.0
Co32 Co 0.48744 0.51748 0.50121 0.0
C33 C 0.63061 0.39293 0.50083 0.0
C34 C 0.63346 0.43425 0.4544 0.0
N35 N 0.6047 0.42724 0.48262 0.0
N36 N 0.6746 0.3791 0.48504 0.0
C37 C 0.67632 0.40496 0.45589 0.0
H38 H 0.61976 0.38046 0.52604 0.0
H39 H 0.62567 0.46082 0.43477 0.0
C40 C 0.55567 0.49326 0.56323 0.0
N41 N 0.43312 0.55631 0.51219 0.0
C42 C 0.41723 0.59698 0.49736 0.0
C43 C 0.40046 0.54853 0.53855 0.0
N44 N 0.37598 0.6149 0.51357 0.0
C45 C 0.36541 0.58427 0.53945 0.0
C46 C 0.44329 0.41737 0.50302 0.0
O47 O 0.57754 0.46597 0.54282 0.0
O48 O 0.51678 0.51795 0.55008 0.0
O49 O 0.4331 0.46119 0.50533 0.0
O50 O 0.49381 0.40929 0.49754 0.0
O51 O 0.45894 0.51723 0.45224 0.0
H52 H 0.40187 0.51851 0.55597 0.0
H53 H 0.43602 0.61326 0.47535 0.0
O54 O 0.52017 0.46595 0.44432 0.0
O55 O 0.60436 0.52268 0.48932 0.0
O56 O 0.542 0.57317 0.49677 0.0
C57 C 0.59262 0.56615 0.49107 0.0
H58 H 0.70776 0.40384 0.43759 0.0
H59 H 0.3337 0.58678 0.55737 0.0
H60 H 0.06067 0.97527 0.48754 0.0
H61 H 0.13205 0.94488 0.39246 0.0
H62 H 0.02674 0.05978 0.39622 0.0
N63 N 1.00625 0.04852 0.46316 0.0
N64 N 0.9997 0.09101 0.45529 0.0
C65 C 0.06621 0.98314 0.4605 0.0
C66 C 0.09894 0.95512 0.44176 0.0
C67 C 0.04069 0.02137 0.44434 0.0
C68 C 0.04795 0.03136 0.40915 0.0
C69 C 0.07996 0.00331 0.39005 0.0
C70 C 0.10581 0.96574 0.40674 0.0
H71 H 0.96746 0.97459 0.50662 0.0
H72 H 0.88519 0.91849 0.59383 0.0
H73 H 0.01523 0.04667 0.61068 0.0
N74 N 0.03865 0.04835 0.54343 0.0
N75 N 0.06665 0.0841 0.5622 0.0
C76 C 0.9619 0.97753 0.53427 0.0
C77 C 0.92276 0.94223 0.54777 0.0
C78 C 0.99542 0.01545 0.55679 0.0
C79 C 0.98827 0.01841 0.59286 0.0
C80 C 0.94888 0.98339 0.60651 0.0
C81 C 0.91596 0.94572 0.58365 0.0
H82 H 0.58607 0.50879 0.99174 0.0
H83 H 0.64876 0.4653 0.89625 0.0
H84 H 0.52294 0.56519 0.89223 0.0
N85 N 0.51607 0.56859 0.96186 0.0
N86 N 0.47129 0.58213 0.94566 0.0
C87 C 0.58618 0.51065 0.96341 0.0
C88 C 0.62133 0.48306 0.9462 0.0
C89 C 0.55066 0.54034 0.94404 0.0
C90 C 0.55069 0.54256 0.90724 0.0
C91 C 0.58629 0.51589 0.88977 0.0
C92 C 0.62147 0.48633 0.90953 0.0
H93 H 0.47548 0.50244 0.00573 0.0
H94 H 0.38737 0.43965 0.08879 0.0
H95 H 0.53208 0.55559 0.11448 0.0
N96 N 0.55074 0.57014 0.04714 0.0
N97 N 0.57766 0.60409 0.06814 0.0
C98 C 0.47107 0.50129 0.03357 0.0
C99 C 0.42704 0.4676 0.04455 0.0
C100 C 0.50833 0.53418 0.05859 0.0
C101 C 0.50241 0.53155 0.09484 0.0
C102 C 0.45948 0.49706 0.10602 0.0
C103 C 0.42144 0.46589 0.08057 0.0
C104 C 0.12222 0.18208 -0.0048 0.0
C105 C 0.13908 0.13526 -0.00483 0.0
C106 C 0.16336 0.2237 -0.00668 0.0
C107 C 0.22232 0.2193 0.99129 0.0
C108 C 0.2389 0.17246 0.99115 0.0
C109 C 0.19781 0.13093 -0.00715 0.0
C110 C 0.2687 0.26253 0.99245 0.0
C111 C 0.25833 0.30751 0.98329 0.0
C112 C 0.30353 0.35164 0.99132 0.0
C113 C 0.28545 0.39617 0.00027 0.0
C114 C 0.32658 0.43609 0.01463 0.0
C115 C 0.38655 0.43246 0.01953 0.0
H116 H 0.37954 0.31634 0.98542 0.0
C117 C 0.40517 0.38973 0.00738 0.0
C118 C 0.36396 0.34952 -0.00671 0.0
H119 H 0.4513 0.38618 0.01118 0.0
H120 H 0.07733 0.18668 -0.00297 0.0
H121 H 0.14895 0.25911 -0.00537 0.0
H122 H 0.28403 0.16796 0.99 0.0
H123 H 0.21235 0.09543 -0.00726 0.0
H124 H 0.31295 0.25709 0.00291 0.0
H125 H 0.21414 0.31327 0.97302 0.0
H126 H 0.23928 0.39901 -0.00137 0.0
H127 H 0.31141 0.46868 0.02419 0.0
C128 C 0.26791 0.85987 -0.00731 0.0
C129 C 0.2072 0.85675 0.9924 0.0
C130 C 0.29476 0.81784 -0.00599 0.0
C131 C 0.26139 0.77147 -0.00494 0.0
C132 C 0.20092 0.76852 -0.00395 0.0
C133 C 0.1741 0.81083 -0.0049 0.0
C134 C 0.28725 0.72578 0.99077 0.0
C135 C 0.34487 0.72347 -0.00054 0.0
C136 C 0.37348 0.68195 0.98812 0.0
C137 C 0.42865 0.67583 0.00613 0.0
C138 C 0.46044 0.64154 -0.00675 0.0
C139 C 0.43772 0.61303 0.96187 0.0
H140 H 0.30887 0.65671 0.94192 0.0
C141 C 0.38231 0.6183 0.94431 0.0
C142 C 0.35028 0.65224 0.95725 0.0
H143 H 0.36459 0.59703 0.91984 0.0
H144 H 0.29447 0.89487 0.99085 0.0
H145 H 0.3411 0.82184 0.99229 0.0
H146 H 0.17406 0.73326 -0.00349 0.0
H147 H 0.12715 0.8074 -0.00539 0.0
H148 H 0.25792 0.6936 0.97884 0.0
H149 H 0.37307 0.75401 0.01454 0.0
H150 H 0.44801 0.69868 0.02963 0.0
H151 H 0.50372 0.63903 0.00687 0.0
C152 C 0.85145 0.89527 0.00807 0.0
C153 C 0.90849 0.89031 0.00198 0.0
C154 C 0.8105 0.8541 0.01102 0.0
C155 C 0.82561 0.80678 0.00816 0.0
C156 C 0.88194 0.80167 0.00086 0.0
C157 C 0.92314 0.843 -0.00197 0.0
C158 C 0.78348 0.76247 0.01291 0.0
C159 C 0.74346 0.76321 0.03518 0.0
C160 C 0.70226 0.71982 0.04256 0.0
C161 C 0.68076 0.71997 0.07514 0.0
C162 C 0.64046 0.68119 0.08315 0.0
C163 C 0.6198 0.64173 0.05863 0.0
H164 H 0.6967 0.67899 0.99217 0.0
C165 C 0.64084 0.64109 0.0258 0.0
C166 C 0.682 0.67988 0.01784 0.0
H167 H 0.62551 0.61095 0.00638 0.0
H168 H 0.83834 0.93109 0.01084 0.0
H169 H 0.76692 0.85955 0.0154 0.0
H170 H 0.89455 0.76566 -0.00184 0.0
H171 H 0.96657 0.83787 -0.00693 0.0
H172 H 0.78838 0.72811 -0.00016 0.0
H173 H 0.74304 0.79678 0.05073 0.0
H174 H 0.69528 0.75027 0.0946 0.0
H175 H 0.62458 0.68218 0.1085 0.0
C176 C 0.79741 0.18245 0.01485 0.0
C177 C 0.85316 0.17673 0.00663 0.0
C178 C 0.77491 0.22619 0.00898 0.0
C179 C 0.80771 0.26545 -0.00527 0.0
C180 C 0.86304 0.2596 0.98613 0.0
C181 C 0.8857 0.21594 0.99218 0.0
C182 C 0.78427 0.31169 0.98638 0.0
C183 C 0.74287 0.32861 0.00288 0.0
C184 C 0.7157 0.37241 0.99195 0.0
C185 C 0.65938 0.37638 -0.0001 0.0
C186 C 0.62973 0.4141 0.98678 0.0
C187 C 0.65602 0.44866 0.96551 0.0
H188 H 0.78788 0.40912 0.96757 0.0
C189 C 0.71383 0.44674 0.95965 0.0
C190 C 0.74354 0.40926 0.97288 0.0
H191 H 0.73558 0.47362 0.94398 0.0
H192 H 0.77045 0.1528 0.02525 0.0
H193 H 0.7312 0.22841 0.01474 0.0
H194 H 0.88905 0.28907 0.97481 0.0
H195 H 0.92897 0.21327 0.98584 0.0
H196 H 0.80161 0.33182 0.9653 0.0
H197 H 0.72574 0.30832 0.02398 0.0
H198 H 0.63718 0.34898 0.01499 0.0
H199 H 0.58516 0.41469 0.9917 0.0
C200 C 0.62515 0.65607 0.48867 0.0
C201 C 0.63763 0.60792 0.48661 0.0
C202 C 0.66856 0.69564 0.48616 0.0
C203 C 0.72541 0.68784 0.4813 0.0
C204 C 0.73731 0.63964 0.47836 0.0
C205 C 0.6939 0.60009 0.48083 0.0
C206 C 0.7749 0.72862 0.48382 0.0
C207 C 0.76812 0.7758 0.47994 0.0
C208 C 0.81538 0.81707 0.49264 0.0
C209 C 0.81074 0.86401 0.48046 0.0
C210 C 0.84858 0.905 0.49668 0.0
C211 C 0.89091 0.89949 0.52564 0.0
H212 H 0.86484 0.77668 0.53133 0.0
C213 C 0.8977 0.85251 0.53657 0.0
C214 C 0.86041 0.81172 0.52033 0.0
H215 H 0.9301 0.84763 0.55898 0.0
H216 H 0.58218 0.66332 0.49309 0.0
H217 H 0.65781 0.7321 0.48962 0.0
H218 H 0.78081 0.63255 0.47499 0.0
H219 H 0.70488 0.56341 0.47895 0.0
H220 H 0.81858 0.71933 0.49106 0.0
H221 H 0.72562 0.785 0.46922 0.0
H222 H 0.77617 0.86922 0.45942 0.0
H223 H 0.84249 0.9411 0.48807 0.0
C224 C 0.69938 0.29964 0.50543 0.0
C225 C 0.71686 0.3484 0.49793 0.0
C226 C 0.74108 0.26771 0.51166 0.0
C227 C 0.80093 0.28452 0.51084 0.0
C228 C 0.81817 0.33425 0.50589 0.0
C229 C 0.77665 0.36565 0.49915 0.0
C230 C 0.84675 0.25186 0.51215 0.0
C231 C 0.83598 0.20323 0.5042 0.0
C232 C 0.88272 0.17509 0.4957 0.0
C233 C 0.87809 0.12479 0.50137 0.0
C234 C 0.91817 0.09678 0.48971 0.0
C235 C 0.96284 0.11868 0.47157 0.0
H236 H 0.93262 0.23501 0.47231 0.0
C237 C 0.96796 0.1688 0.46641 0.0
C238 C 0.92861 0.19683 0.47837 0.0
H239 H 1.00165 0.18598 0.45206 0.0
H240 H 0.65335 0.28576 0.50458 0.0
H241 H 0.72603 0.22996 0.51625 0.0
H242 H 0.86381 0.34849 0.50538 0.0
H243 H 0.79099 0.40327 0.49367 0.0
H244 H 0.89197 0.26975 0.51611 0.0
H245 H 0.79162 0.18381 0.50116 0.0
H246 H 0.84271 0.10697 0.51415 0.0
H247 H 0.9127 0.05788 0.49352 0.0
C248 C 0.40506 0.32793 0.50645 0.0
C249 C 0.39621 0.37716 0.50746 0.0
C250 C 0.36021 0.29088 0.51223 0.0
C251 C 0.30577 0.30262 0.51904 0.0
C252 C 0.29707 0.35172 0.51958 0.0
C253 C 0.34149 0.38846 0.51375 0.0
C254 C 0.25805 0.26584 0.52809 0.0
C255 C 0.25205 0.21749 0.51993 0.0
C256 C 0.20379 0.18281 0.53078 0.0
C257 C 0.18106 0.13986 0.50975 0.0
C258 C 0.13527 0.10706 0.51951 0.0
C259 C 0.11183 0.11674 0.55061 0.0
H260 H 0.19878 0.22323 0.57996 0.0
C261 C 0.13534 0.15888 0.57194 0.0
C262 C 0.18095 0.19158 0.5623 0.0
H263 H 0.11846 0.16624 0.59633 0.0
H264 H 0.44683 0.31812 0.50181 0.0
H265 H 0.36903 0.25352 0.51238 0.0
H266 H 0.25577 0.36188 0.52491 0.0
H267 H 0.33294 0.42594 0.5147 0.0
H268 H 0.22494 0.2799 0.54129 0.0
H269 H 0.28122 0.20313 0.50373 0.0
H270 H 0.19848 0.13185 0.48566 0.0
H271 H 0.11898 0.07402 0.50312 0.0
C272 C 0.32125 0.68039 0.53031 0.0
C273 C 0.34727 0.65675 0.50476 0.0
C274 C 0.28992 0.71878 0.52139 0.0
C275 C 0.28432 0.7349 0.48663 0.0
C276 C 0.31138 0.71193 0.4613 0.0
C277 C 0.34258 0.67341 0.47023 0.0
C278 C 0.24828 0.77343 0.47504 0.0
C279 C 0.22811 0.80401 0.49717 0.0
C280 C 0.19092 0.84094 0.48401 0.0
C281 C 0.19275 0.8845 0.50451 0.0
C282 C 0.16088 0.92109 0.4916 0.0
C283 C 0.12642 0.9145 0.45803 0.0
H284 H 0.1486 0.79934 0.43561 0.0
C285 C 0.12186 0.86975 0.43855 0.0
C286 C 0.15348 0.83331 0.45141 0.0
H287 H 0.09441 0.86324 0.41296 0.0
H288 H 0.32462 0.66902 0.5573 0.0
H289 H 0.26917 0.73456 0.54172 0.0
H290 H 0.30761 0.72331 0.43426 0.0
H291 H 0.36147 0.65582 0.44977 0.0
H292 H 0.23893 0.77722 0.44663 0.0
H293 H 0.24118 0.80402 0.5256 0.0
H294 H 0.22042 0.89092 0.53001 0.0
H295 H 0.16508 0.95523 0.50718 0.0
C296 C 0.04087 0.03852 0.12628 0.0
C297 C 0.06966 0.01121 0.1044 0.0
C298 C 0.0519 0.03685 0.16307 0.0
C299 C 0.09239 0.00801 0.17892 0.0
C300 C 0.12159 0.98106 0.15708 0.0
C301 C 0.1106 0.9828 0.12016 0.0
C302 C 0.10128 1.00212 0.21777 0.0
C303 C 0.08962 0.03513 0.2416 0.0
C304 C 0.09055 0.02622 0.27982 0.0
C305 C 0.09681 0.06632 0.30435 0.0
C306 C 0.09404 0.05911 0.34023 0.0
C307 C 0.08447 0.01155 0.35222 0.0
H308 H 0.07347 0.94674 0.27369 0.0
C309 C 0.07801 0.97145 0.32763 0.0
C310 C 0.08086 0.97863 0.29186 0.0
H311 H 0.06914 0.93435 0.33587 0.0
H312 H 1.00879 0.06058 0.115 0.0
H313 H 0.02694 0.05688 0.17875 0.0
H314 H 0.1525 0.95812 0.16859 0.0
H315 H 0.13335 0.96122 0.104 0.0
H316 H 0.11781 0.96922 0.22685 0.0
H317 H 0.07888 0.07021 0.233 0.0
H318 H 0.10365 0.10336 0.29571 0.0
H319 H 0.09953 0.09074 0.35858 0.0
C320 C 0.01113 0.99079 0.872 0.0
C321 C 0.97949 0.01531 0.89383 0.0
C322 C 0.99924 0.99182 0.83526 0.0
C323 C 0.9549 0.01699 0.81935 0.0
C324 C 0.92378 0.04215 0.8411 0.0
C325 C 0.93571 0.04113 0.87806 0.0
C326 C 0.94241 0.01903 0.78024 0.0
C327 C 0.95095 0.98247 0.75824 0.0
C328 C 0.94522 0.9841 0.71908 0.0
C329 C 0.94349 0.94016 0.69922 0.0
C330 C 0.94354 0.93995 0.66269 0.0
C331 C 0.94534 0.98381 0.64506 0.0
H332 H 0.94892 0.06292 0.71575 0.0
C333 C 0.94613 0.02784 0.66474 0.0
C334 C 0.94622 0.02808 0.70143 0.0
H335 H 0.94728 0.06219 0.65182 0.0
H336 H 0.04569 0.9711 0.88327 0.0
H337 H 0.02585 0.97364 0.8195 0.0
H338 H 0.88998 0.06237 0.82948 0.0
H339 H 0.91092 0.06072 0.89422 0.0
H340 H 0.92498 0.05079 0.76971 0.0
H341 H 0.96291 0.94905 0.76946 0.0
H342 H 0.94334 0.90582 0.71212 0.0
H343 H 0.944 0.90549 0.64845 0.0
C344 C 0.56263 0.53642 0.62223 0.0
C345 C 0.57329 0.49615 0.60203 0.0
C346 C 0.57391 0.53817 0.65914 0.0
C347 C 0.59511 0.49902 0.67695 0.0
C348 C 0.60813 0.45966 0.6566 0.0
C349 C 0.59754 0.45828 0.61946 0.0
C350 C 0.60285 0.49715 0.71638 0.0
C351 C 0.58125 0.52748 0.73795 0.0
C352 C 0.58572 0.52366 0.77693 0.0
C353 C 0.58395 0.56575 0.79814 0.0
C354 C 0.58477 0.56336 0.83472 0.0
C355 C 0.58652 0.51858 0.8509 0.0
H356 H 0.58712 0.44528 0.77745 0.0
C357 C 0.58809 0.47634 0.82963 0.0
C358 C 0.58773 0.47881 0.79305 0.0
H359 H 0.5882 0.44106 0.84111 0.0
H360 H 0.54495 0.56665 0.60946 0.0
H361 H 0.56535 0.57033 0.67314 0.0
H362 H 0.62515 0.42923 0.66945 0.0
H363 H 0.60635 0.42683 0.60451 0.0
H364 H 0.62593 0.46869 0.72789 0.0
H365 H 0.55895 0.55667 0.72723 0.0
H366 H 0.58199 0.6007 0.78634 0.0
H367 H 0.58432 0.59671 0.85033 0.0
C368 C 0.49361 0.46398 0.37026 0.0
C369 C 0.46678 0.49238 0.39254 0.0
C370 C 0.48472 0.4681 0.33366 0.0
C371 C 0.4481 0.50038 0.31829 0.0
C372 C 0.42059 0.52831 0.34049 0.0
C373 C 0.42959 0.52423 0.37728 0.0
C374 C 0.44119 0.50797 0.2796 0.0
C375 C 0.44937 0.47382 0.2555 0.0
C376 C 0.44885 0.48158 0.2171 0.0
C377 C 0.44353 0.44033 0.19379 0.0
C378 C 0.44662 0.44549 0.15784 0.0
C379 C 0.45531 0.49215 0.14426 0.0
H380 H 0.46349 0.56125 0.22073 0.0
C381 C 0.46061 0.5336 0.16749 0.0
C382 C 0.45755 0.52844 0.20359 0.0
H383 H 0.46712 0.57003 0.15777 0.0
H384 H 0.52299 0.43943 0.38114 0.0
H385 H 0.50851 0.44716 0.31781 0.0
H386 H 0.39264 0.5538 0.32939 0.0
H387 H 0.40862 0.54688 0.39378 0.0
H388 H 0.42857 0.54246 0.27101 0.0
H389 H 0.45635 0.43779 0.26406 0.0
H390 H 0.43759 0.40383 0.20349 0.0
H391 H 0.4434 0.4128 0.14077 0.0
loop_
_geom_bond_atom_site_label_1
_geom_bond_atom_site_label_2
_geom_bond_distance
_geom_bond_site_symmetry_2
_ccdc_geom_bond_type
Co0 N5 2.057 . S
Co0 O17 2.021 . S
Co0 O20 2.062 1_455 S
Co0 O24 2.117 1_554 S
Co0 O25 2.020 1_565 S
C1 O21 1.259 1_455 S
C1 O24 1.258 1_545 S
Co2 N11 2.057 . S
Co2 O18 2.117 . S
Co2 O19 2.017 1_545 S
Co2 O21 2.021 1_554 S
Co2 O26 2.062 1_655 S
C3 N5 1.316 . S
C3 N6 1.347 . S
C3 H8 0.931 . S
C4 N5 1.375 1_556 S
C4 C7 1.350 . S
C4 H9 0.930 . S
N5 Co0 2.057 . S
N5 C3 1.316 . S
N5 C4 1.375 1_554 S
N6 C3 1.347 . S
N6 C7 1.373 1_554 S
C7 C4 1.350 . S
C7 N6 1.373 1_556 S
C7 H28 0.931 . S
H8 C3 0.931 . S
H9 C4 0.930 . S
C10 O17 1.251 1_545 S
C10 O18 1.267 1_455 S
N11 Co2 2.057 . S
N11 C12 1.316 1_554 S
N11 C13 1.375 . S
C12 N11 1.316 1_556 S
C12 N14 1.347 1_556 S
C12 H23 0.931 . S
C13 N11 1.375 . S
C13 C15 1.350 . S
C13 H22 0.930 . S
N14 C12 1.347 1_554 S
N14 C15 1.373 . S
C15 C13 1.350 . S
C15 N14 1.373 . S
C15 H29 0.931 . S
C16 O19 1.258 . S
C16 O20 1.255 . S
O17 Co0 2.021 . S
O17 C10 1.251 1_565 S
O18 Co2 2.117 . S
O18 C10 1.267 1_655 S
O19 Co2 2.017 1_565 S
O19 C16 1.258 . S
O20 Co0 2.062 1_655 S
O20 C16 1.255 . S
O21 C1 1.259 1_655 S
O21 Co2 2.021 1_556 S
H22 C13 0.930 . S
H23 C12 0.931 . S
O24 Co0 2.117 1_556 S
O24 C1 1.258 1_565 S
O25 Co0 2.020 1_545 S
O25 C27 1.256 . S
O26 Co2 2.062 1_455 S
O26 C27 1.255 . S
C27 O25 1.256 . S
C27 O26 1.255 . S
H28 C7 0.931 . S
H29 C15 0.931 . S
Co30 N35 2.057 . S
Co30 O47 2.021 . S
Co30 O50 2.062 . S
Co30 O54 2.117 . S
Co30 O55 2.020 . S
C31 O51 1.259 . S
C31 O54 1.258 . S
Co32 N41 2.057 . S
Co32 O48 2.117 . S
Co32 O49 2.020 . S
Co32 O51 2.021 . S
Co32 O56 2.062 . S
C33 N35 1.316 . S
C33 N36 1.347 . S
C33 H38 0.931 . S
C34 N35 1.375 . S
C34 C37 1.350 . S
C34 H39 0.930 . S
N35 Co30 2.057 . S
N35 C33 1.316 . S
N35 C34 1.375 . S
N36 C33 1.347 . S
N36 C37 1.373 . S
C37 C34 1.350 . S
C37 N36 1.373 . S
C37 H58 0.931 . S
H38 C33 0.931 . S
H39 C34 0.930 . S
C40 O47 1.259 . S
C40 O48 1.258 . S
N41 Co32 2.057 . S
N41 C42 1.316 . S
N41 C43 1.375 . S
C42 N41 1.316 . S
C42 N44 1.347 . S
C42 H53 0.931 . S
C43 N41 1.375 . S
C43 C45 1.350 . S
C43 H52 0.930 . S
N44 C42 1.347 . S
N44 C45 1.373 . S
C45 C43 1.350 . S
C45 N44 1.373 . S
C45 H59 0.931 . S
C46 O49 1.256 . S
C46 O50 1.255 . S
O47 Co30 2.021 . S
O47 C40 1.259 . S
O48 Co32 2.117 . S
O48 C40 1.258 . S
O49 Co32 2.020 . S
O49 C46 1.256 . S
O50 Co30 2.062 . S
O50 C46 1.255 . S
O51 C31 1.259 . S
O51 Co32 2.021 . S
H52 C43 0.930 . S
H53 C42 0.931 . S
O54 Co30 2.117 . S
O54 C31 1.258 . S
O55 Co30 2.020 . S
O55 C57 1.256 . S
O56 Co32 2.062 . S
O56 C57 1.255 . S
C57 O55 1.256 . S
C57 O56 1.255 . S
H58 C37 0.931 . S
H59 C45 0.931 . S
H60 C65 0.929 . S
H61 C70 0.931 . S
H62 C68 0.930 1_655 S
N63 N64 1.234 . S
N63 C67 1.453 1_655 S
N64 N63 1.234 . S
C65 H60 0.929 . S
C65 C66 1.373 . S
C65 C67 1.368 1_565 S
C66 C65 1.373 . S
C66 C70 1.397 . S
C67 N63 1.453 1_455 S
C67 C65 1.368 1_545 S
C67 C68 1.373 . S
C68 H62 0.930 1_455 S
C68 C67 1.373 . S
C68 C69 1.371 1_545 S
C69 C68 1.371 1_565 S
C69 C70 1.383 . S
C70 H61 0.931 . S
C70 C66 1.397 . S
C70 C69 1.383 . S
H71 C76 0.929 . S
H72 C81 0.931 . S
H73 C79 0.930 . S
N74 N75 1.234 . S
N74 C78 1.453 . S
N75 N74 1.234 . S
C76 H71 0.929 . S
C76 C77 1.373 . S
C76 C78 1.368 1_665 S
C77 C76 1.373 . S
C77 C81 1.397 . S
C78 N74 1.453 . S
C78 C76 1.368 1_445 S
C78 C79 1.373 . S
C79 H73 0.930 . S
C79 C78 1.373 . S
C79 C80 1.371 1_455 S
C80 C79 1.371 1_655 S
C80 C81 1.383 1_545 S
C81 H72 0.931 . S
C81 C77 1.397 . S
C81 C80 1.383 1_565 S
H82 C87 0.956 . S
H83 C92 0.931 . S
H84 C90 0.930 . S
N85 N86 1.234 . S
N85 C89 1.453 . S
N86 N85 1.234 . S
C87 H82 0.956 . S
C87 C88 1.373 . S
C87 C89 1.368 . S
C88 C87 1.373 . S
C88 C92 1.397 . S
C89 N85 1.453 . S
C89 C87 1.368 . S
C89 C90 1.373 . S
C90 H84 0.930 . S
C90 C89 1.373 . S
C90 C91 1.371 . S
C91 C90 1.371 . S
C91 C92 1.383 . S
C92 H83 0.931 . S
C92 C88 1.397 . S
C92 C91 1.383 . S
H93 C98 0.929 . S
H94 C103 0.931 . S
H95 C101 0.930 . S
N96 N97 1.234 . S
N96 C100 1.453 . S
N97 N96 1.234 . S
C98 H93 0.929 . S
C98 C99 1.373 . S
C98 C100 1.368 . S
C99 C98 1.373 . S
C99 C103 1.397 . S
C100 N96 1.453 . S
C100 C98 1.368 . S
C100 C101 1.373 . S
C101 H95 0.930 . S
C101 C100 1.373 . S
C101 C102 1.371 . S
C102 C101 1.371 . S
C102 C103 1.383 . S
C103 H94 0.931 . S
C103 C99 1.397 . S
C103 C102 1.383 . S
C104 C105 1.386 . S
C104 C106 1.383 . S
C104 H120 0.951 . S
C105 C104 1.386 . S
C105 C109 1.372 1_554 S
C106 C104 1.383 . S
C106 C107 1.402 . S
C106 H121 0.951 . S
C107 C106 1.402 . S
C107 C108 1.375 . S
C107 C110 1.481 . S
C108 C107 1.375 . S
C108 C109 1.367 1_554 S
C108 H122 0.951 1_554 S
C109 C105 1.372 1_556 S
C109 C108 1.367 1_556 S
C109 H123 0.961 . S
C110 C107 1.481 . S
C110 C111 1.297 . S
C110 H124 0.950 . S
C111 C110 1.297 . S
C111 C112 1.479 . S
C111 H125 0.950 . S
C112 C111 1.479 . S
C112 C113 1.375 . S
C112 C118 1.404 . S
C113 C112 1.375 . S
C113 C114 1.369 . S
C113 H126 0.950 . S
C114 C113 1.369 . S
C114 C115 1.392 . S
C114 H127 0.951 . S
C115 C114 1.392 . S
C115 C117 1.384 . S
H116 C118 0.949 . S
C117 C115 1.384 . S
C117 C118 1.385 . S
C117 H119 0.950 . S
C118 C112 1.404 . S
C118 H116 0.949 . S
C118 C117 1.385 . S
H119 C117 0.950 . S
H120 C104 0.951 . S
H121 C106 0.951 . S
H122 C108 0.951 1_556 S
H123 C109 0.961 . S
H124 C110 0.950 . S
H125 C111 0.950 . S
H126 C113 0.950 . S
H127 C114 0.951 . S
C128 C129 1.386 . S
C128 C130 1.383 . S
C128 H144 0.951 . S
C129 C128 1.386 . S
C129 C133 1.383 . S
C130 C128 1.383 . S
C130 C131 1.402 . S
C130 H145 0.951 . S
C131 C130 1.402 . S
C131 C132 1.375 . S
C131 C134 1.481 . S
C132 C131 1.375 . S
C132 C133 1.367 . S
C132 H146 0.951 . S
C133 C129 1.383 . S
C133 C132 1.367 . S
C133 H147 0.950 . S
C134 C131 1.481 . S
C134 C135 1.297 . S
C134 H148 0.950 . S
C135 C134 1.297 . S
C135 C136 1.479 . S
C135 H149 0.950 . S
C136 C135 1.479 . S
C136 C137 1.375 . S
C136 C142 1.404 . S
C137 C136 1.375 . S
C137 C138 1.369 1_554 S
C137 H150 0.950 . S
C138 C137 1.369 1_556 S
C138 C139 1.392 . S
C138 H151 0.951 . S
C139 C138 1.392 . S
C139 C141 1.384 . S
H140 C142 0.949 . S
C141 C139 1.384 . S
C141 C142 1.385 1_556 S
C141 H143 0.950 . S
C142 C136 1.404 . S
C142 H140 0.949 . S
C142 C141 1.385 1_554 S
H143 C141 0.950 . S
H144 C128 0.951 . S
H145 C130 0.951 . S
H146 C132 0.951 . S
H147 C133 0.950 . S
H148 C134 0.950 . S
H149 C135 0.950 . S
H150 C137 0.950 . S
H151 C138 0.951 . S
C152 C153 1.386 . S
C152 C154 1.383 . S
C152 H168 0.951 . S
C153 C152 1.386 . S
C153 C157 1.383 1_554 S
C154 C152 1.383 . S
C154 C155 1.402 1_554 S
C154 H169 0.951 . S
C155 C154 1.402 1_556 S
C155 C156 1.375 . S
C155 C158 1.481 . S
C156 C155 1.375 . S
C156 C157 1.367 . S
C156 H170 0.951 . S
C157 C153 1.383 1_556 S
C157 C156 1.367 . S
C157 H171 0.950 . S
C158 C155 1.481 . S
C158 C159 1.297 1_556 S
C158 H172 0.950 . S
C159 C158 1.297 1_554 S
C159 C160 1.479 . S
C159 H173 0.950 . S
C160 C159 1.479 . S
C160 C161 1.375 . S
C160 C166 1.404 1_554 S
C161 C160 1.375 . S
C161 C162 1.369 . S
C161 H174 0.950 . S
C162 C161 1.369 . S
C162 C163 1.392 . S
C162 H175 0.951 . S
C163 C162 1.392 . S
C163 C165 1.384 1_554 S
H164 C166 0.949 . S
C165 C163 1.384 1_556 S
C165 C166 1.385 . S
C165 H167 0.950 . S
C166 C160 1.404 1_556 S
C166 H164 0.949 . S
C166 C165 1.385 . S
H167 C165 0.950 . S
H168 C152 0.951 . S
H169 C154 0.951 . S
H170 C156 0.951 . S
H171 C157 0.950 . S
H172 C158 0.950 . S
H173 C159 0.950 . S
H174 C161 0.950 . S
H175 C162 0.951 . S
C176 C177 1.386 1_554 S
C176 C178 1.383 . S
C176 H192 0.951 . S
C177 C176 1.386 1_556 S
C177 C181 1.383 . S
C178 C176 1.383 . S
C178 C179 1.402 1_554 S
C178 H193 0.951 . S
C179 C178 1.402 1_556 S
C179 C180 1.375 . S
C179 C182 1.481 . S
C180 C179 1.375 . S
C180 C181 1.367 . S
C180 H194 0.951 . S
C181 C177 1.383 . S
C181 C180 1.367 . S
C181 H195 0.950 . S
C182 C179 1.481 . S
C182 C183 1.297 . S
C182 H196 0.950 . S
C183 C182 1.297 . S
C183 C184 1.479 . S
C183 H197 0.950 1_556 S
C184 C183 1.479 . S
C184 C185 1.375 1_556 S
C184 C190 1.404 . S
C185 C184 1.375 1_554 S
C185 C186 1.369 1_554 S
C185 H198 0.950 . S
C186 C185 1.369 1_556 S
C186 C187 1.392 . S
C186 H199 0.951 1_556 S
C187 C186 1.392 . S
C187 C189 1.384 . S
H188 C190 0.949 . S
C189 C187 1.384 . S
C189 C190 1.385 . S
C189 H191 0.950 . S
C190 C184 1.404 . S
C190 H188 0.949 . S
C190 C189 1.385 . S
H191 C189 0.950 . S
H192 C176 0.951 . S
H193 C178 0.951 . S
H194 C180 0.951 . S
H195 C181 0.950 . S
H196 C182 0.950 . S
H197 C183 0.950 1_554 S
H198 C185 0.950 . S
H199 C186 0.951 1_554 S
C200 C201 1.386 . S
C200 C202 1.383 . S
C200 H216 0.951 . S
C201 C200 1.386 . S
C201 C205 1.383 . S
C202 C200 1.383 . S
C202 C203 1.402 . S
C202 H217 0.951 . S
C203 C202 1.402 . S
C203 C204 1.375 . S
C203 C206 1.481 . S
C204 C203 1.375 . S
C204 C205 1.367 . S
C204 H218 0.951 . S
C205 C201 1.383 . S
C205 C204 1.367 . S
C205 H219 0.950 . S
C206 C203 1.481 . S
C206 C207 1.297 . S
C206 H220 0.950 . S
C207 C206 1.297 . S
C207 C208 1.479 . S
C207 H221 0.950 . S
C208 C207 1.479 . S
C208 C209 1.375 . S
C208 C214 1.404 . S
C209 C208 1.375 . S
C209 C210 1.369 . S
C209 H222 0.950 . S
C210 C209 1.369 . S
C210 C211 1.392 . S
C210 H223 0.951 . S
C211 C210 1.392 . S
C211 C213 1.384 . S
H212 C214 0.949 . S
C213 C211 1.384 . S
C213 C214 1.385 . S
C213 H215 0.950 . S
C214 C208 1.404 . S
C214 H212 0.949 . S
C214 C213 1.385 . S
H215 C213 0.950 . S
H216 C200 0.951 . S
H217 C202 0.951 . S
H218 C204 0.951 . S
H219 C205 0.950 . S
H220 C206 0.950 . S
H221 C207 0.950 . S
H222 C209 0.950 . S
H223 C210 0.951 . S
C224 C225 1.386 . S
C224 C226 1.383 . S
C224 H240 0.951 . S
C225 C224 1.386 . S
C225 C229 1.383 . S
C226 C224 1.383 . S
C226 C227 1.402 . S
C226 H241 0.951 . S
C227 C226 1.402 . S
C227 C228 1.375 . S
C227 C230 1.481 . S
C228 C227 1.375 . S
C228 C229 1.367 . S
C228 H242 0.951 . S
C229 C225 1.383 . S
C229 C228 1.367 . S
C229 H243 0.950 . S
C230 C227 1.481 . S
C230 C231 1.297 . S
C230 H244 0.950 . S
C231 C230 1.297 . S
C231 C232 1.479 . S
C231 H245 0.950 . S
C232 C231 1.479 . S
C232 C233 1.375 . S
C232 C238 1.404 . S
C233 C232 1.375 . S
C233 C234 1.369 . S
C233 H246 0.950 . S
C234 C233 1.369 . S
C234 C235 1.392 . S
C234 H247 0.951 . S
C235 C234 1.392 . S
C235 C237 1.384 . S
H236 C238 0.949 . S
C237 C235 1.384 . S
C237 C238 1.385 . S
C237 H239 0.950 . S
C238 C232 1.404 . S
C238 H236 0.949 . S
C238 C237 1.385 . S
H239 C237 0.950 . S
H240 C224 0.951 . S
H241 C226 0.951 . S
H242 C228 0.951 . S
H243 C229 0.950 . S
H244 C230 0.950 . S
H245 C231 0.950 . S
H246 C233 0.950 . S
H247 C234 0.951 . S
C248 C249 1.386 . S
C248 C250 1.383 . S
C248 H264 0.951 . S
C249 C248 1.386 . S
C249 C253 1.383 . S
C250 C248 1.383 . S
C250 C251 1.402 . S
C250 H265 0.951 . S
C251 C250 1.402 . S
C251 C252 1.375 . S
C251 C254 1.481 . S
C252 C251 1.375 . S
C252 C253 1.367 . S
C252 H266 0.951 . S
C253 C249 1.383 . S
C253 C252 1.367 . S
C253 H267 0.950 . S
C254 C251 1.481 . S
C254 C255 1.297 . S
C254 H268 0.950 . S
C255 C254 1.297 . S
C255 C256 1.479 . S
C255 H269 0.950 . S
C256 C255 1.479 . S
C256 C257 1.375 . S
C256 C262 1.404 . S
C257 C256 1.375 . S
C257 C258 1.369 . S
C257 H270 0.950 . S
C258 C257 1.369 . S
C258 C259 1.392 . S
C258 H271 0.951 . S
C259 C258 1.392 . S
C259 C261 1.384 . S
H260 C262 0.949 . S
C261 C259 1.384 . S
C261 C262 1.385 . S
C261 H263 0.950 . S
C262 C256 1.404 . S
C262 H260 0.949 . S
C262 C261 1.385 . S
H263 C261 0.950 . S
H264 C248 0.951 . S
H265 C250 0.951 . S
H266 C252 0.951 . S
H267 C253 0.950 . S
H268 C254 0.950 . S
H269 C255 0.950 . S
H270 C257 0.950 . S
H271 C258 0.951 . S
C272 C273 1.386 . S
C272 C274 1.383 . S
C272 H288 0.951 . S
C273 C272 1.386 . S
C273 C277 1.383 . S
C274 C272 1.383 . S
C274 C275 1.402 . S
C274 H289 0.951 . S
C275 C274 1.402 . S
C275 C276 1.375 . S
C275 C278 1.481 . S
C276 C275 1.375 . S
C276 C277 1.367 . S
C276 H290 0.951 . S
C277 C273 1.383 . S
C277 C276 1.367 . S
C277 H291 0.950 . S
C278 C275 1.481 . S
C278 C279 1.297 . S
C278 H292 0.950 . S
C279 C278 1.297 . S
C279 C280 1.479 . S
C279 H293 0.950 . S
C280 C279 1.479 . S
C280 C281 1.375 . S
C280 C286 1.404 . S
C281 C280 1.375 . S
C281 C282 1.369 . S
C281 H294 0.950 . S
C282 C281 1.369 . S
C282 C283 1.392 . S
C282 H295 0.951 . S
C283 C282 1.392 . S
C283 C285 1.384 . S
H284 C286 0.949 . S
C285 C283 1.384 . S
C285 C286 1.385 . S
C285 H287 0.950 . S
C286 C280 1.404 . S
C286 H284 0.949 . S
C286 C285 1.385 . S
H287 C285 0.950 . S
H288 C272 0.951 . S
H289 C274 0.951 . S
H290 C276 0.951 . S
H291 C277 0.950 . S
H292 C278 0.950 . S
H293 C279 0.950 . S
H294 C281 0.950 . S
H295 C282 0.951 . S
C296 C297 1.386 1_545 S
C296 C298 1.383 . S
C296 H312 0.951 . S
C297 C296 1.386 1_565 S
C297 C301 1.383 . S
C298 C296 1.383 . S
C298 C299 1.402 1_545 S
C298 H313 0.951 . S
C299 C298 1.402 1_565 S
C299 C300 1.375 . S
C299 C302 1.481 . S
C300 C299 1.375 . S
C300 C301 1.367 . S
C300 H314 0.949 1_455 S
C301 C297 1.383 . S
C301 C300 1.367 . S
C301 H315 0.950 . S
C302 C299 1.481 . S
C302 C303 1.297 1_565 S
C302 H316 0.950 . S
C303 C302 1.297 1_545 S
C303 C304 1.479 . S
C303 H317 0.950 . S
C304 C303 1.479 . S
C304 C305 1.375 . S
C304 C310 1.404 1_445 S
C305 C304 1.375 . S
C305 C306 1.369 . S
C305 H318 0.950 . S
C306 C305 1.369 . S
C306 C307 1.384 1_545 S
C306 H319 0.951 . S
C307 C306 1.384 1_565 S
C307 C309 1.392 . S
H308 C310 0.949 . S
C309 C307 1.392 . S
C309 C310 1.385 1_455 S
C309 H311 0.950 1_455 S
C310 C304 1.404 1_665 S
C310 H308 0.949 . S
C310 C309 1.385 1_655 S
H311 C309 0.950 1_655 S
H312 C296 0.951 . S
H313 C298 0.951 . S
H314 C300 0.949 1_655 S
H315 C301 0.950 . S
H316 C302 0.950 . S
H317 C303 0.950 . S
H318 C305 0.950 . S
H319 C306 0.951 . S
C320 C321 1.386 1_665 S
C320 C322 1.383 . S
C320 H336 0.951 . S
C321 C320 1.386 1_445 S
C321 C325 1.383 . S
C322 C320 1.383 . S
C322 C323 1.402 1_565 S
C322 H337 0.951 . S
C323 C322 1.402 1_545 S
C323 C324 1.375 1_655 S
C323 C326 1.481 . S
C324 C323 1.375 1_455 S
C324 C325 1.367 . S
C324 H338 0.951 . S
C325 C321 1.383 . S
C325 C324 1.367 . S
C325 H339 0.950 . S
C326 C323 1.481 . S
C326 C327 1.297 . S
C326 H340 0.950 1_655 S
C327 C326 1.297 . S
C327 C328 1.479 . S
C327 H341 0.950 1_545 S
C328 C327 1.479 . S
C328 C329 1.375 1_545 S
C328 C334 1.404 . S
C329 C328 1.375 1_565 S
C329 C330 1.369 . S
C329 H342 0.950 . S
C330 C329 1.369 . S
C330 C331 1.392 1_565 S
C330 H343 0.951 . S
C331 C330 1.392 1_545 S
C331 C333 1.384 1_655 S
H332 C334 0.949 1_455 S
C333 C331 1.384 1_455 S
C333 C334 1.385 1_455 S
C333 H335 0.950 . S
C334 C328 1.404 . S
C334 H332 0.949 1_655 S
C334 C333 1.385 1_655 S
H335 C333 0.950 . S
H336 C320 0.951 . S
H337 C322 0.951 . S
H338 C324 0.951 . S
H339 C325 0.950 . S
H340 C326 0.950 1_455 S
H341 C327 0.950 1_565 S
H342 C329 0.950 . S
H343 C330 0.951 . S
C344 C345 1.386 . S
C344 C346 1.383 . S
C344 H360 0.951 . S
C345 C344 1.386 . S
C345 C349 1.383 . S
C346 C344 1.383 . S
C346 C347 1.402 . S
C346 H361 0.951 . S
C347 C346 1.402 . S
C347 C348 1.375 . S
C347 C350 1.481 . S
C348 C347 1.375 . S
C348 C349 1.367 . S
C348 H362 0.951 . S
C349 C345 1.383 . S
C349 C348 1.367 . S
C349 H363 0.950 . S
C350 C347 1.481 . S
C350 C351 1.297 . S
C350 H364 0.950 . S
C351 C350 1.297 . S
C351 C352 1.479 . S
C351 H365 0.950 . S
C352 C351 1.479 . S
C352 C353 1.375 . S
C352 C358 1.404 . S
C353 C352 1.375 . S
C353 C354 1.369 . S
C353 H366 0.950 . S
C354 C353 1.369 . S
C354 C355 1.392 . S
C354 H367 0.951 . S
C355 C354 1.392 . S
C355 C357 1.384 . S
H356 C358 0.949 . S
C357 C355 1.384 . S
C357 C358 1.385 . S
C357 H359 0.950 . S
C358 C352 1.404 . S
C358 H356 0.949 . S
C358 C357 1.385 . S
H359 C357 0.950 . S
H360 C344 0.951 . S
H361 C346 0.951 . S
H362 C348 0.951 . S
H363 C349 0.950 . S
H364 C350 0.950 . S
H365 C351 0.950 . S
H366 C353 0.950 . S
H367 C354 0.951 . S
C368 C369 1.386 . S
C368 C370 1.383 . S
C368 H384 0.951 . S
C369 C368 1.386 . S
C369 C373 1.383 . S
C370 C368 1.383 . S
C370 C371 1.402 . S
C370 H385 0.951 . S
C371 C370 1.402 . S
C371 C372 1.375 . S
C371 C374 1.481 . S
C372 C371 1.375 . S
C372 C373 1.367 . S
C372 H386 0.951 . S
C373 C369 1.383 . S
C373 C372 1.367 . S
C373 H387 0.950 . S
C374 C371 1.481 . S
C374 C375 1.297 . S
C374 H388 0.950 . S
C375 C374 1.297 . S
C375 C376 1.479 . S
C375 H389 0.950 . S
C376 C375 1.479 . S
C376 C377 1.375 . S
C376 C382 1.404 . S
C377 C376 1.375 . S
C377 C378 1.369 . S
C377 H390 0.950 . S
C378 C377 1.369 . S
C378 C379 1.392 . S
C378 H391 0.951 . S
C379 C378 1.392 . S
C379 C381 1.384 . S
H380 C382 0.949 . S
C381 C379 1.384 . S
C381 C382 1.385 . S
C381 H383 0.950 . S
C382 C376 1.404 . S
C382 H380 0.949 . S
C382 C381 1.385 . S
H383 C381 0.950 . S
H384 C368 0.951 . S
H385 C370 0.951 . S
H386 C372 0.951 . S
H387 C373 0.950 . S
H388 C374 0.950 . S
H389 C375 0.950 . S
H390 C377 0.950 . S
H391 C378 0.951 . S
C115 C99 1.398 . S
C105 C27 1.468 . S
C129 N6 1.353 . S
C139 N86 1.379 . S
C153 C16 1.404 . S
C163 N97 1.364 . S
C177 N14 1.439 1_556 S
C187 C88 1.444 . S
C201 C57 1.463 . S
C211 C77 1.427 . S
C225 N36 1.286 . S
C235 N64 1.280 . S
C259 N75 1.333 . S
C249 C46 1.386 . S
C283 C66 1.420 . S
C273 N44 1.443 . S
C297 C10 1.467 1_565 S
C307 C69 1.466 . S
C321 C1 1.533 . S
C331 C80 1.522 . S
C355 C91 1.457 . S
C345 C40 1.465 . S
C369 C31 1.532 . S
C379 C102 1.518 . S
