# Generated by pormake.
# Topology pyr, (3,6)-cn, num edge types: 1
# Building blocks:
#     Node 0, Type 0, BuildingBlock: KAKCAD_clean_linker_0, # of connection points: 3
#     Node 1, Type 0, BuildingBlock: KAKCAD_clean_linker_0, # of connection points: 3
#     Node 2, Type 0, BuildingBlock: KAKCAD_clean_linker_0, # of connection points: 3
#     Node 3, Type 0, BuildingBlock: KAKCAD_clean_linker_0, # of connection points: 3
#     Node 4, Type 0, BuildingBlock: KAKCAD_clean_linker_0, # of connection points: 3
#     Node 5, Type 0, BuildingBlock: KAKCAD_clean_linker_0, # of connection points: 3
#     Node 6, Type 0, BuildingBlock: KAKCAD_clean_linker_0, # of connection points: 3
#     Node 7, Type 0, BuildingBlock: KAKCAD_clean_linker_0, # of connection points: 3
#     Node 8, Type 1, BuildingBlock: BETDIP_clean_sbu_0, # of connection points: 6
#     Node 9, Type 1, BuildingBlock: BETDIP_clean_sbu_0, # of connection points: 6
#     Node 10, Type 1, BuildingBlock: BETDIP_clean_sbu_0, # of connection points: 6
#     Node 11, Type 1, BuildingBlock: BETDIP_clean_sbu_0, # of connection points: 6
#     Edge 12, Type (0, 1), BuildingBlock: XIVTED_clean_linker_0, # of connection points: 2
#     Edge 13, Type (0, 1), BuildingBlock: XIVTED_clean_linker_0, # of connection points: 2
#     Edge 14, Type (0, 1), BuildingBlock: XIVTED_clean_linker_0, # of connection points: 2
#     Edge 15, Type (0, 1), BuildingBlock: XIVTED_clean_linker_0, # of connection points: 2
#     Edge 16, Type (0, 1), BuildingBlock: XIVTED_clean_linker_0, # of connection points: 2
#     Edge 17, Type (0, 1), BuildingBlock: XIVTED_clean_linker_0, # of connection points: 2
#     Edge 18, Type (0, 1), BuildingBlock: XIVTED_clean_linker_0, # of connection points: 2
#     Edge 19, Type (0, 1), BuildingBlock: XIVTED_clean_linker_0, # of connection points: 2
#     Edge 20, Type (0, 1), BuildingBlock: XIVTED_clean_linker_0, # of connection points: 2
#     Edge 21, Type (0, 1), BuildingBlock: XIVTED_clean_linker_0, # of connection points: 2
#     Edge 22, Type (0, 1), BuildingBlock: XIVTED_clean_linker_0, # of connection points: 2
#     Edge 23, Type (0, 1), BuildingBlock: XIVTED_clean_linker_0, # of connection points: 2
#     Edge 24, Type (0, 1), BuildingBlock: XIVTED_clean_linker_0, # of connection points: 2
#     Edge 25, Type (0, 1), BuildingBlock: XIVTED_clean_linker_0, # of connection points: 2
#     Edge 26, Type (0, 1), BuildingBlock: XIVTED_clean_linker_0, # of connection points: 2
#     Edge 27, Type (0, 1), BuildingBlock: XIVTED_clean_linker_0, # of connection points: 2
#     Edge 28, Type (0, 1), BuildingBlock: XIVTED_clean_linker_0, # of connection points: 2
#     Edge 29, Type (0, 1), BuildingBlock: XIVTED_clean_linker_0, # of connection points: 2
#     Edge 30, Type (0, 1), BuildingBlock: XIVTED_clean_linker_0, # of connection points: 2
#     Edge 31, Type (0, 1), BuildingBlock: XIVTED_clean_linker_0, # of connection points: 2
#     Edge 32, Type (0, 1), BuildingBlock: XIVTED_clean_linker_0, # of connection points: 2
#     Edge 33, Type (0, 1), BuildingBlock: XIVTED_clean_linker_0, # of connection points: 2
#     Edge 34, Type (0, 1), BuildingBlock: XIVTED_clean_linker_0, # of connection points: 2
#     Edge 35, Type (0, 1), BuildingBlock: XIVTED_clean_linker_0, # of connection points: 2
# Relax obj value: 0.118
# Max RMSD: 0.192
# Mean RMSD: 0.087
data_MOF--net-pyr--node1-BETDIP_clean_sbu_0--node2-KAKCAD_clean_linker_0--edge1-XIVTED_clean_linker_0
_symmetry_space_group_name_H-M    P1
_symmetry_Int_Tables_number       1
_symmetry_cell_setting            triclinic
loop_
_symmetry_equiv_pos_as_xyz
'x, y, z'
_cell_length_a     44.985581
_cell_length_b     47.529599
_cell_length_c     45.808548
_cell_angle_alpha  89.274204
_cell_angle_beta   92.532828
_cell_angle_gamma 102.53432
loop_
_atom_site_label
_atom_site_type_symbol
_atom_site_fract_x
_atom_site_fract_y
_atom_site_fract_z
_atom_type_partial_charge
C0 C 0.26157 0.26744 0.34185 0.0
C1 C 0.27964 0.26534 0.36729 0.0
C2 C 0.27497 0.27633 0.31549 0.0
C3 C 0.30682 0.28317 0.31374 0.0
C4 C 0.32506 0.28142 0.33909 0.0
C5 C 0.3116 0.27276 0.36567 0.0
C6 C 0.32042 0.29053 0.28498 0.0
C7 C 0.30851 0.30906 0.26593 0.0
C8 C 0.31693 0.31227 0.23678 0.0
C9 C 0.33843 0.29763 0.22693 0.0
C10 C 0.35046 0.2788 0.24562 0.0
C11 C 0.3419 0.27587 0.27485 0.0
C12 C 0.36747 0.25857 0.23334 0.0
C13 C 0.35596 0.24333 0.20774 0.0
C14 C 0.39368 0.2527 0.24786 0.0
C15 C 0.40787 0.23171 0.23704 0.0
C16 C 0.39566 0.21596 0.21191 0.0
C17 C 0.29953 0.32691 0.21565 0.0
C18 C 0.26759 0.31891 0.2144 0.0
C19 C 0.31426 0.34769 0.19596 0.0
C20 C 0.29714 0.36057 0.1756 0.0
C21 C 0.26515 0.35227 0.17428 0.0
C22 C 0.25061 0.33136 0.19388 0.0
C23 C 0.36985 0.22225 0.1972 0.0
H24 H 0.23696 0.26118 0.3419 0.0
H25 H 0.2603 0.27683 0.29618 0.0
H26 H 0.34968 0.28665 0.33831 0.0
H27 H 0.32625 0.27168 0.38486 0.0
H28 H 0.29145 0.31998 0.27341 0.0
H29 H 0.34982 0.26026 0.28893 0.0
H30 H 0.34411 0.29929 0.20412 0.0
H31 H 0.33553 0.247 0.19632 0.0
H32 H 0.40295 0.26414 0.26766 0.0
H33 H 0.42777 0.22719 0.24875 0.0
H34 H 0.2557 0.30262 0.22905 0.0
H35 H 0.3389 0.35405 0.19648 0.0
H36 H 0.36017 0.21061 0.17761 0.0
H37 H 0.22597 0.32486 0.19359 0.0
H38 H 0.30882 0.3767 0.16071 0.0
C39 C 0.18851 0.78644 0.85404 0.0
C40 C 0.21804 0.7822 0.86093 0.0
C41 C 0.17258 0.77488 0.82847 0.0
C42 C 0.18604 0.75938 0.80877 0.0
C43 C 0.21496 0.75401 0.81654 0.0
C44 C 0.23041 0.76478 0.84242 0.0
C45 C 0.17171 0.75116 0.77915 0.0
C46 C 0.15498 0.76891 0.76401 0.0
C47 C 0.1453 0.76376 0.73453 0.0
C48 C 0.1544 0.74148 0.71958 0.0
C49 C 0.17189 0.72401 0.73418 0.0
C50 C 0.17815 0.72766 0.76438 0.0
C51 C 0.18752 0.70487 0.71783 0.0
C52 C 0.1739 0.68923 0.69298 0.0
C53 C 0.21757 0.70349 0.72654 0.0
C54 C 0.23334 0.68663 0.71142 0.0
C55 C 0.21986 0.67099 0.68675 0.0
C56 C 0.12792 0.78339 0.71919 0.0
C57 C 0.10675 0.79499 0.7343 0.0
C58 C 0.13341 0.79201 0.69003 0.0
C59 C 0.11875 0.81224 0.6767 0.0
C60 C 0.09878 0.82464 0.6924 0.0
C61 C 0.09265 0.81565 0.72118 0.0
C62 C 0.19006 0.67255 0.67743 0.0
H63 H 0.17811 0.79975 0.86764 0.0
H64 H 0.15009 0.77894 0.82376 0.0
H65 H 0.22662 0.74262 0.80208 0.0
H66 H 0.25265 0.76019 0.84732 0.0
H67 H 0.1509 0.78784 0.77463 0.0
H68 H 0.18984 0.71301 0.77604 0.0
H69 H 0.14885 0.73841 0.69645 0.0
H70 H 0.15085 0.68982 0.6856 0.0
H71 H 0.22946 0.71607 0.74474 0.0
H72 H 0.25659 0.68653 0.71862 0.0
H73 H 0.10134 0.78842 0.75651 0.0
H74 H 0.14985 0.784 0.67777 0.0
H75 H 0.17926 0.66078 0.65831 0.0
H76 H 0.07705 0.82473 0.73356 0.0
H77 H 0.12394 0.81906 0.6545 0.0
C78 C 0.7251 0.43847 0.91993 0.0
C79 C 0.74975 0.42487 0.92436 0.0
C80 C 0.69842 0.42447 0.90462 0.0
C81 C 0.69563 0.39635 0.89403 0.0
C82 C 0.72024 0.38272 0.89856 0.0
C83 C 0.74712 0.39694 0.9133 0.0
C84 C 0.66691 0.38091 0.87888 0.0
C85 C 0.65412 0.39351 0.85492 0.0
C86 C 0.6271 0.37886 0.84021 0.0
C87 C 0.61272 0.35123 0.85028 0.0
C88 C 0.6251 0.33833 0.87455 0.0
C89 C 0.65232 0.35345 0.88847 0.0
C90 C 0.60959 0.30951 0.88616 0.0
C91 C 0.57773 0.30202 0.88825 0.0
C92 C 0.6268 0.28983 0.89687 0.0
C93 C 0.61275 0.26395 0.91017 0.0
C94 C 0.58098 0.25678 0.91305 0.0
C95 C 0.61446 0.39254 0.8142 0.0
C96 C 0.615 0.42226 0.81393 0.0
C97 C 0.60293 0.37642 0.78902 0.0
C98 C 0.59302 0.38983 0.76404 0.0
C99 C 0.59437 0.41973 0.76355 0.0
C100 C 0.60513 0.43563 0.78904 0.0
C101 C 0.56363 0.27604 0.90149 0.0
H102 H 0.72657 0.46004 0.92812 0.0
H103 H 0.67973 0.43539 0.90154 0.0
H104 H 0.71871 0.36109 0.89055 0.0
H105 H 0.76569 0.38588 0.91654 0.0
H106 H 0.66583 0.41449 0.84724 0.0
H107 H 0.66185 0.34423 0.9075 0.0
H108 H 0.59186 0.3398 0.83928 0.0
H109 H 0.5637 0.31663 0.88045 0.0
H110 H 0.65134 0.29456 0.89528 0.0
H111 H 0.62703 0.24996 0.91894 0.0
H112 H 0.6231 0.43531 0.83306 0.0
H113 H 0.60243 0.35356 0.78827 0.0
H114 H 0.53907 0.27114 0.90278 0.0
H115 H 0.60586 0.45853 0.78984 0.0
H116 H 0.58514 0.37687 0.74481 0.0
C117 C 0.86229 0.65036 0.26168 0.0
C118 C 0.8936 0.6517 0.25885 0.0
C119 C 0.85182 0.66255 0.28591 0.0
C120 C 0.87237 0.67671 0.30786 0.0
C121 C 0.90371 0.67849 0.30478 0.0
C122 C 0.91416 0.66605 0.2807 0.0
C123 C 0.8611 0.68905 0.3341 0.0
C124 C 0.8355 0.67335 0.34837 0.0
C125 C 0.82481 0.68439 0.37331 0.0
C126 C 0.83985 0.71178 0.3836 0.0
C127 C 0.86539 0.72802 0.36983 0.0
C128 C 0.87599 0.71632 0.34518 0.0
C129 C 0.88091 0.75695 0.38181 0.0
C130 C 0.86373 0.77578 0.39255 0.0
C131 C 0.91289 0.76542 0.38403 0.0
C132 C 0.92724 0.79154 0.39745 0.0
C133 C 0.91002 0.80995 0.40901 0.0
C134 C 0.79807 0.66753 0.38894 0.0
C135 C 0.77233 0.65148 0.37345 0.0
C136 C 0.79772 0.66812 0.41965 0.0
C137 C 0.77208 0.654 0.43437 0.0
C138 C 0.74609 0.63859 0.41888 0.0
C139 C 0.74669 0.63712 0.38825 0.0
C140 C 0.87804 0.80181 0.40598 0.0
H141 H 0.84576 0.63933 0.24545 0.0
H142 H 0.82755 0.66097 0.28739 0.0
H143 H 0.9202 0.68903 0.32131 0.0
H144 H 0.93845 0.66778 0.27915 0.0
H145 H 0.82446 0.65206 0.34056 0.0
H146 H 0.89539 0.72875 0.33415 0.0
H147 H 0.83167 0.72053 0.40264 0.0
H148 H 0.83907 0.77028 0.39083 0.0
H149 H 0.9269 0.75149 0.37617 0.0
H150 H 0.9519 0.7972 0.39886 0.0
H151 H 0.77159 0.65069 0.34981 0.0
H152 H 0.81734 0.67957 0.43245 0.0
H153 H 0.86389 0.81516 0.41473 0.0
H154 H 0.72698 0.6256 0.37562 0.0
H155 H 0.77265 0.65511 0.458 0.0
C156 C 0.70338 0.80244 0.75768 0.0
C157 C 0.70983 0.83241 0.75279 0.0
C158 C 0.68747 0.79062 0.78209 0.0
C159 C 0.67754 0.80851 0.80199 0.0
C160 C 0.68311 0.83832 0.79656 0.0
C161 C 0.69908 0.85012 0.77232 0.0
C162 C 0.66379 0.79683 0.8297 0.0
C163 C 0.67724 0.77797 0.84689 0.0
C164 C 0.66772 0.77051 0.87528 0.0
C165 C 0.64441 0.78219 0.88643 0.0
C166 C 0.63028 0.80084 0.86935 0.0
C167 C 0.63966 0.80728 0.84067 0.0
C168 C 0.60803 0.81579 0.88227 0.0
C169 C 0.58834 0.80244 0.90389 0.0
C170 C 0.6077 0.84447 0.87429 0.0
C171 C 0.58879 0.85949 0.88789 0.0
C172 C 0.57027 0.84651 0.91026 0.0
C173 C 0.68428 0.7527 0.89398 0.0
C174 C 0.69233 0.72826 0.88246 0.0
C175 C 0.69415 0.76122 0.9227 0.0
C176 C 0.71278 0.74634 0.93909 0.0
C177 C 0.72184 0.72258 0.92713 0.0
C178 C 0.71086 0.71334 0.89886 0.0
C179 C 0.56994 0.8178 0.91802 0.0
H180 H 0.71092 0.78813 0.74283 0.0
H181 H 0.6833 0.76754 0.78562 0.0
H182 H 0.67631 0.85277 0.81179 0.0
H183 H 0.7041 0.87331 0.76963 0.0
H184 H 0.69654 0.77057 0.83891 0.0
H185 H 0.62881 0.82121 0.82698 0.0
H186 H 0.63807 0.77744 0.90878 0.0
H187 H 0.58746 0.78029 0.9103 0.0
H188 H 0.62299 0.85593 0.85841 0.0
H189 H 0.58982 0.88181 0.88193 0.0
H190 H 0.68486 0.72108 0.86047 0.0
H191 H 0.68855 0.78012 0.9321 0.0
H192 H 0.55577 0.80741 0.93529 0.0
H193 H 0.71764 0.6953 0.88888 0.0
H194 H 0.72061 0.7538 0.96091 0.0
C195 C 0.79857 0.23179 0.2895 0.0
C196 C 0.7844 0.24742 0.26912 0.0
C197 C 0.81697 0.24581 0.31245 0.0
C198 C 0.82164 0.27586 0.31562 0.0
C199 C 0.80863 0.29174 0.29441 0.0
C200 C 0.79028 0.27762 0.27119 0.0
C201 C 0.83687 0.28948 0.34292 0.0
C202 C 0.86177 0.27991 0.35573 0.0
C203 C 0.87073 0.28542 0.3853 0.0
C204 C 0.85627 0.30353 0.40112 0.0
C205 C 0.83281 0.31521 0.3878 0.0
C206 C 0.82319 0.3079 0.35876 0.0
C207 C 0.81533 0.33199 0.40482 0.0
C208 C 0.80416 0.3219 0.43204 0.0
C209 C 0.80676 0.35639 0.39239 0.0
C210 C 0.78613 0.36946 0.40608 0.0
C211 C 0.77352 0.35832 0.43245 0.0
C212 C 0.89229 0.26933 0.40011 0.0
C213 C 0.89249 0.24111 0.39108 0.0
C214 C 0.91154 0.28097 0.42412 0.0
C215 C 0.92987 0.26455 0.43895 0.0
C216 C 0.92987 0.23656 0.42954 0.0
C217 C 0.91135 0.22518 0.40532 0.0
C218 C 0.78341 0.3349 0.44569 0.0
H219 H 0.79466 0.20852 0.28819 0.0
H220 H 0.8262 0.23282 0.3286 0.0
H221 H 0.8119 0.31491 0.29626 0.0
H222 H 0.77955 0.29012 0.25571 0.0
H223 H 0.87297 0.26661 0.3429 0.0
H224 H 0.80334 0.31468 0.34932 0.0
H225 H 0.86227 0.30766 0.42405 0.0
H226 H 0.81015 0.303 0.44205 0.0
H227 H 0.81516 0.36471 0.37148 0.0
H228 H 0.77888 0.38734 0.3952 0.0
H229 H 0.8773 0.23066 0.37359 0.0
H230 H 0.9123 0.30262 0.43164 0.0
H231 H 0.77439 0.32606 0.4662 0.0
H232 H 0.91048 0.20335 0.39815 0.0
H233 H 0.9439 0.27358 0.45782 0.0
C234 C 0.24385 0.6437 0.19483 0.0
C235 C 0.24412 0.6422 0.16413 0.0
C236 C 0.27 0.65712 0.21128 0.0
C237 C 0.297 0.66967 0.19747 0.0
C238 C 0.29752 0.66775 0.16692 0.0
C239 C 0.27154 0.65405 0.1505 0.0
C240 C 0.32417 0.68574 0.21468 0.0
C241 C 0.33475 0.67398 0.24037 0.0
C242 C 0.35997 0.68938 0.25727 0.0
C243 C 0.37467 0.71713 0.2475 0.0
C244 C 0.36479 0.72901 0.22134 0.0
C245 C 0.33937 0.71311 0.20538 0.0
C246 C 0.38057 0.75797 0.21025 0.0
C247 C 0.39044 0.78159 0.22916 0.0
C248 C 0.38467 0.76245 0.18011 0.0
C249 C 0.39725 0.78983 0.16907 0.0
C250 C 0.40631 0.81365 0.1878 0.0
C251 C 0.37098 0.67607 0.28462 0.0
C252 C 0.35058 0.65624 0.30138 0.0
C253 C 0.402 0.68228 0.29391 0.0
C254 C 0.41221 0.66893 0.31877 0.0
C255 C 0.39193 0.64832 0.33494 0.0
C256 C 0.36089 0.64234 0.32572 0.0
C257 C 0.40317 0.80908 0.21807 0.0
H258 H 0.22319 0.63527 0.2062 0.0
H259 H 0.2688 0.65848 0.23477 0.0
H260 H 0.31812 0.67685 0.15567 0.0
H261 H 0.27306 0.65278 0.12706 0.0
H262 H 0.3236 0.65235 0.24662 0.0
H263 H 0.33081 0.72239 0.18588 0.0
H264 H 0.3939 0.72953 0.26007 0.0
H265 H 0.38745 0.77907 0.25244 0.0
H266 H 0.37805 0.74471 0.16489 0.0
H267 H 0.39996 0.79229 0.14574 0.0
H268 H 0.3264 0.6512 0.29577 0.0
H269 H 0.41872 0.69709 0.28172 0.0
H270 H 0.40974 0.82692 0.23317 0.0
H271 H 0.34427 0.62645 0.33687 0.0
H272 H 0.43617 0.67492 0.32517 0.0
C273 C 0.12776 0.25451 0.70108 0.0
C274 C 0.09617 0.24539 0.69534 0.0
C275 C 0.14015 0.28171 0.713 0.0
C276 C 0.12138 0.30073 0.71961 0.0
C277 C 0.08967 0.29132 0.7149 0.0
C278 C 0.07722 0.26401 0.70288 0.0
C279 C 0.13531 0.33074 0.7297 0.0
C280 C 0.16137 0.34632 0.71626 0.0
C281 C 0.17563 0.37433 0.72523 0.0
C282 C 0.16336 0.38701 0.74813 0.0
C283 C 0.13723 0.37196 0.76214 0.0
C284 C 0.12316 0.34388 0.75247 0.0
C285 C 0.12516 0.38552 0.78715 0.0
C286 C 0.14515 0.40072 0.80893 0.0
C287 C 0.09369 0.38375 0.78933 0.0
C288 C 0.08262 0.39723 0.81236 0.0
C289 C 0.10265 0.41257 0.83406 0.0
C290 C 0.20338 0.38996 0.71042 0.0
C291 C 0.2265 0.37553 0.70411 0.0
C292 C 0.20647 0.41879 0.70129 0.0
C293 C 0.23156 0.43248 0.68535 0.0
C294 C 0.25425 0.4177 0.67827 0.0
C295 C 0.25157 0.3892 0.68837 0.0
C296 C 0.13407 0.41393 0.83209 0.0
H297 H 0.14307 0.24061 0.69633 0.0
H298 H 0.16461 0.28794 0.7169 0.0
H299 H 0.07456 0.30545 0.71953 0.0
H300 H 0.05281 0.25788 0.69864 0.0
H301 H 0.17032 0.33677 0.69814 0.0
H302 H 0.10338 0.33191 0.7633 0.0
H303 H 0.17428 0.40861 0.75516 0.0
H304 H 0.16949 0.40229 0.80818 0.0
H305 H 0.07763 0.37237 0.77291 0.0
H306 H 0.05826 0.39545 0.81327 0.0
H307 H 0.22515 0.3535 0.71129 0.0
H308 H 0.18896 0.43046 0.70563 0.0
H309 H 0.15023 0.4257 0.8482 0.0
H310 H 0.2689 0.37731 0.68413 0.0
H311 H 0.23265 0.45434 0.67781 0.0
Tb312 Tb 0.97763 1.01531 0.5578 0.0
Tb313 Tb 0.04748 0.03545 0.54705 0.0
C314 C 0.92386 0.9865 0.55401 0.0
C315 C 0.90091 0.97062 0.57366 0.0
C316 C 0.88748 0.94169 0.5676 0.0
C317 C 0.86563 0.92604 0.58575 0.0
C318 C 0.85659 0.93915 0.61019 0.0
C319 C 0.86999 0.96818 0.61619 0.0
C320 C 0.89206 0.98377 0.59817 0.0
C321 C 0.00514 0.05577 0.596 0.0
C322 C 0.02655 0.98714 0.59316 0.0
C323 C 0.10197 0.05957 0.53954 0.0
C324 C 0.12109 0.08747 0.53181 0.0
C325 C 0.10953 0.11257 0.52947 0.0
C326 C 0.12779 0.13814 0.51908 0.0
C327 C 0.15775 0.13882 0.51075 0.0
C328 C 0.16925 0.11363 0.51403 0.0
C329 C 0.15111 0.08829 0.52451 0.0
C330 C 0.01709 0.98911 0.51873 0.0
C331 C 5e-05 0.07016 0.51959 0.0
O332 O 0.94774 0.97536 0.55073 0.0
O333 O 0.93093 1.0147 0.55626 0.0
O334 O 0.01598 0.04364 0.5762 0.0
O335 O 0.97641 0.04331 0.59617 0.0
O336 O -0.00203 0.98432 0.58298 0.0
O337 O 0.04903 1.00848 0.58538 0.0
O338 O 0.08967 0.05738 0.56515 0.0
O339 O 0.08321 0.04677 0.51865 0.0
O340 O 0.0075 1.01153 0.52379 0.0
O341 O 0.04508 0.99279 0.52847 0.0
O342 O 0.02863 0.07075 0.52846 0.0
O343 O 0.97727 0.04802 0.52447 0.0
H344 H 0.8939 0.93117 0.54875 0.0
H345 H 0.85549 0.90378 0.58044 0.0
H346 H 0.8637 0.97873 0.63508 0.0
H347 H 0.90217 1.00603 0.60348 0.0
H348 H 0.08628 0.11222 0.53497 0.0
H349 H 0.11829 0.15717 0.51711 0.0
H350 H 0.19185 0.113 0.50727 0.0
H351 H 0.16025 0.06899 0.52597 0.0
Tb352 Tb 0.52048 0.04952 0.06129 0.0
Tb353 Tb 0.45043 1.02892 1.04496 0.0
C354 C 0.57309 0.08068 0.06139 0.0
C355 C 0.59517 0.09782 0.08241 0.0
C356 C 0.60931 0.12609 0.07493 0.0
C357 C 0.62988 0.14321 0.0946 0.0
C358 C 0.63685 0.13229 0.12213 0.0
C359 C 0.62276 0.10379 0.12946 0.0
C360 C 0.60199 0.08675 0.10984 0.0
C361 C 0.4941 1.00552 0.09466 0.0
C362 C 0.47097 0.07166 0.0973 0.0
C363 C 0.39698 1.00202 1.03338 0.0
C364 C 0.3818 0.9733 1.02238 0.0
C365 C 0.35616 0.95769 1.03623 0.0
C366 C 0.33979 0.93156 1.02458 0.0
C367 C 0.34868 0.92069 0.99869 0.0
C368 C 0.37511 0.93596 0.9855 0.0
C369 C 0.39157 0.9619 0.9973 0.0
C370 C 0.47951 0.07769 1.02153 0.0
C371 C 0.49912 0.9985 1.01718 0.0
O372 O 0.54832 0.09042 0.0556 0.0
O373 O 0.56762 0.0525 0.06425 0.0
O374 O 0.48297 1.01877 0.07468 0.0
O375 O 0.52268 1.01846 0.09781 0.0
O376 O 0.49967 0.07616 0.08934 0.0
O377 O 0.44867 0.05179 0.08521 0.0
O378 O 0.40987 1.00305 0.05972 0.0
O379 O 0.41355 1.0193 1.01485 0.0
O380 O 0.48968 0.05523 1.02593 0.0
O381 O 0.45142 0.07279 1.0291 0.0
O382 O 0.4703 0.99697 1.02343 0.0
O383 O 0.52187 1.0195 1.02646 0.0
H384 H 0.60419 0.13505 0.0539 0.0
H385 H 0.63989 0.16517 0.0884 0.0
H386 H 0.62793 0.09452 0.15028 0.0
H387 H 0.59129 0.065 0.11617 0.0
H388 H 0.34839 0.96603 0.05573 0.0
H389 H 0.3199 0.92014 1.0356 0.0
H390 H 0.38247 0.92856 0.96534 0.0
H391 H 0.41138 0.97343 0.98623 0.0
Tb392 Tb 0.49724 0.55844 0.55696 0.0
Tb393 Tb 0.49593 0.50108 0.53114 0.0
C394 C 0.48127 0.60375 0.57039 0.0
C395 C 0.45173 0.60885 0.57921 0.0
C396 C 0.42463 0.5979 0.56269 0.0
C397 C 0.39655 0.60106 0.57247 0.0
C398 C 0.39501 0.61486 0.5991 0.0
C399 C 0.42213 0.62606 0.61541 0.0
C400 C 0.45023 0.62317 0.60548 0.0
C401 C 0.52564 0.52544 0.58942 0.0
C402 C 0.43955 0.50593 0.56567 0.0
C403 C 0.50903 0.45422 0.51774 0.0
C404 C 0.5364 0.44481 0.50885 0.0
C405 C 0.54394 0.42053 0.52234 0.0
C406 C 0.57019 0.41148 0.51505 0.0
C407 C 0.58944 0.42651 0.49397 0.0
C408 C 0.58182 0.45093 0.48048 0.0
C409 C 0.55555 0.46002 0.48788 0.0
C410 C 0.46764 0.53479 0.49922 0.0
C411 C 0.55392 0.55366 0.52295 0.0
O412 O 0.48244 0.59554 0.54336 0.0
O413 O 0.49481 0.589 0.58898 0.0
O414 O 0.50098 0.51742 0.57458 0.0
O415 O 0.53436 0.55329 0.58757 0.0
O416 O 0.45072 0.53413 0.56548 0.0
O417 O 0.45489 0.48778 0.55533 0.0
O418 O 0.5102 0.46363 0.54456 0.0
O419 O 0.4968 0.47007 0.49919 0.0
O420 O 0.49249 0.54209 0.51372 0.0
O421 O 0.45826 0.50701 0.50106 0.0
O422 O 0.54254 0.52541 0.52254 0.0
O423 O 0.53868 0.57183 0.53349 0.0
H424 H 0.42499 0.5864 0.54248 0.0
H425 H 0.37598 0.59204 0.55962 0.0
H426 H 0.42159 0.63707 0.63588 0.0
H427 H 0.47078 0.63167 0.61861 0.0
H428 H 0.5296 0.40865 0.53876 0.0
H429 H 0.57559 0.39291 0.52626 0.0
H430 H 0.59592 0.46283 0.46394 0.0
H431 H 0.55025 0.4789 0.4772 0.0
Tb432 Tb 0.99302 0.55892 1.02379 0.0
Tb433 Tb -0.00012 0.51034 0.06336 0.0
C434 C 0.9725 0.59538 0.9934 0.0
C435 C 0.94612 0.60885 0.99428 0.0
C436 C 0.91955 0.59509 1.00807 0.0
C437 C 0.89391 0.60731 1.00694 0.0
C438 C 0.89454 0.63356 0.99218 0.0
C439 C 0.92157 0.64761 0.97918 0.0
C440 C 0.9471 0.63531 0.9802 0.0
C441 C 0.04797 0.56446 1.04902 0.0
C442 C 0.96994 0.55683 0.0892 0.0
C443 C 0.01958 0.47287 0.09285 0.0
C444 C 0.04691 0.46084 0.09202 0.0
C445 C 0.0735 0.47646 0.07954 0.0
C446 C 0.0999 0.46543 0.08034 0.0
C447 C 0.1 0.43853 0.09342 0.0
C448 C 0.07301 0.42268 0.10515 0.0
C449 C 0.0467 0.43379 0.10447 0.0
C450 C 0.94519 0.5053 1.03754 0.0
C451 C 0.02409 0.51281 0.99857 0.0
O452 O 0.96621 0.56774 0.98786 0.0
O453 O 0.99336 0.60238 1.01442 0.0
O454 O 0.02291 0.55432 0.06042 0.0
O455 O 0.0426 0.57396 1.0231 0.0
O456 O 0.96655 0.56546 0.0618 0.0
O457 O 0.98541 0.5368 0.09571 0.0
O458 O 0.02438 0.50001 0.10028 0.0
O459 O 5e-05 0.46665 0.07064 0.0
O460 O 0.97051 0.51493 1.0266 0.0
O461 O 0.94998 0.49606 0.06368 0.0
O462 O 0.02751 0.50462 1.02608 0.0
O463 O 0.00821 0.53246 0.99169 0.0
H464 H 0.91845 0.57467 1.01923 0.0
H465 H 0.87353 0.59614 1.0174 0.0
H466 H 0.92267 0.66766 0.96734 0.0
H467 H 0.96743 0.64618 0.96944 0.0
H468 H 0.07399 0.49737 0.06964 0.0
H469 H 0.12027 0.478 0.07093 0.0
H470 H 0.07247 0.40209 0.11575 0.0
H471 H 0.02635 0.42149 0.11417 0.0
H472 H 0.29935 0.22974 0.4081 0.0
H473 H 0.13818 0.17631 0.47202 0.0
H474 H 0.22595 0.27346 0.3889 0.0
H475 H 0.21974 0.16007 0.51606 0.0
H476 H 0.16975 0.21319 0.44252 0.0
H477 H 0.27124 0.20515 0.44873 0.0
C478 C 0.27764 0.23467 0.41269 0.0
C479 C 0.26488 0.25346 0.39462 0.0
C480 C 0.1807 0.20186 0.45897 0.0
C481 C 0.23219 0.22465 0.44078 0.0
C482 C 0.16265 0.18086 0.47601 0.0
C483 C 0.17626 0.1646 0.49631 0.0
C484 C 0.21258 0.20635 0.46191 0.0
C485 C 0.20821 0.1714 0.5001 0.0
C486 C 0.26151 0.22046 0.43587 0.0
C487 C 0.23637 0.25855 0.40162 0.0
N488 N 0.22529 0.19138 0.4827 0.0
N489 N 0.22077 0.24387 0.42381 0.0
H490 H 0.19968 0.79724 0.91442 0.0
H491 H 0.36716 0.87814 0.96874 0.0
H492 H 0.27991 0.80353 0.86399 0.0
H493 H 0.28614 0.90421 0.99516 0.0
H494 H 0.33511 0.84025 0.93882 0.0
H495 H 0.23127 0.82698 0.95231 0.0
C496 C 0.22383 0.80462 0.91127 0.0
C497 C 0.23696 0.79777 0.88572 0.0
C498 C 0.32441 0.85411 0.95147 0.0
C499 C 0.2732 0.83107 0.92942 0.0
C500 C 0.34266 0.87584 0.96845 0.0
C501 C 0.32943 0.89483 0.98414 0.0
C502 C 0.29267 0.85109 0.95037 0.0
C503 C 0.29744 0.89011 0.98357 0.0
C504 C 0.24182 0.82142 0.93303 0.0
C505 C 0.26862 0.80756 0.88337 0.0
N506 N 0.28014 0.86884 0.96674 0.0
N507 N 0.28556 0.8237 0.90486 0.0
H508 H 0.62153 0.47273 0.74159 0.0
H509 H 0.50131 0.46964 0.60599 0.0
H510 H 0.54657 0.40057 0.72352 0.0
H511 H 0.57548 0.54168 0.62651 0.0
H512 H 0.51865 0.44284 0.64719 0.0
H513 H 0.60587 0.49725 0.69838 0.0
C514 C 0.60164 0.46204 0.72867 0.0
C515 C 0.58525 0.43452 0.73656 0.0
C516 C 0.53123 0.46445 0.6426 0.0
C517 C 0.5673 0.46259 0.68638 0.0
C518 C 0.52141 0.47972 0.619 0.0
C519 C 0.53696 0.50797 0.61281 0.0
C520 C 0.55682 0.47752 0.66019 0.0
C521 C 0.56275 0.52 0.6305 0.0
C522 C 0.59281 0.47604 0.70379 0.0
C523 C 0.56009 0.42164 0.71833 0.0
N524 N 0.57177 0.50479 0.65337 0.0
N525 N 0.55184 0.43579 0.69424 0.0
H526 H 0.93783 0.61988 0.25936 0.0
H527 H 0.93134 0.59494 0.08591 0.0
H528 H 0.87472 0.65136 0.20061 0.0
H529 H 0.97941 0.55017 0.14814 0.0
H530 H 0.91226 0.61802 0.12674 0.0
H531 H 0.95563 0.59689 0.2181 0.0
C532 C 0.92782 0.62214 0.23775 0.0
C533 C 0.90473 0.63771 0.23359 0.0
C534 C 0.92691 0.60306 0.1314 0.0
C535 C 0.92501 0.61111 0.18593 0.0
C536 C 0.93784 0.58987 0.10809 0.0
C537 C 0.95705 0.57047 0.11346 0.0
C538 C 0.93546 0.59709 0.16036 0.0
C539 C 0.96463 0.56484 0.14276 0.0
C540 C 0.93786 0.6088 0.21417 0.0
C541 C 0.89236 0.63941 0.205 0.0
N542 N 0.95398 0.57813 0.16496 0.0
N543 N 0.90272 0.62641 0.1823 0.0
H544 H 0.36565 0.1615 0.19818 0.0
H545 H 0.50671 0.12071 0.12199 0.0
H546 H 0.45544 0.21677 0.2011 0.0
H547 H 0.41669 0.06576 0.12372 0.0
H548 H 0.49053 0.15406 0.15508 0.0
H549 H 0.38596 0.12413 0.17522 0.0
C550 C 0.38975 0.16564 0.19408 0.0
C551 C 0.40885 0.19232 0.20114 0.0
C552 C 0.47446 0.13454 0.14842 0.0
C553 C 0.43237 0.1497 0.17465 0.0
C554 C 0.48368 0.11546 0.12955 0.0
C555 C 0.46291 0.09055 0.11972 0.0
C556 C 0.4443 0.12863 0.15747 0.0
C557 C 0.43341 0.08485 0.13034 0.0
C558 C 0.40139 0.14429 0.18104 0.0
C559 C 0.43999 0.19645 0.19588 0.0
N560 N 0.42496 0.10383 0.14841 0.0
N561 N 0.45077 0.17546 0.18256 0.0
H562 H 0.06486 0.82352 0.64128 0.0
H563 H 0.07349 0.99087 0.634 0.0
H564 H 0.103 0.87861 0.71374 0.0
H565 H -0.00215 0.93041 0.59343 0.0
H566 H 0.08907 0.95076 0.66028 0.0
H567 H 0.04444 0.86328 0.61939 0.0
C568 C 0.06883 0.844 0.65253 0.0
C569 C 0.08549 0.84793 0.67929 0.0
C570 C 0.06887 0.9464 0.64587 0.0
C571 C 0.06279 0.89331 0.65438 0.0
C572 C 0.06001 0.9692 0.63088 0.0
C573 C 0.03431 0.96391 0.61163 0.0
C574 C 0.05238 0.9181 0.64092 0.0
C575 C 0.01766 0.93543 0.60829 0.0
C576 C 0.05709 0.86653 0.64018 0.0
C577 C 0.09006 0.87478 0.69314 0.0
N578 N 0.02724 0.9135 0.62246 0.0
N579 N 0.07906 0.89662 0.68035 0.0
H580 H 0.75503 0.45088 0.97795 0.0
H581 H 0.93616 0.50484 0.97816 0.0
H582 H 0.80875 0.43197 0.90811 0.0
H583 H 0.88789 0.48699 0.05788 0.0
H584 H 0.88816 0.48736 0.95006 0.0
H585 H 0.80226 0.47309 1.00552 0.0
C586 C 0.77677 0.45165 0.96834 0.0
C587 C 0.77804 0.4395 0.94077 0.0
C588 C 0.88807 0.48741 0.97369 0.0
C589 C 0.83197 0.46504 0.97197 0.0
C590 C 0.91539 0.49751 0.98974 0.0
C591 C 0.91598 0.49713 1.02039 0.0
C592 C 0.86103 0.47736 0.98838 0.0
C593 C 0.88841 0.48742 1.03427 0.0
C594 C 0.80365 0.46416 0.98411 0.0
C595 C 0.80679 0.44088 0.92939 0.0
N596 N 0.86201 0.47794 1.01817 0.0
N597 N 0.8326 0.45352 0.94496 0.0
H598 H 0.70852 0.58498 0.41025 0.0
H599 H 0.58819 0.60883 0.52609 0.0
H600 H 0.72 0.66112 0.46348 0.0
H601 H 0.58738 0.52569 0.48889 0.0
H602 H 0.63523 0.6288 0.50152 0.0
H603 H 0.66265 0.56347 0.43656 0.0
C604 C 0.70138 0.5972 0.42741 0.0
C605 C 0.71824 0.62491 0.43468 0.0
C606 C 0.62487 0.60615 0.49882 0.0
C607 C 0.66573 0.60041 0.46489 0.0
C608 C 0.59793 0.59469 0.51286 0.0
C609 C 0.58363 0.56548 0.50957 0.0
C610 C 0.63764 0.58843 0.481 0.0
C611 C 0.59752 0.54829 0.49212 0.0
C612 C 0.6753 0.58484 0.44254 0.0
C613 C 0.708 0.6396 0.45732 0.0
N614 N 0.62359 0.56005 0.47834 0.0
N615 N 0.68242 0.62726 0.47146 0.0
H616 H 0.21845 0.32529 0.13786 0.0
H617 H 0.1574 0.46868 0.10936 0.0
H618 H 0.26893 0.40973 0.16367 0.0
H619 H 0.10735 0.38355 0.08502 0.0
H620 H 0.20232 0.4489 0.12119 0.0
H621 H 0.18183 0.34747 0.1103 0.0
C622 C 0.22199 0.34857 0.13735 0.0
C623 C 0.2464 0.36573 0.15338 0.0
C624 C 0.18164 0.43461 0.11287 0.0
C625 C 0.20444 0.39131 0.12222 0.0
C626 C 0.15603 0.44592 0.10596 0.0
C627 C 0.12846 0.42764 0.0966 0.0
C628 C 0.17963 0.40482 0.11046 0.0
C629 C 0.12795 0.3983 0.09279 0.0
C630 C 0.20111 0.36125 0.12162 0.0
C631 C 0.25031 0.39578 0.15166 0.0
N632 N 0.15303 0.38776 0.10004 0.0
N633 N 0.22921 0.40764 0.13676 0.0
H634 H 0.596 0.20336 0.9133 0.0
H635 H 0.46159 0.12873 1.01654 0.0
H636 H 0.53229 0.24836 0.94909 0.0
H637 H 0.53324 0.08729 0.99271 0.0
H638 H 0.48632 0.17215 0.99046 0.0
H639 H 0.57261 0.16026 0.94056 0.0
C640 C 0.5772 0.20433 0.92694 0.0
C641 C 0.56623 0.22981 0.92876 0.0
C642 C 0.49677 0.15365 0.99097 0.0
C643 C 0.53897 0.18005 0.9599 0.0
C644 C 0.48263 0.12882 1.00587 0.0
C645 C 0.4954 0.10438 1.00683 0.0
C646 C 0.52383 0.15406 0.97661 0.0
C647 C 0.5227 0.10572 0.99261 0.0
C648 C 0.56376 0.17958 0.94244 0.0
C649 C 0.54135 0.22928 0.94648 0.0
N650 N 0.53594 0.13008 0.97799 0.0
N651 N 0.52863 0.20491 0.96126 0.0
H652 H 0.89328 0.86265 0.40924 0.0
H653 H 0.03405 0.93793 0.51516 0.0
H654 H 0.96143 0.81925 0.44561 0.0
H655 H 0.96161 0.97999 0.48791 0.0
H656 H 0.00778 0.89468 0.48889 0.0
H657 H 0.91782 0.90594 0.43674 0.0
C658 C 0.91331 0.86208 0.42304 0.0
C659 C 0.92521 0.83701 0.42493 0.0
C660 C -0.00253 0.91327 0.48863 0.0
C661 C 0.9537 0.88692 0.45638 0.0
C662 C 0.0125 0.93803 0.50365 0.0
C663 C 2e-05 0.96263 0.5037 0.0
C664 C 0.9697 0.91297 0.47323 0.0
C665 C 0.97199 0.96146 0.48848 0.0
C666 C 0.92738 0.88693 0.43868 0.0
C667 C 0.95158 0.83801 0.44292 0.0
N668 N 0.95782 0.93708 0.47374 0.0
N669 N 0.96484 0.86243 0.45784 0.0
H670 H 0.2296 0.67215 0.628 0.0
H671 H 0.37462 0.60282 0.65397 0.0
H672 H 0.25243 0.63305 0.70899 0.0
H673 H 0.34767 0.63208 0.56938 0.0
H674 H 0.32696 0.60977 0.67304 0.0
H675 H 0.26874 0.65286 0.60418 0.0
C676 C 0.24233 0.65889 0.64055 0.0
C677 C 0.23815 0.65448 0.67055 0.0
C678 C 0.33126 0.61448 0.65023 0.0
C679 C 0.28316 0.63289 0.64377 0.0
C680 C 0.35858 0.6107 0.63942 0.0
C681 C 0.36523 0.61727 0.6102 0.0
C682 C 0.3105 0.62528 0.63179 0.0
C683 C 0.34339 0.62683 0.59209 0.0
C684 C 0.2648 0.64808 0.62704 0.0
C685 C 0.25533 0.63733 0.6859 0.0
N686 N 0.31713 0.63091 0.60328 0.0
N687 N 0.27733 0.6275 0.67245 0.0
H688 H 0.76033 0.81644 0.73265 0.0
H689 H 0.80789 0.9561 0.6326 0.0
H690 H 0.70403 0.87864 0.71801 0.0
H691 H 0.8525 0.88442 0.63148 0.0
H692 H 0.77038 0.92864 0.66509 0.0
H693 H 0.79457 0.84101 0.696 0.0
C694 C 0.75486 0.83499 0.72145 0.0
C695 C 0.72926 0.84553 0.72861 0.0
C696 C 0.78828 0.91885 0.65762 0.0
C697 C 0.76887 0.87418 0.68704 0.0
C698 C 0.8098 0.93459 0.63926 0.0
C699 C 0.83337 0.92254 0.62942 0.0
C700 C 0.79051 0.89095 0.66646 0.0
C701 C 0.83455 0.89444 0.63839 0.0
C702 C 0.77459 0.84914 0.70065 0.0
C703 C 0.72376 0.87002 0.71366 0.0
N704 N 0.81353 0.87966 0.65656 0.0
N705 N 0.74351 0.88363 0.69377 0.0
H706 H 0.73749 0.20216 0.27884 0.0
H707 H 0.68965 0.17174 0.11084 0.0
H708 H 0.77993 0.25726 0.20999 0.0
H709 H 0.63333 0.13485 0.18162 0.0
H710 H 0.72478 0.20147 0.14618 0.0
H711 H 0.70112 0.17509 0.2429 0.0
C712 C 0.73916 0.20848 0.25606 0.0
C713 C 0.76185 0.23178 0.24726 0.0
C714 C 0.70466 0.18692 0.15389 0.0
C715 C 0.72024 0.20096 0.20598 0.0
C716 C 0.68451 0.17 0.13374 0.0
C717 C 0.65846 0.15062 0.14323 0.0
C718 C 0.69889 0.18428 0.18376 0.0
C719 C 0.65335 0.14901 0.17328 0.0
C720 C 0.71829 0.19314 0.23559 0.0
C721 C 0.76271 0.23941 0.21758 0.0
N722 N 0.67343 0.16551 0.19244 0.0
N723 N 0.7423 0.22386 0.19789 0.0
H724 H 0.36043 0.62465 0.38355 0.0
H725 H 0.4996 0.58343 0.47318 0.0
H726 H 0.44908 0.63613 0.34643 0.0
H727 H 0.41007 0.52794 0.4742 0.0
H728 H 0.48133 0.61192 0.43387 0.0
H729 H 0.37818 0.59741 0.42366 0.0
C730 C 0.38351 0.62148 0.38344 0.0
C731 C 0.40299 0.63282 0.36082 0.0
C732 C 0.4657 0.59358 0.44282 0.0
C733 C 0.42377 0.60244 0.40804 0.0
C734 C 0.47602 0.57741 0.46532 0.0
C735 C 0.45632 0.55319 0.47683 0.0
C736 C 0.43524 0.586 0.43232 0.0
C737 C 0.42601 0.54634 0.46578 0.0
C738 C 0.39364 0.60603 0.40667 0.0
C739 C 0.43308 0.62852 0.3632 0.0
N740 N 0.41631 0.56278 0.44429 0.0
N741 N 0.44252 0.61389 0.38636 0.0
H742 H 0.0579 0.44398 0.83125 0.0
H743 H 0.0635 0.47571 1.00342 0.0
H744 H 0.12075 0.41526 0.8925 0.0
H745 H 0.0146 0.51759 0.93925 0.0
H746 H 0.0829 0.45146 0.96377 0.0
H747 H 0.03954 0.4686 0.8711 0.0
C748 C 0.06774 0.44266 0.8531 0.0
C749 C 0.09096 0.42742 0.85839 0.0
C750 C 0.06802 0.46605 0.95838 0.0
C751 C 0.07004 0.45587 0.90437 0.0
C752 C 0.0569 0.47993 0.98104 0.0
C753 C 0.03736 0.49885 0.97479 0.0
C754 C 0.05933 0.47081 0.92916 0.0
C755 C 0.02966 0.50335 0.94525 0.0
C756 C 0.05737 0.45694 0.87586 0.0
C757 C 0.10306 0.42694 0.88722 0.0
N758 N 0.0405 0.48937 0.92366 0.0
N759 N 0.09241 0.44081 0.90907 0.0
H760 H 0.5755 0.85585 0.96876 0.0
H761 H 0.46435 0.96446 0.97483 0.0
H762 H 0.52931 0.87795 0.89012 0.0
H763 H 0.55076 0.97792 1.02319 0.0
H764 H 0.47782 0.92396 0.94923 0.0
H765 H 0.55516 0.89132 0.99566 0.0
C766 C 0.56048 0.86772 0.95737 0.0
C767 C 0.55402 0.86415 0.92728 0.0
C768 C 0.49368 0.93588 0.96549 0.0
C769 C 0.53084 0.90445 0.9577 0.0
C770 C 0.48607 0.95887 0.98004 0.0
C771 C 0.50666 0.97467 1.00085 0.0
C772 C 0.52155 0.92825 0.97261 0.0
C773 C 0.53446 0.96655 1.00696 0.0
C774 C 0.54914 0.88803 0.9726 0.0
C775 C 0.53479 0.88027 0.91334 0.0
N776 N 0.541 0.94374 0.99307 0.0
N777 N 0.52381 0.89983 0.92869 0.0
H778 H 0.92125 0.21732 0.48518 0.0
H779 H 0.0367 0.11193 0.4874 0.0
H780 H 0.97503 0.21198 0.41072 0.0
H781 H 0.94704 0.08833 0.52222 0.0
H782 H 0.0238 0.15637 0.46739 0.0
H783 H 0.94139 0.17819 0.5087 0.0
C784 C 0.93798 0.20842 0.47422 0.0
C785 C 0.94665 0.21774 0.44613 0.0
C786 C 0.00709 0.14134 0.47944 0.0
C787 C 0.96948 0.17325 0.4726 0.0
C788 C 0.01435 0.11607 0.49075 0.0
C789 C 0.99271 0.09629 0.50608 0.0
C790 C 0.97845 0.14715 0.48442 0.0
C791 C 0.96419 0.10276 0.5101 0.0
C792 C 0.94917 0.18601 0.48744 0.0
C793 C 0.96796 0.20528 0.43248 0.0
N794 N 0.95797 0.12774 0.49953 0.0
N795 N 0.97869 0.18354 0.44584 0.0
H796 H 0.22539 0.65876 0.10971 0.0
H797 H 0.06189 0.55172 0.10592 0.0
H798 H 0.1977 0.59594 0.17771 0.0
H799 H 0.10137 0.59688 1.02991 0.0
H800 H 0.11029 0.56877 0.13356 0.0
H801 H 0.17911 0.63775 0.0812 0.0
C802 C 0.20985 0.64036 0.11863 0.0
C803 C 0.21584 0.62916 0.14631 0.0
C804 C 0.10843 0.57477 0.11078 0.0
C805 C 0.16197 0.60531 0.1137 0.0
C806 C 0.08082 0.56498 0.09497 0.0
C807 C 0.07759 0.57288 0.06557 0.0
C808 C 0.13286 0.59294 0.09718 0.0
C809 C 0.10283 0.59031 0.05255 0.0
C810 C 0.18322 0.62846 0.1023 0.0
C811 C 0.19408 0.6057 0.15676 0.0
N812 N 0.12926 0.59993 0.06848 0.0
N813 N 0.16813 0.59468 0.14054 0.0
H814 H 0.28128 0.39257 0.636 0.0
H815 H 0.40488 0.53526 0.59678 0.0
H816 H 0.28658 0.47436 0.67813 0.0
H817 H 0.40736 0.44993 0.56725 0.0
H818 H 0.35872 0.51473 0.62292 0.0
H819 H 0.32471 0.41452 0.60738 0.0
C820 C 0.29165 0.41512 0.63945 0.0
C821 C 0.28027 0.43145 0.65993 0.0
C822 C 0.36932 0.50055 0.61062 0.0
C823 C 0.33008 0.45704 0.62648 0.0
C824 C 0.39565 0.51226 0.59556 0.0
C825 C 0.41022 0.49431 0.5798 0.0
C826 C 0.3573 0.47067 0.60981 0.0
C827 C 0.3971 0.46465 0.57914 0.0
C828 C 0.31641 0.42772 0.62287 0.0
C829 C 0.29432 0.46086 0.66258 0.0
N830 N 0.37152 0.45382 0.59392 0.0
N831 N 0.3185 0.47266 0.64615 0.0
H832 H 0.77335 0.74902 0.95843 0.0
H833 H 0.83596 0.60462 0.97913 0.0
H834 H 0.7224 0.66497 0.93153 0.0
H835 H 0.88989 0.68985 0.99719 0.0
H836 H 0.79148 0.62544 0.96866 0.0
H837 H 0.81329 0.72675 0.97979 0.0
C838 C 0.77029 0.72581 0.95744 0.0
C839 C 0.74454 0.70886 0.94297 0.0
C840 C 0.81298 0.63956 0.97516 0.0
C841 C 0.79053 0.68324 0.96699 0.0
C842 C 0.83834 0.62767 0.98134 0.0
C843 C 0.86676 0.64557 0.98881 0.0
C844 C 0.81603 0.66957 0.9765 0.0
C845 C 0.86855 0.67532 0.99103 0.0
C846 C 0.79326 0.71312 0.96945 0.0
C847 C 0.74209 0.67892 0.94204 0.0
N848 N 0.8436 0.6864 0.98472 0.0
N849 N 0.76489 0.66709 0.9537 0.0
H850 H 0.45407 0.85598 0.20927 0.0
H851 H 0.44134 0.96728 0.07808 0.0
H852 H 0.3864 0.8386 0.13832 0.0
H853 H 0.51383 0.98179 0.14441 0.0
H854 H 0.41877 0.92161 0.10178 0.0
H855 H 0.47422 0.90346 0.18791 0.0
C856 C 0.44329 0.86217 0.18932 0.0
C857 C 0.41855 0.84304 0.17556 0.0
C858 C 0.43947 0.93486 0.11135 0.0
C859 C 0.44168 0.89753 0.1508 0.0
C860 C 0.45215 0.96113 0.09797 0.0
C861 C 0.47916 0.9786 0.10958 0.0
C862 C 0.45395 0.92591 0.13657 0.0
C863 C 0.49285 0.96902 0.13484 0.0
C864 C 0.45493 0.88926 0.17703 0.0
C865 C 0.4058 0.85231 0.14952 0.0
N866 N 0.48012 0.94339 0.14749 0.0
N867 N 0.41747 0.87877 0.13805 0.0
H868 H 0.12029 0.21927 0.65153 0.0
H869 H 0.98264 0.07993 0.64132 0.0
H870 H 0.04263 0.20624 0.70608 0.0
H871 H 0.06039 0.09254 0.58723 0.0
H872 H 0.00486 0.12548 0.66606 0.0
H873 H 0.09946 0.17262 0.62865 0.0
C874 C 0.09896 0.20656 0.65892 0.0
C875 C 0.08335 0.21688 0.681 0.0
C876 C 0.01725 0.11824 0.64895 0.0
C877 C 0.05905 0.16318 0.65438 0.0
C878 C 0.0046 0.09216 0.63486 0.0
C879 C 0.01988 0.08223 0.6124 0.0
C880 C 0.0454 0.13475 0.64044 0.0
C881 C 0.04812 0.0991 0.60476 0.0
C882 C 0.08697 0.17991 0.64566 0.0
C883 C 0.05542 0.19949 0.68903 0.0
N884 N 0.05992 0.12453 0.61867 0.0
N885 N 0.04424 0.17358 0.67579 0.0
H886 H 0.76806 0.41463 0.43717 0.0
H887 H 0.59614 0.37095 0.4877 0.0
H888 H 0.72095 0.32727 0.4547 0.0
H889 H 0.64605 0.45922 0.48202 0.0
H890 H 0.64182 0.35482 0.47526 0.0
H891 H 0.72385 0.43172 0.4532 0.0
C892 C 0.7485 0.39907 0.44453 0.0
C893 C 0.74824 0.36947 0.44461 0.0
C894 C 0.64285 0.37773 0.47682 0.0
C895 C 0.69755 0.38884 0.46285 0.0
C896 C 0.61676 0.38698 0.48407 0.0
C897 C 0.61718 0.41653 0.48604 0.0
C898 C 0.66967 0.39812 0.47129 0.0
C899 C 0.64449 0.43624 0.48042 0.0
C900 C 0.72331 0.40884 0.45375 0.0
C901 C 0.72237 0.35029 0.45462 0.0
N902 N 0.66962 0.42669 0.47327 0.0
N903 N 0.69805 0.36029 0.46314 0.0
loop_
_geom_bond_atom_site_label_1
_geom_bond_atom_site_label_2
_geom_bond_distance
_geom_bond_site_symmetry_2
_ccdc_geom_bond_type
C0 C1 1.386 . S
C0 C2 1.397 . S
C0 H24 0.931 . S
C1 C0 1.386 . S
C1 C5 1.397 . S
C2 C0 1.397 . S
C2 C3 1.384 . S
C2 H25 0.930 . S
C3 C2 1.384 . S
C3 C4 1.377 . S
C3 C6 1.481 . S
C4 C3 1.377 . S
C4 C5 1.389 . S
C4 H26 0.929 . S
C5 C1 1.397 . S
C5 C4 1.389 . S
C5 H27 0.931 . S
C6 C3 1.481 . S
C6 C7 1.387 . S
C6 C11 1.390 . S
C7 C6 1.387 . S
C7 C8 1.401 . S
C7 H28 0.930 . S
C8 C7 1.401 . S
C8 C9 1.376 . S
C8 C17 1.511 . S
C9 C8 1.376 . S
C9 C10 1.392 . S
C9 H30 0.931 . S
C10 C9 1.392 . S
C10 C11 1.361 . S
C10 C12 1.500 . S
C11 C6 1.390 . S
C11 C10 1.361 . S
C11 H29 0.931 . S
C12 C10 1.500 . S
C12 C13 1.371 . S
C12 C14 1.365 . S
C13 C12 1.371 . S
C13 C23 1.386 . S
C13 H31 0.931 . S
C14 C12 1.365 . S
C14 C15 1.409 . S
C14 H32 0.929 . S
C15 C14 1.409 . S
C15 C16 1.380 . S
C15 H33 0.930 . S
C16 C15 1.380 . S
C16 C23 1.357 . S
C17 C8 1.511 . S
C17 C18 1.341 . S
C17 C19 1.371 . S
C18 C17 1.341 . S
C18 C22 1.394 . S
C18 H34 0.930 . S
C19 C17 1.371 . S
C19 C20 1.392 . S
C19 H35 0.931 . S
C20 C19 1.392 . S
C20 C21 1.331 . S
C20 H38 0.932 . S
C21 C20 1.331 . S
C21 C22 1.336 . S
C22 C18 1.394 . S
C22 C21 1.336 . S
C22 H37 0.929 . S
C23 C13 1.386 . S
C23 C16 1.357 . S
C23 H36 0.928 . S
H24 C0 0.931 . S
H25 C2 0.930 . S
H26 C4 0.929 . S
H27 C5 0.931 . S
H28 C7 0.930 . S
H29 C11 0.931 . S
H30 C9 0.931 . S
H31 C13 0.931 . S
H32 C14 0.929 . S
H33 C15 0.930 . S
H34 C18 0.930 . S
H35 C19 0.931 . S
H36 C23 0.928 . S
H37 C22 0.929 . S
H38 C20 0.932 . S
C39 C40 1.386 . S
C39 C41 1.397 . S
C39 H63 0.931 . S
C40 C39 1.386 . S
C40 C44 1.397 . S
C41 C39 1.397 . S
C41 C42 1.384 . S
C41 H64 0.930 . S
C42 C41 1.384 . S
C42 C43 1.377 . S
C42 C45 1.481 . S
C43 C42 1.377 . S
C43 C44 1.389 . S
C43 H65 0.929 . S
C44 C40 1.397 . S
C44 C43 1.389 . S
C44 H66 0.931 . S
C45 C42 1.481 . S
C45 C46 1.387 . S
C45 C50 1.390 . S
C46 C45 1.387 . S
C46 C47 1.401 . S
C46 H67 0.930 . S
C47 C46 1.401 . S
C47 C48 1.376 . S
C47 C56 1.511 . S
C48 C47 1.376 . S
C48 C49 1.392 . S
C48 H69 0.931 . S
C49 C48 1.392 . S
C49 C50 1.361 . S
C49 C51 1.500 . S
C50 C45 1.390 . S
C50 C49 1.361 . S
C50 H68 0.931 . S
C51 C49 1.500 . S
C51 C52 1.371 . S
C51 C53 1.365 . S
C52 C51 1.371 . S
C52 C62 1.386 . S
C52 H70 0.931 . S
C53 C51 1.365 . S
C53 C54 1.409 . S
C53 H71 0.929 . S
C54 C53 1.409 . S
C54 C55 1.380 . S
C54 H72 0.930 . S
C55 C54 1.380 . S
C55 C62 1.357 . S
C56 C47 1.511 . S
C56 C57 1.341 . S
C56 C58 1.371 . S
C57 C56 1.341 . S
C57 C61 1.394 . S
C57 H73 0.930 . S
C58 C56 1.371 . S
C58 C59 1.392 . S
C58 H74 0.931 . S
C59 C58 1.392 . S
C59 C60 1.331 . S
C59 H77 0.932 . S
C60 C59 1.331 . S
C60 C61 1.336 . S
C61 C57 1.394 . S
C61 C60 1.336 . S
C61 H76 0.929 . S
C62 C52 1.386 . S
C62 C55 1.357 . S
C62 H75 0.928 . S
H63 C39 0.931 . S
H64 C41 0.930 . S
H65 C43 0.929 . S
H66 C44 0.931 . S
H67 C46 0.930 . S
H68 C50 0.931 . S
H69 C48 0.931 . S
H70 C52 0.931 . S
H71 C53 0.929 . S
H72 C54 0.930 . S
H73 C57 0.930 . S
H74 C58 0.931 . S
H75 C62 0.928 . S
H76 C61 0.929 . S
H77 C59 0.932 . S
C78 C79 1.386 . S
C78 C80 1.397 . S
C78 H102 0.931 . S
C79 C78 1.386 . S
C79 C83 1.397 . S
C80 C78 1.397 . S
C80 C81 1.384 . S
C80 H103 0.930 . S
C81 C80 1.384 . S
C81 C82 1.377 . S
C81 C84 1.481 . S
C82 C81 1.377 . S
C82 C83 1.389 . S
C82 H104 0.929 . S
C83 C79 1.397 . S
C83 C82 1.389 . S
C83 H105 0.931 . S
C84 C81 1.481 . S
C84 C85 1.387 . S
C84 C89 1.390 . S
C85 C84 1.387 . S
C85 C86 1.401 . S
C85 H106 0.930 . S
C86 C85 1.401 . S
C86 C87 1.376 . S
C86 C95 1.511 . S
C87 C86 1.376 . S
C87 C88 1.392 . S
C87 H108 0.931 . S
C88 C87 1.392 . S
C88 C89 1.361 . S
C88 C90 1.500 . S
C89 C84 1.390 . S
C89 C88 1.361 . S
C89 H107 0.931 . S
C90 C88 1.500 . S
C90 C91 1.371 . S
C90 C92 1.365 . S
C91 C90 1.371 . S
C91 C101 1.386 . S
C91 H109 0.931 . S
C92 C90 1.365 . S
C92 C93 1.409 . S
C92 H110 0.929 . S
C93 C92 1.409 . S
C93 C94 1.380 . S
C93 H111 0.930 . S
C94 C93 1.380 . S
C94 C101 1.357 . S
C95 C86 1.511 . S
C95 C96 1.341 . S
C95 C97 1.371 . S
C96 C95 1.341 . S
C96 C100 1.394 . S
C96 H112 0.930 . S
C97 C95 1.371 . S
C97 C98 1.392 . S
C97 H113 0.931 . S
C98 C97 1.392 . S
C98 C99 1.331 . S
C98 H116 0.932 . S
C99 C98 1.331 . S
C99 C100 1.336 . S
C100 C96 1.394 . S
C100 C99 1.336 . S
C100 H115 0.929 . S
C101 C91 1.386 . S
C101 C94 1.357 . S
C101 H114 0.928 . S
H102 C78 0.931 . S
H103 C80 0.930 . S
H104 C82 0.929 . S
H105 C83 0.931 . S
H106 C85 0.930 . S
H107 C89 0.931 . S
H108 C87 0.931 . S
H109 C91 0.931 . S
H110 C92 0.929 . S
H111 C93 0.930 . S
H112 C96 0.930 . S
H113 C97 0.931 . S
H114 C101 0.928 . S
H115 C100 0.929 . S
H116 C98 0.932 . S
C117 C118 1.386 . S
C117 C119 1.397 . S
C117 H141 0.931 . S
C118 C117 1.386 . S
C118 C122 1.397 . S
C119 C117 1.397 . S
C119 C120 1.384 . S
C119 H142 0.930 . S
C120 C119 1.384 . S
C120 C121 1.377 . S
C120 C123 1.481 . S
C121 C120 1.377 . S
C121 C122 1.389 . S
C121 H143 0.929 . S
C122 C118 1.397 . S
C122 C121 1.389 . S
C122 H144 0.931 . S
C123 C120 1.481 . S
C123 C124 1.387 . S
C123 C128 1.390 . S
C124 C123 1.387 . S
C124 C125 1.401 . S
C124 H145 0.930 . S
C125 C124 1.401 . S
C125 C126 1.376 . S
C125 C134 1.511 . S
C126 C125 1.376 . S
C126 C127 1.392 . S
C126 H147 0.931 . S
C127 C126 1.392 . S
C127 C128 1.361 . S
C127 C129 1.500 . S
C128 C123 1.390 . S
C128 C127 1.361 . S
C128 H146 0.931 . S
C129 C127 1.500 . S
C129 C130 1.371 . S
C129 C131 1.365 . S
C130 C129 1.371 . S
C130 C140 1.386 . S
C130 H148 0.931 . S
C131 C129 1.365 . S
C131 C132 1.409 . S
C131 H149 0.929 . S
C132 C131 1.409 . S
C132 C133 1.380 . S
C132 H150 0.930 . S
C133 C132 1.380 . S
C133 C140 1.357 . S
C134 C125 1.511 . S
C134 C135 1.341 . S
C134 C136 1.371 . S
C135 C134 1.341 . S
C135 C139 1.394 . S
C135 H151 0.930 . S
C136 C134 1.371 . S
C136 C137 1.392 . S
C136 H152 0.931 . S
C137 C136 1.392 . S
C137 C138 1.331 . S
C137 H155 0.932 . S
C138 C137 1.331 . S
C138 C139 1.336 . S
C139 C135 1.394 . S
C139 C138 1.336 . S
C139 H154 0.929 . S
C140 C130 1.386 . S
C140 C133 1.357 . S
C140 H153 0.928 . S
H141 C117 0.931 . S
H142 C119 0.930 . S
H143 C121 0.929 . S
H144 C122 0.931 . S
H145 C124 0.930 . S
H146 C128 0.931 . S
H147 C126 0.931 . S
H148 C130 0.931 . S
H149 C131 0.929 . S
H150 C132 0.930 . S
H151 C135 0.930 . S
H152 C136 0.931 . S
H153 C140 0.928 . S
H154 C139 0.929 . S
H155 C137 0.932 . S
C156 C157 1.386 . S
C156 C158 1.397 . S
C156 H180 0.931 . S
C157 C156 1.386 . S
C157 C161 1.397 . S
C158 C156 1.397 . S
C158 C159 1.384 . S
C158 H181 0.930 . S
C159 C158 1.384 . S
C159 C160 1.377 . S
C159 C162 1.481 . S
C160 C159 1.377 . S
C160 C161 1.389 . S
C160 H182 0.929 . S
C161 C157 1.397 . S
C161 C160 1.389 . S
C161 H183 0.931 . S
C162 C159 1.481 . S
C162 C163 1.387 . S
C162 C167 1.390 . S
C163 C162 1.387 . S
C163 C164 1.401 . S
C163 H184 0.930 . S
C164 C163 1.401 . S
C164 C165 1.376 . S
C164 C173 1.511 . S
C165 C164 1.376 . S
C165 C166 1.392 . S
C165 H186 0.931 . S
C166 C165 1.392 . S
C166 C167 1.361 . S
C166 C168 1.500 . S
C167 C162 1.390 . S
C167 C166 1.361 . S
C167 H185 0.931 . S
C168 C166 1.500 . S
C168 C169 1.371 . S
C168 C170 1.365 . S
C169 C168 1.371 . S
C169 C179 1.386 . S
C169 H187 0.931 . S
C170 C168 1.365 . S
C170 C171 1.409 . S
C170 H188 0.929 . S
C171 C170 1.409 . S
C171 C172 1.380 . S
C171 H189 0.930 . S
C172 C171 1.380 . S
C172 C179 1.357 . S
C173 C164 1.511 . S
C173 C174 1.341 . S
C173 C175 1.371 . S
C174 C173 1.341 . S
C174 C178 1.394 . S
C174 H190 0.930 . S
C175 C173 1.371 . S
C175 C176 1.392 . S
C175 H191 0.931 . S
C176 C175 1.392 . S
C176 C177 1.331 . S
C176 H194 0.932 . S
C177 C176 1.331 . S
C177 C178 1.336 . S
C178 C174 1.394 . S
C178 C177 1.336 . S
C178 H193 0.929 . S
C179 C169 1.386 . S
C179 C172 1.357 . S
C179 H192 0.928 . S
H180 C156 0.931 . S
H181 C158 0.930 . S
H182 C160 0.929 . S
H183 C161 0.931 . S
H184 C163 0.930 . S
H185 C167 0.931 . S
H186 C165 0.931 . S
H187 C169 0.931 . S
H188 C170 0.929 . S
H189 C171 0.930 . S
H190 C174 0.930 . S
H191 C175 0.931 . S
H192 C179 0.928 . S
H193 C178 0.929 . S
H194 C176 0.932 . S
C195 C196 1.386 . S
C195 C197 1.397 . S
C195 H219 0.931 . S
C196 C195 1.386 . S
C196 C200 1.397 . S
C197 C195 1.397 . S
C197 C198 1.384 . S
C197 H220 0.930 . S
C198 C197 1.384 . S
C198 C199 1.377 . S
C198 C201 1.481 . S
C199 C198 1.377 . S
C199 C200 1.389 . S
C199 H221 0.929 . S
C200 C196 1.397 . S
C200 C199 1.389 . S
C200 H222 0.931 . S
C201 C198 1.481 . S
C201 C202 1.387 . S
C201 C206 1.390 . S
C202 C201 1.387 . S
C202 C203 1.401 . S
C202 H223 0.930 . S
C203 C202 1.401 . S
C203 C204 1.376 . S
C203 C212 1.511 . S
C204 C203 1.376 . S
C204 C205 1.392 . S
C204 H225 0.931 . S
C205 C204 1.392 . S
C205 C206 1.361 . S
C205 C207 1.500 . S
C206 C201 1.390 . S
C206 C205 1.361 . S
C206 H224 0.931 . S
C207 C205 1.500 . S
C207 C208 1.371 . S
C207 C209 1.365 . S
C208 C207 1.371 . S
C208 C218 1.386 . S
C208 H226 0.931 . S
C209 C207 1.365 . S
C209 C210 1.409 . S
C209 H227 0.929 . S
C210 C209 1.409 . S
C210 C211 1.380 . S
C210 H228 0.930 . S
C211 C210 1.380 . S
C211 C218 1.357 . S
C212 C203 1.511 . S
C212 C213 1.341 . S
C212 C214 1.371 . S
C213 C212 1.341 . S
C213 C217 1.394 . S
C213 H229 0.930 . S
C214 C212 1.371 . S
C214 C215 1.392 . S
C214 H230 0.931 . S
C215 C214 1.392 . S
C215 C216 1.331 . S
C215 H233 0.932 . S
C216 C215 1.331 . S
C216 C217 1.336 . S
C217 C213 1.394 . S
C217 C216 1.336 . S
C217 H232 0.929 . S
C218 C208 1.386 . S
C218 C211 1.357 . S
C218 H231 0.928 . S
H219 C195 0.931 . S
H220 C197 0.930 . S
H221 C199 0.929 . S
H222 C200 0.931 . S
H223 C202 0.930 . S
H224 C206 0.931 . S
H225 C204 0.931 . S
H226 C208 0.931 . S
H227 C209 0.929 . S
H228 C210 0.930 . S
H229 C213 0.930 . S
H230 C214 0.931 . S
H231 C218 0.928 . S
H232 C217 0.929 . S
H233 C215 0.932 . S
C234 C235 1.386 . S
C234 C236 1.397 . S
C234 H258 0.931 . S
C235 C234 1.386 . S
C235 C239 1.397 . S
C236 C234 1.397 . S
C236 C237 1.384 . S
C236 H259 0.930 . S
C237 C236 1.384 . S
C237 C238 1.377 . S
C237 C240 1.481 . S
C238 C237 1.377 . S
C238 C239 1.389 . S
C238 H260 0.929 . S
C239 C235 1.397 . S
C239 C238 1.389 . S
C239 H261 0.931 . S
C240 C237 1.481 . S
C240 C241 1.387 . S
C240 C245 1.390 . S
C241 C240 1.387 . S
C241 C242 1.401 . S
C241 H262 0.930 . S
C242 C241 1.401 . S
C242 C243 1.376 . S
C242 C251 1.511 . S
C243 C242 1.376 . S
C243 C244 1.392 . S
C243 H264 0.931 . S
C244 C243 1.392 . S
C244 C245 1.361 . S
C244 C246 1.500 . S
C245 C240 1.390 . S
C245 C244 1.361 . S
C245 H263 0.931 . S
C246 C244 1.500 . S
C246 C247 1.371 . S
C246 C248 1.365 . S
C247 C246 1.371 . S
C247 C257 1.386 . S
C247 H265 0.931 . S
C248 C246 1.365 . S
C248 C249 1.409 . S
C248 H266 0.929 . S
C249 C248 1.409 . S
C249 C250 1.380 . S
C249 H267 0.930 . S
C250 C249 1.380 . S
C250 C257 1.357 . S
C251 C242 1.511 . S
C251 C252 1.341 . S
C251 C253 1.371 . S
C252 C251 1.341 . S
C252 C256 1.394 . S
C252 H268 0.930 . S
C253 C251 1.371 . S
C253 C254 1.392 . S
C253 H269 0.931 . S
C254 C253 1.392 . S
C254 C255 1.331 . S
C254 H272 0.932 . S
C255 C254 1.331 . S
C255 C256 1.336 . S
C256 C252 1.394 . S
C256 C255 1.336 . S
C256 H271 0.929 . S
C257 C247 1.386 . S
C257 C250 1.357 . S
C257 H270 0.928 . S
H258 C234 0.931 . S
H259 C236 0.930 . S
H260 C238 0.929 . S
H261 C239 0.931 . S
H262 C241 0.930 . S
H263 C245 0.931 . S
H264 C243 0.931 . S
H265 C247 0.931 . S
H266 C248 0.929 . S
H267 C249 0.930 . S
H268 C252 0.930 . S
H269 C253 0.931 . S
H270 C257 0.928 . S
H271 C256 0.929 . S
H272 C254 0.932 . S
C273 C274 1.386 . S
C273 C275 1.397 . S
C273 H297 0.931 . S
C274 C273 1.386 . S
C274 C278 1.397 . S
C275 C273 1.397 . S
C275 C276 1.384 . S
C275 H298 0.930 . S
C276 C275 1.384 . S
C276 C277 1.377 . S
C276 C279 1.481 . S
C277 C276 1.377 . S
C277 C278 1.389 . S
C277 H299 0.929 . S
C278 C274 1.397 . S
C278 C277 1.389 . S
C278 H300 0.931 . S
C279 C276 1.481 . S
C279 C280 1.387 . S
C279 C284 1.390 . S
C280 C279 1.387 . S
C280 C281 1.401 . S
C280 H301 0.930 . S
C281 C280 1.401 . S
C281 C282 1.376 . S
C281 C290 1.511 . S
C282 C281 1.376 . S
C282 C283 1.392 . S
C282 H303 0.931 . S
C283 C282 1.392 . S
C283 C284 1.361 . S
C283 C285 1.500 . S
C284 C279 1.390 . S
C284 C283 1.361 . S
C284 H302 0.931 . S
C285 C283 1.500 . S
C285 C286 1.371 . S
C285 C287 1.365 . S
C286 C285 1.371 . S
C286 C296 1.386 . S
C286 H304 0.931 . S
C287 C285 1.365 . S
C287 C288 1.409 . S
C287 H305 0.929 . S
C288 C287 1.409 . S
C288 C289 1.380 . S
C288 H306 0.930 . S
C289 C288 1.380 . S
C289 C296 1.357 . S
C290 C281 1.511 . S
C290 C291 1.341 . S
C290 C292 1.371 . S
C291 C290 1.341 . S
C291 C295 1.394 . S
C291 H307 0.930 . S
C292 C290 1.371 . S
C292 C293 1.392 . S
C292 H308 0.931 . S
C293 C292 1.392 . S
C293 C294 1.331 . S
C293 H311 0.932 . S
C294 C293 1.331 . S
C294 C295 1.336 . S
C295 C291 1.394 . S
C295 C294 1.336 . S
C295 H310 0.929 . S
C296 C286 1.386 . S
C296 C289 1.357 . S
C296 H309 0.928 . S
H297 C273 0.931 . S
H298 C275 0.930 . S
H299 C277 0.929 . S
H300 C278 0.931 . S
H301 C280 0.930 . S
H302 C284 0.931 . S
H303 C282 0.931 . S
H304 C286 0.931 . S
H305 C287 0.929 . S
H306 C288 0.930 . S
H307 C291 0.930 . S
H308 C292 0.931 . S
H309 C296 0.928 . S
H310 C295 0.929 . S
H311 C293 0.932 . S
Tb312 C314 2.832 . S
Tb312 O332 2.520 . S
Tb312 O333 2.447 . S
Tb312 O334 2.644 1_665 S
Tb312 O335 2.382 1_565 S
Tb312 O336 2.401 1_655 S
Tb312 O340 2.352 . S
Tb312 O343 2.317 1_565 S
Tb313 C323 2.809 . S
Tb313 O334 2.325 . S
Tb313 O337 2.341 1_545 S
Tb313 O338 2.484 . S
Tb313 O339 2.440 . S
Tb313 O340 2.658 1_445 S
Tb313 O341 2.409 1_545 S
Tb313 O342 2.378 1_455 S
C314 Tb312 2.832 . S
C314 C315 1.514 . S
C314 O332 1.248 . S
C314 O333 1.266 . S
C315 C314 1.514 . S
C315 C316 1.359 . S
C315 C320 1.348 . S
C316 C315 1.359 . S
C316 C317 1.380 . S
C316 H344 0.929 . S
C317 C316 1.380 . S
C317 C318 1.347 . S
C317 H345 0.931 . S
C318 C317 1.347 . S
C318 C319 1.369 . S
C319 C318 1.369 . S
C319 C320 1.408 . S
C319 H346 0.930 . S
C320 C315 1.348 . S
C320 C319 1.408 . S
C320 H347 0.930 . S
C321 O334 1.281 . S
C321 O335 1.254 1_455 S
C322 O336 1.236 . S
C322 O337 1.266 . S
C323 Tb313 2.809 . S
C323 C324 1.514 . S
C323 O338 1.248 . S
C323 O339 1.266 . S
C324 C323 1.514 . S
C324 C325 1.359 . S
C324 C329 1.348 . S
C325 C324 1.359 . S
C325 C326 1.380 . S
C325 H348 0.929 . S
C326 C325 1.380 . S
C326 C327 1.347 . S
C326 H349 0.931 . S
C327 C326 1.347 . S
C327 C328 1.369 . S
C328 C327 1.369 . S
C328 C329 1.408 . S
C328 H350 0.930 . S
C329 C324 1.348 . S
C329 C328 1.408 . S
C329 H351 0.930 . S
C330 O340 1.281 . S
C330 O341 1.254 1_655 S
C331 O342 1.236 . S
C331 O343 1.266 . S
O332 Tb312 2.520 . S
O332 C314 1.248 . S
O333 Tb312 2.447 . S
O333 C314 1.266 . S
O334 Tb312 2.644 1_445 S
O334 Tb313 2.325 . S
O334 C321 1.281 . S
O335 Tb312 2.382 1_545 S
O335 C321 1.254 1_655 S
O336 Tb312 2.401 1_455 S
O336 C322 1.236 . S
O337 Tb313 2.341 1_565 S
O337 C322 1.266 . S
O338 Tb313 2.484 . S
O338 C323 1.248 . S
O339 Tb313 2.440 . S
O339 C323 1.266 . S
O340 Tb312 2.352 . S
O340 Tb313 2.658 1_665 S
O340 C330 1.281 . S
O341 Tb313 2.409 1_565 S
O341 C330 1.254 1_455 S
O342 Tb313 2.378 1_655 S
O342 C331 1.236 . S
O343 Tb312 2.317 1_545 S
O343 C331 1.266 . S
H344 C316 0.929 . S
H345 C317 0.931 . S
H346 C319 0.930 . S
H347 C320 0.930 . S
H348 C325 0.929 . S
H349 C326 0.931 . S
H350 C328 0.930 . S
H351 C329 0.930 . S
Tb352 C354 2.809 . S
Tb352 O372 2.484 . S
Tb352 O373 2.440 . S
Tb352 O374 2.658 1_545 S
Tb352 O375 2.409 1_545 S
Tb352 O376 2.378 . S
Tb352 O380 2.325 1_554 S
Tb352 O383 2.341 1_544 S
Tb353 C363 2.809 . S
Tb353 O374 2.325 1_556 S
Tb353 O377 2.341 1_566 S
Tb353 O378 2.484 . S
Tb353 O379 2.440 . S
Tb353 O380 2.658 1_565 S
Tb353 O381 2.409 1_565 S
Tb353 O382 2.378 . S
C354 Tb352 2.809 . S
C354 C355 1.514 . S
C354 O372 1.248 . S
C354 O373 1.266 . S
C355 C354 1.514 . S
C355 C356 1.359 . S
C355 C360 1.348 . S
C356 C355 1.359 . S
C356 C357 1.380 . S
C356 H384 0.929 . S
C357 C356 1.380 . S
C357 C358 1.347 . S
C357 H385 0.931 . S
C358 C357 1.347 . S
C358 C359 1.369 . S
C359 C358 1.369 . S
C359 C360 1.408 . S
C359 H386 0.930 . S
C360 C355 1.348 . S
C360 C359 1.408 . S
C360 H387 0.930 . S
C361 O374 1.281 . S
C361 O375 1.254 . S
C362 O376 1.236 . S
C362 O377 1.266 . S
C363 Tb353 2.809 . S
C363 C364 1.514 . S
C363 O378 1.248 . S
C363 O379 1.266 . S
C364 C363 1.514 . S
C364 C365 1.359 . S
C364 C369 1.348 . S
C365 C364 1.359 . S
C365 C366 1.380 . S
C365 H388 0.929 . S
C366 C365 1.380 . S
C366 C367 1.347 . S
C366 H389 0.931 . S
C367 C366 1.347 . S
C367 C368 1.369 . S
C368 C367 1.369 . S
C368 C369 1.408 . S
C368 H390 0.930 . S
C369 C364 1.348 . S
C369 C368 1.408 . S
C369 H391 0.930 . S
C370 O380 1.281 . S
C370 O381 1.254 . S
C371 O382 1.236 . S
C371 O383 1.266 . S
O372 Tb352 2.484 . S
O372 C354 1.248 . S
O373 Tb352 2.440 . S
O373 C354 1.266 . S
O374 Tb352 2.658 1_565 S
O374 Tb353 2.325 1_554 S
O374 C361 1.281 . S
O375 Tb352 2.409 1_565 S
O375 C361 1.254 . S
O376 Tb352 2.378 . S
O376 C362 1.236 . S
O377 Tb353 2.341 1_544 S
O377 C362 1.266 . S
O378 Tb353 2.484 . S
O378 C363 1.248 . S
O379 Tb353 2.440 . S
O379 C363 1.266 . S
O380 Tb352 2.325 1_556 S
O380 Tb353 2.658 1_545 S
O380 C370 1.281 . S
O381 Tb353 2.409 1_545 S
O381 C370 1.254 . S
O382 Tb353 2.378 . S
O382 C371 1.236 . S
O383 Tb352 2.341 1_566 S
O383 C371 1.266 . S
H384 C356 0.929 . S
H385 C357 0.931 . S
H386 C359 0.930 . S
H387 C360 0.930 . S
H388 C365 0.929 . S
H389 C366 0.931 . S
H390 C368 0.930 . S
H391 C369 0.930 . S
Tb392 C394 2.809 . S
Tb392 O412 2.484 . S
Tb392 O413 2.440 . S
Tb392 O414 2.658 . S
Tb392 O415 2.409 . S
Tb392 O416 2.378 . S
Tb392 O420 2.325 . S
Tb392 O423 2.341 . S
Tb393 C403 2.809 . S
Tb393 O414 2.325 . S
Tb393 O417 2.341 . S
Tb393 O418 2.484 . S
Tb393 O419 2.440 . S
Tb393 O420 2.658 . S
Tb393 O421 2.409 . S
Tb393 O422 2.378 . S
C394 Tb392 2.809 . S
C394 C395 1.514 . S
C394 O412 1.248 . S
C394 O413 1.266 . S
C395 C394 1.514 . S
C395 C396 1.359 . S
C395 C400 1.348 . S
C396 C395 1.359 . S
C396 C397 1.380 . S
C396 H424 0.929 . S
C397 C396 1.380 . S
C397 C398 1.347 . S
C397 H425 0.931 . S
C398 C397 1.347 . S
C398 C399 1.369 . S
C399 C398 1.369 . S
C399 C400 1.408 . S
C399 H426 0.930 . S
C400 C395 1.348 . S
C400 C399 1.408 . S
C400 H427 0.930 . S
C401 O414 1.281 . S
C401 O415 1.254 . S
C402 O416 1.236 . S
C402 O417 1.266 . S
C403 Tb393 2.809 . S
C403 C404 1.514 . S
C403 O418 1.248 . S
C403 O419 1.266 . S
C404 C403 1.514 . S
C404 C405 1.359 . S
C404 C409 1.348 . S
C405 C404 1.359 . S
C405 C406 1.380 . S
C405 H428 0.929 . S
C406 C405 1.380 . S
C406 C407 1.347 . S
C406 H429 0.931 . S
C407 C406 1.347 . S
C407 C408 1.369 . S
C408 C407 1.369 . S
C408 C409 1.408 . S
C408 H430 0.930 . S
C409 C404 1.348 . S
C409 C408 1.408 . S
C409 H431 0.930 . S
C410 O420 1.281 . S
C410 O421 1.254 . S
C411 O422 1.236 . S
C411 O423 1.266 . S
O412 Tb392 2.484 . S
O412 C394 1.248 . S
O413 Tb392 2.440 . S
O413 C394 1.266 . S
O414 Tb392 2.658 . S
O414 Tb393 2.325 . S
O414 C401 1.281 . S
O415 Tb392 2.409 . S
O415 C401 1.254 . S
O416 Tb392 2.378 . S
O416 C402 1.236 . S
O417 Tb393 2.341 . S
O417 C402 1.266 . S
O418 Tb393 2.484 . S
O418 C403 1.248 . S
O419 Tb393 2.440 . S
O419 C403 1.266 . S
O420 Tb392 2.325 . S
O420 Tb393 2.658 . S
O420 C410 1.281 . S
O421 Tb393 2.409 . S
O421 C410 1.254 . S
O422 Tb393 2.378 . S
O422 C411 1.236 . S
O423 Tb392 2.341 . S
O423 C411 1.266 . S
H424 C396 0.929 . S
H425 C397 0.931 . S
H426 C399 0.930 . S
H427 C400 0.930 . S
H428 C405 0.929 . S
H429 C406 0.931 . S
H430 C408 0.930 . S
H431 C409 0.930 . S
Tb432 C434 2.830 . S
Tb432 O452 2.511 . S
Tb432 O453 2.451 . S
Tb432 O454 2.642 1_656 S
Tb432 O455 2.390 1_656 S
Tb432 O456 2.390 1_556 S
Tb432 O460 2.336 . S
Tb432 O463 2.322 1_655 S
Tb433 C443 2.809 . S
Tb433 O454 2.325 . S
Tb433 O457 2.341 1_455 S
Tb433 O458 2.484 . S
Tb433 O459 2.440 . S
Tb433 O460 2.658 1_454 S
Tb433 O461 2.428 1_455 S
Tb433 O462 2.378 1_554 S
C434 Tb432 2.830 . S
C434 C435 1.514 . S
C434 O452 1.248 . S
C434 O453 1.266 . S
C435 C434 1.514 . S
C435 C436 1.359 . S
C435 C440 1.348 . S
C436 C435 1.359 . S
C436 C437 1.380 . S
C436 H464 0.929 . S
C437 C436 1.380 . S
C437 C438 1.347 . S
C437 H465 0.931 . S
C438 C437 1.347 . S
C438 C439 1.369 . S
C439 C438 1.369 . S
C439 C440 1.408 . S
C439 H466 0.930 . S
C440 C435 1.348 . S
C440 C439 1.408 . S
C440 H467 0.930 . S
C441 O454 1.281 . S
C441 O455 1.254 . S
C442 O456 1.236 . S
C442 O457 1.266 . S
C443 Tb433 2.809 . S
C443 C444 1.514 . S
C443 O458 1.248 . S
C443 O459 1.266 . S
C444 C443 1.514 . S
C444 C445 1.359 . S
C444 C449 1.348 . S
C445 C444 1.359 . S
C445 C446 1.380 . S
C445 H468 0.929 . S
C446 C445 1.380 . S
C446 C447 1.347 . S
C446 H469 0.931 . S
C447 C446 1.347 . S
C447 C448 1.369 . S
C448 C447 1.369 . S
C448 C449 1.408 . S
C448 H470 0.930 . S
C449 C444 1.348 . S
C449 C448 1.408 . S
C449 H471 0.930 . S
C450 O460 1.281 . S
C450 O461 1.232 1_556 S
C451 O462 1.236 . S
C451 O463 1.266 . S
O452 Tb432 2.511 . S
O452 C434 1.248 . S
O453 Tb432 2.451 . S
O453 C434 1.266 . S
O454 Tb432 2.642 1_454 S
O454 Tb433 2.325 . S
O454 C441 1.281 . S
O455 Tb432 2.390 1_454 S
O455 C441 1.254 . S
O456 Tb432 2.390 1_554 S
O456 C442 1.236 . S
O457 Tb433 2.341 1_655 S
O457 C442 1.266 . S
O458 Tb433 2.484 . S
O458 C443 1.248 . S
O459 Tb433 2.440 . S
O459 C443 1.266 . S
O460 Tb432 2.336 . S
O460 Tb433 2.658 1_656 S
O460 C450 1.281 . S
O461 Tb433 2.428 1_655 S
O461 C450 1.232 1_554 S
O462 Tb433 2.378 1_556 S
O462 C451 1.236 . S
O463 Tb432 2.322 1_455 S
O463 C451 1.266 . S
H464 C436 0.929 . S
H465 C437 0.931 . S
H466 C439 0.930 . S
H467 C440 0.930 . S
H468 C445 0.929 . S
H469 C446 0.931 . S
H470 C448 0.930 . S
H471 C449 0.930 . S
H472 C478 0.930 . S
H473 C482 0.930 . S
H474 C487 0.929 . S
H475 C485 0.929 . S
H476 C480 0.929 . S
H477 C486 0.929 . S
C478 H472 0.930 . S
C478 C479 1.367 . S
C478 C486 1.378 . S
C479 C478 1.367 . S
C479 C487 1.433 . S
C480 H476 0.929 . S
C480 C482 1.378 . S
C480 C484 1.350 . S
C481 C484 1.463 . S
C481 C486 1.350 . S
C481 N489 1.427 . S
C482 H473 0.930 . S
C482 C480 1.378 . S
C482 C483 1.367 . S
C483 C482 1.367 . S
C483 C485 1.433 . S
C484 C480 1.350 . S
C484 C481 1.463 . S
C484 N488 1.427 . S
C485 H475 0.929 . S
C485 C483 1.433 . S
C485 N488 1.384 . S
C486 H477 0.929 . S
C486 C478 1.378 . S
C486 C481 1.350 . S
C487 H474 0.929 . S
C487 C479 1.433 . S
C487 N489 1.384 . S
N488 C484 1.427 . S
N488 C485 1.384 . S
N489 C481 1.427 . S
N489 C487 1.384 . S
H490 C496 0.930 . S
H491 C500 0.930 . S
H492 C505 0.929 . S
H493 C503 0.929 . S
H494 C498 0.929 . S
H495 C504 0.929 . S
C496 H490 0.930 . S
C496 C497 1.367 . S
C496 C504 1.378 . S
C497 C496 1.367 . S
C497 C505 1.433 . S
C498 H494 0.929 . S
C498 C500 1.378 . S
C498 C502 1.350 . S
C499 C502 1.463 . S
C499 C504 1.350 . S
C499 N507 1.427 . S
C500 H491 0.930 . S
C500 C498 1.378 . S
C500 C501 1.367 . S
C501 C500 1.367 . S
C501 C503 1.433 . S
C502 C498 1.350 . S
C502 C499 1.463 . S
C502 N506 1.427 . S
C503 H493 0.929 . S
C503 C501 1.433 . S
C503 N506 1.384 . S
C504 H495 0.929 . S
C504 C496 1.378 . S
C504 C499 1.350 . S
C505 H492 0.929 . S
C505 C497 1.433 . S
C505 N507 1.384 . S
N506 C502 1.427 . S
N506 C503 1.384 . S
N507 C499 1.427 . S
N507 C505 1.384 . S
H508 C514 0.930 . S
H509 C518 0.930 . S
H510 C523 0.929 . S
H511 C521 0.929 . S
H512 C516 0.929 . S
H513 C522 0.929 . S
C514 H508 0.930 . S
C514 C515 1.367 . S
C514 C522 1.378 . S
C515 C514 1.367 . S
C515 C523 1.433 . S
C516 H512 0.929 . S
C516 C518 1.378 . S
C516 C520 1.350 . S
C517 C520 1.463 . S
C517 C522 1.350 . S
C517 N525 1.427 . S
C518 H509 0.930 . S
C518 C516 1.378 . S
C518 C519 1.367 . S
C519 C518 1.367 . S
C519 C521 1.433 . S
C520 C516 1.350 . S
C520 C517 1.463 . S
C520 N524 1.427 . S
C521 H511 0.929 . S
C521 C519 1.433 . S
C521 N524 1.384 . S
C522 H513 0.929 . S
C522 C514 1.378 . S
C522 C517 1.350 . S
C523 H510 0.929 . S
C523 C515 1.433 . S
C523 N525 1.384 . S
N524 C520 1.427 . S
N524 C521 1.384 . S
N525 C517 1.427 . S
N525 C523 1.384 . S
H526 C532 0.930 . S
H527 C536 0.930 . S
H528 C541 0.929 . S
H529 C539 0.929 . S
H530 C534 0.929 . S
H531 C540 0.929 . S
C532 H526 0.930 . S
C532 C533 1.367 . S
C532 C540 1.378 . S
C533 C532 1.367 . S
C533 C541 1.433 . S
C534 H530 0.929 . S
C534 C536 1.378 . S
C534 C538 1.350 . S
C535 C538 1.463 . S
C535 C540 1.350 . S
C535 N543 1.427 . S
C536 H527 0.930 . S
C536 C534 1.378 . S
C536 C537 1.367 . S
C537 C536 1.367 . S
C537 C539 1.433 . S
C538 C534 1.350 . S
C538 C535 1.463 . S
C538 N542 1.427 . S
C539 H529 0.929 . S
C539 C537 1.433 . S
C539 N542 1.384 . S
C540 H531 0.929 . S
C540 C532 1.378 . S
C540 C535 1.350 . S
C541 H528 0.929 . S
C541 C533 1.433 . S
C541 N543 1.384 . S
N542 C538 1.427 . S
N542 C539 1.384 . S
N543 C535 1.427 . S
N543 C541 1.384 . S
H544 C550 0.930 . S
H545 C554 0.930 . S
H546 C559 0.929 . S
H547 C557 0.929 . S
H548 C552 0.929 . S
H549 C558 0.929 . S
C550 H544 0.930 . S
C550 C551 1.367 . S
C550 C558 1.378 . S
C551 C550 1.367 . S
C551 C559 1.433 . S
C552 H548 0.929 . S
C552 C554 1.378 . S
C552 C556 1.350 . S
C553 C556 1.463 . S
C553 C558 1.350 . S
C553 N561 1.427 . S
C554 H545 0.930 . S
C554 C552 1.378 . S
C554 C555 1.367 . S
C555 C554 1.367 . S
C555 C557 1.433 . S
C556 C552 1.350 . S
C556 C553 1.463 . S
C556 N560 1.427 . S
C557 H547 0.929 . S
C557 C555 1.433 . S
C557 N560 1.384 . S
C558 H549 0.929 . S
C558 C550 1.378 . S
C558 C553 1.350 . S
C559 H546 0.929 . S
C559 C551 1.433 . S
C559 N561 1.384 . S
N560 C556 1.427 . S
N560 C557 1.384 . S
N561 C553 1.427 . S
N561 C559 1.384 . S
H562 C568 0.930 . S
H563 C572 0.930 . S
H564 C577 0.929 . S
H565 C575 0.929 . S
H566 C570 0.929 . S
H567 C576 0.929 . S
C568 H562 0.930 . S
C568 C569 1.367 . S
C568 C576 1.378 . S
C569 C568 1.367 . S
C569 C577 1.433 . S
C570 H566 0.929 . S
C570 C572 1.378 . S
C570 C574 1.350 . S
C571 C574 1.463 . S
C571 C576 1.350 . S
C571 N579 1.427 . S
C572 H563 0.930 . S
C572 C570 1.378 . S
C572 C573 1.367 . S
C573 C572 1.367 . S
C573 C575 1.433 . S
C574 C570 1.350 . S
C574 C571 1.463 . S
C574 N578 1.427 . S
C575 H565 0.929 . S
C575 C573 1.433 . S
C575 N578 1.384 . S
C576 H567 0.929 . S
C576 C568 1.378 . S
C576 C571 1.350 . S
C577 H564 0.929 . S
C577 C569 1.433 . S
C577 N579 1.384 . S
N578 C574 1.427 . S
N578 C575 1.384 . S
N579 C571 1.427 . S
N579 C577 1.384 . S
H580 C586 0.930 . S
H581 C590 0.930 . S
H582 C595 0.929 . S
H583 C593 0.929 . S
H584 C588 0.929 . S
H585 C594 0.929 . S
C586 H580 0.930 . S
C586 C587 1.367 . S
C586 C594 1.378 . S
C587 C586 1.367 . S
C587 C595 1.433 . S
C588 H584 0.929 . S
C588 C590 1.378 . S
C588 C592 1.350 . S
C589 C592 1.463 . S
C589 C594 1.350 . S
C589 N597 1.427 . S
C590 H581 0.930 . S
C590 C588 1.378 . S
C590 C591 1.367 . S
C591 C590 1.367 . S
C591 C593 1.433 . S
C592 C588 1.350 . S
C592 C589 1.463 . S
C592 N596 1.427 . S
C593 H583 0.929 . S
C593 C591 1.433 . S
C593 N596 1.384 . S
C594 H585 0.929 . S
C594 C586 1.378 . S
C594 C589 1.350 . S
C595 H582 0.929 . S
C595 C587 1.433 . S
C595 N597 1.384 . S
N596 C592 1.427 . S
N596 C593 1.384 . S
N597 C589 1.427 . S
N597 C595 1.384 . S
H598 C604 0.930 . S
H599 C608 0.930 . S
H600 C613 0.929 . S
H601 C611 0.929 . S
H602 C606 0.929 . S
H603 C612 0.929 . S
C604 H598 0.930 . S
C604 C605 1.367 . S
C604 C612 1.378 . S
C605 C604 1.367 . S
C605 C613 1.433 . S
C606 H602 0.929 . S
C606 C608 1.378 . S
C606 C610 1.350 . S
C607 C610 1.463 . S
C607 C612 1.350 . S
C607 N615 1.427 . S
C608 H599 0.930 . S
C608 C606 1.378 . S
C608 C609 1.367 . S
C609 C608 1.367 . S
C609 C611 1.433 . S
C610 C606 1.350 . S
C610 C607 1.463 . S
C610 N614 1.427 . S
C611 H601 0.929 . S
C611 C609 1.433 . S
C611 N614 1.384 . S
C612 H603 0.929 . S
C612 C604 1.378 . S
C612 C607 1.350 . S
C613 H600 0.929 . S
C613 C605 1.433 . S
C613 N615 1.384 . S
N614 C610 1.427 . S
N614 C611 1.384 . S
N615 C607 1.427 . S
N615 C613 1.384 . S
H616 C622 0.930 . S
H617 C626 0.930 . S
H618 C631 0.929 . S
H619 C629 0.929 . S
H620 C624 0.929 . S
H621 C630 0.929 . S
C622 H616 0.930 . S
C622 C623 1.367 . S
C622 C630 1.378 . S
C623 C622 1.367 . S
C623 C631 1.433 . S
C624 H620 0.929 . S
C624 C626 1.378 . S
C624 C628 1.350 . S
C625 C628 1.463 . S
C625 C630 1.350 . S
C625 N633 1.427 . S
C626 H617 0.930 . S
C626 C624 1.378 . S
C626 C627 1.367 . S
C627 C626 1.367 . S
C627 C629 1.433 . S
C628 C624 1.350 . S
C628 C625 1.463 . S
C628 N632 1.427 . S
C629 H619 0.929 . S
C629 C627 1.433 . S
C629 N632 1.384 . S
C630 H621 0.929 . S
C630 C622 1.378 . S
C630 C625 1.350 . S
C631 H618 0.929 . S
C631 C623 1.433 . S
C631 N633 1.384 . S
N632 C628 1.427 . S
N632 C629 1.384 . S
N633 C625 1.427 . S
N633 C631 1.384 . S
H634 C640 0.930 . S
H635 C644 0.930 . S
H636 C649 0.929 . S
H637 C647 0.929 . S
H638 C642 0.929 . S
H639 C648 0.929 . S
C640 H634 0.930 . S
C640 C641 1.367 . S
C640 C648 1.378 . S
C641 C640 1.367 . S
C641 C649 1.433 . S
C642 H638 0.929 . S
C642 C644 1.378 . S
C642 C646 1.350 . S
C643 C646 1.463 . S
C643 C648 1.350 . S
C643 N651 1.427 . S
C644 H635 0.930 . S
C644 C642 1.378 . S
C644 C645 1.367 . S
C645 C644 1.367 . S
C645 C647 1.433 . S
C646 C642 1.350 . S
C646 C643 1.463 . S
C646 N650 1.427 . S
C647 H637 0.929 . S
C647 C645 1.433 . S
C647 N650 1.384 . S
C648 H639 0.929 . S
C648 C640 1.378 . S
C648 C643 1.350 . S
C649 H636 0.929 . S
C649 C641 1.433 . S
C649 N651 1.384 . S
N650 C646 1.427 . S
N650 C647 1.384 . S
N651 C643 1.427 . S
N651 C649 1.384 . S
H652 C658 0.930 . S
H653 C662 0.930 . S
H654 C667 0.929 . S
H655 C665 0.929 . S
H656 C660 0.929 . S
H657 C666 0.929 . S
C658 H652 0.930 . S
C658 C659 1.367 . S
C658 C666 1.378 . S
C659 C658 1.367 . S
C659 C667 1.433 . S
C660 H656 0.929 . S
C660 C662 1.378 . S
C660 C664 1.350 . S
C661 C664 1.463 . S
C661 C666 1.350 . S
C661 N669 1.427 . S
C662 H653 0.930 . S
C662 C660 1.378 . S
C662 C663 1.367 . S
C663 C662 1.367 . S
C663 C665 1.433 . S
C664 C660 1.350 . S
C664 C661 1.463 . S
C664 N668 1.427 . S
C665 H655 0.929 . S
C665 C663 1.433 . S
C665 N668 1.384 . S
C666 H657 0.929 . S
C666 C658 1.378 . S
C666 C661 1.350 . S
C667 H654 0.929 . S
C667 C659 1.433 . S
C667 N669 1.384 . S
N668 C664 1.427 . S
N668 C665 1.384 . S
N669 C661 1.427 . S
N669 C667 1.384 . S
H670 C676 0.930 . S
H671 C680 0.930 . S
H672 C685 0.929 . S
H673 C683 0.929 . S
H674 C678 0.929 . S
H675 C684 0.929 . S
C676 H670 0.930 . S
C676 C677 1.367 . S
C676 C684 1.378 . S
C677 C676 1.367 . S
C677 C685 1.433 . S
C678 H674 0.929 . S
C678 C680 1.378 . S
C678 C682 1.350 . S
C679 C682 1.463 . S
C679 C684 1.350 . S
C679 N687 1.427 . S
C680 H671 0.930 . S
C680 C678 1.378 . S
C680 C681 1.367 . S
C681 C680 1.367 . S
C681 C683 1.433 . S
C682 C678 1.350 . S
C682 C679 1.463 . S
C682 N686 1.427 . S
C683 H673 0.929 . S
C683 C681 1.433 . S
C683 N686 1.384 . S
C684 H675 0.929 . S
C684 C676 1.378 . S
C684 C679 1.350 . S
C685 H672 0.929 . S
C685 C677 1.433 . S
C685 N687 1.384 . S
N686 C682 1.427 . S
N686 C683 1.384 . S
N687 C679 1.427 . S
N687 C685 1.384 . S
H688 C694 0.930 . S
H689 C698 0.930 . S
H690 C703 0.929 . S
H691 C701 0.929 . S
H692 C696 0.929 . S
H693 C702 0.929 . S
C694 H688 0.930 . S
C694 C695 1.367 . S
C694 C702 1.378 . S
C695 C694 1.367 . S
C695 C703 1.433 . S
C696 H692 0.929 . S
C696 C698 1.378 . S
C696 C700 1.350 . S
C697 C700 1.463 . S
C697 C702 1.350 . S
C697 N705 1.427 . S
C698 H689 0.930 . S
C698 C696 1.378 . S
C698 C699 1.367 . S
C699 C698 1.367 . S
C699 C701 1.433 . S
C700 C696 1.350 . S
C700 C697 1.463 . S
C700 N704 1.427 . S
C701 H691 0.929 . S
C701 C699 1.433 . S
C701 N704 1.384 . S
C702 H693 0.929 . S
C702 C694 1.378 . S
C702 C697 1.350 . S
C703 H690 0.929 . S
C703 C695 1.433 . S
C703 N705 1.384 . S
N704 C700 1.427 . S
N704 C701 1.384 . S
N705 C697 1.427 . S
N705 C703 1.384 . S
H706 C712 0.930 . S
H707 C716 0.930 . S
H708 C721 0.929 . S
H709 C719 0.929 . S
H710 C714 0.929 . S
H711 C720 0.929 . S
C712 H706 0.930 . S
C712 C713 1.367 . S
C712 C720 1.378 . S
C713 C712 1.367 . S
C713 C721 1.433 . S
C714 H710 0.929 . S
C714 C716 1.378 . S
C714 C718 1.350 . S
C715 C718 1.463 . S
C715 C720 1.350 . S
C715 N723 1.427 . S
C716 H707 0.930 . S
C716 C714 1.378 . S
C716 C717 1.367 . S
C717 C716 1.367 . S
C717 C719 1.433 . S
C718 C714 1.350 . S
C718 C715 1.463 . S
C718 N722 1.427 . S
C719 H709 0.929 . S
C719 C717 1.433 . S
C719 N722 1.384 . S
C720 H711 0.929 . S
C720 C712 1.378 . S
C720 C715 1.350 . S
C721 H708 0.929 . S
C721 C713 1.433 . S
C721 N723 1.384 . S
N722 C718 1.427 . S
N722 C719 1.384 . S
N723 C715 1.427 . S
N723 C721 1.384 . S
H724 C730 0.930 . S
H725 C734 0.930 . S
H726 C739 0.929 . S
H727 C737 0.929 . S
H728 C732 0.929 . S
H729 C738 0.929 . S
C730 H724 0.930 . S
C730 C731 1.367 . S
C730 C738 1.378 . S
C731 C730 1.367 . S
C731 C739 1.433 . S
C732 H728 0.929 . S
C732 C734 1.378 . S
C732 C736 1.350 . S
C733 C736 1.463 . S
C733 C738 1.350 . S
C733 N741 1.427 . S
C734 H725 0.930 . S
C734 C732 1.378 . S
C734 C735 1.367 . S
C735 C734 1.367 . S
C735 C737 1.433 . S
C736 C732 1.350 . S
C736 C733 1.463 . S
C736 N740 1.427 . S
C737 H727 0.929 . S
C737 C735 1.433 . S
C737 N740 1.384 . S
C738 H729 0.929 . S
C738 C730 1.378 . S
C738 C733 1.350 . S
C739 H726 0.929 . S
C739 C731 1.433 . S
C739 N741 1.384 . S
N740 C736 1.427 . S
N740 C737 1.384 . S
N741 C733 1.427 . S
N741 C739 1.384 . S
H742 C748 0.930 . S
H743 C752 0.930 . S
H744 C757 0.929 . S
H745 C755 0.929 . S
H746 C750 0.929 . S
H747 C756 0.929 . S
C748 H742 0.930 . S
C748 C749 1.367 . S
C748 C756 1.378 . S
C749 C748 1.367 . S
C749 C757 1.433 . S
C750 H746 0.929 . S
C750 C752 1.378 . S
C750 C754 1.350 . S
C751 C754 1.463 . S
C751 C756 1.350 . S
C751 N759 1.427 . S
C752 H743 0.930 . S
C752 C750 1.378 . S
C752 C753 1.367 . S
C753 C752 1.367 . S
C753 C755 1.433 . S
C754 C750 1.350 . S
C754 C751 1.463 . S
C754 N758 1.427 . S
C755 H745 0.929 . S
C755 C753 1.433 . S
C755 N758 1.384 . S
C756 H747 0.929 . S
C756 C748 1.378 . S
C756 C751 1.350 . S
C757 H744 0.929 . S
C757 C749 1.433 . S
C757 N759 1.384 . S
N758 C754 1.427 . S
N758 C755 1.384 . S
N759 C751 1.427 . S
N759 C757 1.384 . S
H760 C766 0.930 . S
H761 C770 0.930 . S
H762 C775 0.929 . S
H763 C773 0.929 . S
H764 C768 0.929 . S
H765 C774 0.929 . S
C766 H760 0.930 . S
C766 C767 1.367 . S
C766 C774 1.378 . S
C767 C766 1.367 . S
C767 C775 1.433 . S
C768 H764 0.929 . S
C768 C770 1.378 . S
C768 C772 1.350 . S
C769 C772 1.463 . S
C769 C774 1.350 . S
C769 N777 1.427 . S
C770 H761 0.930 . S
C770 C768 1.378 . S
C770 C771 1.367 . S
C771 C770 1.367 . S
C771 C773 1.433 . S
C772 C768 1.350 . S
C772 C769 1.463 . S
C772 N776 1.427 . S
C773 H763 0.929 . S
C773 C771 1.433 . S
C773 N776 1.384 . S
C774 H765 0.929 . S
C774 C766 1.378 . S
C774 C769 1.350 . S
C775 H762 0.929 . S
C775 C767 1.433 . S
C775 N777 1.384 . S
N776 C772 1.427 . S
N776 C773 1.384 . S
N777 C769 1.427 . S
N777 C775 1.384 . S
H778 C784 0.930 . S
H779 C788 0.930 1_455 S
H780 C793 0.929 . S
H781 C791 0.929 . S
H782 C786 0.929 1_455 S
H783 C792 0.929 . S
C784 H778 0.930 . S
C784 C785 1.367 . S
C784 C792 1.378 . S
C785 C784 1.367 . S
C785 C793 1.433 . S
C786 H782 0.929 1_655 S
C786 C788 1.378 . S
C786 C790 1.350 . S
C787 C790 1.463 . S
C787 C792 1.350 . S
C787 N795 1.427 . S
C788 H779 0.930 1_655 S
C788 C786 1.378 . S
C788 C789 1.367 . S
C789 C788 1.367 . S
C789 C791 1.433 . S
C790 C786 1.350 . S
C790 C787 1.463 . S
C790 N794 1.427 . S
C791 H781 0.929 . S
C791 C789 1.433 . S
C791 N794 1.384 . S
C792 H783 0.929 . S
C792 C784 1.378 . S
C792 C787 1.350 . S
C793 H780 0.929 . S
C793 C785 1.433 . S
C793 N795 1.384 . S
N794 C790 1.427 . S
N794 C791 1.384 . S
N795 C787 1.427 . S
N795 C793 1.384 . S
H796 C802 0.930 . S
H797 C806 0.930 . S
H798 C811 0.929 . S
H799 C809 0.929 . S
H800 C804 0.929 . S
H801 C810 0.929 . S
C802 H796 0.930 . S
C802 C803 1.367 . S
C802 C810 1.378 . S
C803 C802 1.367 . S
C803 C811 1.433 . S
C804 H800 0.929 . S
C804 C806 1.378 . S
C804 C808 1.350 . S
C805 C808 1.463 . S
C805 C810 1.350 . S
C805 N813 1.427 . S
C806 H797 0.930 . S
C806 C804 1.378 . S
C806 C807 1.367 . S
C807 C806 1.367 . S
C807 C809 1.433 . S
C808 C804 1.350 . S
C808 C805 1.463 . S
C808 N812 1.427 . S
C809 H799 0.929 . S
C809 C807 1.433 . S
C809 N812 1.384 . S
C810 H801 0.929 . S
C810 C802 1.378 . S
C810 C805 1.350 . S
C811 H798 0.929 . S
C811 C803 1.433 . S
C811 N813 1.384 . S
N812 C808 1.427 . S
N812 C809 1.384 . S
N813 C805 1.427 . S
N813 C811 1.384 . S
H814 C820 0.930 . S
H815 C824 0.930 . S
H816 C829 0.929 . S
H817 C827 0.929 . S
H818 C822 0.929 . S
H819 C828 0.929 . S
C820 H814 0.930 . S
C820 C821 1.367 . S
C820 C828 1.378 . S
C821 C820 1.367 . S
C821 C829 1.433 . S
C822 H818 0.929 . S
C822 C824 1.378 . S
C822 C826 1.350 . S
C823 C826 1.463 . S
C823 C828 1.350 . S
C823 N831 1.427 . S
C824 H815 0.930 . S
C824 C822 1.378 . S
C824 C825 1.367 . S
C825 C824 1.367 . S
C825 C827 1.433 . S
C826 C822 1.350 . S
C826 C823 1.463 . S
C826 N830 1.427 . S
C827 H817 0.929 . S
C827 C825 1.433 . S
C827 N830 1.384 . S
C828 H819 0.929 . S
C828 C820 1.378 . S
C828 C823 1.350 . S
C829 H816 0.929 . S
C829 C821 1.433 . S
C829 N831 1.384 . S
N830 C826 1.427 . S
N830 C827 1.384 . S
N831 C823 1.427 . S
N831 C829 1.384 . S
H832 C838 0.930 . S
H833 C842 0.930 . S
H834 C847 0.929 . S
H835 C845 0.929 . S
H836 C840 0.929 . S
H837 C846 0.929 . S
C838 H832 0.930 . S
C838 C839 1.367 . S
C838 C846 1.378 . S
C839 C838 1.367 . S
C839 C847 1.433 . S
C840 H836 0.929 . S
C840 C842 1.378 . S
C840 C844 1.350 . S
C841 C844 1.463 . S
C841 C846 1.350 . S
C841 N849 1.427 . S
C842 H833 0.930 . S
C842 C840 1.378 . S
C842 C843 1.367 . S
C843 C842 1.367 . S
C843 C845 1.433 . S
C844 C840 1.350 . S
C844 C841 1.463 . S
C844 N848 1.427 . S
C845 H835 0.929 . S
C845 C843 1.433 . S
C845 N848 1.384 . S
C846 H837 0.929 . S
C846 C838 1.378 . S
C846 C841 1.350 . S
C847 H834 0.929 . S
C847 C839 1.433 . S
C847 N849 1.384 . S
N848 C844 1.427 . S
N848 C845 1.384 . S
N849 C841 1.427 . S
N849 C847 1.384 . S
H850 C856 0.930 . S
H851 C860 0.930 . S
H852 C865 0.929 . S
H853 C863 0.929 . S
H854 C858 0.929 . S
H855 C864 0.929 . S
C856 H850 0.930 . S
C856 C857 1.367 . S
C856 C864 1.378 . S
C857 C856 1.367 . S
C857 C865 1.433 . S
C858 H854 0.929 . S
C858 C860 1.378 . S
C858 C862 1.350 . S
C859 C862 1.463 . S
C859 C864 1.350 . S
C859 N867 1.427 . S
C860 H851 0.930 . S
C860 C858 1.378 . S
C860 C861 1.367 . S
C861 C860 1.367 . S
C861 C863 1.433 . S
C862 C858 1.350 . S
C862 C859 1.463 . S
C862 N866 1.427 . S
C863 H853 0.929 . S
C863 C861 1.433 . S
C863 N866 1.384 . S
C864 H855 0.929 . S
C864 C856 1.378 . S
C864 C859 1.350 . S
C865 H852 0.929 . S
C865 C857 1.433 . S
C865 N867 1.384 . S
N866 C862 1.427 . S
N866 C863 1.384 . S
N867 C859 1.427 . S
N867 C865 1.384 . S
H868 C874 0.930 . S
H869 C878 0.930 . S
H870 C883 0.929 . S
H871 C881 0.929 . S
H872 C876 0.929 . S
H873 C882 0.929 . S
C874 H868 0.930 . S
C874 C875 1.367 . S
C874 C882 1.378 . S
C875 C874 1.367 . S
C875 C883 1.433 . S
C876 H872 0.929 . S
C876 C878 1.378 . S
C876 C880 1.350 . S
C877 C880 1.463 . S
C877 C882 1.350 . S
C877 N885 1.427 . S
C878 H869 0.930 . S
C878 C876 1.378 . S
C878 C879 1.367 . S
C879 C878 1.367 . S
C879 C881 1.433 . S
C880 C876 1.350 . S
C880 C877 1.463 . S
C880 N884 1.427 . S
C881 H871 0.929 . S
C881 C879 1.433 . S
C881 N884 1.384 . S
C882 H873 0.929 . S
C882 C874 1.378 . S
C882 C877 1.350 . S
C883 H870 0.929 . S
C883 C875 1.433 . S
C883 N885 1.384 . S
N884 C880 1.427 . S
N884 C881 1.384 . S
N885 C877 1.427 . S
N885 C883 1.384 . S
H886 C892 0.930 . S
H887 C896 0.930 . S
H888 C901 0.929 . S
H889 C899 0.929 . S
H890 C894 0.929 . S
H891 C900 0.929 . S
C892 H886 0.930 . S
C892 C893 1.367 . S
C892 C900 1.378 . S
C893 C892 1.367 . S
C893 C901 1.433 . S
C894 H890 0.929 . S
C894 C896 1.378 . S
C894 C898 1.350 . S
C895 C898 1.463 . S
C895 C900 1.350 . S
C895 N903 1.427 . S
C896 H887 0.930 . S
C896 C894 1.378 . S
C896 C897 1.367 . S
C897 C896 1.367 . S
C897 C899 1.433 . S
C898 C894 1.350 . S
C898 C895 1.463 . S
C898 N902 1.427 . S
C899 H889 0.929 . S
C899 C897 1.433 . S
C899 N902 1.384 . S
C900 H891 0.929 . S
C900 C892 1.378 . S
C900 C895 1.350 . S
C901 H888 0.929 . S
C901 C893 1.433 . S
C901 N903 1.384 . S
N902 C898 1.427 . S
N902 C899 1.384 . S
N903 C895 1.427 . S
N903 C901 1.384 . S
C479 C1 1.330 . S
C483 C327 1.350 . S
C497 C40 1.323 . S
C501 C367 1.353 . S
C519 C401 2.264 . S
C515 C99 2.280 . S
C533 C118 2.647 . S
C537 C442 2.596 . S
C555 C362 1.464 . S
C551 C16 1.416 . S
C573 C322 2.216 . S
C569 C60 2.113 . S
C591 C450 1.575 . S
C587 C79 1.581 . S
C609 C411 1.806 . S
C605 C138 1.869 . S
C623 C21 1.365 . S
C627 C447 1.393 . S
C645 C370 1.999 . S
C641 C94 2.054 . S
C659 C133 2.460 . S
C663 C330 2.384 . S
C677 C55 1.584 . S
C681 C398 1.644 . S
C699 C318 1.342 . S
C695 C157 1.329 . S
C713 C196 1.293 . S
C717 C358 1.339 . S
C731 C255 2.284 . S
C735 C410 2.263 . S
C749 C289 2.641 . S
C753 C451 2.593 . S
C767 C172 1.411 . S
C771 C371 1.460 . S
C789 C331 2.216 . S
C785 C216 2.078 . S
C807 C441 1.582 . S
C803 C235 1.585 . S
C825 C402 1.800 . S
C821 C294 1.868 . S
C839 C177 1.384 . S
C843 C438 1.392 . S
C861 C361 2.007 . S
C857 C250 2.055 . S
C879 C321 2.385 . S
C875 C274 2.460 . S
C893 C211 1.589 . S
C897 C407 1.639 . S
