# Generated by pormake.
# Topology zzz, (3,6)-cn, num edge types: 1
# Building blocks:
#     Node 0, Type 0, BuildingBlock: BETDIP_clean_linker_0, # of connection points: 3
#     Node 1, Type 0, BuildingBlock: BETDIP_clean_linker_0, # of connection points: 3
#     Node 2, Type 0, BuildingBlock: BETDIP_clean_linker_0, # of connection points: 3
#     Node 3, Type 0, BuildingBlock: BETDIP_clean_linker_0, # of connection points: 3
#     Node 4, Type 0, BuildingBlock: BETDIP_clean_linker_0, # of connection points: 3
#     Node 5, Type 0, BuildingBlock: BETDIP_clean_linker_0, # of connection points: 3
#     Node 6, Type 0, BuildingBlock: BETDIP_clean_linker_0, # of connection points: 3
#     Node 7, Type 0, BuildingBlock: BETDIP_clean_linker_0, # of connection points: 3
#     Node 8, Type 1, BuildingBlock: FUNLAD_clean_sbu_0, # of connection points: 6
#     Node 9, Type 1, BuildingBlock: FUNLAD_clean_sbu_0, # of connection points: 6
#     Node 10, Type 1, BuildingBlock: FUNLAD_clean_sbu_0, # of connection points: 6
#     Node 11, Type 1, BuildingBlock: FUNLAD_clean_sbu_0, # of connection points: 6
#     Edge 12, Type (0, 1), BuildingBlock: MIFKUJ_clean_linker_0, # of connection points: 2
#     Edge 13, Type (0, 1), BuildingBlock: MIFKUJ_clean_linker_0, # of connection points: 2
#     Edge 14, Type (0, 1), BuildingBlock: MIFKUJ_clean_linker_0, # of connection points: 2
#     Edge 15, Type (0, 1), BuildingBlock: MIFKUJ_clean_linker_0, # of connection points: 2
#     Edge 16, Type (0, 1), BuildingBlock: MIFKUJ_clean_linker_0, # of connection points: 2
#     Edge 17, Type (0, 1), BuildingBlock: MIFKUJ_clean_linker_0, # of connection points: 2
#     Edge 18, Type (0, 1), BuildingBlock: MIFKUJ_clean_linker_0, # of connection points: 2
#     Edge 19, Type (0, 1), BuildingBlock: MIFKUJ_clean_linker_0, # of connection points: 2
#     Edge 20, Type (0, 1), BuildingBlock: MIFKUJ_clean_linker_0, # of connection points: 2
#     Edge 21, Type (0, 1), BuildingBlock: MIFKUJ_clean_linker_0, # of connection points: 2
#     Edge 22, Type (0, 1), BuildingBlock: MIFKUJ_clean_linker_0, # of connection points: 2
#     Edge 23, Type (0, 1), BuildingBlock: MIFKUJ_clean_linker_0, # of connection points: 2
#     Edge 24, Type (0, 1), BuildingBlock: MIFKUJ_clean_linker_0, # of connection points: 2
#     Edge 25, Type (0, 1), BuildingBlock: MIFKUJ_clean_linker_0, # of connection points: 2
#     Edge 26, Type (0, 1), BuildingBlock: MIFKUJ_clean_linker_0, # of connection points: 2
#     Edge 27, Type (0, 1), BuildingBlock: MIFKUJ_clean_linker_0, # of connection points: 2
#     Edge 28, Type (0, 1), BuildingBlock: MIFKUJ_clean_linker_0, # of connection points: 2
#     Edge 29, Type (0, 1), BuildingBlock: MIFKUJ_clean_linker_0, # of connection points: 2
#     Edge 30, Type (0, 1), BuildingBlock: MIFKUJ_clean_linker_0, # of connection points: 2
#     Edge 31, Type (0, 1), BuildingBlock: MIFKUJ_clean_linker_0, # of connection points: 2
#     Edge 32, Type (0, 1), BuildingBlock: MIFKUJ_clean_linker_0, # of connection points: 2
#     Edge 33, Type (0, 1), BuildingBlock: MIFKUJ_clean_linker_0, # of connection points: 2
#     Edge 34, Type (0, 1), BuildingBlock: MIFKUJ_clean_linker_0, # of connection points: 2
#     Edge 35, Type (0, 1), BuildingBlock: MIFKUJ_clean_linker_0, # of connection points: 2
# Relax obj value: 0.126
# Max RMSD: 0.177
# Mean RMSD: 0.090
data_MOF--net-zzz--node1-FUNLAD_clean_sbu_0--node2-BETDIP_clean_linker_0--edge1-MIFKUJ_clean_linker_0
_symmetry_space_group_name_H-M    P1
_symmetry_Int_Tables_number       1
_symmetry_cell_setting            triclinic
loop_
_symmetry_equiv_pos_as_xyz
'x, y, z'
_cell_length_a     66.631516
_cell_length_b     72.262219
_cell_length_c     22.20785
_cell_angle_alpha  86.248685
_cell_angle_beta   86.017113
_cell_angle_gamma 89.205746
loop_
_atom_site_label
_atom_site_type_symbol
_atom_site_fract_x
_atom_site_fract_y
_atom_site_fract_z
_atom_type_partial_charge
H0 H 0.78626 0.5084 0.32936 0.0
H1 H 0.79892 0.50026 0.13987 0.0
H2 H 0.84559 0.49181 0.26273 0.0
H3 H 0.77792 0.53132 0.15036 0.0
C4 C 0.76619 0.52206 0.17039 0.0
C5 C 0.7966 0.50442 0.29251 0.0
C6 C 0.8166 0.49958 0.30329 0.0
C7 C 0.79019 0.50477 0.23347 0.0
C8 C 0.80376 0.49993 0.18554 0.0
C9 C 0.8237 0.49525 0.19603 0.0
C10 C 0.82998 0.495 0.25488 0.0
N11 N 0.77024 0.51034 0.2221 0.0
H12 H 0.95125 0.76976 0.20116 0.0
H13 H 0.96961 0.78314 0.01343 0.0
H14 H 0.95921 0.8265 0.13495 0.0
H15 H 0.9451 0.75813 0.00916 0.0
C16 C 0.95344 0.7488 0.03894 0.0
C17 C 0.95478 0.77995 0.16411 0.0
C18 C 0.95424 0.79893 0.17433 0.0
C19 C 0.95942 0.77422 0.10539 0.0
C20 C 0.96497 0.78752 0.05806 0.0
C21 C 0.96496 0.80643 0.0685 0.0
C22 C 0.95903 0.81196 0.12627 0.0
N23 N 0.9591 0.75506 0.09466 0.0
H24 H 0.75797 0.98326 0.21707 0.0
H25 H 0.74903 0.99736 0.02867 0.0
H26 H 0.69901 0.99751 0.16128 0.0
H27 H 0.77408 0.97396 0.021 0.0
C28 C 0.78453 0.97994 0.04965 0.0
C29 C 0.74819 0.9875 0.1816 0.0
C30 C 0.72752 0.99045 0.1959 0.0
C31 C 0.75608 0.98958 0.12087 0.0
C32 C 0.74311 0.99513 0.07518 0.0
C33 C 0.72253 0.99832 0.08954 0.0
C34 C 0.71499 0.99577 0.14984 0.0
N35 N 0.77701 0.98635 0.1064 0.0
H36 H 0.55324 0.71212 0.21057 0.0
H37 H 0.53217 0.70597 0.03361 0.0
H38 H 0.52486 0.66163 0.17127 0.0
H39 H 0.56103 0.72593 0.01048 0.0
C40 C 0.55567 0.73599 0.04234 0.0
C41 C 0.54602 0.70392 0.17926 0.0
C42 C 0.53923 0.686 0.19794 0.0
C43 C 0.54358 0.71126 0.11994 0.0
C44 C 0.53436 0.70044 0.07922 0.0
C45 C 0.5273 0.68264 0.09794 0.0
C46 C 0.52972 0.67562 0.15727 0.0
N47 N 0.54961 0.72978 0.10289 0.0
H48 H 0.25511 0.50808 0.05205 0.0
H49 H 0.24291 0.51269 0.24376 0.0
H50 H 0.19567 0.49802 0.1345 0.0
H51 H 0.26471 0.5391 0.21122 0.0
C52 C 0.27637 0.52949 0.19568 0.0
C53 C 0.24485 0.50687 0.09211 0.0
C54 C 0.22471 0.50194 0.08746 0.0
C55 C 0.25144 0.511 0.14847 0.0
C56 C 0.23785 0.50982 0.20002 0.0
C57 C 0.21775 0.50504 0.19556 0.0
C58 C 0.21139 0.50097 0.13914 0.0
N59 N 0.27161 0.51658 0.15327 0.0
H60 H 0.07099 0.23352 0.16405 0.0
H61 H 0.05093 0.22035 0.3506 0.0
H62 H 0.07265 0.17725 0.23888 0.0
H63 H 0.02832 0.24415 0.322 0.0
C64 C 0.03991 0.25405 0.30563 0.0
C65 C 0.0688 0.22352 0.20238 0.0
C66 C 0.07338 0.20469 0.19562 0.0
C67 C 0.06067 0.2293 0.2583 0.0
C68 C 0.05711 0.21607 0.30725 0.0
C69 C 0.06134 0.19723 0.30057 0.0
C70 C 0.06995 0.19182 0.24512 0.0
N71 N 0.05583 0.24834 0.26469 0.0
H72 H 0.28375 0.00766 0.14881 0.0
H73 H 0.29098 0.98895 0.33504 0.0
H74 H 0.3422 0.99194 0.20707 0.0
H75 H 0.26007 0.97433 0.31382 0.0
C76 C 0.25276 0.98728 0.29961 0.0
C77 C 0.29322 0.00265 0.18424 0.0
C78 C 0.31409 0.00031 0.17118 0.0
C79 C 0.28457 0.99801 0.24317 0.0
C80 C 0.29719 0.99185 0.28905 0.0
C81 C 0.31788 0.98948 0.27585 0.0
C82 C 0.32611 0.99358 0.21704 0.0
N83 N 0.26334 0.99967 0.25624 0.0
H84 H 0.49655 0.2871 0.15088 0.0
H85 H 0.5103 0.29882 0.33182 0.0
H86 H 0.51038 0.34259 0.1918 0.0
H87 H 0.48804 0.27472 0.35427 0.0
C88 C 0.49428 0.26498 0.32254 0.0
C89 C 0.50045 0.29683 0.1832 0.0
C90 C 0.5032 0.31563 0.16462 0.0
C91 C 0.5027 0.29062 0.24387 0.0
C92 C 0.50805 0.3034 0.28537 0.0
C93 C 0.51051 0.32223 0.26702 0.0
C94 C 0.50816 0.3281 0.20664 0.0
N95 N 0.50002 0.27147 0.26195 0.0
C96 C 0.03418 0.96931 0.75022 0.0
N97 N 0.00457 0.97355 0.59185 0.0
C98 C 0.01772 0.96004 0.5743 0.0
C99 C 0.01121 0.94523 0.54385 0.0
C100 C 0.99091 0.94418 0.53153 0.0
C101 C 0.97769 0.95849 0.54889 0.0
C102 C 0.9849 0.97318 0.579 0.0
Zn103 Zn 0.01448 0.99201 0.6489 0.0
C104 C 0.98366 0.99677 0.75289 0.0
N105 N 0.03603 0.02643 0.77878 0.0
C106 C 0.0557 0.02754 0.79118 0.0
C107 C 0.02235 0.03943 0.79695 0.0
C108 C 0.02822 0.05438 0.82789 0.0
C109 C 0.04844 0.05617 0.84008 0.0
C110 C 0.06228 0.04243 0.82179 0.0
Zn111 Zn 0.0264 0.00775 0.7215 0.0
O112 O 0.0255 0.9694 0.70111 0.0
C113 C 0.05723 0.00272 0.61715 0.0
O114 O 0.03727 0.98456 0.77346 0.0
H115 H 0.00692 0.03869 0.78526 0.0
H116 H 0.03318 0.96029 0.58615 0.0
H117 H 0.06641 0.01721 0.77569 0.0
O118 O 0.04266 0.99424 0.59759 0.0
O119 O 0.05472 0.00988 0.66808 0.0
H120 H 0.97465 0.98396 0.59384 0.0
O121 O 0.01506 0.03037 0.66948 0.0
O122 O 0.00367 0.01505 0.59694 0.0
O123 O 0.99812 0.00519 0.7733 0.0
O124 O 0.98633 0.98997 0.70152 0.0
C125 C 0.00636 0.03031 0.62044 0.0
H126 H 0.02183 0.93435 0.53207 0.0
H127 H 0.96194 0.95824 0.53977 0.0
H128 H 0.01712 0.06482 0.84018 0.0
H129 H 0.07801 0.04327 0.83064 0.0
C130 C 0.49275 0.98963 0.59874 0.0
N131 N 0.5177 0.04115 0.62776 0.0
C132 C 0.51666 0.04408 0.5669 0.0
C133 C 0.51529 0.06206 0.54026 0.0
C134 C 0.51533 0.07736 0.57623 0.0
C135 C 0.51657 0.0739 0.63903 0.0
C136 C 0.51763 0.05563 0.66395 0.0
Zn137 Zn 0.5196 0.01418 0.66318 0.0
C138 C 0.48774 0.00463 0.76051 0.0
N139 N 0.52311 0.9572 0.72825 0.0
C140 C 0.52565 0.94281 0.6918 0.0
C141 C 0.52246 0.95429 0.78952 0.0
C142 C 0.52463 0.93645 0.8164 0.0
C143 C 0.5274 0.92129 0.78008 0.0
C144 C 0.5278 0.92466 0.71687 0.0
Zn145 Zn 0.52108 0.98407 0.69285 0.0
O146 O 0.49833 0.00618 0.60374 0.0
C147 C 0.55284 0.9934 0.59544 0.0
O148 O 0.5006 0.97646 0.63019 0.0
H149 H 0.52051 0.9659 0.81778 0.0
H150 H 0.51684 0.03242 0.53871 0.0
H151 H 0.52613 0.94541 0.6432 0.0
O152 O 0.54417 0.00915 0.59872 0.0
O153 O 0.54607 0.97973 0.62951 0.0
H154 H 0.51851 0.05304 0.71222 0.0
O155 O 0.54155 0.99217 0.7553 0.0
O156 O 0.54096 0.02154 0.7228 0.0
O157 O 0.49604 0.98883 0.75461 0.0
O158 O 0.49502 0.01869 0.7292 0.0
C159 C 0.54788 0.00861 0.75724 0.0
H160 H 0.51398 0.06385 0.49191 0.0
H161 H 0.51698 0.08517 0.66873 0.0
H162 H 0.52456 0.93464 0.8652 0.0
H163 H 0.52965 0.91341 0.68703 0.0
C164 C 0.53695 0.47751 0.60144 0.0
N165 N 0.48107 0.5042 0.62499 0.0
C166 C 0.48313 0.50584 0.56349 0.0
C167 C 0.46632 0.50781 0.52976 0.0
C168 C 0.44701 0.50835 0.55922 0.0
C169 C 0.44521 0.50634 0.62284 0.0
C170 C 0.46256 0.50427 0.65505 0.0
Zn171 Zn 0.50732 0.50269 0.66813 0.0
C172 C 0.50997 0.47179 0.75935 0.0
N173 N 0.56456 0.50044 0.74311 0.0
C174 C 0.58273 0.5029 0.71184 0.0
C175 C 0.5631 0.49783 0.8045 0.0
C176 C 0.58026 0.49775 0.83693 0.0
C177 C 0.59919 0.50049 0.80613 0.0
C178 C 0.60034 0.50304 0.74268 0.0
Zn179 Zn 0.53821 0.5015 0.7008 0.0
O180 O 0.51917 0.48412 0.60485 0.0
C181 C 0.53558 0.53246 0.61003 0.0
O182 O 0.54953 0.48254 0.63748 0.0
H183 H 0.54853 0.49613 0.82866 0.0
H184 H 0.49792 0.50586 0.54023 0.0
H185 H 0.58353 0.50496 0.66306 0.0
O186 O 0.51795 0.52587 0.61199 0.0
O187 O 0.54854 0.52453 0.64262 0.0
H188 H 0.46126 0.50301 0.70397 0.0
O189 O 0.52648 0.52038 0.76374 0.0
O190 O 0.49601 0.52136 0.73189 0.0
O191 O 0.52749 0.47862 0.75767 0.0
O192 O 0.49703 0.47937 0.7258 0.0
C193 C 0.50861 0.5268 0.76721 0.0
H194 H 0.46848 0.5089 0.48088 0.0
H195 H 0.43063 0.50679 0.64748 0.0
H196 H 0.57863 0.49606 0.88585 0.0
H197 H 0.61469 0.50512 0.71724 0.0
C198 C 0.04429 0.51376 0.59497 0.0
N199 N 0.02381 0.46031 0.64659 0.0
C200 C 0.02285 0.45926 0.58588 0.0
C201 C 0.02553 0.44232 0.55967 0.0
C202 C 0.02895 0.42619 0.59626 0.0
C203 C 0.02946 0.42752 0.65896 0.0
C204 C 0.02699 0.44487 0.68331 0.0
Zn205 Zn 0.02089 0.4861 0.67978 0.0
C206 C 0.05388 0.49516 0.75541 0.0
N207 N 0.0155 0.54129 0.73755 0.0
C208 C 0.01173 0.55637 0.69996 0.0
C209 C 0.01646 0.54279 0.79803 0.0
C210 C 0.01311 0.55985 0.82314 0.0
C211 C 0.00885 0.57565 0.78572 0.0
C212 C 0.00841 0.57377 0.72316 0.0
Zn213 Zn 0.01858 0.51546 0.70507 0.0
O214 O 0.03924 0.49692 0.60525 0.0
C215 C 0.98563 0.50666 0.62994 0.0
O216 O 0.03761 0.52577 0.63077 0.0
H217 H 0.01943 0.53063 0.8272 0.0
H218 H 0.02009 0.47163 0.55746 0.0
H219 H 0.01104 0.55487 0.65201 0.0
O220 O 0.9947 0.49107 0.63216 0.0
O221 O 0.99278 0.52012 0.65541 0.0
H222 H 0.02774 0.44602 0.73142 0.0
O223 O 0.99961 0.50467 0.77879 0.0
O224 O 0.00209 0.47573 0.75438 0.0
O225 O 0.04426 0.51047 0.75387 0.0
O226 O 0.0473 0.48164 0.72873 0.0
C227 C 0.99465 0.48777 0.7889 0.0
H228 H 0.02472 0.44181 0.51126 0.0
H229 H 0.03211 0.41536 0.6886 0.0
H230 H 0.01331 0.5605 0.87166 0.0
H231 H 0.00547 0.58559 0.6924 0.0
H232 H 0.23031 0.964 0.37507 0.0
H233 H 0.19715 0.96928 0.42498 0.0
H234 H 0.19563 0.02444 0.33826 0.0
H235 H 0.22892 0.01898 0.2869 0.0
H236 H 0.1847 0.99215 0.50486 0.0
H237 H 0.14566 0.03709 0.32254 0.0
H238 H 0.14681 0.04241 0.21143 0.0
H239 H 0.16934 0.98703 0.19143 0.0
H240 H 0.16808 0.98132 0.30235 0.0
H241 H 0.09085 0.02207 0.63993 0.0
H242 H 0.12367 0.02266 0.58278 0.0
H243 H 0.10132 0.98621 0.45703 0.0
H244 H 0.06845 0.98586 0.51304 0.0
H245 H 0.12441 0.01142 0.39676 0.0
H246 H 0.13037 0.97007 0.57395 0.0
H247 H 0.12835 0.96132 0.68342 0.0
H248 H 0.17096 0.00352 0.71049 0.0
H249 H 0.17304 0.01268 0.60121 0.0
C250 C 0.22286 0.97723 0.36625 0.0
C251 C 0.2322 0.99103 0.32689 0.0
C252 C 0.20391 0.98028 0.39513 0.0
C253 C 0.19373 0.99725 0.38558 0.0
C254 C 0.203 0.01113 0.34598 0.0
C255 C 0.22205 0.00803 0.31667 0.0
C256 C 0.1736 0.00017 0.418 0.0
C257 C 0.17158 0.9965 0.48109 0.0
C258 C 0.1563 0.00566 0.3874 0.0
C259 C 0.15701 0.00888 0.32069 0.0
C260 C 0.15082 0.02605 0.29439 0.0
C261 C 0.1515 0.02913 0.23146 0.0
C262 C 0.15822 0.01509 0.1944 0.0
C263 C 0.16422 0.99792 0.22018 0.0
C264 C 0.16356 0.99476 0.28307 0.0
C265 C 0.09289 0.01424 0.59995 0.0
C266 C 0.07701 0.0038 0.58145 0.0
C267 C 0.1117 0.01456 0.56731 0.0
C268 C 0.11514 0.00429 0.51582 0.0
C269 C 0.09913 0.99428 0.49643 0.0
C270 C 0.08031 0.99403 0.52879 0.0
C271 C 0.13555 0.00328 0.48345 0.0
C272 C 0.13761 0.00732 0.42052 0.0
C273 C 0.15284 0.99773 0.51395 0.0
C274 C 0.15169 0.99218 0.57956 0.0
C275 C 0.1392 0.97756 0.60333 0.0
C276 C 0.13806 0.97252 0.66532 0.0
C277 C 0.14947 0.98189 0.70391 0.0
C278 C 0.1621 0.9963 0.68056 0.0
C279 C 0.16328 0.00141 0.6186 0.0
H280 H 0.14857 0.97797 0.75189 0.0
H281 H 0.15874 0.01751 0.1457 0.0
H282 H 0.50966 0.23555 0.25994 0.0
H283 H 0.5139 0.20338 0.29989 0.0
H284 H 0.48795 0.21791 0.47414 0.0
H285 H 0.48396 0.25004 0.43466 0.0
H286 H 0.52075 0.19734 0.48743 0.0
H287 H 0.46133 0.19376 0.37853 0.0
H288 H 0.44088 0.19766 0.29012 0.0
H289 H 0.48138 0.16184 0.19218 0.0
H290 H 0.50224 0.15793 0.2798 0.0
H291 H 0.49625 0.10774 0.62382 0.0
H292 H 0.49414 0.13926 0.57766 0.0
H293 H 0.5283 0.12245 0.41817 0.0
H294 H 0.53137 0.09108 0.46479 0.0
H295 H 0.49285 0.14362 0.39404 0.0
H296 H 0.55148 0.14649 0.50628 0.0
H297 H 0.57106 0.14236 0.59647 0.0
H298 H 0.53088 0.17949 0.69001 0.0
H299 H 0.51087 0.18362 0.60061 0.0
C300 C 0.50478 0.23185 0.30664 0.0
C301 C 0.49642 0.24527 0.34426 0.0
C302 C 0.50716 0.21344 0.32941 0.0
C303 C 0.50112 0.20816 0.39 0.0
C304 C 0.49276 0.22162 0.42735 0.0
C305 C 0.49041 0.23995 0.40469 0.0
C306 C 0.50376 0.18874 0.41516 0.0
C307 C 0.51444 0.18563 0.46731 0.0
C308 C 0.49595 0.17337 0.38826 0.0
C309 C 0.48348 0.17573 0.33547 0.0
C310 C 0.46598 0.18685 0.33794 0.0
C311 C 0.45429 0.18903 0.28802 0.0
C312 C 0.45986 0.18005 0.2355 0.0
C313 C 0.47711 0.16882 0.23286 0.0
C314 C 0.48886 0.16661 0.28265 0.0
C315 C 0.50364 0.11072 0.57935 0.0
C316 C 0.51401 0.09671 0.54829 0.0
C317 C 0.50227 0.12876 0.55284 0.0
C318 C 0.51108 0.13318 0.49452 0.0
C319 C 0.52129 0.11929 0.46309 0.0
C320 C 0.52291 0.10131 0.48984 0.0
C321 C 0.50962 0.15233 0.46647 0.0
C322 C 0.4992 0.15536 0.41386 0.0
C323 C 0.51755 0.16765 0.49311 0.0
C324 C 0.52955 0.16521 0.54695 0.0
C325 C 0.5467 0.15364 0.54627 0.0
C326 C 0.5579 0.15132 0.59722 0.0
C327 C 0.55218 0.16061 0.64901 0.0
C328 C 0.53527 0.17228 0.64989 0.0
C329 C 0.524 0.17462 0.59908 0.0
H330 H 0.56088 0.15881 0.68839 0.0
H331 H 0.45079 0.18175 0.1969 0.0
H332 H 0.28293 0.54504 0.29924 0.0
H333 H 0.31222 0.54141 0.35918 0.0
H334 H 0.34094 0.50678 0.22662 0.0
H335 H 0.31107 0.50973 0.16777 0.0
H336 H 0.34722 0.49236 0.33297 0.0
H337 H 0.35472 0.5534 0.23903 0.0
H338 H 0.34448 0.58538 0.20847 0.0
H339 H 0.33506 0.59764 0.39498 0.0
H340 H 0.34501 0.56565 0.42667 0.0
H341 H 0.44352 0.53152 0.45812 0.0
H342 H 0.41532 0.53472 0.39406 0.0
H343 H 0.38119 0.49602 0.51566 0.0
H344 H 0.40988 0.49197 0.57859 0.0
H345 H 0.37919 0.54709 0.40881 0.0
H346 H 0.34985 0.47158 0.43653 0.0
H347 H 0.36304 0.43985 0.45632 0.0
H348 H 0.4216 0.45701 0.38234 0.0
H349 H 0.4087 0.48876 0.36137 0.0
C350 C 0.29555 0.53673 0.28277 0.0
C351 C 0.29482 0.52775 0.22886 0.0
C352 C 0.31233 0.53472 0.31691 0.0
C353 C 0.329 0.52409 0.297 0.0
C354 C 0.32829 0.51508 0.24291 0.0
C355 C 0.31129 0.51684 0.20916 0.0
C356 C 0.34693 0.52219 0.33333 0.0
C357 C 0.35423 0.50434 0.3494 0.0
C358 C 0.35636 0.5378 0.35408 0.0
C359 C 0.35046 0.55708 0.3352 0.0
C360 C 0.35035 0.56288 0.27352 0.0
C361 C 0.34461 0.58101 0.256 0.0
C362 C 0.33908 0.59352 0.29975 0.0
C363 C 0.33933 0.58793 0.36113 0.0
C364 C 0.34504 0.56981 0.3789 0.0
C365 C 0.43012 0.52349 0.471 0.0
C366 C 0.42911 0.51125 0.5231 0.0
C367 C 0.4139 0.52549 0.43456 0.0
C368 C 0.39621 0.51542 0.44945 0.0
C369 C 0.39483 0.50368 0.50258 0.0
C370 C 0.41116 0.50154 0.53893 0.0
C371 C 0.37933 0.51727 0.409 0.0
C372 C 0.37219 0.53511 0.39232 0.0
C373 C 0.37049 0.50169 0.38615 0.0
C374 C 0.37834 0.48259 0.39802 0.0
C375 C 0.36553 0.46856 0.42432 0.0
C376 C 0.37295 0.45057 0.43576 0.0
C377 C 0.39316 0.44643 0.42079 0.0
C378 C 0.40597 0.46025 0.39413 0.0
C379 C 0.39861 0.47825 0.38253 0.0
H380 H 0.39889 0.43251 0.42972 0.0
H381 H 0.33464 0.60755 0.2861 0.0
H382 H 0.01399 0.26553 0.39413 0.0
H383 H 0.01323 0.29512 0.44126 0.0
H384 H 0.06375 0.31384 0.32166 0.0
H385 H 0.06492 0.28386 0.27543 0.0
H386 H 0.06881 0.32295 0.43262 0.0
H387 H 0.01525 0.33005 0.3015 0.0
H388 H 0.98439 0.32163 0.25495 0.0
H389 H 0.95119 0.32171 0.4277 0.0
H390 H 0.98192 0.32988 0.47548 0.0
H391 H 0.05361 0.41843 0.49776 0.0
H392 H 0.05671 0.38918 0.44783 0.0
H393 H 0.01359 0.3641 0.58144 0.0
H394 H 0.01049 0.39335 0.63182 0.0
H395 H 0.0054 0.35922 0.45942 0.0
H396 H 0.0604 0.35202 0.58906 0.0
H397 H 0.09158 0.36146 0.63173 0.0
H398 H 0.1224 0.36311 0.45514 0.0
H399 H 0.09129 0.35393 0.41124 0.0
C400 C 0.02486 0.27601 0.37766 0.0
C401 C 0.03942 0.27246 0.33102 0.0
C402 C 0.02437 0.29295 0.40444 0.0
C403 C 0.03822 0.30687 0.38441 0.0
C404 C 0.05286 0.30334 0.33774 0.0
C405 C 0.05347 0.28626 0.3112 0.0
C406 C 0.03756 0.32487 0.41334 0.0
C407 C 0.05502 0.33103 0.43754 0.0
C408 C 0.01949 0.33531 0.42072 0.0
C409 C 1.00094 0.33042 0.39216 0.0
C410 C 1.00141 0.32813 0.32966 0.0
C411 C 0.98393 0.32343 0.30303 0.0
C412 C 0.96585 0.32109 0.33837 0.0
C413 C 0.9652 0.3235 0.40039 0.0
C414 C 0.98264 0.32819 0.42726 0.0
C415 C 0.04487 0.40664 0.51662 0.0
C416 C 0.03178 0.40813 0.56858 0.0
C417 C 0.04673 0.38994 0.48825 0.0
C418 C 0.03541 0.3745 0.51105 0.0
C419 C 0.02246 0.37589 0.56324 0.0
C420 C 0.0208 0.39252 0.59213 0.0
C421 C 0.03654 0.35711 0.4791 0.0
C422 C 0.01917 0.35113 0.45422 0.0
C423 C 0.05473 0.34701 0.47043 0.0
C424 C 0.07346 0.35248 0.49677 0.0
C425 C 0.07377 0.35456 0.55923 0.0
C426 C 0.09145 0.35983 0.58366 0.0
C427 C 0.10895 0.36293 0.54614 0.0
C428 C 0.10882 0.36073 0.48413 0.0
C429 C 0.09118 0.35548 0.45946 0.0
H430 H 0.12262 0.367 0.56515 0.0
H431 H 0.95234 0.31745 0.31766 0.0
H432 H 0.81633 0.99592 0.1008 0.0
H433 H 0.85142 0.99808 0.05885 0.0
H434 H 0.8363 0.96823 0.90647 0.0
H435 H 0.80145 0.96596 0.94829 0.0
H436 H 0.87176 0.95608 0.94547 0.0
H437 H 0.84078 0.01552 0.89608 0.0
H438 H 0.82267 0.04451 0.91886 0.0
H439 H 0.86955 0.05926 0.02953 0.0
H440 H 0.88783 0.03023 0.008 0.0
H441 H 0.95016 0.97872 0.72351 0.0
H442 H 0.9178 0.9755 0.78172 0.0
H443 H 0.93999 0.00686 0.92143 0.0
H444 H 0.9724 0.01041 0.86289 0.0
H445 H 0.90257 0.01791 0.89833 0.0
H446 H 0.93491 0.95972 0.94232 0.0
H447 H 0.9537 0.93131 0.91707 0.0
H448 H 0.90508 0.91436 0.81668 0.0
H449 H 0.88604 0.94277 0.84095 0.0
C450 C 0.82056 0.98972 0.05862 0.0
C451 C 0.80613 0.98079 0.02773 0.0
C452 C 0.8406 0.99101 0.03451 0.0
C453 C 0.84655 0.98344 0.9791 0.0
C454 C 0.83219 0.97416 0.94923 0.0
C455 C 0.81223 0.97292 0.97311 0.0
C456 C 0.86749 0.98556 0.95084 0.0
C457 C 0.87843 0.96962 0.93487 0.0
C458 C 0.8765 0.00316 0.93812 0.0
C459 C 0.86554 0.02061 0.95102 0.0
C460 C 0.84714 0.02488 0.92567 0.0
C461 C 0.83686 0.04133 0.93829 0.0
C462 C 0.84492 0.05369 0.97578 0.0
C463 C 0.86331 0.04965 0.0006 0.0
C464 C 0.87364 0.03321 0.9882 0.0
C465 C 0.9482 0.98496 0.76661 0.0
C466 C 0.96396 0.9948 0.7885 0.0
C467 C 0.92968 0.98301 0.80008 0.0
C468 C 0.92646 0.99073 0.85649 0.0
C469 C 0.94208 0.00074 0.87817 0.0
C470 C 0.96064 0.0027 0.84468 0.0
C471 C 0.90673 0.98847 0.89231 0.0
C472 C 0.89602 0.00436 0.9096 0.0
C473 C 0.89797 0.97082 0.90644 0.0
C474 C 0.9091 0.95345 0.89313 0.0
C475 C 0.92825 0.94996 0.91468 0.0
C476 C 0.93895 0.93386 0.90055 0.0
C477 C 0.93062 0.92107 0.86511 0.0
C478 C 0.91152 0.9243 0.84409 0.0
C479 C 0.90074 0.94038 0.85815 0.0
H480 H 0.93897 0.90864 0.85402 0.0
H481 H 0.83694 0.06642 0.98548 0.0
H482 H 0.53695 0.76479 0.09993 0.0
H483 H 0.53311 0.79691 0.05916 0.0
H484 H 0.56789 0.78397 0.89597 0.0
H485 H 0.57157 0.75178 0.9362 0.0
H486 H 0.57791 0.8186 0.94141 0.0
H487 H 0.51957 0.78481 0.89246 0.0
H488 H 0.48992 0.76498 0.91696 0.0
H489 H 0.46401 0.80519 0.03431 0.0
H490 H 0.49367 0.82515 0.01114 0.0
H491 H 0.55279 0.89374 0.74005 0.0
H492 H 0.55792 0.86281 0.78791 0.0
H493 H 0.5143 0.87489 0.93313 0.0
H494 H 0.50833 0.9055 0.88404 0.0
H495 H 0.50906 0.84113 0.90194 0.0
H496 H 0.56542 0.87582 0.94985 0.0
H497 H 0.5947 0.8963 0.92871 0.0
H498 H 0.62435 0.85555 0.82065 0.0
H499 H 0.59507 0.83495 0.84025 0.0
C500 C 0.54396 0.76884 0.05567 0.0
C501 C 0.55455 0.75581 0.02107 0.0
C502 C 0.54172 0.78717 0.03239 0.0
C503 C 0.55014 0.79279 0.97443 0.0
C504 C 0.56132 0.77994 0.94082 0.0
C505 C 0.56335 0.76157 0.96374 0.0
C506 C 0.54647 0.81177 0.94743 0.0
C507 C 0.5629 0.82351 0.93221 0.0
C508 C 0.52682 0.8183 0.93699 0.0
C509 C 0.50893 0.80637 0.95059 0.0
C510 C 0.50762 0.78935 0.92388 0.0
C511 C 0.49081 0.7781 0.93745 0.0
C512 C 0.47512 0.78379 0.97731 0.0
C513 C 0.47619 0.80078 0.00353 0.0
C514 C 0.493 0.81207 0.99017 0.0
C515 C 0.54406 0.88975 0.78171 0.0
C516 C 0.5302 0.90221 0.80825 0.0
C517 C 0.54721 0.87212 0.80948 0.0
C518 C 0.53677 0.86661 0.86477 0.0
C519 C 0.52264 0.87885 0.89073 0.0
C520 C 0.51938 0.89644 0.86282 0.0
C521 C 0.54052 0.84806 0.89541 0.0
C522 C 0.5241 0.83635 0.91134 0.0
C523 C 0.56017 0.84168 0.90724 0.0
C524 C 0.57795 0.8539 0.89608 0.0
C525 C 0.57812 0.87127 0.92124 0.0
C526 C 0.59472 0.8829 0.90956 0.0
C527 C 0.61135 0.87724 0.87325 0.0
C528 C 0.61144 0.85992 0.84871 0.0
C529 C 0.59485 0.84825 0.86012 0.0
H530 H 0.62419 0.88627 0.86422 0.0
H531 H 0.46211 0.77506 0.98775 0.0
H532 H 0.73573 0.49668 0.19373 0.0
H533 H 0.70687 0.49279 0.13316 0.0
H534 H 0.72637 0.53952 0.01357 0.0
H535 H 0.7552 0.54348 0.07397 0.0
H536 H 0.68562 0.54002 0.04034 0.0
H537 H 0.73651 0.49672 0.97309 0.0
H538 H 0.761 0.4711 0.98567 0.0
H539 H 0.71345 0.43456 0.05569 0.0
H540 H 0.6887 0.46006 0.04437 0.0
H541 H 0.62991 0.5254 0.78841 0.0
H542 H 0.65826 0.52849 0.85137 0.0
H543 H 0.63757 0.48112 0.96604 0.0
H544 H 0.60944 0.47771 0.90258 0.0
H545 H 0.67839 0.48062 0.94395 0.0
H546 H 0.62738 0.52373 0.00968 0.0
H547 H 0.60286 0.54932 0.99714 0.0
H548 H 0.6505 0.5862 0.93039 0.0
H549 H 0.67529 0.56073 0.94169 0.0
C550 C 0.73373 0.50624 0.15494 0.0
C551 C 0.74768 0.52038 0.13832 0.0
C552 C 0.7173 0.50395 0.12023 0.0
C553 C 0.71462 0.51575 0.06851 0.0
C554 C 0.72817 0.53026 0.05325 0.0
C555 C 0.74462 0.53249 0.08768 0.0
C556 C 0.69807 0.5127 0.02909 0.0
C557 C 0.68415 0.52711 0.01875 0.0
C558 C 0.69595 0.49572 0.0019 0.0
C559 C 0.71079 0.48035 0.00851 0.0
C560 C 0.7313 0.48326 0.99166 0.0
C561 C 0.74522 0.46876 0.99847 0.0
C562 C 0.73879 0.45123 0.02163 0.0
C563 C 0.71841 0.44815 0.03786 0.0
C564 C 0.70443 0.46262 0.03123 0.0
C565 C 0.6316 0.51545 0.82641 0.0
C566 C 0.61738 0.50138 0.84078 0.0
C567 C 0.64769 0.51734 0.86265 0.0
C568 C 0.64983 0.5052 0.9139 0.0
C569 C 0.63613 0.49069 0.92691 0.0
C570 C 0.62001 0.48884 0.89084 0.0
C571 C 0.66599 0.50797 0.95499 0.0
C572 C 0.67982 0.49352 0.96566 0.0
C573 C 0.66802 0.52491 0.98254 0.0
C574 C 0.65317 0.54027 0.97596 0.0
C575 C 0.63261 0.53726 0.99186 0.0
C576 C 0.61867 0.55174 0.98506 0.0
C577 C 0.62512 0.56936 0.96283 0.0
C578 C 0.64553 0.57253 0.94751 0.0
C579 C 0.65954 0.55808 0.95415 0.0
H580 H 0.6143 0.58056 0.95761 0.0
H581 H 0.74959 0.44001 0.02685 0.0
H582 H 0.94077 0.73304 0.94181 0.0
H583 H 0.95038 0.70284 0.90453 0.0
H584 H 0.98804 0.69229 0.05361 0.0
H585 H 0.97839 0.72258 0.09132 0.0
H586 H 0.00718 0.68483 0.94172 0.0
H587 H 0.94523 0.66973 0.05576 0.0
H588 H 0.90929 0.67344 0.08753 0.0
H589 H 0.89356 0.66542 0.90686 0.0
H590 H 0.92945 0.66192 0.87377 0.0
H591 H 0.02626 0.59056 0.8799 0.0
H592 H 0.01705 0.61926 0.92744 0.0
H593 H 0.97237 0.63089 0.79817 0.0
H594 H 0.98072 0.60172 0.75242 0.0
H595 H 0.95713 0.63717 0.90674 0.0
H596 H 0.01829 0.65399 0.79028 0.0
H597 H 0.05408 0.65104 0.75543 0.0
H598 H 0.07115 0.65666 0.93622 0.0
H599 H 0.03543 0.6594 0.97231 0.0
C600 C 0.95096 0.7242 0.96691 0.0
C601 C 0.95875 0.73007 0.01952 0.0
C602 C 0.95641 0.70696 0.94566 0.0
C603 C 0.9698 0.69527 0.97657 0.0
C604 C 0.97764 0.7011 0.02923 0.0
C605 C 0.97205 0.71834 0.05084 0.0
C606 C 0.97595 0.67722 0.95257 0.0
C607 C 0.99631 0.67424 0.93501 0.0
C608 C 0.96167 0.66367 0.94238 0.0
C609 C 0.94006 0.66572 0.96219 0.0
C610 C 0.93413 0.66891 0.02268 0.0
C611 C 0.91375 0.67095 0.04095 0.0
C612 C 0.89915 0.66971 0.99921 0.0
C613 C 0.90489 0.66639 0.93913 0.0
C614 C 0.92525 0.66436 0.92061 0.0
C615 C 0.01438 0.59914 0.86175 0.0
C616 C 0.00423 0.59376 0.81225 0.0
C617 C 0.00929 0.61568 0.88861 0.0
C618 C 0.99416 0.62737 0.86604 0.0
C619 C 0.98413 0.62213 0.81634 0.0
C620 C 0.98909 0.60552 0.78975 0.0
C621 C 0.98838 0.6448 0.89508 0.0
C622 C 0.96806 0.64768 0.91367 0.0
C623 C 0.00269 0.65832 0.90571 0.0
C624 C 0.02418 0.6567 0.88411 0.0
C625 C 0.02967 0.65445 0.8227 0.0
C626 C 0.04994 0.65284 0.8027 0.0
C627 C 0.06488 0.65361 0.84362 0.0
C628 C 0.05957 0.65604 0.90459 0.0
C629 C 0.03931 0.65763 0.92484 0.0
H630 H 0.08056 0.65236 0.82804 0.0
H631 H 0.88339 0.67129 0.01345 0.0
H632 H 0.08163 0.16586 0.33857 0.0
H633 H 0.06779 0.13939 0.40133 0.0
H634 H 0.01211 0.16949 0.43306 0.0
H635 H 0.02558 0.19576 0.36869 0.0
H636 H 0.05244 0.13202 0.51519 0.0
H637 H 0.97414 0.14148 0.42483 0.0
H638 H 0.95833 0.15528 0.33481 0.0
H639 H 0.01252 0.14549 0.22472 0.0
H640 H 0.0285 0.13145 0.31421 0.0
H641 H 0.99683 0.06248 0.67179 0.0
H642 H 0.99999 0.09355 0.62227 0.0
H643 H 0.01046 0.06996 0.44923 0.0
H644 H 0.00693 0.03872 0.4986 0.0
H645 H 0.9912 0.10497 0.44167 0.0
H646 H 0.04967 0.07538 0.52403 0.0
H647 H 0.06635 0.05822 0.60662 0.0
H648 H 0.05567 0.1039 0.71913 0.0
H649 H 0.03862 0.1213 0.6373 0.0
C650 C 0.06653 0.16693 0.35957 0.0
C651 C 0.05463 0.18283 0.34815 0.0
C652 C 0.05868 0.15183 0.39567 0.0
C653 C 0.03881 0.15236 0.42092 0.0
C654 C 0.02738 0.1687 0.41318 0.0
C655 C 0.0352 0.18379 0.37693 0.0
C656 C 0.0296 0.13533 0.45101 0.0
C657 C 0.03894 0.12624 0.49953 0.0
C658 C 0.0122 0.12755 0.42988 0.0
C659 C 0.00258 0.13571 0.37608 0.0
C660 C 0.98264 0.14227 0.38135 0.0
C661 C 0.97366 0.15013 0.33051 0.0
C662 C 0.98446 0.15135 0.27415 0.0
C663 C 0.00422 0.14464 0.26846 0.0
C664 C 0.01325 0.13678 0.31918 0.0
C665 C 0.99905 0.06394 0.6229 0.0
C666 C 0.00198 0.04827 0.58894 0.0
C667 C 1.00085 0.08168 0.59476 0.0
C668 C 0.00593 0.08395 0.53246 0.0
C669 C 0.0066 0.06842 0.49749 0.0
C670 C 0.00458 0.0506 0.52566 0.0
C671 C 0.0139 0.10187 0.50602 0.0
C672 C 0.00442 0.11102 0.45813 0.0
C673 C 0.03148 0.10944 0.5267 0.0
C674 C 0.04277 0.09959 0.57471 0.0
C675 C 0.05088 0.08178 0.56637 0.0
C676 C 0.06036 0.07201 0.61305 0.0
C677 C 0.06203 0.07998 0.66809 0.0
C678 C 0.05435 0.0978 0.6764 0.0
C679 C 0.0448 0.10763 0.62987 0.0
H680 H 0.06927 0.07235 0.70427 0.0
H681 H 0.97748 0.15744 0.23486 0.0
H682 H 0.34235 0.95914 0.28018 0.0
H683 H 0.37098 0.954 0.34332 0.0
H684 H 0.35413 0.00292 0.43669 0.0
H685 H 0.32517 0.00782 0.37473 0.0
H686 H 0.39762 0.99372 0.34521 0.0
H687 H 0.35238 0.98088 0.53108 0.0
H688 H 0.32545 0.96261 0.58781 0.0
H689 H 0.35928 0.91248 0.5604 0.0
H690 H 0.38627 0.93049 0.50267 0.0
H691 H 0.47025 0.0155 0.53883 0.0
H692 H 0.44009 0.01069 0.48687 0.0
H693 H 0.44638 0.95148 0.521 0.0
H694 H 0.47648 0.95626 0.57559 0.0
H695 H 0.4087 0.96125 0.54415 0.0
H696 H 0.45612 0.97273 0.37708 0.0
H697 H 0.48365 0.98855 0.31487 0.0
H698 H 0.44721 0.0378 0.29654 0.0
H699 H 0.41955 0.02237 0.35936 0.0
C700 C 0.34434 0.96832 0.31593 0.0
C701 C 0.3316 0.98379 0.32315 0.0
C702 C 0.36064 0.96539 0.35179 0.0
C703 C 0.36446 0.97798 0.39488 0.0
C704 C 0.35112 0.99287 0.40441 0.0
C705 C 0.33462 0.99564 0.36919 0.0
C706 C 0.38409 0.97752 0.4217 0.0
C707 C 0.40008 0.9868 0.38898 0.0
C708 C 0.38735 0.96773 0.47723 0.0
C709 C 0.37116 0.95698 0.51182 0.0
C710 C 0.35394 0.96595 0.53646 0.0
C711 C 0.3387 0.95565 0.56899 0.0
C712 C 0.34061 0.93638 0.57749 0.0
C713 C 0.35779 0.92739 0.55364 0.0
C714 C 0.37306 0.93764 0.52105 0.0
C715 C 0.46544 0.0014 0.53478 0.0
C716 C 0.47585 0.98625 0.56121 0.0
C717 C 0.44817 0.99867 0.50475 0.0
C718 C 0.44109 0.98071 0.49919 0.0
C719 C 0.4516 0.96547 0.52462 0.0
C720 C 0.46886 0.96821 0.55543 0.0
C721 C 0.42226 0.97816 0.46878 0.0
C722 C 0.40642 0.96816 0.50027 0.0
C723 C 0.41921 0.98706 0.41135 0.0
C724 C 0.43579 0.99641 0.3733 0.0
C725 C 0.45402 0.98697 0.36014 0.0
C726 C 0.46964 0.99587 0.3247 0.0
C727 C 0.46719 0.01417 0.30185 0.0
C728 C 0.44909 0.02362 0.31428 0.0
C729 C 0.43342 0.01479 0.34973 0.0
H730 H 0.47931 0.02103 0.27444 0.0
H731 H 0.32881 0.92843 0.60271 0.0
H732 H 0.53975 0.32005 0.34871 0.0
H733 H 0.55077 0.34517 0.40807 0.0
H734 H 0.50397 0.38077 0.33915 0.0
H735 H 0.49283 0.35587 0.28086 0.0
H736 H 0.54151 0.39668 0.32323 0.0
H737 H 0.49985 0.36326 0.48103 0.0
H738 H 0.48978 0.33608 0.54878 0.0
H739 H 0.54779 0.33469 0.62199 0.0
H740 H 0.55831 0.36173 0.554 0.0
H741 H 0.51773 0.47049 0.5019 0.0
H742 H 0.52109 0.44305 0.44404 0.0
H743 H 0.56988 0.42311 0.54954 0.0
H744 H 0.56647 0.45076 0.60842 0.0
H745 H 0.54068 0.39721 0.54657 0.0
H746 H 0.57923 0.43523 0.40101 0.0
H747 H 0.58799 0.46304 0.33469 0.0
H748 H 0.53524 0.45628 0.23803 0.0
H749 H 0.52593 0.42863 0.30442 0.0
C750 C 0.5316 0.33313 0.34737 0.0
C751 C 0.51559 0.33611 0.3097 0.0
C752 C 0.53796 0.34746 0.38095 0.0
C753 C 0.52832 0.36487 0.37731 0.0
C754 C 0.51178 0.36752 0.3419 0.0
C755 C 0.50542 0.35328 0.30869 0.0
C756 C 0.5357 0.38079 0.40793 0.0
C757 C 0.54133 0.39684 0.37209 0.0
C758 C 0.53622 0.38069 0.47146 0.0
C759 C 0.52997 0.36433 0.5118 0.0
C760 C 0.51054 0.35702 0.51107 0.0
C761 C 0.50473 0.34168 0.54963 0.0
C762 C 0.51816 0.33361 0.5895 0.0
C763 C 0.53743 0.34091 0.59097 0.0
C764 C 0.54332 0.35624 0.55243 0.0
C765 C 0.52948 0.46048 0.51202 0.0
C766 C 0.5418 0.46273 0.55979 0.0
C767 C 0.53146 0.44482 0.47867 0.0
C768 C 0.54582 0.43107 0.49223 0.0
C769 C 0.55876 0.43361 0.53825 0.0
C770 C 0.55689 0.44944 0.57152 0.0
C771 C 0.54566 0.4134 0.46192 0.0
C772 C 0.54143 0.39697 0.49766 0.0
C773 C 0.54633 0.41317 0.39817 0.0
C774 C 0.55184 0.42985 0.35799 0.0
C775 C 0.5694 0.43974 0.36593 0.0
C776 C 0.57448 0.45548 0.32826 0.0
C777 C 0.56217 0.46144 0.28223 0.0
C778 C 0.54476 0.45165 0.27371 0.0
C779 C 0.5396 0.43592 0.31132 0.0
H780 H 0.56614 0.47362 0.2531 0.0
H781 H 0.51363 0.32175 0.61939 0.0
H782 H 0.18741 0.48079 0.23045 0.0
H783 H 0.15893 0.4857 0.30325 0.0
H784 H 0.18569 0.5361 0.3521 0.0
H785 H 0.21407 0.53157 0.27825 0.0
H786 H 0.16441 0.51264 0.4525 0.0
H787 H 0.15541 0.54268 0.25545 0.0
H788 H 0.15682 0.54295 0.14418 0.0
H789 H 0.11279 0.49982 0.15527 0.0
H790 H 0.11145 0.49899 0.26683 0.0
H791 H 0.07093 0.5424 0.58674 0.0
H792 H 0.10137 0.54529 0.5181 0.0
H793 H 0.08326 0.49808 0.42631 0.0
H794 H 0.05299 0.49513 0.49433 0.0
H795 H 0.10149 0.52447 0.34797 0.0
H796 H 0.11226 0.49164 0.53964 0.0
H797 H 0.11167 0.48821 0.651 0.0
H798 H 0.15226 0.53384 0.65076 0.0
H799 H 0.15277 0.53779 0.53936 0.0
C800 C 0.18738 0.49278 0.25729 0.0
C801 C 0.2028 0.50595 0.24793 0.0
C802 C 0.17119 0.4955 0.29904 0.0
C803 C 0.17019 0.51138 0.33223 0.0
C804 C 0.18629 0.52377 0.32678 0.0
C805 C 0.20249 0.52112 0.28467 0.0
C806 C 0.15126 0.51604 0.36658 0.0
C807 C 0.15071 0.51561 0.42984 0.0
C808 C 0.13343 0.51962 0.33657 0.0
C809 C 0.13347 0.52067 0.26953 0.0
C810 C 0.1461 0.53318 0.2342 0.0
C811 C 0.1469 0.53343 0.1711 0.0
C812 C 0.13497 0.52136 0.14273 0.0
C813 C 0.12206 0.50913 0.17738 0.0
C814 C 0.12127 0.50877 0.24057 0.0
C815 C 0.07317 0.53303 0.55069 0.0
C816 C 0.05977 0.51843 0.54609 0.0
C817 C 0.09059 0.53461 0.51187 0.0
C818 C 0.09465 0.5217 0.46794 0.0
C819 C 0.08041 0.50813 0.46008 0.0
C820 C 0.06316 0.50644 0.49905 0.0
C821 C 0.1145 0.52089 0.43418 0.0
C822 C 0.11524 0.52195 0.37081 0.0
C823 C 0.13243 0.51768 0.46424 0.0
C824 C 0.13233 0.51518 0.53119 0.0
C825 C 0.12092 0.50106 0.56335 0.0
C826 C 0.12061 0.499 0.62647 0.0
C827 C 0.13186 0.51084 0.65795 0.0
C828 C 0.1435 0.52472 0.62632 0.0
C829 C 0.14379 0.52688 0.56319 0.0
H830 H 0.1316 0.50923 0.70681 0.0
H831 H 0.13574 0.52149 0.09391 0.0
H832 H 0.99993 0.80503 0.99722 0.0
H833 H 0.01585 0.83065 0.93448 0.0
H834 H 0.96417 0.86551 0.97413 0.0
H835 H 0.94809 0.83991 0.03605 0.0
H836 H 0.97903 0.87192 0.85791 0.0
H837 H 0.00476 0.86941 0.05767 0.0
H838 H 0.02003 0.85329 0.14518 0.0
H839 H 0.07192 0.8394 0.03063 0.0
H840 H 0.05675 0.85524 0.94257 0.0
H841 H 0.03285 0.96124 0.87247 0.0
H842 H 0.02638 0.93044 0.92258 0.0
H843 H 0.03531 0.90593 0.75072 0.0
H844 H 0.04169 0.93653 0.70054 0.0
H845 H 0.04322 0.89348 0.92948 0.0
H846 H 0.9926 0.88145 0.73695 0.0
H847 H 0.97595 0.89983 0.65655 0.0
H848 H 0.97106 0.94642 0.76738 0.0
H849 H 0.98745 0.92828 0.84848 0.0
C850 C 0.99174 0.818 0.99108 0.0
C851 C 0.97282 0.82054 0.02166 0.0
C852 C 1.00093 0.83267 0.95579 0.0
C853 C 0.99132 0.85006 0.95057 0.0
C854 C 0.97187 0.85223 0.9778 0.0
C855 C 0.96273 0.83762 0.01321 0.0
C856 C 0.00198 0.86639 0.92066 0.0
C857 C 0.99316 0.8765 0.8731 0.0
C858 C 0.02024 0.87259 0.94116 0.0
C859 C 0.02951 0.86322 0.99374 0.0
C860 C 0.01932 0.86272 0.05132 0.0
C861 C 0.02797 0.8537 0.10091 0.0
C862 C 0.0469 0.84525 0.0934 0.0
C863 C 0.05724 0.8459 0.03634 0.0
C864 C 0.04863 0.85491 0.98662 0.0
C865 C 0.03433 0.94919 0.8459 0.0
C866 C 0.03744 0.95123 0.78266 0.0
C867 C 0.03057 0.93162 0.87448 0.0
C868 C 0.02995 0.91606 0.83996 0.0
C869 C 0.03548 0.91784 0.77787 0.0
C870 C 0.03915 0.93532 0.74938 0.0
C871 C 0.02038 0.89881 0.86647 0.0
C872 C 0.02932 0.88864 0.91345 0.0
C873 C 0.00201 0.89276 0.84617 0.0
C874 C 0.99142 0.90355 0.79851 0.0
C875 C 0.98785 0.89558 0.74424 0.0
C876 C 0.97849 0.90596 0.69851 0.0
C877 C 0.97253 0.9243 0.70676 0.0
C878 C 0.97577 0.93225 0.7609 0.0
C879 C 0.98511 0.92192 0.80672 0.0
H880 H 0.96536 0.93234 0.67128 0.0
H881 H 0.05358 0.83826 0.13182 0.0
H882 H 0.72054 0.98431 0.97817 0.0
H883 H 0.69371 0.98958 0.90874 0.0
H884 H 0.6649 0.02825 0.02813 0.0
H885 H 0.69212 0.02392 0.0952 0.0
H886 H 0.65672 0.98085 0.92854 0.0
H887 H 0.63538 0.05859 0.95925 0.0
H888 H 0.65259 0.08817 0.96836 0.0
H889 H 0.70614 0.06687 0.8774 0.0
H890 H 0.68918 0.03725 0.86696 0.0
H891 H 0.55609 0.9922 0.86671 0.0
H892 H 0.58761 0.99377 0.9165 0.0
H893 H 0.61113 0.03226 0.77269 0.0
H894 H 0.57912 0.03171 0.72541 0.0
H895 H 0.62524 0.04123 0.86828 0.0
H896 H 0.61948 0.98406 0.77938 0.0
H897 H 0.60493 0.95423 0.75768 0.0
H898 H 0.60985 0.93401 0.94226 0.0
H899 H 0.62422 0.96382 0.96517 0.0
C900 C 0.70883 0.99439 0.98846 0.0
C901 C 0.70836 0.00358 0.04242 0.0
C902 C 0.69339 0.99726 0.9491 0.0
C903 C 0.67726 0.00935 0.96302 0.0
C904 C 0.67729 0.0191 0.0156 0.0
C905 C 0.69278 0.01643 0.05439 0.0
C906 C 0.65945 0.01056 0.92617 0.0
C907 C 0.64992 0.99405 0.91494 0.0
C908 C 0.65078 0.02777 0.90716 0.0
C909 C 0.66103 0.04564 0.91272 0.0
C910 C 0.65079 0.06025 0.94089 0.0
C911 C 0.66051 0.07702 0.94636 0.0
C912 C 0.68046 0.07938 0.92361 0.0
C913 C 0.69071 0.06499 0.89519 0.0
C914 C 0.68106 0.0482 0.88957 0.0
C915 C 0.56785 0.00134 0.84676 0.0
C916 C 0.56524 0.01186 0.79246 0.0
C917 C 0.58592 0.00209 0.87476 0.0
C918 C 0.60201 0.01271 0.84744 0.0
C919 C 0.59901 0.02392 0.79464 0.0
C920 C 0.5807 0.02363 0.7677 0.0
C921 C 0.62217 0.01152 0.87235 0.0
C922 C 0.63213 0.02802 0.88134 0.0
C923 C 0.63158 0.99426 0.88744 0.0
C924 C 0.62291 0.97624 0.87394 0.0
C925 C 0.61745 0.97326 0.81532 0.0
C926 C 0.60919 0.95636 0.80285 0.0
C927 C 0.60645 0.94223 0.84858 0.0
C928 C 0.61198 0.94498 0.90687 0.0
C929 C 0.6202 0.96188 0.91959 0.0
H930 H 0.60007 0.92915 0.83887 0.0
H931 H 0.68796 0.09237 0.92792 0.0
H932 H 0.54277 0.67358 0.98672 0.0
H933 H 0.53122 0.64894 0.92725 0.0
H934 H 0.47994 0.64 0.05519 0.0
H935 H 0.49179 0.66429 0.11541 0.0
H936 H 0.49842 0.60906 0.04145 0.0
H937 H 0.47518 0.65665 0.90512 0.0
H938 H 0.47653 0.68531 0.83837 0.0
H939 H 0.5235 0.66164 0.72449 0.0
H940 H 0.52271 0.63296 0.79112 0.0
H941 H 0.47629 0.5507 0.76528 0.0
H942 H 0.47112 0.57852 0.82239 0.0
H943 H 0.52476 0.56515 0.91506 0.0
H944 H 0.52992 0.53744 0.85894 0.0
H945 H 0.4962 0.60796 0.81897 0.0
H946 H 0.52041 0.57963 0.05465 0.0
H947 H 0.51723 0.55093 0.12089 0.0
H948 H 0.46394 0.53671 0.03666 0.0
H949 H 0.46663 0.56545 0.97051 0.0
C950 C 0.52873 0.6667 0.00105 0.0
C951 C 0.51821 0.6707 0.0557 0.0
C952 C 0.52211 0.65264 0.96704 0.0
C953 C 0.50467 0.64259 0.98667 0.0
C954 C 0.49347 0.64747 0.03927 0.0
C955 C 0.50021 0.66135 0.07356 0.0
C956 C 0.49958 0.62561 0.95687 0.0
C957 C 0.49771 0.6089 0.99284 0.0
C958 C 0.49832 0.62537 0.89353 0.0
C959 C 0.49895 0.64267 0.85344 0.0
C960 C 0.48592 0.6576 0.86615 0.0
C961 C 0.48657 0.67385 0.82828 0.0
C962 C 0.50011 0.6753 0.77729 0.0
C963 C 0.51303 0.6605 0.76403 0.0
C964 C 0.51247 0.64423 0.80183 0.0
C965 C 0.48671 0.55349 0.79883 0.0
C966 C 0.50352 0.54189 0.80759 0.0
C967 C 0.48381 0.56944 0.83105 0.0
C968 C 0.49751 0.57386 0.87308 0.0
C969 C 0.51385 0.5619 0.88343 0.0
C970 C 0.51681 0.54607 0.85115 0.0
C971 C 0.49574 0.59153 0.90349 0.0
C972 C 0.49647 0.60828 0.86768 0.0
C973 C 0.49569 0.59189 0.96706 0.0
C974 C 0.4938 0.57468 0.00735 0.0
C975 C 0.50794 0.57045 0.0505 0.0
C976 C 0.50624 0.55415 0.08798 0.0
C977 C 0.49042 0.54199 0.0829 0.0
C978 C 0.47623 0.54612 0.04043 0.0
C979 C 0.47785 0.5624 0.00287 0.0
H980 H 0.48914 0.52937 0.11193 0.0
H981 H 0.50057 0.68788 0.74798 0.0
H982 H 0.85788 0.51431 0.16661 0.0
H983 H 0.88369 0.50871 0.08609 0.0
H984 H 0.84893 0.46367 0.03039 0.0
H985 H 0.82285 0.46934 0.11167 0.0
H986 H 0.89084 0.45516 0.04348 0.0
H987 H 0.85063 0.49952 0.93963 0.0
H988 H 0.83039 0.52806 0.92488 0.0
H989 H 0.88227 0.5611 0.94514 0.0
H990 H 0.90277 0.53275 0.96097 0.0
H991 H 0.96919 0.45818 0.79396 0.0
H992 H 0.93715 0.45492 0.85505 0.0
H993 H 0.95024 0.50397 0.94548 0.0
H994 H 0.98196 0.50743 0.88445 0.0
H995 H 0.9138 0.50606 0.89502 0.0
H996 H 0.95175 0.46122 0.01753 0.0
H997 H 0.97181 0.43259 0.03355 0.0
H998 H 0.92377 0.40038 0.97629 0.0
H999 H 0.90352 0.42887 0.95922 0.0
C1000 C 0.85578 0.50322 0.13719 0.0
C1001 C 0.83857 0.49214 0.1453 0.0
C1002 C 0.87042 0.5001 0.09107 0.0
C1003 C 0.86812 0.48584 0.05223 0.0
C1004 C 0.85089 0.47476 0.05996 0.0
C1005 C 0.83605 0.47803 0.10596 0.0
C1006 C 0.88426 0.48253 0.005 0.0
C1007 C 0.89563 0.46608 0.00991 0.0
C1008 C 0.89045 0.49683 0.9615 0.0
C1009 C 0.87822 0.51397 0.95177 0.0
C1010 C 0.8577 0.51286 0.94138 0.0
C1011 C 0.84618 0.52902 0.93275 0.0
C1012 C 0.85504 0.54638 0.93413 0.0
C1013 C 0.87544 0.54763 0.94405 0.0
C1014 C 0.88702 0.53152 0.95276 0.0
C1015 C 0.96547 0.46793 0.82813 0.0
C1016 C 0.97801 0.48311 0.83436 0.0
C1017 C 0.94713 0.46611 0.86269 0.0
C1018 C 0.94128 0.47932 0.90424 0.0
C1019 C 0.95441 0.49375 0.91312 0.0
C1020 C 0.97258 0.49564 0.87853 0.0
C1021 C 0.92101 0.47916 0.93595 0.0
C1022 C 0.90879 0.49495 0.9276 0.0
C1023 C 0.91407 0.46425 0.97604 0.0
C1024 C 0.92624 0.44718 0.98638 0.0
C1025 C 0.94555 0.44805 0.00784 0.0
C1026 C 0.95693 0.43185 0.01723 0.0
C1027 C 0.9491 0.41469 0.00574 0.0
C1028 C 0.92984 0.41369 0.98503 0.0
C1029 C 0.9184 0.42985 0.97553 0.0
H1030 H 0.95793 0.40216 0.01305 0.0
H1031 H 0.84609 0.55887 0.92744 0.0
H1032 H 0.05128 0.20675 0.09721 0.0
H1033 H 0.05297 0.18424 0.01921 0.0
H1034 H 0.10851 0.16223 0.08437 0.0
H1035 H 0.10665 0.18452 0.16292 0.0
H1036 H 0.07746 0.16893 0.9273 0.0
H1037 H 0.1017 0.1158 0.11377 0.0
H1038 H 0.10178 0.11219 0.2251 0.0
H1039 H 0.05079 0.14892 0.24152 0.0
H1040 H 0.0501 0.15238 0.13062 0.0
H1041 H 0.08153 0.078 0.81052 0.0
H1042 H 0.09077 0.1061 0.85809 0.0
H1043 H 0.03874 0.0997 0.9843 0.0
H1044 H 0.0297 0.07156 0.93796 0.0
H1045 H 0.07091 0.10759 0.041 0.0
H1046 H 0.03864 0.13172 0.8645 0.0
H1047 H 0.0337 0.13561 0.75532 0.0
H1048 H 0.09344 0.15716 0.72134 0.0
H1049 H 0.09875 0.15331 0.8304 0.0
C1050 C 0.06439 0.19777 0.09273 0.0
C1051 C 0.07879 0.19726 0.13609 0.0
C1052 C 0.0653 0.18484 0.04833 0.0
C1053 C 0.08063 0.17129 0.04694 0.0
C1054 C 0.09643 0.17242 0.08516 0.0
C1055 C 0.09545 0.18524 0.12972 0.0
C1056 C 0.07801 0.15422 0.0147 0.0
C1057 C 0.07628 0.15548 0.95192 0.0
C1058 C 0.07594 0.13671 0.04707 0.0
C1059 C 0.07604 0.13453 0.11392 0.0
C1060 C 0.09046 0.12303 0.14123 0.0
C1061 C 0.09057 0.12097 0.20427 0.0
C1062 C 0.07626 0.13029 0.24041 0.0
C1063 C 0.06176 0.1416 0.21358 0.0
C1064 C 0.06154 0.14367 0.15063 0.0
C1065 C 0.07222 0.0825 0.84885 0.0
C1066 C 0.05487 0.07259 0.87047 0.0
C1067 C 0.07739 0.09864 0.87556 0.0
C1068 C 0.06534 0.10509 0.9244 0.0
C1069 C 0.04825 0.09501 0.94661 0.0
C1070 C 0.04304 0.07898 0.9199 0.0
C1071 C 0.07045 0.1222 0.95341 0.0
C1072 C 0.07256 0.12095 0.01591 0.0
C1073 C 0.07232 0.13969 0.92092 0.0
C1074 C 0.06916 0.14205 0.85546 0.0
C1075 C 0.05076 0.13718 0.83369 0.0
C1076 C 0.04787 0.13944 0.77188 0.0
C1077 C 0.06326 0.14658 0.7314 0.0
C1078 C 0.08154 0.15159 0.75273 0.0
C1079 C 0.08448 0.14943 0.81454 0.0
H1080 H 0.06102 0.14825 0.68354 0.0
H1081 H 0.07641 0.12873 0.28917 0.0
H1082 H 0.3313 0.03275 0.12726 0.0
H1083 H 0.35855 0.03596 0.04719 0.0
H1084 H 0.34947 0.97952 0.0037 0.0
H1085 H 0.3223 0.97636 0.08385 0.0
H1086 H 0.38765 0.98551 0.03336 0.0
H1087 H 0.34101 0.016 0.9019 0.0
H1088 H 0.31573 0.03966 0.87365 0.0
H1089 H 0.35812 0.0828 0.89209 0.0
H1090 H 0.38358 0.0594 0.92126 0.0
H1091 H 0.46215 0.97675 0.79954 0.0
H1092 H 0.43049 0.9785 0.86031 0.0
H1093 H 0.43867 0.03721 0.87312 0.0
H1094 H 0.47015 0.03567 0.80884 0.0
H1095 H 0.40103 0.03172 0.86066 0.0
H1096 H 0.44714 0.00327 0.99387 0.0
H1097 H 0.47307 0.98099 0.02756 0.0
H1098 H 0.43264 0.93589 0.01463 0.0
H1099 H 0.40655 0.95788 0.98009 0.0
C1100 C 0.33445 0.02139 0.0984 0.0
C1101 C 0.3244 0.00445 0.11066 0.0
C1102 C 0.35016 0.02316 0.05298 0.0
C1103 C 0.35615 0.00796 0.01936 0.0
C1104 C 0.34513 0.99145 0.02891 0.0
C1105 C 0.32941 0.98971 0.0741 0.0
C1106 C 0.37534 0.00838 0.98038 0.0
C1107 C 0.39042 0.99542 0.99493 0.0
C1108 C 0.37941 0.02188 0.9321 0.0
C1109 C 0.36414 0.03595 0.91431 0.0
C1110 C 0.34489 0.03054 0.90042 0.0
C1111 C 0.33054 0.0439 0.88414 0.0
C1112 C 0.3353 0.06273 0.88122 0.0
C1113 C 0.35445 0.06822 0.89442 0.0
C1114 C 0.36885 0.05491 0.91076 0.0
C1115 C 0.45734 0.99005 0.81552 0.0
C1116 C 0.46887 0.00603 0.79995 0.0
C1117 C 0.43918 0.99103 0.85063 0.0
C1118 C 0.43228 0.0079 0.87297 0.0
C1119 C 0.44364 0.02398 0.8569 0.0
C1120 C 0.4617 0.02308 0.82043 0.0
C1121 C 0.41323 0.00854 0.91285 0.0
C1122 C 0.39826 0.02177 0.89894 0.0
C1123 C 0.40933 0.99549 0.96272 0.0
C1124 C 0.42495 0.98222 0.98391 0.0
C1125 C 0.44382 0.98859 0.99786 0.0
C1126 C 0.45855 0.97602 0.01715 0.0
C1127 C 0.45452 0.95703 0.0231 0.0
C1128 C 0.43574 0.95059 0.00995 0.0
C1129 C 0.42097 0.96311 0.99059 0.0
H1130 H 0.46595 0.94732 0.038 0.0
H1131 H 0.32417 0.07305 0.86862 0.0
H1132 H 0.46845 0.32376 0.11049 0.0
H1133 H 0.46512 0.34738 0.02677 0.0
H1134 H 0.5297 0.3502 0.99949 0.0
H1135 H 0.53303 0.32656 0.08228 0.0
H1136 H 0.50421 0.38336 0.04589 0.0
H1137 H 0.5127 0.339 0.89034 0.0
H1138 H 0.50324 0.31168 0.8381 0.0
H1139 H 0.44561 0.33648 0.80738 0.0
H1140 H 0.45463 0.36386 0.86027 0.0
H1141 H 0.53546 0.45246 0.83096 0.0
H1142 H 0.52952 0.42349 0.89061 0.0
H1143 H 0.46869 0.42265 0.83593 0.0
H1144 H 0.47472 0.45181 0.77408 0.0
H1145 H 0.48595 0.38847 0.83263 0.0
H1146 H 0.47755 0.43372 0.97778 0.0
H1147 H 0.48533 0.46118 0.03191 0.0
H1148 H 0.53984 0.43497 0.08762 0.0
H1149 H 0.53258 0.40748 0.03294 0.0
C1150 C 0.48185 0.32865 0.08414 0.0
C1151 C 0.50099 0.32323 0.10208 0.0
C1152 C 0.47995 0.34223 0.03673 0.0
C1153 C 0.49718 0.35052 0.00717 0.0
C1154 C 0.51625 0.34385 0.02147 0.0
C1155 C 0.51814 0.33025 0.06839 0.0
C1156 C 0.49565 0.36841 0.97121 0.0
C1157 C 0.50036 0.3845 0.99909 0.0
C1158 C 0.4897 0.36988 0.91126 0.0
C1159 C 0.48423 0.35335 0.88007 0.0
C1160 C 0.49791 0.33852 0.87319 0.0
C1161 C 0.49265 0.32305 0.84324 0.0
C1162 C 0.4738 0.32231 0.81965 0.0
C1163 C 0.46018 0.33705 0.82581 0.0
C1164 C 0.46537 0.35255 0.85574 0.0
C1165 C 0.52073 0.44627 0.83163 0.0
C1166 C 0.50551 0.45459 0.79794 0.0
C1167 C 0.51734 0.42966 0.86605 0.0
C1168 C 0.49856 0.421 0.86862 0.0
C1169 C 0.48328 0.42913 0.83483 0.0
C1170 C 0.48671 0.44584 0.79983 0.0
C1171 C 0.49532 0.40342 0.90662 0.0
C1172 C 0.48957 0.38742 0.87961 0.0
C1173 C 0.50006 0.402 0.96797 0.0
C1174 C 0.50456 0.41856 0.00085 0.0
C1175 C 0.49128 0.43386 0.00114 0.0
C1176 C 0.49559 0.44943 0.03198 0.0
C1177 C 0.51308 0.44983 0.06309 0.0
C1178 C 0.5263 0.43465 0.06346 0.0
C1179 C 0.52208 0.41906 0.03259 0.0
H1180 H 0.51638 0.46189 0.087 0.0
H1181 H 0.46977 0.31033 0.79642 0.0
H1182 H 0.21548 0.46992 0.03846 0.0
H1183 H 0.19026 0.46699 0.96412 0.0
H1184 H 0.18696 0.52653 0.93718 0.0
H1185 H 0.21251 0.52945 0.01016 0.0
H1186 H 0.15073 0.50328 0.99576 0.0
H1187 H 0.199 0.51114 0.82337 0.0
H1188 H 0.22951 0.5032 0.76074 0.0
H1189 H 0.20616 0.449 0.74104 0.0
H1190 H 0.17562 0.45653 0.80441 0.0
H1191 H 0.07188 0.52229 0.81106 0.0
H1192 H 0.10422 0.52115 0.85536 0.0
H1193 H 0.11247 0.46421 0.81088 0.0
H1194 H 0.07998 0.46535 0.76463 0.0
H1195 H 0.14707 0.48333 0.78726 0.0
H1196 H 0.09968 0.47397 0.95692 0.0
H1197 H 0.06949 0.4797 0.02404 0.0
H1198 H 0.09128 0.5337 0.05452 0.0
H1199 H 0.12144 0.52843 0.9867 0.0
C1200 C 0.2102 0.48229 0.01392 0.0
C1201 C 0.21612 0.49989 0.02891 0.0
C1202 C 0.19573 0.48062 0.97187 0.0
C1203 C 0.18683 0.49655 0.94521 0.0
C1204 C 0.19386 0.51409 0.95679 0.0
C1205 C 0.20854 0.51575 0.99803 0.0
C1206 C 0.16773 0.49509 0.91577 0.0
C1207 C 0.14992 0.49916 0.94986 0.0
C1208 C 0.16675 0.48889 0.85705 0.0
C1209 C 0.18515 0.48431 0.81938 0.0
C1210 C 0.20048 0.49744 0.80638 0.0
C1211 C 0.21775 0.49304 0.77055 0.0
C1212 C 0.21981 0.47558 0.74712 0.0
C1213 C 0.20457 0.46251 0.75934 0.0
C1214 C 0.18727 0.46684 0.79518 0.0
C1215 C 0.08043 0.50943 0.81085 0.0
C1216 C 0.07319 0.49382 0.78487 0.0
C1217 C 0.09897 0.50881 0.83636 0.0
C1218 C 0.11064 0.49251 0.8374 0.0
C1219 C 0.10365 0.47691 0.81085 0.0
C1220 C 0.08503 0.47754 0.78487 0.0
C1221 C 0.13002 0.49199 0.8668 0.0
C1222 C 0.14785 0.48742 0.83317 0.0
C1223 C 0.13108 0.49745 0.92657 0.0
C1224 C 0.11277 0.50084 0.96648 0.0
C1225 C 0.09795 0.48714 0.9775 0.0
C1226 C 0.08085 0.49029 0.01572 0.0
C1227 C 0.07845 0.50706 0.04345 0.0
C1228 C 0.09313 0.52073 0.03292 0.0
C1229 C 0.11023 0.51766 0.99461 0.0
H1230 H 0.06523 0.50946 0.07316 0.0
H1231 H 0.23318 0.47221 0.71934 0.0
H1232 H 0.92256 0.8198 0.21382 0.0
H1233 H 0.92323 0.84152 0.29363 0.0
H1234 H 0.97931 0.81735 0.34726 0.0
H1235 H 0.97849 0.79542 0.26776 0.0
H1236 H 0.9559 0.83288 0.445 0.0
H1237 H 0.98249 0.84982 0.23946 0.0
H1238 H 0.98091 0.85438 0.129 0.0
H1239 H 0.93086 0.89185 0.15277 0.0
H1240 H 0.93195 0.88728 0.26369 0.0
H1241 H 0.00884 0.92774 0.43455 0.0
H1242 H 0.99811 0.90006 0.38869 0.0
H1243 H 0.94588 0.89628 0.51492 0.0
H1244 H 0.9568 0.92389 0.56199 0.0
H1245 H 0.96465 0.89428 0.3328 0.0
H1246 H 0.93566 0.84861 0.54186 0.0
H1247 H 0.94044 0.84503 0.65126 0.0
H1248 H 1.00063 0.86561 0.61907 0.0
H1249 H 0.99633 0.86902 0.50947 0.0
C1250 C 0.93442 0.81847 0.2449 0.0
C1251 C 0.95045 0.80597 0.23501 0.0
C1252 C 0.93488 0.83096 0.29014 0.0
C1253 C 0.95151 0.83126 0.32553 0.0
C1254 C 0.96633 0.81733 0.32047 0.0
C1255 C 0.96581 0.80474 0.27528 0.0
C1256 C 0.95543 0.84797 0.35816 0.0
C1257 C 0.95761 0.84635 0.42074 0.0
C1258 C 0.95802 0.86549 0.3263 0.0
C1259 C 0.95715 0.86805 0.25976 0.0
C1260 C 0.97107 0.85893 0.22114 0.0
C1261 C 0.97034 0.86162 0.15845 0.0
C1262 C 0.95584 0.87344 0.13381 0.0
C1263 C 0.94206 0.88266 0.1719 0.0
C1264 C 0.94273 0.88005 0.23468 0.0
C1265 C 0.99511 0.92098 0.45274 0.0
C1266 C 0.98368 0.92796 0.50192 0.0
C1267 C 0.98895 0.90522 0.42633 0.0
C1268 C 0.97129 0.89604 0.44867 0.0
C1269 C 0.95967 0.90306 0.49737 0.0
C1270 C 0.96581 0.91892 0.52378 0.0
C1271 C 0.9651 0.8793 0.41976 0.0
C1272 C 0.96255 0.88091 0.35757 0.0
C1273 C 0.96254 0.86182 0.45197 0.0
C1274 C 0.96557 0.85925 0.51754 0.0
C1275 C 0.94995 0.85226 0.55812 0.0
C1276 C 0.95257 0.85028 0.62016 0.0
C1277 C 0.9708 0.85514 0.64211 0.0
C1278 C 0.9865 0.86189 0.60202 0.0
C1279 C 0.98397 0.86387 0.53995 0.0
H1280 H 0.97277 0.85365 0.69016 0.0
H1281 H 0.9553 0.87546 0.08524 0.0
H1282 H 0.71147 0.95859 0.24769 0.0
H1283 H 0.68397 0.95667 0.32701 0.0
H1284 H 0.69174 0.0144 0.3572 0.0
H1285 H 0.71925 0.01628 0.27772 0.0
H1286 H 0.67903 0.99326 0.46422 0.0
H1287 H 0.66008 0.00468 0.26032 0.0
H1288 H 0.6596 0.99868 0.15239 0.0
H1289 H 0.6333 0.94537 0.20031 0.0
H1290 H 0.63383 0.95098 0.30868 0.0
H1291 H 0.57788 0.02094 0.54731 0.0
H1292 H 0.61013 0.01777 0.4889 0.0
H1293 H 0.60276 0.95851 0.49542 0.0
H1294 H 0.5706 0.96148 0.55553 0.0
H1295 H 0.6155 0.97877 0.37333 0.0
H1296 H 0.63477 0.96779 0.57806 0.0
H1297 H 0.63488 0.97454 0.68515 0.0
H1298 H 0.65937 0.02843 0.63399 0.0
H1299 H 0.65953 0.02185 0.52615 0.0
C1300 C 0.70801 0.97056 0.27359 0.0
C1301 C 0.71771 0.98748 0.25752 0.0
C1302 C 0.69211 0.96955 0.31829 0.0
C1303 C 0.68556 0.98548 0.34737 0.0
C1304 C 0.69653 0.00193 0.33547 0.0
C1305 C 0.71238 0.00296 0.29051 0.0
C1306 C 0.66587 0.98563 0.38356 0.0
C1307 C 0.66517 0.99017 0.44419 0.0
C1308 C 0.6477 0.98153 0.35771 0.0
C1309 C 0.6472 0.97816 0.29262 0.0
C1310 C 0.65434 0.99161 0.24786 0.0
C1311 C 0.65403 0.9883 0.18661 0.0
C1312 C 0.64651 0.97162 0.16951 0.0
C1313 C 0.63918 0.95826 0.21364 0.0
C1314 C 0.63945 0.96151 0.27499 0.0
C1315 C 0.583 0.00722 0.53597 0.0
C1316 C 0.57161 0.99146 0.55597 0.0
C1317 C 0.60149 0.00544 0.50281 0.0
C1318 C 0.60886 0.98791 0.488 0.0
C1319 C 0.59733 0.97217 0.50641 0.0
C1320 C 0.57898 0.97389 0.54072 0.0
C1321 C 0.62874 0.98618 0.45394 0.0
C1322 C 0.62943 0.98158 0.39347 0.0
C1323 C 0.64684 0.99037 0.4797 0.0
C1324 C 0.64698 0.9944 0.54419 0.0
C1325 C 0.64006 0.98112 0.58966 0.0
C1326 C 0.6401 0.98491 0.65052 0.0
C1327 C 0.64698 0.00198 0.66653 0.0
C1328 C 0.654 0.01523 0.62157 0.0
C1329 C 0.65411 0.01145 0.56055 0.0
H1330 H 0.64694 0.00492 0.71373 0.0
H1331 H 0.6463 0.96908 0.12206 0.0
H1332 H 0.51109 0.67229 0.28245 0.0
H1333 H 0.51674 0.65069 0.3689 0.0
H1334 H 0.5809 0.65698 0.33415 0.0
H1335 H 0.57515 0.67869 0.24694 0.0
H1336 H 0.57069 0.6214 0.33818 0.0
H1337 H 0.55793 0.6699 0.46745 0.0
H1338 H 0.54121 0.69713 0.51066 0.0
H1339 H 0.4878 0.66534 0.55779 0.0
H1340 H 0.50405 0.63799 0.51393 0.0
H1341 H 0.57236 0.54908 0.58271 0.0
H1342 H 0.5789 0.57897 0.52559 0.0
H1343 H 0.51558 0.5854 0.49984 0.0
H1344 H 0.50896 0.55573 0.55554 0.0
H1345 H 0.53354 0.6174 0.53992 0.0
H1346 H 0.54511 0.57175 0.38838 0.0
H1347 H 0.56227 0.54457 0.34594 0.0
H1348 H 0.61913 0.57194 0.34375 0.0
H1349 H 0.6023 0.59921 0.38697 0.0
C1350 C 0.52637 0.66956 0.29465 0.0
C1351 C 0.54269 0.67717 0.2584 0.0
C1352 C 0.52962 0.65723 0.34413 0.0
C1353 C 0.54927 0.65222 0.35829 0.0
C1354 C 0.56562 0.66069 0.32422 0.0
C1355 C 0.56234 0.67319 0.27481 0.0
C1356 C 0.55238 0.63637 0.40297 0.0
C1357 C 0.56305 0.62075 0.38302 0.0
C1358 C 0.54225 0.63538 0.46129 0.0
C1359 C 0.53222 0.65187 0.48704 0.0
C1360 C 0.54255 0.66874 0.48649 0.0
C1361 C 0.53316 0.6842 0.51122 0.0
C1362 C 0.51345 0.68297 0.53691 0.0
C1363 C 0.50307 0.66627 0.53789 0.0
C1364 C 0.51238 0.65077 0.51316 0.0
C1365 C 0.55988 0.55685 0.56455 0.0
C1366 C 0.54016 0.54998 0.57347 0.0
C1367 C 0.56363 0.57391 0.53212 0.0
C1368 C 0.54769 0.58442 0.50884 0.0
C1369 C 0.52807 0.57757 0.51781 0.0
C1370 C 0.52435 0.56051 0.54932 0.0
C1371 C 0.55113 0.60243 0.47393 0.0
C1372 C 0.54166 0.61836 0.49578 0.0
C1373 C 0.56242 0.60376 0.41757 0.0
C1374 C 0.5725 0.58739 0.39167 0.0
C1375 C 0.5613 0.57189 0.3794 0.0
C1376 C 0.57095 0.55649 0.35508 0.0
C1377 C 0.59179 0.5565 0.34237 0.0
C1378 C 0.603 0.57193 0.35377 0.0
C1379 C 0.59342 0.58736 0.37816 0.0
H1380 H 0.59923 0.54457 0.32351 0.0
H1381 H 0.50622 0.69495 0.55611 0.0
H1382 H 0.81883 0.53052 0.36555 0.0
H1383 H 0.8422 0.53508 0.44381 0.0
H1384 H 0.85729 0.47679 0.45024 0.0
H1385 H 0.83408 0.47226 0.37188 0.0
H1386 H 0.85977 0.49318 0.56424 0.0
H1387 H 0.88325 0.5022 0.35155 0.0
H1388 H 0.88123 0.51618 0.24789 0.0
H1389 H 0.88503 0.5706 0.31309 0.0
H1390 H 0.88699 0.55687 0.4174 0.0
H1391 H 0.96289 0.47898 0.5935 0.0
H1392 H 0.92921 0.48145 0.55702 0.0
H1393 H 0.92983 0.54075 0.56934 0.0
H1394 H 0.96365 0.53841 0.60672 0.0
H1395 H 0.91646 0.5291 0.45953 0.0
H1396 H 0.90197 0.51797 0.67097 0.0
H1397 H 0.90572 0.50246 0.77185 0.0
H1398 H 0.88582 0.45125 0.7095 0.0
H1399 H 0.88224 0.46637 0.60791 0.0
C1400 C 0.82642 0.51857 0.38586 0.0
C1401 C 0.82477 0.50106 0.36289 0.0
C1402 C 0.83982 0.52119 0.43027 0.0
C1403 C 0.85163 0.5063 0.4522 0.0
C1404 C 0.84828 0.48843 0.43406 0.0
C1405 C 0.83505 0.48585 0.38932 0.0
C1406 C 0.86991 0.50972 0.48401 0.0
C1407 C 0.87214 0.50111 0.5417 0.0
C1408 C 0.88595 0.52026 0.45474 0.0
C1409 C 0.88502 0.52854 0.39219 0.0
C1410 C 0.88352 0.51715 0.34378 0.0
C1411 C 0.88239 0.52502 0.28493 0.0
C1412 C 0.88287 0.54428 0.27391 0.0
C1413 C 0.8846 0.55569 0.32172 0.0
C1414 C 0.88575 0.54787 0.3807 0.0
C1415 C 0.95597 0.49259 0.58815 0.0
C1416 C 0.96596 0.50851 0.60298 0.0
C1417 C 0.93664 0.49395 0.56779 0.0
C1418 C 0.92695 0.51124 0.56147 0.0
C1419 C 0.93704 0.52726 0.57447 0.0
C1420 C 0.95635 0.5259 0.59561 0.0
C1421 C 0.90647 0.51239 0.53955 0.0
C1422 C 0.9039 0.52171 0.48326 0.0
C1423 C 0.89022 0.50244 0.57017 0.0
C1424 C 0.89194 0.49331 0.63159 0.0
C1425 C 0.8985 0.50337 0.67861 0.0
C1426 C 0.90059 0.49465 0.73597 0.0
C1427 C 0.89605 0.47587 0.74705 0.0
C1428 C 0.88933 0.4658 0.70085 0.0
C1429 C 0.88724 0.47445 0.64337 0.0
H1430 H 0.89772 0.46914 0.79146 0.0
H1431 H 0.88198 0.55035 0.2283 0.0
loop_
_geom_bond_atom_site_label_1
_geom_bond_atom_site_label_2
_geom_bond_distance
_geom_bond_site_symmetry_2
_ccdc_geom_bond_type
H0 C5 0.930 . S
H1 C8 0.930 . S
H2 C10 0.930 . S
H3 C4 1.016 . S
C4 H3 1.016 . S
C4 N11 1.286 . S
C5 H0 0.930 . S
C5 C6 1.397 . S
C5 C7 1.361 . S
C6 C5 1.397 . S
C6 C10 1.390 . S
C7 C5 1.361 . S
C7 C8 1.393 . S
C7 N11 1.413 . S
C8 H1 0.930 . S
C8 C7 1.393 . S
C8 C9 1.399 . S
C9 C8 1.399 . S
C9 C10 1.381 . S
C10 H2 0.930 . S
C10 C6 1.390 . S
C10 C9 1.381 . S
N11 C4 1.286 . S
N11 C7 1.413 . S
H12 C17 0.930 . S
H13 C20 0.930 . S
H14 C22 0.930 . S
H15 C16 1.016 . S
C16 H15 1.016 . S
C16 N23 1.286 1_556 S
C17 H12 0.930 . S
C17 C18 1.397 . S
C17 C19 1.361 . S
C18 C17 1.397 . S
C18 C22 1.390 . S
C19 C17 1.361 . S
C19 C20 1.393 1_554 S
C19 N23 1.413 . S
C20 H13 0.930 . S
C20 C19 1.393 1_556 S
C20 C21 1.399 . S
C21 C20 1.399 . S
C21 C22 1.381 1_556 S
C22 H14 0.930 . S
C22 C18 1.390 . S
C22 C21 1.381 1_554 S
N23 C16 1.286 1_554 S
N23 C19 1.413 . S
H24 C29 0.930 . S
H25 C32 0.930 1_556 S
H26 C34 0.930 . S
H27 C28 1.034 1_556 S
C28 H27 1.034 1_554 S
C28 N35 1.264 1_565 S
C29 H24 0.930 . S
C29 C30 1.407 . S
C29 C31 1.361 . S
C30 C29 1.407 . S
C30 C34 1.382 1_545 S
C31 C29 1.361 . S
C31 C32 1.393 . S
C31 N35 1.413 . S
C32 H25 0.930 1_554 S
C32 C31 1.393 . S
C32 C33 1.402 . S
C33 C32 1.402 . S
C33 C34 1.380 1_545 S
C34 H26 0.930 . S
C34 C30 1.382 1_565 S
C34 C33 1.380 1_565 S
N35 C28 1.264 1_545 S
N35 C31 1.413 . S
H36 C41 0.930 . S
H37 C44 0.930 1_556 S
H38 C46 0.930 . S
H39 C40 1.016 1_556 S
C40 H39 1.016 1_554 S
C40 N47 1.286 . S
C41 H36 0.930 . S
C41 C42 1.397 . S
C41 C43 1.361 . S
C42 C41 1.397 . S
C42 C46 1.390 . S
C43 C41 1.361 . S
C43 C44 1.393 . S
C43 N47 1.413 . S
C44 H37 0.930 1_554 S
C44 C43 1.393 . S
C44 C45 1.399 . S
C45 C44 1.399 . S
C45 C46 1.381 . S
C46 H38 0.930 . S
C46 C42 1.390 . S
C46 C45 1.381 . S
N47 C40 1.286 . S
N47 C43 1.413 . S
H48 C53 0.930 . S
H49 C56 0.930 . S
H50 C58 0.930 . S
H51 C52 1.016 . S
C52 H51 1.016 . S
C52 N59 1.286 . S
C53 H48 0.930 . S
C53 C54 1.397 . S
C53 C55 1.361 . S
C54 C53 1.397 . S
C54 C58 1.390 . S
C55 C53 1.361 . S
C55 C56 1.393 . S
C55 N59 1.413 . S
C56 H49 0.930 . S
C56 C55 1.393 . S
C56 C57 1.399 . S
C57 C56 1.399 . S
C57 C58 1.381 . S
C58 H50 0.930 . S
C58 C54 1.390 . S
C58 C57 1.381 . S
N59 C52 1.286 . S
N59 C55 1.413 . S
H60 C65 0.930 . S
H61 C68 0.930 . S
H62 C70 0.930 . S
H63 C64 1.016 . S
C64 H63 1.016 . S
C64 N71 1.286 . S
C65 H60 0.930 . S
C65 C66 1.397 . S
C65 C67 1.361 . S
C66 C65 1.397 . S
C66 C70 1.390 . S
C67 C65 1.361 . S
C67 C68 1.393 . S
C67 N71 1.413 . S
C68 H61 0.930 . S
C68 C67 1.393 . S
C68 C69 1.399 . S
C69 C68 1.399 . S
C69 C70 1.381 . S
C70 H62 0.930 . S
C70 C66 1.390 . S
C70 C69 1.381 . S
N71 C64 1.286 . S
N71 C67 1.413 . S
H72 C77 0.930 . S
H73 C80 0.930 . S
H74 C82 0.930 1_565 S
H75 C76 1.016 1_565 S
C76 H75 1.016 1_545 S
C76 N83 1.286 . S
C77 H72 0.930 . S
C77 C78 1.397 . S
C77 C79 1.361 . S
C78 C77 1.397 . S
C78 C82 1.390 . S
C79 C77 1.361 . S
C79 C80 1.393 . S
C79 N83 1.413 . S
C80 H73 0.930 . S
C80 C79 1.393 . S
C80 C81 1.399 . S
C81 C80 1.399 . S
C81 C82 1.381 . S
C82 H74 0.930 1_545 S
C82 C78 1.390 . S
C82 C81 1.381 . S
N83 C76 1.286 . S
N83 C79 1.413 . S
H84 C89 0.930 . S
H85 C92 0.930 . S
H86 C94 0.930 . S
H87 C88 1.016 . S
C88 H87 1.016 . S
C88 N95 1.286 . S
C89 H84 0.930 . S
C89 C90 1.397 . S
C89 C91 1.361 . S
C90 C89 1.397 . S
C90 C94 1.390 . S
C91 C89 1.361 . S
C91 C92 1.393 . S
C91 N95 1.413 . S
C92 H85 0.930 . S
C92 C91 1.393 . S
C92 C93 1.399 . S
C93 C92 1.399 . S
C93 C94 1.381 . S
C94 H86 0.930 . S
C94 C90 1.390 . S
C94 C93 1.381 . S
N95 C88 1.286 . S
N95 C91 1.413 . S
C96 O112 1.251 . S
C96 O114 1.254 . S
N97 C98 1.333 . S
N97 C102 1.307 1_455 S
N97 Zn103 2.020 . S
C98 N97 1.333 . S
C98 C99 1.379 . S
C98 H116 0.952 . S
C99 C98 1.379 . S
C99 C100 1.366 1_455 S
C99 H126 0.949 . S
C100 C99 1.366 1_655 S
C100 C101 1.373 . S
C101 C100 1.373 . S
C101 C102 1.370 . S
C101 H127 0.950 . S
C102 N97 1.307 1_655 S
C102 C101 1.370 . S
C102 H120 0.948 . S
Zn103 N97 2.020 . S
Zn103 O112 2.039 . S
Zn103 O118 2.034 . S
Zn103 O122 2.025 1_565 S
Zn103 O124 2.024 1_455 S
C104 O123 1.246 . S
C104 O124 1.249 1_545 S
N105 C106 1.307 . S
N105 C107 1.333 . S
N105 Zn111 2.020 . S
C106 N105 1.307 . S
C106 C110 1.370 . S
C106 H117 0.948 . S
C107 N105 1.333 . S
C107 C108 1.379 . S
C107 H115 0.952 . S
C108 C107 1.379 . S
C108 C109 1.390 . S
C108 H128 0.949 . S
C109 C108 1.390 . S
C109 C110 1.357 . S
C110 C106 1.370 . S
C110 C109 1.357 . S
C110 H129 0.950 . S
Zn111 N105 2.020 . S
Zn111 O114 2.025 1_545 S
Zn111 O119 2.024 . S
Zn111 O121 2.039 . S
Zn111 O123 2.034 1_455 S
O112 C96 1.251 . S
O112 Zn103 2.039 . S
C113 O118 1.246 . S
C113 O119 1.249 1_565 S
O114 C96 1.254 . S
O114 Zn111 2.025 1_565 S
H115 C107 0.952 . S
H116 C98 0.952 . S
H117 C106 0.948 . S
O118 Zn103 2.034 . S
O118 C113 1.246 . S
O119 Zn111 2.024 . S
O119 C113 1.249 1_545 S
H120 C102 0.948 . S
O121 Zn111 2.039 . S
O121 C125 1.251 . S
O122 Zn103 2.025 1_545 S
O122 C125 1.254 . S
O123 C104 1.246 . S
O123 Zn111 2.034 1_655 S
O124 Zn103 2.024 1_655 S
O124 C104 1.249 1_565 S
C125 O121 1.251 . S
C125 O122 1.254 . S
H126 C99 0.949 . S
H127 C101 0.950 . S
H128 C108 0.949 . S
H129 C110 0.950 . S
C130 O146 1.251 1_565 S
C130 O148 1.254 . S
N131 C132 1.333 . S
N131 C136 1.307 . S
N131 Zn137 2.020 . S
C132 N131 1.333 . S
C132 C133 1.379 . S
C132 H150 0.952 . S
C133 C132 1.379 . S
C133 C134 1.390 . S
C133 H160 0.949 . S
C134 C133 1.390 . S
C134 C135 1.357 . S
C135 C134 1.357 . S
C135 C136 1.370 . S
C135 H161 0.950 . S
C136 N131 1.307 . S
C136 C135 1.370 . S
C136 H154 0.948 . S
Zn137 N131 2.020 . S
Zn137 O146 2.039 . S
Zn137 O152 2.034 . S
Zn137 O156 2.025 . S
Zn137 O158 2.024 . S
C138 O157 1.246 1_545 S
C138 O158 1.249 . S
N139 C140 1.307 . S
N139 C141 1.333 . S
N139 Zn145 2.020 . S
C140 N139 1.307 . S
C140 C144 1.370 . S
C140 H151 0.948 . S
C141 N139 1.333 . S
C141 C142 1.379 . S
C141 H149 0.952 . S
C142 C141 1.379 . S
C142 C143 1.390 . S
C142 H162 0.949 . S
C143 C142 1.390 . S
C143 C144 1.357 . S
C144 C140 1.370 . S
C144 C143 1.357 . S
C144 H163 0.950 . S
Zn145 N139 2.020 . S
Zn145 O148 2.025 . S
Zn145 O153 2.024 . S
Zn145 O155 2.039 . S
Zn145 O157 2.034 . S
O146 C130 1.251 1_545 S
O146 Zn137 2.039 . S
C147 O152 1.246 1_565 S
C147 O153 1.249 . S
O148 C130 1.254 . S
O148 Zn145 2.025 . S
H149 C141 0.952 . S
H150 C132 0.952 . S
H151 C140 0.948 . S
O152 Zn137 2.034 . S
O152 C147 1.246 1_545 S
O153 Zn145 2.024 . S
O153 C147 1.249 . S
H154 C136 0.948 . S
O155 Zn145 2.039 . S
O155 C159 1.251 1_565 S
O156 Zn137 2.025 . S
O156 C159 1.254 . S
O157 C138 1.246 1_565 S
O157 Zn145 2.034 . S
O158 Zn137 2.024 . S
O158 C138 1.249 . S
C159 O155 1.251 1_545 S
C159 O156 1.254 . S
H160 C133 0.949 . S
H161 C135 0.950 . S
H162 C142 0.949 . S
H163 C144 0.950 . S
C164 O180 1.251 . S
C164 O182 1.254 . S
N165 C166 1.333 . S
N165 C170 1.307 . S
N165 Zn171 2.020 . S
C166 N165 1.333 . S
C166 C167 1.379 . S
C166 H184 0.952 . S
C167 C166 1.379 . S
C167 C168 1.390 . S
C167 H194 0.949 . S
C168 C167 1.390 . S
C168 C169 1.357 . S
C169 C168 1.357 . S
C169 C170 1.370 . S
C169 H195 0.950 . S
C170 N165 1.307 . S
C170 C169 1.370 . S
C170 H188 0.948 . S
Zn171 N165 2.020 . S
Zn171 O180 2.039 . S
Zn171 O186 2.034 . S
Zn171 O190 2.025 . S
Zn171 O192 2.024 . S
C172 O191 1.246 . S
C172 O192 1.249 . S
N173 C174 1.307 . S
N173 C175 1.333 . S
N173 Zn179 2.020 . S
C174 N173 1.307 . S
C174 C178 1.370 . S
C174 H185 0.948 . S
C175 N173 1.333 . S
C175 C176 1.379 . S
C175 H183 0.952 . S
C176 C175 1.379 . S
C176 C177 1.390 . S
C176 H196 0.949 . S
C177 C176 1.390 . S
C177 C178 1.357 . S
C178 C174 1.370 . S
C178 C177 1.357 . S
C178 H197 0.950 . S
Zn179 N173 2.020 . S
Zn179 O182 2.025 . S
Zn179 O187 2.024 . S
Zn179 O189 2.039 . S
Zn179 O191 2.034 . S
O180 C164 1.251 . S
O180 Zn171 2.039 . S
C181 O186 1.246 . S
C181 O187 1.249 . S
O182 C164 1.254 . S
O182 Zn179 2.025 . S
H183 C175 0.952 . S
H184 C166 0.952 . S
H185 C174 0.948 . S
O186 Zn171 2.034 . S
O186 C181 1.246 . S
O187 Zn179 2.024 . S
O187 C181 1.249 . S
H188 C170 0.948 . S
O189 Zn179 2.039 . S
O189 C193 1.251 . S
O190 Zn171 2.025 . S
O190 C193 1.254 . S
O191 C172 1.246 . S
O191 Zn179 2.034 . S
O192 Zn171 2.024 . S
O192 C172 1.249 . S
C193 O189 1.251 . S
C193 O190 1.254 . S
H194 C167 0.949 . S
H195 C169 0.950 . S
H196 C176 0.949 . S
H197 C178 0.950 . S
C198 O214 1.251 . S
C198 O216 1.254 . S
N199 C200 1.333 . S
N199 C204 1.307 . S
N199 Zn205 2.020 . S
C200 N199 1.333 . S
C200 C201 1.379 . S
C200 H218 0.952 . S
C201 C200 1.379 . S
C201 C202 1.390 . S
C201 H228 0.949 . S
C202 C201 1.390 . S
C202 C203 1.357 . S
C203 C202 1.357 . S
C203 C204 1.370 . S
C203 H229 0.950 . S
C204 N199 1.307 . S
C204 C203 1.370 . S
C204 H222 0.948 . S
Zn205 N199 2.020 . S
Zn205 O214 2.039 . S
Zn205 O220 2.034 . S
Zn205 O224 2.025 1_455 S
Zn205 O226 2.024 . S
C206 O225 1.246 . S
C206 O226 1.249 . S
N207 C208 1.307 . S
N207 C209 1.333 . S
N207 Zn213 2.020 . S
C208 N207 1.307 . S
C208 C212 1.370 . S
C208 H219 0.948 . S
C209 N207 1.333 . S
C209 C210 1.379 . S
C209 H217 0.952 . S
C210 C209 1.379 . S
C210 C211 1.390 . S
C210 H230 0.949 1_455 S
C211 C210 1.390 . S
C211 C212 1.357 . S
C212 C208 1.370 . S
C212 C211 1.357 . S
C212 H231 0.950 . S
Zn213 N207 2.020 . S
Zn213 O216 2.025 . S
Zn213 O221 2.024 1_455 S
Zn213 O223 2.039 1_455 S
Zn213 O225 2.034 . S
O214 C198 1.251 . S
O214 Zn205 2.039 . S
C215 O220 1.246 1_655 S
C215 O221 1.249 . S
O216 C198 1.254 . S
O216 Zn213 2.025 . S
H217 C209 0.952 . S
H218 C200 0.952 . S
H219 C208 0.948 . S
O220 Zn205 2.034 . S
O220 C215 1.246 1_455 S
O221 Zn213 2.024 1_655 S
O221 C215 1.249 . S
H222 C204 0.948 . S
O223 Zn213 2.039 1_655 S
O223 C227 1.251 . S
O224 Zn205 2.025 1_655 S
O224 C227 1.254 . S
O225 C206 1.246 . S
O225 Zn213 2.034 . S
O226 Zn205 2.024 . S
O226 C206 1.249 . S
C227 O223 1.251 . S
C227 O224 1.254 . S
H228 C201 0.949 . S
H229 C203 0.950 . S
H230 C210 0.949 1_655 S
H231 C212 0.950 . S
H232 C250 0.951 . S
H233 C252 0.951 . S
H234 C254 0.950 . S
H235 C255 0.950 . S
H236 C257 0.950 . S
H237 C260 0.950 . S
H238 C261 0.950 . S
H239 C263 0.950 1_565 S
H240 C264 0.962 . S
H241 C265 0.951 . S
H242 C267 0.951 . S
H243 C269 0.950 . S
H244 C270 0.950 . S
H245 C272 0.950 . S
H246 C275 0.950 . S
H247 C276 0.950 . S
H248 C278 0.950 1_545 S
H249 C279 0.986 . S
C250 H232 0.951 . S
C250 C251 1.366 1_565 S
C250 C252 1.388 . S
C251 C250 1.366 1_545 S
C251 C255 1.385 . S
C252 H233 0.951 . S
C252 C250 1.388 . S
C252 C253 1.366 1_565 S
C253 C252 1.366 1_545 S
C253 C254 1.414 . S
C253 C256 1.499 . S
C254 H234 0.950 . S
C254 C253 1.414 . S
C254 C255 1.374 . S
C255 H235 0.950 . S
C255 C251 1.385 . S
C255 C254 1.374 . S
C256 C253 1.499 . S
C256 C257 1.373 1_545 S
C256 C258 1.389 . S
C257 H236 0.950 . S
C257 C256 1.373 1_565 S
C257 C273 1.377 . S
C258 C256 1.389 . S
C258 C259 1.524 . S
C258 C272 1.377 . S
C259 C258 1.524 . S
C259 C260 1.397 . S
C259 C264 1.355 1_545 S
C260 H237 0.950 . S
C260 C259 1.397 . S
C260 C261 1.334 . S
C261 H238 0.950 . S
C261 C260 1.334 . S
C261 C262 1.287 . S
C262 C261 1.287 . S
C262 C263 1.524 . S
C262 H281 0.913 . S
C263 H239 0.950 1_545 S
C263 C262 1.524 . S
C263 C264 1.412 1_545 S
C264 H240 0.962 . S
C264 C259 1.355 1_565 S
C264 C263 1.412 1_565 S
C265 H241 0.951 . S
C265 C266 1.366 1_545 S
C265 C267 1.388 . S
C266 C265 1.366 1_565 S
C266 C270 1.385 . S
C267 H242 0.951 . S
C267 C265 1.388 . S
C267 C268 1.366 1_545 S
C268 C267 1.366 1_565 S
C268 C269 1.414 . S
C268 C271 1.499 . S
C269 H243 0.950 . S
C269 C268 1.414 . S
C269 C270 1.374 . S
C270 H244 0.950 . S
C270 C266 1.385 . S
C270 C269 1.374 . S
C271 C268 1.499 . S
C271 C272 1.373 1_565 S
C271 C273 1.389 . S
C272 H245 0.950 . S
C272 C258 1.377 . S
C272 C271 1.373 1_545 S
C273 C257 1.377 . S
C273 C271 1.389 . S
C273 C274 1.524 . S
C274 C273 1.524 . S
C274 C275 1.397 . S
C274 C279 1.339 1_565 S
C275 H246 0.950 . S
C275 C274 1.397 . S
C275 C276 1.334 . S
C276 H247 0.950 . S
C276 C275 1.334 . S
C276 C277 1.287 . S
C277 C276 1.287 . S
C277 C278 1.524 . S
C277 H280 0.999 . S
C278 H248 0.950 1_565 S
C278 C277 1.524 . S
C278 C279 1.406 1_565 S
C279 H249 0.986 . S
C279 C274 1.339 1_545 S
C279 C278 1.406 1_545 S
H280 C277 0.999 . S
H281 C262 0.913 . S
H282 C300 0.951 . S
H283 C302 0.951 . S
H284 C304 0.950 . S
H285 C305 0.950 . S
H286 C307 0.950 . S
H287 C310 0.950 . S
H288 C311 0.950 . S
H289 C313 0.950 . S
H290 C314 0.950 . S
H291 C315 0.951 . S
H292 C317 0.951 . S
H293 C319 0.950 . S
H294 C320 0.950 . S
H295 C322 0.950 . S
H296 C325 0.950 . S
H297 C326 0.950 . S
H298 C328 0.950 . S
H299 C329 0.950 . S
C300 H282 0.951 . S
C300 C301 1.366 . S
C300 C302 1.388 . S
C301 C300 1.366 . S
C301 C305 1.385 . S
C302 H283 0.951 . S
C302 C300 1.388 . S
C302 C303 1.366 . S
C303 C302 1.366 . S
C303 C304 1.414 . S
C303 C306 1.499 . S
C304 H284 0.950 . S
C304 C303 1.414 . S
C304 C305 1.374 . S
C305 H285 0.950 . S
C305 C301 1.385 . S
C305 C304 1.374 . S
C306 C303 1.499 . S
C306 C307 1.373 . S
C306 C308 1.389 . S
C307 H286 0.950 . S
C307 C306 1.373 . S
C307 C323 1.377 . S
C308 C306 1.389 . S
C308 C309 1.524 . S
C308 C322 1.377 . S
C309 C308 1.524 . S
C309 C310 1.397 . S
C309 C314 1.363 . S
C310 H287 0.950 . S
C310 C309 1.397 . S
C310 C311 1.334 . S
C311 H288 0.950 . S
C311 C310 1.334 . S
C311 C312 1.287 . S
C312 C311 1.287 . S
C312 C313 1.524 . S
C312 H331 0.913 . S
C313 H289 0.950 . S
C313 C312 1.524 . S
C313 C314 1.415 . S
C314 H290 0.950 . S
C314 C309 1.363 . S
C314 C313 1.415 . S
C315 H291 0.951 . S
C315 C316 1.366 . S
C315 C317 1.388 . S
C316 C315 1.366 . S
C316 C320 1.385 . S
C317 H292 0.951 . S
C317 C315 1.388 . S
C317 C318 1.366 . S
C318 C317 1.366 . S
C318 C319 1.414 . S
C318 C321 1.499 . S
C319 H293 0.950 . S
C319 C318 1.414 . S
C319 C320 1.374 . S
C320 H294 0.950 . S
C320 C316 1.385 . S
C320 C319 1.374 . S
C321 C318 1.499 . S
C321 C322 1.373 . S
C321 C323 1.389 . S
C322 H295 0.950 . S
C322 C308 1.377 . S
C322 C321 1.373 . S
C323 C307 1.377 . S
C323 C321 1.389 . S
C323 C324 1.524 . S
C324 C323 1.524 . S
C324 C325 1.397 . S
C324 C329 1.363 . S
C325 H296 0.950 . S
C325 C324 1.397 . S
C325 C326 1.334 . S
C326 H297 0.950 . S
C326 C325 1.334 . S
C326 C327 1.287 . S
C327 C326 1.287 . S
C327 C328 1.524 . S
C327 H330 0.999 . S
C328 H298 0.950 . S
C328 C327 1.524 . S
C328 C329 1.415 . S
C329 H299 0.950 . S
C329 C324 1.363 . S
C329 C328 1.415 . S
H330 C327 0.999 . S
H331 C312 0.913 . S
H332 C350 0.951 . S
H333 C352 0.951 . S
H334 C354 0.950 . S
H335 C355 0.950 . S
H336 C357 0.950 . S
H337 C360 0.950 . S
H338 C361 0.950 . S
H339 C363 0.950 . S
H340 C364 0.950 . S
H341 C365 0.951 . S
H342 C367 0.951 . S
H343 C369 0.950 . S
H344 C370 0.950 . S
H345 C372 0.950 . S
H346 C375 0.950 . S
H347 C376 0.950 . S
H348 C378 0.950 . S
H349 C379 0.950 . S
C350 H332 0.951 . S
C350 C351 1.366 . S
C350 C352 1.388 . S
C351 C350 1.366 . S
C351 C355 1.385 . S
C352 H333 0.951 . S
C352 C350 1.388 . S
C352 C353 1.366 . S
C353 C352 1.366 . S
C353 C354 1.414 . S
C353 C356 1.499 . S
C354 H334 0.950 . S
C354 C353 1.414 . S
C354 C355 1.374 . S
C355 H335 0.950 . S
C355 C351 1.385 . S
C355 C354 1.374 . S
C356 C353 1.499 . S
C356 C357 1.373 . S
C356 C358 1.389 . S
C357 H336 0.950 . S
C357 C356 1.373 . S
C357 C373 1.377 . S
C358 C356 1.389 . S
C358 C359 1.524 . S
C358 C372 1.377 . S
C359 C358 1.524 . S
C359 C360 1.397 . S
C359 C364 1.363 . S
C360 H337 0.950 . S
C360 C359 1.397 . S
C360 C361 1.334 . S
C361 H338 0.950 . S
C361 C360 1.334 . S
C361 C362 1.287 . S
C362 C361 1.287 . S
C362 C363 1.524 . S
C362 H381 0.913 . S
C363 H339 0.950 . S
C363 C362 1.524 . S
C363 C364 1.415 . S
C364 H340 0.950 . S
C364 C359 1.363 . S
C364 C363 1.415 . S
C365 H341 0.951 . S
C365 C366 1.366 . S
C365 C367 1.388 . S
C366 C365 1.366 . S
C366 C370 1.385 . S
C367 H342 0.951 . S
C367 C365 1.388 . S
C367 C368 1.366 . S
C368 C367 1.366 . S
C368 C369 1.414 . S
C368 C371 1.499 . S
C369 H343 0.950 . S
C369 C368 1.414 . S
C369 C370 1.374 . S
C370 H344 0.950 . S
C370 C366 1.385 . S
C370 C369 1.374 . S
C371 C368 1.499 . S
C371 C372 1.373 . S
C371 C373 1.389 . S
C372 H345 0.950 . S
C372 C358 1.377 . S
C372 C371 1.373 . S
C373 C357 1.377 . S
C373 C371 1.389 . S
C373 C374 1.524 . S
C374 C373 1.524 . S
C374 C375 1.397 . S
C374 C379 1.363 . S
C375 H346 0.950 . S
C375 C374 1.397 . S
C375 C376 1.334 . S
C376 H347 0.950 . S
C376 C375 1.334 . S
C376 C377 1.287 . S
C377 C376 1.287 . S
C377 C378 1.524 . S
C377 H380 0.999 . S
C378 H348 0.950 . S
C378 C377 1.524 . S
C378 C379 1.415 . S
C379 H349 0.950 . S
C379 C374 1.363 . S
C379 C378 1.415 . S
H380 C377 0.999 . S
H381 C362 0.913 . S
H382 C400 0.951 . S
H383 C402 0.951 . S
H384 C404 0.950 . S
H385 C405 0.950 . S
H386 C407 0.950 . S
H387 C410 0.950 . S
H388 C411 0.950 . S
H389 C413 0.950 . S
H390 C414 0.950 . S
H391 C415 0.951 . S
H392 C417 0.951 . S
H393 C419 0.950 . S
H394 C420 0.986 . S
H395 C422 0.950 . S
H396 C425 0.950 . S
H397 C426 0.950 . S
H398 C428 0.950 . S
H399 C429 0.950 . S
C400 H382 0.951 . S
C400 C401 1.366 . S
C400 C402 1.388 . S
C401 C400 1.366 . S
C401 C405 1.385 . S
C402 H383 0.951 . S
C402 C400 1.388 . S
C402 C403 1.366 . S
C403 C402 1.366 . S
C403 C404 1.414 . S
C403 C406 1.499 . S
C404 H384 0.950 . S
C404 C403 1.414 . S
C404 C405 1.374 . S
C405 H385 0.950 . S
C405 C401 1.385 . S
C405 C404 1.374 . S
C406 C403 1.499 . S
C406 C407 1.373 . S
C406 C408 1.389 . S
C407 H386 0.950 . S
C407 C406 1.373 . S
C407 C423 1.377 . S
C408 C406 1.389 . S
C408 C409 1.524 . S
C408 C422 1.377 . S
C409 C408 1.524 . S
C409 C410 1.397 . S
C409 C414 1.363 1_455 S
C410 H387 0.950 . S
C410 C409 1.397 . S
C410 C411 1.334 . S
C411 H388 0.950 . S
C411 C410 1.334 . S
C411 C412 1.287 1_455 S
C412 C411 1.287 1_655 S
C412 C413 1.524 . S
C412 H431 0.913 . S
C413 H389 0.950 . S
C413 C412 1.524 . S
C413 C414 1.415 . S
C414 H390 0.950 . S
C414 C409 1.363 1_655 S
C414 C413 1.415 . S
C415 H391 0.951 . S
C415 C416 1.366 . S
C415 C417 1.388 . S
C416 C415 1.366 . S
C416 C420 1.385 . S
C417 H392 0.951 . S
C417 C415 1.388 . S
C417 C418 1.366 . S
C418 C417 1.366 . S
C418 C419 1.414 . S
C418 C421 1.499 . S
C419 H393 0.950 . S
C419 C418 1.414 . S
C419 C420 1.374 . S
C420 H394 0.986 . S
C420 C416 1.385 . S
C420 C419 1.374 . S
C421 C418 1.499 . S
C421 C422 1.373 . S
C421 C423 1.389 . S
C422 H395 0.950 . S
C422 C408 1.377 . S
C422 C421 1.373 . S
C423 C407 1.377 . S
C423 C421 1.389 . S
C423 C424 1.524 . S
C424 C423 1.524 . S
C424 C425 1.397 . S
C424 C429 1.363 . S
C425 H396 0.950 . S
C425 C424 1.397 . S
C425 C426 1.334 . S
C426 H397 0.950 . S
C426 C425 1.334 . S
C426 C427 1.287 . S
C427 C426 1.287 . S
C427 C428 1.524 . S
C427 H430 0.999 . S
C428 H398 0.950 . S
C428 C427 1.524 . S
C428 C429 1.415 . S
C429 H399 0.950 . S
C429 C424 1.363 . S
C429 C428 1.415 . S
H430 C427 0.999 . S
H431 C412 0.913 . S
H432 C450 0.951 . S
H433 C452 0.951 . S
H434 C454 0.950 . S
H435 C455 0.950 . S
H436 C457 0.950 . S
H437 C460 0.950 . S
H438 C461 0.950 . S
H439 C463 0.950 . S
H440 C464 0.950 . S
H441 C465 0.951 . S
H442 C467 0.951 . S
H443 C469 0.950 . S
H444 C470 0.950 . S
H445 C472 0.950 . S
H446 C475 0.950 . S
H447 C476 0.950 . S
H448 C478 0.950 . S
H449 C479 0.950 . S
C450 H432 0.951 . S
C450 C451 1.369 . S
C450 C452 1.388 . S
C451 C450 1.369 . S
C451 C455 1.382 1_545 S
C452 H433 0.951 . S
C452 C450 1.388 . S
C452 C453 1.416 . S
C453 C452 1.416 . S
C453 C454 1.364 1_545 S
C453 C456 1.498 . S
C454 H434 0.950 . S
C454 C453 1.364 1_565 S
C454 C455 1.374 . S
C455 H435 0.950 . S
C455 C451 1.382 1_565 S
C455 C454 1.374 . S
C456 C453 1.498 . S
C456 C457 1.346 1_545 S
C456 C458 1.418 . S
C457 H436 0.950 . S
C457 C456 1.346 1_565 S
C457 C473 1.377 . S
C458 C456 1.418 . S
C458 C459 1.524 . S
C458 C472 1.377 . S
C459 C458 1.524 . S
C459 C460 1.397 . S
C459 C464 1.363 . S
C460 H437 0.950 . S
C460 C459 1.397 . S
C460 C461 1.334 . S
C461 H438 0.950 . S
C461 C460 1.334 . S
C461 C462 1.287 . S
C462 C461 1.287 . S
C462 C463 1.524 . S
C462 H481 0.913 . S
C463 H439 0.950 . S
C463 C462 1.524 . S
C463 C464 1.415 . S
C464 H440 0.950 . S
C464 C459 1.363 . S
C464 C463 1.415 . S
C465 H441 0.951 . S
C465 C466 1.366 1_565 S
C465 C467 1.388 . S
C466 C465 1.366 1_545 S
C466 C470 1.385 . S
C467 H442 0.951 . S
C467 C465 1.388 . S
C467 C468 1.366 1_565 S
C468 C467 1.366 1_545 S
C468 C469 1.414 . S
C468 C471 1.499 . S
C469 H443 0.950 . S
C469 C468 1.414 . S
C469 C470 1.374 . S
C470 H444 0.950 . S
C470 C466 1.385 . S
C470 C469 1.374 . S
C471 C468 1.499 . S
C471 C472 1.373 . S
C471 C473 1.389 1_545 S
C472 H445 0.950 . S
C472 C458 1.377 . S
C472 C471 1.373 . S
C473 C457 1.377 . S
C473 C471 1.389 1_565 S
C473 C474 1.524 . S
C474 C473 1.524 . S
C474 C475 1.397 . S
C474 C479 1.363 . S
C475 H446 0.950 . S
C475 C474 1.397 . S
C475 C476 1.334 . S
C476 H447 0.950 . S
C476 C475 1.334 . S
C476 C477 1.287 . S
C477 C476 1.287 . S
C477 C478 1.524 . S
C477 H480 0.999 1_556 S
C478 H448 0.950 . S
C478 C477 1.524 . S
C478 C479 1.415 . S
C479 H449 0.950 . S
C479 C474 1.363 . S
C479 C478 1.415 . S
H480 C477 0.999 1_554 S
H481 C462 0.913 . S
H482 C500 0.951 . S
H483 C502 0.951 . S
H484 C504 0.950 . S
H485 C505 0.950 . S
H486 C507 0.950 . S
H487 C510 0.950 . S
H488 C511 0.950 . S
H489 C513 0.950 . S
H490 C514 0.950 . S
H491 C515 0.951 . S
H492 C517 0.951 . S
H493 C519 0.950 . S
H494 C520 0.950 . S
H495 C522 0.950 . S
H496 C525 0.950 . S
H497 C526 0.950 . S
H498 C528 0.950 . S
H499 C529 0.950 . S
C500 H482 0.951 . S
C500 C501 1.366 1_554 S
C500 C502 1.388 . S
C501 C500 1.366 1_556 S
C501 C505 1.385 . S
C502 H483 0.951 . S
C502 C500 1.388 . S
C502 C503 1.366 1_554 S
C503 C502 1.366 1_556 S
C503 C504 1.414 . S
C503 C506 1.499 . S
C504 H484 0.950 . S
C504 C503 1.414 . S
C504 C505 1.374 . S
C505 H485 0.950 . S
C505 C501 1.385 . S
C505 C504 1.374 . S
C506 C503 1.499 . S
C506 C507 1.373 . S
C506 C508 1.389 . S
C507 H486 0.950 . S
C507 C506 1.373 . S
C507 C523 1.377 . S
C508 C506 1.389 . S
C508 C509 1.524 . S
C508 C522 1.377 . S
C509 C508 1.524 . S
C509 C510 1.397 . S
C509 C514 1.363 1_556 S
C510 H487 0.950 . S
C510 C509 1.397 . S
C510 C511 1.334 1_556 S
C511 H488 0.950 . S
C511 C510 1.334 1_554 S
C511 C512 1.287 . S
C512 C511 1.287 . S
C512 C513 1.524 . S
C512 H531 0.913 . S
C513 H489 0.950 . S
C513 C512 1.524 . S
C513 C514 1.415 . S
C514 H490 0.950 . S
C514 C509 1.363 1_554 S
C514 C513 1.415 . S
C515 H491 0.951 . S
C515 C516 1.366 . S
C515 C517 1.388 . S
C516 C515 1.366 . S
C516 C520 1.385 . S
C517 H492 0.951 . S
C517 C515 1.388 . S
C517 C518 1.366 . S
C518 C517 1.366 . S
C518 C519 1.414 . S
C518 C521 1.499 . S
C519 H493 0.950 . S
C519 C518 1.414 . S
C519 C520 1.374 . S
C520 H494 0.950 . S
C520 C516 1.385 . S
C520 C519 1.374 . S
C521 C518 1.499 . S
C521 C522 1.373 . S
C521 C523 1.389 . S
C522 H495 0.950 . S
C522 C508 1.377 . S
C522 C521 1.373 . S
C523 C507 1.377 . S
C523 C521 1.389 . S
C523 C524 1.524 . S
C524 C523 1.524 . S
C524 C525 1.397 . S
C524 C529 1.363 . S
C525 H496 0.950 . S
C525 C524 1.397 . S
C525 C526 1.334 . S
C526 H497 0.950 . S
C526 C525 1.334 . S
C526 C527 1.287 . S
C527 C526 1.287 . S
C527 C528 1.524 . S
C527 H530 0.999 . S
C528 H498 0.950 . S
C528 C527 1.524 . S
C528 C529 1.415 . S
C529 H499 0.950 . S
C529 C524 1.363 . S
C529 C528 1.415 . S
H530 C527 0.999 . S
H531 C512 0.913 . S
H532 C550 0.951 . S
H533 C552 0.951 . S
H534 C554 0.950 . S
H535 C555 0.950 . S
H536 C557 0.950 . S
H537 C560 0.950 . S
H538 C561 0.950 . S
H539 C563 0.950 . S
H540 C564 0.950 . S
H541 C565 0.951 . S
H542 C567 0.951 . S
H543 C569 0.950 . S
H544 C570 0.950 . S
H545 C572 0.950 . S
H546 C575 0.950 . S
H547 C576 0.950 . S
H548 C578 0.950 . S
H549 C579 0.950 . S
C550 H532 0.951 . S
C550 C551 1.366 . S
C550 C552 1.388 . S
C551 C550 1.366 . S
C551 C555 1.385 . S
C552 H533 0.951 . S
C552 C550 1.388 . S
C552 C553 1.366 1_554 S
C553 C552 1.366 1_556 S
C553 C554 1.414 . S
C553 C556 1.499 . S
C554 H534 0.950 . S
C554 C553 1.414 . S
C554 C555 1.374 1_556 S
C555 H535 0.950 . S
C555 C551 1.385 . S
C555 C554 1.374 1_554 S
C556 C553 1.499 . S
C556 C557 1.373 . S
C556 C558 1.389 . S
C557 H536 0.950 . S
C557 C556 1.373 . S
C557 C573 1.377 . S
C558 C556 1.389 . S
C558 C559 1.524 . S
C558 C572 1.377 . S
C559 C558 1.524 . S
C559 C560 1.397 . S
C559 C564 1.363 . S
C560 H537 0.950 . S
C560 C559 1.397 . S
C560 C561 1.334 . S
C561 H538 0.950 . S
C561 C560 1.334 . S
C561 C562 1.287 . S
C562 C561 1.287 . S
C562 C563 1.524 . S
C562 H581 0.913 . S
C563 H539 0.950 . S
C563 C562 1.524 . S
C563 C564 1.415 . S
C564 H540 0.950 . S
C564 C559 1.363 . S
C564 C563 1.415 . S
C565 H541 0.951 . S
C565 C566 1.366 . S
C565 C567 1.388 . S
C566 C565 1.366 . S
C566 C570 1.385 . S
C567 H542 0.951 . S
C567 C565 1.388 . S
C567 C568 1.366 . S
C568 C567 1.366 . S
C568 C569 1.414 . S
C568 C571 1.499 . S
C569 H543 0.950 . S
C569 C568 1.414 . S
C569 C570 1.374 . S
C570 H544 0.950 . S
C570 C566 1.385 . S
C570 C569 1.374 . S
C571 C568 1.499 . S
C571 C572 1.373 . S
C571 C573 1.389 . S
C572 H545 0.950 . S
C572 C558 1.377 . S
C572 C571 1.373 . S
C573 C557 1.377 . S
C573 C571 1.389 . S
C573 C574 1.524 . S
C574 C573 1.524 . S
C574 C575 1.397 . S
C574 C579 1.363 . S
C575 H546 0.950 . S
C575 C574 1.397 . S
C575 C576 1.334 . S
C576 H547 0.950 . S
C576 C575 1.334 . S
C576 C577 1.287 . S
C577 C576 1.287 . S
C577 C578 1.524 . S
C577 H580 0.999 1_556 S
C578 H548 0.950 . S
C578 C577 1.524 . S
C578 C579 1.415 . S
C579 H549 0.950 . S
C579 C574 1.363 . S
C579 C578 1.415 . S
H580 C577 0.999 1_554 S
H581 C562 0.913 . S
H582 C600 0.951 . S
H583 C602 0.951 . S
H584 C604 0.950 . S
H585 C605 0.950 1_554 S
H586 C607 0.950 . S
H587 C610 0.950 . S
H588 C611 0.950 . S
H589 C613 0.950 . S
H590 C614 0.950 . S
H591 C615 0.951 . S
H592 C617 0.951 . S
H593 C619 0.950 . S
H594 C620 0.959 . S
H595 C622 0.950 . S
H596 C625 0.950 . S
H597 C626 0.950 . S
H598 C628 0.950 . S
H599 C629 0.950 . S
C600 H582 0.951 . S
C600 C601 1.366 . S
C600 C602 1.388 . S
C601 C600 1.366 . S
C601 C605 1.385 . S
C602 H583 0.951 . S
C602 C600 1.388 . S
C602 C603 1.366 . S
C603 C602 1.366 . S
C603 C604 1.414 . S
C603 C606 1.499 . S
C604 H584 0.950 . S
C604 C603 1.414 . S
C604 C605 1.374 . S
C605 H585 0.950 1_556 S
C605 C601 1.385 . S
C605 C604 1.374 . S
C606 C603 1.499 . S
C606 C607 1.373 1_655 S
C606 C608 1.389 . S
C607 H586 0.950 . S
C607 C606 1.373 1_455 S
C607 C623 1.377 . S
C608 C606 1.389 . S
C608 C609 1.524 . S
C608 C622 1.377 . S
C609 C608 1.524 . S
C609 C610 1.397 . S
C609 C614 1.363 . S
C610 H587 0.950 . S
C610 C609 1.397 . S
C610 C611 1.334 . S
C611 H588 0.950 . S
C611 C610 1.334 . S
C611 C612 1.287 . S
C612 C611 1.287 . S
C612 C613 1.524 . S
C612 H631 0.913 . S
C613 H589 0.950 . S
C613 C612 1.524 . S
C613 C614 1.415 . S
C614 H590 0.950 . S
C614 C609 1.363 . S
C614 C613 1.415 . S
C615 H591 0.951 . S
C615 C616 1.366 . S
C615 C617 1.388 . S
C616 C615 1.366 . S
C616 C620 1.373 1_455 S
C617 H592 0.951 . S
C617 C615 1.388 . S
C617 C618 1.366 . S
C618 C617 1.366 . S
C618 C619 1.414 1_455 S
C618 C621 1.499 1_455 S
C619 H593 0.950 . S
C619 C618 1.414 1_655 S
C619 C620 1.377 . S
C620 H594 0.959 . S
C620 C616 1.373 1_655 S
C620 C619 1.377 . S
C621 C618 1.499 1_655 S
C621 C622 1.373 . S
C621 C623 1.389 1_655 S
C622 H595 0.950 . S
C622 C608 1.377 . S
C622 C621 1.373 . S
C623 C607 1.377 . S
C623 C621 1.389 1_455 S
C623 C624 1.524 . S
C624 C623 1.524 . S
C624 C625 1.397 . S
C624 C629 1.363 . S
C625 H596 0.950 . S
C625 C624 1.397 . S
C625 C626 1.334 . S
C626 H597 0.950 . S
C626 C625 1.334 . S
C626 C627 1.287 . S
C627 C626 1.287 . S
C627 C628 1.524 . S
C627 H630 0.999 . S
C628 H598 0.950 . S
C628 C627 1.524 . S
C628 C629 1.415 . S
C629 H599 0.950 . S
C629 C624 1.363 . S
C629 C628 1.415 . S
H630 C627 0.999 . S
H631 C612 0.913 . S
H632 C650 0.951 . S
H633 C652 0.951 . S
H634 C654 0.950 . S
H635 C655 0.950 . S
H636 C657 0.950 . S
H637 C660 0.950 . S
H638 C661 0.950 . S
H639 C663 0.950 . S
H640 C664 0.950 . S
H641 C665 0.951 1_655 S
H642 C667 0.951 . S
H643 C669 0.950 . S
H644 C670 0.950 . S
H645 C672 0.950 . S
H646 C675 0.950 . S
H647 C676 0.950 . S
H648 C678 0.950 . S
H649 C679 0.950 . S
C650 H632 0.951 . S
C650 C651 1.366 . S
C650 C652 1.388 . S
C651 C650 1.366 . S
C651 C655 1.385 . S
C652 H633 0.951 . S
C652 C650 1.388 . S
C652 C653 1.366 . S
C653 C652 1.366 . S
C653 C654 1.414 . S
C653 C656 1.499 . S
C654 H634 0.950 . S
C654 C653 1.414 . S
C654 C655 1.374 . S
C655 H635 0.950 . S
C655 C651 1.385 . S
C655 C654 1.374 . S
C656 C653 1.499 . S
C656 C657 1.373 . S
C656 C658 1.389 . S
C657 H636 0.950 . S
C657 C656 1.373 . S
C657 C673 1.377 . S
C658 C656 1.389 . S
C658 C659 1.524 . S
C658 C672 1.377 . S
C659 C658 1.524 . S
C659 C660 1.397 . S
C659 C664 1.363 . S
C660 H637 0.950 . S
C660 C659 1.397 . S
C660 C661 1.334 . S
C661 H638 0.950 . S
C661 C660 1.334 . S
C661 C662 1.287 . S
C662 C661 1.287 . S
C662 C663 1.524 . S
C662 H681 0.913 . S
C663 H639 0.950 . S
C663 C662 1.524 . S
C663 C664 1.415 . S
C664 H640 0.950 . S
C664 C659 1.363 . S
C664 C663 1.415 . S
C665 H641 0.951 1_455 S
C665 C666 1.366 . S
C665 C667 1.388 . S
C666 C665 1.366 . S
C666 C670 1.385 . S
C667 H642 0.951 . S
C667 C665 1.388 . S
C667 C668 1.366 . S
C668 C667 1.366 . S
C668 C669 1.414 . S
C668 C671 1.499 . S
C669 H643 0.950 . S
C669 C668 1.414 . S
C669 C670 1.374 . S
C670 H644 0.950 . S
C670 C666 1.385 . S
C670 C669 1.374 . S
C671 C668 1.499 . S
C671 C672 1.373 . S
C671 C673 1.389 . S
C672 H645 0.950 . S
C672 C658 1.377 . S
C672 C671 1.373 . S
C673 C657 1.377 . S
C673 C671 1.389 . S
C673 C674 1.524 . S
C674 C673 1.524 . S
C674 C675 1.397 . S
C674 C679 1.363 . S
C675 H646 0.950 . S
C675 C674 1.397 . S
C675 C676 1.334 . S
C676 H647 0.950 . S
C676 C675 1.334 . S
C676 C677 1.287 . S
C677 C676 1.287 . S
C677 C678 1.524 . S
C677 H680 0.999 . S
C678 H648 0.950 . S
C678 C677 1.524 . S
C678 C679 1.415 . S
C679 H649 0.950 . S
C679 C674 1.363 . S
C679 C678 1.415 . S
H680 C677 0.999 . S
H681 C662 0.913 . S
H682 C700 0.951 . S
H683 C702 0.951 . S
H684 C704 0.950 . S
H685 C705 0.950 . S
H686 C707 0.950 . S
H687 C710 0.950 . S
H688 C711 0.950 . S
H689 C713 0.950 . S
H690 C714 0.950 . S
H691 C715 0.951 . S
H692 C717 0.951 . S
H693 C719 0.950 . S
H694 C720 0.950 . S
H695 C722 0.950 . S
H696 C725 0.950 . S
H697 C726 0.950 . S
H698 C728 0.950 . S
H699 C729 0.950 . S
C700 H682 0.951 . S
C700 C701 1.366 1_565 S
C700 C702 1.388 . S
C701 C700 1.366 1_545 S
C701 C705 1.385 . S
C702 H683 0.951 . S
C702 C700 1.388 . S
C702 C703 1.366 1_565 S
C703 C702 1.366 1_545 S
C703 C704 1.414 . S
C703 C706 1.499 . S
C704 H684 0.950 . S
C704 C703 1.414 . S
C704 C705 1.374 . S
C705 H685 0.950 . S
C705 C701 1.385 . S
C705 C704 1.374 . S
C706 C703 1.499 . S
C706 C707 1.373 . S
C706 C708 1.389 1_545 S
C707 H686 0.950 . S
C707 C706 1.373 . S
C707 C723 1.377 . S
C708 C706 1.389 1_565 S
C708 C709 1.524 . S
C708 C722 1.377 . S
C709 C708 1.524 . S
C709 C710 1.397 . S
C709 C714 1.363 . S
C710 H687 0.950 . S
C710 C709 1.397 . S
C710 C711 1.334 . S
C711 H688 0.950 . S
C711 C710 1.334 . S
C711 C712 1.287 . S
C712 C711 1.287 . S
C712 C713 1.524 . S
C712 H731 0.913 . S
C713 H689 0.950 . S
C713 C712 1.524 . S
C713 C714 1.415 . S
C714 H690 0.950 . S
C714 C709 1.363 . S
C714 C713 1.415 . S
C715 H691 0.951 . S
C715 C716 1.366 1_545 S
C715 C717 1.388 . S
C716 C715 1.366 1_565 S
C716 C720 1.385 . S
C717 H692 0.951 . S
C717 C715 1.388 . S
C717 C718 1.366 1_545 S
C718 C717 1.366 1_565 S
C718 C719 1.414 . S
C718 C721 1.499 . S
C719 H693 0.950 . S
C719 C718 1.414 . S
C719 C720 1.374 . S
C720 H694 0.950 . S
C720 C716 1.385 . S
C720 C719 1.374 . S
C721 C718 1.499 . S
C721 C722 1.373 . S
C721 C723 1.389 1_565 S
C722 H695 0.950 . S
C722 C708 1.377 . S
C722 C721 1.373 . S
C723 C707 1.377 . S
C723 C721 1.389 1_545 S
C723 C724 1.524 . S
C724 C723 1.524 . S
C724 C725 1.397 . S
C724 C729 1.363 . S
C725 H696 0.950 . S
C725 C724 1.397 . S
C725 C726 1.334 . S
C726 H697 0.950 . S
C726 C725 1.334 . S
C726 C727 1.287 . S
C727 C726 1.287 . S
C727 C728 1.524 . S
C727 H730 0.999 . S
C728 H698 0.950 . S
C728 C727 1.524 . S
C728 C729 1.415 . S
C729 H699 0.950 . S
C729 C724 1.363 . S
C729 C728 1.415 . S
H730 C727 0.999 . S
H731 C712 0.913 . S
H732 C750 0.951 . S
H733 C752 0.951 . S
H734 C754 0.950 . S
H735 C755 0.950 . S
H736 C757 0.950 . S
H737 C760 0.950 . S
H738 C761 0.950 . S
H739 C763 0.950 . S
H740 C764 0.950 . S
H741 C765 0.951 . S
H742 C767 0.951 . S
H743 C769 0.950 . S
H744 C770 0.950 . S
H745 C772 0.950 . S
H746 C775 0.950 . S
H747 C776 0.950 . S
H748 C778 0.950 . S
H749 C779 0.950 . S
C750 H732 0.951 . S
C750 C751 1.366 . S
C750 C752 1.388 . S
C751 C750 1.366 . S
C751 C755 1.385 . S
C752 H733 0.951 . S
C752 C750 1.388 . S
C752 C753 1.366 . S
C753 C752 1.366 . S
C753 C754 1.414 . S
C753 C756 1.499 . S
C754 H734 0.950 . S
C754 C753 1.414 . S
C754 C755 1.374 . S
C755 H735 0.950 . S
C755 C751 1.385 . S
C755 C754 1.374 . S
C756 C753 1.499 . S
C756 C757 1.373 . S
C756 C758 1.389 . S
C757 H736 0.950 . S
C757 C756 1.373 . S
C757 C773 1.377 . S
C758 C756 1.389 . S
C758 C759 1.524 . S
C758 C772 1.377 . S
C759 C758 1.524 . S
C759 C760 1.397 . S
C759 C764 1.363 . S
C760 H737 0.950 . S
C760 C759 1.397 . S
C760 C761 1.334 . S
C761 H738 0.950 . S
C761 C760 1.334 . S
C761 C762 1.287 . S
C762 C761 1.287 . S
C762 C763 1.524 . S
C762 H781 0.913 . S
C763 H739 0.950 . S
C763 C762 1.524 . S
C763 C764 1.415 . S
C764 H740 0.950 . S
C764 C759 1.363 . S
C764 C763 1.415 . S
C765 H741 0.951 . S
C765 C766 1.366 . S
C765 C767 1.388 . S
C766 C765 1.366 . S
C766 C770 1.385 . S
C767 H742 0.951 . S
C767 C765 1.388 . S
C767 C768 1.366 . S
C768 C767 1.366 . S
C768 C769 1.414 . S
C768 C771 1.499 . S
C769 H743 0.950 . S
C769 C768 1.414 . S
C769 C770 1.374 . S
C770 H744 0.950 . S
C770 C766 1.385 . S
C770 C769 1.374 . S
C771 C768 1.499 . S
C771 C772 1.373 . S
C771 C773 1.389 . S
C772 H745 0.950 . S
C772 C758 1.377 . S
C772 C771 1.373 . S
C773 C757 1.377 . S
C773 C771 1.389 . S
C773 C774 1.524 . S
C774 C773 1.524 . S
C774 C775 1.397 . S
C774 C779 1.363 . S
C775 H746 0.950 . S
C775 C774 1.397 . S
C775 C776 1.334 . S
C776 H747 0.950 . S
C776 C775 1.334 . S
C776 C777 1.287 . S
C777 C776 1.287 . S
C777 C778 1.524 . S
C777 H780 0.999 . S
C778 H748 0.950 . S
C778 C777 1.524 . S
C778 C779 1.415 . S
C779 H749 0.950 . S
C779 C774 1.363 . S
C779 C778 1.415 . S
H780 C777 0.999 . S
H781 C762 0.913 . S
H782 C800 0.951 . S
H783 C802 0.951 . S
H784 C804 0.950 . S
H785 C805 0.950 . S
H786 C807 0.950 . S
H787 C810 0.950 . S
H788 C811 0.950 . S
H789 C813 0.950 . S
H790 C814 0.950 . S
H791 C815 0.951 . S
H792 C817 0.951 . S
H793 C819 0.950 . S
H794 C820 0.950 . S
H795 C822 0.950 . S
H796 C825 0.950 . S
H797 C826 0.950 . S
H798 C828 0.950 . S
H799 C829 0.950 . S
C800 H782 0.951 . S
C800 C801 1.366 . S
C800 C802 1.388 . S
C801 C800 1.366 . S
C801 C805 1.385 . S
C802 H783 0.951 . S
C802 C800 1.388 . S
C802 C803 1.366 . S
C803 C802 1.366 . S
C803 C804 1.414 . S
C803 C806 1.499 . S
C804 H784 0.950 . S
C804 C803 1.414 . S
C804 C805 1.374 . S
C805 H785 0.950 . S
C805 C801 1.385 . S
C805 C804 1.374 . S
C806 C803 1.499 . S
C806 C807 1.373 . S
C806 C808 1.389 . S
C807 H786 0.950 . S
C807 C806 1.373 . S
C807 C823 1.377 . S
C808 C806 1.389 . S
C808 C809 1.524 . S
C808 C822 1.377 . S
C809 C808 1.524 . S
C809 C810 1.397 . S
C809 C814 1.363 . S
C810 H787 0.950 . S
C810 C809 1.397 . S
C810 C811 1.334 . S
C811 H788 0.950 . S
C811 C810 1.334 . S
C811 C812 1.287 . S
C812 C811 1.287 . S
C812 C813 1.524 . S
C812 H831 0.913 . S
C813 H789 0.950 . S
C813 C812 1.524 . S
C813 C814 1.415 . S
C814 H790 0.950 . S
C814 C809 1.363 . S
C814 C813 1.415 . S
C815 H791 0.951 . S
C815 C816 1.366 . S
C815 C817 1.388 . S
C816 C815 1.366 . S
C816 C820 1.385 . S
C817 H792 0.951 . S
C817 C815 1.388 . S
C817 C818 1.366 . S
C818 C817 1.366 . S
C818 C819 1.414 . S
C818 C821 1.499 . S
C819 H793 0.950 . S
C819 C818 1.414 . S
C819 C820 1.374 . S
C820 H794 0.950 . S
C820 C816 1.385 . S
C820 C819 1.374 . S
C821 C818 1.499 . S
C821 C822 1.373 . S
C821 C823 1.389 . S
C822 H795 0.950 . S
C822 C808 1.377 . S
C822 C821 1.373 . S
C823 C807 1.377 . S
C823 C821 1.389 . S
C823 C824 1.524 . S
C824 C823 1.524 . S
C824 C825 1.397 . S
C824 C829 1.363 . S
C825 H796 0.950 . S
C825 C824 1.397 . S
C825 C826 1.334 . S
C826 H797 0.950 . S
C826 C825 1.334 . S
C826 C827 1.287 . S
C827 C826 1.287 . S
C827 C828 1.524 . S
C827 H830 0.999 . S
C828 H798 0.950 . S
C828 C827 1.524 . S
C828 C829 1.415 . S
C829 H799 0.950 . S
C829 C824 1.363 . S
C829 C828 1.415 . S
H830 C827 0.999 . S
H831 C812 0.913 . S
H832 C850 0.951 . S
H833 C852 0.951 1_455 S
H834 C854 0.950 . S
H835 C855 0.947 1_554 S
H836 C857 0.950 . S
H837 C860 0.950 . S
H838 C861 0.950 1_554 S
H839 C863 0.950 . S
H840 C864 0.950 . S
H841 C865 0.951 1_655 S
H842 C867 0.951 . S
H843 C869 0.950 . S
H844 C870 0.950 . S
H845 C872 0.950 . S
H846 C875 0.950 . S
H847 C876 0.950 . S
H848 C878 0.950 . S
H849 C879 0.950 . S
C850 H832 0.951 . S
C850 C851 1.366 . S
C850 C852 1.388 . S
C851 C850 1.366 . S
C851 C855 1.385 . S
C852 H833 0.951 1_655 S
C852 C850 1.388 . S
C852 C853 1.366 . S
C853 C852 1.366 . S
C853 C854 1.414 . S
C853 C856 1.499 . S
C854 H834 0.950 . S
C854 C853 1.414 . S
C854 C855 1.374 . S
C855 H835 0.947 1_556 S
C855 C851 1.385 . S
C855 C854 1.374 . S
C856 C853 1.499 . S
C856 C857 1.373 . S
C856 C858 1.389 1_655 S
C857 H836 0.950 . S
C857 C856 1.373 . S
C857 C873 1.377 . S
C858 C856 1.389 1_455 S
C858 C859 1.524 . S
C858 C872 1.377 . S
C859 C858 1.524 . S
C859 C860 1.397 . S
C859 C864 1.363 . S
C860 H837 0.950 . S
C860 C859 1.397 . S
C860 C861 1.334 . S
C861 H838 0.950 1_556 S
C861 C860 1.334 . S
C861 C862 1.287 . S
C862 C861 1.287 . S
C862 C863 1.524 . S
C862 H881 0.913 . S
C863 H839 0.950 . S
C863 C862 1.524 . S
C863 C864 1.415 . S
C864 H840 0.950 . S
C864 C859 1.363 . S
C864 C863 1.415 . S
C865 H841 0.951 1_455 S
C865 C866 1.366 . S
C865 C867 1.388 1_455 S
C866 C865 1.366 . S
C866 C870 1.385 . S
C867 H842 0.951 . S
C867 C865 1.388 1_655 S
C867 C868 1.366 1_655 S
C868 C867 1.366 1_455 S
C868 C869 1.414 . S
C868 C871 1.499 . S
C869 H843 0.950 . S
C869 C868 1.414 . S
C869 C870 1.374 . S
C870 H844 0.950 . S
C870 C866 1.385 . S
C870 C869 1.374 . S
C871 C868 1.499 . S
C871 C872 1.373 . S
C871 C873 1.389 1_455 S
C872 H845 0.950 . S
C872 C858 1.377 . S
C872 C871 1.373 . S
C873 C857 1.377 . S
C873 C871 1.389 1_655 S
C873 C874 1.524 . S
C874 C873 1.524 . S
C874 C875 1.397 . S
C874 C879 1.363 . S
C875 H846 0.950 . S
C875 C874 1.397 . S
C875 C876 1.334 . S
C876 H847 0.950 . S
C876 C875 1.334 . S
C876 C877 1.287 . S
C877 C876 1.287 . S
C877 C878 1.524 . S
C877 H880 0.999 . S
C878 H848 0.950 . S
C878 C877 1.524 . S
C878 C879 1.415 . S
C879 H849 0.950 . S
C879 C874 1.363 . S
C879 C878 1.415 . S
H880 C877 0.999 . S
H881 C862 0.913 . S
H882 C900 0.951 . S
H883 C902 0.951 . S
H884 C904 0.951 . S
H885 C905 0.952 . S
H886 C907 0.950 . S
H887 C910 0.950 . S
H888 C911 0.950 . S
H889 C913 0.950 . S
H890 C914 0.950 . S
H891 C915 0.951 . S
H892 C917 0.951 . S
H893 C919 0.950 . S
H894 C920 0.950 . S
H895 C922 0.950 . S
H896 C925 0.950 . S
H897 C926 0.950 . S
H898 C928 0.950 1_554 S
H899 C929 0.950 1_554 S
C900 H882 0.951 . S
C900 C901 1.366 1_545 S
C900 C902 1.388 . S
C901 C900 1.366 1_565 S
C901 C905 1.385 1_556 S
C902 H883 0.951 . S
C902 C900 1.388 . S
C902 C903 1.366 . S
C903 C902 1.366 . S
C903 C904 1.415 1_556 S
C903 C906 1.499 . S
C904 H884 0.951 . S
C904 C903 1.415 1_554 S
C904 C905 1.374 1_545 S
C905 H885 0.952 . S
C905 C901 1.385 1_554 S
C905 C904 1.374 1_565 S
C906 C903 1.499 . S
C906 C907 1.373 1_545 S
C906 C908 1.389 . S
C907 H886 0.950 . S
C907 C906 1.373 1_565 S
C907 C923 1.377 . S
C908 C906 1.389 . S
C908 C909 1.524 . S
C908 C922 1.377 . S
C909 C908 1.524 . S
C909 C910 1.397 . S
C909 C914 1.363 . S
C910 H887 0.950 . S
C910 C909 1.397 . S
C910 C911 1.334 . S
C911 H888 0.950 . S
C911 C910 1.334 . S
C911 C912 1.287 . S
C912 C911 1.287 . S
C912 C913 1.524 . S
C912 H931 0.913 . S
C913 H889 0.950 . S
C913 C912 1.524 . S
C913 C914 1.415 . S
C914 H890 0.950 . S
C914 C909 1.363 . S
C914 C913 1.415 . S
C915 H891 0.951 . S
C915 C916 1.366 . S
C915 C917 1.388 . S
C916 C915 1.366 . S
C916 C920 1.385 . S
C917 H892 0.951 . S
C917 C915 1.388 . S
C917 C918 1.366 . S
C918 C917 1.366 . S
C918 C919 1.414 . S
C918 C921 1.499 . S
C919 H893 0.950 . S
C919 C918 1.414 . S
C919 C920 1.374 . S
C920 H894 0.950 . S
C920 C916 1.385 . S
C920 C919 1.374 . S
C921 C918 1.499 . S
C921 C922 1.373 . S
C921 C923 1.389 1_545 S
C922 H895 0.950 . S
C922 C908 1.377 . S
C922 C921 1.373 . S
C923 C907 1.377 . S
C923 C921 1.389 1_565 S
C923 C924 1.524 . S
C924 C923 1.524 . S
C924 C925 1.397 . S
C924 C929 1.363 . S
C925 H896 0.950 . S
C925 C924 1.397 . S
C925 C926 1.334 . S
C926 H897 0.950 . S
C926 C925 1.334 . S
C926 C927 1.287 . S
C927 C926 1.287 . S
C927 C928 1.524 . S
C927 H930 0.999 . S
C928 H898 0.950 1_556 S
C928 C927 1.524 . S
C928 C929 1.415 . S
C929 H899 0.950 1_556 S
C929 C924 1.363 . S
C929 C928 1.415 . S
H930 C927 0.999 . S
H931 C912 0.913 . S
H932 C950 0.951 . S
H933 C952 0.951 . S
H934 C954 0.950 . S
H935 C955 0.950 . S
H936 C957 0.950 . S
H937 C960 0.950 . S
H938 C961 0.950 . S
H939 C963 0.950 . S
H940 C964 0.950 . S
H941 C965 0.951 . S
H942 C967 0.951 . S
H943 C969 0.950 . S
H944 C970 0.950 . S
H945 C972 0.950 . S
H946 C975 0.950 . S
H947 C976 0.950 . S
H948 C978 0.950 . S
H949 C979 0.950 . S
C950 H932 0.951 . S
C950 C951 1.366 . S
C950 C952 1.388 . S
C951 C950 1.366 . S
C951 C955 1.385 1_556 S
C952 H933 0.951 . S
C952 C950 1.388 . S
C952 C953 1.366 . S
C953 C952 1.366 . S
C953 C954 1.414 . S
C953 C956 1.499 . S
C954 H934 0.950 . S
C954 C953 1.414 . S
C954 C955 1.374 1_556 S
C955 H935 0.950 . S
C955 C951 1.385 1_554 S
C955 C954 1.374 1_554 S
C956 C953 1.499 . S
C956 C957 1.373 . S
C956 C958 1.389 . S
C957 H936 0.950 . S
C957 C956 1.373 . S
C957 C973 1.377 . S
C958 C956 1.389 . S
C958 C959 1.524 . S
C958 C972 1.377 . S
C959 C958 1.524 . S
C959 C960 1.397 . S
C959 C964 1.363 . S
C960 H937 0.950 . S
C960 C959 1.397 . S
C960 C961 1.334 . S
C961 H938 0.950 . S
C961 C960 1.334 . S
C961 C962 1.287 . S
C962 C961 1.287 . S
C962 C963 1.524 . S
C962 H981 0.913 . S
C963 H939 0.950 . S
C963 C962 1.524 . S
C963 C964 1.415 . S
C964 H940 0.950 . S
C964 C959 1.363 . S
C964 C963 1.415 . S
C965 H941 0.951 . S
C965 C966 1.366 . S
C965 C967 1.388 . S
C966 C965 1.366 . S
C966 C970 1.385 . S
C967 H942 0.951 . S
C967 C965 1.388 . S
C967 C968 1.366 . S
C968 C967 1.366 . S
C968 C969 1.414 . S
C968 C971 1.499 . S
C969 H943 0.950 . S
C969 C968 1.414 . S
C969 C970 1.374 . S
C970 H944 0.950 . S
C970 C966 1.385 . S
C970 C969 1.374 . S
C971 C968 1.499 . S
C971 C972 1.373 . S
C971 C973 1.389 . S
C972 H945 0.950 . S
C972 C958 1.377 . S
C972 C971 1.373 . S
C973 C957 1.377 . S
C973 C971 1.389 . S
C973 C974 1.524 . S
C974 C973 1.524 . S
C974 C975 1.397 . S
C974 C979 1.363 . S
C975 H946 0.950 . S
C975 C974 1.397 . S
C975 C976 1.334 . S
C976 H947 0.950 . S
C976 C975 1.334 . S
C976 C977 1.287 1_556 S
C977 C976 1.287 1_554 S
C977 C978 1.524 . S
C977 H980 0.999 . S
C978 H948 0.950 . S
C978 C977 1.524 . S
C978 C979 1.415 1_554 S
C979 H949 0.950 . S
C979 C974 1.363 . S
C979 C978 1.415 1_556 S
H980 C977 0.999 . S
H981 C962 0.913 . S
H982 C1000 0.951 . S
H983 C1002 0.951 . S
H984 C1004 0.950 . S
H985 C1005 0.950 . S
H986 C1007 0.950 . S
H987 C1010 0.950 . S
H988 C1011 0.950 . S
H989 C1013 0.950 . S
H990 C1014 0.950 . S
H991 C1015 0.951 . S
H992 C1017 0.951 . S
H993 C1019 0.950 . S
H994 C1020 0.950 . S
H995 C1022 0.950 . S
H996 C1025 0.950 . S
H997 C1026 0.950 . S
H998 C1028 0.950 . S
H999 C1029 0.950 . S
C1000 H982 0.951 . S
C1000 C1001 1.366 . S
C1000 C1002 1.388 . S
C1001 C1000 1.366 . S
C1001 C1005 1.385 . S
C1002 H983 0.951 . S
C1002 C1000 1.388 . S
C1002 C1003 1.366 1_554 S
C1003 C1002 1.366 1_556 S
C1003 C1004 1.414 . S
C1003 C1006 1.499 . S
C1004 H984 0.950 . S
C1004 C1003 1.414 . S
C1004 C1005 1.374 1_556 S
C1005 H985 0.950 . S
C1005 C1001 1.385 . S
C1005 C1004 1.374 1_554 S
C1006 C1003 1.499 . S
C1006 C1007 1.373 . S
C1006 C1008 1.389 . S
C1007 H986 0.950 . S
C1007 C1006 1.373 . S
C1007 C1023 1.377 . S
C1008 C1006 1.389 . S
C1008 C1009 1.524 . S
C1008 C1022 1.377 . S
C1009 C1008 1.524 . S
C1009 C1010 1.397 . S
C1009 C1014 1.363 . S
C1010 H987 0.950 . S
C1010 C1009 1.397 . S
C1010 C1011 1.334 . S
C1011 H988 0.950 . S
C1011 C1010 1.334 . S
C1011 C1012 1.287 . S
C1012 C1011 1.287 . S
C1012 C1013 1.524 . S
C1012 H1031 0.913 . S
C1013 H989 0.950 . S
C1013 C1012 1.524 . S
C1013 C1014 1.415 . S
C1014 H990 0.950 . S
C1014 C1009 1.363 . S
C1014 C1013 1.415 . S
C1015 H991 0.951 . S
C1015 C1016 1.366 . S
C1015 C1017 1.388 . S
C1016 C1015 1.366 . S
C1016 C1020 1.385 . S
C1017 H992 0.951 . S
C1017 C1015 1.388 . S
C1017 C1018 1.366 . S
C1018 C1017 1.366 . S
C1018 C1019 1.414 . S
C1018 C1021 1.499 . S
C1019 H993 0.950 . S
C1019 C1018 1.414 . S
C1019 C1020 1.374 . S
C1020 H994 0.950 . S
C1020 C1016 1.385 . S
C1020 C1019 1.374 . S
C1021 C1018 1.499 . S
C1021 C1022 1.373 . S
C1021 C1023 1.389 . S
C1022 H995 0.950 . S
C1022 C1008 1.377 . S
C1022 C1021 1.373 . S
C1023 C1007 1.377 . S
C1023 C1021 1.389 . S
C1023 C1024 1.524 . S
C1024 C1023 1.524 . S
C1024 C1025 1.397 . S
C1024 C1029 1.363 . S
C1025 H996 0.950 . S
C1025 C1024 1.397 . S
C1025 C1026 1.334 . S
C1026 H997 0.950 . S
C1026 C1025 1.334 . S
C1026 C1027 1.287 . S
C1027 C1026 1.287 . S
C1027 C1028 1.524 . S
C1027 H1030 0.999 . S
C1028 H998 0.950 . S
C1028 C1027 1.524 . S
C1028 C1029 1.415 . S
C1029 H999 0.950 . S
C1029 C1024 1.363 . S
C1029 C1028 1.415 . S
H1030 C1027 0.999 . S
H1031 C1012 0.913 . S
H1032 C1050 0.951 . S
H1033 C1052 0.951 . S
H1034 C1054 0.950 . S
H1035 C1055 0.950 . S
H1036 C1057 0.950 . S
H1037 C1060 0.950 . S
H1038 C1061 0.950 . S
H1039 C1063 0.950 . S
H1040 C1064 0.950 . S
H1041 C1065 0.951 . S
H1042 C1067 0.951 . S
H1043 C1069 0.950 . S
H1044 C1070 0.950 . S
H1045 C1072 0.950 . S
H1046 C1075 0.950 1_554 S
H1047 C1076 0.950 . S
H1048 C1078 0.950 . S
H1049 C1079 0.950 . S
C1050 H1032 0.951 . S
C1050 C1051 1.366 . S
C1050 C1052 1.388 . S
C1051 C1050 1.366 . S
C1051 C1055 1.385 . S
C1052 H1033 0.951 . S
C1052 C1050 1.388 . S
C1052 C1053 1.366 . S
C1053 C1052 1.366 . S
C1053 C1054 1.414 . S
C1053 C1056 1.499 . S
C1054 H1034 0.950 . S
C1054 C1053 1.414 . S
C1054 C1055 1.374 . S
C1055 H1035 0.950 . S
C1055 C1051 1.385 . S
C1055 C1054 1.374 . S
C1056 C1053 1.499 . S
C1056 C1057 1.373 . S
C1056 C1058 1.389 . S
C1057 H1036 0.950 . S
C1057 C1056 1.373 . S
C1057 C1073 1.377 . S
C1058 C1056 1.389 . S
C1058 C1059 1.524 . S
C1058 C1072 1.377 . S
C1059 C1058 1.524 . S
C1059 C1060 1.397 . S
C1059 C1064 1.363 . S
C1060 H1037 0.950 . S
C1060 C1059 1.397 . S
C1060 C1061 1.334 . S
C1061 H1038 0.950 . S
C1061 C1060 1.334 . S
C1061 C1062 1.287 . S
C1062 C1061 1.287 . S
C1062 C1063 1.524 . S
C1062 H1081 0.913 . S
C1063 H1039 0.950 . S
C1063 C1062 1.524 . S
C1063 C1064 1.415 . S
C1064 H1040 0.950 . S
C1064 C1059 1.363 . S
C1064 C1063 1.415 . S
C1065 H1041 0.951 . S
C1065 C1066 1.366 . S
C1065 C1067 1.388 . S
C1066 C1065 1.366 . S
C1066 C1070 1.385 1_556 S
C1067 H1042 0.951 . S
C1067 C1065 1.388 . S
C1067 C1068 1.366 1_556 S
C1068 C1067 1.366 1_554 S
C1068 C1069 1.414 . S
C1068 C1071 1.499 . S
C1069 H1043 0.950 . S
C1069 C1068 1.414 . S
C1069 C1070 1.374 . S
C1070 H1044 0.950 . S
C1070 C1066 1.385 1_554 S
C1070 C1069 1.374 . S
C1071 C1068 1.499 . S
C1071 C1072 1.373 . S
C1071 C1073 1.389 . S
C1072 H1045 0.950 . S
C1072 C1058 1.377 . S
C1072 C1071 1.373 . S
C1073 C1057 1.377 . S
C1073 C1071 1.389 . S
C1073 C1074 1.526 . S
C1074 C1073 1.526 . S
C1074 C1075 1.396 1_554 S
C1074 C1079 1.362 1_554 S
C1075 H1046 0.950 1_556 S
C1075 C1074 1.396 1_556 S
C1075 C1076 1.334 1_455 S
C1076 H1047 0.950 . S
C1076 C1075 1.334 1_655 S
C1076 C1077 1.284 1_655 S
C1077 C1076 1.284 1_455 S
C1077 C1078 1.536 . S
C1077 H1080 0.991 1_455 S
C1078 H1048 0.950 . S
C1078 C1077 1.536 . S
C1078 C1079 1.415 . S
C1079 H1049 0.950 . S
C1079 C1074 1.362 1_556 S
C1079 C1078 1.415 . S
H1080 C1077 0.991 1_655 S
H1081 C1062 0.913 . S
H1082 C1100 0.951 . S
H1083 C1102 0.951 . S
H1084 C1104 0.955 . S
H1085 C1105 0.950 1_565 S
H1086 C1107 0.950 . S
H1087 C1110 0.950 . S
H1088 C1111 0.950 . S
H1089 C1113 0.950 . S
H1090 C1114 0.950 . S
H1091 C1115 0.951 . S
H1092 C1117 0.961 . S
H1093 C1119 0.950 . S
H1094 C1120 0.950 . S
H1095 C1122 0.950 . S
H1096 C1125 0.950 . S
H1097 C1126 0.950 . S
H1098 C1128 0.950 . S
H1099 C1129 0.950 . S
C1100 H1082 0.951 . S
C1100 C1101 1.366 . S
C1100 C1102 1.388 . S
C1101 C1100 1.366 . S
C1101 C1105 1.385 . S
C1102 H1083 0.951 . S
C1102 C1100 1.388 . S
C1102 C1103 1.366 . S
C1103 C1102 1.366 . S
C1103 C1104 1.414 . S
C1103 C1106 1.499 . S
C1104 H1084 0.955 . S
C1104 C1103 1.414 . S
C1104 C1105 1.374 . S
C1105 H1085 0.950 1_545 S
C1105 C1101 1.385 . S
C1105 C1104 1.374 . S
C1106 C1103 1.499 . S
C1106 C1107 1.373 1_545 S
C1106 C1108 1.389 . S
C1107 H1086 0.950 . S
C1107 C1106 1.373 1_565 S
C1107 C1123 1.377 1_554 S
C1108 C1106 1.389 . S
C1108 C1109 1.524 . S
C1108 C1122 1.377 1_554 S
C1109 C1108 1.524 . S
C1109 C1110 1.397 . S
C1109 C1114 1.363 . S
C1110 H1087 0.950 . S
C1110 C1109 1.397 . S
C1110 C1111 1.334 . S
C1111 H1088 0.950 . S
C1111 C1110 1.334 . S
C1111 C1112 1.287 . S
C1112 C1111 1.287 . S
C1112 C1113 1.524 . S
C1112 H1131 0.913 . S
C1113 H1089 0.950 . S
C1113 C1112 1.524 . S
C1113 C1114 1.415 . S
C1114 H1090 0.950 . S
C1114 C1109 1.363 . S
C1114 C1113 1.415 . S
C1115 H1091 0.951 . S
C1115 C1116 1.366 . S
C1115 C1117 1.388 . S
C1116 C1115 1.366 . S
C1116 C1120 1.385 . S
C1117 H1092 0.961 . S
C1117 C1115 1.388 . S
C1117 C1118 1.366 . S
C1118 C1117 1.366 . S
C1118 C1119 1.414 . S
C1118 C1121 1.499 . S
C1119 H1093 0.950 . S
C1119 C1118 1.414 . S
C1119 C1120 1.374 . S
C1120 H1094 0.950 . S
C1120 C1116 1.385 . S
C1120 C1119 1.374 . S
C1121 C1118 1.499 . S
C1121 C1122 1.373 . S
C1121 C1123 1.389 1_545 S
C1122 H1095 0.950 . S
C1122 C1108 1.377 1_556 S
C1122 C1121 1.373 . S
C1123 C1107 1.377 1_556 S
C1123 C1121 1.389 1_565 S
C1123 C1124 1.524 . S
C1124 C1123 1.524 . S
C1124 C1125 1.397 . S
C1124 C1129 1.363 . S
C1125 H1096 0.950 . S
C1125 C1124 1.397 . S
C1125 C1126 1.334 . S
C1126 H1097 0.950 . S
C1126 C1125 1.334 . S
C1126 C1127 1.287 . S
C1127 C1126 1.287 . S
C1127 C1128 1.524 . S
C1127 H1130 0.999 . S
C1128 H1098 0.950 . S
C1128 C1127 1.524 . S
C1128 C1129 1.415 . S
C1129 H1099 0.950 . S
C1129 C1124 1.363 . S
C1129 C1128 1.415 . S
H1130 C1127 0.999 . S
H1131 C1112 0.913 . S
H1132 C1150 0.951 . S
H1133 C1152 0.951 . S
H1134 C1154 0.950 . S
H1135 C1155 0.950 . S
H1136 C1157 0.950 . S
H1137 C1160 0.950 . S
H1138 C1161 0.950 . S
H1139 C1163 0.950 . S
H1140 C1164 0.950 . S
H1141 C1165 0.951 . S
H1142 C1167 0.951 . S
H1143 C1169 0.950 . S
H1144 C1170 0.950 . S
H1145 C1172 0.950 . S
H1146 C1175 0.950 . S
H1147 C1176 0.950 . S
H1148 C1178 0.950 . S
H1149 C1179 0.950 . S
C1150 H1132 0.951 . S
C1150 C1151 1.366 . S
C1150 C1152 1.388 . S
C1151 C1150 1.366 . S
C1151 C1155 1.385 . S
C1152 H1133 0.951 . S
C1152 C1150 1.388 . S
C1152 C1153 1.366 . S
C1153 C1152 1.366 . S
C1153 C1154 1.414 . S
C1153 C1156 1.499 . S
C1154 H1134 0.950 . S
C1154 C1153 1.414 . S
C1154 C1155 1.374 . S
C1155 H1135 0.950 . S
C1155 C1151 1.385 . S
C1155 C1154 1.374 . S
C1156 C1153 1.499 . S
C1156 C1157 1.373 . S
C1156 C1158 1.389 1_554 S
C1157 H1136 0.950 . S
C1157 C1156 1.373 . S
C1157 C1173 1.377 . S
C1158 C1156 1.389 1_556 S
C1158 C1159 1.524 . S
C1158 C1172 1.377 . S
C1159 C1158 1.524 . S
C1159 C1160 1.397 . S
C1159 C1164 1.363 . S
C1160 H1137 0.950 . S
C1160 C1159 1.397 . S
C1160 C1161 1.334 . S
C1161 H1138 0.950 . S
C1161 C1160 1.334 . S
C1161 C1162 1.287 . S
C1162 C1161 1.287 . S
C1162 C1163 1.524 . S
C1162 H1181 0.913 . S
C1163 H1139 0.950 . S
C1163 C1162 1.524 . S
C1163 C1164 1.415 . S
C1164 H1140 0.950 . S
C1164 C1159 1.363 . S
C1164 C1163 1.415 . S
C1165 H1141 0.951 . S
C1165 C1166 1.366 . S
C1165 C1167 1.388 . S
C1166 C1165 1.366 . S
C1166 C1170 1.385 . S
C1167 H1142 0.951 . S
C1167 C1165 1.388 . S
C1167 C1168 1.366 . S
C1168 C1167 1.366 . S
C1168 C1169 1.414 . S
C1168 C1171 1.499 . S
C1169 H1143 0.950 . S
C1169 C1168 1.414 . S
C1169 C1170 1.374 . S
C1170 H1144 0.950 . S
C1170 C1166 1.385 . S
C1170 C1169 1.374 . S
C1171 C1168 1.499 . S
C1171 C1172 1.373 . S
C1171 C1173 1.389 1_556 S
C1172 H1145 0.950 . S
C1172 C1158 1.377 . S
C1172 C1171 1.373 . S
C1173 C1157 1.377 . S
C1173 C1171 1.389 1_554 S
C1173 C1174 1.524 . S
C1174 C1173 1.524 . S
C1174 C1175 1.397 . S
C1174 C1179 1.363 . S
C1175 H1146 0.950 . S
C1175 C1174 1.397 . S
C1175 C1176 1.334 . S
C1176 H1147 0.950 . S
C1176 C1175 1.334 . S
C1176 C1177 1.287 . S
C1177 C1176 1.287 . S
C1177 C1178 1.524 . S
C1177 H1180 0.999 . S
C1178 H1148 0.950 . S
C1178 C1177 1.524 . S
C1178 C1179 1.415 . S
C1179 H1149 0.950 . S
C1179 C1174 1.363 . S
C1179 C1178 1.415 . S
H1180 C1177 0.999 . S
H1181 C1162 0.913 . S
H1182 C1200 0.951 . S
H1183 C1202 0.951 1_556 S
H1184 C1204 0.950 . S
H1185 C1205 0.950 . S
H1186 C1207 0.950 . S
H1187 C1210 0.950 . S
H1188 C1211 0.950 . S
H1189 C1213 0.950 . S
H1190 C1214 0.950 . S
H1191 C1215 0.951 . S
H1192 C1217 0.951 . S
H1193 C1219 0.950 . S
H1194 C1220 0.950 . S
H1195 C1222 0.950 . S
H1196 C1225 0.950 . S
H1197 C1226 0.950 1_556 S
H1198 C1228 0.950 . S
H1199 C1229 0.950 . S
C1200 H1182 0.951 . S
C1200 C1201 1.366 . S
C1200 C1202 1.388 . S
C1201 C1200 1.366 . S
C1201 C1205 1.385 . S
C1202 H1183 0.951 1_554 S
C1202 C1200 1.388 . S
C1202 C1203 1.366 . S
C1203 C1202 1.366 . S
C1203 C1204 1.414 . S
C1203 C1206 1.499 . S
C1204 H1184 0.950 . S
C1204 C1203 1.414 . S
C1204 C1205 1.374 . S
C1205 H1185 0.950 . S
C1205 C1201 1.385 . S
C1205 C1204 1.374 . S
C1206 C1203 1.499 . S
C1206 C1207 1.373 . S
C1206 C1208 1.389 1_554 S
C1207 H1186 0.950 . S
C1207 C1206 1.373 . S
C1207 C1223 1.377 1_554 S
C1208 C1206 1.389 1_556 S
C1208 C1209 1.524 . S
C1208 C1222 1.377 . S
C1209 C1208 1.524 . S
C1209 C1210 1.397 . S
C1209 C1214 1.363 . S
C1210 H1187 0.950 . S
C1210 C1209 1.397 . S
C1210 C1211 1.334 . S
C1211 H1188 0.950 . S
C1211 C1210 1.334 . S
C1211 C1212 1.287 . S
C1212 C1211 1.287 . S
C1212 C1213 1.524 . S
C1212 H1231 0.913 . S
C1213 H1189 0.950 . S
C1213 C1212 1.524 . S
C1213 C1214 1.415 . S
C1214 H1190 0.950 . S
C1214 C1209 1.363 . S
C1214 C1213 1.415 . S
C1215 H1191 0.951 . S
C1215 C1216 1.366 . S
C1215 C1217 1.388 . S
C1216 C1215 1.366 . S
C1216 C1220 1.385 . S
C1217 H1192 0.951 . S
C1217 C1215 1.388 . S
C1217 C1218 1.366 . S
C1218 C1217 1.366 . S
C1218 C1219 1.414 . S
C1218 C1221 1.499 . S
C1219 H1193 0.950 . S
C1219 C1218 1.414 . S
C1219 C1220 1.374 . S
C1220 H1194 0.950 . S
C1220 C1216 1.385 . S
C1220 C1219 1.374 . S
C1221 C1218 1.499 . S
C1221 C1222 1.373 . S
C1221 C1223 1.389 . S
C1222 H1195 0.950 . S
C1222 C1208 1.377 . S
C1222 C1221 1.373 . S
C1223 C1207 1.377 1_556 S
C1223 C1221 1.389 . S
C1223 C1224 1.524 1_556 S
C1224 C1223 1.524 1_554 S
C1224 C1225 1.397 1_554 S
C1224 C1229 1.363 . S
C1225 H1196 0.950 . S
C1225 C1224 1.397 1_556 S
C1225 C1226 1.334 1_556 S
C1226 H1197 0.950 1_554 S
C1226 C1225 1.334 1_554 S
C1226 C1227 1.287 . S
C1227 C1226 1.287 . S
C1227 C1228 1.524 . S
C1227 H1230 0.999 . S
C1228 H1198 0.950 . S
C1228 C1227 1.524 . S
C1228 C1229 1.415 . S
C1229 H1199 0.950 . S
C1229 C1224 1.363 . S
C1229 C1228 1.415 . S
H1230 C1227 0.999 . S
H1231 C1212 0.913 . S
H1232 C1250 0.951 . S
H1233 C1252 0.951 . S
H1234 C1254 0.950 1_455 S
H1235 C1255 0.950 1_455 S
H1236 C1257 0.950 . S
H1237 C1260 0.950 . S
H1238 C1261 0.950 . S
H1239 C1263 0.950 . S
H1240 C1264 0.950 . S
H1241 C1265 0.951 . S
H1242 C1267 0.951 . S
H1243 C1269 0.950 . S
H1244 C1270 0.950 . S
H1245 C1272 0.950 . S
H1246 C1275 0.950 . S
H1247 C1276 0.950 . S
H1248 C1278 0.950 . S
H1249 C1279 0.950 . S
C1250 H1232 0.951 . S
C1250 C1251 1.366 . S
C1250 C1252 1.388 . S
C1251 C1250 1.366 . S
C1251 C1255 1.385 . S
C1252 H1233 0.951 . S
C1252 C1250 1.388 . S
C1252 C1253 1.366 . S
C1253 C1252 1.366 . S
C1253 C1254 1.414 . S
C1253 C1256 1.499 . S
C1254 H1234 0.950 1_655 S
C1254 C1253 1.414 . S
C1254 C1255 1.374 . S
C1255 H1235 0.950 1_655 S
C1255 C1251 1.385 . S
C1255 C1254 1.374 . S
C1256 C1253 1.499 . S
C1256 C1257 1.373 . S
C1256 C1258 1.389 . S
C1257 H1236 0.950 . S
C1257 C1256 1.373 . S
C1257 C1273 1.377 . S
C1258 C1256 1.389 . S
C1258 C1259 1.524 . S
C1258 C1272 1.377 . S
C1259 C1258 1.524 . S
C1259 C1260 1.397 1_655 S
C1259 C1264 1.363 . S
C1260 H1237 0.950 . S
C1260 C1259 1.397 1_455 S
C1260 C1261 1.334 . S
C1261 H1238 0.950 . S
C1261 C1260 1.334 . S
C1261 C1262 1.287 1_455 S
C1262 C1261 1.287 1_655 S
C1262 C1263 1.524 . S
C1262 H1281 0.913 1_554 S
C1263 H1239 0.950 . S
C1263 C1262 1.524 . S
C1263 C1264 1.415 . S
C1264 H1240 0.950 . S
C1264 C1259 1.363 . S
C1264 C1263 1.415 . S
C1265 H1241 0.951 . S
C1265 C1266 1.366 1_455 S
C1265 C1267 1.388 . S
C1266 C1265 1.366 1_655 S
C1266 C1270 1.385 . S
C1267 H1242 0.951 . S
C1267 C1265 1.388 . S
C1267 C1268 1.366 1_455 S
C1268 C1267 1.366 1_655 S
C1268 C1269 1.414 . S
C1268 C1271 1.499 . S
C1269 H1243 0.950 . S
C1269 C1268 1.414 . S
C1269 C1270 1.374 . S
C1270 H1244 0.950 . S
C1270 C1266 1.385 . S
C1270 C1269 1.374 . S
C1271 C1268 1.499 . S
C1271 C1272 1.373 . S
C1271 C1273 1.389 . S
C1272 H1245 0.950 . S
C1272 C1258 1.377 . S
C1272 C1271 1.373 . S
C1273 C1257 1.377 . S
C1273 C1271 1.389 . S
C1273 C1274 1.524 . S
C1274 C1273 1.524 . S
C1274 C1275 1.397 . S
C1274 C1279 1.363 1_655 S
C1275 H1246 0.950 . S
C1275 C1274 1.397 . S
C1275 C1276 1.334 . S
C1276 H1247 0.950 . S
C1276 C1275 1.334 . S
C1276 C1277 1.287 . S
C1277 C1276 1.287 . S
C1277 C1278 1.524 1_655 S
C1277 H1280 0.999 . S
C1278 H1248 0.950 . S
C1278 C1277 1.524 1_455 S
C1278 C1279 1.415 . S
C1279 H1249 0.950 . S
C1279 C1274 1.363 1_455 S
C1279 C1278 1.415 . S
H1280 C1277 0.999 . S
H1281 C1262 0.913 1_556 S
H1282 C1300 0.951 . S
H1283 C1302 0.951 . S
H1284 C1304 0.950 . S
H1285 C1305 0.950 . S
H1286 C1307 0.950 . S
H1287 C1310 0.950 . S
H1288 C1311 0.950 . S
H1289 C1313 0.950 . S
H1290 C1314 0.950 1_565 S
H1291 C1315 0.951 . S
H1292 C1317 0.951 . S
H1293 C1319 0.950 . S
H1294 C1320 0.950 . S
H1295 C1322 0.950 . S
H1296 C1325 0.950 . S
H1297 C1326 0.950 . S
H1298 C1328 0.950 . S
H1299 C1329 0.950 1_545 S
C1300 H1282 0.951 . S
C1300 C1301 1.369 . S
C1300 C1302 1.388 . S
C1301 C1300 1.369 . S
C1301 C1305 1.381 1_565 S
C1302 H1283 0.951 . S
C1302 C1300 1.388 . S
C1302 C1303 1.366 1_565 S
C1303 C1302 1.366 1_545 S
C1303 C1304 1.414 . S
C1303 C1306 1.498 . S
C1304 H1284 0.950 . S
C1304 C1303 1.414 . S
C1304 C1305 1.374 . S
C1305 H1285 0.950 . S
C1305 C1301 1.381 1_545 S
C1305 C1304 1.374 . S
C1306 C1303 1.498 . S
C1306 C1307 1.372 1_545 S
C1306 C1308 1.390 . S
C1307 H1286 0.950 . S
C1307 C1306 1.372 1_565 S
C1307 C1323 1.377 . S
C1308 C1306 1.390 . S
C1308 C1309 1.524 . S
C1308 C1322 1.377 . S
C1309 C1308 1.524 . S
C1309 C1310 1.397 . S
C1309 C1314 1.363 . S
C1310 H1287 0.950 . S
C1310 C1309 1.397 . S
C1310 C1311 1.334 . S
C1311 H1288 0.950 . S
C1311 C1310 1.334 . S
C1311 C1312 1.287 . S
C1312 C1311 1.287 . S
C1312 C1313 1.524 . S
C1312 H1331 0.913 . S
C1313 H1289 0.950 . S
C1313 C1312 1.524 . S
C1313 C1314 1.415 . S
C1314 H1290 0.950 1_545 S
C1314 C1309 1.363 . S
C1314 C1313 1.415 . S
C1315 H1291 0.951 . S
C1315 C1316 1.366 1_545 S
C1315 C1317 1.388 . S
C1316 C1315 1.366 1_565 S
C1316 C1320 1.385 . S
C1317 H1292 0.951 . S
C1317 C1315 1.388 . S
C1317 C1318 1.366 1_545 S
C1318 C1317 1.366 1_565 S
C1318 C1319 1.414 . S
C1318 C1321 1.499 . S
C1319 H1293 0.950 . S
C1319 C1318 1.414 . S
C1319 C1320 1.374 . S
C1320 H1294 0.950 . S
C1320 C1316 1.385 . S
C1320 C1319 1.374 . S
C1321 C1318 1.499 . S
C1321 C1322 1.373 1_565 S
C1321 C1323 1.389 . S
C1322 H1295 0.950 . S
C1322 C1308 1.377 . S
C1322 C1321 1.373 1_545 S
C1323 C1307 1.377 . S
C1323 C1321 1.389 . S
C1323 C1324 1.524 . S
C1324 C1323 1.524 . S
C1324 C1325 1.397 . S
C1324 C1329 1.363 . S
C1325 H1296 0.950 . S
C1325 C1324 1.397 . S
C1325 C1326 1.334 . S
C1326 H1297 0.950 . S
C1326 C1325 1.334 . S
C1326 C1327 1.287 . S
C1327 C1326 1.287 . S
C1327 C1328 1.524 . S
C1327 H1330 0.999 . S
C1328 H1298 0.950 . S
C1328 C1327 1.524 . S
C1328 C1329 1.415 . S
C1329 H1299 0.950 1_565 S
C1329 C1324 1.363 . S
C1329 C1328 1.415 . S
H1330 C1327 0.999 . S
H1331 C1312 0.913 . S
H1332 C1350 0.951 . S
H1333 C1352 0.951 . S
H1334 C1354 0.950 . S
H1335 C1355 0.950 . S
H1336 C1357 0.950 . S
H1337 C1360 0.950 . S
H1338 C1361 0.950 . S
H1339 C1363 0.950 . S
H1340 C1364 0.950 . S
H1341 C1365 0.951 . S
H1342 C1367 0.951 . S
H1343 C1369 0.950 . S
H1344 C1370 0.950 . S
H1345 C1372 0.950 . S
H1346 C1375 0.950 . S
H1347 C1376 0.950 . S
H1348 C1378 0.950 . S
H1349 C1379 0.950 . S
C1350 H1332 0.951 . S
C1350 C1351 1.366 . S
C1350 C1352 1.388 . S
C1351 C1350 1.366 . S
C1351 C1355 1.385 . S
C1352 H1333 0.951 . S
C1352 C1350 1.388 . S
C1352 C1353 1.366 . S
C1353 C1352 1.366 . S
C1353 C1354 1.414 . S
C1353 C1356 1.499 . S
C1354 H1334 0.950 . S
C1354 C1353 1.414 . S
C1354 C1355 1.374 . S
C1355 H1335 0.950 . S
C1355 C1351 1.385 . S
C1355 C1354 1.374 . S
C1356 C1353 1.499 . S
C1356 C1357 1.373 . S
C1356 C1358 1.389 . S
C1357 H1336 0.950 . S
C1357 C1356 1.373 . S
C1357 C1373 1.377 . S
C1358 C1356 1.389 . S
C1358 C1359 1.524 . S
C1358 C1372 1.377 . S
C1359 C1358 1.524 . S
C1359 C1360 1.397 . S
C1359 C1364 1.363 . S
C1360 H1337 0.950 . S
C1360 C1359 1.397 . S
C1360 C1361 1.334 . S
C1361 H1338 0.950 . S
C1361 C1360 1.334 . S
C1361 C1362 1.287 . S
C1362 C1361 1.287 . S
C1362 C1363 1.524 . S
C1362 H1381 0.913 . S
C1363 H1339 0.950 . S
C1363 C1362 1.524 . S
C1363 C1364 1.415 . S
C1364 H1340 0.950 . S
C1364 C1359 1.363 . S
C1364 C1363 1.415 . S
C1365 H1341 0.951 . S
C1365 C1366 1.366 . S
C1365 C1367 1.388 . S
C1366 C1365 1.366 . S
C1366 C1370 1.385 . S
C1367 H1342 0.951 . S
C1367 C1365 1.388 . S
C1367 C1368 1.366 . S
C1368 C1367 1.366 . S
C1368 C1369 1.414 . S
C1368 C1371 1.499 . S
C1369 H1343 0.950 . S
C1369 C1368 1.414 . S
C1369 C1370 1.374 . S
C1370 H1344 0.950 . S
C1370 C1366 1.385 . S
C1370 C1369 1.374 . S
C1371 C1368 1.499 . S
C1371 C1372 1.373 . S
C1371 C1373 1.389 . S
C1372 H1345 0.950 . S
C1372 C1358 1.377 . S
C1372 C1371 1.373 . S
C1373 C1357 1.377 . S
C1373 C1371 1.389 . S
C1373 C1374 1.524 . S
C1374 C1373 1.524 . S
C1374 C1375 1.397 . S
C1374 C1379 1.363 . S
C1375 H1346 0.950 . S
C1375 C1374 1.397 . S
C1375 C1376 1.334 . S
C1376 H1347 0.950 . S
C1376 C1375 1.334 . S
C1376 C1377 1.287 . S
C1377 C1376 1.287 . S
C1377 C1378 1.524 . S
C1377 H1380 0.999 . S
C1378 H1348 0.950 . S
C1378 C1377 1.524 . S
C1378 C1379 1.415 . S
C1379 H1349 0.950 . S
C1379 C1374 1.363 . S
C1379 C1378 1.415 . S
H1380 C1377 0.999 . S
H1381 C1362 0.913 . S
H1382 C1400 0.951 . S
H1383 C1402 0.951 . S
H1384 C1404 0.950 . S
H1385 C1405 0.950 . S
H1386 C1407 0.950 . S
H1387 C1410 0.950 . S
H1388 C1411 0.950 . S
H1389 C1413 0.950 . S
H1390 C1414 0.950 . S
H1391 C1415 0.951 . S
H1392 C1417 0.951 . S
H1393 C1419 0.950 . S
H1394 C1420 0.950 . S
H1395 C1422 0.950 . S
H1396 C1425 0.950 . S
H1397 C1426 0.950 . S
H1398 C1428 0.950 . S
H1399 C1429 0.950 . S
C1400 H1382 0.951 . S
C1400 C1401 1.366 . S
C1400 C1402 1.388 . S
C1401 C1400 1.366 . S
C1401 C1405 1.385 . S
C1402 H1383 0.951 . S
C1402 C1400 1.388 . S
C1402 C1403 1.366 . S
C1403 C1402 1.366 . S
C1403 C1404 1.414 . S
C1403 C1406 1.499 . S
C1404 H1384 0.950 . S
C1404 C1403 1.414 . S
C1404 C1405 1.374 . S
C1405 H1385 0.950 . S
C1405 C1401 1.385 . S
C1405 C1404 1.374 . S
C1406 C1403 1.499 . S
C1406 C1407 1.373 . S
C1406 C1408 1.389 . S
C1407 H1386 0.950 . S
C1407 C1406 1.373 . S
C1407 C1423 1.377 . S
C1408 C1406 1.389 . S
C1408 C1409 1.524 . S
C1408 C1422 1.377 . S
C1409 C1408 1.524 . S
C1409 C1410 1.397 . S
C1409 C1414 1.363 . S
C1410 H1387 0.950 . S
C1410 C1409 1.397 . S
C1410 C1411 1.334 . S
C1411 H1388 0.950 . S
C1411 C1410 1.334 . S
C1411 C1412 1.287 . S
C1412 C1411 1.287 . S
C1412 C1413 1.524 . S
C1412 H1431 0.913 . S
C1413 H1389 0.950 . S
C1413 C1412 1.524 . S
C1413 C1414 1.415 . S
C1414 H1390 0.950 . S
C1414 C1409 1.363 . S
C1414 C1413 1.415 . S
C1415 H1391 0.951 . S
C1415 C1416 1.366 . S
C1415 C1417 1.388 . S
C1416 C1415 1.366 . S
C1416 C1420 1.385 . S
C1417 H1392 0.951 . S
C1417 C1415 1.388 . S
C1417 C1418 1.366 . S
C1418 C1417 1.366 . S
C1418 C1419 1.414 . S
C1418 C1421 1.499 . S
C1419 H1393 0.950 . S
C1419 C1418 1.414 . S
C1419 C1420 1.374 . S
C1420 H1394 0.950 . S
C1420 C1416 1.385 . S
C1420 C1419 1.374 . S
C1421 C1418 1.499 . S
C1421 C1422 1.373 . S
C1421 C1423 1.389 . S
C1422 H1395 0.950 . S
C1422 C1408 1.377 . S
C1422 C1421 1.373 . S
C1423 C1407 1.377 . S
C1423 C1421 1.389 . S
C1423 C1424 1.524 . S
C1424 C1423 1.524 . S
C1424 C1425 1.397 . S
C1424 C1429 1.363 . S
C1425 H1396 0.950 . S
C1425 C1424 1.397 . S
C1425 C1426 1.334 . S
C1426 H1397 0.950 . S
C1426 C1425 1.334 . S
C1426 C1427 1.287 . S
C1427 C1426 1.287 . S
C1427 C1428 1.524 . S
C1427 H1430 0.999 . S
C1428 H1398 0.950 . S
C1428 C1427 1.524 . S
C1428 C1429 1.415 . S
C1429 H1399 0.950 . S
C1429 C1424 1.363 . S
C1429 C1428 1.415 . S
H1430 C1427 0.999 . S
H1431 C1412 0.913 . S
C251 C76 1.847 . S
C266 C113 1.884 . S
C316 C134 1.547 . S
C301 C88 1.519 . S
C366 C168 1.342 . S
C351 C52 1.305 . S
C416 C202 1.519 . S
C401 C64 1.493 . S
C466 C104 1.853 . S
C451 C28 1.820 1_546 S
C501 C40 1.512 1_556 S
C516 C143 1.536 . S
C551 C4 1.298 . S
C566 C177 1.333 . S
C601 C16 1.533 . S
C616 C211 1.556 . S
C666 C125 0.224 . S
C651 C69 0.431 . S
C716 C130 0.681 . S
C701 C81 0.686 . S
C766 C164 0.597 . S
C751 C93 0.608 . S
C801 C57 0.236 . S
C816 C198 0.143 . S
C851 C21 0.451 . S
C866 C96 0.257 . S
C916 C159 0.693 . S
C901 C33 0.695 1_566 S
C966 C193 0.584 . S
C951 C45 0.599 1_556 S
C1001 C9 0.242 . S
C1016 C227 0.139 . S
C1051 C66 1.249 . S
C1066 C109 1.276 . S
C1101 C78 1.718 . S
C1116 C138 1.763 . S
C1166 C172 1.554 . S
C1151 C90 1.521 . S
C1216 C206 1.616 . S
C1201 C54 1.569 . S
C1251 C18 1.280 . S
C1266 C100 1.325 . S
C1316 C147 1.737 . S
C1301 C30 1.696 1_565 S
C1366 C181 1.578 . S
C1351 C42 1.541 . S
C1401 C6 1.614 . S
C1416 C215 1.659 . S
