# Generated by pormake.
# Topology ctn, (3,4)-cn, num edge types: 1
# Building blocks:
#     Node 0, Type 0, BuildingBlock: ESEHIV_clean_linker_0, # of connection points: 3
#     Node 1, Type 0, BuildingBlock: ESEHIV_clean_linker_0, # of connection points: 3
#     Node 2, Type 0, BuildingBlock: ESEHIV_clean_linker_0, # of connection points: 3
#     Node 3, Type 0, BuildingBlock: ESEHIV_clean_linker_0, # of connection points: 3
#     Node 4, Type 0, BuildingBlock: ESEHIV_clean_linker_0, # of connection points: 3
#     Node 5, Type 0, BuildingBlock: ESEHIV_clean_linker_0, # of connection points: 3
#     Node 6, Type 0, BuildingBlock: ESEHIV_clean_linker_0, # of connection points: 3
#     Node 7, Type 0, BuildingBlock: ESEHIV_clean_linker_0, # of connection points: 3
#     Node 8, Type 0, BuildingBlock: ESEHIV_clean_linker_0, # of connection points: 3
#     Node 9, Type 0, BuildingBlock: ESEHIV_clean_linker_0, # of connection points: 3
#     Node 10, Type 0, BuildingBlock: ESEHIV_clean_linker_0, # of connection points: 3
#     Node 11, Type 0, BuildingBlock: ESEHIV_clean_linker_0, # of connection points: 3
#     Node 12, Type 0, BuildingBlock: ESEHIV_clean_linker_0, # of connection points: 3
#     Node 13, Type 0, BuildingBlock: ESEHIV_clean_linker_0, # of connection points: 3
#     Node 14, Type 0, BuildingBlock: ESEHIV_clean_linker_0, # of connection points: 3
#     Node 15, Type 0, BuildingBlock: ESEHIV_clean_linker_0, # of connection points: 3
#     Node 16, Type 1, BuildingBlock: UXUYUI_clean_sbu_0, # of connection points: 4
#     Node 17, Type 1, BuildingBlock: UXUYUI_clean_sbu_0, # of connection points: 4
#     Node 18, Type 1, BuildingBlock: UXUYUI_clean_sbu_0, # of connection points: 4
#     Node 19, Type 1, BuildingBlock: UXUYUI_clean_sbu_0, # of connection points: 4
#     Node 20, Type 1, BuildingBlock: UXUYUI_clean_sbu_0, # of connection points: 4
#     Node 21, Type 1, BuildingBlock: UXUYUI_clean_sbu_0, # of connection points: 4
#     Node 22, Type 1, BuildingBlock: UXUYUI_clean_sbu_0, # of connection points: 4
#     Node 23, Type 1, BuildingBlock: UXUYUI_clean_sbu_0, # of connection points: 4
#     Node 24, Type 1, BuildingBlock: UXUYUI_clean_sbu_0, # of connection points: 4
#     Node 25, Type 1, BuildingBlock: UXUYUI_clean_sbu_0, # of connection points: 4
#     Node 26, Type 1, BuildingBlock: UXUYUI_clean_sbu_0, # of connection points: 4
#     Node 27, Type 1, BuildingBlock: UXUYUI_clean_sbu_0, # of connection points: 4
#     Edge 28, Type (0, 1), BuildingBlock: UVAHIK_clean_linker_0, # of connection points: 2
#     Edge 29, Type (0, 1), BuildingBlock: UVAHIK_clean_linker_0, # of connection points: 2
#     Edge 30, Type (0, 1), BuildingBlock: UVAHIK_clean_linker_0, # of connection points: 2
#     Edge 31, Type (0, 1), BuildingBlock: UVAHIK_clean_linker_0, # of connection points: 2
#     Edge 32, Type (0, 1), BuildingBlock: UVAHIK_clean_linker_0, # of connection points: 2
#     Edge 33, Type (0, 1), BuildingBlock: UVAHIK_clean_linker_0, # of connection points: 2
#     Edge 34, Type (0, 1), BuildingBlock: UVAHIK_clean_linker_0, # of connection points: 2
#     Edge 35, Type (0, 1), BuildingBlock: UVAHIK_clean_linker_0, # of connection points: 2
#     Edge 36, Type (0, 1), BuildingBlock: UVAHIK_clean_linker_0, # of connection points: 2
#     Edge 37, Type (0, 1), BuildingBlock: UVAHIK_clean_linker_0, # of connection points: 2
#     Edge 38, Type (0, 1), BuildingBlock: UVAHIK_clean_linker_0, # of connection points: 2
#     Edge 39, Type (0, 1), BuildingBlock: UVAHIK_clean_linker_0, # of connection points: 2
#     Edge 40, Type (0, 1), BuildingBlock: UVAHIK_clean_linker_0, # of connection points: 2
#     Edge 41, Type (0, 1), BuildingBlock: UVAHIK_clean_linker_0, # of connection points: 2
#     Edge 42, Type (0, 1), BuildingBlock: UVAHIK_clean_linker_0, # of connection points: 2
#     Edge 43, Type (0, 1), BuildingBlock: UVAHIK_clean_linker_0, # of connection points: 2
#     Edge 44, Type (0, 1), BuildingBlock: UVAHIK_clean_linker_0, # of connection points: 2
#     Edge 45, Type (0, 1), BuildingBlock: UVAHIK_clean_linker_0, # of connection points: 2
#     Edge 46, Type (0, 1), BuildingBlock: UVAHIK_clean_linker_0, # of connection points: 2
#     Edge 47, Type (0, 1), BuildingBlock: UVAHIK_clean_linker_0, # of connection points: 2
#     Edge 48, Type (0, 1), BuildingBlock: UVAHIK_clean_linker_0, # of connection points: 2
#     Edge 49, Type (0, 1), BuildingBlock: UVAHIK_clean_linker_0, # of connection points: 2
#     Edge 50, Type (0, 1), BuildingBlock: UVAHIK_clean_linker_0, # of connection points: 2
#     Edge 51, Type (0, 1), BuildingBlock: UVAHIK_clean_linker_0, # of connection points: 2
#     Edge 52, Type (0, 1), BuildingBlock: UVAHIK_clean_linker_0, # of connection points: 2
#     Edge 53, Type (0, 1), BuildingBlock: UVAHIK_clean_linker_0, # of connection points: 2
#     Edge 54, Type (0, 1), BuildingBlock: UVAHIK_clean_linker_0, # of connection points: 2
#     Edge 55, Type (0, 1), BuildingBlock: UVAHIK_clean_linker_0, # of connection points: 2
#     Edge 56, Type (0, 1), BuildingBlock: UVAHIK_clean_linker_0, # of connection points: 2
#     Edge 57, Type (0, 1), BuildingBlock: UVAHIK_clean_linker_0, # of connection points: 2
#     Edge 58, Type (0, 1), BuildingBlock: UVAHIK_clean_linker_0, # of connection points: 2
#     Edge 59, Type (0, 1), BuildingBlock: UVAHIK_clean_linker_0, # of connection points: 2
#     Edge 60, Type (0, 1), BuildingBlock: UVAHIK_clean_linker_0, # of connection points: 2
#     Edge 61, Type (0, 1), BuildingBlock: UVAHIK_clean_linker_0, # of connection points: 2
#     Edge 62, Type (0, 1), BuildingBlock: UVAHIK_clean_linker_0, # of connection points: 2
#     Edge 63, Type (0, 1), BuildingBlock: UVAHIK_clean_linker_0, # of connection points: 2
#     Edge 64, Type (0, 1), BuildingBlock: UVAHIK_clean_linker_0, # of connection points: 2
#     Edge 65, Type (0, 1), BuildingBlock: UVAHIK_clean_linker_0, # of connection points: 2
#     Edge 66, Type (0, 1), BuildingBlock: UVAHIK_clean_linker_0, # of connection points: 2
#     Edge 67, Type (0, 1), BuildingBlock: UVAHIK_clean_linker_0, # of connection points: 2
#     Edge 68, Type (0, 1), BuildingBlock: UVAHIK_clean_linker_0, # of connection points: 2
#     Edge 69, Type (0, 1), BuildingBlock: UVAHIK_clean_linker_0, # of connection points: 2
#     Edge 70, Type (0, 1), BuildingBlock: UVAHIK_clean_linker_0, # of connection points: 2
#     Edge 71, Type (0, 1), BuildingBlock: UVAHIK_clean_linker_0, # of connection points: 2
#     Edge 72, Type (0, 1), BuildingBlock: UVAHIK_clean_linker_0, # of connection points: 2
#     Edge 73, Type (0, 1), BuildingBlock: UVAHIK_clean_linker_0, # of connection points: 2
#     Edge 74, Type (0, 1), BuildingBlock: UVAHIK_clean_linker_0, # of connection points: 2
#     Edge 75, Type (0, 1), BuildingBlock: UVAHIK_clean_linker_0, # of connection points: 2
# Relax obj value: 0.000
# Max RMSD: 0.006
# Mean RMSD: 0.004
data_MOF--net-ctn--node1-UXUYUI_clean_sbu_0--node2-ESEHIV_clean_linker_0--edge1-UVAHIK_clean_linker_0
_symmetry_space_group_name_H-M    P1
_symmetry_Int_Tables_number       1
_symmetry_cell_setting            triclinic
loop_
_symmetry_equiv_pos_as_xyz
'x, y, z'
_cell_length_a     81.553393
_cell_length_b     81.566939
_cell_length_c     81.419285
_cell_angle_alpha  89.931684
_cell_angle_beta   90.135987
_cell_angle_gamma 90.066328
loop_
_atom_site_label
_atom_site_type_symbol
_atom_site_fract_x
_atom_site_fract_y
_atom_site_fract_z
_atom_type_partial_charge
H0 H 0.01196 0.05323 0.04041 0.0
H1 H 0.04006 0.01107 0.05521 0.0
H2 H 0.05475 0.03918 0.01309 0.0
C3 C 0.02222 0.04503 0.03857 0.0
C4 C 0.03313 0.04794 0.02554 0.0
C5 C 0.02452 0.03171 0.04932 0.0
C6 C 0.03789 0.02114 0.04679 0.0
C7 C 0.04892 0.02386 0.03384 0.0
C8 C 0.04645 0.03726 0.02329 0.0
H9 H 0.29163 0.69533 0.23859 0.0
H10 H 0.30526 0.73794 0.21056 0.0
H11 H 0.26332 0.7092 0.19628 0.0
C12 C 0.28938 0.70374 0.22852 0.0
C13 C 0.27627 0.70073 0.21773 0.0
C14 C 0.29997 0.71712 0.22601 0.0
C15 C 0.29715 0.72762 0.21258 0.0
C16 C 0.28402 0.72485 0.2017 0.0
C17 C 0.27367 0.71132 0.20438 0.0
H18 H 0.96059 0.48704 0.05585 0.0
H19 H 0.98992 0.44607 0.04035 0.0
H20 H 0.94722 0.45983 0.01265 0.0
C21 C 0.96311 0.47733 0.04715 0.0
C22 C 0.95236 0.47483 0.03387 0.0
C23 C 0.97674 0.46705 0.04963 0.0
C24 C 0.97947 0.45408 0.03861 0.0
C25 C 0.9687 0.45122 0.02542 0.0
C26 C 0.95526 0.46171 0.02309 0.0
H27 H 0.69543 0.76384 0.20993 0.0
H28 H 0.73795 0.79193 0.19644 0.0
H29 H 0.70854 0.8068 0.23758 0.0
C30 C 0.70355 0.77417 0.21203 0.0
C31 C 0.70041 0.78497 0.22508 0.0
C32 C 0.71705 0.77661 0.20161 0.0
C33 C 0.7275 0.79002 0.20441 0.0
C34 C 0.72453 0.80103 0.21733 0.0
C35 C 0.71095 0.79838 0.2276 0.0
H36 H 0.0143 0.94547 0.46008 0.0
H37 H 0.04249 0.98762 0.44552 0.0
H38 H 0.05594 0.96061 0.48883 0.0
C39 C 0.02441 0.95383 0.46219 0.0
C40 C 0.03488 0.95133 0.47569 0.0
C41 C 0.02696 0.96698 0.4513 0.0
C42 C 0.04015 0.97773 0.4541 0.0
C43 C 0.05077 0.9754 0.4675 0.0
C44 C 0.04801 0.96221 0.47825 0.0
H45 H 0.19679 0.73816 0.78955 0.0
H46 H 0.23778 0.70928 0.80593 0.0
H47 H 0.21227 0.69621 0.76157 0.0
C48 C 0.20517 0.72803 0.78768 0.0
C49 C 0.20302 0.71758 0.77412 0.0
C50 C 0.2176 0.72505 0.79927 0.0
C51 C 0.22803 0.71153 0.79714 0.0
C52 C 0.22626 0.70117 0.7835 0.0
C53 C 0.21375 0.70428 0.77204 0.0
H54 H 0.94549 0.54181 0.48666 0.0
H55 H 0.98922 0.55496 0.46041 0.0
H56 H 0.95996 0.51401 0.44433 0.0
C57 C 0.95387 0.53978 0.47655 0.0
C58 C 0.95122 0.52656 0.46583 0.0
C59 C 0.96752 0.55011 0.47464 0.0
C60 C 0.97864 0.54706 0.46184 0.0
C61 C 0.9761 0.53402 0.45082 0.0
C62 C 0.96233 0.52383 0.45296 0.0
H63 H 0.7631 0.78941 0.80589 0.0
H64 H 0.79089 0.80369 0.76337 0.0
H65 H 0.80589 0.76199 0.79211 0.0
C66 C 0.77334 0.78747 0.79765 0.0
C67 C 0.78416 0.77439 0.80053 0.0
C68 C 0.77571 0.79813 0.78431 0.0
C69 C 0.78901 0.7955 0.77369 0.0
C70 C 0.79997 0.78249 0.77639 0.0
C71 C 0.79745 0.772 0.78986 0.0
H72 H 0.26359 0.29122 0.30525 0.0
H73 H 0.29206 0.30466 0.263 0.0
H74 H 0.30474 0.26164 0.29092 0.0
C75 C 0.27384 0.28893 0.29712 0.0
C76 C 0.28392 0.27523 0.29979 0.0
C77 C 0.27659 0.29947 0.28376 0.0
C78 C 0.28964 0.29625 0.27302 0.0
C79 C 0.29995 0.28266 0.27553 0.0
C80 C 0.29691 0.27217 0.2889 0.0
H81 H 0.46075 0.98824 0.5558 0.0
H82 H 0.48859 0.94573 0.542 0.0
H83 H 0.44657 0.96021 0.51341 0.0
C84 C 0.46277 0.978 0.54758 0.0
C85 C 0.45198 0.97538 0.53437 0.0
C86 C 0.4761 0.96744 0.55032 0.0
C87 C 0.4786 0.95417 0.53964 0.0
C88 C 0.46792 0.95133 0.52636 0.0
C89 C 0.45466 0.96204 0.52382 0.0
H90 H 0.19722 0.26167 0.71192 0.0
H91 H 0.24044 0.28894 0.6991 0.0
H92 H 0.20937 0.30559 0.73835 0.0
C93 C 0.20546 0.27188 0.71407 0.0
C94 C 0.20193 0.28312 0.72663 0.0
C95 C 0.21916 0.27407 0.70388 0.0
C96 C 0.22953 0.28758 0.70654 0.0
C97 C 0.22613 0.29913 0.7189 0.0
C98 C 0.21223 0.29678 0.72884 0.0
H99 H 0.79029 0.19645 0.73884 0.0
H100 H 0.80467 0.23836 0.71016 0.0
H101 H 0.76205 0.21039 0.69644 0.0
C102 C 0.78826 0.20462 0.72853 0.0
C103 C 0.77501 0.20174 0.71786 0.0
C104 C 0.79897 0.21787 0.72592 0.0
C105 C 0.79621 0.22838 0.71251 0.0
C106 C 0.78299 0.22573 0.70172 0.0
C107 C 0.77246 0.21236 0.7045 0.0
H108 H 0.51181 0.55291 0.54061 0.0
H109 H 0.54082 0.51151 0.55559 0.0
H110 H 0.55502 0.53987 0.51337 0.0
C111 C 0.52217 0.54483 0.53863 0.0
C112 C 0.53311 0.54801 0.5257 0.0
C113 C 0.52494 0.53174 0.54951 0.0
C114 C 0.53863 0.5216 0.54719 0.0
C115 C 0.54957 0.52445 0.5342 0.0
C116 C 0.54675 0.53773 0.52356 0.0
H117 H 0.51261 0.44753 0.96147 0.0
H118 H 0.54266 0.4878 0.94513 0.0
H119 H 0.5566 0.46001 0.98778 0.0
C120 C 0.52334 0.45525 0.96288 0.0
C121 C 0.53436 0.45212 0.97578 0.0
C122 C 0.52618 0.46809 0.95168 0.0
C123 C 0.54009 0.47809 0.95384 0.0
C124 C 0.55112 0.47525 0.96682 0.0
C125 C 0.54823 0.46216 0.97765 0.0
H126 H 0.69623 0.23873 0.28959 0.0
H127 H 0.73806 0.21027 0.30481 0.0
H128 H 0.70925 0.19507 0.2632 0.0
C129 C 0.70426 0.22827 0.288 0.0
C130 C 0.70117 0.21716 0.27522 0.0
C131 C 0.7175 0.22587 0.29882 0.0
C132 C 0.72783 0.21228 0.29652 0.0
C133 C 0.72503 0.2012 0.28362 0.0
C134 C 0.71162 0.20368 0.27307 0.0
H135 H 0.44396 0.04099 0.98635 0.0
H136 H 0.48662 0.05524 0.95877 0.0
H137 H 0.45874 0.01291 0.94428 0.0
C138 C 0.45235 0.03898 0.97626 0.0
C139 C 0.4496 0.02581 0.96548 0.0
C140 C 0.46573 0.04964 0.97404 0.0
C141 C 0.47652 0.04686 0.96089 0.0
C142 C 0.47403 0.03371 0.95004 0.0
C143 C 0.46054 0.02327 0.95242 0.0
Li144 Li 0.26437 0.88559 0.99804 0.0
Li145 Li 0.25334 0.86555 0.01616 0.0
Li146 Li 0.2479 0.86422 0.98538 0.0
Li147 Li 0.23536 0.88565 0.00394 0.0
C148 C 0.28519 0.86042 0.9944 0.0
N149 N 0.31832 0.85832 0.98765 0.0
C150 C 0.29672 0.86593 0.00587 0.0
C151 C 0.29052 0.8538 0.97951 0.0
C152 C 0.3134 0.8648 0.00222 0.0
C153 C 0.30732 0.85285 0.97633 0.0
C154 C 0.25616 0.89059 0.03589 0.0
C155 C 0.24593 0.8888 0.06362 0.0
N156 N 0.26133 0.89156 0.06945 0.0
C157 C 0.27188 0.89346 0.04216 0.0
C158 C 0.24307 0.88831 0.0467 0.0
C159 C 0.27424 0.8939 0.05916 0.0
C160 C 0.28459 0.91318 0.00357 0.0
N161 N 0.28244 0.90006 0.99352 0.0
C162 C 0.30574 0.90791 0.97755 0.0
C163 C 0.29246 0.8975 0.98044 0.0
C164 C 0.30863 0.92122 0.98811 0.0
C165 C 0.29772 0.9239 0.00115 0.0
H166 H 0.27605 0.91539 0.01345 0.0
H167 H 0.29018 0.88735 0.97225 0.0
C168 C 0.24439 0.84129 0.03925 0.0
N169 N 0.25661 0.85181 0.035 0.0
C170 C 0.24613 0.83101 0.05288 0.0
C171 C 0.27306 0.84248 0.05749 0.0
C172 C 0.27084 0.85242 0.0437 0.0
C173 C 0.26061 0.83154 0.06225 0.0
H174 H 0.23332 0.84075 0.03197 0.0
H175 H 0.28049 0.86068 0.04005 0.0
C176 C 0.25087 0.90071 0.97264 0.0
N177 N 0.26228 0.92664 0.95406 0.0
C178 C 0.24894 0.91678 0.97823 0.0
C179 C 0.25848 0.8978 0.95756 0.0
C180 C 0.25483 0.92973 0.96866 0.0
C181 C 0.26419 0.91109 0.94835 0.0
C182 C 0.21579 0.85906 0.00529 0.0
C183 C 0.20691 0.85392 0.99151 0.0
C184 C 0.20758 0.86203 0.02004 0.0
C185 C 0.18992 0.8521 0.99266 0.0
C186 C 0.19057 0.8601 0.02068 0.0
N187 N 0.18216 0.85523 0.00709 0.0
C188 C 0.25028 0.83492 0.96731 0.0
C189 C 0.23616 0.85643 0.95375 0.0
C190 C 0.24801 0.8246 0.95383 0.0
N191 N 0.24448 0.85051 0.96696 0.0
C192 C 0.23345 0.84648 0.94006 0.0
C193 C 0.23947 0.83032 0.93992 0.0
H194 H 0.25681 0.83056 0.97804 0.0
H195 H 0.23152 0.86884 0.95392 0.0
C196 C 0.21661 0.91091 0.01841 0.0
N197 N 0.21647 0.89911 0.00663 0.0
C198 C 0.203 0.92104 0.02059 0.0
C199 C 0.18944 0.90688 0.99831 0.0
C200 C 0.20339 0.89716 0.99642 0.0
C201 C 0.18914 0.919 0.01054 0.0
H202 H 0.22734 0.91255 0.02604 0.0
H203 H 0.20382 0.8881 0.98676 0.0
O204 O 0.26878 0.86143 0.99772 0.0
O205 O 0.25361 0.88993 0.01927 0.0
O206 O 0.24558 0.88787 0.98203 0.0
O207 O 0.23243 0.86107 0.00435 0.0
H208 H 0.29283 0.8714 0.01727 0.0
H209 H 0.28179 0.84959 0.97043 0.0
H210 H 0.32245 0.86915 0.01093 0.0
H211 H 0.31161 0.8478 0.96484 0.0
H212 H 0.23591 0.88699 0.07211 0.0
H213 H 0.28222 0.89507 0.03404 0.0
H214 H 0.23083 0.88616 0.0421 0.0
H215 H 0.28635 0.896 0.06417 0.0
H216 H 0.31382 0.90538 0.96732 0.0
H217 H 0.29923 0.93425 0.00933 0.0
H218 H 0.23632 0.82256 0.05585 0.0
H219 H 0.28436 0.84349 0.06442 0.0
H220 H 0.24313 0.91919 0.98992 0.0
H221 H 0.26015 0.88541 0.95314 0.0
H222 H 0.25352 0.94223 0.97287 0.0
H223 H 0.2702 0.90904 0.93671 0.0
H224 H 0.21304 0.85145 0.98003 0.0
H225 H 0.21425 0.86582 0.03087 0.0
H226 H 0.18289 0.84823 0.98207 0.0
H227 H 0.18406 0.86246 0.03199 0.0
H228 H 0.25309 0.81235 0.95424 0.0
H229 H 0.22653 0.85136 0.9298 0.0
H230 H 0.20326 0.93026 0.03015 0.0
H231 H 0.17911 0.90514 0.9901 0.0
Li232 Li 0.11678 0.50246 0.26633 0.0
Li233 Li 0.13747 0.48549 0.25284 0.0
Li234 Li 0.13671 0.51525 0.2489 0.0
Li235 Li 0.11578 0.49751 0.23668 0.0
C236 C 0.15451 0.51056 0.27503 0.0
N237 N 0.18268 0.52696 0.28445 0.0
C238 C 0.16989 0.50349 0.27241 0.0
C239 C 0.15347 0.52596 0.28248 0.0
C240 C 0.18398 0.51197 0.27728 0.0
C241 C 0.16784 0.53407 0.28712 0.0
C242 C 0.11299 0.46531 0.25876 0.0
C243 C 0.11597 0.43678 0.25162 0.0
N244 N 0.11338 0.43259 0.26758 0.0
C245 C 0.11033 0.46072 0.27509 0.0
C246 C 0.11578 0.45325 0.24691 0.0
C247 C 0.11057 0.44411 0.2793 0.0
C248 C 0.08794 0.49872 0.28493 0.0
N249 N 0.10349 0.50473 0.28541 0.0
C250 C 0.09941 0.51484 0.31261 0.0
C251 C 0.10941 0.51253 0.29892 0.0
C252 C 0.08328 0.50881 0.31246 0.0
C253 C 0.07759 0.50055 0.29844 0.0
H254 H 0.08356 0.49259 0.27399 0.0
H255 H 0.12184 0.51707 0.29902 0.0
C256 C 0.1606 0.46156 0.24274 0.0
N257 N 0.15143 0.46696 0.25555 0.0
C258 C 0.17085 0.44799 0.24465 0.0
C259 C 0.16212 0.44589 0.27292 0.0
C260 C 0.15217 0.45959 0.2705 0.0
C261 C 0.17167 0.43988 0.25989 0.0
H262 H 0.16008 0.46788 0.23109 0.0
H263 H 0.14497 0.46435 0.28056 0.0
C264 C 0.09909 0.5261 0.25424 0.0
N265 N 0.07112 0.53996 0.26733 0.0
C266 C 0.08364 0.52147 0.2484 0.0
C267 C 0.10032 0.53781 0.26671 0.0
C268 C 0.06964 0.52864 0.25517 0.0
C269 C 0.08604 0.54465 0.27319 0.0
C270 C 0.14018 0.49713 0.21555 0.0
C271 C 0.14296 0.51135 0.20637 0.0
C272 C 0.13722 0.4823 0.20747 0.0
C273 C 0.14267 0.51051 0.18924 0.0
C274 C 0.13698 0.48197 0.19031 0.0
N275 N 0.13969 0.49597 0.18163 0.0
C276 C 0.1657 0.53165 0.23986 0.0
C277 C 0.1444 0.5493 0.24871 0.0
C278 C 0.17618 0.54498 0.23752 0.0
N279 N 0.15017 0.53403 0.2454 0.0
C280 C 0.15453 0.56297 0.24674 0.0
C281 C 0.17064 0.56088 0.24106 0.0
H282 H 0.16994 0.51934 0.23736 0.0
H283 H 0.13198 0.55086 0.25297 0.0
C284 C 0.09248 0.48092 0.21675 0.0
N285 N 0.10174 0.4947 0.21815 0.0
C286 C 0.08231 0.47867 0.20311 0.0
C287 C 0.09128 0.50495 0.19269 0.0
C288 C 0.10112 0.50675 0.20662 0.0
C289 C 0.08169 0.49073 0.19075 0.0
H290 H 0.09288 0.47171 0.22628 0.0
H291 H 0.10839 0.51773 0.20821 0.0
O292 O 0.14059 0.50264 0.26998 0.0
O293 O 0.11306 0.48153 0.25443 0.0
O294 O 0.11292 0.51891 0.24807 0.0
O295 O 0.14016 0.49774 0.23234 0.0
H296 H 0.17098 0.49166 0.26655 0.0
H297 H 0.14171 0.5318 0.28429 0.0
H298 H 0.19596 0.50666 0.27528 0.0
H299 H 0.16722 0.54606 0.29275 0.0
H300 H 0.11822 0.42733 0.24259 0.0
H301 H 0.10831 0.46988 0.28446 0.0
H302 H 0.11798 0.45658 0.23424 0.0
H303 H 0.10861 0.44039 0.29189 0.0
H304 H 0.10429 0.52113 0.32327 0.0
H305 H 0.06518 0.49584 0.29782 0.0
H306 H 0.17824 0.44406 0.23435 0.0
H307 H 0.16219 0.43999 0.28484 0.0
H308 H 0.08241 0.51234 0.23886 0.0
H309 H 0.11215 0.54129 0.27163 0.0
H310 H 0.0576 0.52514 0.2508 0.0
H311 H 0.08681 0.55361 0.28295 0.0
H312 H 0.14512 0.52297 0.21239 0.0
H313 H 0.13493 0.4712 0.21436 0.0
H314 H 0.14473 0.52144 0.18198 0.0
H315 H 0.1346 0.47061 0.18391 0.0
H316 H 0.18856 0.54287 0.23323 0.0
H317 H 0.14977 0.57506 0.24944 0.0
H318 H 0.07488 0.46769 0.20238 0.0
H319 H 0.09136 0.51451 0.18346 0.0
Li320 Li 0.73623 0.61539 0.00048 0.0
Li321 Li 0.74998 0.63573 0.01735 0.0
Li322 Li 0.75294 0.63578 0.98733 0.0
Li323 Li 0.76699 0.61478 0.00359 0.0
C324 C 0.7163 0.64142 0.99888 0.0
N325 N 0.68269 0.64467 0.99581 0.0
C326 C 0.70694 0.64683 0.01218 0.0
C327 C 0.70855 0.63781 0.98398 0.0
C328 C 0.68997 0.64837 0.01039 0.0
C329 C 0.69155 0.63948 0.98269 0.0
C330 C 0.74389 0.60719 0.03563 0.0
C331 C 0.74696 0.59276 0.06133 0.0
N332 N 0.73238 0.59899 0.06647 0.0
C333 C 0.72902 0.61354 0.04121 0.0
C334 C 0.75301 0.59681 0.04581 0.0
C335 C 0.72337 0.60922 0.05682 0.0
C336 C 0.71894 0.58887 0.9869 0.0
N337 N 0.71755 0.60125 0.99798 0.0
C338 C 0.69003 0.59316 0.00413 0.0
C339 C 0.70351 0.60341 0.00671 0.0
C340 C 0.69106 0.58041 0.99262 0.0
C341 C 0.70581 0.57824 0.98403 0.0
H342 H 0.73026 0.58727 0.98022 0.0
H343 H 0.70261 0.61314 0.01559 0.0
C344 C 0.74205 0.66461 0.03415 0.0
N345 N 0.7486 0.64944 0.03629 0.0
C346 C 0.74018 0.67515 0.04751 0.0
C347 C 0.75241 0.65451 0.06496 0.0
C348 C 0.75401 0.64436 0.05127 0.0
C349 C 0.74527 0.67009 0.06322 0.0
H350 H 0.73806 0.66842 0.02206 0.0
H351 H 0.75955 0.63242 0.05265 0.0
C352 C 0.75655 0.6106 0.96719 0.0
N353 N 0.76307 0.60922 0.93393 0.0
C354 C 0.77254 0.60788 0.96169 0.0
C355 C 0.74384 0.61237 0.95578 0.0
C356 C 0.7756 0.60728 0.94483 0.0
C357 C 0.7474 0.61171 0.93902 0.0
C358 C 0.78305 0.64334 0.01432 0.0
C359 C 0.79222 0.65742 0.01095 0.0
C360 C 0.78673 0.63393 0.0282 0.0
C361 C 0.80497 0.66186 0.02156 0.0
C362 C 0.79956 0.63876 0.0385 0.0
N363 N 0.80834 0.65251 0.035 0.0
C364 C 0.74326 0.65913 0.96323 0.0
C365 C 0.77053 0.64945 0.96093 0.0
C366 C 0.74531 0.66911 0.94944 0.0
N367 N 0.75573 0.64944 0.96856 0.0
C368 C 0.77309 0.65913 0.94701 0.0
C369 C 0.76037 0.66916 0.94106 0.0
H370 H 0.73177 0.65926 0.96977 0.0
H371 H 0.78035 0.64187 0.96564 0.0
C372 C 0.78366 0.58557 0.01107 0.0
N373 N 0.78572 0.60105 0.00525 0.0
C374 C 0.79714 0.57519 0.01293 0.0
C375 C 0.81455 0.59676 0.00235 0.0
C376 C 0.80073 0.60673 0.00075 0.0
C377 C 0.81288 0.58077 0.00862 0.0
H378 H 0.77154 0.58134 0.01436 0.0
H379 H 0.80197 0.61903 0.99591 0.0
O380 O 0.73294 0.63976 0.00041 0.0
O381 O 0.74983 0.6116 0.02056 0.0
O382 O 0.75336 0.61152 0.98365 0.0
O383 O 0.77048 0.63894 0.00407 0.0
H384 H 0.71266 0.64964 0.02383 0.0
H385 H 0.71557 0.63367 0.97355 0.0
H386 H 0.68258 0.65245 0.02062 0.0
H387 H 0.68541 0.63664 0.97125 0.0
H388 H 0.75389 0.58473 0.06933 0.0
H389 H 0.72215 0.62207 0.03376 0.0
H390 H 0.76471 0.59204 0.04183 0.0
H391 H 0.71191 0.6141 0.06131 0.0
H392 H 0.67896 0.59511 0.01118 0.0
H393 H 0.70709 0.5686 0.97499 0.0
H394 H 0.73451 0.687 0.0456 0.0
H395 H 0.75681 0.65023 0.07677 0.0
H396 H 0.78251 0.60642 0.97034 0.0
H397 H 0.73137 0.61423 0.95982 0.0
H398 H 0.78793 0.60531 0.9404 0.0
H399 H 0.7377 0.61316 0.93006 0.0
H400 H 0.7895 0.66484 0.00026 0.0
H401 H 0.77975 0.623 0.03101 0.0
H402 H 0.81217 0.67273 0.01911 0.0
H403 H 0.80253 0.63159 0.04929 0.0
H404 H 0.73528 0.6769 0.94557 0.0
H405 H 0.78486 0.65863 0.94092 0.0
H406 H 0.79527 0.56304 0.01795 0.0
H407 H 0.82637 0.60147 0.99859 0.0
Li408 Li 0.86612 0.01701 0.25437 0.0
Li409 Li 0.88628 0.99927 0.26583 0.0
Li410 Li 0.88616 0.00452 0.23664 0.0
Li411 Li 0.86488 0.98616 0.24972 0.0
C412 C 0.89107 0.03691 0.25671 0.0
N413 N 0.89182 0.0705 0.26118 0.0
C414 C 0.89451 0.04347 0.2722 0.0
C415 C 0.8881 0.04745 0.24349 0.0
C416 C 0.89483 0.06048 0.27421 0.0
C417 C 0.8885 0.06439 0.246 0.0
C418 C 0.86105 0.99621 0.28682 0.0
C419 C 0.85319 0.97904 0.30962 0.0
N420 N 0.85882 0.99064 0.32022 0.0
C421 C 0.8667 0.00798 0.29794 0.0
C422 C 0.85421 0.98162 0.29269 0.0
C423 C 0.8655 0.00493 0.31478 0.0
C424 C 0.84118 0.03923 0.24523 0.0
N425 N 0.85224 0.03573 0.25726 0.0
C426 C 0.84322 0.05876 0.27297 0.0
C427 C 0.85325 0.04504 0.27107 0.0
C428 C 0.83177 0.06271 0.26071 0.0
C429 C 0.83074 0.0527 0.24673 0.0
H430 H 0.8404 0.03151 0.23449 0.0
H431 H 0.86183 0.04189 0.28065 0.0
C432 C 0.91403 0.005 0.28591 0.0
N433 N 0.90076 0.99508 0.284 0.0
C434 C 0.92478 0.00267 0.29907 0.0
C435 C 0.90851 0.97941 0.30761 0.0
C436 C 0.89807 0.98222 0.2943 0.0
C437 C 0.92199 0.98983 0.31024 0.0
H438 H 0.91634 0.01467 0.27714 0.0
H439 H 0.8878 0.97411 0.2922 0.0
C440 C 0.85971 0.00512 0.21704 0.0
N441 N 0.85628 0.00582 0.18327 0.0
C442 C 0.8553 0.99091 0.20852 0.0
C443 C 0.86216 0.01973 0.2084 0.0
C444 C 0.85367 0.9915 0.19144 0.0
C445 C 0.86044 0.01982 0.19133 0.0
C446 C 0.90177 0.97404 0.25265 0.0
C447 C 0.91762 0.98009 0.25024 0.0
C448 C 0.89949 0.95907 0.26069 0.0
C449 C 0.93098 0.97109 0.25608 0.0
C450 C 0.91317 0.95043 0.26634 0.0
N451 N 0.9285 0.95658 0.26395 0.0
C452 C 0.91045 0.01926 0.21665 0.0
C453 C 0.89807 0.99556 0.20527 0.0
C454 C 0.92033 0.02111 0.20279 0.0
N455 N 0.89943 0.00679 0.21753 0.0
C456 C 0.90762 0.997 0.19113 0.0
C457 C 0.91892 0.00995 0.18971 0.0
H458 H 0.91174 0.02768 0.2268 0.0
H459 H 0.88955 0.98547 0.20649 0.0
C460 C 0.8354 0.96842 0.25216 0.0
N461 N 0.85117 0.96766 0.24689 0.0
C462 C 0.82497 0.95498 0.25015 0.0
C463 C 0.84716 0.94036 0.23709 0.0
C464 C 0.85719 0.95404 0.23946 0.0
C465 C 0.83079 0.94069 0.24248 0.0
H466 H 0.83097 0.97946 0.258 0.0
H467 H 0.86975 0.9539 0.23522 0.0
O468 O 0.89053 0.02027 0.2545 0.0
O469 O 0.86216 0.99893 0.27027 0.0
O470 O 0.86158 0.00472 0.23375 0.0
O471 O 0.88853 0.98289 0.24743 0.0
H472 H 0.8966 0.03557 0.28266 0.0
H473 H 0.88546 0.04262 0.23143 0.0
H474 H 0.89736 0.06572 0.28615 0.0
H475 H 0.88616 0.07267 0.23588 0.0
H476 H 0.84797 0.96779 0.31434 0.0
H477 H 0.87232 0.01918 0.29362 0.0
H478 H 0.84985 0.97233 0.28427 0.0
H479 H 0.86996 0.01388 0.32351 0.0
H480 H 0.84421 0.06603 0.28405 0.0
H481 H 0.82208 0.05537 0.23698 0.0
H482 H 0.93526 0.01072 0.30039 0.0
H483 H 0.9059 0.96935 0.31589 0.0
H484 H 0.85327 0.97951 0.21498 0.0
H485 H 0.86538 0.03088 0.21479 0.0
H486 H 0.85036 0.98057 0.18469 0.0
H487 H 0.86239 0.03103 0.18449 0.0
H488 H 0.91955 0.99171 0.2441 0.0
H489 H 0.88728 0.9543 0.26275 0.0
H490 H 0.94332 0.97566 0.2544 0.0
H491 H 0.91161 0.93888 0.27269 0.0
H492 H 0.92916 0.03102 0.20246 0.0
H493 H 0.90603 0.98814 0.18136 0.0
H494 H 0.81253 0.95574 0.25471 0.0
H495 H 0.85212 0.92975 0.23086 0.0
Li496 Li 0.2493 0.13573 0.51736 0.0
Li497 Li 0.23601 0.11554 0.49935 0.0
Li498 Li 0.26675 0.11548 0.50397 0.0
Li499 Li 0.25366 0.13636 0.48659 0.0
C500 C 0.2463 0.10813 0.53615 0.0
N501 N 0.24143 0.10174 0.56912 0.0
C502 C 0.23087 0.10322 0.54177 0.0
C503 C 0.25931 0.1095 0.54726 0.0
C504 C 0.22864 0.10012 0.55849 0.0
C505 C 0.25659 0.1063 0.56389 0.0
C506 C 0.21725 0.14362 0.49578 0.0
C507 C 0.19493 0.1453 0.47637 0.0
N508 N 0.18499 0.15103 0.48845 0.0
C509 C 0.20687 0.14973 0.50796 0.0
C510 C 0.21129 0.14156 0.47982 0.0
C511 C 0.19059 0.15333 0.50403 0.0
C512 C 0.25763 0.1607 0.53996 0.0
N513 N 0.24654 0.1487 0.53663 0.0
C514 C 0.23144 0.15524 0.56089 0.0
C515 C 0.23353 0.14593 0.54667 0.0
C516 C 0.2428 0.16763 0.56475 0.0
C517 C 0.25602 0.17032 0.55403 0.0
H518 H 0.26766 0.16292 0.5316 0.0
H519 H 0.22469 0.13654 0.5436 0.0
C520 C 0.21855 0.08856 0.48664 0.0
N521 N 0.21712 0.10207 0.49628 0.0
C522 C 0.20508 0.07829 0.48404 0.0
C523 C 0.18894 0.09592 0.50151 0.0
C524 C 0.20275 0.10579 0.50383 0.0
C525 C 0.19001 0.08196 0.4915 0.0
H526 H 0.23019 0.08572 0.48099 0.0
H527 H 0.20204 0.11628 0.51187 0.0
C528 C 0.28604 0.14273 0.50753 0.0
N529 N 0.31898 0.14847 0.5132 0.0
C530 C 0.29596 0.14899 0.49502 0.0
C531 C 0.29284 0.13965 0.523 0.0
C532 C 0.31259 0.15175 0.49811 0.0
C533 C 0.30952 0.14255 0.52561 0.0
C534 C 0.25569 0.10869 0.46699 0.0
C535 C 0.27082 0.10373 0.46071 0.0
C536 C 0.24215 0.10984 0.45651 0.0
C537 C 0.27225 0.1004 0.44394 0.0
C538 C 0.24406 0.1064 0.43982 0.0
N539 N 0.25896 0.10182 0.43393 0.0
C540 C 0.28443 0.08868 0.51676 0.0
C541 C 0.29963 0.10518 0.49827 0.0
C542 C 0.29789 0.07837 0.51911 0.0
N543 N 0.28557 0.10185 0.50658 0.0
C544 C 0.31342 0.09526 0.50033 0.0
C545 C 0.31265 0.08165 0.51088 0.0
H546 H 0.27304 0.08615 0.52304 0.0
H547 H 0.30011 0.11544 0.48989 0.0
C548 C 0.2462 0.16305 0.46568 0.0
N549 N 0.25642 0.15006 0.46778 0.0
C550 C 0.24778 0.17322 0.45197 0.0
C551 C 0.27062 0.15668 0.44299 0.0
C552 C 0.2686 0.14686 0.45688 0.0
C553 C 0.2601 0.17006 0.44035 0.0
H554 H 0.23682 0.16556 0.47468 0.0
H555 H 0.27692 0.1368 0.45909 0.0
O556 O 0.24868 0.11133 0.51982 0.0
O557 O 0.2332 0.13987 0.49946 0.0
O558 O 0.26975 0.13983 0.50468 0.0
O559 O 0.25409 0.11209 0.48337 0.0
H560 H 0.22071 0.10192 0.53334 0.0
H561 H 0.2714 0.11291 0.54309 0.0
H562 H 0.21673 0.09643 0.56303 0.0
H563 H 0.26654 0.1074 0.57263 0.0
H564 H 0.19014 0.14369 0.46407 0.0
H565 H 0.21131 0.15161 0.52033 0.0
H566 H 0.21923 0.13724 0.47016 0.0
H567 H 0.1824 0.15796 0.51337 0.0
H568 H 0.22112 0.15266 0.56882 0.0
H569 H 0.26488 0.17995 0.55635 0.0
H570 H 0.20642 0.06769 0.47617 0.0
H571 H 0.17765 0.09901 0.50775 0.0
H572 H 0.29089 0.15166 0.48304 0.0
H573 H 0.2853 0.13512 0.5329 0.0
H574 H 0.32042 0.15649 0.48851 0.0
H575 H 0.31495 0.14013 0.5375 0.0
H576 H 0.28139 0.10258 0.46865 0.0
H577 H 0.23025 0.1132 0.46121 0.0
H578 H 0.28393 0.09668 0.4389 0.0
H579 H 0.23369 0.10732 0.43156 0.0
H580 H 0.2968 0.06804 0.52741 0.0
H581 H 0.32448 0.09806 0.49353 0.0
H582 H 0.23935 0.18335 0.4504 0.0
H583 H 0.28051 0.154 0.43456 0.0
Li584 Li 0.38642 0.49847 0.76548 0.0
Li585 Li 0.36548 0.51607 0.7531 0.0
Li586 Li 0.36529 0.48627 0.74883 0.0
Li587 Li 0.38612 0.50383 0.73589 0.0
C588 C 0.34951 0.49123 0.77694 0.0
N589 N 0.32247 0.4759 0.79045 0.0
C590 C 0.33449 0.49943 0.77776 0.0
C591 C 0.35079 0.47525 0.78306 0.0
C592 C 0.32097 0.49146 0.78464 0.0
C593 C 0.33697 0.4677 0.78981 0.0
C594 C 0.39073 0.53575 0.7577 0.0
C595 C 0.38822 0.56423 0.75014 0.0
N596 N 0.39166 0.5686 0.76589 0.0
C597 C 0.39429 0.54051 0.77381 0.0
C598 C 0.38773 0.54769 0.74574 0.0
C599 C 0.3947 0.55718 0.7777 0.0
C600 C 0.41588 0.50186 0.78345 0.0
N601 N 0.40046 0.49553 0.78399 0.0
C602 C 0.40526 0.48474 0.81086 0.0
C603 C 0.39499 0.48716 0.79734 0.0
C604 C 0.42122 0.4912 0.8107 0.0
C605 C 0.4265 0.49991 0.79679 0.0
H606 H 0.4199 0.50844 0.77264 0.0
H607 H 0.38266 0.48236 0.79751 0.0
C608 C 0.34191 0.53971 0.74387 0.0
N609 N 0.35196 0.5348 0.75628 0.0
C610 C 0.33176 0.55332 0.74589 0.0
C611 C 0.34251 0.5566 0.7734 0.0
C612 C 0.35228 0.54278 0.77093 0.0
C613 C 0.33205 0.56198 0.76078 0.0
H614 H 0.3417 0.533 0.73245 0.0
H615 H 0.36009 0.53835 0.78072 0.0
C616 C 0.40237 0.47415 0.75274 0.0
N617 N 0.42962 0.45845 0.76537 0.0
C618 C 0.41807 0.47881 0.7477 0.0
C619 C 0.40051 0.46146 0.76414 0.0
C620 C 0.4317 0.47072 0.75423 0.0
C621 C 0.41445 0.4537 0.77041 0.0
C622 C 0.3604 0.50452 0.71587 0.0
C623 C 0.35617 0.49038 0.70715 0.0
C624 C 0.36351 0.51909 0.70738 0.0
C625 C 0.35529 0.49102 0.69002 0.0
C626 C 0.36254 0.51922 0.69025 0.0
N627 N 0.35849 0.5053 0.682 0.0
C628 C 0.33503 0.46969 0.74549 0.0
C629 C 0.35845 0.45275 0.74294 0.0
C630 C 0.32467 0.45621 0.74347 0.0
N631 N 0.35156 0.46768 0.7455 0.0
C632 C 0.34856 0.43897 0.74054 0.0
C633 C 0.33137 0.44053 0.74094 0.0
H634 H 0.32988 0.48177 0.74723 0.0
H635 H 0.37165 0.45157 0.74262 0.0
C636 C 0.40995 0.51947 0.71604 0.0
N637 N 0.39955 0.50648 0.71697 0.0
C638 C 0.42002 0.52149 0.70234 0.0
C639 C 0.40849 0.49671 0.69082 0.0
C640 C 0.39883 0.49503 0.70486 0.0
C641 C 0.41928 0.51006 0.68948 0.0
H642 H 0.41052 0.52821 0.72599 0.0
H643 H 0.39078 0.48457 0.70614 0.0
O644 O 0.36287 0.49879 0.77016 0.0
O645 O 0.39003 0.51948 0.75369 0.0
O646 O 0.38891 0.48226 0.74689 0.0
O647 O 0.36155 0.50409 0.73263 0.0
H648 H 0.33324 0.51177 0.77307 0.0
H649 H 0.36223 0.46861 0.78229 0.0
H650 H 0.30926 0.49765 0.78531 0.0
H651 H 0.33775 0.4553 0.79446 0.0
H652 H 0.38583 0.5736 0.74103 0.0
H653 H 0.39649 0.53144 0.78325 0.0
H654 H 0.3849 0.54422 0.73324 0.0
H655 H 0.39735 0.56105 0.79013 0.0
H656 H 0.40068 0.4781 0.82144 0.0
H657 H 0.43877 0.50497 0.79617 0.0
H658 H 0.32388 0.55713 0.73586 0.0
H659 H 0.34289 0.56281 0.78514 0.0
H660 H 0.41972 0.48869 0.73897 0.0
H661 H 0.38845 0.45781 0.76828 0.0
H662 H 0.44392 0.47425 0.7505 0.0
H663 H 0.41321 0.44394 0.77933 0.0
H664 H 0.35374 0.47899 0.71351 0.0
H665 H 0.3668 0.53015 0.71394 0.0
H666 H 0.35212 0.48015 0.68311 0.0
H667 H 0.36503 0.53039 0.68351 0.0
H668 H 0.31155 0.4581 0.74411 0.0
H669 H 0.35436 0.42728 0.73822 0.0
H670 H 0.42819 0.53196 0.70173 0.0
H671 H 0.40777 0.4875 0.68127 0.0
Li672 Li 0.7663 0.38607 0.49765 0.0
Li673 Li 0.75332 0.36531 0.51524 0.0
Li674 Li 0.74874 0.36559 0.48449 0.0
Li675 Li 0.73561 0.38593 0.50237 0.0
C676 C 0.78549 0.35866 0.49407 0.0
N677 N 0.81823 0.35257 0.4879 0.0
C678 C 0.79564 0.35259 0.50652 0.0
C679 C 0.79194 0.36136 0.47841 0.0
C680 C 0.81218 0.34966 0.50317 0.0
C681 C 0.80853 0.35829 0.47555 0.0
C682 C 0.7559 0.39284 0.53464 0.0
C683 C 0.7451 0.39475 0.56213 0.0
N684 N 0.76017 0.39931 0.56769 0.0
C685 C 0.77122 0.39776 0.54059 0.0
C686 C 0.74268 0.39152 0.54546 0.0
C687 C 0.77315 0.40089 0.55735 0.0
C688 C 0.78353 0.41308 0.48479 0.0
N689 N 0.78504 0.39979 0.49477 0.0
C690 C 0.81304 0.40649 0.50037 0.0
C691 C 0.79936 0.39646 0.50267 0.0
C692 C 0.8119 0.42023 0.49 0.0
C693 C 0.79687 0.4235 0.4822 0.0
H694 H 0.77194 0.41562 0.47886 0.0
H695 H 0.80014 0.38611 0.51092 0.0
C696 C 0.74569 0.33893 0.5364 0.0
N697 N 0.75617 0.3517 0.53412 0.0
C698 C 0.74731 0.32874 0.5501 0.0
C699 C 0.77068 0.34484 0.55873 0.0
C700 C 0.76861 0.35469 0.54485 0.0
C701 C 0.75993 0.33166 0.56152 0.0
H702 H 0.73609 0.3366 0.52754 0.0
H703 H 0.77709 0.3646 0.54253 0.0
C704 C 0.74587 0.39321 0.46547 0.0
N705 N 0.74133 0.39976 0.43246 0.0
C706 C 0.73051 0.39813 0.45964 0.0
C707 C 0.75899 0.39191 0.45454 0.0
C708 C 0.72844 0.40131 0.4429 0.0
C709 C 0.75644 0.39519 0.43789 0.0
C710 C 0.71671 0.35815 0.5059 0.0
C711 C 0.70638 0.35208 0.4936 0.0
C712 C 0.71057 0.36048 0.52173 0.0
C713 C 0.68997 0.34879 0.49727 0.0
C714 C 0.6941 0.35706 0.52492 0.0
N715 N 0.68422 0.35135 0.51271 0.0
C716 C 0.75668 0.34001 0.46251 0.0
C717 C 0.73307 0.35522 0.45507 0.0
C718 C 0.75496 0.33012 0.44862 0.0
N719 N 0.74588 0.35236 0.46539 0.0
C720 C 0.73088 0.34564 0.44105 0.0
C721 C 0.74192 0.33288 0.43765 0.0
H722 H 0.76655 0.33773 0.47108 0.0
H723 H 0.72443 0.36486 0.45781 0.0
C724 C 0.71816 0.4127 0.51536 0.0
N725 N 0.71676 0.39941 0.5054 0.0
C726 C 0.70472 0.42296 0.51796 0.0
C727 C 0.68868 0.40577 0.49986 0.0
C728 C 0.70245 0.3959 0.49754 0.0
C729 C 0.68971 0.41951 0.5102 0.0
H730 H 0.72974 0.41538 0.52125 0.0
H731 H 0.70176 0.38557 0.4893 0.0
O732 O 0.76929 0.36174 0.49716 0.0
O733 O 0.75381 0.38962 0.51827 0.0
O734 O 0.74809 0.38994 0.48182 0.0
O735 O 0.73278 0.36158 0.50248 0.0
H736 H 0.79084 0.35023 0.51864 0.0
H737 H 0.7842 0.36571 0.46855 0.0
H738 H 0.82019 0.34506 0.51273 0.0
H739 H 0.81369 0.36041 0.4635 0.0
H740 H 0.73499 0.3937 0.57064 0.0
H741 H 0.78154 0.39903 0.5324 0.0
H742 H 0.73065 0.38815 0.54103 0.0
H743 H 0.78498 0.40458 0.56214 0.0
H744 H 0.82431 0.4037 0.50685 0.0
H745 H 0.79548 0.43391 0.47405 0.0
H746 H 0.73868 0.31879 0.5518 0.0
H747 H 0.78078 0.34733 0.56702 0.0
H748 H 0.72026 0.39938 0.46793 0.0
H749 H 0.77104 0.38852 0.45888 0.0
H750 H 0.71658 0.405 0.43821 0.0
H751 H 0.76648 0.39415 0.4293 0.0
H752 H 0.71095 0.34999 0.48133 0.0
H753 H 0.71846 0.3648 0.53148 0.0
H754 H 0.68182 0.34419 0.48783 0.0
H755 H 0.68918 0.35888 0.53711 0.0
H756 H 0.76358 0.32023 0.44667 0.0
H757 H 0.7207 0.34828 0.4329 0.0
H758 H 0.70603 0.43338 0.52609 0.0
H759 H 0.67743 0.40285 0.49339 0.0
Li760 Li 0.63703 0.98425 0.75371 0.0
Li761 Li 0.6165 0.00189 0.76689 0.0
Li762 Li 0.61646 0.99736 0.73612 0.0
Li763 Li 0.6371 0.01499 0.74931 0.0
C764 C 0.6093 0.9651 0.75619 0.0
N765 N 0.60252 0.93214 0.76021 0.0
C766 C 0.6039 0.95918 0.77137 0.0
C767 C 0.61096 0.9543 0.74299 0.0
C768 C 0.60061 0.94246 0.77317 0.0
C769 C 0.60756 0.93767 0.74529 0.0
C770 C 0.64436 0.00524 0.78595 0.0
C771 C 0.64614 0.02388 0.80886 0.0
N772 N 0.65139 0.01137 0.8186 0.0
C773 C 0.64996 0.99261 0.79613 0.0
C774 C 0.6426 0.02104 0.79232 0.0
C775 C 0.65338 0.99594 0.81262 0.0
C776 C 0.6635 0.96334 0.74619 0.0
N777 N 0.6505 0.96533 0.75642 0.0
C778 C 0.65706 0.94043 0.77048 0.0
C779 C 0.64725 0.95431 0.76853 0.0
C780 C 0.67049 0.93797 0.76 0.0
C781 C 0.67369 0.94968 0.74776 0.0
H782 H 0.666 0.97242 0.73684 0.0
H783 H 0.63718 0.95641 0.77685 0.0
C784 C 0.58957 0.01461 0.78427 0.0
N785 N 0.60291 0.00472 0.78571 0.0
C786 C 0.57918 0.01704 0.79764 0.0
C787 C 0.59631 0.99893 0.81372 0.0
C788 C 0.60632 0.99678 0.80001 0.0
C789 C 0.58252 0.00918 0.81264 0.0
H790 H 0.58695 0.02055 0.77269 0.0
H791 H 0.61667 0.98857 0.80072 0.0
C792 C 0.64403 0.99404 0.71703 0.0
N793 N 0.65047 0.98803 0.68428 0.0
C794 C 0.64968 0.00666 0.70688 0.0
C795 C 0.64194 0.97831 0.71059 0.0
C796 C 0.65279 0.0034 0.69034 0.0
C797 C 0.64518 0.97553 0.69399 0.0
C798 C 0.6093 0.03418 0.74717 0.0
C799 C 0.60375 0.0404 0.73216 0.0
C800 C 0.61102 0.04469 0.76061 0.0
C801 C 0.60036 0.05713 0.73074 0.0
C802 C 0.60751 0.06134 0.7587 0.0
N803 N 0.60232 0.06717 0.74393 0.0
C804 C 0.58976 0.98442 0.71832 0.0
C805 C 0.60615 0.00303 0.70316 0.0
C806 C 0.57945 0.98208 0.70481 0.0
N807 N 0.60288 0.99465 0.71723 0.0
C808 C 0.59624 0.00097 0.68931 0.0
C809 C 0.58268 0.99038 0.69003 0.0
H810 H 0.58724 0.97811 0.72972 0.0
H811 H 0.61634 0.01148 0.70274 0.0
C812 C 0.66373 0.0359 0.75664 0.0
N813 N 0.65058 0.0339 0.74654 0.0
C814 C 0.67391 0.04959 0.75498 0.0
C815 C 0.65693 0.05882 0.73243 0.0
C816 C 0.64715 0.04491 0.73447 0.0
C817 C 0.67051 0.0613 0.74277 0.0
H818 H 0.66638 0.02682 0.76595 0.0
H819 H 0.63696 0.0428 0.72626 0.0
O820 O 0.61267 0.98142 0.75423 0.0
O821 O 0.64085 0.00217 0.7698 0.0
O822 O 0.6408 0.99706 0.73324 0.0
O823 O 0.61278 0.01784 0.74875 0.0
H824 H 0.60238 0.96737 0.78167 0.0
H825 H 0.61475 0.95872 0.73108 0.0
H826 H 0.59655 0.9377 0.78488 0.0
H827 H 0.60887 0.92917 0.73519 0.0
H828 H 0.64476 0.03605 0.81396 0.0
H829 H 0.65157 0.98036 0.79139 0.0
H830 H 0.63866 0.03103 0.78454 0.0
H831 H 0.65761 0.98626 0.82066 0.0
H832 H 0.65435 0.93187 0.78029 0.0
H833 H 0.68388 0.94823 0.73938 0.0
H834 H 0.56872 0.02511 0.79629 0.0
H835 H 0.59915 0.99239 0.82496 0.0
H836 H 0.65154 0.01887 0.71168 0.0
H837 H 0.63795 0.96833 0.71834 0.0
H838 H 0.65705 0.01308 0.68231 0.0
H839 H 0.64353 0.96342 0.68883 0.0
H840 H 0.60217 0.03243 0.72168 0.0
H841 H 0.61491 0.04002 0.77241 0.0
H842 H 0.59618 0.06213 0.71916 0.0
H843 H 0.60886 0.06962 0.76899 0.0
H844 H 0.56915 0.97375 0.70586 0.0
H845 H 0.59898 0.00784 0.67826 0.0
H846 H 0.68422 0.05106 0.76325 0.0
H847 H 0.65407 0.06737 0.72265 0.0
Li848 Li 0.01599 0.25184 0.86574 0.0
Li849 Li 0.99875 0.26512 0.88642 0.0
Li850 Li 0.00322 0.23445 0.88615 0.0
Li851 Li 0.98535 0.24752 0.86562 0.0
C852 C 0.03571 0.25533 0.89181 0.0
N853 N 0.06893 0.26135 0.89487 0.0
C854 C 0.04127 0.2708 0.89665 0.0
C855 C 0.04703 0.24286 0.88877 0.0
C856 C 0.05812 0.27362 0.89808 0.0
C857 C 0.06377 0.24616 0.8903 0.0
C858 C 0.99304 0.28339 0.85768 0.0
C859 C 0.9715 0.30338 0.85433 0.0
N860 N 0.98267 0.31438 0.84863 0.0
C861 C 0.00426 0.29482 0.85156 0.0
C862 C 0.97649 0.28764 0.85889 0.0
C863 C 0.9988 0.31045 0.84714 0.0
C864 C 0.03862 0.24316 0.84096 0.0
N865 N 0.03477 0.25485 0.85218 0.0
C866 C 0.05771 0.27113 0.8439 0.0
C867 C 0.04394 0.2687 0.85375 0.0
C868 C 0.06204 0.25924 0.83222 0.0
C869 C 0.05228 0.24509 0.83083 0.0
H870 H 0.03099 0.23238 0.83977 0.0
H871 H 0.04054 0.27788 0.86267 0.0
C872 C 0.9875 0.28247 0.91415 0.0
N873 N 0.99618 0.28397 0.89999 0.0
C874 C 0.98522 0.29601 0.92436 0.0
C875 C 0.00134 0.3123 0.90554 0.0
C876 C 0.00323 0.29846 0.89565 0.0
C877 C 0.99215 0.3112 0.92007 0.0
H878 H 0.98239 0.27072 0.91755 0.0
H879 H 0.01048 0.29923 0.88461 0.0
C880 C 0.00458 0.21484 0.85961 0.0
N881 N 0.00711 0.1813 0.85558 0.0
C882 C 0.99098 0.20571 0.85451 0.0
C883 C 0.01953 0.20694 0.86243 0.0
C884 C 0.99249 0.18876 0.85259 0.0
C885 C 0.02054 0.18997 0.8604 0.0
C886 C 0.96666 0.24685 0.89482 0.0
C887 C 0.95967 0.23246 0.90102 0.0
C888 C 0.95723 0.26112 0.89397 0.0
C889 C 0.94325 0.23249 0.90587 0.0
C890 C 0.94086 0.26067 0.89896 0.0
N891 N 0.93425 0.24648 0.90473 0.0
C892 C 0.01793 0.21561 0.91125 0.0
C893 C 0.99589 0.20233 0.8977 0.0
C894 C 0.02036 0.20198 0.92135 0.0
N895 N 0.00593 0.21551 0.89965 0.0
C896 C 0.99792 0.1884 0.90747 0.0
C897 C 0.0103 0.18809 0.91951 0.0
H898 H 0.02557 0.22635 0.91276 0.0
H899 H 0.98629 0.20262 0.88855 0.0
C900 C 0.96598 0.25313 0.8375 0.0
N901 N 0.96644 0.24491 0.85202 0.0
C902 C 0.95243 0.25163 0.82709 0.0
C903 C 0.94022 0.23292 0.84658 0.0
C904 C 0.95401 0.23479 0.85661 0.0
C905 C 0.93928 0.24144 0.8316 0.0
H906 H 0.97616 0.26087 0.83399 0.0
H907 H 0.9549 0.2279 0.86789 0.0
O908 O 0.01926 0.2524 0.89015 0.0
O909 O 0.9982 0.26804 0.86212 0.0
O910 O 0.00329 0.23143 0.8617 0.0
O911 O 0.98272 0.24699 0.88997 0.0
H912 H 0.0327 0.28055 0.89921 0.0
H913 H 0.04294 0.23077 0.88522 0.0
H914 H 0.0626 0.28557 0.90171 0.0
H915 H 0.07267 0.23664 0.88788 0.0
H916 H 0.95873 0.30682 0.85525 0.0
H917 H 0.01707 0.29171 0.85032 0.0
H918 H 0.96754 0.27882 0.86308 0.0
H919 H 0.00738 0.31945 0.84251 0.0
H920 H 0.06496 0.28214 0.84553 0.0
H921 H 0.05499 0.23573 0.82181 0.0
H922 H 0.97831 0.29455 0.93561 0.0
H923 H 0.00689 0.32376 0.90177 0.0
H924 H 0.97937 0.21162 0.85212 0.0
H925 H 0.03022 0.21382 0.86618 0.0
H926 H 0.98204 0.18153 0.84874 0.0
H927 H 0.032 0.18368 0.86265 0.0
H928 H 0.96681 0.22135 0.90198 0.0
H929 H 0.96253 0.27249 0.88973 0.0
H930 H 0.93767 0.22141 0.91057 0.0
H931 H 0.93342 0.27163 0.89831 0.0
H932 H 0.02985 0.20243 0.93066 0.0
H933 H 0.98997 0.17795 0.90549 0.0
H934 H 0.9522 0.2585 0.8157 0.0
H935 H 0.93056 0.22464 0.85038 0.0
Li936 Li 0.51609 0.75265 0.36624 0.0
Li937 Li 0.49844 0.76537 0.38702 0.0
Li938 Li 0.50294 0.73473 0.3869 0.0
Li939 Li 0.48543 0.74828 0.36647 0.0
C940 C 0.53517 0.75269 0.39515 0.0
N941 N 0.56778 0.75246 0.40449 0.0
C942 C 0.54244 0.76684 0.40155 0.0
C943 C 0.54442 0.73834 0.39379 0.0
C944 C 0.55896 0.7665 0.40612 0.0
C945 C 0.56089 0.73849 0.39851 0.0
C946 C 0.49658 0.78537 0.36081 0.0
C947 C 0.48031 0.81001 0.36197 0.0
N948 N 0.49363 0.81895 0.35739 0.0
C949 C 0.51007 0.79477 0.35596 0.0
C950 C 0.48154 0.79302 0.36368 0.0
C951 C 0.50834 0.81174 0.35435 0.0
C952 C 0.53527 0.74742 0.33799 0.0
N953 N 0.53484 0.75555 0.35255 0.0
C954 C 0.56077 0.76803 0.34697 0.0
C955 C 0.54715 0.76584 0.3571 0.0
C956 C 0.56167 0.75965 0.33194 0.0
C957 C 0.54866 0.74924 0.32749 0.0
H958 H 0.52518 0.73954 0.33452 0.0
H959 H 0.54627 0.77263 0.36843 0.0
C960 C 0.48375 0.78404 0.41215 0.0
N961 N 0.49586 0.78413 0.40071 0.0
C962 C 0.48137 0.79762 0.4223 0.0
C963 C 0.50407 0.81108 0.40883 0.0
C964 C 0.50605 0.79722 0.39899 0.0
C965 C 0.49157 0.81142 0.42068 0.0
H966 H 0.47599 0.77338 0.41348 0.0
H967 H 0.51572 0.79692 0.38995 0.0
C968 C 0.50796 0.71679 0.35785 0.0
N969 N 0.51745 0.68574 0.34821 0.0
C970 C 0.49634 0.70567 0.35186 0.0
C971 C 0.52444 0.71221 0.35862 0.0
C972 C 0.50136 0.69001 0.34714 0.0
C973 C 0.52899 0.69644 0.35377 0.0
C974 C 0.46606 0.74431 0.39279 0.0
C975 C 0.4607 0.72881 0.39779 0.0
C976 C 0.45458 0.75669 0.38987 0.0
C977 C 0.44391 0.72586 0.39947 0.0
C978 C 0.4379 0.75326 0.39166 0.0
N979 N 0.43295 0.73804 0.39637 0.0
C980 C 0.51446 0.71714 0.41444 0.0
C981 C 0.49864 0.70126 0.3959 0.0
C982 C 0.5168 0.70354 0.4246 0.0
N983 N 0.50569 0.71572 0.40029 0.0
C984 C 0.50058 0.68736 0.40574 0.0
C985 C 0.50983 0.68838 0.42028 0.0
H986 H 0.51958 0.72887 0.41788 0.0
H987 H 0.49129 0.70054 0.38488 0.0
C988 C 0.46306 0.75717 0.34148 0.0
N989 N 0.46652 0.74554 0.35294 0.0
C990 C 0.44935 0.75552 0.33131 0.0
C991 C 0.44302 0.72993 0.34489 0.0
C992 C 0.4569 0.73203 0.35472 0.0
C993 C 0.43911 0.74176 0.33296 0.0
H994 H 0.471 0.7677 0.34017 0.0
H995 H 0.46007 0.72282 0.36373 0.0
O996 O 0.519 0.75284 0.39057 0.0
O997 O 0.49809 0.76875 0.36262 0.0
O998 O 0.50322 0.73219 0.36255 0.0
O999 O 0.48245 0.74736 0.39089 0.0
H1000 H 0.53544 0.77799 0.4029 0.0
H1001 H 0.53889 0.72715 0.38937 0.0
H1002 H 0.56477 0.77741 0.41097 0.0
H1003 H 0.56819 0.72747 0.39748 0.0
H1004 H 0.46876 0.8161 0.36426 0.0
H1005 H 0.52176 0.78906 0.35353 0.0
H1006 H 0.47093 0.78592 0.36722 0.0
H1007 H 0.51871 0.81917 0.3507 0.0
H1008 H 0.57032 0.77647 0.35074 0.0
H1009 H 0.54887 0.74245 0.31607 0.0
H1010 H 0.47178 0.79719 0.43146 0.0
H1011 H 0.51214 0.82148 0.40702 0.0
H1012 H 0.48356 0.70905 0.35096 0.0
H1013 H 0.53368 0.72078 0.3627 0.0
H1014 H 0.49248 0.68124 0.34262 0.0
H1015 H 0.54171 0.69273 0.35435 0.0
H1016 H 0.4694 0.71913 0.40027 0.0
H1017 H 0.45851 0.7688 0.38621 0.0
H1018 H 0.43959 0.71389 0.40323 0.0
H1019 H 0.42888 0.7627 0.38933 0.0
H1020 H 0.52375 0.70495 0.43586 0.0
H1021 H 0.49501 0.67592 0.40194 0.0
H1022 H 0.44672 0.76498 0.32234 0.0
H1023 H 0.4356 0.71901 0.3464 0.0
Li1024 Li 0.00289 0.76567 0.61551 0.0
Li1025 Li 0.98525 0.75272 0.63621 0.0
Li1026 Li 0.01589 0.74832 0.63583 0.0
Li1027 Li 0.99826 0.73504 0.61533 0.0
C1028 C 0.00476 0.78537 0.64188 0.0
N1029 N 0.00759 0.81893 0.64556 0.0
C1030 C 0.99128 0.79462 0.64693 0.0
C1031 C 0.01975 0.79315 0.63894 0.0
C1032 C 0.99294 0.81158 0.64867 0.0
C1033 C 0.02091 0.81014 0.64079 0.0
C1034 C 0.96615 0.75317 0.60718 0.0
C1035 C 0.94038 0.7391 0.60345 0.0
N1036 N 0.93362 0.75317 0.59756 0.0
C1037 C 0.95901 0.76743 0.60087 0.0
C1038 C 0.95681 0.73884 0.6083 0.0
C1039 C 0.94253 0.76721 0.59616 0.0
C1040 C 0.01763 0.78452 0.59052 0.0
N1041 N 0.00554 0.78457 0.60198 0.0
C1042 C 0.99755 0.81166 0.59409 0.0
C1043 C 0.99546 0.79771 0.60382 0.0
C1044 C 0.01005 0.81204 0.58224 0.0
C1045 C 0.02012 0.79818 0.58049 0.0
H1046 H 0.02529 0.77382 0.5891 0.0
H1047 H 0.98581 0.79738 0.61287 0.0
C1048 C 0.96606 0.74723 0.66445 0.0
N1049 N 0.9665 0.75544 0.64991 0.0
C1050 C 0.95259 0.74883 0.67488 0.0
C1051 C 0.94043 0.7676 0.65538 0.0
C1052 C 0.95413 0.76564 0.64534 0.0
C1053 C 0.9395 0.7591 0.67037 0.0
H1054 H 0.97619 0.73942 0.66794 0.0
H1055 H 0.95501 0.7725 0.63404 0.0
C1056 C 0.03515 0.74461 0.60945 0.0
N1057 N 0.06822 0.73829 0.60578 0.0
C1058 C 0.04042 0.72915 0.6043 0.0
C1059 C 0.04669 0.75692 0.61249 0.0
C1060 C 0.05719 0.72618 0.60258 0.0
C1061 C 0.06336 0.75347 0.61064 0.0
C1062 C 0.9931 0.71681 0.64425 0.0
C1063 C 0.00453 0.70551 0.65023 0.0
C1064 C 0.97655 0.71241 0.64336 0.0
C1065 C 0.99927 0.68986 0.65483 0.0
C1066 C 0.97177 0.69665 0.64809 0.0
N1067 N 0.98314 0.68578 0.65365 0.0
C1068 C 0.03886 0.75701 0.6604 0.0
C1069 C 0.0442 0.73167 0.64728 0.0
C1070 C 0.05279 0.75521 0.67025 0.0
N1071 N 0.03491 0.74536 0.64915 0.0
C1072 C 0.05826 0.72939 0.65682 0.0
C1073 C 0.06272 0.74125 0.66852 0.0
H1074 H 0.03113 0.76767 0.66182 0.0
H1075 H 0.04072 0.72252 0.63835 0.0
C1076 C 0.98671 0.71783 0.58759 0.0
N1077 N 0.99541 0.7162 0.60177 0.0
C1078 C 0.98428 0.70435 0.57731 0.0
C1079 C 0.00025 0.68786 0.59612 0.0
C1080 C 0.00229 0.70164 0.60607 0.0
C1081 C 0.99107 0.6891 0.58155 0.0
H1082 H 0.98172 0.72964 0.58422 0.0
H1083 H 0.00958 0.70076 0.61712 0.0
O1084 O 0.00332 0.76876 0.63995 0.0
O1085 O 0.98228 0.75321 0.6119 0.0
O1086 O 0.01877 0.74769 0.61139 0.0
O1087 O 0.99806 0.73218 0.63966 0.0
H1088 H 0.97964 0.7888 0.64941 0.0
H1089 H 0.03035 0.78617 0.63522 0.0
H1090 H 0.98257 0.81891 0.65247 0.0
H1091 H 0.03241 0.81633 0.63844 0.0
H1092 H 0.93301 0.7281 0.60429 0.0
H1093 H 0.96608 0.77858 0.5997 0.0
H1094 H 0.96224 0.72757 0.61264 0.0
H1095 H 0.93683 0.77819 0.59137 0.0
H1096 H 0.98958 0.82209 0.59598 0.0
H1097 H 0.0297 0.79779 0.57131 0.0
H1098 H 0.95236 0.74198 0.68628 0.0
H1099 H 0.93081 0.77594 0.65159 0.0
H1100 H 0.03167 0.71953 0.60174 0.0
H1101 H 0.04283 0.769 0.61628 0.0
H1102 H 0.06145 0.71424 0.5987 0.0
H1103 H 0.07242 0.76285 0.61307 0.0
H1104 H 0.01734 0.70875 0.65123 0.0
H1105 H 0.96746 0.72112 0.63928 0.0
H1106 H 0.00802 0.68097 0.65936 0.0
H1107 H 0.95901 0.69309 0.64741 0.0
H1108 H 0.05557 0.76452 0.67931 0.0
H1109 H 0.06563 0.71853 0.65491 0.0
H1110 H 0.97739 0.70592 0.56604 0.0
H1111 H 0.00568 0.67633 0.59986 0.0
Li1112 Li 0.50118 0.26595 0.11422 0.0
Li1113 Li 0.48474 0.25196 0.13503 0.0
Li1114 Li 0.51536 0.24795 0.13441 0.0
Li1115 Li 0.49696 0.23535 0.11389 0.0
C1116 C 0.50891 0.28271 0.14411 0.0
N1117 N 0.52196 0.31181 0.15562 0.0
C1118 C 0.49877 0.29437 0.15149 0.0
C1119 C 0.52573 0.28574 0.14285 0.0
C1120 C 0.50558 0.30904 0.15715 0.0
C1121 C 0.53208 0.30055 0.14867 0.0
C1122 C 0.46427 0.25641 0.11009 0.0
C1123 C 0.43617 0.2477 0.11312 0.0
N1124 N 0.43108 0.26311 0.10928 0.0
C1125 C 0.45877 0.27213 0.10605 0.0
C1126 C 0.4529 0.24405 0.11352 0.0
C1127 C 0.44194 0.27528 0.10574 0.0
C1128 C 0.5096 0.28321 0.08555 0.0
N1129 N 0.50325 0.28504 0.10086 0.0
C1130 C 0.50029 0.3139 0.09666 0.0
C1131 C 0.49834 0.29995 0.10643 0.0
C1132 C 0.50735 0.31245 0.08101 0.0
C1133 C 0.51193 0.29683 0.07544 0.0
H1134 H 0.51298 0.27115 0.08124 0.0
H1135 H 0.49286 0.30103 0.11843 0.0
C1136 C 0.46208 0.2422 0.15949 0.0
N1137 N 0.46633 0.25457 0.14913 0.0
C1138 C 0.44848 0.24383 0.16976 0.0
C1139 C 0.44393 0.2709 0.15853 0.0
C1140 C 0.45769 0.2688 0.1486 0.0
C1141 C 0.43917 0.25831 0.1693 0.0
H1142 H 0.46924 0.23107 0.15978 0.0
H1143 H 0.46147 0.27852 0.1404 0.0
C1144 C 0.53241 0.24961 0.10293 0.0
N1145 N 0.5629 0.25262 0.08846 0.0
C1146 C 0.53949 0.23623 0.09493 0.0
C1147 C 0.5408 0.26457 0.10343 0.0
C1148 C 0.55493 0.23798 0.08774 0.0
C1149 C 0.5562 0.26583 0.09608 0.0
C1150 C 0.49727 0.21489 0.13956 0.0
C1151 C 0.51157 0.20631 0.14353 0.0
C1152 C 0.48265 0.2063 0.13696 0.0
C1153 C 0.51104 0.18923 0.14465 0.0
C1154 C 0.48264 0.18922 0.13816 0.0
N1155 N 0.49671 0.1811 0.14194 0.0
C1156 C 0.53181 0.24501 0.1644 0.0
C1157 C 0.54954 0.24257 0.14155 0.0
C1158 C 0.54491 0.24264 0.17523 0.0
N1159 N 0.53432 0.24492 0.1479 0.0
C1160 C 0.56301 0.24039 0.15191 0.0
C1161 C 0.56082 0.2403 0.16904 0.0
H1162 H 0.51955 0.24677 0.16912 0.0
H1163 H 0.55135 0.24234 0.12847 0.0
C1164 C 0.48128 0.21636 0.08945 0.0
N1165 N 0.49419 0.21673 0.10002 0.0
C1166 C 0.47882 0.20282 0.07925 0.0
C1167 C 0.50304 0.19033 0.09094 0.0
C1168 C 0.5051 0.20416 0.10082 0.0
C1169 C 0.48974 0.18951 0.07995 0.0
H1170 H 0.47294 0.22662 0.08887 0.0
H1171 H 0.51538 0.20484 0.10918 0.0
O1172 O 0.50241 0.26826 0.13857 0.0
O1173 O 0.48071 0.25315 0.1107 0.0
O1174 O 0.5173 0.24806 0.11006 0.0
O1175 O 0.49758 0.23161 0.13826 0.0
H1176 H 0.48576 0.29215 0.15275 0.0
H1177 H 0.53384 0.27673 0.13758 0.0
H1178 H 0.49786 0.31822 0.16277 0.0
H1179 H 0.54507 0.30307 0.14773 0.0
H1180 H 0.42723 0.23828 0.11587 0.0
H1181 H 0.46741 0.28181 0.10329 0.0
H1182 H 0.45695 0.23181 0.11661 0.0
H1183 H 0.43751 0.28741 0.10272 0.0
H1184 H 0.49656 0.32573 0.10139 0.0
H1185 H 0.51713 0.29515 0.06333 0.0
H1186 H 0.44517 0.2338 0.17783 0.0
H1187 H 0.43722 0.28234 0.15796 0.0
H1188 H 0.53317 0.2246 0.09431 0.0
H1189 H 0.53544 0.27514 0.10931 0.0
H1190 H 0.56057 0.2277 0.08156 0.0
H1191 H 0.56282 0.27733 0.09639 0.0
H1192 H 0.52299 0.21276 0.14558 0.0
H1193 H 0.47147 0.21275 0.13393 0.0
H1194 H 0.52203 0.18242 0.14762 0.0
H1195 H 0.47144 0.18241 0.13607 0.0
H1196 H 0.54251 0.2424 0.1883 0.0
H1197 H 0.57502 0.23892 0.14649 0.0
H1198 H 0.46858 0.20291 0.07076 0.0
H1199 H 0.51168 0.18032 0.09207 0.0
C1200 C 0.22155 0.72926 0.8295 0.0
C1201 C 0.21958 0.73593 0.81371 0.0
C1202 C 0.22344 0.73949 0.84312 0.0
C1203 C 0.21733 0.78252 0.85689 0.0
H1204 H 0.24686 0.76949 0.89194 0.0
C1205 C 0.23738 0.82601 0.90937 0.0
C1206 C 0.23689 0.81953 0.92539 0.0
C1207 C 0.23502 0.81586 0.89574 0.0
C1208 C 0.23848 0.77322 0.8823 0.0
H1209 H 0.21826 0.7585 0.79973 0.0
H1210 H 0.22196 0.77641 0.82343 0.0
H1211 H 0.24344 0.75179 0.86807 0.0
H1212 H 0.23321 0.79724 0.93954 0.0
H1213 H 0.22953 0.77953 0.91572 0.0
H1214 H 0.2127 0.80414 0.87106 0.0
C1215 C 0.22163 0.76329 0.8254 0.0
C1216 C 0.23646 0.76306 0.86863 0.0
C1217 C 0.21957 0.75304 0.8118 0.0
C1218 C 0.234 0.80263 0.92741 0.0
C1219 C 0.23182 0.79247 0.91377 0.0
C1220 C 0.21949 0.79275 0.87048 0.0
C1221 C 0.22358 0.75665 0.84125 0.0
C1222 C 0.22581 0.76754 0.85576 0.0
C1223 C 0.2323 0.79898 0.8978 0.0
C1224 C 0.23005 0.78818 0.88334 0.0
H1225 H 0.22138 0.7161 0.83134 0.0
H1226 H 0.22457 0.73392 0.85515 0.0
H1227 H 0.20881 0.78626 0.84738 0.0
H1228 H 0.23987 0.83888 0.9073 0.0
H1229 H 0.23564 0.82118 0.88356 0.0
C1230 C 0.9946 0.54453 0.42844 0.0
C1231 C 0.98761 0.53121 0.43692 0.0
C1232 C 0.00526 0.54191 0.41529 0.0
C1233 C 0.01558 0.51222 0.38347 0.0
H1234 H 0.05696 0.53555 0.38112 0.0
C1235 C 0.0633 0.49807 0.33319 0.0
C1236 C 0.07244 0.51121 0.32683 0.0
C1237 C 0.05317 0.50031 0.34682 0.0
C1238 C 0.04535 0.5291 0.38142 0.0
H1239 H 0.98665 0.50463 0.43827 0.0
H1240 H 0.00488 0.50012 0.41499 0.0
H1241 H 0.03881 0.53997 0.40444 0.0
H1242 H 0.07791 0.53706 0.32946 0.0
H1243 H 0.05988 0.54116 0.35293 0.0
H1244 H 0.02179 0.50167 0.36029 0.0
C1245 C 0.00204 0.51259 0.41858 0.0
C1246 C 0.035 0.5316 0.39484 0.0
C1247 C 0.99155 0.5152 0.43187 0.0
C1248 C 0.07116 0.52667 0.33427 0.0
C1249 C 0.06087 0.52898 0.34776 0.0
C1250 C 0.02583 0.50987 0.36994 0.0
C1251 C 0.009 0.52592 0.41017 0.0
C1252 C 0.02003 0.52317 0.396 0.0
C1253 C 0.05177 0.51582 0.35428 0.0
C1254 C 0.04087 0.51827 0.36873 0.0
H1255 H 0.99163 0.55703 0.43174 0.0
H1256 H 0.01031 0.55241 0.40889 0.0
H1257 H 0.00401 0.50571 0.38397 0.0
H1258 H 0.06421 0.48597 0.32779 0.0
H1259 H 0.04661 0.48982 0.35165 0.0
C1260 C 0.7949 0.75909 0.82502 0.0
C1261 C 0.78167 0.76332 0.81478 0.0
C1262 C 0.79254 0.74878 0.83852 0.0
C1263 C 0.76008 0.73248 0.86597 0.0
H1264 H 0.79349 0.70067 0.87752 0.0
C1265 C 0.75005 0.68209 0.91494 0.0
C1266 C 0.76283 0.67971 0.92634 0.0
C1267 C 0.7523 0.69216 0.90122 0.0
C1268 C 0.78411 0.70958 0.87451 0.0
H1269 H 0.75567 0.75985 0.81047 0.0
H1270 H 0.75157 0.7416 0.83386 0.0
H1271 H 0.79743 0.71832 0.85367 0.0
H1272 H 0.78797 0.68627 0.93224 0.0
H1273 H 0.79194 0.70357 0.90814 0.0
H1274 H 0.74669 0.72352 0.88673 0.0
C1275 C 0.76371 0.74654 0.83171 0.0
C1276 C 0.78638 0.71974 0.86087 0.0
C1277 C 0.76605 0.75696 0.81828 0.0
C1278 C 0.77795 0.68757 0.92359 0.0
C1279 C 0.78023 0.69753 0.9098 0.0
C1280 C 0.75777 0.72223 0.87953 0.0
C1281 C 0.77692 0.74234 0.84204 0.0
C1282 C 0.77442 0.73137 0.85645 0.0
C1283 C 0.76741 0.69997 0.89851 0.0
C1284 C 0.76978 0.71071 0.88398 0.0
H1285 H 0.80703 0.764 0.82274 0.0
H1286 H 0.80294 0.74607 0.84636 0.0
H1287 H 0.75074 0.74148 0.86312 0.0
H1288 H 0.73835 0.67601 0.91648 0.0
H1289 H 0.74227 0.69365 0.89261 0.0
C1290 C 0.0108 0.98508 0.43223 0.0
C1291 C 0.01602 0.96931 0.43685 0.0
C1292 C 0.00065 0.98728 0.41855 0.0
C1293 C 0.97157 0.96537 0.39157 0.0
H1294 H 0.98029 0.00113 0.3614 0.0
C1295 C 0.93783 0.97158 0.32943 0.0
C1296 C 0.933 0.98741 0.3246 0.0
C1297 C 0.94804 0.96934 0.34306 0.0
C1298 C 0.97757 0.9912 0.3698 0.0
H1299 H 0.01484 0.94351 0.43053 0.0
H1300 H 0.99706 0.94734 0.40673 0.0
H1301 H 0.99782 0.99735 0.3854 0.0
H1302 H 0.93491 0.01327 0.33045 0.0
H1303 H 0.95265 0.00936 0.35425 0.0
H1304 H 0.95128 0.95925 0.37602 0.0
C1305 C 0.00064 0.95799 0.41383 0.0
C1306 C 0.98762 0.98903 0.38355 0.0
C1307 C 0.01082 0.95579 0.42748 0.0
C1308 C 0.93862 0.00094 0.33369 0.0
C1309 C 0.9488 0.9987 0.34734 0.0
C1310 C 0.96149 0.96756 0.37783 0.0
C1311 C 0.99546 0.97376 0.40919 0.0
C1312 C 0.98474 0.97609 0.3946 0.0
C1313 C 0.95362 0.98287 0.3522 0.0
C1314 C 0.96438 0.9805 0.36678 0.0
H1315 H 0.0144 0.99573 0.43932 0.0
H1316 H 0.99668 0.99957 0.41544 0.0
H1317 H 0.96888 0.95543 0.39997 0.0
H1318 H 0.9339 0.96092 0.32253 0.0
H1319 H 0.95173 0.957 0.34631 0.0
C1320 C 0.22738 0.26844 0.67475 0.0
C1321 C 0.22242 0.2625 0.69018 0.0
C1322 C 0.23012 0.25767 0.66172 0.0
C1323 C 0.21957 0.21633 0.64689 0.0
H1324 H 0.25615 0.22344 0.61736 0.0
C1325 C 0.22512 0.18329 0.58449 0.0
C1326 C 0.24075 0.17782 0.57972 0.0
C1327 C 0.22321 0.19306 0.59843 0.0
C1328 C 0.24596 0.2212 0.62557 0.0
H1329 H 0.21675 0.24053 0.70409 0.0
H1330 H 0.22151 0.2217 0.6813 0.0
H1331 H 0.25258 0.24136 0.64104 0.0
H1332 H 0.26658 0.17808 0.58611 0.0
H1333 H 0.26325 0.1952 0.61042 0.0
H1334 H 0.21304 0.19607 0.6315 0.0
C1335 C 0.22307 0.23473 0.67925 0.0
C1336 C 0.24381 0.23157 0.63904 0.0
C1337 C 0.22034 0.24552 0.69229 0.0
C1338 C 0.25441 0.1823 0.58929 0.0
C1339 C 0.2525 0.19209 0.60323 0.0
C1340 C 0.2217 0.20597 0.6334 0.0
C1341 C 0.22796 0.24069 0.6638 0.0
C1342 C 0.23054 0.22932 0.6498 0.0
C1343 C 0.23688 0.19763 0.60793 0.0
C1344 C 0.23487 0.20834 0.62254 0.0
H1345 H 0.22882 0.28147 0.67262 0.0
H1346 H 0.23361 0.26268 0.64991 0.0
H1347 H 0.20914 0.21435 0.65487 0.0
H1348 H 0.21437 0.18028 0.57725 0.0
H1349 H 0.21105 0.19734 0.60157 0.0
C1350 C 0.49672 0.52866 0.5613 0.0
C1351 C 0.51378 0.52895 0.56359 0.0
C1352 C 0.48624 0.52609 0.57462 0.0
C1353 C 0.48599 0.511 0.61787 0.0
H1354 H 0.44457 0.53423 0.61977 0.0
C1355 C 0.44667 0.51527 0.67665 0.0
C1356 C 0.42986 0.51194 0.67483 0.0
C1357 C 0.45671 0.5169 0.66286 0.0
C1358 C 0.45604 0.52757 0.61932 0.0
H1359 H 0.53329 0.52711 0.58159 0.0
H1360 H 0.51508 0.52311 0.60492 0.0
H1361 H 0.46253 0.53807 0.59616 0.0
H1362 H 0.41031 0.5079 0.65723 0.0
H1363 H 0.42787 0.51098 0.63304 0.0
H1364 H 0.47961 0.50091 0.64132 0.0
C1365 C 0.50971 0.52435 0.5928 0.0
C1366 C 0.46633 0.5297 0.60577 0.0
C1367 C 0.52017 0.52671 0.57945 0.0
C1368 C 0.42326 0.51037 0.65896 0.0
C1369 C 0.43325 0.51224 0.64515 0.0
C1370 C 0.4758 0.50905 0.63151 0.0
C1371 C 0.49259 0.52395 0.59058 0.0
C1372 C 0.48146 0.52147 0.60487 0.0
C1373 C 0.45009 0.51545 0.64698 0.0
C1374 C 0.46075 0.51733 0.63238 0.0
H1375 H 0.49149 0.53021 0.54915 0.0
H1376 H 0.47316 0.52558 0.57236 0.0
H1377 H 0.49736 0.50418 0.61749 0.0
H1378 H 0.4521 0.51642 0.68875 0.0
H1379 H 0.46963 0.51949 0.6646 0.0
C1380 C 0.78209 0.25387 0.68916 0.0
C1381 C 0.78028 0.23681 0.68747 0.0
C1382 C 0.77964 0.26428 0.67573 0.0
C1383 C 0.75988 0.26613 0.63486 0.0
H1384 H 0.78976 0.30245 0.62769 0.0
C1385 C 0.75993 0.30385 0.57482 0.0
C1386 C 0.76197 0.32092 0.57614 0.0
C1387 C 0.76194 0.29374 0.58855 0.0
C1388 C 0.78119 0.29248 0.62962 0.0
H1389 H 0.77469 0.2173 0.67026 0.0
H1390 H 0.77042 0.23545 0.64683 0.0
H1391 H 0.79365 0.28455 0.65138 0.0
H1392 H 0.76745 0.34076 0.59301 0.0
H1393 H 0.77096 0.32311 0.61696 0.0
H1394 H 0.74743 0.27404 0.61308 0.0
C1395 C 0.77348 0.2408 0.65861 0.0
C1396 C 0.78342 0.28222 0.6432 0.0
C1397 C 0.77593 0.2304 0.67204 0.0
C1398 C 0.76604 0.32764 0.59152 0.0
C1399 C 0.76805 0.31752 0.60525 0.0
C1400 C 0.75764 0.27639 0.62128 0.0
C1401 C 0.77532 0.25786 0.66029 0.0
C1402 C 0.77282 0.2689 0.64596 0.0
C1403 C 0.76604 0.30045 0.60392 0.0
C1404 C 0.76829 0.28967 0.61848 0.0
H1405 H 0.7852 0.25921 0.70094 0.0
H1406 H 0.78091 0.27737 0.67749 0.0
H1407 H 0.75133 0.25614 0.63677 0.0
H1408 H 0.75706 0.29826 0.56311 0.0
H1409 H 0.76057 0.28062 0.58704 0.0
C1410 C 0.50431 0.96893 0.56262 0.0
C1411 C 0.48723 0.97009 0.56453 0.0
C1412 C 0.51478 0.97136 0.57602 0.0
C1413 C 0.51608 0.98944 0.61781 0.0
H1414 H 0.55453 0.96193 0.62286 0.0
C1415 C 0.55472 0.98797 0.67732 0.0
C1416 C 0.57186 0.98814 0.67552 0.0
C1417 C 0.54453 0.98597 0.66365 0.0
C1418 C 0.54392 0.96981 0.62153 0.0
H1419 H 0.46772 0.97445 0.58201 0.0
H1420 H 0.48593 0.97848 0.60543 0.0
H1421 H 0.53646 0.95802 0.59927 0.0
H1422 H 0.59174 0.98614 0.65801 0.0
H1423 H 0.57391 0.98269 0.6341 0.0
H1424 H 0.52347 0.00106 0.64021 0.0
C1425 C 0.49129 0.97605 0.59353 0.0
C1426 C 0.53358 0.9676 0.60799 0.0
C1427 C 0.48084 0.97371 0.58011 0.0
C1428 C 0.57858 0.9862 0.65976 0.0
C1429 C 0.56838 0.98407 0.64611 0.0
C1430 C 0.52637 0.99158 0.63139 0.0
C1431 C 0.5084 0.97493 0.59165 0.0
C1432 C 0.51951 0.97738 0.60597 0.0
C1433 C 0.55124 0.98397 0.6479 0.0
C1434 C 0.54039 0.98178 0.6334 0.0
H1435 H 0.50959 0.96635 0.55071 0.0
H1436 H 0.52789 0.97066 0.57407 0.0
H1437 H 0.50553 0.99738 0.6165 0.0
H1438 H 0.54918 0.98959 0.68928 0.0
H1439 H 0.53137 0.9858 0.66544 0.0
C1440 C 0.82282 0.2072 0.74229 0.0
C1441 C 0.81326 0.22053 0.73698 0.0
C1442 C 0.83637 0.20969 0.75252 0.0
C1443 C 0.85453 0.23938 0.78157 0.0
H1444 H 0.89442 0.21484 0.77357 0.0
C1445 C 0.90887 0.23884 0.82728 0.0
C1446 C 0.92478 0.23953 0.82068 0.0
C1447 C 0.89525 0.23683 0.81702 0.0
C1448 C 0.88342 0.22189 0.7759 0.0
H1449 H 0.81032 0.24691 0.73842 0.0
H1450 H 0.83415 0.25129 0.75607 0.0
H1451 H 0.87077 0.21093 0.75564 0.0
H1452 H 0.93882 0.23855 0.79811 0.0
H1453 H 0.91504 0.23535 0.7802 0.0
H1454 H 0.86729 0.25054 0.80167 0.0
C1455 C 0.83107 0.23889 0.75243 0.0
C1456 C 0.8698 0.2195 0.76573 0.0
C1457 C 0.81753 0.2364 0.74218 0.0
C1458 C 0.92673 0.23823 0.80358 0.0
C1459 C 0.91311 0.2362 0.79333 0.0
C1460 C 0.86816 0.24176 0.79175 0.0
C1461 C 0.84068 0.22557 0.75769 0.0
C1462 C 0.85519 0.2282 0.76846 0.0
C1463 C 0.89722 0.23543 0.79993 0.0
C1464 C 0.88276 0.23302 0.78904 0.0
H1465 H 0.81998 0.19484 0.73836 0.0
H1466 H 0.8434 0.19915 0.75649 0.0
H1467 H 0.84342 0.24617 0.7841 0.0
H1468 H 0.90693 0.23996 0.84038 0.0
H1469 H 0.88319 0.23612 0.82252 0.0
C1470 C 0.45703 0.9278 0.50967 0.0
C1471 C 0.47047 0.93706 0.51529 0.0
C1472 C 0.4594 0.91435 0.49934 0.0
C1473 C 0.48954 0.89579 0.47094 0.0
H1474 H 0.46332 0.85663 0.47743 0.0
C1475 C 0.50282 0.83468 0.43757 0.0
C1476 C 0.48923 0.82603 0.43135 0.0
C1477 C 0.5006 0.84833 0.44769 0.0
C1478 C 0.47063 0.86753 0.47536 0.0
H1479 H 0.49693 0.93951 0.51429 0.0
H1480 H 0.5011 0.91578 0.49663 0.0
H1481 H 0.45941 0.88017 0.49539 0.0
H1482 H 0.46264 0.8252 0.43065 0.0
H1483 H 0.4588 0.84891 0.44843 0.0
H1484 H 0.50085 0.88304 0.45098 0.0
C1485 C 0.4887 0.91905 0.50003 0.0
C1486 C 0.46837 0.88104 0.48564 0.0
C1487 C 0.48633 0.93254 0.51032 0.0
C1488 C 0.47338 0.83139 0.43546 0.0
C1489 C 0.47117 0.84499 0.44563 0.0
C1490 C 0.49184 0.88224 0.4607 0.0
C1491 C 0.47527 0.90978 0.49442 0.0
C1492 C 0.47777 0.89536 0.48353 0.0
C1493 C 0.48475 0.8536 0.45187 0.0
C1494 C 0.48238 0.86798 0.46278 0.0
H1495 H 0.44466 0.93082 0.5134 0.0
H1496 H 0.44876 0.90761 0.4951 0.0
H1497 H 0.49681 0.9067 0.4688 0.0
H1498 H 0.5152 0.83075 0.43487 0.0
H1499 H 0.51131 0.85458 0.45248 0.0
C1500 C 0.18379 0.265 0.74367 0.0
C1501 C 0.18744 0.28063 0.73737 0.0
C1502 C 0.17025 0.26265 0.75389 0.0
C1503 C 0.13058 0.28101 0.76541 0.0
H1504 H 0.1348 0.2535 0.80407 0.0
C1505 C 0.08 0.27719 0.81474 0.0
C1506 C 0.07652 0.26167 0.82142 0.0
C1507 C 0.09354 0.27946 0.8045 0.0
C1508 C 0.13336 0.26106 0.79322 0.0
H1509 H 0.17958 0.30602 0.73668 0.0
H1510 H 0.15606 0.30196 0.75471 0.0
H1511 H 0.15836 0.25751 0.78611 0.0
H1512 H 0.08471 0.2364 0.8227 0.0
H1513 H 0.10814 0.2403 0.80456 0.0
H1514 H 0.10558 0.28453 0.77248 0.0
C1515 C 0.16362 0.29149 0.75165 0.0
C1516 C 0.14686 0.26336 0.78293 0.0
C1517 C 0.17719 0.29385 0.74147 0.0
C1518 C 0.08693 0.24848 0.81763 0.0
C1519 C 0.10048 0.25076 0.80738 0.0
C1520 C 0.11707 0.27868 0.77568 0.0
C1521 C 0.16001 0.27587 0.75801 0.0
C1522 C 0.14563 0.27338 0.76892 0.0
C1523 C 0.10393 0.26627 0.80068 0.0
C1524 C 0.1183 0.2687 0.78972 0.0
H1525 H 0.19152 0.25459 0.74084 0.0
H1526 H 0.1677 0.25043 0.75845 0.0
H1527 H 0.12916 0.28859 0.75457 0.0
H1528 H 0.07213 0.28757 0.81725 0.0
H1529 H 0.09594 0.29161 0.79969 0.0
C1530 C 0.51481 0.56594 0.50851 0.0
C1531 C 0.53051 0.56228 0.51465 0.0
C1532 C 0.5124 0.57946 0.4982 0.0
C1533 C 0.53069 0.61918 0.48681 0.0
H1534 H 0.50348 0.61527 0.44788 0.0
C1535 C 0.52744 0.67039 0.43803 0.0
C1536 C 0.51208 0.67378 0.43097 0.0
C1537 C 0.52957 0.65671 0.44816 0.0
C1538 C 0.51095 0.61663 0.45881 0.0
H1539 H 0.55595 0.57003 0.51494 0.0
H1540 H 0.55178 0.59352 0.49686 0.0
H1541 H 0.5073 0.59156 0.46579 0.0
H1542 H 0.48684 0.66559 0.42916 0.0
H1543 H 0.49049 0.6418 0.44695 0.0
H1544 H 0.53427 0.64424 0.47996 0.0
C1545 C 0.54132 0.58599 0.50006 0.0
C1546 C 0.51315 0.60304 0.46906 0.0
C1547 C 0.54374 0.57243 0.51028 0.0
C1548 C 0.49889 0.66318 0.43424 0.0
C1549 C 0.50099 0.64953 0.44442 0.0
C1550 C 0.52844 0.63278 0.47661 0.0
C1551 C 0.52563 0.58967 0.49392 0.0
C1552 C 0.52309 0.60415 0.48313 0.0
C1553 C 0.51635 0.64614 0.45153 0.0
C1554 C 0.5186 0.63167 0.46245 0.0
H1555 H 0.5044 0.55827 0.51156 0.0
H1556 H 0.50014 0.58205 0.49377 0.0
H1557 H 0.53821 0.62049 0.49771 0.0
H1558 H 0.53791 0.67819 0.43555 0.0
H1559 H 0.54163 0.65431 0.45319 0.0
C1560 C 0.8185 0.76411 0.76008 0.0
C1561 C 0.81417 0.77995 0.76527 0.0
C1562 C 0.83195 0.76172 0.74976 0.0
C1563 C 0.87043 0.78135 0.73622 0.0
H1564 H 0.86771 0.75018 0.70039 0.0
C1565 C 0.92712 0.76246 0.6984 0.0
C1566 C 0.92507 0.76111 0.6813 0.0
C1567 C 0.91357 0.76457 0.70865 0.0
C1568 C 0.86864 0.759 0.71028 0.0
H1569 H 0.82067 0.8057 0.76377 0.0
H1570 H 0.84397 0.80156 0.74553 0.0
H1571 H 0.84397 0.75451 0.71801 0.0
H1572 H 0.90712 0.76066 0.66161 0.0
H1573 H 0.8835 0.76462 0.67947 0.0
H1574 H 0.895 0.78607 0.72832 0.0
C1575 C 0.83705 0.79096 0.74957 0.0
C1576 C 0.85509 0.76135 0.72049 0.0
C1577 C 0.82358 0.79336 0.75986 0.0
C1578 C 0.90914 0.76183 0.67471 0.0
C1579 C 0.89558 0.76391 0.68496 0.0
C1580 C 0.88399 0.77898 0.72604 0.0
C1581 C 0.84141 0.77512 0.74441 0.0
C1582 C 0.85582 0.77257 0.73357 0.0
C1583 C 0.89764 0.76535 0.70205 0.0
C1584 C 0.88325 0.76779 0.71294 0.0
H1585 H 0.8114 0.75354 0.7639 0.0
H1586 H 0.83508 0.74934 0.74614 0.0
H1587 H 0.87146 0.78996 0.7463 0.0
H1588 H 0.93924 0.76212 0.70386 0.0
H1589 H 0.91557 0.76547 0.72177 0.0
C1590 C 0.04562 0.92811 0.49291 0.0
C1591 C 0.03223 0.93726 0.48702 0.0
C1592 C 0.04316 0.9148 0.50343 0.0
C1593 C 0.01282 0.89648 0.53184 0.0
H1594 H 0.03886 0.85721 0.52577 0.0
C1595 C 0.99902 0.83549 0.56545 0.0
C1596 C 0.01252 0.82673 0.57169 0.0
C1597 C 0.00137 0.84916 0.55536 0.0
C1598 C 0.03161 0.86815 0.52773 0.0
H1599 H 0.00576 0.9397 0.4878 0.0
H1600 H 0.00144 0.9162 0.50581 0.0
H1601 H 0.043 0.88065 0.50766 0.0
H1602 H 0.0391 0.82577 0.57248 0.0
H1603 H 0.04318 0.84952 0.55476 0.0
H1604 H 0.00134 0.88386 0.55184 0.0
C1605 C 0.01387 0.91945 0.50245 0.0
C1606 C 0.03399 0.88159 0.51737 0.0
C1607 C 0.01633 0.9328 0.49195 0.0
C1608 C 0.02843 0.83204 0.56765 0.0
C1609 C 0.03077 0.84567 0.55752 0.0
C1610 C 0.0104 0.88299 0.54217 0.0
C1611 C 0.02725 0.91026 0.50829 0.0
C1612 C 0.02465 0.89594 0.51931 0.0
C1613 C 0.01727 0.85435 0.55122 0.0
C1614 C 0.01979 0.86869 0.54025 0.0
H1615 H 0.05802 0.9311 0.48922 0.0
H1616 H 0.05376 0.90812 0.50785 0.0
H1617 H 0.00558 0.90741 0.53384 0.0
H1618 H 0.98661 0.8316 0.5681 0.0
H1619 H 0.99072 0.85547 0.55053 0.0
C1620 C 0.17958 0.70684 0.7573 0.0
C1621 C 0.18918 0.72018 0.76252 0.0
C1622 C 0.16619 0.70927 0.74686 0.0
C1623 C 0.14843 0.73828 0.71701 0.0
H1624 H 0.10786 0.71547 0.72678 0.0
C1625 C 0.08771 0.75231 0.68293 0.0
C1626 C 0.07751 0.73896 0.679 0.0
C1627 C 0.10149 0.75016 0.69294 0.0
C1628 C 0.11915 0.72177 0.72374 0.0
H1629 H 0.19245 0.74649 0.76064 0.0
H1630 H 0.16894 0.75077 0.74245 0.0
H1631 H 0.1317 0.71142 0.74439 0.0
H1632 H 0.07383 0.71285 0.68264 0.0
H1633 H 0.09807 0.70903 0.69968 0.0
H1634 H 0.13591 0.74856 0.69629 0.0
C1635 C 0.17184 0.73842 0.74639 0.0
C1636 C 0.13281 0.71947 0.73386 0.0
C1637 C 0.18521 0.73599 0.75691 0.0
C1638 C 0.0815 0.72338 0.68525 0.0
C1639 C 0.0953 0.72122 0.69522 0.0
C1640 C 0.13478 0.74055 0.70684 0.0
C1641 C 0.16212 0.72509 0.74135 0.0
C1642 C 0.14761 0.72766 0.73059 0.0
C1643 C 0.10543 0.73459 0.69924 0.0
C1644 C 0.11997 0.73229 0.71007 0.0
H1645 H 0.18222 0.69453 0.76154 0.0
H1646 H 0.15904 0.69874 0.74305 0.0
H1647 H 0.15973 0.74463 0.71407 0.0
H1648 H 0.08511 0.76444 0.67818 0.0
H1649 H 0.10894 0.76076 0.69592 0.0
C1650 C 0.95683 0.57436 0.49018 0.0
C1651 C 0.97005 0.5642 0.48591 0.0
C1652 C 0.9592 0.58776 0.50059 0.0
C1653 C 0.98709 0.60424 0.53219 0.0
H1654 H 0.96651 0.64573 0.52141 0.0
C1655 C 0.0018 0.66392 0.56748 0.0
C1656 C 0.9887 0.67462 0.57076 0.0
C1657 C 0.99959 0.65039 0.5572 0.0
C1658 C 0.97218 0.63419 0.52472 0.0
H1659 H 0.99607 0.55997 0.48941 0.0
H1660 H 0.00023 0.58348 0.50751 0.0
H1661 H 0.9625 0.6222 0.50342 0.0
H1662 H 0.96295 0.6793 0.56606 0.0
H1663 H 0.95905 0.65562 0.54824 0.0
H1664 H 0.99668 0.61618 0.55355 0.0
C1665 C 0.98802 0.58103 0.50285 0.0
C1666 C 0.9699 0.62071 0.51439 0.0
C1667 C 0.98568 0.56767 0.49236 0.0
C1668 C 0.97334 0.67143 0.56358 0.0
C1669 C 0.97112 0.65786 0.55335 0.0
C1670 C 0.98933 0.61771 0.54256 0.0
C1671 C 0.97482 0.59126 0.50703 0.0
C1672 C 0.97732 0.60558 0.51801 0.0
C1673 C 0.98423 0.6472 0.54999 0.0
C1674 C 0.98189 0.63285 0.53896 0.0
H1675 H 0.94468 0.57209 0.48529 0.0
H1676 H 0.94874 0.59532 0.50371 0.0
H1677 H 0.99279 0.59269 0.53542 0.0
H1678 H 0.01384 0.66618 0.57264 0.0
H1679 H 0.01002 0.64258 0.55467 0.0
C1680 C 0.74168 0.82432 0.20661 0.0
C1681 C 0.73555 0.81535 0.22002 0.0
C1682 C 0.75202 0.83776 0.2091 0.0
C1683 C 0.7793 0.85689 0.24018 0.0
H1684 H 0.77484 0.89509 0.21215 0.0
C1685 C 0.82592 0.91022 0.24176 0.0
C1686 C 0.81985 0.92627 0.24004 0.0
C1687 C 0.81566 0.89669 0.23936 0.0
C1688 C 0.77616 0.8846 0.2202 0.0
H1689 H 0.73565 0.81346 0.2466 0.0
H1690 H 0.75321 0.83723 0.25097 0.0
H1691 H 0.75666 0.87176 0.20821 0.0
H1692 H 0.79816 0.94058 0.23429 0.0
H1693 H 0.78017 0.91705 0.23068 0.0
H1694 H 0.79845 0.86995 0.25251 0.0
C1695 C 0.75025 0.8337 0.23849 0.0
C1696 C 0.76587 0.8711 0.21778 0.0
C1697 C 0.73999 0.82019 0.23599 0.0
C1698 C 0.80323 0.92843 0.23592 0.0
C1699 C 0.79295 0.9149 0.23362 0.0
C1700 C 0.78953 0.87043 0.24266 0.0
C1701 C 0.75641 0.84266 0.22508 0.0
C1702 C 0.76732 0.85706 0.22772 0.0
C1703 C 0.79904 0.89886 0.23527 0.0
C1704 C 0.78811 0.88445 0.23268 0.0
H1705 H 0.73836 0.82106 0.19414 0.0
H1706 H 0.75668 0.84423 0.19847 0.0
H1707 H 0.78091 0.84622 0.24794 0.0
H1708 H 0.83859 0.90808 0.24511 0.0
H1709 H 0.82083 0.88453 0.24054 0.0
C1710 C 0.7423 0.18343 0.2655 0.0
C1711 C 0.73607 0.18699 0.28117 0.0
C1712 C 0.75277 0.17009 0.26318 0.0
C1713 C 0.76398 0.13026 0.28054 0.0
H1714 H 0.80419 0.13562 0.25572 0.0
C1715 C 0.80393 0.07565 0.25954 0.0
C1716 C 0.82083 0.07708 0.26261 0.0
C1717 C 0.79356 0.08911 0.26172 0.0
C1718 C 0.79302 0.13397 0.26271 0.0
H1719 H 0.73573 0.17931 0.30666 0.0
H1720 H 0.75394 0.15584 0.30257 0.0
H1721 H 0.78608 0.15915 0.25985 0.0
H1722 H 0.8402 0.09372 0.27006 0.0
H1723 H 0.82207 0.11731 0.2737 0.0
H1724 H 0.77088 0.10507 0.28334 0.0
C1725 C 0.75075 0.16342 0.29211 0.0
C1726 C 0.78261 0.14738 0.26496 0.0
C1727 C 0.74045 0.17689 0.29447 0.0
C1728 C 0.8272 0.09226 0.26771 0.0
C1729 C 0.81686 0.10577 0.26968 0.0
C1730 C 0.77427 0.1168 0.2781 0.0
C1731 C 0.75704 0.15992 0.27645 0.0
C1732 C 0.76803 0.14567 0.27396 0.0
C1733 C 0.79993 0.1043 0.2668 0.0
C1734 C 0.78892 0.11854 0.26921 0.0
H1735 H 0.7392 0.19109 0.25507 0.0
H1736 H 0.75736 0.1676 0.25096 0.0
H1737 H 0.75275 0.12858 0.28742 0.0
H1738 H 0.79869 0.06406 0.25571 0.0
H1739 H 0.78057 0.08767 0.2593 0.0
C1740 C 0.43063 0.00951 0.98352 0.0
C1741 C 0.43523 0.01481 0.96775 0.0
C1742 C 0.41698 0.99937 0.98565 0.0
C1743 C 0.38988 0.97054 0.96353 0.0
H1744 H 0.35996 0.97915 0.99944 0.0
C1745 C 0.32769 0.9371 0.96979 0.0
C1746 C 0.32301 0.93214 0.98565 0.0
C1747 C 0.34133 0.94724 0.96753 0.0
C1748 C 0.36829 0.97646 0.98946 0.0
H1749 H 0.42897 0.01372 0.94187 0.0
H1750 H 0.40518 0.99598 0.94558 0.0
H1751 H 0.38396 0.99659 0.9957 0.0
H1752 H 0.32916 0.93374 0.01153 0.0
H1753 H 0.35294 0.95139 0.00758 0.0
H1754 H 0.37424 0.95038 0.95732 0.0
C1755 C 0.41227 0.99949 0.95628 0.0
C1756 C 0.38205 0.98646 0.98732 0.0
C1757 C 0.42591 0.00966 0.95415 0.0
C1758 C 0.33227 0.93756 0.99918 0.0
C1759 C 0.34591 0.94768 0.99691 0.0
C1760 C 0.37613 0.96052 0.96569 0.0
C1761 C 0.40762 0.99427 0.97206 0.0
C1762 C 0.39301 0.98361 0.97434 0.0
C1763 C 0.35062 0.95264 0.98107 0.0
C1764 C 0.36518 0.96336 0.97869 0.0
H1765 H 0.43771 0.01305 0.99422 0.0
H1766 H 0.41387 0.99535 0.99794 0.0
H1767 H 0.39821 0.96787 0.95355 0.0
H1768 H 0.32068 0.93332 0.95913 0.0
H1769 H 0.34448 0.95103 0.95518 0.0
C1770 C 0.2619 0.3243 0.29429 0.0
C1771 C 0.2659 0.31394 0.28112 0.0
C1772 C 0.25187 0.33796 0.29182 0.0
C1773 C 0.22014 0.35446 0.2645 0.0
H1774 H 0.23263 0.39646 0.28298 0.0
C1775 C 0.18456 0.41384 0.24955 0.0
C1776 C 0.18251 0.42537 0.26222 0.0
C1777 C 0.19482 0.40029 0.25171 0.0
C1778 C 0.22882 0.38478 0.27792 0.0
H1779 H 0.2624 0.30964 0.25508 0.0
H1780 H 0.24475 0.33351 0.25077 0.0
H1781 H 0.25025 0.37269 0.28715 0.0
H1782 H 0.18984 0.43165 0.28707 0.0
H1783 H 0.20715 0.40773 0.29105 0.0
H1784 H 0.19855 0.36638 0.25555 0.0
C1785 C 0.24941 0.33105 0.26299 0.0
C1786 C 0.23896 0.37118 0.28028 0.0
C1787 C 0.2596 0.31748 0.26543 0.0
C1788 C 0.19093 0.42294 0.27711 0.0
C1789 C 0.20108 0.40932 0.27931 0.0
C1790 C 0.2099 0.36802 0.26228 0.0
C1791 C 0.24548 0.34145 0.27616 0.0
C1792 C 0.23473 0.35589 0.27359 0.0
C1793 C 0.2032 0.39783 0.26662 0.0
C1794 C 0.21411 0.38337 0.26895 0.0
H1795 H 0.26669 0.32193 0.30649 0.0
H1796 H 0.24894 0.34569 0.30221 0.0
H1797 H 0.21647 0.34276 0.25937 0.0
H1798 H 0.17812 0.41518 0.23798 0.0
H1799 H 0.19629 0.39183 0.24158 0.0
C1800 C 0.0804 0.98026 0.47423 0.0
C1801 C 0.0649 0.98659 0.47015 0.0
C1802 C 0.09375 0.99074 0.47663 0.0
C1803 C 0.10845 0.03275 0.46752 0.0
H1804 H 0.13972 0.02336 0.50222 0.0
C1805 C 0.15992 0.07793 0.48624 0.0
C1806 C 0.17554 0.07117 0.48902 0.0
C1807 C 0.1463 0.06776 0.48397 0.0
C1808 C 0.13117 0.02606 0.49239 0.0
H1809 H 0.05118 0.00889 0.4656 0.0
H1810 H 0.07445 0.02724 0.46997 0.0
H1811 H 0.1161 0.00544 0.49835 0.0
H1812 H 0.18906 0.04845 0.49177 0.0
H1813 H 0.16529 0.03071 0.48767 0.0
H1814 H 0.12352 0.05346 0.46166 0.0
C1815 C 0.07637 0.01414 0.47102 0.0
C1816 C 0.11764 0.01578 0.49015 0.0
C1817 C 0.06303 0.00364 0.46854 0.0
C1818 C 0.17722 0.05403 0.4895 0.0
C1819 C 0.16358 0.04387 0.48733 0.0
C1820 C 0.12195 0.04308 0.46982 0.0
C1821 C 0.0919 0.00782 0.47508 0.0
C1822 C 0.10615 0.01895 0.47764 0.0
C1823 C 0.14797 0.05062 0.48453 0.0
C1824 C 0.1335 0.0398 0.48223 0.0
H1825 H 0.08228 0.96716 0.47531 0.0
H1826 H 0.10559 0.98543 0.47945 0.0
H1827 H 0.09998 0.03542 0.45761 0.0
H1828 H 0.15826 0.09109 0.48567 0.0
H1829 H 0.1344 0.07333 0.48197 0.0
C1830 C 0.75815 0.18379 0.73638 0.0
C1831 C 0.76394 0.18754 0.72056 0.0
C1832 C 0.74789 0.1703 0.73892 0.0
C1833 C 0.73617 0.13065 0.72086 0.0
H1834 H 0.69811 0.13434 0.74908 0.0
C1835 C 0.69835 0.07436 0.74134 0.0
C1836 C 0.6812 0.07589 0.74067 0.0
C1837 C 0.70842 0.08805 0.73907 0.0
C1838 C 0.70865 0.13315 0.74111 0.0
H1839 H 0.76358 0.18001 0.69503 0.0
H1840 H 0.74557 0.1565 0.69945 0.0
H1841 H 0.71558 0.15825 0.74452 0.0
H1842 H 0.66115 0.09303 0.73736 0.0
H1843 H 0.67875 0.11694 0.73329 0.0
H1844 H 0.72917 0.1056 0.71732 0.0
C1845 C 0.74903 0.16396 0.70989 0.0
C1846 C 0.71874 0.14679 0.73862 0.0
C1847 C 0.75921 0.17751 0.70734 0.0
C1848 C 0.67433 0.09144 0.7378 0.0
C1849 C 0.6844 0.10515 0.73563 0.0
C1850 C 0.72615 0.11699 0.72343 0.0
C1851 C 0.74327 0.16019 0.72571 0.0
C1852 C 0.73258 0.1457 0.72843 0.0
C1853 C 0.70155 0.10359 0.73617 0.0
C1854 C 0.71226 0.11809 0.73356 0.0
H1855 H 0.76148 0.19138 0.74678 0.0
H1856 H 0.74375 0.16763 0.75127 0.0
H1857 H 0.74684 0.12939 0.71307 0.0
H1858 H 0.70401 0.06253 0.74338 0.0
H1859 H 0.72159 0.08649 0.73969 0.0
C1860 C 0.43974 0.00357 0.53278 0.0
C1861 C 0.43782 0.98649 0.53167 0.0
C1862 C 0.42637 0.014 0.5303 0.0
C1863 C 0.38464 0.01518 0.51211 0.0
H1864 H 0.37966 0.05362 0.53963 0.0
C1865 C 0.3253 0.05372 0.51329 0.0
C1866 C 0.32712 0.07085 0.51317 0.0
C1867 C 0.33893 0.04355 0.51535 0.0
C1868 C 0.38097 0.04302 0.53174 0.0
H1869 H 0.42033 0.96693 0.52734 0.0
H1870 H 0.39695 0.98507 0.52321 0.0
H1871 H 0.40318 0.03562 0.54363 0.0
H1872 H 0.34463 0.09076 0.51531 0.0
H1873 H 0.36846 0.07298 0.51885 0.0
H1874 H 0.36229 0.02252 0.50038 0.0
C1875 C 0.40885 0.99047 0.52565 0.0
C1876 C 0.39447 0.03271 0.53401 0.0
C1877 C 0.42224 0.98005 0.52805 0.0
C1878 C 0.34286 0.0776 0.51521 0.0
C1879 C 0.35648 0.06743 0.51739 0.0
C1880 C 0.3711 0.02544 0.50991 0.0
C1881 C 0.41075 0.00758 0.52674 0.0
C1882 C 0.39646 0.01865 0.52423 0.0
C1883 C 0.35466 0.05029 0.51745 0.0
C1884 C 0.36911 0.03946 0.51971 0.0
H1885 H 0.45165 0.00889 0.53535 0.0
H1886 H 0.42834 0.02711 0.53097 0.0
H1887 H 0.38593 0.00463 0.50416 0.0
H1888 H 0.31335 0.04815 0.5116 0.0
H1889 H 0.33712 0.03039 0.51549 0.0
C1890 C 0.57946 0.5203 0.52823 0.0
C1891 C 0.56398 0.51361 0.53177 0.0
C1892 C 0.59302 0.5101 0.52594 0.0
C1893 C 0.60808 0.46807 0.53437 0.0
H1894 H 0.63971 0.47854 0.50044 0.0
C1895 C 0.6596 0.42347 0.51513 0.0
C1896 C 0.67526 0.43027 0.51273 0.0
C1897 C 0.646 0.4336 0.51751 0.0
C1898 C 0.63106 0.47554 0.51007 0.0
H1899 H 0.55052 0.49098 0.53543 0.0
H1900 H 0.57413 0.47315 0.53127 0.0
H1901 H 0.61598 0.49624 0.5044 0.0
H1902 H 0.68889 0.45302 0.51073 0.0
H1903 H 0.66516 0.47071 0.515 0.0
H1904 H 0.62313 0.44729 0.53991 0.0
C1905 C 0.57588 0.48629 0.53058 0.0
C1906 C 0.61747 0.48569 0.51236 0.0
C1907 C 0.56234 0.4965 0.53295 0.0
C1908 C 0.67701 0.44741 0.51271 0.0
C1909 C 0.6634 0.45754 0.51498 0.0
C1910 C 0.62163 0.45788 0.53202 0.0
C1911 C 0.59139 0.49297 0.52706 0.0
C1912 C 0.60582 0.48211 0.52457 0.0
C1913 C 0.64775 0.45075 0.51742 0.0
C1914 C 0.63329 0.46152 0.51986 0.0
H1915 H 0.58115 0.53345 0.52748 0.0
H1916 H 0.60483 0.51568 0.52353 0.0
H1917 H 0.5995 0.46508 0.54405 0.0
H1918 H 0.65788 0.4103 0.51535 0.0
H1919 H 0.63407 0.42801 0.51922 0.0
C1920 C 0.70712 0.24318 0.32203 0.0
C1921 C 0.72036 0.23739 0.31266 0.0
C1922 C 0.70976 0.2539 0.33514 0.0
C1923 C 0.74168 0.26788 0.36412 0.0
H1924 H 0.71178 0.30409 0.37129 0.0
C1925 C 0.75331 0.31736 0.4136 0.0
C1926 C 0.73971 0.32237 0.42291 0.0
C1927 C 0.75123 0.30735 0.39982 0.0
C1928 C 0.72015 0.29394 0.36955 0.0
H1929 H 0.74674 0.23853 0.30958 0.0
H1930 H 0.75136 0.25727 0.33249 0.0
H1931 H 0.70767 0.28601 0.34781 0.0
H1932 H 0.71327 0.32056 0.42516 0.0
H1933 H 0.70964 0.30314 0.40114 0.0
H1934 H 0.75411 0.27577 0.38591 0.0
C1935 C 0.73895 0.25333 0.32982 0.0
C1936 C 0.7178 0.28358 0.35609 0.0
C1937 C 0.7363 0.24259 0.3167 0.0
C1938 C 0.72398 0.31716 0.4181 0.0
C1939 C 0.7219 0.30717 0.40433 0.0
C1940 C 0.74404 0.27824 0.37758 0.0
C1941 C 0.72571 0.2591 0.3392 0.0
C1942 C 0.72848 0.27037 0.35327 0.0
C1943 C 0.73549 0.30213 0.39504 0.0
C1944 C 0.73324 0.29135 0.3805 0.0
H1945 H 0.69471 0.2392 0.31942 0.0
H1946 H 0.69932 0.25789 0.34229 0.0
H1947 H 0.75 0.25768 0.36243 0.0
H1948 H 0.76557 0.32135 0.41683 0.0
H1949 H 0.76193 0.30388 0.39279 0.0
C1950 C 0.47929 0.02724 0.9204 0.0
C1951 C 0.48541 0.03098 0.9361 0.0
C1952 C 0.48998 0.02471 0.90726 0.0
C1953 C 0.53251 0.03284 0.89361 0.0
H1954 H 0.52287 0.99879 0.86181 0.0
C1955 C 0.57815 0.01383 0.84279 0.0
C1956 C 0.57157 0.0115 0.82699 0.0
C1957 C 0.56782 0.01606 0.85628 0.0
C1958 C 0.52565 0.00844 0.87051 0.0
H1959 H 0.50754 0.03478 0.9504 0.0
H1960 H 0.52624 0.03019 0.92751 0.0
H1961 H 0.50457 0.00286 0.88508 0.0
H1962 H 0.54901 0.00944 0.81299 0.0
H1963 H 0.53099 0.01346 0.83652 0.0
H1964 H 0.55366 0.03832 0.87905 0.0
C1965 C 0.51316 0.02951 0.92526 0.0
C1966 C 0.51515 0.0108 0.88384 0.0
C1967 C 0.50246 0.03212 0.93839 0.0
C1968 C 0.55445 0.01137 0.82498 0.0
C1969 C 0.54413 0.0135 0.83848 0.0
C1970 C 0.54305 0.03043 0.88032 0.0
C1971 C 0.50705 0.02578 0.90953 0.0
C1972 C 0.5184 0.02308 0.89552 0.0
C1973 C 0.55069 0.01589 0.85428 0.0
C1974 C 0.53969 0.01825 0.86858 0.0
H1975 H 0.4662 0.02652 0.9182 0.0
H1976 H 0.48483 0.02215 0.89526 0.0
H1977 H 0.53526 0.04257 0.90223 0.0
H1978 H 0.59129 0.01412 0.84471 0.0
H1979 H 0.57324 0.01775 0.86832 0.0
C1980 C 0.28211 0.2471 0.31231 0.0
C1981 C 0.28098 0.26421 0.31404 0.0
C1982 C 0.27951 0.23677 0.32576 0.0
C1983 C 0.26044 0.23548 0.36688 0.0
H1984 H 0.28933 0.19836 0.37371 0.0
C1985 C 0.26048 0.19783 0.42698 0.0
C1986 C 0.26207 0.18072 0.42567 0.0
C1987 C 0.26249 0.20787 0.41321 0.0
C1988 C 0.28103 0.20855 0.37187 0.0
H1989 H 0.27639 0.28387 0.33133 0.0
H1990 H 0.27183 0.26585 0.35479 0.0
H1991 H 0.29334 0.21611 0.34994 0.0
H1992 H 0.26672 0.16074 0.40877 0.0
H1993 H 0.27021 0.17825 0.38474 0.0
H1994 H 0.24816 0.22795 0.38884 0.0
C1995 C 0.2745 0.26041 0.34297 0.0
C1996 C 0.28333 0.21873 0.35825 0.0
C1997 C 0.27711 0.27074 0.32953 0.0
C1998 C 0.26566 0.17389 0.41025 0.0
C1999 C 0.26766 0.18392 0.39648 0.0
C2000 C 0.25814 0.2253 0.3805 0.0
C2001 C 0.27569 0.2433 0.34126 0.0
C2002 C 0.27309 0.23234 0.35562 0.0
C2003 C 0.26613 0.20104 0.3978 0.0
C2004 C 0.26843 0.21174 0.38319 0.0
H2005 H 0.28482 0.24167 0.30049 0.0
H2006 H 0.28028 0.22363 0.32397 0.0
H2007 H 0.25218 0.24572 0.36507 0.0
H2008 H 0.25797 0.20352 0.43872 0.0
H2009 H 0.26148 0.22102 0.4147 0.0
C2010 C 0.50799 0.45738 0.92911 0.0
C2011 C 0.5149 0.47079 0.93751 0.0
C2012 C 0.49762 0.45985 0.91566 0.0
C2013 C 0.48798 0.48921 0.88311 0.0
H2014 H 0.44693 0.4654 0.87984 0.0
C2015 C 0.44103 0.50231 0.83149 0.0
C2016 C 0.4322 0.48898 0.82506 0.0
C2017 C 0.45103 0.5003 0.84531 0.0
C2018 C 0.45845 0.47198 0.88041 0.0
H2019 H 0.51605 0.49737 0.93839 0.0
H2020 H 0.49826 0.50163 0.91461 0.0
H2021 H 0.4645 0.46145 0.90377 0.0
H2022 H 0.42724 0.46303 0.82772 0.0
H2023 H 0.44502 0.45936 0.85155 0.0
H2024 H 0.48223 0.49945 0.85961 0.0
C2025 C 0.50095 0.48921 0.91849 0.0
C2026 C 0.46847 0.46975 0.89417 0.0
C2027 C 0.51118 0.48674 0.93207 0.0
C2028 C 0.43374 0.47356 0.83257 0.0
C2029 C 0.44388 0.47149 0.84627 0.0
C2030 C 0.47806 0.4913 0.86925 0.0
C2031 C 0.49407 0.47578 0.91016 0.0
C2032 C 0.48333 0.47834 0.89566 0.0
C2033 C 0.45258 0.48486 0.8529 0.0
C2034 C 0.46316 0.4827 0.8677 0.0
H2035 H 0.51083 0.44491 0.93271 0.0
H2036 H 0.49265 0.44928 0.90933 0.0
H2037 H 0.49948 0.49583 0.88386 0.0
H2038 H 0.43991 0.51438 0.82605 0.0
H2039 H 0.45731 0.51093 0.85021 0.0
C2040 C 0.73611 0.75986 0.1842 0.0
C2041 C 0.72013 0.76526 0.1877 0.0
C2042 C 0.73903 0.74939 0.17096 0.0
C2043 C 0.71839 0.72006 0.14315 0.0
H2044 H 0.75644 0.72743 0.11562 0.0
C2045 C 0.73774 0.67429 0.09281 0.0
C2046 C 0.74293 0.68088 0.07772 0.0
C2047 C 0.73522 0.68446 0.10637 0.0
C2048 C 0.7457 0.72527 0.12312 0.0
H2049 H 0.69472 0.76402 0.17991 0.0
H2050 H 0.69981 0.74576 0.15679 0.0
H2051 H 0.7513 0.74552 0.13885 0.0
H2052 H 0.74981 0.70332 0.06517 0.0
H2053 H 0.74511 0.7211 0.08874 0.0
H2054 H 0.71258 0.70003 0.12721 0.0
C2055 C 0.71005 0.74942 0.16445 0.0
C2056 C 0.74286 0.73552 0.13656 0.0
C2057 C 0.70713 0.75989 0.17769 0.0
C2058 C 0.74564 0.69787 0.07655 0.0
C2059 C 0.74313 0.70804 0.09012 0.0
C2060 C 0.72123 0.7098 0.12973 0.0
C2061 C 0.72604 0.74407 0.1609 0.0
C2062 C 0.72915 0.73306 0.14671 0.0
C2063 C 0.73784 0.70146 0.10518 0.0
C2064 C 0.73491 0.71229 0.11954 0.0
H2065 H 0.74635 0.7636 0.19183 0.0
H2066 H 0.75145 0.74529 0.16873 0.0
H2067 H 0.70781 0.71772 0.15083 0.0
H2068 H 0.73536 0.66129 0.09409 0.0
H2069 H 0.73132 0.67897 0.11783 0.0
C2070 C 0.00829 0.01313 0.06793 0.0
C2071 C 0.01318 0.02905 0.06338 0.0
C2072 C 0.99777 0.01068 0.08124 0.0
C2073 C 0.96683 0.03155 0.10653 0.0
H2074 H 0.97686 0.9979 0.13868 0.0
C2075 C 0.93283 0.02741 0.16841 0.0
C2076 C 0.92927 0.01178 0.17477 0.0
C2077 C 0.94273 0.02918 0.15453 0.0
C2078 C 0.97373 0.00719 0.1297 0.0
H2079 H 0.01098 0.05484 0.06953 0.0
H2080 H 0.99243 0.05055 0.09254 0.0
H2081 H 0.99464 0.00148 0.1149 0.0
H2082 H 0.93343 0.98571 0.17147 0.0
H2083 H 0.95024 0.98877 0.14698 0.0
H2084 H 0.94587 0.03721 0.12119 0.0
C2085 C 0.99662 0.03999 0.08568 0.0
C2086 C 0.98395 0.00926 0.11609 0.0
C2087 C 0.00723 0.04244 0.07246 0.0
C2088 C 0.93576 0.99794 0.16681 0.0
C2089 C 0.94559 0.9997 0.15288 0.0
C2090 C 0.95655 0.02942 0.12008 0.0
C2091 C 0.9918 0.02409 0.09024 0.0
C2092 C 0.98067 0.02154 0.10443 0.0
C2093 C 0.94925 0.01535 0.14659 0.0
C2094 C 0.95993 0.01729 0.13191 0.0
H2095 H 0.01245 0.00256 0.06107 0.0
H2096 H 0.99411 0.99829 0.08435 0.0
H2097 H 0.96386 0.04096 0.09761 0.0
H2098 H 0.92788 0.03833 0.17408 0.0
H2099 H 0.94544 0.04143 0.15018 0.0
C2100 C 0.28331 0.75305 0.18918 0.0
C2101 C 0.28119 0.73601 0.18751 0.0
C2102 C 0.28086 0.76351 0.17579 0.0
C2103 C 0.25996 0.7664 0.13585 0.0
H2104 H 0.29187 0.80054 0.12689 0.0
C2105 C 0.24954 0.81721 0.08728 0.0
C2106 C 0.26279 0.82068 0.0768 0.0
C2107 C 0.2516 0.80694 0.10089 0.0
C2108 C 0.28289 0.79102 0.12921 0.0
H2109 H 0.27492 0.71665 0.17033 0.0
H2110 H 0.27039 0.73495 0.14706 0.0
H2111 H 0.2958 0.78238 0.15046 0.0
H2112 H 0.28857 0.81579 0.07235 0.0
H2113 H 0.29218 0.79815 0.09626 0.0
H2114 H 0.2471 0.77499 0.11454 0.0
C2115 C 0.27384 0.74019 0.15879 0.0
C2116 C 0.28506 0.78073 0.14278 0.0
C2117 C 0.27641 0.72972 0.17214 0.0
C2118 C 0.27816 0.81366 0.08031 0.0
C2119 C 0.28024 0.8035 0.09399 0.0
C2120 C 0.25771 0.77679 0.12237 0.0
C2121 C 0.2761 0.75719 0.16045 0.0
C2122 C 0.27365 0.76827 0.1462 0.0
C2123 C 0.26697 0.80002 0.1044 0.0
C2124 C 0.2692 0.78916 0.11887 0.0
H2125 H 0.28669 0.75836 0.20089 0.0
H2126 H 0.28248 0.77658 0.17749 0.0
H2127 H 0.2509 0.75699 0.13827 0.0
H2128 H 0.2376 0.8226 0.08513 0.0
H2129 H 0.2412 0.80463 0.10882 0.0
C2130 C 0.99206 0.48567 0.06899 0.0
C2131 C 0.98793 0.46971 0.06387 0.0
C2132 C 0.00236 0.48814 0.08251 0.0
C2133 C 0.03437 0.46835 0.10722 0.0
H2134 H 0.02174 0.49945 0.14087 0.0
C2135 C 0.06911 0.47292 0.16885 0.0
C2136 C 0.07111 0.4885 0.17598 0.0
C2137 C 0.0591 0.4708 0.15506 0.0
C2138 C 0.0256 0.4909 0.13148 0.0
H2139 H 0.99134 0.44384 0.06921 0.0
H2140 H 0.00962 0.44821 0.09252 0.0
H2141 H 0.00425 0.49562 0.11685 0.0
H2142 H 0.06395 0.51406 0.17412 0.0
H2143 H 0.04709 0.51048 0.14972 0.0
H2144 H 0.05585 0.4638 0.12161 0.0
C2145 C 0.00492 0.45878 0.08597 0.0
C2146 C 0.01553 0.48868 0.11775 0.0
C2147 C 0.99449 0.4563 0.07257 0.0
C2148 C 0.0629 0.50192 0.16887 0.0
C2149 C 0.05301 0.49982 0.15499 0.0
C2150 C 0.04453 0.47069 0.12086 0.0
C2151 C 0.00891 0.47472 0.09112 0.0
C2152 C 0.01977 0.47732 0.10552 0.0
C2153 C 0.05093 0.48422 0.14792 0.0
C2154 C 0.04025 0.48194 0.13323 0.0
H2155 H 0.98748 0.49628 0.06243 0.0
H2156 H 0.00539 0.50057 0.0861 0.0
H2157 H 0.03803 0.45967 0.09787 0.0
H2158 H 0.0754 0.46233 0.17383 0.0
H2159 H 0.05765 0.45856 0.15012 0.0
C2160 C 0.31251 0.71777 0.25425 0.0
C2161 C 0.31414 0.71994 0.23719 0.0
C2162 C 0.32589 0.72026 0.26472 0.0
C2163 C 0.37126 0.72236 0.26478 0.0
H2164 H 0.36517 0.74364 0.30689 0.0
C2165 C 0.42566 0.74298 0.30524 0.0
C2166 C 0.42459 0.73961 0.32214 0.0
C2167 C 0.41209 0.74069 0.29499 0.0
C2168 C 0.36704 0.73754 0.29523 0.0
H2169 H 0.33119 0.72629 0.21779 0.0
H2170 H 0.35436 0.73109 0.23606 0.0
H2171 H 0.34166 0.7395 0.28877 0.0
H2172 H 0.40836 0.73147 0.34157 0.0
H2173 H 0.38467 0.72736 0.32362 0.0
H2174 H 0.39666 0.72053 0.2712 0.0
C2175 C 0.3428 0.72724 0.24134 0.0
C2176 C 0.35356 0.73515 0.28485 0.0
C2177 C 0.32945 0.72471 0.23088 0.0
C2178 C 0.40961 0.73403 0.32858 0.0
C2179 C 0.396 0.73183 0.31833 0.0
C2180 C 0.38473 0.72483 0.27512 0.0
C2181 C 0.34122 0.725 0.25839 0.0
C2182 C 0.35552 0.72753 0.26949 0.0
C2183 C 0.39712 0.73506 0.30141 0.0
C2184 C 0.38277 0.73245 0.29045 0.0
H2185 H 0.30085 0.71425 0.25954 0.0
H2186 H 0.32427 0.71825 0.27777 0.0
H2187 H 0.37317 0.71619 0.25317 0.0
H2188 H 0.43707 0.74716 0.29988 0.0
H2189 H 0.41329 0.74344 0.28202 0.0
C2190 C 0.98703 0.4334 0.00826 0.0
C2191 C 0.97131 0.43709 0.01425 0.0
C2192 C 0.98943 0.41994 0.99792 0.0
C2193 C 0.9711 0.38034 0.98634 0.0
H2194 H 0.99849 0.38424 0.94767 0.0
C2195 C 0.97451 0.32913 0.93771 0.0
C2196 C 0.98989 0.32576 0.93075 0.0
C2197 C 0.97237 0.3428 0.94781 0.0
C2198 C 0.99097 0.38287 0.95853 0.0
H2199 H 0.94582 0.42949 0.01421 0.0
H2200 H 0.95 0.40607 0.99608 0.0
H2201 H 0.99463 0.40793 0.9655 0.0
H2202 H 0.01513 0.33396 0.92909 0.0
H2203 H 0.01144 0.35772 0.94685 0.0
H2204 H 0.96752 0.35528 0.97951 0.0
C2205 C 0.96047 0.41354 0.99943 0.0
C2206 C 0.98875 0.39646 0.96873 0.0
C2207 C 0.95805 0.42704 0.00967 0.0
C2208 C 0.00308 0.33636 0.9341 0.0
C2209 C 0.00095 0.34999 0.94426 0.0
C2210 C 0.97337 0.36673 0.97619 0.0
C2211 C 0.97619 0.40982 0.99347 0.0
C2212 C 0.97874 0.39536 0.98271 0.0
C2213 C 0.98557 0.35338 0.95125 0.0
C2214 C 0.98329 0.36784 0.96213 0.0
H2215 H 0.99745 0.441 0.01147 0.0
H2216 H 0.00171 0.41731 0.99362 0.0
H2217 H 0.96352 0.37902 0.99717 0.0
H2218 H 0.96406 0.32133 0.93517 0.0
H2219 H 0.96029 0.34519 0.95274 0.0
C2220 C 0.67628 0.79548 0.24103 0.0
C2221 C 0.68611 0.78225 0.23604 0.0
C2222 C 0.66284 0.79293 0.25135 0.0
C2223 C 0.64567 0.76338 0.28119 0.0
H2224 H 0.60522 0.78706 0.27323 0.0
C2225 C 0.59196 0.76299 0.32733 0.0
C2226 C 0.57598 0.76194 0.32088 0.0
C2227 C 0.60539 0.76531 0.31695 0.0
C2228 C 0.61638 0.78025 0.27555 0.0
H2229 H 0.68959 0.75598 0.23812 0.0
H2230 H 0.66596 0.75147 0.25586 0.0
H2231 H 0.62852 0.79119 0.255 0.0
H2232 H 0.56162 0.76264 0.29843 0.0
H2233 H 0.58507 0.76635 0.28031 0.0
H2234 H 0.63343 0.7522 0.30155 0.0
C2235 C 0.66874 0.76385 0.25193 0.0
C2236 C 0.62981 0.78277 0.26521 0.0
C2237 C 0.68218 0.76641 0.24161 0.0
C2238 C 0.57377 0.76322 0.30379 0.0
C2239 C 0.5872 0.76555 0.29342 0.0
C2240 C 0.63225 0.76086 0.29153 0.0
C2241 C 0.65891 0.77708 0.25693 0.0
C2242 C 0.64462 0.77437 0.26791 0.0
C2243 C 0.60317 0.76665 0.29987 0.0
C2244 C 0.61744 0.76927 0.28884 0.0
H2245 H 0.67887 0.80782 0.23683 0.0
H2246 H 0.65563 0.80341 0.2551 0.0
H2247 H 0.65695 0.75684 0.28371 0.0
H2248 H 0.59411 0.76189 0.34042 0.0
H2249 H 0.6175 0.76627 0.32234 0.0
C2250 C 0.04422 0.07158 0.00913 0.0
C2251 C 0.03073 0.0622 0.01439 0.0
C2252 C 0.04199 0.08503 0.99873 0.0
C2253 C 0.01232 0.10345 0.96954 0.0
H2254 H 0.03809 0.14279 0.9767 0.0
C2255 C 0.99903 0.16462 0.93611 0.0
C2256 C 0.01263 0.17344 0.93017 0.0
C2257 C 0.00123 0.15093 0.94621 0.0
C2258 C 0.03092 0.13184 0.97444 0.0
H2259 H 0.00431 0.05956 0.01263 0.0
H2260 H 0.00037 0.08329 0.99487 0.0
H2261 H 0.04186 0.11921 0.99472 0.0
H2262 H 0.03922 0.17452 0.93002 0.0
H2263 H 0.04301 0.15074 0.94779 0.0
H2264 H 0.00127 0.1162 0.94934 0.0
C2265 C 0.01271 0.08011 0.99861 0.0
C2266 C 0.03309 0.1183 0.98475 0.0
C2267 C 0.01495 0.06661 0.00897 0.0
C2268 C 0.02846 0.1682 0.93458 0.0
C2269 C 0.03065 0.15455 0.94475 0.0
C2270 C 0.01009 0.11702 0.95927 0.0
C2271 C 0.0262 0.0895 0.99337 0.0
C2272 C 0.02384 0.10392 0.98241 0.0
C2273 C 0.01706 0.14578 0.95069 0.0
C2274 C 0.01939 0.13135 0.9616 0.0
H2275 H 0.05652 0.06864 0.01321 0.0
H2276 H 0.05267 0.09186 0.99478 0.0
H2277 H 0.00517 0.09249 0.96721 0.0
H2278 H 0.98666 0.16846 0.93319 0.0
H2279 H 0.99051 0.14455 0.95077 0.0
C2280 C 0.31268 0.28226 0.24739 0.0
C2281 C 0.3141 0.27966 0.26441 0.0
C2282 C 0.32607 0.27972 0.23702 0.0
C2283 C 0.37144 0.27631 0.23758 0.0
H2284 H 0.36506 0.25731 0.19439 0.0
C2285 C 0.42539 0.25573 0.19669 0.0
C2286 C 0.42467 0.26034 0.18007 0.0
C2287 C 0.41182 0.25792 0.20691 0.0
C2288 C 0.36701 0.26275 0.20637 0.0
H2289 H 0.33086 0.2724 0.28384 0.0
H2290 H 0.35399 0.26742 0.26574 0.0
H2291 H 0.34153 0.26128 0.21238 0.0
H2292 H 0.40908 0.27055 0.16104 0.0
H2293 H 0.38536 0.27438 0.17892 0.0
H2294 H 0.39696 0.27758 0.23159 0.0
C2295 C 0.34259 0.2717 0.26041 0.0
C2296 C 0.35352 0.26507 0.21667 0.0
C2297 C 0.32923 0.27433 0.27078 0.0
C2298 C 0.41004 0.26702 0.17384 0.0
C2299 C 0.39642 0.26907 0.18403 0.0
C2300 C 0.38493 0.27388 0.22732 0.0
C2301 C 0.34122 0.27444 0.2434 0.0
C2302 C 0.35556 0.2719 0.23241 0.0
C2303 C 0.3972 0.26462 0.20069 0.0
C2304 C 0.38286 0.2671 0.2116 0.0
H2305 H 0.30116 0.28619 0.24204 0.0
H2306 H 0.3246 0.28213 0.22402 0.0
H2307 H 0.37345 0.28189 0.24947 0.0
H2308 H 0.43653 0.25066 0.20187 0.0
H2309 H 0.41274 0.25424 0.21967 0.0
C2310 C 0.54439 0.42743 0.99113 0.0
C2311 C 0.53152 0.43818 0.98715 0.0
C2312 C 0.54167 0.41404 0.00148 0.0
C2313 C 0.51427 0.39842 0.03363 0.0
H2314 H 0.53121 0.35593 0.02082 0.0
C2315 C 0.49771 0.33901 0.06875 0.0
C2316 C 0.51003 0.32711 0.07056 0.0
C2317 C 0.50021 0.35269 0.0587 0.0
C2318 C 0.52658 0.36773 0.02473 0.0
H2319 H 0.50582 0.44354 0.99115 0.0
H2320 H 0.50106 0.4201 0.0093 0.0
H2321 H 0.53596 0.37965 0.00326 0.0
H2322 H 0.53477 0.32042 0.06364 0.0
H2323 H 0.53929 0.34441 0.04638 0.0
H2324 H 0.5051 0.3866 0.05522 0.0
C2325 C 0.51324 0.42206 0.00439 0.0
C2326 C 0.52928 0.38132 0.01462 0.0
C2327 C 0.51593 0.43538 0.99391 0.0
C2328 C 0.52496 0.32927 0.06227 0.0
C2329 C 0.52752 0.343 0.05234 0.0
C2330 C 0.51169 0.38485 0.04382 0.0
C2331 C 0.52607 0.41119 0.00819 0.0
C2332 C 0.52316 0.3968 0.01897 0.0
C2333 C 0.51515 0.35485 0.05034 0.0
C2334 C 0.51782 0.36933 0.0395 0.0
H2335 H 0.55651 0.42923 0.98601 0.0
H2336 H 0.55182 0.40595 0.00431 0.0
H2337 H 0.50956 0.41025 0.03738 0.0
H2338 H 0.48601 0.33757 0.07487 0.0
H2339 H 0.49032 0.36142 0.05726 0.0
C2340 C 0.67563 0.20663 0.26184 0.0
C2341 C 0.68683 0.21947 0.26429 0.0
C2342 C 0.66188 0.20887 0.25181 0.0
C2343 C 0.63653 0.24151 0.23216 0.0
H2344 H 0.62028 0.20499 0.20642 0.0
C2345 C 0.57597 0.24583 0.19549 0.0
C2346 C 0.57505 0.23771 0.18028 0.0
C2347 C 0.58939 0.24346 0.20594 0.0
C2348 C 0.62473 0.21541 0.21335 0.0
H2349 H 0.6927 0.24459 0.25805 0.0
H2350 H 0.66908 0.24838 0.24 0.0
H2351 H 0.64442 0.2014 0.22348 0.0
H2352 H 0.58757 0.22046 0.16436 0.0
H2353 H 0.61125 0.21705 0.18207 0.0
H2354 H 0.61734 0.25575 0.22137 0.0
C2355 C 0.67054 0.23672 0.24619 0.0
C2356 C 0.63847 0.21326 0.2234 0.0
C2357 C 0.68414 0.23455 0.25644 0.0
C2358 C 0.58792 0.22716 0.17583 0.0
C2359 C 0.60143 0.22497 0.18616 0.0
C2360 C 0.62292 0.24373 0.22192 0.0
C2361 C 0.65916 0.22393 0.24379 0.0
C2362 C 0.64455 0.22627 0.23299 0.0
C2363 C 0.60236 0.23306 0.20139 0.0
C2364 C 0.61681 0.23069 0.21239 0.0
H2365 H 0.67735 0.19494 0.26794 0.0
H2366 H 0.65327 0.19883 0.25058 0.0
H2367 H 0.64064 0.25177 0.23953 0.0
H2368 H 0.56642 0.25421 0.19929 0.0
H2369 H 0.5895 0.24972 0.21766 0.0
C2370 C 0.48412 0.06839 0.99031 0.0
C2371 C 0.46826 0.06383 0.98525 0.0
C2372 C 0.48649 0.08186 0.00064 0.0
C2373 C 0.4659 0.11965 0.0153 0.0
H2374 H 0.49926 0.1182 0.04929 0.0
C2375 C 0.47146 0.16901 0.06584 0.0
C2376 C 0.48732 0.17492 0.06924 0.0
C2377 C 0.46918 0.1554 0.05567 0.0
C2378 C 0.48998 0.11882 0.03976 0.0
H2379 H 0.44245 0.07002 0.98707 0.0
H2380 H 0.44653 0.09308 0.00553 0.0
H2381 H 0.49511 0.09446 0.03155 0.0
H2382 H 0.51321 0.17115 0.06441 0.0
H2383 H 0.5092 0.14723 0.04691 0.0
H2384 H 0.46064 0.14395 0.02372 0.0
C2385 C 0.45719 0.08643 0.00129 0.0
C2386 C 0.48762 0.10524 0.02956 0.0
C2387 C 0.45483 0.07303 0.99087 0.0
C2388 C 0.50084 0.16679 0.0623 0.0
C2389 C 0.49855 0.1531 0.05224 0.0
C2390 C 0.46817 0.13317 0.02559 0.0
C2391 C 0.47305 0.09107 0.00626 0.0
C2392 C 0.47556 0.10549 0.01718 0.0
C2393 C 0.4827 0.1473 0.04877 0.0
C2394 C 0.48025 0.1329 0.03791 0.0
H2395 H 0.49474 0.06148 0.98636 0.0
H2396 H 0.4989 0.08518 0.00405 0.0
H2397 H 0.4567 0.12042 0.00571 0.0
H2398 H 0.46078 0.17475 0.0712 0.0
H2399 H 0.45682 0.15107 0.05339 0.0
C2400 C 0.2444 0.32141 0.70776 0.0
C2401 C 0.23701 0.31365 0.72129 0.0
C2402 C 0.25466 0.33495 0.70996 0.0
C2403 C 0.27843 0.35744 0.74206 0.0
H2404 H 0.27933 0.3913 0.70866 0.0
C2405 C 0.32532 0.41043 0.74457 0.0
C2406 C 0.32054 0.42594 0.73871 0.0
C2407 C 0.31521 0.39675 0.74239 0.0
C2408 C 0.27911 0.3821 0.71826 0.0
H2409 H 0.23483 0.31418 0.74786 0.0
H2410 H 0.25185 0.33831 0.7516 0.0
H2411 H 0.26114 0.36802 0.70538 0.0
H2412 H 0.30122 0.43903 0.7258 0.0
H2413 H 0.28325 0.41553 0.72295 0.0
H2414 H 0.29572 0.37198 0.75537 0.0
C2415 C 0.25012 0.33365 0.73927 0.0
C2416 C 0.26884 0.36853 0.71622 0.0
C2417 C 0.24008 0.31993 0.7371 0.0
C2418 C 0.30528 0.42739 0.73074 0.0
C2419 C 0.29505 0.41378 0.72882 0.0
C2420 C 0.28848 0.37116 0.74424 0.0
C2421 C 0.25761 0.34134 0.72574 0.0
C2422 C 0.26841 0.35594 0.72805 0.0
C2423 C 0.29989 0.39823 0.73455 0.0
C2424 C 0.28903 0.38366 0.73233 0.0
H2425 H 0.24216 0.31715 0.69536 0.0
H2426 H 0.26039 0.34031 0.69924 0.0
H2427 H 0.27867 0.34793 0.75135 0.0
H2428 H 0.33684 0.4088 0.751 0.0
H2429 H 0.31953 0.38498 0.74676 0.0
C2430 C 0.24491 0.68413 0.76605 0.0
C2431 C 0.2374 0.687 0.78129 0.0
C2432 C 0.25543 0.67078 0.76398 0.0
C2433 C 0.2645 0.62997 0.78016 0.0
H2434 H 0.30678 0.63567 0.75914 0.0
C2435 C 0.30467 0.57574 0.75882 0.0
C2436 C 0.32133 0.57643 0.7632 0.0
C2437 C 0.29451 0.5893 0.76121 0.0
C2438 C 0.29503 0.63393 0.76508 0.0
H2439 H 0.23484 0.67813 0.80625 0.0
H2440 H 0.25312 0.65465 0.80258 0.0
H2441 H 0.28884 0.65939 0.76303 0.0
H2442 H 0.34049 0.59186 0.77332 0.0
H2443 H 0.32272 0.61569 0.77736 0.0
H2444 H 0.27063 0.60451 0.78209 0.0
C2445 C 0.2509 0.66277 0.79228 0.0
C2446 C 0.28473 0.64745 0.76719 0.0
C2447 C 0.24056 0.67624 0.7944 0.0
C2448 C 0.32767 0.59098 0.76993 0.0
C2449 C 0.31755 0.60462 0.77212 0.0
C2450 C 0.2747 0.61642 0.77784 0.0
C2451 C 0.25846 0.65993 0.77705 0.0
C2452 C 0.26939 0.64561 0.77479 0.0
C2453 C 0.30086 0.60388 0.76785 0.0
C2454 C 0.29007 0.61828 0.77031 0.0
H2455 H 0.24276 0.69231 0.75578 0.0
H2456 H 0.26101 0.6688 0.75209 0.0
H2457 H 0.25269 0.6282 0.78595 0.0
H2458 H 0.29946 0.56463 0.75371 0.0
H2459 H 0.28172 0.58844 0.75771 0.0
C2460 C 0.9213 0.52217 0.47155 0.0
C2461 C 0.93684 0.51561 0.46807 0.0
C2462 C 0.9078 0.51185 0.47379 0.0
C2463 C 0.89302 0.46968 0.46546 0.0
H2464 H 0.86142 0.47981 0.49948 0.0
C2465 C 0.84197 0.42452 0.48503 0.0
C2466 C 0.82625 0.43114 0.48745 0.0
C2467 C 0.85547 0.4348 0.48258 0.0
C2468 C 0.87005 0.4769 0.48983 0.0
H2469 H 0.95044 0.4931 0.46441 0.0
H2470 H 0.92693 0.47507 0.46849 0.0
H2471 H 0.88498 0.49776 0.49538 0.0
H2472 H 0.81242 0.45374 0.4894 0.0
H2473 H 0.83598 0.47168 0.48502 0.0
H2474 H 0.87813 0.44872 0.46003 0.0
C2475 C 0.92509 0.48819 0.46918 0.0
C2476 C 0.88355 0.4872 0.48745 0.0
C2477 C 0.93858 0.49852 0.46686 0.0
C2478 C 0.82435 0.44826 0.48742 0.0
C2479 C 0.83786 0.45854 0.48508 0.0
C2480 C 0.87956 0.45934 0.46789 0.0
C2481 C 0.90953 0.49473 0.47268 0.0
C2482 C 0.89519 0.48374 0.47522 0.0
C2483 C 0.85357 0.45192 0.48261 0.0
C2484 C 0.86792 0.46285 0.48008 0.0
H2485 H 0.91954 0.5353 0.47233 0.0
H2486 H 0.89595 0.51731 0.47619 0.0
H2487 H 0.9016 0.46677 0.45576 0.0
H2488 H 0.8438 0.41137 0.48485 0.0
H2489 H 0.86744 0.42933 0.48085 0.0
C2490 C 0.75857 0.81591 0.76583 0.0
C2491 C 0.76449 0.81221 0.78163 0.0
C2492 C 0.74821 0.82933 0.76332 0.0
C2493 C 0.73652 0.8689 0.78141 0.0
H2494 H 0.69817 0.86504 0.7534 0.0
C2495 C 0.69836 0.92502 0.76118 0.0
C2496 C 0.68122 0.92342 0.76201 0.0
C2497 C 0.70848 0.91137 0.76336 0.0
C2498 C 0.7088 0.86628 0.76132 0.0
H2499 H 0.76429 0.81974 0.80716 0.0
H2500 H 0.74611 0.84311 0.8028 0.0
H2501 H 0.71577 0.84121 0.75785 0.0
H2502 H 0.66125 0.9062 0.76549 0.0
H2503 H 0.67894 0.88236 0.76938 0.0
H2504 H 0.72949 0.89392 0.78499 0.0
C2505 C 0.74954 0.83567 0.79234 0.0
C2506 C 0.71895 0.85268 0.76374 0.0
C2507 C 0.75981 0.82219 0.79487 0.0
C2508 C 0.67441 0.90784 0.76493 0.0
C2509 C 0.68453 0.89417 0.767 0.0
C2510 C 0.72644 0.88252 0.77889 0.0
C2511 C 0.74365 0.8394 0.77654 0.0
C2512 C 0.7329 0.85384 0.77385 0.0
C2513 C 0.70168 0.8958 0.76632 0.0
C2514 C 0.71245 0.88135 0.76885 0.0
H2515 H 0.76188 0.80836 0.75542 0.0
H2516 H 0.74397 0.83197 0.75098 0.0
H2517 H 0.74727 0.87022 0.78914 0.0
H2518 H 0.70397 0.93688 0.7591 0.0
H2519 H 0.72164 0.91298 0.76263 0.0
C2520 C 0.56416 0.50307 0.96806 0.0
C2521 C 0.56568 0.48595 0.96903 0.0
C2522 C 0.57782 0.51318 0.97037 0.0
C2523 C 0.61985 0.51318 0.98797 0.0
H2524 H 0.62468 0.55274 0.96195 0.0
C2525 C 0.67896 0.55243 0.98833 0.0
C2526 C 0.67682 0.56947 0.98959 0.0
C2527 C 0.6655 0.54213 0.98565 0.0
C2528 C 0.62343 0.54179 0.96939 0.0
H2529 H 0.58274 0.46595 0.97285 0.0
H2530 H 0.60667 0.48354 0.97659 0.0
H2531 H 0.6011 0.53488 0.95742 0.0
H2532 H 0.65896 0.58913 0.98874 0.0
H2533 H 0.63545 0.57114 0.98406 0.0
H2534 H 0.64233 0.52004 0.99978 0.0
C2535 C 0.59486 0.48922 0.97443 0.0
C2536 C 0.60989 0.53157 0.96683 0.0
C2537 C 0.58117 0.47912 0.97225 0.0
C2538 C 0.66097 0.57602 0.98797 0.0
C2539 C 0.64753 0.56575 0.98514 0.0
C2540 C 0.63345 0.52334 0.99043 0.0
C2541 C 0.59336 0.50638 0.97359 0.0
C2542 C 0.60789 0.51716 0.97614 0.0
C2543 C 0.64965 0.54869 0.98401 0.0
C2544 C 0.63534 0.53778 0.98121 0.0
H2545 H 0.55233 0.50868 0.9658 0.0
H2546 H 0.57613 0.52634 0.96992 0.0
H2547 H 0.61859 0.50234 0.99556 0.0
H2548 H 0.69102 0.54702 0.98965 0.0
H2549 H 0.66752 0.52905 0.9847 0.0
C2550 C 0.25882 0.68301 0.23583 0.0
C2551 C 0.2654 0.68638 0.22027 0.0
C2552 C 0.2485 0.66952 0.23817 0.0
C2553 C 0.22265 0.63968 0.21516 0.0
H2554 H 0.22482 0.61509 0.2559 0.0
C2555 C 0.19071 0.57703 0.22431 0.0
C2556 C 0.18158 0.57521 0.23881 0.0
C2557 C 0.20088 0.59065 0.2221 0.0
C2558 C 0.22401 0.62193 0.24451 0.0
H2559 H 0.26666 0.67812 0.19503 0.0
H2560 H 0.24904 0.65433 0.19915 0.0
H2561 H 0.24285 0.63862 0.25189 0.0
H2562 H 0.17612 0.58601 0.26248 0.0
H2563 H 0.19407 0.60979 0.25868 0.0
H2564 H 0.20405 0.62266 0.20769 0.0
C2565 C 0.25141 0.66233 0.20948 0.0
C2566 C 0.23429 0.63546 0.24221 0.0
C2567 C 0.26157 0.67593 0.20712 0.0
C2568 C 0.18294 0.58719 0.25113 0.0
C2569 C 0.19328 0.6007 0.24901 0.0
C2570 C 0.21252 0.62603 0.21738 0.0
C2571 C 0.24468 0.65897 0.22503 0.0
C2572 C 0.23373 0.64454 0.22751 0.0
C2573 C 0.20229 0.6026 0.23445 0.0
C2574 C 0.21308 0.61704 0.23209 0.0
H2575 H 0.26145 0.69098 0.24615 0.0
H2576 H 0.24333 0.66752 0.25025 0.0
H2577 H 0.22161 0.64654 0.20381 0.0
H2578 H 0.18981 0.56802 0.21458 0.0
H2579 H 0.20778 0.59176 0.2108 0.0
C2580 C 0.92281 0.47946 0.0263 0.0
C2581 C 0.93806 0.48585 0.03127 0.0
C2582 C 0.90943 0.48984 0.02368 0.0
C2583 C 0.89324 0.53057 0.03432 0.0
H2584 H 0.86555 0.5241 0.99608 0.0
C2585 C 0.8424 0.57651 0.01647 0.0
C2586 C 0.82746 0.57002 0.01077 0.0
C2587 C 0.85603 0.56637 0.01874 0.0
C2588 C 0.87304 0.52596 0.00692 0.0
H2589 H 0.95119 0.50822 0.03724 0.0
H2590 H 0.92777 0.5263 0.03283 0.0
H2591 H 0.88899 0.50611 0.00064 0.0
H2592 H 0.81525 0.54778 0.00272 0.0
H2593 H 0.83887 0.53004 0.00709 0.0
H2594 H 0.87723 0.5503 0.04071 0.0
C2595 C 0.92616 0.51323 0.03111 0.0
C2596 C 0.88648 0.51566 0.00952 0.0
C2597 C 0.93956 0.50286 0.03366 0.0
C2598 C 0.82651 0.55316 0.00731 0.0
C2599 C 0.84012 0.54302 0.00962 0.0
C2600 C 0.87976 0.54083 0.03176 0.0
C2601 C 0.91096 0.50683 0.02605 0.0
C2602 C 0.89672 0.51784 0.02325 0.0
C2603 C 0.85505 0.54949 0.01539 0.0
C2604 C 0.86948 0.53865 0.01804 0.0
H2605 H 0.92114 0.4664 0.02462 0.0
H2606 H 0.89781 0.48451 0.02003 0.0
H2607 H 0.90078 0.53242 0.04513 0.0
H2608 H 0.84353 0.5894 0.01943 0.0
H2609 H 0.86738 0.57181 0.02301 0.0
C2610 C 0.0612 0.99574 0.03187 0.0
C2611 C 0.06317 0.01284 0.03143 0.0
C2612 C 0.07463 0.98539 0.02939 0.0
C2613 C 0.11701 0.98519 0.01259 0.0
H2614 H 0.12081 0.94482 0.03751 0.0
C2615 C 0.17632 0.94661 0.01463 0.0
C2616 C 0.17453 0.92958 0.01268 0.0
C2617 C 0.16257 0.9566 0.01663 0.0
C2618 C 0.11983 0.95599 0.03036 0.0
H2619 H 0.08076 0.03254 0.02845 0.0
H2620 H 0.10425 0.01456 0.02449 0.0
H2621 H 0.0972 0.96264 0.04177 0.0
H2622 H 0.15698 0.90965 0.01147 0.0
H2623 H 0.1329 0.92714 0.01508 0.0
H2624 H 0.13985 0.97865 0.00146 0.0
C2625 C 0.09229 0.00907 0.02629 0.0
C2626 C 0.10628 0.96619 0.03276 0.0
C2627 C 0.07885 0.0194 0.02862 0.0
C2628 C 0.15871 0.92275 0.01283 0.0
C2629 C 0.14496 0.93272 0.01503 0.0
C2630 C 0.13062 0.97507 0.01032 0.0
C2631 C 0.09036 0.99192 0.02656 0.0
C2632 C 0.1047 0.98095 0.02392 0.0
C2633 C 0.14675 0.94976 0.01691 0.0
C2634 C 0.13218 0.96038 0.01919 0.0
H2635 H 0.04922 0.99036 0.03385 0.0
H2636 H 0.07261 0.97227 0.02942 0.0
H2637 H 0.11606 0.99628 0.00531 0.0
H2638 H 0.18836 0.95223 0.01443 0.0
H2639 H 0.16432 0.96967 0.01818 0.0
loop_
_geom_bond_atom_site_label_1
_geom_bond_atom_site_label_2
_geom_bond_distance
_geom_bond_site_symmetry_2
_ccdc_geom_bond_type
H0 C3 0.931 . S
H1 C6 0.928 . S
H2 C8 0.930 . S
C3 H0 0.931 . S
C3 C4 1.413 . S
C3 C5 1.360 . S
C4 C3 1.413 . S
C4 C8 1.429 . S
C5 C3 1.360 . S
C5 C6 1.372 . S
C6 H1 0.928 . S
C6 C5 1.372 . S
C6 C7 1.404 . S
C7 C6 1.404 . S
C7 C8 1.391 . S
C8 H2 0.930 . S
C8 C4 1.429 . S
C8 C7 1.391 . S
H9 C12 0.931 . S
H10 C15 0.928 . S
H11 C17 0.930 . S
C12 H9 0.931 . S
C12 C13 1.413 . S
C12 C14 1.360 . S
C13 C12 1.413 . S
C13 C17 1.429 . S
C14 C12 1.360 . S
C14 C15 1.372 . S
C15 H10 0.928 . S
C15 C14 1.372 . S
C15 C16 1.404 . S
C16 C15 1.404 . S
C16 C17 1.391 . S
C17 H11 0.930 . S
C17 C13 1.429 . S
C17 C16 1.391 . S
H18 C21 0.931 . S
H19 C24 0.928 . S
H20 C26 0.930 . S
C21 H18 0.931 . S
C21 C22 1.413 . S
C21 C23 1.360 . S
C22 C21 1.413 . S
C22 C26 1.429 . S
C23 C21 1.360 . S
C23 C24 1.372 . S
C24 H19 0.928 . S
C24 C23 1.372 . S
C24 C25 1.404 . S
C25 C24 1.404 . S
C25 C26 1.391 . S
C26 H20 0.930 . S
C26 C22 1.429 . S
C26 C25 1.391 . S
H27 C30 0.931 . S
H28 C33 0.928 . S
H29 C35 0.930 . S
C30 H27 0.931 . S
C30 C31 1.413 . S
C30 C32 1.360 . S
C31 C30 1.413 . S
C31 C35 1.429 . S
C32 C30 1.360 . S
C32 C33 1.372 . S
C33 H28 0.928 . S
C33 C32 1.372 . S
C33 C34 1.404 . S
C34 C33 1.404 . S
C34 C35 1.391 . S
C35 H29 0.930 . S
C35 C31 1.429 . S
C35 C34 1.391 . S
H36 C39 0.931 . S
H37 C42 0.928 . S
H38 C44 0.930 . S
C39 H36 0.931 . S
C39 C40 1.413 . S
C39 C41 1.360 . S
C40 C39 1.413 . S
C40 C44 1.429 . S
C41 C39 1.360 . S
C41 C42 1.372 . S
C42 H37 0.928 . S
C42 C41 1.372 . S
C42 C43 1.404 . S
C43 C42 1.404 . S
C43 C44 1.391 . S
C44 H38 0.930 . S
C44 C40 1.429 . S
C44 C43 1.391 . S
H45 C48 0.931 . S
H46 C51 0.928 . S
H47 C53 0.930 . S
C48 H45 0.931 . S
C48 C49 1.413 . S
C48 C50 1.360 . S
C49 C48 1.413 . S
C49 C53 1.429 . S
C50 C48 1.360 . S
C50 C51 1.372 . S
C51 H46 0.928 . S
C51 C50 1.372 . S
C51 C52 1.404 . S
C52 C51 1.404 . S
C52 C53 1.391 . S
C53 H47 0.930 . S
C53 C49 1.429 . S
C53 C52 1.391 . S
H54 C57 0.931 . S
H55 C60 0.928 . S
H56 C62 0.930 . S
C57 H54 0.931 . S
C57 C58 1.413 . S
C57 C59 1.360 . S
C58 C57 1.413 . S
C58 C62 1.429 . S
C59 C57 1.360 . S
C59 C60 1.372 . S
C60 H55 0.928 . S
C60 C59 1.372 . S
C60 C61 1.404 . S
C61 C60 1.404 . S
C61 C62 1.391 . S
C62 H56 0.930 . S
C62 C58 1.429 . S
C62 C61 1.391 . S
H63 C66 0.931 . S
H64 C69 0.928 . S
H65 C71 0.930 . S
C66 H63 0.931 . S
C66 C67 1.413 . S
C66 C68 1.360 . S
C67 C66 1.413 . S
C67 C71 1.429 . S
C68 C66 1.360 . S
C68 C69 1.372 . S
C69 H64 0.928 . S
C69 C68 1.372 . S
C69 C70 1.404 . S
C70 C69 1.404 . S
C70 C71 1.391 . S
C71 H65 0.930 . S
C71 C67 1.429 . S
C71 C70 1.391 . S
H72 C75 0.931 . S
H73 C78 0.928 . S
H74 C80 0.930 . S
C75 H72 0.931 . S
C75 C76 1.413 . S
C75 C77 1.360 . S
C76 C75 1.413 . S
C76 C80 1.429 . S
C77 C75 1.360 . S
C77 C78 1.372 . S
C78 H73 0.928 . S
C78 C77 1.372 . S
C78 C79 1.404 . S
C79 C78 1.404 . S
C79 C80 1.391 . S
C80 H74 0.930 . S
C80 C76 1.429 . S
C80 C79 1.391 . S
H81 C84 0.931 . S
H82 C87 0.928 . S
H83 C89 0.930 . S
C84 H81 0.931 . S
C84 C85 1.413 . S
C84 C86 1.360 . S
C85 C84 1.413 . S
C85 C89 1.429 . S
C86 C84 1.360 . S
C86 C87 1.372 . S
C87 H82 0.928 . S
C87 C86 1.372 . S
C87 C88 1.404 . S
C88 C87 1.404 . S
C88 C89 1.391 . S
C89 H83 0.930 . S
C89 C85 1.429 . S
C89 C88 1.391 . S
H90 C93 0.931 . S
H91 C96 0.928 . S
H92 C98 0.930 . S
C93 H90 0.931 . S
C93 C94 1.413 . S
C93 C95 1.360 . S
C94 C93 1.413 . S
C94 C98 1.429 . S
C95 C93 1.360 . S
C95 C96 1.372 . S
C96 H91 0.928 . S
C96 C95 1.372 . S
C96 C97 1.404 . S
C97 C96 1.404 . S
C97 C98 1.391 . S
C98 H92 0.930 . S
C98 C94 1.429 . S
C98 C97 1.391 . S
H99 C102 0.931 . S
H100 C105 0.928 . S
H101 C107 0.930 . S
C102 H99 0.931 . S
C102 C103 1.413 . S
C102 C104 1.360 . S
C103 C102 1.413 . S
C103 C107 1.429 . S
C104 C102 1.360 . S
C104 C105 1.372 . S
C105 H100 0.928 . S
C105 C104 1.372 . S
C105 C106 1.404 . S
C106 C105 1.404 . S
C106 C107 1.391 . S
C107 H101 0.930 . S
C107 C103 1.429 . S
C107 C106 1.391 . S
H108 C111 0.931 . S
H109 C114 0.928 . S
H110 C116 0.930 . S
C111 H108 0.931 . S
C111 C112 1.413 . S
C111 C113 1.360 . S
C112 C111 1.413 . S
C112 C116 1.429 . S
C113 C111 1.360 . S
C113 C114 1.372 . S
C114 H109 0.928 . S
C114 C113 1.372 . S
C114 C115 1.404 . S
C115 C114 1.404 . S
C115 C116 1.391 . S
C116 H110 0.930 . S
C116 C112 1.429 . S
C116 C115 1.391 . S
H117 C120 0.931 . S
H118 C123 0.928 . S
H119 C125 0.930 . S
C120 H117 0.931 . S
C120 C121 1.413 . S
C120 C122 1.360 . S
C121 C120 1.413 . S
C121 C125 1.429 . S
C122 C120 1.360 . S
C122 C123 1.372 . S
C123 H118 0.928 . S
C123 C122 1.372 . S
C123 C124 1.404 . S
C124 C123 1.404 . S
C124 C125 1.391 . S
C125 H119 0.930 . S
C125 C121 1.429 . S
C125 C124 1.391 . S
H126 C129 0.931 . S
H127 C132 0.928 . S
H128 C134 0.930 . S
C129 H126 0.931 . S
C129 C130 1.413 . S
C129 C131 1.360 . S
C130 C129 1.413 . S
C130 C134 1.429 . S
C131 C129 1.360 . S
C131 C132 1.372 . S
C132 H127 0.928 . S
C132 C131 1.372 . S
C132 C133 1.404 . S
C133 C132 1.404 . S
C133 C134 1.391 . S
C134 H128 0.930 . S
C134 C130 1.429 . S
C134 C133 1.391 . S
H135 C138 0.931 . S
H136 C141 0.928 . S
H137 C143 0.930 . S
C138 H135 0.931 . S
C138 C139 1.413 . S
C138 C140 1.360 . S
C139 C138 1.413 . S
C139 C143 1.429 . S
C140 C138 1.360 . S
C140 C141 1.372 . S
C141 H136 0.928 . S
C141 C140 1.372 . S
C141 C142 1.404 . S
C142 C141 1.404 . S
C142 C143 1.391 . S
C143 H137 0.930 . S
C143 C139 1.429 . S
C143 C142 1.391 . S
Li144 N161 1.990 . S
Li144 O204 1.956 . S
Li144 O205 1.970 1_556 S
Li144 O206 1.961 . S
Li145 N169 1.990 . S
Li145 O204 1.970 1_554 S
Li145 O205 1.956 . S
Li145 O207 1.961 . S
Li146 N191 1.990 . S
Li146 O204 1.961 . S
Li146 O206 1.956 . S
Li146 O207 1.970 1_556 S
Li147 N197 1.990 . S
Li147 O205 1.961 . S
Li147 O206 1.970 1_554 S
Li147 O207 1.956 . S
C148 C150 1.348 1_556 S
C148 C151 1.356 . S
C148 O204 1.325 . S
N149 C152 1.314 1_556 S
N149 C153 1.279 . S
C150 C148 1.348 1_554 S
C150 C152 1.353 . S
C150 H208 0.929 . S
C151 C148 1.356 . S
C151 C153 1.358 . S
C151 H209 0.930 . S
C152 N149 1.314 1_554 S
C152 C150 1.353 . S
C152 H210 0.930 . S
C153 N149 1.279 . S
C153 C151 1.358 . S
C153 H211 0.930 . S
C154 C157 1.348 . S
C154 C158 1.356 . S
C154 O205 1.325 . S
C155 N156 1.279 . S
C155 C158 1.358 . S
C155 H212 0.930 . S
N156 C155 1.279 . S
N156 C159 1.314 . S
C157 C154 1.348 . S
C157 C159 1.353 . S
C157 H213 0.929 . S
C158 C154 1.356 . S
C158 C155 1.358 . S
C158 H214 0.930 . S
C159 N156 1.314 . S
C159 C157 1.353 . S
C159 H215 0.930 . S
C160 N161 1.314 . S
C160 C165 1.353 . S
C160 H166 0.930 . S
N161 Li144 1.990 . S
N161 C160 1.314 . S
N161 C163 1.279 . S
C162 C163 1.358 . S
C162 C164 1.356 . S
C162 H216 0.930 . S
C163 N161 1.279 . S
C163 C162 1.358 . S
C163 H167 0.930 . S
C164 C162 1.356 . S
C164 C165 1.348 . S
C165 C160 1.353 . S
C165 C164 1.348 . S
C165 H217 0.929 . S
H166 C160 0.930 . S
H167 C163 0.930 . S
C168 N169 1.314 . S
C168 C170 1.353 . S
C168 H174 0.930 . S
N169 Li145 1.990 . S
N169 C168 1.314 . S
N169 C172 1.279 . S
C170 C168 1.353 . S
C170 C173 1.348 . S
C170 H218 0.929 . S
C171 C172 1.358 . S
C171 C173 1.356 . S
C171 H219 0.930 . S
C172 N169 1.279 . S
C172 C171 1.358 . S
C172 H175 0.930 . S
C173 C170 1.348 . S
C173 C171 1.356 . S
H174 C168 0.930 . S
H175 C172 0.930 . S
C176 C178 1.348 . S
C176 C179 1.356 . S
C176 O206 1.325 . S
N177 C180 1.314 . S
N177 C181 1.279 . S
C178 C176 1.348 . S
C178 C180 1.353 . S
C178 H220 0.929 . S
C179 C176 1.356 . S
C179 C181 1.358 . S
C179 H221 0.930 . S
C180 N177 1.314 . S
C180 C178 1.353 . S
C180 H222 0.930 . S
C181 N177 1.279 . S
C181 C179 1.358 . S
C181 H223 0.930 . S
C182 C183 1.348 1_554 S
C182 C184 1.356 . S
C182 O207 1.325 . S
C183 C182 1.348 1_556 S
C183 C185 1.353 . S
C183 H224 0.929 . S
C184 C182 1.356 . S
C184 C186 1.358 . S
C184 H225 0.930 . S
C185 C183 1.353 . S
C185 N187 1.314 1_556 S
C185 H226 0.930 . S
C186 C184 1.358 . S
C186 N187 1.279 . S
C186 H227 0.930 . S
N187 C185 1.314 1_554 S
N187 C186 1.279 . S
C188 C190 1.353 . S
C188 N191 1.314 . S
C188 H194 0.930 . S
C189 N191 1.279 . S
C189 C192 1.358 . S
C189 H195 0.930 . S
C190 C188 1.353 . S
C190 C193 1.348 . S
C190 H228 0.929 . S
N191 Li146 1.990 . S
N191 C188 1.314 . S
N191 C189 1.279 . S
C192 C189 1.358 . S
C192 C193 1.356 . S
C192 H229 0.930 . S
C193 C190 1.348 . S
C193 C192 1.356 . S
H194 C188 0.930 . S
H195 C189 0.930 . S
C196 N197 1.314 . S
C196 C198 1.353 . S
C196 H202 0.930 . S
N197 Li147 1.990 . S
N197 C196 1.314 . S
N197 C200 1.279 . S
C198 C196 1.353 . S
C198 C201 1.348 . S
C198 H230 0.929 . S
C199 C200 1.358 . S
C199 C201 1.356 . S
C199 H231 0.930 . S
C200 N197 1.279 . S
C200 C199 1.358 . S
C200 H203 0.930 . S
C201 C198 1.348 . S
C201 C199 1.356 . S
H202 C196 0.930 . S
H203 C200 0.930 . S
O204 Li144 1.956 . S
O204 Li145 1.970 1_556 S
O204 Li146 1.961 . S
O204 C148 1.325 . S
O205 Li144 1.970 1_554 S
O205 Li145 1.956 . S
O205 Li147 1.961 . S
O205 C154 1.325 . S
O206 Li144 1.961 . S
O206 Li146 1.956 . S
O206 Li147 1.970 1_556 S
O206 C176 1.325 . S
O207 Li145 1.961 . S
O207 Li146 1.970 1_554 S
O207 Li147 1.956 . S
O207 C182 1.325 . S
H208 C150 0.929 . S
H209 C151 0.930 . S
H210 C152 0.930 . S
H211 C153 0.930 . S
H212 C155 0.930 . S
H213 C157 0.929 . S
H214 C158 0.930 . S
H215 C159 0.930 . S
H216 C162 0.930 . S
H217 C165 0.929 . S
H218 C170 0.929 . S
H219 C171 0.930 . S
H220 C178 0.929 . S
H221 C179 0.930 . S
H222 C180 0.930 . S
H223 C181 0.930 . S
H224 C183 0.929 . S
H225 C184 0.930 . S
H226 C185 0.930 . S
H227 C186 0.930 . S
H228 C190 0.929 . S
H229 C192 0.930 . S
H230 C198 0.929 . S
H231 C199 0.930 . S
Li232 N249 1.990 . S
Li232 O292 1.956 . S
Li232 O293 1.970 . S
Li232 O294 1.961 . S
Li233 N257 1.990 . S
Li233 O292 1.970 . S
Li233 O293 1.956 . S
Li233 O295 1.961 . S
Li234 N279 1.990 . S
Li234 O292 1.961 . S
Li234 O294 1.956 . S
Li234 O295 1.970 . S
Li235 N285 1.990 . S
Li235 O293 1.961 . S
Li235 O294 1.970 . S
Li235 O295 1.956 . S
C236 C238 1.348 . S
C236 C239 1.356 . S
C236 O292 1.325 . S
N237 C240 1.314 . S
N237 C241 1.279 . S
C238 C236 1.348 . S
C238 C240 1.353 . S
C238 H296 0.929 . S
C239 C236 1.356 . S
C239 C241 1.358 . S
C239 H297 0.930 . S
C240 N237 1.314 . S
C240 C238 1.353 . S
C240 H298 0.930 . S
C241 N237 1.279 . S
C241 C239 1.358 . S
C241 H299 0.930 . S
C242 C245 1.348 . S
C242 C246 1.356 . S
C242 O293 1.325 . S
C243 N244 1.279 . S
C243 C246 1.358 . S
C243 H300 0.930 . S
N244 C243 1.279 . S
N244 C247 1.314 . S
C245 C242 1.348 . S
C245 C247 1.353 . S
C245 H301 0.929 . S
C246 C242 1.356 . S
C246 C243 1.358 . S
C246 H302 0.930 . S
C247 N244 1.314 . S
C247 C245 1.353 . S
C247 H303 0.930 . S
C248 N249 1.314 . S
C248 C253 1.353 . S
C248 H254 0.930 . S
N249 Li232 1.990 . S
N249 C248 1.314 . S
N249 C251 1.279 . S
C250 C251 1.358 . S
C250 C252 1.356 . S
C250 H304 0.930 . S
C251 N249 1.279 . S
C251 C250 1.358 . S
C251 H255 0.930 . S
C252 C250 1.356 . S
C252 C253 1.348 . S
C253 C248 1.353 . S
C253 C252 1.348 . S
C253 H305 0.929 . S
H254 C248 0.930 . S
H255 C251 0.930 . S
C256 N257 1.314 . S
C256 C258 1.353 . S
C256 H262 0.930 . S
N257 Li233 1.990 . S
N257 C256 1.314 . S
N257 C260 1.279 . S
C258 C256 1.353 . S
C258 C261 1.348 . S
C258 H306 0.929 . S
C259 C260 1.358 . S
C259 C261 1.356 . S
C259 H307 0.930 . S
C260 N257 1.279 . S
C260 C259 1.358 . S
C260 H263 0.930 . S
C261 C258 1.348 . S
C261 C259 1.356 . S
H262 C256 0.930 . S
H263 C260 0.930 . S
C264 C266 1.348 . S
C264 C267 1.356 . S
C264 O294 1.325 . S
N265 C268 1.314 . S
N265 C269 1.279 . S
C266 C264 1.348 . S
C266 C268 1.353 . S
C266 H308 0.929 . S
C267 C264 1.356 . S
C267 C269 1.358 . S
C267 H309 0.930 . S
C268 N265 1.314 . S
C268 C266 1.353 . S
C268 H310 0.930 . S
C269 N265 1.279 . S
C269 C267 1.358 . S
C269 H311 0.930 . S
C270 C271 1.348 . S
C270 C272 1.356 . S
C270 O295 1.325 . S
C271 C270 1.348 . S
C271 C273 1.353 . S
C271 H312 0.929 . S
C272 C270 1.356 . S
C272 C274 1.358 . S
C272 H313 0.930 . S
C273 C271 1.353 . S
C273 N275 1.314 . S
C273 H314 0.930 . S
C274 C272 1.358 . S
C274 N275 1.279 . S
C274 H315 0.930 . S
N275 C273 1.314 . S
N275 C274 1.279 . S
C276 C278 1.353 . S
C276 N279 1.314 . S
C276 H282 0.930 . S
C277 N279 1.279 . S
C277 C280 1.358 . S
C277 H283 0.930 . S
C278 C276 1.353 . S
C278 C281 1.348 . S
C278 H316 0.929 . S
N279 Li234 1.990 . S
N279 C276 1.314 . S
N279 C277 1.279 . S
C280 C277 1.358 . S
C280 C281 1.356 . S
C280 H317 0.930 . S
C281 C278 1.348 . S
C281 C280 1.356 . S
H282 C276 0.930 . S
H283 C277 0.930 . S
C284 N285 1.314 . S
C284 C286 1.353 . S
C284 H290 0.930 . S
N285 Li235 1.990 . S
N285 C284 1.314 . S
N285 C288 1.279 . S
C286 C284 1.353 . S
C286 C289 1.348 . S
C286 H318 0.929 . S
C287 C288 1.358 . S
C287 C289 1.356 . S
C287 H319 0.930 . S
C288 N285 1.279 . S
C288 C287 1.358 . S
C288 H291 0.930 . S
C289 C286 1.348 . S
C289 C287 1.356 . S
H290 C284 0.930 . S
H291 C288 0.930 . S
O292 Li232 1.956 . S
O292 Li233 1.970 . S
O292 Li234 1.961 . S
O292 C236 1.325 . S
O293 Li232 1.970 . S
O293 Li233 1.956 . S
O293 Li235 1.961 . S
O293 C242 1.325 . S
O294 Li232 1.961 . S
O294 Li234 1.956 . S
O294 Li235 1.970 . S
O294 C264 1.325 . S
O295 Li233 1.961 . S
O295 Li234 1.970 . S
O295 Li235 1.956 . S
O295 C270 1.325 . S
H296 C238 0.929 . S
H297 C239 0.930 . S
H298 C240 0.930 . S
H299 C241 0.930 . S
H300 C243 0.930 . S
H301 C245 0.929 . S
H302 C246 0.930 . S
H303 C247 0.930 . S
H304 C250 0.930 . S
H305 C253 0.929 . S
H306 C258 0.929 . S
H307 C259 0.930 . S
H308 C266 0.929 . S
H309 C267 0.930 . S
H310 C268 0.930 . S
H311 C269 0.930 . S
H312 C271 0.929 . S
H313 C272 0.930 . S
H314 C273 0.930 . S
H315 C274 0.930 . S
H316 C278 0.929 . S
H317 C280 0.930 . S
H318 C286 0.929 . S
H319 C287 0.930 . S
Li320 N337 2.000 . S
Li320 O380 1.956 . S
Li320 O381 1.926 1_556 S
Li320 O382 1.994 . S
Li321 N345 1.990 . S
Li321 O380 1.952 1_554 S
Li321 O381 1.956 . S
Li321 O383 1.961 . S
Li322 N367 1.990 . S
Li322 O380 1.975 . S
Li322 O382 1.956 . S
Li322 O383 1.970 1_556 S
Li323 N373 1.990 . S
Li323 O381 1.961 . S
Li323 O382 1.970 1_554 S
Li323 O383 1.956 . S
C324 C326 1.348 1_556 S
C324 C327 1.356 . S
C324 O380 1.328 . S
N325 C328 1.314 1_556 S
N325 C329 1.279 . S
C326 C324 1.348 1_554 S
C326 C328 1.353 . S
C326 H384 0.929 . S
C327 C324 1.356 . S
C327 C329 1.358 . S
C327 H385 0.930 . S
C328 N325 1.314 1_554 S
C328 C326 1.353 . S
C328 H386 0.930 . S
C329 N325 1.279 . S
C329 C327 1.358 . S
C329 H387 0.930 . S
C330 C333 1.348 . S
C330 C334 1.356 . S
C330 O381 1.325 . S
C331 N332 1.279 . S
C331 C334 1.358 . S
C331 H388 0.930 . S
N332 C331 1.279 . S
N332 C335 1.314 . S
C333 C330 1.348 . S
C333 C335 1.353 . S
C333 H389 0.929 . S
C334 C330 1.356 . S
C334 C331 1.358 . S
C334 H390 0.930 . S
C335 N332 1.314 . S
C335 C333 1.353 . S
C335 H391 0.930 . S
C336 N337 1.314 . S
C336 C341 1.353 . S
C336 H342 0.930 . S
N337 Li320 2.000 . S
N337 C336 1.314 . S
N337 C339 1.279 . S
C338 C339 1.358 . S
C338 C340 1.356 . S
C338 H392 0.930 . S
C339 N337 1.279 . S
C339 C338 1.358 . S
C339 H343 0.941 . S
C340 C338 1.356 . S
C340 C341 1.348 . S
C341 C336 1.353 . S
C341 C340 1.348 . S
C341 H393 0.929 . S
H342 C336 0.930 . S
H343 C339 0.941 . S
C344 N345 1.314 . S
C344 C346 1.353 . S
C344 H350 0.930 . S
N345 Li321 1.990 . S
N345 C344 1.314 . S
N345 C348 1.279 . S
C346 C344 1.353 . S
C346 C349 1.348 . S
C346 H394 0.929 . S
C347 C348 1.358 . S
C347 C349 1.356 . S
C347 H395 0.930 . S
C348 N345 1.279 . S
C348 C347 1.358 . S
C348 H351 0.930 . S
C349 C346 1.348 . S
C349 C347 1.356 . S
H350 C344 0.930 . S
H351 C348 0.930 . S
C352 C354 1.348 . S
C352 C355 1.356 . S
C352 O382 1.325 . S
N353 C356 1.314 . S
N353 C357 1.279 . S
C354 C352 1.348 . S
C354 C356 1.353 . S
C354 H396 0.929 . S
C355 C352 1.356 . S
C355 C357 1.358 . S
C355 H397 0.930 . S
C356 N353 1.314 . S
C356 C354 1.353 . S
C356 H398 0.930 . S
C357 N353 1.279 . S
C357 C355 1.358 . S
C357 H399 0.930 . S
C358 C359 1.348 1_554 S
C358 C360 1.356 . S
C358 O383 1.325 . S
C359 C358 1.348 1_556 S
C359 C361 1.353 . S
C359 H400 0.929 . S
C360 C358 1.356 . S
C360 C362 1.358 . S
C360 H401 0.930 . S
C361 C359 1.353 . S
C361 N363 1.314 1_556 S
C361 H402 0.930 . S
C362 C360 1.358 . S
C362 N363 1.279 . S
C362 H403 0.930 . S
N363 C361 1.314 1_554 S
N363 C362 1.279 . S
C364 C366 1.353 . S
C364 N367 1.314 . S
C364 H370 0.930 . S
C365 N367 1.279 . S
C365 C368 1.358 . S
C365 H371 0.930 . S
C366 C364 1.353 . S
C366 C369 1.348 . S
C366 H404 0.929 . S
N367 Li322 1.990 . S
N367 C364 1.314 . S
N367 C365 1.279 . S
C368 C365 1.358 . S
C368 C369 1.356 . S
C368 H405 0.930 . S
C369 C366 1.348 . S
C369 C368 1.356 . S
H370 C364 0.930 . S
H371 C365 0.930 . S
C372 N373 1.314 . S
C372 C374 1.353 . S
C372 H378 0.930 . S
N373 Li323 1.990 . S
N373 C372 1.314 . S
N373 C376 1.279 . S
C374 C372 1.353 . S
C374 C377 1.348 . S
C374 H406 0.929 . S
C375 C376 1.358 . S
C375 C377 1.356 . S
C375 H407 0.930 . S
C376 N373 1.279 . S
C376 C375 1.358 . S
C376 H379 0.930 . S
C377 C374 1.348 . S
C377 C375 1.356 . S
H378 C372 0.930 . S
H379 C376 0.930 . S
O380 Li320 1.956 . S
O380 Li321 1.952 1_556 S
O380 Li322 1.975 . S
O380 C324 1.328 . S
O381 Li320 1.926 1_554 S
O381 Li321 1.956 . S
O381 Li323 1.961 . S
O381 C330 1.325 . S
O382 Li320 1.994 . S
O382 Li322 1.956 . S
O382 Li323 1.970 1_556 S
O382 C352 1.325 . S
O383 Li321 1.961 . S
O383 Li322 1.970 1_554 S
O383 Li323 1.956 . S
O383 C358 1.325 . S
H384 C326 0.929 . S
H385 C327 0.930 . S
H386 C328 0.930 . S
H387 C329 0.930 . S
H388 C331 0.930 . S
H389 C333 0.929 . S
H390 C334 0.930 . S
H391 C335 0.930 . S
H392 C338 0.930 . S
H393 C341 0.929 . S
H394 C346 0.929 . S
H395 C347 0.930 . S
H396 C354 0.929 . S
H397 C355 0.930 . S
H398 C356 0.930 . S
H399 C357 0.930 . S
H400 C359 0.929 . S
H401 C360 0.930 . S
H402 C361 0.930 . S
H403 C362 0.930 . S
H404 C366 0.929 . S
H405 C368 0.930 . S
H406 C374 0.929 . S
H407 C375 0.930 . S
Li408 N425 1.990 . S
Li408 O468 1.956 . S
Li408 O469 1.970 1_545 S
Li408 O470 1.961 . S
Li409 N433 1.990 . S
Li409 O468 1.970 1_565 S
Li409 O469 1.956 . S
Li409 O471 1.961 . S
Li410 N455 1.990 . S
Li410 O468 1.961 . S
Li410 O470 1.956 . S
Li410 O471 1.970 1_545 S
Li411 N461 1.990 . S
Li411 O469 1.961 . S
Li411 O470 1.970 1_565 S
Li411 O471 1.956 . S
C412 C414 1.348 . S
C412 C415 1.356 . S
C412 O468 1.325 . S
N413 C416 1.314 . S
N413 C417 1.279 . S
C414 C412 1.348 . S
C414 C416 1.353 . S
C414 H472 0.929 . S
C415 C412 1.356 . S
C415 C417 1.358 . S
C415 H473 0.930 . S
C416 N413 1.314 . S
C416 C414 1.353 . S
C416 H474 0.930 . S
C417 N413 1.279 . S
C417 C415 1.358 . S
C417 H475 0.930 . S
C418 C421 1.348 1_565 S
C418 C422 1.356 . S
C418 O469 1.325 . S
C419 N420 1.279 . S
C419 C422 1.358 . S
C419 H476 0.930 . S
N420 C419 1.279 . S
N420 C423 1.314 1_565 S
C421 C418 1.348 1_545 S
C421 C423 1.353 . S
C421 H477 0.929 . S
C422 C418 1.356 . S
C422 C419 1.358 . S
C422 H478 0.930 . S
C423 N420 1.314 1_545 S
C423 C421 1.353 . S
C423 H479 0.930 . S
C424 N425 1.314 . S
C424 C429 1.353 . S
C424 H430 0.930 . S
N425 Li408 1.990 . S
N425 C424 1.314 . S
N425 C427 1.279 . S
C426 C427 1.358 . S
C426 C428 1.356 . S
C426 H480 0.930 . S
C427 N425 1.279 . S
C427 C426 1.358 . S
C427 H431 0.930 . S
C428 C426 1.356 . S
C428 C429 1.348 . S
C429 C424 1.353 . S
C429 C428 1.348 . S
C429 H481 0.929 . S
H430 C424 0.930 . S
H431 C427 0.930 . S
C432 N433 1.314 . S
C432 C434 1.353 . S
C432 H438 0.930 . S
N433 Li409 1.990 . S
N433 C432 1.314 . S
N433 C436 1.279 . S
C434 C432 1.353 . S
C434 C437 1.348 . S
C434 H482 0.929 . S
C435 C436 1.358 . S
C435 C437 1.356 . S
C435 H483 0.930 . S
C436 N433 1.279 . S
C436 C435 1.358 . S
C436 H439 0.930 . S
C437 C434 1.348 . S
C437 C435 1.356 . S
H438 C432 0.930 . S
H439 C436 0.930 . S
C440 C442 1.348 1_545 S
C440 C443 1.356 . S
C440 O470 1.325 . S
N441 C444 1.314 1_545 S
N441 C445 1.279 . S
C442 C440 1.348 1_565 S
C442 C444 1.353 . S
C442 H484 0.929 . S
C443 C440 1.356 . S
C443 C445 1.358 . S
C443 H485 0.930 . S
C444 N441 1.314 1_565 S
C444 C442 1.353 . S
C444 H486 0.930 . S
C445 N441 1.279 . S
C445 C443 1.358 . S
C445 H487 0.930 . S
C446 C447 1.348 . S
C446 C448 1.356 . S
C446 O471 1.325 . S
C447 C446 1.348 . S
C447 C449 1.353 . S
C447 H488 0.929 . S
C448 C446 1.356 . S
C448 C450 1.358 . S
C448 H489 0.930 . S
C449 C447 1.353 . S
C449 N451 1.314 . S
C449 H490 0.930 . S
C450 C448 1.358 . S
C450 N451 1.279 . S
C450 H491 0.930 . S
N451 C449 1.314 . S
N451 C450 1.279 . S
C452 C454 1.353 . S
C452 N455 1.314 . S
C452 H458 0.930 . S
C453 N455 1.279 . S
C453 C456 1.358 . S
C453 H459 0.930 . S
C454 C452 1.353 . S
C454 C457 1.348 . S
C454 H492 0.929 . S
N455 Li410 1.990 . S
N455 C452 1.314 . S
N455 C453 1.279 . S
C456 C453 1.358 . S
C456 C457 1.356 . S
C456 H493 0.930 . S
C457 C454 1.348 . S
C457 C456 1.356 . S
H458 C452 0.930 . S
H459 C453 0.930 . S
C460 N461 1.314 . S
C460 C462 1.353 . S
C460 H466 0.930 . S
N461 Li411 1.990 . S
N461 C460 1.314 . S
N461 C464 1.279 . S
C462 C460 1.353 . S
C462 C465 1.348 . S
C462 H494 0.929 . S
C463 C464 1.358 . S
C463 C465 1.356 . S
C463 H495 0.930 . S
C464 N461 1.279 . S
C464 C463 1.358 . S
C464 H467 0.930 . S
C465 C462 1.348 . S
C465 C463 1.356 . S
H466 C460 0.930 . S
H467 C464 0.930 . S
O468 Li408 1.956 . S
O468 Li409 1.970 1_545 S
O468 Li410 1.961 . S
O468 C412 1.325 . S
O469 Li408 1.970 1_565 S
O469 Li409 1.956 . S
O469 Li411 1.961 . S
O469 C418 1.325 . S
O470 Li408 1.961 . S
O470 Li410 1.956 . S
O470 Li411 1.970 1_545 S
O470 C440 1.325 . S
O471 Li409 1.961 . S
O471 Li410 1.970 1_565 S
O471 Li411 1.956 . S
O471 C446 1.325 . S
H472 C414 0.929 . S
H473 C415 0.930 . S
H474 C416 0.930 . S
H475 C417 0.930 . S
H476 C419 0.930 . S
H477 C421 0.929 . S
H478 C422 0.930 . S
H479 C423 0.930 . S
H480 C426 0.930 . S
H481 C429 0.929 . S
H482 C434 0.929 . S
H483 C435 0.930 . S
H484 C442 0.929 . S
H485 C443 0.930 . S
H486 C444 0.930 . S
H487 C445 0.930 . S
H488 C447 0.929 . S
H489 C448 0.930 . S
H490 C449 0.930 . S
H491 C450 0.930 . S
H492 C454 0.929 . S
H493 C456 0.930 . S
H494 C462 0.929 . S
H495 C463 0.930 . S
Li496 N513 1.990 . S
Li496 O556 1.956 . S
Li496 O557 1.970 . S
Li496 O558 1.961 . S
Li497 N521 1.990 . S
Li497 O556 1.970 . S
Li497 O557 1.956 . S
Li497 O559 1.961 . S
Li498 N543 1.990 . S
Li498 O556 1.961 . S
Li498 O558 1.956 . S
Li498 O559 1.970 . S
Li499 N549 1.990 . S
Li499 O557 1.961 . S
Li499 O558 1.970 . S
Li499 O559 1.956 . S
C500 C502 1.348 . S
C500 C503 1.356 . S
C500 O556 1.325 . S
N501 C504 1.314 . S
N501 C505 1.279 . S
C502 C500 1.348 . S
C502 C504 1.353 . S
C502 H560 0.929 . S
C503 C500 1.356 . S
C503 C505 1.358 . S
C503 H561 0.930 . S
C504 N501 1.314 . S
C504 C502 1.353 . S
C504 H562 0.930 . S
C505 N501 1.279 . S
C505 C503 1.358 . S
C505 H563 0.930 . S
C506 C509 1.348 . S
C506 C510 1.356 . S
C506 O557 1.325 . S
C507 N508 1.279 . S
C507 C510 1.358 . S
C507 H564 0.930 . S
N508 C507 1.279 . S
N508 C511 1.314 . S
C509 C506 1.348 . S
C509 C511 1.353 . S
C509 H565 0.929 . S
C510 C506 1.356 . S
C510 C507 1.358 . S
C510 H566 0.930 . S
C511 N508 1.314 . S
C511 C509 1.353 . S
C511 H567 0.930 . S
C512 N513 1.314 . S
C512 C517 1.353 . S
C512 H518 0.930 . S
N513 Li496 1.990 . S
N513 C512 1.314 . S
N513 C515 1.279 . S
C514 C515 1.358 . S
C514 C516 1.356 . S
C514 H568 0.930 . S
C515 N513 1.279 . S
C515 C514 1.358 . S
C515 H519 0.930 . S
C516 C514 1.356 . S
C516 C517 1.348 . S
C517 C512 1.353 . S
C517 C516 1.348 . S
C517 H569 0.929 . S
H518 C512 0.930 . S
H519 C515 0.930 . S
C520 N521 1.314 . S
C520 C522 1.353 . S
C520 H526 0.930 . S
N521 Li497 1.990 . S
N521 C520 1.314 . S
N521 C524 1.279 . S
C522 C520 1.353 . S
C522 C525 1.348 . S
C522 H570 0.929 . S
C523 C524 1.358 . S
C523 C525 1.356 . S
C523 H571 0.930 . S
C524 N521 1.279 . S
C524 C523 1.358 . S
C524 H527 0.930 . S
C525 C522 1.348 . S
C525 C523 1.356 . S
H526 C520 0.930 . S
H527 C524 0.930 . S
C528 C530 1.348 . S
C528 C531 1.356 . S
C528 O558 1.325 . S
N529 C532 1.314 . S
N529 C533 1.279 . S
C530 C528 1.348 . S
C530 C532 1.353 . S
C530 H572 0.929 . S
C531 C528 1.356 . S
C531 C533 1.358 . S
C531 H573 0.930 . S
C532 N529 1.314 . S
C532 C530 1.353 . S
C532 H574 0.930 . S
C533 N529 1.279 . S
C533 C531 1.358 . S
C533 H575 0.930 . S
C534 C535 1.348 . S
C534 C536 1.356 . S
C534 O559 1.325 . S
C535 C534 1.348 . S
C535 C537 1.353 . S
C535 H576 0.929 . S
C536 C534 1.356 . S
C536 C538 1.358 . S
C536 H577 0.930 . S
C537 C535 1.353 . S
C537 N539 1.314 . S
C537 H578 0.930 . S
C538 C536 1.358 . S
C538 N539 1.279 . S
C538 H579 0.930 . S
N539 C537 1.314 . S
N539 C538 1.279 . S
C540 C542 1.353 . S
C540 N543 1.314 . S
C540 H546 0.930 . S
C541 N543 1.279 . S
C541 C544 1.358 . S
C541 H547 0.930 . S
C542 C540 1.353 . S
C542 C545 1.348 . S
C542 H580 0.929 . S
N543 Li498 1.990 . S
N543 C540 1.314 . S
N543 C541 1.279 . S
C544 C541 1.358 . S
C544 C545 1.356 . S
C544 H581 0.930 . S
C545 C542 1.348 . S
C545 C544 1.356 . S
H546 C540 0.930 . S
H547 C541 0.930 . S
C548 N549 1.314 . S
C548 C550 1.353 . S
C548 H554 0.930 . S
N549 Li499 1.990 . S
N549 C548 1.314 . S
N549 C552 1.279 . S
C550 C548 1.353 . S
C550 C553 1.348 . S
C550 H582 0.929 . S
C551 C552 1.358 . S
C551 C553 1.356 . S
C551 H583 0.930 . S
C552 N549 1.279 . S
C552 C551 1.358 . S
C552 H555 0.930 . S
C553 C550 1.348 . S
C553 C551 1.356 . S
H554 C548 0.930 . S
H555 C552 0.930 . S
O556 Li496 1.956 . S
O556 Li497 1.970 . S
O556 Li498 1.961 . S
O556 C500 1.325 . S
O557 Li496 1.970 . S
O557 Li497 1.956 . S
O557 Li499 1.961 . S
O557 C506 1.325 . S
O558 Li496 1.961 . S
O558 Li498 1.956 . S
O558 Li499 1.970 . S
O558 C528 1.325 . S
O559 Li497 1.961 . S
O559 Li498 1.970 . S
O559 Li499 1.956 . S
O559 C534 1.325 . S
H560 C502 0.929 . S
H561 C503 0.930 . S
H562 C504 0.930 . S
H563 C505 0.930 . S
H564 C507 0.930 . S
H565 C509 0.929 . S
H566 C510 0.930 . S
H567 C511 0.930 . S
H568 C514 0.930 . S
H569 C517 0.929 . S
H570 C522 0.929 . S
H571 C523 0.930 . S
H572 C530 0.929 . S
H573 C531 0.930 . S
H574 C532 0.930 . S
H575 C533 0.930 . S
H576 C535 0.929 . S
H577 C536 0.930 . S
H578 C537 0.930 . S
H579 C538 0.930 . S
H580 C542 0.929 . S
H581 C544 0.930 . S
H582 C550 0.929 . S
H583 C551 0.930 . S
Li584 N601 1.990 . S
Li584 O644 1.956 . S
Li584 O645 1.970 . S
Li584 O646 1.961 . S
Li585 N609 1.990 . S
Li585 O644 1.970 . S
Li585 O645 1.956 . S
Li585 O647 1.961 . S
Li586 N631 1.990 . S
Li586 O644 1.961 . S
Li586 O646 1.956 . S
Li586 O647 1.970 . S
Li587 N637 1.990 . S
Li587 O645 1.961 . S
Li587 O646 1.970 . S
Li587 O647 1.956 . S
C588 C590 1.348 . S
C588 C591 1.356 . S
C588 O644 1.325 . S
N589 C592 1.314 . S
N589 C593 1.279 . S
C590 C588 1.348 . S
C590 C592 1.353 . S
C590 H648 0.929 . S
C591 C588 1.356 . S
C591 C593 1.358 . S
C591 H649 0.930 . S
C592 N589 1.314 . S
C592 C590 1.353 . S
C592 H650 0.930 . S
C593 N589 1.279 . S
C593 C591 1.358 . S
C593 H651 0.930 . S
C594 C597 1.348 . S
C594 C598 1.356 . S
C594 O645 1.325 . S
C595 N596 1.279 . S
C595 C598 1.358 . S
C595 H652 0.930 . S
N596 C595 1.279 . S
N596 C599 1.314 . S
C597 C594 1.348 . S
C597 C599 1.353 . S
C597 H653 0.929 . S
C598 C594 1.356 . S
C598 C595 1.358 . S
C598 H654 0.930 . S
C599 N596 1.314 . S
C599 C597 1.353 . S
C599 H655 0.930 . S
C600 N601 1.314 . S
C600 C605 1.353 . S
C600 H606 0.930 . S
N601 Li584 1.990 . S
N601 C600 1.314 . S
N601 C603 1.279 . S
C602 C603 1.358 . S
C602 C604 1.356 . S
C602 H656 0.930 . S
C603 N601 1.279 . S
C603 C602 1.358 . S
C603 H607 0.930 . S
C604 C602 1.356 . S
C604 C605 1.348 . S
C605 C600 1.353 . S
C605 C604 1.348 . S
C605 H657 0.929 . S
H606 C600 0.930 . S
H607 C603 0.930 . S
C608 N609 1.314 . S
C608 C610 1.353 . S
C608 H614 0.930 . S
N609 Li585 1.990 . S
N609 C608 1.314 . S
N609 C612 1.279 . S
C610 C608 1.353 . S
C610 C613 1.348 . S
C610 H658 0.929 . S
C611 C612 1.358 . S
C611 C613 1.356 . S
C611 H659 0.930 . S
C612 N609 1.279 . S
C612 C611 1.358 . S
C612 H615 0.930 . S
C613 C610 1.348 . S
C613 C611 1.356 . S
H614 C608 0.930 . S
H615 C612 0.930 . S
C616 C618 1.348 . S
C616 C619 1.356 . S
C616 O646 1.325 . S
N617 C620 1.314 . S
N617 C621 1.279 . S
C618 C616 1.348 . S
C618 C620 1.353 . S
C618 H660 0.929 . S
C619 C616 1.356 . S
C619 C621 1.358 . S
C619 H661 0.930 . S
C620 N617 1.314 . S
C620 C618 1.353 . S
C620 H662 0.930 . S
C621 N617 1.279 . S
C621 C619 1.358 . S
C621 H663 0.930 . S
C622 C623 1.348 . S
C622 C624 1.356 . S
C622 O647 1.325 . S
C623 C622 1.348 . S
C623 C625 1.353 . S
C623 H664 0.929 . S
C624 C622 1.356 . S
C624 C626 1.358 . S
C624 H665 0.930 . S
C625 C623 1.353 . S
C625 N627 1.314 . S
C625 H666 0.930 . S
C626 C624 1.358 . S
C626 N627 1.279 . S
C626 H667 0.930 . S
N627 C625 1.314 . S
N627 C626 1.279 . S
C628 C630 1.353 . S
C628 N631 1.314 . S
C628 H634 0.930 . S
C629 N631 1.279 . S
C629 C632 1.358 . S
C629 H635 0.930 . S
C630 C628 1.353 . S
C630 C633 1.348 . S
C630 H668 0.929 . S
N631 Li586 1.990 . S
N631 C628 1.314 . S
N631 C629 1.279 . S
C632 C629 1.358 . S
C632 C633 1.356 . S
C632 H669 0.930 . S
C633 C630 1.348 . S
C633 C632 1.356 . S
H634 C628 0.930 . S
H635 C629 0.930 . S
C636 N637 1.314 . S
C636 C638 1.353 . S
C636 H642 0.930 . S
N637 Li587 1.990 . S
N637 C636 1.314 . S
N637 C640 1.279 . S
C638 C636 1.353 . S
C638 C641 1.348 . S
C638 H670 0.929 . S
C639 C640 1.358 . S
C639 C641 1.356 . S
C639 H671 0.930 . S
C640 N637 1.279 . S
C640 C639 1.358 . S
C640 H643 0.930 . S
C641 C638 1.348 . S
C641 C639 1.356 . S
H642 C636 0.930 . S
H643 C640 0.930 . S
O644 Li584 1.956 . S
O644 Li585 1.970 . S
O644 Li586 1.961 . S
O644 C588 1.325 . S
O645 Li584 1.970 . S
O645 Li585 1.956 . S
O645 Li587 1.961 . S
O645 C594 1.325 . S
O646 Li584 1.961 . S
O646 Li586 1.956 . S
O646 Li587 1.970 . S
O646 C616 1.325 . S
O647 Li585 1.961 . S
O647 Li586 1.970 . S
O647 Li587 1.956 . S
O647 C622 1.325 . S
H648 C590 0.929 . S
H649 C591 0.930 . S
H650 C592 0.930 . S
H651 C593 0.930 . S
H652 C595 0.930 . S
H653 C597 0.929 . S
H654 C598 0.930 . S
H655 C599 0.930 . S
H656 C602 0.930 . S
H657 C605 0.929 . S
H658 C610 0.929 . S
H659 C611 0.930 . S
H660 C618 0.929 . S
H661 C619 0.930 . S
H662 C620 0.930 . S
H663 C621 0.930 . S
H664 C623 0.929 . S
H665 C624 0.930 . S
H666 C625 0.930 . S
H667 C626 0.930 . S
H668 C630 0.929 . S
H669 C632 0.930 . S
H670 C638 0.929 . S
H671 C639 0.930 . S
Li672 N689 1.990 . S
Li672 O732 1.956 . S
Li672 O733 1.970 . S
Li672 O734 1.961 . S
Li673 N697 1.990 . S
Li673 O732 1.970 . S
Li673 O733 1.956 . S
Li673 O735 1.961 . S
Li674 N719 1.990 . S
Li674 O732 1.961 . S
Li674 O734 1.956 . S
Li674 O735 1.970 . S
Li675 N725 1.990 . S
Li675 O733 1.961 . S
Li675 O734 1.970 . S
Li675 O735 1.956 . S
C676 C678 1.348 . S
C676 C679 1.356 . S
C676 O732 1.325 . S
N677 C680 1.314 . S
N677 C681 1.279 . S
C678 C676 1.348 . S
C678 C680 1.353 . S
C678 H736 0.929 . S
C679 C676 1.356 . S
C679 C681 1.358 . S
C679 H737 0.930 . S
C680 N677 1.314 . S
C680 C678 1.353 . S
C680 H738 0.930 . S
C681 N677 1.279 . S
C681 C679 1.358 . S
C681 H739 0.930 . S
C682 C685 1.348 . S
C682 C686 1.356 . S
C682 O733 1.325 . S
C683 N684 1.279 . S
C683 C686 1.358 . S
C683 H740 0.930 . S
N684 C683 1.279 . S
N684 C687 1.314 . S
C685 C682 1.348 . S
C685 C687 1.353 . S
C685 H741 0.929 . S
C686 C682 1.356 . S
C686 C683 1.358 . S
C686 H742 0.930 . S
C687 N684 1.314 . S
C687 C685 1.353 . S
C687 H743 0.930 . S
C688 N689 1.314 . S
C688 C693 1.353 . S
C688 H694 0.930 . S
N689 Li672 1.990 . S
N689 C688 1.314 . S
N689 C691 1.279 . S
C690 C691 1.358 . S
C690 C692 1.356 . S
C690 H744 0.930 . S
C691 N689 1.279 . S
C691 C690 1.358 . S
C691 H695 0.930 . S
C692 C690 1.356 . S
C692 C693 1.348 . S
C693 C688 1.353 . S
C693 C692 1.348 . S
C693 H745 0.929 . S
H694 C688 0.930 . S
H695 C691 0.930 . S
C696 N697 1.314 . S
C696 C698 1.353 . S
C696 H702 0.930 . S
N697 Li673 1.990 . S
N697 C696 1.314 . S
N697 C700 1.279 . S
C698 C696 1.353 . S
C698 C701 1.348 . S
C698 H746 0.929 . S
C699 C700 1.358 . S
C699 C701 1.356 . S
C699 H747 0.930 . S
C700 N697 1.279 . S
C700 C699 1.358 . S
C700 H703 0.930 . S
C701 C698 1.348 . S
C701 C699 1.356 . S
H702 C696 0.930 . S
H703 C700 0.930 . S
C704 C706 1.348 . S
C704 C707 1.356 . S
C704 O734 1.325 . S
N705 C708 1.314 . S
N705 C709 1.279 . S
C706 C704 1.348 . S
C706 C708 1.353 . S
C706 H748 0.929 . S
C707 C704 1.356 . S
C707 C709 1.358 . S
C707 H749 0.930 . S
C708 N705 1.314 . S
C708 C706 1.353 . S
C708 H750 0.930 . S
C709 N705 1.279 . S
C709 C707 1.358 . S
C709 H751 0.930 . S
C710 C711 1.348 . S
C710 C712 1.356 . S
C710 O735 1.325 . S
C711 C710 1.348 . S
C711 C713 1.353 . S
C711 H752 0.929 . S
C712 C710 1.356 . S
C712 C714 1.358 . S
C712 H753 0.930 . S
C713 C711 1.353 . S
C713 N715 1.314 . S
C713 H754 0.930 . S
C714 C712 1.358 . S
C714 N715 1.279 . S
C714 H755 0.930 . S
N715 C713 1.314 . S
N715 C714 1.279 . S
C716 C718 1.353 . S
C716 N719 1.314 . S
C716 H722 0.930 . S
C717 N719 1.279 . S
C717 C720 1.358 . S
C717 H723 0.930 . S
C718 C716 1.353 . S
C718 C721 1.348 . S
C718 H756 0.929 . S
N719 Li674 1.990 . S
N719 C716 1.314 . S
N719 C717 1.279 . S
C720 C717 1.358 . S
C720 C721 1.356 . S
C720 H757 0.930 . S
C721 C718 1.348 . S
C721 C720 1.356 . S
H722 C716 0.930 . S
H723 C717 0.930 . S
C724 N725 1.314 . S
C724 C726 1.353 . S
C724 H730 0.930 . S
N725 Li675 1.990 . S
N725 C724 1.314 . S
N725 C728 1.279 . S
C726 C724 1.353 . S
C726 C729 1.348 . S
C726 H758 0.929 . S
C727 C728 1.358 . S
C727 C729 1.356 . S
C727 H759 0.930 . S
C728 N725 1.279 . S
C728 C727 1.358 . S
C728 H731 0.930 . S
C729 C726 1.348 . S
C729 C727 1.356 . S
H730 C724 0.930 . S
H731 C728 0.930 . S
O732 Li672 1.956 . S
O732 Li673 1.970 . S
O732 Li674 1.961 . S
O732 C676 1.325 . S
O733 Li672 1.970 . S
O733 Li673 1.956 . S
O733 Li675 1.961 . S
O733 C682 1.325 . S
O734 Li672 1.961 . S
O734 Li674 1.956 . S
O734 Li675 1.970 . S
O734 C704 1.325 . S
O735 Li673 1.961 . S
O735 Li674 1.970 . S
O735 Li675 1.956 . S
O735 C710 1.325 . S
H736 C678 0.929 . S
H737 C679 0.930 . S
H738 C680 0.930 . S
H739 C681 0.930 . S
H740 C683 0.930 . S
H741 C685 0.929 . S
H742 C686 0.930 . S
H743 C687 0.930 . S
H744 C690 0.930 . S
H745 C693 0.929 . S
H746 C698 0.929 . S
H747 C699 0.930 . S
H748 C706 0.929 . S
H749 C707 0.930 . S
H750 C708 0.930 . S
H751 C709 0.930 . S
H752 C711 0.929 . S
H753 C712 0.930 . S
H754 C713 0.930 . S
H755 C714 0.930 . S
H756 C718 0.929 . S
H757 C720 0.930 . S
H758 C726 0.929 . S
H759 C727 0.930 . S
Li760 N777 1.990 . S
Li760 O820 1.956 . S
Li760 O821 1.970 1_565 S
Li760 O822 1.961 . S
Li761 N785 1.990 . S
Li761 O820 1.970 1_545 S
Li761 O821 1.956 . S
Li761 O823 1.961 . S
Li762 N807 1.990 . S
Li762 O820 1.961 . S
Li762 O822 1.956 . S
Li762 O823 1.970 1_565 S
Li763 N813 1.990 . S
Li763 O821 1.961 . S
Li763 O822 1.970 1_545 S
Li763 O823 1.956 . S
C764 C766 1.348 . S
C764 C767 1.356 . S
C764 O820 1.325 . S
N765 C768 1.314 . S
N765 C769 1.279 . S
C766 C764 1.348 . S
C766 C768 1.353 . S
C766 H824 0.929 . S
C767 C764 1.356 . S
C767 C769 1.358 . S
C767 H825 0.930 . S
C768 N765 1.314 . S
C768 C766 1.353 . S
C768 H826 0.930 . S
C769 N765 1.279 . S
C769 C767 1.358 . S
C769 H827 0.930 . S
C770 C773 1.348 1_545 S
C770 C774 1.356 . S
C770 O821 1.325 . S
C771 N772 1.279 . S
C771 C774 1.358 . S
C771 H828 0.930 . S
N772 C771 1.279 . S
N772 C775 1.314 1_545 S
C773 C770 1.348 1_565 S
C773 C775 1.353 . S
C773 H829 0.929 . S
C774 C770 1.356 . S
C774 C771 1.358 . S
C774 H830 0.930 . S
C775 N772 1.314 1_565 S
C775 C773 1.353 . S
C775 H831 0.930 . S
C776 N777 1.314 . S
C776 C781 1.353 . S
C776 H782 0.930 . S
N777 Li760 1.990 . S
N777 C776 1.314 . S
N777 C779 1.279 . S
C778 C779 1.358 . S
C778 C780 1.356 . S
C778 H832 0.930 . S
C779 N777 1.279 . S
C779 C778 1.358 . S
C779 H783 0.930 . S
C780 C778 1.356 . S
C780 C781 1.348 . S
C781 C776 1.353 . S
C781 C780 1.348 . S
C781 H833 0.929 . S
H782 C776 0.930 . S
H783 C779 0.930 . S
C784 N785 1.314 . S
C784 C786 1.353 . S
C784 H790 0.930 . S
N785 Li761 1.990 . S
N785 C784 1.314 . S
N785 C788 1.279 . S
C786 C784 1.353 . S
C786 C789 1.348 . S
C786 H834 0.929 . S
C787 C788 1.358 . S
C787 C789 1.356 . S
C787 H835 0.930 . S
C788 N785 1.279 . S
C788 C787 1.358 . S
C788 H791 0.930 . S
C789 C786 1.348 . S
C789 C787 1.356 . S
H790 C784 0.930 . S
H791 C788 0.930 . S
C792 C794 1.348 1_565 S
C792 C795 1.356 . S
C792 O822 1.325 . S
N793 C796 1.314 1_565 S
N793 C797 1.279 . S
C794 C792 1.348 1_545 S
C794 C796 1.353 . S
C794 H836 0.929 . S
C795 C792 1.356 . S
C795 C797 1.358 . S
C795 H837 0.930 . S
C796 N793 1.314 1_545 S
C796 C794 1.353 . S
C796 H838 0.930 . S
C797 N793 1.279 . S
C797 C795 1.358 . S
C797 H839 0.930 . S
C798 C799 1.348 . S
C798 C800 1.356 . S
C798 O823 1.325 . S
C799 C798 1.348 . S
C799 C801 1.353 . S
C799 H840 0.929 . S
C800 C798 1.356 . S
C800 C802 1.358 . S
C800 H841 0.930 . S
C801 C799 1.353 . S
C801 N803 1.314 . S
C801 H842 0.930 . S
C802 C800 1.358 . S
C802 N803 1.279 . S
C802 H843 0.930 . S
N803 C801 1.314 . S
N803 C802 1.279 . S
C804 C806 1.353 . S
C804 N807 1.314 . S
C804 H810 0.930 . S
C805 N807 1.279 . S
C805 C808 1.358 . S
C805 H811 0.930 . S
C806 C804 1.353 . S
C806 C809 1.348 . S
C806 H844 0.929 . S
N807 Li762 1.990 . S
N807 C804 1.314 . S
N807 C805 1.279 . S
C808 C805 1.358 . S
C808 C809 1.356 . S
C808 H845 0.930 . S
C809 C806 1.348 . S
C809 C808 1.356 . S
H810 C804 0.930 . S
H811 C805 0.930 . S
C812 N813 1.314 . S
C812 C814 1.353 . S
C812 H818 0.930 . S
N813 Li763 1.990 . S
N813 C812 1.314 . S
N813 C816 1.279 . S
C814 C812 1.353 . S
C814 C817 1.348 . S
C814 H846 0.929 . S
C815 C816 1.358 . S
C815 C817 1.356 . S
C815 H847 0.930 . S
C816 N813 1.279 . S
C816 C815 1.358 . S
C816 H819 0.930 . S
C817 C814 1.348 . S
C817 C815 1.356 . S
H818 C812 0.930 . S
H819 C816 0.930 . S
O820 Li760 1.956 . S
O820 Li761 1.970 1_565 S
O820 Li762 1.961 . S
O820 C764 1.325 . S
O821 Li760 1.970 1_545 S
O821 Li761 1.956 . S
O821 Li763 1.961 . S
O821 C770 1.325 . S
O822 Li760 1.961 . S
O822 Li762 1.956 . S
O822 Li763 1.970 1_565 S
O822 C792 1.325 . S
O823 Li761 1.961 . S
O823 Li762 1.970 1_545 S
O823 Li763 1.956 . S
O823 C798 1.325 . S
H824 C766 0.929 . S
H825 C767 0.930 . S
H826 C768 0.930 . S
H827 C769 0.930 . S
H828 C771 0.930 . S
H829 C773 0.929 . S
H830 C774 0.930 . S
H831 C775 0.930 . S
H832 C778 0.930 . S
H833 C781 0.929 . S
H834 C786 0.929 . S
H835 C787 0.930 . S
H836 C794 0.929 . S
H837 C795 0.930 . S
H838 C796 0.930 . S
H839 C797 0.930 . S
H840 C799 0.929 . S
H841 C800 0.930 . S
H842 C801 0.930 . S
H843 C802 0.930 . S
H844 C806 0.929 . S
H845 C808 0.930 . S
H846 C814 0.929 . S
H847 C815 0.930 . S
Li848 N865 1.990 . S
Li848 O908 1.956 . S
Li848 O909 1.970 1_455 S
Li848 O910 1.961 . S
Li849 N873 1.990 . S
Li849 O908 1.970 1_655 S
Li849 O909 1.956 . S
Li849 O911 1.961 . S
Li850 N895 1.990 . S
Li850 O908 1.961 . S
Li850 O910 1.956 . S
Li850 O911 1.970 1_455 S
Li851 N901 1.990 . S
Li851 O909 1.961 . S
Li851 O910 1.970 1_655 S
Li851 O911 1.956 . S
C852 C854 1.348 . S
C852 C855 1.356 . S
C852 O908 1.325 . S
N853 C856 1.314 . S
N853 C857 1.279 . S
C854 C852 1.348 . S
C854 C856 1.353 . S
C854 H912 0.929 . S
C855 C852 1.356 . S
C855 C857 1.358 . S
C855 H913 0.930 . S
C856 N853 1.314 . S
C856 C854 1.353 . S
C856 H914 0.930 . S
C857 N853 1.279 . S
C857 C855 1.358 . S
C857 H915 0.930 . S
C858 C861 1.348 1_655 S
C858 C862 1.356 . S
C858 O909 1.325 . S
C859 N860 1.279 . S
C859 C862 1.358 . S
C859 H916 0.930 . S
N860 C859 1.279 . S
N860 C863 1.314 1_655 S
C861 C858 1.348 1_455 S
C861 C863 1.353 . S
C861 H917 0.929 . S
C862 C858 1.356 . S
C862 C859 1.358 . S
C862 H918 0.930 . S
C863 N860 1.314 1_455 S
C863 C861 1.353 . S
C863 H919 0.930 . S
C864 N865 1.314 . S
C864 C869 1.353 . S
C864 H870 0.930 . S
N865 Li848 1.990 . S
N865 C864 1.314 . S
N865 C867 1.279 . S
C866 C867 1.358 . S
C866 C868 1.356 . S
C866 H920 0.930 . S
C867 N865 1.279 . S
C867 C866 1.358 . S
C867 H871 0.930 . S
C868 C866 1.356 . S
C868 C869 1.348 . S
C869 C864 1.353 . S
C869 C868 1.348 . S
C869 H921 0.929 . S
H870 C864 0.930 . S
H871 C867 0.930 . S
C872 N873 1.314 . S
C872 C874 1.353 . S
C872 H878 0.930 . S
N873 Li849 1.990 . S
N873 C872 1.314 . S
N873 C876 1.279 . S
C874 C872 1.353 . S
C874 C877 1.348 . S
C874 H922 0.929 . S
C875 C876 1.358 . S
C875 C877 1.356 . S
C875 H923 0.930 . S
C876 N873 1.279 . S
C876 C875 1.358 . S
C876 H879 0.930 . S
C877 C874 1.348 . S
C877 C875 1.356 . S
H878 C872 0.930 . S
H879 C876 0.930 . S
C880 C882 1.348 1_455 S
C880 C883 1.356 . S
C880 O910 1.325 . S
N881 C884 1.314 1_455 S
N881 C885 1.279 . S
C882 C880 1.348 1_655 S
C882 C884 1.353 . S
C882 H924 0.929 . S
C883 C880 1.356 . S
C883 C885 1.358 . S
C883 H925 0.930 . S
C884 N881 1.314 1_655 S
C884 C882 1.353 . S
C884 H926 0.930 . S
C885 N881 1.279 . S
C885 C883 1.358 . S
C885 H927 0.930 . S
C886 C887 1.348 . S
C886 C888 1.356 . S
C886 O911 1.325 . S
C887 C886 1.348 . S
C887 C889 1.353 . S
C887 H928 0.929 . S
C888 C886 1.356 . S
C888 C890 1.358 . S
C888 H929 0.930 . S
C889 C887 1.353 . S
C889 N891 1.314 . S
C889 H930 0.930 . S
C890 C888 1.358 . S
C890 N891 1.279 . S
C890 H931 0.930 . S
N891 C889 1.314 . S
N891 C890 1.279 . S
C892 C894 1.353 . S
C892 N895 1.314 . S
C892 H898 0.930 . S
C893 N895 1.279 . S
C893 C896 1.358 . S
C893 H899 0.930 . S
C894 C892 1.353 . S
C894 C897 1.348 . S
C894 H932 0.929 . S
N895 Li850 1.990 . S
N895 C892 1.314 . S
N895 C893 1.279 . S
C896 C893 1.358 . S
C896 C897 1.356 . S
C896 H933 0.930 . S
C897 C894 1.348 . S
C897 C896 1.356 . S
H898 C892 0.930 . S
H899 C893 0.930 . S
C900 N901 1.314 . S
C900 C902 1.353 . S
C900 H906 0.930 . S
N901 Li851 1.990 . S
N901 C900 1.314 . S
N901 C904 1.279 . S
C902 C900 1.353 . S
C902 C905 1.348 . S
C902 H934 0.929 . S
C903 C904 1.358 . S
C903 C905 1.356 . S
C903 H935 0.930 . S
C904 N901 1.279 . S
C904 C903 1.358 . S
C904 H907 0.930 . S
C905 C902 1.348 . S
C905 C903 1.356 . S
H906 C900 0.930 . S
H907 C904 0.930 . S
O908 Li848 1.956 . S
O908 Li849 1.970 1_455 S
O908 Li850 1.961 . S
O908 C852 1.325 . S
O909 Li848 1.970 1_655 S
O909 Li849 1.956 . S
O909 Li851 1.961 . S
O909 C858 1.325 . S
O910 Li848 1.961 . S
O910 Li850 1.956 . S
O910 Li851 1.970 1_455 S
O910 C880 1.325 . S
O911 Li849 1.961 . S
O911 Li850 1.970 1_655 S
O911 Li851 1.956 . S
O911 C886 1.325 . S
H912 C854 0.929 . S
H913 C855 0.930 . S
H914 C856 0.930 . S
H915 C857 0.930 . S
H916 C859 0.930 . S
H917 C861 0.929 . S
H918 C862 0.930 . S
H919 C863 0.930 . S
H920 C866 0.930 . S
H921 C869 0.929 . S
H922 C874 0.929 . S
H923 C875 0.930 . S
H924 C882 0.929 . S
H925 C883 0.930 . S
H926 C884 0.930 . S
H927 C885 0.930 . S
H928 C887 0.929 . S
H929 C888 0.930 . S
H930 C889 0.930 . S
H931 C890 0.930 . S
H932 C894 0.929 . S
H933 C896 0.930 . S
H934 C902 0.929 . S
H935 C903 0.930 . S
Li936 N953 1.990 . S
Li936 O996 1.956 . S
Li936 O997 1.970 . S
Li936 O998 1.961 . S
Li937 N961 1.990 . S
Li937 O996 1.970 . S
Li937 O997 1.956 . S
Li937 O999 1.961 . S
Li938 N983 1.990 . S
Li938 O996 1.961 . S
Li938 O998 1.956 . S
Li938 O999 1.970 . S
Li939 N989 1.990 . S
Li939 O997 1.961 . S
Li939 O998 1.970 . S
Li939 O999 1.956 . S
C940 C942 1.348 . S
C940 C943 1.356 . S
C940 O996 1.325 . S
N941 C944 1.314 . S
N941 C945 1.279 . S
C942 C940 1.348 . S
C942 C944 1.353 . S
C942 H1000 0.929 . S
C943 C940 1.356 . S
C943 C945 1.358 . S
C943 H1001 0.930 . S
C944 N941 1.314 . S
C944 C942 1.353 . S
C944 H1002 0.930 . S
C945 N941 1.279 . S
C945 C943 1.358 . S
C945 H1003 0.930 . S
C946 C949 1.348 . S
C946 C950 1.356 . S
C946 O997 1.325 . S
C947 N948 1.279 . S
C947 C950 1.358 . S
C947 H1004 0.930 . S
N948 C947 1.279 . S
N948 C951 1.314 . S
C949 C946 1.348 . S
C949 C951 1.353 . S
C949 H1005 0.929 . S
C950 C946 1.356 . S
C950 C947 1.358 . S
C950 H1006 0.930 . S
C951 N948 1.314 . S
C951 C949 1.353 . S
C951 H1007 0.930 . S
C952 N953 1.314 . S
C952 C957 1.353 . S
C952 H958 0.930 . S
N953 Li936 1.990 . S
N953 C952 1.314 . S
N953 C955 1.279 . S
C954 C955 1.358 . S
C954 C956 1.356 . S
C954 H1008 0.930 . S
C955 N953 1.279 . S
C955 C954 1.358 . S
C955 H959 0.930 . S
C956 C954 1.356 . S
C956 C957 1.348 . S
C957 C952 1.353 . S
C957 C956 1.348 . S
C957 H1009 0.929 . S
H958 C952 0.930 . S
H959 C955 0.930 . S
C960 N961 1.314 . S
C960 C962 1.353 . S
C960 H966 0.930 . S
N961 Li937 1.990 . S
N961 C960 1.314 . S
N961 C964 1.279 . S
C962 C960 1.353 . S
C962 C965 1.348 . S
C962 H1010 0.929 . S
C963 C964 1.358 . S
C963 C965 1.356 . S
C963 H1011 0.930 . S
C964 N961 1.279 . S
C964 C963 1.358 . S
C964 H967 0.930 . S
C965 C962 1.348 . S
C965 C963 1.356 . S
H966 C960 0.930 . S
H967 C964 0.930 . S
C968 C970 1.348 . S
C968 C971 1.356 . S
C968 O998 1.325 . S
N969 C972 1.314 . S
N969 C973 1.279 . S
C970 C968 1.348 . S
C970 C972 1.353 . S
C970 H1012 0.929 . S
C971 C968 1.356 . S
C971 C973 1.358 . S
C971 H1013 0.930 . S
C972 N969 1.314 . S
C972 C970 1.353 . S
C972 H1014 0.930 . S
C973 N969 1.279 . S
C973 C971 1.358 . S
C973 H1015 0.930 . S
C974 C975 1.348 . S
C974 C976 1.356 . S
C974 O999 1.325 . S
C975 C974 1.348 . S
C975 C977 1.353 . S
C975 H1016 0.929 . S
C976 C974 1.356 . S
C976 C978 1.358 . S
C976 H1017 0.930 . S
C977 C975 1.353 . S
C977 N979 1.314 . S
C977 H1018 0.930 . S
C978 C976 1.358 . S
C978 N979 1.279 . S
C978 H1019 0.930 . S
N979 C977 1.314 . S
N979 C978 1.279 . S
C980 C982 1.353 . S
C980 N983 1.314 . S
C980 H986 0.930 . S
C981 N983 1.279 . S
C981 C984 1.358 . S
C981 H987 0.930 . S
C982 C980 1.353 . S
C982 C985 1.348 . S
C982 H1020 0.929 . S
N983 Li938 1.990 . S
N983 C980 1.314 . S
N983 C981 1.279 . S
C984 C981 1.358 . S
C984 C985 1.356 . S
C984 H1021 0.930 . S
C985 C982 1.348 . S
C985 C984 1.356 . S
H986 C980 0.930 . S
H987 C981 0.930 . S
C988 N989 1.314 . S
C988 C990 1.353 . S
C988 H994 0.930 . S
N989 Li939 1.990 . S
N989 C988 1.314 . S
N989 C992 1.279 . S
C990 C988 1.353 . S
C990 C993 1.348 . S
C990 H1022 0.929 . S
C991 C992 1.358 . S
C991 C993 1.356 . S
C991 H1023 0.930 . S
C992 N989 1.279 . S
C992 C991 1.358 . S
C992 H995 0.930 . S
C993 C990 1.348 . S
C993 C991 1.356 . S
H994 C988 0.930 . S
H995 C992 0.930 . S
O996 Li936 1.956 . S
O996 Li937 1.970 . S
O996 Li938 1.961 . S
O996 C940 1.325 . S
O997 Li936 1.970 . S
O997 Li937 1.956 . S
O997 Li939 1.961 . S
O997 C946 1.325 . S
O998 Li936 1.961 . S
O998 Li938 1.956 . S
O998 Li939 1.970 . S
O998 C968 1.325 . S
O999 Li937 1.961 . S
O999 Li938 1.970 . S
O999 Li939 1.956 . S
O999 C974 1.325 . S
H1000 C942 0.929 . S
H1001 C943 0.930 . S
H1002 C944 0.930 . S
H1003 C945 0.930 . S
H1004 C947 0.930 . S
H1005 C949 0.929 . S
H1006 C950 0.930 . S
H1007 C951 0.930 . S
H1008 C954 0.930 . S
H1009 C957 0.929 . S
H1010 C962 0.929 . S
H1011 C963 0.930 . S
H1012 C970 0.929 . S
H1013 C971 0.930 . S
H1014 C972 0.930 . S
H1015 C973 0.930 . S
H1016 C975 0.929 . S
H1017 C976 0.930 . S
H1018 C977 0.930 . S
H1019 C978 0.930 . S
H1020 C982 0.929 . S
H1021 C984 0.930 . S
H1022 C990 0.929 . S
H1023 C991 0.930 . S
Li1024 N1041 1.990 . S
Li1024 O1084 1.956 . S
Li1024 O1085 1.970 1_455 S
Li1024 O1086 1.961 . S
Li1025 N1049 1.990 . S
Li1025 O1084 1.970 1_655 S
Li1025 O1085 1.956 . S
Li1025 O1087 1.961 . S
Li1026 N1071 1.990 . S
Li1026 O1084 1.961 . S
Li1026 O1086 1.956 . S
Li1026 O1087 1.970 1_455 S
Li1027 N1077 1.990 . S
Li1027 O1085 1.961 . S
Li1027 O1086 1.970 1_655 S
Li1027 O1087 1.956 . S
C1028 C1030 1.348 1_455 S
C1028 C1031 1.356 . S
C1028 O1084 1.325 . S
N1029 C1032 1.314 1_455 S
N1029 C1033 1.279 . S
C1030 C1028 1.348 1_655 S
C1030 C1032 1.353 . S
C1030 H1088 0.929 . S
C1031 C1028 1.356 . S
C1031 C1033 1.358 . S
C1031 H1089 0.930 . S
C1032 N1029 1.314 1_655 S
C1032 C1030 1.353 . S
C1032 H1090 0.930 . S
C1033 N1029 1.279 . S
C1033 C1031 1.358 . S
C1033 H1091 0.930 . S
C1034 C1037 1.348 . S
C1034 C1038 1.356 . S
C1034 O1085 1.325 . S
C1035 N1036 1.279 . S
C1035 C1038 1.358 . S
C1035 H1092 0.930 . S
N1036 C1035 1.279 . S
N1036 C1039 1.314 . S
C1037 C1034 1.348 . S
C1037 C1039 1.353 . S
C1037 H1093 0.929 . S
C1038 C1034 1.356 . S
C1038 C1035 1.358 . S
C1038 H1094 0.930 . S
C1039 N1036 1.314 . S
C1039 C1037 1.353 . S
C1039 H1095 0.930 . S
C1040 N1041 1.314 . S
C1040 C1045 1.353 . S
C1040 H1046 0.930 . S
N1041 Li1024 1.990 . S
N1041 C1040 1.314 . S
N1041 C1043 1.279 . S
C1042 C1043 1.358 . S
C1042 C1044 1.356 . S
C1042 H1096 0.930 . S
C1043 N1041 1.279 . S
C1043 C1042 1.358 . S
C1043 H1047 0.930 . S
C1044 C1042 1.356 . S
C1044 C1045 1.348 . S
C1045 C1040 1.353 . S
C1045 C1044 1.348 . S
C1045 H1097 0.929 . S
H1046 C1040 0.930 . S
H1047 C1043 0.930 . S
C1048 N1049 1.314 . S
C1048 C1050 1.353 . S
C1048 H1054 0.930 . S
N1049 Li1025 1.990 . S
N1049 C1048 1.314 . S
N1049 C1052 1.279 . S
C1050 C1048 1.353 . S
C1050 C1053 1.348 . S
C1050 H1098 0.929 . S
C1051 C1052 1.358 . S
C1051 C1053 1.356 . S
C1051 H1099 0.930 . S
C1052 N1049 1.279 . S
C1052 C1051 1.358 . S
C1052 H1055 0.930 . S
C1053 C1050 1.348 . S
C1053 C1051 1.356 . S
H1054 C1048 0.930 . S
H1055 C1052 0.930 . S
C1056 C1058 1.348 . S
C1056 C1059 1.356 . S
C1056 O1086 1.325 . S
N1057 C1060 1.314 . S
N1057 C1061 1.279 . S
C1058 C1056 1.348 . S
C1058 C1060 1.353 . S
C1058 H1100 0.929 . S
C1059 C1056 1.356 . S
C1059 C1061 1.358 . S
C1059 H1101 0.930 . S
C1060 N1057 1.314 . S
C1060 C1058 1.353 . S
C1060 H1102 0.930 . S
C1061 N1057 1.279 . S
C1061 C1059 1.358 . S
C1061 H1103 0.930 . S
C1062 C1063 1.348 1_655 S
C1062 C1064 1.356 . S
C1062 O1087 1.325 . S
C1063 C1062 1.348 1_455 S
C1063 C1065 1.353 . S
C1063 H1104 0.929 . S
C1064 C1062 1.356 . S
C1064 C1066 1.358 . S
C1064 H1105 0.930 . S
C1065 C1063 1.353 . S
C1065 N1067 1.314 1_455 S
C1065 H1106 0.930 . S
C1066 C1064 1.358 . S
C1066 N1067 1.279 . S
C1066 H1107 0.930 . S
N1067 C1065 1.314 1_655 S
N1067 C1066 1.279 . S
C1068 C1070 1.353 . S
C1068 N1071 1.314 . S
C1068 H1074 0.930 . S
C1069 N1071 1.279 . S
C1069 C1072 1.358 . S
C1069 H1075 0.930 . S
C1070 C1068 1.353 . S
C1070 C1073 1.348 . S
C1070 H1108 0.929 . S
N1071 Li1026 1.990 . S
N1071 C1068 1.314 . S
N1071 C1069 1.279 . S
C1072 C1069 1.358 . S
C1072 C1073 1.356 . S
C1072 H1109 0.930 . S
C1073 C1070 1.348 . S
C1073 C1072 1.356 . S
H1074 C1068 0.930 . S
H1075 C1069 0.930 . S
C1076 N1077 1.314 . S
C1076 C1078 1.353 . S
C1076 H1082 0.930 . S
N1077 Li1027 1.990 . S
N1077 C1076 1.314 . S
N1077 C1080 1.279 . S
C1078 C1076 1.353 . S
C1078 C1081 1.348 . S
C1078 H1110 0.929 . S
C1079 C1080 1.358 . S
C1079 C1081 1.356 . S
C1079 H1111 0.930 . S
C1080 N1077 1.279 . S
C1080 C1079 1.358 . S
C1080 H1083 0.930 . S
C1081 C1078 1.348 . S
C1081 C1079 1.356 . S
H1082 C1076 0.930 . S
H1083 C1080 0.930 . S
O1084 Li1024 1.956 . S
O1084 Li1025 1.970 1_455 S
O1084 Li1026 1.961 . S
O1084 C1028 1.325 . S
O1085 Li1024 1.970 1_655 S
O1085 Li1025 1.956 . S
O1085 Li1027 1.961 . S
O1085 C1034 1.325 . S
O1086 Li1024 1.961 . S
O1086 Li1026 1.956 . S
O1086 Li1027 1.970 1_455 S
O1086 C1056 1.325 . S
O1087 Li1025 1.961 . S
O1087 Li1026 1.970 1_655 S
O1087 Li1027 1.956 . S
O1087 C1062 1.325 . S
H1088 C1030 0.929 . S
H1089 C1031 0.930 . S
H1090 C1032 0.930 . S
H1091 C1033 0.930 . S
H1092 C1035 0.930 . S
H1093 C1037 0.929 . S
H1094 C1038 0.930 . S
H1095 C1039 0.930 . S
H1096 C1042 0.930 . S
H1097 C1045 0.929 . S
H1098 C1050 0.929 . S
H1099 C1051 0.930 . S
H1100 C1058 0.929 . S
H1101 C1059 0.930 . S
H1102 C1060 0.930 . S
H1103 C1061 0.930 . S
H1104 C1063 0.929 . S
H1105 C1064 0.930 . S
H1106 C1065 0.930 . S
H1107 C1066 0.930 . S
H1108 C1070 0.929 . S
H1109 C1072 0.930 . S
H1110 C1078 0.929 . S
H1111 C1079 0.930 . S
Li1112 N1129 1.990 . S
Li1112 O1172 1.956 . S
Li1112 O1173 1.970 . S
Li1112 O1174 1.961 . S
Li1113 N1137 1.990 . S
Li1113 O1172 1.970 . S
Li1113 O1173 1.956 . S
Li1113 O1175 1.961 . S
Li1114 N1159 1.990 . S
Li1114 O1172 1.961 . S
Li1114 O1174 1.956 . S
Li1114 O1175 1.970 . S
Li1115 N1165 1.990 . S
Li1115 O1173 1.961 . S
Li1115 O1174 1.970 . S
Li1115 O1175 1.956 . S
C1116 C1118 1.348 . S
C1116 C1119 1.356 . S
C1116 O1172 1.325 . S
N1117 C1120 1.314 . S
N1117 C1121 1.279 . S
C1118 C1116 1.348 . S
C1118 C1120 1.353 . S
C1118 H1176 0.929 . S
C1119 C1116 1.356 . S
C1119 C1121 1.358 . S
C1119 H1177 0.930 . S
C1120 N1117 1.314 . S
C1120 C1118 1.353 . S
C1120 H1178 0.930 . S
C1121 N1117 1.279 . S
C1121 C1119 1.358 . S
C1121 H1179 0.930 . S
C1122 C1125 1.348 . S
C1122 C1126 1.356 . S
C1122 O1173 1.325 . S
C1123 N1124 1.279 . S
C1123 C1126 1.358 . S
C1123 H1180 0.930 . S
N1124 C1123 1.279 . S
N1124 C1127 1.314 . S
C1125 C1122 1.348 . S
C1125 C1127 1.353 . S
C1125 H1181 0.929 . S
C1126 C1122 1.356 . S
C1126 C1123 1.358 . S
C1126 H1182 0.930 . S
C1127 N1124 1.314 . S
C1127 C1125 1.353 . S
C1127 H1183 0.930 . S
C1128 N1129 1.314 . S
C1128 C1133 1.353 . S
C1128 H1134 0.930 . S
N1129 Li1112 1.990 . S
N1129 C1128 1.314 . S
N1129 C1131 1.279 . S
C1130 C1131 1.358 . S
C1130 C1132 1.356 . S
C1130 H1184 0.930 . S
C1131 N1129 1.279 . S
C1131 C1130 1.358 . S
C1131 H1135 0.930 . S
C1132 C1130 1.356 . S
C1132 C1133 1.348 . S
C1133 C1128 1.353 . S
C1133 C1132 1.348 . S
C1133 H1185 0.929 . S
H1134 C1128 0.930 . S
H1135 C1131 0.930 . S
C1136 N1137 1.314 . S
C1136 C1138 1.353 . S
C1136 H1142 0.930 . S
N1137 Li1113 1.990 . S
N1137 C1136 1.314 . S
N1137 C1140 1.279 . S
C1138 C1136 1.353 . S
C1138 C1141 1.348 . S
C1138 H1186 0.929 . S
C1139 C1140 1.358 . S
C1139 C1141 1.356 . S
C1139 H1187 0.930 . S
C1140 N1137 1.279 . S
C1140 C1139 1.358 . S
C1140 H1143 0.930 . S
C1141 C1138 1.348 . S
C1141 C1139 1.356 . S
H1142 C1136 0.930 . S
H1143 C1140 0.930 . S
C1144 C1146 1.348 . S
C1144 C1147 1.356 . S
C1144 O1174 1.325 . S
N1145 C1148 1.314 . S
N1145 C1149 1.279 . S
C1146 C1144 1.348 . S
C1146 C1148 1.353 . S
C1146 H1188 0.929 . S
C1147 C1144 1.356 . S
C1147 C1149 1.358 . S
C1147 H1189 0.930 . S
C1148 N1145 1.314 . S
C1148 C1146 1.353 . S
C1148 H1190 0.930 . S
C1149 N1145 1.279 . S
C1149 C1147 1.358 . S
C1149 H1191 0.930 . S
C1150 C1151 1.348 . S
C1150 C1152 1.356 . S
C1150 O1175 1.325 . S
C1151 C1150 1.348 . S
C1151 C1153 1.353 . S
C1151 H1192 0.929 . S
C1152 C1150 1.356 . S
C1152 C1154 1.358 . S
C1152 H1193 0.930 . S
C1153 C1151 1.353 . S
C1153 N1155 1.314 . S
C1153 H1194 0.930 . S
C1154 C1152 1.358 . S
C1154 N1155 1.279 . S
C1154 H1195 0.930 . S
N1155 C1153 1.314 . S
N1155 C1154 1.279 . S
C1156 C1158 1.353 . S
C1156 N1159 1.314 . S
C1156 H1162 0.930 . S
C1157 N1159 1.279 . S
C1157 C1160 1.358 . S
C1157 H1163 0.930 . S
C1158 C1156 1.353 . S
C1158 C1161 1.348 . S
C1158 H1196 0.929 . S
N1159 Li1114 1.990 . S
N1159 C1156 1.314 . S
N1159 C1157 1.279 . S
C1160 C1157 1.358 . S
C1160 C1161 1.356 . S
C1160 H1197 0.930 . S
C1161 C1158 1.348 . S
C1161 C1160 1.356 . S
H1162 C1156 0.930 . S
H1163 C1157 0.930 . S
C1164 N1165 1.314 . S
C1164 C1166 1.353 . S
C1164 H1170 0.930 . S
N1165 Li1115 1.990 . S
N1165 C1164 1.314 . S
N1165 C1168 1.279 . S
C1166 C1164 1.353 . S
C1166 C1169 1.348 . S
C1166 H1198 0.929 . S
C1167 C1168 1.358 . S
C1167 C1169 1.356 . S
C1167 H1199 0.930 . S
C1168 N1165 1.279 . S
C1168 C1167 1.358 . S
C1168 H1171 0.930 . S
C1169 C1166 1.348 . S
C1169 C1167 1.356 . S
H1170 C1164 0.930 . S
H1171 C1168 0.930 . S
O1172 Li1112 1.956 . S
O1172 Li1113 1.970 . S
O1172 Li1114 1.961 . S
O1172 C1116 1.325 . S
O1173 Li1112 1.970 . S
O1173 Li1113 1.956 . S
O1173 Li1115 1.961 . S
O1173 C1122 1.325 . S
O1174 Li1112 1.961 . S
O1174 Li1114 1.956 . S
O1174 Li1115 1.970 . S
O1174 C1144 1.325 . S
O1175 Li1113 1.961 . S
O1175 Li1114 1.970 . S
O1175 Li1115 1.956 . S
O1175 C1150 1.325 . S
H1176 C1118 0.929 . S
H1177 C1119 0.930 . S
H1178 C1120 0.930 . S
H1179 C1121 0.930 . S
H1180 C1123 0.930 . S
H1181 C1125 0.929 . S
H1182 C1126 0.930 . S
H1183 C1127 0.930 . S
H1184 C1130 0.930 . S
H1185 C1133 0.929 . S
H1186 C1138 0.929 . S
H1187 C1139 0.930 . S
H1188 C1146 0.929 . S
H1189 C1147 0.930 . S
H1190 C1148 0.930 . S
H1191 C1149 0.930 . S
H1192 C1151 0.929 . S
H1193 C1152 0.930 . S
H1194 C1153 0.930 . S
H1195 C1154 0.930 . S
H1196 C1158 0.929 . S
H1197 C1160 0.930 . S
H1198 C1166 0.929 . S
H1199 C1167 0.930 . S
C1200 C1201 1.349 . S
C1200 C1202 1.327 . S
C1200 H1225 0.950 . S
C1201 C1200 1.349 . S
C1201 C1217 1.349 . S
C1202 C1200 1.327 . S
C1202 C1221 1.429 . S
C1202 H1226 0.950 . S
C1203 C1220 1.574 . S
C1203 C1222 1.368 . S
C1203 H1227 0.949 . S
H1204 C1208 0.949 . S
C1205 C1206 1.349 . S
C1205 C1207 1.327 . S
C1205 H1228 0.950 . S
C1206 C1205 1.349 . S
C1206 C1218 1.349 . S
C1207 C1205 1.327 . S
C1207 C1223 1.429 . S
C1207 H1229 0.950 . S
C1208 H1204 0.949 . S
C1208 C1216 1.574 . S
C1208 C1224 1.368 . S
H1209 C1217 0.950 . S
H1210 C1215 0.950 . S
H1211 C1216 0.949 . S
H1212 C1218 0.950 . S
H1213 C1219 0.950 . S
H1214 C1220 0.949 . S
C1215 H1210 0.950 . S
C1215 C1217 1.327 . S
C1215 C1221 1.429 . S
C1216 C1208 1.574 . S
C1216 H1211 0.949 . S
C1216 C1222 1.368 . S
C1217 C1201 1.349 . S
C1217 H1209 0.950 . S
C1217 C1215 1.327 . S
C1218 C1206 1.349 . S
C1218 H1212 0.950 . S
C1218 C1219 1.327 . S
C1219 H1213 0.950 . S
C1219 C1218 1.327 . S
C1219 C1223 1.429 . S
C1220 C1203 1.574 . S
C1220 H1214 0.949 . S
C1220 C1224 1.368 . S
C1221 C1202 1.429 . S
C1221 C1215 1.429 . S
C1221 C1222 1.523 . S
C1222 C1203 1.368 . S
C1222 C1216 1.368 . S
C1222 C1221 1.523 . S
C1223 C1207 1.429 . S
C1223 C1219 1.429 . S
C1223 C1224 1.523 . S
C1224 C1208 1.368 . S
C1224 C1220 1.368 . S
C1224 C1223 1.523 . S
H1225 C1200 0.950 . S
H1226 C1202 0.950 . S
H1227 C1203 0.949 . S
H1228 C1205 0.950 . S
H1229 C1207 0.950 . S
C1230 C1231 1.349 1_455 S
C1230 C1232 1.327 . S
C1230 H1255 0.950 . S
C1231 C1230 1.349 1_655 S
C1231 C1247 1.349 . S
C1232 C1230 1.327 . S
C1232 C1251 1.429 . S
C1232 H1256 0.950 . S
C1233 C1250 1.574 . S
C1233 C1252 1.368 . S
C1233 H1257 0.949 . S
H1234 C1238 0.949 . S
C1235 C1236 1.349 . S
C1235 C1237 1.327 . S
C1235 H1258 0.950 . S
C1236 C1235 1.349 . S
C1236 C1248 1.349 . S
C1237 C1235 1.327 . S
C1237 C1253 1.429 . S
C1237 H1259 0.950 . S
C1238 H1234 0.949 . S
C1238 C1246 1.574 . S
C1238 C1254 1.368 . S
H1239 C1247 0.950 . S
H1240 C1245 0.950 . S
H1241 C1246 0.949 . S
H1242 C1248 0.950 . S
H1243 C1249 0.950 . S
H1244 C1250 0.949 . S
C1245 H1240 0.950 . S
C1245 C1247 1.327 . S
C1245 C1251 1.429 1_655 S
C1246 C1238 1.574 . S
C1246 H1241 0.949 . S
C1246 C1252 1.368 . S
C1247 C1231 1.349 . S
C1247 H1239 0.950 . S
C1247 C1245 1.327 . S
C1248 C1236 1.349 . S
C1248 H1242 0.950 . S
C1248 C1249 1.327 . S
C1249 H1243 0.950 . S
C1249 C1248 1.327 . S
C1249 C1253 1.429 . S
C1250 C1233 1.574 . S
C1250 H1244 0.949 . S
C1250 C1254 1.368 . S
C1251 C1232 1.429 . S
C1251 C1245 1.429 1_455 S
C1251 C1252 1.523 . S
C1252 C1233 1.368 . S
C1252 C1246 1.368 . S
C1252 C1251 1.523 . S
C1253 C1237 1.429 . S
C1253 C1249 1.429 . S
C1253 C1254 1.523 . S
C1254 C1238 1.368 . S
C1254 C1250 1.368 . S
C1254 C1253 1.523 . S
H1255 C1230 0.950 . S
H1256 C1232 0.950 . S
H1257 C1233 0.949 . S
H1258 C1235 0.950 . S
H1259 C1237 0.950 . S
C1260 C1261 1.349 . S
C1260 C1262 1.327 . S
C1260 H1285 0.950 . S
C1261 C1260 1.349 . S
C1261 C1277 1.349 . S
C1262 C1260 1.327 . S
C1262 C1281 1.429 . S
C1262 H1286 0.950 . S
C1263 C1280 1.574 . S
C1263 C1282 1.368 . S
C1263 H1287 0.949 . S
H1264 C1268 0.949 . S
C1265 C1266 1.349 . S
C1265 C1267 1.327 . S
C1265 H1288 0.950 . S
C1266 C1265 1.349 . S
C1266 C1278 1.349 . S
C1267 C1265 1.327 . S
C1267 C1283 1.429 . S
C1267 H1289 0.950 . S
C1268 H1264 0.949 . S
C1268 C1276 1.574 . S
C1268 C1284 1.368 . S
H1269 C1277 0.950 . S
H1270 C1275 0.950 . S
H1271 C1276 0.949 . S
H1272 C1278 0.950 . S
H1273 C1279 0.950 . S
H1274 C1280 0.949 . S
C1275 H1270 0.950 . S
C1275 C1277 1.327 . S
C1275 C1281 1.429 . S
C1276 C1268 1.574 . S
C1276 H1271 0.949 . S
C1276 C1282 1.368 . S
C1277 C1261 1.349 . S
C1277 H1269 0.950 . S
C1277 C1275 1.327 . S
C1278 C1266 1.349 . S
C1278 H1272 0.950 . S
C1278 C1279 1.327 . S
C1279 H1273 0.950 . S
C1279 C1278 1.327 . S
C1279 C1283 1.429 . S
C1280 C1263 1.574 . S
C1280 H1274 0.949 . S
C1280 C1284 1.368 . S
C1281 C1262 1.429 . S
C1281 C1275 1.429 . S
C1281 C1282 1.523 . S
C1282 C1263 1.368 . S
C1282 C1276 1.368 . S
C1282 C1281 1.523 . S
C1283 C1267 1.429 . S
C1283 C1279 1.429 . S
C1283 C1284 1.523 . S
C1284 C1268 1.368 . S
C1284 C1280 1.368 . S
C1284 C1283 1.523 . S
H1285 C1260 0.950 . S
H1286 C1262 0.950 . S
H1287 C1263 0.949 . S
H1288 C1265 0.950 . S
H1289 C1267 0.950 . S
C1290 C1291 1.349 . S
C1290 C1292 1.327 . S
C1290 H1315 0.950 . S
C1291 C1290 1.349 . S
C1291 C1307 1.321 1_455 S
C1292 C1290 1.327 . S
C1292 C1311 1.429 1_455 S
C1292 H1316 0.950 . S
C1293 C1310 1.574 . S
C1293 C1312 1.368 . S
C1293 H1317 0.949 . S
H1294 C1298 0.949 1_545 S
C1295 C1296 1.349 . S
C1295 C1297 1.327 . S
C1295 H1318 0.950 . S
C1296 C1295 1.349 . S
C1296 C1308 1.304 1_565 S
C1297 C1295 1.327 . S
C1297 C1313 1.429 . S
C1297 H1319 0.950 . S
C1298 H1294 0.949 1_565 S
C1298 C1306 1.574 . S
C1298 C1314 1.368 . S
H1299 C1307 0.956 . S
H1300 C1305 0.950 . S
H1301 C1306 0.949 1_545 S
H1302 C1308 1.004 . S
H1303 C1309 0.924 1_545 S
H1304 C1310 0.949 . S
C1305 H1300 0.950 . S
C1305 C1307 1.351 . S
C1305 C1311 1.429 . S
C1306 C1298 1.574 . S
C1306 H1301 0.949 1_565 S
C1306 C1312 1.368 . S
C1307 C1291 1.321 1_655 S
C1307 H1299 0.956 . S
C1307 C1305 1.351 . S
C1308 C1296 1.304 1_545 S
C1308 H1302 1.004 . S
C1308 C1309 1.322 1_545 S
C1309 H1303 0.924 1_565 S
C1309 C1308 1.322 1_565 S
C1309 C1313 1.458 . S
C1310 C1293 1.574 . S
C1310 H1304 0.949 . S
C1310 C1314 1.368 . S
C1311 C1292 1.429 1_655 S
C1311 C1305 1.429 . S
C1311 C1312 1.523 . S
C1312 C1293 1.368 . S
C1312 C1306 1.368 . S
C1312 C1311 1.523 . S
C1313 C1297 1.429 . S
C1313 C1309 1.458 . S
C1313 C1314 1.523 . S
C1314 C1298 1.368 . S
C1314 C1310 1.368 . S
C1314 C1313 1.523 . S
H1315 C1290 0.950 . S
H1316 C1292 0.950 . S
H1317 C1293 0.949 . S
H1318 C1295 0.950 . S
H1319 C1297 0.950 . S
C1320 C1321 1.349 . S
C1320 C1322 1.327 . S
C1320 H1345 0.950 . S
C1321 C1320 1.349 . S
C1321 C1337 1.349 . S
C1322 C1320 1.327 . S
C1322 C1341 1.429 . S
C1322 H1346 0.950 . S
C1323 C1340 1.574 . S
C1323 C1342 1.368 . S
C1323 H1347 0.949 . S
H1324 C1328 0.949 . S
C1325 C1326 1.349 . S
C1325 C1327 1.327 . S
C1325 H1348 0.950 . S
C1326 C1325 1.349 . S
C1326 C1338 1.349 . S
C1327 C1325 1.327 . S
C1327 C1343 1.429 . S
C1327 H1349 0.950 . S
C1328 H1324 0.949 . S
C1328 C1336 1.574 . S
C1328 C1344 1.368 . S
H1329 C1337 0.950 . S
H1330 C1335 0.950 . S
H1331 C1336 0.949 . S
H1332 C1338 0.950 . S
H1333 C1339 0.950 . S
H1334 C1340 0.949 . S
C1335 H1330 0.950 . S
C1335 C1337 1.327 . S
C1335 C1341 1.429 . S
C1336 C1328 1.574 . S
C1336 H1331 0.949 . S
C1336 C1342 1.368 . S
C1337 C1321 1.349 . S
C1337 H1329 0.950 . S
C1337 C1335 1.327 . S
C1338 C1326 1.349 . S
C1338 H1332 0.950 . S
C1338 C1339 1.327 . S
C1339 H1333 0.950 . S
C1339 C1338 1.327 . S
C1339 C1343 1.429 . S
C1340 C1323 1.574 . S
C1340 H1334 0.949 . S
C1340 C1344 1.368 . S
C1341 C1322 1.429 . S
C1341 C1335 1.429 . S
C1341 C1342 1.523 . S
C1342 C1323 1.368 . S
C1342 C1336 1.368 . S
C1342 C1341 1.523 . S
C1343 C1327 1.429 . S
C1343 C1339 1.429 . S
C1343 C1344 1.523 . S
C1344 C1328 1.368 . S
C1344 C1340 1.368 . S
C1344 C1343 1.523 . S
H1345 C1320 0.950 . S
H1346 C1322 0.950 . S
H1347 C1323 0.949 . S
H1348 C1325 0.950 . S
H1349 C1327 0.950 . S
C1350 C1351 1.349 . S
C1350 C1352 1.327 . S
C1350 H1375 0.950 . S
C1351 C1350 1.349 . S
C1351 C1367 1.349 . S
C1352 C1350 1.327 . S
C1352 C1371 1.429 . S
C1352 H1376 0.950 . S
C1353 C1370 1.574 . S
C1353 C1372 1.368 . S
C1353 H1377 0.949 . S
H1354 C1358 0.949 . S
C1355 C1356 1.349 . S
C1355 C1357 1.327 . S
C1355 H1378 0.950 . S
C1356 C1355 1.349 . S
C1356 C1368 1.349 . S
C1357 C1355 1.327 . S
C1357 C1373 1.429 . S
C1357 H1379 0.950 . S
C1358 H1354 0.949 . S
C1358 C1366 1.574 . S
C1358 C1374 1.368 . S
H1359 C1367 0.950 . S
H1360 C1365 0.950 . S
H1361 C1366 0.949 . S
H1362 C1368 0.950 . S
H1363 C1369 0.950 . S
H1364 C1370 0.949 . S
C1365 H1360 0.950 . S
C1365 C1367 1.327 . S
C1365 C1371 1.429 . S
C1366 C1358 1.574 . S
C1366 H1361 0.949 . S
C1366 C1372 1.368 . S
C1367 C1351 1.349 . S
C1367 H1359 0.950 . S
C1367 C1365 1.327 . S
C1368 C1356 1.349 . S
C1368 H1362 0.950 . S
C1368 C1369 1.327 . S
C1369 H1363 0.950 . S
C1369 C1368 1.327 . S
C1369 C1373 1.429 . S
C1370 C1353 1.574 . S
C1370 H1364 0.949 . S
C1370 C1374 1.368 . S
C1371 C1352 1.429 . S
C1371 C1365 1.429 . S
C1371 C1372 1.523 . S
C1372 C1353 1.368 . S
C1372 C1366 1.368 . S
C1372 C1371 1.523 . S
C1373 C1357 1.429 . S
C1373 C1369 1.429 . S
C1373 C1374 1.523 . S
C1374 C1358 1.368 . S
C1374 C1370 1.368 . S
C1374 C1373 1.523 . S
H1375 C1350 0.950 . S
H1376 C1352 0.950 . S
H1377 C1353 0.949 . S
H1378 C1355 0.950 . S
H1379 C1357 0.950 . S
C1380 C1381 1.349 . S
C1380 C1382 1.327 . S
C1380 H1405 0.950 . S
C1381 C1380 1.349 . S
C1381 C1397 1.349 . S
C1382 C1380 1.327 . S
C1382 C1401 1.429 . S
C1382 H1406 0.950 . S
C1383 C1400 1.574 . S
C1383 C1402 1.368 . S
C1383 H1407 0.949 . S
H1384 C1388 0.949 . S
C1385 C1386 1.349 . S
C1385 C1387 1.327 . S
C1385 H1408 0.950 . S
C1386 C1385 1.349 . S
C1386 C1398 1.349 . S
C1387 C1385 1.327 . S
C1387 C1403 1.429 . S
C1387 H1409 0.950 . S
C1388 H1384 0.949 . S
C1388 C1396 1.574 . S
C1388 C1404 1.368 . S
H1389 C1397 0.950 . S
H1390 C1395 0.950 . S
H1391 C1396 0.949 . S
H1392 C1398 0.950 . S
H1393 C1399 0.950 . S
H1394 C1400 0.949 . S
C1395 H1390 0.950 . S
C1395 C1397 1.327 . S
C1395 C1401 1.429 . S
C1396 C1388 1.574 . S
C1396 H1391 0.949 . S
C1396 C1402 1.368 . S
C1397 C1381 1.349 . S
C1397 H1389 0.950 . S
C1397 C1395 1.327 . S
C1398 C1386 1.349 . S
C1398 H1392 0.950 . S
C1398 C1399 1.327 . S
C1399 H1393 0.950 . S
C1399 C1398 1.327 . S
C1399 C1403 1.429 . S
C1400 C1383 1.574 . S
C1400 H1394 0.949 . S
C1400 C1404 1.368 . S
C1401 C1382 1.429 . S
C1401 C1395 1.429 . S
C1401 C1402 1.523 . S
C1402 C1383 1.368 . S
C1402 C1396 1.368 . S
C1402 C1401 1.523 . S
C1403 C1387 1.429 . S
C1403 C1399 1.429 . S
C1403 C1404 1.523 . S
C1404 C1388 1.368 . S
C1404 C1400 1.368 . S
C1404 C1403 1.523 . S
H1405 C1380 0.950 . S
H1406 C1382 0.950 . S
H1407 C1383 0.949 . S
H1408 C1385 0.950 . S
H1409 C1387 0.950 . S
C1410 C1411 1.349 . S
C1410 C1412 1.327 . S
C1410 H1435 0.950 . S
C1411 C1410 1.349 . S
C1411 C1427 1.349 . S
C1412 C1410 1.327 . S
C1412 C1431 1.429 . S
C1412 H1436 0.950 . S
C1413 C1430 1.574 . S
C1413 C1432 1.368 . S
C1413 H1437 0.949 . S
H1414 C1418 0.949 . S
C1415 C1416 1.349 . S
C1415 C1417 1.327 . S
C1415 H1438 0.950 1_565 S
C1416 C1415 1.349 . S
C1416 C1428 1.349 . S
C1417 C1415 1.327 . S
C1417 C1433 1.429 . S
C1417 H1439 0.950 1_565 S
C1418 H1414 0.949 . S
C1418 C1426 1.574 . S
C1418 C1434 1.368 . S
H1419 C1427 0.950 . S
H1420 C1425 0.950 . S
H1421 C1426 0.949 . S
H1422 C1428 0.950 . S
H1423 C1429 0.950 . S
H1424 C1430 0.949 1_545 S
C1425 H1420 0.950 . S
C1425 C1427 1.327 . S
C1425 C1431 1.429 . S
C1426 C1418 1.574 . S
C1426 H1421 0.949 . S
C1426 C1432 1.368 . S
C1427 C1411 1.349 . S
C1427 H1419 0.950 . S
C1427 C1425 1.327 . S
C1428 C1416 1.349 . S
C1428 H1422 0.950 . S
C1428 C1429 1.327 . S
C1429 H1423 0.950 . S
C1429 C1428 1.327 . S
C1429 C1433 1.429 . S
C1430 C1413 1.574 . S
C1430 H1424 0.949 1_565 S
C1430 C1434 1.368 . S
C1431 C1412 1.429 . S
C1431 C1425 1.429 . S
C1431 C1432 1.523 . S
C1432 C1413 1.368 . S
C1432 C1426 1.368 . S
C1432 C1431 1.523 . S
C1433 C1417 1.429 . S
C1433 C1429 1.429 . S
C1433 C1434 1.523 . S
C1434 C1418 1.368 . S
C1434 C1430 1.368 . S
C1434 C1433 1.523 . S
H1435 C1410 0.950 . S
H1436 C1412 0.950 . S
H1437 C1413 0.949 . S
H1438 C1415 0.950 1_545 S
H1439 C1417 0.950 1_545 S
C1440 C1441 1.349 . S
C1440 C1442 1.327 . S
C1440 H1465 0.950 . S
C1441 C1440 1.349 . S
C1441 C1457 1.349 . S
C1442 C1440 1.327 . S
C1442 C1461 1.429 . S
C1442 H1466 0.950 . S
C1443 C1460 1.574 . S
C1443 C1462 1.368 . S
C1443 H1467 0.949 . S
H1444 C1448 0.949 . S
C1445 C1446 1.349 . S
C1445 C1447 1.327 . S
C1445 H1468 0.950 . S
C1446 C1445 1.349 . S
C1446 C1458 1.349 . S
C1447 C1445 1.327 . S
C1447 C1463 1.429 . S
C1447 H1469 0.950 . S
C1448 H1444 0.949 . S
C1448 C1456 1.574 . S
C1448 C1464 1.368 . S
H1449 C1457 0.950 . S
H1450 C1455 0.950 . S
H1451 C1456 0.949 . S
H1452 C1458 0.950 . S
H1453 C1459 0.950 . S
H1454 C1460 0.949 . S
C1455 H1450 0.950 . S
C1455 C1457 1.327 . S
C1455 C1461 1.429 . S
C1456 C1448 1.574 . S
C1456 H1451 0.949 . S
C1456 C1462 1.368 . S
C1457 C1441 1.349 . S
C1457 H1449 0.950 . S
C1457 C1455 1.327 . S
C1458 C1446 1.349 . S
C1458 H1452 0.950 . S
C1458 C1459 1.327 . S
C1459 H1453 0.950 . S
C1459 C1458 1.327 . S
C1459 C1463 1.429 . S
C1460 C1443 1.574 . S
C1460 H1454 0.949 . S
C1460 C1464 1.368 . S
C1461 C1442 1.429 . S
C1461 C1455 1.429 . S
C1461 C1462 1.523 . S
C1462 C1443 1.368 . S
C1462 C1456 1.368 . S
C1462 C1461 1.523 . S
C1463 C1447 1.429 . S
C1463 C1459 1.429 . S
C1463 C1464 1.523 . S
C1464 C1448 1.368 . S
C1464 C1460 1.368 . S
C1464 C1463 1.523 . S
H1465 C1440 0.950 . S
H1466 C1442 0.950 . S
H1467 C1443 0.949 . S
H1468 C1445 0.950 . S
H1469 C1447 0.950 . S
C1470 C1471 1.349 . S
C1470 C1472 1.327 . S
C1470 H1495 0.950 . S
C1471 C1470 1.349 . S
C1471 C1487 1.349 . S
C1472 C1470 1.327 . S
C1472 C1491 1.429 . S
C1472 H1496 0.950 . S
C1473 C1490 1.574 . S
C1473 C1492 1.368 . S
C1473 H1497 0.949 . S
H1474 C1478 0.949 . S
C1475 C1476 1.349 . S
C1475 C1477 1.327 . S
C1475 H1498 0.950 . S
C1476 C1475 1.349 . S
C1476 C1488 1.349 . S
C1477 C1475 1.327 . S
C1477 C1493 1.429 . S
C1477 H1499 0.950 . S
C1478 H1474 0.949 . S
C1478 C1486 1.574 . S
C1478 C1494 1.368 . S
H1479 C1487 0.950 . S
H1480 C1485 0.950 . S
H1481 C1486 0.949 . S
H1482 C1488 0.950 . S
H1483 C1489 0.950 . S
H1484 C1490 0.949 . S
C1485 H1480 0.950 . S
C1485 C1487 1.327 . S
C1485 C1491 1.429 . S
C1486 C1478 1.574 . S
C1486 H1481 0.949 . S
C1486 C1492 1.368 . S
C1487 C1471 1.349 . S
C1487 H1479 0.950 . S
C1487 C1485 1.327 . S
C1488 C1476 1.349 . S
C1488 H1482 0.950 . S
C1488 C1489 1.327 . S
C1489 H1483 0.950 . S
C1489 C1488 1.327 . S
C1489 C1493 1.429 . S
C1490 C1473 1.574 . S
C1490 H1484 0.949 . S
C1490 C1494 1.368 . S
C1491 C1472 1.429 . S
C1491 C1485 1.429 . S
C1491 C1492 1.523 . S
C1492 C1473 1.368 . S
C1492 C1486 1.368 . S
C1492 C1491 1.523 . S
C1493 C1477 1.429 . S
C1493 C1489 1.429 . S
C1493 C1494 1.523 . S
C1494 C1478 1.368 . S
C1494 C1490 1.368 . S
C1494 C1493 1.523 . S
H1495 C1470 0.950 . S
H1496 C1472 0.950 . S
H1497 C1473 0.949 . S
H1498 C1475 0.950 . S
H1499 C1477 0.950 . S
C1500 C1501 1.349 . S
C1500 C1502 1.327 . S
C1500 H1525 0.950 . S
C1501 C1500 1.349 . S
C1501 C1517 1.349 . S
C1502 C1500 1.327 . S
C1502 C1521 1.429 . S
C1502 H1526 0.950 . S
C1503 C1520 1.574 . S
C1503 C1522 1.368 . S
C1503 H1527 0.949 . S
H1504 C1508 0.949 . S
C1505 C1506 1.349 . S
C1505 C1507 1.327 . S
C1505 H1528 0.950 . S
C1506 C1505 1.349 . S
C1506 C1518 1.349 . S
C1507 C1505 1.327 . S
C1507 C1523 1.429 . S
C1507 H1529 0.950 . S
C1508 H1504 0.949 . S
C1508 C1516 1.574 . S
C1508 C1524 1.368 . S
H1509 C1517 0.950 . S
H1510 C1515 0.950 . S
H1511 C1516 0.949 . S
H1512 C1518 0.950 . S
H1513 C1519 0.950 . S
H1514 C1520 0.949 . S
C1515 H1510 0.950 . S
C1515 C1517 1.327 . S
C1515 C1521 1.429 . S
C1516 C1508 1.574 . S
C1516 H1511 0.949 . S
C1516 C1522 1.368 . S
C1517 C1501 1.349 . S
C1517 H1509 0.950 . S
C1517 C1515 1.327 . S
C1518 C1506 1.349 . S
C1518 H1512 0.950 . S
C1518 C1519 1.327 . S
C1519 H1513 0.950 . S
C1519 C1518 1.327 . S
C1519 C1523 1.429 . S
C1520 C1503 1.574 . S
C1520 H1514 0.949 . S
C1520 C1524 1.368 . S
C1521 C1502 1.429 . S
C1521 C1515 1.429 . S
C1521 C1522 1.523 . S
C1522 C1503 1.368 . S
C1522 C1516 1.368 . S
C1522 C1521 1.523 . S
C1523 C1507 1.429 . S
C1523 C1519 1.429 . S
C1523 C1524 1.523 . S
C1524 C1508 1.368 . S
C1524 C1520 1.368 . S
C1524 C1523 1.523 . S
H1525 C1500 0.950 . S
H1526 C1502 0.950 . S
H1527 C1503 0.949 . S
H1528 C1505 0.950 . S
H1529 C1507 0.950 . S
C1530 C1531 1.349 . S
C1530 C1532 1.327 . S
C1530 H1555 0.950 . S
C1531 C1530 1.349 . S
C1531 C1547 1.349 . S
C1532 C1530 1.327 . S
C1532 C1551 1.429 . S
C1532 H1556 0.950 . S
C1533 C1550 1.574 . S
C1533 C1552 1.368 . S
C1533 H1557 0.949 . S
H1534 C1538 0.949 . S
C1535 C1536 1.349 . S
C1535 C1537 1.327 . S
C1535 H1558 0.950 . S
C1536 C1535 1.349 . S
C1536 C1548 1.349 . S
C1537 C1535 1.327 . S
C1537 C1553 1.429 . S
C1537 H1559 0.950 . S
C1538 H1534 0.949 . S
C1538 C1546 1.574 . S
C1538 C1554 1.368 . S
H1539 C1547 0.950 . S
H1540 C1545 0.950 . S
H1541 C1546 0.949 . S
H1542 C1548 0.950 . S
H1543 C1549 0.950 . S
H1544 C1550 0.949 . S
C1545 H1540 0.950 . S
C1545 C1547 1.327 . S
C1545 C1551 1.429 . S
C1546 C1538 1.574 . S
C1546 H1541 0.949 . S
C1546 C1552 1.368 . S
C1547 C1531 1.349 . S
C1547 H1539 0.950 . S
C1547 C1545 1.327 . S
C1548 C1536 1.349 . S
C1548 H1542 0.950 . S
C1548 C1549 1.327 . S
C1549 H1543 0.950 . S
C1549 C1548 1.327 . S
C1549 C1553 1.429 . S
C1550 C1533 1.574 . S
C1550 H1544 0.949 . S
C1550 C1554 1.368 . S
C1551 C1532 1.429 . S
C1551 C1545 1.429 . S
C1551 C1552 1.523 . S
C1552 C1533 1.368 . S
C1552 C1546 1.368 . S
C1552 C1551 1.523 . S
C1553 C1537 1.429 . S
C1553 C1549 1.429 . S
C1553 C1554 1.523 . S
C1554 C1538 1.368 . S
C1554 C1550 1.368 . S
C1554 C1553 1.523 . S
H1555 C1530 0.950 . S
H1556 C1532 0.950 . S
H1557 C1533 0.949 . S
H1558 C1535 0.950 . S
H1559 C1537 0.950 . S
C1560 C1561 1.349 . S
C1560 C1562 1.327 . S
C1560 H1585 0.950 . S
C1561 C1560 1.349 . S
C1561 C1577 1.349 . S
C1562 C1560 1.327 . S
C1562 C1581 1.429 . S
C1562 H1586 0.950 . S
C1563 C1580 1.574 . S
C1563 C1582 1.368 . S
C1563 H1587 0.949 . S
H1564 C1568 0.949 . S
C1565 C1566 1.349 . S
C1565 C1567 1.327 . S
C1565 H1588 0.950 . S
C1566 C1565 1.349 . S
C1566 C1578 1.349 . S
C1567 C1565 1.327 . S
C1567 C1583 1.429 . S
C1567 H1589 0.950 . S
C1568 H1564 0.949 . S
C1568 C1576 1.574 . S
C1568 C1584 1.368 . S
H1569 C1577 0.950 . S
H1570 C1575 0.950 . S
H1571 C1576 0.949 . S
H1572 C1578 0.950 . S
H1573 C1579 0.950 . S
H1574 C1580 0.949 . S
C1575 H1570 0.950 . S
C1575 C1577 1.327 . S
C1575 C1581 1.429 . S
C1576 C1568 1.574 . S
C1576 H1571 0.949 . S
C1576 C1582 1.368 . S
C1577 C1561 1.349 . S
C1577 H1569 0.950 . S
C1577 C1575 1.327 . S
C1578 C1566 1.349 . S
C1578 H1572 0.950 . S
C1578 C1579 1.327 . S
C1579 H1573 0.950 . S
C1579 C1578 1.327 . S
C1579 C1583 1.429 . S
C1580 C1563 1.574 . S
C1580 H1574 0.949 . S
C1580 C1584 1.368 . S
C1581 C1562 1.429 . S
C1581 C1575 1.429 . S
C1581 C1582 1.523 . S
C1582 C1563 1.368 . S
C1582 C1576 1.368 . S
C1582 C1581 1.523 . S
C1583 C1567 1.429 . S
C1583 C1579 1.429 . S
C1583 C1584 1.523 . S
C1584 C1568 1.368 . S
C1584 C1580 1.368 . S
C1584 C1583 1.523 . S
H1585 C1560 0.950 . S
H1586 C1562 0.950 . S
H1587 C1563 0.949 . S
H1588 C1565 0.950 . S
H1589 C1567 0.950 . S
C1590 C1591 1.349 . S
C1590 C1592 1.327 . S
C1590 H1615 0.950 . S
C1591 C1590 1.349 . S
C1591 C1607 1.349 . S
C1592 C1590 1.327 . S
C1592 C1611 1.429 . S
C1592 H1616 0.950 . S
C1593 C1610 1.574 . S
C1593 C1612 1.368 . S
C1593 H1617 0.978 . S
H1594 C1598 0.949 . S
C1595 C1596 1.382 . S
C1595 C1597 1.333 . S
C1595 H1618 0.913 1_455 S
C1596 C1595 1.382 . S
C1596 C1608 1.349 . S
C1597 C1595 1.333 . S
C1597 C1613 1.429 . S
C1597 H1619 0.950 1_455 S
C1598 H1594 0.949 . S
C1598 C1606 1.574 . S
C1598 C1614 1.368 . S
H1599 C1607 0.950 . S
H1600 C1605 0.950 . S
H1601 C1606 0.949 . S
H1602 C1608 0.950 . S
H1603 C1609 0.950 . S
H1604 C1610 0.949 1_655 S
C1605 H1600 0.950 . S
C1605 C1607 1.327 . S
C1605 C1611 1.429 . S
C1606 C1598 1.574 . S
C1606 H1601 0.949 . S
C1606 C1612 1.368 . S
C1607 C1591 1.349 . S
C1607 H1599 0.950 . S
C1607 C1605 1.327 . S
C1608 C1596 1.349 . S
C1608 H1602 0.950 . S
C1608 C1609 1.327 . S
C1609 H1603 0.950 . S
C1609 C1608 1.327 . S
C1609 C1613 1.429 . S
C1610 C1593 1.574 . S
C1610 H1604 0.949 1_455 S
C1610 C1614 1.368 . S
C1611 C1592 1.429 . S
C1611 C1605 1.429 . S
C1611 C1612 1.523 . S
C1612 C1593 1.368 . S
C1612 C1606 1.368 . S
C1612 C1611 1.523 . S
C1613 C1597 1.429 . S
C1613 C1609 1.429 . S
C1613 C1614 1.523 . S
C1614 C1598 1.368 . S
C1614 C1610 1.368 . S
C1614 C1613 1.523 . S
H1615 C1590 0.950 . S
H1616 C1592 0.950 . S
H1617 C1593 0.978 . S
H1618 C1595 0.913 1_655 S
H1619 C1597 0.950 1_655 S
C1620 C1621 1.349 . S
C1620 C1622 1.327 . S
C1620 H1645 0.950 . S
C1621 C1620 1.349 . S
C1621 C1637 1.349 . S
C1622 C1620 1.327 . S
C1622 C1641 1.429 . S
C1622 H1646 0.950 . S
C1623 C1640 1.574 . S
C1623 C1642 1.368 . S
C1623 H1647 0.949 . S
H1624 C1628 0.949 . S
C1625 C1626 1.349 . S
C1625 C1627 1.327 . S
C1625 H1648 0.950 . S
C1626 C1625 1.349 . S
C1626 C1638 1.349 . S
C1627 C1625 1.327 . S
C1627 C1643 1.429 . S
C1627 H1649 0.950 . S
C1628 H1624 0.949 . S
C1628 C1636 1.574 . S
C1628 C1644 1.368 . S
H1629 C1637 0.950 . S
H1630 C1635 0.950 . S
H1631 C1636 0.949 . S
H1632 C1638 0.950 . S
H1633 C1639 0.950 . S
H1634 C1640 0.949 . S
C1635 H1630 0.950 . S
C1635 C1637 1.327 . S
C1635 C1641 1.429 . S
C1636 C1628 1.574 . S
C1636 H1631 0.949 . S
C1636 C1642 1.368 . S
C1637 C1621 1.349 . S
C1637 H1629 0.950 . S
C1637 C1635 1.327 . S
C1638 C1626 1.349 . S
C1638 H1632 0.950 . S
C1638 C1639 1.327 . S
C1639 H1633 0.950 . S
C1639 C1638 1.327 . S
C1639 C1643 1.429 . S
C1640 C1623 1.574 . S
C1640 H1634 0.949 . S
C1640 C1644 1.368 . S
C1641 C1622 1.429 . S
C1641 C1635 1.429 . S
C1641 C1642 1.523 . S
C1642 C1623 1.368 . S
C1642 C1636 1.368 . S
C1642 C1641 1.523 . S
C1643 C1627 1.429 . S
C1643 C1639 1.429 . S
C1643 C1644 1.523 . S
C1644 C1628 1.368 . S
C1644 C1640 1.368 . S
C1644 C1643 1.523 . S
H1645 C1620 0.950 . S
H1646 C1622 0.950 . S
H1647 C1623 0.949 . S
H1648 C1625 0.950 . S
H1649 C1627 0.950 . S
C1650 C1651 1.349 . S
C1650 C1652 1.327 . S
C1650 H1675 0.950 . S
C1651 C1650 1.349 . S
C1651 C1667 1.349 . S
C1652 C1650 1.327 . S
C1652 C1671 1.429 . S
C1652 H1676 0.950 . S
C1653 C1670 1.574 . S
C1653 C1672 1.368 . S
C1653 H1677 0.949 . S
H1654 C1658 0.949 . S
C1655 C1656 1.349 . S
C1655 C1657 1.327 . S
C1655 H1678 0.974 . S
C1656 C1655 1.349 . S
C1656 C1668 1.349 . S
C1657 C1655 1.327 . S
C1657 C1673 1.429 . S
C1657 H1679 0.950 . S
C1658 H1654 0.949 . S
C1658 C1666 1.574 . S
C1658 C1674 1.368 . S
H1659 C1667 0.950 . S
H1660 C1665 0.950 . S
H1661 C1666 0.949 . S
H1662 C1668 0.950 . S
H1663 C1669 0.950 . S
H1664 C1670 0.949 . S
C1665 H1660 0.950 . S
C1665 C1667 1.327 . S
C1665 C1671 1.429 . S
C1666 C1658 1.574 . S
C1666 H1661 0.949 . S
C1666 C1672 1.368 . S
C1667 C1651 1.349 . S
C1667 H1659 0.950 . S
C1667 C1665 1.327 . S
C1668 C1656 1.349 . S
C1668 H1662 0.950 . S
C1668 C1669 1.327 . S
C1669 H1663 0.950 . S
C1669 C1668 1.327 . S
C1669 C1673 1.429 . S
C1670 C1653 1.574 . S
C1670 H1664 0.949 . S
C1670 C1674 1.368 . S
C1671 C1652 1.429 . S
C1671 C1665 1.429 . S
C1671 C1672 1.523 . S
C1672 C1653 1.368 . S
C1672 C1666 1.368 . S
C1672 C1671 1.523 . S
C1673 C1657 1.429 . S
C1673 C1669 1.429 . S
C1673 C1674 1.523 . S
C1674 C1658 1.368 . S
C1674 C1670 1.368 . S
C1674 C1673 1.523 . S
H1675 C1650 0.950 . S
H1676 C1652 0.950 . S
H1677 C1653 0.949 . S
H1678 C1655 0.974 . S
H1679 C1657 0.950 . S
C1680 C1681 1.349 . S
C1680 C1682 1.327 . S
C1680 H1705 0.950 . S
C1681 C1680 1.349 . S
C1681 C1697 1.349 . S
C1682 C1680 1.327 . S
C1682 C1701 1.429 . S
C1682 H1706 0.950 . S
C1683 C1700 1.574 . S
C1683 C1702 1.368 . S
C1683 H1707 0.949 . S
H1684 C1688 0.949 . S
C1685 C1686 1.349 . S
C1685 C1687 1.327 . S
C1685 H1708 0.950 . S
C1686 C1685 1.349 . S
C1686 C1698 1.349 . S
C1687 C1685 1.327 . S
C1687 C1703 1.429 . S
C1687 H1709 0.950 . S
C1688 H1684 0.949 . S
C1688 C1696 1.574 . S
C1688 C1704 1.368 . S
H1689 C1697 0.950 . S
H1690 C1695 0.950 . S
H1691 C1696 0.949 . S
H1692 C1698 0.950 . S
H1693 C1699 0.950 . S
H1694 C1700 0.949 . S
C1695 H1690 0.950 . S
C1695 C1697 1.327 . S
C1695 C1701 1.429 . S
C1696 C1688 1.574 . S
C1696 H1691 0.949 . S
C1696 C1702 1.368 . S
C1697 C1681 1.349 . S
C1697 H1689 0.950 . S
C1697 C1695 1.327 . S
C1698 C1686 1.349 . S
C1698 H1692 0.950 . S
C1698 C1699 1.327 . S
C1699 H1693 0.950 . S
C1699 C1698 1.327 . S
C1699 C1703 1.429 . S
C1700 C1683 1.574 . S
C1700 H1694 0.949 . S
C1700 C1704 1.368 . S
C1701 C1682 1.429 . S
C1701 C1695 1.429 . S
C1701 C1702 1.523 . S
C1702 C1683 1.368 . S
C1702 C1696 1.368 . S
C1702 C1701 1.523 . S
C1703 C1687 1.429 . S
C1703 C1699 1.429 . S
C1703 C1704 1.523 . S
C1704 C1688 1.368 . S
C1704 C1700 1.368 . S
C1704 C1703 1.523 . S
H1705 C1680 0.950 . S
H1706 C1682 0.950 . S
H1707 C1683 0.949 . S
H1708 C1685 0.950 . S
H1709 C1687 0.950 . S
C1710 C1711 1.349 . S
C1710 C1712 1.327 . S
C1710 H1735 0.950 . S
C1711 C1710 1.349 . S
C1711 C1727 1.349 . S
C1712 C1710 1.327 . S
C1712 C1731 1.429 . S
C1712 H1736 0.950 . S
C1713 C1730 1.574 . S
C1713 C1732 1.368 . S
C1713 H1737 0.949 . S
H1714 C1718 0.949 . S
C1715 C1716 1.349 . S
C1715 C1717 1.327 . S
C1715 H1738 0.950 . S
C1716 C1715 1.349 . S
C1716 C1728 1.349 . S
C1717 C1715 1.327 . S
C1717 C1733 1.429 . S
C1717 H1739 0.950 . S
C1718 H1714 0.949 . S
C1718 C1726 1.574 . S
C1718 C1734 1.368 . S
H1719 C1727 0.950 . S
H1720 C1725 0.950 . S
H1721 C1726 0.949 . S
H1722 C1728 0.950 . S
H1723 C1729 0.950 . S
H1724 C1730 0.949 . S
C1725 H1720 0.950 . S
C1725 C1727 1.327 . S
C1725 C1731 1.429 . S
C1726 C1718 1.574 . S
C1726 H1721 0.949 . S
C1726 C1732 1.368 . S
C1727 C1711 1.349 . S
C1727 H1719 0.950 . S
C1727 C1725 1.327 . S
C1728 C1716 1.349 . S
C1728 H1722 0.950 . S
C1728 C1729 1.327 . S
C1729 H1723 0.950 . S
C1729 C1728 1.327 . S
C1729 C1733 1.429 . S
C1730 C1713 1.574 . S
C1730 H1724 0.949 . S
C1730 C1734 1.368 . S
C1731 C1712 1.429 . S
C1731 C1725 1.429 . S
C1731 C1732 1.523 . S
C1732 C1713 1.368 . S
C1732 C1726 1.368 . S
C1732 C1731 1.523 . S
C1733 C1717 1.429 . S
C1733 C1729 1.429 . S
C1733 C1734 1.523 . S
C1734 C1718 1.368 . S
C1734 C1730 1.368 . S
C1734 C1733 1.523 . S
H1735 C1710 0.950 . S
H1736 C1712 0.950 . S
H1737 C1713 0.949 . S
H1738 C1715 0.950 . S
H1739 C1717 0.950 . S
C1740 C1741 1.349 . S
C1740 C1742 1.327 . S
C1740 H1765 0.950 . S
C1741 C1740 1.349 . S
C1741 C1757 1.305 1_545 S
C1742 C1740 1.327 . S
C1742 C1761 1.429 1_545 S
C1742 H1766 0.950 . S
C1743 C1760 1.574 . S
C1743 C1762 1.368 . S
C1743 H1767 0.949 . S
H1744 C1748 0.949 1_554 S
C1745 C1746 1.349 . S
C1745 C1747 1.327 . S
C1745 H1768 0.950 . S
C1746 C1745 1.349 . S
C1746 C1758 1.341 1_556 S
C1747 C1745 1.327 . S
C1747 C1763 1.429 . S
C1747 H1769 0.950 . S
C1748 H1744 0.949 1_556 S
C1748 C1756 1.574 . S
C1748 C1764 1.368 . S
H1749 C1757 0.960 . S
H1750 C1755 0.950 . S
H1751 C1756 0.905 1_554 S
H1752 C1758 0.959 . S
H1753 C1759 0.950 1_554 S
H1754 C1760 0.949 . S
C1755 H1750 0.950 . S
C1755 C1757 1.365 . S
C1755 C1761 1.429 . S
C1756 C1748 1.574 . S
C1756 H1751 0.905 1_556 S
C1756 C1762 1.368 . S
C1757 C1741 1.305 1_565 S
C1757 H1749 0.960 . S
C1757 C1755 1.365 . S
C1758 C1746 1.341 1_554 S
C1758 H1752 0.959 . S
C1758 C1759 1.326 1_554 S
C1759 H1753 0.950 1_556 S
C1759 C1758 1.326 1_556 S
C1759 C1763 1.429 . S
C1760 C1743 1.574 . S
C1760 H1754 0.949 . S
C1760 C1764 1.368 . S
C1761 C1742 1.429 1_565 S
C1761 C1755 1.429 . S
C1761 C1762 1.523 . S
C1762 C1743 1.368 . S
C1762 C1756 1.368 . S
C1762 C1761 1.523 . S
C1763 C1747 1.429 . S
C1763 C1759 1.429 . S
C1763 C1764 1.523 . S
C1764 C1748 1.368 . S
C1764 C1760 1.368 . S
C1764 C1763 1.523 . S
H1765 C1740 0.950 . S
H1766 C1742 0.950 . S
H1767 C1743 0.949 . S
H1768 C1745 0.950 . S
H1769 C1747 0.950 . S
C1770 C1771 1.349 . S
C1770 C1772 1.327 . S
C1770 H1795 0.950 . S
C1771 C1770 1.349 . S
C1771 C1787 1.349 . S
C1772 C1770 1.327 . S
C1772 C1791 1.429 . S
C1772 H1796 0.950 . S
C1773 C1790 1.574 . S
C1773 C1792 1.368 . S
C1773 H1797 0.949 . S
H1774 C1778 0.949 . S
C1775 C1776 1.349 . S
C1775 C1777 1.327 . S
C1775 H1798 0.950 . S
C1776 C1775 1.349 . S
C1776 C1788 1.349 . S
C1777 C1775 1.327 . S
C1777 C1793 1.429 . S
C1777 H1799 0.950 . S
C1778 H1774 0.949 . S
C1778 C1786 1.574 . S
C1778 C1794 1.368 . S
H1779 C1787 0.950 . S
H1780 C1785 0.950 . S
H1781 C1786 0.949 . S
H1782 C1788 0.950 . S
H1783 C1789 0.950 . S
H1784 C1790 0.949 . S
C1785 H1780 0.950 . S
C1785 C1787 1.327 . S
C1785 C1791 1.429 . S
C1786 C1778 1.574 . S
C1786 H1781 0.949 . S
C1786 C1792 1.368 . S
C1787 C1771 1.349 . S
C1787 H1779 0.950 . S
C1787 C1785 1.327 . S
C1788 C1776 1.349 . S
C1788 H1782 0.950 . S
C1788 C1789 1.327 . S
C1789 H1783 0.950 . S
C1789 C1788 1.327 . S
C1789 C1793 1.429 . S
C1790 C1773 1.574 . S
C1790 H1784 0.949 . S
C1790 C1794 1.368 . S
C1791 C1772 1.429 . S
C1791 C1785 1.429 . S
C1791 C1792 1.523 . S
C1792 C1773 1.368 . S
C1792 C1786 1.368 . S
C1792 C1791 1.523 . S
C1793 C1777 1.429 . S
C1793 C1789 1.429 . S
C1793 C1794 1.523 . S
C1794 C1778 1.368 . S
C1794 C1790 1.368 . S
C1794 C1793 1.523 . S
H1795 C1770 0.950 . S
H1796 C1772 0.950 . S
H1797 C1773 0.949 . S
H1798 C1775 0.950 . S
H1799 C1777 0.950 . S
C1800 C1801 1.349 . S
C1800 C1802 1.327 . S
C1800 H1825 0.950 . S
C1801 C1800 1.349 . S
C1801 C1817 1.349 1_565 S
C1802 C1800 1.327 . S
C1802 C1821 1.429 1_565 S
C1802 H1826 0.950 . S
C1803 C1820 1.574 . S
C1803 C1822 1.368 . S
C1803 H1827 0.949 . S
H1804 C1808 0.949 . S
C1805 C1806 1.349 . S
C1805 C1807 1.327 . S
C1805 H1828 0.950 . S
C1806 C1805 1.349 . S
C1806 C1818 1.349 . S
C1807 C1805 1.327 . S
C1807 C1823 1.429 . S
C1807 H1829 0.950 . S
C1808 H1804 0.949 . S
C1808 C1816 1.574 . S
C1808 C1824 1.368 . S
H1809 C1817 0.950 . S
H1810 C1815 0.950 . S
H1811 C1816 0.949 . S
H1812 C1818 0.950 . S
H1813 C1819 0.950 . S
H1814 C1820 0.949 . S
C1815 H1810 0.950 . S
C1815 C1817 1.327 . S
C1815 C1821 1.429 . S
C1816 C1808 1.574 . S
C1816 H1811 0.949 . S
C1816 C1822 1.368 . S
C1817 C1801 1.349 1_545 S
C1817 H1809 0.950 . S
C1817 C1815 1.327 . S
C1818 C1806 1.349 . S
C1818 H1812 0.950 . S
C1818 C1819 1.327 . S
C1819 H1813 0.950 . S
C1819 C1818 1.327 . S
C1819 C1823 1.429 . S
C1820 C1803 1.574 . S
C1820 H1814 0.949 . S
C1820 C1824 1.368 . S
C1821 C1802 1.429 1_545 S
C1821 C1815 1.429 . S
C1821 C1822 1.523 . S
C1822 C1803 1.368 . S
C1822 C1816 1.368 . S
C1822 C1821 1.523 . S
C1823 C1807 1.429 . S
C1823 C1819 1.429 . S
C1823 C1824 1.523 . S
C1824 C1808 1.368 . S
C1824 C1820 1.368 . S
C1824 C1823 1.523 . S
H1825 C1800 0.950 . S
H1826 C1802 0.950 . S
H1827 C1803 0.949 . S
H1828 C1805 0.950 . S
H1829 C1807 0.950 . S
C1830 C1831 1.349 . S
C1830 C1832 1.327 . S
C1830 H1855 0.950 . S
C1831 C1830 1.349 . S
C1831 C1847 1.349 . S
C1832 C1830 1.327 . S
C1832 C1851 1.429 . S
C1832 H1856 0.950 . S
C1833 C1850 1.574 . S
C1833 C1852 1.368 . S
C1833 H1857 0.949 . S
H1834 C1838 0.949 . S
C1835 C1836 1.349 . S
C1835 C1837 1.327 . S
C1835 H1858 0.950 . S
C1836 C1835 1.349 . S
C1836 C1848 1.349 . S
C1837 C1835 1.327 . S
C1837 C1853 1.429 . S
C1837 H1859 0.950 . S
C1838 H1834 0.949 . S
C1838 C1846 1.574 . S
C1838 C1854 1.368 . S
H1839 C1847 0.950 . S
H1840 C1845 0.950 . S
H1841 C1846 0.949 . S
H1842 C1848 0.950 . S
H1843 C1849 0.950 . S
H1844 C1850 0.949 . S
C1845 H1840 0.950 . S
C1845 C1847 1.327 . S
C1845 C1851 1.429 . S
C1846 C1838 1.574 . S
C1846 H1841 0.949 . S
C1846 C1852 1.368 . S
C1847 C1831 1.349 . S
C1847 H1839 0.950 . S
C1847 C1845 1.327 . S
C1848 C1836 1.349 . S
C1848 H1842 0.950 . S
C1848 C1849 1.327 . S
C1849 H1843 0.950 . S
C1849 C1848 1.327 . S
C1849 C1853 1.429 . S
C1850 C1833 1.574 . S
C1850 H1844 0.949 . S
C1850 C1854 1.368 . S
C1851 C1832 1.429 . S
C1851 C1845 1.429 . S
C1851 C1852 1.523 . S
C1852 C1833 1.368 . S
C1852 C1846 1.368 . S
C1852 C1851 1.523 . S
C1853 C1837 1.429 . S
C1853 C1849 1.429 . S
C1853 C1854 1.523 . S
C1854 C1838 1.368 . S
C1854 C1850 1.368 . S
C1854 C1853 1.523 . S
H1855 C1830 0.950 . S
H1856 C1832 0.950 . S
H1857 C1833 0.949 . S
H1858 C1835 0.950 . S
H1859 C1837 0.950 . S
C1860 C1861 1.349 1_545 S
C1860 C1862 1.327 . S
C1860 H1885 0.950 . S
C1861 C1860 1.349 1_565 S
C1861 C1877 1.349 . S
C1862 C1860 1.327 . S
C1862 C1881 1.429 . S
C1862 H1886 0.950 . S
C1863 C1880 1.574 . S
C1863 C1882 1.368 . S
C1863 H1887 0.949 . S
H1864 C1868 0.949 . S
C1865 C1866 1.349 . S
C1865 C1867 1.327 . S
C1865 H1888 0.950 . S
C1866 C1865 1.349 . S
C1866 C1878 1.349 . S
C1867 C1865 1.327 . S
C1867 C1883 1.429 . S
C1867 H1889 0.950 . S
C1868 H1864 0.949 . S
C1868 C1876 1.574 . S
C1868 C1884 1.368 . S
H1869 C1877 0.950 . S
H1870 C1875 0.950 . S
H1871 C1876 0.949 . S
H1872 C1878 0.950 . S
H1873 C1879 0.950 . S
H1874 C1880 0.949 . S
C1875 H1870 0.950 . S
C1875 C1877 1.327 . S
C1875 C1881 1.429 1_565 S
C1876 C1868 1.574 . S
C1876 H1871 0.949 . S
C1876 C1882 1.368 . S
C1877 C1861 1.349 . S
C1877 H1869 0.950 . S
C1877 C1875 1.327 . S
C1878 C1866 1.349 . S
C1878 H1872 0.950 . S
C1878 C1879 1.327 . S
C1879 H1873 0.950 . S
C1879 C1878 1.327 . S
C1879 C1883 1.429 . S
C1880 C1863 1.574 . S
C1880 H1874 0.949 . S
C1880 C1884 1.368 . S
C1881 C1862 1.429 . S
C1881 C1875 1.429 1_545 S
C1881 C1882 1.523 . S
C1882 C1863 1.368 . S
C1882 C1876 1.368 . S
C1882 C1881 1.523 . S
C1883 C1867 1.429 . S
C1883 C1879 1.429 . S
C1883 C1884 1.523 . S
C1884 C1868 1.368 . S
C1884 C1880 1.368 . S
C1884 C1883 1.523 . S
H1885 C1860 0.950 . S
H1886 C1862 0.950 . S
H1887 C1863 0.949 . S
H1888 C1865 0.950 . S
H1889 C1867 0.950 . S
C1890 C1891 1.349 . S
C1890 C1892 1.327 . S
C1890 H1915 0.950 . S
C1891 C1890 1.349 . S
C1891 C1907 1.349 . S
C1892 C1890 1.327 . S
C1892 C1911 1.429 . S
C1892 H1916 0.950 . S
C1893 C1910 1.574 . S
C1893 C1912 1.368 . S
C1893 H1917 0.949 . S
H1894 C1898 0.949 . S
C1895 C1896 1.349 . S
C1895 C1897 1.327 . S
C1895 H1918 0.950 . S
C1896 C1895 1.349 . S
C1896 C1908 1.349 . S
C1897 C1895 1.327 . S
C1897 C1913 1.429 . S
C1897 H1919 0.950 . S
C1898 H1894 0.949 . S
C1898 C1906 1.574 . S
C1898 C1914 1.368 . S
H1899 C1907 0.950 . S
H1900 C1905 0.950 . S
H1901 C1906 0.949 . S
H1902 C1908 0.950 . S
H1903 C1909 0.950 . S
H1904 C1910 0.949 . S
C1905 H1900 0.950 . S
C1905 C1907 1.327 . S
C1905 C1911 1.429 . S
C1906 C1898 1.574 . S
C1906 H1901 0.949 . S
C1906 C1912 1.368 . S
C1907 C1891 1.349 . S
C1907 H1899 0.950 . S
C1907 C1905 1.327 . S
C1908 C1896 1.349 . S
C1908 H1902 0.950 . S
C1908 C1909 1.327 . S
C1909 H1903 0.950 . S
C1909 C1908 1.327 . S
C1909 C1913 1.429 . S
C1910 C1893 1.574 . S
C1910 H1904 0.949 . S
C1910 C1914 1.368 . S
C1911 C1892 1.429 . S
C1911 C1905 1.429 . S
C1911 C1912 1.523 . S
C1912 C1893 1.368 . S
C1912 C1906 1.368 . S
C1912 C1911 1.523 . S
C1913 C1897 1.429 . S
C1913 C1909 1.429 . S
C1913 C1914 1.523 . S
C1914 C1898 1.368 . S
C1914 C1910 1.368 . S
C1914 C1913 1.523 . S
H1915 C1890 0.950 . S
H1916 C1892 0.950 . S
H1917 C1893 0.949 . S
H1918 C1895 0.950 . S
H1919 C1897 0.950 . S
C1920 C1921 1.349 . S
C1920 C1922 1.327 . S
C1920 H1945 0.950 . S
C1921 C1920 1.349 . S
C1921 C1937 1.349 . S
C1922 C1920 1.327 . S
C1922 C1941 1.429 . S
C1922 H1946 0.950 . S
C1923 C1940 1.574 . S
C1923 C1942 1.368 . S
C1923 H1947 0.949 . S
H1924 C1928 0.949 . S
C1925 C1926 1.349 . S
C1925 C1927 1.327 . S
C1925 H1948 0.950 . S
C1926 C1925 1.349 . S
C1926 C1938 1.349 . S
C1927 C1925 1.327 . S
C1927 C1943 1.429 . S
C1927 H1949 0.950 . S
C1928 H1924 0.949 . S
C1928 C1936 1.574 . S
C1928 C1944 1.368 . S
H1929 C1937 0.950 . S
H1930 C1935 0.950 . S
H1931 C1936 0.949 . S
H1932 C1938 0.950 . S
H1933 C1939 0.950 . S
H1934 C1940 0.949 . S
C1935 H1930 0.950 . S
C1935 C1937 1.327 . S
C1935 C1941 1.429 . S
C1936 C1928 1.574 . S
C1936 H1931 0.949 . S
C1936 C1942 1.368 . S
C1937 C1921 1.349 . S
C1937 H1929 0.950 . S
C1937 C1935 1.327 . S
C1938 C1926 1.349 . S
C1938 H1932 0.950 . S
C1938 C1939 1.327 . S
C1939 H1933 0.950 . S
C1939 C1938 1.327 . S
C1939 C1943 1.429 . S
C1940 C1923 1.574 . S
C1940 H1934 0.949 . S
C1940 C1944 1.368 . S
C1941 C1922 1.429 . S
C1941 C1935 1.429 . S
C1941 C1942 1.523 . S
C1942 C1923 1.368 . S
C1942 C1936 1.368 . S
C1942 C1941 1.523 . S
C1943 C1927 1.429 . S
C1943 C1939 1.429 . S
C1943 C1944 1.523 . S
C1944 C1928 1.368 . S
C1944 C1940 1.368 . S
C1944 C1943 1.523 . S
H1945 C1920 0.950 . S
H1946 C1922 0.950 . S
H1947 C1923 0.949 . S
H1948 C1925 0.950 . S
H1949 C1927 0.950 . S
C1950 C1951 1.349 . S
C1950 C1952 1.327 . S
C1950 H1975 0.950 . S
C1951 C1950 1.349 . S
C1951 C1967 1.349 . S
C1952 C1950 1.327 . S
C1952 C1971 1.429 . S
C1952 H1976 0.950 . S
C1953 C1970 1.574 . S
C1953 C1972 1.368 . S
C1953 H1977 0.949 . S
H1954 C1958 0.949 1_565 S
C1955 C1956 1.349 . S
C1955 C1957 1.327 . S
C1955 H1978 0.950 . S
C1956 C1955 1.349 . S
C1956 C1968 1.373 . S
C1957 C1955 1.327 . S
C1957 C1973 1.429 . S
C1957 H1979 0.950 . S
C1958 H1954 0.949 1_545 S
C1958 C1966 1.574 . S
C1958 C1974 1.368 . S
H1959 C1967 0.950 . S
H1960 C1965 0.950 . S
H1961 C1966 0.965 . S
H1962 C1968 0.922 1_565 S
H1963 C1969 0.950 1_565 S
H1964 C1970 0.949 . S
C1965 H1960 0.950 . S
C1965 C1967 1.327 . S
C1965 C1971 1.429 . S
C1966 C1958 1.574 . S
C1966 H1961 0.965 . S
C1966 C1972 1.368 . S
C1967 C1951 1.349 . S
C1967 H1959 0.950 . S
C1967 C1965 1.327 . S
C1968 C1956 1.373 . S
C1968 H1962 0.922 1_545 S
C1968 C1969 1.331 . S
C1969 H1963 0.950 1_545 S
C1969 C1968 1.331 . S
C1969 C1973 1.429 . S
C1970 C1953 1.574 . S
C1970 H1964 0.949 . S
C1970 C1974 1.368 . S
C1971 C1952 1.429 . S
C1971 C1965 1.429 . S
C1971 C1972 1.523 . S
C1972 C1953 1.368 . S
C1972 C1966 1.368 . S
C1972 C1971 1.523 . S
C1973 C1957 1.429 . S
C1973 C1969 1.429 . S
C1973 C1974 1.523 . S
C1974 C1958 1.368 . S
C1974 C1970 1.368 . S
C1974 C1973 1.523 . S
H1975 C1950 0.950 . S
H1976 C1952 0.950 . S
H1977 C1953 0.949 . S
H1978 C1955 0.950 . S
H1979 C1957 0.950 . S
C1980 C1981 1.349 . S
C1980 C1982 1.327 . S
C1980 H2005 0.950 . S
C1981 C1980 1.349 . S
C1981 C1997 1.349 . S
C1982 C1980 1.327 . S
C1982 C2001 1.429 . S
C1982 H2006 0.950 . S
C1983 C2000 1.574 . S
C1983 C2002 1.368 . S
C1983 H2007 0.949 . S
H1984 C1988 0.949 . S
C1985 C1986 1.349 . S
C1985 C1987 1.327 . S
C1985 H2008 0.950 . S
C1986 C1985 1.349 . S
C1986 C1998 1.349 . S
C1987 C1985 1.327 . S
C1987 C2003 1.429 . S
C1987 H2009 0.950 . S
C1988 H1984 0.949 . S
C1988 C1996 1.574 . S
C1988 C2004 1.368 . S
H1989 C1997 0.950 . S
H1990 C1995 0.950 . S
H1991 C1996 0.949 . S
H1992 C1998 0.950 . S
H1993 C1999 0.950 . S
H1994 C2000 0.949 . S
C1995 H1990 0.950 . S
C1995 C1997 1.327 . S
C1995 C2001 1.429 . S
C1996 C1988 1.574 . S
C1996 H1991 0.949 . S
C1996 C2002 1.368 . S
C1997 C1981 1.349 . S
C1997 H1989 0.950 . S
C1997 C1995 1.327 . S
C1998 C1986 1.349 . S
C1998 H1992 0.950 . S
C1998 C1999 1.327 . S
C1999 H1993 0.950 . S
C1999 C1998 1.327 . S
C1999 C2003 1.429 . S
C2000 C1983 1.574 . S
C2000 H1994 0.949 . S
C2000 C2004 1.368 . S
C2001 C1982 1.429 . S
C2001 C1995 1.429 . S
C2001 C2002 1.523 . S
C2002 C1983 1.368 . S
C2002 C1996 1.368 . S
C2002 C2001 1.523 . S
C2003 C1987 1.429 . S
C2003 C1999 1.429 . S
C2003 C2004 1.523 . S
C2004 C1988 1.368 . S
C2004 C2000 1.368 . S
C2004 C2003 1.523 . S
H2005 C1980 0.950 . S
H2006 C1982 0.950 . S
H2007 C1983 0.949 . S
H2008 C1985 0.950 . S
H2009 C1987 0.950 . S
C2010 C2011 1.349 . S
C2010 C2012 1.327 . S
C2010 H2035 0.950 . S
C2011 C2010 1.349 . S
C2011 C2027 1.349 . S
C2012 C2010 1.327 . S
C2012 C2031 1.429 . S
C2012 H2036 0.950 . S
C2013 C2030 1.574 . S
C2013 C2032 1.368 . S
C2013 H2037 0.949 . S
H2014 C2018 0.949 . S
C2015 C2016 1.349 . S
C2015 C2017 1.327 . S
C2015 H2038 0.950 . S
C2016 C2015 1.349 . S
C2016 C2028 1.349 . S
C2017 C2015 1.327 . S
C2017 C2033 1.429 . S
C2017 H2039 0.950 . S
C2018 H2014 0.949 . S
C2018 C2026 1.574 . S
C2018 C2034 1.368 . S
H2019 C2027 0.950 . S
H2020 C2025 0.950 . S
H2021 C2026 0.949 . S
H2022 C2028 0.950 . S
H2023 C2029 0.950 . S
H2024 C2030 0.949 . S
C2025 H2020 0.950 . S
C2025 C2027 1.327 . S
C2025 C2031 1.429 . S
C2026 C2018 1.574 . S
C2026 H2021 0.949 . S
C2026 C2032 1.368 . S
C2027 C2011 1.349 . S
C2027 H2019 0.950 . S
C2027 C2025 1.327 . S
C2028 C2016 1.349 . S
C2028 H2022 0.950 . S
C2028 C2029 1.327 . S
C2029 H2023 0.950 . S
C2029 C2028 1.327 . S
C2029 C2033 1.429 . S
C2030 C2013 1.574 . S
C2030 H2024 0.949 . S
C2030 C2034 1.368 . S
C2031 C2012 1.429 . S
C2031 C2025 1.429 . S
C2031 C2032 1.523 . S
C2032 C2013 1.368 . S
C2032 C2026 1.368 . S
C2032 C2031 1.523 . S
C2033 C2017 1.429 . S
C2033 C2029 1.429 . S
C2033 C2034 1.523 . S
C2034 C2018 1.368 . S
C2034 C2030 1.368 . S
C2034 C2033 1.523 . S
H2035 C2010 0.950 . S
H2036 C2012 0.950 . S
H2037 C2013 0.949 . S
H2038 C2015 0.950 . S
H2039 C2017 0.950 . S
C2040 C2041 1.349 . S
C2040 C2042 1.327 . S
C2040 H2065 0.950 . S
C2041 C2040 1.349 . S
C2041 C2057 1.349 . S
C2042 C2040 1.327 . S
C2042 C2061 1.429 . S
C2042 H2066 0.950 . S
C2043 C2060 1.574 . S
C2043 C2062 1.368 . S
C2043 H2067 0.949 . S
H2044 C2048 0.949 . S
C2045 C2046 1.349 . S
C2045 C2047 1.327 . S
C2045 H2068 0.950 . S
C2046 C2045 1.349 . S
C2046 C2058 1.349 . S
C2047 C2045 1.327 . S
C2047 C2063 1.429 . S
C2047 H2069 0.950 . S
C2048 H2044 0.949 . S
C2048 C2056 1.574 . S
C2048 C2064 1.368 . S
H2049 C2057 0.950 . S
H2050 C2055 0.950 . S
H2051 C2056 0.949 . S
H2052 C2058 0.950 . S
H2053 C2059 0.950 . S
H2054 C2060 0.949 . S
C2055 H2050 0.950 . S
C2055 C2057 1.327 . S
C2055 C2061 1.429 . S
C2056 C2048 1.574 . S
C2056 H2051 0.949 . S
C2056 C2062 1.368 . S
C2057 C2041 1.349 . S
C2057 H2049 0.950 . S
C2057 C2055 1.327 . S
C2058 C2046 1.349 . S
C2058 H2052 0.950 . S
C2058 C2059 1.327 . S
C2059 H2053 0.950 . S
C2059 C2058 1.327 . S
C2059 C2063 1.429 . S
C2060 C2043 1.574 . S
C2060 H2054 0.949 . S
C2060 C2064 1.368 . S
C2061 C2042 1.429 . S
C2061 C2055 1.429 . S
C2061 C2062 1.523 . S
C2062 C2043 1.368 . S
C2062 C2056 1.368 . S
C2062 C2061 1.523 . S
C2063 C2047 1.429 . S
C2063 C2059 1.429 . S
C2063 C2064 1.523 . S
C2064 C2048 1.368 . S
C2064 C2060 1.368 . S
C2064 C2063 1.523 . S
H2065 C2040 0.950 . S
H2066 C2042 0.950 . S
H2067 C2043 0.949 . S
H2068 C2045 0.950 . S
H2069 C2047 0.950 . S
C2070 C2071 1.349 . S
C2070 C2072 1.327 1_455 S
C2070 H2095 0.950 . S
C2071 C2070 1.349 . S
C2071 C2087 1.349 . S
C2072 C2070 1.327 1_655 S
C2072 C2091 1.429 . S
C2072 H2096 0.950 1_545 S
C2073 C2090 1.574 . S
C2073 C2092 1.368 . S
C2073 H2097 0.949 . S
H2074 C2078 0.949 1_565 S
C2075 C2076 1.349 . S
C2075 C2077 1.327 . S
C2075 H2098 0.950 . S
C2076 C2075 1.349 . S
C2076 C2088 1.349 1_545 S
C2077 C2075 1.327 . S
C2077 C2093 1.429 . S
C2077 H2099 0.950 . S
C2078 H2074 0.949 1_545 S
C2078 C2086 1.574 . S
C2078 C2094 1.368 . S
H2079 C2087 0.950 . S
H2080 C2085 0.950 . S
H2081 C2086 0.949 1_565 S
H2082 C2088 0.950 . S
H2083 C2089 0.966 . S
H2084 C2090 0.949 . S
C2085 H2080 0.950 . S
C2085 C2087 1.327 1_655 S
C2085 C2091 1.429 . S
C2086 C2078 1.574 . S
C2086 H2081 0.949 1_545 S
C2086 C2092 1.368 . S
C2087 C2071 1.349 . S
C2087 H2079 0.950 . S
C2087 C2085 1.327 1_455 S
C2088 C2076 1.349 1_565 S
C2088 H2082 0.950 . S
C2088 C2089 1.329 . S
C2089 H2083 0.966 . S
C2089 C2088 1.329 . S
C2089 C2093 1.411 1_565 S
C2090 C2073 1.574 . S
C2090 H2084 0.949 . S
C2090 C2094 1.368 . S
C2091 C2072 1.429 . S
C2091 C2085 1.429 . S
C2091 C2092 1.523 . S
C2092 C2073 1.368 . S
C2092 C2086 1.368 . S
C2092 C2091 1.523 . S
C2093 C2077 1.429 . S
C2093 C2089 1.411 1_545 S
C2093 C2094 1.523 . S
C2094 C2078 1.368 . S
C2094 C2090 1.368 . S
C2094 C2093 1.523 . S
H2095 C2070 0.950 . S
H2096 C2072 0.950 1_565 S
H2097 C2073 0.949 . S
H2098 C2075 0.950 . S
H2099 C2077 0.950 . S
C2100 C2101 1.349 . S
C2100 C2102 1.327 . S
C2100 H2125 0.950 . S
C2101 C2100 1.349 . S
C2101 C2117 1.349 . S
C2102 C2100 1.327 . S
C2102 C2121 1.429 . S
C2102 H2126 0.950 . S
C2103 C2120 1.574 . S
C2103 C2122 1.368 . S
C2103 H2127 0.949 . S
H2104 C2108 0.949 . S
C2105 C2106 1.349 . S
C2105 C2107 1.327 . S
C2105 H2128 0.950 . S
C2106 C2105 1.349 . S
C2106 C2118 1.349 . S
C2107 C2105 1.327 . S
C2107 C2123 1.429 . S
C2107 H2129 0.950 . S
C2108 H2104 0.949 . S
C2108 C2116 1.574 . S
C2108 C2124 1.368 . S
H2109 C2117 0.950 . S
H2110 C2115 0.950 . S
H2111 C2116 0.949 . S
H2112 C2118 0.950 . S
H2113 C2119 0.950 . S
H2114 C2120 0.949 . S
C2115 H2110 0.950 . S
C2115 C2117 1.327 . S
C2115 C2121 1.429 . S
C2116 C2108 1.574 . S
C2116 H2111 0.949 . S
C2116 C2122 1.368 . S
C2117 C2101 1.349 . S
C2117 H2109 0.950 . S
C2117 C2115 1.327 . S
C2118 C2106 1.349 . S
C2118 H2112 0.950 . S
C2118 C2119 1.327 . S
C2119 H2113 0.950 . S
C2119 C2118 1.327 . S
C2119 C2123 1.429 . S
C2120 C2103 1.574 . S
C2120 H2114 0.949 . S
C2120 C2124 1.368 . S
C2121 C2102 1.429 . S
C2121 C2115 1.429 . S
C2121 C2122 1.523 . S
C2122 C2103 1.368 . S
C2122 C2116 1.368 . S
C2122 C2121 1.523 . S
C2123 C2107 1.429 . S
C2123 C2119 1.429 . S
C2123 C2124 1.523 . S
C2124 C2108 1.368 . S
C2124 C2120 1.368 . S
C2124 C2123 1.523 . S
H2125 C2100 0.950 . S
H2126 C2102 0.950 . S
H2127 C2103 0.949 . S
H2128 C2105 0.950 . S
H2129 C2107 0.950 . S
C2130 C2131 1.349 . S
C2130 C2132 1.327 . S
C2130 H2155 0.950 . S
C2131 C2130 1.349 . S
C2131 C2147 1.349 1_655 S
C2132 C2130 1.327 . S
C2132 C2151 1.429 1_655 S
C2132 H2156 0.950 . S
C2133 C2150 1.574 . S
C2133 C2152 1.368 . S
C2133 H2157 0.949 . S
H2134 C2138 0.949 . S
C2135 C2136 1.349 . S
C2135 C2137 1.327 . S
C2135 H2158 0.950 . S
C2136 C2135 1.349 . S
C2136 C2148 1.349 . S
C2137 C2135 1.327 . S
C2137 C2153 1.429 . S
C2137 H2159 0.950 . S
C2138 H2134 0.949 . S
C2138 C2146 1.574 . S
C2138 C2154 1.368 . S
H2139 C2147 0.950 . S
H2140 C2145 0.950 . S
H2141 C2146 0.949 . S
H2142 C2148 0.950 . S
H2143 C2149 0.950 . S
H2144 C2150 0.949 . S
C2145 H2140 0.950 . S
C2145 C2147 1.327 . S
C2145 C2151 1.429 . S
C2146 C2138 1.574 . S
C2146 H2141 0.949 . S
C2146 C2152 1.368 . S
C2147 C2131 1.349 1_455 S
C2147 H2139 0.950 . S
C2147 C2145 1.327 . S
C2148 C2136 1.349 . S
C2148 H2142 0.950 . S
C2148 C2149 1.327 . S
C2149 H2143 0.950 . S
C2149 C2148 1.327 . S
C2149 C2153 1.429 . S
C2150 C2133 1.574 . S
C2150 H2144 0.949 . S
C2150 C2154 1.368 . S
C2151 C2132 1.429 1_455 S
C2151 C2145 1.429 . S
C2151 C2152 1.523 . S
C2152 C2133 1.368 . S
C2152 C2146 1.368 . S
C2152 C2151 1.523 . S
C2153 C2137 1.429 . S
C2153 C2149 1.429 . S
C2153 C2154 1.523 . S
C2154 C2138 1.368 . S
C2154 C2150 1.368 . S
C2154 C2153 1.523 . S
H2155 C2130 0.950 . S
H2156 C2132 0.950 . S
H2157 C2133 0.949 . S
H2158 C2135 0.950 . S
H2159 C2137 0.950 . S
C2160 C2161 1.349 . S
C2160 C2162 1.327 . S
C2160 H2185 0.950 . S
C2161 C2160 1.349 . S
C2161 C2177 1.349 . S
C2162 C2160 1.327 . S
C2162 C2181 1.429 . S
C2162 H2186 0.950 . S
C2163 C2180 1.574 . S
C2163 C2182 1.368 . S
C2163 H2187 0.949 . S
H2164 C2168 0.949 . S
C2165 C2166 1.349 . S
C2165 C2167 1.327 . S
C2165 H2188 0.950 . S
C2166 C2165 1.349 . S
C2166 C2178 1.349 . S
C2167 C2165 1.327 . S
C2167 C2183 1.429 . S
C2167 H2189 0.950 . S
C2168 H2164 0.949 . S
C2168 C2176 1.574 . S
C2168 C2184 1.368 . S
H2169 C2177 0.950 . S
H2170 C2175 0.950 . S
H2171 C2176 0.949 . S
H2172 C2178 0.950 . S
H2173 C2179 0.950 . S
H2174 C2180 0.949 . S
C2175 H2170 0.950 . S
C2175 C2177 1.327 . S
C2175 C2181 1.429 . S
C2176 C2168 1.574 . S
C2176 H2171 0.949 . S
C2176 C2182 1.368 . S
C2177 C2161 1.349 . S
C2177 H2169 0.950 . S
C2177 C2175 1.327 . S
C2178 C2166 1.349 . S
C2178 H2172 0.950 . S
C2178 C2179 1.327 . S
C2179 H2173 0.950 . S
C2179 C2178 1.327 . S
C2179 C2183 1.429 . S
C2180 C2163 1.574 . S
C2180 H2174 0.949 . S
C2180 C2184 1.368 . S
C2181 C2162 1.429 . S
C2181 C2175 1.429 . S
C2181 C2182 1.523 . S
C2182 C2163 1.368 . S
C2182 C2176 1.368 . S
C2182 C2181 1.523 . S
C2183 C2167 1.429 . S
C2183 C2179 1.429 . S
C2183 C2184 1.523 . S
C2184 C2168 1.368 . S
C2184 C2180 1.368 . S
C2184 C2183 1.523 . S
H2185 C2160 0.950 . S
H2186 C2162 0.950 . S
H2187 C2163 0.949 . S
H2188 C2165 0.950 . S
H2189 C2167 0.950 . S
C2190 C2191 1.349 1_556 S
C2190 C2192 1.327 . S
C2190 H2215 0.950 . S
C2191 C2190 1.349 1_554 S
C2191 C2207 1.349 . S
C2192 C2190 1.327 . S
C2192 C2211 1.429 . S
C2192 H2216 0.950 . S
C2193 C2210 1.574 . S
C2193 C2212 1.368 . S
C2193 H2217 0.949 . S
H2194 C2198 0.949 . S
C2195 C2196 1.349 . S
C2195 C2197 1.327 . S
C2195 H2218 0.950 . S
C2196 C2195 1.349 . S
C2196 C2208 1.349 . S
C2197 C2195 1.327 . S
C2197 C2213 1.429 . S
C2197 H2219 0.950 . S
C2198 H2194 0.949 . S
C2198 C2206 1.574 . S
C2198 C2214 1.368 . S
H2199 C2207 0.950 . S
H2200 C2205 0.950 . S
H2201 C2206 0.949 . S
H2202 C2208 0.950 1_455 S
H2203 C2209 0.944 1_455 S
H2204 C2210 0.949 . S
C2205 H2200 0.950 . S
C2205 C2207 1.327 . S
C2205 C2211 1.429 1_554 S
C2206 C2198 1.574 . S
C2206 H2201 0.949 . S
C2206 C2212 1.368 . S
C2207 C2191 1.349 . S
C2207 H2199 0.950 . S
C2207 C2205 1.327 . S
C2208 C2196 1.349 . S
C2208 H2202 0.950 1_655 S
C2208 C2209 1.327 . S
C2209 H2203 0.944 1_655 S
C2209 C2208 1.327 . S
C2209 C2213 1.429 . S
C2210 C2193 1.574 . S
C2210 H2204 0.949 . S
C2210 C2214 1.368 . S
C2211 C2192 1.429 . S
C2211 C2205 1.429 1_556 S
C2211 C2212 1.523 . S
C2212 C2193 1.368 . S
C2212 C2206 1.368 . S
C2212 C2211 1.523 . S
C2213 C2197 1.429 . S
C2213 C2209 1.429 . S
C2213 C2214 1.523 . S
C2214 C2198 1.368 . S
C2214 C2210 1.368 . S
C2214 C2213 1.523 . S
H2215 C2190 0.950 . S
H2216 C2192 0.950 . S
H2217 C2193 0.949 . S
H2218 C2195 0.950 . S
H2219 C2197 0.950 . S
C2220 C2221 1.349 . S
C2220 C2222 1.327 . S
C2220 H2245 0.950 . S
C2221 C2220 1.349 . S
C2221 C2237 1.349 . S
C2222 C2220 1.327 . S
C2222 C2241 1.429 . S
C2222 H2246 0.950 . S
C2223 C2240 1.574 . S
C2223 C2242 1.368 . S
C2223 H2247 0.949 . S
H2224 C2228 0.949 . S
C2225 C2226 1.349 . S
C2225 C2227 1.327 . S
C2225 H2248 0.950 . S
C2226 C2225 1.349 . S
C2226 C2238 1.349 . S
C2227 C2225 1.327 . S
C2227 C2243 1.429 . S
C2227 H2249 0.950 . S
C2228 H2224 0.949 . S
C2228 C2236 1.574 . S
C2228 C2244 1.368 . S
H2229 C2237 0.950 . S
H2230 C2235 0.950 . S
H2231 C2236 0.949 . S
H2232 C2238 0.950 . S
H2233 C2239 0.950 . S
H2234 C2240 0.949 . S
C2235 H2230 0.950 . S
C2235 C2237 1.327 . S
C2235 C2241 1.429 . S
C2236 C2228 1.574 . S
C2236 H2231 0.949 . S
C2236 C2242 1.368 . S
C2237 C2221 1.349 . S
C2237 H2229 0.950 . S
C2237 C2235 1.327 . S
C2238 C2226 1.349 . S
C2238 H2232 0.950 . S
C2238 C2239 1.327 . S
C2239 H2233 0.950 . S
C2239 C2238 1.327 . S
C2239 C2243 1.429 . S
C2240 C2223 1.574 . S
C2240 H2234 0.949 . S
C2240 C2244 1.368 . S
C2241 C2222 1.429 . S
C2241 C2235 1.429 . S
C2241 C2242 1.523 . S
C2242 C2223 1.368 . S
C2242 C2236 1.368 . S
C2242 C2241 1.523 . S
C2243 C2227 1.429 . S
C2243 C2239 1.429 . S
C2243 C2244 1.523 . S
C2244 C2228 1.368 . S
C2244 C2240 1.368 . S
C2244 C2243 1.523 . S
H2245 C2220 0.950 . S
H2246 C2222 0.950 . S
H2247 C2223 0.949 . S
H2248 C2225 0.950 . S
H2249 C2227 0.950 . S
C2250 C2251 1.349 . S
C2250 C2252 1.327 . S
C2250 H2275 0.950 . S
C2251 C2250 1.349 . S
C2251 C2267 1.348 . S
C2252 C2250 1.327 . S
C2252 C2271 1.429 1_554 S
C2252 H2276 0.950 . S
C2253 C2270 1.574 . S
C2253 C2272 1.368 . S
C2253 H2277 0.954 . S
H2254 C2258 0.949 . S
C2255 C2256 1.371 . S
C2255 C2257 1.331 . S
C2255 H2278 0.924 1_455 S
C2256 C2255 1.371 . S
C2256 C2268 1.349 . S
C2257 C2255 1.331 . S
C2257 C2273 1.429 . S
C2257 H2279 0.950 1_455 S
C2258 H2254 0.949 . S
C2258 C2266 1.574 . S
C2258 C2274 1.368 . S
H2259 C2267 0.949 1_556 S
H2260 C2265 0.950 . S
H2261 C2266 0.949 . S
H2262 C2268 0.950 . S
H2263 C2269 0.950 . S
H2264 C2270 0.949 1_655 S
C2265 H2260 0.950 . S
C2265 C2267 1.328 1_556 S
C2265 C2271 1.429 . S
C2266 C2258 1.574 . S
C2266 H2261 0.949 . S
C2266 C2272 1.368 . S
C2267 C2251 1.348 . S
C2267 H2259 0.949 1_554 S
C2267 C2265 1.328 1_554 S
C2268 C2256 1.349 . S
C2268 H2262 0.950 . S
C2268 C2269 1.327 . S
C2269 H2263 0.950 . S
C2269 C2268 1.327 . S
C2269 C2273 1.429 . S
C2270 C2253 1.574 . S
C2270 H2264 0.949 1_455 S
C2270 C2274 1.368 . S
C2271 C2252 1.429 1_556 S
C2271 C2265 1.429 . S
C2271 C2272 1.523 . S
C2272 C2253 1.368 . S
C2272 C2266 1.368 . S
C2272 C2271 1.523 . S
C2273 C2257 1.429 . S
C2273 C2269 1.429 . S
C2273 C2274 1.523 . S
C2274 C2258 1.368 . S
C2274 C2270 1.368 . S
C2274 C2273 1.523 . S
H2275 C2250 0.950 . S
H2276 C2252 0.950 . S
H2277 C2253 0.954 . S
H2278 C2255 0.924 1_655 S
H2279 C2257 0.950 1_655 S
C2280 C2281 1.349 . S
C2280 C2282 1.327 . S
C2280 H2305 0.950 . S
C2281 C2280 1.349 . S
C2281 C2297 1.349 . S
C2282 C2280 1.327 . S
C2282 C2301 1.429 . S
C2282 H2306 0.950 . S
C2283 C2300 1.574 . S
C2283 C2302 1.368 . S
C2283 H2307 0.949 . S
H2284 C2288 0.949 . S
C2285 C2286 1.349 . S
C2285 C2287 1.327 . S
C2285 H2308 0.950 . S
C2286 C2285 1.349 . S
C2286 C2298 1.349 . S
C2287 C2285 1.327 . S
C2287 C2303 1.429 . S
C2287 H2309 0.950 . S
C2288 H2284 0.949 . S
C2288 C2296 1.574 . S
C2288 C2304 1.368 . S
H2289 C2297 0.950 . S
H2290 C2295 0.950 . S
H2291 C2296 0.949 . S
H2292 C2298 0.950 . S
H2293 C2299 0.950 . S
H2294 C2300 0.949 . S
C2295 H2290 0.950 . S
C2295 C2297 1.327 . S
C2295 C2301 1.429 . S
C2296 C2288 1.574 . S
C2296 H2291 0.949 . S
C2296 C2302 1.368 . S
C2297 C2281 1.349 . S
C2297 H2289 0.950 . S
C2297 C2295 1.327 . S
C2298 C2286 1.349 . S
C2298 H2292 0.950 . S
C2298 C2299 1.327 . S
C2299 H2293 0.950 . S
C2299 C2298 1.327 . S
C2299 C2303 1.429 . S
C2300 C2283 1.574 . S
C2300 H2294 0.949 . S
C2300 C2304 1.368 . S
C2301 C2282 1.429 . S
C2301 C2295 1.429 . S
C2301 C2302 1.523 . S
C2302 C2283 1.368 . S
C2302 C2296 1.368 . S
C2302 C2301 1.523 . S
C2303 C2287 1.429 . S
C2303 C2299 1.429 . S
C2303 C2304 1.523 . S
C2304 C2288 1.368 . S
C2304 C2300 1.368 . S
C2304 C2303 1.523 . S
H2305 C2280 0.950 . S
H2306 C2282 0.950 . S
H2307 C2283 0.949 . S
H2308 C2285 0.950 . S
H2309 C2287 0.950 . S
C2310 C2311 1.349 . S
C2310 C2312 1.330 . S
C2310 H2335 0.950 . S
C2311 C2310 1.349 . S
C2311 C2327 1.320 1_556 S
C2312 C2310 1.330 . S
C2312 C2331 1.426 1_556 S
C2312 H2336 0.949 . S
C2313 C2330 1.574 . S
C2313 C2332 1.368 . S
C2313 H2337 0.949 . S
H2314 C2318 0.949 . S
C2315 C2316 1.349 . S
C2315 C2317 1.327 . S
C2315 H2338 0.950 . S
C2316 C2315 1.349 . S
C2316 C2328 1.349 . S
C2317 C2315 1.327 . S
C2317 C2333 1.429 . S
C2317 H2339 0.950 . S
C2318 H2314 0.949 . S
C2318 C2326 1.574 . S
C2318 C2334 1.368 . S
H2319 C2327 0.950 . S
H2320 C2325 0.950 . S
H2321 C2326 0.949 . S
H2322 C2328 0.950 . S
H2323 C2329 0.950 . S
H2324 C2330 0.949 . S
C2325 H2320 0.950 . S
C2325 C2327 1.356 . S
C2325 C2331 1.429 . S
C2326 C2318 1.574 . S
C2326 H2321 0.949 . S
C2326 C2332 1.368 . S
C2327 C2311 1.320 1_554 S
C2327 H2319 0.950 . S
C2327 C2325 1.356 . S
C2328 C2316 1.349 . S
C2328 H2322 0.950 . S
C2328 C2329 1.327 . S
C2329 H2323 0.950 . S
C2329 C2328 1.327 . S
C2329 C2333 1.429 . S
C2330 C2313 1.574 . S
C2330 H2324 0.949 . S
C2330 C2334 1.368 . S
C2331 C2312 1.426 1_554 S
C2331 C2325 1.429 . S
C2331 C2332 1.523 . S
C2332 C2313 1.368 . S
C2332 C2326 1.368 . S
C2332 C2331 1.523 . S
C2333 C2317 1.429 . S
C2333 C2329 1.429 . S
C2333 C2334 1.523 . S
C2334 C2318 1.368 . S
C2334 C2330 1.368 . S
C2334 C2333 1.523 . S
H2335 C2310 0.950 . S
H2336 C2312 0.949 . S
H2337 C2313 0.949 . S
H2338 C2315 0.950 . S
H2339 C2317 0.950 . S
C2340 C2341 1.349 . S
C2340 C2342 1.327 . S
C2340 H2365 0.950 . S
C2341 C2340 1.349 . S
C2341 C2357 1.349 . S
C2342 C2340 1.327 . S
C2342 C2361 1.429 . S
C2342 H2366 0.950 . S
C2343 C2360 1.574 . S
C2343 C2362 1.368 . S
C2343 H2367 0.949 . S
H2344 C2348 0.949 . S
C2345 C2346 1.349 . S
C2345 C2347 1.327 . S
C2345 H2368 0.950 . S
C2346 C2345 1.349 . S
C2346 C2358 1.349 . S
C2347 C2345 1.327 . S
C2347 C2363 1.429 . S
C2347 H2369 0.950 . S
C2348 H2344 0.949 . S
C2348 C2356 1.574 . S
C2348 C2364 1.368 . S
H2349 C2357 0.950 . S
H2350 C2355 0.950 . S
H2351 C2356 0.949 . S
H2352 C2358 0.950 . S
H2353 C2359 0.950 . S
H2354 C2360 0.949 . S
C2355 H2350 0.950 . S
C2355 C2357 1.327 . S
C2355 C2361 1.429 . S
C2356 C2348 1.574 . S
C2356 H2351 0.949 . S
C2356 C2362 1.368 . S
C2357 C2341 1.349 . S
C2357 H2349 0.950 . S
C2357 C2355 1.327 . S
C2358 C2346 1.349 . S
C2358 H2352 0.950 . S
C2358 C2359 1.327 . S
C2359 H2353 0.950 . S
C2359 C2358 1.327 . S
C2359 C2363 1.429 . S
C2360 C2343 1.574 . S
C2360 H2354 0.949 . S
C2360 C2364 1.368 . S
C2361 C2342 1.429 . S
C2361 C2355 1.429 . S
C2361 C2362 1.523 . S
C2362 C2343 1.368 . S
C2362 C2356 1.368 . S
C2362 C2361 1.523 . S
C2363 C2347 1.429 . S
C2363 C2359 1.429 . S
C2363 C2364 1.523 . S
C2364 C2348 1.368 . S
C2364 C2360 1.368 . S
C2364 C2363 1.523 . S
H2365 C2340 0.950 . S
H2366 C2342 0.950 . S
H2367 C2343 0.949 . S
H2368 C2345 0.950 . S
H2369 C2347 0.950 . S
C2370 C2371 1.349 1_554 S
C2370 C2372 1.327 . S
C2370 H2395 0.950 . S
C2371 C2370 1.349 1_556 S
C2371 C2387 1.349 . S
C2372 C2370 1.327 . S
C2372 C2391 1.429 . S
C2372 H2396 0.950 . S
C2373 C2390 1.574 . S
C2373 C2392 1.368 . S
C2373 H2397 0.949 . S
H2374 C2378 0.949 . S
C2375 C2376 1.349 . S
C2375 C2377 1.327 . S
C2375 H2398 0.950 . S
C2376 C2375 1.349 . S
C2376 C2388 1.349 . S
C2377 C2375 1.327 . S
C2377 C2393 1.429 . S
C2377 H2399 0.950 . S
C2378 H2374 0.949 . S
C2378 C2386 1.574 . S
C2378 C2394 1.368 . S
H2379 C2387 0.950 . S
H2380 C2385 0.950 . S
H2381 C2386 0.949 . S
H2382 C2388 0.950 . S
H2383 C2389 0.950 . S
H2384 C2390 0.949 . S
C2385 H2380 0.950 . S
C2385 C2387 1.327 . S
C2385 C2391 1.429 1_556 S
C2386 C2378 1.574 . S
C2386 H2381 0.949 . S
C2386 C2392 1.368 . S
C2387 C2371 1.349 . S
C2387 H2379 0.950 . S
C2387 C2385 1.327 . S
C2388 C2376 1.349 . S
C2388 H2382 0.950 . S
C2388 C2389 1.327 . S
C2389 H2383 0.950 . S
C2389 C2388 1.327 . S
C2389 C2393 1.429 . S
C2390 C2373 1.574 . S
C2390 H2384 0.949 . S
C2390 C2394 1.368 . S
C2391 C2372 1.429 . S
C2391 C2385 1.429 1_554 S
C2391 C2392 1.523 . S
C2392 C2373 1.368 . S
C2392 C2386 1.368 . S
C2392 C2391 1.523 . S
C2393 C2377 1.429 . S
C2393 C2389 1.429 . S
C2393 C2394 1.523 . S
C2394 C2378 1.368 . S
C2394 C2390 1.368 . S
C2394 C2393 1.523 . S
H2395 C2370 0.950 . S
H2396 C2372 0.950 . S
H2397 C2373 0.949 . S
H2398 C2375 0.950 . S
H2399 C2377 0.950 . S
C2400 C2401 1.349 . S
C2400 C2402 1.327 . S
C2400 H2425 0.950 . S
C2401 C2400 1.349 . S
C2401 C2417 1.349 . S
C2402 C2400 1.327 . S
C2402 C2421 1.429 . S
C2402 H2426 0.950 . S
C2403 C2420 1.574 . S
C2403 C2422 1.368 . S
C2403 H2427 0.949 . S
H2404 C2408 0.949 . S
C2405 C2406 1.349 . S
C2405 C2407 1.327 . S
C2405 H2428 0.950 . S
C2406 C2405 1.349 . S
C2406 C2418 1.349 . S
C2407 C2405 1.327 . S
C2407 C2423 1.429 . S
C2407 H2429 0.950 . S
C2408 H2404 0.949 . S
C2408 C2416 1.574 . S
C2408 C2424 1.368 . S
H2409 C2417 0.950 . S
H2410 C2415 0.950 . S
H2411 C2416 0.949 . S
H2412 C2418 0.950 . S
H2413 C2419 0.950 . S
H2414 C2420 0.949 . S
C2415 H2410 0.950 . S
C2415 C2417 1.327 . S
C2415 C2421 1.429 . S
C2416 C2408 1.574 . S
C2416 H2411 0.949 . S
C2416 C2422 1.368 . S
C2417 C2401 1.349 . S
C2417 H2409 0.950 . S
C2417 C2415 1.327 . S
C2418 C2406 1.349 . S
C2418 H2412 0.950 . S
C2418 C2419 1.327 . S
C2419 H2413 0.950 . S
C2419 C2418 1.327 . S
C2419 C2423 1.429 . S
C2420 C2403 1.574 . S
C2420 H2414 0.949 . S
C2420 C2424 1.368 . S
C2421 C2402 1.429 . S
C2421 C2415 1.429 . S
C2421 C2422 1.523 . S
C2422 C2403 1.368 . S
C2422 C2416 1.368 . S
C2422 C2421 1.523 . S
C2423 C2407 1.429 . S
C2423 C2419 1.429 . S
C2423 C2424 1.523 . S
C2424 C2408 1.368 . S
C2424 C2420 1.368 . S
C2424 C2423 1.523 . S
H2425 C2400 0.950 . S
H2426 C2402 0.950 . S
H2427 C2403 0.949 . S
H2428 C2405 0.950 . S
H2429 C2407 0.950 . S
C2430 C2431 1.349 . S
C2430 C2432 1.327 . S
C2430 H2455 0.950 . S
C2431 C2430 1.349 . S
C2431 C2447 1.349 . S
C2432 C2430 1.327 . S
C2432 C2451 1.429 . S
C2432 H2456 0.950 . S
C2433 C2450 1.574 . S
C2433 C2452 1.368 . S
C2433 H2457 0.949 . S
H2434 C2438 0.949 . S
C2435 C2436 1.349 . S
C2435 C2437 1.327 . S
C2435 H2458 0.950 . S
C2436 C2435 1.349 . S
C2436 C2448 1.349 . S
C2437 C2435 1.327 . S
C2437 C2453 1.429 . S
C2437 H2459 0.950 . S
C2438 H2434 0.949 . S
C2438 C2446 1.574 . S
C2438 C2454 1.368 . S
H2439 C2447 0.950 . S
H2440 C2445 0.950 . S
H2441 C2446 0.949 . S
H2442 C2448 0.950 . S
H2443 C2449 0.950 . S
H2444 C2450 0.949 . S
C2445 H2440 0.950 . S
C2445 C2447 1.327 . S
C2445 C2451 1.429 . S
C2446 C2438 1.574 . S
C2446 H2441 0.949 . S
C2446 C2452 1.368 . S
C2447 C2431 1.349 . S
C2447 H2439 0.950 . S
C2447 C2445 1.327 . S
C2448 C2436 1.349 . S
C2448 H2442 0.950 . S
C2448 C2449 1.327 . S
C2449 H2443 0.950 . S
C2449 C2448 1.327 . S
C2449 C2453 1.429 . S
C2450 C2433 1.574 . S
C2450 H2444 0.949 . S
C2450 C2454 1.368 . S
C2451 C2432 1.429 . S
C2451 C2445 1.429 . S
C2451 C2452 1.523 . S
C2452 C2433 1.368 . S
C2452 C2446 1.368 . S
C2452 C2451 1.523 . S
C2453 C2437 1.429 . S
C2453 C2449 1.429 . S
C2453 C2454 1.523 . S
C2454 C2438 1.368 . S
C2454 C2450 1.368 . S
C2454 C2453 1.523 . S
H2455 C2430 0.950 . S
H2456 C2432 0.950 . S
H2457 C2433 0.949 . S
H2458 C2435 0.950 . S
H2459 C2437 0.950 . S
C2460 C2461 1.349 . S
C2460 C2462 1.327 . S
C2460 H2485 0.950 . S
C2461 C2460 1.349 . S
C2461 C2477 1.349 . S
C2462 C2460 1.327 . S
C2462 C2481 1.429 . S
C2462 H2486 0.950 . S
C2463 C2480 1.574 . S
C2463 C2482 1.368 . S
C2463 H2487 0.949 . S
H2464 C2468 0.949 . S
C2465 C2466 1.349 . S
C2465 C2467 1.327 . S
C2465 H2488 0.950 . S
C2466 C2465 1.349 . S
C2466 C2478 1.349 . S
C2467 C2465 1.327 . S
C2467 C2483 1.429 . S
C2467 H2489 0.950 . S
C2468 H2464 0.949 . S
C2468 C2476 1.574 . S
C2468 C2484 1.368 . S
H2469 C2477 0.950 . S
H2470 C2475 0.950 . S
H2471 C2476 0.949 . S
H2472 C2478 0.950 . S
H2473 C2479 0.950 . S
H2474 C2480 0.949 . S
C2475 H2470 0.950 . S
C2475 C2477 1.327 . S
C2475 C2481 1.429 . S
C2476 C2468 1.574 . S
C2476 H2471 0.949 . S
C2476 C2482 1.368 . S
C2477 C2461 1.349 . S
C2477 H2469 0.950 . S
C2477 C2475 1.327 . S
C2478 C2466 1.349 . S
C2478 H2472 0.950 . S
C2478 C2479 1.327 . S
C2479 H2473 0.950 . S
C2479 C2478 1.327 . S
C2479 C2483 1.429 . S
C2480 C2463 1.574 . S
C2480 H2474 0.949 . S
C2480 C2484 1.368 . S
C2481 C2462 1.429 . S
C2481 C2475 1.429 . S
C2481 C2482 1.523 . S
C2482 C2463 1.368 . S
C2482 C2476 1.368 . S
C2482 C2481 1.523 . S
C2483 C2467 1.429 . S
C2483 C2479 1.429 . S
C2483 C2484 1.523 . S
C2484 C2468 1.368 . S
C2484 C2480 1.368 . S
C2484 C2483 1.523 . S
H2485 C2460 0.950 . S
H2486 C2462 0.950 . S
H2487 C2463 0.949 . S
H2488 C2465 0.950 . S
H2489 C2467 0.950 . S
C2490 C2491 1.349 . S
C2490 C2492 1.327 . S
C2490 H2515 0.950 . S
C2491 C2490 1.349 . S
C2491 C2507 1.349 . S
C2492 C2490 1.327 . S
C2492 C2511 1.429 . S
C2492 H2516 0.950 . S
C2493 C2510 1.574 . S
C2493 C2512 1.368 . S
C2493 H2517 0.949 . S
H2494 C2498 0.949 . S
C2495 C2496 1.349 . S
C2495 C2497 1.327 . S
C2495 H2518 0.950 . S
C2496 C2495 1.349 . S
C2496 C2508 1.349 . S
C2497 C2495 1.327 . S
C2497 C2513 1.429 . S
C2497 H2519 0.950 . S
C2498 H2494 0.949 . S
C2498 C2506 1.574 . S
C2498 C2514 1.368 . S
H2499 C2507 0.950 . S
H2500 C2505 0.950 . S
H2501 C2506 0.949 . S
H2502 C2508 0.950 . S
H2503 C2509 0.950 . S
H2504 C2510 0.949 . S
C2505 H2500 0.950 . S
C2505 C2507 1.327 . S
C2505 C2511 1.429 . S
C2506 C2498 1.574 . S
C2506 H2501 0.949 . S
C2506 C2512 1.368 . S
C2507 C2491 1.349 . S
C2507 H2499 0.950 . S
C2507 C2505 1.327 . S
C2508 C2496 1.349 . S
C2508 H2502 0.950 . S
C2508 C2509 1.327 . S
C2509 H2503 0.950 . S
C2509 C2508 1.327 . S
C2509 C2513 1.429 . S
C2510 C2493 1.574 . S
C2510 H2504 0.949 . S
C2510 C2514 1.368 . S
C2511 C2492 1.429 . S
C2511 C2505 1.429 . S
C2511 C2512 1.523 . S
C2512 C2493 1.368 . S
C2512 C2506 1.368 . S
C2512 C2511 1.523 . S
C2513 C2497 1.429 . S
C2513 C2509 1.429 . S
C2513 C2514 1.523 . S
C2514 C2498 1.368 . S
C2514 C2510 1.368 . S
C2514 C2513 1.523 . S
H2515 C2490 0.950 . S
H2516 C2492 0.950 . S
H2517 C2493 0.949 . S
H2518 C2495 0.950 . S
H2519 C2497 0.950 . S
C2520 C2521 1.349 . S
C2520 C2522 1.327 . S
C2520 H2545 0.950 . S
C2521 C2520 1.349 . S
C2521 C2537 1.349 . S
C2522 C2520 1.327 . S
C2522 C2541 1.429 . S
C2522 H2546 0.950 . S
C2523 C2540 1.574 . S
C2523 C2542 1.368 . S
C2523 H2547 0.949 . S
H2524 C2528 0.949 . S
C2525 C2526 1.355 . S
C2525 C2527 1.328 . S
C2525 H2548 0.942 1_556 S
C2526 C2525 1.355 . S
C2526 C2538 1.349 . S
C2527 C2525 1.328 . S
C2527 C2543 1.429 . S
C2527 H2549 0.950 1_556 S
C2528 H2524 0.949 . S
C2528 C2536 1.574 . S
C2528 C2544 1.368 . S
H2529 C2537 0.950 . S
H2530 C2535 0.950 . S
H2531 C2536 0.949 . S
H2532 C2538 0.950 . S
H2533 C2539 0.950 . S
H2534 C2540 0.949 1_554 S
C2535 H2530 0.950 . S
C2535 C2537 1.327 . S
C2535 C2541 1.429 . S
C2536 C2528 1.574 . S
C2536 H2531 0.949 . S
C2536 C2542 1.368 . S
C2537 C2521 1.349 . S
C2537 H2529 0.950 . S
C2537 C2535 1.327 . S
C2538 C2526 1.349 . S
C2538 H2532 0.950 . S
C2538 C2539 1.327 . S
C2539 H2533 0.950 . S
C2539 C2538 1.327 . S
C2539 C2543 1.429 . S
C2540 C2523 1.574 . S
C2540 H2534 0.949 1_556 S
C2540 C2544 1.368 . S
C2541 C2522 1.429 . S
C2541 C2535 1.429 . S
C2541 C2542 1.523 . S
C2542 C2523 1.368 . S
C2542 C2536 1.368 . S
C2542 C2541 1.523 . S
C2543 C2527 1.429 . S
C2543 C2539 1.429 . S
C2543 C2544 1.523 . S
C2544 C2528 1.368 . S
C2544 C2540 1.368 . S
C2544 C2543 1.523 . S
H2545 C2520 0.950 . S
H2546 C2522 0.950 . S
H2547 C2523 0.949 . S
H2548 C2525 0.942 1_554 S
H2549 C2527 0.950 1_554 S
C2550 C2551 1.349 . S
C2550 C2552 1.327 . S
C2550 H2575 0.950 . S
C2551 C2550 1.349 . S
C2551 C2567 1.349 . S
C2552 C2550 1.327 . S
C2552 C2571 1.429 . S
C2552 H2576 0.950 . S
C2553 C2570 1.574 . S
C2553 C2572 1.368 . S
C2553 H2577 0.949 . S
H2554 C2558 0.949 . S
C2555 C2556 1.349 . S
C2555 C2557 1.327 . S
C2555 H2578 0.950 . S
C2556 C2555 1.349 . S
C2556 C2568 1.349 . S
C2557 C2555 1.327 . S
C2557 C2573 1.429 . S
C2557 H2579 0.950 . S
C2558 H2554 0.949 . S
C2558 C2566 1.574 . S
C2558 C2574 1.368 . S
H2559 C2567 0.950 . S
H2560 C2565 0.950 . S
H2561 C2566 0.949 . S
H2562 C2568 0.950 . S
H2563 C2569 0.950 . S
H2564 C2570 0.949 . S
C2565 H2560 0.950 . S
C2565 C2567 1.327 . S
C2565 C2571 1.429 . S
C2566 C2558 1.574 . S
C2566 H2561 0.949 . S
C2566 C2572 1.368 . S
C2567 C2551 1.349 . S
C2567 H2559 0.950 . S
C2567 C2565 1.327 . S
C2568 C2556 1.349 . S
C2568 H2562 0.950 . S
C2568 C2569 1.327 . S
C2569 H2563 0.950 . S
C2569 C2568 1.327 . S
C2569 C2573 1.429 . S
C2570 C2553 1.574 . S
C2570 H2564 0.949 . S
C2570 C2574 1.368 . S
C2571 C2552 1.429 . S
C2571 C2565 1.429 . S
C2571 C2572 1.523 . S
C2572 C2553 1.368 . S
C2572 C2566 1.368 . S
C2572 C2571 1.523 . S
C2573 C2557 1.429 . S
C2573 C2569 1.429 . S
C2573 C2574 1.523 . S
C2574 C2558 1.368 . S
C2574 C2570 1.368 . S
C2574 C2573 1.523 . S
H2575 C2550 0.950 . S
H2576 C2552 0.950 . S
H2577 C2553 0.949 . S
H2578 C2555 0.950 . S
H2579 C2557 0.950 . S
C2580 C2581 1.349 . S
C2580 C2582 1.327 . S
C2580 H2605 0.950 . S
C2581 C2580 1.349 . S
C2581 C2597 1.349 . S
C2582 C2580 1.327 . S
C2582 C2601 1.429 . S
C2582 H2606 0.950 . S
C2583 C2600 1.574 . S
C2583 C2602 1.368 . S
C2583 H2607 0.949 . S
H2584 C2588 0.942 1_556 S
C2585 C2586 1.349 . S
C2585 C2587 1.327 . S
C2585 H2608 0.950 . S
C2586 C2585 1.349 . S
C2586 C2598 1.349 . S
C2587 C2585 1.327 . S
C2587 C2603 1.429 . S
C2587 H2609 0.950 . S
C2588 H2584 0.942 1_554 S
C2588 C2596 1.574 . S
C2588 C2604 1.368 . S
H2589 C2597 0.950 . S
H2590 C2595 0.950 . S
H2591 C2596 0.949 . S
H2592 C2598 0.950 1_556 S
H2593 C2599 0.950 1_556 S
H2594 C2600 0.949 . S
C2595 H2590 0.950 . S
C2595 C2597 1.327 . S
C2595 C2601 1.429 . S
C2596 C2588 1.574 . S
C2596 H2591 0.949 . S
C2596 C2602 1.368 . S
C2597 C2581 1.349 . S
C2597 H2589 0.950 . S
C2597 C2595 1.327 . S
C2598 C2586 1.349 . S
C2598 H2592 0.950 1_554 S
C2598 C2599 1.327 . S
C2599 H2593 0.950 1_554 S
C2599 C2598 1.327 . S
C2599 C2603 1.429 . S
C2600 C2583 1.574 . S
C2600 H2594 0.949 . S
C2600 C2604 1.368 . S
C2601 C2582 1.429 . S
C2601 C2595 1.429 . S
C2601 C2602 1.523 . S
C2602 C2583 1.368 . S
C2602 C2596 1.368 . S
C2602 C2601 1.523 . S
C2603 C2587 1.429 . S
C2603 C2599 1.429 . S
C2603 C2604 1.523 . S
C2604 C2588 1.368 . S
C2604 C2600 1.368 . S
C2604 C2603 1.523 . S
H2605 C2580 0.950 . S
H2606 C2582 0.950 . S
H2607 C2583 0.949 . S
H2608 C2585 0.950 . S
H2609 C2587 0.950 . S
C2610 C2611 1.349 1_565 S
C2610 C2612 1.327 . S
C2610 H2635 0.950 . S
C2611 C2610 1.349 1_545 S
C2611 C2627 1.349 . S
C2612 C2610 1.327 . S
C2612 C2631 1.429 . S
C2612 H2636 0.950 . S
C2613 C2630 1.574 . S
C2613 C2632 1.368 . S
C2613 H2637 0.949 . S
H2614 C2618 0.949 . S
C2615 C2616 1.349 . S
C2615 C2617 1.327 . S
C2615 H2638 0.950 1_554 S
C2616 C2615 1.349 . S
C2616 C2628 1.349 . S
C2617 C2615 1.327 . S
C2617 C2633 1.429 . S
C2617 H2639 0.950 1_554 S
C2618 H2614 0.949 . S
C2618 C2626 1.574 . S
C2618 C2634 1.368 . S
H2619 C2627 0.950 . S
H2620 C2625 0.950 . S
H2621 C2626 0.949 . S
H2622 C2628 0.950 . S
H2623 C2629 0.950 . S
H2624 C2630 0.949 1_556 S
C2625 H2620 0.950 . S
C2625 C2627 1.327 . S
C2625 C2631 1.429 1_545 S
C2626 C2618 1.574 . S
C2626 H2621 0.949 . S
C2626 C2632 1.368 . S
C2627 C2611 1.349 . S
C2627 H2619 0.950 . S
C2627 C2625 1.327 . S
C2628 C2616 1.349 . S
C2628 H2622 0.950 . S
C2628 C2629 1.327 . S
C2629 H2623 0.950 . S
C2629 C2628 1.327 . S
C2629 C2633 1.429 . S
C2630 C2613 1.574 . S
C2630 H2624 0.949 1_554 S
C2630 C2634 1.368 . S
C2631 C2612 1.429 . S
C2631 C2625 1.429 1_565 S
C2631 C2632 1.523 . S
C2632 C2613 1.368 . S
C2632 C2626 1.368 . S
C2632 C2631 1.523 . S
C2633 C2617 1.429 . S
C2633 C2629 1.429 . S
C2633 C2634 1.523 . S
C2634 C2618 1.368 . S
C2634 C2630 1.368 . S
C2634 C2633 1.523 . S
H2635 C2610 0.950 . S
H2636 C2612 0.950 . S
H2637 C2613 0.949 . S
H2638 C2615 0.950 1_556 S
H2639 C2617 0.950 1_556 S
C1206 C193 1.512 . S
C1201 C50 1.516 . S
C1236 C252 1.499 . S
C1231 C61 1.498 . S
C1261 C67 1.511 . S
C1266 C369 1.511 . S
C1296 C437 1.508 . S
C1291 C41 1.507 . S
C1326 C516 1.499 . S
C1321 C95 1.499 . S
C1356 C641 1.523 . S
C1351 C113 1.521 . S
C1381 C106 1.487 . S
C1386 C701 1.487 . S
C1416 C809 1.521 . S
C1411 C86 1.521 . S
C1441 C104 1.495 . S
C1446 C905 1.495 . S
C1476 C965 1.519 . S
C1471 C88 1.519 . S
C1501 C94 1.523 . S
C1506 C868 1.523 . S
C1536 C985 1.504 . S
C1531 C112 1.503 . S
C1561 C70 1.495 . S
C1566 C1053 1.495 . S
C1591 C40 1.516 . S
C1596 C1044 1.517 . S
C1621 C49 1.510 . S
C1626 C1073 1.511 . S
C1651 C59 1.518 . S
C1656 C1081 1.520 . S
C1681 C34 1.493 . S
C1686 C465 1.493 . S
C1711 C133 1.499 . S
C1716 C428 1.499 . S
C1746 C164 1.518 . S
C1741 C139 1.518 . S
C1776 C261 1.512 . S
C1771 C77 1.512 . S
C1801 C43 1.498 . S
C1806 C525 1.500 . S
C1836 C817 1.505 . S
C1831 C103 1.505 . S
C1866 C545 1.533 . S
C1861 C85 1.533 . S
C1896 C729 1.496 . S
C1891 C115 1.495 . S
C1926 C721 1.512 . S
C1921 C131 1.512 . S
C1951 C142 1.498 . S
C1956 C789 1.500 . S
C1981 C76 1.511 . S
C1986 C553 1.511 . S
C2016 C604 1.508 . S
C2011 C122 1.506 . S
C2041 C32 1.499 . S
C2046 C349 1.499 . S
C2076 C457 1.523 . S
C2071 C5 1.521 . S
C2106 C173 1.487 . S
C2101 C16 1.483 . S
C2136 C289 1.521 . S
C2131 C23 1.521 . S
C2161 C14 1.495 . S
C2166 C993 1.495 . S
C2191 C25 1.519 . S
C2196 C877 1.519 . S
C2221 C31 1.523 . S
C2226 C956 1.523 . S
C2251 C4 1.503 . S
C2256 C897 1.504 . S
C2286 C1141 1.495 . S
C2281 C79 1.495 . S
C2316 C1132 1.517 . S
C2311 C121 1.516 . S
C2346 C1161 1.511 . S
C2341 C130 1.510 . S
C2371 C140 1.518 . S
C2376 C1169 1.520 . S
C2401 C97 1.493 . S
C2406 C633 1.494 . S
C2436 C613 1.499 . S
C2431 C52 1.499 . S
C2466 C692 1.518 . S
C2461 C58 1.517 . S
C2496 C780 1.512 . S
C2491 C68 1.512 . S
C2521 C124 1.498 . S
C2526 C340 1.499 . S
C2556 C281 1.505 . S
C2551 C13 1.505 . S
C2581 C22 1.532 . S
C2586 C377 1.533 . S
C2616 C201 1.496 . S
C2611 C7 1.494 . S
