# Generated by pormake.
# Topology zzz, (3,6)-cn, num edge types: 1
# Building blocks:
#     Node 0, Type 0, BuildingBlock: BETDIP_clean_linker_0, # of connection points: 3
#     Node 1, Type 0, BuildingBlock: BETDIP_clean_linker_0, # of connection points: 3
#     Node 2, Type 0, BuildingBlock: BETDIP_clean_linker_0, # of connection points: 3
#     Node 3, Type 0, BuildingBlock: BETDIP_clean_linker_0, # of connection points: 3
#     Node 4, Type 0, BuildingBlock: BETDIP_clean_linker_0, # of connection points: 3
#     Node 5, Type 0, BuildingBlock: BETDIP_clean_linker_0, # of connection points: 3
#     Node 6, Type 0, BuildingBlock: BETDIP_clean_linker_0, # of connection points: 3
#     Node 7, Type 0, BuildingBlock: BETDIP_clean_linker_0, # of connection points: 3
#     Node 8, Type 1, BuildingBlock: BETDEL_clean_sbu_0, # of connection points: 6
#     Node 9, Type 1, BuildingBlock: BETDEL_clean_sbu_0, # of connection points: 6
#     Node 10, Type 1, BuildingBlock: BETDEL_clean_sbu_0, # of connection points: 6
#     Node 11, Type 1, BuildingBlock: BETDEL_clean_sbu_0, # of connection points: 6
#     Edge 12, Type (0, 1), BuildingBlock: CIFDUS_clean_linker_0, # of connection points: 2
#     Edge 13, Type (0, 1), BuildingBlock: CIFDUS_clean_linker_0, # of connection points: 2
#     Edge 14, Type (0, 1), BuildingBlock: CIFDUS_clean_linker_0, # of connection points: 2
#     Edge 15, Type (0, 1), BuildingBlock: CIFDUS_clean_linker_0, # of connection points: 2
#     Edge 16, Type (0, 1), BuildingBlock: CIFDUS_clean_linker_0, # of connection points: 2
#     Edge 17, Type (0, 1), BuildingBlock: CIFDUS_clean_linker_0, # of connection points: 2
#     Edge 18, Type (0, 1), BuildingBlock: CIFDUS_clean_linker_0, # of connection points: 2
#     Edge 19, Type (0, 1), BuildingBlock: CIFDUS_clean_linker_0, # of connection points: 2
#     Edge 20, Type (0, 1), BuildingBlock: CIFDUS_clean_linker_0, # of connection points: 2
#     Edge 21, Type (0, 1), BuildingBlock: CIFDUS_clean_linker_0, # of connection points: 2
#     Edge 22, Type (0, 1), BuildingBlock: CIFDUS_clean_linker_0, # of connection points: 2
#     Edge 23, Type (0, 1), BuildingBlock: CIFDUS_clean_linker_0, # of connection points: 2
#     Edge 24, Type (0, 1), BuildingBlock: CIFDUS_clean_linker_0, # of connection points: 2
#     Edge 25, Type (0, 1), BuildingBlock: CIFDUS_clean_linker_0, # of connection points: 2
#     Edge 26, Type (0, 1), BuildingBlock: CIFDUS_clean_linker_0, # of connection points: 2
#     Edge 27, Type (0, 1), BuildingBlock: CIFDUS_clean_linker_0, # of connection points: 2
#     Edge 28, Type (0, 1), BuildingBlock: CIFDUS_clean_linker_0, # of connection points: 2
#     Edge 29, Type (0, 1), BuildingBlock: CIFDUS_clean_linker_0, # of connection points: 2
#     Edge 30, Type (0, 1), BuildingBlock: CIFDUS_clean_linker_0, # of connection points: 2
#     Edge 31, Type (0, 1), BuildingBlock: CIFDUS_clean_linker_0, # of connection points: 2
#     Edge 32, Type (0, 1), BuildingBlock: CIFDUS_clean_linker_0, # of connection points: 2
#     Edge 33, Type (0, 1), BuildingBlock: CIFDUS_clean_linker_0, # of connection points: 2
#     Edge 34, Type (0, 1), BuildingBlock: CIFDUS_clean_linker_0, # of connection points: 2
#     Edge 35, Type (0, 1), BuildingBlock: CIFDUS_clean_linker_0, # of connection points: 2
# Relax obj value: 0.161
# Max RMSD: 0.181
# Mean RMSD: 0.117
data_MOF--net-zzz--node1-BETDEL_clean_sbu_0--node2-BETDIP_clean_linker_0--edge1-CIFDUS_clean_linker_0
_symmetry_space_group_name_H-M    P1
_symmetry_Int_Tables_number       1
_symmetry_cell_setting            triclinic
loop_
_symmetry_equiv_pos_as_xyz
'x, y, z'
_cell_length_a     43.511551
_cell_length_b     44.404899
_cell_length_c     12.885147
_cell_angle_alpha  91.104144
_cell_angle_beta   88.247847
_cell_angle_gamma 95.2038
loop_
_atom_site_label
_atom_site_type_symbol
_atom_site_fract_x
_atom_site_fract_y
_atom_site_fract_z
_atom_type_partial_charge
H0 H 0.75631 0.53252 0.26009 0.0
H1 H 0.74292 0.4844 0.9687 0.0
H2 H 0.82707 0.48046 0.13136 0.0
H3 H 0.73399 0.55494 0.00073 0.0
C4 C 0.71315 0.54166 0.02789 0.0
C5 C 0.76413 0.51689 0.20159 0.0
C6 C 0.79411 0.50719 0.20535 0.0
C7 C 0.74519 0.50786 0.11688 0.0
C8 C 0.75657 0.48956 0.03679 0.0
C9 C 0.78604 0.47933 0.04183 0.0
C10 C 0.8038 0.4873 0.12844 0.0
N11 N 0.71617 0.51966 0.10493 0.0
H12 H 0.99709 0.7458 0.24387 0.0
H13 H 0.04087 0.77165 0.95105 0.0
H14 H 0.05709 0.82767 0.22212 0.0
H15 H 0.99443 0.74189 0.90828 0.0
C16 C 0.99973 0.72167 0.94798 0.0
C17 C 0.01365 0.76056 0.19994 0.0
C18 C 0.02586 0.78817 0.24402 0.0
C19 C 0.02119 0.75323 0.0957 0.0
C20 C 0.03804 0.77541 0.03388 0.0
C21 C 0.04953 0.8032 0.0785 0.0
C22 C 0.04731 0.80676 0.18636 0.0
N23 N 1.00974 0.72473 0.05212 0.0
H24 H 0.76062 0.98445 0.26893 0.0
H25 H 0.75449 0.02767 0.97501 0.0
H26 H 0.69625 0.05089 0.23172 0.0
H27 H 0.78227 0.98367 0.93338 0.0
C28 C 0.80098 0.99091 0.98475 0.0
C29 C 0.75101 1.0012 0.22263 0.0
C30 C 0.7247 0.01513 0.25998 0.0
C31 C 0.76416 1.00847 0.12288 0.0
C32 C 0.74745 0.02544 0.05592 0.0
C33 C 0.72108 0.03874 0.09393 0.0
C34 C 0.71456 0.03806 0.20071 0.0
N35 N 0.79335 0.99831 0.09032 0.0
H36 H 0.54452 0.76687 0.22203 0.0
H37 H 0.4818 0.74434 0.97447 0.0
H38 H 0.47515 0.69259 0.25256 0.0
H39 H 0.5098 0.78073 0.89265 0.0
C40 C 0.51584 0.79842 0.94959 0.0
C41 C 0.52461 0.75341 0.19214 0.0
C42 C 0.51227 0.72737 0.24513 0.0
C43 C 0.51148 0.7616 0.09879 0.0
C44 C 0.4894 0.74056 0.0516 0.0
C45 C 0.47805 0.7139 0.1035 0.0
C46 C 0.4859 0.71118 0.20723 0.0
N47 N 0.52132 0.79032 0.05382 0.0
H48 H 0.26023 0.48293 0.90995 0.0
H49 H 0.27581 0.54039 0.18071 0.0
H50 H 0.19122 0.5401 0.01781 0.0
H51 H 0.33053 0.5426 0.06342 0.0
C52 C 0.32812 0.51921 0.08814 0.0
C53 C 0.25294 0.50038 0.9626 0.0
C54 C 0.22349 0.51096 0.95346 0.0
C55 C 0.27262 0.51208 0.04235 0.0
C56 C 0.26196 0.53327 0.11462 0.0
C57 C 0.23241 0.54317 0.10725 0.0
C58 C 0.21432 0.53302 0.02346 0.0
N59 N 0.30157 0.50027 0.05732 0.0
H60 H 0.04476 0.25273 0.94652 0.0
H61 H 0.9773 0.25026 0.19813 0.0
H62 H 0.97815 0.17589 0.98129 0.0
H63 H 0.97955 0.30842 0.08652 0.0
C64 C 1.00177 0.30954 0.12345 0.0
C65 C 0.0242 0.24194 0.98442 0.0
C66 C 0.01217 0.21288 0.95165 0.0
C67 C 1.00963 0.25677 0.06791 0.0
C68 C 0.98554 0.24081 0.1254 0.0
C69 C 0.97458 0.21136 0.09497 0.0
C70 C 0.98602 0.19906 0.00273 0.0
N71 N 0.0215 0.28613 0.10187 0.0
H72 H 0.25427 0.01923 0.84396 0.0
H73 H 0.2603 0.97534 0.13564 0.0
H74 H 0.32213 0.95615 0.88225 0.0
H75 H 0.19914 0.95805 0.03249 0.0
C76 C 0.19743 0.98147 0.05653 0.0
C77 C 0.26438 1.00279 0.89018 0.0
C78 C 0.29098 0.98933 0.85255 0.0
C79 C 0.25084 0.99417 0.98825 0.0
C80 C 0.26777 0.97756 0.05503 0.0
C81 C 0.29545 0.96629 0.01918 0.0
C82 C 0.30261 0.96745 0.91276 0.0
N83 N 0.22156 1.00349 0.02304 0.0
H84 H 0.48961 0.26816 0.96678 0.0
H85 H 0.55763 0.28683 0.20291 0.0
H86 H 0.53137 0.35822 0.0143 0.0
H87 H 0.56717 0.23846 0.15979 0.0
C88 C 0.54371 0.22778 0.16565 0.0
C89 C 0.50608 0.2837 0.00659 0.0
C90 C 0.50979 0.31449 0.97892 0.0
C91 C 0.52393 0.27318 0.08648 0.0
C92 C 0.54472 0.29418 0.13915 0.0
C93 C 0.54804 0.32493 0.11293 0.0
C94 C 0.53048 0.33442 0.03264 0.0
N95 N 0.51986 0.2421 0.11706 0.0
Dy96 Dy 0.02444 0.99252 0.63491 0.0
C97 C 0.97838 0.05159 0.3136 0.0
C98 C 0.04473 0.95833 0.78879 0.0
Dy99 Dy 0.99246 0.01292 0.46475 0.0
O100 O 0.05491 0.95871 0.69351 0.0
O101 O 0.02396 0.97742 0.8012 0.0
O102 O 0.06858 0.01749 0.57599 0.0
O103 O 0.03819 0.99623 0.46901 0.0
C104 C 0.0637 0.01205 0.47826 0.0
C105 C 0.9521 0.99107 0.612 0.0
O106 O 0.99267 0.9657 0.40376 0.0
O107 O 1.00268 0.94881 0.56615 0.0
O108 O 0.95962 0.04111 0.38702 0.0
O109 O 1.0035 0.03799 0.31715 0.0
O110 O 0.94841 0.98766 0.51261 0.0
O111 O 0.97724 1.00725 0.62995 0.0
O112 O 0.02531 0.04013 0.69696 0.0
O113 O 1.01044 0.05658 0.54018 0.0
C114 C 0.99509 0.9433 0.46846 0.0
C115 C 0.01987 0.06233 0.63525 0.0
Dy116 Dy 0.49195 0.9984 0.47539 0.0
C117 C 0.56619 0.04964 0.79537 0.0
C118 C 0.44951 0.97718 0.33518 0.0
Dy119 Dy 0.52256 0.02995 0.65657 0.0
O120 O 0.47721 0.98901 0.31151 0.0
O121 O 0.44525 0.97674 0.43494 0.0
O122 O 0.53636 0.97716 0.43036 0.0
O123 O 0.53806 0.02 0.49998 0.0
C124 C 0.5543 0.9993 0.46944 0.0
C125 C 0.46091 0.0326 0.66229 0.0
O126 O 0.52371 0.06964 0.55002 0.0
O127 O 0.4881 0.04728 0.43568 0.0
O128 O 0.53774 0.04036 0.81988 0.0
O129 O 0.57039 0.04856 0.69578 0.0
O130 O 0.48066 0.05358 0.6994 0.0
O131 O 0.47506 0.01 0.63226 0.0
O132 O 0.49293 0.95792 0.57294 0.0
O133 O 0.52538 0.9804 0.69674 0.0
C134 C 0.50559 0.07129 0.46964 0.0
C135 C 0.50999 0.95606 0.6552 0.0
Dy136 Dy 0.48921 0.52452 0.67108 0.0
C137 C 0.57001 0.4808 0.37491 0.0
C138 C 0.45913 0.55487 0.82431 0.0
Dy139 Dy 0.53473 0.51019 0.51672 0.0
O140 O 0.45484 0.5567 0.72583 0.0
O141 O 0.47876 0.53513 0.83908 0.0
O142 O 0.45096 0.49994 0.58116 0.0
O143 O 0.48788 0.52346 0.50067 0.0
C144 C 0.46282 0.50696 0.49006 0.0
C145 C 0.56108 0.53024 0.69377 0.0
O146 O 0.53408 0.55858 0.47036 0.0
O147 O 0.51206 0.57041 0.62866 0.0
O148 O 0.57423 0.48305 0.47365 0.0
O149 O 0.54675 0.49567 0.35234 0.0
O150 O 0.57141 0.53772 0.60147 0.0
O151 O 0.53675 0.51223 0.68752 0.0
O152 O 0.48828 0.47617 0.71611 0.0
O153 O 0.51261 0.46394 0.56208 0.0
C154 C 0.52501 0.57893 0.5384 0.0
C155 C 0.49829 0.45571 0.65075 0.0
Dy156 Dy 0.99134 0.49283 0.64559 0.0
C157 C 0.07747 0.5464 0.37598 0.0
C158 C 0.94109 0.47428 0.76701 0.0
Dy159 Dy 0.02811 0.52689 0.49975 0.0
O160 O 0.96379 0.45792 0.74542 0.0
O161 O 0.947 0.50088 0.7283 0.0
O162 O 1.00914 0.44973 0.58537 0.0
O163 O 1.00155 0.48313 0.47969 0.0
C164 C 0.01109 0.4573 0.4887 0.0
C165 C 1.00666 0.56306 0.64941 0.0
O166 O 0.98491 0.52495 0.40788 0.0
O167 O 0.95522 0.51275 0.55338 0.0
O168 O 0.05464 0.56233 0.39986 0.0
O169 O 0.07226 0.51963 0.41408 0.0
O170 O 1.00928 0.56952 0.55191 0.0
O171 O 0.01684 0.53766 0.66482 0.0
O172 O 0.03397 0.49451 0.7389 0.0
O173 O 0.06417 0.50763 0.5953 0.0
C174 C 0.95754 0.5218 0.45634 0.0
C175 C 0.06148 0.49823 0.69205 0.0
H176 H 0.18941 0.02481 0.21021 0.0
H177 H 0.14085 0.95242 0.03694 0.0
H178 H 0.09421 0.9572 0.14411 0.0
H179 H 0.06816 0.97887 0.2973 0.0
H180 H 0.11764 0.04836 0.48065 0.0
H181 H 0.16238 0.04798 0.36072 0.0
C182 C 0.1684 0.01058 0.19478 0.0
C183 C 0.16857 0.9885 0.11462 0.0
C184 C 0.14173 0.01268 0.25992 0.0
C185 C 0.14132 0.96972 0.0975 0.0
C186 C 0.11461 0.97235 0.15922 0.0
C187 C 0.08857 0.99423 0.31021 0.0
C188 C 0.08943 0.01364 0.3982 0.0
C189 C 0.11466 0.99328 0.24221 0.0
C190 C 0.11629 0.03314 0.41388 0.0
C191 C 0.14197 0.0329 0.34521 0.0
H192 H 0.49387 0.18358 0.17596 0.0
H193 H 0.58257 0.21063 0.30539 0.0
H194 H 0.57802 0.16626 0.41487 0.0
H195 H 0.55011 0.11866 0.47056 0.0
H196 H 0.46292 0.08884 0.33546 0.0
H197 H 0.46553 0.13492 0.23285 0.0
C198 C 0.51202 0.1798 0.22867 0.0
C199 C 0.53852 0.20057 0.23259 0.0
C200 C 0.5096 0.15354 0.29064 0.0
C201 C 0.56196 0.19507 0.30065 0.0
C202 C 0.5594 0.16964 0.36354 0.0
C203 C 0.53148 0.12232 0.41956 0.0
C204 C 0.50628 0.10023 0.41164 0.0
C205 C 0.53348 0.14857 0.35881 0.0
C206 C 0.48264 0.10536 0.34352 0.0
C207 C 0.48412 0.13178 0.28454 0.0
H208 H 0.38575 0.54534 0.11452 0.0
H209 H 0.32284 0.47124 0.22243 0.0
H210 H 0.35969 0.45968 0.35332 0.0
H211 H 0.4086 0.4733 0.44584 0.0
H212 H 0.47192 0.54625 0.33017 0.0
H213 H 0.43616 0.55559 0.19496 0.0
C214 C 0.38029 0.52638 0.16586 0.0
C215 C 0.35157 0.50924 0.1589 0.0
C216 C 0.40168 0.51976 0.24021 0.0
C217 C 0.34484 0.4847 0.22564 0.0
C218 C 0.36588 0.47819 0.30095 0.0
C219 C 0.41478 0.49088 0.38974 0.0
C220 C 0.44291 0.50914 0.39887 0.0
C221 C 0.39421 0.49591 0.31019 0.0
C222 C 0.45058 0.53176 0.32522 0.0
C223 C 0.43009 0.53719 0.24762 0.0
H224 H 0.98192 0.36531 0.117 0.0
H225 H 0.04085 0.31232 0.28719 0.0
H226 H 0.04998 0.3539 0.41376 0.0
H227 H 0.03817 0.4043 0.48246 0.0
H228 H 0.98213 0.45838 0.30434 0.0
H229 H 0.97517 0.41775 0.17411 0.0
C230 C 0.99708 0.36308 0.18116 0.0
C231 C 1.01058 0.33578 0.19311 0.0
C232 C 1.00263 0.38729 0.2524 0.0
C233 C 0.03032 0.33316 0.27605 0.0
C234 C 0.0354 0.35689 0.34871 0.0
C235 C 0.02477 0.40727 0.41438 0.0
C236 C 1.01046 0.43422 0.40362 0.0
C237 C 0.02127 0.3839 0.33866 0.0
C238 C 0.9934 0.4379 0.31457 0.0
C239 C 0.98929 0.41459 0.24024 0.0
H240 H 0.81999 0.96009 0.8174 0.0
H241 H 0.85447 0.02339 0.05255 0.0
H242 H 0.90553 0.028 0.96345 0.0
H243 H 0.93946 0.01659 0.80797 0.0
H244 H 0.90306 0.95154 0.57957 0.0
H245 H 0.85435 0.94483 0.67673 0.0
C246 C 0.8388 0.97461 0.85005 0.0
C247 C 0.83333 0.99141 0.94125 0.0
C248 C 0.86798 0.97693 0.79884 0.0
C249 C 0.85802 0.01005 0.9827 0.0
C250 C 0.88723 0.01279 0.93126 0.0
C251 C 0.92103 1.0006 0.78073 0.0
C252 C 0.925 0.98488 0.68529 0.0
C253 C 0.89244 0.99671 0.83784 0.0
C254 C 0.90073 0.96424 0.65163 0.0
C255 C 0.87269 0.96035 0.7072 0.0
H256 H 0.50481 0.81691 0.75853 0.0
H257 H 0.53208 0.85178 0.05937 0.0
H258 H 0.53406 0.90373 0.99508 0.0
H259 H 0.52654 0.93959 0.85188 0.0
H260 H 0.49788 0.90255 0.55406 0.0
H261 H 0.49811 0.85162 0.61831 0.0
C262 C 0.51132 0.83588 0.81011 0.0
C263 C 0.5183 0.83038 0.9135 0.0
C264 C 0.51212 0.86554 0.77289 0.0
C265 C 0.5266 0.85526 0.97933 0.0
C266 C 0.52771 0.88502 0.94245 0.0
C267 C 0.52055 0.92036 0.80105 0.0
C268 C 0.51204 0.92522 0.69802 0.0
C269 C 0.52034 0.89053 0.83918 0.0
C270 C 0.50423 0.89983 0.63375 0.0
C271 C 0.50439 0.8705 0.67035 0.0
H272 H 0.65665 0.50661 0.03847 0.0
H273 H 0.70438 0.58504 0.89369 0.0
H274 H 0.66023 0.59035 0.78614 0.0
H275 H 0.6102 0.57047 0.72123 0.0
H276 H 0.56151 0.49174 0.85955 0.0
H277 H 0.60341 0.48897 0.98172 0.0
C278 C 0.65713 0.52507 0.98445 0.0
C279 C 0.68395 0.54537 0.97381 0.0
C280 C 0.63147 0.52789 0.92121 0.0
C281 C 0.68415 0.56909 0.90317 0.0
C282 C 0.65889 0.57215 0.84141 0.0
C283 C 0.60847 0.55299 0.77939 0.0
C284 C 0.58284 0.53131 0.78092 0.0
C285 C 0.63274 0.55136 0.84809 0.0
C286 C 0.5809 0.50885 0.85698 0.0
C287 C 0.60501 0.50715 0.92644 0.0
H288 H 0.01631 0.66507 0.00232 0.0
H289 H 0.97433 0.71256 0.76247 0.0
H290 H 0.97023 0.66696 0.65416 0.0
H291 H 0.98158 0.615 0.62116 0.0
H292 H 0.02466 0.56617 0.8541 0.0
H293 H 0.02488 0.61049 0.97205 0.0
C294 C 1.00598 0.66525 0.92687 0.0
C295 C 0.99571 0.69229 0.89028 0.0
C296 C 1.00395 0.63871 0.86364 0.0
C297 C 0.98247 0.69214 0.79225 0.0
C298 C 0.98012 0.66606 0.73012 0.0
C299 C 0.99077 0.61389 0.69821 0.0
C300 C 1.00329 0.58743 0.72851 0.0
C301 C 0.99124 0.63943 0.76414 0.0
C302 C 0.01484 0.58627 0.82892 0.0
C303 C 0.01514 0.6117 0.89602 0.0
H304 H 1.00701 0.19019 0.24093 0.0
H305 H 0.91727 0.17959 0.10715 0.0
H306 H 0.90923 0.12752 0.17035 0.0
H307 H 0.93221 0.08235 0.23723 0.0
H308 H 0.0267 0.09274 0.3343 0.0
H309 H 0.02905 0.14692 0.30895 0.0
C310 C 0.98509 0.1769 0.23018 0.0
C311 C 0.96253 0.18875 0.17163 0.0
C312 C 0.98235 0.14626 0.25501 0.0
C313 C 0.9346 0.1711 0.15459 0.0
C314 C 0.93045 0.14109 0.18809 0.0
C315 C 0.9533 0.09659 0.25141 0.0
C316 C 0.9795 0.08354 0.28463 0.0
C317 C 0.95492 0.12792 0.23314 0.0
C318 C 1.00657 0.10214 0.30511 0.0
C319 C 1.00781 0.13322 0.29242 0.0
H320 H 0.35683 0.97946 0.98243 0.0
H321 H 0.29197 0.94354 0.22005 0.0
H322 H 0.33482 0.94188 0.33887 0.0
H323 H 0.39044 0.95395 0.37607 0.0
H324 H 0.45337 0.98648 0.1288 0.0
H325 H 0.41096 0.98422 0.00932 0.0
C326 C 0.35157 0.96966 0.05797 0.0
C327 C 0.3208 0.9609 0.09044 0.0
C328 C 0.37605 0.96806 0.12385 0.0
C329 C 0.31522 0.95041 0.1922 0.0
C330 C 0.33975 0.94934 0.26004 0.0
C331 C 0.39483 0.95993 0.29541 0.0
C332 C 0.42484 0.97062 0.26094 0.0
C333 C 0.37022 0.95859 0.22689 0.0
C334 C 0.43045 0.97827 0.15676 0.0
C335 C 0.40622 0.97713 0.08872 0.0
H336 H 0.57944 0.37763 0.04618 0.0
H337 H 0.55751 0.32589 0.32374 0.0
H338 H 0.57168 0.37049 0.43011 0.0
H339 H 0.57699 0.42564 0.44367 0.0
H340 H 0.58327 0.47875 0.16627 0.0
H341 H 0.5876 0.43275 0.0599 0.0
C342 C 0.57767 0.37599 0.13004 0.0
C343 C 0.56609 0.3485 0.17618 0.0
C344 C 0.58233 0.40244 0.19063 0.0
C345 C 0.56599 0.34654 0.28506 0.0
C346 C 0.57363 0.37228 0.34632 0.0
C347 C 0.58018 0.42718 0.36004 0.0
C348 C 0.57993 0.45532 0.31214 0.0
C349 C 0.57981 0.40059 0.29982 0.0
C350 C 0.58354 0.4572 0.20404 0.0
C351 C 0.58583 0.43093 0.14367 0.0
H352 H 0.19429 0.58881 0.10739 0.0
H353 H 0.233 0.52671 0.30941 0.0
H354 H 0.18747 0.5261 0.42356 0.0
H355 H 0.13195 0.53099 0.43553 0.0
H356 H 0.09058 0.58911 0.22649 0.0
H357 H 0.14133 0.60264 0.14251 0.0
C358 C 0.19321 0.57616 0.17883 0.0
C359 C 0.21629 0.55674 0.19731 0.0
C360 C 0.16574 0.5738 0.23913 0.0
C361 C 0.21535 0.5414 0.29191 0.0
C362 C 0.18891 0.54043 0.35611 0.0
C363 C 0.13418 0.54693 0.37237 0.0
C364 C 0.10776 0.55825 0.33396 0.0
C365 C 0.16313 0.5544 0.32518 0.0
C366 C 0.11075 0.57969 0.25511 0.0
C367 C 0.1397 0.58747 0.20773 0.0
H368 H 0.03263 0.85921 0.12453 0.0
H369 H 0.08025 0.80964 0.88703 0.0
H370 H 0.08598 0.85502 0.77968 0.0
H371 H 0.07381 0.90757 0.74997 0.0
H372 H 0.02636 0.95555 0.99148 0.0
H373 H 0.0259 0.91198 0.10438 0.0
C374 C 0.04546 0.85827 0.05124 0.0
C375 C 0.05654 0.83091 0.01512 0.0
C376 C 0.04885 0.88424 0.99124 0.0
C377 C 0.07152 0.83026 0.91703 0.0
C378 C 0.07489 0.85624 0.85592 0.0
C379 C 0.06401 0.90866 0.82822 0.0
C380 C 0.04997 0.93459 0.86262 0.0
C381 C 0.06318 0.88321 0.89174 0.0
C382 C 0.03718 0.93578 0.96357 0.0
C383 C 0.03676 0.91084 0.0277 0.0
H384 H 0.65937 0.031 0.134 0.0
H385 H 0.72578 0.06321 0.89541 0.0
H386 H 0.68299 0.07186 0.78282 0.0
H387 H 0.62656 0.06726 0.75137 0.0
H388 H 0.56255 0.03916 0.00129 0.0
H389 H 0.60544 0.0342 0.11487 0.0
C390 C 0.66518 0.04148 0.05986 0.0
C391 C 0.69626 0.04721 0.02522 0.0
C392 C 0.64085 0.04745 -0.00174 0.0
C393 C 0.7023 0.0586 0.92486 0.0
C394 C 0.67782 0.06374 0.86074 0.0
C395 C 0.62211 0.06075 0.83153 0.0
C396 C 0.59155 0.05329 0.86819 0.0
C397 C 0.64698 0.05788 0.89651 0.0
C398 C 0.58587 0.04497 0.97172 0.0
C399 C 0.61036 0.0419 0.03623 0.0
H400 H 0.48205 0.65478 0.1533 0.0
H401 H 0.44398 0.70918 0.92203 0.0
H402 H 0.43039 0.66321 0.81951 0.0
H403 H 0.43528 0.60833 0.78802 0.0
H404 H 0.47143 0.55622 0.0282 0.0
H405 H 0.47746 0.60108 0.13966 0.0
C406 C 0.46921 0.65729 0.0839 0.0
C407 C 0.46402 0.68621 0.04734 0.0
C408 C 0.4608 0.63095 0.0271 0.0
C409 C 0.44889 0.68767 0.95267 0.0
C410 C 0.44085 0.66127 0.89406 0.0
C411 C 0.44344 0.60665 0.86621 0.0
C412 C 0.45322 0.57909 0.89984 0.0
C413 C 0.44753 0.63285 0.92936 0.0
C414 C 0.46387 0.57717 0.00073 0.0
C415 C 0.4676 0.60288 0.064 0.0
H416 H 0.82299 0.43284 0.0321 0.0
H417 H 0.78719 0.5004 0.84484 0.0
H418 H 0.83267 0.50118 0.7301 0.0
H419 H 0.88753 0.49358 0.71428 0.0
H420 H 0.92615 0.42976 0.9094 0.0
H421 H 0.87512 0.41732 0.99288 0.0
C422 C 0.82467 0.44679 0.96358 0.0
C423 C 0.8024 0.46741 0.94932 0.0
C424 C 0.85212 0.44903 0.90322 0.0
C425 C 0.80416 0.48464 0.8587 0.0
C426 C 0.83057 0.48564 0.79432 0.0
C427 C 0.88466 0.47665 0.77423 0.0
C428 C 0.91046 0.4633 0.80882 0.0
C429 C 0.85557 0.46984 0.82126 0.0
C430 C 0.90653 0.44071 0.88367 0.0
C431 C 0.87741 0.43356 0.93079 0.0
H432 H 0.99853 0.19715 0.75388 0.0
H433 H 0.05974 0.18098 -0.00154 0.0
H434 H 0.06911 0.13185 0.92014 0.0
H435 H 0.05254 0.08987 0.7976 0.0
H436 H 0.99151 0.1076 0.5522 0.0
H437 H 0.98951 0.15924 0.61466 0.0
C438 C 0.01522 0.18356 0.78663 0.0
C439 C 0.0288 0.19287 0.88073 0.0
C440 C 0.01964 0.15493 0.74297 0.0
C441 C 0.04966 0.17464 0.92443 0.0
C442 C 0.05443 0.14619 0.88092 0.0
C443 C 0.0391 0.10516 0.75739 0.0
C444 C 0.02177 0.09448 0.67149 0.0
C445 C 0.0383 0.13543 0.79296 0.0
C446 C 1.00492 0.11488 0.61909 0.0
C447 C 1.00374 0.14461 0.65459 0.0
H448 H 0.32698 0.04201 0.85736 0.0
H449 H 0.30708 0.96189 0.66957 0.0
H450 H 0.35884 0.96853 0.58856 0.0
H451 H 0.41298 0.99195 0.59609 0.0
H452 H 0.43204 0.0725 0.78406 0.0
H453 H 0.37804 0.07054 0.84099 0.0
C454 C 0.33333 0.02699 0.79444 0.0
C455 C 0.31283 1.00169 0.7689 0.0
C456 C 0.36374 0.03021 0.75167 0.0
C457 C 0.322 0.98193 0.68923 0.0
C458 C 0.35199 0.9853 0.6448 0.0
C459 C 0.40524 0.00936 0.64788 0.0
C460 C 0.42695 0.03207 0.68663 0.0
C461 C 0.37364 1.00846 0.67945 0.0
C462 C 0.41618 0.05451 0.75355 0.0
C463 C 0.38512 0.05351 0.78612 0.0
H464 H 0.52716 0.32564 0.77911 0.0
H465 H 0.45538 0.33908 0.00773 0.0
H466 H 0.44314 0.38459 0.91954 0.0
H467 H 0.46049 0.42605 0.79892 0.0
H468 H 0.53234 0.41193 0.5695 0.0
H469 H 0.53682 0.36158 0.63566 0.0
C470 C 0.50761 0.33751 0.80586 0.0
C471 C 0.492 0.32872 0.89939 0.0
C472 C 0.50157 0.36442 0.75684 0.0
C473 C 0.46728 0.3449 0.93476 0.0
C474 C 0.46081 0.37144 0.88565 0.0
C475 C 0.47669 0.41173 0.76211 0.0
C476 C 0.49649 0.42322 0.68054 0.0
C477 C 0.47903 0.38237 0.80018 0.0
C478 C 0.51698 0.40402 0.6329 0.0
C479 C 0.51962 0.37507 0.67083 0.0
H480 H 0.16831 0.48144 0.0014 0.0
H481 H 0.2244 0.51585 0.74145 0.0
H482 H 0.17864 0.51259 0.63327 0.0
H483 H 0.1217 0.50736 0.62186 0.0
H484 H 0.06568 0.47709 0.88887 0.0
H485 H 0.11223 0.47177 0.98548 0.0
C486 C 0.17065 0.48713 0.91982 0.0
C487 C 0.19978 0.49856 0.8791 0.0
C488 C 0.14402 0.48694 0.86056 0.0
C489 C 0.20244 0.50643 0.77402 0.0
C490 C 0.17612 0.50512 0.71291 0.0
C491 C 0.1196 0.49931 0.70087 0.0
C492 C 0.08999 0.49299 0.74823 0.0
C493 C 0.14661 0.49667 0.75677 0.0
C494 C 0.08796 0.48242 0.85054 0.0
C495 C 0.11464 0.47926 0.90584 0.0
H496 H 0.97789 0.81993 0.22183 0.0
H497 H 0.04169 0.79573 0.44786 0.0
H498 H 0.03377 0.84197 0.54852 0.0
H499 H 0.0178 0.89394 0.54952 0.0
H500 H 0.96178 0.92115 0.30328 0.0
H501 H 0.9581 0.86967 0.23136 0.0
C502 C 0.9887 0.82405 0.29624 0.0
C503 C 1.0099 0.80421 0.32851 0.0
C504 C 0.98662 0.85211 0.34688 0.0
C505 C 0.02471 0.81024 0.42291 0.0
C506 C 0.02078 0.83711 0.47878 0.0
C507 C 1.00429 0.88845 0.48124 0.0
C508 C 0.99024 0.91143 0.4313 0.0
C509 C 1.00329 0.85901 0.43797 0.0
C510 C 0.97307 0.904 0.34246 0.0
C511 C 0.97083 0.87451 0.30165 0.0
H512 H 0.69583 0.04422 0.41809 0.0
H513 H 0.69883 0.95672 0.27052 0.0
H514 H 0.64575 0.94237 0.3314 0.0
H515 H 0.59494 0.95862 0.39629 0.0
H516 H 0.59153 0.04993 0.51339 0.0
H517 H 0.64722 0.05896 0.49355 0.0
C518 C 0.68528 0.02154 0.40276 0.0
C519 C 0.70146 1.00178 0.33872 0.0
C520 C 0.6538 0.01454 0.4293 0.0
C521 C 0.68731 0.97245 0.32008 0.0
C522 C 0.6565 0.96451 0.35261 0.0
C523 C 0.60648 0.98034 0.41853 0.0
C524 C 0.5888 1.00334 0.45871 0.0
C525 C 0.6389 0.98601 0.40192 0.0
C526 C 0.6043 0.03144 0.48579 0.0
C527 C 0.63633 0.03677 0.47347 0.0
H528 H 0.49651 0.71183 0.4443 0.0
H529 H 0.56528 0.70178 0.20214 0.0
H530 H 0.57744 0.65408 0.27557 0.0
H531 H 0.56081 0.61038 0.38829 0.0
H532 H 0.49203 0.6215 0.63141 0.0
H533 H 0.48762 0.67307 0.57822 0.0
C534 C 0.51537 0.70005 0.41121 0.0
C535 C 0.52997 0.71045 0.31794 0.0
C536 C 0.52137 0.67196 0.45165 0.0
C537 C 0.55401 0.69461 0.27483 0.0
C538 C 0.56043 0.66684 0.31542 0.0
C539 C 0.54526 0.62427 0.4306 0.0
C540 C 0.5264 0.61166 0.51255 0.0
C541 C 0.54298 0.65444 0.40031 0.0
C542 C 0.50672 0.63028 0.56749 0.0
C543 C 0.50413 0.65996 0.53719 0.0
H544 H 0.84821 0.53858 0.15746 0.0
H545 H 0.79471 0.49984 0.41652 0.0
H546 H 0.84117 0.50359 0.52147 0.0
H547 H 0.89802 0.51053 0.52908 0.0
H548 H 0.95179 0.54437 0.26194 0.0
H549 H 0.9043 0.54937 0.16963 0.0
C550 C 0.84658 0.53193 0.2382 0.0
C551 C 0.81801 0.51913 0.27956 0.0
C552 C 0.87365 0.53231 0.2951 0.0
C553 C 0.81622 0.5102 0.38356 0.0
C554 C 0.84294 0.51183 0.44271 0.0
C555 C 0.89945 0.51931 0.45103 0.0
C556 C 0.92866 0.52679 0.40223 0.0
C557 C 0.87197 0.5216 0.39766 0.0
C558 C 0.92982 0.53817 0.30113 0.0
C559 C 0.90261 0.54114 0.24844 0.0
loop_
_geom_bond_atom_site_label_1
_geom_bond_atom_site_label_2
_geom_bond_distance
_geom_bond_site_symmetry_2
_ccdc_geom_bond_type
H0 C5 0.930 . S
H1 C8 0.930 1_556 S
H2 C10 0.930 . S
H3 C4 1.016 1_556 S
C4 H3 1.016 1_554 S
C4 N11 1.286 . S
C5 H0 0.930 . S
C5 C6 1.397 . S
C5 C7 1.361 . S
C6 C5 1.397 . S
C6 C10 1.390 . S
C7 C5 1.361 . S
C7 C8 1.393 . S
C7 N11 1.413 . S
C8 H1 0.930 1_554 S
C8 C7 1.393 . S
C8 C9 1.399 . S
C9 C8 1.399 . S
C9 C10 1.381 . S
C10 H2 0.930 . S
C10 C6 1.390 . S
C10 C9 1.381 . S
N11 C4 1.286 . S
N11 C7 1.413 . S
H12 C17 0.930 . S
H13 C20 0.930 . S
H14 C22 0.930 . S
H15 C16 1.016 . S
C16 H15 1.016 . S
C16 N23 1.286 1_656 S
C17 H12 0.930 . S
C17 C18 1.397 . S
C17 C19 1.361 . S
C18 C17 1.397 . S
C18 C22 1.390 1_455 S
C19 C17 1.361 . S
C19 C20 1.393 1_554 S
C19 N23 1.413 . S
C20 H13 0.930 . S
C20 C19 1.393 1_556 S
C20 C21 1.405 1_556 S
C21 C20 1.405 1_554 S
C21 C22 1.379 1_455 S
C22 H14 0.930 . S
C22 C18 1.390 1_655 S
C22 C21 1.379 1_655 S
N23 C16 1.286 1_454 S
N23 C19 1.413 . S
H24 C29 0.930 . S
H25 C32 0.930 . S
H26 C34 0.930 . S
H27 C28 1.016 . S
C28 H27 1.016 . S
C28 N35 1.286 1_556 S
C29 H24 0.930 . S
C29 C30 1.397 . S
C29 C31 1.361 . S
C30 C29 1.397 . S
C30 C34 1.390 . S
C31 C29 1.361 . S
C31 C32 1.393 1_554 S
C31 N35 1.413 . S
C32 H25 0.930 . S
C32 C31 1.393 1_556 S
C32 C33 1.399 . S
C33 C32 1.399 . S
C33 C34 1.381 1_556 S
C34 H26 0.930 . S
C34 C30 1.390 . S
C34 C33 1.381 1_554 S
N35 C28 1.286 1_554 S
N35 C31 1.413 . S
H36 C41 0.930 . S
H37 C44 0.930 1_556 S
H38 C46 0.930 . S
H39 C40 1.016 1_556 S
C40 H39 1.016 1_554 S
C40 N47 1.286 . S
C41 H36 0.930 . S
C41 C42 1.397 . S
C41 C43 1.361 . S
C42 C41 1.397 . S
C42 C46 1.390 . S
C43 C41 1.361 . S
C43 C44 1.393 . S
C43 N47 1.413 . S
C44 H37 0.930 1_554 S
C44 C43 1.393 . S
C44 C45 1.399 . S
C45 C44 1.399 . S
C45 C46 1.381 . S
C46 H38 0.930 . S
C46 C42 1.390 . S
C46 C45 1.381 . S
N47 C40 1.286 . S
N47 C43 1.413 . S
H48 C53 0.930 . S
H49 C56 0.930 . S
H50 C58 0.930 . S
H51 C52 1.016 . S
C52 H51 1.016 . S
C52 N59 1.286 . S
C53 H48 0.930 . S
C53 C54 1.397 . S
C53 C55 1.361 1_556 S
C54 C53 1.397 . S
C54 C58 1.390 1_556 S
C55 C53 1.361 1_554 S
C55 C56 1.393 . S
C55 N59 1.413 . S
C56 H49 0.930 . S
C56 C55 1.393 . S
C56 C57 1.399 . S
C57 C56 1.399 . S
C57 C58 1.381 . S
C58 H50 0.930 . S
C58 C54 1.390 1_554 S
C58 C57 1.381 . S
N59 C52 1.286 . S
N59 C55 1.413 . S
H60 C65 0.930 . S
H61 C68 0.930 . S
H62 C70 0.930 . S
H63 C64 1.025 . S
C64 H63 1.025 . S
C64 N71 1.271 1_655 S
C65 H60 0.930 . S
C65 C66 1.397 . S
C65 C67 1.361 1_556 S
C66 C65 1.397 . S
C66 C70 1.390 1_456 S
C67 C65 1.361 1_554 S
C67 C68 1.393 . S
C67 N71 1.413 . S
C68 H61 0.930 . S
C68 C67 1.393 . S
C68 C69 1.401 . S
C69 C68 1.401 . S
C69 C70 1.378 1_455 S
C70 H62 0.930 . S
C70 C66 1.390 1_654 S
C70 C69 1.378 1_655 S
N71 C64 1.271 1_455 S
N71 C67 1.413 . S
H72 C77 0.930 1_556 S
H73 C80 0.930 . S
H74 C82 0.930 . S
H75 C76 1.016 . S
C76 H75 1.016 . S
C76 N83 1.286 . S
C77 H72 0.930 1_554 S
C77 C78 1.397 1_554 S
C77 C79 1.361 . S
C78 C77 1.397 1_556 S
C78 C82 1.390 1_556 S
C79 C77 1.361 . S
C79 C80 1.393 . S
C79 N83 1.413 . S
C80 H73 0.930 . S
C80 C79 1.393 . S
C80 C81 1.399 . S
C81 C80 1.399 . S
C81 C82 1.381 . S
C82 H74 0.930 . S
C82 C78 1.390 1_554 S
C82 C81 1.381 . S
N83 C76 1.286 . S
N83 C79 1.413 . S
H84 C89 0.930 . S
H85 C92 0.930 . S
H86 C94 0.930 . S
H87 C88 1.016 . S
C88 H87 1.016 . S
C88 N95 1.286 . S
C89 H84 0.930 . S
C89 C90 1.397 . S
C89 C91 1.361 1_556 S
C90 C89 1.397 . S
C90 C94 1.390 . S
C91 C89 1.361 1_554 S
C91 C92 1.393 . S
C91 N95 1.413 . S
C92 H85 0.930 . S
C92 C91 1.393 . S
C92 C93 1.399 . S
C93 C92 1.399 . S
C93 C94 1.381 1_554 S
C94 H86 0.930 . S
C94 C90 1.390 . S
C94 C93 1.381 1_556 S
N95 C88 1.286 . S
N95 C91 1.413 . S
Dy96 O100 2.398 . S
Dy96 O101 2.491 1_455 S
Dy96 O102 2.403 . S
Dy96 O103 2.664 1_565 S
Dy96 O107 2.326 . S
Dy96 O111 2.310 1_455 S
Dy96 O112 2.351 1_565 S
C97 O108 1.185 . S
C97 O109 1.355 1_655 S
C98 O100 1.185 . S
C98 O101 1.355 1_455 S
Dy99 O103 2.310 1_655 S
Dy99 O106 2.351 1_545 S
Dy99 O108 2.398 . S
Dy99 O109 2.491 1_655 S
Dy99 O110 2.403 . S
Dy99 O111 2.664 1_545 S
Dy99 O113 2.326 . S
O100 Dy96 2.398 . S
O100 C98 1.185 . S
O101 Dy96 2.491 1_655 S
O101 C98 1.355 1_655 S
O102 Dy96 2.403 . S
O102 C104 1.254 1_565 S
O103 Dy96 2.664 1_545 S
O103 Dy99 2.310 1_455 S
O103 C104 1.268 . S
C104 O102 1.254 1_545 S
C104 O103 1.268 . S
C105 O110 1.254 1_565 S
C105 O111 1.268 . S
O106 Dy99 2.351 1_565 S
O106 C114 1.249 . S
O107 Dy96 2.326 . S
O107 C114 1.267 1_455 S
O108 C97 1.185 . S
O108 Dy99 2.398 . S
O109 C97 1.355 1_455 S
O109 Dy99 2.491 1_455 S
O110 Dy99 2.403 . S
O110 C105 1.254 1_545 S
O111 Dy96 2.310 1_655 S
O111 Dy99 2.664 1_565 S
O111 C105 1.268 . S
O112 Dy96 2.351 1_545 S
O112 C115 1.249 . S
O113 Dy99 2.326 . S
O113 C115 1.267 1_655 S
C114 O106 1.249 . S
C114 O107 1.267 1_655 S
C115 O112 1.249 . S
C115 O113 1.267 1_455 S
Dy116 O120 2.398 . S
Dy116 O121 2.491 1_565 S
Dy116 O122 2.403 . S
Dy116 O123 2.664 . S
Dy116 O127 2.326 1_565 S
Dy116 O131 2.310 1_565 S
Dy116 O132 2.351 . S
C117 O128 1.185 . S
C117 O129 1.355 1_545 S
C118 O120 1.185 1_545 S
C118 O121 1.355 . S
Dy119 O123 2.310 1_545 S
Dy119 O126 2.351 . S
Dy119 O128 2.398 . S
Dy119 O129 2.491 1_545 S
Dy119 O130 2.403 . S
Dy119 O131 2.664 . S
Dy119 O133 2.326 1_545 S
O120 Dy116 2.398 . S
O120 C118 1.185 1_565 S
O121 Dy116 2.491 1_545 S
O121 C118 1.355 . S
O122 Dy116 2.403 . S
O122 C124 1.254 . S
O123 Dy116 2.664 . S
O123 Dy119 2.310 1_565 S
O123 C124 1.268 . S
C124 O122 1.254 . S
C124 O123 1.268 . S
C125 O130 1.254 . S
C125 O131 1.268 . S
O126 Dy119 2.351 . S
O126 C134 1.249 . S
O127 Dy116 2.326 1_545 S
O127 C134 1.267 . S
O128 C117 1.185 . S
O128 Dy119 2.398 . S
O129 C117 1.355 1_565 S
O129 Dy119 2.491 1_565 S
O130 Dy119 2.403 . S
O130 C125 1.254 . S
O131 Dy116 2.310 1_545 S
O131 Dy119 2.664 . S
O131 C125 1.268 . S
O132 Dy116 2.351 . S
O132 C135 1.249 . S
O133 Dy119 2.326 1_565 S
O133 C135 1.267 . S
C134 O126 1.249 . S
C134 O127 1.267 . S
C135 O132 1.249 . S
C135 O133 1.267 . S
Dy136 O140 2.398 . S
Dy136 O141 2.491 . S
Dy136 O142 2.403 . S
Dy136 O143 2.664 . S
Dy136 O147 2.326 . S
Dy136 O151 2.310 . S
Dy136 O152 2.351 . S
C137 O148 1.185 . S
C137 O149 1.355 . S
C138 O140 1.185 . S
C138 O141 1.355 . S
Dy139 O143 2.310 . S
Dy139 O146 2.351 . S
Dy139 O148 2.398 . S
Dy139 O149 2.491 . S
Dy139 O150 2.403 . S
Dy139 O151 2.664 . S
Dy139 O153 2.326 . S
O140 Dy136 2.398 . S
O140 C138 1.185 . S
O141 Dy136 2.491 . S
O141 C138 1.355 . S
O142 Dy136 2.403 . S
O142 C144 1.254 . S
O143 Dy136 2.664 . S
O143 Dy139 2.310 . S
O143 C144 1.268 . S
C144 O142 1.254 . S
C144 O143 1.268 . S
C145 O150 1.254 . S
C145 O151 1.268 . S
O146 Dy139 2.351 . S
O146 C154 1.249 . S
O147 Dy136 2.326 . S
O147 C154 1.267 . S
O148 C137 1.185 . S
O148 Dy139 2.398 . S
O149 C137 1.355 . S
O149 Dy139 2.491 . S
O150 Dy139 2.403 . S
O150 C145 1.254 . S
O151 Dy136 2.310 . S
O151 Dy139 2.664 . S
O151 C145 1.268 . S
O152 Dy136 2.351 . S
O152 C155 1.249 . S
O153 Dy139 2.326 . S
O153 C155 1.267 . S
C154 O146 1.249 . S
C154 O147 1.267 . S
C155 O152 1.249 . S
C155 O153 1.267 . S
Dy156 O160 2.398 . S
Dy156 O161 2.491 . S
Dy156 O162 2.403 . S
Dy156 O163 2.664 1_655 S
Dy156 O167 2.326 . S
Dy156 O171 2.310 . S
Dy156 O172 2.351 1_655 S
C157 O168 1.185 . S
C157 O169 1.355 . S
C158 O160 1.185 . S
C158 O161 1.355 . S
Dy159 O163 2.310 . S
Dy159 O166 2.351 1_455 S
Dy159 O168 2.398 . S
Dy159 O169 2.491 . S
Dy159 O170 2.403 . S
Dy159 O171 2.664 1_455 S
Dy159 O173 2.326 . S
O160 Dy156 2.398 . S
O160 C158 1.185 . S
O161 Dy156 2.491 . S
O161 C158 1.355 . S
O162 Dy156 2.403 . S
O162 C164 1.254 . S
O163 Dy156 2.664 1_455 S
O163 Dy159 2.310 . S
O163 C164 1.268 1_455 S
C164 O162 1.254 . S
C164 O163 1.268 1_655 S
C165 O170 1.254 . S
C165 O171 1.268 1_455 S
O166 Dy159 2.351 1_655 S
O166 C174 1.249 . S
O167 Dy156 2.326 . S
O167 C174 1.267 . S
O168 C157 1.185 . S
O168 Dy159 2.398 . S
O169 C157 1.355 . S
O169 Dy159 2.491 . S
O170 Dy159 2.403 . S
O170 C165 1.254 . S
O171 Dy156 2.310 . S
O171 Dy159 2.664 1_655 S
O171 C165 1.268 1_655 S
O172 Dy156 2.351 1_455 S
O172 C175 1.249 . S
O173 Dy159 2.326 . S
O173 C175 1.267 . S
C174 O166 1.249 . S
C174 O167 1.267 . S
C175 O172 1.249 . S
C175 O173 1.267 . S
H176 C182 0.930 . S
H177 C185 0.930 1_565 S
H178 C186 0.930 . S
H179 C187 0.930 1_565 S
H180 C190 0.930 . S
H181 C191 0.930 . S
C182 H176 0.930 . S
C182 C183 1.355 . S
C182 C184 1.415 . S
C183 C182 1.355 . S
C183 C185 1.419 . S
C184 C182 1.415 . S
C184 C189 1.425 . S
C184 C191 1.409 . S
C185 H177 0.930 1_545 S
C185 C183 1.419 . S
C185 C186 1.362 1_545 S
C186 H178 0.930 . S
C186 C185 1.362 1_565 S
C186 C189 1.409 1_565 S
C187 H179 0.930 1_545 S
C187 C188 1.355 . S
C187 C189 1.415 . S
C188 C187 1.355 . S
C188 C190 1.419 . S
C189 C184 1.425 . S
C189 C186 1.409 1_545 S
C189 C187 1.415 . S
C190 H180 0.930 . S
C190 C188 1.419 . S
C190 C191 1.362 . S
C191 H181 0.930 . S
C191 C184 1.409 . S
C191 C190 1.362 . S
H192 C198 0.930 . S
H193 C201 0.930 . S
H194 C202 0.930 . S
H195 C203 0.930 . S
H196 C206 0.930 . S
H197 C207 0.930 . S
C198 H192 0.930 . S
C198 C199 1.355 . S
C198 C200 1.415 . S
C199 C198 1.355 . S
C199 C201 1.419 . S
C200 C198 1.415 . S
C200 C205 1.425 . S
C200 C207 1.409 . S
C201 H193 0.930 . S
C201 C199 1.419 . S
C201 C202 1.362 . S
C202 H194 0.930 . S
C202 C201 1.362 . S
C202 C205 1.409 . S
C203 H195 0.930 . S
C203 C204 1.355 . S
C203 C205 1.415 . S
C204 C203 1.355 . S
C204 C206 1.419 . S
C205 C200 1.425 . S
C205 C202 1.409 . S
C205 C203 1.415 . S
C206 H196 0.930 . S
C206 C204 1.419 . S
C206 C207 1.362 . S
C207 H197 0.930 . S
C207 C200 1.409 . S
C207 C206 1.362 . S
H208 C214 0.930 . S
H209 C217 0.930 . S
H210 C218 0.930 . S
H211 C219 0.930 . S
H212 C222 0.930 . S
H213 C223 0.930 . S
C214 H208 0.930 . S
C214 C215 1.355 . S
C214 C216 1.415 . S
C215 C214 1.355 . S
C215 C217 1.419 . S
C216 C214 1.415 . S
C216 C221 1.425 . S
C216 C223 1.409 . S
C217 H209 0.930 . S
C217 C215 1.419 . S
C217 C218 1.362 . S
C218 H210 0.930 . S
C218 C217 1.362 . S
C218 C221 1.409 . S
C219 H211 0.930 . S
C219 C220 1.355 . S
C219 C221 1.415 . S
C220 C219 1.355 . S
C220 C222 1.419 . S
C221 C216 1.425 . S
C221 C218 1.409 . S
C221 C219 1.415 . S
C222 H212 0.930 . S
C222 C220 1.419 . S
C222 C223 1.362 . S
C223 H213 0.930 . S
C223 C216 1.409 . S
C223 C222 1.362 . S
H224 C230 0.930 . S
H225 C233 0.930 . S
H226 C234 0.930 . S
H227 C235 0.930 . S
H228 C238 0.930 . S
H229 C239 0.930 . S
C230 H224 0.930 . S
C230 C231 1.355 1_655 S
C230 C232 1.415 . S
C231 C230 1.355 1_455 S
C231 C233 1.419 . S
C232 C230 1.415 . S
C232 C237 1.425 1_655 S
C232 C239 1.409 . S
C233 H225 0.930 . S
C233 C231 1.419 . S
C233 C234 1.362 . S
C234 H226 0.930 . S
C234 C233 1.362 . S
C234 C237 1.409 . S
C235 H227 0.930 . S
C235 C236 1.355 1_455 S
C235 C237 1.415 . S
C236 C235 1.355 1_655 S
C236 C238 1.419 . S
C237 C232 1.425 1_455 S
C237 C234 1.409 . S
C237 C235 1.415 . S
C238 H228 0.930 . S
C238 C236 1.419 . S
C238 C239 1.362 . S
C239 H229 0.930 . S
C239 C232 1.409 . S
C239 C238 1.362 . S
H240 C246 0.930 . S
H241 C249 0.930 1_554 S
H242 C250 0.930 . S
H243 C251 0.930 . S
H244 C254 0.930 . S
H245 C255 0.930 . S
C246 H240 0.930 . S
C246 C247 1.355 . S
C246 C248 1.415 . S
C247 C246 1.355 . S
C247 C249 1.419 . S
C248 C246 1.415 . S
C248 C253 1.425 . S
C248 C255 1.409 . S
C249 H241 0.930 1_556 S
C249 C247 1.419 . S
C249 C250 1.362 . S
C250 H242 0.930 . S
C250 C249 1.362 . S
C250 C253 1.409 . S
C251 H243 0.930 . S
C251 C252 1.355 . S
C251 C253 1.415 . S
C252 C251 1.355 . S
C252 C254 1.419 . S
C253 C248 1.425 . S
C253 C250 1.409 . S
C253 C251 1.415 . S
C254 H244 0.930 . S
C254 C252 1.419 . S
C254 C255 1.362 . S
C255 H245 0.930 . S
C255 C248 1.409 . S
C255 C254 1.362 . S
H256 C262 0.930 . S
H257 C265 0.930 1_554 S
H258 C266 0.930 . S
H259 C267 0.930 . S
H260 C270 0.930 . S
H261 C271 0.930 . S
C262 H256 0.930 . S
C262 C263 1.355 1_556 S
C262 C264 1.415 . S
C263 C262 1.355 1_554 S
C263 C265 1.419 1_554 S
C264 C262 1.415 . S
C264 C269 1.425 . S
C264 C271 1.409 . S
C265 H257 0.930 1_556 S
C265 C263 1.419 1_556 S
C265 C266 1.362 . S
C266 H258 0.930 . S
C266 C265 1.362 . S
C266 C269 1.409 . S
C267 H259 0.930 . S
C267 C268 1.355 . S
C267 C269 1.415 . S
C268 C267 1.355 . S
C268 C270 1.419 . S
C269 C264 1.425 . S
C269 C266 1.409 . S
C269 C267 1.415 . S
C270 H260 0.930 . S
C270 C268 1.419 . S
C270 C271 1.362 . S
C271 H261 0.930 . S
C271 C264 1.409 . S
C271 C270 1.362 . S
H272 C278 0.930 . S
H273 C281 0.930 . S
H274 C282 0.930 . S
H275 C283 0.930 . S
H276 C286 0.930 . S
H277 C287 0.930 . S
C278 H272 0.930 . S
C278 C279 1.355 . S
C278 C280 1.415 . S
C279 C278 1.355 . S
C279 C281 1.419 . S
C280 C278 1.415 . S
C280 C285 1.425 . S
C280 C287 1.409 . S
C281 H273 0.930 . S
C281 C279 1.419 . S
C281 C282 1.362 . S
C282 H274 0.930 . S
C282 C281 1.362 . S
C282 C285 1.409 . S
C283 H275 0.930 . S
C283 C284 1.355 . S
C283 C285 1.415 . S
C284 C283 1.355 . S
C284 C286 1.419 . S
C285 C280 1.425 . S
C285 C282 1.409 . S
C285 C283 1.415 . S
C286 H276 0.930 . S
C286 C284 1.419 . S
C286 C287 1.362 . S
C287 H277 0.930 . S
C287 C280 1.409 . S
C287 C286 1.362 . S
H288 C294 0.930 . S
H289 C297 0.930 . S
H290 C298 0.930 . S
H291 C299 0.930 . S
H292 C302 0.930 . S
H293 C303 0.930 . S
C294 H288 0.930 . S
C294 C295 1.355 1_455 S
C294 C296 1.415 . S
C295 C294 1.355 1_655 S
C295 C297 1.419 . S
C296 C294 1.415 . S
C296 C301 1.425 1_455 S
C296 C303 1.409 . S
C297 H289 0.930 . S
C297 C295 1.419 . S
C297 C298 1.362 . S
C298 H290 0.930 . S
C298 C297 1.362 . S
C298 C301 1.409 . S
C299 H291 0.930 . S
C299 C300 1.355 1_655 S
C299 C301 1.415 . S
C300 C299 1.355 1_455 S
C300 C302 1.419 . S
C301 C296 1.425 1_655 S
C301 C298 1.409 . S
C301 C299 1.415 . S
C302 H292 0.930 . S
C302 C300 1.419 . S
C302 C303 1.362 . S
C303 H293 0.930 . S
C303 C296 1.409 . S
C303 C302 1.362 . S
H304 C310 0.930 . S
H305 C313 0.930 . S
H306 C314 0.930 . S
H307 C315 0.930 . S
H308 C318 0.930 . S
H309 C319 0.930 . S
C310 H304 0.930 . S
C310 C311 1.355 1_455 S
C310 C312 1.415 . S
C311 C310 1.355 1_655 S
C311 C313 1.419 . S
C312 C310 1.415 . S
C312 C317 1.425 1_455 S
C312 C319 1.409 . S
C313 H305 0.930 . S
C313 C311 1.419 . S
C313 C314 1.362 . S
C314 H306 0.930 . S
C314 C313 1.362 . S
C314 C317 1.409 . S
C315 H307 0.930 . S
C315 C316 1.355 . S
C315 C317 1.415 . S
C316 C315 1.355 . S
C316 C318 1.419 1_655 S
C317 C312 1.425 1_655 S
C317 C314 1.409 . S
C317 C315 1.415 . S
C318 H308 0.930 . S
C318 C316 1.419 1_455 S
C318 C319 1.362 . S
C319 H309 0.930 . S
C319 C312 1.409 . S
C319 C318 1.362 . S
H320 C326 0.930 . S
H321 C329 0.930 . S
H322 C330 0.930 . S
H323 C331 0.930 . S
H324 C334 0.930 . S
H325 C335 0.930 . S
C326 H320 0.930 . S
C326 C327 1.355 . S
C326 C328 1.415 . S
C327 C326 1.355 . S
C327 C329 1.419 . S
C328 C326 1.415 . S
C328 C333 1.425 . S
C328 C335 1.409 . S
C329 H321 0.930 . S
C329 C327 1.419 . S
C329 C330 1.362 1_545 S
C330 H322 0.930 . S
C330 C329 1.362 1_565 S
C330 C333 1.409 1_565 S
C331 H323 0.930 . S
C331 C332 1.355 1_565 S
C331 C333 1.415 1_565 S
C332 C331 1.355 1_545 S
C332 C334 1.419 . S
C333 C328 1.425 . S
C333 C330 1.409 1_545 S
C333 C331 1.415 1_545 S
C334 H324 0.930 . S
C334 C332 1.419 . S
C334 C335 1.362 . S
C335 H325 0.930 . S
C335 C328 1.409 . S
C335 C334 1.362 . S
H336 C342 0.930 . S
H337 C345 0.930 . S
H338 C346 0.930 . S
H339 C347 0.930 . S
H340 C350 0.930 . S
H341 C351 0.930 . S
C342 H336 0.930 . S
C342 C343 1.355 . S
C342 C344 1.415 . S
C343 C342 1.355 . S
C343 C345 1.419 . S
C344 C342 1.415 . S
C344 C349 1.425 . S
C344 C351 1.409 . S
C345 H337 0.930 . S
C345 C343 1.419 . S
C345 C346 1.362 . S
C346 H338 0.930 . S
C346 C345 1.362 . S
C346 C349 1.409 . S
C347 H339 0.930 . S
C347 C348 1.355 . S
C347 C349 1.415 . S
C348 C347 1.355 . S
C348 C350 1.419 . S
C349 C344 1.425 . S
C349 C346 1.409 . S
C349 C347 1.415 . S
C350 H340 0.930 . S
C350 C348 1.419 . S
C350 C351 1.362 . S
C351 H341 0.930 . S
C351 C344 1.409 . S
C351 C350 1.362 . S
H352 C358 0.930 . S
H353 C361 0.930 . S
H354 C362 0.930 . S
H355 C363 0.930 . S
H356 C366 0.930 . S
H357 C367 0.930 . S
C358 H352 0.930 . S
C358 C359 1.355 . S
C358 C360 1.415 . S
C359 C358 1.355 . S
C359 C361 1.419 . S
C360 C358 1.415 . S
C360 C365 1.425 . S
C360 C367 1.409 . S
C361 H353 0.930 . S
C361 C359 1.419 . S
C361 C362 1.362 . S
C362 H354 0.930 . S
C362 C361 1.362 . S
C362 C365 1.409 . S
C363 H355 0.930 . S
C363 C364 1.355 . S
C363 C365 1.415 . S
C364 C363 1.355 . S
C364 C366 1.419 . S
C365 C360 1.425 . S
C365 C362 1.409 . S
C365 C363 1.415 . S
C366 H356 0.930 . S
C366 C364 1.419 . S
C366 C367 1.362 . S
C367 H357 0.930 . S
C367 C360 1.409 . S
C367 C366 1.362 . S
H368 C374 0.930 . S
H369 C377 0.930 . S
H370 C378 0.930 1_554 S
H371 C379 0.930 . S
H372 C382 0.930 . S
H373 C383 0.930 . S
C374 H368 0.930 . S
C374 C375 1.355 1_655 S
C374 C376 1.413 1_655 S
C375 C374 1.355 1_455 S
C375 C377 1.419 1_556 S
C376 C374 1.413 1_455 S
C376 C381 1.434 . S
C376 C383 1.402 1_455 S
C377 H369 0.930 . S
C377 C375 1.419 1_554 S
C377 C378 1.362 1_554 S
C378 H370 0.930 1_556 S
C378 C377 1.362 1_556 S
C378 C381 1.409 . S
C379 H371 0.930 . S
C379 C380 1.355 . S
C379 C381 1.415 . S
C380 C379 1.355 . S
C380 C382 1.419 1_455 S
C381 C376 1.434 . S
C381 C378 1.409 . S
C381 C379 1.415 . S
C382 H372 0.930 . S
C382 C380 1.419 1_655 S
C382 C383 1.362 . S
C383 H373 0.930 . S
C383 C376 1.402 1_655 S
C383 C382 1.362 . S
H384 C390 0.930 . S
H385 C393 0.930 . S
H386 C394 0.930 . S
H387 C395 0.930 . S
H388 C398 0.930 . S
H389 C399 0.930 . S
C390 H384 0.930 . S
C390 C391 1.355 . S
C390 C392 1.415 . S
C391 C390 1.355 . S
C391 C393 1.419 . S
C392 C390 1.415 . S
C392 C397 1.425 . S
C392 C399 1.409 . S
C393 H385 0.930 . S
C393 C391 1.419 . S
C393 C394 1.362 1_565 S
C394 H386 0.930 . S
C394 C393 1.362 1_545 S
C394 C397 1.409 1_545 S
C395 H387 0.930 . S
C395 C396 1.355 1_545 S
C395 C397 1.415 1_545 S
C396 C395 1.355 1_565 S
C396 C398 1.419 . S
C397 C392 1.425 . S
C397 C394 1.409 1_565 S
C397 C395 1.415 1_565 S
C398 H388 0.930 . S
C398 C396 1.419 . S
C398 C399 1.362 . S
C399 H389 0.930 . S
C399 C392 1.409 . S
C399 C398 1.362 . S
H400 C406 0.930 . S
H401 C409 0.930 . S
H402 C410 0.930 . S
H403 C411 0.930 . S
H404 C414 0.930 . S
H405 C415 0.930 1_554 S
C406 H400 0.930 . S
C406 C407 1.355 1_554 S
C406 C408 1.415 1_554 S
C407 C406 1.355 1_556 S
C407 C409 1.419 . S
C408 C406 1.415 1_556 S
C408 C413 1.425 . S
C408 C415 1.409 . S
C409 H401 0.930 . S
C409 C407 1.419 . S
C409 C410 1.362 . S
C410 H402 0.930 . S
C410 C409 1.362 . S
C410 C413 1.409 . S
C411 H403 0.930 . S
C411 C412 1.355 . S
C411 C413 1.415 . S
C412 C411 1.355 . S
C412 C414 1.419 . S
C413 C408 1.425 . S
C413 C410 1.409 . S
C413 C411 1.415 . S
C414 H404 0.930 . S
C414 C412 1.419 . S
C414 C415 1.362 . S
C415 H405 0.930 1_556 S
C415 C408 1.409 . S
C415 C414 1.362 . S
H416 C422 0.930 1_554 S
H417 C425 0.930 . S
H418 C426 0.930 . S
H419 C427 0.930 . S
H420 C430 0.930 . S
H421 C431 0.930 . S
C422 H416 0.930 1_556 S
C422 C423 1.355 . S
C422 C424 1.415 . S
C423 C422 1.355 . S
C423 C425 1.419 . S
C424 C422 1.415 . S
C424 C429 1.425 . S
C424 C431 1.409 . S
C425 H417 0.930 . S
C425 C423 1.419 . S
C425 C426 1.362 . S
C426 H418 0.930 . S
C426 C425 1.362 . S
C426 C429 1.409 . S
C427 H419 0.930 . S
C427 C428 1.355 . S
C427 C429 1.415 . S
C428 C427 1.355 . S
C428 C430 1.419 . S
C429 C424 1.425 . S
C429 C426 1.409 . S
C429 C427 1.415 . S
C430 H420 0.930 . S
C430 C428 1.419 . S
C430 C431 1.362 . S
C431 H421 0.930 . S
C431 C424 1.409 . S
C431 C430 1.362 . S
H432 C438 0.928 1_655 S
H433 C441 0.930 1_554 S
H434 C442 0.930 1_554 S
H435 C443 0.930 . S
H436 C446 0.930 . S
H437 C447 0.930 . S
C438 H432 0.928 1_455 S
C438 C439 1.355 . S
C438 C440 1.416 . S
C439 C438 1.355 . S
C439 C441 1.423 . S
C440 C438 1.416 . S
C440 C445 1.425 . S
C440 C447 1.409 . S
C441 H433 0.930 1_556 S
C441 C439 1.423 . S
C441 C442 1.362 . S
C442 H434 0.930 1_556 S
C442 C441 1.362 . S
C442 C445 1.409 . S
C443 H435 0.930 . S
C443 C444 1.355 . S
C443 C445 1.415 . S
C444 C443 1.355 . S
C444 C446 1.419 . S
C445 C440 1.425 . S
C445 C442 1.409 . S
C445 C443 1.415 . S
C446 H436 0.930 . S
C446 C444 1.419 . S
C446 C447 1.362 . S
C447 H437 0.930 . S
C447 C440 1.409 . S
C447 C446 1.362 . S
H448 C454 0.930 1_554 S
H449 C457 0.930 . S
H450 C458 0.930 . S
H451 C459 0.930 . S
H452 C462 0.930 . S
H453 C463 0.930 1_554 S
C454 H448 0.930 1_556 S
C454 C455 1.355 . S
C454 C456 1.415 . S
C455 C454 1.355 . S
C455 C457 1.419 . S
C456 C454 1.415 . S
C456 C461 1.425 . S
C456 C463 1.409 . S
C457 H449 0.930 . S
C457 C455 1.419 . S
C457 C458 1.362 . S
C458 H450 0.930 . S
C458 C457 1.362 . S
C458 C461 1.409 . S
C459 H451 0.930 . S
C459 C460 1.355 . S
C459 C461 1.415 . S
C460 C459 1.355 . S
C460 C462 1.419 . S
C461 C456 1.425 . S
C461 C458 1.409 . S
C461 C459 1.415 . S
C462 H452 0.930 . S
C462 C460 1.419 . S
C462 C463 1.362 . S
C463 H453 0.930 1_556 S
C463 C456 1.409 . S
C463 C462 1.362 . S
H464 C470 0.930 . S
H465 C473 0.930 . S
H466 C474 0.930 . S
H467 C475 0.930 . S
H468 C478 0.930 . S
H469 C479 0.930 . S
C470 H464 0.930 . S
C470 C471 1.355 . S
C470 C472 1.415 . S
C471 C470 1.355 . S
C471 C473 1.419 . S
C472 C470 1.415 . S
C472 C477 1.425 . S
C472 C479 1.409 . S
C473 H465 0.930 . S
C473 C471 1.419 . S
C473 C474 1.362 . S
C474 H466 0.930 . S
C474 C473 1.362 . S
C474 C477 1.409 . S
C475 H467 0.930 . S
C475 C476 1.355 . S
C475 C477 1.415 . S
C476 C475 1.355 . S
C476 C478 1.419 . S
C477 C472 1.425 . S
C477 C474 1.409 . S
C477 C475 1.415 . S
C478 H468 0.930 . S
C478 C476 1.419 . S
C478 C479 1.362 . S
C479 H469 0.930 . S
C479 C472 1.409 . S
C479 C478 1.362 . S
H480 C486 0.930 . S
H481 C489 0.930 . S
H482 C490 0.930 . S
H483 C491 0.930 . S
H484 C494 0.930 . S
H485 C495 0.930 . S
C486 H480 0.930 . S
C486 C487 1.355 . S
C486 C488 1.415 . S
C487 C486 1.355 . S
C487 C489 1.419 . S
C488 C486 1.415 . S
C488 C493 1.425 . S
C488 C495 1.409 . S
C489 H481 0.930 . S
C489 C487 1.419 . S
C489 C490 1.362 . S
C490 H482 0.930 . S
C490 C489 1.362 . S
C490 C493 1.409 . S
C491 H483 0.930 . S
C491 C492 1.355 . S
C491 C493 1.415 . S
C492 C491 1.355 . S
C492 C494 1.419 . S
C493 C488 1.425 . S
C493 C490 1.409 . S
C493 C491 1.415 . S
C494 H484 0.930 . S
C494 C492 1.419 . S
C494 C495 1.362 . S
C495 H485 0.930 . S
C495 C488 1.409 . S
C495 C494 1.362 . S
H496 C502 0.930 . S
H497 C505 0.930 . S
H498 C506 0.930 . S
H499 C507 0.930 . S
H500 C510 0.930 . S
H501 C511 0.930 . S
C502 H496 0.930 . S
C502 C503 1.355 1_655 S
C502 C504 1.415 . S
C503 C502 1.355 1_455 S
C503 C505 1.419 . S
C504 C502 1.415 . S
C504 C509 1.425 1_655 S
C504 C511 1.409 . S
C505 H497 0.930 . S
C505 C503 1.419 . S
C505 C506 1.362 . S
C506 H498 0.930 . S
C506 C505 1.362 . S
C506 C509 1.409 . S
C507 H499 0.930 . S
C507 C508 1.355 1_455 S
C507 C509 1.415 . S
C508 C507 1.355 1_655 S
C508 C510 1.419 . S
C509 C504 1.425 1_455 S
C509 C506 1.409 . S
C509 C507 1.415 . S
C510 H500 0.930 . S
C510 C508 1.419 . S
C510 C511 1.362 . S
C511 H501 0.930 . S
C511 C504 1.409 . S
C511 C510 1.362 . S
H512 C518 0.930 . S
H513 C521 0.930 . S
H514 C522 0.930 . S
H515 C523 0.930 . S
H516 C526 0.930 1_545 S
H517 C527 0.930 . S
C518 H512 0.930 . S
C518 C519 1.355 . S
C518 C520 1.415 . S
C519 C518 1.355 . S
C519 C521 1.419 . S
C520 C518 1.415 . S
C520 C525 1.425 . S
C520 C527 1.409 . S
C521 H513 0.930 . S
C521 C519 1.419 . S
C521 C522 1.362 . S
C522 H514 0.930 . S
C522 C521 1.362 . S
C522 C525 1.409 . S
C523 H515 0.930 . S
C523 C524 1.355 . S
C523 C525 1.415 . S
C524 C523 1.355 . S
C524 C526 1.419 . S
C525 C520 1.425 . S
C525 C522 1.409 . S
C525 C523 1.415 . S
C526 H516 0.930 1_565 S
C526 C524 1.419 . S
C526 C527 1.362 . S
C527 H517 0.930 . S
C527 C520 1.409 . S
C527 C526 1.362 . S
H528 C534 0.930 . S
H529 C537 0.930 . S
H530 C538 0.930 . S
H531 C539 0.930 . S
H532 C542 0.930 . S
H533 C543 0.930 . S
C534 H528 0.930 . S
C534 C535 1.355 . S
C534 C536 1.415 . S
C535 C534 1.355 . S
C535 C537 1.419 . S
C536 C534 1.415 . S
C536 C541 1.425 . S
C536 C543 1.409 . S
C537 H529 0.930 . S
C537 C535 1.419 . S
C537 C538 1.362 . S
C538 H530 0.930 . S
C538 C537 1.362 . S
C538 C541 1.409 . S
C539 H531 0.930 . S
C539 C540 1.355 . S
C539 C541 1.415 . S
C540 C539 1.355 . S
C540 C542 1.419 . S
C541 C536 1.425 . S
C541 C538 1.409 . S
C541 C539 1.415 . S
C542 H532 0.930 . S
C542 C540 1.419 . S
C542 C543 1.362 . S
C543 H533 0.930 . S
C543 C536 1.409 . S
C543 C542 1.362 . S
H544 C550 0.930 . S
H545 C553 0.930 . S
H546 C554 0.930 . S
H547 C555 0.930 . S
H548 C558 0.930 . S
H549 C559 0.930 . S
C550 H544 0.930 . S
C550 C551 1.355 . S
C550 C552 1.415 . S
C551 C550 1.355 . S
C551 C553 1.419 . S
C552 C550 1.415 . S
C552 C557 1.425 . S
C552 C559 1.409 . S
C553 H545 0.930 . S
C553 C551 1.419 . S
C553 C554 1.362 . S
C554 H546 0.930 . S
C554 C553 1.362 . S
C554 C557 1.409 . S
C555 H547 0.930 . S
C555 C556 1.355 . S
C555 C557 1.415 . S
C556 C555 1.355 . S
C556 C558 1.419 . S
C557 C552 1.425 . S
C557 C554 1.409 . S
C557 C555 1.415 . S
C558 H548 0.930 . S
C558 C556 1.419 . S
C558 C559 1.362 . S
C559 H549 0.930 . S
C559 C552 1.409 . S
C559 C558 1.362 . S
C183 C76 1.611 . S
C188 C104 1.719 . S
C204 C134 1.806 . S
C199 C88 1.702 . S
C220 C144 1.587 . S
C215 C52 1.440 . S
C236 C164 1.446 . S
C231 C64 1.362 1_455 S
C252 C105 1.703 . S
C247 C28 1.681 . S
C263 C40 1.733 . S
C268 C135 1.814 . S
C279 C4 1.457 1_556 S
C284 C145 1.574 . S
C295 C16 1.352 . S
C300 C165 1.448 . S
C316 C97 0.907 . S
C311 C69 0.914 1_655 S
C332 C118 0.682 . S
C327 C81 0.640 . S
C348 C137 1.048 . S
C343 C93 1.097 . S
C359 C57 0.878 . S
C364 C157 0.798 . S
C375 C21 0.867 1_556 S
C380 C98 0.935 . S
C396 C117 0.753 1_565 S
C391 C33 0.747 . S
C412 C138 1.040 . S
C407 C45 1.081 1_556 S
C423 C9 0.856 1_556 S
C428 C158 0.852 . S
C439 C66 1.482 . S
C444 C115 1.628 . S
C455 C78 1.485 . S
C460 C125 1.556 . S
C476 C155 1.791 . S
C471 C90 1.677 . S
C492 C175 1.800 . S
C487 C54 1.728 . S
C503 C18 1.502 . S
C508 C114 1.642 . S
C524 C124 1.560 . S
C519 C30 1.395 . S
C540 C154 1.797 . S
C535 C42 1.653 . S
C551 C6 1.649 . S
C556 C174 1.804 . S
