# Generated by pormake.
# Topology zzz, (3,6)-cn, num edge types: 1
# Building blocks:
#     Node 0, Type 0, BuildingBlock: PAMTOO_clean_linker_0, # of connection points: 3
#     Node 1, Type 0, BuildingBlock: PAMTOO_clean_linker_0, # of connection points: 3
#     Node 2, Type 0, BuildingBlock: PAMTOO_clean_linker_0, # of connection points: 3
#     Node 3, Type 0, BuildingBlock: PAMTOO_clean_linker_0, # of connection points: 3
#     Node 4, Type 0, BuildingBlock: PAMTOO_clean_linker_0, # of connection points: 3
#     Node 5, Type 0, BuildingBlock: PAMTOO_clean_linker_0, # of connection points: 3
#     Node 6, Type 0, BuildingBlock: PAMTOO_clean_linker_0, # of connection points: 3
#     Node 7, Type 0, BuildingBlock: PAMTOO_clean_linker_0, # of connection points: 3
#     Node 8, Type 1, BuildingBlock: KUMJIN_clean_sbu_1, # of connection points: 6
#     Node 9, Type 1, BuildingBlock: KUMJIN_clean_sbu_1, # of connection points: 6
#     Node 10, Type 1, BuildingBlock: KUMJIN_clean_sbu_1, # of connection points: 6
#     Node 11, Type 1, BuildingBlock: KUMJIN_clean_sbu_1, # of connection points: 6
#     Edge 12, Type (0, 1), BuildingBlock: KIFKEQ_clean_linker_1, # of connection points: 2
#     Edge 13, Type (0, 1), BuildingBlock: KIFKEQ_clean_linker_1, # of connection points: 2
#     Edge 14, Type (0, 1), BuildingBlock: KIFKEQ_clean_linker_1, # of connection points: 2
#     Edge 15, Type (0, 1), BuildingBlock: KIFKEQ_clean_linker_1, # of connection points: 2
#     Edge 16, Type (0, 1), BuildingBlock: KIFKEQ_clean_linker_1, # of connection points: 2
#     Edge 17, Type (0, 1), BuildingBlock: KIFKEQ_clean_linker_1, # of connection points: 2
#     Edge 18, Type (0, 1), BuildingBlock: KIFKEQ_clean_linker_1, # of connection points: 2
#     Edge 19, Type (0, 1), BuildingBlock: KIFKEQ_clean_linker_1, # of connection points: 2
#     Edge 20, Type (0, 1), BuildingBlock: KIFKEQ_clean_linker_1, # of connection points: 2
#     Edge 21, Type (0, 1), BuildingBlock: KIFKEQ_clean_linker_1, # of connection points: 2
#     Edge 22, Type (0, 1), BuildingBlock: KIFKEQ_clean_linker_1, # of connection points: 2
#     Edge 23, Type (0, 1), BuildingBlock: KIFKEQ_clean_linker_1, # of connection points: 2
#     Edge 24, Type (0, 1), BuildingBlock: KIFKEQ_clean_linker_1, # of connection points: 2
#     Edge 25, Type (0, 1), BuildingBlock: KIFKEQ_clean_linker_1, # of connection points: 2
#     Edge 26, Type (0, 1), BuildingBlock: KIFKEQ_clean_linker_1, # of connection points: 2
#     Edge 27, Type (0, 1), BuildingBlock: KIFKEQ_clean_linker_1, # of connection points: 2
#     Edge 28, Type (0, 1), BuildingBlock: KIFKEQ_clean_linker_1, # of connection points: 2
#     Edge 29, Type (0, 1), BuildingBlock: KIFKEQ_clean_linker_1, # of connection points: 2
#     Edge 30, Type (0, 1), BuildingBlock: KIFKEQ_clean_linker_1, # of connection points: 2
#     Edge 31, Type (0, 1), BuildingBlock: KIFKEQ_clean_linker_1, # of connection points: 2
#     Edge 32, Type (0, 1), BuildingBlock: KIFKEQ_clean_linker_1, # of connection points: 2
#     Edge 33, Type (0, 1), BuildingBlock: KIFKEQ_clean_linker_1, # of connection points: 2
#     Edge 34, Type (0, 1), BuildingBlock: KIFKEQ_clean_linker_1, # of connection points: 2
#     Edge 35, Type (0, 1), BuildingBlock: KIFKEQ_clean_linker_1, # of connection points: 2
# Relax obj value: 0.175
# Max RMSD: 0.103
# Mean RMSD: 0.078
data_MOF--net-zzz--node1-KUMJIN_clean_sbu_1--node2-PAMTOO_clean_linker_0--edge1-KIFKEQ_clean_linker_1
_symmetry_space_group_name_H-M    P1
_symmetry_Int_Tables_number       1
_symmetry_cell_setting            triclinic
loop_
_symmetry_equiv_pos_as_xyz
'x, y, z'
_cell_length_a     49.917363
_cell_length_b     49.693372
_cell_length_c     15.739844
_cell_angle_alpha  90.237336
_cell_angle_beta   90.093927
_cell_angle_gamma 90.295966
loop_
_atom_site_label
_atom_site_type_symbol
_atom_site_fract_x
_atom_site_fract_y
_atom_site_fract_z
_atom_type_partial_charge
H0 H 0.84796 0.56105 0.19301 0.0
H1 H 0.76628 0.57481 0.1188 0.0
H2 H 0.78575 0.56354 0.38243 0.0
H3 H 0.71884 0.54505 0.31943 0.0
C4 C 0.72826 0.54954 0.25714 0.0
O5 O 0.74611 0.57087 0.26832 0.0
H6 H 0.73901 0.53085 0.23826 0.0
C7 C 0.82713 0.56383 0.21008 0.0
C8 C 0.81974 0.56242 0.29618 0.0
C9 C 0.80807 0.568 0.1456 0.0
C10 C 0.78115 0.57126 0.16761 0.0
C11 C 0.77282 0.56907 0.25183 0.0
C12 C 0.79217 0.56503 0.31694 0.0
H13 H 0.9708 0.84199 0.27719 0.0
H14 H 0.9711 0.75961 0.19222 0.0
H15 H 1.02321 0.78486 0.39563 0.0
H16 H 0.04857 0.73746 0.27059 0.0
C17 C 0.02941 0.73718 0.23449 0.0
O18 O 1.00896 0.74386 0.29083 0.0
H19 H 0.0314 0.75269 0.18396 0.0
C20 C 0.97735 0.82135 0.28464 0.0
C21 C 0.99662 0.81577 0.34697 0.0
C22 C 0.96853 0.80148 0.22696 0.0
C23 C 0.97783 0.7751 0.23592 0.0
C24 C 0.99798 0.76897 0.29422 0.0
C25 C 1.00739 0.78936 0.35082 0.0
H26 H 0.71496 0.99496 0.23748 0.0
H27 H 0.79137 0.99749 0.11361 0.0
H28 H 0.77859 0.04344 0.34299 0.0
H29 H 0.82248 0.06884 0.21736 0.0
C30 C 0.82218 0.05071 0.17576 0.0
O31 O 0.81457 1.02883 0.22491 0.0
H32 H 0.80725 0.05439 0.12451 0.0
C33 C 0.73576 1.00148 0.23735 0.0
C34 C 0.7444 1.02003 0.29889 0.0
C35 C 0.75223 0.99367 0.16983 0.0
C36 C 0.77876 1.0028 0.16702 0.0
C37 C 0.7887 1.02013 0.23044 0.0
C38 C 0.77139 1.02902 0.29645 0.0
H39 H 0.59153 0.74561 0.29874 0.0
H40 H 0.58601 0.81977 0.16043 0.0
H41 H 0.5289 0.80178 0.35791 0.0
H42 H 0.50654 0.84227 0.20415 0.0
C43 C 0.5272 0.84318 0.17808 0.0
O44 O 0.54519 0.83857 0.24379 0.0
H45 H 0.52848 0.827 0.12905 0.0
C46 C 0.58219 0.76507 0.28949 0.0
C47 C 0.55955 0.77155 0.33758 0.0
C48 C 0.59166 0.78207 0.2251 0.0
C49 C 0.57899 0.80669 0.21073 0.0
C50 C 0.55656 0.81415 0.25869 0.0
C51 C 0.54647 0.79631 0.32161 0.0
H52 H 0.23389 0.50629 0.1578 0.0
H53 H 0.31436 0.50051 0.25286 0.0
H54 H 0.30026 0.53011 1.00024 0.0
H55 H 0.33497 0.55711 0.18572 0.0
C56 C 0.34988 0.54384 0.15396 0.0
O57 O 0.33757 0.52074 0.12148 0.0
H58 H 0.35793 0.55559 0.09969 0.0
C59 C 0.25533 0.50794 0.14769 0.0
C60 C 0.26465 0.51746 0.06927 0.0
C61 C 0.27302 0.50239 0.21479 0.0
C62 C 0.30061 0.50524 0.20198 0.0
C63 C 0.31066 0.51592 0.12655 0.0
C64 C 0.29264 0.52186 0.05903 0.0
H65 H 0.06842 0.24495 0.15638 0.0
H66 H 0.06133 0.32697 0.23862 0.0
H67 H 0.0565 0.30782 0.97208 0.0
H68 H 0.07244 0.37996 0.03853 0.0
C69 C 0.07321 0.36772 0.09734 0.0
O70 O 0.05411 0.34728 0.0907 0.0
H71 H 0.09374 0.35906 0.09996 0.0
C72 C 0.06689 0.2661 0.14046 0.0
C73 C 0.06346 0.27355 0.05496 0.0
C74 C 0.06618 0.2851 0.20665 0.0
C75 C 0.06241 0.31224 0.18777 0.0
C76 C 0.05935 0.32073 0.10404 0.0
C77 C 0.05964 0.30135 0.03692 0.0
H78 H 0.32294 1.02552 0.10647 0.0
H79 H 0.24584 0.03564 0.22152 0.0
H80 H 0.26481 0.07761 0.9897 0.0
H81 H 0.21445 0.10717 0.1142 0.0
C82 C 0.21938 0.09021 0.15716 0.0
O83 O 0.22696 0.0683 0.10772 0.0
H84 H 0.2363 0.09732 0.19788 0.0
C85 C 0.30317 0.0345 0.10522 0.0
C86 C 0.29623 0.0518 0.03876 0.0
C87 C 0.28527 1.029 0.17121 0.0
C88 C 0.25975 0.0403 0.17089 0.0
C89 C 0.25223 0.05808 0.10647 0.0
C90 C 0.27063 0.06411 0.04022 0.0
H91 H 0.524 0.35221 0.14517 0.0
H92 H 0.52706 0.27358 0.25755 0.0
H93 H 0.51009 0.28185 0.99053 0.0
H94 H 0.48568 0.22259 0.08702 0.0
C95 C 0.49489 0.23177 0.14462 0.0
O96 O 0.51693 0.24701 0.11966 0.0
H97 H 0.47917 0.24477 0.17342 0.0
C98 C 0.52187 0.33054 0.13941 0.0
C99 C 0.51644 0.31936 0.05945 0.0
C100 C 0.52556 0.31432 0.21111 0.0
C101 C 0.52392 0.28631 0.20276 0.0
C102 C 0.51792 0.27439 0.12433 0.0
C103 C 0.51425 0.29096 0.05179 0.0
Eu104 Eu 0.99933 0.06177 0.5989 0.0
C105 C 0.10253 0.05646 0.84965 0.0
N106 N 0.09621 0.0426 0.77783 0.0
C107 C 0.14225 0.0436 0.73449 0.0
C108 C 0.12903 0.06514 0.86566 0.0
C109 C 0.11576 0.03513 0.72216 0.0
C110 C 0.14886 0.05901 0.80599 0.0
C111 C 0.08893 0.07302 0.98804 0.0
C112 C 0.08279 0.06039 0.9099 0.0
C113 C 0.115 0.08273 1.00281 0.0
C114 C 0.13502 0.07882 0.94173 0.0
Eu115 Eu 0.05058 0.03072 0.75905 0.0
N116 N 0.05785 0.05068 0.8938 0.0
C117 C 0.06885 0.07484 0.04979 0.0
C118 C 0.03852 0.05129 0.95509 0.0
C119 C 0.04363 0.06362 0.03359 0.0
H120 H 0.11106 1.02223 0.66887 0.0
H121 H 0.02815 0.06439 0.0816 0.0
H122 H 0.94539 1.02878 0.66895 0.0
H123 H 0.04277 0.06246 0.27857 0.0
H124 H 1.01909 0.04245 0.94343 0.0
H125 H 0.07279 0.0843 0.11073 0.0
H126 H 0.0339 0.08033 0.42159 0.0
H127 H 0.1576 0.03794 0.68944 0.0
H128 H 0.12 0.09276 0.06201 0.0
H129 H 0.1552 0.08581 0.95491 0.0
H130 H 0.91474 0.99236 0.62059 0.0
H131 H 0.16945 0.06529 0.81591 0.0
H132 H 1.01882 1.02179 0.22779 0.0
N133 N 0.96979 1.02674 0.5587 0.0
C134 C 0.97308 1.0163 0.47944 0.0
C135 C 0.93121 0.99874 0.58068 0.0
C136 C 0.95629 0.9954 0.4496 0.0
C137 C 0.94853 1.01924 0.60795 0.0
C138 C 0.93534 0.98648 0.50171 0.0
N139 N 1.0078 0.04819 0.45659 0.0
C140 C 1.02449 0.06168 0.40258 0.0
C141 C 0.99665 1.01664 0.34485 0.0
C142 C 0.99303 1.02691 0.42778 0.0
C143 C 1.01546 1.02906 0.29188 0.0
C144 C 0.02908 0.05197 0.3204 0.0
H145 H 0.92197 0.9705 0.48094 0.0
H146 H 0.94815 0.96811 0.34486 0.0
H147 H 0.9835 0.98667 0.25318 0.0
O148 O 0.98019 0.08906 0.50923 0.0
O149 O 1.00254 1.01634 0.62754 0.0
O150 O 0.04703 1.01196 0.62851 0.0
O151 O 0.9626 0.08284 0.63263 0.0
O152 O 0.04257 0.07452 0.5692 0.0
O153 O 0.06733 0.03982 0.62659 0.0
O154 O 0.0317 0.99308 0.79353 0.0
O155 O 0.03822 0.07417 0.78902 0.0
O156 O 0.0276 0.09313 0.65961 0.0
O157 O 0.07526 0.99778 0.8098 0.0
O158 O 1.00616 1.02725 0.79657 0.0
O159 O 0.98674 0.06421 0.73617 0.0
C160 C 1.02371 1.00209 0.60732 0.0
C161 C 0.95924 0.12593 0.57599 0.0
C162 C 0.97933 0.17074 0.57972 0.0
C163 C 0.95411 0.18152 0.60032 0.0
C164 C 0.93428 0.13691 0.59644 0.0
C165 C 0.93182 0.16461 0.60934 0.0
C166 C 0.98172 0.14274 0.57025 0.0
C167 C 0.06463 0.05997 0.57276 0.0
C168 C 0.96205 0.09686 0.5633 0.0
C169 C 0.96063 0.98441 0.3685 0.0
C170 C 0.98081 0.99495 0.31636 0.0
C171 C 0.03548 0.09544 0.73968 0.0
C172 C 0.05526 0.95406 0.84401 0.0
C173 C 0.03133 0.9123 0.87166 0.0
C174 C 0.05585 0.89868 0.87663 0.0
C175 C 0.07971 0.94039 0.85054 0.0
C176 C 0.03116 0.93995 0.85599 0.0
C177 C 0.07994 0.91277 0.86687 0.0
C178 C 0.98675 0.04508 0.79303 0.0
C179 C 0.0544 0.98187 0.81341 0.0
H180 H 0.95129 0.20302 0.60654 0.0
H181 H 0.91678 0.12408 0.60241 0.0
H182 H 0.91247 0.17308 0.62462 0.0
H183 H 1.00102 0.13388 0.55667 0.0
H184 H 0.05634 0.87731 0.88994 0.0
H185 H 0.09854 0.95083 0.84043 0.0
H186 H 1.01211 0.95026 0.85125 0.0
H187 H 0.0988 0.90223 0.87121 0.0
Eu188 Eu 0.53807 0.06965 0.76948 0.0
C189 C 0.54032 0.95845 0.66265 0.0
N190 N 0.54655 0.98057 0.61573 0.0
C191 C 0.5893 0.96131 0.58193 0.0
C192 C 0.55914 0.93776 0.67561 0.0
C193 C 0.5698 0.98104 0.56996 0.0
C194 C 0.58422 0.93991 0.63676 0.0
C195 C 0.50672 0.93224 0.73769 0.0
C196 C 0.51445 0.95559 0.69322 0.0
C197 C 0.52581 0.91232 0.75462 0.0
C198 C 0.55199 0.91511 0.72384 0.0
Eu199 Eu 0.51238 1.01383 0.60548 0.0
N200 N 0.49666 0.9756 0.67862 0.0
C201 C 0.47997 0.92957 0.76322 0.0
C202 C 0.47031 0.97268 0.69993 0.0
C203 C 0.46161 0.94972 0.74317 0.0
H204 H 0.57333 0.99619 0.52244 0.0
H205 H 0.4408 0.94764 0.76129 0.0
H206 H 0.49165 0.11746 0.78635 0.0
H207 H 0.64623 0.08508 0.73604 0.0
H208 H 0.45617 0.98829 0.68436 0.0
H209 H 0.47324 0.91191 0.79737 0.0
H210 H 0.60518 0.06208 0.78586 0.0
H211 H 0.60802 0.96234 0.54744 0.0
H212 H 0.5204 0.89445 0.79005 0.0
H213 H 0.56632 0.89923 0.73544 0.0
H214 H 0.48537 0.16513 0.74451 0.0
H215 H 0.59924 0.92448 0.64511 0.0
H216 H 0.643 0.12915 0.66405 0.0
N217 N 0.53121 0.11548 0.73744 0.0
C218 C 0.55221 0.12914 0.704 0.0
C219 C 0.5042 0.15518 0.73213 0.0
C220 C 0.5496 0.15616 0.67861 0.0
C221 C 0.5078 0.12833 0.75591 0.0
C222 C 0.52499 0.16898 0.6914 0.0
N223 N 0.57895 0.09179 0.73639 0.0
C224 C 0.60355 0.08108 0.75309 0.0
C225 C 0.5998 0.13099 0.67522 0.0
C226 C 0.57692 0.11676 0.7027 0.0
C227 C 0.62492 0.11894 0.68458 0.0
C228 C 0.62684 0.09412 0.72546 0.0
H229 H 0.52217 0.18975 0.67293 0.0
H230 H 0.57025 0.19046 0.62412 0.0
H231 H 0.61428 0.16835 0.62089 0.0
O232 O 0.55465 0.08921 0.88249 0.0
O233 O 0.51318 0.08397 0.65548 0.0
O234 O 0.52237 0.05457 0.54615 0.0
O235 O 0.52076 0.06249 0.89477 0.0
O236 O 0.56776 0.04143 0.7048 0.0
O237 O 0.55121 0.03588 0.5711 0.0
O238 O 0.47704 1.01138 0.5235 0.0
O239 O 0.50985 1.00952 0.74991 0.0
O240 O 0.55012 1.02605 0.78746 0.0
O241 O 0.51237 0.98884 0.49126 0.0
O242 O 0.47699 0.03737 0.65926 0.0
O243 O 0.49285 0.06201 0.77601 0.0
C244 C 0.51693 0.079 0.57407 0.0
C245 C 0.55306 0.0614 1.0022 0.0
C246 C 0.58701 1.02881 0.04477 0.0
C247 C 0.58014 0.03377 0.13041 0.0
C248 C 0.5464 0.06583 0.08733 0.0
C249 C 0.55988 0.05196 0.15119 0.0
C250 C 0.57299 0.04272 0.98121 0.0
C251 C 0.57144 0.04108 0.62233 0.0
C252 C 0.53926 0.07606 0.93466 0.0
C253 C 0.57192 0.16982 0.64532 0.0
C254 C 0.597 0.15722 0.64347 0.0
C255 C 0.53113 1.00823 0.79847 0.0
C256 C 0.47054 0.96694 0.47301 0.0
C257 C 0.42651 0.94562 0.46457 0.0
C258 C 0.43847 0.92021 0.46946 0.0
C259 C 0.48228 0.9413 0.47907 0.0
C260 C 0.44264 0.96884 0.46607 0.0
C261 C 0.46627 0.91813 0.47732 0.0
C262 C 0.47315 0.05162 0.72953 0.0
C263 C 0.48686 0.99183 0.47805 0.0
H264 H 0.59087 1.02427 0.18191 0.0
H265 H 0.53094 0.0801 0.10433 0.0
H266 H 0.55492 0.05562 0.21715 0.0
H267 H 0.57763 0.03934 0.91506 0.0
H268 H 0.42633 0.90209 0.46726 0.0
H269 H 0.50375 0.93907 0.48566 0.0
H270 H 0.43342 0.98849 0.46058 0.0
H271 H 0.47545 0.8985 0.48181 0.0
Eu272 Eu 0.56422 0.53545 0.65029 0.0
C273 C 0.44656 0.55699 0.84647 0.0
N274 N 0.46354 0.57087 0.79563 0.0
C275 C 0.42637 0.59345 0.73116 0.0
C276 C 0.41858 0.56024 0.84019 0.0
C277 C 0.45398 0.58967 0.74051 0.0
C278 C 0.40855 0.57839 0.7804 0.0
C279 C 0.44062 0.5279 0.96798 0.0
C280 C 0.45737 0.54101 0.90895 0.0
C281 C 0.41267 0.52984 0.95939 0.0
C282 C 0.40165 0.54602 0.8956 0.0
Eu283 Eu 0.50991 0.56217 0.81017 0.0
N284 N 0.48439 0.53991 0.91574 0.0
C285 C 0.45249 0.51413 0.03557 0.0
C286 C 0.49607 0.52762 0.98368 0.0
C287 C 0.48035 0.51437 0.0442 0.0
H288 H 0.46762 0.60144 0.70251 0.0
H289 H 0.48974 0.50427 0.09718 0.0
H290 H 0.61072 0.5834 0.62747 0.0
H291 H 0.53215 0.45974 0.41779 0.0
H292 H 0.51764 0.52755 0.9902 0.0
H293 H 0.44034 0.50393 0.08261 0.0
H294 H 0.53844 0.47931 0.56056 0.0
H295 H 0.41887 0.60798 0.68608 0.0
H296 H 0.39942 0.51958 1.00324 0.0
H297 H 0.38009 0.54802 0.8913 0.0
H298 H 0.63359 0.60798 0.51142 0.0
H299 H 0.38719 0.58147 0.77346 0.0
H300 H 0.54966 0.48357 0.2916 0.0
N301 N 0.58897 0.5578 0.54361 0.0
C302 C 0.58515 0.54954 0.46236 0.0
C303 C 0.61986 0.59169 0.49663 0.0
C304 C 0.59788 0.56268 0.39417 0.0
C305 C 0.60685 0.57784 0.56206 0.0
C306 C 0.61505 0.58434 0.41212 0.0
N307 N 0.55918 0.51402 0.51618 0.0
C308 C 0.5463 0.48987 0.50627 0.0
C309 C 0.56659 0.51644 0.36519 0.0
C310 C 0.56979 0.52682 0.44816 0.0
C311 C 0.55251 0.49224 0.35426 0.0
C312 C 0.54264 0.47872 0.42531 0.0
H313 H 0.62524 0.59498 0.36152 0.0
H314 H 0.6028 0.56338 0.2575 0.0
H315 H 0.57561 0.52275 0.23198 0.0
O316 O 0.60376 0.51733 0.63551 0.0
O317 O 0.56004 0.5811 0.66139 0.0
O318 O 0.51527 0.58644 0.68742 0.0
O319 O 0.58075 0.50957 0.74895 0.0
O320 O 0.5226 0.53433 0.58807 0.0
O321 O 0.49034 0.54988 0.68385 0.0
O322 O 0.53446 0.5982 0.83235 0.0
O323 O 0.52227 0.51842 0.82869 0.0
O324 O 0.53302 0.50449 0.69379 0.0
O325 O 0.50097 0.58962 0.915 0.0
O326 O 0.54946 0.54516 0.85777 0.0
O327 O 0.57489 0.56448 0.75722 0.0
C328 C 0.5378 0.59501 0.65309 0.0
C329 C 0.61156 0.47677 0.70861 0.0
C330 C 0.60632 0.4307 0.65825 0.0
C331 C 0.62648 0.42257 0.71501 0.0
C332 C 0.63162 0.46851 0.76494 0.0
C333 C 0.63906 0.44146 0.76796 0.0
C334 C 0.59903 0.45794 0.65583 0.0
C335 C 0.49753 0.54022 0.60859 0.0
C336 C 0.60284 0.5048 0.70813 0.0
C337 C 0.59367 0.55329 0.31088 0.0
C338 C 0.57811 0.53017 0.29637 0.0
C339 C 0.52486 0.49917 0.77151 0.0
C340 C 0.54149 0.60491 0.97831 0.0
C341 C 0.58233 0.62343 0.04268 0.0
C342 C 0.58076 0.60349 0.10592 0.0
C343 C 0.53971 0.5862 0.04473 0.0
C344 C 0.56258 0.62368 0.97835 0.0
C345 C 0.55933 0.58543 0.10769 0.0
C346 C 0.57227 0.55644 0.83608 0.0
C347 C 0.52307 0.60338 0.90489 0.0
H348 H 0.63279 0.40178 0.71768 0.0
H349 H 0.64134 0.48292 0.80683 0.0
H350 H 0.6546 0.43511 0.81143 0.0
H351 H 0.5832 0.46457 0.61403 0.0
H352 H 0.59589 0.60197 0.15491 0.0
H353 H 0.5235 0.57178 0.04735 0.0
H354 H 0.56311 0.63872 0.92877 0.0
H355 H 0.55808 0.57053 0.15747 0.0
Eu356 Eu 0.05552 0.57197 0.6182 0.0
C357 C 0.07258 0.47588 0.84105 0.0
N358 N 0.05678 0.47838 0.77092 0.0
C359 C 0.07537 0.4378 0.71295 0.0
C360 C 0.09137 0.45487 0.84764 0.0
C361 C 0.05685 0.45878 0.70977 0.0
C362 C 0.09306 0.43611 0.78139 0.0
C363 C 0.0843 0.49097 0.98347 0.0
C364 C 0.06901 0.49357 0.90856 0.0
C365 C 0.10372 0.47072 0.98882 0.0
C366 C 0.10725 0.45272 0.92107 0.0
Eu367 Eu 0.02741 0.5159 0.77052 0.0
N368 N 0.05041 0.51328 0.90116 0.0
C369 C 0.07943 0.5087 0.05107 0.0
C370 C 0.04478 0.52993 0.96786 0.0
C371 C 0.0594 0.52808 0.04347 0.0
H372 H 0.04223 0.45866 0.6594 0.0
H373 H 0.05524 0.54161 0.09579 0.0
H374 H 1.0213 0.62585 0.68036 0.0
H375 H 0.07206 0.53559 0.29311 0.0
H376 H 0.02917 0.54477 0.96249 0.0
H377 H 0.09074 0.50735 0.1097 0.0
H378 H 0.08302 0.54233 0.44446 0.0
H379 H 0.07565 0.42267 0.66331 0.0
H380 H 0.11581 0.46853 0.04559 0.0
H381 H 0.12192 0.43683 0.92685 0.0
H382 H 0.98745 0.65727 0.62254 0.0
H383 H 0.10721 0.41967 0.78407 0.0
H384 H 0.03332 0.55909 0.22984 0.0
N385 N 1.02309 0.60236 0.5675 0.0
C386 C 1.01566 0.59984 0.48491 0.0
C387 C 0.99503 0.64106 0.58342 0.0
C388 C 0.99639 0.61714 0.44929 0.0
C389 C 1.01411 0.62331 0.61597 0.0
C390 C 0.98579 0.63768 0.50013 0.0
N391 N 0.04886 0.56655 0.46959 0.0
C392 C 0.06522 0.5515 0.41887 0.0
C393 C 1.02235 0.57878 0.34757 0.0
C394 C 0.02862 0.58102 0.43479 0.0
C395 C 0.03755 0.56142 0.29699 0.0
C396 C 0.05941 0.5481 0.33251 0.0
H397 H 0.97102 0.65145 0.47504 0.0
H398 H 0.97409 0.62688 0.33531 0.0
H399 H 0.99675 0.59319 0.24619 0.0
O400 O 0.08407 0.596 0.54524 0.0
O401 O 1.00977 0.5692 0.63859 0.0
O402 O 1.00425 0.52406 0.6493 0.0
O403 O 0.07918 0.6036 0.67924 0.0
O404 O 0.06678 0.52858 0.58132 0.0
O405 O 0.03082 0.50412 0.62988 0.0
O406 O 0.98869 0.51753 0.83444 0.0
O407 O 0.06699 0.53742 0.80101 0.0
O408 O 0.0852 0.54125 0.66995 0.0
O409 O 1.00727 0.47907 0.81127 0.0
O410 O 1.01572 0.55871 0.81269 0.0
O411 O 0.04946 0.58495 0.75549 0.0
C412 C 0.99471 0.54761 0.62855 0.0
C413 C 0.12236 0.60774 0.62519 0.0
C414 C 0.16439 0.58304 0.61806 0.0
C415 C 0.17776 0.60564 0.65234 0.0
C416 C 0.13592 0.63006 0.65915 0.0
C417 C 0.16351 0.62888 0.67336 0.0
C418 C 0.13648 0.58413 0.60724 0.0
C419 C 0.05053 0.50762 0.57524 0.0
C420 C 0.09333 0.60859 0.61195 0.0
C421 C 0.98909 0.61401 0.3636 0.0
C422 C 1.00198 0.5948 0.31289 0.0
C423 C 0.08821 0.53749 0.75191 0.0
C424 C 0.96096 0.48262 0.78135 0.0
C425 C 0.91541 0.49182 0.73338 0.0
C426 C 0.91592 0.46866 0.68227 0.0
C427 C 0.96125 0.45952 0.72921 0.0
C428 C 0.93789 0.49856 0.78292 0.0
C429 C 0.93885 0.45267 0.68001 0.0
C430 C 0.03058 0.58083 0.81243 0.0
C431 C 0.98509 0.49156 0.82869 0.0
H432 H 0.19931 0.60579 0.66034 0.0
H433 H 0.12516 0.6483 0.6748 0.0
H434 H 0.17398 0.6462 0.69922 0.0
H435 H 0.12564 0.5667 0.58359 0.0
H436 H 0.8986 0.46294 0.64468 0.0
H437 H 0.97883 0.44688 0.72559 0.0
H438 H 0.93727 0.51617 0.82385 0.0
H439 H 0.93926 0.43488 0.64015 0.0
H440 H 0.21882 0.06382 0.31065 0.0
H441 H 0.16598 0.10251 0.13283 0.0
H442 H 0.18123 0.0564 0.40734 0.0
H443 H 0.12819 0.09539 0.22998 0.0
H444 H 0.0755 0.10503 0.47536 0.0
H445 H 0.11165 0.11124 0.37161 0.0
H446 H 0.13928 0.03068 0.42109 0.0
H447 H 0.10302 1.02424 0.52201 0.0
C448 C 0.19906 0.07033 0.29157 0.0
C449 C 0.19543 0.0836 0.2137 0.0
C450 C 0.17745 0.06619 0.34719 0.0
C451 C 0.15153 0.07539 0.32702 0.0
C452 C 0.14784 0.08832 0.24837 0.0
C453 C 0.16945 0.0922 0.19229 0.0
C454 C 0.08921 0.0886 0.46377 0.0
C455 C 0.08646 0.06429 0.50867 0.0
C456 C 0.10994 0.09213 0.40403 0.0
C457 C 0.12868 0.07154 0.38817 0.0
C458 C 0.12568 0.0472 0.43253 0.0
C459 C 0.10485 0.04358 0.49117 0.0
H460 H 0.5004 0.23557 0.31878 0.0
H461 H 0.50569 0.17819 0.11378 0.0
H462 H 0.5075 0.19956 0.42176 0.0
H463 H 0.51185 0.14188 0.21609 0.0
H464 H 0.54113 0.08311 0.41815 0.0
H465 H 0.5389 0.12007 0.3167 0.0
H466 H 0.48538 0.16268 0.48496 0.0
H467 H 0.48783 0.12568 0.58588 0.0
C468 C 0.50336 0.21525 0.29569 0.0
C469 C 0.50241 0.20981 0.20795 0.0
C470 C 0.50708 0.19443 0.35486 0.0
C471 C 0.50994 0.16742 0.32822 0.0
C472 C 0.50997 0.16224 0.23993 0.0
C473 C 0.50635 0.18311 0.18086 0.0
C474 C 0.52887 0.10038 0.43348 0.0
C475 C 0.51499 0.10151 0.51123 0.0
C476 C 0.5275 0.12167 0.37494 0.0
C477 C 0.51205 0.14479 0.39188 0.0
C478 C 0.49804 0.14572 0.46968 0.0
C479 C 0.49946 0.12443 0.52813 0.0
H480 H 0.34598 0.52646 0.32035 0.0
H481 H 0.40464 0.54972 0.13404 0.0
H482 H 0.38115 0.52184 0.42647 0.0
H483 H 0.43988 0.54673 0.24072 0.0
H484 H 0.50301 0.52673 0.43856 0.0
H485 H 0.4684 0.52359 0.32958 0.0
H486 H 0.40874 0.54553 0.51578 0.0
H487 H 0.44299 0.54675 0.62492 0.0
C488 C 0.36649 0.52999 0.30135 0.0
C489 C 0.37235 0.53778 0.21758 0.0
C490 C 0.38683 0.52796 0.36309 0.0
C491 C 0.41381 0.53418 0.34387 0.0
C492 C 0.41968 0.54134 0.25909 0.0
C493 C 0.39934 0.54307 0.19722 0.0
C494 C 0.48246 0.53051 0.45668 0.0
C495 C 0.47612 0.53718 0.54145 0.0
C496 C 0.46245 0.52903 0.39343 0.0
C497 C 0.43532 0.5344 0.4123 0.0
C498 C 0.42905 0.54075 0.4975 0.0
C499 C 0.44898 0.5419 0.56072 0.0
H500 H 0.10789 0.38092 0.22799 0.0
H501 H 0.02842 0.39796 0.13669 0.0
H502 H 0.10254 0.41429 0.34113 0.0
H503 H 1.02295 0.4317 0.24949 0.0
H504 H 1.01277 0.47289 0.51072 0.0
H505 H 1.01757 0.43888 0.39974 0.0
H506 H 0.10039 0.462 0.36743 0.0
H507 H 0.09566 0.49568 0.48036 0.0
C508 C 0.08909 0.3916 0.23267 0.0
C509 C 0.06843 0.38638 0.17367 0.0
C510 C 0.08611 0.41107 0.2972 0.0
C511 C 0.06233 0.42608 0.30516 0.0
C512 C 0.04148 0.4205 0.24672 0.0
C513 C 0.04454 0.40107 0.18185 0.0
C514 C 0.03206 0.47078 0.48005 0.0
C515 C 0.05379 0.4873 0.50479 0.0
C516 C 0.03477 0.45128 0.41557 0.0
C517 C 0.05939 0.44739 0.37362 0.0
C518 C 0.08115 0.46399 0.39837 0.0
C519 C 0.07838 0.48362 0.46275 0.0
H520 H 0.86242 0.08784 0.15856 0.0
H521 H 0.84259 1.00593 0.09156 0.0
H522 H 0.90306 0.0852 0.07324 0.0
H523 H 0.88352 1.0032 1.00525 0.0
H524 H 0.97251 1.0047 0.90574 0.0
H525 H 0.93451 1.00417 1.00506 0.0
H526 H 0.91188 0.08337 0.92056 0.0
H527 H 0.94936 0.08396 0.82256 0.0
C528 C 0.86704 0.06902 0.12698 0.0
C529 C 0.84942 0.04694 0.13344 0.0
C530 C 0.89027 0.06758 0.07719 0.0
C531 C 0.89665 0.04403 0.03156 0.0
C532 C 0.87947 1.02158 0.04 0.0
C533 C 0.856 1.02311 0.0896 0.0
C534 C 0.95946 1.02203 0.9087 0.0
C535 C 0.96419 0.04438 0.85583 0.0
C536 C 0.93757 1.02166 0.96536 0.0
C537 C 0.92009 0.04381 0.97154 0.0
C538 C 0.92502 0.06611 0.91889 0.0
C539 C 0.94657 0.06635 0.86195 0.0
H540 H 0.56346 0.85605 0.05212 0.0
H541 H 0.50149 0.89139 0.2059 0.0
H542 H 0.56648 0.89754 0.96852 0.0
H543 H 0.50461 0.93295 0.12361 0.0
H544 H 0.49011 0.98444 0.88417 0.0
H545 H 0.49179 0.9467 0.98219 0.0
H546 H 0.57807 0.94588 0.96319 0.0
H547 H 0.57618 0.98369 0.86321 0.0
C548 C 0.55085 0.8729 0.06907 0.0
C549 C 0.53204 0.87028 0.13512 0.0
C550 C 0.55259 0.89676 1.02125 0.0
C551 C 0.53555 0.91868 0.0382 0.0
C552 C 0.51771 0.91643 0.10726 0.0
C553 C 0.51605 0.89264 0.15509 0.0
C554 C 0.50948 0.97638 0.90137 0.0
C555 C 0.53298 0.98704 0.86534 0.0
C556 C 0.51049 0.95477 0.9583 0.0
C557 C 0.53507 0.94299 0.98119 0.0
C558 C 0.55873 0.95412 0.94664 0.0
C559 C 0.5577 0.976 0.88993 0.0
H560 H 0.67767 0.57038 0.2825 0.0
H561 H 0.7294 0.54159 0.08327 0.0
H562 H 0.64082 0.57419 0.18003 0.0
H563 H 0.69246 0.54522 0.98089 0.0
H564 H 0.62281 0.57736 0.80963 0.0
H565 H 0.66086 0.57862 0.90826 0.0
H566 H 0.61278 0.53913 0.09847 0.0
H567 H 0.57501 0.53726 0.99943 0.0
C568 C 0.68126 0.56515 0.21663 0.0
C569 C 0.70652 0.55554 0.19132 0.0
C570 C 0.66001 0.56701 0.15809 0.0
C571 C 0.66337 0.55947 0.0724 0.0
C572 C 0.68904 0.5512 0.0462 0.0
C573 C 0.71028 0.54917 0.10489 0.0
C574 C 0.62032 0.56889 0.87242 0.0
C575 C 0.59562 0.55735 0.89638 0.0
C576 C 0.64221 0.56959 0.92903 0.0
C577 C 0.63997 0.55913 1.01179 0.0
C578 C 0.61525 0.54767 0.03574 0.0
C579 C 0.59353 0.54655 0.97869 0.0
H580 H 0.06556 0.69607 0.21935 0.0
H581 H 0.98552 0.7173 0.14282 0.0
H582 H 0.064 0.65684 0.12586 0.0
H583 H 0.98386 0.67774 0.04868 0.0
H584 H 0.98832 0.59028 0.92446 0.0
H585 H 0.98546 0.62545 0.03519 0.0
H586 H 0.06472 0.65309 0.96887 0.0
H587 H 0.06751 0.61869 0.85961 0.0
C588 C 0.04728 0.69202 0.18426 0.0
C589 C 0.02553 0.70987 0.19006 0.0
C590 C 0.04648 0.66956 0.12974 0.0
C591 C 1.0239 0.66407 0.07859 0.0
C592 C 1.00155 0.68111 0.0873 0.0
C593 C 1.00245 0.70384 0.14162 0.0
C594 C 1.00512 0.60385 0.93376 0.0
C595 C 0.02809 0.60151 0.88222 0.0
C596 C 1.00344 0.62412 0.99707 0.0
C597 C 1.02492 0.64218 1.01176 0.0
C598 C 0.04787 0.63949 0.9607 0.0
C599 C 0.04937 0.61972 0.89709 0.0
H600 H 0.09907 0.24875 0.28408 0.0
H601 H 0.03106 0.30017 0.3295 0.0
H602 H 0.08854 0.22361 0.41292 0.0
H603 H 1.02032 0.27502 0.45647 0.0
H604 H 1.01751 0.1624 0.45857 0.0
H605 H 0.04971 0.1939 0.40529 0.0
H606 H 0.0256 0.25223 0.59426 0.0
H607 H 0.99337 0.21975 0.65118 0.0
C608 C 0.08244 0.25521 0.32318 0.0
C609 C 0.06539 0.2758 0.29571 0.0
C610 C 0.07648 0.24095 0.39702 0.0
C611 C 0.05315 0.24684 0.44334 0.0
C612 C 0.03843 0.26991 0.42232 0.0
C613 C 0.04449 0.28428 0.34895 0.0
C614 C 1.01967 0.18137 0.49198 0.0
C615 C 1.00234 0.18858 0.55857 0.0
C616 C 0.03842 0.19958 0.46121 0.0
C617 C 0.04012 0.22571 0.49507 0.0
C618 C 1.0245 0.23229 0.56637 0.0
C619 C 1.00582 0.21382 0.59811 0.0
H620 H 0.28068 0.97485 0.19188 0.0
H621 H 0.31207 0.04708 0.30796 0.0
H622 H 0.30662 0.94749 0.29144 0.0
H623 H 0.33869 1.02035 0.4049 0.0
H624 H 0.39686 0.92385 0.33727 0.0
H625 H 0.35328 0.93934 0.28975 0.0
H626 H 0.34693 0.98937 0.51441 0.0
H627 H 0.39133 0.97462 0.55934 0.0
C628 C 0.2925 0.98474 0.24074 0.0
C629 C 0.29461 1.01285 0.24305 0.0
C630 C 0.30749 0.96919 0.29718 0.0
C631 C 0.32509 0.98164 0.3555 0.0
C632 C 0.32518 1.00992 0.36196 0.0
C633 C 0.31007 1.02536 0.30613 0.0
C634 C 0.38566 0.93741 0.37778 0.0
C635 C 0.39747 0.94849 0.45083 0.0
C636 C 0.36056 0.94625 0.35091 0.0
C637 C 0.3468 0.96614 0.39728 0.0
C638 C 0.35732 0.97461 0.47603 0.0
C639 C 0.38262 0.9661 0.50207 0.0
H640 H 0.56426 0.29902 0.32408 0.0
H641 H 0.50269 0.35846 0.2833 0.0
H642 H 0.58104 0.32506 0.4454 0.0
H643 H 0.51991 0.38465 0.40312 0.0
H644 H 0.59083 0.37865 0.6923 0.0
H645 H 0.56771 0.34723 0.5961 0.0
H646 H 0.5673 0.4079 0.40065 0.0
H647 H 0.59131 0.43865 0.49376 0.0
C648 C 0.55388 0.31722 0.34243 0.0
C649 C 0.53252 0.32704 0.29338 0.0
C650 C 0.56349 0.33207 0.41172 0.0
C651 C 0.55192 0.35692 0.43231 0.0
C652 C 0.52931 0.36566 0.38744 0.0
C653 C 0.51959 0.35078 0.31884 0.0
C654 C 0.58612 0.38511 0.6284 0.0
C655 C 0.59281 0.4112 0.60084 0.0
C656 C 0.57272 0.36724 0.57393 0.0
C657 C 0.56546 0.37542 0.4919 0.0
C658 C 0.5722 0.40138 0.4644 0.0
C659 C 0.58591 0.41898 0.51791 0.0
H660 H 0.2907 0.52686 0.35913 0.0
H661 H 0.23082 0.47081 0.26695 0.0
H662 H 0.26474 0.53442 0.48594 0.0
H663 H 0.20471 0.47809 0.39604 0.0
H664 H 0.15303 0.55254 0.47776 0.0
H665 H 0.1808 0.51964 0.41015 0.0
H666 H 0.23888 0.52703 0.61306 0.0
H667 H 0.21038 0.56023 0.68299 0.0
C668 C 0.27261 0.51506 0.36784 0.0
C669 C 0.26233 0.49891 0.30181 0.0
C670 C 0.25767 0.51935 0.44124 0.0
C671 C 0.23218 0.50755 0.44981 0.0
C672 C 0.22394 0.48808 0.38991 0.0
C673 C 0.23883 0.48394 0.316 0.0
C674 C 0.17113 0.54655 0.51044 0.0
C675 C 0.17959 0.55952 0.58547 0.0
C676 C 0.18715 0.52737 0.47143 0.0
C677 C 0.21226 0.52079 0.50569 0.0
C678 C 0.21979 0.53199 0.58445 0.0
C679 C 0.20363 0.55125 0.62388 0.0
H680 H 0.9798 0.78338 0.06742 0.0
H681 H 0.92848 0.83891 0.20136 0.0
H682 H 0.97765 0.81058 0.9436 0.0
H683 H 0.92556 0.86645 0.07392 0.0
H684 H 1.00993 0.86918 0.78692 0.0
H685 H 0.97341 0.84033 0.83634 0.0
H686 H 0.96093 0.89479 0.04827 0.0
H687 H 0.99569 0.92397 0.99472 0.0
C688 C 0.96672 0.8007 0.0693 0.0
C689 C 0.95571 0.80991 0.14614 0.0
C690 C 0.96541 0.8166 0.99697 0.0
C691 C 0.95319 0.84205 1.00054 0.0
C692 C 0.93674 0.84785 0.07088 0.0
C693 C 0.9383 0.83203 0.14398 0.0
C694 C 0.99863 0.87513 0.84257 0.0
C695 C 1.00603 0.89807 0.88919 0.0
C696 C 0.97772 0.8587 0.87105 0.0
C697 C 0.96492 0.8643 0.94894 0.0
C698 C 0.9702 0.88929 0.98864 0.0
C699 C 0.99051 0.90604 0.95874 0.0
H700 H 0.74502 1.01824 1.02005 0.0
H701 H 0.72698 0.94481 0.15291 0.0
H702 H 0.70268 1.01575 0.94787 0.0
H703 H 0.68495 0.94066 0.07512 0.0
H704 H 0.60484 0.98391 0.12937 0.0
H705 H 0.64795 0.96304 0.11578 0.0
H706 H 0.66289 1.00848 0.88646 0.0
H707 H 0.62139 0.03207 0.90706 0.0
C708 C 0.73277 1.00039 0.02893 0.0
C709 C 0.73864 0.98235 0.09438 0.0
C710 C 0.70806 0.99894 0.98766 0.0
C711 C 0.68919 0.97894 1.01007 0.0
C712 C 0.69813 0.95736 0.0604 0.0
C713 C 0.72258 0.95928 0.10358 0.0
C714 C 0.61738 0.98973 0.07644 0.0
C715 C 0.60999 1.01092 0.02256 0.0
C716 C 0.64211 0.97709 0.06696 0.0
C717 C 0.65988 0.98474 1.00166 0.0
C718 C 0.65054 1.00289 0.94007 0.0
C719 C 0.62623 1.01625 0.95134 0.0
H720 H 0.64177 0.76269 0.25784 0.0
H721 H 0.58462 0.77481 0.05618 0.0
H722 H 0.65941 0.72357 0.18315 0.0
H723 H 0.60149 0.73551 0.9829 0.0
H724 H 0.60652 0.65266 0.91362 0.0
H725 H 0.6277 0.69682 0.92932 0.0
H726 H 0.62635 0.68762 0.20211 0.0
H727 H 0.60419 0.64517 0.18745 0.0
C728 C 0.63413 0.75798 0.195 0.0
C729 C 0.61117 0.77092 0.16415 0.0
C730 C 0.64416 0.73551 0.15224 0.0
C731 C 0.63077 0.72556 0.07985 0.0
C732 C 0.61191 0.74221 0.03963 0.0
C733 C 0.60212 0.76487 0.08184 0.0
C734 C 0.61107 0.65994 0.97695 0.0
C735 C 0.60247 0.64565 0.04926 0.0
C736 C 0.62365 0.68506 0.98569 0.0
C737 C 0.62833 0.69603 0.06684 0.0
C738 C 0.62328 0.67991 0.13834 0.0
C739 C 0.6103 0.65523 0.12978 0.0
H740 H 0.78119 0.54307 1.01519 0.0
H741 H 0.85299 0.58885 0.07063 0.0
H742 H 0.79876 0.53179 0.87563 0.0
H743 H 0.87128 0.57619 0.93387 0.0
H744 H 0.90941 0.54604 0.7159 0.0
H745 H 0.87453 0.57278 0.784 0.0
H746 H 0.83227 0.49947 0.84888 0.0
H747 H 0.86647 0.47325 0.7783 0.0
C748 C 0.80043 0.55135 0.99685 0.0
C749 C 0.81606 0.56625 0.05496 0.0
C750 C 0.81058 0.54469 0.91693 0.0
C751 C 0.83669 0.55246 0.89406 0.0
C752 C 0.85107 0.56979 0.94876 0.0
C753 C 0.8408 0.57669 0.02818 0.0
C754 C 0.89195 0.53589 0.74146 0.0
C755 C 0.89077 0.50767 0.74402 0.0
C756 C 0.87208 0.55113 0.7809 0.0
C757 C 0.85111 0.53827 0.82471 0.0
C758 C 0.8481 0.51018 0.81619 0.0
C759 C 0.86778 0.49501 0.77581 0.0
H760 H 0.02704 0.26464 0.92301 0.0
H761 H 0.09736 0.23072 0.03954 0.0
H762 H 1.02095 0.22298 0.83935 0.0
H763 H 0.09095 0.18935 0.95854 0.0
H764 H 0.04849 0.1086 0.90458 0.0
H765 H 0.05668 0.15258 0.96762 0.0
H766 H 0.04126 0.19018 0.72632 0.0
H767 H 0.03385 0.14563 0.66187 0.0
C768 C 0.04157 0.24867 0.92948 0.0
C769 C 0.06255 0.25118 0.98924 0.0
C770 C 0.03797 0.22463 0.88186 0.0
C771 C 0.05509 0.20235 0.89338 0.0
C772 C 0.07694 0.20564 0.94913 0.0
C773 C 0.08069 0.22957 0.99549 0.0
C774 C 0.04704 0.12602 0.86415 0.0
C775 C 0.04042 0.12307 0.77752 0.0
C776 C 0.05174 0.15149 0.90066 0.0
C777 C 0.04967 0.17523 0.85243 0.0
C778 C 0.04276 0.17249 0.7659 0.0
C779 C 0.03847 0.14682 0.72887 0.0
H780 H 0.32499 0.09762 1.00121 0.0
H781 H 0.31539 1.01453 0.9282 0.0
H782 H 0.36606 0.10042 0.9159 0.0
H783 H 0.35633 1.01694 0.84429 0.0
H784 H 0.42597 0.03019 0.66544 0.0
H785 H 0.38094 0.03338 0.72491 0.0
H786 H 0.41124 0.08422 0.92671 0.0
H787 H 0.45604 0.08139 0.86681 0.0
C788 C 0.33117 0.08022 0.96462 0.0
C789 C 0.31665 0.05599 0.9704 0.0
C790 C 0.355 0.08163 0.91676 0.0
C791 C 0.36494 0.05882 0.87327 0.0
C792 C 0.34944 0.03506 0.87559 0.0
C793 C 0.3258 0.03366 0.92366 0.0
C794 C 0.42306 0.0423 0.72199 0.0
C795 C 0.44498 0.05538 0.76115 0.0
C796 C 0.39711 0.04403 0.75658 0.0
C797 C 0.39214 0.05899 0.83129 0.0
C798 C 0.41394 0.07277 0.86871 0.0
C799 C 0.43986 0.07096 0.8344 0.0
H800 H 0.47305 0.34942 1.01799 0.0
H801 H 0.55503 0.33544 0.94691 0.0
H802 H 0.47295 0.39102 0.93573 0.0
H803 H 0.55534 0.37737 0.86524 0.0
H804 H 0.54378 0.45243 0.69646 0.0
H805 H 0.53992 0.40614 0.74842 0.0
H806 H 0.49229 0.4344 0.95907 0.0
H807 H 0.49594 0.48002 0.90635 0.0
C808 C 0.49074 0.35471 0.98181 0.0
C809 C 0.51381 0.33871 0.98737 0.0
C810 C 0.49092 0.37891 0.93585 0.0
C811 C 0.51431 0.38809 0.89463 0.0
C812 C 0.53687 0.37109 0.89543 0.0
C813 C 0.53666 0.34683 0.94167 0.0
C814 C 0.53248 0.44876 0.75375 0.0
C815 C 0.52078 0.47039 0.79828 0.0
C816 C 0.53029 0.42211 0.78382 0.0
C817 C 0.51581 0.41619 0.85848 0.0
C818 C 0.50341 0.43779 0.90105 0.0
C819 C 0.50586 0.46429 0.87146 0.0
H820 H 0.23155 0.56075 0.06786 0.0
H821 H 0.24882 0.48812 0.92904 0.0
H822 H 0.19039 0.56652 0.98596 0.0
H823 H 0.20724 0.4934 0.84732 0.0
H824 H 0.13555 0.52054 0.6785 0.0
H825 H 0.17988 0.51688 0.7451 0.0
H826 H 0.1471 0.54659 0.98084 0.0
H827 H 0.10315 0.54999 0.91468 0.0
C828 C 0.22691 0.54641 1.01785 0.0
C829 C 0.24388 0.52432 1.00383 0.0
C830 C 0.20296 0.5494 0.97171 0.0
C831 C 0.19488 0.53021 0.91034 0.0
C832 C 0.2126 0.50876 0.89334 0.0
C833 C 0.23665 0.50578 0.93979 0.0
C834 C 0.13789 0.52645 0.74441 0.0
C835 C 0.11564 0.53566 0.79091 0.0
C836 C 0.16339 0.52431 0.78283 0.0
C837 C 0.16759 0.53196 0.86835 0.0
C838 C 0.14516 0.5411 0.91448 0.0
C839 C 0.11971 0.54281 0.8766 0.0
H840 H 0.97942 0.83205 0.50454 0.0
H841 H 0.03347 0.85391 0.3034 0.0
H842 H 0.98723 0.87581 0.57323 0.0
H843 H 0.04094 0.89783 0.36989 0.0
H844 H 0.06247 0.97097 0.53261 0.0
H845 H 0.05903 0.92472 0.48027 0.0
H846 H 0.97614 0.92194 0.55799 0.0
H847 H 0.98012 0.96776 0.61336 0.0
C848 C 0.99364 0.84592 0.47639 0.0
C849 C 1.00644 0.83908 0.39975 0.0
C850 C 0.99776 0.87133 0.51484 0.0
C851 C 1.01463 0.8909 0.47737 0.0
C852 C 0.02813 0.88351 0.40208 0.0
C853 C 1.02399 0.85813 0.36384 0.0
C854 C 0.04352 0.96045 0.53889 0.0
C855 C 1.02144 0.97348 0.57612 0.0
C856 C 0.04145 0.93383 0.50817 0.0
C857 C 1.01722 0.91914 0.51387 0.0
C858 C 0.99527 0.93213 0.55267 0.0
C859 C 0.99739 0.95875 0.58341 0.0
H860 H 0.69836 0.04391 0.25111 0.0
H861 H 0.74163 1.02032 0.47546 0.0
H862 H 0.65858 0.05126 0.33394 0.0
H863 H 0.70189 0.02981 0.56213 0.0
H864 H 0.6171 1.01521 0.67432 0.0
H865 H 0.66073 1.0146 0.60415 0.0
H866 H 0.6318 0.0729 0.42255 0.0
H867 H 0.58788 0.07123 0.48859 0.0
C868 C 0.69959 0.04122 0.31932 0.0
C869 C 0.72326 0.0314 0.35631 0.0
C870 C 0.67656 0.04565 0.36775 0.0
C871 C 0.6763 0.04112 0.45615 0.0
C872 C 0.7007 0.03303 0.49431 0.0
C873 C 0.72383 1.02807 0.44494 0.0
C874 C 0.62026 1.02784 0.61927 0.0
C875 C 0.59895 0.04288 0.58591 0.0
C876 C 0.64546 1.02773 0.57904 0.0
C877 C 0.6503 0.04329 0.50555 0.0
C878 C 0.62912 0.05965 0.47621 0.0
C879 C 0.60378 0.059 0.51465 0.0
H880 H 0.51632 0.73731 0.32592 0.0
H881 H 0.58374 0.75717 0.48541 0.0
H882 H 0.50949 0.69547 0.40539 0.0
H883 H 0.57673 0.71597 0.56649 0.0
H884 H 0.58203 0.62589 0.6154 0.0
H885 H 0.58415 0.66957 0.54713 0.0
H886 H 0.49779 0.67117 0.53226 0.0
H887 H 0.49582 0.62664 0.59805 0.0
C888 C 0.52897 0.73329 0.38034 0.0
C889 C 0.55023 0.75092 0.40035 0.0
C890 C 0.52523 0.7091 0.42573 0.0
C891 C 0.5428 0.70177 0.49215 0.0
C892 C 0.5631 0.72033 0.51487 0.0
C893 C 0.56684 0.74434 0.46941 0.0
C894 C 0.56344 0.63527 0.59686 0.0
C895 C 0.53878 0.6223 0.61198 0.0
C896 C 0.56462 0.66077 0.55859 0.0
C897 C 0.54114 0.67444 0.53419 0.0
C898 C 0.51639 0.66145 0.54929 0.0
C899 C 0.51524 0.63586 0.58778 0.0
H900 H 0.83204 0.59113 0.44283 0.0
H901 H 0.85778 0.52319 0.29351 0.0
H902 H 0.87242 0.58714 0.53166 0.0
H903 H 0.89806 0.51955 0.37946 0.0
H904 H 0.96205 0.50615 0.57579 0.0
H905 H 0.91797 0.50827 0.50997 0.0
H906 H 0.92013 0.59499 0.5272 0.0
H907 H 0.96378 0.5926 0.59734 0.0
C908 C 0.84602 0.57503 0.42993 0.0
C909 C 0.84152 0.5575 0.36077 0.0
C910 C 0.86946 0.57295 0.48011 0.0
C911 C 0.88899 0.55313 0.46298 0.0
C912 C 0.88369 0.53493 0.39605 0.0
C913 C 0.86047 0.53709 0.34609 0.0
C914 C 0.95318 0.52574 0.56596 0.0
C915 C 0.96708 0.5493 0.59032 0.0
C916 C 0.92777 0.52698 0.52738 0.0
C917 C 0.91524 0.55185 0.51132 0.0
C918 C 0.9288 0.57539 0.53824 0.0
C919 C 0.95421 0.5741 0.57736 0.0
loop_
_geom_bond_atom_site_label_1
_geom_bond_atom_site_label_2
_geom_bond_distance
_geom_bond_site_symmetry_2
_ccdc_geom_bond_type
H0 C7 0.929 . S
H1 C10 0.930 . S
H2 C12 0.929 . S
H3 C4 0.969 . S
C4 H3 0.969 . S
C4 O5 1.550 . S
C4 H6 0.973 . S
O5 C4 1.550 . S
O5 C11 1.412 . S
H6 C4 0.973 . S
C7 H0 0.929 . S
C7 C8 1.400 . S
C7 C9 1.364 . S
C8 C7 1.400 . S
C8 C12 1.377 . S
C9 C7 1.364 . S
C9 C10 1.374 . S
C10 H1 0.930 . S
C10 C9 1.374 . S
C10 C11 1.383 . S
C11 O5 1.412 . S
C11 C10 1.383 . S
C11 C12 1.394 . S
C12 H2 0.929 . S
C12 C8 1.377 . S
C12 C11 1.394 . S
H13 C20 0.929 . S
H14 C23 0.930 . S
H15 C25 0.929 . S
H16 C17 0.969 1_455 S
C17 H16 0.969 1_655 S
C17 O18 1.550 . S
C17 H19 0.973 . S
O18 C17 1.550 . S
O18 C24 1.412 . S
H19 C17 0.973 . S
C20 H13 0.929 . S
C20 C21 1.400 . S
C20 C22 1.364 . S
C21 C20 1.400 . S
C21 C25 1.377 . S
C22 C20 1.364 . S
C22 C23 1.374 . S
C23 H14 0.930 . S
C23 C22 1.374 . S
C23 C24 1.383 . S
C24 O18 1.412 . S
C24 C23 1.383 . S
C24 C25 1.394 . S
C25 H15 0.929 . S
C25 C21 1.377 . S
C25 C24 1.394 . S
H26 C33 0.929 . S
H27 C36 0.930 . S
H28 C38 0.929 . S
H29 C30 0.969 1_545 S
C30 H29 0.969 1_565 S
C30 O31 1.550 . S
C30 H32 0.973 . S
O31 C30 1.550 . S
O31 C37 1.412 . S
H32 C30 0.973 . S
C33 H26 0.929 . S
C33 C34 1.400 . S
C33 C35 1.364 . S
C34 C33 1.400 . S
C34 C38 1.377 . S
C35 C33 1.364 . S
C35 C36 1.374 . S
C36 H27 0.930 . S
C36 C35 1.374 . S
C36 C37 1.383 . S
C37 O31 1.412 . S
C37 C36 1.383 . S
C37 C38 1.394 . S
C38 H28 0.929 . S
C38 C34 1.377 . S
C38 C37 1.394 . S
H39 C46 0.929 . S
H40 C49 0.930 . S
H41 C51 0.929 . S
H42 C43 0.969 . S
C43 H42 0.969 . S
C43 O44 1.550 . S
C43 H45 0.973 . S
O44 C43 1.550 . S
O44 C50 1.412 . S
H45 C43 0.973 . S
C46 H39 0.929 . S
C46 C47 1.400 . S
C46 C48 1.364 . S
C47 C46 1.400 . S
C47 C51 1.377 . S
C48 C46 1.364 . S
C48 C49 1.374 . S
C49 H40 0.930 . S
C49 C48 1.374 . S
C49 C50 1.383 . S
C50 O44 1.412 . S
C50 C49 1.383 . S
C50 C51 1.394 . S
C51 H41 0.929 . S
C51 C47 1.377 . S
C51 C50 1.394 . S
H52 C59 0.929 . S
H53 C62 0.930 . S
H54 C64 0.929 . S
H55 C56 0.969 . S
C56 H55 0.969 . S
C56 O57 1.550 . S
C56 H58 0.973 . S
O57 C56 1.550 . S
O57 C63 1.412 . S
H58 C56 0.973 . S
C59 H52 0.929 . S
C59 C60 1.400 1_554 S
C59 C61 1.364 . S
C60 C59 1.400 1_556 S
C60 C64 1.377 . S
C61 C59 1.364 . S
C61 C62 1.374 . S
C62 H53 0.930 . S
C62 C61 1.374 . S
C62 C63 1.383 . S
C63 O57 1.412 . S
C63 C62 1.383 . S
C63 C64 1.394 1_554 S
C64 H54 0.929 . S
C64 C60 1.377 . S
C64 C63 1.394 1_556 S
H65 C72 0.929 . S
H66 C75 0.930 . S
H67 C77 0.929 . S
H68 C69 0.969 . S
C69 H68 0.969 . S
C69 O70 1.550 . S
C69 H71 0.973 . S
O70 C69 1.550 . S
O70 C76 1.412 . S
H71 C69 0.973 . S
C72 H65 0.929 . S
C72 C73 1.400 1_554 S
C72 C74 1.364 . S
C73 C72 1.400 1_556 S
C73 C77 1.377 . S
C74 C72 1.364 . S
C74 C75 1.374 . S
C75 H66 0.930 . S
C75 C74 1.374 . S
C75 C76 1.383 . S
C76 O70 1.412 . S
C76 C75 1.383 . S
C76 C77 1.394 1_554 S
C77 H67 0.929 . S
C77 C73 1.377 . S
C77 C76 1.394 1_556 S
H78 C85 0.929 . S
H79 C88 0.930 . S
H80 C90 0.929 . S
H81 C82 0.969 . S
C82 H81 0.969 . S
C82 O83 1.550 . S
C82 H84 0.973 . S
O83 C82 1.550 . S
O83 C89 1.412 . S
H84 C82 0.973 . S
C85 H78 0.929 . S
C85 C86 1.400 1_554 S
C85 C87 1.364 . S
C86 C85 1.400 1_556 S
C86 C90 1.377 . S
C87 C85 1.364 . S
C87 C88 1.374 . S
C88 H79 0.930 . S
C88 C87 1.374 . S
C88 C89 1.383 . S
C89 O83 1.412 . S
C89 C88 1.383 . S
C89 C90 1.394 1_554 S
C90 H80 0.929 . S
C90 C86 1.377 . S
C90 C89 1.394 1_556 S
H91 C98 0.929 . S
H92 C101 0.930 . S
H93 C103 0.929 . S
H94 C95 0.969 . S
C95 H94 0.969 . S
C95 O96 1.550 . S
C95 H97 0.973 . S
O96 C95 1.550 . S
O96 C102 1.412 . S
H97 C95 0.973 . S
C98 H91 0.929 . S
C98 C99 1.400 1_554 S
C98 C100 1.364 . S
C99 C98 1.400 1_556 S
C99 C103 1.377 . S
C100 C98 1.364 . S
C100 C101 1.374 . S
C101 H92 0.930 . S
C101 C100 1.374 . S
C101 C102 1.383 . S
C102 O96 1.412 . S
C102 C101 1.383 . S
C102 C103 1.394 1_554 S
C103 H93 0.929 . S
C103 C99 1.377 . S
C103 C102 1.394 1_556 S
Eu104 N133 2.600 . S
Eu104 N139 2.562 . S
Eu104 O148 2.462 1_655 S
Eu104 O149 2.373 1_545 S
Eu104 O151 2.432 . S
Eu104 O152 2.291 1_655 S
Eu104 O156 2.335 1_655 S
Eu104 O159 2.372 . S
Eu104 C168 2.787 . S
C105 N106 1.365 . S
C105 C108 1.405 . S
C105 C112 1.448 . S
N106 C105 1.365 . S
N106 C109 1.319 . S
N106 Eu115 2.600 1_545 S
C107 C109 1.397 . S
C107 C110 1.367 . S
C107 H127 0.931 . S
C108 C105 1.405 . S
C108 C110 1.403 . S
C108 C114 1.439 . S
C109 N106 1.319 . S
C109 C107 1.397 . S
C109 H120 0.930 1_545 S
C110 C107 1.367 . S
C110 C108 1.403 . S
C110 H131 0.929 . S
C111 C112 1.430 1_554 S
C111 C113 1.387 . S
C111 C117 1.404 . S
C112 C105 1.448 . S
C112 C111 1.430 1_556 S
C112 N116 1.351 . S
C113 C111 1.387 . S
C113 C114 1.374 1_554 S
C113 H128 0.931 . S
C114 C108 1.439 . S
C114 C113 1.374 1_556 S
C114 H129 0.931 1_556 S
Eu115 N106 2.600 1_565 S
Eu115 N116 2.562 1_565 S
Eu115 O150 2.335 . S
Eu115 O153 2.372 . S
Eu115 O154 2.462 . S
Eu115 O155 2.373 1_565 S
Eu115 O157 2.432 . S
Eu115 O158 2.291 1_465 S
Eu115 C179 2.787 . S
N116 C112 1.351 . S
N116 Eu115 2.562 1_545 S
N116 C118 1.325 . S
C117 C111 1.404 . S
C117 C119 1.366 . S
C117 H125 0.930 . S
C118 N116 1.325 . S
C118 C119 1.416 1_556 S
C118 H124 0.929 1_455 S
C119 C117 1.366 . S
C119 C118 1.416 1_554 S
C119 H121 0.930 1_455 S
H120 C109 0.930 1_565 S
H121 C119 0.930 1_655 S
H122 C137 0.930 . S
H123 C144 0.930 . S
H124 C118 0.929 1_655 S
H125 C117 0.930 . S
H126 C140 0.929 . S
H127 C107 0.931 . S
H128 C113 0.931 . S
H129 C114 0.931 1_554 S
H130 C135 0.931 . S
H131 C110 0.929 . S
H132 C143 0.930 . S
N133 Eu104 2.600 . S
N133 C134 1.365 . S
N133 C137 1.319 . S
C134 N133 1.365 . S
C134 C136 1.405 1_545 S
C134 C142 1.448 . S
C135 H130 0.931 . S
C135 C137 1.397 . S
C135 C138 1.367 1_545 S
C136 C134 1.405 1_565 S
C136 C138 1.403 . S
C136 C169 1.439 . S
C137 H122 0.930 . S
C137 N133 1.319 . S
C137 C135 1.397 . S
C138 C135 1.367 1_565 S
C138 C136 1.403 . S
C138 H145 0.929 . S
N139 Eu104 2.562 . S
N139 C140 1.325 1_655 S
N139 C142 1.351 . S
C140 H126 0.929 . S
C140 N139 1.325 1_455 S
C140 C144 1.416 1_545 S
C141 C142 1.430 1_565 S
C141 C143 1.404 . S
C141 C170 1.387 . S
C142 C134 1.448 . S
C142 N139 1.351 . S
C142 C141 1.430 1_545 S
C143 H132 0.930 . S
C143 C141 1.404 . S
C143 C144 1.366 1_655 S
C144 H123 0.930 . S
C144 C140 1.416 1_565 S
C144 C143 1.366 1_455 S
H145 C138 0.929 . S
H146 C169 0.931 . S
H147 C170 0.931 . S
O148 Eu104 2.462 1_455 S
O148 C168 1.252 1_455 S
O149 Eu104 2.373 1_565 S
O149 C160 1.249 . S
O150 Eu115 2.335 . S
O150 C160 1.264 1_455 S
O151 Eu104 2.432 . S
O151 C168 1.268 . S
O152 Eu104 2.291 1_455 S
O152 C167 1.255 . S
O153 Eu115 2.372 . S
O153 C167 1.257 1_565 S
O154 Eu115 2.462 . S
O154 C179 1.252 . S
O155 Eu115 2.373 1_545 S
O155 C171 1.249 . S
O156 Eu104 2.335 1_455 S
O156 C171 1.264 . S
O157 Eu115 2.432 . S
O157 C179 1.268 . S
O158 Eu115 2.291 1_645 S
O158 C178 1.255 . S
O159 Eu104 2.372 . S
O159 C178 1.257 . S
C160 O149 1.249 . S
C160 O150 1.264 1_655 S
C161 C164 1.382 . S
C161 C166 1.422 . S
C161 C168 1.506 . S
C162 C163 1.398 . S
C162 C166 1.398 . S
C163 C162 1.398 . S
C163 C165 1.372 . S
C163 H180 0.931 . S
C164 C161 1.382 . S
C164 C165 1.390 . S
C164 H181 0.931 . S
C165 C163 1.372 . S
C165 C164 1.390 . S
C165 H182 0.929 . S
C166 C161 1.422 . S
C166 C162 1.398 . S
C166 H183 0.893 1_655 S
C167 O152 1.255 . S
C167 O153 1.257 1_545 S
C168 Eu104 2.787 . S
C168 O148 1.252 1_655 S
C168 O151 1.268 . S
C168 C161 1.506 . S
C169 C136 1.439 . S
C169 H146 0.931 . S
C169 C170 1.374 . S
C170 C141 1.387 . S
C170 H147 0.931 . S
C170 C169 1.374 . S
C171 O155 1.249 . S
C171 O156 1.264 . S
C172 C175 1.382 . S
C172 C176 1.390 . S
C172 C179 1.506 . S
C173 C174 1.398 . S
C173 C176 1.392 . S
C174 C173 1.398 . S
C174 C177 1.372 . S
C174 H184 0.931 . S
C175 C172 1.382 . S
C175 C177 1.390 . S
C175 H185 0.931 . S
C176 C172 1.390 . S
C176 C173 1.392 . S
C176 H186 0.930 . S
C177 C174 1.372 . S
C177 C175 1.390 . S
C177 H187 0.929 . S
C178 O158 1.255 . S
C178 O159 1.257 . S
C179 Eu115 2.787 . S
C179 O154 1.252 . S
C179 O157 1.268 . S
C179 C172 1.506 . S
H180 C163 0.931 . S
H181 C164 0.931 . S
H182 C165 0.929 . S
H183 C166 0.893 1_455 S
H184 C174 0.931 . S
H185 C175 0.931 . S
H186 C176 0.930 . S
H187 C177 0.929 . S
Eu188 N217 2.600 . S
Eu188 N223 2.562 . S
Eu188 O232 2.462 . S
Eu188 O233 2.373 . S
Eu188 O235 2.432 . S
Eu188 O236 2.291 . S
Eu188 O240 2.335 1_545 S
Eu188 O243 2.372 . S
Eu188 C252 2.787 . S
C189 N190 1.365 . S
C189 C192 1.405 . S
C189 C196 1.448 . S
N190 C189 1.365 . S
N190 C193 1.319 . S
N190 Eu199 2.600 . S
C191 C193 1.397 . S
C191 C194 1.367 . S
C191 H211 0.931 . S
C192 C189 1.405 . S
C192 C194 1.403 . S
C192 C198 1.439 . S
C193 N190 1.319 . S
C193 C191 1.397 . S
C193 H204 0.930 . S
C194 C191 1.367 . S
C194 C192 1.403 . S
C194 H215 0.929 . S
C195 C196 1.430 . S
C195 C197 1.387 . S
C195 C201 1.404 . S
C196 C189 1.448 . S
C196 C195 1.430 . S
C196 N200 1.351 . S
C197 C195 1.387 . S
C197 C198 1.374 . S
C197 H212 0.931 . S
C198 C192 1.439 . S
C198 C197 1.374 . S
C198 H213 0.931 . S
Eu199 N190 2.600 . S
Eu199 N200 2.562 . S
Eu199 O234 2.335 1_565 S
Eu199 O237 2.372 . S
Eu199 O238 2.462 . S
Eu199 O239 2.373 . S
Eu199 O241 2.432 . S
Eu199 O242 2.291 1_565 S
Eu199 C263 2.787 . S
N200 C196 1.351 . S
N200 Eu199 2.562 . S
N200 C202 1.325 . S
C201 C195 1.404 . S
C201 C203 1.366 . S
C201 H209 0.930 . S
C202 N200 1.325 . S
C202 C203 1.416 . S
C202 H208 0.929 . S
C203 C201 1.366 . S
C203 C202 1.416 . S
C203 H205 0.930 . S
H204 C193 0.930 . S
H205 C203 0.930 . S
H206 C221 0.930 . S
H207 C228 0.930 . S
H208 C202 0.929 . S
H209 C201 0.930 . S
H210 C224 0.929 . S
H211 C191 0.931 . S
H212 C197 0.931 . S
H213 C198 0.931 . S
H214 C219 0.931 . S
H215 C194 0.929 . S
H216 C227 0.930 . S
N217 Eu188 2.600 . S
N217 C218 1.365 . S
N217 C221 1.319 . S
C218 N217 1.365 . S
C218 C220 1.405 . S
C218 C226 1.448 . S
C219 H214 0.931 . S
C219 C221 1.397 . S
C219 C222 1.367 . S
C220 C218 1.405 . S
C220 C222 1.403 . S
C220 C253 1.439 . S
C221 H206 0.930 . S
C221 N217 1.319 . S
C221 C219 1.397 . S
C222 C219 1.367 . S
C222 C220 1.403 . S
C222 H229 0.929 . S
N223 Eu188 2.562 . S
N223 C224 1.325 . S
N223 C226 1.351 . S
C224 H210 0.929 . S
C224 N223 1.325 . S
C224 C228 1.416 . S
C225 C226 1.430 . S
C225 C227 1.404 . S
C225 C254 1.387 . S
C226 C218 1.448 . S
C226 N223 1.351 . S
C226 C225 1.430 . S
C227 H216 0.930 . S
C227 C225 1.404 . S
C227 C228 1.366 . S
C228 H207 0.930 . S
C228 C224 1.416 . S
C228 C227 1.366 . S
H229 C222 0.929 . S
H230 C253 0.931 . S
H231 C254 0.931 . S
O232 Eu188 2.462 . S
O232 C252 1.252 . S
O233 Eu188 2.373 . S
O233 C244 1.249 . S
O234 Eu199 2.335 1_545 S
O234 C244 1.264 . S
O235 Eu188 2.432 . S
O235 C252 1.268 . S
O236 Eu188 2.291 . S
O236 C251 1.255 . S
O237 Eu199 2.372 . S
O237 C251 1.257 1_565 S
O238 Eu199 2.462 . S
O238 C263 1.252 . S
O239 Eu199 2.373 . S
O239 C255 1.249 . S
O240 Eu188 2.335 1_565 S
O240 C255 1.264 . S
O241 Eu199 2.432 . S
O241 C263 1.268 . S
O242 Eu199 2.291 1_545 S
O242 C262 1.255 . S
O243 Eu188 2.372 . S
O243 C262 1.257 . S
C244 O233 1.249 . S
C244 O234 1.264 . S
C245 C248 1.382 1_556 S
C245 C250 1.390 . S
C245 C252 1.506 . S
C246 C247 1.398 . S
C246 C250 1.392 1_554 S
C247 C246 1.398 . S
C247 C249 1.372 . S
C247 H264 0.931 . S
C248 C245 1.382 1_554 S
C248 C249 1.390 . S
C248 H265 0.931 . S
C249 C247 1.372 . S
C249 C248 1.390 . S
C249 H266 0.929 . S
C250 C245 1.390 . S
C250 C246 1.392 1_556 S
C250 H267 0.930 . S
C251 O236 1.255 . S
C251 O237 1.257 1_545 S
C252 Eu188 2.787 . S
C252 O232 1.252 . S
C252 O235 1.268 . S
C252 C245 1.506 . S
C253 C220 1.439 . S
C253 H230 0.931 . S
C253 C254 1.374 . S
C254 C225 1.387 . S
C254 H231 0.931 . S
C254 C253 1.374 . S
C255 O239 1.249 . S
C255 O240 1.264 . S
C256 C259 1.382 . S
C256 C260 1.390 1_565 S
C256 C263 1.506 . S
C257 C258 1.398 1_545 S
C257 C260 1.392 . S
C258 C257 1.398 1_565 S
C258 C261 1.372 . S
C258 H268 0.931 . S
C259 C256 1.382 . S
C259 C261 1.390 . S
C259 H269 0.931 . S
C260 C256 1.390 1_545 S
C260 C257 1.392 . S
C260 H270 0.930 . S
C261 C258 1.372 . S
C261 C259 1.390 . S
C261 H271 0.929 . S
C262 O242 1.255 . S
C262 O243 1.257 . S
C263 Eu199 2.787 . S
C263 O238 1.252 . S
C263 O241 1.268 . S
C263 C256 1.506 . S
H264 C247 0.931 . S
H265 C248 0.931 . S
H266 C249 0.929 . S
H267 C250 0.930 . S
H268 C258 0.931 . S
H269 C259 0.931 . S
H270 C260 0.930 . S
H271 C261 0.929 . S
Eu272 N301 2.600 . S
Eu272 N307 2.562 . S
Eu272 O316 2.462 . S
Eu272 O317 2.373 . S
Eu272 O319 2.432 . S
Eu272 O320 2.291 . S
Eu272 O324 2.335 . S
Eu272 O327 2.372 . S
Eu272 C336 2.787 . S
C273 N274 1.365 . S
C273 C276 1.405 . S
C273 C280 1.448 . S
N274 C273 1.365 . S
N274 C277 1.319 . S
N274 Eu283 2.600 . S
C275 C277 1.397 . S
C275 C278 1.367 . S
C275 H295 0.931 . S
C276 C273 1.405 . S
C276 C278 1.403 . S
C276 C282 1.439 . S
C277 N274 1.319 . S
C277 C275 1.397 . S
C277 H288 0.930 . S
C278 C275 1.367 . S
C278 C276 1.403 . S
C278 H299 0.929 . S
C279 C280 1.430 1_554 S
C279 C281 1.387 . S
C279 C285 1.404 . S
C280 C273 1.448 . S
C280 C279 1.430 1_556 S
C280 N284 1.351 . S
C281 C279 1.387 . S
C281 C282 1.374 1_554 S
C281 H296 0.931 . S
C282 C276 1.439 . S
C282 C281 1.374 1_556 S
C282 H297 0.931 1_556 S
Eu283 N274 2.600 . S
Eu283 N284 2.562 . S
Eu283 O318 2.335 . S
Eu283 O321 2.372 . S
Eu283 O322 2.462 . S
Eu283 O323 2.373 . S
Eu283 O325 2.432 . S
Eu283 O326 2.291 . S
Eu283 C347 2.787 . S
N284 C280 1.351 . S
N284 Eu283 2.562 . S
N284 C286 1.325 . S
C285 C279 1.404 . S
C285 C287 1.366 . S
C285 H293 0.930 . S
C286 N284 1.325 . S
C286 C287 1.416 1_556 S
C286 H292 0.929 . S
C287 C285 1.366 . S
C287 C286 1.416 1_554 S
C287 H289 0.930 . S
H288 C277 0.930 . S
H289 C287 0.930 . S
H290 C305 0.930 . S
H291 C312 0.930 . S
H292 C286 0.929 . S
H293 C285 0.930 . S
H294 C308 0.929 . S
H295 C275 0.931 . S
H296 C281 0.931 . S
H297 C282 0.931 1_554 S
H298 C303 0.931 . S
H299 C278 0.929 . S
H300 C311 0.930 . S
N301 Eu272 2.600 . S
N301 C302 1.365 . S
N301 C305 1.319 . S
C302 N301 1.365 . S
C302 C304 1.405 . S
C302 C310 1.448 . S
C303 H298 0.931 . S
C303 C305 1.397 . S
C303 C306 1.367 . S
C304 C302 1.405 . S
C304 C306 1.403 . S
C304 C337 1.439 . S
C305 H290 0.930 . S
C305 N301 1.319 . S
C305 C303 1.397 . S
C306 C303 1.367 . S
C306 C304 1.403 . S
C306 H313 0.929 . S
N307 Eu272 2.562 . S
N307 C308 1.325 . S
N307 C310 1.351 . S
C308 H294 0.929 . S
C308 N307 1.325 . S
C308 C312 1.416 . S
C309 C310 1.430 . S
C309 C311 1.404 . S
C309 C338 1.387 . S
C310 C302 1.448 . S
C310 N307 1.351 . S
C310 C309 1.430 . S
C311 H300 0.930 . S
C311 C309 1.404 . S
C311 C312 1.366 . S
C312 H291 0.930 . S
C312 C308 1.416 . S
C312 C311 1.366 . S
H313 C306 0.929 . S
H314 C337 0.931 . S
H315 C338 0.931 . S
O316 Eu272 2.462 . S
O316 C336 1.252 . S
O317 Eu272 2.373 . S
O317 C328 1.249 . S
O318 Eu283 2.335 . S
O318 C328 1.264 . S
O319 Eu272 2.432 . S
O319 C336 1.268 . S
O320 Eu272 2.291 . S
O320 C335 1.255 . S
O321 Eu283 2.372 . S
O321 C335 1.257 . S
O322 Eu283 2.462 . S
O322 C347 1.252 . S
O323 Eu283 2.373 . S
O323 C339 1.249 . S
O324 Eu272 2.335 . S
O324 C339 1.264 . S
O325 Eu283 2.432 . S
O325 C347 1.268 . S
O326 Eu283 2.291 . S
O326 C346 1.255 . S
O327 Eu272 2.372 . S
O327 C346 1.257 . S
C328 O317 1.249 . S
C328 O318 1.264 . S
C329 C332 1.382 . S
C329 C334 1.390 . S
C329 C336 1.506 . S
C330 C331 1.398 . S
C330 C334 1.392 . S
C331 C330 1.398 . S
C331 C333 1.372 . S
C331 H348 0.931 . S
C332 C329 1.382 . S
C332 C333 1.390 . S
C332 H349 0.931 . S
C333 C331 1.372 . S
C333 C332 1.390 . S
C333 H350 0.929 . S
C334 C329 1.390 . S
C334 C330 1.392 . S
C334 H351 0.930 . S
C335 O320 1.255 . S
C335 O321 1.257 . S
C336 Eu272 2.787 . S
C336 O316 1.252 . S
C336 O319 1.268 . S
C336 C329 1.506 . S
C337 C304 1.439 . S
C337 H314 0.931 . S
C337 C338 1.374 . S
C338 C309 1.387 . S
C338 H315 0.931 . S
C338 C337 1.374 . S
C339 O323 1.249 . S
C339 O324 1.264 . S
C340 C343 1.382 . S
C340 C344 1.390 . S
C340 C347 1.506 . S
C341 C342 1.398 . S
C341 C344 1.392 . S
C342 C341 1.398 . S
C342 C345 1.372 . S
C342 H352 0.931 1_556 S
C343 C340 1.382 . S
C343 C345 1.390 . S
C343 H353 0.931 . S
C344 C340 1.390 . S
C344 C341 1.392 . S
C344 H354 0.930 . S
C345 C342 1.372 . S
C345 C343 1.390 . S
C345 H355 0.929 . S
C346 O326 1.255 . S
C346 O327 1.257 . S
C347 Eu283 2.787 . S
C347 O322 1.252 . S
C347 O325 1.268 . S
C347 C340 1.506 . S
H348 C331 0.931 . S
H349 C332 0.931 . S
H350 C333 0.929 . S
H351 C334 0.930 . S
H352 C342 0.931 1_554 S
H353 C343 0.931 . S
H354 C344 0.930 . S
H355 C345 0.929 . S
Eu356 N385 2.600 . S
Eu356 N391 2.562 . S
Eu356 O400 2.462 . S
Eu356 O401 2.373 1_455 S
Eu356 O403 2.432 . S
Eu356 O404 2.291 . S
Eu356 O408 2.335 . S
Eu356 O411 2.372 . S
Eu356 C420 2.787 . S
C357 N358 1.365 . S
C357 C360 1.405 . S
C357 C364 1.448 . S
N358 C357 1.365 . S
N358 C361 1.314 1_455 S
N358 Eu367 2.600 1_455 S
C359 C361 1.384 1_455 S
C359 C362 1.367 . S
C359 H379 0.931 . S
C360 C357 1.405 . S
C360 C362 1.403 . S
C360 C366 1.439 . S
C361 N358 1.314 1_655 S
C361 C359 1.384 1_655 S
C361 H372 0.950 . S
C362 C359 1.367 . S
C362 C360 1.403 . S
C362 H383 0.929 . S
C363 C364 1.430 1_554 S
C363 C365 1.387 . S
C363 C369 1.404 . S
C364 C357 1.448 . S
C364 C363 1.430 1_556 S
C364 N368 1.351 . S
C365 C363 1.387 . S
C365 C366 1.374 1_554 S
C365 H380 0.931 . S
C366 C360 1.439 . S
C366 C365 1.374 1_556 S
C366 H381 0.931 1_556 S
Eu367 N358 2.600 1_655 S
Eu367 N368 2.562 1_655 S
Eu367 O402 2.335 . S
Eu367 O405 2.372 . S
Eu367 O406 2.462 . S
Eu367 O407 2.373 1_655 S
Eu367 O409 2.432 . S
Eu367 O410 2.291 1_655 S
Eu367 C431 2.787 . S
N368 C364 1.351 . S
N368 Eu367 2.562 1_455 S
N368 C370 1.325 . S
C369 C363 1.404 . S
C369 C371 1.366 . S
C369 H377 0.930 . S
C370 N368 1.325 . S
C370 C371 1.416 1_556 S
C370 H376 0.929 . S
C371 C369 1.366 . S
C371 C370 1.416 1_554 S
C371 H373 0.930 . S
H372 C361 0.950 . S
H373 C371 0.930 . S
H374 C389 0.930 . S
H375 C396 0.930 . S
H376 C370 0.929 . S
H377 C369 0.930 . S
H378 C392 0.929 . S
H379 C359 0.931 . S
H380 C365 0.931 . S
H381 C366 0.931 1_554 S
H382 C387 0.931 . S
H383 C362 0.929 . S
H384 C395 0.930 . S
N385 Eu356 2.600 . S
N385 C386 1.365 . S
N385 C389 1.319 . S
C386 N385 1.365 . S
C386 C388 1.405 1_455 S
C386 C394 1.450 . S
C387 H382 0.931 . S
C387 C389 1.397 . S
C387 C390 1.367 1_455 S
C388 C386 1.405 1_655 S
C388 C390 1.403 . S
C388 C421 1.439 . S
C389 H374 0.930 . S
C389 N385 1.319 . S
C389 C387 1.397 . S
C390 C387 1.367 1_655 S
C390 C388 1.403 . S
C390 H397 0.929 . S
N391 Eu356 2.562 . S
N391 C392 1.325 . S
N391 C394 1.359 . S
C392 H378 0.929 . S
C392 N391 1.325 . S
C392 C396 1.416 1_455 S
C393 C394 1.420 1_655 S
C393 C395 1.404 . S
C393 C422 1.387 . S
C394 C386 1.450 . S
C394 N391 1.359 . S
C394 C393 1.420 1_455 S
C395 H384 0.930 . S
C395 C393 1.404 . S
C395 C396 1.366 . S
C396 H375 0.930 . S
C396 C392 1.416 1_655 S
C396 C395 1.366 . S
H397 C390 0.929 . S
H398 C421 0.931 . S
H399 C422 0.931 . S
O400 Eu356 2.462 . S
O400 C420 1.252 . S
O401 Eu356 2.373 1_655 S
O401 C412 1.249 . S
O402 Eu367 2.335 . S
O402 C412 1.264 . S
O403 Eu356 2.432 . S
O403 C420 1.268 . S
O404 Eu356 2.291 . S
O404 C419 1.255 . S
O405 Eu367 2.372 . S
O405 C419 1.257 1_655 S
O406 Eu367 2.462 . S
O406 C431 1.252 . S
O407 Eu367 2.373 1_455 S
O407 C423 1.249 . S
O408 Eu356 2.335 . S
O408 C423 1.264 . S
O409 Eu367 2.432 . S
O409 C431 1.268 . S
O410 Eu367 2.291 1_455 S
O410 C430 1.255 . S
O411 Eu356 2.372 . S
O411 C430 1.257 . S
C412 O401 1.249 . S
C412 O402 1.264 . S
C413 C416 1.382 . S
C413 C418 1.390 . S
C413 C420 1.506 . S
C414 C415 1.398 . S
C414 C418 1.392 . S
C415 C414 1.398 . S
C415 C417 1.372 . S
C415 H432 0.931 . S
C416 C413 1.382 . S
C416 C417 1.390 . S
C416 H433 0.931 . S
C417 C415 1.372 . S
C417 C416 1.390 . S
C417 H434 0.929 . S
C418 C413 1.390 . S
C418 C414 1.392 . S
C418 H435 0.930 . S
C419 O404 1.255 . S
C419 O405 1.257 1_455 S
C420 Eu356 2.787 . S
C420 O400 1.252 . S
C420 O403 1.268 . S
C420 C413 1.506 . S
C421 C388 1.439 . S
C421 H398 0.931 . S
C421 C422 1.374 . S
C422 C393 1.387 . S
C422 H399 0.931 . S
C422 C421 1.374 . S
C423 O407 1.249 . S
C423 O408 1.264 . S
C424 C427 1.382 . S
C424 C428 1.390 . S
C424 C431 1.506 . S
C425 C426 1.398 . S
C425 C428 1.392 . S
C426 C425 1.398 . S
C426 C429 1.372 . S
C426 H436 0.931 . S
C427 C424 1.382 . S
C427 C429 1.390 . S
C427 H437 0.931 . S
C428 C424 1.390 . S
C428 C425 1.392 . S
C428 H438 0.930 . S
C429 C426 1.372 . S
C429 C427 1.390 . S
C429 H439 0.929 . S
C430 O410 1.255 . S
C430 O411 1.257 . S
C431 Eu367 2.787 . S
C431 O406 1.252 . S
C431 O409 1.268 . S
C431 C424 1.506 . S
H432 C415 0.931 . S
H433 C416 0.931 . S
H434 C417 0.929 . S
H435 C418 0.930 . S
H436 C426 0.931 . S
H437 C427 0.931 . S
H438 C428 0.930 . S
H439 C429 0.929 . S
H440 C448 0.950 . S
H441 C453 0.950 . S
H442 C450 0.950 . S
H443 C452 0.950 . S
H444 C454 0.950 . S
H445 C456 0.950 . S
H446 C458 0.950 . S
H447 C459 0.950 1_565 S
C448 H440 0.950 . S
C448 C449 1.386 . S
C448 C450 1.391 . S
C449 C448 1.386 . S
C449 C453 1.393 . S
C450 H442 0.950 . S
C450 C448 1.391 . S
C450 C451 1.400 . S
C451 C450 1.400 . S
C451 C452 1.398 . S
C451 C457 1.491 . S
C452 H443 0.950 . S
C452 C451 1.398 . S
C452 C453 1.391 . S
C453 H441 0.950 . S
C453 C449 1.393 . S
C453 C452 1.391 . S
C454 H444 0.950 . S
C454 C455 1.386 . S
C454 C456 1.391 . S
C455 C454 1.386 . S
C455 C459 1.393 . S
C456 H445 0.950 . S
C456 C454 1.391 . S
C456 C457 1.400 . S
C457 C451 1.491 . S
C457 C456 1.400 . S
C457 C458 1.398 . S
C458 H446 0.950 . S
C458 C457 1.398 . S
C458 C459 1.391 . S
C459 H447 0.950 1_545 S
C459 C455 1.393 . S
C459 C458 1.391 . S
H460 C468 0.950 . S
H461 C473 0.950 . S
H462 C470 0.950 . S
H463 C472 0.950 . S
H464 C474 0.950 . S
H465 C476 0.950 . S
H466 C478 0.950 . S
H467 C479 0.950 . S
C468 H460 0.950 . S
C468 C469 1.386 . S
C468 C470 1.391 . S
C469 C468 1.386 . S
C469 C473 1.393 . S
C470 H462 0.950 . S
C470 C468 1.391 . S
C470 C471 1.400 . S
C471 C470 1.400 . S
C471 C472 1.398 . S
C471 C477 1.491 . S
C472 H463 0.950 . S
C472 C471 1.398 . S
C472 C473 1.391 . S
C473 H461 0.950 . S
C473 C469 1.393 . S
C473 C472 1.391 . S
C474 H464 0.950 . S
C474 C475 1.386 . S
C474 C476 1.391 . S
C475 C474 1.386 . S
C475 C479 1.393 . S
C476 H465 0.950 . S
C476 C474 1.391 . S
C476 C477 1.400 . S
C477 C471 1.491 . S
C477 C476 1.400 . S
C477 C478 1.398 . S
C478 H466 0.950 . S
C478 C477 1.398 . S
C478 C479 1.391 . S
C479 H467 0.950 . S
C479 C475 1.393 . S
C479 C478 1.391 . S
H480 C488 0.950 . S
H481 C493 0.950 . S
H482 C490 0.950 . S
H483 C492 0.950 . S
H484 C494 0.950 . S
H485 C496 0.950 . S
H486 C498 0.950 . S
H487 C499 0.950 . S
C488 H480 0.950 . S
C488 C489 1.386 . S
C488 C490 1.391 . S
C489 C488 1.386 . S
C489 C493 1.393 . S
C490 H482 0.950 . S
C490 C488 1.391 . S
C490 C491 1.400 . S
C491 C490 1.400 . S
C491 C492 1.398 . S
C491 C497 1.491 . S
C492 H483 0.950 . S
C492 C491 1.398 . S
C492 C493 1.391 . S
C493 H481 0.950 . S
C493 C489 1.393 . S
C493 C492 1.391 . S
C494 H484 0.950 . S
C494 C495 1.386 . S
C494 C496 1.391 . S
C495 C494 1.386 . S
C495 C499 1.393 . S
C496 H485 0.950 . S
C496 C494 1.391 . S
C496 C497 1.400 . S
C497 C491 1.491 . S
C497 C496 1.400 . S
C497 C498 1.398 . S
C498 H486 0.950 . S
C498 C497 1.398 . S
C498 C499 1.391 . S
C499 H487 0.950 . S
C499 C495 1.393 . S
C499 C498 1.391 . S
H500 C508 0.950 . S
H501 C513 0.950 1_655 S
H502 C510 0.950 . S
H503 C512 0.950 1_655 S
H504 C514 0.950 . S
H505 C516 0.950 1_655 S
H506 C518 0.950 . S
H507 C519 0.950 . S
C508 H500 0.950 . S
C508 C509 1.386 . S
C508 C510 1.391 . S
C509 C508 1.386 . S
C509 C513 1.393 . S
C510 H502 0.950 . S
C510 C508 1.391 . S
C510 C511 1.400 . S
C511 C510 1.400 . S
C511 C512 1.398 . S
C511 C517 1.491 . S
C512 H503 0.950 1_455 S
C512 C511 1.398 . S
C512 C513 1.391 . S
C513 H501 0.950 1_455 S
C513 C509 1.393 . S
C513 C512 1.391 . S
C514 H504 0.950 . S
C514 C515 1.386 1_655 S
C514 C516 1.391 1_655 S
C515 C514 1.386 1_455 S
C515 C519 1.393 . S
C516 H505 0.950 1_455 S
C516 C514 1.391 1_455 S
C516 C517 1.400 . S
C517 C511 1.491 . S
C517 C516 1.400 . S
C517 C518 1.398 . S
C518 H506 0.950 . S
C518 C517 1.398 . S
C518 C519 1.391 . S
C519 H507 0.950 . S
C519 C515 1.393 . S
C519 C518 1.391 . S
H520 C528 0.950 . S
H521 C533 0.950 . S
H522 C530 0.950 . S
H523 C532 0.950 . S
H524 C534 0.950 . S
H525 C536 0.950 . S
H526 C538 0.950 1_554 S
H527 C539 0.950 . S
C528 H520 0.950 . S
C528 C529 1.386 1_545 S
C528 C530 1.391 . S
C529 C528 1.386 1_565 S
C529 C533 1.393 . S
C530 H522 0.950 . S
C530 C528 1.391 . S
C530 C531 1.400 1_545 S
C531 C530 1.400 1_565 S
C531 C532 1.398 . S
C531 C537 1.491 1_554 S
C532 H523 0.950 . S
C532 C531 1.398 . S
C532 C533 1.391 . S
C533 H521 0.950 . S
C533 C529 1.393 . S
C533 C532 1.391 . S
C534 H524 0.950 . S
C534 C535 1.371 1_565 S
C534 C536 1.391 . S
C535 C534 1.371 1_545 S
C535 C539 1.405 . S
C536 H525 0.950 . S
C536 C534 1.391 . S
C536 C537 1.400 . S
C537 C531 1.491 1_556 S
C537 C536 1.400 . S
C537 C538 1.398 1_565 S
C538 H526 0.950 1_556 S
C538 C537 1.398 1_545 S
C538 C539 1.391 . S
C539 H527 0.950 . S
C539 C535 1.405 . S
C539 C538 1.391 . S
H540 C548 0.950 . S
H541 C553 0.950 . S
H542 C550 0.950 . S
H543 C552 0.950 . S
H544 C554 0.950 . S
H545 C556 0.950 . S
H546 C558 0.950 1_554 S
H547 C559 0.950 . S
C548 H540 0.950 . S
C548 C549 1.386 . S
C548 C550 1.391 . S
C549 C548 1.386 . S
C549 C553 1.393 . S
C550 H542 0.950 . S
C550 C548 1.391 . S
C550 C551 1.400 . S
C551 C550 1.400 . S
C551 C552 1.398 . S
C551 C557 1.491 1_554 S
C552 H543 0.950 . S
C552 C551 1.398 . S
C552 C553 1.391 . S
C553 H541 0.950 . S
C553 C549 1.393 . S
C553 C552 1.391 . S
C554 H544 0.950 . S
C554 C555 1.386 . S
C554 C556 1.391 . S
C555 C554 1.386 . S
C555 C559 1.393 . S
C556 H545 0.950 . S
C556 C554 1.391 . S
C556 C557 1.400 . S
C557 C551 1.491 1_556 S
C557 C556 1.400 . S
C557 C558 1.398 . S
C558 H546 0.950 1_556 S
C558 C557 1.398 . S
C558 C559 1.391 . S
C559 H547 0.950 . S
C559 C555 1.393 . S
C559 C558 1.391 . S
H560 C568 0.950 . S
H561 C573 0.950 . S
H562 C570 0.950 . S
H563 C572 0.950 1_556 S
H564 C574 0.950 . S
H565 C576 0.950 . S
H566 C578 0.950 1_554 S
H567 C579 0.950 . S
C568 H560 0.950 . S
C568 C569 1.386 . S
C568 C570 1.391 . S
C569 C568 1.386 . S
C569 C573 1.393 . S
C570 H562 0.950 . S
C570 C568 1.391 . S
C570 C571 1.400 . S
C571 C570 1.400 . S
C571 C572 1.398 . S
C571 C577 1.491 1_554 S
C572 H563 0.950 1_554 S
C572 C571 1.398 . S
C572 C573 1.391 . S
C573 H561 0.950 . S
C573 C569 1.393 . S
C573 C572 1.391 . S
C574 H564 0.950 . S
C574 C575 1.386 . S
C574 C576 1.391 . S
C575 C574 1.386 . S
C575 C579 1.393 . S
C576 H565 0.950 . S
C576 C574 1.391 . S
C576 C577 1.400 . S
C577 C571 1.491 1_556 S
C577 C576 1.400 . S
C577 C578 1.398 . S
C578 H566 0.950 1_556 S
C578 C577 1.398 . S
C578 C579 1.391 . S
C579 H567 0.950 . S
C579 C575 1.393 . S
C579 C578 1.391 . S
H580 C588 0.950 . S
H581 C593 0.950 . S
H582 C590 0.961 . S
H583 C592 0.950 1_556 S
H584 C594 0.950 . S
H585 C596 0.950 . S
H586 C598 0.950 1_554 S
H587 C599 0.950 . S
C588 H580 0.950 . S
C588 C589 1.386 . S
C588 C590 1.391 . S
C589 C588 1.386 . S
C589 C593 1.393 . S
C590 H582 0.961 . S
C590 C588 1.391 . S
C590 C591 1.400 . S
C591 C590 1.400 . S
C591 C592 1.398 . S
C591 C597 1.491 1_554 S
C592 H583 0.950 1_554 S
C592 C591 1.398 . S
C592 C593 1.391 . S
C593 H581 0.950 . S
C593 C589 1.393 . S
C593 C592 1.391 . S
C594 H584 0.950 . S
C594 C595 1.389 . S
C594 C596 1.391 . S
C595 C594 1.389 . S
C595 C599 1.391 1_655 S
C596 H585 0.950 . S
C596 C594 1.391 . S
C596 C597 1.400 . S
C597 C591 1.491 1_556 S
C597 C596 1.400 . S
C597 C598 1.398 1_655 S
C598 H586 0.950 1_556 S
C598 C597 1.398 1_455 S
C598 C599 1.391 . S
C599 H587 0.950 . S
C599 C595 1.391 1_455 S
C599 C598 1.391 . S
H600 C608 0.950 . S
H601 C613 0.950 . S
H602 C610 0.950 . S
H603 C612 0.950 . S
H604 C614 0.950 . S
H605 C616 0.950 . S
H606 C618 0.950 . S
H607 C619 0.950 . S
C608 H600 0.950 . S
C608 C609 1.386 . S
C608 C610 1.391 . S
C609 C608 1.386 . S
C609 C613 1.393 . S
C610 H602 0.950 . S
C610 C608 1.391 . S
C610 C611 1.400 . S
C611 C610 1.400 . S
C611 C612 1.398 . S
C611 C617 1.491 . S
C612 H603 0.950 . S
C612 C611 1.398 . S
C612 C613 1.391 . S
C613 H601 0.950 . S
C613 C609 1.393 . S
C613 C612 1.391 . S
C614 H604 0.950 . S
C614 C615 1.386 . S
C614 C616 1.391 . S
C615 C614 1.386 . S
C615 C619 1.393 . S
C616 H605 0.950 . S
C616 C614 1.391 . S
C616 C617 1.400 . S
C617 C611 1.491 . S
C617 C616 1.400 . S
C617 C618 1.398 . S
C618 H606 0.950 . S
C618 C617 1.398 . S
C618 C619 1.391 . S
C619 H607 0.950 . S
C619 C615 1.393 . S
C619 C618 1.391 . S
H620 C628 0.950 . S
H621 C633 0.950 . S
H622 C630 0.950 1_565 S
H623 C632 0.950 . S
H624 C634 0.950 . S
H625 C636 0.950 . S
H626 C638 0.950 . S
H627 C639 0.950 . S
C628 H620 0.950 . S
C628 C629 1.386 . S
C628 C630 1.391 . S
C629 C628 1.386 . S
C629 C633 1.393 . S
C630 H622 0.950 1_545 S
C630 C628 1.391 . S
C630 C631 1.400 . S
C631 C630 1.400 . S
C631 C632 1.398 . S
C631 C637 1.491 . S
C632 H623 0.950 . S
C632 C631 1.398 . S
C632 C633 1.391 . S
C633 H621 0.950 . S
C633 C629 1.393 . S
C633 C632 1.391 . S
C634 H624 0.950 . S
C634 C635 1.386 . S
C634 C636 1.391 . S
C635 C634 1.386 . S
C635 C639 1.393 1_545 S
C636 H625 0.950 . S
C636 C634 1.391 . S
C636 C637 1.400 . S
C637 C631 1.491 . S
C637 C636 1.400 . S
C637 C638 1.398 1_545 S
C638 H626 0.950 . S
C638 C637 1.398 1_565 S
C638 C639 1.391 . S
C639 H627 0.950 . S
C639 C635 1.393 1_565 S
C639 C638 1.391 . S
H640 C648 0.950 . S
H641 C653 0.950 . S
H642 C650 0.950 . S
H643 C652 0.950 . S
H644 C654 0.950 . S
H645 C656 0.950 . S
H646 C658 0.950 . S
H647 C659 0.950 . S
C648 H640 0.950 . S
C648 C649 1.386 . S
C648 C650 1.391 . S
C649 C648 1.386 . S
C649 C653 1.393 . S
C650 H642 0.950 . S
C650 C648 1.391 . S
C650 C651 1.400 . S
C651 C650 1.400 . S
C651 C652 1.398 . S
C651 C657 1.491 . S
C652 H643 0.950 . S
C652 C651 1.398 . S
C652 C653 1.391 . S
C653 H641 0.950 . S
C653 C649 1.393 . S
C653 C652 1.391 . S
C654 H644 0.950 . S
C654 C655 1.386 . S
C654 C656 1.391 . S
C655 C654 1.386 . S
C655 C659 1.393 . S
C656 H645 0.950 . S
C656 C654 1.391 . S
C656 C657 1.400 . S
C657 C651 1.491 . S
C657 C656 1.400 . S
C657 C658 1.398 . S
C658 H646 0.950 . S
C658 C657 1.398 . S
C658 C659 1.391 . S
C659 H647 0.950 . S
C659 C655 1.393 . S
C659 C658 1.391 . S
H660 C668 0.950 . S
H661 C673 0.950 . S
H662 C670 0.950 . S
H663 C672 0.950 . S
H664 C674 0.950 . S
H665 C676 0.950 . S
H666 C678 0.950 . S
H667 C679 0.950 . S
C668 H660 0.950 . S
C668 C669 1.386 . S
C668 C670 1.391 . S
C669 C668 1.386 . S
C669 C673 1.393 . S
C670 H662 0.950 . S
C670 C668 1.391 . S
C670 C671 1.400 . S
C671 C670 1.400 . S
C671 C672 1.398 . S
C671 C677 1.491 . S
C672 H663 0.950 . S
C672 C671 1.398 . S
C672 C673 1.391 . S
C673 H661 0.950 . S
C673 C669 1.393 . S
C673 C672 1.391 . S
C674 H664 0.950 . S
C674 C675 1.386 . S
C674 C676 1.391 . S
C675 C674 1.386 . S
C675 C679 1.393 . S
C676 H665 0.950 . S
C676 C674 1.391 . S
C676 C677 1.400 . S
C677 C671 1.491 . S
C677 C676 1.400 . S
C677 C678 1.398 . S
C678 H666 0.950 . S
C678 C677 1.398 . S
C678 C679 1.391 . S
C679 H667 0.950 . S
C679 C675 1.393 . S
C679 C678 1.391 . S
H680 C688 0.950 . S
H681 C693 0.950 . S
H682 C690 0.950 . S
H683 C692 0.950 . S
H684 C694 0.950 . S
H685 C696 0.950 . S
H686 C698 0.950 . S
H687 C699 0.950 . S
C688 H680 0.950 . S
C688 C689 1.386 1_455 S
C688 C690 1.391 . S
C689 C688 1.386 1_655 S
C689 C693 1.393 . S
C690 H682 0.950 . S
C690 C688 1.391 . S
C690 C691 1.400 1_455 S
C691 C690 1.400 1_655 S
C691 C692 1.398 . S
C691 C697 1.491 . S
C692 H683 0.950 . S
C692 C691 1.398 . S
C692 C693 1.391 . S
C693 H681 0.950 . S
C693 C689 1.393 . S
C693 C692 1.391 . S
C694 H684 0.950 . S
C694 C695 1.386 1_655 S
C694 C696 1.391 1_556 S
C695 C694 1.386 1_455 S
C695 C699 1.393 1_556 S
C696 H685 0.950 . S
C696 C694 1.391 1_554 S
C696 C697 1.400 . S
C697 C691 1.491 . S
C697 C696 1.400 . S
C697 C698 1.398 1_655 S
C698 H686 0.950 . S
C698 C697 1.398 1_455 S
C698 C699 1.391 . S
C699 H687 0.950 . S
C699 C695 1.393 1_554 S
C699 C698 1.391 . S
H700 C708 0.950 . S
H701 C713 0.950 . S
H702 C710 0.950 1_545 S
H703 C712 0.950 . S
H704 C714 0.950 . S
H705 C716 0.950 1_556 S
H706 C718 0.950 . S
H707 C719 0.950 . S
C708 H700 0.950 . S
C708 C709 1.386 . S
C708 C710 1.391 . S
C709 C708 1.386 . S
C709 C713 1.393 . S
C710 H702 0.950 1_565 S
C710 C708 1.391 . S
C710 C711 1.400 . S
C711 C710 1.400 . S
C711 C712 1.398 . S
C711 C717 1.491 . S
C712 H703 0.950 . S
C712 C711 1.398 . S
C712 C713 1.391 . S
C713 H701 0.950 . S
C713 C709 1.393 . S
C713 C712 1.391 . S
C714 H704 0.950 . S
C714 C715 1.386 1_565 S
C714 C716 1.391 1_556 S
C715 C714 1.386 1_545 S
C715 C719 1.393 1_556 S
C716 H705 0.950 1_554 S
C716 C714 1.391 1_554 S
C716 C717 1.400 . S
C717 C711 1.491 . S
C717 C716 1.400 . S
C717 C718 1.398 1_565 S
C718 H706 0.950 . S
C718 C717 1.398 1_545 S
C718 C719 1.391 . S
C719 H707 0.950 . S
C719 C715 1.393 1_554 S
C719 C718 1.391 . S
H720 C728 0.950 . S
H721 C733 0.950 . S
H722 C730 0.950 . S
H723 C732 0.950 . S
H724 C734 0.950 . S
H725 C736 0.950 . S
H726 C738 0.950 . S
H727 C739 0.950 . S
C728 H720 0.950 . S
C728 C729 1.386 . S
C728 C730 1.391 . S
C729 C728 1.386 . S
C729 C733 1.393 . S
C730 H722 0.950 . S
C730 C728 1.391 . S
C730 C731 1.400 . S
C731 C730 1.400 . S
C731 C732 1.398 . S
C731 C737 1.491 . S
C732 H723 0.950 . S
C732 C731 1.398 . S
C732 C733 1.391 . S
C733 H721 0.950 . S
C733 C729 1.393 . S
C733 C732 1.391 . S
C734 H724 0.950 . S
C734 C735 1.386 . S
C734 C736 1.391 1_556 S
C735 C734 1.386 . S
C735 C739 1.393 1_556 S
C736 H725 0.950 . S
C736 C734 1.391 1_554 S
C736 C737 1.400 . S
C737 C731 1.491 . S
C737 C736 1.400 . S
C737 C738 1.398 . S
C738 H726 0.950 . S
C738 C737 1.398 . S
C738 C739 1.391 . S
C739 H727 0.950 . S
C739 C735 1.393 1_554 S
C739 C738 1.391 . S
H740 C748 0.950 . S
H741 C753 0.950 . S
H742 C750 0.950 . S
H743 C752 0.950 . S
H744 C754 0.950 . S
H745 C756 0.950 . S
H746 C758 0.950 . S
H747 C759 0.950 . S
C748 H740 0.950 . S
C748 C749 1.386 . S
C748 C750 1.391 . S
C749 C748 1.386 . S
C749 C753 1.393 . S
C750 H742 0.950 . S
C750 C748 1.391 . S
C750 C751 1.400 . S
C751 C750 1.400 . S
C751 C752 1.398 . S
C751 C757 1.491 . S
C752 H743 0.950 . S
C752 C751 1.398 . S
C752 C753 1.391 . S
C753 H741 0.950 . S
C753 C749 1.393 . S
C753 C752 1.391 . S
C754 H744 0.950 . S
C754 C755 1.386 1_554 S
C754 C756 1.391 . S
C755 C754 1.386 1_556 S
C755 C759 1.393 1_556 S
C756 H745 0.950 . S
C756 C754 1.391 . S
C756 C757 1.400 . S
C757 C751 1.491 . S
C757 C756 1.400 . S
C757 C758 1.398 . S
C758 H746 0.950 . S
C758 C757 1.398 . S
C758 C759 1.391 . S
C759 H747 0.950 . S
C759 C755 1.393 1_554 S
C759 C758 1.391 . S
H760 C768 0.950 . S
H761 C773 0.950 . S
H762 C770 0.950 . S
H763 C772 0.950 . S
H764 C774 0.950 . S
H765 C776 0.950 . S
H766 C778 0.950 . S
H767 C779 0.950 . S
C768 H760 0.950 . S
C768 C769 1.386 . S
C768 C770 1.391 . S
C769 C768 1.386 . S
C769 C773 1.393 . S
C770 H762 0.950 . S
C770 C768 1.391 . S
C770 C771 1.400 . S
C771 C770 1.400 . S
C771 C772 1.398 . S
C771 C777 1.491 . S
C772 H763 0.950 . S
C772 C771 1.398 . S
C772 C773 1.391 . S
C773 H761 0.950 . S
C773 C769 1.393 . S
C773 C772 1.391 . S
C774 H764 0.950 . S
C774 C775 1.386 . S
C774 C776 1.391 . S
C775 C774 1.386 . S
C775 C779 1.393 . S
C776 H765 0.950 . S
C776 C774 1.391 . S
C776 C777 1.400 . S
C777 C771 1.491 . S
C777 C776 1.400 . S
C777 C778 1.398 . S
C778 H766 0.950 . S
C778 C777 1.398 . S
C778 C779 1.391 . S
C779 H767 0.950 . S
C779 C775 1.393 . S
C779 C778 1.391 . S
H780 C788 0.950 . S
H781 C793 0.950 . S
H782 C790 0.950 . S
H783 C792 0.950 . S
H784 C794 0.950 . S
H785 C796 0.950 . S
H786 C798 0.950 . S
H787 C799 0.950 . S
C788 H780 0.950 . S
C788 C789 1.386 . S
C788 C790 1.391 . S
C789 C788 1.386 . S
C789 C793 1.393 . S
C790 H782 0.950 . S
C790 C788 1.391 . S
C790 C791 1.400 . S
C791 C790 1.400 . S
C791 C792 1.398 . S
C791 C797 1.491 . S
C792 H783 0.950 . S
C792 C791 1.398 . S
C792 C793 1.391 . S
C793 H781 0.950 . S
C793 C789 1.393 . S
C793 C792 1.391 . S
C794 H784 0.950 . S
C794 C795 1.386 . S
C794 C796 1.391 . S
C795 C794 1.386 . S
C795 C799 1.393 . S
C796 H785 0.950 . S
C796 C794 1.391 . S
C796 C797 1.400 . S
C797 C791 1.491 . S
C797 C796 1.400 . S
C797 C798 1.398 . S
C798 H786 0.950 . S
C798 C797 1.398 . S
C798 C799 1.391 . S
C799 H787 0.950 . S
C799 C795 1.393 . S
C799 C798 1.391 . S
H800 C808 0.950 . S
H801 C813 0.950 . S
H802 C810 0.950 . S
H803 C812 0.950 . S
H804 C814 0.950 . S
H805 C816 0.950 . S
H806 C818 0.950 . S
H807 C819 0.950 . S
C808 H800 0.950 . S
C808 C809 1.386 . S
C808 C810 1.391 . S
C809 C808 1.386 . S
C809 C813 1.393 . S
C810 H802 0.950 . S
C810 C808 1.391 . S
C810 C811 1.400 . S
C811 C810 1.400 . S
C811 C812 1.398 . S
C811 C817 1.491 . S
C812 H803 0.950 . S
C812 C811 1.398 . S
C812 C813 1.391 . S
C813 H801 0.950 . S
C813 C809 1.393 . S
C813 C812 1.391 . S
C814 H804 0.950 . S
C814 C815 1.386 . S
C814 C816 1.391 . S
C815 C814 1.386 . S
C815 C819 1.393 . S
C816 H805 0.950 . S
C816 C814 1.391 . S
C816 C817 1.400 . S
C817 C811 1.491 . S
C817 C816 1.400 . S
C817 C818 1.398 . S
C818 H806 0.950 . S
C818 C817 1.398 . S
C818 C819 1.391 . S
C819 H807 0.950 . S
C819 C815 1.393 . S
C819 C818 1.391 . S
H820 C828 0.950 . S
H821 C833 0.950 . S
H822 C830 0.950 . S
H823 C832 0.950 . S
H824 C834 0.950 . S
H825 C836 0.950 . S
H826 C838 0.950 . S
H827 C839 0.950 . S
C828 H820 0.950 . S
C828 C829 1.386 . S
C828 C830 1.391 . S
C829 C828 1.386 . S
C829 C833 1.393 . S
C830 H822 0.950 . S
C830 C828 1.391 . S
C830 C831 1.400 . S
C831 C830 1.400 . S
C831 C832 1.398 . S
C831 C837 1.491 . S
C832 H823 0.950 . S
C832 C831 1.398 . S
C832 C833 1.391 . S
C833 H821 0.950 . S
C833 C829 1.393 . S
C833 C832 1.391 . S
C834 H824 0.950 . S
C834 C835 1.386 . S
C834 C836 1.391 . S
C835 C834 1.386 . S
C835 C839 1.393 . S
C836 H825 0.950 . S
C836 C834 1.391 . S
C836 C837 1.400 . S
C837 C831 1.491 . S
C837 C836 1.400 . S
C837 C838 1.398 . S
C838 H826 0.950 . S
C838 C837 1.398 . S
C838 C839 1.391 . S
C839 H827 0.950 . S
C839 C835 1.393 . S
C839 C838 1.391 . S
H840 C848 0.950 . S
H841 C853 0.950 . S
H842 C850 0.950 . S
H843 C852 0.950 . S
H844 C854 0.951 1_455 S
H845 C856 0.942 1_455 S
H846 C858 0.950 . S
H847 C859 0.950 . S
C848 H840 0.950 . S
C848 C849 1.386 . S
C848 C850 1.391 . S
C849 C848 1.386 . S
C849 C853 1.393 . S
C850 H842 0.950 . S
C850 C848 1.391 . S
C850 C851 1.400 . S
C851 C850 1.400 . S
C851 C852 1.398 . S
C851 C857 1.491 . S
C852 H843 0.950 . S
C852 C851 1.398 . S
C852 C853 1.391 . S
C853 H841 0.950 . S
C853 C849 1.393 . S
C853 C852 1.391 . S
C854 H844 0.951 1_655 S
C854 C855 1.385 . S
C854 C856 1.391 . S
C855 C854 1.385 . S
C855 C859 1.393 . S
C856 H845 0.942 1_655 S
C856 C854 1.391 . S
C856 C857 1.400 . S
C857 C851 1.491 . S
C857 C856 1.400 . S
C857 C858 1.398 . S
C858 H846 0.950 . S
C858 C857 1.398 . S
C858 C859 1.391 . S
C859 H847 0.950 . S
C859 C855 1.393 . S
C859 C858 1.391 . S
H860 C868 0.950 . S
H861 C873 0.950 . S
H862 C870 0.950 . S
H863 C872 0.950 . S
H864 C874 0.950 . S
H865 C876 0.950 . S
H866 C878 0.950 . S
H867 C879 0.950 . S
C868 H860 0.950 . S
C868 C869 1.386 1_545 S
C868 C870 1.391 . S
C869 C868 1.386 1_565 S
C869 C873 1.393 . S
C870 H862 0.950 . S
C870 C868 1.391 . S
C870 C871 1.400 1_545 S
C871 C870 1.400 1_565 S
C871 C872 1.398 . S
C871 C877 1.491 . S
C872 H863 0.950 . S
C872 C871 1.398 . S
C872 C873 1.391 . S
C873 H861 0.950 . S
C873 C869 1.393 . S
C873 C872 1.391 . S
C874 H864 0.950 . S
C874 C875 1.386 . S
C874 C876 1.391 . S
C875 C874 1.386 . S
C875 C879 1.393 1_565 S
C876 H865 0.950 . S
C876 C874 1.391 . S
C876 C877 1.400 . S
C877 C871 1.491 . S
C877 C876 1.400 . S
C877 C878 1.398 1_565 S
C878 H866 0.950 . S
C878 C877 1.398 1_545 S
C878 C879 1.391 . S
C879 H867 0.950 . S
C879 C875 1.393 1_545 S
C879 C878 1.391 . S
H880 C888 0.950 . S
H881 C893 0.950 . S
H882 C890 0.950 . S
H883 C892 0.950 . S
H884 C894 0.950 . S
H885 C896 0.950 . S
H886 C898 0.950 . S
H887 C899 0.950 . S
C888 H880 0.950 . S
C888 C889 1.386 . S
C888 C890 1.391 . S
C889 C888 1.386 . S
C889 C893 1.393 . S
C890 H882 0.950 . S
C890 C888 1.391 . S
C890 C891 1.400 . S
C891 C890 1.400 . S
C891 C892 1.398 . S
C891 C897 1.491 . S
C892 H883 0.950 . S
C892 C891 1.398 . S
C892 C893 1.391 . S
C893 H881 0.950 . S
C893 C889 1.393 . S
C893 C892 1.391 . S
C894 H884 0.950 . S
C894 C895 1.386 . S
C894 C896 1.391 . S
C895 C894 1.386 . S
C895 C899 1.393 . S
C896 H885 0.950 . S
C896 C894 1.391 . S
C896 C897 1.400 . S
C897 C891 1.491 . S
C897 C896 1.400 . S
C897 C898 1.398 . S
C898 H886 0.950 . S
C898 C897 1.398 . S
C898 C899 1.391 . S
C899 H887 0.950 . S
C899 C895 1.393 . S
C899 C898 1.391 . S
H900 C908 0.950 . S
H901 C913 0.950 . S
H902 C910 0.950 . S
H903 C912 0.950 . S
H904 C914 0.950 . S
H905 C916 0.950 . S
H906 C918 0.950 . S
H907 C919 0.950 . S
C908 H900 0.950 . S
C908 C909 1.386 . S
C908 C910 1.391 . S
C909 C908 1.386 . S
C909 C913 1.393 . S
C910 H902 0.950 . S
C910 C908 1.391 . S
C910 C911 1.400 . S
C911 C910 1.400 . S
C911 C912 1.398 . S
C911 C917 1.491 . S
C912 H903 0.950 . S
C912 C911 1.398 . S
C912 C913 1.391 . S
C913 H901 0.950 . S
C913 C909 1.393 . S
C913 C912 1.391 . S
C914 H904 0.950 . S
C914 C915 1.386 . S
C914 C916 1.391 . S
C915 C914 1.386 . S
C915 C919 1.393 . S
C916 H905 0.950 . S
C916 C914 1.391 . S
C916 C917 1.400 . S
C917 C911 1.491 . S
C917 C916 1.400 . S
C917 C918 1.398 . S
C918 H906 0.950 . S
C918 C917 1.398 . S
C918 C919 1.391 . S
C919 H907 0.950 . S
C919 C915 1.393 . S
C919 C918 1.391 . S
C449 C82 1.745 . S
C455 C167 1.998 . S
C475 C244 2.020 . S
C469 C95 1.757 . S
C495 C335 1.996 . S
C489 C56 1.733 . S
C515 C419 1.995 . S
C509 C69 1.764 . S
C535 C178 2.008 . S
C529 C30 1.739 . S
C549 C43 1.703 . S
C555 C255 2.013 . S
C569 C4 1.720 . S
C575 C346 1.994 . S
C589 C17 1.719 . S
C595 C430 1.984 1_655 S
C615 C162 0.650 1_455 S
C609 C74 0.576 . S
C635 C257 0.644 . S
C629 C87 0.556 . S
C655 C330 0.581 . S
C649 C100 0.600 . S
C669 C61 0.556 . S
C675 C414 0.634 . S
C689 C22 0.606 . S
C695 C173 0.644 . S
C715 C246 0.594 1_556 S
C709 C35 0.572 . S
C735 C341 0.636 . S
C729 C48 0.568 . S
C749 C9 0.602 . S
C755 C425 0.611 . S
C769 C73 1.926 . S
C775 C171 2.103 . S
C789 C86 1.917 . S
C795 C262 2.119 . S
C815 C339 2.110 . S
C809 C99 1.917 . S
C835 C423 2.121 . S
C829 C60 1.943 . S
C849 C21 1.924 . S
C855 C160 2.103 . S
C875 C251 2.118 1_565 S
C869 C34 1.906 . S
C895 C328 2.110 . S
C889 C47 1.913 . S
C909 C8 1.947 . S
C915 C412 2.124 . S
