# Generated by pormake.
# Topology csq, (4,8)-cn, num edge types: 1
# Building blocks:
#     Node 0, Type 0, BuildingBlock: MUDLON_clean_linker_0, # of connection points: 4
#     Node 1, Type 0, BuildingBlock: MUDLON_clean_linker_0, # of connection points: 4
#     Node 2, Type 0, BuildingBlock: MUDLON_clean_linker_0, # of connection points: 4
#     Node 3, Type 0, BuildingBlock: MUDLON_clean_linker_0, # of connection points: 4
#     Node 4, Type 0, BuildingBlock: MUDLON_clean_linker_0, # of connection points: 4
#     Node 5, Type 0, BuildingBlock: MUDLON_clean_linker_0, # of connection points: 4
#     Node 6, Type 1, BuildingBlock: TAGTUT_clean_sbu_3, # of connection points: 8
#     Node 7, Type 1, BuildingBlock: TAGTUT_clean_sbu_3, # of connection points: 8
#     Node 8, Type 1, BuildingBlock: TAGTUT_clean_sbu_3, # of connection points: 8
#     Edge 9, Type (0, 1), BuildingBlock: XUDNAN_clean_linker_2, # of connection points: 2
#     Edge 10, Type (0, 1), BuildingBlock: XUDNAN_clean_linker_2, # of connection points: 2
#     Edge 11, Type (0, 1), BuildingBlock: XUDNAN_clean_linker_2, # of connection points: 2
#     Edge 12, Type (0, 1), BuildingBlock: XUDNAN_clean_linker_2, # of connection points: 2
#     Edge 13, Type (0, 1), BuildingBlock: XUDNAN_clean_linker_2, # of connection points: 2
#     Edge 14, Type (0, 1), BuildingBlock: XUDNAN_clean_linker_2, # of connection points: 2
#     Edge 15, Type (0, 1), BuildingBlock: XUDNAN_clean_linker_2, # of connection points: 2
#     Edge 16, Type (0, 1), BuildingBlock: XUDNAN_clean_linker_2, # of connection points: 2
#     Edge 17, Type (0, 1), BuildingBlock: XUDNAN_clean_linker_2, # of connection points: 2
#     Edge 18, Type (0, 1), BuildingBlock: XUDNAN_clean_linker_2, # of connection points: 2
#     Edge 19, Type (0, 1), BuildingBlock: XUDNAN_clean_linker_2, # of connection points: 2
#     Edge 20, Type (0, 1), BuildingBlock: XUDNAN_clean_linker_2, # of connection points: 2
#     Edge 21, Type (0, 1), BuildingBlock: XUDNAN_clean_linker_2, # of connection points: 2
#     Edge 22, Type (0, 1), BuildingBlock: XUDNAN_clean_linker_2, # of connection points: 2
#     Edge 23, Type (0, 1), BuildingBlock: XUDNAN_clean_linker_2, # of connection points: 2
#     Edge 24, Type (0, 1), BuildingBlock: XUDNAN_clean_linker_2, # of connection points: 2
#     Edge 25, Type (0, 1), BuildingBlock: XUDNAN_clean_linker_2, # of connection points: 2
#     Edge 26, Type (0, 1), BuildingBlock: XUDNAN_clean_linker_2, # of connection points: 2
#     Edge 27, Type (0, 1), BuildingBlock: XUDNAN_clean_linker_2, # of connection points: 2
#     Edge 28, Type (0, 1), BuildingBlock: XUDNAN_clean_linker_2, # of connection points: 2
#     Edge 29, Type (0, 1), BuildingBlock: XUDNAN_clean_linker_2, # of connection points: 2
#     Edge 30, Type (0, 1), BuildingBlock: XUDNAN_clean_linker_2, # of connection points: 2
#     Edge 31, Type (0, 1), BuildingBlock: XUDNAN_clean_linker_2, # of connection points: 2
#     Edge 32, Type (0, 1), BuildingBlock: XUDNAN_clean_linker_2, # of connection points: 2
# Relax obj value: 0.039
# Max RMSD: 0.119
# Mean RMSD: 0.079
data_MOF--net-csq--node1-TAGTUT_clean_sbu_3--node2-MUDLON_clean_linker_0--edge1-XUDNAN_clean_linker_2
_symmetry_space_group_name_H-M    P1
_symmetry_Int_Tables_number       1
_symmetry_cell_setting            triclinic
loop_
_symmetry_equiv_pos_as_xyz
'x, y, z'
_cell_length_a     70.826375
_cell_length_b     69.978911
_cell_length_c     23.128502
_cell_angle_alpha  92.615762
_cell_angle_beta   92.668773
_cell_angle_gamma 119.92959
loop_
_atom_site_label
_atom_site_type_symbol
_atom_site_fract_x
_atom_site_fract_y
_atom_site_fract_z
_atom_type_partial_charge
H0 H 0.31562 0.4886 0.19101 0.0
N1 N 0.29846 0.45212 0.11307 0.0
H2 H 0.34451 0.49852 0.26747 0.0
H3 H 0.31217 0.42599 0.15333 0.0
H4 H 0.34145 0.43595 0.22905 0.0
H5 H 0.30111 0.42766 0.02691 0.0
H6 H 0.33053 0.43981 0.96222 0.0
H7 H 0.32532 0.49533 0.09061 0.0
H8 H 0.35434 0.50773 0.02496 0.0
H9 H 0.2917 0.48766 0.11575 0.0
H10 H 0.25978 0.41679 0.11869 0.0
H11 H 0.25732 0.48644 0.13098 0.0
H12 H 0.22501 0.41521 0.1311 0.0
H13 H 0.17192 0.48381 0.17716 0.0
H14 H 0.15806 0.50215 0.24107 0.0
H15 H 0.10704 0.43825 0.28433 0.0
H16 H 0.12099 0.42019 0.22067 0.0
H17 H 0.15132 0.46894 0.08289 0.0
H18 H 0.12882 0.46055 0.99222 0.0
H19 H 0.10625 0.39107 0.00066 0.0
H20 H 0.12892 0.39951 0.09284 0.0
H21 H 0.18604 0.47106 0.09499 0.0
H22 H 0.22201 0.47532 0.08576 0.0
H23 H 0.20703 0.42395 0.20265 0.0
N24 N 0.15295 0.4389 0.15158 0.0
H25 H 0.17055 0.41905 0.20912 0.0
C26 C 0.31172 0.45646 0.16636 0.0
C27 C 0.32066 0.47673 0.20001 0.0
C28 C 0.33739 0.48251 0.24341 0.0
C29 C 0.34548 0.46817 0.25373 0.0
C30 C 0.33548 0.44731 0.22258 0.0
C31 C 0.31875 0.44155 0.17936 0.0
C32 C 0.3109 0.46043 0.06356 0.0
C33 C 0.31213 0.44522 0.02481 0.0
C34 C 0.32905 0.45224 0.988 0.0
C35 C 0.34506 0.47476 0.98921 0.0
C36 C 0.34252 0.49023 0.02387 0.0
C37 C 0.32562 0.48315 0.06087 0.0
C38 C 0.27831 0.45222 0.11652 0.0
C39 C 0.2773 0.4718 0.11914 0.0
C40 C 0.25752 0.47106 0.12758 0.0
C41 C 0.23841 0.45075 0.13304 0.0
C42 C 0.23947 0.4312 0.12866 0.0
C43 C 0.25924 0.432 0.12081 0.0
C44 C 0.14745 0.45053 0.19442 0.0
C45 C 0.15797 0.47379 0.20109 0.0
C46 C 0.14995 0.48426 0.23729 0.0
C47 C 0.13148 0.47167 0.26779 0.0
C48 C 0.12151 0.44848 0.26221 0.0
C49 C 0.12942 0.43809 0.22591 0.0
C50 C 0.14158 0.43474 0.09509 0.0
C51 C 0.14185 0.45193 0.06531 0.0
C52 C 0.12908 0.44716 0.01332 0.0
C53 C 0.11601 0.42523 0.98997 0.0
C54 C 0.11644 0.4081 0.01797 0.0
C55 C 0.1292 0.41289 0.0704 0.0
C56 C 0.17543 0.44438 0.15212 0.0
C57 C 0.19048 0.46079 0.11893 0.0
C58 C 0.21119 0.46332 0.11396 0.0
C59 C 0.21731 0.44971 0.14262 0.0
C60 C 0.20265 0.43429 0.17864 0.0
C61 C 0.18191 0.43162 0.18301 0.0
H62 H 0.70625 0.1166 0.1338 0.0
N63 N 0.71759 0.15594 0.09788 0.0
H64 H 0.68318 0.09907 0.21282 0.0
H65 H 0.70763 0.17753 0.18217 0.0
H66 H 0.68485 0.16017 0.26207 0.0
H67 H 0.68565 0.16694 0.08362 0.0
H68 H 0.65361 0.14838 0.01452 0.0
H69 H 0.71128 0.12796 0.00848 0.0
H70 H 0.6787 0.10824 0.94151 0.0
H71 H 0.75822 0.16417 0.11291 0.0
H72 H 0.72049 0.19632 0.08545 0.0
H73 H 0.79195 0.19963 0.11147 0.0
H74 H 0.75398 0.2316 0.08134 0.0
H75 H 0.86896 0.28764 0.18404 0.0
H76 H 0.88502 0.30971 0.2763 0.0
H77 H 0.88227 0.36425 0.20328 0.0
H78 H 0.86436 0.34165 0.11525 0.0
H79 H 0.83086 0.31346 0.03604 0.0
H80 H 0.84039 0.33872 0.95862 0.0
H81 H 0.90084 0.33827 0.94625 0.0
H82 H 0.89118 0.31305 0.02363 0.0
H83 H 0.84676 0.25972 0.04126 0.0
H84 H 0.81218 0.22512 0.04335 0.0
H85 H 0.7858 0.2602 0.13733 0.0
N86 N 0.85713 0.29947 0.0869 0.0
H87 H 0.82026 0.29489 0.13268 0.0
C88 C 0.70872 0.1483 0.15232 0.0
C89 C 0.70213 0.12636 0.1627 0.0
C90 C 0.6888 0.11634 0.20723 0.0
C91 C 0.68209 0.12825 0.24276 0.0
C92 C 0.68987 0.1507 0.23508 0.0
C93 C 0.70297 0.16065 0.18975 0.0
C94 C 0.70112 0.14907 0.05041 0.0
C95 C 0.68476 0.15489 0.05099 0.0
C96 C 0.66615 0.14388 0.01215 0.0
C97 C 0.66335 0.12659 0.97275 0.0
C98 C 0.68033 0.12168 0.97043 0.0
C99 C 0.69904 0.13292 0.00866 0.0
C100 C 0.73686 0.17744 0.09861 0.0
C101 C 0.75725 0.1789 0.10632 0.0
C102 C 0.77647 0.19914 0.10495 0.0
C103 C 0.7757 0.21846 0.09539 0.0
C104 C 0.75519 0.21709 0.08905 0.0
C105 C 0.73593 0.19679 0.09092 0.0
C106 C 0.86559 0.31278 0.14182 0.0
C107 C 0.87151 0.30426 0.1886 0.0
C108 C 0.88094 0.31706 0.24122 0.0
C109 C 0.8853 0.33904 0.24787 0.0
C110 C 0.87888 0.34735 0.2012 0.0
C111 C 0.86881 0.33432 0.14949 0.0
C112 C 0.86042 0.31139 0.03556 0.0
C113 C 0.84587 0.31832 0.0156 0.0
C114 C 0.85141 0.3329 0.97172 0.0
C115 C 0.87137 0.3405 0.94652 0.0
C116 C 0.88523 0.33251 0.96431 0.0
C117 C 0.8798 0.31817 0.00855 0.0
C118 C 0.83612 0.27971 0.08717 0.0
C119 C 0.83341 0.25988 0.0619 0.0
C120 C 0.81371 0.24013 0.06367 0.0
C121 C 0.79627 0.23979 0.0913 0.0
C122 C 0.79882 0.25986 0.11544 0.0
C123 C 0.81855 0.27969 0.11316 0.0
H124 H 0.59422 0.8881 0.00388 0.0
N125 N 0.56828 0.85279 0.05854 0.0
H126 H 0.58436 0.90205 0.91912 0.0
H127 H 0.52924 0.83138 0.99172 0.0
H128 H 0.51904 0.84556 0.90799 0.0
H129 H 0.52651 0.82926 0.09149 0.0
H130 H 0.51185 0.83863 0.17423 0.0
H131 H 0.5887 0.88864 0.13242 0.0
H132 H 0.57389 0.899 0.21356 0.0
H133 H 0.5762 0.83184 0.96874 0.0
H134 H 0.56051 0.82563 0.1483 0.0
H135 H 0.5777 0.79777 0.96941 0.0
H136 H 0.56101 0.79139 0.14693 0.0
H137 H 0.60717 0.70416 0.02724 0.0
H138 H 0.6039 0.68426 0.93371 0.0
H139 H 0.54503 0.68547 0.88357 0.0
H140 H 0.54833 0.70519 0.97669 0.0
H141 H 0.53978 0.67631 0.05155 0.0
H142 H 0.52435 0.64862 0.12012 0.0
H143 H 0.57602 0.69221 0.25021 0.0
H144 H 0.59267 0.71918 0.17836 0.0
H145 H 0.60898 0.75603 0.04322 0.0
H146 H 0.60467 0.78858 0.03663 0.0
H147 H 0.53839 0.75058 0.08418 0.0
N148 N 0.5792 0.71564 0.06681 0.0
H149 H 0.54239 0.71786 0.08851 0.0
C150 C 0.56248 0.85891 0.00452 0.0
C151 C 0.57792 0.87854 0.98238 0.0
C152 C 0.57227 0.88643 0.93398 0.0
C153 C 0.55089 0.87494 0.90719 0.0
C154 C 0.53557 0.85485 0.92819 0.0
C155 C 0.54135 0.84678 0.97611 0.0
C156 C 0.55884 0.85823 0.10615 0.0
C157 C 0.53691 0.84454 0.11781 0.0
C158 C 0.52854 0.84997 0.1653 0.0
C159 C 0.54167 0.86955 0.20116 0.0
C160 C 0.56342 0.88348 0.18819 0.0
C161 C 0.5719 0.87777 0.14142 0.0
C162 C 0.56667 0.83113 0.05701 0.0
C163 C 0.57219 0.82295 0.00754 0.0
C164 C 0.57327 0.80353 0.00794 0.0
C165 C 0.56896 0.7918 0.05781 0.0
C166 C 0.56376 0.79985 0.1074 0.0
C167 C 0.5632 0.81949 0.10761 0.0
C168 C 0.578 0.70601 0.00919 0.0
C169 C 0.59381 0.70045 0.99555 0.0
C170 C 0.59201 0.68928 0.94207 0.0
C171 C 0.5742 0.68336 0.90154 0.0
C172 C 0.55888 0.68981 0.91416 0.0
C173 C 0.56078 0.70111 0.96735 0.0
C174 C 0.56798 0.69979 0.10899 0.0
C175 C 0.54806 0.68 0.09444 0.0
C176 C 0.5389 0.66411 0.13462 0.0
C177 C 0.5489 0.6678 0.19129 0.0
C178 C 0.56808 0.68826 0.20673 0.0
C179 C 0.57757 0.7039 0.16588 0.0
C180 C 0.57625 0.73463 0.0673 0.0
C181 C 0.59356 0.75477 0.05239 0.0
C182 C 0.59103 0.77322 0.04814 0.0
C183 C 0.57119 0.77195 0.05973 0.0
C184 C 0.55385 0.75189 0.07519 0.0
C185 C 0.55621 0.73326 0.07812 0.0
H186 H 0.91661 0.61953 0.07496 0.0
N187 N 0.87657 0.59786 0.02184 0.0
H188 H 0.93009 0.60911 0.16049 0.0
H189 H 0.85129 0.56628 0.09347 0.0
H190 H 0.86461 0.55578 0.17859 0.0
H191 H 0.85679 0.55279 -0.00134 0.0
H192 H 0.87272 0.53398 0.9457 0.0
H193 H 0.90691 0.61554 0.94734 0.0
H194 H 0.92317 0.59665 0.89539 0.0
H195 H 0.86941 0.62702 0.07868 0.0
H196 H 0.8369 0.56865 0.95872 0.0
H197 H 0.83476 0.62582 0.08839 0.0
H198 H 0.80258 0.56782 0.96703 0.0
H199 H 0.71514 0.61128 0.12204 0.0
H200 H 0.69507 0.60113 0.20877 0.0
H201 H 0.71839 0.55582 0.24148 0.0
H202 H 0.73755 0.56531 0.1537 0.0
H203 H 0.70494 0.54634 0.06775 0.0
H204 H 0.67265 0.52524 2e-05 0.0
H205 H 0.68904 0.58454 0.91399 0.0
H206 H 0.72167 0.60539 0.9811 0.0
H207 H 0.77189 0.62743 0.06357 0.0
H208 H 0.80678 0.63032 0.04321 0.0
H209 H 0.77624 0.55906 0.03644 0.0
N210 N 0.73386 0.59102 0.07156 0.0
H211 H 0.74149 0.55638 0.05414 0.0
C212 C 0.88303 0.59382 0.07798 0.0
C213 C 0.90515 0.60594 0.09831 0.0
C214 C 0.91282 0.59982 0.14658 0.0
C215 C 0.89841 0.58151 0.17564 0.0
C216 C 0.87605 0.57004 0.15714 0.0
C217 C 0.86841 0.57606 0.10857 0.0
C218 C 0.88054 0.58573 0.97644 0.0
C219 C 0.87058 0.56245 0.97383 0.0
C220 C 0.87977 0.55168 0.94402 0.0
C221 C 0.89913 0.564 0.91716 0.0
C222 C 0.90814 0.58691 0.91585 0.0
C223 C 0.89876 0.59765 0.94489 0.0
C224 C 0.85602 0.59773 0.01939 0.0
C225 C 0.85489 0.61413 0.05381 0.0
C226 C 0.83505 0.61348 0.05907 0.0
C227 C 0.81577 0.59654 0.02905 0.0
C228 C 0.81701 0.58075 0.99205 0.0
C229 C 0.83687 0.58127 0.98724 0.0
C230 C 0.72764 0.58898 0.13052 0.0
C231 C 0.71646 0.59968 0.14899 0.0
C232 C 0.70505 0.59388 0.19881 0.0
C233 C 0.70478 0.57733 0.2316 0.0
C234 C 0.71784 0.56825 0.21638 0.0
C235 C 0.72902 0.57385 0.16609 0.0
C236 C 0.71584 0.57754 0.02915 0.0
C237 C 0.70186 0.55473 0.03365 0.0
C238 C 0.68324 0.5427 0.99524 0.0
C239 C 0.67824 0.55318 0.95166 0.0
C240 C 0.69258 0.57584 0.94645 0.0
C241 C 0.71118 0.58783 0.98478 0.0
C242 C 0.75414 0.59183 0.06093 0.0
C243 C 0.77282 0.61249 0.05761 0.0
C244 C 0.79272 0.61407 0.04617 0.0
C245 C 0.79437 0.59491 0.03826 0.0
C246 C 0.77554 0.57415 0.0413 0.0
C247 C 0.75561 0.5726 0.05212 0.0
H248 H 0.11202 0.71408 0.19377 0.0
N249 N 0.14511 0.72289 0.12978 0.0
H250 H 0.10404 0.69582 0.28491 0.0
H251 H 0.17073 0.71006 0.18967 0.0
H252 H 0.16221 0.69076 0.27929 0.0
H253 H 0.11932 0.72219 0.04137 0.0
H254 H 0.10445 0.69613 0.9543 0.0
H255 H 0.15387 0.68967 0.10103 0.0
H256 H 0.13901 0.66372 0.01527 0.0
H257 H 0.1834 0.7291 0.08854 0.0
H258 H 0.15283 0.76262 0.16752 0.0
H259 H 0.21634 0.76447 0.08049 0.0
H260 H 0.18627 0.79808 0.16363 0.0
H261 H 0.31445 0.86224 0.08504 0.0
H262 H 0.34799 0.8768 0.14789 0.0
H263 H 0.32212 0.90418 0.27156 0.0
H264 H 0.28897 0.89046 0.20664 0.0
H265 H 0.28922 0.90833 0.0656 0.0
H266 H 0.3038 0.92313 0.97378 0.0
H267 H 0.297 0.86028 0.9157 0.0
H268 H 0.28272 0.84574 0.00789 0.0
H269 H 0.27936 0.83027 0.11864 0.0
H270 H 0.2471 0.79465 0.12876 0.0
H271 H 0.20627 0.82357 0.0986 0.0
N272 N 0.28022 0.86945 0.10181 0.0
H273 H 0.23887 0.85952 0.09269 0.0
C274 C 0.14167 0.71306 0.18452 0.0
C275 C 0.12316 0.70926 0.21264 0.0
C276 C 0.11869 0.69895 0.26456 0.0
C277 C 0.13254 0.69193 0.28872 0.0
C278 C 0.15131 0.69601 0.26118 0.0
C279 C 0.15606 0.70686 0.20991 0.0
C280 C 0.13737 0.70774 0.07834 0.0
C281 C 0.12372 0.7095 0.03563 0.0
C282 C 0.11538 0.69473 0.98592 0.0
C283 C 0.12047 0.67782 0.97834 0.0
C284 C 0.13457 0.6764 0.02044 0.0
C285 C 0.14305 0.69126 0.06976 0.0
C286 C 0.16542 0.74329 0.12756 0.0
C287 C 0.1838 0.74407 0.10454 0.0
C288 C 0.20281 0.7644 0.10058 0.0
C289 C 0.20402 0.78431 0.12079 0.0
C290 C 0.18583 0.78325 0.14597 0.0
C291 C 0.16674 0.76299 0.14884 0.0
C292 C 0.29927 0.87564 0.14075 0.0
C293 C 0.31594 0.8714 0.12555 0.0
C294 C 0.33512 0.87958 0.16193 0.0
C295 C 0.33795 0.89196 0.2145 0.0
C296 C 0.32078 0.89522 0.23071 0.0
C297 C 0.30172 0.88722 0.19405 0.0
C298 C 0.28507 0.8761 0.04376 0.0
C299 C 0.29039 0.89763 0.03237 0.0
C300 C 0.29857 0.90599 0.97979 0.0
C301 C 0.30165 0.89289 0.93766 0.0
C302 C 0.29498 0.8708 0.94762 0.0
C303 C 0.28675 0.86245 0.00021 0.0
C304 C 0.26155 0.84779 0.10607 0.0
C305 C 0.26353 0.82908 0.11494 0.0
C306 C 0.24494 0.80853 0.12005 0.0
C307 C 0.22394 0.80612 0.11506 0.0
C308 C 0.2221 0.82479 0.10441 0.0
C309 C 0.2407 0.84536 0.10043 0.0
H310 H 0.49646 0.35331 0.10893 0.0
N311 N 0.50091 0.31721 0.12437 0.0
H312 H 0.4932 0.36784 0.01896 0.0
H313 H 0.49879 0.29998 0.01293 0.0
H314 H 0.49527 0.31486 0.92236 0.0
H315 H 0.45849 0.3024 0.14832 0.0
H316 H 0.44622 0.31506 0.23063 0.0
H317 H 0.52557 0.34628 0.21202 0.0
H318 H 0.51365 0.36043 0.29217 0.0
H319 H 0.5273 0.30452 0.17143 0.0
H320 H 0.46361 0.27908 0.0822 0.0
H321 H 0.51889 0.26691 0.18745 0.0
H322 H 0.45526 0.24134 0.09599 0.0
H323 H 0.49917 0.15562 0.18339 0.0
H324 H 0.50987 0.13961 0.1047 0.0
H325 H 0.45476 0.13066 0.99453 0.0
H326 H 0.44347 0.14604 0.07443 0.0
H327 H 0.43238 0.12721 0.22879 0.0
H328 H 0.43622 0.11208 0.31926 0.0
H329 H 0.50241 0.16647 0.35161 0.0
H330 H 0.49838 0.18167 0.26179 0.0
H331 H 0.5039 0.19556 0.16141 0.0
H332 H 0.51319 0.23316 0.14315 0.0
H333 H 0.44702 0.21696 0.171 0.0
N334 N 0.46329 0.16146 0.18024 0.0
H335 H 0.43767 0.17898 0.18649 0.0
C336 C 0.49653 0.32442 0.0695 0.0
C337 C 0.49557 0.34411 0.06903 0.0
C338 C 0.49403 0.35278 0.01714 0.0
C339 C 0.49384 0.34242 0.96364 0.0
C340 C 0.49497 0.32295 0.96309 0.0
C341 C 0.49677 0.31432 0.01532 0.0
C342 C 0.49303 0.32333 0.17441 0.0
C343 C 0.47059 0.31456 0.18051 0.0
C344 C 0.4636 0.32208 0.22736 0.0
C345 C 0.47887 0.33889 0.26831 0.0
C346 C 0.50131 0.34715 0.26259 0.0
C347 C 0.50824 0.3393 0.21641 0.0
C348 C 0.49625 0.29464 0.12537 0.0
C349 C 0.51168 0.29073 0.15416 0.0
C350 C 0.50682 0.2692 0.16319 0.0
C351 C 0.48633 0.25102 0.14328 0.0
C352 C 0.47103 0.25494 0.11298 0.0
C353 C 0.47585 0.27652 0.10454 0.0
C354 C 0.4701 0.15169 0.1353 0.0
C355 C 0.48905 0.14993 0.14297 0.0
C356 C 0.49529 0.14085 0.09782 0.0
C357 C 0.48314 0.13397 0.04381 0.0
C358 C 0.46444 0.13598 0.03584 0.0
C359 C 0.45794 0.14462 0.08133 0.0
C360 C 0.46506 0.15537 0.23817 0.0
C361 C 0.44748 0.13616 0.25631 0.0
C362 C 0.44967 0.12763 0.30802 0.0
C363 C 0.46964 0.13809 0.3422 0.0
C364 C 0.48686 0.15808 0.32587 0.0
C365 C 0.48454 0.16679 0.27456 0.0
C366 C 0.46995 0.18438 0.17489 0.0
C367 C 0.4914 0.20009 0.16371 0.0
C368 C 0.49672 0.22168 0.15352 0.0
C369 C 0.48081 0.22812 0.15503 0.0
C370 C 0.45957 0.2125 0.16808 0.0
C371 C 0.45423 0.19086 0.17769 0.0
C372 C 0.03663 0.49335 0.52081 0.0
C373 C 0.02893 0.45504 0.72242 0.0
C374 C 0.96891 0.45553 0.71773 0.0
Mg375 Mg 0.01189 0.52082 0.47827 0.0
Mg376 Mg 0.00289 0.55027 0.5771 0.0
O377 O 0.99922 0.5228 0.55253 0.0
Mg378 Mg 0.0101 0.50798 0.6045 0.0
O379 O 0.02038 0.49117 0.65206 0.0
Mg380 Mg 0.00158 0.46086 0.60994 0.0
Mg381 Mg 0.01617 0.49184 0.73118 0.0
C382 C 0.98351 0.52411 0.68751 0.0
O383 O 0.0362 0.54015 0.6585 0.0
O384 O 0.98937 0.53293 0.43471 0.0
O385 O 0.03441 0.52754 0.74741 0.0
O386 O 0.04029 0.55712 0.49181 0.0
O387 O 0.98224 0.55034 0.50773 0.0
O388 O 0.03576 0.57546 0.56607 0.0
O389 O 0.98467 0.47542 0.55721 0.0
O390 O 0.98387 0.4847 0.46661 0.0
C391 C 0.97723 0.47025 0.50403 0.0
C392 C 0.97952 0.54284 0.45467 0.0
O393 O 0.98731 0.50859 0.67177 0.0
O394 O 0.02054 0.44928 0.66968 0.0
O395 O 0.9898 0.54172 0.66076 0.0
O396 O 0.97424 0.44825 0.67339 0.0
O397 O 0.02893 0.47074 0.7533 0.0
O398 O 0.982 0.47434 0.74409 0.0
O399 O 0.03211 0.50862 0.53392 0.0
O400 O 0.02808 0.47517 0.54591 0.0
C401 C 0.04699 0.57468 0.52544 0.0
C402 C 0.04143 0.54342 0.71371 0.0
C403 C 0.4983 0.03441 0.53352 0.0
C404 C 0.56344 0.02692 0.46774 0.0
C405 C 0.52104 0.95675 0.49448 0.0
Mg406 Mg 0.4627 0.00691 0.62486 0.0
Mg407 Mg 0.47488 0.98466 0.7326 0.0
O408 O 0.47294 0.98635 0.6521 0.0
Mg409 Mg 0.49948 0.99646 0.60777 0.0
O410 O 0.52458 0.00689 0.55858 0.0
Mg411 Mg 0.50898 0.99748 0.47907 0.0
Mg412 Mg 0.54603 0.99918 0.57382 0.0
C413 C 0.50001 0.95962 0.69228 0.0
O414 O 0.52484 0.0168 0.68493 0.0
O415 O 0.4311 0.98576 0.67261 0.0
O416 O 0.55257 0.01086 0.66496 0.0
O417 O 0.47844 0.0311 0.70562 0.0
O418 O 0.44048 0.96938 0.74091 0.0
O419 O 0.49019 0.01764 0.77507 0.0
O420 O 0.47684 0.97754 0.52579 0.0
O421 O 0.44929 0.98359 0.5426 0.0
C422 C 0.4581 0.97524 0.51066 0.0
C423 C 0.42626 0.97255 0.71346 0.0
O424 O 0.5029 0.96736 0.64181 0.0
O425 O 0.54378 0.01934 0.44514 0.0
O426 O 0.49123 0.96531 0.73198 0.0
O427 O 0.51212 0.96654 0.46991 0.0
O428 O 0.56771 0.02131 0.51635 0.0
O429 O 0.53448 0.96564 0.5393 0.0
O430 O 0.49494 0.02503 0.58117 0.0
O431 O 0.5049 0.02776 0.49065 0.0
C432 C 0.48821 0.03332 0.75535 0.0
C433 C 0.54372 0.01893 0.69805 0.0
C434 C 0.52934 0.54801 0.67201 0.0
C435 C 0.46273 0.4829 0.76498 0.0
C436 C 0.48999 0.44371 0.69732 0.0
Mg437 Mg 0.5545 0.54557 0.55855 0.0
Mg438 Mg 0.52613 0.50742 0.45223 0.0
O439 O 0.53558 0.51335 0.53123 0.0
Mg440 Mg 0.51334 0.50323 0.58973 0.0
O441 O 0.49255 0.49451 0.65176 0.0
Mg442 Mg 0.51293 0.49949 0.72117 0.0
Mg443 Mg 0.46742 0.4663 0.64187 0.0
C444 C 0.49588 0.45998 0.49819 0.0
O445 O 0.48567 0.50094 0.52851 0.0
O446 O 0.57883 0.54604 0.49316 0.0
O447 O 0.45631 0.47049 0.55662 0.0
O448 O 0.53977 0.55789 0.48825 0.0
O449 O 0.55832 0.51775 0.42567 0.0
O450 O 0.51618 0.53038 0.42474 0.0
O451 O 0.53869 0.50422 0.65632 0.0
O452 O 0.5686 0.53326 0.62865 0.0
C453 C 0.55935 0.51761 0.66221 0.0
C454 C 0.57684 0.53359 0.44782 0.0
O455 O 0.50044 0.46735 0.55197 0.0
O456 O 0.48367 0.4937 0.77536 0.0
O457 O 0.50232 0.47253 0.45596 0.0
O458 O 0.50278 0.46278 0.72325 0.0
O459 O 0.45331 0.47133 0.71697 0.0
O460 O 0.47558 0.44092 0.65746 0.0
O461 O 0.52732 0.53959 0.62021 0.0
O462 O 0.52365 0.53603 0.71526 0.0
C463 C 0.52588 0.55066 0.44403 0.0
C464 C 0.4653 0.48597 0.52208 0.0
H465 H 0.11648 0.46118 0.37476 0.0
H466 H 0.12413 0.50552 0.24139 0.0
H467 H 0.10344 0.51922 0.29637 0.0
H468 H 0.06263 0.44431 0.39398 0.0
H469 H 0.06479 0.44237 0.47121 0.0
H470 H 0.08303 0.43891 0.4261 0.0
H471 H 0.11643 0.47036 0.48868 0.0
H472 H 0.09825 0.47381 0.53437 0.0
H473 H 0.11868 0.4971 0.50011 0.0
H474 H 0.07815 0.52505 0.36303 0.0
H475 H 0.05133 0.52199 0.43311 0.0
H476 H 0.06021 0.47267 0.51787 0.0
C477 C 0.11411 0.47402 0.35746 0.0
C478 C 0.1219 0.48228 0.30386 0.0
C479 C 0.11854 0.49916 0.28284 0.0
C480 C 0.10673 0.50697 0.31366 0.0
C481 C 0.09859 0.49785 0.36556 0.0
C482 C 0.10236 0.48185 0.38735 0.0
C483 C 0.09061 0.4733 0.44127 0.0
C484 C 0.0743 0.44825 0.43257 0.0
C485 C 0.10697 0.47899 0.49424 0.0
C486 C 0.079 0.48639 0.44557 0.0
C487 C 0.08396 0.50078 0.40236 0.0
C488 C 0.07433 0.51394 0.39729 0.0
C489 C 0.05912 0.51211 0.43712 0.0
C490 C 0.05352 0.49694 0.4805 0.0
C491 C 0.06392 0.48427 0.48487 0.0
H492 H 0.64251 0.09056 0.22208 0.0
H493 H 0.68532 0.14024 0.35835 0.0
H494 H 0.65863 0.12013 0.42987 0.0
H495 H 0.59142 0.0821 0.27608 0.0
H496 H 0.57682 0.05284 0.25507 0.0
H497 H 0.59902 0.0714 0.21456 0.0
H498 H 0.61819 0.04859 0.23135 0.0
H499 H 0.5961 0.02998 0.27196 0.0
H500 H 0.62378 0.04377 0.30442 0.0
H501 H 0.6291 0.09343 0.48667 0.0
H502 H 0.59701 0.06302 0.52595 0.0
H503 H 0.57179 0.03147 0.35204 0.0
C504 C 0.64618 0.09716 0.26704 0.0
C505 C 0.66595 0.11679 0.28521 0.0
C506 C 0.67021 0.12522 0.34396 0.0
C507 C 0.6552 0.11391 0.38466 0.0
C508 C 0.63593 0.09448 0.36545 0.0
C509 C 0.63123 0.08629 0.30797 0.0
C510 C 0.60932 0.06505 0.29882 0.0
C511 C 0.59319 0.06804 0.25876 0.0
C512 C 0.61202 0.04571 0.27525 0.0
C513 C 0.60262 0.0623 0.36048 0.0
C514 C 0.61831 0.07946 0.39809 0.0
C515 C 0.61658 0.08007 0.45764 0.0
C516 C 0.59837 0.06267 0.47948 0.0
C517 C 0.58197 0.045 0.44187 0.0
C518 C 0.58398 0.04494 0.38149 0.0
H519 H 0.57155 0.65967 0.27839 0.0
H520 H 0.50585 0.63493 0.19873 0.0
H521 H 0.49222 0.60302 0.25797 0.0
H522 H 0.56979 0.60986 0.28917 0.0
H523 H 0.58456 0.61689 0.35965 0.0
H524 H 0.58908 0.63834 0.31278 0.0
H525 H 0.57944 0.65832 0.39325 0.0
H526 H 0.57505 0.63698 0.44069 0.0
H527 H 0.55376 0.64343 0.42533 0.0
H528 H 0.48683 0.57101 0.31643 0.0
H529 H 0.48954 0.54438 0.37837 0.0
H530 H 0.55722 0.59285 0.42979 0.0
C531 C 0.55417 0.64805 0.27422 0.0
C532 C 0.53998 0.64994 0.23258 0.0
C533 C 0.51738 0.63376 0.22859 0.0
C534 C 0.50935 0.61559 0.26266 0.0
C535 C 0.52393 0.61406 0.302 0.0
C536 C 0.54576 0.63016 0.30897 0.0
C537 C 0.55811 0.62459 0.35397 0.0
C538 C 0.57646 0.62228 0.32727 0.0
C539 C 0.56712 0.64186 0.40642 0.0
C540 C 0.53996 0.60252 0.36995 0.0
C541 C 0.52037 0.59658 0.33921 0.0
C542 C 0.5019 0.5758 0.34214 0.0
C543 C 0.50354 0.56077 0.37744 0.0
C544 C 0.52333 0.56681 0.41036 0.0
C545 C 0.54163 0.58806 0.40681 0.0
H546 H 0.93409 0.57603 0.17818 0.0
H547 H 0.88155 0.5694 0.28038 0.0
H548 H 0.89539 0.55611 0.35989 0.0
H549 H 0.935 0.52749 0.22509 0.0
H550 H 0.96432 0.54041 0.22657 0.0
H551 H 0.94983 0.54853 0.17652 0.0
H552 H 0.97383 0.58936 0.21776 0.0
H553 H 0.98846 0.5814 0.26766 0.0
H554 H 0.97551 0.59621 0.29464 0.0
H555 H 0.91584 0.54597 0.42953 0.0
H556 H 0.94186 0.53931 0.4868 0.0
H557 H 0.98098 0.55145 0.33925 0.0
C558 C 0.92556 0.57185 0.21743 0.0
C559 C 0.9068 0.57378 0.22343 0.0
C560 C 0.89587 0.56787 0.27495 0.0
C561 C 0.9036 0.56034 0.32021 0.0
C562 C 0.92213 0.55863 0.31288 0.0
C563 C 0.93297 0.56414 0.26284 0.0
C564 C 0.95282 0.56127 0.26679 0.0
C565 C 0.95033 0.54336 0.22102 0.0
C566 C 0.9739 0.58337 0.26142 0.0
C567 C 0.95172 0.55373 0.32751 0.0
C568 C 0.9338 0.55226 0.35302 0.0
C569 C 0.9298 0.54684 0.40992 0.0
C570 C 0.94471 0.54316 0.44207 0.0
C571 C 0.96332 0.54481 0.4172 0.0
C572 C 0.96667 0.54975 0.35883 0.0
H573 H 0.35895 0.9327 0.27468 0.0
H574 H 0.3646 0.87444 0.23787 0.0
H575 H 0.39916 0.89163 0.30065 0.0
H576 H 0.4171 0.9737 0.28475 0.0
H577 H 0.41474 0.98982 0.34402 0.0
H578 H 0.39196 0.974 0.29088 0.0
H579 H 0.36717 0.95382 0.37264 0.0
H580 H 0.38977 0.96972 0.42588 0.0
H581 H 0.37554 0.93993 0.42273 0.0
H582 H 0.43217 0.91463 0.3738 0.0
H583 H 0.45819 0.93965 0.45525 0.0
H584 H 0.42925 0.9814 0.44497 0.0
C585 C 0.36736 0.92345 0.27971 0.0
C586 C 0.35898 0.90218 0.25126 0.0
C587 C 0.3708 0.89089 0.25855 0.0
C588 C 0.39045 0.90051 0.29418 0.0
C589 C 0.3981 0.92145 0.32204 0.0
C590 C 0.3868 0.93269 0.31523 0.0
C591 C 0.39736 0.95416 0.35304 0.0
C592 C 0.40579 0.9741 0.31594 0.0
C593 C 0.38152 0.9544 0.39613 0.0
C594 C 0.41602 0.953 0.38361 0.0
C595 C 0.41656 0.93428 0.36453 0.0
C596 C 0.43198 0.92942 0.38867 0.0
C597 C 0.44676 0.94373 0.43461 0.0
C598 C 0.44565 0.96236 0.45624 0.0
C599 C 0.43045 0.96724 0.42927 0.0
H600 H 0.49776 0.35646 0.37911 0.0
H601 H 0.4444 0.34641 0.25759 0.0
H602 H 0.43673 0.36975 0.32306 0.0
H603 H 0.47425 0.36522 0.51846 0.0
H604 H 0.50106 0.3867 0.54713 0.0
H605 H 0.498 0.36353 0.50162 0.0
H606 H 0.52486 0.39049 0.43241 0.0
H607 H 0.52803 0.41356 0.47758 0.0
H608 H 0.51934 0.41058 0.40155 0.0
H609 H 0.44068 0.40096 0.3848 0.0
H610 H 0.45672 0.43795 0.43665 0.0
H611 H 0.50794 0.42961 0.51905 0.0
C612 C 0.48407 0.35866 0.36697 0.0
C613 C 0.47168 0.3494 0.31304 0.0
C614 C 0.4539 0.35275 0.29904 0.0
C615 C 0.44939 0.3661 0.33611 0.0
C616 C 0.46268 0.37596 0.38736 0.0
C617 C 0.47958 0.37225 0.40319 0.0
C618 C 0.49385 0.38782 0.45474 0.0
C619 C 0.49165 0.37505 0.50869 0.0
C620 C 0.51792 0.40141 0.44066 0.0
C621 C 0.48353 0.40216 0.46192 0.0
C622 C 0.46506 0.39448 0.424 0.0
C623 C 0.45462 0.40671 0.41611 0.0
C624 C 0.46381 0.42768 0.44562 0.0
C625 C 0.48315 0.43613 0.48256 0.0
C626 C 0.49262 0.42293 0.49274 0.0
H627 H 0.51534 0.88042 0.90029 0.0
H628 H 0.57222 0.89267 0.81038 0.0
H629 H 0.56307 0.91247 0.73814 0.0
H630 H 0.47912 0.87394 0.77094 0.0
H631 H 0.46745 0.88819 0.80864 0.0
H632 H 0.47688 0.87253 0.84814 0.0
H633 H 0.50194 0.90728 0.91766 0.0
H634 H 0.49264 0.92303 0.87838 0.0
H635 H 0.52145 0.93242 0.8879 0.0
H636 H 0.54923 0.93364 0.68052 0.0
H637 H 0.5331 0.95574 0.64613 0.0
H638 H 0.48579 0.92999 0.77528 0.0
C639 C 0.5255 0.88671 0.86441 0.0
C640 C 0.54432 0.88478 0.86038 0.0
C641 C 0.55767 0.89391 0.814 0.0
C642 C 0.55254 0.90507 0.77269 0.0
C643 C 0.53404 0.90703 0.7785 0.0
C644 C 0.52075 0.89809 0.8233 0.0
C645 C 0.50304 0.9042 0.8232 0.0
C646 C 0.48027 0.88348 0.81205 0.0
C647 C 0.50489 0.91753 0.88015 0.0
C648 C 0.50871 0.91838 0.77222 0.0
C649 C 0.5264 0.91955 0.7463 0.0
C650 C 0.53517 0.93257 0.69999 0.0
C651 C 0.52581 0.94496 0.68041 0.0
C652 C 0.50805 0.94442 0.70746 0.0
C653 C 0.49928 0.93067 0.75339 0.0
H654 H 0.67273 0.55633 0.83544 0.0
H655 H 0.63727 0.52296 0.98143 0.0
H656 H 0.60259 0.50602 0.91931 0.0
H657 H 0.63612 0.57175 0.78565 0.0
H658 H 0.6392 0.56824 0.70963 0.0
H659 H 0.66128 0.57449 0.76263 0.0
H660 H 0.66195 0.53948 0.72382 0.0
H661 H 0.63986 0.53315 0.67042 0.0
H662 H 0.63725 0.5129 0.71972 0.0
H663 H 0.57125 0.49618 0.84317 0.0
H664 H 0.54677 0.49529 0.76159 0.0
H665 H 0.60344 0.53633 0.66873 0.0
C666 C 0.65772 0.54523 0.85424 0.0
C667 C 0.65772 0.54095 0.91322 0.0
C668 C 0.63771 0.52622 0.93605 0.0
C669 C 0.61792 0.51656 0.90115 0.0
C670 C 0.61846 0.5217 0.8435 0.0
C671 C 0.63792 0.53561 0.82026 0.0
C672 C 0.63413 0.54023 0.75899 0.0
C673 C 0.64321 0.56515 0.75398 0.0
C674 C 0.64387 0.53087 0.71569 0.0
C675 C 0.60947 0.52744 0.75203 0.0
C676 C 0.60061 0.51649 0.8006 0.0
C677 C 0.57804 0.50452 0.80468 0.0
C678 C 0.56425 0.5041 0.75822 0.0
C679 C 0.5732 0.51587 0.70904 0.0
C680 C 0.59606 0.52725 0.70582 0.0
H681 H 0.10094 0.63316 0.98124 0.0
H682 H 0.11668 0.68447 0.86304 0.0
H683 H 0.09933 0.65581 0.78038 0.0
H684 H 0.11005 0.59653 0.88731 0.0
H685 H 0.08747 0.57191 0.91113 0.0
H686 H 0.10172 0.59658 0.95978 0.0
H687 H 0.06516 0.59559 0.97452 0.0
H688 H 0.05081 0.57091 0.92604 0.0
H689 H 0.04852 0.59483 0.91207 0.0
H690 H 0.08005 0.62077 0.71055 0.0
H691 H 0.05899 0.58297 0.66182 0.0
H692 H 0.05561 0.55566 0.82829 0.0
C693 C 0.10098 0.63839 0.93787 0.0
C694 C 0.11031 0.66099 0.92831 0.0
C695 C 0.10957 0.66719 0.87115 0.0
C696 C 0.09986 0.65106 0.82403 0.0
C697 C 0.09086 0.62886 0.83505 0.0
C698 C 0.09124 0.62259 0.89074 0.0
C699 C 0.07978 0.59775 0.89181 0.0
C700 C 0.09571 0.59026 0.9138 0.0
C701 C 0.05989 0.58928 0.92825 0.0
C702 C 0.07285 0.59092 0.82802 0.0
C703 C 0.07946 0.609 0.79568 0.0
C704 C 0.07474 0.60651 0.73562 0.0
C705 C 0.06271 0.58497 0.70826 0.0
C706 C 0.05538 0.56625 0.74103 0.0
C707 C 0.06083 0.56949 0.80163 0.0
H708 H 0.49039 0.09911 0.04439 0.0
H709 H 0.49013 0.14753 0.93453 0.0
H710 H 0.49833 0.13021 0.85124 0.0
H711 H 0.53321 0.09182 0.97138 0.0
H712 H 0.51889 0.06249 0.97913 0.0
H713 H 0.51725 0.08107 0.03266 0.0
H714 H 0.47496 0.05886 0.01698 0.0
H715 H 0.47648 0.04024 0.96379 0.0
H716 H 0.46202 0.05447 0.94479 0.0
H717 H 0.50163 0.10537 0.77839 0.0
H718 H 0.4971 0.07315 0.71859 0.0
H719 H 0.49457 0.03989 0.87435 0.0
C720 C 0.49274 0.10639 0.00311 0.0
C721 C 0.48989 0.12473 0.99563 0.0
C722 C 0.49234 0.1335 0.94083 0.0
C723 C 0.49718 0.1239 0.89357 0.0
C724 C 0.49949 0.10555 0.90193 0.0
C725 C 0.49732 0.09682 0.95528 0.0
C726 C 0.49775 0.07535 0.95075 0.0
C727 C 0.51798 0.07784 0.98556 0.0
C728 C 0.47654 0.0561 0.9702 0.0
C729 C 0.49941 0.07283 0.88606 0.0
C730 C 0.50098 0.09075 0.85909 0.0
C731 C 0.50078 0.09143 0.79904 0.0
C732 C 0.49813 0.07299 0.76544 0.0
C733 C 0.49551 0.05404 0.79188 0.0
C734 C 0.49695 0.05431 0.85307 0.0
H735 H 0.34978 0.45933 0.88245 0.0
H736 H 0.38688 0.50472 0.03247 0.0
H737 H 0.42123 0.51249 0.991 0.0
H738 H 0.38317 0.43556 0.8706 0.0
H739 H 0.38076 0.43267 0.79234 0.0
H740 H 0.3591 0.43231 0.83086 0.0
H741 H 0.36175 0.46466 0.77454 0.0
H742 H 0.38323 0.46492 0.73526 0.0
H743 H 0.38772 0.48982 0.77476 0.0
H744 H 0.45165 0.51327 0.93605 0.0
H745 H 0.47551 0.5086 0.8689 0.0
H746 H 0.41807 0.46178 0.75744 0.0
C747 C 0.36512 0.47108 0.90633 0.0
C748 C 0.36558 0.48152 0.96051 0.0
C749 C 0.38605 0.49685 0.99027 0.0
C750 C 0.40568 0.50123 0.96736 0.0
C751 C 0.40459 0.49016 0.91464 0.0
C752 C 0.38483 0.47556 0.88428 0.0
C753 C 0.38807 0.46521 0.82961 0.0
C754 C 0.37712 0.43994 0.83098 0.0
C755 C 0.3797 0.47154 0.77534 0.0
C756 C 0.41271 0.47606 0.83434 0.0
C757 C 0.422 0.49043 0.88354 0.0
C758 C 0.44456 0.50213 0.89719 0.0
C759 C 0.45797 0.49928 0.85896 0.0
C760 C 0.44873 0.48482 0.80784 0.0
C761 C 0.42576 0.47299 0.79602 0.0
H762 H 0.89071 0.34281 0.84527 0.0
H763 H 0.87006 0.37884 0.95852 0.0
H764 H 0.88828 0.41123 0.90089 0.0
H765 H 0.94226 0.38511 0.83453 0.0
H766 H 0.94423 0.37871 0.75945 0.0
H767 H 0.92609 0.35715 0.80219 0.0
H768 H 0.89357 0.34733 0.72723 0.0
H769 H 0.9117 0.36891 0.684 0.0
H770 H 0.88767 0.36857 0.70778 0.0
H771 H 0.9146 0.44168 0.84352 0.0
H772 H 0.94519 0.46686 0.78768 0.0
H773 H 0.94743 0.41061 0.70925 0.0
C774 C 0.88952 0.35731 0.85685 0.0
C775 C 0.87888 0.35829 0.90606 0.0
C776 C 0.8778 0.3776 0.92034 0.0
C777 C 0.88815 0.39611 0.88794 0.0
C778 C 0.89919 0.39489 0.84083 0.0
C779 C 0.89961 0.37583 0.82471 0.0
C780 C 0.9143 0.3794 0.77602 0.0
C781 C 0.93281 0.37483 0.79417 0.0
C782 C 0.90101 0.36521 0.72046 0.0
C783 C 0.92296 0.40372 0.76926 0.0
C784 C 0.91391 0.41236 0.80656 0.0
C785 C 0.92136 0.435 0.81297 0.0
C786 C 0.93877 0.44919 0.78129 0.0
C787 C 0.94841 0.44062 0.74356 0.0
C788 C 0.93994 0.41755 0.73644 0.0
H789 H 0.89101 0.5372 0.81856 0.0
H790 H 0.93569 0.56836 0.97205 0.0
H791 H 0.95889 0.5537 0.93746 0.0
H792 H 0.89898 0.48752 0.79839 0.0
H793 H 0.89773 0.48824 0.72058 0.0
H794 H 0.88219 0.49689 0.76304 0.0
H795 H 0.90057 0.53479 0.71821 0.0
H796 H 0.91589 0.52614 0.67549 0.0
H797 H 0.92999 0.55122 0.72281 0.0
H798 H 0.97989 0.54098 0.88027 0.0
H799 H 0.99855 0.53404 0.80096 0.0
H800 H 0.94089 0.51171 0.68355 0.0
C801 C 0.90536 0.54029 0.84535 0.0
C802 C 0.91163 0.5536 0.89795 0.0
C803 C 0.93072 0.558 0.93169 0.0
C804 C 0.94383 0.54959 0.91265 0.0
C805 C 0.93752 0.53678 0.85989 0.0
C806 C 0.91873 0.53216 0.8266 0.0
C807 C 0.91727 0.52077 0.768 0.0
C808 C 0.89789 0.49694 0.76219 0.0
C809 C 0.91587 0.53403 0.71824 0.0
C810 C 0.9388 0.52104 0.77208 0.0
C811 C 0.9499 0.52962 0.8262 0.0
C812 C 0.97113 0.53365 0.8383 0.0
C813 C 0.98158 0.5296 0.79329 0.0
C814 C 0.97078 0.52184 0.73723 0.0
C815 C 0.94902 0.51691 0.72691 0.0
H816 H 0.33493 0.88825 0.89967 0.0
H817 H 0.29858 0.92189 0.86627 0.0
H818 H 0.32446 0.94333 0.79442 0.0
H819 H 0.38543 0.93358 0.90131 0.0
H820 H 0.39834 0.91983 0.86748 0.0
H821 H 0.37489 0.90445 0.90754 0.0
H822 H 0.35466 0.87682 0.81746 0.0
H823 H 0.37821 0.892 0.77712 0.0
H824 H 0.35181 0.88705 0.74938 0.0
H825 H 0.35711 0.96414 0.7348 0.0
H826 H 0.39357 0.98269 0.69571 0.0
H827 H 0.40792 0.93526 0.77119 0.0
C828 C 0.33184 0.89945 0.87556 0.0
C829 C 0.31458 0.90318 0.88787 0.0
C830 C 0.31168 0.91872 0.85719 0.0
C831 C 0.32622 0.93088 0.81616 0.0
C832 C 0.3435 0.92723 0.80634 0.0
C833 C 0.34623 0.91175 0.83505 0.0
C834 C 0.36729 0.91254 0.82208 0.0
C835 C 0.38236 0.91793 0.87791 0.0
C836 C 0.36271 0.89081 0.78956 0.0
C837 C 0.37642 0.93138 0.78319 0.0
C838 C 0.36238 0.93945 0.77355 0.0
C839 C 0.36809 0.95773 0.74144 0.0
C840 C 0.3888 0.96817 0.71943 0.0
C841 C 0.40359 0.96047 0.73063 0.0
C842 C 0.39702 0.9416 0.76197 0.0
H843 H 0.51908 0.38557 0.94171 0.0
H844 H 0.4669 0.32247 0.86377 0.0
H845 H 0.46317 0.34093 0.77844 0.0
H846 H 0.49565 0.4165 0.90492 0.0
H847 H 0.52074 0.44087 0.89099 0.0
H848 H 0.52127 0.42212 0.94067 0.0
H849 H 0.54918 0.41779 0.88084 0.0
H850 H 0.54871 0.4366 0.83087 0.0
H851 H 0.54272 0.40938 0.8043 0.0
H852 H 0.46203 0.36761 0.70821 0.0
H853 H 0.46387 0.39941 0.66046 0.0
H854 H 0.51745 0.44438 0.78504 0.0
C855 C 0.50712 0.37557 0.90617 0.0
C856 C 0.49323 0.35263 0.90923 0.0
C857 C 0.47782 0.34006 0.86193 0.0
C858 C 0.47559 0.35042 0.81341 0.0
C859 C 0.48918 0.37326 0.81257 0.0
C860 C 0.50483 0.38559 0.85757 0.0
C861 C 0.51634 0.41002 0.84884 0.0
C862 C 0.5133 0.42313 0.89932 0.0
C863 C 0.54068 0.41897 0.84071 0.0
C864 C 0.50413 0.4097 0.79312 0.0
C865 C 0.48869 0.3884 0.77222 0.0
C866 C 0.47433 0.38432 0.72369 0.0
C867 C 0.47548 0.40249 0.69683 0.0
C868 C 0.49081 0.42444 0.71884 0.0
C869 C 0.50564 0.42787 0.76661 0.0
H870 H 0.08043 0.42919 0.99307 0.0
H871 H 0.117 0.41244 0.87684 0.0
H872 H 0.09383 0.41224 0.79242 0.0
H873 H 0.02574 0.39859 0.90428 0.0
H874 H 0.02007 0.42033 0.92406 0.0
H875 H 0.03597 0.41389 0.97426 0.0
H876 H 0.06713 0.45485 0.98089 0.0
H877 H 0.05156 0.46136 0.93039 0.0
H878 H 0.07865 0.46736 0.91537 0.0
H879 H 0.07058 0.42014 0.72118 0.0
H880 H 0.05019 0.43572 0.67079 0.0
H881 H 0.03018 0.44809 0.83601 0.0
C882 C 0.0829 0.42462 0.94986 0.0
C883 C 0.10008 0.42052 0.94077 0.0
C884 C 0.10353 0.41521 0.88407 0.0
C885 C 0.09047 0.41507 0.83617 0.0
C886 C 0.07405 0.42005 0.84637 0.0
C887 C 0.07011 0.42446 0.9021 0.0
C888 C 0.05365 0.43215 0.90192 0.0
C889 C 0.03261 0.41522 0.92764 0.0
C890 C 0.06334 0.45529 0.93399 0.0
C891 C 0.04984 0.43269 0.83751 0.0
C892 C 0.06122 0.42512 0.80581 0.0
C893 C 0.06129 0.4257 0.74554 0.0
C894 C 0.04973 0.43458 0.7173 0.0
C895 C 0.03879 0.44316 0.74977 0.0
C896 C 0.03849 0.44169 0.81024 0.0
H897 H 0.65702 0.10736 0.86215 0.0
H898 H 0.62173 0.11321 0.00417 0.0
H899 H 0.58679 0.08693 0.94894 0.0
H900 H 0.61838 0.10039 0.74357 0.0
H901 H 0.62242 0.08029 0.70298 0.0
H902 H 0.64432 0.10141 0.75136 0.0
H903 H 0.64728 0.07111 0.8049 0.0
H904 H 0.62523 0.04991 0.75715 0.0
H905 H 0.62345 0.04965 0.83462 0.0
H906 H 0.55535 0.05852 0.87795 0.0
H907 H 0.53104 0.03074 0.79852 0.0
H908 H 0.58792 0.04194 0.70986 0.0
C909 C 0.64201 0.10321 0.88186 0.0
C910 C 0.64225 0.11251 0.93751 0.0
C911 C 0.62208 0.10674 0.96108 0.0
C912 C 0.6021 0.09164 0.93027 0.0
C913 C 0.60256 0.08232 0.87622 0.0
C914 C 0.62204 0.08794 0.85236 0.0
C915 C 0.61835 0.07483 0.79521 0.0
C916 C 0.62633 0.09014 0.74535 0.0
C917 C 0.62922 0.06053 0.7982 0.0
C918 C 0.59376 0.06078 0.79079 0.0
C919 C 0.5848 0.06543 0.83736 0.0
C920 C 0.56223 0.05469 0.84139 0.0
C921 C 0.54854 0.03896 0.79622 0.0
C922 C 0.55755 0.03397 0.74844 0.0
C923 C 0.58046 0.04499 0.74634 0.0
H924 H 0.53644 0.6456 0.86793 0.0
H925 H 0.60296 0.68589 0.82197 0.0
H926 H 0.59649 0.65731 0.7438 0.0
H927 H 0.53628 0.59703 0.85879 0.0
H928 H 0.50811 0.58002 0.83109 0.0
H929 H 0.5166 0.60541 0.874 0.0
H930 H 0.50136 0.61893 0.79111 0.0
H931 H 0.49277 0.59346 0.74778 0.0
H932 H 0.51042 0.6196 0.71927 0.0
H933 H 0.5837 0.62211 0.67829 0.0
H934 H 0.56716 0.58288 0.63951 0.0
H935 H 0.51013 0.56597 0.73362 0.0
C936 C 0.54938 0.6488 0.83992 0.0
C937 C 0.57004 0.66807 0.85001 0.0
C938 C 0.58693 0.67126 0.81432 0.0
C939 C 0.58334 0.65521 0.7697 0.0
C940 C 0.56282 0.6361 0.76166 0.0
C941 C 0.54616 0.63288 0.79607 0.0
C942 C 0.52668 0.60984 0.7849 0.0
C943 C 0.52165 0.59735 0.84047 0.0
C944 C 0.50662 0.61051 0.75922 0.0
C945 C 0.53523 0.60022 0.74047 0.0
C946 C 0.55583 0.61569 0.72613 0.0
C947 C 0.56744 0.60998 0.68854 0.0
C948 C 0.55796 0.58776 0.66657 0.0
C949 C 0.53743 0.57171 0.68362 0.0
C950 C 0.52579 0.57814 0.71968 0.0
H951 H 0.50281 0.12955 0.35529 0.0
H952 H 0.4441 0.11909 0.43215 0.0
H953 H 0.44809 0.09502 0.50132 0.0
H954 H 0.49053 0.07585 0.35309 0.0
H955 H 0.51817 0.0816 0.36786 0.0
H956 H 0.51321 0.10133 0.33334 0.0
H957 H 0.53819 0.13169 0.41423 0.0
H958 H 0.54336 0.11202 0.44895 0.0
H959 H 0.53285 0.12688 0.4892 0.0
H960 H 0.45667 0.06891 0.55503 0.0
H961 H 0.46719 0.04142 0.58209 0.0
H962 H 0.51886 0.068 0.46489 0.0
C963 C 0.49129 0.1229 0.38822 0.0
C964 C 0.47343 0.12651 0.38941 0.0
C965 C 0.45806 0.11671 0.43124 0.0
C966 C 0.46027 0.10312 0.47073 0.0
C967 C 0.47784 0.09944 0.46743 0.0
C968 C 0.49306 0.10908 0.42705 0.0
C969 C 0.50874 0.10035 0.4267 0.0
C970 C 0.50757 0.08911 0.36672 0.0
C971 C 0.53217 0.11884 0.44594 0.0
C972 C 0.49957 0.08373 0.47178 0.0
C973 C 0.48211 0.08376 0.49601 0.0
C974 C 0.47047 0.06893 0.53674 0.0
C975 C 0.47655 0.05339 0.55194 0.0
C976 C 0.49374 0.05256 0.52531 0.0
C977 C 0.50561 0.06826 0.48584 0.0
H978 H 0.35357 0.44406 0.33117 0.0
H979 H 0.38272 0.5088 0.26348 0.0
H980 H 0.41703 0.52027 0.32304 0.0
H981 H 0.37913 0.46238 0.47652 0.0
H982 H 0.38287 0.43892 0.48373 0.0
H983 H 0.36048 0.43623 0.43705 0.0
H984 H 0.37374 0.42217 0.351 0.0
H985 H 0.39633 0.42507 0.39728 0.0
H986 H 0.40132 0.4389 0.33109 0.0
H987 H 0.44839 0.52439 0.38867 0.0
H988 H 0.47382 0.52139 0.45974 0.0
H989 H 0.42428 0.45354 0.48095 0.0
C990 C 0.36715 0.46066 0.32889 0.0
C991 C 0.36542 0.47556 0.29294 0.0
C992 C 0.38353 0.49722 0.29155 0.0
C993 C 0.40316 0.50382 0.32474 0.0
C994 C 0.40441 0.48857 0.35892 0.0
C995 C 0.38685 0.46748 0.36147 0.0
C996 C 0.39242 0.45423 0.40154 0.0
C997 C 0.37786 0.44756 0.45275 0.0
C998 C 0.39086 0.43389 0.36822 0.0
C999 C 0.41585 0.47118 0.42123 0.0
C1000 C 0.42252 0.49085 0.39605 0.0
C1001 C 0.44343 0.50903 0.40844 0.0
C1002 C 0.45779 0.50713 0.44845 0.0
C1003 C 0.45109 0.48722 0.47552 0.0
C1004 C 0.42992 0.46899 0.46099 0.0
H1005 H 0.88269 0.37452 0.29598 0.0
H1006 H 0.91672 0.33782 0.32074 0.0
H1007 H 0.93983 0.36464 0.40154 0.0
H1008 H 0.92998 0.4252 0.30569 0.0
H1009 H 0.91861 0.44032 0.3405 0.0
H1010 H 0.90115 0.41556 0.29461 0.0
H1011 H 0.87646 0.39876 0.37898 0.0
H1012 H 0.89391 0.42355 0.42527 0.0
H1013 H 0.88839 0.39703 0.44772 0.0
H1014 H 0.96223 0.39772 0.47242 0.0
H1015 H 0.98392 0.43566 0.51983 0.0
H1016 H 0.93861 0.45291 0.43908 0.0
C1017 C 0.89485 0.37187 0.31825 0.0
C1018 C 0.89758 0.35374 0.30139 0.0
C1019 C 0.91366 0.35106 0.33313 0.0
C1020 C 0.92704 0.36635 0.37919 0.0
C1021 C 0.92441 0.38442 0.39284 0.0
C1022 C 0.9088 0.38732 0.36292 0.0
C1023 C 0.91133 0.40968 0.3799 0.0
C1024 C 0.91553 0.4235 0.32704 0.0
C1025 C 0.89133 0.40709 0.40975 0.0
C1026 C 0.93132 0.41925 0.42245 0.0
C1027 C 0.93819 0.40416 0.43088 0.0
C1028 C 0.95683 0.40956 0.46673 0.0
C1029 C 0.969 0.43108 0.49367 0.0
C1030 C 0.96271 0.44696 0.48332 0.0
C1031 C 0.94354 0.44089 0.4479 0.0
H1032 H 0.56295 0.89181 0.30675 0.0
H1033 H 0.49991 0.8622 0.20737 0.0
H1034 H 0.48562 0.87491 0.28577 0.0
H1035 H 0.54252 0.88443 0.45552 0.0
H1036 H 0.56468 0.91119 0.48339 0.0
H1037 H 0.56878 0.89559 0.42609 0.0
H1038 H 0.58179 0.92865 0.36186 0.0
H1039 H 0.57794 0.94433 0.41901 0.0
H1040 H 0.5644 0.94018 0.34778 0.0
H1041 H 0.47972 0.89559 0.36494 0.0
H1042 H 0.48354 0.92499 0.43546 0.0
H1043 H 0.55049 0.94266 0.48344 0.0
C1044 C 0.54604 0.88771 0.30162 0.0
C1045 C 0.53256 0.87575 0.25074 0.0
C1046 C 0.51051 0.87079 0.24627 0.0
C1047 C 0.50219 0.87798 0.2907 0.0
C1048 C 0.51607 0.89012 0.33953 0.0
C1049 C 0.53755 0.89502 0.34526 0.0
C1050 C 0.54987 0.91095 0.39803 0.0
C1051 C 0.55687 0.89987 0.44345 0.0
C1052 C 0.56965 0.93228 0.3806 0.0
C1053 C 0.53226 0.91519 0.41918 0.0
C1054 C 0.51272 0.90251 0.38567 0.0
C1055 C 0.49475 0.90523 0.39234 0.0
C1056 C 0.49706 0.92198 0.43248 0.0
C1057 C 0.51721 0.93584 0.46525 0.0
C1058 C 0.53473 0.93181 0.46021 0.0
H1059 H 0.69131 0.59807 0.31053 0.0
H1060 H 0.68008 0.53346 0.24802 0.0
H1061 H 0.64856 0.51572 0.30632 0.0
H1062 H 0.67191 0.58276 0.45926 0.0
H1063 H 0.65919 0.59956 0.45924 0.0
H1064 H 0.68334 0.60754 0.42102 0.0
H1065 H 0.66272 0.60859 0.32682 0.0
H1066 H 0.63847 0.60036 0.36441 0.0
H1067 H 0.6374 0.5843 0.29985 0.0
H1068 H 0.61504 0.50468 0.35561 0.0
H1069 H 0.58283 0.50097 0.4017 0.0
H1070 H 0.61509 0.57228 0.43523 0.0
C1071 C 0.68254 0.58022 0.31025 0.0
C1072 C 0.68841 0.56723 0.27504 0.0
C1073 C 0.67637 0.54387 0.27563 0.0
C1074 C 0.65827 0.53358 0.30835 0.0
C1075 C 0.65245 0.54681 0.34071 0.0
C1076 C 0.66436 0.56962 0.34281 0.0
C1077 C 0.65343 0.57982 0.37734 0.0
C1078 C 0.66783 0.59321 0.4325 0.0
C1079 C 0.64767 0.5941 0.33985 0.0
C1080 C 0.63307 0.55914 0.39201 0.0
C1081 C 0.63297 0.54031 0.37064 0.0
C1082 C 0.61511 0.51925 0.37376 0.0
C1083 C 0.59684 0.51733 0.39952 0.0
C1084 C 0.59661 0.53633 0.42221 0.0
C1085 C 0.61507 0.55749 0.41911 0.0
H1086 H 0.12342 0.6496 0.29623 0.0
H1087 H 0.12638 0.7051 0.39554 0.0
H1088 H 0.11096 0.68182 0.47744 0.0
H1089 H 0.07274 0.61178 0.33136 0.0
H1090 H 0.0774 0.58876 0.33446 0.0
H1091 H 0.09327 0.61083 0.29006 0.0
H1092 H 0.12896 0.61683 0.34401 0.0
H1093 H 0.1131 0.59469 0.38878 0.0
H1094 H 0.13278 0.62173 0.422 0.0
H1095 H 0.09056 0.65148 0.5419 0.0
H1096 H 0.06412 0.61634 0.57981 0.0
H1097 H 0.07311 0.58008 0.43662 0.0
C1098 C 0.1216 0.65698 0.33623 0.0
C1099 C 0.12645 0.67916 0.3405 0.0
C1100 C 0.12302 0.68818 0.39218 0.0
C1101 C 0.11439 0.67512 0.43886 0.0
C1102 C 0.10921 0.65306 0.43289 0.0
C1103 C 0.11266 0.64404 0.38275 0.0
C1104 C 0.10266 0.61923 0.38356 0.0
C1105 C 0.0855 0.60695 0.33183 0.0
C1106 C 0.12044 0.61274 0.38467 0.0
C1107 C 0.09217 0.61554 0.44066 0.0
C1108 C 0.09665 0.63531 0.46925 0.0
C1109 C 0.08722 0.63593 0.52037 0.0
C1110 C 0.07218 0.61584 0.54159 0.0
C1111 C 0.06643 0.59539 0.51114 0.0
C1112 C 0.07727 0.59537 0.46131 0.0
loop_
_geom_bond_atom_site_label_1
_geom_bond_atom_site_label_2
_geom_bond_distance
_geom_bond_site_symmetry_2
_ccdc_geom_bond_type
H0 C27 0.929 . S
N1 C26 1.433 . S
N1 C32 1.435 . S
N1 C38 1.423 . S
H2 C28 0.930 . S
H3 C31 0.931 . S
H4 C30 0.929 . S
H5 C33 0.930 . S
H6 C34 0.932 . S
H7 C37 0.929 . S
H8 C36 0.931 . S
H9 C39 0.929 . S
H10 C43 0.932 . S
H11 C40 0.931 . S
H12 C42 0.929 . S
H13 C45 0.929 . S
H14 C46 0.930 . S
H15 C48 0.929 . S
H16 C49 0.931 . S
H17 C51 0.930 . S
H18 C52 0.932 . S
H19 C54 0.931 . S
H20 C55 0.929 . S
H21 C57 0.929 . S
H22 C58 0.931 . S
H23 C60 0.929 . S
N24 C44 1.433 . S
N24 C50 1.435 . S
N24 C56 1.423 . S
H25 C61 0.932 . S
C26 N1 1.433 . S
C26 C27 1.363 . S
C26 C31 1.370 . S
C27 H0 0.929 . S
C27 C26 1.363 . S
C27 C28 1.385 . S
C28 H2 0.930 . S
C28 C27 1.385 . S
C28 C29 1.357 . S
C29 C28 1.357 . S
C29 C30 1.406 . S
C30 H4 0.929 . S
C30 C29 1.406 . S
C30 C31 1.391 . S
C31 H3 0.931 . S
C31 C26 1.370 . S
C31 C30 1.391 . S
C32 N1 1.435 . S
C32 C33 1.358 . S
C32 C37 1.371 . S
C33 H5 0.930 . S
C33 C32 1.358 . S
C33 C34 1.405 . S
C34 H6 0.932 . S
C34 C33 1.405 . S
C34 C35 1.383 . S
C35 C34 1.383 . S
C35 C36 1.393 . S
C36 H8 0.931 . S
C36 C35 1.393 . S
C36 C37 1.382 . S
C37 H7 0.929 . S
C37 C32 1.371 . S
C37 C36 1.382 . S
C38 N1 1.423 . S
C38 C39 1.362 . S
C38 C43 1.388 . S
C39 H9 0.929 . S
C39 C38 1.362 . S
C39 C40 1.376 . S
C40 H11 0.931 . S
C40 C39 1.376 . S
C40 C41 1.396 . S
C41 C40 1.396 . S
C41 C42 1.348 . S
C41 C59 1.472 . S
C42 H12 0.929 . S
C42 C41 1.348 . S
C42 C43 1.443 . S
C43 H10 0.932 . S
C43 C38 1.388 . S
C43 C42 1.443 . S
C44 N24 1.433 . S
C44 C45 1.363 . S
C44 C49 1.370 . S
C45 H13 0.929 . S
C45 C44 1.363 . S
C45 C46 1.385 . S
C46 H14 0.930 . S
C46 C45 1.385 . S
C46 C47 1.357 . S
C47 C46 1.357 . S
C47 C48 1.406 . S
C48 H15 0.929 . S
C48 C47 1.406 . S
C48 C49 1.391 . S
C49 H16 0.931 . S
C49 C44 1.370 . S
C49 C48 1.391 . S
C50 N24 1.435 . S
C50 C51 1.358 . S
C50 C55 1.371 . S
C51 H17 0.930 . S
C51 C50 1.358 . S
C51 C52 1.405 . S
C52 H18 0.932 . S
C52 C51 1.405 . S
C52 C53 1.383 . S
C53 C52 1.383 . S
C53 C54 1.393 . S
C54 H19 0.931 . S
C54 C53 1.393 . S
C54 C55 1.382 . S
C55 H20 0.929 . S
C55 C50 1.371 . S
C55 C54 1.382 . S
C56 N24 1.423 . S
C56 C57 1.362 . S
C56 C61 1.388 . S
C57 H21 0.929 . S
C57 C56 1.362 . S
C57 C58 1.376 . S
C58 H22 0.931 . S
C58 C57 1.376 . S
C58 C59 1.396 . S
C59 C41 1.472 . S
C59 C58 1.396 . S
C59 C60 1.348 . S
C60 H23 0.929 . S
C60 C59 1.348 . S
C60 C61 1.443 . S
C61 H25 0.932 . S
C61 C56 1.388 . S
C61 C60 1.443 . S
H62 C89 0.929 . S
N63 C88 1.433 . S
N63 C94 1.435 . S
N63 C100 1.423 . S
H64 C90 0.930 . S
H65 C93 0.931 . S
H66 C92 0.929 . S
H67 C95 0.930 . S
H68 C96 0.932 . S
H69 C99 0.929 . S
H70 C98 0.931 . S
H71 C101 0.929 . S
H72 C105 0.932 . S
H73 C102 0.931 . S
H74 C104 0.929 . S
H75 C107 0.929 . S
H76 C108 0.930 . S
H77 C110 0.929 . S
H78 C111 0.931 . S
H79 C113 0.930 . S
H80 C114 0.932 . S
H81 C116 0.931 . S
H82 C117 0.929 . S
H83 C119 0.929 . S
H84 C120 0.931 . S
H85 C122 0.929 . S
N86 C106 1.433 . S
N86 C112 1.435 . S
N86 C118 1.423 . S
H87 C123 0.932 . S
C88 N63 1.433 . S
C88 C89 1.363 . S
C88 C93 1.370 . S
C89 H62 0.929 . S
C89 C88 1.363 . S
C89 C90 1.385 . S
C90 H64 0.930 . S
C90 C89 1.385 . S
C90 C91 1.357 . S
C91 C90 1.357 . S
C91 C92 1.406 . S
C92 H66 0.929 . S
C92 C91 1.406 . S
C92 C93 1.391 . S
C93 H65 0.931 . S
C93 C88 1.370 . S
C93 C92 1.391 . S
C94 N63 1.435 . S
C94 C95 1.358 . S
C94 C99 1.371 1_554 S
C95 H67 0.930 . S
C95 C94 1.358 . S
C95 C96 1.405 1_554 S
C96 H68 0.932 . S
C96 C95 1.405 1_556 S
C96 C97 1.383 . S
C97 C96 1.383 . S
C97 C98 1.393 . S
C98 H70 0.931 . S
C98 C97 1.393 . S
C98 C99 1.382 . S
C99 H69 0.929 . S
C99 C94 1.371 1_556 S
C99 C98 1.382 . S
C100 N63 1.423 . S
C100 C101 1.362 . S
C100 C105 1.388 . S
C101 H71 0.929 . S
C101 C100 1.362 . S
C101 C102 1.376 . S
C102 H73 0.931 . S
C102 C101 1.376 . S
C102 C103 1.396 . S
C103 C102 1.396 . S
C103 C104 1.348 . S
C103 C121 1.472 . S
C104 H74 0.929 . S
C104 C103 1.348 . S
C104 C105 1.443 . S
C105 H72 0.932 . S
C105 C100 1.388 . S
C105 C104 1.443 . S
C106 N86 1.433 . S
C106 C107 1.363 . S
C106 C111 1.370 . S
C107 H75 0.929 . S
C107 C106 1.363 . S
C107 C108 1.385 . S
C108 H76 0.930 . S
C108 C107 1.385 . S
C108 C109 1.357 . S
C109 C108 1.357 . S
C109 C110 1.406 . S
C110 H77 0.929 . S
C110 C109 1.406 . S
C110 C111 1.391 . S
C111 H78 0.931 . S
C111 C106 1.370 . S
C111 C110 1.391 . S
C112 N86 1.435 . S
C112 C113 1.358 . S
C112 C117 1.357 1_554 S
C113 H79 0.930 . S
C113 C112 1.358 . S
C113 C114 1.405 . S
C114 H80 0.932 . S
C114 C113 1.405 . S
C114 C115 1.383 1_554 S
C115 C114 1.383 1_556 S
C115 C116 1.393 . S
C116 H81 0.931 . S
C116 C115 1.393 . S
C116 C117 1.397 . S
C117 H82 0.929 . S
C117 C112 1.357 1_556 S
C117 C116 1.397 . S
C118 N86 1.423 . S
C118 C119 1.362 . S
C118 C123 1.388 . S
C119 H83 0.929 . S
C119 C118 1.362 . S
C119 C120 1.376 . S
C120 H84 0.931 . S
C120 C119 1.376 . S
C120 C121 1.396 . S
C121 C103 1.472 . S
C121 C120 1.396 . S
C121 C122 1.348 . S
C122 H85 0.929 . S
C122 C121 1.348 . S
C122 C123 1.443 . S
C123 H87 0.932 . S
C123 C118 1.388 . S
C123 C122 1.443 . S
H124 C151 0.929 . S
N125 C150 1.433 1_554 S
N125 C156 1.435 . S
N125 C162 1.423 . S
H126 C152 0.930 . S
H127 C155 0.931 . S
H128 C154 0.929 . S
H129 C157 0.930 . S
H130 C158 0.932 . S
H131 C161 0.929 . S
H132 C160 0.931 . S
H133 C163 0.929 1_556 S
H134 C167 0.932 . S
H135 C164 0.931 1_556 S
H136 C166 0.929 . S
H137 C169 0.929 . S
H138 C170 0.930 . S
H139 C172 0.929 . S
H140 C173 0.931 . S
H141 C175 0.930 . S
H142 C176 0.932 . S
H143 C178 0.931 . S
H144 C179 0.929 . S
H145 C181 0.929 1_556 S
H146 C182 0.931 1_556 S
H147 C184 0.929 . S
N148 C168 1.433 1_554 S
N148 C174 1.435 . S
N148 C180 1.423 . S
H149 C185 0.932 . S
C150 N125 1.433 1_556 S
C150 C151 1.363 . S
C150 C155 1.370 . S
C151 H124 0.929 . S
C151 C150 1.363 . S
C151 C152 1.385 . S
C152 H126 0.930 . S
C152 C151 1.385 . S
C152 C153 1.357 . S
C153 C152 1.357 . S
C153 C154 1.406 . S
C154 H128 0.929 . S
C154 C153 1.406 . S
C154 C155 1.391 . S
C155 H127 0.931 . S
C155 C150 1.370 . S
C155 C154 1.391 . S
C156 N125 1.435 . S
C156 C157 1.358 . S
C156 C161 1.371 . S
C157 H129 0.930 . S
C157 C156 1.358 . S
C157 C158 1.405 . S
C158 H130 0.932 . S
C158 C157 1.405 . S
C158 C159 1.383 . S
C159 C158 1.383 . S
C159 C160 1.393 . S
C160 H132 0.931 . S
C160 C159 1.393 . S
C160 C161 1.382 . S
C161 H131 0.929 . S
C161 C156 1.371 . S
C161 C160 1.382 . S
C162 N125 1.423 . S
C162 C163 1.362 . S
C162 C167 1.388 . S
C163 H133 0.929 1_554 S
C163 C162 1.362 . S
C163 C164 1.376 . S
C164 H135 0.931 1_554 S
C164 C163 1.376 . S
C164 C165 1.396 . S
C165 C164 1.396 . S
C165 C166 1.348 . S
C165 C183 1.472 . S
C166 H136 0.929 . S
C166 C165 1.348 . S
C166 C167 1.443 . S
C167 H134 0.932 . S
C167 C162 1.388 . S
C167 C166 1.443 . S
C168 N148 1.433 1_556 S
C168 C169 1.363 . S
C168 C173 1.370 . S
C169 H137 0.929 . S
C169 C168 1.363 . S
C169 C170 1.385 . S
C170 H138 0.930 . S
C170 C169 1.385 . S
C170 C171 1.357 . S
C171 C170 1.357 . S
C171 C172 1.406 . S
C172 H139 0.929 . S
C172 C171 1.406 . S
C172 C173 1.391 . S
C173 H140 0.931 . S
C173 C168 1.370 . S
C173 C172 1.391 . S
C174 N148 1.435 . S
C174 C175 1.358 . S
C174 C179 1.371 . S
C175 H141 0.930 . S
C175 C174 1.358 . S
C175 C176 1.405 . S
C176 H142 0.932 . S
C176 C175 1.405 . S
C176 C177 1.383 . S
C177 C176 1.383 . S
C177 C178 1.393 . S
C178 H143 0.931 . S
C178 C177 1.393 . S
C178 C179 1.382 . S
C179 H144 0.929 . S
C179 C174 1.371 . S
C179 C178 1.382 . S
C180 N148 1.423 . S
C180 C181 1.362 . S
C180 C185 1.388 . S
C181 H145 0.929 1_554 S
C181 C180 1.362 . S
C181 C182 1.376 . S
C182 H146 0.931 1_554 S
C182 C181 1.376 . S
C182 C183 1.396 . S
C183 C165 1.472 . S
C183 C182 1.396 . S
C183 C184 1.348 . S
C184 H147 0.929 . S
C184 C183 1.348 . S
C184 C185 1.443 . S
C185 H149 0.932 . S
C185 C180 1.388 . S
C185 C184 1.443 . S
H186 C213 0.929 . S
N187 C212 1.433 . S
N187 C218 1.435 1_554 S
N187 C224 1.423 . S
H188 C214 0.930 . S
H189 C217 0.931 . S
H190 C216 0.929 . S
H191 C219 0.919 1_554 S
H192 C220 0.932 . S
H193 C223 0.929 . S
H194 C222 0.931 . S
H195 C225 0.929 . S
H196 C229 0.932 . S
H197 C226 0.931 . S
H198 C228 0.929 . S
H199 C231 0.929 . S
H200 C232 0.930 . S
H201 C234 0.929 . S
H202 C235 0.931 . S
H203 C237 0.930 . S
H204 C238 0.932 . S
H205 C240 0.931 . S
H206 C241 0.929 . S
H207 C243 0.929 . S
H208 C244 0.931 . S
H209 C246 0.929 . S
N210 C230 1.433 . S
N210 C236 1.435 1_554 S
N210 C242 1.423 . S
H211 C247 0.932 . S
C212 N187 1.433 . S
C212 C213 1.363 . S
C212 C217 1.370 . S
C213 H186 0.929 . S
C213 C212 1.363 . S
C213 C214 1.385 . S
C214 H188 0.930 . S
C214 C213 1.385 . S
C214 C215 1.357 . S
C215 C214 1.357 . S
C215 C216 1.406 . S
C216 H190 0.929 . S
C216 C215 1.406 . S
C216 C217 1.391 . S
C217 H189 0.931 . S
C217 C212 1.370 . S
C217 C216 1.391 . S
C218 N187 1.435 1_556 S
C218 C219 1.358 . S
C218 C223 1.371 . S
C219 H191 0.919 1_556 S
C219 C218 1.358 . S
C219 C220 1.405 . S
C220 H192 0.932 . S
C220 C219 1.405 . S
C220 C221 1.383 . S
C221 C220 1.383 . S
C221 C222 1.393 . S
C222 H194 0.931 . S
C222 C221 1.393 . S
C222 C223 1.382 . S
C223 H193 0.929 . S
C223 C218 1.371 . S
C223 C222 1.382 . S
C224 N187 1.423 . S
C224 C225 1.362 . S
C224 C229 1.388 1_554 S
C225 H195 0.929 . S
C225 C224 1.362 . S
C225 C226 1.376 . S
C226 H197 0.931 . S
C226 C225 1.376 . S
C226 C227 1.396 . S
C227 C226 1.396 . S
C227 C228 1.348 1_554 S
C227 C245 1.472 . S
C228 H198 0.929 . S
C228 C227 1.348 1_556 S
C228 C229 1.443 . S
C229 H196 0.932 . S
C229 C224 1.388 1_556 S
C229 C228 1.443 . S
C230 N210 1.433 . S
C230 C231 1.363 . S
C230 C235 1.370 . S
C231 H199 0.929 . S
C231 C230 1.363 . S
C231 C232 1.385 . S
C232 H200 0.930 . S
C232 C231 1.385 . S
C232 C233 1.357 . S
C233 C232 1.357 . S
C233 C234 1.406 . S
C234 H201 0.929 . S
C234 C233 1.406 . S
C234 C235 1.391 . S
C235 H202 0.931 . S
C235 C230 1.370 . S
C235 C234 1.391 . S
C236 N210 1.435 1_556 S
C236 C237 1.358 . S
C236 C241 1.371 . S
C237 H203 0.930 . S
C237 C236 1.358 . S
C237 C238 1.405 . S
C238 H204 0.932 . S
C238 C237 1.405 . S
C238 C239 1.383 . S
C239 C238 1.383 . S
C239 C240 1.393 . S
C240 H205 0.931 . S
C240 C239 1.393 . S
C240 C241 1.382 . S
C241 H206 0.929 . S
C241 C236 1.371 . S
C241 C240 1.382 . S
C242 N210 1.423 . S
C242 C243 1.362 . S
C242 C247 1.388 1_554 S
C243 H207 0.929 . S
C243 C242 1.362 . S
C243 C244 1.376 . S
C244 H208 0.931 . S
C244 C243 1.376 . S
C244 C245 1.396 . S
C245 C227 1.472 . S
C245 C244 1.396 . S
C245 C246 1.348 1_554 S
C246 H209 0.929 . S
C246 C245 1.348 1_556 S
C246 C247 1.443 . S
C247 H211 0.932 . S
C247 C242 1.388 1_556 S
C247 C246 1.443 . S
H248 C275 0.929 . S
N249 C274 1.433 . S
N249 C280 1.435 . S
N249 C286 1.423 . S
H250 C276 0.930 . S
H251 C279 0.931 . S
H252 C278 0.929 . S
H253 C281 0.930 . S
H254 C282 0.932 . S
H255 C285 0.929 . S
H256 C284 0.931 . S
H257 C287 0.929 . S
H258 C291 0.932 . S
H259 C288 0.931 . S
H260 C290 0.929 . S
H261 C293 0.929 . S
H262 C294 0.930 . S
H263 C296 0.929 . S
H264 C297 0.931 . S
H265 C299 0.930 . S
H266 C300 0.932 . S
H267 C302 0.931 . S
H268 C303 0.929 . S
H269 C305 0.929 . S
H270 C306 0.931 . S
H271 C308 0.929 . S
N272 C292 1.433 . S
N272 C298 1.435 . S
N272 C304 1.423 . S
H273 C309 0.932 . S
C274 N249 1.433 . S
C274 C275 1.363 . S
C274 C279 1.370 . S
C275 H248 0.929 . S
C275 C274 1.363 . S
C275 C276 1.385 . S
C276 H250 0.930 . S
C276 C275 1.385 . S
C276 C277 1.357 . S
C277 C276 1.357 . S
C277 C278 1.406 . S
C278 H252 0.929 . S
C278 C277 1.406 . S
C278 C279 1.391 . S
C279 H251 0.931 . S
C279 C274 1.370 . S
C279 C278 1.391 . S
C280 N249 1.435 . S
C280 C281 1.358 . S
C280 C285 1.371 1_554 S
C281 H253 0.930 . S
C281 C280 1.358 . S
C281 C282 1.405 . S
C282 H254 0.932 . S
C282 C281 1.405 . S
C282 C283 1.383 1_554 S
C283 C282 1.383 1_556 S
C283 C284 1.393 . S
C284 H256 0.931 . S
C284 C283 1.393 . S
C284 C285 1.382 . S
C285 H255 0.929 . S
C285 C280 1.371 1_556 S
C285 C284 1.382 . S
C286 N249 1.423 . S
C286 C287 1.362 . S
C286 C291 1.388 . S
C287 H257 0.929 . S
C287 C286 1.362 . S
C287 C288 1.376 . S
C288 H259 0.931 . S
C288 C287 1.376 . S
C288 C289 1.396 . S
C289 C288 1.396 . S
C289 C290 1.348 . S
C289 C307 1.472 . S
C290 H260 0.929 . S
C290 C289 1.348 . S
C290 C291 1.443 . S
C291 H258 0.932 . S
C291 C286 1.388 . S
C291 C290 1.443 . S
C292 N272 1.433 . S
C292 C293 1.363 . S
C292 C297 1.370 . S
C293 H261 0.929 . S
C293 C292 1.363 . S
C293 C294 1.385 . S
C294 H262 0.930 . S
C294 C293 1.385 . S
C294 C295 1.357 . S
C295 C294 1.357 . S
C295 C296 1.406 . S
C296 H263 0.929 . S
C296 C295 1.406 . S
C296 C297 1.391 . S
C297 H264 0.931 . S
C297 C292 1.370 . S
C297 C296 1.391 . S
C298 N272 1.435 . S
C298 C299 1.358 . S
C298 C303 1.371 . S
C299 H265 0.930 . S
C299 C298 1.358 . S
C299 C300 1.405 . S
C300 H266 0.932 . S
C300 C299 1.405 . S
C300 C301 1.383 1_554 S
C301 C300 1.383 1_556 S
C301 C302 1.393 . S
C302 H267 0.931 . S
C302 C301 1.393 . S
C302 C303 1.382 1_556 S
C303 H268 0.929 . S
C303 C298 1.371 . S
C303 C302 1.382 1_554 S
C304 N272 1.423 . S
C304 C305 1.362 . S
C304 C309 1.388 . S
C305 H269 0.929 . S
C305 C304 1.362 . S
C305 C306 1.376 . S
C306 H270 0.931 . S
C306 C305 1.376 . S
C306 C307 1.396 . S
C307 C289 1.472 . S
C307 C306 1.396 . S
C307 C308 1.348 . S
C308 H271 0.929 . S
C308 C307 1.348 . S
C308 C309 1.443 . S
C309 H273 0.932 . S
C309 C304 1.388 . S
C309 C308 1.443 . S
H310 C337 0.929 . S
N311 C336 1.433 . S
N311 C342 1.435 . S
N311 C348 1.423 . S
H312 C338 0.930 . S
H313 C341 0.931 . S
H314 C340 0.929 1_556 S
H315 C343 0.930 . S
H316 C344 0.932 . S
H317 C347 0.929 . S
H318 C346 0.931 . S
H319 C349 0.929 . S
H320 C353 0.932 . S
H321 C350 0.931 . S
H322 C352 0.929 . S
H323 C355 0.929 . S
H324 C356 0.930 . S
H325 C358 0.929 1_556 S
H326 C359 0.931 . S
H327 C361 0.930 . S
H328 C362 0.932 . S
H329 C364 0.931 . S
H330 C365 0.929 . S
H331 C367 0.929 . S
H332 C368 0.931 . S
H333 C370 0.929 . S
N334 C354 1.433 . S
N334 C360 1.435 . S
N334 C366 1.423 . S
H335 C371 0.932 . S
C336 N311 1.433 . S
C336 C337 1.363 . S
C336 C341 1.370 . S
C337 H310 0.929 . S
C337 C336 1.363 . S
C337 C338 1.385 . S
C338 H312 0.930 . S
C338 C337 1.385 . S
C338 C339 1.357 . S
C339 C338 1.357 . S
C339 C340 1.406 . S
C340 H314 0.929 1_554 S
C340 C339 1.406 . S
C340 C341 1.391 . S
C341 H313 0.931 . S
C341 C336 1.370 . S
C341 C340 1.391 . S
C342 N311 1.435 . S
C342 C343 1.358 . S
C342 C347 1.371 . S
C343 H315 0.930 . S
C343 C342 1.358 . S
C343 C344 1.405 . S
C344 H316 0.932 . S
C344 C343 1.405 . S
C344 C345 1.383 . S
C345 C344 1.383 . S
C345 C346 1.393 . S
C346 H318 0.931 . S
C346 C345 1.393 . S
C346 C347 1.382 . S
C347 H317 0.929 . S
C347 C342 1.371 . S
C347 C346 1.382 . S
C348 N311 1.423 . S
C348 C349 1.362 . S
C348 C353 1.388 . S
C349 H319 0.929 . S
C349 C348 1.362 . S
C349 C350 1.376 . S
C350 H321 0.931 . S
C350 C349 1.376 . S
C350 C351 1.396 . S
C351 C350 1.396 . S
C351 C352 1.348 . S
C351 C369 1.472 . S
C352 H322 0.929 . S
C352 C351 1.348 . S
C352 C353 1.443 . S
C353 H320 0.932 . S
C353 C348 1.388 . S
C353 C352 1.443 . S
C354 N334 1.433 . S
C354 C355 1.363 . S
C354 C359 1.370 . S
C355 H323 0.929 . S
C355 C354 1.363 . S
C355 C356 1.385 . S
C356 H324 0.930 . S
C356 C355 1.385 . S
C356 C357 1.357 1_554 S
C357 C356 1.357 1_556 S
C357 C358 1.406 1_556 S
C358 H325 0.929 1_554 S
C358 C357 1.406 1_554 S
C358 C359 1.391 . S
C359 H326 0.931 . S
C359 C354 1.370 . S
C359 C358 1.391 . S
C360 N334 1.435 . S
C360 C361 1.358 . S
C360 C365 1.371 . S
C361 H327 0.930 . S
C361 C360 1.358 . S
C361 C362 1.405 . S
C362 H328 0.932 . S
C362 C361 1.405 . S
C362 C363 1.383 . S
C363 C362 1.383 . S
C363 C364 1.393 . S
C364 H329 0.931 . S
C364 C363 1.393 . S
C364 C365 1.382 . S
C365 H330 0.929 . S
C365 C360 1.371 . S
C365 C364 1.382 . S
C366 N334 1.423 . S
C366 C367 1.362 . S
C366 C371 1.388 . S
C367 H331 0.929 . S
C367 C366 1.362 . S
C367 C368 1.376 . S
C368 H332 0.931 . S
C368 C367 1.376 . S
C368 C369 1.396 . S
C369 C351 1.472 . S
C369 C368 1.396 . S
C369 C370 1.348 . S
C370 H333 0.929 . S
C370 C369 1.348 . S
C370 C371 1.443 . S
C371 H335 0.932 . S
C371 C366 1.388 . S
C371 C370 1.443 . S
C372 O399 1.312 . S
C372 O400 1.208 . S
C373 O394 1.331 . S
C373 O397 1.244 . S
C374 O396 1.264 . S
C374 O398 1.273 . S
Mg375 O377 1.929 1_455 S
Mg375 O384 2.081 1_455 S
Mg375 O386 2.023 . S
Mg375 O390 2.031 1_455 S
Mg375 O399 2.291 . S
Mg376 O377 1.976 1_455 S
Mg376 O387 1.936 1_455 S
Mg376 O388 1.963 . S
Mg376 O395 1.980 1_455 S
O377 Mg375 1.929 1_655 S
O377 Mg376 1.976 1_655 S
O377 Mg378 1.908 1_655 S
Mg378 O377 1.908 1_455 S
Mg378 O379 1.915 . S
Mg378 O383 2.013 . S
Mg378 O389 2.114 1_455 S
Mg378 O393 2.013 1_455 S
Mg378 O399 2.114 . S
O379 Mg378 1.915 . S
O379 Mg380 1.936 . S
O379 Mg381 1.963 . S
Mg380 O379 1.936 . S
Mg380 O389 2.291 1_455 S
Mg380 O394 2.081 . S
Mg380 O396 2.023 1_455 S
Mg380 O400 2.031 . S
Mg381 O379 1.963 . S
Mg381 O385 1.986 . S
Mg381 O397 1.942 . S
Mg381 O398 1.955 1_455 S
C382 O393 1.191 . S
C382 O395 1.307 . S
O383 Mg378 2.013 . S
O383 C402 1.191 . S
O384 Mg375 2.081 1_655 S
O384 C392 1.331 . S
O385 Mg381 1.986 . S
O385 C402 1.307 . S
O386 Mg375 2.023 . S
O386 C401 1.264 . S
O387 Mg376 1.936 1_655 S
O387 C392 1.244 . S
O388 Mg376 1.963 . S
O388 C401 1.273 . S
O389 Mg378 2.114 1_655 S
O389 Mg380 2.291 1_655 S
O389 C391 1.312 . S
O390 Mg375 2.031 1_655 S
O390 C391 1.208 . S
C391 O389 1.312 . S
C391 O390 1.208 . S
C392 O384 1.331 . S
C392 O387 1.244 . S
O393 Mg378 2.013 1_655 S
O393 C382 1.191 . S
O394 C373 1.331 . S
O394 Mg380 2.081 . S
O395 Mg376 1.980 1_655 S
O395 C382 1.307 . S
O396 C374 1.264 . S
O396 Mg380 2.023 1_655 S
O397 C373 1.244 . S
O397 Mg381 1.942 . S
O398 C374 1.273 . S
O398 Mg381 1.955 1_655 S
O399 C372 1.312 . S
O399 Mg375 2.291 . S
O399 Mg378 2.114 . S
O400 C372 1.208 . S
O400 Mg380 2.031 . S
C401 O386 1.264 . S
C401 O388 1.273 . S
C402 O383 1.191 . S
C402 O385 1.307 . S
C403 O430 1.312 . S
C403 O431 1.208 . S
C404 O425 1.331 . S
C404 O428 1.244 . S
C405 O427 1.264 . S
C405 O429 1.273 . S
Mg406 O408 1.936 1_545 S
Mg406 O415 2.081 1_545 S
Mg406 O417 2.023 . S
Mg406 O421 2.031 1_545 S
Mg406 O430 2.291 . S
Mg407 O408 1.955 . S
Mg407 O418 1.952 . S
Mg407 O419 1.897 1_565 S
Mg407 O426 2.040 . S
O408 Mg406 1.936 1_565 S
O408 Mg407 1.955 . S
O408 Mg409 1.915 1_565 S
Mg409 O408 1.915 1_545 S
Mg409 O410 1.915 . S
Mg409 O414 2.013 . S
Mg409 O420 2.114 1_545 S
Mg409 O424 2.013 1_545 S
Mg409 O430 2.114 . S
O410 Mg409 1.915 . S
O410 Mg411 1.936 . S
O410 Mg412 1.963 . S
Mg411 O410 1.936 . S
Mg411 O420 2.291 1_545 S
Mg411 O425 2.081 . S
Mg411 O427 2.023 1_545 S
Mg411 O431 2.031 . S
Mg412 O410 1.963 . S
Mg412 O416 1.986 . S
Mg412 O428 1.942 . S
Mg412 O429 1.955 1_545 S
C413 O424 1.191 . S
C413 O426 1.307 . S
O414 Mg409 2.013 . S
O414 C433 1.191 . S
O415 Mg406 2.081 1_565 S
O415 C423 1.331 . S
O416 Mg412 1.986 . S
O416 C433 1.307 . S
O417 Mg406 2.023 . S
O417 C432 1.264 . S
O418 Mg407 1.952 . S
O418 C423 1.244 . S
O419 Mg407 1.897 1_545 S
O419 C432 1.273 . S
O420 Mg409 2.114 1_565 S
O420 Mg411 2.291 1_565 S
O420 C422 1.312 . S
O421 Mg406 2.031 1_565 S
O421 C422 1.208 . S
C422 O420 1.312 . S
C422 O421 1.208 . S
C423 O415 1.331 . S
C423 O418 1.244 . S
O424 Mg409 2.013 1_565 S
O424 C413 1.191 . S
O425 C404 1.331 . S
O425 Mg411 2.081 . S
O426 Mg407 2.040 . S
O426 C413 1.307 . S
O427 C405 1.264 . S
O427 Mg411 2.023 1_565 S
O428 C404 1.244 . S
O428 Mg412 1.942 . S
O429 C405 1.273 . S
O429 Mg412 1.955 1_565 S
O430 C403 1.312 . S
O430 Mg406 2.291 . S
O430 Mg409 2.114 . S
O431 C403 1.208 . S
O431 Mg411 2.031 . S
C432 O417 1.264 . S
C432 O419 1.273 . S
C433 O414 1.191 . S
C433 O416 1.307 . S
C434 O461 1.312 . S
C434 O462 1.208 . S
C435 O456 1.331 . S
C435 O459 1.244 . S
C436 O458 1.264 . S
C436 O460 1.273 . S
Mg437 O439 1.936 . S
Mg437 O446 2.081 . S
Mg437 O448 2.023 . S
Mg437 O452 2.031 . S
Mg437 O461 2.291 . S
Mg438 O439 1.963 . S
Mg438 O449 1.942 . S
Mg438 O450 1.955 . S
Mg438 O457 1.986 . S
O439 Mg437 1.936 . S
O439 Mg438 1.963 . S
O439 Mg440 1.915 . S
Mg440 O439 1.915 . S
Mg440 O441 1.915 . S
Mg440 O445 2.013 . S
Mg440 O451 2.114 . S
Mg440 O455 2.013 . S
Mg440 O461 2.114 . S
O441 Mg440 1.915 . S
O441 Mg442 1.936 . S
O441 Mg443 1.963 . S
Mg442 O441 1.936 . S
Mg442 O451 2.291 . S
Mg442 O456 2.081 . S
Mg442 O458 2.023 . S
Mg442 O462 2.031 . S
Mg443 O441 1.963 . S
Mg443 O447 1.986 . S
Mg443 O459 1.942 . S
Mg443 O460 1.955 . S
C444 O455 1.191 . S
C444 O457 1.307 . S
O445 Mg440 2.013 . S
O445 C464 1.191 . S
O446 Mg437 2.081 . S
O446 C454 1.331 . S
O447 Mg443 1.986 . S
O447 C464 1.307 . S
O448 Mg437 2.023 . S
O448 C463 1.264 . S
O449 Mg438 1.942 . S
O449 C454 1.244 . S
O450 Mg438 1.955 . S
O450 C463 1.273 . S
O451 Mg440 2.114 . S
O451 Mg442 2.291 . S
O451 C453 1.312 . S
O452 Mg437 2.031 . S
O452 C453 1.208 . S
C453 O451 1.312 . S
C453 O452 1.208 . S
C454 O446 1.331 . S
C454 O449 1.244 . S
O455 Mg440 2.013 . S
O455 C444 1.191 . S
O456 C435 1.331 . S
O456 Mg442 2.081 . S
O457 Mg438 1.986 . S
O457 C444 1.307 . S
O458 C436 1.264 . S
O458 Mg442 2.023 . S
O459 C435 1.244 . S
O459 Mg443 1.942 . S
O460 C436 1.273 . S
O460 Mg443 1.955 . S
O461 C434 1.312 . S
O461 Mg437 2.291 . S
O461 Mg440 2.114 . S
O462 C434 1.208 . S
O462 Mg442 2.031 . S
C463 O448 1.264 . S
C463 O450 1.273 . S
C464 O445 1.191 . S
C464 O447 1.307 . S
H465 C477 0.930 . S
H466 C479 0.930 . S
H467 C480 0.930 . S
H468 C484 0.959 . S
H469 C484 0.959 . S
H470 C484 0.961 . S
H471 C485 0.960 . S
H472 C485 0.961 . S
H473 C485 0.959 . S
H474 C488 0.929 . S
H475 C489 0.931 . S
H476 C491 0.930 . S
C477 H465 0.930 . S
C477 C478 1.399 . S
C477 C482 1.399 . S
C478 C477 1.399 . S
C478 C479 1.376 . S
C479 H466 0.930 . S
C479 C478 1.376 . S
C479 C480 1.388 . S
C480 H467 0.930 . S
C480 C479 1.388 . S
C480 C481 1.390 . S
C481 C480 1.390 . S
C481 C482 1.394 . S
C481 C487 1.465 . S
C482 C477 1.399 . S
C482 C481 1.394 . S
C482 C483 1.516 . S
C483 C482 1.516 . S
C483 C484 1.502 . S
C483 C485 1.561 . S
C483 C486 1.526 . S
C484 H468 0.959 . S
C484 H469 0.959 . S
C484 H470 0.961 . S
C484 C483 1.502 . S
C485 H471 0.960 . S
C485 H472 0.961 . S
C485 H473 0.959 . S
C485 C483 1.561 . S
C486 C483 1.526 . S
C486 C487 1.396 . S
C486 C491 1.390 . S
C487 C481 1.465 . S
C487 C486 1.396 . S
C487 C488 1.399 . S
C488 H474 0.929 . S
C488 C487 1.399 . S
C488 C489 1.385 . S
C489 H475 0.931 . S
C489 C488 1.385 . S
C489 C490 1.389 . S
C490 C489 1.389 . S
C490 C491 1.387 . S
C491 H476 0.930 . S
C491 C486 1.390 . S
C491 C490 1.387 . S
H492 C504 0.930 . S
H493 C506 0.930 . S
H494 C507 0.930 . S
H495 C511 0.959 . S
H496 C511 0.959 . S
H497 C511 0.961 . S
H498 C512 0.960 . S
H499 C512 0.961 . S
H500 C512 0.959 . S
H501 C515 0.929 . S
H502 C516 0.931 . S
H503 C518 0.930 . S
C504 H492 0.930 . S
C504 C505 1.399 . S
C504 C509 1.399 . S
C505 C504 1.399 . S
C505 C506 1.376 . S
C506 H493 0.930 . S
C506 C505 1.376 . S
C506 C507 1.388 . S
C507 H494 0.930 . S
C507 C506 1.388 . S
C507 C508 1.390 . S
C508 C507 1.390 . S
C508 C509 1.394 . S
C508 C514 1.465 . S
C509 C504 1.399 . S
C509 C508 1.394 . S
C509 C510 1.516 . S
C510 C509 1.516 . S
C510 C511 1.502 . S
C510 C512 1.561 . S
C510 C513 1.526 . S
C511 H495 0.959 . S
C511 H496 0.959 . S
C511 H497 0.961 . S
C511 C510 1.502 . S
C512 H498 0.960 . S
C512 H499 0.961 . S
C512 H500 0.959 . S
C512 C510 1.561 . S
C513 C510 1.526 . S
C513 C514 1.396 . S
C513 C518 1.390 . S
C514 C508 1.465 . S
C514 C513 1.396 . S
C514 C515 1.399 . S
C515 H501 0.929 . S
C515 C514 1.399 . S
C515 C516 1.385 . S
C516 H502 0.931 . S
C516 C515 1.385 . S
C516 C517 1.389 . S
C517 C516 1.389 . S
C517 C518 1.387 . S
C518 H503 0.930 . S
C518 C513 1.390 . S
C518 C517 1.387 . S
H519 C531 0.930 . S
H520 C533 0.930 . S
H521 C534 0.930 . S
H522 C538 0.959 . S
H523 C538 0.959 . S
H524 C538 0.961 . S
H525 C539 0.960 . S
H526 C539 0.961 . S
H527 C539 0.959 . S
H528 C542 0.929 . S
H529 C543 0.931 . S
H530 C545 0.930 . S
C531 H519 0.930 . S
C531 C532 1.399 . S
C531 C536 1.399 . S
C532 C531 1.399 . S
C532 C533 1.376 . S
C533 H520 0.930 . S
C533 C532 1.376 . S
C533 C534 1.388 . S
C534 H521 0.930 . S
C534 C533 1.388 . S
C534 C535 1.390 . S
C535 C534 1.390 . S
C535 C536 1.394 . S
C535 C541 1.465 . S
C536 C531 1.399 . S
C536 C535 1.394 . S
C536 C537 1.516 . S
C537 C536 1.516 . S
C537 C538 1.502 . S
C537 C539 1.561 . S
C537 C540 1.526 . S
C538 H522 0.959 . S
C538 H523 0.959 . S
C538 H524 0.961 . S
C538 C537 1.502 . S
C539 H525 0.960 . S
C539 H526 0.961 . S
C539 H527 0.959 . S
C539 C537 1.561 . S
C540 C537 1.526 . S
C540 C541 1.396 . S
C540 C545 1.390 . S
C541 C535 1.465 . S
C541 C540 1.396 . S
C541 C542 1.399 . S
C542 H528 0.929 . S
C542 C541 1.399 . S
C542 C543 1.385 . S
C543 H529 0.931 . S
C543 C542 1.385 . S
C543 C544 1.389 . S
C544 C543 1.389 . S
C544 C545 1.387 . S
C545 H530 0.930 . S
C545 C540 1.390 . S
C545 C544 1.387 . S
H546 C558 0.930 . S
H547 C560 0.930 . S
H548 C561 0.930 . S
H549 C565 0.959 . S
H550 C565 0.959 . S
H551 C565 0.961 . S
H552 C566 0.960 . S
H553 C566 0.961 . S
H554 C566 0.959 . S
H555 C569 0.929 . S
H556 C570 0.931 . S
H557 C572 0.930 . S
C558 H546 0.930 . S
C558 C559 1.399 . S
C558 C563 1.399 . S
C559 C558 1.399 . S
C559 C560 1.376 . S
C560 H547 0.930 . S
C560 C559 1.376 . S
C560 C561 1.388 . S
C561 H548 0.930 . S
C561 C560 1.388 . S
C561 C562 1.390 . S
C562 C561 1.390 . S
C562 C563 1.394 . S
C562 C568 1.465 . S
C563 C558 1.399 . S
C563 C562 1.394 . S
C563 C564 1.516 . S
C564 C563 1.516 . S
C564 C565 1.502 . S
C564 C566 1.561 . S
C564 C567 1.526 . S
C565 H549 0.959 . S
C565 H550 0.959 . S
C565 H551 0.961 . S
C565 C564 1.502 . S
C566 H552 0.960 . S
C566 H553 0.961 . S
C566 H554 0.959 . S
C566 C564 1.561 . S
C567 C564 1.526 . S
C567 C568 1.396 . S
C567 C572 1.390 . S
C568 C562 1.465 . S
C568 C567 1.396 . S
C568 C569 1.399 . S
C569 H555 0.929 . S
C569 C568 1.399 . S
C569 C570 1.385 . S
C570 H556 0.931 . S
C570 C569 1.385 . S
C570 C571 1.389 . S
C571 C570 1.389 . S
C571 C572 1.387 . S
C572 H557 0.930 . S
C572 C567 1.390 . S
C572 C571 1.387 . S
H573 C585 0.930 . S
H574 C587 0.930 . S
H575 C588 0.930 . S
H576 C592 0.959 . S
H577 C592 0.959 . S
H578 C592 0.961 . S
H579 C593 0.960 . S
H580 C593 0.961 . S
H581 C593 0.959 . S
H582 C596 0.929 . S
H583 C597 0.931 . S
H584 C599 0.930 . S
C585 H573 0.930 . S
C585 C586 1.399 . S
C585 C590 1.399 . S
C586 C585 1.399 . S
C586 C587 1.376 . S
C587 H574 0.930 . S
C587 C586 1.376 . S
C587 C588 1.388 . S
C588 H575 0.930 . S
C588 C587 1.388 . S
C588 C589 1.390 . S
C589 C588 1.390 . S
C589 C590 1.394 . S
C589 C595 1.465 . S
C590 C585 1.399 . S
C590 C589 1.394 . S
C590 C591 1.516 . S
C591 C590 1.516 . S
C591 C592 1.502 . S
C591 C593 1.561 . S
C591 C594 1.526 . S
C592 H576 0.959 . S
C592 H577 0.959 . S
C592 H578 0.961 . S
C592 C591 1.502 . S
C593 H579 0.960 . S
C593 H580 0.961 . S
C593 H581 0.959 . S
C593 C591 1.561 . S
C594 C591 1.526 . S
C594 C595 1.396 . S
C594 C599 1.390 . S
C595 C589 1.465 . S
C595 C594 1.396 . S
C595 C596 1.399 . S
C596 H582 0.929 . S
C596 C595 1.399 . S
C596 C597 1.385 . S
C597 H583 0.931 . S
C597 C596 1.385 . S
C597 C598 1.389 . S
C598 C597 1.389 . S
C598 C599 1.387 . S
C599 H584 0.930 . S
C599 C594 1.390 . S
C599 C598 1.387 . S
H600 C612 0.930 . S
H601 C614 0.930 . S
H602 C615 0.930 . S
H603 C619 0.959 . S
H604 C619 0.959 . S
H605 C619 0.961 . S
H606 C620 0.960 . S
H607 C620 0.961 . S
H608 C620 0.959 . S
H609 C623 0.929 . S
H610 C624 0.931 . S
H611 C626 0.930 . S
C612 H600 0.930 . S
C612 C613 1.399 . S
C612 C617 1.399 . S
C613 C612 1.399 . S
C613 C614 1.376 . S
C614 H601 0.930 . S
C614 C613 1.376 . S
C614 C615 1.388 . S
C615 H602 0.930 . S
C615 C614 1.388 . S
C615 C616 1.390 . S
C616 C615 1.390 . S
C616 C617 1.394 . S
C616 C622 1.465 . S
C617 C612 1.399 . S
C617 C616 1.394 . S
C617 C618 1.516 . S
C618 C617 1.516 . S
C618 C619 1.502 . S
C618 C620 1.561 . S
C618 C621 1.526 . S
C619 H603 0.959 . S
C619 H604 0.959 . S
C619 H605 0.961 . S
C619 C618 1.502 . S
C620 H606 0.960 . S
C620 H607 0.961 . S
C620 H608 0.959 . S
C620 C618 1.561 . S
C621 C618 1.526 . S
C621 C622 1.396 . S
C621 C626 1.390 . S
C622 C616 1.465 . S
C622 C621 1.396 . S
C622 C623 1.399 . S
C623 H609 0.929 . S
C623 C622 1.399 . S
C623 C624 1.385 . S
C624 H610 0.931 . S
C624 C623 1.385 . S
C624 C625 1.389 . S
C625 C624 1.389 . S
C625 C626 1.387 . S
C626 H611 0.930 . S
C626 C621 1.390 . S
C626 C625 1.387 . S
H627 C639 0.930 . S
H628 C641 0.930 . S
H629 C642 0.930 . S
H630 C646 0.959 . S
H631 C646 0.959 . S
H632 C646 0.961 . S
H633 C647 0.960 . S
H634 C647 0.961 . S
H635 C647 0.959 . S
H636 C650 0.929 . S
H637 C651 0.931 . S
H638 C653 0.930 . S
C639 H627 0.930 . S
C639 C640 1.399 . S
C639 C644 1.399 . S
C640 C639 1.399 . S
C640 C641 1.376 . S
C641 H628 0.930 . S
C641 C640 1.376 . S
C641 C642 1.388 . S
C642 H629 0.930 . S
C642 C641 1.388 . S
C642 C643 1.390 . S
C643 C642 1.390 . S
C643 C644 1.394 . S
C643 C649 1.465 . S
C644 C639 1.399 . S
C644 C643 1.394 . S
C644 C645 1.516 . S
C645 C644 1.516 . S
C645 C646 1.502 . S
C645 C647 1.561 . S
C645 C648 1.526 . S
C646 H630 0.959 . S
C646 H631 0.959 . S
C646 H632 0.961 . S
C646 C645 1.502 . S
C647 H633 0.960 . S
C647 H634 0.961 . S
C647 H635 0.959 . S
C647 C645 1.561 . S
C648 C645 1.526 . S
C648 C649 1.396 . S
C648 C653 1.390 . S
C649 C643 1.465 . S
C649 C648 1.396 . S
C649 C650 1.399 . S
C650 H636 0.929 . S
C650 C649 1.399 . S
C650 C651 1.385 . S
C651 H637 0.931 . S
C651 C650 1.385 . S
C651 C652 1.389 . S
C652 C651 1.389 . S
C652 C653 1.387 . S
C653 H638 0.930 . S
C653 C648 1.390 . S
C653 C652 1.387 . S
H654 C666 0.930 . S
H655 C668 0.930 . S
H656 C669 0.930 . S
H657 C673 0.959 . S
H658 C673 0.959 . S
H659 C673 0.961 . S
H660 C674 0.960 . S
H661 C674 0.961 . S
H662 C674 0.959 . S
H663 C677 0.929 . S
H664 C678 0.931 . S
H665 C680 0.930 . S
C666 H654 0.930 . S
C666 C667 1.399 . S
C666 C671 1.399 . S
C667 C666 1.399 . S
C667 C668 1.376 . S
C668 H655 0.930 . S
C668 C667 1.376 . S
C668 C669 1.388 . S
C669 H656 0.930 . S
C669 C668 1.388 . S
C669 C670 1.390 . S
C670 C669 1.390 . S
C670 C671 1.394 . S
C670 C676 1.465 . S
C671 C666 1.399 . S
C671 C670 1.394 . S
C671 C672 1.516 . S
C672 C671 1.516 . S
C672 C673 1.502 . S
C672 C674 1.561 . S
C672 C675 1.526 . S
C673 H657 0.959 . S
C673 H658 0.959 . S
C673 H659 0.961 . S
C673 C672 1.502 . S
C674 H660 0.960 . S
C674 H661 0.961 . S
C674 H662 0.959 . S
C674 C672 1.561 . S
C675 C672 1.526 . S
C675 C676 1.396 . S
C675 C680 1.390 . S
C676 C670 1.465 . S
C676 C675 1.396 . S
C676 C677 1.399 . S
C677 H663 0.929 . S
C677 C676 1.399 . S
C677 C678 1.385 . S
C678 H664 0.931 . S
C678 C677 1.385 . S
C678 C679 1.389 . S
C679 C678 1.389 . S
C679 C680 1.387 . S
C680 H665 0.930 . S
C680 C675 1.390 . S
C680 C679 1.387 . S
H681 C693 0.930 . S
H682 C695 0.930 . S
H683 C696 0.930 . S
H684 C700 0.959 . S
H685 C700 0.959 . S
H686 C700 0.961 . S
H687 C701 0.960 . S
H688 C701 0.961 . S
H689 C701 0.959 . S
H690 C704 0.929 . S
H691 C705 0.931 . S
H692 C707 0.930 . S
C693 H681 0.930 . S
C693 C694 1.399 . S
C693 C698 1.399 . S
C694 C693 1.399 . S
C694 C695 1.376 . S
C695 H682 0.930 . S
C695 C694 1.376 . S
C695 C696 1.388 . S
C696 H683 0.930 . S
C696 C695 1.388 . S
C696 C697 1.390 . S
C697 C696 1.390 . S
C697 C698 1.394 . S
C697 C703 1.465 . S
C698 C693 1.399 . S
C698 C697 1.394 . S
C698 C699 1.516 . S
C699 C698 1.516 . S
C699 C700 1.502 . S
C699 C701 1.561 . S
C699 C702 1.526 . S
C700 H684 0.959 . S
C700 H685 0.959 . S
C700 H686 0.961 . S
C700 C699 1.502 . S
C701 H687 0.960 . S
C701 H688 0.961 . S
C701 H689 0.959 . S
C701 C699 1.561 . S
C702 C699 1.526 . S
C702 C703 1.396 . S
C702 C707 1.390 . S
C703 C697 1.465 . S
C703 C702 1.396 . S
C703 C704 1.399 . S
C704 H690 0.929 . S
C704 C703 1.399 . S
C704 C705 1.385 . S
C705 H691 0.931 . S
C705 C704 1.385 . S
C705 C706 1.389 . S
C706 C705 1.389 . S
C706 C707 1.387 . S
C707 H692 0.930 . S
C707 C702 1.390 . S
C707 C706 1.387 . S
H708 C720 0.930 . S
H709 C722 0.930 . S
H710 C723 0.930 . S
H711 C727 0.959 . S
H712 C727 0.959 . S
H713 C727 0.961 . S
H714 C728 0.960 . S
H715 C728 0.961 . S
H716 C728 0.959 . S
H717 C731 0.929 . S
H718 C732 0.931 . S
H719 C734 0.930 . S
C720 H708 0.930 . S
C720 C721 1.399 . S
C720 C725 1.399 . S
C721 C720 1.399 . S
C721 C722 1.376 . S
C722 H709 0.930 . S
C722 C721 1.376 . S
C722 C723 1.388 . S
C723 H710 0.930 . S
C723 C722 1.388 . S
C723 C724 1.390 . S
C724 C723 1.390 . S
C724 C725 1.394 . S
C724 C730 1.465 . S
C725 C720 1.399 . S
C725 C724 1.394 . S
C725 C726 1.516 . S
C726 C725 1.516 . S
C726 C727 1.502 . S
C726 C728 1.561 . S
C726 C729 1.526 . S
C727 H711 0.959 . S
C727 H712 0.959 . S
C727 H713 0.961 . S
C727 C726 1.502 . S
C728 H714 0.960 . S
C728 H715 0.961 . S
C728 H716 0.959 . S
C728 C726 1.561 . S
C729 C726 1.526 . S
C729 C730 1.396 . S
C729 C734 1.390 . S
C730 C724 1.465 . S
C730 C729 1.396 . S
C730 C731 1.399 . S
C731 H717 0.929 . S
C731 C730 1.399 . S
C731 C732 1.385 . S
C732 H718 0.931 . S
C732 C731 1.385 . S
C732 C733 1.389 . S
C733 C732 1.389 . S
C733 C734 1.387 . S
C734 H719 0.930 . S
C734 C729 1.390 . S
C734 C733 1.387 . S
H735 C747 0.930 . S
H736 C749 0.930 . S
H737 C750 0.930 . S
H738 C754 0.959 . S
H739 C754 0.959 . S
H740 C754 0.961 . S
H741 C755 0.960 . S
H742 C755 0.961 . S
H743 C755 0.959 . S
H744 C758 0.929 . S
H745 C759 0.931 . S
H746 C761 0.930 . S
C747 H735 0.930 . S
C747 C748 1.399 . S
C747 C752 1.399 . S
C748 C747 1.399 . S
C748 C749 1.376 . S
C749 H736 0.930 . S
C749 C748 1.376 . S
C749 C750 1.388 . S
C750 H737 0.930 . S
C750 C749 1.388 . S
C750 C751 1.390 . S
C751 C750 1.390 . S
C751 C752 1.394 . S
C751 C757 1.465 . S
C752 C747 1.399 . S
C752 C751 1.394 . S
C752 C753 1.516 . S
C753 C752 1.516 . S
C753 C754 1.502 . S
C753 C755 1.561 . S
C753 C756 1.526 . S
C754 H738 0.959 . S
C754 H739 0.959 . S
C754 H740 0.961 . S
C754 C753 1.502 . S
C755 H741 0.960 . S
C755 H742 0.961 . S
C755 H743 0.959 . S
C755 C753 1.561 . S
C756 C753 1.526 . S
C756 C757 1.396 . S
C756 C761 1.390 . S
C757 C751 1.465 . S
C757 C756 1.396 . S
C757 C758 1.399 . S
C758 H744 0.929 . S
C758 C757 1.399 . S
C758 C759 1.385 . S
C759 H745 0.931 . S
C759 C758 1.385 . S
C759 C760 1.389 . S
C760 C759 1.389 . S
C760 C761 1.387 . S
C761 H746 0.930 . S
C761 C756 1.390 . S
C761 C760 1.387 . S
H762 C774 0.930 . S
H763 C776 0.930 . S
H764 C777 0.930 . S
H765 C781 0.959 . S
H766 C781 0.959 . S
H767 C781 0.961 . S
H768 C782 0.960 . S
H769 C782 0.961 . S
H770 C782 0.959 . S
H771 C785 0.929 . S
H772 C786 0.931 . S
H773 C788 0.930 . S
C774 H762 0.930 . S
C774 C775 1.399 . S
C774 C779 1.399 . S
C775 C774 1.399 . S
C775 C776 1.376 . S
C776 H763 0.930 . S
C776 C775 1.376 . S
C776 C777 1.388 . S
C777 H764 0.930 . S
C777 C776 1.388 . S
C777 C778 1.390 . S
C778 C777 1.390 . S
C778 C779 1.394 . S
C778 C784 1.465 . S
C779 C774 1.399 . S
C779 C778 1.394 . S
C779 C780 1.516 . S
C780 C779 1.516 . S
C780 C781 1.502 . S
C780 C782 1.561 . S
C780 C783 1.526 . S
C781 H765 0.959 . S
C781 H766 0.959 . S
C781 H767 0.961 . S
C781 C780 1.502 . S
C782 H768 0.960 . S
C782 H769 0.961 . S
C782 H770 0.959 . S
C782 C780 1.561 . S
C783 C780 1.526 . S
C783 C784 1.396 . S
C783 C788 1.390 . S
C784 C778 1.465 . S
C784 C783 1.396 . S
C784 C785 1.399 . S
C785 H771 0.929 . S
C785 C784 1.399 . S
C785 C786 1.385 . S
C786 H772 0.931 . S
C786 C785 1.385 . S
C786 C787 1.389 . S
C787 C786 1.389 . S
C787 C788 1.387 . S
C788 H773 0.930 . S
C788 C783 1.390 . S
C788 C787 1.387 . S
H789 C801 0.930 . S
H790 C803 0.930 . S
H791 C804 0.930 . S
H792 C808 0.959 . S
H793 C808 0.959 . S
H794 C808 0.961 . S
H795 C809 0.960 . S
H796 C809 0.961 . S
H797 C809 0.959 . S
H798 C812 0.929 . S
H799 C813 0.931 . S
H800 C815 0.930 . S
C801 H789 0.930 . S
C801 C802 1.399 . S
C801 C806 1.399 . S
C802 C801 1.399 . S
C802 C803 1.376 . S
C803 H790 0.930 . S
C803 C802 1.376 . S
C803 C804 1.388 . S
C804 H791 0.930 . S
C804 C803 1.388 . S
C804 C805 1.390 . S
C805 C804 1.390 . S
C805 C806 1.394 . S
C805 C811 1.465 . S
C806 C801 1.399 . S
C806 C805 1.394 . S
C806 C807 1.516 . S
C807 C806 1.516 . S
C807 C808 1.502 . S
C807 C809 1.561 . S
C807 C810 1.526 . S
C808 H792 0.959 . S
C808 H793 0.959 . S
C808 H794 0.961 . S
C808 C807 1.502 . S
C809 H795 0.960 . S
C809 H796 0.961 . S
C809 H797 0.959 . S
C809 C807 1.561 . S
C810 C807 1.526 . S
C810 C811 1.396 . S
C810 C815 1.390 . S
C811 C805 1.465 . S
C811 C810 1.396 . S
C811 C812 1.399 . S
C812 H798 0.929 . S
C812 C811 1.399 . S
C812 C813 1.385 . S
C813 H799 0.931 . S
C813 C812 1.385 . S
C813 C814 1.389 . S
C814 C813 1.389 . S
C814 C815 1.387 . S
C815 H800 0.930 . S
C815 C810 1.390 . S
C815 C814 1.387 . S
H816 C828 0.930 . S
H817 C830 0.930 . S
H818 C831 0.930 . S
H819 C835 0.959 . S
H820 C835 0.959 . S
H821 C835 0.961 . S
H822 C836 0.960 . S
H823 C836 0.961 . S
H824 C836 0.959 . S
H825 C839 0.929 . S
H826 C840 0.931 . S
H827 C842 0.930 . S
C828 H816 0.930 . S
C828 C829 1.399 . S
C828 C833 1.399 . S
C829 C828 1.399 . S
C829 C830 1.376 . S
C830 H817 0.930 . S
C830 C829 1.376 . S
C830 C831 1.388 . S
C831 H818 0.930 . S
C831 C830 1.388 . S
C831 C832 1.390 . S
C832 C831 1.390 . S
C832 C833 1.394 . S
C832 C838 1.465 . S
C833 C828 1.399 . S
C833 C832 1.394 . S
C833 C834 1.516 . S
C834 C833 1.516 . S
C834 C835 1.502 . S
C834 C836 1.561 . S
C834 C837 1.526 . S
C835 H819 0.959 . S
C835 H820 0.959 . S
C835 H821 0.961 . S
C835 C834 1.502 . S
C836 H822 0.960 . S
C836 H823 0.961 . S
C836 H824 0.959 . S
C836 C834 1.561 . S
C837 C834 1.526 . S
C837 C838 1.396 . S
C837 C842 1.390 . S
C838 C832 1.465 . S
C838 C837 1.396 . S
C838 C839 1.399 . S
C839 H825 0.929 . S
C839 C838 1.399 . S
C839 C840 1.385 . S
C840 H826 0.931 . S
C840 C839 1.385 . S
C840 C841 1.389 . S
C841 C840 1.389 . S
C841 C842 1.387 . S
C842 H827 0.930 . S
C842 C837 1.390 . S
C842 C841 1.387 . S
H843 C855 0.930 . S
H844 C857 0.930 . S
H845 C858 0.930 . S
H846 C862 0.959 . S
H847 C862 0.959 . S
H848 C862 0.961 . S
H849 C863 0.960 . S
H850 C863 0.961 . S
H851 C863 0.959 . S
H852 C866 0.929 . S
H853 C867 0.931 . S
H854 C869 0.930 . S
C855 H843 0.930 . S
C855 C856 1.399 . S
C855 C860 1.399 . S
C856 C855 1.399 . S
C856 C857 1.376 . S
C857 H844 0.930 . S
C857 C856 1.376 . S
C857 C858 1.388 . S
C858 H845 0.930 . S
C858 C857 1.388 . S
C858 C859 1.390 . S
C859 C858 1.390 . S
C859 C860 1.394 . S
C859 C865 1.465 . S
C860 C855 1.399 . S
C860 C859 1.394 . S
C860 C861 1.516 . S
C861 C860 1.516 . S
C861 C862 1.502 . S
C861 C863 1.561 . S
C861 C864 1.526 . S
C862 H846 0.959 . S
C862 H847 0.959 . S
C862 H848 0.961 . S
C862 C861 1.502 . S
C863 H849 0.960 . S
C863 H850 0.961 . S
C863 H851 0.959 . S
C863 C861 1.561 . S
C864 C861 1.526 . S
C864 C865 1.396 . S
C864 C869 1.390 . S
C865 C859 1.465 . S
C865 C864 1.396 . S
C865 C866 1.399 . S
C866 H852 0.929 . S
C866 C865 1.399 . S
C866 C867 1.385 . S
C867 H853 0.931 . S
C867 C866 1.385 . S
C867 C868 1.389 . S
C868 C867 1.389 . S
C868 C869 1.387 . S
C869 H854 0.930 . S
C869 C864 1.390 . S
C869 C868 1.387 . S
H870 C882 0.930 . S
H871 C884 0.946 . S
H872 C885 0.930 . S
H873 C889 0.959 . S
H874 C889 0.959 . S
H875 C889 0.961 . S
H876 C890 0.960 . S
H877 C890 0.961 . S
H878 C890 0.959 . S
H879 C893 0.929 . S
H880 C894 0.931 . S
H881 C896 0.930 . S
C882 H870 0.930 . S
C882 C883 1.399 . S
C882 C887 1.399 . S
C883 C882 1.399 . S
C883 C884 1.373 1_556 S
C884 H871 0.946 . S
C884 C883 1.373 1_554 S
C884 C885 1.377 1_554 S
C885 H872 0.930 . S
C885 C884 1.377 1_556 S
C885 C886 1.390 . S
C886 C885 1.390 . S
C886 C887 1.394 . S
C886 C892 1.465 . S
C887 C882 1.399 . S
C887 C886 1.394 . S
C887 C888 1.516 . S
C888 C887 1.516 . S
C888 C889 1.502 . S
C888 C890 1.561 . S
C888 C891 1.526 . S
C889 H873 0.959 . S
C889 H874 0.959 . S
C889 H875 0.961 . S
C889 C888 1.502 . S
C890 H876 0.960 . S
C890 H877 0.961 . S
C890 H878 0.959 . S
C890 C888 1.561 . S
C891 C888 1.526 . S
C891 C892 1.396 . S
C891 C896 1.390 . S
C892 C886 1.465 . S
C892 C891 1.396 . S
C892 C893 1.399 . S
C893 H879 0.929 . S
C893 C892 1.399 . S
C893 C894 1.385 . S
C894 H880 0.931 . S
C894 C893 1.385 . S
C894 C895 1.389 . S
C895 C894 1.389 . S
C895 C896 1.387 . S
C896 H881 0.930 . S
C896 C891 1.390 . S
C896 C895 1.387 . S
H897 C909 0.930 . S
H898 C911 0.930 . S
H899 C912 0.930 . S
H900 C916 0.959 . S
H901 C916 0.959 . S
H902 C916 0.961 . S
H903 C917 0.960 . S
H904 C917 0.961 . S
H905 C917 0.959 . S
H906 C920 0.929 . S
H907 C921 0.931 . S
H908 C923 0.930 . S
C909 H897 0.930 . S
C909 C910 1.399 . S
C909 C914 1.399 . S
C910 C909 1.399 . S
C910 C911 1.376 . S
C911 H898 0.930 . S
C911 C910 1.376 . S
C911 C912 1.388 . S
C912 H899 0.930 . S
C912 C911 1.388 . S
C912 C913 1.390 . S
C913 C912 1.390 . S
C913 C914 1.394 . S
C913 C919 1.465 . S
C914 C909 1.399 . S
C914 C913 1.394 . S
C914 C915 1.516 . S
C915 C914 1.516 . S
C915 C916 1.502 . S
C915 C917 1.561 . S
C915 C918 1.526 . S
C916 H900 0.959 . S
C916 H901 0.959 . S
C916 H902 0.961 . S
C916 C915 1.502 . S
C917 H903 0.960 . S
C917 H904 0.961 . S
C917 H905 0.959 . S
C917 C915 1.561 . S
C918 C915 1.526 . S
C918 C919 1.396 . S
C918 C923 1.390 . S
C919 C913 1.465 . S
C919 C918 1.396 . S
C919 C920 1.399 . S
C920 H906 0.929 . S
C920 C919 1.399 . S
C920 C921 1.385 . S
C921 H907 0.931 . S
C921 C920 1.385 . S
C921 C922 1.389 . S
C922 C921 1.389 . S
C922 C923 1.387 . S
C923 H908 0.930 . S
C923 C918 1.390 . S
C923 C922 1.387 . S
H924 C936 0.930 . S
H925 C938 0.930 . S
H926 C939 0.930 . S
H927 C943 0.959 . S
H928 C943 0.959 . S
H929 C943 0.961 . S
H930 C944 0.960 . S
H931 C944 0.961 . S
H932 C944 0.959 . S
H933 C947 0.929 . S
H934 C948 0.931 . S
H935 C950 0.930 . S
C936 H924 0.930 . S
C936 C937 1.399 . S
C936 C941 1.399 . S
C937 C936 1.399 . S
C937 C938 1.376 . S
C938 H925 0.930 . S
C938 C937 1.376 . S
C938 C939 1.388 . S
C939 H926 0.930 . S
C939 C938 1.388 . S
C939 C940 1.390 . S
C940 C939 1.390 . S
C940 C941 1.394 . S
C940 C946 1.465 . S
C941 C936 1.399 . S
C941 C940 1.394 . S
C941 C942 1.516 . S
C942 C941 1.516 . S
C942 C943 1.502 . S
C942 C944 1.561 . S
C942 C945 1.526 . S
C943 H927 0.959 . S
C943 H928 0.959 . S
C943 H929 0.961 . S
C943 C942 1.502 . S
C944 H930 0.960 . S
C944 H931 0.961 . S
C944 H932 0.959 . S
C944 C942 1.561 . S
C945 C942 1.526 . S
C945 C946 1.396 . S
C945 C950 1.390 . S
C946 C940 1.465 . S
C946 C945 1.396 . S
C946 C947 1.399 . S
C947 H933 0.929 . S
C947 C946 1.399 . S
C947 C948 1.385 . S
C948 H934 0.931 . S
C948 C947 1.385 . S
C948 C949 1.389 . S
C949 C948 1.389 . S
C949 C950 1.387 . S
C950 H935 0.930 . S
C950 C945 1.390 . S
C950 C949 1.387 . S
H951 C963 0.930 . S
H952 C965 0.930 . S
H953 C966 0.930 . S
H954 C970 0.959 . S
H955 C970 0.959 . S
H956 C970 0.961 . S
H957 C971 0.960 . S
H958 C971 0.961 . S
H959 C971 0.959 . S
H960 C974 0.929 . S
H961 C975 0.931 . S
H962 C977 0.930 . S
C963 H951 0.930 . S
C963 C964 1.399 . S
C963 C968 1.399 . S
C964 C963 1.399 . S
C964 C965 1.376 . S
C965 H952 0.930 . S
C965 C964 1.376 . S
C965 C966 1.388 . S
C966 H953 0.930 . S
C966 C965 1.388 . S
C966 C967 1.390 . S
C967 C966 1.390 . S
C967 C968 1.394 . S
C967 C973 1.465 . S
C968 C963 1.399 . S
C968 C967 1.394 . S
C968 C969 1.516 . S
C969 C968 1.516 . S
C969 C970 1.502 . S
C969 C971 1.561 . S
C969 C972 1.526 . S
C970 H954 0.959 . S
C970 H955 0.959 . S
C970 H956 0.961 . S
C970 C969 1.502 . S
C971 H957 0.960 . S
C971 H958 0.961 . S
C971 H959 0.959 . S
C971 C969 1.561 . S
C972 C969 1.526 . S
C972 C973 1.396 . S
C972 C977 1.390 . S
C973 C967 1.465 . S
C973 C972 1.396 . S
C973 C974 1.399 . S
C974 H960 0.929 . S
C974 C973 1.399 . S
C974 C975 1.385 . S
C975 H961 0.931 . S
C975 C974 1.385 . S
C975 C976 1.389 . S
C976 C975 1.389 . S
C976 C977 1.387 . S
C977 H962 0.930 . S
C977 C972 1.390 . S
C977 C976 1.387 . S
H978 C990 0.930 . S
H979 C992 0.930 . S
H980 C993 0.930 . S
H981 C997 0.959 . S
H982 C997 0.959 . S
H983 C997 0.961 . S
H984 C998 0.960 . S
H985 C998 0.961 . S
H986 C998 0.959 . S
H987 C1001 0.929 . S
H988 C1002 0.931 . S
H989 C1004 0.930 . S
C990 H978 0.930 . S
C990 C991 1.399 . S
C990 C995 1.399 . S
C991 C990 1.399 . S
C991 C992 1.376 . S
C992 H979 0.930 . S
C992 C991 1.376 . S
C992 C993 1.388 . S
C993 H980 0.930 . S
C993 C992 1.388 . S
C993 C994 1.390 . S
C994 C993 1.390 . S
C994 C995 1.394 . S
C994 C1000 1.465 . S
C995 C990 1.399 . S
C995 C994 1.394 . S
C995 C996 1.516 . S
C996 C995 1.516 . S
C996 C997 1.502 . S
C996 C998 1.561 . S
C996 C999 1.526 . S
C997 H981 0.959 . S
C997 H982 0.959 . S
C997 H983 0.961 . S
C997 C996 1.502 . S
C998 H984 0.960 . S
C998 H985 0.961 . S
C998 H986 0.959 . S
C998 C996 1.561 . S
C999 C996 1.526 . S
C999 C1000 1.396 . S
C999 C1004 1.390 . S
C1000 C994 1.465 . S
C1000 C999 1.396 . S
C1000 C1001 1.399 . S
C1001 H987 0.929 . S
C1001 C1000 1.399 . S
C1001 C1002 1.385 . S
C1002 H988 0.931 . S
C1002 C1001 1.385 . S
C1002 C1003 1.389 . S
C1003 C1002 1.389 . S
C1003 C1004 1.387 . S
C1004 H989 0.930 . S
C1004 C999 1.390 . S
C1004 C1003 1.387 . S
H1005 C1017 0.930 . S
H1006 C1019 0.930 . S
H1007 C1020 0.930 . S
H1008 C1024 0.959 . S
H1009 C1024 0.959 . S
H1010 C1024 0.961 . S
H1011 C1025 0.960 . S
H1012 C1025 0.961 . S
H1013 C1025 0.959 . S
H1014 C1028 0.929 . S
H1015 C1029 0.931 . S
H1016 C1031 0.930 . S
C1017 H1005 0.930 . S
C1017 C1018 1.399 . S
C1017 C1022 1.399 . S
C1018 C1017 1.399 . S
C1018 C1019 1.376 . S
C1019 H1006 0.930 . S
C1019 C1018 1.376 . S
C1019 C1020 1.388 . S
C1020 H1007 0.930 . S
C1020 C1019 1.388 . S
C1020 C1021 1.390 . S
C1021 C1020 1.390 . S
C1021 C1022 1.394 . S
C1021 C1027 1.465 . S
C1022 C1017 1.399 . S
C1022 C1021 1.394 . S
C1022 C1023 1.516 . S
C1023 C1022 1.516 . S
C1023 C1024 1.502 . S
C1023 C1025 1.561 . S
C1023 C1026 1.526 . S
C1024 H1008 0.959 . S
C1024 H1009 0.959 . S
C1024 H1010 0.961 . S
C1024 C1023 1.502 . S
C1025 H1011 0.960 . S
C1025 H1012 0.961 . S
C1025 H1013 0.959 . S
C1025 C1023 1.561 . S
C1026 C1023 1.526 . S
C1026 C1027 1.396 . S
C1026 C1031 1.390 . S
C1027 C1021 1.465 . S
C1027 C1026 1.396 . S
C1027 C1028 1.399 . S
C1028 H1014 0.929 . S
C1028 C1027 1.399 . S
C1028 C1029 1.385 . S
C1029 H1015 0.931 . S
C1029 C1028 1.385 . S
C1029 C1030 1.389 . S
C1030 C1029 1.389 . S
C1030 C1031 1.387 . S
C1031 H1016 0.930 . S
C1031 C1026 1.390 . S
C1031 C1030 1.387 . S
H1032 C1044 0.930 . S
H1033 C1046 0.930 . S
H1034 C1047 0.930 . S
H1035 C1051 0.959 . S
H1036 C1051 0.959 . S
H1037 C1051 0.961 . S
H1038 C1052 0.960 . S
H1039 C1052 0.961 . S
H1040 C1052 0.959 . S
H1041 C1055 0.929 . S
H1042 C1056 0.931 . S
H1043 C1058 0.930 . S
C1044 H1032 0.930 . S
C1044 C1045 1.399 . S
C1044 C1049 1.399 . S
C1045 C1044 1.399 . S
C1045 C1046 1.376 . S
C1046 H1033 0.930 . S
C1046 C1045 1.376 . S
C1046 C1047 1.388 . S
C1047 H1034 0.930 . S
C1047 C1046 1.388 . S
C1047 C1048 1.390 . S
C1048 C1047 1.390 . S
C1048 C1049 1.394 . S
C1048 C1054 1.465 . S
C1049 C1044 1.399 . S
C1049 C1048 1.394 . S
C1049 C1050 1.516 . S
C1050 C1049 1.516 . S
C1050 C1051 1.502 . S
C1050 C1052 1.561 . S
C1050 C1053 1.526 . S
C1051 H1035 0.959 . S
C1051 H1036 0.959 . S
C1051 H1037 0.961 . S
C1051 C1050 1.502 . S
C1052 H1038 0.960 . S
C1052 H1039 0.961 . S
C1052 H1040 0.959 . S
C1052 C1050 1.561 . S
C1053 C1050 1.526 . S
C1053 C1054 1.396 . S
C1053 C1058 1.390 . S
C1054 C1048 1.465 . S
C1054 C1053 1.396 . S
C1054 C1055 1.399 . S
C1055 H1041 0.929 . S
C1055 C1054 1.399 . S
C1055 C1056 1.385 . S
C1056 H1042 0.931 . S
C1056 C1055 1.385 . S
C1056 C1057 1.389 . S
C1057 C1056 1.389 . S
C1057 C1058 1.387 . S
C1058 H1043 0.930 . S
C1058 C1053 1.390 . S
C1058 C1057 1.387 . S
H1059 C1071 0.930 . S
H1060 C1073 0.930 . S
H1061 C1074 0.930 . S
H1062 C1078 0.959 . S
H1063 C1078 0.959 . S
H1064 C1078 0.961 . S
H1065 C1079 0.960 . S
H1066 C1079 0.961 . S
H1067 C1079 0.959 . S
H1068 C1082 0.929 . S
H1069 C1083 0.931 . S
H1070 C1085 0.930 . S
C1071 H1059 0.930 . S
C1071 C1072 1.399 . S
C1071 C1076 1.399 . S
C1072 C1071 1.399 . S
C1072 C1073 1.376 . S
C1073 H1060 0.930 . S
C1073 C1072 1.376 . S
C1073 C1074 1.388 . S
C1074 H1061 0.930 . S
C1074 C1073 1.388 . S
C1074 C1075 1.390 . S
C1075 C1074 1.390 . S
C1075 C1076 1.394 . S
C1075 C1081 1.465 . S
C1076 C1071 1.399 . S
C1076 C1075 1.394 . S
C1076 C1077 1.516 . S
C1077 C1076 1.516 . S
C1077 C1078 1.502 . S
C1077 C1079 1.561 . S
C1077 C1080 1.526 . S
C1078 H1062 0.959 . S
C1078 H1063 0.959 . S
C1078 H1064 0.961 . S
C1078 C1077 1.502 . S
C1079 H1065 0.960 . S
C1079 H1066 0.961 . S
C1079 H1067 0.959 . S
C1079 C1077 1.561 . S
C1080 C1077 1.526 . S
C1080 C1081 1.396 . S
C1080 C1085 1.390 . S
C1081 C1075 1.465 . S
C1081 C1080 1.396 . S
C1081 C1082 1.399 . S
C1082 H1068 0.929 . S
C1082 C1081 1.399 . S
C1082 C1083 1.385 . S
C1083 H1069 0.931 . S
C1083 C1082 1.385 . S
C1083 C1084 1.389 . S
C1084 C1083 1.389 . S
C1084 C1085 1.387 . S
C1085 H1070 0.930 . S
C1085 C1080 1.390 . S
C1085 C1084 1.387 . S
H1086 C1098 0.930 . S
H1087 C1100 0.930 . S
H1088 C1101 0.930 . S
H1089 C1105 0.959 . S
H1090 C1105 0.959 . S
H1091 C1105 0.961 . S
H1092 C1106 0.960 . S
H1093 C1106 0.961 . S
H1094 C1106 0.959 . S
H1095 C1109 0.929 . S
H1096 C1110 0.931 . S
H1097 C1112 0.930 . S
C1098 H1086 0.930 . S
C1098 C1099 1.399 . S
C1098 C1103 1.399 . S
C1099 C1098 1.399 . S
C1099 C1100 1.376 . S
C1100 H1087 0.930 . S
C1100 C1099 1.376 . S
C1100 C1101 1.388 . S
C1101 H1088 0.930 . S
C1101 C1100 1.388 . S
C1101 C1102 1.390 . S
C1102 C1101 1.390 . S
C1102 C1103 1.394 . S
C1102 C1108 1.465 . S
C1103 C1098 1.399 . S
C1103 C1102 1.394 . S
C1103 C1104 1.516 . S
C1104 C1103 1.516 . S
C1104 C1105 1.502 . S
C1104 C1106 1.561 . S
C1104 C1107 1.526 . S
C1105 H1089 0.959 . S
C1105 H1090 0.959 . S
C1105 H1091 0.961 . S
C1105 C1104 1.502 . S
C1106 H1092 0.960 . S
C1106 H1093 0.961 . S
C1106 H1094 0.959 . S
C1106 C1104 1.561 . S
C1107 C1104 1.526 . S
C1107 C1108 1.396 . S
C1107 C1112 1.390 . S
C1108 C1102 1.465 . S
C1108 C1107 1.396 . S
C1108 C1109 1.399 . S
C1109 H1095 0.929 . S
C1109 C1108 1.399 . S
C1109 C1110 1.385 . S
C1110 H1096 0.931 . S
C1110 C1109 1.385 . S
C1110 C1111 1.389 . S
C1111 C1110 1.389 . S
C1111 C1112 1.387 . S
C1112 H1097 0.930 . S
C1112 C1107 1.390 . S
C1112 C1111 1.387 . S
C478 C47 1.896 . S
C490 C372 1.954 . S
C505 C91 1.784 . S
C517 C404 1.830 . S
C544 C463 1.915 . S
C532 C177 1.951 . S
C571 C392 1.667 . S
C559 C215 1.665 . S
C586 C295 1.837 . S
C598 C422 1.817 . S
C625 C444 1.066 . S
C613 C345 1.051 . S
C652 C413 1.999 . S
C640 C153 1.902 . S
C667 C239 1.171 . S
C679 C453 1.078 . S
C706 C402 1.535 . S
C694 C283 1.581 . S
C721 C357 1.744 . S
C733 C432 1.779 . S
C748 C35 1.847 1_556 S
C760 C435 1.854 . S
C787 C374 1.516 . S
C775 C115 1.553 . S
C814 C382 1.466 . S
C802 C221 1.578 . S
C841 C423 1.498 . S
C829 C301 1.510 . S
C868 C436 2.183 . S
C856 C339 2.153 1_556 S
C895 C373 1.455 . S
C883 C53 1.470 1_556 S
C922 C433 1.455 . S
C910 C97 1.534 . S
C937 C171 1.487 . S
C949 C434 1.532 . S
C976 C403 1.470 . S
C964 C363 1.543 . S
C1003 C464 1.532 . S
C991 C29 1.329 . S
C1030 C391 1.761 . S
C1018 C109 1.762 . S
C1057 C405 1.495 . S
C1045 C159 1.586 . S
C1072 C233 2.080 . S
C1084 C454 2.124 . S
C1099 C277 1.789 . S
C1111 C401 1.908 . S
