# Generated by pormake.
# Topology anh, (6,3)-cn, num edge types: 1
# Building blocks:
#     Node 0, Type 0, BuildingBlock: BETGAK_clean_sbu_0, # of connection points: 6
#     Node 1, Type 0, BuildingBlock: BETGAK_clean_sbu_0, # of connection points: 6
#     Node 2, Type 0, BuildingBlock: BETGAK_clean_sbu_0, # of connection points: 6
#     Node 3, Type 1, BuildingBlock: PAMTOO_clean_linker_0, # of connection points: 3
#     Node 4, Type 1, BuildingBlock: PAMTOO_clean_linker_0, # of connection points: 3
#     Node 5, Type 1, BuildingBlock: PAMTOO_clean_linker_0, # of connection points: 3
#     Node 6, Type 1, BuildingBlock: PAMTOO_clean_linker_0, # of connection points: 3
#     Node 7, Type 1, BuildingBlock: PAMTOO_clean_linker_0, # of connection points: 3
#     Node 8, Type 1, BuildingBlock: PAMTOO_clean_linker_0, # of connection points: 3
#     Edge 9, Type (0, 1), BuildingBlock: XIVTED_clean_linker_0, # of connection points: 2
#     Edge 10, Type (0, 1), BuildingBlock: XIVTED_clean_linker_0, # of connection points: 2
#     Edge 11, Type (0, 1), BuildingBlock: XIVTED_clean_linker_0, # of connection points: 2
#     Edge 12, Type (0, 1), BuildingBlock: XIVTED_clean_linker_0, # of connection points: 2
#     Edge 13, Type (0, 1), BuildingBlock: XIVTED_clean_linker_0, # of connection points: 2
#     Edge 14, Type (0, 1), BuildingBlock: XIVTED_clean_linker_0, # of connection points: 2
#     Edge 15, Type (0, 1), BuildingBlock: XIVTED_clean_linker_0, # of connection points: 2
#     Edge 16, Type (0, 1), BuildingBlock: XIVTED_clean_linker_0, # of connection points: 2
#     Edge 17, Type (0, 1), BuildingBlock: XIVTED_clean_linker_0, # of connection points: 2
#     Edge 18, Type (0, 1), BuildingBlock: XIVTED_clean_linker_0, # of connection points: 2
#     Edge 19, Type (0, 1), BuildingBlock: XIVTED_clean_linker_0, # of connection points: 2
#     Edge 20, Type (0, 1), BuildingBlock: XIVTED_clean_linker_0, # of connection points: 2
#     Edge 21, Type (0, 1), BuildingBlock: XIVTED_clean_linker_0, # of connection points: 2
#     Edge 22, Type (0, 1), BuildingBlock: XIVTED_clean_linker_0, # of connection points: 2
#     Edge 23, Type (0, 1), BuildingBlock: XIVTED_clean_linker_0, # of connection points: 2
#     Edge 24, Type (0, 1), BuildingBlock: XIVTED_clean_linker_0, # of connection points: 2
#     Edge 25, Type (0, 1), BuildingBlock: XIVTED_clean_linker_0, # of connection points: 2
#     Edge 26, Type (0, 1), BuildingBlock: XIVTED_clean_linker_0, # of connection points: 2
# Relax obj value: 0.167
# Max RMSD: 0.182
# Mean RMSD: 0.125
data_MOF--net-anh--node1-BETGAK_clean_sbu_0--node2-PAMTOO_clean_linker_0--edge1-XIVTED_clean_linker_0
_symmetry_space_group_name_H-M    P1
_symmetry_Int_Tables_number       1
_symmetry_cell_setting            triclinic
loop_
_symmetry_equiv_pos_as_xyz
'x, y, z'
_cell_length_a     31.479631
_cell_length_b     37.900575
_cell_length_c     49.525817
_cell_angle_alpha  87.831747
_cell_angle_beta   92.100023
_cell_angle_gamma 129.92176
loop_
_atom_site_label
_atom_site_type_symbol
_atom_site_fract_x
_atom_site_fract_y
_atom_site_fract_z
_atom_type_partial_charge
La0 La 0.2229 0.56438 0.14218 0.0
La1 La 0.15479 0.58797 0.16098 0.0
C2 C 0.28641 0.55759 0.11805 0.0
C3 C 0.29283 0.52286 0.11452 0.0
C4 C 0.34588 0.53629 0.11713 0.0
C5 C 0.35351 0.50412 0.1147 0.0
C6 C 0.30815 0.45785 0.10947 0.0
C7 C 0.25498 0.44448 0.1065 0.0
C8 C 0.24729 0.47669 0.10917 0.0
C9 C 0.20951 0.55822 0.19463 0.0
C10 C 0.27833 0.66955 0.15151 0.0
C11 C 0.08927 0.59035 0.18688 0.0
C12 C 1.02869 0.56036 0.18734 0.0
C13 C 0.99668 0.52499 0.16862 0.0
C14 C 0.93907 0.49652 0.16878 0.0
C15 C 0.91234 0.50307 0.18758 0.0
C16 C 0.94462 0.53837 0.2065 0.0
C17 C 1.00247 0.56672 0.20643 0.0
C18 C 0.16382 0.59027 0.10788 0.0
C19 C 0.09787 0.48124 0.15235 0.0
O20 O 0.24315 0.55009 0.10658 0.0
O21 O 0.29601 0.57342 0.14248 0.0
O22 O 0.21226 0.531 0.18127 0.0
O23 O 0.21761 0.58892 0.179 0.0
O24 O 0.27706 0.64037 0.13667 0.0
O25 O 0.23615 0.65447 0.16699 0.0
O26 O 0.11202 0.61297 0.16415 0.0
O27 O 0.11019 0.57161 0.19635 0.0
O28 O 0.15943 0.61688 0.12077 0.0
O29 O 0.15861 0.56187 0.12445 0.0
O30 O 0.09494 0.51198 0.16178 0.0
O31 O 0.14386 0.49399 0.14148 0.0
H32 H 0.38151 0.57174 0.12123 0.0
H33 H 0.39502 0.51554 0.11678 0.0
H34 H 0.21922 0.40897 0.10271 0.0
H35 H 0.20583 0.46543 0.10727 0.0
H36 H 1.0163 0.51981 0.15361 0.0
H37 H 0.91554 0.47029 0.1536 0.0
H38 H 0.92517 0.54411 0.22126 0.0
H39 H 1.02671 0.59381 0.22109 0.0
La40 La 0.70247 0.05475 0.47797 0.0
La41 La 0.63182 0.07767 0.45939 0.0
C42 C 0.74282 0.02341 0.50392 0.0
C43 C 0.73296 0.97995 0.50782 0.0
C44 C 0.71204 0.94832 0.48691 0.0
C45 C 0.7073 0.90908 0.49068 0.0
C46 C 0.72329 0.90078 0.51543 0.0
C47 C 0.7424 0.9319 0.53654 0.0
C48 C 0.74731 0.97108 0.53272 0.0
C49 C 0.70336 0.06866 0.42546 0.0
C50 C 0.57376 0.97344 0.46293 0.0
C51 C 0.5928 0.11296 0.43758 0.0
C52 C 0.60051 0.15438 0.44406 0.0
C53 C 0.62346 0.17544 0.46912 0.0
C54 C 0.62858 0.21351 0.4759 0.0
C55 C 0.61134 0.2317 0.45765 0.0
C56 C 0.5895 0.21098 0.43225 0.0
C57 C 0.58403 0.17261 0.42557 0.0
C58 C 0.6349 0.06671 0.51228 0.0
C59 C 0.76217 0.15917 0.47047 0.0
O60 O 0.75931 0.04322 0.48004 0.0
O61 O 0.70607 0.02495 0.5138 0.0
O62 O 0.74506 0.07848 0.43953 0.0
O63 O 0.66158 0.04805 0.44027 0.0
O64 O 0.61837 0.98618 0.47688 0.0
O65 O 0.57352 1.00456 0.44998 0.0
O66 O 0.56702 0.07993 0.45585 0.0
O67 O 0.63645 0.12006 0.42875 0.0
O68 O 0.59217 0.05595 0.49893 0.0
O69 O 0.67473 0.08617 0.49645 0.0
O70 O 0.71572 0.1454 0.45822 0.0
O71 O 0.76444 0.12926 0.48357 0.0
H72 H 0.70045 0.95442 0.46753 0.0
H73 H 0.69265 0.88602 0.47395 0.0
H74 H 0.75384 0.92613 0.55607 0.0
H75 H 0.76318 0.99491 0.54915 0.0
H76 H 0.63659 0.16191 0.48366 0.0
H77 H 0.64481 0.2279 0.49576 0.0
H78 H 0.57669 0.22441 0.41746 0.0
H79 H 0.56657 0.15699 0.40606 0.0
La80 La 0.66357 0.58085 0.83952 0.0
La81 La 0.58376 0.47928 0.84458 0.0
C82 C 0.7155 0.66266 0.8228 0.0
C83 C 0.70654 0.69605 0.81728 0.0
C84 C 0.68101 0.70404 0.8359 0.0
C85 C 0.676 0.73782 0.83046 0.0
C86 C 0.69628 0.76415 0.80627 0.0
C87 C 0.7205 0.75504 0.78747 0.0
C88 C 0.72571 0.72154 0.79297 0.0
C89 C 0.64059 0.54722 0.88919 0.0
C90 C 0.53025 0.52835 0.84287 0.0
C91 C 0.5355 0.39726 0.85929 0.0
C92 C 0.54524 0.36511 0.8535 0.0
C93 C 0.5741 0.37146 0.83036 0.0
C94 C 0.58167 0.34006 0.82437 0.0
C95 C 0.56104 0.30181 0.84154 0.0
C96 C 0.53329 0.29633 0.86508 0.0
C97 C 0.52538 0.32763 0.87094 0.0
C98 C 0.60462 0.51062 0.7944 0.0
C99 C 0.71819 0.53294 0.84372 0.0
O100 O 0.71579 0.65127 0.84806 0.0
O101 O 0.6892 0.62726 0.80688 0.0
O102 O 0.68951 0.58372 0.88191 0.0
O103 O 0.60752 0.53303 0.86957 0.0
O104 O 0.58111 0.56597 0.83546 0.0
O105 O 0.52307 0.49067 0.85074 0.0
O106 O 0.51939 0.40887 0.83862 0.0
O107 O 0.57378 0.43282 0.87388 0.0
O108 O 0.55736 0.47352 0.80262 0.0
O109 O 0.63927 0.52673 0.81369 0.0
O110 O 0.66618 0.49428 0.84828 0.0
O111 O 0.72689 0.57171 0.83756 0.0
H112 H 0.66562 0.68468 0.85479 0.0
H113 H 0.65742 0.74402 0.84548 0.0
H114 H 0.73544 0.77376 0.76837 0.0
H115 H 0.74525 0.71578 0.77825 0.0
H116 H 0.59014 0.4004 0.81669 0.0
H117 H 0.60258 0.34528 0.80591 0.0
H118 H 0.51777 0.26793 0.87909 0.0
H119 H 0.5035 0.32242 0.88903 0.0
H120 H 0.77912 0.17178 0.22457 0.0
H121 H 0.64714 0.02655 0.21431 0.0
H122 H 0.73228 0.11488 0.14485 0.0
H123 H 0.60662 0.02359 0.12968 0.0
C124 C 0.60135 1.01278 0.1513 0.0
O125 O 0.65217 0.02871 0.16193 0.0
H126 H 0.5866 0.0288 0.16153 0.0
C127 C 0.75295 0.14244 0.21147 0.0
C128 C 0.76076 0.14914 0.18342 0.0
C129 C 0.7126 0.09852 0.22293 0.0
C130 C 0.67825 0.06075 0.20585 0.0
C131 C 0.68488 0.06638 0.17776 0.0
C132 C 0.72676 0.11059 0.16652 0.0
H133 H 0.69127 0.63723 0.59977 0.0
H134 H 0.66479 0.51313 0.58506 0.0
H135 H 0.68592 0.59839 0.51828 0.0
H136 H 0.60367 0.49598 0.50704 0.0
C137 C 0.61884 0.48477 0.52295 0.0
O138 O 0.66973 0.52311 0.5325 0.0
H139 H 0.58832 0.46723 0.53957 0.0
C140 C 0.68789 0.61413 0.58583 0.0
C141 C 0.69063 0.6232 0.55788 0.0
C142 C 0.67798 0.57434 0.59592 0.0
C143 C 0.67193 0.54381 0.57769 0.0
C144 C 0.67481 0.5525 0.54978 0.0
C145 C 0.68371 0.59194 0.53989 0.0
H146 H 1.03539 0.54255 0.90605 0.0
H147 H 0.17698 0.54981 0.90139 0.0
H148 H 0.08677 0.53376 0.82851 0.0
H149 H 0.16451 0.49271 0.82798 0.0
C150 C 0.18222 0.509 0.84794 0.0
O151 O 0.178 0.54399 0.84996 0.0
H152 H 0.15439 0.48141 0.8631 0.0
C153 C 1.06286 0.54199 0.89384 0.0
C154 C 1.05355 0.53716 0.86574 0.0
C155 C 0.10671 0.54646 0.9067 0.0
C156 C 0.14258 0.5453 0.89142 0.0
C157 C 0.1367 0.54023 0.86335 0.0
C158 C 0.09165 0.53654 0.85025 0.0
H159 H 1.07781 0.46679 0.3932 0.0
H160 H 0.22953 0.60555 0.40384 0.0
H161 H 0.13375 0.52279 0.47305 0.0
H162 H 0.20917 0.63373 0.48369 0.0
C163 C 0.22285 0.63931 0.46247 0.0
O164 O 0.22459 0.60493 0.45604 0.0
H165 H 0.19145 0.63713 0.44961 0.0
C166 C 0.10796 0.49507 0.40636 0.0
C167 C 0.0996 0.48934 0.43441 0.0
C168 C 0.15462 0.5366 0.39504 0.0
C169 C 0.19307 0.57335 0.41214 0.0
C170 C 0.18574 0.56876 0.44015 0.0
C171 C 0.13925 0.52645 0.45138 0.0
H172 H 0.66883 0.99323 0.71145 0.0
H173 H 0.638 0.08688 0.72372 0.0
H174 H 0.64636 0.01808 0.79184 0.0
H175 H 0.56152 0.03129 0.7974 0.0
C176 C 0.57957 0.06009 0.78243 0.0
O177 O 0.63218 0.07694 0.77624 0.0
H178 H 0.55257 0.04673 0.76399 0.0
C179 C 0.6621 1.01103 0.72495 0.0
C180 C 0.65923 1.00215 0.75296 0.0
C181 C 0.6539 0.04109 0.71409 0.0
C182 C 0.64373 0.06311 0.73165 0.0
C183 C 0.64098 0.05476 0.75958 0.0
C184 C 0.64833 0.02411 0.77019 0.0
H185 H 0.60025 0.41274 0.08519 0.0
H186 H 0.447 0.30583 0.04454 0.0
H187 H 0.48696 0.27769 0.12163 0.0
H188 H 0.36952 0.21646 0.11734 0.0
C189 C 0.36599 0.22684 0.09663 0.0
O190 O 0.41288 0.24373 0.08237 0.0
H191 H 0.32959 0.1951 0.08675 0.0
C192 C 0.5611 0.37791 0.08473 0.0
C193 C 0.54775 0.34739 0.10632 0.0
C194 C 0.52583 0.36341 0.06201 0.0
C195 C 0.47495 0.31822 0.06184 0.0
C196 C 0.46098 0.28764 0.08339 0.0
C197 C 0.49772 0.30193 0.10534 0.0
H198 H 0.37114 0.44788 0.14271 0.0
H199 H 0.31465 0.24425 0.05903 0.0
H200 H 0.26425 0.39019 0.07207 0.0
H201 H 0.3981 0.28802 0.13658 0.0
H202 H 0.30047 0.30069 0.06158 0.0
H203 H 0.3861 0.39253 0.13909 0.0
C204 C 0.35101 0.42365 0.12635 0.0
C205 C 0.31652 0.42371 0.10762 0.0
C206 C 0.3216 0.29777 0.07811 0.0
C207 C 0.33324 0.36001 0.1034 0.0
C208 C 0.32957 0.26563 0.07664 0.0
C209 C 0.35645 0.26104 0.0979 0.0
C210 C 0.34132 0.32579 0.10086 0.0
C211 C 0.37627 0.29008 0.12004 0.0
C212 C 0.35933 0.3919 0.12437 0.0
C213 C 0.2908 0.39107 0.08707 0.0
N214 N 0.36822 0.32117 0.12098 0.0
N215 N 0.29984 0.36061 0.08544 0.0
H216 H 0.86811 0.20366 0.49139 0.0
H217 H 0.99231 0.44526 0.41945 0.0
H218 H 0.77046 0.22955 0.44622 0.0
H219 H 0.09119 0.42959 0.47229 0.0
H220 H 0.91037 0.36669 0.43089 0.0
H221 H 0.94964 0.28563 0.48628 0.0
C222 C 0.86358 0.22646 0.48056 0.0
C223 C 0.81202 0.20925 0.46914 0.0
C224 C 0.94971 0.38033 0.44029 0.0
C225 C 0.90556 0.30339 0.46312 0.0
C226 C 0.99658 0.42537 0.4338 0.0
C227 C 1.04876 0.44417 0.44495 0.0
C228 C 0.95462 0.35305 0.45788 0.0
C229 C 1.05172 0.41664 0.4634 0.0
C230 C 0.91025 0.27334 0.47766 0.0
C231 C 0.80906 0.24077 0.45532 0.0
N232 N 1.00549 0.37234 0.46906 0.0
N233 N 0.85493 0.28588 0.45262 0.0
H234 H 0.77352 0.84838 0.78179 0.0
H235 H 0.597 0.93241 0.79065 0.0
H236 H 0.61229 0.76552 0.81812 0.0
H237 H 0.73888 0.99721 0.73979 0.0
H238 H 0.60742 0.87584 0.80579 0.0
H239 H 0.76638 0.90761 0.77078 0.0
C240 C 0.7364 0.84242 0.78735 0.0
C241 C 0.69312 0.8014 0.80064 0.0
C242 C 0.63635 0.90256 0.79139 0.0
C243 C 0.6852 0.86996 0.78845 0.0
C244 C 0.63066 0.93501 0.78289 0.0
C245 C 0.66695 0.96942 0.76381 0.0
C246 C 0.67898 0.90484 0.78094 0.0
C247 C 0.70954 0.97093 0.75425 0.0
C248 C 0.73254 0.8765 0.78118 0.0
C249 C 0.64684 0.79655 0.80801 0.0
N250 N 0.71434 0.93914 0.76289 0.0
N251 N 0.64402 0.83032 0.80174 0.0
H252 H 0.85271 0.5323 0.19142 0.0
H253 H 0.58264 0.30217 0.12796 0.0
H254 H 0.8331 0.4103 0.17953 0.0
H255 H 0.60774 0.42763 0.13426 0.0
H256 H 0.66429 0.33489 0.15693 0.0
H257 H 0.75445 0.48853 0.18076 0.0
C258 C 0.82749 0.49605 0.18715 0.0
C259 C 0.85135 0.47512 0.18587 0.0
C260 C 0.65139 0.35498 0.15239 0.0
C261 C 0.73903 0.42501 0.17318 0.0
C262 C 0.60453 0.33616 0.13601 0.0
C263 C 0.5891 0.3626 0.12832 0.0
C264 C 0.68304 0.40057 0.16101 0.0
C265 C 0.61906 0.40653 0.13924 0.0
C266 C 0.77141 0.47112 0.18089 0.0
C267 C 0.81665 0.42807 0.18008 0.0
N268 N 0.6651 0.42442 0.1547 0.0
N269 N 0.76242 0.40476 0.17357 0.0
H270 H 0.4785 0.9335 0.43252 0.0
H271 H 0.32005 0.67661 0.49104 0.0
H272 H 0.55492 0.89884 0.48897 0.0
H273 H 0.25308 0.71127 0.42846 0.0
H274 H 0.40716 0.75684 0.49006 0.0
H275 H 0.3965 0.8521 0.43053 0.0
C276 C 0.47824 0.90884 0.44448 0.0
C277 C 0.52405 0.92345 0.46099 0.0
C278 C 0.37363 0.74683 0.47635 0.0
C279 C 0.42929 0.82933 0.45886 0.0
C280 C 0.32402 0.70097 0.47683 0.0
C281 C 0.27924 0.6871 0.45976 0.0
C282 C 0.37851 0.77935 0.45879 0.0
C283 C 0.28647 0.7203 0.44194 0.0
C284 C 0.43122 0.86216 0.4433 0.0
C285 C 0.52081 0.88946 0.47595 0.0
N286 N 0.33477 0.7647 0.44205 0.0
N287 N 0.47433 0.84421 0.47462 0.0
H288 H 0.64874 0.31658 0.81702 0.0
H289 H 0.51139 0.05092 0.82001 0.0
H290 H 0.48738 0.20784 0.84985 0.0
H291 H 0.64819 0.15304 0.76896 0.0
H292 H 0.50856 0.10985 0.83582 0.0
H293 H 0.65549 0.25893 0.80371 0.0
C294 C 0.61459 0.28067 0.82139 0.0
C295 C 0.56721 0.26729 0.83451 0.0
C296 C 0.53955 0.1195 0.82135 0.0
C297 C 0.57536 0.20101 0.81968 0.0
C298 C 0.54136 0.08595 0.81246 0.0
C299 C 0.58096 0.09735 0.79369 0.0
C300 C 0.57745 0.16487 0.81131 0.0
C301 C 0.61786 0.143 0.78395 0.0
C302 C 0.61869 0.24776 0.81388 0.0
C303 C 0.52505 0.22012 0.84014 0.0
N304 N 0.61539 0.17513 0.79296 0.0
N305 N 0.53012 0.18881 0.83269 0.0
H306 H 0.7985 0.8977 0.54238 0.0
H307 H 0.63374 0.6301 0.51761 0.0
H308 H 0.64467 0.81232 0.49687 0.0
H309 H 0.7671 0.71107 0.57582 0.0
H310 H 0.64387 0.69839 0.50478 0.0
H311 H 0.79362 0.83136 0.55021 0.0
C312 C 0.76345 0.86494 0.53413 0.0
C313 C 0.72152 0.86062 0.51924 0.0
C314 C 0.67109 0.70121 0.52024 0.0
C315 C 0.71624 0.7843 0.52778 0.0
C316 C 0.66559 0.66238 0.52742 0.0
C317 C 0.69941 0.6649 0.54793 0.0
C318 C 0.71104 0.74289 0.5335 0.0
C319 C 0.73971 0.70747 0.56015 0.0
C320 C 0.76091 0.82707 0.53848 0.0
C321 C 0.67806 0.81743 0.50839 0.0
N322 N 0.74429 0.74467 0.5528 0.0
N323 N 0.67641 0.78091 0.51297 0.0
H324 H 0.71954 0.46105 0.85797 0.0
H325 H 1.05137 0.60296 0.83886 0.0
H326 H 0.83174 0.60329 0.83241 0.0
H327 H 0.9404 0.46559 0.8721 0.0
H328 H 0.97234 0.60224 0.83283 0.0
H329 H 0.79775 0.46081 0.8603 0.0
C330 C 0.76037 0.49244 0.85276 0.0
C331 C 0.76739 0.5323 0.845 0.0
C332 C 0.96474 0.57176 0.84098 0.0
C333 C 0.86011 0.53213 0.84754 0.0
C334 C 1.01028 0.57187 0.84404 0.0
C335 C 1.00367 0.53356 0.85509 0.0
C336 C 0.91065 0.53313 0.84917 0.0
C337 C 0.94854 0.49557 0.86262 0.0
C338 C 0.80565 0.49223 0.85412 0.0
C339 C 0.82277 0.57145 0.83858 0.0
N340 N 0.90528 0.49635 0.85953 0.0
N341 N 0.86595 0.57029 0.83995 0.0
H342 H 0.37093 0.71694 0.11943 0.0
H343 H 0.52152 0.9603 0.19003 0.0
H344 H 0.30036 0.73675 0.18414 0.0
H345 H 0.58192 0.94683 0.11783 0.0
H346 H 0.4451 0.87688 0.19075 0.0
H347 H 0.45215 0.79923 0.12055 0.0
C348 C 0.3724 0.73845 0.13389 0.0
C349 C 0.32831 0.71958 0.15164 0.0
C350 C 0.47511 0.892 0.17477 0.0
C351 C 0.42179 0.81414 0.15318 0.0
C352 C 0.51891 0.93964 0.17445 0.0
C353 C 0.55778 0.96063 0.15366 0.0
C354 C 0.47011 0.86476 0.15426 0.0
C355 C 0.55262 0.93208 0.13411 0.0
C356 C 0.41889 0.78552 0.13451 0.0
C357 C 0.33294 0.74947 0.16994 0.0
N358 N 0.5095 0.88576 0.13478 0.0
N359 N 0.3786 0.79496 0.17023 0.0
H360 H 0.53838 0.24705 0.44496 0.0
H361 H 0.68566 0.46424 0.54015 0.0
H362 H 0.69183 0.30669 0.48836 0.0
H363 H 0.55834 0.42536 0.48143 0.0
H364 H 0.68623 0.40471 0.52304 0.0
H365 H 0.54302 0.31036 0.45926 0.0
C366 C 0.57341 0.27361 0.45724 0.0
C367 C 0.61474 0.2712 0.46543 0.0
C368 C 0.65863 0.40955 0.51367 0.0
C369 C 0.61956 0.3436 0.48244 0.0
C370 C 0.65846 0.44365 0.52336 0.0
C371 C 0.62299 0.45061 0.51164 0.0
C372 C 0.62212 0.38142 0.49254 0.0
C373 C 0.58719 0.42179 0.4906 0.0
C374 C 0.5758 0.30969 0.46556 0.0
C375 C 0.65842 0.30642 0.48188 0.0
N376 N 0.5876 0.38848 0.48174 0.0
N377 N 0.65952 0.34093 0.48993 0.0
H378 H 0.52014 0.59258 0.8208 0.0
H379 H 0.21615 0.47102 0.88229 0.0
H380 H 0.42636 0.46619 0.86743 0.0
H381 H 0.28265 0.57197 0.81789 0.0
H382 H 0.29804 0.4765 0.88096 0.0
H383 H 0.44155 0.59244 0.82269 0.0
C384 C 0.48335 0.56467 0.83152 0.0
C385 C 0.48137 0.52919 0.84385 0.0
C386 C 0.29565 0.49819 0.86731 0.0
C387 C 0.38895 0.52931 0.84653 0.0
C388 C 0.24854 0.49556 0.86827 0.0
C389 C 0.24139 0.52199 0.85076 0.0
C390 C 0.33825 0.52771 0.84861 0.0
C391 C 0.2856 0.55165 0.83251 0.0
C392 C 0.43792 0.56465 0.83256 0.0
C393 C 0.43121 0.49441 0.85738 0.0
N394 N 0.33131 0.55375 0.83203 0.0
N395 N 0.38826 0.4956 0.85844 0.0
H396 H 1.08257 0.40494 0.13496 0.0
H397 H 0.77356 0.22591 0.19241 0.0
H398 H 0.99667 0.44338 0.17302 0.0
H399 H 0.8505 0.18164 0.15182 0.0
H400 H 0.85375 0.30586 0.18245 0.0
H401 H 0.99833 0.3237 0.13863 0.0
C402 C 1.04615 0.39649 0.144 0.0
C403 C 1.04718 0.43146 0.15374 0.0
C404 C 0.85319 0.27887 0.17539 0.0
C405 C 0.9503 0.33823 0.15793 0.0
C406 C 0.80713 0.23309 0.18098 0.0
C407 C 0.80515 0.19694 0.17289 0.0
C408 C 0.89855 0.28918 0.16182 0.0
C409 C 0.85005 0.2084 0.15821 0.0
C410 C 0.99796 0.35001 0.14604 0.0
C411 C 0.99839 0.41805 0.16521 0.0
N412 N 0.89515 0.25349 0.15339 0.0
N413 N 0.95241 0.37285 0.16702 0.0
H414 H 0.15312 0.52502 0.07873 0.0
H415 H 0.10573 0.60503 0.937 0.0
H416 H 0.16131 0.64284 0.06955 0.0
H417 H 0.12963 0.50499 0.94407 0.0
H418 H 0.12146 0.61681 0.98576 0.0
H419 H 0.14112 0.51514 0.02975 0.0
C420 C 0.15298 0.54912 0.06636 0.0
C421 C 0.15867 0.58504 0.07819 0.0
C422 C 0.12336 0.59232 0.97667 0.0
C423 C 0.14383 0.57341 0.0221 0.0
C424 C 0.11398 0.58534 0.94884 0.0
C425 C 0.11614 0.55382 0.93641 0.0
C426 C 0.13459 0.56738 0.99234 0.0
C427 C 0.12791 0.52983 0.95275 0.0
C428 C 0.14588 0.54334 0.03839 0.0
C429 C 0.1572 0.61475 0.06123 0.0
N430 N 0.13643 0.53694 0.97985 0.0
N431 N 0.14969 0.60818 0.03407 0.0
H432 H 0.7918 0.11265 0.39279 0.0
H433 H 0.6188 0.04665 0.25402 0.0
H434 H 0.61519 0.03579 0.39072 0.0
H435 H 0.79712 0.13624 0.25992 0.0
H436 H 0.61462 0.039 0.30356 0.0
H437 H 0.7928 0.11916 0.34369 0.0
C438 C 0.75314 0.09716 0.38193 0.0
C439 C 0.70333 0.07353 0.39577 0.0
C440 C 0.6546 0.06039 0.29396 0.0
C441 C 0.70399 0.0807 0.33934 0.0
C442 C 0.65699 0.06455 0.26571 0.0
C443 C 0.70842 0.0924 0.25282 0.0
C444 C 0.70397 0.08394 0.30933 0.0
C445 C 0.75661 0.11503 0.26896 0.0
C446 C 0.75371 0.1009 0.35385 0.0
C447 C 0.65447 0.05426 0.38071 0.0
N448 N 0.75316 0.11027 0.29627 0.0
N449 N 0.65595 0.05812 0.35322 0.0
H450 H 0.70489 0.58149 0.77185 0.0
H451 H 0.59658 0.49272 0.62109 0.0
H452 H 0.53599 0.46499 0.75132 0.0
H453 H 0.74274 0.6321 0.63772 0.0
H454 H 0.58092 0.47745 0.66967 0.0
H455 H 0.72588 0.59713 0.72339 0.0
C456 C 0.67225 0.55942 0.75716 0.0
C457 C 0.61858 0.52207 0.76554 0.0
C458 C 0.61656 0.51134 0.6627 0.0
C459 C 0.64243 0.53902 0.71042 0.0
C460 C 0.62577 0.51993 0.635 0.0
C461 C 0.67093 0.56375 0.62538 0.0
C462 C 0.65305 0.54668 0.68099 0.0
C463 C 0.70711 0.59794 0.64433 0.0
C464 C 0.68425 0.56825 0.72958 0.0
C465 C 0.5779 0.49422 0.74574 0.0
N466 N 0.69743 0.5887 0.67126 0.0
N467 N 0.59072 0.5031 0.71914 0.0
H468 H 0.55353 0.03438 0.54837 0.0
H469 H 0.72864 0.05769 0.6776 0.0
H470 H 0.72443 0.09347 0.54368 0.0
H471 H 0.57937 0.03986 0.68295 0.0
H472 H 0.7254 0.0653 0.62834 0.0
H473 H 0.55951 0.03026 0.5976 0.0
C474 C 0.59231 0.04642 0.55774 0.0
C475 C 0.63849 0.06408 0.54198 0.0
C476 C 0.69356 0.05998 0.64032 0.0
C477 C 0.64559 0.05929 0.59828 0.0
C478 C 0.69525 0.05545 0.66839 0.0
C479 C 0.65419 0.04813 0.68437 0.0
C480 C 0.65006 0.05651 0.6281 0.0
C481 C 0.61212 0.04588 0.67142 0.0
C482 C 0.59575 0.04419 0.58583 0.0
C483 C 0.68775 0.07928 0.55513 0.0
N484 N 0.6109 0.0497 0.64405 0.0
N485 N 0.68996 0.07632 0.58254 0.0
H486 H 0.53647 0.4816 0.90748 0.0
H487 H 0.63021 0.42343 0.04098 0.0
H488 H 0.70804 0.56022 0.93145 0.0
H489 H 0.46358 0.3737 0.02751 0.0
H490 H 0.65945 0.4722 0.00063 0.0
H491 H 0.50887 0.43989 0.95067 0.0
C492 C 0.56837 0.49023 0.92196 0.0
C493 C 0.62463 0.52428 0.91595 0.0
C494 C 0.61661 0.45092 0.00662 0.0
C495 C 0.5933 0.47641 0.96537 0.0
C496 C 0.5998 0.42317 0.02981 0.0
C497 C 0.54422 0.39441 0.03786 0.0
C498 C 0.57753 0.44958 0.99105 0.0
C499 C 0.50664 0.39479 0.02198 0.0
C500 C 0.55256 0.46647 0.94664 0.0
C501 C 0.66424 0.5342 0.9354 0.0
N502 N 0.52393 0.42174 -0.00074 0.0
N503 N 0.64781 0.51005 0.95923 0.0
H504 H 0.18381 0.48991 0.2294 0.0
H505 H 0.18902 0.60942 0.3611 0.0
H506 H 0.21624 0.61915 0.22658 0.0
H507 H 0.14048 0.47396 0.36142 0.0
H508 H 0.20262 0.61534 0.31222 0.0
H509 H 0.1706 0.48486 0.27814 0.0
C510 C 0.18816 0.51724 0.2391 0.0
C511 C 0.20112 0.55498 0.22402 0.0
C512 C 0.18891 0.5843 0.323 0.0
C513 C 0.18618 0.54959 0.27982 0.0
C514 C 0.18145 0.58101 0.35092 0.0
C515 C 0.16342 0.54107 0.36539 0.0
C516 C 0.17863 0.54751 0.30945 0.0
C517 C 0.15368 0.50514 0.35107 0.0
C518 C 0.18054 0.51434 0.26692 0.0
C519 C 0.20616 0.58942 0.23753 0.0
N520 N 0.16149 0.50925 0.32397 0.0
N521 N 0.19879 0.58595 0.2647 0.0
loop_
_geom_bond_atom_site_label_1
_geom_bond_atom_site_label_2
_geom_bond_distance
_geom_bond_site_symmetry_2
_ccdc_geom_bond_type
La0 C2 2.928 . S
La0 O20 2.521 . S
La0 O21 2.628 . S
La0 O22 2.554 . S
La0 O23 2.757 1_455 S
La0 O24 2.470 . S
La0 O29 2.482 . S
La0 O31 2.503 1_455 S
La1 C11 2.928 . S
La1 O23 2.482 . S
La1 O25 2.503 1_655 S
La1 O26 2.521 . S
La1 O27 2.628 . S
La1 O28 2.554 . S
La1 O29 2.757 1_655 S
La1 O30 2.470 . S
C2 La0 2.928 . S
C2 C3 1.503 . S
C2 O20 1.261 . S
C2 O21 1.243 . S
C3 C2 1.503 . S
C3 C4 1.394 . S
C3 C8 1.373 . S
C4 C3 1.394 . S
C4 C5 1.380 . S
C4 H32 0.930 . S
C5 C4 1.380 . S
C5 C6 1.376 . S
C5 H33 0.930 . S
C6 C5 1.376 . S
C6 C7 1.370 . S
C7 C6 1.370 . S
C7 C8 1.396 . S
C7 H34 0.929 . S
C8 C3 1.373 . S
C8 C7 1.396 . S
C8 H35 0.929 . S
C9 O22 1.240 . S
C9 O23 1.289 1_455 S
C10 O24 1.258 . S
C10 O25 1.256 . S
C11 La1 2.928 . S
C11 C12 1.503 . S
C11 O26 1.261 . S
C11 O27 1.243 . S
C12 C11 1.503 . S
C12 C13 1.394 . S
C12 C17 1.373 . S
C13 C12 1.394 . S
C13 C14 1.380 . S
C13 H36 0.930 . S
C14 C13 1.380 . S
C14 C15 1.376 . S
C14 H37 0.930 . S
C15 C14 1.376 . S
C15 C16 1.370 . S
C16 C15 1.370 . S
C16 C17 1.396 . S
C16 H38 0.929 . S
C17 C12 1.373 . S
C17 C16 1.396 . S
C17 H39 0.929 . S
C18 O28 1.240 1_455 S
C18 O29 1.289 . S
C19 O30 1.258 . S
C19 O31 1.256 . S
O20 La0 2.521 . S
O20 C2 1.261 . S
O21 La0 2.628 . S
O21 C2 1.243 . S
O22 La0 2.554 . S
O22 C9 1.240 . S
O23 La0 2.757 1_655 S
O23 La1 2.482 . S
O23 C9 1.289 1_655 S
O24 La0 2.470 . S
O24 C10 1.258 . S
O25 La1 2.503 1_455 S
O25 C10 1.256 . S
O26 La1 2.521 . S
O26 C11 1.261 . S
O27 La1 2.628 . S
O27 C11 1.243 . S
O28 La1 2.554 . S
O28 C18 1.240 1_655 S
O29 La0 2.482 . S
O29 La1 2.757 1_455 S
O29 C18 1.289 . S
O30 La1 2.470 . S
O30 C19 1.258 . S
O31 La0 2.503 1_655 S
O31 C19 1.256 . S
H32 C4 0.930 . S
H33 C5 0.930 . S
H34 C7 0.929 . S
H35 C8 0.929 . S
H36 C13 0.930 . S
H37 C14 0.930 . S
H38 C16 0.929 . S
H39 C17 0.929 . S
La40 C42 2.928 1_545 S
La40 O60 2.521 1_545 S
La40 O61 2.628 1_545 S
La40 O62 2.554 . S
La40 O63 2.757 . S
La40 O64 2.470 1_545 S
La40 O69 2.482 . S
La40 O71 2.503 . S
La41 C51 2.928 . S
La41 O63 2.482 . S
La41 O65 2.503 1_545 S
La41 O66 2.521 . S
La41 O67 2.628 . S
La41 O68 2.554 . S
La41 O69 2.757 . S
La41 O70 2.470 . S
C42 La40 2.928 1_565 S
C42 C43 1.503 . S
C42 O60 1.261 . S
C42 O61 1.243 . S
C43 C42 1.503 . S
C43 C44 1.394 . S
C43 C48 1.373 . S
C44 C43 1.394 . S
C44 C45 1.380 . S
C44 H72 0.930 . S
C45 C44 1.380 . S
C45 C46 1.376 . S
C45 H73 0.930 . S
C46 C45 1.376 . S
C46 C47 1.370 . S
C47 C46 1.370 . S
C47 C48 1.396 . S
C47 H74 0.929 . S
C48 C43 1.373 . S
C48 C47 1.396 . S
C48 H75 0.929 . S
C49 O62 1.240 . S
C49 O63 1.289 . S
C50 O64 1.258 . S
C50 O65 1.256 . S
C51 La41 2.928 . S
C51 C52 1.503 . S
C51 O66 1.261 . S
C51 O67 1.243 . S
C52 C51 1.503 . S
C52 C53 1.394 . S
C52 C57 1.373 . S
C53 C52 1.394 . S
C53 C54 1.380 . S
C53 H76 0.930 . S
C54 C53 1.380 . S
C54 C55 1.376 . S
C54 H77 0.930 . S
C55 C54 1.376 . S
C55 C56 1.370 . S
C56 C55 1.370 . S
C56 C57 1.396 . S
C56 H78 0.929 . S
C57 C52 1.373 . S
C57 C56 1.396 . S
C57 H79 0.929 . S
C58 O68 1.240 . S
C58 O69 1.289 . S
C59 O70 1.258 . S
C59 O71 1.256 . S
O60 La40 2.521 1_565 S
O60 C42 1.261 . S
O61 La40 2.628 1_565 S
O61 C42 1.243 . S
O62 La40 2.554 . S
O62 C49 1.240 . S
O63 La40 2.757 . S
O63 La41 2.482 . S
O63 C49 1.289 . S
O64 La40 2.470 1_565 S
O64 C50 1.258 . S
O65 La41 2.503 1_565 S
O65 C50 1.256 . S
O66 La41 2.521 . S
O66 C51 1.261 . S
O67 La41 2.628 . S
O67 C51 1.243 . S
O68 La41 2.554 . S
O68 C58 1.240 . S
O69 La40 2.482 . S
O69 La41 2.757 . S
O69 C58 1.289 . S
O70 La41 2.470 . S
O70 C59 1.258 . S
O71 La40 2.503 . S
O71 C59 1.256 . S
H72 C44 0.930 . S
H73 C45 0.930 . S
H74 C47 0.929 . S
H75 C48 0.929 . S
H76 C53 0.930 . S
H77 C54 0.930 . S
H78 C56 0.929 . S
H79 C57 0.929 . S
La80 C82 2.928 . S
La80 O100 2.521 . S
La80 O101 2.628 . S
La80 O102 2.554 . S
La80 O103 2.757 . S
La80 O104 2.470 . S
La80 O109 2.482 . S
La80 O111 2.503 . S
La81 C91 2.928 . S
La81 O103 2.482 . S
La81 O105 2.503 . S
La81 O106 2.521 . S
La81 O107 2.628 . S
La81 O108 2.554 . S
La81 O109 2.757 . S
La81 O110 2.470 . S
C82 La80 2.928 . S
C82 C83 1.503 . S
C82 O100 1.261 . S
C82 O101 1.243 . S
C83 C82 1.503 . S
C83 C84 1.394 . S
C83 C88 1.373 . S
C84 C83 1.394 . S
C84 C85 1.380 . S
C84 H112 0.930 . S
C85 C84 1.380 . S
C85 C86 1.376 . S
C85 H113 0.930 . S
C86 C85 1.376 . S
C86 C87 1.370 . S
C87 C86 1.370 . S
C87 C88 1.396 . S
C87 H114 0.929 . S
C88 C83 1.373 . S
C88 C87 1.396 . S
C88 H115 0.929 . S
C89 O102 1.240 . S
C89 O103 1.289 . S
C90 O104 1.258 . S
C90 O105 1.256 . S
C91 La81 2.928 . S
C91 C92 1.503 . S
C91 O106 1.261 . S
C91 O107 1.243 . S
C92 C91 1.503 . S
C92 C93 1.394 . S
C92 C97 1.373 . S
C93 C92 1.394 . S
C93 C94 1.380 . S
C93 H116 0.930 . S
C94 C93 1.380 . S
C94 C95 1.376 . S
C94 H117 0.930 . S
C95 C94 1.376 . S
C95 C96 1.370 . S
C96 C95 1.370 . S
C96 C97 1.396 . S
C96 H118 0.929 . S
C97 C92 1.373 . S
C97 C96 1.396 . S
C97 H119 0.929 . S
C98 O108 1.240 . S
C98 O109 1.289 . S
C99 O110 1.258 . S
C99 O111 1.256 . S
O100 La80 2.521 . S
O100 C82 1.261 . S
O101 La80 2.628 . S
O101 C82 1.243 . S
O102 La80 2.554 . S
O102 C89 1.240 . S
O103 La80 2.757 . S
O103 La81 2.482 . S
O103 C89 1.289 . S
O104 La80 2.470 . S
O104 C90 1.258 . S
O105 La81 2.503 . S
O105 C90 1.256 . S
O106 La81 2.521 . S
O106 C91 1.261 . S
O107 La81 2.628 . S
O107 C91 1.243 . S
O108 La81 2.554 . S
O108 C98 1.240 . S
O109 La80 2.482 . S
O109 La81 2.757 . S
O109 C98 1.289 . S
O110 La81 2.470 . S
O110 C99 1.258 . S
O111 La80 2.503 . S
O111 C99 1.256 . S
H112 C84 0.930 . S
H113 C85 0.930 . S
H114 C87 0.929 . S
H115 C88 0.929 . S
H116 C93 0.930 . S
H117 C94 0.930 . S
H118 C96 0.929 . S
H119 C97 0.929 . S
H120 C127 0.929 . S
H121 C130 0.930 . S
H122 C132 0.929 . S
H123 C124 0.969 . S
C124 H123 0.969 . S
C124 O125 1.550 . S
C124 H126 0.973 . S
O125 C124 1.550 . S
O125 C131 1.412 . S
H126 C124 0.973 . S
C127 H120 0.929 . S
C127 C128 1.400 . S
C127 C129 1.364 . S
C128 C127 1.400 . S
C128 C132 1.377 . S
C129 C127 1.364 . S
C129 C130 1.374 1_545 S
C130 H121 0.930 . S
C130 C129 1.374 1_565 S
C130 C131 1.383 . S
C131 O125 1.412 . S
C131 C130 1.383 . S
C131 C132 1.394 1_565 S
C132 H122 0.929 . S
C132 C128 1.377 . S
C132 C131 1.394 1_545 S
H133 C140 0.929 . S
H134 C143 0.930 . S
H135 C145 0.929 . S
H136 C137 0.969 . S
C137 H136 0.969 . S
C137 O138 1.550 . S
C137 H139 0.973 . S
O138 C137 1.550 . S
O138 C144 1.412 . S
H139 C137 0.973 . S
C140 H133 0.929 . S
C140 C141 1.400 . S
C140 C142 1.364 . S
C141 C140 1.400 . S
C141 C145 1.377 . S
C142 C140 1.364 . S
C142 C143 1.374 . S
C143 H134 0.930 . S
C143 C142 1.374 . S
C143 C144 1.383 . S
C144 O138 1.412 . S
C144 C143 1.383 . S
C144 C145 1.394 . S
C145 H135 0.929 . S
C145 C141 1.377 . S
C145 C144 1.394 . S
H146 C153 0.929 . S
H147 C156 0.930 . S
H148 C158 0.929 . S
H149 C150 0.969 . S
C150 H149 0.969 . S
C150 O151 1.550 . S
C150 H152 0.973 . S
O151 C150 1.550 . S
O151 C157 1.412 . S
H152 C150 0.973 . S
C153 H146 0.929 . S
C153 C154 1.400 . S
C153 C155 1.364 . S
C154 C153 1.400 . S
C154 C158 1.377 . S
C155 C153 1.364 . S
C155 C156 1.374 . S
C156 H147 0.930 . S
C156 C155 1.374 . S
C156 C157 1.383 . S
C157 O151 1.412 . S
C157 C156 1.383 . S
C157 C158 1.394 . S
C158 H148 0.929 . S
C158 C154 1.377 . S
C158 C157 1.394 . S
H159 C166 0.929 . S
H160 C169 0.930 . S
H161 C171 0.929 . S
H162 C163 0.969 . S
C163 H162 0.969 . S
C163 O164 1.550 . S
C163 H165 0.973 . S
O164 C163 1.550 . S
O164 C170 1.412 . S
H165 C163 0.973 . S
C166 H159 0.929 . S
C166 C167 1.400 . S
C166 C168 1.364 1_655 S
C167 C166 1.400 . S
C167 C171 1.377 1_655 S
C168 C166 1.364 1_455 S
C168 C169 1.374 . S
C169 H160 0.930 . S
C169 C168 1.374 . S
C169 C170 1.383 . S
C170 O164 1.412 . S
C170 C169 1.383 . S
C170 C171 1.394 . S
C171 H161 0.929 . S
C171 C167 1.377 1_455 S
C171 C170 1.394 . S
H172 C179 0.929 . S
H173 C182 0.930 . S
H174 C184 0.929 . S
H175 C176 0.969 . S
C176 H175 0.969 . S
C176 O177 1.550 . S
C176 H178 0.973 . S
O177 C176 1.550 . S
O177 C183 1.412 . S
H178 C176 0.973 . S
C179 H172 0.929 . S
C179 C180 1.400 . S
C179 C181 1.364 1_565 S
C180 C179 1.400 . S
C180 C184 1.377 1_565 S
C181 C179 1.364 1_545 S
C181 C182 1.374 . S
C182 H173 0.930 . S
C182 C181 1.374 . S
C182 C183 1.383 . S
C183 O177 1.412 . S
C183 C182 1.383 . S
C183 C184 1.394 . S
C184 H174 0.929 . S
C184 C180 1.377 1_545 S
C184 C183 1.394 . S
H185 C192 0.929 . S
H186 C195 0.930 . S
H187 C197 0.929 . S
H188 C189 0.969 . S
C189 H188 0.969 . S
C189 O190 1.550 . S
C189 H191 0.973 . S
O190 C189 1.550 . S
O190 C196 1.412 . S
H191 C189 0.973 . S
C192 H185 0.929 . S
C192 C193 1.400 . S
C192 C194 1.364 . S
C193 C192 1.400 . S
C193 C197 1.377 . S
C194 C192 1.364 . S
C194 C195 1.374 . S
C195 H186 0.930 . S
C195 C194 1.374 . S
C195 C196 1.383 . S
C196 O190 1.412 . S
C196 C195 1.383 . S
C196 C197 1.394 . S
C197 H187 0.929 . S
C197 C193 1.377 . S
C197 C196 1.394 . S
H198 C204 0.930 . S
H199 C208 0.930 . S
H200 C213 0.929 . S
H201 C211 0.929 . S
H202 C206 0.929 . S
H203 C212 0.929 . S
C204 H198 0.930 . S
C204 C205 1.367 . S
C204 C212 1.378 . S
C205 C204 1.367 . S
C205 C213 1.433 . S
C206 H202 0.929 . S
C206 C208 1.378 . S
C206 C210 1.350 . S
C207 C210 1.463 . S
C207 C212 1.350 . S
C207 N215 1.427 . S
C208 H199 0.930 . S
C208 C206 1.378 . S
C208 C209 1.367 . S
C209 C208 1.367 . S
C209 C211 1.433 . S
C210 C206 1.350 . S
C210 C207 1.463 . S
C210 N214 1.427 . S
C211 H201 0.929 . S
C211 C209 1.433 . S
C211 N214 1.384 . S
C212 H203 0.929 . S
C212 C204 1.378 . S
C212 C207 1.350 . S
C213 H200 0.929 . S
C213 C205 1.433 . S
C213 N215 1.384 . S
N214 C210 1.427 . S
N214 C211 1.384 . S
N215 C207 1.427 . S
N215 C213 1.384 . S
H216 C222 0.930 . S
H217 C226 0.930 . S
H218 C231 0.929 . S
H219 C229 0.929 . S
H220 C224 0.929 . S
H221 C230 0.929 . S
C222 H216 0.930 . S
C222 C223 1.367 . S
C222 C230 1.378 . S
C223 C222 1.367 . S
C223 C231 1.433 . S
C224 H220 0.929 . S
C224 C226 1.378 . S
C224 C228 1.350 . S
C225 C228 1.463 . S
C225 C230 1.350 . S
C225 N233 1.427 . S
C226 H217 0.930 . S
C226 C224 1.378 . S
C226 C227 1.367 . S
C227 C226 1.367 . S
C227 C229 1.433 . S
C228 C224 1.350 . S
C228 C225 1.463 . S
C228 N232 1.427 . S
C229 H219 0.929 . S
C229 C227 1.433 . S
C229 N232 1.384 . S
C230 H221 0.929 . S
C230 C222 1.378 . S
C230 C225 1.350 . S
C231 H218 0.929 . S
C231 C223 1.433 . S
C231 N233 1.384 . S
N232 C228 1.427 . S
N232 C229 1.384 . S
N233 C225 1.427 . S
N233 C231 1.384 . S
H234 C240 0.930 . S
H235 C244 0.930 . S
H236 C249 0.929 . S
H237 C247 0.929 . S
H238 C242 0.929 . S
H239 C248 0.929 . S
C240 H234 0.930 . S
C240 C241 1.367 . S
C240 C248 1.378 . S
C241 C240 1.367 . S
C241 C249 1.433 . S
C242 H238 0.929 . S
C242 C244 1.378 . S
C242 C246 1.350 . S
C243 C246 1.463 . S
C243 C248 1.350 . S
C243 N251 1.427 . S
C244 H235 0.930 . S
C244 C242 1.378 . S
C244 C245 1.367 . S
C245 C244 1.367 . S
C245 C247 1.433 . S
C246 C242 1.350 . S
C246 C243 1.463 . S
C246 N250 1.427 . S
C247 H237 0.929 . S
C247 C245 1.433 . S
C247 N250 1.384 . S
C248 H239 0.929 . S
C248 C240 1.378 . S
C248 C243 1.350 . S
C249 H236 0.929 . S
C249 C241 1.433 . S
C249 N251 1.384 . S
N250 C246 1.427 . S
N250 C247 1.384 . S
N251 C243 1.427 . S
N251 C249 1.384 . S
H252 C258 0.930 . S
H253 C262 0.930 . S
H254 C267 0.929 . S
H255 C265 0.929 . S
H256 C260 0.929 . S
H257 C266 0.929 . S
C258 H252 0.930 . S
C258 C259 1.367 . S
C258 C266 1.378 . S
C259 C258 1.367 . S
C259 C267 1.433 . S
C260 H256 0.929 . S
C260 C262 1.378 . S
C260 C264 1.350 . S
C261 C264 1.463 . S
C261 C266 1.350 . S
C261 N269 1.427 . S
C262 H253 0.930 . S
C262 C260 1.378 . S
C262 C263 1.367 . S
C263 C262 1.367 . S
C263 C265 1.433 . S
C264 C260 1.350 . S
C264 C261 1.463 . S
C264 N268 1.427 . S
C265 H255 0.929 . S
C265 C263 1.433 . S
C265 N268 1.384 . S
C266 H257 0.929 . S
C266 C258 1.378 . S
C266 C261 1.350 . S
C267 H254 0.929 . S
C267 C259 1.433 . S
C267 N269 1.384 . S
N268 C264 1.427 . S
N268 C265 1.384 . S
N269 C261 1.427 . S
N269 C267 1.384 . S
H270 C276 0.930 . S
H271 C280 0.930 . S
H272 C285 0.929 . S
H273 C283 0.929 . S
H274 C278 0.929 . S
H275 C284 0.929 . S
C276 H270 0.930 . S
C276 C277 1.367 . S
C276 C284 1.378 . S
C277 C276 1.367 . S
C277 C285 1.433 . S
C278 H274 0.929 . S
C278 C280 1.378 . S
C278 C282 1.350 . S
C279 C282 1.463 . S
C279 C284 1.350 . S
C279 N287 1.427 . S
C280 H271 0.930 . S
C280 C278 1.378 . S
C280 C281 1.367 . S
C281 C280 1.367 . S
C281 C283 1.433 . S
C282 C278 1.350 . S
C282 C279 1.463 . S
C282 N286 1.427 . S
C283 H273 0.929 . S
C283 C281 1.433 . S
C283 N286 1.384 . S
C284 H275 0.929 . S
C284 C276 1.378 . S
C284 C279 1.350 . S
C285 H272 0.929 . S
C285 C277 1.433 . S
C285 N287 1.384 . S
N286 C282 1.427 . S
N286 C283 1.384 . S
N287 C279 1.427 . S
N287 C285 1.384 . S
H288 C294 0.930 . S
H289 C298 0.930 . S
H290 C303 0.929 . S
H291 C301 0.929 . S
H292 C296 0.929 . S
H293 C302 0.929 . S
C294 H288 0.930 . S
C294 C295 1.367 . S
C294 C302 1.378 . S
C295 C294 1.367 . S
C295 C303 1.433 . S
C296 H292 0.929 . S
C296 C298 1.378 . S
C296 C300 1.350 . S
C297 C300 1.463 . S
C297 C302 1.350 . S
C297 N305 1.427 . S
C298 H289 0.930 . S
C298 C296 1.378 . S
C298 C299 1.367 . S
C299 C298 1.367 . S
C299 C301 1.433 . S
C300 C296 1.350 . S
C300 C297 1.463 . S
C300 N304 1.427 . S
C301 H291 0.929 . S
C301 C299 1.433 . S
C301 N304 1.384 . S
C302 H293 0.929 . S
C302 C294 1.378 . S
C302 C297 1.350 . S
C303 H290 0.929 . S
C303 C295 1.433 . S
C303 N305 1.384 . S
N304 C300 1.427 . S
N304 C301 1.384 . S
N305 C297 1.427 . S
N305 C303 1.384 . S
H306 C312 0.930 . S
H307 C316 0.930 . S
H308 C321 0.929 . S
H309 C319 0.929 . S
H310 C314 0.929 . S
H311 C320 0.929 . S
C312 H306 0.930 . S
C312 C313 1.367 . S
C312 C320 1.378 . S
C313 C312 1.367 . S
C313 C321 1.433 . S
C314 H310 0.929 . S
C314 C316 1.378 . S
C314 C318 1.350 . S
C315 C318 1.463 . S
C315 C320 1.350 . S
C315 N323 1.427 . S
C316 H307 0.930 . S
C316 C314 1.378 . S
C316 C317 1.367 . S
C317 C316 1.367 . S
C317 C319 1.433 . S
C318 C314 1.350 . S
C318 C315 1.463 . S
C318 N322 1.427 . S
C319 H309 0.929 . S
C319 C317 1.433 . S
C319 N322 1.384 . S
C320 H311 0.929 . S
C320 C312 1.378 . S
C320 C315 1.350 . S
C321 H308 0.929 . S
C321 C313 1.433 . S
C321 N323 1.384 . S
N322 C318 1.427 . S
N322 C319 1.384 . S
N323 C315 1.427 . S
N323 C321 1.384 . S
H324 C330 0.930 . S
H325 C334 0.930 . S
H326 C339 0.929 . S
H327 C337 0.929 . S
H328 C332 0.929 . S
H329 C338 0.929 . S
C330 H324 0.930 . S
C330 C331 1.367 . S
C330 C338 1.378 . S
C331 C330 1.367 . S
C331 C339 1.433 . S
C332 H328 0.929 . S
C332 C334 1.378 . S
C332 C336 1.350 . S
C333 C336 1.463 . S
C333 C338 1.350 . S
C333 N341 1.427 . S
C334 H325 0.930 . S
C334 C332 1.378 . S
C334 C335 1.367 . S
C335 C334 1.367 . S
C335 C337 1.433 . S
C336 C332 1.350 . S
C336 C333 1.463 . S
C336 N340 1.427 . S
C337 H327 0.929 . S
C337 C335 1.433 . S
C337 N340 1.384 . S
C338 H329 0.929 . S
C338 C330 1.378 . S
C338 C333 1.350 . S
C339 H326 0.929 . S
C339 C331 1.433 . S
C339 N341 1.384 . S
N340 C336 1.427 . S
N340 C337 1.384 . S
N341 C333 1.427 . S
N341 C339 1.384 . S
H342 C348 0.930 . S
H343 C352 0.930 . S
H344 C357 0.929 . S
H345 C355 0.929 . S
H346 C350 0.929 . S
H347 C356 0.929 . S
C348 H342 0.930 . S
C348 C349 1.367 . S
C348 C356 1.378 . S
C349 C348 1.367 . S
C349 C357 1.433 . S
C350 H346 0.929 . S
C350 C352 1.378 . S
C350 C354 1.350 . S
C351 C354 1.463 . S
C351 C356 1.350 . S
C351 N359 1.427 . S
C352 H343 0.930 . S
C352 C350 1.378 . S
C352 C353 1.367 . S
C353 C352 1.367 . S
C353 C355 1.433 . S
C354 C350 1.350 . S
C354 C351 1.463 . S
C354 N358 1.427 . S
C355 H345 0.929 . S
C355 C353 1.433 . S
C355 N358 1.384 . S
C356 H347 0.929 . S
C356 C348 1.378 . S
C356 C351 1.350 . S
C357 H344 0.929 . S
C357 C349 1.433 . S
C357 N359 1.384 . S
N358 C354 1.427 . S
N358 C355 1.384 . S
N359 C351 1.427 . S
N359 C357 1.384 . S
H360 C366 0.930 . S
H361 C370 0.930 . S
H362 C375 0.929 . S
H363 C373 0.929 . S
H364 C368 0.929 . S
H365 C374 0.929 . S
C366 H360 0.930 . S
C366 C367 1.367 . S
C366 C374 1.378 . S
C367 C366 1.367 . S
C367 C375 1.433 . S
C368 H364 0.929 . S
C368 C370 1.378 . S
C368 C372 1.350 . S
C369 C372 1.463 . S
C369 C374 1.350 . S
C369 N377 1.427 . S
C370 H361 0.930 . S
C370 C368 1.378 . S
C370 C371 1.367 . S
C371 C370 1.367 . S
C371 C373 1.433 . S
C372 C368 1.350 . S
C372 C369 1.463 . S
C372 N376 1.427 . S
C373 H363 0.929 . S
C373 C371 1.433 . S
C373 N376 1.384 . S
C374 H365 0.929 . S
C374 C366 1.378 . S
C374 C369 1.350 . S
C375 H362 0.929 . S
C375 C367 1.433 . S
C375 N377 1.384 . S
N376 C372 1.427 . S
N376 C373 1.384 . S
N377 C369 1.427 . S
N377 C375 1.384 . S
H378 C384 0.930 . S
H379 C388 0.930 . S
H380 C393 0.929 . S
H381 C391 0.929 . S
H382 C386 0.929 . S
H383 C392 0.929 . S
C384 H378 0.930 . S
C384 C385 1.367 . S
C384 C392 1.378 . S
C385 C384 1.367 . S
C385 C393 1.433 . S
C386 H382 0.929 . S
C386 C388 1.378 . S
C386 C390 1.350 . S
C387 C390 1.463 . S
C387 C392 1.350 . S
C387 N395 1.427 . S
C388 H379 0.930 . S
C388 C386 1.378 . S
C388 C389 1.367 . S
C389 C388 1.367 . S
C389 C391 1.433 . S
C390 C386 1.350 . S
C390 C387 1.463 . S
C390 N394 1.427 . S
C391 H381 0.929 . S
C391 C389 1.433 . S
C391 N394 1.384 . S
C392 H383 0.929 . S
C392 C384 1.378 . S
C392 C387 1.350 . S
C393 H380 0.929 . S
C393 C385 1.433 . S
C393 N395 1.384 . S
N394 C390 1.427 . S
N394 C391 1.384 . S
N395 C387 1.427 . S
N395 C393 1.384 . S
H396 C402 0.930 . S
H397 C406 0.930 . S
H398 C411 0.929 . S
H399 C409 0.929 . S
H400 C404 0.929 . S
H401 C410 0.929 . S
C402 H396 0.930 . S
C402 C403 1.367 . S
C402 C410 1.378 . S
C403 C402 1.367 . S
C403 C411 1.433 . S
C404 H400 0.929 . S
C404 C406 1.378 . S
C404 C408 1.350 . S
C405 C408 1.463 . S
C405 C410 1.350 . S
C405 N413 1.427 . S
C406 H397 0.930 . S
C406 C404 1.378 . S
C406 C407 1.367 . S
C407 C406 1.367 . S
C407 C409 1.433 . S
C408 C404 1.350 . S
C408 C405 1.463 . S
C408 N412 1.427 . S
C409 H399 0.929 . S
C409 C407 1.433 . S
C409 N412 1.384 . S
C410 H401 0.929 . S
C410 C402 1.378 . S
C410 C405 1.350 . S
C411 H398 0.929 . S
C411 C403 1.433 . S
C411 N413 1.384 . S
N412 C408 1.427 . S
N412 C409 1.384 . S
N413 C405 1.427 . S
N413 C411 1.384 . S
H414 C420 0.930 . S
H415 C424 0.930 . S
H416 C429 0.929 . S
H417 C427 0.929 1_655 S
H418 C422 0.929 . S
H419 C428 0.929 . S
C420 H414 0.930 . S
C420 C421 1.367 1_655 S
C420 C428 1.378 . S
C421 C420 1.367 1_455 S
C421 C429 1.433 . S
C422 H418 0.929 . S
C422 C424 1.378 . S
C422 C426 1.350 . S
C423 C426 1.463 1_554 S
C423 C428 1.350 1_455 S
C423 N431 1.427 . S
C424 H415 0.930 . S
C424 C422 1.378 . S
C424 C425 1.367 . S
C425 C424 1.367 . S
C425 C427 1.433 . S
C426 C422 1.350 . S
C426 C423 1.463 1_556 S
C426 N430 1.427 . S
C427 H417 0.929 1_455 S
C427 C425 1.433 . S
C427 N430 1.384 . S
C428 H419 0.929 . S
C428 C420 1.378 . S
C428 C423 1.350 1_655 S
C429 H416 0.929 . S
C429 C421 1.433 . S
C429 N431 1.384 . S
N430 C426 1.427 . S
N430 C427 1.384 . S
N431 C423 1.427 . S
N431 C429 1.384 . S
H432 C438 0.930 . S
H433 C442 0.930 . S
H434 C447 0.929 1_565 S
H435 C445 0.929 . S
H436 C440 0.929 . S
H437 C446 0.929 . S
C438 H432 0.930 . S
C438 C439 1.367 . S
C438 C446 1.378 . S
C439 C438 1.367 . S
C439 C447 1.433 . S
C440 H436 0.929 . S
C440 C442 1.378 . S
C440 C444 1.350 1_565 S
C441 C444 1.463 . S
C441 C446 1.350 . S
C441 N449 1.427 . S
C442 H433 0.930 . S
C442 C440 1.378 . S
C442 C443 1.367 1_565 S
C443 C442 1.367 1_545 S
C443 C445 1.433 . S
C444 C440 1.350 1_545 S
C444 C441 1.463 . S
C444 N448 1.427 . S
C445 H435 0.929 . S
C445 C443 1.433 . S
C445 N448 1.384 . S
C446 H437 0.929 . S
C446 C438 1.378 . S
C446 C441 1.350 . S
C447 H434 0.929 1_545 S
C447 C439 1.433 . S
C447 N449 1.384 . S
N448 C444 1.427 . S
N448 C445 1.384 . S
N449 C441 1.427 . S
N449 C447 1.384 . S
H450 C456 0.930 . S
H451 C460 0.930 . S
H452 C465 0.929 . S
H453 C463 0.929 . S
H454 C458 0.929 . S
H455 C464 0.929 . S
C456 H450 0.930 . S
C456 C457 1.367 . S
C456 C464 1.378 . S
C457 C456 1.367 . S
C457 C465 1.433 . S
C458 H454 0.929 . S
C458 C460 1.378 . S
C458 C462 1.350 . S
C459 C462 1.463 . S
C459 C464 1.350 . S
C459 N467 1.427 . S
C460 H451 0.930 . S
C460 C458 1.378 . S
C460 C461 1.367 . S
C461 C460 1.367 . S
C461 C463 1.433 . S
C462 C458 1.350 . S
C462 C459 1.463 . S
C462 N466 1.427 . S
C463 H453 0.929 . S
C463 C461 1.433 . S
C463 N466 1.384 . S
C464 H455 0.929 . S
C464 C456 1.378 . S
C464 C459 1.350 . S
C465 H452 0.929 . S
C465 C457 1.433 . S
C465 N467 1.384 . S
N466 C462 1.427 . S
N466 C463 1.384 . S
N467 C459 1.427 . S
N467 C465 1.384 . S
H468 C474 0.930 . S
H469 C478 0.930 . S
H470 C483 0.929 . S
H471 C481 0.929 . S
H472 C476 0.929 . S
H473 C482 0.929 . S
C474 H468 0.930 . S
C474 C475 1.367 . S
C474 C482 1.378 . S
C475 C474 1.367 . S
C475 C483 1.433 1_545 S
C476 H472 0.929 . S
C476 C478 1.378 . S
C476 C480 1.350 1_565 S
C477 C480 1.463 . S
C477 C482 1.350 . S
C477 N485 1.427 1_545 S
C478 H469 0.930 . S
C478 C476 1.378 . S
C478 C479 1.367 1_565 S
C479 C478 1.367 1_545 S
C479 C481 1.433 . S
C480 C476 1.350 1_545 S
C480 C477 1.463 . S
C480 N484 1.427 . S
C481 H471 0.929 . S
C481 C479 1.433 . S
C481 N484 1.384 . S
C482 H473 0.929 . S
C482 C474 1.378 . S
C482 C477 1.350 . S
C483 H470 0.929 . S
C483 C475 1.433 1_565 S
C483 N485 1.384 . S
N484 C480 1.427 . S
N484 C481 1.384 . S
N485 C477 1.427 1_565 S
N485 C483 1.384 . S
H486 C492 0.930 . S
H487 C496 0.930 . S
H488 C501 0.929 . S
H489 C499 0.929 . S
H490 C494 0.929 1_556 S
H491 C500 0.929 . S
C492 H486 0.930 . S
C492 C493 1.367 . S
C492 C500 1.378 . S
C493 C492 1.367 . S
C493 C501 1.433 . S
C494 H490 0.929 1_554 S
C494 C496 1.378 . S
C494 C498 1.350 1_554 S
C495 C498 1.463 . S
C495 C500 1.350 . S
C495 N503 1.427 . S
C496 H487 0.930 . S
C496 C494 1.378 . S
C496 C497 1.367 . S
C497 C496 1.367 . S
C497 C499 1.433 . S
C498 C494 1.350 1_556 S
C498 C495 1.463 . S
C498 N502 1.427 1_556 S
C499 H489 0.929 . S
C499 C497 1.433 . S
C499 N502 1.384 . S
C500 H491 0.929 . S
C500 C492 1.378 . S
C500 C495 1.350 . S
C501 H488 0.929 . S
C501 C493 1.433 . S
C501 N503 1.384 . S
N502 C498 1.427 1_554 S
N502 C499 1.384 . S
N503 C495 1.427 . S
N503 C501 1.384 . S
H504 C510 0.930 . S
H505 C514 0.930 . S
H506 C519 0.929 . S
H507 C517 0.929 . S
H508 C512 0.924 1_655 S
H509 C518 0.929 . S
C510 H504 0.930 . S
C510 C511 1.351 1_455 S
C510 C518 1.378 . S
C511 C510 1.351 1_655 S
C511 C519 1.450 . S
C512 H508 0.924 1_455 S
C512 C514 1.378 . S
C512 C516 1.350 . S
C513 C516 1.463 . S
C513 C518 1.350 . S
C513 N521 1.427 1_455 S
C514 H505 0.930 . S
C514 C512 1.378 . S
C514 C515 1.367 . S
C515 C514 1.367 . S
C515 C517 1.433 . S
C516 C512 1.350 . S
C516 C513 1.463 . S
C516 N520 1.427 . S
C517 H507 0.929 . S
C517 C515 1.433 . S
C517 N520 1.384 . S
C518 H509 0.929 . S
C518 C510 1.378 . S
C518 C513 1.350 . S
C519 H506 0.929 . S
C519 C511 1.450 . S
C519 N521 1.384 . S
N520 C516 1.427 . S
N520 C517 1.384 . S
N521 C513 1.427 1_655 S
N521 C519 1.384 . S
C205 C6 0.598 . S
C209 C189 0.595 . S
C223 C59 1.823 . S
C227 C167 1.801 . S
C241 C86 1.177 . S
C245 C180 1.187 . S
C259 C15 0.377 . S
C263 C193 0.244 . S
C281 C163 1.861 . S
C277 C50 2.002 . S
C299 C176 1.271 . S
C295 C95 1.320 . S
C313 C46 1.080 . S
C317 C141 1.083 . S
C331 C99 3.046 . S
C335 C154 3.017 1_655 S
C349 C10 2.006 . S
C353 C124 1.885 . S
C371 C137 1.289 . S
C367 C55 1.346 . S
C389 C150 2.906 . S
C385 C90 3.073 . S
C403 C19 1.827 . S
C407 C128 1.822 . S
C425 C155 1.754 . S
C421 C18 1.702 . S
C439 C49 1.449 . S
C443 C129 1.491 . S
C457 C98 1.508 . S
C461 C142 1.604 . S
C479 C181 1.541 . S
C475 C58 1.454 . S
C497 C194 1.311 . S
C493 C89 1.294 . S
C511 C9 1.406 1_655 S
C515 C168 1.478 . S
