# Generated by pormake.
# Topology zzz, (3,6)-cn, num edge types: 1
# Building blocks:
#     Node 0, Type 0, BuildingBlock: QEWDON_clean_linker_0, # of connection points: 3
#     Node 1, Type 0, BuildingBlock: QEWDON_clean_linker_0, # of connection points: 3
#     Node 2, Type 0, BuildingBlock: QEWDON_clean_linker_0, # of connection points: 3
#     Node 3, Type 0, BuildingBlock: QEWDON_clean_linker_0, # of connection points: 3
#     Node 4, Type 0, BuildingBlock: QEWDON_clean_linker_0, # of connection points: 3
#     Node 5, Type 0, BuildingBlock: QEWDON_clean_linker_0, # of connection points: 3
#     Node 6, Type 0, BuildingBlock: QEWDON_clean_linker_0, # of connection points: 3
#     Node 7, Type 0, BuildingBlock: QEWDON_clean_linker_0, # of connection points: 3
#     Node 8, Type 1, BuildingBlock: KUMJIN_clean_sbu_1, # of connection points: 6
#     Node 9, Type 1, BuildingBlock: KUMJIN_clean_sbu_1, # of connection points: 6
#     Node 10, Type 1, BuildingBlock: KUMJIN_clean_sbu_1, # of connection points: 6
#     Node 11, Type 1, BuildingBlock: KUMJIN_clean_sbu_1, # of connection points: 6
#     Edge 12, Type (0, 1), BuildingBlock: OJICUG_clean_linker_0, # of connection points: 2
#     Edge 13, Type (0, 1), BuildingBlock: OJICUG_clean_linker_0, # of connection points: 2
#     Edge 14, Type (0, 1), BuildingBlock: OJICUG_clean_linker_0, # of connection points: 2
#     Edge 15, Type (0, 1), BuildingBlock: OJICUG_clean_linker_0, # of connection points: 2
#     Edge 16, Type (0, 1), BuildingBlock: OJICUG_clean_linker_0, # of connection points: 2
#     Edge 17, Type (0, 1), BuildingBlock: OJICUG_clean_linker_0, # of connection points: 2
#     Edge 18, Type (0, 1), BuildingBlock: OJICUG_clean_linker_0, # of connection points: 2
#     Edge 19, Type (0, 1), BuildingBlock: OJICUG_clean_linker_0, # of connection points: 2
#     Edge 20, Type (0, 1), BuildingBlock: OJICUG_clean_linker_0, # of connection points: 2
#     Edge 21, Type (0, 1), BuildingBlock: OJICUG_clean_linker_0, # of connection points: 2
#     Edge 22, Type (0, 1), BuildingBlock: OJICUG_clean_linker_0, # of connection points: 2
#     Edge 23, Type (0, 1), BuildingBlock: OJICUG_clean_linker_0, # of connection points: 2
#     Edge 24, Type (0, 1), BuildingBlock: OJICUG_clean_linker_0, # of connection points: 2
#     Edge 25, Type (0, 1), BuildingBlock: OJICUG_clean_linker_0, # of connection points: 2
#     Edge 26, Type (0, 1), BuildingBlock: OJICUG_clean_linker_0, # of connection points: 2
#     Edge 27, Type (0, 1), BuildingBlock: OJICUG_clean_linker_0, # of connection points: 2
#     Edge 28, Type (0, 1), BuildingBlock: OJICUG_clean_linker_0, # of connection points: 2
#     Edge 29, Type (0, 1), BuildingBlock: OJICUG_clean_linker_0, # of connection points: 2
#     Edge 30, Type (0, 1), BuildingBlock: OJICUG_clean_linker_0, # of connection points: 2
#     Edge 31, Type (0, 1), BuildingBlock: OJICUG_clean_linker_0, # of connection points: 2
#     Edge 32, Type (0, 1), BuildingBlock: OJICUG_clean_linker_0, # of connection points: 2
#     Edge 33, Type (0, 1), BuildingBlock: OJICUG_clean_linker_0, # of connection points: 2
#     Edge 34, Type (0, 1), BuildingBlock: OJICUG_clean_linker_0, # of connection points: 2
#     Edge 35, Type (0, 1), BuildingBlock: OJICUG_clean_linker_0, # of connection points: 2
# Relax obj value: 0.161
# Max RMSD: 0.110
# Mean RMSD: 0.043
data_MOF--net-zzz--node1-KUMJIN_clean_sbu_1--node2-QEWDON_clean_linker_0--edge1-OJICUG_clean_linker_0
_symmetry_space_group_name_H-M    P1
_symmetry_Int_Tables_number       1
_symmetry_cell_setting            triclinic
loop_
_symmetry_equiv_pos_as_xyz
'x, y, z'
_cell_length_a     39.224497
_cell_length_b     39.028703
_cell_length_c     11.466135
_cell_angle_alpha  89.536833
_cell_angle_beta   90.207267
_cell_angle_gamma 90.139135
loop_
_atom_site_label
_atom_site_type_symbol
_atom_site_fract_x
_atom_site_fract_y
_atom_site_fract_z
_atom_type_partial_charge
H0 H 0.78307 0.52461 0.17849 0.0
C1 C 0.79946 0.52659 0.25386 0.0
C2 C 0.83019 0.50889 0.25034 0.0
C3 C 0.79062 0.54664 0.35074 0.0
H4 H 0.87841 0.49927 0.33059 0.0
C5 C 0.85402 0.51199 0.34019 0.0
C6 C 0.84784 0.53211 0.43824 0.0
C7 C 0.81571 0.54938 0.44358 0.0
C8 C 0.7559 0.56481 0.35075 0.0
H9 H 0.81059 0.56413 0.52071 0.0
C10 C 0.7286 0.55713 0.26963 0.0
C11 C 0.69704 0.57555 0.26881 0.0
C12 C 0.75 0.59124 0.4307 0.0
H13 H 0.76934 0.59953 0.4914 0.0
C14 C 0.71894 0.60832 0.43365 0.0
H15 H 0.73152 0.53717 0.2063 0.0
C16 C 0.69285 0.60038 0.35564 0.0
H17 H 0.66918 0.61397 0.36433 0.0
H18 H 0.71523 0.62838 0.49675 0.0
H19 H 0.07209 0.78774 0.18697 0.0
C20 C 0.06949 0.80359 0.26331 0.0
C21 C 0.08924 0.83324 0.26863 0.0
C22 C 0.04568 0.79552 0.35084 0.0
H23 H 0.09921 0.88021 0.35584 0.0
C24 C 0.08505 0.85633 0.35977 0.0
C25 C 0.06146 0.85072 0.44945 0.0
C26 C 0.04164 0.81982 0.44459 0.0
C27 C 1.02379 0.76335 0.33544 0.0
H28 H 1.02354 0.81492 0.5136 0.0
C29 C 0.03363 0.73512 0.26236 0.0
C30 C 1.01097 0.70733 0.23721 0.0
C31 C 0.9913 0.76182 0.38641 0.0
H32 H 0.98195 0.78236 0.44016 0.0
C33 C 0.96931 0.73447 0.36471 0.0
H34 H 0.05889 0.73442 0.22531 0.0
C35 C 0.97864 0.70803 0.29028 0.0
H36 H 0.95973 0.68856 0.27231 0.0
H37 H 0.94418 0.73426 0.40351 0.0
H38 H 0.79383 1.00165 0.14332 0.0
C39 C 0.77706 1.00632 0.21592 0.0
C40 C 0.74204 1.00262 0.19602 0.0
C41 C 0.78978 1.01807 0.32375 0.0
H42 H 0.69247 1.00201 0.27635 0.0
C43 C 0.71954 1.00597 0.28999 0.0
C44 C 0.72982 1.02034 0.39544 0.0
C45 C 0.76533 1.02613 0.41315 0.0
C46 C 0.82819 1.02225 0.33952 0.0
H47 H 0.7734 0.03791 0.49369 0.0
C48 C 0.85158 1.02519 0.2434 0.0
C49 C 0.88756 1.025 0.26091 0.0
C50 C 0.84221 1.02129 0.45257 0.0
H51 H 0.82622 1.01862 0.52871 0.0
C52 C 0.87736 1.02271 0.47017 0.0
H53 H 0.84234 1.02718 0.1548 0.0
C54 C 0.89972 1.02385 0.37598 0.0
H55 H 0.92682 1.02426 0.39312 0.0
H56 H 0.88735 1.02248 0.5581 0.0
H57 H 0.50087 0.81081 0.19208 0.0
C58 C 0.50555 0.79434 0.26618 0.0
C59 C 0.48685 0.76389 0.27136 0.0
C60 C 0.53021 0.80253 0.35139 0.0
H61 H 0.47954 0.71578 0.35746 0.0
C62 C 0.49272 0.7402 0.36104 0.0
C63 C 0.51656 0.74603 0.44974 0.0
C64 C 0.53543 0.77753 0.44444 0.0
C65 C 0.55074 0.83612 0.33774 0.0
H66 H 0.55361 0.78208 0.51339 0.0
C67 C 0.54331 0.86233 0.25093 0.0
C68 C 0.56441 0.89201 0.23549 0.0
C69 C 0.57941 0.84183 0.40934 0.0
H70 H 0.58738 0.82356 0.47487 0.0
C71 C 0.59941 0.87119 0.39705 0.0
H72 H 0.52166 0.86015 0.1935 0.0
C73 C 0.59205 0.89591 0.31247 0.0
H74 H 0.60832 0.91833 0.30784 0.0
H75 H 0.62141 0.8745 0.45295 0.0
H76 H 0.30553 0.59759 0.27629 0.0
C77 C 0.28652 0.59 0.21295 0.0
C78 C 0.25492 0.6062 0.21625 0.0
C79 C 0.29382 0.56533 0.12801 0.0
H80 H 0.20488 0.60991 0.14343 0.0
C81 C 0.22977 0.59825 0.13406 0.0
C82 C 0.23537 0.57498 0.04377 0.0
C83 C 0.26759 0.55777 0.04283 0.0
C84 C 0.32966 0.5502 0.12577 0.0
H85 H 0.27209 0.539 0.97584 0.0
C86 C 0.35183 0.54885 0.2265 0.0
C87 C 0.38655 0.53792 0.21857 0.0
C88 C 0.34319 0.5396 0.01891 0.0
H89 H 0.32838 0.54101 0.93932 0.0
C90 C 0.37676 0.52847 1.01081 0.0
H91 H 0.34225 0.55595 0.31115 0.0
C92 C 0.39812 0.52777 0.10827 0.0
H93 H 0.42429 0.52024 0.09573 0.0
H94 H 0.38654 0.52125 0.92671 0.0
H95 H 0.99565 0.31081 0.27028 0.0
C96 C 1.00299 0.29186 0.20691 0.0
C97 C 0.98721 0.25989 0.21316 0.0
C98 C 1.02693 0.29953 0.1194 0.0
H99 H 0.98335 0.20957 0.1431 0.0
C100 C 0.99468 0.23472 0.13132 0.0
C101 C 1.01699 0.24063 0.03818 0.0
C102 C 0.03394 0.27323 0.03426 0.0
C103 C 0.0421 0.33566 0.11562 0.0
H104 H 0.05208 0.27792 0.96521 0.0
C105 C 0.04331 0.35796 0.21553 0.0
C106 C 0.05454 0.39279 0.20661 0.0
C107 C 0.05325 0.34927 1.0086 0.0
H108 H 0.05207 0.33442 0.92952 0.0
C109 C 0.06477 0.38298 0.9997 0.0
H110 H 0.03599 0.34845 0.30057 0.0
C111 C 0.06519 0.40444 0.09631 0.0
H112 H 0.07302 0.43073 0.08327 0.0
H113 H 0.07251 0.39287 0.91563 0.0
H114 H 0.27241 0.99177 0.22892 0.0
C115 C 0.29094 1.00191 0.16787 0.0
C116 C 0.32155 0.98403 0.15239 0.0
C117 C 0.28402 1.03196 0.10318 0.0
H118 H 0.36973 0.98255 0.06286 0.0
C119 C 0.34568 0.99599 0.07182 0.0
C120 C 0.34071 1.0262 1.00847 0.0
C121 C 0.30988 0.04449 0.02508 0.0
C122 C 0.24901 0.04824 0.11043 0.0
H123 H 0.30613 0.06815 0.97693 0.0
C124 C 0.22774 0.0467 0.21227 0.0
C125 C 0.19382 0.06017 0.21081 0.0
C126 C 0.23543 0.0634 1.00909 0.0
H127 H 0.24968 0.06414 0.92849 0.0
C128 C 0.2025 0.07632 1.00713 0.0
H129 H 0.23754 0.03554 0.29223 0.0
C130 C 0.18193 0.07452 0.10549 0.0
H131 H 0.15608 0.08366 0.0975 0.0
H132 H 0.19256 0.08695 0.92702 0.0
H133 H 0.53958 0.28612 0.31034 0.0
C134 C 0.54027 0.30316 0.23572 0.0
C135 C 0.55084 0.33657 0.25548 0.0
C136 C 0.53002 0.29235 0.1244 0.0
H137 H 0.55899 0.38682 0.18535 0.0
C138 C 0.55086 0.36089 0.16566 0.0
C139 C 0.54115 0.35251 0.05175 0.0
C140 C 0.53034 0.31781 0.03122 0.0
C141 C 0.51775 0.25517 0.11207 0.0
H142 H 0.5231 0.31087 0.9435 0.0
C143 C 0.52525 0.22862 0.19718 0.0
C144 C 0.50931 0.19574 0.19348 0.0
C145 C 0.4959 0.24636 0.01951 0.0
H146 H 0.48882 0.26493 0.95339 0.0
C147 C 0.48154 0.21363 1.01239 0.0
H148 H 0.54282 0.23319 0.26809 0.0
C149 C 0.48774 0.18888 0.09845 0.0
H150 H 0.47562 0.16404 0.09018 0.0
H151 H 0.46465 0.20764 0.94053 0.0
Eu152 Eu 1.00651 0.04867 0.62373 0.0
C153 C 0.10885 0.115 0.95297 0.0
N154 N 0.11262 0.09402 0.85948 0.0
C155 C 0.15704 0.13014 0.78374 0.0
C156 C 0.12934 0.1446 0.96477 0.0
C157 C 0.13665 0.10082 0.77637 0.0
C158 C 0.15357 0.15197 0.87874 0.0
C159 C 0.07807 0.13022 0.1285 0.0
C160 C 0.08335 0.10773 0.03422 0.0
C161 C 0.09861 0.15949 0.14052 0.0
C162 C 0.12428 0.16653 0.05941 0.0
Eu163 Eu 0.07827 0.04415 0.85932 0.0
N164 N 0.06378 0.07898 0.02143 0.0
C165 C 0.05238 0.12263 0.20878 0.0
C166 C 0.04073 0.07026 0.1057 0.0
C167 C 0.03373 0.09246 0.19743 0.0
H168 H 0.14056 0.08332 0.70556 0.0
H169 H 1.01461 0.08573 0.26151 0.0
H170 H 0.93895 1.01329 0.7578 0.0
H171 H 0.07287 1.00739 0.22621 0.0
H172 H 1.02832 0.04578 0.10627 0.0
H173 H 0.04735 0.13941 0.28154 0.0
H174 H 0.0568 0.04802 0.37694 0.0
H175 H 0.17592 0.13549 0.71739 0.0
H176 H 0.09483 0.17689 0.21246 0.0
H177 H 0.1397 0.18939 0.06956 0.0
H178 H 0.90101 0.9632 0.73553 0.0
H179 H 0.16958 0.17456 0.88448 0.0
H180 H 0.04124 0.95298 0.2059 0.0
N181 N 0.96918 1.00129 0.61032 0.0
C182 C 0.97417 0.97989 0.51884 0.0
C183 C 0.92157 0.9675 0.67441 0.0
C184 C 0.95295 0.95102 0.50271 0.0
C185 C 0.94328 0.99566 0.68749 0.0
C186 C 0.92632 0.94516 0.58144 0.0
N187 N 1.02105 1.01462 0.45936 0.0
C188 C 0.04475 1.02333 0.37723 0.0
C189 C 1.00812 0.96305 0.35232 0.0
C190 C 1.00142 0.98609 0.44392 0.0
C191 C 0.0351 0.97016 0.27655 0.0
C192 C 0.05311 1.00072 0.28802 0.0
H193 H 0.90953 0.92327 0.57194 0.0
H194 H 0.94381 0.90582 0.39859 0.0
H195 H 0.99229 0.91613 0.26781 0.0
O196 O 0.9954 0.09136 0.50372 0.0
O197 O 1.01778 0.99521 0.70086 0.0
O198 O 0.0748 0.99724 0.73895 0.0
O199 O 0.95515 0.0575 0.5589 0.0
O200 O 0.06068 0.06683 0.5693 0.0
O201 O 0.09715 1.03315 0.67709 0.0
O202 O 0.0935 1.0076 0.99617 0.0
O203 O 0.06442 0.09702 0.7807 0.0
O204 O 1.00741 0.09244 0.75601 0.0
O205 O 0.13139 0.03833 0.90958 0.0
O206 O 1.02511 1.02388 0.91837 0.0
O207 O 0.98707 0.05533 0.8079 0.0
C208 C 0.04758 0.97993 0.70539 0.0
C209 C 0.94265 0.11618 0.55504 0.0
C210 C 0.92883 0.1767 0.54131 0.0
C211 C 0.91088 0.17471 0.64636 0.0
C212 C 0.92418 0.11419 0.66018 0.0
C213 C 0.90831 0.1433 0.70504 0.0
C214 C 0.94444 0.14745 0.49568 0.0
C215 C 0.09048 0.05123 0.58289 0.0
C216 C 0.96254 0.08686 0.51219 0.0
C217 C 0.95965 0.92826 0.41153 0.0
C218 C 0.98738 0.93403 0.33748 0.0
C219 C 0.03409 0.11115 0.78366 0.0
C220 C 0.14788 0.98239 0.95879 0.0
C221 C 0.15732 0.92083 0.97209 0.0
C222 C 0.19001 0.92503 0.92521 0.0
C223 C 0.18067 0.98625 0.9106 0.0
C224 C 0.13643 0.94952 0.98865 0.0
C225 C 0.20148 0.9577 0.8936 0.0
C226 C 0.99415 0.03682 0.90107 0.0
C227 C 0.12601 1.01258 0.97879 0.0
H228 H 0.89916 0.19731 0.6828 0.0
H229 H 0.92253 0.09038 0.70897 0.0
H230 H 0.89451 0.14161 0.78647 0.0
H231 H 0.95906 0.14936 0.41566 0.0
H232 H 0.20666 0.90319 0.9145 0.0
H233 H 0.1903 1.0113 0.88625 0.0
H234 H 0.11162 0.94625 0.02876 0.0
H235 H 0.22672 0.96099 0.85729 0.0
Eu236 Eu 0.54906 0.07965 0.80206 0.0
C237 C 0.56942 0.93574 0.68453 0.0
N238 N 0.5735 0.96344 0.6132 0.0
C239 C 0.62963 0.94393 0.56371 0.0
C240 C 0.5963 0.91245 0.7048 0.0
C241 C 0.60185 0.96568 0.54444 0.0
C242 C 0.62724 0.91787 0.64731 0.0
C243 C 0.53114 0.89885 0.79437 0.0
C244 C 0.53734 0.9289 0.72866 0.0
C245 C 0.55831 0.87675 0.82097 0.0
C246 C 0.59088 0.8836 0.77653 0.0
Eu247 Eu 0.52607 1.00159 0.59926 0.0
N248 N 0.51179 0.95113 0.70368 0.0
C249 C 0.49768 0.89165 0.8293 0.0
C250 C 0.47884 0.94342 0.73183 0.0
C251 C 0.47133 0.91377 0.79617 0.0
H252 H 0.60327 0.98414 0.474 0.0
H253 H 0.44528 0.90808 0.82059 0.0
H254 H 0.47643 0.12485 0.81035 0.0
H255 H 0.67733 0.1263 0.68897 0.0
H256 H 0.45856 0.96062 0.70631 0.0
H257 H 0.49185 0.8688 0.87976 0.0
H258 H 0.63597 0.08898 0.78816 0.0
H259 H 0.65255 0.94682 0.51223 0.0
H260 H 0.55421 0.85384 0.87311 0.0
H261 H 0.61136 0.8657 0.79428 0.0
H262 H 0.45355 0.17917 0.72967 0.0
H263 H 0.64857 0.90067 0.66069 0.0
H264 H 0.65749 0.17658 0.57551 0.0
N265 N 0.52528 0.13158 0.73377 0.0
C266 C 0.54678 0.15299 0.67533 0.0
C267 C 0.47971 0.17199 0.71305 0.0
C268 C 0.53489 0.18442 0.62915 0.0
C269 C 0.49266 0.14131 0.75844 0.0
C270 C 0.50076 0.1934 0.6467 0.0
N271 N 0.59236 0.11476 0.7183 0.0
C272 C 0.6266 0.10971 0.73406 0.0
C273 C 0.60417 0.16716 0.61239 0.0
C274 C 0.5811 0.1442 0.66636 0.0
C275 C 0.63901 0.15966 0.61618 0.0
C276 C 0.65031 0.13128 0.67986 0.0
H277 H 0.49069 0.21725 0.61215 0.0
H278 H 0.54872 0.23019 0.53187 0.0
H279 H 0.60935 0.21519 0.51773 0.0
O280 O 0.56134 0.12321 0.91186 0.0
O281 O 0.5146 0.08594 0.64084 0.0
O282 O 0.53671 0.05212 0.50128 0.0
O283 O 0.54621 0.07604 0.99323 0.0
O284 O 0.59407 0.04763 0.73808 0.0
O285 O 0.57479 1.03227 0.55758 0.0
O286 O 0.48227 0.99704 0.48187 0.0
O287 O 0.52092 0.99638 0.79775 0.0
O288 O 0.5669 1.02599 0.86121 0.0
O289 O 0.52708 0.96654 0.45205 0.0
O290 O 0.47797 1.02698 0.67789 0.0
O291 O 0.49457 0.06105 0.83563 0.0
C292 C 0.5251 0.08217 0.53315 0.0
C293 C 0.59481 0.10538 0.06346 0.0
C294 C 0.65288 0.0833 0.06092 0.0
C295 C 0.66364 0.11226 0.12401 0.0
C296 C 0.60635 0.13488 0.11982 0.0
C297 C 0.64044 0.13785 0.15313 0.0
C298 C 0.61821 0.07977 0.034 0.0
C299 C 0.60012 0.03979 0.62898 0.0
C300 C 0.56134 0.10546 1.00711 0.0
C301 C 0.55751 0.20621 0.56946 0.0
C302 C 0.59203 0.1976 0.56103 0.0
C303 C 0.54601 0.99972 0.8725 0.0
C304 C 0.47361 0.93982 0.42147 0.0
C305 C 0.41725 0.91464 0.39353 0.0
C306 C 0.43087 0.88183 0.41143 0.0
C307 C 0.48694 0.90681 0.44165 0.0
C308 C 0.43882 0.94336 0.3979 0.0
C309 C 0.4656 0.87804 0.43655 0.0
C310 C 0.471 0.04465 0.7741 0.0
C311 C 0.49508 0.97095 0.42709 0.0
H312 H 0.68996 0.11524 0.15085 0.0
H313 H 0.58945 0.15637 0.13126 0.0
H314 H 0.64914 0.16055 0.19808 0.0
H315 H 0.60982 0.05813 0.98317 0.0
H316 H 0.41475 0.85934 0.40546 0.0
H317 H 0.51372 0.90316 0.4614 0.0
H318 H 0.42854 0.96867 0.3801 0.0
H319 H 0.47607 0.85274 0.45131 0.0
Eu320 Eu 0.57572 0.54718 0.64771 0.0
C321 C 0.47408 0.4829 0.98089 0.0
N322 N 0.46815 0.50366 0.88701 0.0
C323 C 0.42292 0.46678 0.82301 0.0
C324 C 0.45469 0.45278 0.99816 0.0
C325 C 0.44281 0.49628 0.80888 0.0
C326 C 0.42881 0.44499 0.91813 0.0
C327 C 0.50747 0.46949 0.15394 0.0
C328 C 0.50016 0.49141 0.05833 0.0
C329 C 0.48876 0.4391 0.1695 0.0
C330 C 0.46223 0.43096 0.09262 0.0
Eu331 Eu 0.50235 0.55347 0.87243 0.0
N332 N 0.51768 0.52133 0.04248 0.0
C333 C 0.53282 0.47916 0.23312 0.0
C334 C 0.53926 0.53255 0.12796 0.0
C335 C 0.54834 0.51111 0.22106 0.0
H336 H 0.4379 0.51335 0.73616 0.0
H337 H 0.56681 0.51961 0.28485 0.0
H338 H 0.64445 0.5722 0.80247 0.0
H339 H 0.52103 0.60372 0.24761 0.0
H340 H 0.54938 0.55818 0.12668 0.0
H341 H 0.53945 0.46288 0.30678 0.0
H342 H 0.52747 0.56023 0.40019 0.0
H343 H 0.40294 0.46096 0.76087 0.0
H344 H 0.49423 0.42198 0.24206 0.0
H345 H 0.44787 0.40753 0.10638 0.0
H346 H 0.68508 0.62036 0.8068 0.0
H347 H 0.41344 0.42207 0.92845 0.0
H348 H 0.56037 0.65311 0.23919 0.0
N349 N 0.61739 0.59099 0.65447 0.0
C350 C 0.61635 0.61471 0.56681 0.0
C351 C 0.66565 0.6193 0.73964 0.0
C352 C 0.63946 0.64251 0.56517 0.0
C353 C 0.64219 0.59232 0.73819 0.0
C354 C 0.664 0.64475 0.65372 0.0
N355 N 0.56778 0.58608 0.48878 0.0
C356 C 0.54378 0.58229 0.40315 0.0
C357 C 0.58866 0.63732 0.39283 0.0
C358 C 0.59085 0.61227 0.4822 0.0
C359 C 0.56293 0.63436 0.30888 0.0
C360 C 0.54056 0.60663 0.31375 0.0
H361 H 0.68209 0.66576 0.65556 0.0
H362 H 0.6545 0.68902 0.47438 0.0
H363 H 0.61033 0.68427 0.32291 0.0
O364 O 0.58521 0.51065 0.50873 0.0
O365 O 0.56304 0.60151 0.71314 0.0
O366 O 0.50583 0.59878 0.74357 0.0
O367 O 0.62764 0.53334 0.59944 0.0
O368 O 0.52193 0.53095 0.57892 0.0
O369 O 0.48343 0.5618 0.68743 0.0
O370 O 0.48795 0.59376 0.99533 0.0
O371 O 0.51314 0.50048 0.79191 0.0
O372 O 0.57051 0.50124 0.77427 0.0
O373 O 0.44951 0.56094 0.92245 0.0
O374 O 0.556 0.57273 0.92978 0.0
O375 O 0.59167 0.53623 0.83476 0.0
C376 C 0.53299 0.61642 0.71198 0.0
C377 C 0.62983 0.47395 0.57001 0.0
C378 C 0.61825 0.41274 0.58404 0.0
C379 C 0.64559 0.40874 0.66196 0.0
C380 C 0.65721 0.46975 0.64868 0.0
C381 C 0.66503 0.43726 0.69391 0.0
C382 C 0.61113 0.44516 0.53674 0.0
C383 C 0.4912 0.54474 0.59286 0.0
C384 C 0.6176 0.50826 0.53431 0.0
C385 C 0.63701 0.6675 0.47684 0.0
C386 C 0.61184 0.66479 0.39058 0.0
C387 C 0.54234 0.48413 0.79734 0.0
C388 C 0.43596 0.61933 0.9359 0.0
C389 C 0.42418 0.68023 0.95114 0.0
C390 C 0.40524 0.67935 0.84759 0.0
C391 C 0.41648 0.61849 0.83231 0.0
C392 C 0.43915 0.65022 0.99549 0.0
C393 C 0.40111 0.64834 0.78904 0.0
C394 C 0.58548 0.55632 0.92319 0.0
C395 C 0.45544 0.58921 0.97705 0.0
H396 H 0.65185 0.38373 0.69751 0.0
H397 H 0.67209 0.49156 0.67717 0.0
H398 H 0.68601 0.43426 0.75468 0.0
H399 H 0.59061 0.44804 0.47376 0.0
H400 H 0.39398 0.70252 0.81205 0.0
H401 H 0.41366 0.59504 0.78329 0.0
H402 H 0.45448 0.65128 0.0744 0.0
H403 H 0.38654 0.64754 0.70876 0.0
Eu404 Eu 0.0458 0.58348 0.61441 0.0
C405 C 0.10981 0.4776 0.94486 0.0
N406 N 0.08829 0.47459 0.85196 0.0
C407 C 0.12138 0.42796 0.77821 0.0
C408 C 0.13833 0.45581 0.95682 0.0
C409 C 0.09338 0.44991 0.77004 0.0
C410 C 0.1439 0.43084 0.87212 0.0
C411 C 0.12711 0.50793 0.11956 0.0
C412 C 0.10408 0.50344 0.02575 0.0
C413 C 0.15545 0.48627 0.13132 0.0
C414 C 0.16091 0.46017 0.05071 0.0
Eu415 Eu 0.04049 0.51138 0.85056 0.0
N416 N 0.07626 0.52412 1.01304 0.0
C417 C 0.12092 0.53391 0.19982 0.0
C418 C 0.06881 0.54742 0.09737 0.0
C419 C 0.09149 0.55354 0.1891 0.0
H420 H 0.07535 0.44642 0.70013 0.0
H421 H 0.08573 0.57278 0.25351 0.0
H422 H 1.01291 0.65392 0.73611 0.0
H423 H 1.00409 0.51565 0.21858 0.0
H424 H 0.04498 0.56066 0.09797 0.0
H425 H 0.13813 0.53832 0.27234 0.0
H426 H 0.04515 0.53323 0.36724 0.0
H427 H 0.12528 0.40847 0.71304 0.0
H428 H 0.17328 0.48943 0.20286 0.0
H429 H 0.18298 0.44376 0.06089 0.0
H430 H 0.96362 0.69243 0.70839 0.0
H431 H 0.16555 0.41372 0.87824 0.0
H432 H 0.94899 0.54573 0.19993 0.0
N433 N 0.99937 0.62156 0.59507 0.0
C434 C 0.97729 0.61544 0.50574 0.0
C435 C 0.96707 0.67079 0.65127 0.0
C436 C 0.94861 0.63664 0.48765 0.0
C437 C 0.99481 0.64881 0.6673 0.0
C438 C 0.94381 0.66462 0.56139 0.0
N439 N 1.01151 0.56807 0.45036 0.0
C440 C 1.02026 0.54453 0.36825 0.0
C441 C 0.95943 0.57977 0.344 0.0
C442 C 0.98287 0.58734 0.43423 0.0
C443 C 0.96641 0.55249 0.26966 0.0
C444 C 0.99737 0.53534 0.28019 0.0
H445 H 0.92215 0.68151 0.54999 0.0
H446 H 0.90289 0.64464 0.38446 0.0
H447 H 0.91216 0.59469 0.25956 0.0
O448 O 0.08979 0.59381 0.50176 0.0
O449 O 0.99281 0.57285 0.69244 0.0
O450 O 0.99437 0.5154 0.72653 0.0
O451 O 0.0545 0.63427 0.53959 0.0
O452 O 0.06334 0.52877 0.56049 0.0
O453 O 1.02963 0.49229 0.66774 0.0
O454 O 1.00348 0.49802 0.98626 0.0
O455 O 0.09339 0.52533 0.77679 0.0
O456 O 0.08881 0.58266 0.75048 0.0
O457 O 0.03236 0.45841 0.90327 0.0
O458 O 1.02181 0.56507 0.91109 0.0
O459 O 0.05123 0.60451 0.79837 0.0
C460 C 0.97724 0.54301 0.69519 0.0
C461 C 0.11267 0.64814 0.54629 0.0
C462 C 0.17226 0.6649 0.53628 0.0
C463 C 0.16936 0.68245 0.64167 0.0
C464 C 0.10974 0.66617 0.65179 0.0
C465 C 0.13793 0.68336 0.69861 0.0
C466 C 0.14388 0.64804 0.48862 0.0
C467 C 0.04783 0.4987 0.5742 0.0
C468 C 0.08456 0.62678 0.50159 0.0
C469 C 0.92521 0.62884 0.39878 0.0
C470 C 0.9304 0.60028 0.32806 0.0
C471 C 0.1073 0.55594 0.78055 0.0
C472 C 0.97545 0.44509 0.9454 0.0
C473 C 0.91359 0.43988 0.94929 0.0
C474 C 0.91574 0.40736 0.89897 0.0
C475 C 0.9773 0.41248 0.89407 0.0
C476 C 0.94345 0.45853 0.97227 0.0
C477 C 0.94758 0.39387 0.8706 0.0
C478 C 0.03409 0.59654 0.89355 0.0
C479 C 1.00666 0.46514 0.96957 0.0
H480 H 0.1913 0.69506 0.67988 0.0
H481 H 0.08594 0.6664 0.69926 0.0
H482 H 0.13555 0.69682 0.78035 0.0
H483 H 0.14652 0.63361 0.40859 0.0
H484 H 0.89294 0.39236 0.88328 0.0
H485 H 1.00166 0.40133 0.87196 0.0
H486 H 0.94171 0.48318 1.01489 0.0
H487 H 0.94928 0.36876 0.83169 0.0
C488 C 0.14475 0.08499 0.32889 0.0
C489 C 0.16958 0.05904 0.31419 0.0
H490 H 0.1006 0.10276 0.42109 0.0
C491 C 0.16876 1.03123 0.39339 0.0
H492 H 0.1447 0.10749 0.27316 0.0
C493 C 0.14352 1.02903 0.48094 0.0
C494 C 0.11797 0.0543 0.49155 0.0
H495 H 0.18693 1.01055 0.38565 0.0
H496 H 0.1435 1.00693 0.53867 0.0
C497 C 0.11928 0.08247 0.41472 0.0
C498 C 0.54612 0.15774 0.32764 0.0
C499 C 0.51377 0.16822 0.28727 0.0
H500 H 0.5753 0.1208 0.42719 0.0
C501 C 0.4852 0.15021 0.33148 0.0
H502 H 0.56862 0.17177 0.30143 0.0
C503 C 0.48886 0.12272 0.41139 0.0
C504 C 0.52128 0.11103 0.44579 0.0
H505 H 0.45974 0.1576 0.30468 0.0
H506 H 0.46623 0.11014 0.44481 0.0
C507 C 0.5499 0.1287 0.40144 0.0
C508 C 0.41066 0.56324 0.40829 0.0
C509 C 0.41179 0.53812 0.32063 0.0
H510 H 0.43427 0.58516 0.56006 0.0
C511 C 0.43917 0.51444 0.32666 0.0
H512 H 0.39063 0.58226 0.40765 0.0
C513 C 0.4648 0.51654 0.4133 0.0
C514 C 0.46396 0.54205 0.49908 0.0
H515 H 0.44095 0.49395 0.26407 0.0
H516 H 0.48515 0.49787 0.41378 0.0
C517 C 0.43612 0.56506 0.49584 0.0
C518 C 0.07894 0.44466 0.31521 0.0
C519 C 0.05435 0.41805 0.30785 0.0
H520 H 0.09637 0.49031 0.40171 0.0
C521 C 1.02844 0.41784 0.39285 0.0
H522 H 0.09993 0.4457 0.25435 0.0
C523 C 1.02667 0.4436 0.47887 0.0
C524 C 0.0506 0.47077 0.4832 0.0
H525 H 1.00876 0.39835 0.39096 0.0
H526 H 1.00592 0.4426 0.54087 0.0
C527 C 0.07703 0.47048 0.40056 0.0
C528 C 0.9102 0.04934 0.06868 0.0
C529 C 0.91319 1.02604 0.16234 0.0
H530 H 0.93313 0.07144 0.91592 0.0
C531 C 0.94265 1.00525 0.16635 0.0
H532 H 0.88824 0.06603 0.06248 0.0
C533 C 0.96856 1.00819 0.08185 0.0
C534 C 0.96616 1.03232 0.99044 0.0
H535 H 0.94569 0.98662 0.2358 0.0
H536 H 0.99061 0.99168 0.08855 0.0
C537 C 0.93625 0.05251 0.98462 0.0
C538 C 0.52631 0.92974 0.1031 0.0
C539 C 0.55902 0.91902 0.13971 0.0
H540 H 0.49661 0.9635 0.99301 0.0
C541 C 0.58726 0.93561 0.0865 0.0
H542 H 0.50379 0.91822 0.14124 0.0
C543 C 0.58309 0.96204 1.00283 0.0
C544 C 0.55053 0.9729 0.96744 0.0
H545 H 0.61301 0.92791 0.10835 0.0
H546 H 0.60548 0.97327 0.96293 0.0
C547 C 0.52219 0.95611 0.01842 0.0
C548 C 0.6445 0.59648 0.15311 0.0
C549 C 0.66834 0.57007 0.17924 0.0
H550 H 0.59992 0.61277 0.05756 0.0
C551 C 0.66377 0.53887 0.1194 0.0
H552 H 0.64695 0.62156 0.19145 0.0
C553 C 0.63695 0.53447 0.03782 0.0
C554 C 0.6131 0.56075 1.01438 0.0
H555 H 0.68066 0.5175 0.13583 0.0
H556 H 0.63471 0.51016 0.99348 0.0
C557 C 0.61723 0.59169 0.0743 0.0
C558 C 0.04095 0.68291 0.05608 0.0
C559 C 1.0194 0.67821 0.15331 0.0
H560 H 0.06261 0.66162 0.90069 0.0
C561 C 1.00381 0.64558 0.16515 0.0
H562 H 0.05339 0.70733 0.0413 0.0
C563 C 1.00813 0.61958 0.08167 0.0
C564 C 1.02928 0.6244 0.98409 0.0
H565 H 0.98786 0.63995 0.23927 0.0
H566 H 0.99463 0.59563 0.09353 0.0
C567 C 0.0459 0.65653 0.97373 0.0
C568 C 0.93326 0.23469 0.28689 0.0
C569 C 0.96455 0.25076 0.31066 0.0
H570 H 0.89634 0.19823 0.34687 0.0
C571 C 0.9777 0.2501 0.4246 0.0
H572 H 0.92268 0.23512 0.19944 0.0
C573 C 0.96246 0.22923 0.50905 0.0
C574 C 0.93402 0.20921 0.47954 0.0
H575 H 1.00189 0.26225 0.44438 0.0
H576 H 0.97525 0.2255 0.59211 0.0
C577 C 0.9181 0.21383 0.37108 0.0
C578 C 0.34677 0.9263 0.1829 0.0
C579 C 0.33179 0.95569 0.23076 0.0
H580 H 0.38641 0.88903 0.20123 0.0
C581 C 0.33719 0.96298 0.34895 0.0
H582 H 0.3427 0.92013 0.09193 0.0
C583 C 0.36221 0.94521 0.4114 0.0
C584 C 0.3817 0.92 0.35596 0.0
H585 H 0.32588 0.98546 0.38777 0.0
H586 H 0.36943 0.95428 0.49714 0.0
C587 C 0.37174 0.90847 0.24548 0.0
C588 C 0.54618 0.36873 0.43959 0.0
C589 C 0.56451 0.34621 0.36941 0.0
H590 H 0.54931 0.40663 0.57258 0.0
C591 C 0.59861 0.33869 0.3957 0.0
H592 H 0.51976 0.37458 0.42015 0.0
C593 C 0.61569 0.35735 0.48116 0.0
C594 C 0.59853 0.38345 0.54013 0.0
H595 H 0.61293 0.32121 0.3418 0.0
H596 H 0.64301 0.3543 0.49039 0.0
C597 C 0.56304 0.38686 0.52649 0.0
C598 C 0.22973 0.66072 0.28465 0.0
C599 C 0.24613 0.62968 0.31139 0.0
H600 H 0.19306 0.69748 0.34083 0.0
C601 C 0.24621 0.61741 0.42677 0.0
H602 H 0.22969 0.6707 0.19618 0.0
C603 C 0.22556 0.63298 0.50971 0.0
C604 C 0.20496 0.6608 0.47719 0.0
H605 H 0.2587 0.59349 0.44903 0.0
H606 H 0.22229 0.62061 0.59393 0.0
C607 C 0.20906 0.67618 0.36735 0.0
C608 C 0.09623 0.85306 0.06477 0.0
C609 C 0.11133 0.84351 0.17112 0.0
H610 H 0.09999 0.88562 0.91413 0.0
C611 C 0.14544 0.85226 0.19347 0.0
H612 H 0.06984 0.8467 0.04658 0.0
C613 C 0.16275 0.87417 0.11741 0.0
C614 C 0.14582 0.88775 0.01965 0.0
H615 H 0.15737 0.84511 0.27549 0.0
H616 H 0.18767 0.88369 0.14252 0.0
C617 C 0.1134 0.87529 0.98935 0.0
C618 C 0.73704 0.03998 0.02666 0.0
C619 C 0.72774 1.00835 0.07711 0.0
H620 H 0.71934 0.09065 0.98814 0.0
C621 C 0.69428 0.99679 0.05657 0.0
H622 H 0.76327 0.04869 0.02912 0.0
C623 C 0.66868 1.02127 0.04041 0.0
C624 C 0.67755 0.05613 0.02924 0.0
H625 H 0.68676 0.97134 0.0851 0.0
H626 H 0.64253 1.01343 0.05363 0.0
C627 C 0.71178 0.06447 1.00675 0.0
C628 C 0.4765 0.75203 0.06125 0.0
C629 C 0.4638 0.75387 0.17537 0.0
H630 H 0.47253 0.72681 0.89644 0.0
C631 C 0.43217 0.73874 0.20155 0.0
H632 H 0.5009 0.76337 0.03921 0.0
C633 C 0.41611 0.71781 0.1202 0.0
C634 C 0.43131 0.71233 1.01167 0.0
H635 H 0.4218 0.74014 0.28886 0.0
H636 H 0.39394 0.70307 0.14646 0.0
C637 C 0.46027 0.73123 0.97955 0.0
C638 C 0.85119 0.50483 0.04801 0.0
C639 C 0.83946 0.48827 0.14903 0.0
H640 H 0.88417 0.50135 0.90022 0.0
C641 C 0.84485 0.45301 0.16426 0.0
H642 H 0.84739 0.53212 0.03575 0.0
C643 C 0.86553 0.43539 0.08666 0.0
C644 C 0.8813 0.45315 0.99473 0.0
H645 H 0.83603 0.44002 0.24244 0.0
H646 H 0.87251 0.40916 0.10694 0.0
C647 C 0.87213 0.48729 0.97088 0.0
C648 C 0.05294 0.20199 0.9033 0.0
C649 C 1.02128 0.21134 0.95137 0.0
H650 H 0.08125 0.16465 0.80524 0.0
C651 C 0.99326 0.18946 0.92665 0.0
H652 H 0.07513 0.21802 0.91701 0.0
C653 C 0.99733 0.15793 0.8697 0.0
C654 C 1.02943 0.14712 0.8307 0.0
H655 H 0.9679 0.19601 0.95592 0.0
H656 H 0.97526 0.14145 0.8599 0.0
C657 C 0.0567 0.17072 0.84191 0.0
C658 C 0.39395 0.06113 0.97256 0.0
C659 C 0.36955 0.03769 0.93109 0.0
H660 H 0.44451 0.08181 0.95677 0.0
C661 C 0.37776 1.01877 0.83076 0.0
H662 H 0.38901 0.07533 0.05147 0.0
C663 C 0.40975 1.02233 0.77591 0.0
C664 C 0.435 0.04437 0.82125 0.0
H665 H 0.36001 0.99977 0.7983 0.0
H666 H 0.4152 1.0065 0.7012 0.0
C667 C 0.4261 0.06443 0.91867 0.0
C668 C 0.51524 0.39252 0.89462 0.0
C669 C 0.5435 0.38147 0.96131 0.0
H670 H 0.49293 0.43265 0.78826 0.0
C671 C 0.57275 0.40287 0.95903 0.0
H672 H 0.49212 0.3773 0.8938 0.0
C673 C 0.57288 0.43499 0.90131 0.0
C674 C 0.54373 0.44736 0.84291 0.0
H675 H 0.59528 0.39552 1.008 0.0
H676 H 0.59543 0.45095 0.90784 0.0
C677 C 0.5155 0.42477 0.8358 0.0
C678 C 0.19687 0.53776 0.9113 0.0
C679 C 0.20627 0.56998 0.95623 0.0
H680 H 0.15988 0.50849 0.81391 0.0
C681 C 0.18477 0.59796 0.92684 0.0
H682 H 0.2126 0.51555 0.92891 0.0
C683 C 0.15363 0.59346 0.86751 0.0
C684 C 0.14283 0.5609 0.83101 0.0
H685 H 0.19136 0.62367 0.95382 0.0
H686 H 0.13747 0.61559 0.85363 0.0
C687 C 0.16597 0.5335 0.84787 0.0
C688 C 0.08657 0.89915 0.57167 0.0
C689 C 0.05777 0.87926 0.53932 0.0
H690 H 0.10613 0.9458 0.6447 0.0
C691 C 1.02588 0.89053 0.5803 0.0
H692 H 0.11195 0.89109 0.54743 0.0
C693 C 1.02283 0.92185 0.64165 0.0
C694 C 0.05122 0.9436 0.66037 0.0
H695 H 1.00302 0.87611 0.56017 0.0
H696 H 0.99795 0.92952 0.67176 0.0
C697 C 0.08334 0.93077 0.62906 0.0
C698 C 0.69522 1.01893 0.58543 0.0
C699 C 0.70122 1.03265 0.47317 0.0
H700 H 0.65879 1.01103 0.72444 0.0
C701 C 0.67493 0.05252 0.4219 0.0
H702 H 0.71441 1.00311 0.62724 0.0
C703 C 0.64282 0.05559 0.47442 0.0
C704 C 0.63603 0.04017 0.58283 0.0
H705 H 0.6784 0.0636 0.33578 0.0
H706 H 0.62286 0.06929 0.42819 0.0
C707 C 0.66314 1.02316 0.64049 0.0
C708 C 0.49277 0.69702 0.57459 0.0
C709 C 0.52119 0.71722 0.54004 0.0
H710 H 0.47399 0.65023 0.65086 0.0
C711 C 0.55344 0.70602 0.57943 0.0
H712 H 0.46718 0.70494 0.55134 0.0
C713 C 0.55711 0.67463 0.642 0.0
C714 C 0.529 0.65267 0.66359 0.0
H715 H 0.57605 0.72062 0.55745 0.0
H716 H 0.58221 0.66718 0.67118 0.0
C717 C 0.4966 0.66536 0.63316 0.0
C718 C 0.88769 0.56593 0.57493 0.0
C719 C 0.87654 0.5345 0.52823 0.0
H720 H 0.92707 0.59306 0.66867 0.0
C721 C 0.89681 0.50535 0.55354 0.0
H722 H 0.87305 0.58899 0.55915 0.0
C723 C 0.92841 0.50796 0.61167 0.0
C724 C 0.94103 0.53979 0.64922 0.0
H725 H 0.889 0.48033 0.52299 0.0
H726 H 0.94365 0.48504 0.62252 0.0
C727 C 0.91922 0.5684 0.6356 0.0
loop_
_geom_bond_atom_site_label_1
_geom_bond_atom_site_label_2
_geom_bond_distance
_geom_bond_site_symmetry_2
_ccdc_geom_bond_type
H0 C1 0.949 . S
C1 H0 0.949 . S
C1 C2 1.395 . S
C1 C3 1.391 . S
C2 C1 1.395 . S
C2 C5 1.390 . S
C3 C1 1.391 . S
C3 C7 1.387 . S
C3 C8 1.491 . S
H4 C5 0.950 . S
C5 C2 1.390 . S
C5 H4 0.950 . S
C5 C6 1.378 . S
C6 C5 1.378 . S
C6 C7 1.409 . S
C7 C3 1.387 . S
C7 C6 1.409 . S
C7 H9 0.951 . S
C8 C3 1.491 . S
C8 C10 1.382 . S
C8 C12 1.404 . S
H9 C7 0.951 . S
C10 C8 1.382 . S
C10 C11 1.390 . S
C10 H15 0.949 . S
C11 C10 1.390 . S
C11 C16 1.399 . S
C12 C8 1.404 . S
C12 H13 0.950 . S
C12 C14 1.375 . S
H13 C12 0.950 . S
C14 C12 1.375 . S
C14 C16 1.382 . S
C14 H18 0.950 . S
H15 C10 0.949 . S
C16 C11 1.399 . S
C16 C14 1.382 . S
C16 H17 0.952 . S
H17 C16 0.952 . S
H18 C14 0.950 . S
H19 C20 0.949 . S
C20 H19 0.949 . S
C20 C21 1.395 . S
C20 C22 1.391 . S
C21 C20 1.395 . S
C21 C24 1.390 . S
C22 C20 1.391 . S
C22 C26 1.387 . S
C22 C27 1.491 . S
H23 C24 0.950 . S
C24 C21 1.390 . S
C24 H23 0.950 . S
C24 C25 1.378 . S
C25 C24 1.378 . S
C25 C26 1.409 . S
C26 C22 1.387 . S
C26 C25 1.409 . S
C26 H28 0.951 . S
C27 C22 1.491 . S
C27 C29 1.382 . S
C27 C31 1.404 . S
H28 C26 0.951 . S
C29 C27 1.382 . S
C29 C30 1.390 . S
C29 H34 0.949 . S
C30 C29 1.390 . S
C30 C35 1.399 . S
C31 C27 1.404 . S
C31 H32 0.950 . S
C31 C33 1.375 . S
H32 C31 0.950 . S
C33 C31 1.375 . S
C33 C35 1.382 . S
C33 H37 0.950 . S
H34 C29 0.949 . S
C35 C30 1.399 . S
C35 C33 1.382 . S
C35 H36 0.952 . S
H36 C35 0.952 . S
H37 C33 0.950 . S
H38 C39 0.949 . S
C39 H38 0.949 . S
C39 C40 1.395 . S
C39 C41 1.391 . S
C40 C39 1.395 . S
C40 C43 1.390 . S
C41 C39 1.391 . S
C41 C45 1.387 . S
C41 C46 1.491 . S
H42 C43 0.950 . S
C43 C40 1.390 . S
C43 H42 0.950 . S
C43 C44 1.378 . S
C44 C43 1.378 . S
C44 C45 1.409 . S
C45 C41 1.387 . S
C45 C44 1.409 . S
C45 H47 0.951 . S
C46 C41 1.491 . S
C46 C48 1.382 . S
C46 C50 1.404 . S
H47 C45 0.951 . S
C48 C46 1.382 . S
C48 C49 1.390 . S
C48 H53 0.949 . S
C49 C48 1.390 . S
C49 C54 1.399 . S
C50 C46 1.404 . S
C50 H51 0.950 . S
C50 C52 1.375 . S
H51 C50 0.950 . S
C52 C50 1.375 . S
C52 C54 1.382 . S
C52 H56 0.950 . S
H53 C48 0.949 . S
C54 C49 1.399 . S
C54 C52 1.382 . S
C54 H55 0.952 . S
H55 C54 0.952 . S
H56 C52 0.950 . S
H57 C58 0.949 . S
C58 H57 0.949 . S
C58 C59 1.395 . S
C58 C60 1.391 . S
C59 C58 1.395 . S
C59 C62 1.390 . S
C60 C58 1.391 . S
C60 C64 1.387 . S
C60 C65 1.491 . S
H61 C62 0.950 . S
C62 C59 1.390 . S
C62 H61 0.950 . S
C62 C63 1.378 . S
C63 C62 1.378 . S
C63 C64 1.409 . S
C64 C60 1.387 . S
C64 C63 1.409 . S
C64 H66 0.951 . S
C65 C60 1.491 . S
C65 C67 1.382 . S
C65 C69 1.404 . S
H66 C64 0.951 . S
C67 C65 1.382 . S
C67 C68 1.390 . S
C67 H72 0.949 . S
C68 C67 1.390 . S
C68 C73 1.399 . S
C69 C65 1.404 . S
C69 H70 0.950 . S
C69 C71 1.375 . S
H70 C69 0.950 . S
C71 C69 1.375 . S
C71 C73 1.382 . S
C71 H75 0.950 . S
H72 C67 0.949 . S
C73 C68 1.399 . S
C73 C71 1.382 . S
C73 H74 0.952 . S
H74 C73 0.952 . S
H75 C71 0.950 . S
H76 C77 0.949 . S
C77 H76 0.949 . S
C77 C78 1.395 . S
C77 C79 1.391 . S
C78 C77 1.395 . S
C78 C81 1.390 1_554 S
C79 C77 1.391 . S
C79 C83 1.387 1_554 S
C79 C84 1.491 . S
H80 C81 0.950 . S
C81 C78 1.390 1_556 S
C81 H80 0.950 . S
C81 C82 1.378 . S
C82 C81 1.378 . S
C82 C83 1.409 . S
C83 C79 1.387 1_556 S
C83 C82 1.409 . S
C83 H85 0.951 . S
C84 C79 1.491 . S
C84 C86 1.382 . S
C84 C88 1.404 1_554 S
H85 C83 0.951 . S
C86 C84 1.382 . S
C86 C87 1.390 . S
C86 H91 0.949 . S
C87 C86 1.390 . S
C87 C92 1.399 . S
C88 C84 1.404 1_556 S
C88 H89 0.950 . S
C88 C90 1.375 . S
H89 C88 0.950 . S
C90 C88 1.375 . S
C90 C92 1.382 1_556 S
C90 H94 0.950 . S
H91 C86 0.949 . S
C92 C87 1.399 . S
C92 C90 1.382 1_554 S
C92 H93 0.952 . S
H93 C92 0.952 . S
H94 C90 0.950 . S
H95 C96 0.949 . S
C96 H95 0.949 . S
C96 C97 1.395 . S
C96 C98 1.391 . S
C97 C96 1.395 . S
C97 C100 1.390 1_554 S
C98 C96 1.391 . S
C98 C102 1.387 1_554 S
C98 C103 1.491 . S
H99 C100 0.950 . S
C100 C97 1.390 1_556 S
C100 H99 0.950 . S
C100 C101 1.378 . S
C101 C100 1.378 . S
C101 C102 1.409 . S
C102 C98 1.387 1_556 S
C102 C101 1.409 . S
C102 H104 0.951 . S
C103 C98 1.491 . S
C103 C105 1.382 . S
C103 C107 1.404 1_454 S
H104 C102 0.951 . S
C105 C103 1.382 . S
C105 C106 1.390 . S
C105 H110 0.949 . S
C106 C105 1.390 . S
C106 C111 1.399 . S
C107 C103 1.404 1_656 S
C107 H108 0.950 . S
C107 C109 1.375 . S
H108 C107 0.950 . S
C109 C107 1.375 . S
C109 C111 1.382 1_656 S
C109 H113 0.950 . S
H110 C105 0.949 . S
C111 C106 1.399 . S
C111 C109 1.382 1_454 S
C111 H112 0.952 1_455 S
H112 C111 0.952 1_655 S
H113 C109 0.950 . S
H114 C115 0.949 . S
C115 H114 0.949 . S
C115 C116 1.395 . S
C115 C117 1.391 . S
C116 C115 1.395 . S
C116 C119 1.390 1_554 S
C117 C115 1.391 . S
C117 C121 1.387 1_554 S
C117 C122 1.491 . S
H118 C119 0.950 . S
C119 C116 1.390 1_556 S
C119 H118 0.950 . S
C119 C120 1.378 . S
C120 C119 1.378 . S
C120 C121 1.409 . S
C121 C117 1.387 1_556 S
C121 C120 1.409 . S
C121 H123 0.951 . S
C122 C117 1.491 . S
C122 C124 1.382 . S
C122 C126 1.404 1_544 S
H123 C121 0.951 . S
C124 C122 1.382 . S
C124 C125 1.390 . S
C124 H129 0.949 . S
C125 C124 1.390 . S
C125 C130 1.399 . S
C126 C122 1.404 1_566 S
C126 H127 0.950 . S
C126 C128 1.375 . S
H127 C126 0.950 . S
C128 C126 1.375 . S
C128 C130 1.382 1_566 S
C128 H132 0.950 . S
H129 C124 0.949 . S
C130 C125 1.399 . S
C130 C128 1.382 1_544 S
C130 H131 0.952 1_545 S
H131 C130 0.952 1_565 S
H132 C128 0.950 . S
H133 C134 0.949 . S
C134 H133 0.949 . S
C134 C135 1.395 . S
C134 C136 1.391 1_554 S
C135 C134 1.395 . S
C135 C138 1.390 1_554 S
C136 C134 1.391 1_556 S
C136 C140 1.387 . S
C136 C141 1.491 1_556 S
H137 C138 0.950 . S
C138 C135 1.390 1_556 S
C138 H137 0.950 . S
C138 C139 1.378 . S
C139 C138 1.378 . S
C139 C140 1.409 . S
C140 C136 1.387 . S
C140 C139 1.409 . S
C140 H142 0.951 . S
C141 C136 1.491 1_554 S
C141 C143 1.382 . S
C141 C145 1.404 1_554 S
H142 C140 0.951 . S
C143 C141 1.382 . S
C143 C144 1.390 . S
C143 H148 0.949 . S
C144 C143 1.390 . S
C144 C149 1.399 . S
C145 C141 1.404 1_556 S
C145 H146 0.950 . S
C145 C147 1.375 . S
H146 C145 0.950 . S
C147 C145 1.375 . S
C147 C149 1.382 1_556 S
C147 H151 0.950 . S
H148 C143 0.949 . S
C149 C144 1.399 . S
C149 C147 1.382 1_554 S
C149 H150 0.952 . S
H150 C149 0.952 . S
H151 C147 0.950 . S
Eu152 N181 2.600 . S
Eu152 N187 2.562 . S
Eu152 O196 2.461 1_655 S
Eu152 O197 2.373 1_545 S
Eu152 O199 2.432 . S
Eu152 O200 2.291 1_655 S
Eu152 O204 2.335 1_655 S
Eu152 O207 2.372 . S
Eu152 C216 2.787 . S
C153 N154 1.365 1_554 S
C153 C156 1.405 . S
C153 C160 1.448 . S
N154 C153 1.365 1_556 S
N154 C157 1.319 . S
N154 Eu163 2.600 1_545 S
C155 C157 1.397 . S
C155 C158 1.367 . S
C155 H175 0.931 . S
C156 C153 1.405 . S
C156 C158 1.403 1_554 S
C156 C162 1.439 . S
C157 N154 1.319 . S
C157 C155 1.397 . S
C157 H168 0.930 1_545 S
C158 C155 1.367 . S
C158 C156 1.403 1_556 S
C158 H179 0.929 1_556 S
C159 C160 1.430 . S
C159 C161 1.387 . S
C159 C165 1.404 . S
C160 C153 1.448 . S
C160 C159 1.430 . S
C160 N164 1.351 . S
C161 C159 1.387 . S
C161 C162 1.374 . S
C161 H176 0.931 . S
C162 C156 1.439 . S
C162 C161 1.374 . S
C162 H177 0.931 . S
Eu163 N154 2.600 1_565 S
Eu163 N164 2.562 1_566 S
Eu163 O198 2.335 . S
Eu163 O201 2.372 . S
Eu163 O202 2.462 . S
Eu163 O203 2.373 1_565 S
Eu163 O205 2.432 . S
Eu163 O206 2.291 1_465 S
Eu163 C227 2.787 . S
N164 C160 1.351 . S
N164 Eu163 2.562 1_544 S
N164 C166 1.325 . S
C165 C159 1.404 . S
C165 C167 1.366 . S
C165 H173 0.930 . S
C166 N164 1.325 . S
C166 C167 1.416 . S
C166 H172 0.929 1_455 S
C167 C165 1.366 . S
C167 C166 1.416 . S
C167 H169 0.930 1_455 S
H168 C157 0.930 1_565 S
H169 C167 0.930 1_655 S
H170 C185 0.930 . S
H171 C192 0.930 . S
H172 C166 0.929 1_655 S
H173 C165 0.930 . S
H174 C188 0.929 . S
H175 C155 0.931 . S
H176 C161 0.931 . S
H177 C162 0.931 . S
H178 C183 0.931 . S
H179 C158 0.929 1_554 S
H180 C191 0.930 . S
N181 Eu152 2.600 . S
N181 C182 1.365 1_545 S
N181 C185 1.319 . S
C182 N181 1.365 1_565 S
C182 C184 1.405 . S
C182 C190 1.448 . S
C183 H178 0.931 . S
C183 C185 1.397 . S
C183 C186 1.367 1_545 S
C184 C182 1.405 . S
C184 C186 1.403 . S
C184 C217 1.439 . S
C185 H170 0.930 . S
C185 N181 1.319 . S
C185 C183 1.397 . S
C186 C183 1.367 1_565 S
C186 C184 1.403 . S
C186 H193 0.929 . S
N187 Eu152 2.562 . S
N187 C188 1.325 1_655 S
N187 C190 1.351 1_545 S
C188 H174 0.929 . S
C188 N187 1.325 1_455 S
C188 C192 1.416 1_545 S
C189 C190 1.430 . S
C189 C191 1.404 . S
C189 C218 1.387 . S
C190 C182 1.448 . S
C190 N187 1.351 1_565 S
C190 C189 1.430 . S
C191 H180 0.930 . S
C191 C189 1.404 . S
C191 C192 1.366 1_655 S
C192 H171 0.930 . S
C192 C188 1.416 1_565 S
C192 C191 1.366 1_455 S
H193 C186 0.929 . S
H194 C217 0.931 . S
H195 C218 0.931 . S
O196 Eu152 2.461 1_455 S
O196 C216 1.251 1_455 S
O197 Eu152 2.373 1_565 S
O197 C208 1.249 . S
O198 Eu163 2.335 . S
O198 C208 1.264 1_455 S
O199 Eu152 2.432 . S
O199 C216 1.268 . S
O200 Eu152 2.291 1_455 S
O200 C215 1.255 . S
O201 Eu163 2.372 . S
O201 C215 1.257 1_565 S
O202 Eu163 2.462 . S
O202 C227 1.252 . S
O203 Eu163 2.373 1_545 S
O203 C219 1.249 . S
O204 Eu152 2.335 1_455 S
O204 C219 1.264 . S
O205 Eu163 2.432 . S
O205 C227 1.268 . S
O206 Eu163 2.291 1_645 S
O206 C226 1.255 . S
O207 Eu152 2.372 . S
O207 C226 1.257 . S
C208 O197 1.249 . S
C208 O198 1.264 1_655 S
C209 C212 1.382 . S
C209 C214 1.390 . S
C209 C216 1.506 . S
C210 C211 1.398 . S
C210 C214 1.392 . S
C211 C210 1.398 . S
C211 C213 1.372 . S
C211 H228 0.931 . S
C212 C209 1.382 . S
C212 C213 1.390 . S
C212 H229 0.931 . S
C213 C211 1.372 . S
C213 C212 1.390 . S
C213 H230 0.929 . S
C214 C209 1.390 . S
C214 C210 1.392 . S
C214 H231 0.930 1_655 S
C215 O200 1.255 . S
C215 O201 1.257 1_545 S
C216 Eu152 2.787 . S
C216 O196 1.251 1_655 S
C216 O199 1.268 . S
C216 C209 1.506 . S
C217 C184 1.439 . S
C217 H194 0.931 . S
C217 C218 1.374 . S
C218 C189 1.387 . S
C218 H195 0.931 . S
C218 C217 1.374 . S
C219 O203 1.249 . S
C219 O204 1.264 . S
C220 C223 1.382 . S
C220 C224 1.390 . S
C220 C227 1.506 1_554 S
C221 C222 1.398 . S
C221 C224 1.392 . S
C222 C221 1.398 . S
C222 C225 1.372 . S
C222 H232 0.931 . S
C223 C220 1.382 . S
C223 C225 1.390 . S
C223 H233 0.931 1_554 S
C224 C220 1.390 . S
C224 C221 1.392 . S
C224 H234 0.930 . S
C225 C222 1.372 . S
C225 C223 1.390 . S
C225 H235 0.929 . S
C226 O206 1.255 . S
C226 O207 1.257 . S
C227 Eu163 2.787 . S
C227 O202 1.252 . S
C227 O205 1.268 . S
C227 C220 1.506 1_556 S
H228 C211 0.931 . S
H229 C212 0.931 . S
H230 C213 0.929 . S
H231 C214 0.930 1_455 S
H232 C222 0.931 . S
H233 C223 0.931 1_556 S
H234 C224 0.930 . S
H235 C225 0.929 . S
Eu236 N265 2.600 . S
Eu236 N271 2.562 . S
Eu236 O280 2.462 . S
Eu236 O281 2.373 . S
Eu236 O283 2.432 1_556 S
Eu236 O284 2.291 . S
Eu236 O288 2.335 1_545 S
Eu236 O291 2.372 . S
Eu236 C300 2.787 1_556 S
C237 N238 1.365 . S
C237 C240 1.405 . S
C237 C244 1.448 . S
N238 C237 1.365 . S
N238 C241 1.319 . S
N238 Eu247 2.600 . S
C239 C241 1.397 . S
C239 C242 1.367 . S
C239 H259 0.931 . S
C240 C237 1.405 . S
C240 C242 1.403 . S
C240 C246 1.439 . S
C241 N238 1.319 . S
C241 C239 1.397 . S
C241 H252 0.930 . S
C242 C239 1.367 . S
C242 C240 1.403 . S
C242 H263 0.929 . S
C243 C244 1.430 . S
C243 C245 1.387 . S
C243 C249 1.404 . S
C244 C237 1.448 . S
C244 C243 1.430 . S
C244 N248 1.351 . S
C245 C243 1.387 . S
C245 C246 1.374 . S
C245 H260 0.931 . S
C246 C240 1.439 . S
C246 C245 1.374 . S
C246 H261 0.931 . S
Eu247 N238 2.600 . S
Eu247 N248 2.562 . S
Eu247 O282 2.335 1_565 S
Eu247 O285 2.372 . S
Eu247 O286 2.462 . S
Eu247 O287 2.373 . S
Eu247 O289 2.432 . S
Eu247 O290 2.288 1_565 S
Eu247 C311 2.787 . S
N248 C244 1.351 . S
N248 Eu247 2.562 . S
N248 C250 1.325 . S
C249 C243 1.404 . S
C249 C251 1.366 . S
C249 H257 0.930 . S
C250 N248 1.325 . S
C250 C251 1.416 . S
C250 H256 0.929 . S
C251 C249 1.366 . S
C251 C250 1.416 . S
C251 H253 0.930 . S
H252 C241 0.930 . S
H253 C251 0.930 . S
H254 C269 0.930 . S
H255 C276 0.930 . S
H256 C250 0.929 . S
H257 C249 0.930 . S
H258 C272 0.929 . S
H259 C239 0.931 . S
H260 C245 0.931 . S
H261 C246 0.931 . S
H262 C267 0.931 . S
H263 C242 0.929 . S
H264 C275 0.930 . S
N265 Eu236 2.600 . S
N265 C266 1.365 . S
N265 C269 1.319 1_556 S
C266 N265 1.365 . S
C266 C268 1.405 . S
C266 C274 1.448 . S
C267 H262 0.931 . S
C267 C269 1.397 . S
C267 C270 1.367 . S
C268 C266 1.405 . S
C268 C270 1.403 1_556 S
C268 C301 1.439 . S
C269 H254 0.930 . S
C269 N265 1.319 1_554 S
C269 C267 1.397 . S
C270 C267 1.367 . S
C270 C268 1.403 1_554 S
C270 H277 0.929 . S
N271 Eu236 2.562 . S
N271 C272 1.325 . S
N271 C274 1.351 . S
C272 H258 0.929 . S
C272 N271 1.325 . S
C272 C276 1.416 . S
C273 C274 1.430 . S
C273 C275 1.404 . S
C273 C302 1.387 . S
C274 C266 1.448 . S
C274 N271 1.351 . S
C274 C273 1.430 . S
C275 H264 0.930 . S
C275 C273 1.404 . S
C275 C276 1.366 . S
C276 H255 0.930 . S
C276 C272 1.416 . S
C276 C275 1.366 . S
H277 C270 0.929 . S
H278 C301 0.931 . S
H279 C302 0.931 . S
O280 Eu236 2.462 . S
O280 C300 1.252 1_556 S
O281 Eu236 2.373 . S
O281 C292 1.249 . S
O282 Eu247 2.335 1_545 S
O282 C292 1.264 . S
O283 Eu236 2.432 1_554 S
O283 C300 1.268 . S
O284 Eu236 2.291 . S
O284 C299 1.234 1_545 S
O285 Eu247 2.372 . S
O285 C299 1.271 . S
O286 Eu247 2.462 . S
O286 C311 1.252 . S
O287 Eu247 2.373 . S
O287 C303 1.249 . S
O288 Eu236 2.335 1_565 S
O288 C303 1.264 . S
O289 Eu247 2.432 . S
O289 C311 1.268 . S
O290 Eu247 2.288 1_545 S
O290 C310 1.261 . S
O291 Eu236 2.372 . S
O291 C310 1.257 . S
C292 O281 1.249 . S
C292 O282 1.264 . S
C293 C296 1.382 . S
C293 C298 1.390 . S
C293 C300 1.506 . S
C294 C295 1.398 . S
C294 C298 1.392 . S
C295 C294 1.398 . S
C295 C297 1.372 . S
C295 H312 0.931 . S
C296 C293 1.382 . S
C296 C297 1.390 . S
C296 H313 0.931 . S
C297 C295 1.372 . S
C297 C296 1.390 . S
C297 H314 0.929 . S
C298 C293 1.390 . S
C298 C294 1.392 . S
C298 H315 0.930 . S
C299 O284 1.234 1_565 S
C299 O285 1.271 . S
C300 Eu236 2.787 1_554 S
C300 O280 1.252 1_554 S
C300 O283 1.268 . S
C300 C293 1.506 . S
C301 C268 1.439 . S
C301 H278 0.931 . S
C301 C302 1.374 . S
C302 C273 1.387 . S
C302 H279 0.931 . S
C302 C301 1.374 . S
C303 O287 1.249 . S
C303 O288 1.264 . S
C304 C307 1.382 . S
C304 C308 1.394 . S
C304 C311 1.506 . S
C305 C306 1.394 1_545 S
C305 C308 1.391 1_545 S
C306 C305 1.394 1_565 S
C306 C309 1.372 . S
C306 H316 0.931 . S
C307 C304 1.382 . S
C307 C309 1.390 . S
C307 H317 0.931 . S
C308 C304 1.394 . S
C308 C305 1.391 1_565 S
C308 H318 0.926 1_565 S
C309 C306 1.372 . S
C309 C307 1.390 . S
C309 H319 0.929 . S
C310 O290 1.261 . S
C310 O291 1.257 . S
C311 Eu247 2.787 . S
C311 O286 1.252 . S
C311 O289 1.268 . S
C311 C304 1.506 . S
H312 C295 0.931 . S
H313 C296 0.931 . S
H314 C297 0.929 . S
H315 C298 0.930 . S
H316 C306 0.931 . S
H317 C307 0.931 . S
H318 C308 0.926 1_545 S
H319 C309 0.929 . S
Eu320 N349 2.600 . S
Eu320 N355 2.562 . S
Eu320 O364 2.462 . S
Eu320 O365 2.373 . S
Eu320 O367 2.432 . S
Eu320 O368 2.291 . S
Eu320 O372 2.335 . S
Eu320 O375 2.372 . S
Eu320 C384 2.787 . S
C321 N322 1.365 1_554 S
C321 C324 1.405 . S
C321 C328 1.448 . S
N322 C321 1.365 1_556 S
N322 C325 1.319 . S
N322 Eu331 2.600 . S
C323 C325 1.397 . S
C323 C326 1.367 . S
C323 H343 0.931 . S
C324 C321 1.405 . S
C324 C326 1.403 1_554 S
C324 C330 1.439 . S
C325 N322 1.319 . S
C325 C323 1.397 . S
C325 H336 0.930 . S
C326 C323 1.367 . S
C326 C324 1.403 1_556 S
C326 H347 0.929 1_556 S
C327 C328 1.430 . S
C327 C329 1.387 . S
C327 C333 1.404 . S
C328 C321 1.448 . S
C328 C327 1.430 . S
C328 N332 1.351 . S
C329 C327 1.387 . S
C329 C330 1.374 . S
C329 H344 0.931 . S
C330 C324 1.439 . S
C330 C329 1.374 . S
C330 H345 0.931 . S
Eu331 N322 2.600 . S
Eu331 N332 2.562 1_556 S
Eu331 O366 2.335 . S
Eu331 O369 2.372 . S
Eu331 O370 2.462 . S
Eu331 O371 2.373 . S
Eu331 O373 2.432 . S
Eu331 O374 2.291 . S
Eu331 C395 2.787 . S
N332 C328 1.351 . S
N332 Eu331 2.562 1_554 S
N332 C334 1.325 . S
C333 C327 1.404 . S
C333 C335 1.366 . S
C333 H341 0.930 . S
C334 N332 1.325 . S
C334 C335 1.416 . S
C334 H340 0.929 . S
C335 C333 1.366 . S
C335 C334 1.416 . S
C335 H337 0.930 . S
H336 C325 0.930 . S
H337 C335 0.930 . S
H338 C353 0.930 . S
H339 C360 0.930 . S
H340 C334 0.929 . S
H341 C333 0.930 . S
H342 C356 0.929 . S
H343 C323 0.931 . S
H344 C329 0.931 . S
H345 C330 0.931 . S
H346 C351 0.931 . S
H347 C326 0.929 1_554 S
H348 C359 0.930 . S
N349 Eu320 2.600 . S
N349 C350 1.365 . S
N349 C353 1.319 . S
C350 N349 1.365 . S
C350 C352 1.405 . S
C350 C358 1.448 . S
C351 H346 0.931 . S
C351 C353 1.397 . S
C351 C354 1.367 . S
C352 C350 1.405 . S
C352 C354 1.403 . S
C352 C385 1.439 . S
C353 H338 0.930 . S
C353 N349 1.319 . S
C353 C351 1.397 . S
C354 C351 1.367 . S
C354 C352 1.403 . S
C354 H361 0.929 . S
N355 Eu320 2.562 . S
N355 C356 1.325 . S
N355 C358 1.351 . S
C356 H342 0.929 . S
C356 N355 1.325 . S
C356 C360 1.416 . S
C357 C358 1.430 . S
C357 C359 1.404 . S
C357 C386 1.387 . S
C358 C350 1.448 . S
C358 N355 1.351 . S
C358 C357 1.430 . S
C359 H348 0.930 . S
C359 C357 1.404 . S
C359 C360 1.366 . S
C360 H339 0.930 . S
C360 C356 1.416 . S
C360 C359 1.366 . S
H361 C354 0.929 . S
H362 C385 0.931 . S
H363 C386 0.931 . S
O364 Eu320 2.462 . S
O364 C384 1.252 . S
O365 Eu320 2.373 . S
O365 C376 1.249 . S
O366 Eu331 2.335 . S
O366 C376 1.264 . S
O367 Eu320 2.432 . S
O367 C384 1.268 . S
O368 Eu320 2.291 . S
O368 C383 1.255 . S
O369 Eu331 2.372 . S
O369 C383 1.257 . S
O370 Eu331 2.462 . S
O370 C395 1.252 . S
O371 Eu331 2.373 . S
O371 C387 1.249 . S
O372 Eu320 2.335 . S
O372 C387 1.264 . S
O373 Eu331 2.432 . S
O373 C395 1.268 . S
O374 Eu331 2.291 . S
O374 C394 1.255 . S
O375 Eu320 2.372 . S
O375 C394 1.257 . S
C376 O365 1.249 . S
C376 O366 1.264 . S
C377 C380 1.382 . S
C377 C382 1.390 . S
C377 C384 1.506 . S
C378 C379 1.398 . S
C378 C382 1.392 . S
C379 C378 1.398 . S
C379 C381 1.372 . S
C379 H396 0.931 . S
C380 C377 1.382 . S
C380 C381 1.390 . S
C380 H397 0.931 . S
C381 C379 1.372 . S
C381 C380 1.390 . S
C381 H398 0.929 . S
C382 C377 1.390 . S
C382 C378 1.392 . S
C382 H399 0.930 . S
C383 O368 1.255 . S
C383 O369 1.257 . S
C384 Eu320 2.787 . S
C384 O364 1.252 . S
C384 O367 1.268 . S
C384 C377 1.506 . S
C385 C352 1.439 . S
C385 H362 0.931 . S
C385 C386 1.374 . S
C386 C357 1.387 . S
C386 H363 0.931 . S
C386 C385 1.374 . S
C387 O371 1.249 . S
C387 O372 1.264 . S
C388 C391 1.382 . S
C388 C392 1.390 . S
C388 C395 1.506 1_554 S
C389 C390 1.398 . S
C389 C392 1.392 . S
C390 C389 1.398 . S
C390 C393 1.372 . S
C390 H400 0.931 . S
C391 C388 1.382 . S
C391 C393 1.390 . S
C391 H401 0.931 1_554 S
C392 C388 1.390 . S
C392 C389 1.392 . S
C392 H402 0.930 . S
C393 C390 1.372 . S
C393 C391 1.390 . S
C393 H403 0.929 . S
C394 O374 1.255 . S
C394 O375 1.257 . S
C395 Eu331 2.787 . S
C395 O370 1.252 . S
C395 O373 1.268 . S
C395 C388 1.506 1_556 S
H396 C379 0.931 . S
H397 C380 0.931 . S
H398 C381 0.929 . S
H399 C382 0.930 . S
H400 C390 0.931 . S
H401 C391 0.931 1_556 S
H402 C392 0.930 . S
H403 C393 0.929 . S
Eu404 N433 2.600 . S
Eu404 N439 2.562 . S
Eu404 O448 2.462 . S
Eu404 O449 2.373 1_455 S
Eu404 O451 2.432 . S
Eu404 O452 2.291 . S
Eu404 O456 2.335 . S
Eu404 O459 2.372 . S
Eu404 C468 2.787 . S
C405 N406 1.365 1_554 S
C405 C408 1.405 . S
C405 C412 1.448 . S
N406 C405 1.365 1_556 S
N406 C409 1.322 . S
N406 Eu415 2.600 1_455 S
C407 C409 1.406 . S
C407 C410 1.367 . S
C407 H427 0.931 . S
C408 C405 1.405 . S
C408 C410 1.403 1_554 S
C408 C414 1.439 . S
C409 N406 1.322 . S
C409 C407 1.406 . S
C409 H420 0.917 1_455 S
C410 C407 1.367 . S
C410 C408 1.403 1_556 S
C410 H431 0.929 1_556 S
C411 C412 1.430 . S
C411 C413 1.387 . S
C411 C417 1.404 . S
C412 C405 1.448 . S
C412 C411 1.430 . S
C412 N416 1.351 . S
C413 C411 1.387 . S
C413 C414 1.374 . S
C413 H428 0.931 . S
C414 C408 1.439 . S
C414 C413 1.374 . S
C414 H429 0.931 . S
Eu415 N406 2.600 1_655 S
Eu415 N416 2.562 1_656 S
Eu415 O450 2.335 . S
Eu415 O453 2.372 . S
Eu415 O454 2.462 . S
Eu415 O455 2.373 1_655 S
Eu415 O457 2.432 . S
Eu415 O458 2.291 1_655 S
Eu415 C479 2.787 . S
N416 C412 1.351 . S
N416 Eu415 2.562 1_454 S
N416 C418 1.325 . S
C417 C411 1.404 . S
C417 C419 1.366 . S
C417 H425 0.930 . S
C418 N416 1.325 . S
C418 C419 1.416 . S
C418 H424 0.929 . S
C419 C417 1.366 . S
C419 C418 1.416 . S
C419 H421 0.930 . S
H420 C409 0.917 1_655 S
H421 C419 0.930 . S
H422 C437 0.930 . S
H423 C444 0.930 . S
H424 C418 0.929 . S
H425 C417 0.930 . S
H426 C440 0.929 . S
H427 C407 0.931 . S
H428 C413 0.931 . S
H429 C414 0.931 . S
H430 C435 0.931 . S
H431 C410 0.929 1_554 S
H432 C443 0.930 . S
N433 Eu404 2.600 . S
N433 C434 1.365 1_455 S
N433 C437 1.319 . S
C434 N433 1.365 1_655 S
C434 C436 1.405 . S
C434 C442 1.448 . S
C435 H430 0.931 . S
C435 C437 1.397 . S
C435 C438 1.367 1_455 S
C436 C434 1.405 . S
C436 C438 1.403 . S
C436 C469 1.439 . S
C437 H422 0.930 . S
C437 N433 1.319 . S
C437 C435 1.397 . S
C438 C435 1.367 1_655 S
C438 C436 1.403 . S
C438 H445 0.929 . S
N439 Eu404 2.562 . S
N439 C440 1.325 . S
N439 C442 1.351 1_455 S
C440 H426 0.929 . S
C440 N439 1.325 . S
C440 C444 1.416 1_455 S
C441 C442 1.430 . S
C441 C443 1.404 . S
C441 C470 1.387 . S
C442 C434 1.448 . S
C442 N439 1.351 1_655 S
C442 C441 1.430 . S
C443 H432 0.930 . S
C443 C441 1.404 . S
C443 C444 1.366 . S
C444 H423 0.930 . S
C444 C440 1.416 1_655 S
C444 C443 1.366 . S
H445 C438 0.929 . S
H446 C469 0.931 . S
H447 C470 0.931 . S
O448 Eu404 2.462 . S
O448 C468 1.252 . S
O449 Eu404 2.373 1_655 S
O449 C460 1.249 . S
O450 Eu415 2.335 . S
O450 C460 1.264 . S
O451 Eu404 2.432 . S
O451 C468 1.268 . S
O452 Eu404 2.291 . S
O452 C467 1.255 . S
O453 Eu415 2.372 . S
O453 C467 1.257 1_655 S
O454 Eu415 2.462 . S
O454 C479 1.252 . S
O455 Eu415 2.373 1_455 S
O455 C471 1.249 . S
O456 Eu404 2.335 . S
O456 C471 1.264 . S
O457 Eu415 2.432 . S
O457 C479 1.268 . S
O458 Eu415 2.291 1_455 S
O458 C478 1.255 . S
O459 Eu404 2.372 . S
O459 C478 1.257 . S
C460 O449 1.249 . S
C460 O450 1.264 . S
C461 C464 1.382 . S
C461 C466 1.390 . S
C461 C468 1.506 . S
C462 C463 1.398 . S
C462 C466 1.392 . S
C463 C462 1.398 . S
C463 C465 1.372 . S
C463 H480 0.931 . S
C464 C461 1.382 . S
C464 C465 1.390 . S
C464 H481 0.931 . S
C465 C463 1.372 . S
C465 C464 1.390 . S
C465 H482 0.929 . S
C466 C461 1.390 . S
C466 C462 1.392 . S
C466 H483 0.930 . S
C467 O452 1.255 . S
C467 O453 1.257 1_455 S
C468 Eu404 2.787 . S
C468 O448 1.252 . S
C468 O451 1.268 . S
C468 C461 1.506 . S
C469 C436 1.439 . S
C469 H446 0.931 . S
C469 C470 1.374 . S
C470 C441 1.387 . S
C470 H447 0.931 . S
C470 C469 1.374 . S
C471 O455 1.249 . S
C471 O456 1.264 . S
C472 C475 1.382 . S
C472 C476 1.390 . S
C472 C479 1.506 1_554 S
C473 C474 1.398 . S
C473 C476 1.392 . S
C474 C473 1.398 . S
C474 C477 1.372 . S
C474 H484 0.931 . S
C475 C472 1.382 . S
C475 C477 1.390 . S
C475 H485 0.931 1_554 S
C476 C472 1.390 . S
C476 C473 1.392 . S
C476 H486 0.930 . S
C477 C474 1.372 . S
C477 C475 1.390 . S
C477 H487 0.929 . S
C478 O458 1.255 . S
C478 O459 1.257 . S
C479 Eu415 2.787 . S
C479 O454 1.252 . S
C479 O457 1.268 . S
C479 C472 1.506 1_556 S
H480 C463 0.931 . S
H481 C464 0.931 . S
H482 C465 0.929 . S
H483 C466 0.930 . S
H484 C474 0.931 . S
H485 C475 0.931 1_556 S
H486 C476 0.930 . S
H487 C477 0.929 . S
C488 C489 1.387 . S
C488 H492 0.950 . S
C488 C497 1.390 . S
C489 C488 1.387 . S
C489 C491 1.387 . S
H490 C497 0.950 . S
C491 C489 1.387 . S
C491 C493 1.390 1_545 S
C491 H495 0.950 1_545 S
H492 C488 0.950 . S
C493 C491 1.390 1_565 S
C493 C494 1.387 1_565 S
C493 H496 0.950 . S
C494 C493 1.387 1_545 S
C494 C497 1.387 . S
H495 C491 0.950 1_565 S
H496 C493 0.950 . S
C497 C488 1.390 . S
C497 H490 0.950 . S
C497 C494 1.387 . S
C498 C499 1.387 . S
C498 H502 0.950 . S
C498 C507 1.390 . S
C499 C498 1.387 . S
C499 C501 1.387 . S
H500 C507 0.950 . S
C501 C499 1.387 . S
C501 C503 1.390 . S
C501 H505 0.950 . S
H502 C498 0.950 . S
C503 C501 1.390 . S
C503 C504 1.387 . S
C503 H506 0.950 . S
C504 C503 1.387 . S
C504 C507 1.387 . S
H505 C501 0.950 . S
H506 C503 0.950 . S
C507 C498 1.390 . S
C507 H500 0.950 . S
C507 C504 1.387 . S
C508 C509 1.387 . S
C508 H512 0.950 . S
C508 C517 1.390 . S
C509 C508 1.387 . S
C509 C511 1.387 . S
H510 C517 0.950 . S
C511 C509 1.387 . S
C511 C513 1.390 . S
C511 H515 0.950 . S
H512 C508 0.950 . S
C513 C511 1.390 . S
C513 C514 1.387 . S
C513 H516 0.950 . S
C514 C513 1.387 . S
C514 C517 1.387 . S
H515 C511 0.950 . S
H516 C513 0.950 . S
C517 C508 1.390 . S
C517 H510 0.950 . S
C517 C514 1.387 . S
C518 C519 1.387 . S
C518 H522 0.950 . S
C518 C527 1.390 . S
C519 C518 1.387 . S
C519 C521 1.357 1_455 S
H520 C527 0.950 . S
C521 C519 1.357 1_655 S
C521 C523 1.395 . S
C521 H525 0.977 . S
H522 C518 0.950 . S
C523 C521 1.395 . S
C523 C524 1.387 1_655 S
C523 H526 0.950 . S
C524 C523 1.387 1_455 S
C524 C527 1.387 . S
H525 C521 0.977 . S
H526 C523 0.950 . S
C527 C518 1.390 . S
C527 H520 0.950 . S
C527 C524 1.387 . S
C528 C529 1.387 1_545 S
C528 H532 0.950 . S
C528 C537 1.390 . S
C529 C528 1.387 1_565 S
C529 C531 1.387 . S
H530 C537 0.950 . S
C531 C529 1.387 . S
C531 C533 1.390 . S
C531 H535 0.950 . S
H532 C528 0.950 . S
C533 C531 1.390 . S
C533 C534 1.387 1_554 S
C533 H536 0.950 1_554 S
C534 C533 1.387 1_556 S
C534 C537 1.387 1_566 S
H535 C531 0.950 . S
H536 C533 0.950 1_556 S
C537 C528 1.390 . S
C537 H530 0.950 . S
C537 C534 1.387 1_544 S
C538 C539 1.387 . S
C538 H542 0.950 . S
C538 C547 1.390 . S
C539 C538 1.387 . S
C539 C541 1.387 . S
H540 C547 0.950 . S
C541 C539 1.387 . S
C541 C543 1.390 . S
C541 H545 0.950 . S
H542 C538 0.950 . S
C543 C541 1.390 . S
C543 C544 1.387 1_554 S
C543 H546 0.950 1_554 S
C544 C543 1.387 1_556 S
C544 C547 1.387 1_556 S
H545 C541 0.950 . S
H546 C543 0.950 1_556 S
C547 C538 1.390 . S
C547 H540 0.950 . S
C547 C544 1.387 1_554 S
C548 C549 1.387 . S
C548 H552 0.950 . S
C548 C557 1.390 . S
C549 C548 1.387 . S
C549 C551 1.387 . S
H550 C557 0.950 1_556 S
C551 C549 1.387 . S
C551 C553 1.390 . S
C551 H555 0.950 . S
H552 C548 0.950 . S
C553 C551 1.390 . S
C553 C554 1.387 1_554 S
C553 H556 0.950 . S
C554 C553 1.387 1_556 S
C554 C557 1.387 1_556 S
H555 C551 0.950 . S
H556 C553 0.950 . S
C557 C548 1.390 . S
C557 H550 0.950 1_554 S
C557 C554 1.387 1_554 S
C558 C559 1.387 . S
C558 H562 0.950 . S
C558 C567 1.390 1_554 S
C559 C558 1.387 . S
C559 C561 1.387 . S
H560 C567 0.950 1_455 S
C561 C559 1.387 . S
C561 C563 1.390 . S
C561 H565 0.950 . S
H562 C558 0.950 . S
C563 C561 1.390 . S
C563 C564 1.387 1_554 S
C563 H566 0.950 . S
C564 C563 1.387 1_556 S
C564 C567 1.387 . S
H565 C561 0.950 . S
H566 C563 0.950 . S
C567 C558 1.390 1_556 S
C567 H560 0.950 1_655 S
C567 C564 1.387 . S
C568 C569 1.387 . S
C568 H572 0.950 1_455 S
C568 C577 1.390 1_455 S
C569 C568 1.387 . S
C569 C571 1.387 . S
H570 C577 0.950 . S
C571 C569 1.387 . S
C571 C573 1.390 . S
C571 H575 0.950 . S
H572 C568 0.950 1_655 S
C573 C571 1.390 . S
C573 C574 1.387 . S
C573 H576 0.950 . S
C574 C573 1.387 . S
C574 C577 1.387 1_455 S
H575 C571 0.950 . S
H576 C573 0.950 . S
C577 C568 1.390 1_655 S
C577 H570 0.950 . S
C577 C574 1.387 1_655 S
C578 C579 1.387 . S
C578 H582 0.950 . S
C578 C587 1.390 1_545 S
C579 C578 1.387 . S
C579 C581 1.387 . S
H580 C587 0.950 . S
C581 C579 1.387 . S
C581 C583 1.390 . S
C581 H585 0.950 . S
H582 C578 0.950 . S
C583 C581 1.390 . S
C583 C584 1.387 . S
C583 H586 0.950 . S
C584 C583 1.387 . S
C584 C587 1.387 1_545 S
H585 C581 0.950 . S
H586 C583 0.950 . S
C587 C578 1.390 1_565 S
C587 H580 0.950 . S
C587 C584 1.387 1_565 S
C588 C589 1.387 . S
C588 H592 0.950 . S
C588 C597 1.390 . S
C589 C588 1.387 . S
C589 C591 1.387 . S
H590 C597 0.950 . S
C591 C589 1.387 . S
C591 C593 1.390 . S
C591 H595 0.950 . S
H592 C588 0.950 . S
C593 C591 1.390 . S
C593 C594 1.387 . S
C593 H596 0.950 . S
C594 C593 1.387 . S
C594 C597 1.387 . S
H595 C591 0.950 . S
H596 C593 0.950 . S
C597 C588 1.390 . S
C597 H590 0.950 . S
C597 C594 1.387 . S
C598 C599 1.387 . S
C598 H602 0.950 . S
C598 C607 1.390 . S
C599 C598 1.387 . S
C599 C601 1.387 . S
H600 C607 0.950 . S
C601 C599 1.387 . S
C601 C603 1.390 . S
C601 H605 0.950 . S
H602 C598 0.950 . S
C603 C601 1.390 . S
C603 C604 1.387 . S
C603 H606 0.950 . S
C604 C603 1.387 . S
C604 C607 1.387 . S
H605 C601 0.950 . S
H606 C603 0.950 . S
C607 C598 1.390 . S
C607 H600 0.950 . S
C607 C604 1.387 . S
C608 C609 1.387 . S
C608 H612 0.950 . S
C608 C617 1.376 1_655 S
C609 C608 1.387 . S
C609 C611 1.387 . S
H610 C617 0.952 . S
C611 C609 1.387 . S
C611 C613 1.390 1_655 S
C611 H615 0.950 . S
H612 C608 0.950 . S
C613 C611 1.390 1_455 S
C613 C614 1.387 . S
C613 H616 0.950 . S
C614 C613 1.387 . S
C614 C617 1.400 . S
H615 C611 0.950 . S
H616 C613 0.950 . S
C617 C608 1.376 1_455 S
C617 H610 0.952 . S
C617 C614 1.400 . S
C618 C619 1.387 1_545 S
C618 H622 0.950 . S
C618 C627 1.390 . S
C619 C618 1.387 1_565 S
C619 C621 1.387 . S
H620 C627 0.950 . S
C621 C619 1.387 . S
C621 C623 1.390 . S
C621 H625 0.950 . S
H622 C618 0.950 . S
C623 C621 1.390 . S
C623 C624 1.387 1_565 S
C623 H626 0.950 . S
C624 C623 1.387 1_545 S
C624 C627 1.387 . S
H625 C621 0.950 . S
H626 C623 0.950 . S
C627 C618 1.390 . S
C627 H620 0.950 . S
C627 C624 1.387 . S
C628 C629 1.387 . S
C628 H632 0.950 . S
C628 C637 1.390 . S
C629 C628 1.387 . S
C629 C631 1.387 . S
H630 C637 0.950 . S
C631 C629 1.387 . S
C631 C633 1.390 . S
C631 H635 0.950 . S
H632 C628 0.950 . S
C633 C631 1.390 . S
C633 C634 1.387 . S
C633 H636 0.950 . S
C634 C633 1.387 . S
C634 C637 1.387 . S
H635 C631 0.950 . S
H636 C633 0.950 . S
C637 C628 1.390 . S
C637 H630 0.950 . S
C637 C634 1.387 . S
C638 C639 1.387 . S
C638 H642 0.950 . S
C638 C647 1.390 . S
C639 C638 1.387 . S
C639 C641 1.387 . S
H640 C647 0.950 . S
C641 C639 1.387 . S
C641 C643 1.390 . S
C641 H645 0.950 . S
H642 C638 0.950 . S
C643 C641 1.390 . S
C643 C644 1.387 . S
C643 H646 0.950 . S
C644 C643 1.387 . S
C644 C647 1.387 . S
H645 C641 0.950 . S
H646 C643 0.950 . S
C647 C638 1.390 . S
C647 H640 0.950 . S
C647 C644 1.387 . S
C648 C649 1.387 . S
C648 H652 0.950 . S
C648 C657 1.390 . S
C649 C648 1.387 . S
C649 C651 1.387 . S
H650 C657 0.950 . S
C651 C649 1.387 . S
C651 C653 1.390 . S
C651 H655 0.950 1_556 S
H652 C648 0.950 . S
C653 C651 1.390 . S
C653 C654 1.387 . S
C653 H656 0.950 1_556 S
C654 C653 1.387 . S
C654 C657 1.387 . S
H655 C651 0.950 1_554 S
H656 C653 0.950 1_554 S
C657 C648 1.390 . S
C657 H650 0.950 . S
C657 C654 1.387 . S
C658 C659 1.387 . S
C658 H662 0.950 . S
C658 C667 1.390 . S
C659 C658 1.387 . S
C659 C661 1.387 . S
H660 C667 0.950 . S
C661 C659 1.387 . S
C661 C663 1.390 . S
C661 H665 0.953 . S
H662 C658 0.950 . S
C663 C661 1.390 . S
C663 C664 1.387 . S
C663 H666 0.950 . S
C664 C663 1.387 . S
C664 C667 1.387 . S
H665 C661 0.953 . S
H666 C663 0.950 . S
C667 C658 1.390 . S
C667 H660 0.950 . S
C667 C664 1.387 . S
C668 C669 1.387 . S
C668 H672 0.950 . S
C668 C677 1.390 . S
C669 C668 1.387 . S
C669 C671 1.387 . S
H670 C677 0.950 . S
C671 C669 1.387 . S
C671 C673 1.390 . S
C671 H675 0.950 1_556 S
H672 C668 0.950 . S
C673 C671 1.390 . S
C673 C674 1.387 . S
C673 H676 0.944 1_556 S
C674 C673 1.387 . S
C674 C677 1.387 . S
H675 C671 0.950 1_554 S
H676 C673 0.944 1_554 S
C677 C668 1.390 . S
C677 H670 0.950 . S
C677 C674 1.387 . S
C678 C679 1.387 . S
C678 H682 0.950 . S
C678 C687 1.390 . S
C679 C678 1.387 . S
C679 C681 1.387 . S
H680 C687 0.950 . S
C681 C679 1.387 . S
C681 C683 1.390 . S
C681 H685 0.950 . S
H682 C678 0.950 . S
C683 C681 1.390 . S
C683 C684 1.387 . S
C683 H686 0.950 . S
C684 C683 1.387 . S
C684 C687 1.387 . S
H685 C681 0.950 . S
H686 C683 0.950 . S
C687 C678 1.390 . S
C687 H680 0.950 . S
C687 C684 1.387 . S
C688 C689 1.387 . S
C688 H692 0.950 . S
C688 C697 1.390 . S
C689 C688 1.387 . S
C689 C691 1.387 . S
H690 C697 0.950 . S
C691 C689 1.387 . S
C691 C693 1.390 . S
C691 H695 0.950 . S
H692 C688 0.950 . S
C693 C691 1.390 . S
C693 C694 1.387 . S
C693 H696 0.950 . S
C694 C693 1.387 . S
C694 C697 1.387 . S
H695 C691 0.950 . S
H696 C693 0.950 . S
C697 C688 1.390 . S
C697 H690 0.950 . S
C697 C694 1.387 . S
C698 C699 1.387 . S
C698 H702 0.950 . S
C698 C707 1.390 . S
C699 C698 1.387 . S
C699 C701 1.387 . S
H700 C707 0.950 . S
C701 C699 1.387 . S
C701 C703 1.390 . S
C701 H705 0.950 . S
H702 C698 0.950 . S
C703 C701 1.390 . S
C703 C704 1.387 . S
C703 H706 0.950 . S
C704 C703 1.387 . S
C704 C707 1.387 . S
H705 C701 0.950 . S
H706 C703 0.950 . S
C707 C698 1.390 . S
C707 H700 0.950 . S
C707 C704 1.387 . S
C708 C709 1.387 . S
C708 H712 0.950 . S
C708 C717 1.390 . S
C709 C708 1.387 . S
C709 C711 1.387 . S
H710 C717 0.950 . S
C711 C709 1.387 . S
C711 C713 1.390 . S
C711 H715 0.950 . S
H712 C708 0.950 . S
C713 C711 1.390 . S
C713 C714 1.387 . S
C713 H716 0.950 . S
C714 C713 1.387 . S
C714 C717 1.387 . S
H715 C711 0.950 . S
H716 C713 0.950 . S
C717 C708 1.390 . S
C717 H710 0.950 . S
C717 C714 1.387 . S
C718 C719 1.387 . S
C718 H722 0.950 . S
C718 C727 1.390 . S
C719 C718 1.387 . S
C719 C721 1.387 . S
H720 C727 0.950 . S
C721 C719 1.387 . S
C721 C723 1.390 . S
C721 H725 0.950 . S
H722 C718 0.950 . S
C723 C721 1.390 . S
C723 C724 1.387 . S
C723 H726 0.950 . S
C724 C723 1.387 . S
C724 C727 1.387 . S
H725 C721 0.950 . S
H726 C723 0.950 . S
C727 C718 1.390 . S
C727 H720 0.950 . S
C727 C724 1.387 . S
C489 C125 2.110 . S
C494 C215 2.157 . S
C504 C292 2.161 . S
C499 C144 2.108 . S
C514 C383 2.159 . S
C509 C87 2.112 . S
C524 C467 2.146 . S
C519 C106 2.100 . S
C534 C226 2.157 1_565 S
C529 C49 2.168 . S
C539 C68 2.166 . S
C544 C303 2.159 . S
C549 C11 2.168 . S
C554 C394 2.158 . S
C559 C30 2.156 . S
C564 C478 2.146 1_655 S
C574 C210 0.799 1_455 S
C569 C97 0.795 . S
C584 C305 0.789 . S
C579 C116 0.783 . S
C594 C378 0.801 . S
C589 C135 0.792 . S
C599 C78 0.781 . S
C604 C462 0.785 . S
C609 C21 0.796 . S
C614 C221 0.794 . S
C624 C294 0.788 . S
C619 C40 0.782 . S
C634 C389 0.798 . S
C629 C59 0.799 . S
C639 C2 0.780 . S
C644 C473 0.785 . S
C649 C101 2.033 . S
C654 C219 2.265 . S
C659 C120 2.044 . S
C664 C310 2.327 . S
C674 C387 2.279 . S
C669 C139 2.045 . S
C684 C471 2.283 . S
C679 C82 2.050 . S
C689 C25 2.035 . S
C694 C208 2.265 . S
C704 C299 2.332 . S
C699 C44 2.046 . S
C714 C376 2.279 . S
C709 C63 2.047 . S
C719 C6 2.050 . S
C724 C460 2.282 . S
