# Generated by pormake.
# Topology pyr, (3,6)-cn, num edge types: 1
# Building blocks:
#     Node 0, Type 0, BuildingBlock: CUQRIR_clean_linker_1, # of connection points: 3
#     Node 1, Type 0, BuildingBlock: CUQRIR_clean_linker_1, # of connection points: 3
#     Node 2, Type 0, BuildingBlock: CUQRIR_clean_linker_1, # of connection points: 3
#     Node 3, Type 0, BuildingBlock: CUQRIR_clean_linker_1, # of connection points: 3
#     Node 4, Type 0, BuildingBlock: CUQRIR_clean_linker_1, # of connection points: 3
#     Node 5, Type 0, BuildingBlock: CUQRIR_clean_linker_1, # of connection points: 3
#     Node 6, Type 0, BuildingBlock: CUQRIR_clean_linker_1, # of connection points: 3
#     Node 7, Type 0, BuildingBlock: CUQRIR_clean_linker_1, # of connection points: 3
#     Node 8, Type 1, BuildingBlock: INOVEN_clean_sbu_0, # of connection points: 6
#     Node 9, Type 1, BuildingBlock: INOVEN_clean_sbu_0, # of connection points: 6
#     Node 10, Type 1, BuildingBlock: INOVEN_clean_sbu_0, # of connection points: 6
#     Node 11, Type 1, BuildingBlock: INOVEN_clean_sbu_0, # of connection points: 6
#     Edge 12, Type (0, 1), None
#     Edge 13, Type (0, 1), None
#     Edge 14, Type (0, 1), None
#     Edge 15, Type (0, 1), None
#     Edge 16, Type (0, 1), None
#     Edge 17, Type (0, 1), None
#     Edge 18, Type (0, 1), None
#     Edge 19, Type (0, 1), None
#     Edge 20, Type (0, 1), None
#     Edge 21, Type (0, 1), None
#     Edge 22, Type (0, 1), None
#     Edge 23, Type (0, 1), None
#     Edge 24, Type (0, 1), None
#     Edge 25, Type (0, 1), None
#     Edge 26, Type (0, 1), None
#     Edge 27, Type (0, 1), None
#     Edge 28, Type (0, 1), None
#     Edge 29, Type (0, 1), None
#     Edge 30, Type (0, 1), None
#     Edge 31, Type (0, 1), None
#     Edge 32, Type (0, 1), None
#     Edge 33, Type (0, 1), None
#     Edge 34, Type (0, 1), None
#     Edge 35, Type (0, 1), None
# Relax obj value: 0.609
# Max RMSD: 0.306
# Mean RMSD: 0.201
data_MOF--net-pyr--node1-INOVEN_clean_sbu_0--node2-CUQRIR_clean_linker_1--edge1-none
_symmetry_space_group_name_H-M    P1
_symmetry_Int_Tables_number       1
_symmetry_cell_setting            triclinic
loop_
_symmetry_equiv_pos_as_xyz
'x, y, z'
_cell_length_a     15.321268
_cell_length_b     15.168721
_cell_length_c     13.608581
_cell_angle_alpha  87.795879
_cell_angle_beta   88.40991
_cell_angle_gamma 113.05008
loop_
_atom_site_label
_atom_site_type_symbol
_atom_site_fract_x
_atom_site_fract_y
_atom_site_fract_z
_atom_type_partial_charge
C0 C 0.44523 0.57939 0.35385 0.0
N1 N 0.47131 0.50462 0.37167 0.0
N2 N 0.46987 0.61706 0.26174 0.0
C3 C 0.37934 0.60629 0.41797 0.0
C4 C 0.53233 0.5793 0.23475 0.0
N5 N 0.53848 0.51384 0.30363 0.0
C6 C 0.59433 0.61755 0.14482 0.0
H7 H 0.3066 0.57658 0.39079 0.0
H8 H 0.40571 0.68553 0.41372 0.0
H9 H 0.37627 0.58255 0.49509 0.0
H10 H 0.60778 0.6944 1.13062 0.0
H11 H 0.55514 0.58051 1.08192 0.0
H12 H 0.66245 0.6106 0.15476 0.0
C13 C 0.287 1.1173 0.6346 0.0
N14 N 0.25214 1.15959 0.70105 0.0
N15 N 0.26785 1.02577 0.66213 0.0
C16 C 0.35455 0.17099 0.55048 0.0
C17 C 0.19766 1.0083 0.73118 0.0
N18 N 0.19877 1.09067 0.76715 0.0
C19 C 0.13542 0.90863 0.7728 0.0
H20 H 0.39586 1.13023 0.52442 0.0
H21 H 0.40248 0.24237 0.57322 0.0
H22 H 0.3131 0.18324 0.49011 0.0
H23 H 0.08393 0.91119 0.8305 0.0
H24 H 0.17775 0.87064 0.80435 0.0
H25 H 0.09664 0.8652 0.71212 0.0
C26 C 0.65956 0.52557 0.96753 0.0
N27 N 0.72311 0.52229 1.03855 0.0
N28 N 0.68879 0.61374 0.91377 0.0
C29 C 0.5638 0.44606 0.96002 0.0
C30 C 0.77929 0.6567 0.9476 0.0
N31 N 0.79612 0.60952 1.02988 0.0
C32 C 0.86015 0.70689 0.87376 0.0
H33 H 0.57364 0.37969 0.94308 0.0
H34 H 0.52104 0.46297 0.90399 0.0
H35 H 0.52398 0.43094 1.03194 0.0
H36 H 0.90202 0.78089 0.89247 0.0
H37 H 0.834 0.7035 0.79837 0.0
H38 H 0.9099 0.66975 0.87434 0.0
C39 C 0.85329 0.83534 0.46664 0.0
N40 N 0.94865 0.89517 0.44534 0.0
N41 N 0.82306 0.84645 0.55883 0.0
C42 C 0.79326 0.7517 0.40901 0.0
C43 C 0.90176 0.91118 0.59478 0.0
N44 N 0.97195 0.9558 0.52508 0.0
C45 C 0.91602 0.92048 0.70214 0.0
H46 H 0.80975 0.76384 0.3297 0.0
H47 H 0.71679 0.7362 0.42094 0.0
H48 H 0.80506 0.68702 0.4344 0.0
H49 H 0.88682 0.85011 0.74113 0.0
H50 H 0.87871 0.9646 0.7298 0.0
H51 H 0.99227 0.95063 0.71499 0.0
C52 C 0.63159 0.96206 0.22384 0.0
N53 N 0.67591 0.93211 0.15669 0.0
N54 N 0.56691 0.98965 0.18253 0.0
C55 C 0.66218 0.97535 0.3275 0.0
C56 C 0.55901 0.9529 1.09326 0.0
N57 N 0.63138 0.92546 1.07322 0.0
C58 C 0.49259 0.96435 1.0197 0.0
H59 H 0.67788 0.91341 0.3548 0.0
H60 H 0.60661 0.981 0.37473 0.0
H61 H 0.72774 1.04026 0.33035 0.0
H62 H 0.51796 1.03952 0.98943 0.0
H63 H 0.42177 0.94593 1.05663 0.0
H64 H 0.48569 0.91665 0.95999 0.0
C65 C 0.75694 0.29931 0.78103 0.0
N66 N 0.80685 0.26344 0.7228 0.0
N67 N 0.67665 0.29372 0.73769 0.0
C68 C 0.78876 0.34986 0.87401 0.0
C69 C 0.67815 0.24728 0.65516 0.0
N70 N 0.75992 0.23569 0.64217 0.0
C71 C 0.60781 0.22969 0.57671 0.0
H72 H 0.83754 0.32432 0.91307 0.0
H73 H 0.72574 0.33771 0.92314 0.0
H74 H 0.82355 0.42813 0.85607 0.0
H75 H 0.64133 0.27513 0.50929 0.0
H76 H 0.54582 0.24388 0.60105 0.0
H77 H 0.58377 1.15312 0.56045 0.0
C78 C 0.35283 0.86911 0.43725 0.0
N79 N 0.44404 0.93321 0.45949 0.0
N80 N 0.30967 0.90773 0.37161 0.0
C81 C 0.29285 0.77489 0.49219 0.0
C82 C 0.36768 1.00105 0.36374 0.0
N83 N 0.45315 1.02079 0.40886 0.0
C84 C 0.33061 1.07304 0.31893 0.0
H85 H 0.27583 0.71565 0.44185 0.0
H86 H 0.22339 0.77687 0.51431 0.0
H87 H 0.31951 0.75684 0.56066 0.0
H88 H 0.25267 1.04713 0.33265 0.0
H89 H 0.34459 1.08069 0.23827 0.0
H90 H 0.35646 1.14403 0.34961 0.0
C91 C 0.12085 0.55484 0.89747 0.0
N92 N 0.18218 0.53789 0.83012 0.0
N93 N 0.16134 0.63683 0.95039 0.0
C94 C 1.01772 0.49051 0.90961 0.0
C95 C 0.25429 0.66738 0.91485 0.0
N96 N 0.26791 0.61246 0.83942 0.0
C97 C 0.33029 0.75513 0.951 0.0
H98 H 0.97626 0.52189 0.95383 0.0
H99 H 1.01045 0.42125 0.94631 0.0
H100 H 0.9885 0.47668 0.83556 0.0
H101 H 0.40085 0.75167 0.94654 0.0
H102 H 0.31573 0.7646 1.02876 0.0
H103 H 0.33055 0.81876 0.90836 0.0
Gd104 Gd 0.07742 0.27583 0.62545 0.0
Gd105 Gd 0.04468 0.22029 0.75235 0.0
C106 C 0.15976 0.44802 0.78268 0.0
C107 C 0.10653 0.35008 0.45366 0.0
C108 C 0.20472 0.37688 0.4257 0.0
C109 C 0.2332 0.35462 0.33565 0.0
C110 C 0.26762 0.39717 0.50286 0.0
C111 C 0.39403 0.41302 0.39324 0.0
C112 C 0.3561 0.39623 0.48779 0.0
C113 C 0.32923 0.37542 0.3185 0.0
C114 C 0.22884 0.23191 0.66758 0.0
C115 C 1.0223 1.05927 0.53368 0.0
C116 C 0.97393 1.09369 0.89467 0.0
C117 C 0.87154 1.03913 0.90944 0.0
C118 C 0.80999 1.08731 0.90859 0.0
C119 C 0.83451 0.94031 0.92986 0.0
C120 C 0.68496 0.94614 0.98154 0.0
C121 C 0.73962 0.89255 0.96203 0.0
C122 C 0.71683 1.04085 0.94265 0.0
C123 C 0.89521 0.26444 0.72853 0.0
O124 O 0.1344 0.43384 0.69017 0.0
O125 O 0.13157 0.3638 0.83211 0.0
O126 O 0.0619 0.25792 0.46798 0.0
O127 O 0.09293 0.39756 0.52633 0.0
O128 O 0.18817 0.22154 0.58529 0.0
O129 O 0.19507 0.27605 0.72182 0.0
O130 O 1.017 1.10296 0.62104 0.0
O131 O 1.02 1.10603 0.61587 0.0
O132 O 1.00228 0.18455 0.90738 0.0
O133 O 1.01359 1.07754 0.81668 0.0
O134 O 0.95401 0.302 0.79473 0.0
O135 O 0.92589 0.22066 0.67 0.0
H136 H 0.18363 0.32755 0.2781 0.0
H137 H 0.24669 0.4058 0.57686 0.0
H138 H 0.39805 0.39691 0.5487 0.0
H139 H 0.35251 0.37796 0.2438 0.0
H140 H 0.83579 1.16359 0.89484 0.0
H141 H 0.88169 0.90364 0.93227 0.0
H142 H 0.71608 0.81935 0.99188 0.0
H143 H 0.67726 1.08487 0.95612 0.0
Gd144 Gd 0.65518 0.28368 0.26668 0.0
Gd145 Gd 0.53071 0.25649 0.184 0.0
C146 C 0.55734 0.43663 0.27922 0.0
C147 C 0.83153 0.36163 0.30483 0.0
C148 C 0.89131 0.3308 0.36572 0.0
C149 C 0.8537 0.23134 0.38783 0.0
C150 C 0.9231 0.39164 0.44258 0.0
C151 C 0.81179 0.26359 0.54938 0.0
C152 C 0.87673 0.35968 0.53365 0.0
C153 C 0.80718 0.19697 0.47964 0.0
C154 C 0.52661 1.11631 0.38337 0.0
C155 C 0.57622 1.08153 0.18523 0.0
C156 C 0.39189 0.23259 1.0752 0.0
C157 C 0.30086 0.16888 1.04404 0.0
C158 C 0.24596 0.21366 1.00254 0.0
C159 C 0.29134 1.07863 1.01562 0.0
C160 C 0.21114 1.10306 0.87171 0.0
C161 C 0.25024 1.04763 0.92762 0.0
C162 C 0.20192 0.18097 0.91599 0.0
C163 C 0.7055 0.45453 1.11878 0.0
O164 O 0.61729 0.40763 0.32461 0.0
O165 O 0.50283 0.37969 0.21979 0.0
O166 O 0.76308 0.3737 0.35541 0.0
O167 O 0.80258 0.31454 0.22573 0.0
O168 O 0.61784 1.14169 0.37084 0.0
O169 O 0.51222 0.18864 0.34205 0.0
O170 O 0.50514 1.10436 0.17018 0.0
O171 O 0.65687 1.15001 0.20481 0.0
O172 O 0.4653 0.21364 1.04795 0.0
O173 O 0.3957 0.26539 0.16271 0.0
O174 O 0.66943 0.36033 1.10893 0.0
O175 O 0.66593 0.36108 1.11395 0.0
H176 H 0.84264 0.18301 0.32887 0.0
H177 H 0.96156 0.46816 0.42783 0.0
H178 H 0.88762 0.41062 0.59029 0.0
H179 H 0.76484 1.12126 0.4945 0.0
H180 H 0.25022 0.28248 1.02678 0.0
H181 H 0.3314 1.04183 1.04998 0.0
H182 H 0.26178 0.98754 0.89951 0.0
H183 H 0.1689 0.22266 0.88103 0.0
Gd184 Gd 0.51969 0.69662 0.66623 0.0
Gd185 Gd 0.57137 0.78841 0.71032 0.0
C186 C 0.64355 0.65579 0.84391 0.0
C187 C 0.5232 0.54855 0.58881 0.0
C188 C 0.5649 0.48613 0.63616 0.0
C189 C 0.50947 0.40938 0.70209 0.0
C190 C 0.66296 0.50991 0.6256 0.0
C191 C 0.64585 0.37122 0.73106 0.0
C192 C 0.70322 0.4539 0.67411 0.0
C193 C 0.54997 0.35245 0.74903 0.0
C194 C 0.35252 0.63985 0.7784 0.0
C195 C 0.50488 0.90696 0.52776 0.0
C196 C 0.57791 0.94523 0.77664 0.0
C197 C 0.49535 0.96664 0.76505 0.0
C198 C 0.49945 1.05874 0.77038 0.0
C199 C 0.41341 0.89316 0.73403 0.0
C200 C 0.34685 1.00617 0.69301 0.0
C201 C 0.34045 0.91287 0.69613 0.0
C202 C 0.42445 1.07817 0.73599 0.0
C203 C 0.73553 0.80734 0.61016 0.0
O204 O 0.56541 0.61197 0.79746 0.0
O205 O 0.6734 0.74706 0.81632 0.0
O206 O 0.44649 0.54897 0.63164 0.0
O207 O 0.5817 0.63365 0.55807 0.0
O208 O 0.35562 0.63266 0.68292 0.0
O209 O 0.43823 0.68682 0.80581 0.0
O210 O 0.48831 0.81758 0.56874 0.0
O211 O 0.48194 0.81346 0.56415 0.0
O212 O 0.62121 0.94431 0.69374 0.0
O213 O 0.56117 0.86858 0.83226 0.0
O214 O 0.72568 0.81219 0.70403 0.0
O215 O 0.65461 0.78544 0.57445 0.0
H216 H 0.43454 0.3922 0.71639 0.0
H217 H 0.70849 0.57055 0.57839 0.0
H218 H 0.7776 0.46932 0.65917 0.0
H219 H 0.50588 0.2911 0.79565 0.0
H220 H 0.56014 1.11464 0.79943 0.0
H221 H 0.40804 0.82088 0.73351 0.0
H222 H 0.27854 0.85572 0.6708 0.0
H223 H 0.42685 1.1494 0.7427 0.0
Gd224 Gd 0.054 0.71788 0.22588 0.0
Gd225 Gd 0.06597 0.81642 0.16357 0.0
C226 C 0.22611 0.86406 0.32094 0.0
C227 C 0.1076 0.58426 0.27006 0.0
C228 C 0.20415 0.59801 0.22644 0.0
C229 C 0.2783 0.69036 0.2189 0.0
C230 C 0.22673 0.5237 0.19119 0.0
C231 C 0.39654 0.62433 0.20084 0.0
C232 C 0.32313 0.53932 0.17214 0.0
C233 C 0.37348 0.70344 0.21074 0.0
C234 C 1.01082 0.86927 0.378 0.0
C235 C 0.87776 0.6525 1.08732 0.0
C236 C 0.05294 0.97152 1.10072 0.0
C237 C 0.96282 0.97586 1.13469 0.0
C238 C 0.94107 1.05728 1.12846 0.0
C239 C 0.89158 0.88824 0.16881 0.0
C240 C 0.77446 0.95224 0.16318 0.0
C241 C 0.79873 0.87582 0.18105 0.0
C242 C 0.84562 1.0454 0.14346 0.0
C243 C 0.10986 0.67346 1.01725 0.0
O244 O 0.16743 0.77616 0.33903 0.0
O245 O 0.20534 0.90253 0.24122 0.0
O246 O 0.10859 0.64592 0.33474 0.0
O247 O 1.03767 0.56824 0.21065 0.0
O248 O 0.97715 0.79491 0.31933 0.0
O249 O 0.98166 0.79586 0.31769 0.0
O250 O 0.93747 0.74084 1.06681 0.0
O251 O 0.90395 0.61555 0.16536 0.0
O252 O 1.04061 0.90144 1.04321 0.0
O253 O 0.10977 0.97182 0.17011 0.0
O254 O 0.14982 0.74596 1.07532 0.0
O255 O 0.14444 0.74486 1.07699 0.0
H256 H 0.26479 0.75341 0.22055 0.0
H257 H 0.1712 0.45412 0.18134 0.0
H258 H 0.34041 0.48218 0.14503 0.0
H259 H 0.42798 0.77275 0.22434 0.0
H260 H 0.99514 1.12702 1.10633 0.0
H261 H 0.90503 0.82578 0.17993 0.0
H262 H 0.74441 0.80503 0.19782 0.0
H263 H 0.82627 1.10635 1.13229 0.0
loop_
_geom_bond_atom_site_label_1
_geom_bond_atom_site_label_2
_geom_bond_distance
_geom_bond_site_symmetry_2
_ccdc_geom_bond_type
C0 N1 1.317 . S
C0 N2 1.348 . S
C0 C3 1.485 . S
N1 C0 1.317 . S
N1 N5 1.370 . S
N2 C0 1.348 . S
N2 C4 1.346 . S
C3 C0 1.485 . S
C3 H7 0.960 . S
C3 H8 0.961 . S
C3 H9 0.960 . S
C4 N2 1.346 . S
C4 N5 1.307 . S
C4 C6 1.486 . S
N5 N1 1.370 . S
N5 C4 1.307 . S
C6 C4 1.486 . S
C6 H10 0.960 . S
C6 H11 0.960 . S
C6 H12 0.959 . S
H7 C3 0.960 . S
H8 C3 0.961 . S
H9 C3 0.960 . S
H10 C6 0.960 . S
H11 C6 0.960 . S
H12 C6 0.959 . S
C13 N14 1.317 . S
C13 N15 1.348 . S
C13 C16 1.485 . S
N14 C13 1.317 . S
N14 N18 1.370 . S
N15 C13 1.348 . S
N15 C17 1.346 . S
C16 C13 1.485 . S
C16 H20 0.960 1_455 S
C16 H21 0.961 . S
C16 H22 0.960 . S
C17 N15 1.346 . S
C17 N18 1.307 . S
C17 C19 1.486 . S
N18 N14 1.370 . S
N18 C17 1.307 . S
C19 C17 1.486 . S
C19 H23 0.960 . S
C19 H24 0.960 . S
C19 H25 0.959 . S
H20 C16 0.960 1_655 S
H21 C16 0.961 . S
H22 C16 0.960 . S
H23 C19 0.960 . S
H24 C19 0.960 . S
H25 C19 0.959 . S
C26 N27 1.317 . S
C26 N28 1.348 . S
C26 C29 1.485 . S
N27 C26 1.317 . S
N27 N31 1.370 . S
N28 C26 1.348 . S
N28 C30 1.346 . S
C29 C26 1.485 . S
C29 H33 0.960 . S
C29 H34 0.961 . S
C29 H35 0.960 . S
C30 N28 1.346 . S
C30 N31 1.307 . S
C30 C32 1.486 . S
N31 N27 1.370 . S
N31 C30 1.307 . S
C32 C30 1.486 . S
C32 H36 0.960 . S
C32 H37 0.960 . S
C32 H38 0.959 . S
H33 C29 0.960 . S
H34 C29 0.961 . S
H35 C29 0.960 . S
H36 C32 0.960 . S
H37 C32 0.960 . S
H38 C32 0.959 . S
C39 N40 1.317 . S
C39 N41 1.348 . S
C39 C42 1.485 . S
N40 C39 1.317 . S
N40 N44 1.370 . S
N41 C39 1.348 . S
N41 C43 1.346 . S
C42 C39 1.485 . S
C42 H46 0.960 . S
C42 H47 0.961 . S
C42 H48 0.960 . S
C43 N41 1.346 . S
C43 N44 1.307 . S
C43 C45 1.486 . S
N44 N40 1.370 . S
N44 C43 1.307 . S
C45 C43 1.486 . S
C45 H49 0.960 . S
C45 H50 0.960 . S
C45 H51 0.959 . S
H46 C42 0.960 . S
H47 C42 0.961 . S
H48 C42 0.960 . S
H49 C45 0.960 . S
H50 C45 0.960 . S
H51 C45 0.959 . S
C52 N53 1.317 . S
C52 N54 1.348 . S
C52 C55 1.485 1_556 S
N53 C52 1.317 . S
N53 N57 1.370 . S
N54 C52 1.348 . S
N54 C56 1.346 . S
C55 C52 1.485 1_554 S
C55 H59 0.960 . S
C55 H60 0.961 . S
C55 H61 0.960 . S
C56 N54 1.346 . S
C56 N57 1.307 . S
C56 C58 1.486 . S
N57 N53 1.370 . S
N57 C56 1.307 . S
C58 C56 1.486 . S
C58 H62 0.960 . S
C58 H63 0.960 . S
C58 H64 0.959 . S
H59 C55 0.960 . S
H60 C55 0.961 . S
H61 C55 0.960 . S
H62 C58 0.960 . S
H63 C58 0.960 . S
H64 C58 0.959 . S
C65 N66 1.317 . S
C65 N67 1.348 . S
C65 C68 1.485 1_655 S
N66 C65 1.317 . S
N66 N70 1.370 . S
N67 C65 1.348 . S
N67 C69 1.346 . S
C68 C65 1.485 1_455 S
C68 H72 0.960 . S
C68 H73 0.961 . S
C68 H74 0.960 . S
C69 N67 1.346 . S
C69 N70 1.307 . S
C69 C71 1.486 . S
N70 N66 1.370 . S
N70 C69 1.307 . S
C71 C69 1.486 . S
C71 H75 0.960 . S
C71 H76 0.960 . S
C71 H77 0.959 . S
H72 C68 0.960 . S
H73 C68 0.961 . S
H74 C68 0.960 . S
H75 C71 0.960 . S
H76 C71 0.960 . S
H77 C71 0.959 . S
C78 N79 1.317 . S
C78 N80 1.348 . S
C78 C81 1.485 . S
N79 C78 1.317 . S
N79 N83 1.370 . S
N80 C78 1.348 . S
N80 C82 1.346 . S
C81 C78 1.485 . S
C81 H85 0.960 . S
C81 H86 0.961 . S
C81 H87 0.960 . S
C82 N80 1.346 . S
C82 N83 1.307 . S
C82 C84 1.486 . S
N83 N79 1.370 . S
N83 C82 1.307 . S
C84 C82 1.486 . S
C84 H88 0.960 . S
C84 H89 0.960 . S
C84 H90 0.959 . S
H85 C81 0.960 . S
H86 C81 0.961 . S
H87 C81 0.960 . S
H88 C84 0.960 . S
H89 C84 0.960 . S
H90 C84 0.959 . S
C91 N92 1.317 . S
C91 N93 1.348 . S
C91 C94 1.485 . S
N92 C91 1.317 . S
N92 N96 1.370 . S
N93 C91 1.348 . S
N93 C95 1.346 . S
C94 C91 1.485 . S
C94 H98 0.960 1_455 S
C94 H99 0.961 . S
C94 H100 0.960 . S
C95 N93 1.346 . S
C95 N96 1.307 . S
C95 C97 1.486 . S
N96 N92 1.370 . S
N96 C95 1.307 . S
C97 C95 1.486 . S
C97 H101 0.960 . S
C97 H102 0.960 . S
C97 H103 0.959 . S
H98 C94 0.960 1_655 S
H99 C94 0.961 . S
H100 C94 0.960 . S
H101 C97 0.960 . S
H102 C97 0.960 . S
H103 C97 0.959 . S
Gd104 C107 2.818 . S
Gd104 O124 2.377 . S
Gd104 O126 2.448 . S
Gd104 O127 2.506 . S
Gd104 O128 2.435 1_545 S
Gd104 O129 2.717 1_545 S
Gd104 O131 2.395 1_545 S
Gd104 O135 2.327 . S
Gd105 C116 2.818 1_545 S
Gd105 O125 2.395 1_655 S
Gd105 O129 2.327 1_645 S
Gd105 O130 2.377 1_545 S
Gd105 O132 2.448 1_545 S
Gd105 O133 2.506 1_545 S
Gd105 O134 2.435 . S
Gd105 O135 2.717 1_655 S
C106 O124 1.240 . S
C106 O125 1.240 . S
C107 Gd104 2.818 . S
C107 C108 1.510 . S
C107 O126 1.249 . S
C107 O127 1.252 . S
C108 C107 1.510 . S
C108 C109 1.404 . S
C108 C110 1.352 . S
C109 C108 1.404 . S
C109 C113 1.389 . S
C109 H136 0.930 . S
C110 C108 1.352 . S
C110 C112 1.374 . S
C110 H137 0.931 . S
C111 C112 1.359 . S
C111 C113 1.364 . S
C112 C110 1.374 . S
C112 C111 1.359 . S
C112 H138 0.931 . S
C113 C109 1.389 . S
C113 C111 1.364 . S
C113 H139 0.931 . S
C114 O128 1.256 . S
C114 O129 1.257 . S
C115 O130 1.240 . S
C115 O131 1.240 1_655 S
C116 Gd105 2.818 1_565 S
C116 C117 1.510 . S
C116 O132 1.249 . S
C116 O133 1.252 . S
C117 C116 1.510 . S
C117 C118 1.404 . S
C117 C119 1.352 . S
C118 C117 1.404 . S
C118 C122 1.389 . S
C118 H140 0.930 . S
C119 C117 1.352 . S
C119 C121 1.374 . S
C119 H141 0.931 . S
C120 C121 1.359 . S
C120 C122 1.364 . S
C121 C119 1.374 . S
C121 C120 1.359 . S
C121 H142 0.931 . S
C122 C118 1.389 . S
C122 C120 1.364 . S
C122 H143 0.931 . S
C123 O134 1.256 . S
C123 O135 1.257 1_655 S
O124 Gd104 2.377 . S
O124 C106 1.240 . S
O125 Gd105 2.395 1_455 S
O125 C106 1.240 . S
O126 Gd104 2.448 . S
O126 C107 1.249 . S
O127 Gd104 2.506 . S
O127 C107 1.252 . S
O128 Gd104 2.435 1_565 S
O128 C114 1.256 . S
O129 Gd104 2.717 1_565 S
O129 Gd105 2.327 1_465 S
O129 C114 1.257 . S
O130 Gd105 2.377 1_565 S
O130 C115 1.240 . S
O131 Gd104 2.395 1_565 S
O131 C115 1.240 1_455 S
O132 Gd105 2.448 1_565 S
O132 C116 1.249 . S
O133 Gd105 2.506 1_565 S
O133 C116 1.252 . S
O134 Gd105 2.435 . S
O134 C123 1.256 . S
O135 Gd104 2.327 . S
O135 Gd105 2.717 1_455 S
O135 C123 1.257 1_455 S
H136 C109 0.930 . S
H137 C110 0.931 . S
H138 C112 0.931 . S
H139 C113 0.931 . S
H140 C118 0.930 . S
H141 C119 0.931 . S
H142 C121 0.931 . S
H143 C122 0.931 . S
Gd144 C147 2.818 . S
Gd144 O164 2.377 . S
Gd144 O166 2.448 . S
Gd144 O167 2.506 . S
Gd144 O168 2.435 1_545 S
Gd144 O169 2.714 1_545 S
Gd144 O171 2.395 1_545 S
Gd144 O175 2.327 . S
Gd145 C156 2.818 1_544 S
Gd145 O165 2.395 . S
Gd145 O169 2.316 1_545 S
Gd145 O170 2.377 1_554 S
Gd145 O172 2.448 1_554 S
Gd145 O173 2.506 1_544 S
Gd145 O174 2.435 1_554 S
Gd145 O175 2.717 . S
C146 O164 1.240 . S
C146 O165 1.240 . S
C147 Gd144 2.818 . S
C147 C148 1.510 . S
C147 O166 1.249 . S
C147 O167 1.252 . S
C148 C147 1.510 . S
C148 C149 1.404 . S
C148 C150 1.352 . S
C149 C148 1.404 . S
C149 C153 1.389 . S
C149 H176 0.930 . S
C150 C148 1.352 . S
C150 C152 1.374 . S
C150 H177 0.931 . S
C151 C152 1.359 . S
C151 C153 1.364 . S
C152 C150 1.374 . S
C152 C151 1.359 . S
C152 H178 0.931 . S
C153 C149 1.389 . S
C153 C151 1.364 . S
C153 H179 0.931 . S
C154 O168 1.256 . S
C154 O169 1.268 . S
C155 O170 1.240 1_565 S
C155 O171 1.240 1_556 S
C156 Gd145 2.818 1_566 S
C156 C157 1.510 . S
C156 O172 1.249 1_565 S
C156 O173 1.252 . S
C157 C156 1.510 . S
C157 C158 1.404 . S
C157 C159 1.352 . S
C158 C157 1.404 . S
C158 C162 1.389 . S
C158 H180 0.930 1_565 S
C159 C157 1.352 . S
C159 C161 1.374 . S
C159 H181 0.931 . S
C160 C161 1.359 . S
C160 C162 1.364 . S
C161 C159 1.374 . S
C161 C160 1.359 . S
C161 H182 0.931 . S
C162 C158 1.389 . S
C162 C160 1.364 . S
C162 H183 0.931 . S
C163 O174 1.256 1_554 S
C163 O175 1.257 . S
O164 Gd144 2.377 . S
O164 C146 1.240 . S
O165 Gd145 2.395 . S
O165 C146 1.240 . S
O166 Gd144 2.448 . S
O166 C147 1.249 . S
O167 Gd144 2.506 . S
O167 C147 1.252 . S
O168 Gd144 2.435 1_565 S
O168 C154 1.256 . S
O169 Gd144 2.714 1_565 S
O169 Gd145 2.316 1_565 S
O169 C154 1.268 . S
O170 Gd145 2.377 1_556 S
O170 C155 1.240 1_545 S
O171 Gd144 2.395 1_565 S
O171 C155 1.240 1_554 S
O172 Gd145 2.448 1_556 S
O172 C156 1.249 1_545 S
O173 Gd145 2.506 1_566 S
O173 C156 1.252 . S
O174 Gd145 2.435 1_556 S
O174 C163 1.256 1_556 S
O175 Gd144 2.327 . S
O175 Gd145 2.717 . S
O175 C163 1.257 . S
H176 C149 0.930 . S
H177 C150 0.931 . S
H178 C152 0.931 . S
H179 C153 0.931 . S
H180 C158 0.930 1_545 S
H181 C159 0.931 . S
H182 C161 0.931 . S
H183 C162 0.931 . S
Gd184 C187 2.818 . S
Gd184 O204 2.377 . S
Gd184 O206 2.448 . S
Gd184 O207 2.506 . S
Gd184 O208 2.435 . S
Gd184 O209 2.717 . S
Gd184 O211 2.395 . S
Gd184 O215 2.327 . S
Gd185 C196 2.818 . S
Gd185 O205 2.395 . S
Gd185 O209 2.327 . S
Gd185 O210 2.377 . S
Gd185 O212 2.448 . S
Gd185 O213 2.506 . S
Gd185 O214 2.435 . S
Gd185 O215 2.717 . S
C186 O204 1.240 . S
C186 O205 1.240 . S
C187 Gd184 2.818 . S
C187 C188 1.510 . S
C187 O206 1.249 . S
C187 O207 1.252 . S
C188 C187 1.510 . S
C188 C189 1.404 . S
C188 C190 1.352 . S
C189 C188 1.404 . S
C189 C193 1.389 . S
C189 H216 0.930 . S
C190 C188 1.352 . S
C190 C192 1.374 . S
C190 H217 0.931 . S
C191 C192 1.359 . S
C191 C193 1.364 . S
C192 C190 1.374 . S
C192 C191 1.359 . S
C192 H218 0.931 . S
C193 C189 1.389 . S
C193 C191 1.364 . S
C193 H219 0.931 . S
C194 O208 1.256 . S
C194 O209 1.257 . S
C195 O210 1.240 . S
C195 O211 1.240 . S
C196 Gd185 2.818 . S
C196 C197 1.510 . S
C196 O212 1.249 . S
C196 O213 1.252 . S
C197 C196 1.510 . S
C197 C198 1.404 . S
C197 C199 1.352 . S
C198 C197 1.404 . S
C198 C202 1.389 . S
C198 H220 0.930 . S
C199 C197 1.352 . S
C199 C201 1.374 . S
C199 H221 0.931 . S
C200 C201 1.359 . S
C200 C202 1.364 . S
C201 C199 1.374 . S
C201 C200 1.359 . S
C201 H222 0.931 . S
C202 C198 1.389 . S
C202 C200 1.364 . S
C202 H223 0.931 . S
C203 O214 1.256 . S
C203 O215 1.257 . S
O204 Gd184 2.377 . S
O204 C186 1.240 . S
O205 Gd185 2.395 . S
O205 C186 1.240 . S
O206 Gd184 2.448 . S
O206 C187 1.249 . S
O207 Gd184 2.506 . S
O207 C187 1.252 . S
O208 Gd184 2.435 . S
O208 C194 1.256 . S
O209 Gd184 2.717 . S
O209 Gd185 2.327 . S
O209 C194 1.257 . S
O210 Gd185 2.377 . S
O210 C195 1.240 . S
O211 Gd184 2.395 . S
O211 C195 1.240 . S
O212 Gd185 2.448 . S
O212 C196 1.249 . S
O213 Gd185 2.506 . S
O213 C196 1.252 . S
O214 Gd185 2.435 . S
O214 C203 1.256 . S
O215 Gd184 2.327 . S
O215 Gd185 2.717 . S
O215 C203 1.257 . S
H216 C189 0.930 . S
H217 C190 0.931 . S
H218 C192 0.931 . S
H219 C193 0.931 . S
H220 C198 0.930 . S
H221 C199 0.931 . S
H222 C201 0.931 . S
H223 C202 0.931 . S
Gd224 C227 2.818 . S
Gd224 O244 2.377 . S
Gd224 O246 2.448 . S
Gd224 O247 2.506 . S
Gd224 O248 2.435 1_455 S
Gd224 O249 2.717 1_455 S
Gd224 O251 2.395 1_455 S
Gd224 O255 2.327 1_554 S
Gd225 C236 2.818 1_455 S
Gd225 O245 2.396 1_556 S
Gd225 O249 2.327 1_456 S
Gd225 O250 2.377 1_455 S
Gd225 O252 2.448 1_455 S
Gd225 O253 2.505 1_455 S
Gd225 O254 2.436 . S
Gd225 O255 2.718 . S
C226 O244 1.240 . S
C226 O245 1.240 . S
C227 Gd224 2.818 . S
C227 C228 1.510 . S
C227 O246 1.249 . S
C227 O247 1.252 . S
C228 C227 1.510 . S
C228 C229 1.404 . S
C228 C230 1.352 . S
C229 C228 1.404 . S
C229 C233 1.389 . S
C229 H256 0.930 . S
C230 C228 1.352 . S
C230 C232 1.374 . S
C230 H257 0.931 . S
C231 C232 1.359 . S
C231 C233 1.364 . S
C232 C230 1.374 . S
C232 C231 1.359 . S
C232 H258 0.931 . S
C233 C229 1.389 . S
C233 C231 1.364 . S
C233 H259 0.931 . S
C234 O248 1.256 . S
C234 O249 1.257 . S
C235 O250 1.240 . S
C235 O251 1.240 1_556 S
C236 Gd225 2.818 1_655 S
C236 C237 1.510 . S
C236 O252 1.249 . S
C236 O253 1.252 . S
C237 C236 1.510 . S
C237 C238 1.404 . S
C237 C239 1.352 . S
C238 C237 1.404 . S
C238 C242 1.389 . S
C238 H260 0.930 . S
C239 C237 1.352 . S
C239 C241 1.374 . S
C239 H261 0.931 . S
C240 C241 1.359 . S
C240 C242 1.364 . S
C241 C239 1.374 . S
C241 C240 1.359 . S
C241 H262 0.931 . S
C242 C238 1.389 . S
C242 C240 1.364 . S
C242 H263 0.931 . S
C243 O254 1.256 . S
C243 O255 1.257 . S
O244 Gd224 2.377 . S
O244 C226 1.240 . S
O245 Gd225 2.396 1_554 S
O245 C226 1.240 . S
O246 Gd224 2.448 . S
O246 C227 1.249 . S
O247 Gd224 2.506 . S
O247 C227 1.252 . S
O248 Gd224 2.435 1_655 S
O248 C234 1.256 . S
O249 Gd224 2.717 1_655 S
O249 Gd225 2.327 1_654 S
O249 C234 1.257 . S
O250 Gd225 2.377 1_655 S
O250 C235 1.240 . S
O251 Gd224 2.395 1_655 S
O251 C235 1.240 1_554 S
O252 Gd225 2.448 1_655 S
O252 C236 1.249 . S
O253 Gd225 2.505 1_655 S
O253 C236 1.252 . S
O254 Gd225 2.436 . S
O254 C243 1.256 . S
O255 Gd224 2.327 1_556 S
O255 Gd225 2.718 . S
O255 C243 1.257 . S
H256 C229 0.930 . S
H257 C230 0.931 . S
H258 C232 0.931 . S
H259 C233 0.931 . S
H260 C238 0.930 . S
H261 C239 0.931 . S
H262 C241 0.931 . S
H263 C242 0.931 . S
N1 C111 1.480 . S
N18 C160 2.046 . S
C186 N28 3.244 . S
N40 C234 4.100 . S
C146 N5 3.103 . S
C114 N14 1.686 . S
C235 N31 2.735 . S
C203 N41 2.173 . S
N2 C231 1.499 . S
C163 N27 3.673 1_554 S
N44 C115 3.791 . S
N15 C200 1.780 . S
C120 N57 2.520 . S
N70 C151 1.468 . S
N79 C195 3.586 . S
N93 C243 3.821 . S
N54 C155 2.789 . S
C123 N66 1.574 . S
C226 N80 2.230 . S
C194 N96 2.548 . S
N53 C240 2.428 . S
C154 N83 3.321 . S
C106 N92 4.370 . S
N67 C191 2.323 . S
