# Generated by pormake.
# Topology tbo, (3,4)-cn, num edge types: 1
# Building blocks:
#     Node 0, Type 0, BuildingBlock: WUSLED_clean_sbu_0, # of connection points: 3
#     Node 1, Type 0, BuildingBlock: WUSLED_clean_sbu_0, # of connection points: 3
#     Node 2, Type 0, BuildingBlock: WUSLED_clean_sbu_0, # of connection points: 3
#     Node 3, Type 0, BuildingBlock: WUSLED_clean_sbu_0, # of connection points: 3
#     Node 4, Type 0, BuildingBlock: WUSLED_clean_sbu_0, # of connection points: 3
#     Node 5, Type 0, BuildingBlock: WUSLED_clean_sbu_0, # of connection points: 3
#     Node 6, Type 0, BuildingBlock: WUSLED_clean_sbu_0, # of connection points: 3
#     Node 7, Type 0, BuildingBlock: WUSLED_clean_sbu_0, # of connection points: 3
#     Node 8, Type 0, BuildingBlock: WUSLED_clean_sbu_0, # of connection points: 3
#     Node 9, Type 0, BuildingBlock: WUSLED_clean_sbu_0, # of connection points: 3
#     Node 10, Type 0, BuildingBlock: WUSLED_clean_sbu_0, # of connection points: 3
#     Node 11, Type 0, BuildingBlock: WUSLED_clean_sbu_0, # of connection points: 3
#     Node 12, Type 0, BuildingBlock: WUSLED_clean_sbu_0, # of connection points: 3
#     Node 13, Type 0, BuildingBlock: WUSLED_clean_sbu_0, # of connection points: 3
#     Node 14, Type 0, BuildingBlock: WUSLED_clean_sbu_0, # of connection points: 3
#     Node 15, Type 0, BuildingBlock: WUSLED_clean_sbu_0, # of connection points: 3
#     Node 16, Type 0, BuildingBlock: WUSLED_clean_sbu_0, # of connection points: 3
#     Node 17, Type 0, BuildingBlock: WUSLED_clean_sbu_0, # of connection points: 3
#     Node 18, Type 0, BuildingBlock: WUSLED_clean_sbu_0, # of connection points: 3
#     Node 19, Type 0, BuildingBlock: WUSLED_clean_sbu_0, # of connection points: 3
#     Node 20, Type 0, BuildingBlock: WUSLED_clean_sbu_0, # of connection points: 3
#     Node 21, Type 0, BuildingBlock: WUSLED_clean_sbu_0, # of connection points: 3
#     Node 22, Type 0, BuildingBlock: WUSLED_clean_sbu_0, # of connection points: 3
#     Node 23, Type 0, BuildingBlock: WUSLED_clean_sbu_0, # of connection points: 3
#     Node 24, Type 0, BuildingBlock: WUSLED_clean_sbu_0, # of connection points: 3
#     Node 25, Type 0, BuildingBlock: WUSLED_clean_sbu_0, # of connection points: 3
#     Node 26, Type 0, BuildingBlock: WUSLED_clean_sbu_0, # of connection points: 3
#     Node 27, Type 0, BuildingBlock: WUSLED_clean_sbu_0, # of connection points: 3
#     Node 28, Type 0, BuildingBlock: WUSLED_clean_sbu_0, # of connection points: 3
#     Node 29, Type 0, BuildingBlock: WUSLED_clean_sbu_0, # of connection points: 3
#     Node 30, Type 0, BuildingBlock: WUSLED_clean_sbu_0, # of connection points: 3
#     Node 31, Type 0, BuildingBlock: WUSLED_clean_sbu_0, # of connection points: 3
#     Node 32, Type 1, BuildingBlock: GIZVER_clean_linker_0, # of connection points: 4
#     Node 33, Type 1, BuildingBlock: GIZVER_clean_linker_0, # of connection points: 4
#     Node 34, Type 1, BuildingBlock: GIZVER_clean_linker_0, # of connection points: 4
#     Node 35, Type 1, BuildingBlock: GIZVER_clean_linker_0, # of connection points: 4
#     Node 36, Type 1, BuildingBlock: GIZVER_clean_linker_0, # of connection points: 4
#     Node 37, Type 1, BuildingBlock: GIZVER_clean_linker_0, # of connection points: 4
#     Node 38, Type 1, BuildingBlock: GIZVER_clean_linker_0, # of connection points: 4
#     Node 39, Type 1, BuildingBlock: GIZVER_clean_linker_0, # of connection points: 4
#     Node 40, Type 1, BuildingBlock: GIZVER_clean_linker_0, # of connection points: 4
#     Node 41, Type 1, BuildingBlock: GIZVER_clean_linker_0, # of connection points: 4
#     Node 42, Type 1, BuildingBlock: GIZVER_clean_linker_0, # of connection points: 4
#     Node 43, Type 1, BuildingBlock: GIZVER_clean_linker_0, # of connection points: 4
#     Node 44, Type 1, BuildingBlock: GIZVER_clean_linker_0, # of connection points: 4
#     Node 45, Type 1, BuildingBlock: GIZVER_clean_linker_0, # of connection points: 4
#     Node 46, Type 1, BuildingBlock: GIZVER_clean_linker_0, # of connection points: 4
#     Node 47, Type 1, BuildingBlock: GIZVER_clean_linker_0, # of connection points: 4
#     Node 48, Type 1, BuildingBlock: GIZVER_clean_linker_0, # of connection points: 4
#     Node 49, Type 1, BuildingBlock: GIZVER_clean_linker_0, # of connection points: 4
#     Node 50, Type 1, BuildingBlock: GIZVER_clean_linker_0, # of connection points: 4
#     Node 51, Type 1, BuildingBlock: GIZVER_clean_linker_0, # of connection points: 4
#     Node 52, Type 1, BuildingBlock: GIZVER_clean_linker_0, # of connection points: 4
#     Node 53, Type 1, BuildingBlock: GIZVER_clean_linker_0, # of connection points: 4
#     Node 54, Type 1, BuildingBlock: GIZVER_clean_linker_0, # of connection points: 4
#     Node 55, Type 1, BuildingBlock: GIZVER_clean_linker_0, # of connection points: 4
#     Edge 56, Type (0, 1), BuildingBlock: XUDNAN_clean_linker_2, # of connection points: 2
#     Edge 57, Type (0, 1), BuildingBlock: XUDNAN_clean_linker_2, # of connection points: 2
#     Edge 58, Type (0, 1), BuildingBlock: XUDNAN_clean_linker_2, # of connection points: 2
#     Edge 59, Type (0, 1), BuildingBlock: XUDNAN_clean_linker_2, # of connection points: 2
#     Edge 60, Type (0, 1), BuildingBlock: XUDNAN_clean_linker_2, # of connection points: 2
#     Edge 61, Type (0, 1), BuildingBlock: XUDNAN_clean_linker_2, # of connection points: 2
#     Edge 62, Type (0, 1), BuildingBlock: XUDNAN_clean_linker_2, # of connection points: 2
#     Edge 63, Type (0, 1), BuildingBlock: XUDNAN_clean_linker_2, # of connection points: 2
#     Edge 64, Type (0, 1), BuildingBlock: XUDNAN_clean_linker_2, # of connection points: 2
#     Edge 65, Type (0, 1), BuildingBlock: XUDNAN_clean_linker_2, # of connection points: 2
#     Edge 66, Type (0, 1), BuildingBlock: XUDNAN_clean_linker_2, # of connection points: 2
#     Edge 67, Type (0, 1), BuildingBlock: XUDNAN_clean_linker_2, # of connection points: 2
#     Edge 68, Type (0, 1), BuildingBlock: XUDNAN_clean_linker_2, # of connection points: 2
#     Edge 69, Type (0, 1), BuildingBlock: XUDNAN_clean_linker_2, # of connection points: 2
#     Edge 70, Type (0, 1), BuildingBlock: XUDNAN_clean_linker_2, # of connection points: 2
#     Edge 71, Type (0, 1), BuildingBlock: XUDNAN_clean_linker_2, # of connection points: 2
#     Edge 72, Type (0, 1), BuildingBlock: XUDNAN_clean_linker_2, # of connection points: 2
#     Edge 73, Type (0, 1), BuildingBlock: XUDNAN_clean_linker_2, # of connection points: 2
#     Edge 74, Type (0, 1), BuildingBlock: XUDNAN_clean_linker_2, # of connection points: 2
#     Edge 75, Type (0, 1), BuildingBlock: XUDNAN_clean_linker_2, # of connection points: 2
#     Edge 76, Type (0, 1), BuildingBlock: XUDNAN_clean_linker_2, # of connection points: 2
#     Edge 77, Type (0, 1), BuildingBlock: XUDNAN_clean_linker_2, # of connection points: 2
#     Edge 78, Type (0, 1), BuildingBlock: XUDNAN_clean_linker_2, # of connection points: 2
#     Edge 79, Type (0, 1), BuildingBlock: XUDNAN_clean_linker_2, # of connection points: 2
#     Edge 80, Type (0, 1), BuildingBlock: XUDNAN_clean_linker_2, # of connection points: 2
#     Edge 81, Type (0, 1), BuildingBlock: XUDNAN_clean_linker_2, # of connection points: 2
#     Edge 82, Type (0, 1), BuildingBlock: XUDNAN_clean_linker_2, # of connection points: 2
#     Edge 83, Type (0, 1), BuildingBlock: XUDNAN_clean_linker_2, # of connection points: 2
#     Edge 84, Type (0, 1), BuildingBlock: XUDNAN_clean_linker_2, # of connection points: 2
#     Edge 85, Type (0, 1), BuildingBlock: XUDNAN_clean_linker_2, # of connection points: 2
#     Edge 86, Type (0, 1), BuildingBlock: XUDNAN_clean_linker_2, # of connection points: 2
#     Edge 87, Type (0, 1), BuildingBlock: XUDNAN_clean_linker_2, # of connection points: 2
#     Edge 88, Type (0, 1), BuildingBlock: XUDNAN_clean_linker_2, # of connection points: 2
#     Edge 89, Type (0, 1), BuildingBlock: XUDNAN_clean_linker_2, # of connection points: 2
#     Edge 90, Type (0, 1), BuildingBlock: XUDNAN_clean_linker_2, # of connection points: 2
#     Edge 91, Type (0, 1), BuildingBlock: XUDNAN_clean_linker_2, # of connection points: 2
#     Edge 92, Type (0, 1), BuildingBlock: XUDNAN_clean_linker_2, # of connection points: 2
#     Edge 93, Type (0, 1), BuildingBlock: XUDNAN_clean_linker_2, # of connection points: 2
#     Edge 94, Type (0, 1), BuildingBlock: XUDNAN_clean_linker_2, # of connection points: 2
#     Edge 95, Type (0, 1), BuildingBlock: XUDNAN_clean_linker_2, # of connection points: 2
#     Edge 96, Type (0, 1), BuildingBlock: XUDNAN_clean_linker_2, # of connection points: 2
#     Edge 97, Type (0, 1), BuildingBlock: XUDNAN_clean_linker_2, # of connection points: 2
#     Edge 98, Type (0, 1), BuildingBlock: XUDNAN_clean_linker_2, # of connection points: 2
#     Edge 99, Type (0, 1), BuildingBlock: XUDNAN_clean_linker_2, # of connection points: 2
#     Edge 100, Type (0, 1), BuildingBlock: XUDNAN_clean_linker_2, # of connection points: 2
#     Edge 101, Type (0, 1), BuildingBlock: XUDNAN_clean_linker_2, # of connection points: 2
#     Edge 102, Type (0, 1), BuildingBlock: XUDNAN_clean_linker_2, # of connection points: 2
#     Edge 103, Type (0, 1), BuildingBlock: XUDNAN_clean_linker_2, # of connection points: 2
#     Edge 104, Type (0, 1), BuildingBlock: XUDNAN_clean_linker_2, # of connection points: 2
#     Edge 105, Type (0, 1), BuildingBlock: XUDNAN_clean_linker_2, # of connection points: 2
#     Edge 106, Type (0, 1), BuildingBlock: XUDNAN_clean_linker_2, # of connection points: 2
#     Edge 107, Type (0, 1), BuildingBlock: XUDNAN_clean_linker_2, # of connection points: 2
#     Edge 108, Type (0, 1), BuildingBlock: XUDNAN_clean_linker_2, # of connection points: 2
#     Edge 109, Type (0, 1), BuildingBlock: XUDNAN_clean_linker_2, # of connection points: 2
#     Edge 110, Type (0, 1), BuildingBlock: XUDNAN_clean_linker_2, # of connection points: 2
#     Edge 111, Type (0, 1), BuildingBlock: XUDNAN_clean_linker_2, # of connection points: 2
#     Edge 112, Type (0, 1), BuildingBlock: XUDNAN_clean_linker_2, # of connection points: 2
#     Edge 113, Type (0, 1), BuildingBlock: XUDNAN_clean_linker_2, # of connection points: 2
#     Edge 114, Type (0, 1), BuildingBlock: XUDNAN_clean_linker_2, # of connection points: 2
#     Edge 115, Type (0, 1), BuildingBlock: XUDNAN_clean_linker_2, # of connection points: 2
#     Edge 116, Type (0, 1), BuildingBlock: XUDNAN_clean_linker_2, # of connection points: 2
#     Edge 117, Type (0, 1), BuildingBlock: XUDNAN_clean_linker_2, # of connection points: 2
#     Edge 118, Type (0, 1), BuildingBlock: XUDNAN_clean_linker_2, # of connection points: 2
#     Edge 119, Type (0, 1), BuildingBlock: XUDNAN_clean_linker_2, # of connection points: 2
#     Edge 120, Type (0, 1), BuildingBlock: XUDNAN_clean_linker_2, # of connection points: 2
#     Edge 121, Type (0, 1), BuildingBlock: XUDNAN_clean_linker_2, # of connection points: 2
#     Edge 122, Type (0, 1), BuildingBlock: XUDNAN_clean_linker_2, # of connection points: 2
#     Edge 123, Type (0, 1), BuildingBlock: XUDNAN_clean_linker_2, # of connection points: 2
#     Edge 124, Type (0, 1), BuildingBlock: XUDNAN_clean_linker_2, # of connection points: 2
#     Edge 125, Type (0, 1), BuildingBlock: XUDNAN_clean_linker_2, # of connection points: 2
#     Edge 126, Type (0, 1), BuildingBlock: XUDNAN_clean_linker_2, # of connection points: 2
#     Edge 127, Type (0, 1), BuildingBlock: XUDNAN_clean_linker_2, # of connection points: 2
#     Edge 128, Type (0, 1), BuildingBlock: XUDNAN_clean_linker_2, # of connection points: 2
#     Edge 129, Type (0, 1), BuildingBlock: XUDNAN_clean_linker_2, # of connection points: 2
#     Edge 130, Type (0, 1), BuildingBlock: XUDNAN_clean_linker_2, # of connection points: 2
#     Edge 131, Type (0, 1), BuildingBlock: XUDNAN_clean_linker_2, # of connection points: 2
#     Edge 132, Type (0, 1), BuildingBlock: XUDNAN_clean_linker_2, # of connection points: 2
#     Edge 133, Type (0, 1), BuildingBlock: XUDNAN_clean_linker_2, # of connection points: 2
#     Edge 134, Type (0, 1), BuildingBlock: XUDNAN_clean_linker_2, # of connection points: 2
#     Edge 135, Type (0, 1), BuildingBlock: XUDNAN_clean_linker_2, # of connection points: 2
#     Edge 136, Type (0, 1), BuildingBlock: XUDNAN_clean_linker_2, # of connection points: 2
#     Edge 137, Type (0, 1), BuildingBlock: XUDNAN_clean_linker_2, # of connection points: 2
#     Edge 138, Type (0, 1), BuildingBlock: XUDNAN_clean_linker_2, # of connection points: 2
#     Edge 139, Type (0, 1), BuildingBlock: XUDNAN_clean_linker_2, # of connection points: 2
#     Edge 140, Type (0, 1), BuildingBlock: XUDNAN_clean_linker_2, # of connection points: 2
#     Edge 141, Type (0, 1), BuildingBlock: XUDNAN_clean_linker_2, # of connection points: 2
#     Edge 142, Type (0, 1), BuildingBlock: XUDNAN_clean_linker_2, # of connection points: 2
#     Edge 143, Type (0, 1), BuildingBlock: XUDNAN_clean_linker_2, # of connection points: 2
#     Edge 144, Type (0, 1), BuildingBlock: XUDNAN_clean_linker_2, # of connection points: 2
#     Edge 145, Type (0, 1), BuildingBlock: XUDNAN_clean_linker_2, # of connection points: 2
#     Edge 146, Type (0, 1), BuildingBlock: XUDNAN_clean_linker_2, # of connection points: 2
#     Edge 147, Type (0, 1), BuildingBlock: XUDNAN_clean_linker_2, # of connection points: 2
#     Edge 148, Type (0, 1), BuildingBlock: XUDNAN_clean_linker_2, # of connection points: 2
#     Edge 149, Type (0, 1), BuildingBlock: XUDNAN_clean_linker_2, # of connection points: 2
#     Edge 150, Type (0, 1), BuildingBlock: XUDNAN_clean_linker_2, # of connection points: 2
#     Edge 151, Type (0, 1), BuildingBlock: XUDNAN_clean_linker_2, # of connection points: 2
# Relax obj value: 0.000
# Max RMSD: 0.035
# Mean RMSD: 0.017
data_MOF--net-tbo--node1-WUSLED_clean_sbu_0--node2-GIZVER_clean_linker_0--edge1-XUDNAN_clean_linker_2
_symmetry_space_group_name_H-M    P1
_symmetry_Int_Tables_number       1
_symmetry_cell_setting            triclinic
loop_
_symmetry_equiv_pos_as_xyz
'x, y, z'
_cell_length_a     95.587765
_cell_length_b     96.092186
_cell_length_c     95.854115
_cell_angle_alpha  89.614025
_cell_angle_beta   90.493251
_cell_angle_gamma 90.923284
loop_
_atom_site_label
_atom_site_type_symbol
_atom_site_fract_x
_atom_site_fract_y
_atom_site_fract_z
_atom_type_partial_charge
C0 C 0.18071 0.13583 0.19594 0.0
C1 C 0.1901 0.13022 0.18639 0.0
C2 C 0.19805 0.11345 0.20396 0.0
C3 C 0.19866 0.11912 0.19035 0.0
C4 C 0.18855 0.11914 0.21342 0.0
C5 C 0.17999 0.13018 0.20944 0.0
U6 U 0.17023 0.1672 0.17291 0.0
O7 O 0.14923 0.17398 0.16645 0.0
O8 O 0.16246 0.18762 0.17944 0.0
C9 C 0.15 0.18545 0.17387 0.0
C10 C 0.17165 0.14761 0.19218 0.0
C11 C 0.13776 0.18873 0.18271 0.0
C12 C 0.11357 0.18458 0.18979 0.0
C13 C 0.1253 0.18075 0.18211 0.0
C14 C 0.12646 0.20441 0.19891 0.0
C15 C 0.11395 0.1965 0.19827 0.0
C16 C 0.13817 0.20061 0.1912 0.0
C17 C 0.19267 0.17706 0.14075 0.0
C18 C 0.19002 0.19786 0.12639 0.0
C19 C 0.20681 0.18047 0.11997 0.0
C20 C 0.20296 0.17245 0.13161 0.0
C21 C 0.20045 0.19332 0.11721 0.0
C22 C 0.18617 0.1898 0.13805 0.0
C23 C 0.18912 0.16847 0.15309 0.0
O24 O 0.17729 0.16008 0.19367 0.0
O25 O 0.16426 0.14632 0.18062 0.0
O26 O 0.17757 0.16091 0.15218 0.0
O27 O 0.19074 0.17449 0.16528 0.0
H28 H 0.19082 0.13443 0.17591 0.0
H29 H 0.20572 0.11494 0.18272 0.0
H30 H 0.18793 0.11527 0.22404 0.0
H31 H 0.17285 0.13441 0.21698 0.0
H32 H 0.10409 0.17832 0.18884 0.0
H33 H 0.12449 0.17165 0.17554 0.0
H34 H 0.12727 0.21354 0.20545 0.0
H35 H 0.14755 0.20708 0.19179 0.0
H36 H 0.185 0.20776 0.12471 0.0
H37 H 0.2147 0.17652 0.11307 0.0
H38 H 0.20807 0.16262 0.13349 0.0
H39 H 0.17821 0.19355 0.145 0.0
C40 C 0.82293 0.17848 0.13979 0.0
C41 C 0.83319 0.18644 0.13285 0.0
C42 C 0.81549 0.19584 0.117 0.0
C43 C 0.82952 0.19499 0.12154 0.0
C44 C 0.80527 0.1878 0.12404 0.0
C45 C 0.80897 0.17921 0.13529 0.0
U46 U 0.84642 0.16872 0.17087 0.0
O47 O 0.84072 0.16119 0.19185 0.0
O48 O 0.85338 0.14821 0.17827 0.0
C49 C 0.84652 0.14901 0.19007 0.0
C50 C 0.82653 0.16945 0.15177 0.0
C51 C 0.83841 0.13644 0.19456 0.0
C52 C 0.82099 0.12544 0.20971 0.0
C53 C 0.82729 0.13744 0.20402 0.0
C54 C 0.83653 0.11115 0.19638 0.0
C55 C 0.82573 0.11214 0.2062 0.0
C56 C 0.84282 0.12312 0.19069 0.0
C57 C 0.87913 0.1918 0.17899 0.0
C58 C 0.89102 0.20774 0.19502 0.0
C59 C 0.90408 0.18957 0.18396 0.0
C60 C 0.8919 0.18501 0.17704 0.0
C61 C 0.90383 0.20106 0.19298 0.0
C62 C 0.87886 0.2032 0.18808 0.0
C63 C 0.86638 0.18789 0.17083 0.0
O64 O 0.83792 0.16209 0.15053 0.0
O65 O 0.82537 0.17514 0.16413 0.0
O66 O 0.8543 0.18947 0.17704 0.0
O67 O 0.86684 0.17646 0.16339 0.0
H68 H 0.84404 0.18606 0.13617 0.0
H69 H 0.8377 0.20088 0.11631 0.0
H70 H 0.79434 0.18835 0.12105 0.0
H71 H 0.80089 0.17321 0.14056 0.0
H72 H 0.81281 0.12661 0.21735 0.0
H73 H 0.82375 0.14751 0.20742 0.0
H74 H 0.84033 0.10108 0.19328 0.0
H75 H 0.85144 0.12193 0.18357 0.0
H76 H 0.89045 0.21676 0.20169 0.0
H77 H 0.91372 0.18409 0.18223 0.0
H78 H 0.89256 0.17627 0.17 0.0
H79 H 0.86927 0.20883 0.18963 0.0
C80 C 0.822 0.8396 0.14089 0.0
C81 C 0.82798 0.82731 0.13598 0.0
C82 C 0.81194 0.82719 0.11594 0.0
C83 C 0.82295 0.82112 0.12362 0.0
C84 C 0.80591 0.83937 0.12112 0.0
C85 C 0.8109 0.84548 0.13341 0.0
U86 U 0.84656 0.84511 0.17311 0.0
O87 O 0.85528 0.86495 0.18099 0.0
O88 O 0.84093 0.85254 0.19398 0.0
C89 C 0.84792 0.86436 0.19251 0.0
C90 C 0.82713 0.84675 0.15356 0.0
C91 C 0.84085 0.87735 0.19669 0.0
C92 C 0.82143 0.88939 0.20744 0.0
C93 C 0.8272 0.87721 0.20209 0.0
C94 C 0.84265 0.90215 0.20174 0.0
C95 C 0.82919 0.90197 0.20759 0.0
C96 C 0.84841 0.89 0.19643 0.0
C97 C 0.87672 0.82018 0.18177 0.0
C98 C 0.89561 0.82481 0.19841 0.0
C99 C 0.89298 0.80193 0.18819 0.0
C100 C 0.88132 0.80647 0.18058 0.0
C101 C 0.90034 0.81105 0.19717 0.0
C102 C 0.8839 0.82932 0.1908 0.0
C103 C 0.86464 0.82473 0.17327 0.0
O104 O 0.82522 0.84023 0.16551 0.0
O105 O 0.83943 0.85299 0.15268 0.0
O106 O 0.86641 0.83634 0.16613 0.0
O107 O 0.85235 0.82379 0.17928 0.0
H108 H 0.83658 0.82261 0.14162 0.0
H109 H 0.82786 0.81178 0.11991 0.0
H110 H 0.79725 0.84418 0.11568 0.0
H111 H 0.80609 0.85491 0.13706 0.0
H112 H 0.81109 0.8888 0.21196 0.0
H113 H 0.82109 0.86763 0.20255 0.0
H114 H 0.84887 0.91167 0.20145 0.0
H115 H 0.85897 0.89044 0.19242 0.0
H116 H 0.9009 0.83206 0.20534 0.0
H117 H 0.89639 0.79134 0.1868 0.0
H118 H 0.87596 0.79926 0.17363 0.0
H119 H 0.88048 0.83995 0.19192 0.0
C120 C 0.13885 0.82526 0.18049 0.0
C121 C 0.14035 0.81954 0.19397 0.0
C122 C 0.11505 0.81618 0.19576 0.0
C123 C 0.12859 0.81504 0.2015 0.0
C124 C 0.11356 0.82209 0.18238 0.0
C125 C 0.12532 0.82651 0.17482 0.0
U126 U 0.17141 0.84801 0.17154 0.0
O127 O 0.19193 0.84178 0.16371 0.0
O128 O 0.17876 0.85556 0.15106 0.0
C129 C 0.19034 0.84839 0.15176 0.0
C130 C 0.15118 0.82912 0.17185 0.0
C131 C 0.19413 0.84074 0.13906 0.0
C132 C 0.19407 0.81986 0.12478 0.0
C133 C 0.18982 0.82689 0.13679 0.0
C134 C 0.20682 0.84049 0.11719 0.0
C135 C 0.20264 0.82659 0.11482 0.0
C136 C 0.20261 0.84746 0.12917 0.0
C137 C 0.18175 0.87903 0.19492 0.0
C138 C 0.19755 0.89812 0.18854 0.0
C139 C 0.19102 0.89472 0.21269 0.0
C140 C 0.18271 0.8832 0.20888 0.0
C141 C 0.19854 0.90237 0.20257 0.0
C142 C 0.18927 0.88655 0.18476 0.0
C143 C 0.17273 0.86697 0.19121 0.0
O144 O 0.15041 0.84086 0.16476 0.0
O145 O 0.16364 0.82711 0.17737 0.0
O146 O 0.17848 0.85468 0.19245 0.0
O147 O 0.16514 0.86826 0.17979 0.0
H148 H 0.15061 0.81836 0.19867 0.0
H149 H 0.13012 0.81068 0.21184 0.0
H150 H 0.10332 0.82295 0.17755 0.0
H151 H 0.12383 0.8307 0.1644 0.0
H152 H 0.19055 0.80921 0.12323 0.0
H153 H 0.18324 0.82151 0.1443 0.0
H154 H 0.2136 0.84595 0.10992 0.0
H155 H 0.20612 0.85812 0.13077 0.0
H156 H 0.20305 0.90382 0.18044 0.0
H157 H 0.1917 0.89747 0.22361 0.0
H158 H 0.17704 0.87751 0.21689 0.0
H159 H 0.18869 0.88352 0.1739 0.0
C160 C 0.13993 0.82443 0.83879 0.0
C161 C 0.1332 0.83353 0.82948 0.0
C162 C 0.1164 0.81517 0.8231 0.0
C163 C 0.12151 0.82895 0.82174 0.0
C164 C 0.1233 0.80611 0.83238 0.0
C165 C 0.13493 0.81071 0.84014 0.0
U166 U 0.17113 0.84902 0.84692 0.0
O167 O 0.17832 0.85732 0.86718 0.0
O168 O 0.19207 0.84405 0.85502 0.0
C169 C 0.19021 0.85066 0.86681 0.0
C170 C 0.15202 0.82902 0.84736 0.0
C171 C 0.1942 0.84313 0.87966 0.0
C172 C 0.19453 0.82224 0.89417 0.0
C173 C 0.19013 0.82922 0.88203 0.0
C174 C 0.20691 0.84307 0.90175 0.0
C175 C 0.20301 0.82908 0.90417 0.0
C176 C 0.20255 0.85 0.88963 0.0
C177 C 0.17973 0.87997 0.82222 0.0
C178 C 0.18583 0.90464 0.8242 0.0
C179 C 0.19547 0.89112 0.80549 0.0
C180 C 0.18824 0.87929 0.81037 0.0
C181 C 0.19425 0.90397 0.81226 0.0
C182 C 0.17866 0.89279 0.82912 0.0
C183 C 0.17137 0.86754 0.82659 0.0
O184 O 0.16439 0.82762 0.84171 0.0
O185 O 0.15068 0.84092 0.85389 0.0
O186 O 0.16372 0.86869 0.83786 0.0
O187 O 0.17758 0.85545 0.82579 0.0
H188 H 0.13695 0.84416 0.82824 0.0
H189 H 0.11655 0.83615 0.81458 0.0
H190 H 0.11957 0.7955 0.83384 0.0
H191 H 0.13996 0.80355 0.84729 0.0
H192 H 0.19121 0.81152 0.89576 0.0
H193 H 0.18363 0.82374 0.87448 0.0
H194 H 0.21358 0.84861 0.90909 0.0
H195 H 0.20585 0.86072 0.88797 0.0
H196 H 0.18478 0.91433 0.82976 0.0
H197 H 0.2017 0.89026 0.79616 0.0
H198 H 0.18913 0.86963 0.80469 0.0
H199 H 0.17214 0.89375 0.83824 0.0
C200 C 0.14002 0.18105 0.82624 0.0
C201 C 0.12808 0.18118 0.83474 0.0
C202 C 0.11563 0.19532 0.81755 0.0
C203 C 0.11604 0.18822 0.83044 0.0
C204 C 0.12765 0.19538 0.80919 0.0
C205 C 0.13966 0.18828 0.81345 0.0
U206 U 0.17238 0.17205 0.84908 0.0
O207 O 0.1799 0.15157 0.85595 0.0
O208 O 0.19313 0.16485 0.84264 0.0
C209 C 0.19146 0.15259 0.84864 0.0
C210 C 0.15248 0.17268 0.82994 0.0
C211 C 0.19554 0.1401 0.84059 0.0
C212 C 0.21028 0.1293 0.82312 0.0
C213 C 0.2049 0.14124 0.82936 0.0
C214 C 0.19681 0.11482 0.83896 0.0
C215 C 0.20654 0.11594 0.82806 0.0
C216 C 0.19143 0.12672 0.84517 0.0
C217 C 0.18094 0.19481 0.88176 0.0
C218 C 0.19879 0.20932 0.89319 0.0
C219 C 0.18244 0.1959 0.90715 0.0
C220 C 0.17613 0.19067 0.895 0.0
C221 C 0.19367 0.20553 0.90642 0.0
C222 C 0.19247 0.20408 0.88101 0.0
C223 C 0.17287 0.1908 0.86899 0.0
O224 O 0.16478 0.1788 0.82834 0.0
O225 O 0.15175 0.16498 0.84132 0.0
O226 O 0.16542 0.17919 0.86962 0.0
O227 O 0.17898 0.19269 0.85686 0.0
H228 H 0.12794 0.17569 0.84464 0.0
H229 H 0.10703 0.18808 0.83722 0.0
H230 H 0.12767 0.20057 0.79913 0.0
H231 H 0.14861 0.18823 0.8066 0.0
H232 H 0.21785 0.13058 0.81486 0.0
H233 H 0.20848 0.15135 0.82568 0.0
H234 H 0.19354 0.10471 0.84291 0.0
H235 H 0.18438 0.12541 0.85388 0.0
H236 H 0.20731 0.21682 0.89221 0.0
H237 H 0.17833 0.19259 0.91715 0.0
H238 H 0.16719 0.18368 0.89601 0.0
H239 H 0.19633 0.20769 0.87101 0.0
C240 C 0.8214 0.14298 0.84185 0.0
C241 C 0.81457 0.14645 0.82927 0.0
C242 C 0.80674 0.12238 0.82624 0.0
C243 C 0.80733 0.13628 0.82159 0.0
C244 C 0.81419 0.11872 0.83838 0.0
C245 C 0.82137 0.12894 0.84616 0.0
U246 U 0.84812 0.17186 0.85306 0.0
O247 O 0.84388 0.19263 0.86141 0.0
O248 O 0.85543 0.17758 0.87416 0.0
C249 C 0.84923 0.18971 0.87375 0.0
C250 C 0.82703 0.15401 0.85127 0.0
C251 C 0.84073 0.19361 0.88603 0.0
C252 C 0.82542 0.21016 0.89726 0.0
C253 C 0.83274 0.20577 0.88554 0.0
C254 C 0.83391 0.19037 0.91034 0.0
C255 C 0.82597 0.20259 0.90986 0.0
C256 C 0.84121 0.18594 0.89858 0.0
C257 C 0.88046 0.1796 0.82985 0.0
C258 C 0.89504 0.20062 0.82895 0.0
C259 C 0.90253 0.17972 0.8174 0.0
C260 C 0.89042 0.17274 0.82187 0.0
C261 C 0.905 0.19378 0.82079 0.0
C262 C 0.88289 0.19358 0.83346 0.0
C263 C 0.86747 0.17203 0.83368 0.0
O264 O 0.83863 0.15135 0.85821 0.0
O265 O 0.82652 0.16691 0.84665 0.0
O266 O 0.85577 0.17899 0.83261 0.0
O267 O 0.86807 0.16416 0.84494 0.0
H268 H 0.81432 0.15712 0.82559 0.0
H269 H 0.80179 0.13939 0.81219 0.0
H270 H 0.81383 0.10811 0.84227 0.0
H271 H 0.8264 0.12595 0.85587 0.0
H272 H 0.81962 0.21974 0.89655 0.0
H273 H 0.83234 0.21207 0.87613 0.0
H274 H 0.83448 0.18421 0.91982 0.0
H275 H 0.84735 0.1766 0.89942 0.0
H276 H 0.89666 0.21139 0.83189 0.0
H277 H 0.90981 0.17417 0.81097 0.0
H278 H 0.88871 0.16198 0.8189 0.0
H279 H 0.87536 0.19908 0.83965 0.0
C280 C 0.8415 0.88364 0.8278 0.0
C281 C 0.82949 0.88681 0.8354 0.0
C282 C 0.82555 0.9073 0.82067 0.0
C283 C 0.8216 0.89854 0.83188 0.0
C284 C 0.83767 0.90407 0.81318 0.0
C285 C 0.84554 0.89237 0.81672 0.0
U286 U 0.84899 0.85005 0.84866 0.0
O287 O 0.85501 0.82951 0.84075 0.0
O288 O 0.86911 0.84098 0.85491 0.0
C289 C 0.86729 0.82995 0.84701 0.0
C290 C 0.84971 0.87109 0.83092 0.0
C291 C 0.87938 0.82568 0.83862 0.0
C292 C 0.89949 0.83085 0.8239 0.0
C293 C 0.88777 0.83532 0.83128 0.0
C294 C 0.89445 0.80708 0.83098 0.0
C295 C 0.90301 0.81665 0.82368 0.0
C296 C 0.8828 0.81155 0.83835 0.0
C297 C 0.82454 0.83875 0.87889 0.0
C298 C 0.81499 0.81614 0.88591 0.0
C299 C 0.81478 0.83531 0.90215 0.0
C300 C 0.82135 0.84389 0.89217 0.0
C301 C 0.81112 0.82147 0.89894 0.0
C302 C 0.82167 0.82465 0.87602 0.0
C303 C 0.82946 0.8485 0.86783 0.0
O304 O 0.8567 0.87103 0.8428 0.0
O305 O 0.84335 0.85916 0.8283 0.0
O306 O 0.82758 0.84441 0.85487 0.0
O307 O 0.84159 0.85483 0.86989 0.0
H308 H 0.82615 0.88014 0.84394 0.0
H309 H 0.81226 0.90057 0.83778 0.0
H310 H 0.84115 0.91064 0.80463 0.0
H311 H 0.85477 0.8901 0.81072 0.0
H312 H 0.90574 0.8385 0.81828 0.0
H313 H 0.8853 0.84628 0.83132 0.0
H314 H 0.89691 0.79612 0.83127 0.0
H315 H 0.87651 0.80395 0.844 0.0
H316 H 0.81241 0.80547 0.88319 0.0
H317 H 0.81186 0.83971 0.91205 0.0
H318 H 0.82343 0.85472 0.89464 0.0
H319 H 0.82409 0.82032 0.86594 0.0
C320 C 0.17727 0.63654 0.6949 0.0
C321 C 0.18493 0.63681 0.70748 0.0
C322 C 0.19194 0.61272 0.70431 0.0
C323 C 0.19222 0.62509 0.71209 0.0
C324 C 0.18439 0.6125 0.69163 0.0
C325 C 0.17714 0.62425 0.68698 0.0
U326 U 0.16825 0.6685 0.67169 0.0
O327 O 0.14765 0.67597 0.6647 0.0
O328 O 0.16102 0.68914 0.67801 0.0
C329 C 0.14876 0.68756 0.67186 0.0
C330 C 0.1687 0.64875 0.69085 0.0
C331 C 0.13648 0.69126 0.68022 0.0
C332 C 0.12127 0.6878 0.70023 0.0
C333 C 0.13293 0.68393 0.69243 0.0
C334 C 0.1166 0.70633 0.68369 0.0
C335 C 0.11295 0.69908 0.69597 0.0
C336 C 0.12823 0.70245 0.67592 0.0
C337 C 0.19209 0.67763 0.64022 0.0
C338 C 0.18707 0.69282 0.62041 0.0
C339 C 0.21075 0.68521 0.62468 0.0
C340 C 0.20621 0.67769 0.63638 0.0
C341 C 0.20125 0.69285 0.61649 0.0
C342 C 0.18253 0.68531 0.63219 0.0
C343 C 0.18772 0.66919 0.65242 0.0
O344 O 0.17455 0.6611 0.6926 0.0
O345 O 0.16131 0.64784 0.67924 0.0
O346 O 0.17594 0.66203 0.65118 0.0
O347 O 0.18925 0.6751 0.66468 0.0
H348 H 0.18507 0.64603 0.71392 0.0
H349 H 0.19774 0.62561 0.722 0.0
H350 H 0.18406 0.60321 0.68529 0.0
H351 H 0.1713 0.62361 0.67727 0.0
H352 H 0.11891 0.68207 0.70971 0.0
H353 H 0.1392 0.67527 0.69595 0.0
H354 H 0.11037 0.71492 0.67995 0.0
H355 H 0.13078 0.70822 0.6665 0.0
H356 H 0.17949 0.69871 0.61444 0.0
H357 H 0.22169 0.68479 0.62189 0.0
H358 H 0.21375 0.67179 0.64239 0.0
H359 H 0.17158 0.68545 0.635 0.0
C360 C 0.82261 0.68206 0.63766 0.0
C361 C 0.82885 0.68015 0.62458 0.0
C362 C 0.8148 0.69863 0.61429 0.0
C363 C 0.82503 0.68835 0.61308 0.0
C364 C 0.80848 0.70047 0.62734 0.0
C365 C 0.8123 0.69226 0.63886 0.0
U366 U 0.84566 0.67194 0.66931 0.0
O367 O 0.83972 0.66364 0.68994 0.0
O368 O 0.85289 0.65133 0.67619 0.0
C369 C 0.84584 0.65166 0.68791 0.0
C370 C 0.82621 0.67297 0.64977 0.0
C371 C 0.83807 0.63875 0.69194 0.0
C372 C 0.81902 0.62695 0.70434 0.0
C373 C 0.82517 0.63916 0.69891 0.0
C374 C 0.83828 0.61362 0.69559 0.0
C375 C 0.82567 0.61406 0.70302 0.0
C376 C 0.84442 0.6258 0.69018 0.0
C377 C 0.87805 0.69518 0.67842 0.0
C378 C 0.88985 0.71132 0.69434 0.0
C379 C 0.9029 0.69282 0.68382 0.0
C380 C 0.89078 0.68823 0.67681 0.0
C381 C 0.90262 0.7045 0.69259 0.0
C382 C 0.87774 0.70675 0.6873 0.0
C383 C 0.8654 0.69133 0.67007 0.0
O384 O 0.83761 0.66558 0.64871 0.0
O385 O 0.82469 0.67829 0.66226 0.0
O386 O 0.85325 0.69257 0.67623 0.0
O387 O 0.86607 0.68012 0.66231 0.0
H388 H 0.83663 0.67223 0.62315 0.0
H389 H 0.82995 0.68644 0.60315 0.0
H390 H 0.80066 0.70837 0.62872 0.0
H391 H 0.80712 0.69389 0.64871 0.0
H392 H 0.80938 0.62772 0.7101 0.0
H393 H 0.82004 0.64897 0.70059 0.0
H394 H 0.84359 0.60386 0.69418 0.0
H395 H 0.8544 0.62512 0.68499 0.0
H396 H 0.88926 0.72046 0.70083 0.0
H397 H 0.91252 0.68723 0.68233 0.0
H398 H 0.89147 0.67935 0.66996 0.0
H399 H 0.86818 0.71249 0.68859 0.0
C400 C 0.82435 0.33919 0.642 0.0
C401 C 0.83343 0.33833 0.63057 0.0
C402 C 0.81667 0.32339 0.61809 0.0
C403 C 0.82963 0.33055 0.61878 0.0
C404 C 0.80765 0.3242 0.62959 0.0
C405 C 0.81143 0.33203 0.64135 0.0
U406 U 0.84641 0.3492 0.67461 0.0
O407 O 0.85329 0.36987 0.68198 0.0
O408 O 0.83952 0.35687 0.69501 0.0
C409 C 0.84568 0.3691 0.69334 0.0
C410 C 0.82774 0.34803 0.65429 0.0
C411 C 0.83763 0.38167 0.69709 0.0
C412 C 0.81957 0.39268 0.71092 0.0
C413 C 0.82587 0.38067 0.70582 0.0
C414 C 0.83638 0.40698 0.69842 0.0
C415 C 0.82493 0.406 0.70753 0.0
C416 C 0.84266 0.395 0.69332 0.0
C417 C 0.87823 0.32667 0.68463 0.0
C418 C 0.89327 0.33026 0.70495 0.0
C419 C 0.89833 0.3119 0.68866 0.0
C420 C 0.88668 0.31563 0.68061 0.0
C421 C 0.9018 0.31914 0.70096 0.0
C422 C 0.88159 0.33399 0.69685 0.0
C423 C 0.86602 0.33027 0.67587 0.0
O424 O 0.82572 0.34232 0.66663 0.0
O425 O 0.83925 0.35569 0.65372 0.0
O426 O 0.86717 0.34181 0.66852 0.0
O427 O 0.85369 0.32868 0.68169 0.0
H428 H 0.84343 0.3438 0.63064 0.0
H429 H 0.83679 0.33037 0.61009 0.0
H430 H 0.79769 0.31868 0.62958 0.0
H431 H 0.80417 0.33257 0.64994 0.0
H432 H 0.81087 0.3915 0.71802 0.0
H433 H 0.82182 0.3706 0.70913 0.0
H434 H 0.84068 0.41704 0.69542 0.0
H435 H 0.85178 0.3962 0.68676 0.0
H436 H 0.8955 0.33598 0.71442 0.0
H437 H 0.90473 0.30344 0.68513 0.0
H438 H 0.88428 0.30988 0.67117 0.0
H439 H 0.87517 0.34254 0.70014 0.0
C440 C 0.13643 0.32564 0.6794 0.0
C441 C 0.13463 0.32878 0.69356 0.0
C442 C 0.11208 0.31643 0.69358 0.0
C443 C 0.12259 0.32418 0.70059 0.0
C444 C 0.1139 0.31348 0.67935 0.0
C445 C 0.12595 0.31803 0.67236 0.0
U446 U 0.16849 0.3497 0.67329 0.0
O447 O 0.18994 0.34432 0.6673 0.0
O448 O 0.1773 0.35758 0.65357 0.0
C449 C 0.18916 0.35105 0.65535 0.0
C450 C 0.1492 0.32992 0.6718 0.0
C451 C 0.19474 0.34397 0.64303 0.0
C452 C 0.19338 0.32654 0.62469 0.0
C453 C 0.18785 0.33258 0.63674 0.0
C454 C 0.21272 0.34312 0.62533 0.0
C455 C 0.2058 0.33189 0.61874 0.0
C456 C 0.20725 0.34907 0.6373 0.0
C457 C 0.17561 0.38132 0.69726 0.0
C458 C 0.19189 0.39244 0.71364 0.0
C459 C 0.1808 0.40624 0.69562 0.0
C460 C 0.17371 0.39433 0.69074 0.0
C461 C 0.18994 0.40547 0.70718 0.0
C462 C 0.18478 0.38055 0.70879 0.0
C463 C 0.16742 0.36879 0.69279 0.0
O464 O 0.14848 0.34166 0.66473 0.0
O465 O 0.16113 0.32852 0.67857 0.0
O466 O 0.17336 0.35666 0.69467 0.0
O467 O 0.1606 0.36965 0.68084 0.0
H468 H 0.14255 0.33473 0.69919 0.0
H469 H 0.12146 0.32676 0.7115 0.0
H470 H 0.10615 0.3074 0.67366 0.0
H471 H 0.12715 0.31547 0.66145 0.0
H472 H 0.18778 0.31793 0.61986 0.0
H473 H 0.17817 0.32849 0.64104 0.0
H474 H 0.22244 0.34733 0.62122 0.0
H475 H 0.21276 0.3578 0.64205 0.0
H476 H 0.19867 0.39148 0.7227 0.0
H477 H 0.17914 0.41606 0.6903 0.0
H478 H 0.16663 0.39539 0.68193 0.0
H479 H 0.1863 0.37076 0.71422 0.0
C480 C 0.13935 0.3206 0.34228 0.0
C481 C 0.13285 0.32981 0.33294 0.0
C482 C 0.11593 0.31167 0.32629 0.0
C483 C 0.1212 0.3254 0.32503 0.0
C484 C 0.12257 0.30251 0.33565 0.0
C485 C 0.13414 0.30695 0.34356 0.0
U486 U 0.17041 0.34514 0.35116 0.0
O487 O 0.17808 0.35211 0.37171 0.0
O488 O 0.19163 0.33982 0.35835 0.0
C489 C 0.18993 0.34544 0.37067 0.0
C490 C 0.15152 0.32493 0.35084 0.0
C491 C 0.19385 0.33665 0.38271 0.0
C492 C 0.18834 0.31875 0.39997 0.0
C493 C 0.1843 0.32713 0.38865 0.0
C494 C 0.21151 0.32929 0.3995 0.0
C495 C 0.20203 0.31967 0.40551 0.0
C496 C 0.20744 0.33769 0.38824 0.0
C497 C 0.17817 0.37729 0.32826 0.0
C498 C 0.19786 0.39314 0.33231 0.0
C499 C 0.18188 0.39734 0.31304 0.0
C500 C 0.17413 0.38543 0.31677 0.0
C501 C 0.19386 0.40136 0.32075 0.0
C502 C 0.19008 0.38121 0.33603 0.0
C503 C 0.16989 0.36475 0.33189 0.0
O504 O 0.16378 0.32402 0.34484 0.0
O505 O 0.15016 0.33643 0.35803 0.0
O506 O 0.16279 0.36535 0.34355 0.0
O507 O 0.17622 0.35283 0.3303 0.0
H508 H 0.13677 0.34039 0.33175 0.0
H509 H 0.11643 0.33267 0.31782 0.0
H510 H 0.11869 0.29195 0.33704 0.0
H511 H 0.13901 0.2997 0.35074 0.0
H512 H 0.1807 0.31159 0.4044 0.0
H513 H 0.17375 0.32616 0.38452 0.0
H514 H 0.22219 0.33015 0.40328 0.0
H515 H 0.21498 0.34493 0.38374 0.0
H516 H 0.20711 0.39581 0.33838 0.0
H517 H 0.17838 0.40349 0.30421 0.0
H518 H 0.16494 0.38257 0.31067 0.0
H519 H 0.19339 0.37502 0.34491 0.0
C520 C 0.13841 0.6749 0.32522 0.0
C521 C 0.13162 0.68355 0.33468 0.0
C522 C 0.11472 0.6902 0.31662 0.0
C523 C 0.11984 0.6911 0.33043 0.0
C524 C 0.12164 0.68151 0.30723 0.0
C525 C 0.13333 0.67396 0.3115 0.0
U526 U 0.17039 0.66621 0.34867 0.0
O527 O 0.17811 0.64565 0.35509 0.0
O528 O 0.19128 0.65944 0.34225 0.0
C529 C 0.18974 0.64704 0.34795 0.0
C530 C 0.15069 0.66662 0.32931 0.0
C531 C 0.19355 0.63518 0.3391 0.0
C532 C 0.18776 0.61747 0.32185 0.0
C533 C 0.18377 0.62863 0.33021 0.0
C534 C 0.21134 0.61928 0.33115 0.0
C535 C 0.20163 0.61266 0.32215 0.0
C536 C 0.20733 0.63039 0.33952 0.0
C537 C 0.17976 0.6892 0.38077 0.0
C538 C 0.18694 0.68603 0.40508 0.0
C539 C 0.19447 0.70664 0.39242 0.0
C540 C 0.18725 0.7019 0.38055 0.0
C541 C 0.19427 0.69885 0.40491 0.0
C542 C 0.17977 0.68125 0.39317 0.0
C543 C 0.17113 0.6851 0.36844 0.0
O544 O 0.16296 0.67279 0.32785 0.0
O545 O 0.14966 0.65935 0.34093 0.0
O546 O 0.16379 0.67343 0.36931 0.0
O547 O 0.17685 0.68701 0.35613 0.0
H548 H 0.13541 0.68447 0.34532 0.0
H549 H 0.11487 0.69779 0.33789 0.0
H550 H 0.11789 0.68037 0.2966 0.0
H551 H 0.13838 0.6673 0.30405 0.0
H552 H 0.17994 0.61256 0.31519 0.0
H553 H 0.17307 0.63217 0.32972 0.0
H554 H 0.22215 0.61609 0.33152 0.0
H555 H 0.21505 0.63534 0.34626 0.0
H556 H 0.18669 0.67968 0.41445 0.0
H557 H 0.19982 0.71665 0.39194 0.0
H558 H 0.18728 0.70837 0.37124 0.0
H559 H 0.17405 0.67145 0.39377 0.0
C560 C 0.82296 0.63853 0.34385 0.0
C561 C 0.83116 0.62651 0.34448 0.0
C562 C 0.81511 0.61438 0.32854 0.0
C563 C 0.82728 0.6146 0.33694 0.0
C564 C 0.80689 0.6264 0.32799 0.0
C565 C 0.81074 0.63829 0.33558 0.0
U566 U 0.84654 0.67045 0.35178 0.0
O567 O 0.84092 0.69175 0.3578 0.0
O568 O 0.85376 0.67901 0.37185 0.0
C569 C 0.84689 0.69066 0.37015 0.0
C570 C 0.82669 0.65117 0.35204 0.0
C571 C 0.83854 0.69528 0.38212 0.0
C572 C 0.82375 0.69049 0.40223 0.0
C573 C 0.83112 0.6858 0.39061 0.0
C574 C 0.83093 0.71419 0.39685 0.0
C575 C 0.8236 0.70476 0.40552 0.0
C576 C 0.83832 0.70949 0.38531 0.0
C577 C 0.8788 0.67599 0.32763 0.0
C578 C 0.89661 0.69439 0.3288 0.0
C579 C 0.89811 0.6764 0.31133 0.0
C580 C 0.8858 0.67025 0.31633 0.0
C581 C 0.90379 0.68848 0.31755 0.0
C582 C 0.88422 0.68816 0.33384 0.0
C583 C 0.86599 0.66889 0.33261 0.0
O584 O 0.83803 0.65061 0.35989 0.0
O585 O 0.82541 0.66317 0.34552 0.0
O586 O 0.85417 0.67547 0.33069 0.0
O587 O 0.86683 0.66262 0.34481 0.0
H588 H 0.84057 0.62623 0.35084 0.0
H589 H 0.83376 0.6055 0.33784 0.0
H590 H 0.79756 0.62673 0.32152 0.0
H591 H 0.80415 0.64734 0.33496 0.0
H592 H 0.81809 0.68297 0.40857 0.0
H593 H 0.83107 0.67477 0.38831 0.0
H594 H 0.8312 0.72521 0.39915 0.0
H595 H 0.84402 0.71697 0.37893 0.0
H596 H 0.90071 0.70366 0.33385 0.0
H597 H 0.90314 0.67172 0.30247 0.0
H598 H 0.88173 0.66092 0.31134 0.0
H599 H 0.87894 0.69276 0.34259 0.0
C600 C 0.84078 0.3779 0.32626 0.0
C601 C 0.82813 0.37736 0.31863 0.0
C602 C 0.82834 0.40269 0.31607 0.0
C603 C 0.82196 0.38961 0.31366 0.0
C604 C 0.84073 0.40322 0.32411 0.0
C605 C 0.84688 0.391 0.32908 0.0
U606 U 0.84925 0.34455 0.34821 0.0
O607 O 0.85583 0.32402 0.34069 0.0
O608 O 0.86992 0.33646 0.354 0.0
C609 C 0.86836 0.32522 0.34635 0.0
C610 C 0.84858 0.36502 0.3298 0.0
C611 C 0.88026 0.32157 0.33738 0.0
C612 C 0.90019 0.32794 0.32286 0.0
C613 C 0.88869 0.33178 0.33091 0.0
C614 C 0.89489 0.30365 0.32753 0.0
C615 C 0.90347 0.3138 0.32108 0.0
C616 C 0.88345 0.3075 0.33559 0.0
C617 C 0.82748 0.33429 0.38087 0.0
C618 C 0.83094 0.32767 0.40528 0.0
C619 C 0.81171 0.31749 0.39211 0.0
C620 C 0.81577 0.32525 0.38035 0.0
C621 C 0.81919 0.31865 0.40478 0.0
C622 C 0.83501 0.3354 0.39351 0.0
C623 C 0.83099 0.34328 0.36862 0.0
O624 O 0.85644 0.36531 0.34114 0.0
O625 O 0.84209 0.35299 0.32798 0.0
O626 O 0.82859 0.33799 0.35619 0.0
O627 O 0.84274 0.35058 0.36927 0.0
H628 H 0.82321 0.36747 0.31608 0.0
H629 H 0.81251 0.38877 0.30739 0.0
H630 H 0.84585 0.41309 0.32636 0.0
H631 H 0.8567 0.39182 0.33477 0.0
H632 H 0.90661 0.33607 0.3182 0.0
H633 H 0.88646 0.34271 0.33214 0.0
H634 H 0.89688 0.29267 0.32622 0.0
H635 H 0.87707 0.29944 0.34047 0.0
H636 H 0.83684 0.32903 0.41488 0.0
H637 H 0.80272 0.31054 0.39124 0.0
H638 H 0.80961 0.32428 0.37085 0.0
H639 H 0.84394 0.34242 0.39441 0.0
C640 C 0.67478 0.13399 0.69009 0.0
C641 C 0.68681 0.13455 0.69866 0.0
C642 C 0.68798 0.10917 0.69918 0.0
C643 C 0.69334 0.12232 0.7031 0.0
C644 C 0.67619 0.10864 0.69028 0.0
C645 C 0.66966 0.12087 0.68585 0.0
U646 U 0.66657 0.16793 0.66926 0.0
O647 O 0.64605 0.17617 0.66298 0.0
O648 O 0.65964 0.18811 0.6772 0.0
C649 C 0.64736 0.18719 0.67097 0.0
C650 C 0.66668 0.14676 0.68685 0.0
C651 C 0.63513 0.19055 0.67956 0.0
C652 C 0.61996 0.18631 0.69948 0.0
C653 C 0.63154 0.18268 0.69143 0.0
C654 C 0.61544 0.20564 0.68385 0.0
C655 C 0.61177 0.19788 0.69582 0.0
C656 C 0.62697 0.20201 0.67584 0.0
C657 C 0.68996 0.17943 0.63838 0.0
C658 C 0.68447 0.19696 0.62078 0.0
C659 C 0.70808 0.1884 0.62287 0.0
C660 C 0.70387 0.17962 0.63382 0.0
C661 C 0.69845 0.1972 0.61616 0.0
C662 C 0.68028 0.18818 0.63179 0.0
C663 C 0.68588 0.16993 0.64989 0.0
O664 O 0.67277 0.15884 0.68949 0.0
O665 O 0.65934 0.14682 0.67518 0.0
O666 O 0.67406 0.16293 0.64825 0.0
O667 O 0.68761 0.17481 0.66258 0.0
H668 H 0.69097 0.14444 0.70232 0.0
H669 H 0.70227 0.12317 0.7101 0.0
H670 H 0.67185 0.09873 0.68689 0.0
H671 H 0.66033 0.12001 0.67939 0.0
H672 H 0.61758 0.18018 0.7087 0.0
H673 H 0.63773 0.17381 0.6945 0.0
H674 H 0.60929 0.21447 0.68056 0.0
H675 H 0.62955 0.20819 0.66669 0.0
H676 H 0.67671 0.20346 0.61581 0.0
H677 H 0.71896 0.18845 0.61983 0.0
H678 H 0.71152 0.17298 0.63879 0.0
H679 H 0.66948 0.18821 0.63513 0.0
C680 C 0.32151 0.18073 0.63935 0.0
C681 C 0.32611 0.19446 0.63684 0.0
C682 C 0.31191 0.19543 0.61555 0.0
C683 C 0.32131 0.20177 0.62506 0.0
C684 C 0.30742 0.18164 0.61814 0.0
C685 C 0.31217 0.17439 0.62991 0.0
U686 U 0.34661 0.17353 0.67025 0.0
O687 O 0.3545 0.15348 0.67791 0.0
O688 O 0.34166 0.16625 0.69152 0.0
C689 C 0.34774 0.1542 0.68978 0.0
C690 C 0.32615 0.17278 0.65172 0.0
C691 C 0.33991 0.14146 0.69431 0.0
C692 C 0.32285 0.13004 0.70957 0.0
C693 C 0.3291 0.1422 0.70415 0.0
C694 C 0.33787 0.11614 0.69525 0.0
C695 C 0.32734 0.11685 0.70538 0.0
C696 C 0.3441 0.12827 0.68984 0.0
C697 C 0.37913 0.19752 0.67624 0.0
C698 C 0.39172 0.20574 0.69691 0.0
C699 C 0.40355 0.20494 0.67472 0.0
C700 C 0.39133 0.19968 0.66843 0.0
C701 C 0.40386 0.20829 0.689 0.0
C702 C 0.37948 0.20042 0.6906 0.0
C703 C 0.36608 0.19313 0.66891 0.0
O704 O 0.33782 0.16589 0.65034 0.0
O705 O 0.32526 0.1791 0.6638 0.0
O706 O 0.35423 0.19458 0.67558 0.0
O707 O 0.36661 0.18147 0.66184 0.0
H708 H 0.33338 0.19952 0.64399 0.0
H709 H 0.32508 0.21232 0.62332 0.0
H710 H 0.30003 0.17649 0.61119 0.0
H711 H 0.30846 0.16381 0.63169 0.0
H712 H 0.31489 0.13099 0.71747 0.0
H713 H 0.32573 0.15216 0.708 0.0
H714 H 0.34147 0.10617 0.69165 0.0
H715 H 0.35247 0.12727 0.68239 0.0
H716 H 0.3915 0.2083 0.70789 0.0
H717 H 0.41274 0.2065 0.66834 0.0
H718 H 0.39135 0.19754 0.65735 0.0
H719 H 0.37024 0.19888 0.69692 0.0
C720 C 0.32669 0.83935 0.63847 0.0
C721 C 0.33437 0.83981 0.626 0.0
C722 C 0.31708 0.82468 0.61451 0.0
C723 C 0.32962 0.83256 0.61418 0.0
C724 C 0.30955 0.82405 0.62706 0.0
C725 C 0.31427 0.83133 0.63885 0.0
U726 U 0.3497 0.84893 0.67078 0.0
O727 O 0.3571 0.86958 0.67781 0.0
O728 O 0.34324 0.85698 0.69115 0.0
C729 C 0.34964 0.86906 0.68928 0.0
C730 C 0.33076 0.84806 0.65069 0.0
C731 C 0.34193 0.88184 0.69301 0.0
C732 C 0.323 0.89322 0.70528 0.0
C733 C 0.32907 0.88113 0.70007 0.0
C734 C 0.34225 0.90701 0.69612 0.0
C735 C 0.32968 0.90629 0.70365 0.0
C736 C 0.34831 0.89496 0.69093 0.0
C737 C 0.38118 0.82571 0.68115 0.0
C738 C 0.39206 0.80928 0.69729 0.0
C739 C 0.40597 0.82797 0.68722 0.0
C740 C 0.39417 0.83271 0.67994 0.0
C741 C 0.40511 0.8161 0.69588 0.0
C742 C 0.38028 0.81399 0.68997 0.0
C743 C 0.36892 0.82964 0.67237 0.0
O744 O 0.32877 0.84252 0.66312 0.0
O745 O 0.34251 0.8553 0.64985 0.0
O746 O 0.37017 0.84091 0.6646 0.0
O747 O 0.35651 0.82829 0.67809 0.0
H748 H 0.34393 0.84595 0.62525 0.0
H749 H 0.33576 0.83317 0.60475 0.0
H750 H 0.29976 0.81826 0.62766 0.0
H751 H 0.30799 0.83094 0.6482 0.0
H752 H 0.31339 0.89222 0.71113 0.0
H753 H 0.32392 0.8712 0.70201 0.0
H754 H 0.34759 0.9169 0.69447 0.0
H755 H 0.35827 0.89588 0.68566 0.0
H756 H 0.39102 0.8 0.70369 0.0
H757 H 0.41581 0.83358 0.686 0.0
H758 H 0.39533 0.84171 0.67316 0.0
H759 H 0.3705 0.80821 0.69096 0.0
C760 C 0.63921 0.82522 0.68172 0.0
C761 C 0.63948 0.8127 0.68938 0.0
C762 C 0.6151 0.81539 0.69607 0.0
C763 C 0.62761 0.80788 0.69651 0.0
C764 C 0.61487 0.828 0.68853 0.0
C765 C 0.62676 0.83286 0.68144 0.0
U766 U 0.67143 0.84879 0.67342 0.0
O767 O 0.69219 0.84292 0.66579 0.0
O768 O 0.67897 0.85665 0.65316 0.0
C769 C 0.6905 0.84938 0.65376 0.0
C770 C 0.65156 0.82952 0.6733 0.0
C771 C 0.69444 0.84179 0.64091 0.0
C772 C 0.70821 0.82409 0.62937 0.0
C773 C 0.70309 0.83007 0.64158 0.0
C774 C 0.69592 0.84119 0.61553 0.0
C775 C 0.70492 0.82975 0.61619 0.0
C776 C 0.69081 0.84715 0.62771 0.0
C777 C 0.68039 0.87969 0.69787 0.0
C778 C 0.69627 0.8992 0.69311 0.0
C779 C 0.68714 0.89571 0.71638 0.0
C780 C 0.67967 0.88394 0.7118 0.0
C781 C 0.69551 0.90354 0.7071 0.0
C782 C 0.6888 0.88736 0.68854 0.0
C783 C 0.67199 0.86747 0.69338 0.0
O784 O 0.65074 0.84128 0.66625 0.0
O785 O 0.66393 0.8277 0.67909 0.0
O786 O 0.67806 0.85534 0.6945 0.0
O787 O 0.66474 0.86888 0.68175 0.0
H788 H 0.64882 0.80646 0.68963 0.0
H789 H 0.62813 0.79803 0.70204 0.0
H790 H 0.60547 0.83414 0.68809 0.0
H791 H 0.62611 0.84251 0.67559 0.0
H792 H 0.71524 0.8154 0.63031 0.0
H793 H 0.70629 0.82577 0.65156 0.0
H794 H 0.693 0.84571 0.60556 0.0
H795 H 0.6843 0.85625 0.62677 0.0
H796 H 0.70273 0.90488 0.68572 0.0
H797 H 0.68612 0.89882 0.72715 0.0
H798 H 0.6732 0.8782 0.71915 0.0
H799 H 0.68954 0.88423 0.67774 0.0
C800 C 0.63733 0.82485 0.34196 0.0
C801 C 0.63813 0.81615 0.33024 0.0
C802 C 0.61267 0.81401 0.32909 0.0
C803 C 0.62594 0.81084 0.32385 0.0
C804 C 0.61189 0.82301 0.34056 0.0
C805 C 0.62405 0.82831 0.34694 0.0
U806 U 0.66965 0.84884 0.34888 0.0
O807 O 0.67818 0.85644 0.36886 0.0
O808 O 0.69092 0.84315 0.35567 0.0
C809 C 0.68969 0.84922 0.36783 0.0
C810 C 0.65015 0.82924 0.34979 0.0
C811 C 0.69341 0.84063 0.38011 0.0
C812 C 0.68695 0.82475 0.39896 0.0
C813 C 0.6832 0.8329 0.38739 0.0
C814 C 0.71118 0.83186 0.39609 0.0
C815 C 0.70101 0.82406 0.40345 0.0
C816 C 0.7074 0.84006 0.38457 0.0
C817 C 0.67604 0.88016 0.32358 0.0
C818 C 0.69746 0.89318 0.31837 0.0
C819 C 0.67516 0.90147 0.30982 0.0
C820 C 0.66838 0.89019 0.31626 0.0
C821 C 0.68981 0.90297 0.31054 0.0
C822 C 0.69063 0.88183 0.32481 0.0
C823 C 0.66853 0.8677 0.32892 0.0
O824 O 0.66222 0.82772 0.34354 0.0
O825 O 0.64949 0.84089 0.35685 0.0
O826 O 0.66211 0.86899 0.3409 0.0
O827 O 0.67482 0.85572 0.3276 0.0
H828 H 0.64817 0.8131 0.32622 0.0
H829 H 0.62696 0.8038 0.31516 0.0
H830 H 0.60185 0.82582 0.34476 0.0
H831 H 0.62303 0.83486 0.35602 0.0
H832 H 0.6788 0.81905 0.40444 0.0
H833 H 0.67233 0.83316 0.38412 0.0
H834 H 0.72212 0.83143 0.39904 0.0
H835 H 0.71545 0.84589 0.37905 0.0
H836 H 0.70876 0.89399 0.31907 0.0
H837 H 0.66893 0.90893 0.3041 0.0
H838 H 0.65711 0.88912 0.31522 0.0
H839 H 0.69675 0.87421 0.33044 0.0
C840 C 0.63979 0.17766 0.32408 0.0
C841 C 0.64019 0.18623 0.31213 0.0
C842 C 0.61548 0.19168 0.31466 0.0
C843 C 0.62823 0.1932 0.30753 0.0
C844 C 0.61511 0.18319 0.32668 0.0
C845 C 0.62709 0.17626 0.33132 0.0
U846 U 0.67201 0.17003 0.34754 0.0
O847 O 0.67988 0.15004 0.35546 0.0
O848 O 0.69298 0.16301 0.3417 0.0
C849 C 0.69171 0.15122 0.34865 0.0
C850 C 0.65232 0.16951 0.32819 0.0
C851 C 0.69667 0.13855 0.34174 0.0
C852 C 0.69631 0.12164 0.32287 0.0
C853 C 0.69126 0.13389 0.32889 0.0
C854 C 0.71218 0.11877 0.34247 0.0
C855 C 0.70675 0.11385 0.32969 0.0
C856 C 0.70719 0.13093 0.3484 0.0
C857 C 0.68048 0.19366 0.37886 0.0
C858 C 0.69964 0.18952 0.39517 0.0
C859 C 0.68472 0.20936 0.39832 0.0
C860 C 0.67698 0.20551 0.38644 0.0
C861 C 0.69613 0.20139 0.40289 0.0
C862 C 0.69189 0.18569 0.38327 0.0
C863 C 0.67199 0.1897 0.36654 0.0
O864 O 0.66459 0.17565 0.32643 0.0
O865 O 0.65158 0.16229 0.33988 0.0
O866 O 0.66479 0.17799 0.36768 0.0
O867 O 0.67815 0.19113 0.3544 0.0
H868 H 0.64973 0.18737 0.30618 0.0
H869 H 0.62888 0.19948 0.29812 0.0
H870 H 0.60553 0.18189 0.33253 0.0
H871 H 0.62631 0.16967 0.3405 0.0
H872 H 0.69187 0.11814 0.31306 0.0
H873 H 0.68313 0.13965 0.32357 0.0
H874 H 0.72041 0.11325 0.34788 0.0
H875 H 0.71156 0.1344 0.35827 0.0
H876 H 0.70847 0.18324 0.39824 0.0
H877 H 0.68158 0.21844 0.40407 0.0
H878 H 0.66818 0.21177 0.38323 0.0
H879 H 0.69478 0.17652 0.37753 0.0
C880 C 0.3196 0.14041 0.3457 0.0
C881 C 0.30641 0.13511 0.34941 0.0
C882 C 0.30883 0.11579 0.3333 0.0
C883 C 0.30107 0.12296 0.34329 0.0
C884 C 0.32195 0.12134 0.3293 0.0
C885 C 0.32732 0.13355 0.33549 0.0
U886 U 0.34545 0.1715 0.35175 0.0
O887 O 0.34075 0.19249 0.35928 0.0
O888 O 0.35425 0.17888 0.37175 0.0
C889 C 0.34745 0.19066 0.37118 0.0
C890 C 0.32512 0.15276 0.35312 0.0
C891 C 0.34032 0.19495 0.38415 0.0
C892 C 0.32121 0.20635 0.39607 0.0
C893 C 0.32701 0.20101 0.38387 0.0
C894 C 0.3417 0.19935 0.40914 0.0
C895 C 0.3286 0.20582 0.40883 0.0
C896 C 0.3475 0.19405 0.39696 0.0
C897 C 0.37631 0.17943 0.32747 0.0
C898 C 0.39241 0.19897 0.33107 0.0
C899 C 0.39618 0.183 0.31208 0.0
C900 C 0.38423 0.17536 0.316 0.0
C901 C 0.40047 0.1949 0.31958 0.0
C902 C 0.38046 0.1913 0.33498 0.0
C903 C 0.36385 0.17113 0.3315 0.0
O904 O 0.33727 0.15137 0.35945 0.0
O905 O 0.32382 0.16482 0.34672 0.0
O906 O 0.35182 0.17751 0.3305 0.0
O907 O 0.36511 0.16381 0.34306 0.0
H908 H 0.30026 0.14029 0.35722 0.0
H909 H 0.29083 0.11918 0.34642 0.0
H910 H 0.3282 0.11606 0.32166 0.0
H911 H 0.33754 0.1375 0.33249 0.0
H912 H 0.31117 0.21138 0.39538 0.0
H913 H 0.3212 0.20198 0.37416 0.0
H914 H 0.34761 0.19854 0.4188 0.0
H915 H 0.3578 0.18952 0.39752 0.0
H916 H 0.39526 0.20817 0.33698 0.0
H917 H 0.40219 0.17944 0.30331 0.0
H918 H 0.38122 0.16619 0.3101 0.0
H919 H 0.37445 0.19463 0.34386 0.0
C920 C 0.33927 0.88066 0.32742 0.0
C921 C 0.33253 0.88112 0.31435 0.0
C922 C 0.32472 0.90476 0.31865 0.0
C923 C 0.3253 0.89298 0.31004 0.0
C924 C 0.33137 0.90425 0.3318 0.0
C925 C 0.33854 0.89234 0.33615 0.0
U926 U 0.34823 0.84876 0.3506 0.0
O927 O 0.35518 0.82795 0.34442 0.0
O928 O 0.3688 0.84116 0.35747 0.0
C929 C 0.36758 0.82957 0.35031 0.0
C930 C 0.34768 0.8683 0.33124 0.0
C931 C 0.38002 0.82528 0.34222 0.0
C932 C 0.39043 0.81146 0.32381 0.0
C933 C 0.37862 0.81701 0.3302 0.0
C934 C 0.40532 0.8226 0.34108 0.0
C935 C 0.40392 0.81393 0.32936 0.0
C936 C 0.39354 0.82814 0.34744 0.0
C937 C 0.32532 0.84094 0.3831 0.0
C938 C 0.32356 0.81948 0.39671 0.0
C939 C 0.31364 0.84066 0.40556 0.0
C940 C 0.31813 0.84783 0.39363 0.0
C941 C 0.31624 0.82637 0.40727 0.0
C942 C 0.32809 0.82671 0.38475 0.0
C943 C 0.32936 0.84884 0.37044 0.0
O944 O 0.35544 0.86914 0.34261 0.0
O945 O 0.34148 0.85607 0.32978 0.0
O946 O 0.32746 0.84254 0.35842 0.0
O947 O 0.3412 0.85594 0.37116 0.0
H948 H 0.33305 0.87235 0.30733 0.0
H949 H 0.32048 0.89305 0.29977 0.0
H950 H 0.33101 0.91306 0.33876 0.0
H951 H 0.34363 0.89237 0.34629 0.0
H952 H 0.38893 0.80472 0.31489 0.0
H953 H 0.36837 0.81442 0.32597 0.0
H954 H 0.41554 0.8249 0.34553 0.0
H955 H 0.39502 0.83434 0.35676 0.0
H956 H 0.32587 0.80852 0.39773 0.0
H957 H 0.30786 0.84628 0.41332 0.0
H958 H 0.31582 0.85879 0.39254 0.0
H959 H 0.33367 0.82118 0.37677 0.0
C960 C 0.68212 0.64044 0.19632 0.0
C961 C 0.68152 0.62816 0.1884 0.0
C962 C 0.69613 0.61616 0.20556 0.0
C963 C 0.68844 0.61618 0.19296 0.0
C964 C 0.69698 0.62854 0.21329 0.0
C965 C 0.69002 0.64049 0.20876 0.0
U966 U 0.67226 0.67291 0.1739 0.0
O967 O 0.65138 0.68016 0.16767 0.0
O968 O 0.66475 0.69321 0.18109 0.0
C969 C 0.65226 0.69136 0.17547 0.0
C970 C 0.67357 0.65275 0.1926 0.0
C971 C 0.64003 0.69441 0.18442 0.0
C972 C 0.61557 0.6906 0.19072 0.0
C973 C 0.62727 0.68705 0.18288 0.0
C974 C 0.62902 0.709 0.20183 0.0
C975 C 0.61625 0.70164 0.20031 0.0
C976 C 0.64073 0.70547 0.19396 0.0
C977 C 0.69442 0.68298 0.14156 0.0
C978 C 0.68984 0.70231 0.1257 0.0
C979 C 0.70973 0.68759 0.12185 0.0
C980 C 0.70616 0.67968 0.13364 0.0
C981 C 0.70163 0.69902 0.11768 0.0
C982 C 0.68627 0.69437 0.13754 0.0
C983 C 0.69092 0.6743 0.15385 0.0
O984 O 0.6795 0.66507 0.19436 0.0
O985 O 0.66584 0.65201 0.1812 0.0
O986 O 0.67926 0.6669 0.15299 0.0
O987 O 0.69276 0.68014 0.1661 0.0
H988 H 0.67547 0.62767 0.1788 0.0
H989 H 0.68769 0.60689 0.18665 0.0
H990 H 0.70263 0.62889 0.22313 0.0
H991 H 0.69051 0.6497 0.21521 0.0
H992 H 0.60588 0.68483 0.18905 0.0
H993 H 0.62622 0.67863 0.17547 0.0
H994 H 0.63003 0.71746 0.2092 0.0
H995 H 0.65032 0.71149 0.19528 0.0
H996 H 0.68344 0.71112 0.12293 0.0
H997 H 0.71874 0.68458 0.11586 0.0
H998 H 0.71255 0.67089 0.13654 0.0
H999 H 0.67718 0.6971 0.14354 0.0
C1000 C 0.31714 0.67862 0.14099 0.0
C1001 C 0.3243 0.6899 0.13477 0.0
C1002 C 0.30652 0.69102 0.11633 0.0
C1003 C 0.31899 0.6961 0.12254 0.0
C1004 C 0.2993 0.67992 0.12286 0.0
C1005 C 0.30457 0.6738 0.13502 0.0
U1006 U 0.34272 0.67312 0.17221 0.0
O1007 O 0.33789 0.66503 0.19319 0.0
O1008 O 0.35173 0.6534 0.17953 0.0
C1009 C 0.34477 0.65346 0.1913 0.0
C1010 C 0.32263 0.67128 0.15337 0.0
C1011 C 0.33772 0.64018 0.19543 0.0
C1012 C 0.31892 0.62741 0.20722 0.0
C1013 C 0.32464 0.63993 0.20207 0.0
C1014 C 0.33904 0.61508 0.1989 0.0
C1015 C 0.32617 0.61485 0.20592 0.0
C1016 C 0.34476 0.62758 0.19379 0.0
C1017 C 0.37318 0.69781 0.18081 0.0
C1018 C 0.38928 0.69289 0.19992 0.0
C1019 C 0.39271 0.71361 0.18576 0.0
C1020 C 0.38085 0.71 0.1778 0.0
C1021 C 0.39714 0.70505 0.19687 0.0
C1022 C 0.37743 0.6893 0.19197 0.0
C1023 C 0.36092 0.69394 0.17216 0.0
O1024 O 0.33489 0.66547 0.15199 0.0
O1025 O 0.32111 0.67745 0.16545 0.0
O1026 O 0.34875 0.69443 0.17842 0.0
O1027 O 0.36231 0.6827 0.1646 0.0
H1028 H 0.33404 0.69376 0.13924 0.0
H1029 H 0.32481 0.70461 0.11776 0.0
H1030 H 0.28954 0.67593 0.11855 0.0
H1031 H 0.29886 0.66515 0.1397 0.0
H1032 H 0.30907 0.62768 0.2127 0.0
H1033 H 0.31896 0.64945 0.20363 0.0
H1034 H 0.34482 0.6056 0.19751 0.0
H1035 H 0.35489 0.62742 0.18882 0.0
H1036 H 0.39224 0.68616 0.20853 0.0
H1037 H 0.39857 0.72296 0.18302 0.0
H1038 H 0.37773 0.71668 0.1692 0.0
H1039 H 0.3716 0.67986 0.19448 0.0
C1040 C 0.32448 0.33838 0.14342 0.0
C1041 C 0.33449 0.32989 0.13727 0.0
C1042 C 0.31701 0.32108 0.12061 0.0
C1043 C 0.3308 0.32136 0.12596 0.0
C1044 C 0.30706 0.32968 0.12683 0.0
C1045 C 0.31077 0.33822 0.13809 0.0
U1046 U 0.34743 0.34851 0.17507 0.0
O1047 O 0.35388 0.36924 0.18264 0.0
O1048 O 0.34112 0.35547 0.19593 0.0
C1049 C 0.34696 0.36785 0.19438 0.0
C1050 C 0.32801 0.34734 0.15546 0.0
C1051 C 0.33854 0.37981 0.19874 0.0
C1052 C 0.32254 0.39875 0.19386 0.0
C1053 C 0.33005 0.3872 0.18934 0.0
C1054 C 0.33181 0.39553 0.21722 0.0
C1055 C 0.32333 0.40308 0.20788 0.0
C1056 C 0.33931 0.38405 0.21269 0.0
C1057 C 0.37977 0.32597 0.18427 0.0
C1058 C 0.39107 0.30946 0.20001 0.0
C1059 C 0.40463 0.32843 0.18999 0.0
C1060 C 0.39267 0.33312 0.18294 0.0
C1061 C 0.40403 0.31645 0.19851 0.0
C1062 C 0.37914 0.31412 0.19294 0.0
C1063 C 0.36732 0.32987 0.17575 0.0
O1064 O 0.32655 0.34151 0.16781 0.0
O1065 O 0.33952 0.35495 0.15441 0.0
O1066 O 0.36814 0.34147 0.16841 0.0
O1067 O 0.35502 0.32789 0.18152 0.0
H1068 H 0.34514 0.32984 0.14122 0.0
H1069 H 0.3388 0.31503 0.12137 0.0
H1070 H 0.2963 0.32959 0.12322 0.0
H1071 H 0.30287 0.34465 0.14274 0.0
H1072 H 0.31601 0.40421 0.18641 0.0
H1073 H 0.32927 0.38407 0.17852 0.0
H1074 H 0.33287 0.39865 0.22802 0.0
H1075 H 0.34584 0.37854 0.22011 0.0
H1076 H 0.39023 0.30008 0.2063 0.0
H1077 H 0.41438 0.33416 0.1887 0.0
H1078 H 0.39361 0.34221 0.17625 0.0
H1079 H 0.36945 0.30822 0.19401 0.0
C1080 C 0.63846 0.32486 0.18076 0.0
C1081 C 0.62644 0.33312 0.18097 0.0
C1082 C 0.61482 0.31667 0.19679 0.0
C1083 C 0.61479 0.32907 0.18887 0.0
C1084 C 0.62686 0.30844 0.19657 0.0
C1085 C 0.6385 0.31246 0.18862 0.0
U1086 U 0.67063 0.34776 0.1713 0.0
O1087 O 0.69121 0.34177 0.16339 0.0
O1088 O 0.67777 0.3553 0.15074 0.0
C1089 C 0.6894 0.3482 0.15137 0.0
C1090 C 0.65068 0.3286 0.17191 0.0
C1091 C 0.69305 0.34043 0.13868 0.0
C1092 C 0.6949 0.31893 0.12554 0.0
C1093 C 0.69067 0.32602 0.13751 0.0
C1094 C 0.70367 0.3406 0.1157 0.0
C1095 C 0.70151 0.32614 0.11449 0.0
C1096 C 0.6995 0.34764 0.12766 0.0
C1097 C 0.68018 0.37931 0.19503 0.0
C1098 C 0.69725 0.39011 0.21083 0.0
C1099 C 0.68444 0.40443 0.19446 0.0
C1100 C 0.67743 0.39256 0.18938 0.0
C1101 C 0.69433 0.40339 0.20537 0.0
C1102 C 0.69023 0.37825 0.20577 0.0
C1103 C 0.67167 0.3669 0.19083 0.0
O1104 O 0.64987 0.34015 0.16452 0.0
O1105 O 0.66313 0.32681 0.17753 0.0
O1106 O 0.6776 0.35469 0.19214 0.0
O1107 O 0.66401 0.36797 0.17942 0.0
H1108 H 0.62594 0.34266 0.17493 0.0
H1109 H 0.60565 0.33559 0.18857 0.0
H1110 H 0.62739 0.29893 0.20266 0.0
H1111 H 0.64754 0.30581 0.18858 0.0
H1112 H 0.69294 0.30782 0.12491 0.0
H1113 H 0.68566 0.32023 0.14587 0.0
H1114 H 0.70891 0.34647 0.10753 0.0
H1115 H 0.7015 0.35875 0.12837 0.0
H1116 H 0.70464 0.38891 0.21937 0.0
H1117 H 0.68203 0.41445 0.18988 0.0
H1118 H 0.66965 0.39384 0.18122 0.0
H1119 H 0.69243 0.36826 0.21055 0.0
C1120 C 0.63995 0.32016 0.84127 0.0
C1121 C 0.63324 0.32931 0.832 0.0
C1122 C 0.6163 0.31107 0.82565 0.0
C1123 C 0.62149 0.32481 0.82429 0.0
C1124 C 0.62318 0.30194 0.83487 0.0
C1125 C 0.63487 0.30646 0.84259 0.0
U1126 U 0.67127 0.34457 0.84977 0.0
O1127 O 0.67832 0.35268 0.87017 0.0
O1128 O 0.6921 0.3394 0.85805 0.0
C1129 C 0.69016 0.34594 0.86986 0.0
C1130 C 0.65204 0.32467 0.84989 0.0
C1131 C 0.69406 0.33839 0.88276 0.0
C1132 C 0.69527 0.31723 0.89683 0.0
C1133 C 0.69093 0.32417 0.88465 0.0
C1134 C 0.70569 0.33868 0.90542 0.0
C1135 C 0.70274 0.3244 0.90737 0.0
C1136 C 0.70139 0.34557 0.89326 0.0
C1137 C 0.68019 0.37565 0.82588 0.0
C1138 C 0.69931 0.39198 0.83067 0.0
C1139 C 0.68481 0.39507 0.81007 0.0
C1140 C 0.67696 0.38319 0.81374 0.0
C1141 C 0.69607 0.39966 0.81851 0.0
C1142 C 0.69144 0.38009 0.83432 0.0
C1143 C 0.67164 0.36329 0.82961 0.0
O1144 O 0.66443 0.32326 0.84427 0.0
O1145 O 0.65073 0.33651 0.85651 0.0
O1146 O 0.66406 0.36442 0.84091 0.0
O1147 O 0.67794 0.35127 0.82881 0.0
H1148 H 0.63704 0.33993 0.83078 0.0
H1149 H 0.61656 0.33207 0.81717 0.0
H1150 H 0.61939 0.29136 0.83634 0.0
H1151 H 0.63987 0.29925 0.84973 0.0
H1152 H 0.6927 0.30627 0.89803 0.0
H1153 H 0.68521 0.31843 0.87669 0.0
H1154 H 0.71159 0.3445 0.91318 0.0
H1155 H 0.70396 0.35653 0.89198 0.0
H1156 H 0.70802 0.39507 0.83732 0.0
H1157 H 0.6819 0.40079 0.80075 0.0
H1158 H 0.66828 0.37994 0.80711 0.0
H1159 H 0.69412 0.37436 0.84372 0.0
C1160 C 0.6354 0.67536 0.82836 0.0
C1161 C 0.63442 0.68968 0.831 0.0
C1162 C 0.61139 0.69018 0.81968 0.0
C1163 C 0.62254 0.69702 0.82666 0.0
C1164 C 0.6124 0.6758 0.81727 0.0
C1165 C 0.62426 0.6685 0.82155 0.0
U1166 U 0.66772 0.66623 0.85133 0.0
O1167 O 0.67591 0.64554 0.85652 0.0
O1168 O 0.68881 0.66037 0.84458 0.0
C1169 C 0.68755 0.64763 0.84955 0.0
C1170 C 0.64807 0.66738 0.83196 0.0
C1171 C 0.69167 0.63636 0.84009 0.0
C1172 C 0.68632 0.61944 0.82193 0.0
C1173 C 0.68212 0.63023 0.83068 0.0
C1174 C 0.70967 0.62084 0.83186 0.0
C1175 C 0.70017 0.6146 0.82239 0.0
C1176 C 0.70545 0.63158 0.8406 0.0
C1177 C 0.67602 0.68668 0.88509 0.0
C1178 C 0.69814 0.68699 0.89791 0.0
C1179 C 0.67766 0.69725 0.90806 0.0
C1180 C 0.6698 0.69357 0.89622 0.0
C1181 C 0.69198 0.69415 0.90903 0.0
C1182 C 0.69023 0.68328 0.88606 0.0
C1183 C 0.66757 0.68357 0.87247 0.0
O1184 O 0.66015 0.67404 0.83104 0.0
O1185 O 0.64723 0.65919 0.84297 0.0
O1186 O 0.66071 0.6716 0.87246 0.0
O1187 O 0.67345 0.68651 0.86043 0.0
H1188 H 0.64286 0.69521 0.83627 0.0
H1189 H 0.62207 0.70805 0.82883 0.0
H1190 H 0.60416 0.6702 0.81174 0.0
H1191 H 0.62482 0.65748 0.81932 0.0
H1192 H 0.67867 0.61482 0.8149 0.0
H1193 H 0.67142 0.63375 0.83012 0.0
H1194 H 0.72046 0.61762 0.83237 0.0
H1195 H 0.71299 0.63621 0.84776 0.0
H1196 H 0.70916 0.68455 0.89819 0.0
H1197 H 0.67248 0.70252 0.91647 0.0
H1198 H 0.65883 0.69623 0.89571 0.0
H1199 H 0.69526 0.67795 0.87759 0.0
C1200 C 0.3223 0.63887 0.84371 0.0
C1201 C 0.3252 0.63733 0.82947 0.0
C1202 C 0.31378 0.61437 0.82949 0.0
C1203 C 0.32095 0.6252 0.82241 0.0
C1204 C 0.31105 0.61598 0.84379 0.0
C1205 C 0.31526 0.62808 0.85079 0.0
U1206 U 0.34504 0.67184 0.85142 0.0
O1207 O 0.33821 0.69249 0.85813 0.0
O1208 O 0.35158 0.68006 0.8719 0.0
C1209 C 0.34416 0.69138 0.87049 0.0
C1210 C 0.32608 0.65167 0.85144 0.0
C1211 C 0.3354 0.69497 0.8825 0.0
C1212 C 0.31456 0.69162 0.89662 0.0
C1213 C 0.32273 0.68792 0.88518 0.0
C1214 C 0.33168 0.7094 0.90285 0.0
C1215 C 0.31892 0.70244 0.90561 0.0
C1216 C 0.33981 0.7057 0.89142 0.0
C1217 C 0.37747 0.68152 0.82921 0.0
C1218 C 0.40156 0.68924 0.83348 0.0
C1219 C 0.38918 0.69746 0.813 0.0
C1220 C 0.37736 0.6896 0.81693 0.0
C1221 C 0.40148 0.69736 0.82119 0.0
C1222 C 0.38973 0.68143 0.83744 0.0
C1223 C 0.3651 0.67262 0.83277 0.0
O1224 O 0.33768 0.65126 0.85889 0.0
O1225 O 0.32444 0.66357 0.84482 0.0
O1226 O 0.35272 0.67807 0.83061 0.0
O1227 O 0.36579 0.66535 0.84443 0.0
H1228 H 0.33068 0.64551 0.82379 0.0
H1229 H 0.32335 0.62426 0.81144 0.0
H1230 H 0.30538 0.608 0.84955 0.0
H1231 H 0.31286 0.62909 0.86176 0.0
H1232 H 0.30473 0.68614 0.89829 0.0
H1233 H 0.31913 0.6796 0.87839 0.0
H1234 H 0.3355 0.71762 0.90963 0.0
H1235 H 0.34959 0.71123 0.88956 0.0
H1236 H 0.41088 0.6887 0.83995 0.0
H1237 H 0.38862 0.7037 0.80357 0.0
H1238 H 0.36814 0.68978 0.81029 0.0
H1239 H 0.3903 0.67519 0.84687 0.0
C1240 C 0.34035 0.37716 0.82335 0.0
C1241 C 0.33287 0.38485 0.83313 0.0
C1242 C 0.32569 0.40125 0.81491 0.0
C1243 C 0.32564 0.3968 0.82895 0.0
C1244 C 0.33309 0.39338 0.80517 0.0
C1245 C 0.34034 0.38149 0.80935 0.0
U1246 U 0.34863 0.3457 0.84724 0.0
O1247 O 0.3554 0.32469 0.84138 0.0
O1248 O 0.36909 0.33799 0.85426 0.0
C1249 C 0.36783 0.32637 0.84714 0.0
C1250 C 0.34852 0.36482 0.82744 0.0
C1251 C 0.3799 0.3226 0.83841 0.0
C1252 C 0.39999 0.32892 0.82409 0.0
C1253 C 0.38852 0.33279 0.83214 0.0
C1254 C 0.39434 0.30464 0.82833 0.0
C1255 C 0.40306 0.31478 0.82203 0.0
C1256 C 0.38293 0.30851 0.83643 0.0
C1257 C 0.32454 0.33944 0.87957 0.0
C1258 C 0.32471 0.32038 0.8965 0.0
C1259 C 0.30942 0.3399 0.89981 0.0
C1260 C 0.31435 0.34598 0.88749 0.0
C1261 C 0.31459 0.32708 0.90459 0.0
C1262 C 0.32969 0.32654 0.8841 0.0
C1263 C 0.32941 0.34649 0.86673 0.0
O1264 O 0.35601 0.3659 0.83897 0.0
O1265 O 0.34209 0.3527 0.82624 0.0
O1266 O 0.32771 0.33971 0.85495 0.0
O1267 O 0.34142 0.35329 0.86755 0.0
H1268 H 0.33268 0.38165 0.84399 0.0
H1269 H 0.31992 0.40249 0.83671 0.0
H1270 H 0.33353 0.39656 0.79431 0.0
H1271 H 0.34608 0.37574 0.80164 0.0
H1272 H 0.40653 0.33706 0.81959 0.0
H1273 H 0.38643 0.34374 0.83349 0.0
H1274 H 0.39617 0.29366 0.82682 0.0
H1275 H 0.3764 0.30047 0.84114 0.0
H1276 H 0.32895 0.31052 0.89989 0.0
H1277 H 0.30143 0.34524 0.90555 0.0
H1278 H 0.31016 0.35589 0.88413 0.0
H1279 H 0.33756 0.32131 0.8781 0.0
H1280 H 0.26926 0.28489 0.99868 0.0
H1281 H 0.23601 0.25443 0.99879 0.0
H1282 H 0.25708 0.26452 0.96051 0.0
H1283 H 0.25046 0.28657 0.01532 0.0
H1284 H 0.23587 0.27506 0.01453 0.0
H1285 H 0.27054 0.28165 0.03039 0.0
H1286 H 0.26197 0.25338 0.06417 0.0
H1287 H 0.23565 0.25288 0.02748 0.0
C1288 C 0.26304 0.27718 0.99312 0.0
C1289 C 0.26499 0.27525 0.97867 0.0
C1290 C 0.25238 0.26995 1.00036 0.0
C1291 C 0.24426 0.2599 0.99322 0.0
C1292 C 0.24606 0.25761 0.97882 0.0
C1293 C 0.25641 0.26541 0.97173 0.0
C1294 C 0.24751 0.27536 0.01435 0.0
C1295 C 0.25291 0.26762 0.02712 0.0
C1296 C 0.26456 0.27293 0.0346 0.0
C1297 C 0.26801 0.2676 0.04787 0.0
C1298 C 0.25976 0.25682 0.0536 0.0
C1299 C 0.24797 0.25143 0.04646 0.0
C1300 C 0.24484 0.2567 0.03303 0.0
H1301 H 0.76726 0.23639 0.02811 0.0
H1302 H 0.73391 0.26601 0.02718 0.0
H1303 H 0.76263 0.26489 0.06199 0.0
H1304 H 0.7463 0.23277 0.01327 0.0
H1305 H 0.73283 0.24526 0.01257 0.0
H1306 H 0.7663 0.23443 0.99775 0.0
H1307 H 0.76196 0.26137 0.96201 0.0
H1308 H 0.73459 0.2657 0.99704 0.0
C1309 C 0.762 0.24516 0.03266 0.0
C1310 C 0.76645 0.2502 0.04572 0.0
C1311 C 0.75044 0.25105 0.02571 0.0
C1312 C 0.74323 0.26196 0.03214 0.0
C1313 C 0.74739 0.26687 0.04539 0.0
C1314 C 0.75926 0.26117 0.05183 0.0
C1315 C 0.7444 0.24416 0.01276 0.0
C1316 C 0.75029 0.24993 0.99921 0.0
C1317 C 0.7614 0.24319 0.9926 0.0
C1318 C 0.76547 0.24702 0.97899 0.0
C1319 C 0.75861 0.25808 0.9723 0.0
C1320 C 0.7474 0.26484 0.97859 0.0
C1321 C 0.74348 0.26087 0.9922 0.0
H1322 H 0.73398 0.7523 0.02351 0.0
H1323 H 0.76646 0.78365 0.02212 0.0
H1324 H 0.75697 0.76267 0.06078 0.0
H1325 H 0.73289 0.77246 0.00696 0.0
H1326 H 0.74698 0.78458 1.00592 0.0
H1327 H 0.73625 0.74759 0.9976 0.0
H1328 H 0.75655 0.74933 0.95795 0.0
H1329 H 0.76197 0.78324 0.98661 0.0
C1330 C 0.74245 0.75793 0.02864 0.0
C1331 C 0.74518 0.7556 0.04295 0.0
C1332 C 0.75002 0.76814 0.02107 0.0
C1333 C 0.76078 0.77571 0.02792 0.0
C1334 C 0.76348 0.77383 0.04231 0.0
C1335 C 0.75565 0.76365 0.0496 0.0
C1336 C 0.74451 0.77327 0.00704 0.0
C1337 C 0.74975 0.76563 0.99431 0.0
C1338 C 0.74369 0.75263 0.99068 0.0
C1339 C 0.74623 0.74677 0.97757 0.0
C1340 C 0.75502 0.75378 0.9682 0.0
C1341 C 0.76044 0.76711 0.97112 0.0
C1342 C 0.75822 0.77277 0.98442 0.0
H1343 H 0.25978 0.73474 0.02365 0.0
H1344 H 0.23154 0.76895 0.02518 0.0
H1345 H 0.25623 0.75856 0.06133 0.0
H1346 H 0.23852 0.73532 0.00889 0.0
H1347 H 0.22751 0.74996 0.0089 0.0
H1348 H 0.26025 0.73537 0.99503 0.0
H1349 H 0.25827 0.76166 0.95854 0.0
H1350 H 0.23191 0.76965 0.99358 0.0
C1351 C 0.25554 0.74341 0.02931 0.0
C1352 C 0.25945 0.74563 0.04336 0.0
C1353 C 0.24545 0.75173 0.02269 0.0
C1354 C 0.23971 0.76288 0.03006 0.0
C1355 C 0.24358 0.76546 0.04404 0.0
C1356 C 0.25353 0.75684 0.05049 0.0
C1357 C 0.23869 0.7469 0.00915 0.0
C1358 C 0.24577 0.75229 0.99603 0.0
C1359 C 0.25622 0.74442 0.98963 0.0
C1360 C 0.26082 0.74768 0.97604 0.0
C1361 C 0.25507 0.75923 0.9691 0.0
C1362 C 0.24469 0.76728 0.9753 0.0
C1363 C 0.24031 0.76389 0.9889 0.0
H1364 H 0.02271 0.23104 0.25365 0.0
H1365 H 0.02496 0.26401 0.28375 0.0
H1366 H 0.06078 0.25506 0.25882 0.0
H1367 H 1.00728 0.23105 0.27417 0.0
H1368 H 0.00813 0.24484 0.28637 0.0
H1369 H 0.99362 0.23327 0.25222 0.0
H1370 H 0.95908 0.26127 0.25463 0.0
H1371 H 0.99336 0.26516 0.28367 0.0
C1372 C 0.02846 0.23962 0.25838 0.0
C1373 C 0.04249 0.2423 0.2546 0.0
C1374 C 0.02199 0.2475 0.26882 0.0
C1375 C 0.02965 0.25835 0.27529 0.0
C1376 C 0.0437 0.26106 0.27179 0.0
C1377 C 0.04988 0.25315 0.2613 0.0
C1378 C 0.00819 0.24258 0.275 0.0
C1379 C 0.99536 0.24894 0.26824 0.0
C1380 C 0.98884 0.24231 0.25676 0.0
C1381 C 0.9756 0.24653 0.25198 0.0
C1382 C 0.9693 0.25797 0.25825 0.0
C1383 C 0.97564 0.2648 0.26958 0.0
C1384 C 0.98867 0.26024 0.27458 0.0
H1385 H 0.78437 0.021 0.25797 0.0
H1386 H 0.75203 0.02097 0.28864 0.0
H1387 H 0.76368 0.05911 0.26767 0.0
H1388 H 0.78506 1.00565 0.27961 0.0
H1389 H 0.76999 1.00389 0.2901 0.0
H1390 H 0.78756 0.99212 0.25866 0.0
H1391 H 0.76007 0.95624 0.25545 0.0
H1392 H 0.74924 0.99014 0.28188 0.0
C1393 C 0.77633 0.02653 0.26343 0.0
C1394 C 0.7745 0.04089 0.26097 0.0
C1395 C 0.76848 0.01939 0.27363 0.0
C1396 C 0.75805 0.02655 0.28082 0.0
C1397 C 0.75607 0.04095 0.27872 0.0
C1398 C 0.76438 0.04792 0.26873 0.0
C1399 C 0.77342 1.00542 0.27912 0.0
C1400 C 0.76866 0.99287 0.2707 0.0
C1401 C 0.77782 0.98677 0.26112 0.0
C1402 C 0.77496 0.97344 0.25554 0.0
C1403 C 0.7623 0.9667 0.25911 0.0
C1404 C 0.75296 0.97272 0.26842 0.0
C1405 C 0.75615 0.98579 0.27419 0.0
H1406 H 0.99559 0.73277 0.26871 0.0
H1407 H 0.9924 0.76459 0.23723 0.0
H1408 H 0.95687 0.75446 0.26263 0.0
H1409 H 0.0094 0.73198 0.24695 0.0
H1410 H 0.00904 0.74595 0.23486 0.0
H1411 H 0.02427 0.73305 0.26817 0.0
H1412 H 0.06077 0.75931 0.26358 0.0
H1413 H 0.02485 0.76563 0.23712 0.0
C1414 C 0.98955 0.74083 0.26366 0.0
C1415 C 0.97543 0.74272 0.26732 0.0
C1416 C 0.99574 0.74859 0.25275 0.0
C1417 C 0.98788 0.75896 0.24598 0.0
C1418 C 0.97383 0.76117 0.24955 0.0
C1419 C 0.96781 0.75307 0.26026 0.0
C1420 C 0.00916 0.74355 0.24623 0.0
C1421 C 0.02261 0.74936 0.25261 0.0
C1422 C 0.02941 0.74203 0.26347 0.0
C1423 C 0.04333 0.74539 0.26724 0.0
C1424 C 0.05013 0.75659 0.26053 0.0
C1425 C 0.04368 0.76393 0.24958 0.0
C1426 C 0.02976 0.76046 0.24591 0.0
H1427 H 0.23652 0.99281 0.2509 0.0
H1428 H 0.26545 0.99333 0.28562 0.0
H1429 H 0.26533 0.95943 0.25645 0.0
H1430 H 0.23245 0.0076 0.27079 0.0
H1431 H 0.24341 0.0068 0.28579 0.0
H1432 H 0.23763 0.02418 0.25156 0.0
H1433 H 0.26216 0.05994 0.26363 0.0
H1434 H 0.26363 0.02239 0.28841 0.0
C1435 C 0.24528 0.98832 0.25649 0.0
C1436 C 0.25052 0.97549 0.25218 0.0
C1437 C 0.25089 0.99507 0.26835 0.0
C1438 C 0.26169 0.9886 0.27604 0.0
C1439 C 0.26681 0.97556 0.272 0.0
C1440 C 0.26145 0.96941 0.25977 0.0
C1441 C 0.24361 0.00764 0.27421 0.0
C1442 C 0.2503 0.02152 0.27018 0.0
C1443 C 0.24538 0.02894 0.25843 0.0
C1444 C 0.24996 0.0427 0.25589 0.0
C1445 C 0.25943 0.04905 0.26522 0.0
C1446 C 0.26438 0.04198 0.27712 0.0
C1447 C 0.26002 0.02803 0.27927 0.0
H1448 H 0.99302 0.76684 0.78402 0.0
H1449 H 0.99316 0.73691 0.7508 0.0
H1450 H 0.95773 0.76328 0.75611 0.0
H1451 H 0.00847 0.7472 0.7851 0.0
H1452 H 1.00724 0.73384 0.77251 0.0
H1453 H 0.02481 0.76692 0.78217 0.0
H1454 H 0.0604 0.75808 0.75686 0.0
H1455 H 0.02232 0.734 0.75201 0.0
C1456 C 0.98816 0.76244 0.77476 0.0
C1457 C 0.97453 0.76642 0.77092 0.0
C1458 C 0.99507 0.75189 0.76743 0.0
C1459 C 0.98825 0.74553 0.75597 0.0
C1460 C 0.97463 0.74939 0.75202 0.0
C1461 C 0.96811 0.76009 0.7593 0.0
C1462 C 0.00807 0.74534 0.77366 0.0
C1463 C 0.02178 0.75034 0.76732 0.0
C1464 C 0.02943 0.76129 0.77365 0.0
C1465 C 0.04343 0.76405 0.76999 0.0
C1466 C 0.04953 0.75614 0.75944 0.0
C1467 C 0.04209 0.74527 0.7528 0.0
C1468 C 0.0281 0.74258 0.75671 0.0
H1469 H 0.25323 0.99354 0.78287 0.0
H1470 H 0.28875 0.9959 0.75583 0.0
H1471 H 0.26275 0.95889 0.75672 0.0
H1472 H 0.27383 0.00795 0.78868 0.0
H1473 H 0.28818 0.00941 0.77723 0.0
H1474 H 0.25552 0.02469 0.78787 0.0
H1475 H 0.26596 0.06269 0.76613 0.0
H1476 H 0.28644 0.0246 0.75576 0.0
C1477 C 0.25934 0.98908 0.77458 0.0
C1478 C 0.25624 0.97548 0.76998 0.0
C1479 C 0.27111 0.99647 0.76959 0.0
C1480 C 0.27955 0.99029 0.75944 0.0
C1481 C 0.27676 0.97661 0.75475 0.0
C1482 C 0.26491 0.96948 0.75996 0.0
C1483 C 0.27654 0.00913 0.77746 0.0
C1484 C 0.27133 0.02307 0.77216 0.0
C1485 C 0.26114 0.0302 0.77972 0.0
C1486 C 0.25896 0.04455 0.77753 0.0
C1487 C 0.26681 0.05152 0.76719 0.0
C1488 C 0.27669 0.0445 0.75911 0.0
C1489 C 0.27863 0.03015 0.76153 0.0
H1490 H 0.99423 0.28608 0.75666 0.0
H1491 H 0.99425 0.25269 0.78673 0.0
H1492 H 0.95728 0.26055 0.76225 0.0
H1493 H 0.01054 0.28637 0.77645 0.0
H1494 H 0.01022 0.27288 0.78914 0.0
H1495 H 0.02415 0.28414 0.75482 0.0
H1496 H 0.05913 0.25674 0.75819 0.0
H1497 H 0.02517 0.25291 0.78718 0.0
C1498 C 0.98895 0.27725 0.76149 0.0
C1499 C 0.97489 0.27415 0.75797 0.0
C1500 C 0.99606 0.26948 0.77178 0.0
C1501 C 0.98903 0.25827 0.77837 0.0
C1502 C 0.97497 0.25501 0.77505 0.0
C1503 C 0.96814 0.26289 0.76469 0.0
C1504 C 0.0099 0.27485 0.77769 0.0
C1505 C 0.02277 0.26861 0.77116 0.0
C1506 C 0.02916 0.27526 0.75964 0.0
C1507 C 0.04249 0.27128 0.75514 0.0
C1508 C 0.04906 0.26011 0.7619 0.0
C1509 C 0.04308 0.25346 0.77355 0.0
C1510 C 0.02974 0.2576 0.77794 0.0
H1511 H 0.73468 0.99486 0.75635 0.0
H1512 H 0.76678 0.99731 0.788 0.0
H1513 H 0.76179 0.96026 0.76338 0.0
H1514 H 0.73227 0.00959 0.77742 0.0
H1515 H 0.74622 0.01144 0.78953 0.0
H1516 H 0.73442 0.0212 0.75325 0.0
H1517 H 0.74991 0.06313 0.75859 0.0
H1518 H 0.76033 0.03184 0.78875 0.0
C1519 C 0.74378 0.99047 0.76145 0.0
C1520 C 0.74776 0.97682 0.75824 0.0
C1521 C 0.75059 0.99797 0.7722 0.0
C1522 C 0.76181 0.99175 0.77946 0.0
C1523 C 0.76595 0.97808 0.77641 0.0
C1524 C 0.75897 0.97089 0.76561 0.0
C1525 C 0.74384 0.01083 0.77816 0.0
C1526 C 0.74782 0.02459 0.7712 0.0
C1527 C 0.74103 0.02867 0.75871 0.0
C1528 C 0.74175 0.0426 0.75395 0.0
C1529 C 0.74978 0.05225 0.76167 0.0
C1530 C 0.75644 0.04853 0.77421 0.0
C1531 C 0.75578 0.03459 0.77873 0.0
H1532 H 0.25134 0.73367 0.49493 0.0
H1533 H 0.28278 0.76617 0.49553 0.0
H1534 H 0.25583 0.76127 0.45968 0.0
H1535 H 0.27146 0.73238 0.51065 0.0
H1536 H 0.28465 0.74555 0.51065 0.0
H1537 H 0.25139 0.73363 0.52607 0.0
H1538 H 0.25611 0.76111 0.56103 0.0
H1539 H 0.28283 0.76619 0.52541 0.0
C1540 C 0.25614 0.74275 0.49007 0.0
C1541 C 0.25224 0.74655 0.47637 0.0
C1542 C 0.26703 0.74991 0.49716 0.0
C1543 C 0.27392 0.76112 0.49041 0.0
C1544 C 0.27018 0.76509 0.47671 0.0
C1545 C 0.25906 0.75798 0.47004 0.0
C1546 C 0.2731 0.74388 0.51054 0.0
C1547 C 0.26716 0.74984 0.52384 0.0
C1548 C 0.25624 0.74271 0.53084 0.0
C1549 C 0.25246 0.74649 0.54446 0.0
C1550 C 0.25927 0.75793 0.55071 0.0
C1551 C 0.27034 0.76507 0.54409 0.0
C1552 C 0.27402 0.76113 0.53048 0.0
H1553 H 0.75284 0.78981 0.52371 0.0
H1554 H 0.78247 0.75674 0.52363 0.0
H1555 H 0.76118 0.76684 0.56148 0.0
H1556 H 0.77165 0.79003 0.50693 0.0
H1557 H 0.78494 0.77741 0.50785 0.0
H1558 H 0.74982 0.78564 0.49339 0.0
H1559 H 0.75435 0.75713 0.45948 0.0
H1560 H 0.78376 0.75664 0.4937 0.0
C1561 C 0.75797 0.78138 0.52917 0.0
C1562 C 0.75531 0.779 0.54346 0.0
C1563 C 0.7679 0.77353 0.52201 0.0
C1564 C 0.7747 0.76265 0.52909 0.0
C1565 C 0.77215 0.75997 0.54334 0.0
C1566 C 0.76244 0.76821 0.55034 0.0
C1567 C 0.77338 0.77864 0.50803 0.0
C1568 C 0.767 0.77136 0.49546 0.0
C1569 C 0.7551 0.77691 0.4888 0.0
C1570 C 0.75046 0.7717 0.47586 0.0
C1571 C 0.75776 0.76088 0.46963 0.0
C1572 C 0.76987 0.75545 0.47584 0.0
C1573 C 0.7742 0.76046 0.48899 0.0
H1574 H 0.78339 0.26562 0.52677 0.0
H1575 H 0.74817 0.23714 0.52805 0.0
H1576 H 0.75604 0.26486 0.56223 0.0
H1577 H 0.78324 0.2441 0.51323 0.0
H1578 H 0.76877 0.23238 0.51371 0.0
H1579 H 0.78304 0.26484 0.49744 0.0
H1580 H 0.75998 0.25702 0.45951 0.0
H1581 H 0.74989 0.23408 0.49685 0.0
C1582 C 0.774 0.26181 0.53189 0.0
C1583 C 0.77055 0.26689 0.54518 0.0
C1584 C 0.76593 0.25116 0.52552 0.0
C1585 C 0.7541 0.24575 0.53254 0.0
C1586 C 0.75034 0.2509 0.54567 0.0
C1587 C 0.75852 0.26152 0.55177 0.0
C1588 C 0.7716 0.24364 0.51294 0.0
C1589 C 0.76669 0.24918 0.49886 0.0
C1590 C 0.77453 0.25964 0.49193 0.0
C1591 C 0.77203 0.26273 0.47772 0.0
C1592 C 0.76131 0.25539 0.47063 0.0
C1593 C 0.75319 0.24506 0.47735 0.0
C1594 C 0.75581 0.24223 0.49158 0.0
H1595 H 0.25271 0.2902 0.5267 0.0
H1596 H 0.28104 0.256 0.52742 0.0
H1597 H 0.25732 0.26537 0.56398 0.0
H1598 H 0.27119 0.28973 0.51024 0.0
H1599 H 0.28504 0.27793 0.51274 0.0
H1600 H 0.25031 0.28307 0.49556 0.0
H1601 H 0.26087 0.25635 0.4617 0.0
H1602 H 0.28667 0.25738 0.49876 0.0
C1603 C 0.25715 0.28141 0.5322 0.0
C1604 C 0.25363 0.27883 0.54626 0.0
C1605 C 0.26708 0.27328 0.52535 0.0
C1606 C 0.273 0.26193 0.53248 0.0
C1607 C 0.26945 0.25895 0.54643 0.0
C1608 C 0.25973 0.26741 0.55314 0.0
C1609 C 0.27345 0.2785 0.51181 0.0
C1610 C 0.26871 0.27064 0.49889 0.0
C1611 C 0.25683 0.275 0.49135 0.0
C1612 C 0.25381 0.26957 0.47806 0.0
C1613 C 0.26278 0.25974 0.47232 0.0
C1614 C 0.27479 0.2553 0.47955 0.0
C1615 C 0.27741 0.26054 0.49305 0.0
H1616 H 0.78345 0.52397 0.75691 0.0
H1617 H 0.74813 0.52668 0.7842 0.0
H1618 H 0.75832 0.5608 0.75691 0.0
H1619 H 0.78265 0.51113 0.77931 0.0
H1620 H 0.76757 0.51144 0.78987 0.0
H1621 H 0.7828 0.4964 0.7576 0.0
H1622 H 0.76109 0.45748 0.76493 0.0
H1623 H 0.74952 0.49403 0.78736 0.0
C1624 C 0.7744 0.52956 0.76042 0.0
C1625 C 0.77186 0.5431 0.75527 0.0
C1626 C 0.76593 0.52352 0.77087 0.0
C1627 C 0.75441 0.53098 0.7758 0.0
C1628 C 0.75143 0.54429 0.77048 0.0
C1629 C 0.76015 0.55018 0.76023 0.0
C1630 C 0.77101 0.51083 0.77883 0.0
C1631 C 0.76641 0.49686 0.77284 0.0
C1632 C 0.7745 0.49044 0.76256 0.0
C1633 C 0.77256 0.47619 0.75941 0.0
C1634 C 0.76204 0.4686 0.76648 0.0
C1635 C 0.75356 0.47487 0.7765 0.0
C1636 C 0.75569 0.48911 0.7794 0.0
H1637 H 0.25073 0.52444 0.73806 0.0
H1638 H 0.28219 0.52496 0.77042 0.0
H1639 H 0.2545 0.55951 0.76555 0.0
H1640 H 0.27124 0.50971 0.73669 0.0
H1641 H 0.28445 0.51029 0.74975 0.0
H1642 H 0.24987 0.49488 0.73972 0.0
H1643 H 0.2568 0.4582 0.76462 0.0
H1644 H 0.28454 0.4936 0.76869 0.0
C1645 C 0.25543 0.5294 0.74711 0.0
C1646 C 0.25125 0.54286 0.7509 0.0
C1647 C 0.26647 0.52276 0.75425 0.0
C1648 C 0.27322 0.5297 0.76541 0.0
C1649 C 0.26919 0.54315 0.76934 0.0
C1650 C 0.25794 0.54936 0.76229 0.0
C1651 C 0.2729 0.5098 0.74819 0.0
C1652 C 0.26729 0.49615 0.75418 0.0
C1653 C 0.25554 0.48955 0.74795 0.0
C1654 C 0.25189 0.4757 0.75142 0.0
C1655 C 0.25976 0.46875 0.76167 0.0
C1656 C 0.27162 0.47498 0.76788 0.0
C1657 C 0.27515 0.48884 0.76432 0.0
H1658 H 0.28514 0.52254 0.25675 0.0
H1659 H 0.24985 0.52418 0.28422 0.0
H1660 H 0.25952 0.559 0.25762 0.0
H1661 H 0.28446 0.50835 0.27778 0.0
H1662 H 0.27032 0.50935 0.28952 0.0
H1663 H 0.28297 0.4929 0.25697 0.0
H1664 H 0.25711 0.45655 0.26391 0.0
H1665 H 0.25056 0.49358 0.28779 0.0
C1666 C 0.27604 0.52794 0.26045 0.0
C1667 C 0.27333 0.54155 0.25564 0.0
C1668 C 0.26767 0.52157 0.27077 0.0
C1669 C 0.25607 0.52876 0.27592 0.0
C1670 C 0.25289 0.54212 0.27085 0.0
C1671 C 0.26152 0.54836 0.26073 0.0
C1672 C 0.27284 0.50863 0.27823 0.0
C1673 C 0.26699 0.495 0.27257 0.0
C1674 C 0.2741 0.48789 0.262 0.0
C1675 C 0.27061 0.47395 0.25884 0.0
C1676 C 0.25958 0.46736 0.26607 0.0
C1677 C 0.25228 0.47424 0.27659 0.0
C1678 C 0.25589 0.48819 0.27954 0.0
H1679 H 0.75087 0.52541 0.23822 0.0
H1680 H 0.78291 0.52351 0.26987 0.0
H1681 H 0.7575 0.5599 0.26595 0.0
H1682 H 0.77012 0.50979 0.23574 0.0
H1683 H 0.7845 0.51053 0.24746 0.0
H1684 H 0.75037 0.49362 0.23973 0.0
H1685 H 0.76145 0.45703 0.26302 0.0
H1686 H 0.78584 0.49484 0.26756 0.0
C1687 C 0.756 0.52991 0.24729 0.0
C1688 C 0.75257 0.54345 0.25151 0.0
C1689 C 0.76693 0.52261 0.2539 0.0
C1690 C 0.77421 0.5289 0.2651 0.0
C1691 C 0.77094 0.54243 0.2695 0.0
C1692 C 0.75993 0.54942 0.2628 0.0
C1693 C 0.77287 0.50981 0.24705 0.0
C1694 C 0.76827 0.49597 0.25341 0.0
C1695 C 0.75675 0.48863 0.24765 0.0
C1696 C 0.75427 0.47453 0.25104 0.0
C1697 C 0.76317 0.46797 0.26071 0.0
C1698 C 0.77463 0.47508 0.26682 0.0
C1699 C 0.77691 0.48922 0.26325 0.0
H1700 H 0.52139 0.23205 0.7528 0.0
H1701 H 0.52388 0.26418 0.78381 0.0
H1702 H 0.55991 0.25501 0.75925 0.0
H1703 H 0.5053 0.23204 0.77277 0.0
H1704 H 0.50641 0.24532 0.78553 0.0
H1705 H 0.49307 0.23632 0.74987 0.0
H1706 H 0.45945 0.26528 0.75224 0.0
H1707 H 0.49168 0.26556 0.78381 0.0
C1708 C 0.52726 0.24034 0.75789 0.0
C1709 C 0.54141 0.24278 0.75441 0.0
C1710 C 0.52079 0.2481 0.76842 0.0
C1711 C 0.5286 0.25859 0.77532 0.0
C1712 C 0.54277 0.26106 0.77213 0.0
C1713 C 0.54894 0.25326 0.76154 0.0
C1714 C 0.50665 0.24348 0.77409 0.0
C1715 C 0.49426 0.25058 0.76725 0.0
C1716 C 0.48829 0.24509 0.75492 0.0
C1717 C 0.47574 0.2504 0.74953 0.0
C1718 C 0.46931 0.26144 0.75628 0.0
C1719 C 0.47494 0.26698 0.76864 0.0
C1720 C 0.48746 0.26154 0.77409 0.0
H1721 H 0.49459 0.78242 0.75376 0.0
H1722 H 0.49451 0.75251 0.78731 0.0
H1723 H 0.4578 0.75731 0.76156 0.0
H1724 H 0.5104 0.7851 0.77392 0.0
H1725 H 0.51041 0.77272 0.78769 0.0
H1726 H 0.52551 0.78265 0.75394 0.0
H1727 H 0.5599 0.75471 0.75906 0.0
H1728 H 0.52449 0.75151 0.78637 0.0
C1729 C 0.48941 0.77399 0.75934 0.0
C1730 C 0.47541 0.77042 0.75603 0.0
C1731 C 0.4964 0.76755 0.77061 0.0
C1732 C 0.4893 0.75719 0.77839 0.0
C1733 C 0.47531 0.75344 0.77526 0.0
C1734 C 0.46862 0.75996 0.76391 0.0
C1735 C 0.51008 0.77371 0.77612 0.0
C1736 C 0.52314 0.76723 0.77025 0.0
C1737 C 0.53016 0.77372 0.75902 0.0
C1738 C 0.54362 0.7695 0.75513 0.0
C1739 C 0.54973 0.75828 0.76227 0.0
C1740 C 0.54305 0.75173 0.77361 0.0
C1741 C 0.52959 0.75612 0.77736 0.0
H1742 H 0.52315 0.732 0.25371 0.0
H1743 H 0.5214 0.76289 0.28572 0.0
H1744 H 0.56005 0.75591 0.2643 0.0
H1745 H 0.50659 0.72946 0.27247 0.0
H1746 H 0.50721 0.74087 0.28682 0.0
H1747 H 0.49105 0.73372 0.25271 0.0
H1748 H 0.45463 0.75666 0.26391 0.0
H1749 H 0.49315 0.76217 0.28697 0.0
C1750 C 0.52817 0.74039 0.25947 0.0
C1751 C 0.54241 0.74364 0.25718 0.0
C1752 C 0.52059 0.74717 0.2699 0.0
C1753 C 0.52721 0.75785 0.27758 0.0
C1754 C 0.5415 0.7612 0.27564 0.0
C1755 C 0.54889 0.75409 0.2653 0.0
C1756 C 0.50705 0.7407 0.27521 0.0
C1757 C 0.49368 0.7475 0.27015 0.0
C1758 C 0.48614 0.7416 0.25895 0.0
C1759 C 0.47201 0.74491 0.25651 0.0
C1760 C 0.46572 0.75479 0.26512 0.0
C1761 C 0.47317 0.76126 0.2761 0.0
C1762 C 0.4873 0.75769 0.27833 0.0
H1763 H 0.49419 0.28114 0.25464 0.0
H1764 H 0.49416 0.24955 0.28661 0.0
H1765 H 0.45721 0.2561 0.26163 0.0
H1766 H 0.50969 0.28284 0.27547 0.0
H1767 H 0.51032 0.26919 0.28794 0.0
H1768 H 0.52395 0.28245 0.25455 0.0
H1769 H 0.56029 0.25675 0.25761 0.0
H1770 H 0.52515 0.24887 0.28439 0.0
C1771 C 0.48898 0.27248 0.25984 0.0
C1772 C 0.47492 0.2692 0.25651 0.0
C1773 C 0.496 0.26544 0.27072 0.0
C1774 C 0.48889 0.25473 0.27803 0.0
C1775 C 0.47481 0.25131 0.27491 0.0
C1776 C 0.46809 0.25846 0.26397 0.0
C1777 C 0.50968 0.2713 0.27652 0.0
C1778 C 0.52278 0.26583 0.26973 0.0
C1779 C 0.52926 0.27355 0.25896 0.0
C1780 C 0.54288 0.27043 0.25456 0.0
C1781 C 0.54973 0.25908 0.26074 0.0
C1782 C 0.5435 0.25118 0.27149 0.0
C1783 C 0.52986 0.25447 0.27573 0.0
H1784 H 0.22703 0.19768 0.10689 0.0
H1785 H 0.18369 0.20863 0.09957 0.0
H1786 H 0.19089 0.22324 0.0795 0.0
H1787 H 0.24186 0.23064 0.09901 0.0
H1788 H 0.2571 0.2239 0.09059 0.0
H1789 H 0.24842 0.21379 0.10391 0.0
H1790 H 0.24552 0.1932 0.08675 0.0
H1791 H 0.25417 0.20328 0.07335 0.0
H1792 H 0.23697 0.19595 0.07014 0.0
H1793 H 0.20306 0.23763 0.06082 0.0
H1794 H 0.21916 0.25127 0.0459 0.0
H1795 H 0.25444 0.22997 0.06464 0.0
C1796 C 0.21899 0.20295 0.10095 0.0
C1797 C 0.20475 0.20195 0.10487 0.0
C1798 C 0.19467 0.20932 0.09693 0.0
C1799 C 0.19865 0.21755 0.08541 0.0
C1800 C 0.21276 0.2183 0.08187 0.0
C1801 C 0.22277 0.21118 0.08941 0.0
C1802 C 0.23731 0.21418 0.0838 0.0
C1803 C 0.24672 0.22104 0.09499 0.0
C1804 C 0.24388 0.20086 0.07818 0.0
C1805 C 0.23395 0.22428 0.07207 0.0
C1806 C 0.21973 0.22645 0.07105 0.0
C1807 C 0.2142 0.23587 0.06142 0.0
C1808 C 0.22346 0.24349 0.05286 0.0
C1809 C 0.23814 0.24171 0.05395 0.0
C1810 C 0.24332 0.23168 0.06352 0.0
H1811 H 0.79554 0.19139 0.09638 0.0
H1812 H 0.82598 0.22202 0.11122 0.0
H1813 H 0.8186 0.2382 0.09261 0.0
H1814 H 0.79822 0.19975 0.05902 0.0
H1815 H 0.77971 0.19732 0.05596 0.0
H1816 H 0.78834 0.18753 0.06954 0.0
H1817 H 0.77084 0.19669 0.08768 0.0
H1818 H 0.76211 0.2064 0.07416 0.0
H1819 H 0.76868 0.21519 0.08948 0.0
H1820 H 0.8064 0.25196 0.07392 0.0
H1821 H 0.78998 0.26229 0.05681 0.0
H1822 H 0.76746 0.22292 0.05397 0.0
C1823 C 0.80073 0.20147 0.0957 0.0
C1824 C 0.81145 0.20534 0.10528 0.0
C1825 C 0.81796 0.21864 0.1039 0.0
C1826 C 0.81379 0.22795 0.09336 0.0
C1827 C 0.80313 0.22384 0.08421 0.0
C1828 C 0.79669 0.21091 0.08525 0.0
C1829 C 0.7849 0.20938 0.07464 0.0
C1830 C 0.78798 0.19781 0.06417 0.0
C1831 C 0.7708 0.20677 0.08193 0.0
C1832 C 0.78549 0.2236 0.0677 0.0
C1833 C 0.79617 0.23174 0.0733 0.0
C1834 C 0.79816 0.24561 0.0693 0.0
C1835 C 0.78882 0.25139 0.05957 0.0
C1836 C 0.77766 0.24332 0.0539 0.0
C1837 C 0.77617 0.22918 0.05783 0.0
H1838 H 0.80692 0.79949 0.10943 0.0
H1839 H 0.80502 0.84124 0.09201 0.0
H1840 H 0.79439 0.83184 0.07047 0.0
H1841 H 0.81475 0.78183 0.07603 0.0
H1842 H 0.80411 0.76678 0.08036 0.0
H1843 H 0.8127 0.7766 0.09401 0.0
H1844 H 0.78885 0.7799 0.10608 0.0
H1845 H 0.7802 0.77015 0.09246 0.0
H1846 H 0.77462 0.78751 0.09637 0.0
H1847 H 0.78178 0.81838 0.05187 0.0
H1848 H 0.7684 0.80181 0.0374 0.0
H1849 H 0.77985 0.76828 0.06576 0.0
C1850 C 0.80455 0.80662 0.10097 0.0
C1851 C 0.80674 0.82115 0.1025 0.0
C1852 C 0.80326 0.83011 0.09122 0.0
C1853 C 0.79731 0.82485 0.07887 0.0
C1854 C 0.795 0.81056 0.07782 0.0
C1855 C 0.79862 0.80152 0.08849 0.0
C1856 C 0.79434 0.78667 0.0849 0.0
C1857 C 0.80725 0.77743 0.08375 0.0
C1858 C 0.78388 0.78072 0.09559 0.0
C1859 C 0.78743 0.78886 0.07074 0.0
C1860 C 0.78802 0.8027 0.06683 0.0
C1861 C 0.78151 0.80745 0.05467 0.0
C1862 C 0.77401 0.79785 0.04641 0.0
C1863 C 0.77307 0.78356 0.05021 0.0
C1864 C 0.78021 0.77907 0.06246 0.0
H1865 H 0.21147 0.79948 0.11256 0.0
H1866 H 0.20472 0.83704 0.08816 0.0
H1867 H 0.21397 0.82546 0.06735 0.0
H1868 H 0.24342 0.79012 0.09693 0.0
H1869 H 0.23973 0.77166 0.09715 0.0
H1870 H 0.23208 0.78269 0.11004 0.0
H1871 H 0.20731 0.7738 0.10295 0.0
H1872 H 0.21489 0.76267 0.0901 0.0
H1873 H 0.20177 0.775 0.08496 0.0
H1874 H 0.22487 0.80999 0.04927 0.0
H1875 H 0.2362 0.79176 0.03544 0.0
H1876 H 0.23491 0.76408 0.07142 0.0
C1877 C 0.21171 0.80522 0.1028 0.0
C1878 C 0.2074 0.81923 0.10207 0.0
C1879 C 0.20814 0.82638 0.08908 0.0
C1880 C 0.21331 0.81986 0.07716 0.0
C1881 C 0.21766 0.80613 0.0783 0.0
C1882 C 0.21684 0.79886 0.09077 0.0
C1883 C 0.22245 0.78429 0.08926 0.0
C1884 C 0.23518 0.78207 0.09892 0.0
C1885 C 0.21091 0.77329 0.09198 0.0
C1886 C 0.22668 0.78455 0.07405 0.0
C1887 C 0.22381 0.79722 0.06789 0.0
C1888 C 0.22707 0.79999 0.05397 0.0
C1889 C 0.23345 0.78954 0.04617 0.0
C1890 C 0.23656 0.77646 0.05229 0.0
C1891 C 0.23296 0.774 0.06642 0.0
H1892 H 0.21259 0.80227 0.90644 0.0
H1893 H 0.2049 0.83918 0.93089 0.0
H1894 H 0.21433 0.82739 0.95185 0.0
H1895 H 0.20333 0.77705 0.9335 0.0
H1896 H 0.21677 0.76514 0.92857 0.0
H1897 H 0.20904 0.77639 0.91564 0.0
H1898 H 0.23367 0.786 0.90925 0.0
H1899 H 0.24147 0.77485 0.92222 0.0
H1900 H 0.24474 0.79336 0.92271 0.0
H1901 H 0.22527 0.81163 0.97016 0.0
H1902 H 0.23673 0.7932 0.98411 0.0
H1903 H 0.23657 0.76654 0.94772 0.0
C1904 C 0.21268 0.80782 0.91624 0.0
C1905 C 0.208 0.82169 0.91697 0.0
C1906 C 0.20856 0.82862 0.92999 0.0
C1907 C 0.21383 0.82198 0.94199 0.0
C1908 C 0.21849 0.80837 0.94085 0.0
C1909 C 0.21791 0.80136 0.92831 0.0
C1910 C 0.22384 0.78689 0.9298 0.0
C1911 C 0.21257 0.77571 0.9267 0.0
C1912 C 0.23669 0.78518 0.92044 0.0
C1913 C 0.22794 0.7869 0.9451 0.0
C1914 C 0.22475 0.79936 0.95133 0.0
C1915 C 0.22775 0.80181 0.96539 0.0
C1916 C 0.23422 0.79126 0.97325 0.0
C1917 C 0.23767 0.77844 0.96703 0.0
C1918 C 0.23434 0.77629 0.95278 0.0
H1919 H 0.22125 0.21184 0.91324 0.0
H1920 H 0.17889 0.21482 0.92877 0.0
H1921 H 0.18785 0.22682 0.94974 0.0
H1922 H 0.23824 0.20637 0.94722 0.0
H1923 H 0.25344 0.21676 0.94277 0.0
H1924 H 0.24383 0.20759 0.92933 0.0
H1925 H 0.24067 0.23072 0.91569 0.0
H1926 H 0.25026 0.23994 0.92907 0.0
H1927 H 0.23289 0.2453 0.92426 0.0
H1928 H 0.20114 0.24009 0.9682 0.0
H1929 H 0.21774 0.25349 0.98279 0.0
H1930 H 0.25176 0.24118 0.95598 0.0
C1931 C 0.21386 0.21496 0.92108 0.0
C1932 C 0.19934 0.21224 0.91935 0.0
C1933 C 0.19006 0.2165 0.92992 0.0
C1934 C 0.19505 0.2234 0.94187 0.0
C1935 C 0.20938 0.22596 0.9432 0.0
C1936 C 0.21868 0.22182 0.93314 0.0
C1937 C 0.23353 0.22623 0.93695 0.0
C1938 C 0.24281 0.21348 0.9392 0.0
C1939 C 0.2397 0.23614 0.92583 0.0
C1940 C 0.23108 0.23375 0.95057 0.0
C1941 C 0.21709 0.23342 0.95401 0.0
C1942 C 0.21217 0.24023 0.96574 0.0
C1943 C 0.22176 0.24773 0.97407 0.0
C1944 C 0.23619 0.24837 0.97073 0.0
C1945 C 0.24084 0.24103 0.95888 0.0
H1946 H 0.7998 0.21405 0.91131 0.0
H1947 H 0.83551 0.2028 0.93702 0.0
H1948 H 0.82371 0.21207 0.95776 0.0
H1949 H 0.79301 0.24621 0.92791 0.0
H1950 H 0.77425 0.24444 0.92649 0.0
H1951 H 0.78524 0.2363 0.91386 0.0
H1952 H 0.77346 0.21239 0.91924 0.0
H1953 H 0.76241 0.22048 0.93186 0.0
H1954 H 0.77312 0.20601 0.93697 0.0
H1955 H 0.80818 0.22369 0.97568 0.0
H1956 H 0.79032 0.23633 0.98896 0.0
H1957 H 0.76486 0.2395 0.95139 0.0
C1958 C 0.80517 0.21353 0.92129 0.0
C1959 C 0.81861 0.20765 0.92249 0.0
C1960 C 0.82515 0.20707 0.93582 0.0
C1961 C 0.81856 0.21238 0.94767 0.0
C1962 C 0.80537 0.21821 0.94607 0.0
C1963 C 0.79874 0.21875 0.93321 0.0
C1964 C 0.78469 0.22572 0.9342 0.0
C1965 C 0.78428 0.23895 0.92507 0.0
C1966 C 0.77271 0.21554 0.93034 0.0
C1967 C 0.78453 0.22922 0.94957 0.0
C1968 C 0.7965 0.22479 0.9563 0.0
C1969 C 0.79873 0.22713 0.97051 0.0
C1970 C 0.78849 0.23427 0.978 0.0
C1971 C 0.77619 0.23903 0.97125 0.0
C1972 C 0.77422 0.23627 0.95687 0.0
H1973 H 0.81411 0.81622 0.92738 0.0
H1974 H 0.78714 0.80792 0.89165 0.0
H1975 H 0.77115 0.79424 0.90658 0.0
H1976 H 0.81006 0.78202 0.94302 0.0
H1977 H 0.8101 0.78817 0.96074 0.0
H1978 H 0.81934 0.79788 0.94747 0.0
H1979 H 0.80533 0.81984 0.95354 0.0
H1980 H 0.79601 0.81017 0.9668 0.0
H1981 H 0.78648 0.81902 0.95317 0.0
H1982 H 0.75793 0.78195 0.92484 0.0
H1983 H 0.74876 0.76967 0.94539 0.0
H1984 H 0.78435 0.78431 0.97 0.0
C1985 C 0.8048 0.81154 0.92277 0.0
C1986 C 0.80188 0.81308 0.90831 0.0
C1987 C 0.78966 0.80674 0.90263 0.0
C1988 C 0.78046 0.79903 0.91105 0.0
C1989 C 0.78362 0.79765 0.92519 0.0
C1990 C 0.79552 0.80357 0.93106 0.0
C1991 C 0.79655 0.79986 0.94652 0.0
C1992 C 0.8098 0.79149 0.94962 0.0
C1993 C 0.79606 0.81301 0.95554 0.0
C1994 C 0.78338 0.79092 0.94833 0.0
C1995 C 0.77609 0.78998 0.93585 0.0
C1996 C 0.76361 0.78247 0.93464 0.0
C1997 C 0.75854 0.77544 0.9464 0.0
C1998 C 0.76598 0.7757 0.95927 0.0
C1999 C 0.77847 0.78382 0.96031 0.0
H2000 H 0.10442 0.22302 0.20312 0.0
H2001 H 0.09498 0.17951 0.21193 0.0
H2002 H 0.07442 0.18639 0.22549 0.0
H2003 H 0.09597 0.23554 0.23679 0.0
H2004 H 0.08861 0.25155 0.23043 0.0
H2005 H 0.10197 0.24312 0.22061 0.0
H2006 H 0.08561 0.24262 0.19891 0.0
H2007 H 0.07215 0.25099 0.20871 0.0
H2008 H 0.06847 0.23463 0.20023 0.0
H2009 H 0.05552 0.19815 0.23932 0.0
H2010 H 0.0406 0.21375 0.25287 0.0
H2011 H 0.06221 0.24957 0.23486 0.0
C2012 C 0.09808 0.21491 0.20791 0.0
C2013 C 0.10138 0.20068 0.20635 0.0
C2014 C 0.09262 0.19045 0.21272 0.0
C2015 C 0.08091 0.19427 0.22051 0.0
C2016 C 0.07801 0.20837 0.22186 0.0
C2017 C 0.08636 0.21852 0.21574 0.0
C2018 C 0.08131 0.23296 0.21922 0.0
C2019 C 0.09264 0.24128 0.22724 0.0
C2020 C 0.0766 0.24075 0.20598 0.0
C2021 C 0.06896 0.22935 0.22847 0.0
C2022 C 0.06714 0.21511 0.22977 0.0
C2023 C 0.05676 0.20932 0.23825 0.0
C2024 C 0.04822 0.21829 0.24582 0.0
C2025 C 0.05011 0.23295 0.24494 0.0
C2026 C 0.06047 0.23845 0.23586 0.0
H2027 H 0.79833 0.10566 0.21314 0.0
H2028 H 0.84061 0.08996 0.21598 0.0
H2029 H 0.83186 0.06933 0.22881 0.0
H2030 H 0.78791 0.09531 0.24722 0.0
H2031 H 0.77026 0.09052 0.24225 0.0
H2032 H 0.77965 0.10367 0.23248 0.0
H2033 H 0.77539 0.08972 0.20975 0.0
H2034 H 0.76597 0.07652 0.21947 0.0
H2035 H 0.78069 0.07183 0.20896 0.0
H2036 H 0.81891 0.05126 0.24283 0.0
H2037 H 0.80265 0.03693 0.2568 0.0
H2038 H 0.76845 0.06363 0.24417 0.0
C2039 C 0.80574 0.09785 0.21641 0.0
C2040 C 0.82017 0.09942 0.21341 0.0
C2041 C 0.82949 0.08891 0.21787 0.0
C2042 C 0.82463 0.07717 0.22525 0.0
C2043 C 0.81039 0.07598 0.22807 0.0
C2044 C 0.80106 0.08599 0.22374 0.0
C2045 C 0.78633 0.08235 0.22849 0.0
C2046 C 0.78071 0.09363 0.23819 0.0
C2047 C 0.77652 0.07996 0.21592 0.0
C2048 C 0.78892 0.06887 0.23638 0.0
C2049 C 0.80286 0.06538 0.23596 0.0
C2050 C 0.80791 0.05376 0.24304 0.0
C2051 C 0.79852 0.04558 0.25087 0.0
C2052 C 0.78413 0.04895 0.25155 0.0
C2053 C 0.77934 0.06071 0.24398 0.0
H2054 H 0.90424 0.78576 0.21023 0.0
H2055 H 0.92512 0.82532 0.20182 0.0
H2056 H 0.94622 0.81706 0.21425 0.0
H2057 H 0.91865 0.78046 0.24462 0.0
H2058 H 0.92031 0.76193 0.24253 0.0
H2059 H 0.90685 0.77108 0.23315 0.0
H2060 H 0.91609 0.76152 0.20981 0.0
H2061 H 0.92957 0.75233 0.21912 0.0
H2062 H 0.9342 0.76434 0.20533 0.0
H2063 H 0.96546 0.804 0.22729 0.0
H2064 H 0.98055 0.7877 0.24048 0.0
H2065 H 0.947 0.75676 0.23983 0.0
C2066 C 0.91326 0.79269 0.21092 0.0
C2067 C 0.91297 0.80622 0.20501 0.0
C2068 C 0.92498 0.81498 0.20638 0.0
C2069 C 0.93707 0.81034 0.21336 0.0
C2070 C 0.93701 0.79691 0.21896 0.0
C2071 C 0.92538 0.78824 0.21785 0.0
C2072 C 0.92794 0.77429 0.22479 0.0
C2073 C 0.91784 0.7718 0.237 0.0
C2074 C 0.92689 0.76242 0.21412 0.0
C2075 C 0.94284 0.77642 0.22995 0.0
C2076 C 0.94794 0.78951 0.22648 0.0
C2077 C 0.96154 0.79374 0.23008 0.0
C2078 C 0.97006 0.7844 0.23752 0.0
C2079 C 0.96496 0.77099 0.24134 0.0
C2080 C 0.95117 0.76701 0.23734 0.0
H2081 H 0.19347 0.92224 0.22256 0.0
H2082 H 0.22433 0.90992 0.19224 0.0
H2083 H 0.23978 0.9293 0.19974 0.0
H2084 H 0.19981 0.95996 0.22007 0.0
H2085 H 0.19763 0.96252 0.23853 0.0
H2086 H 0.18832 0.94855 0.22984 0.0
H2087 H 0.19889 0.93075 0.24725 0.0
H2088 H 0.2081 0.94466 0.25603 0.0
H2089 H 0.21761 0.93009 0.24946 0.0
H2090 H 0.25291 0.94851 0.21209 0.0
H2091 H 0.26277 0.9658 0.22865 0.0
H2092 H 0.2235 0.96585 0.25086 0.0
C2093 C 0.20344 0.92362 0.21743 0.0
C2094 C 0.20759 0.91452 0.20671 0.0
C2095 C 0.22073 0.91684 0.20026 0.0
C2096 C 0.22963 0.92782 0.2045 0.0
C2097 C 0.22526 0.93649 0.21516 0.0
C2098 C 0.21246 0.93453 0.22153 0.0
C2099 C 0.21062 0.94478 0.23332 0.0
C2100 C 0.19837 0.95454 0.23025 0.0
C2101 C 0.2087 0.93711 0.24734 0.0
C2102 C 0.22452 0.9526 0.23281 0.0
C2103 C 0.23277 0.94772 0.22217 0.0
C2104 C 0.24645 0.95258 0.22028 0.0
C2105 C 0.25196 0.96242 0.22969 0.0
C2106 C 0.24378 0.96736 0.24079 0.0
C2107 C 0.2298 0.96258 0.24217 0.0
H2108 H 0.11251 0.79 0.81006 0.0
H2109 H 0.09194 0.82907 0.81787 0.0
H2110 H 0.07098 0.8205 0.80505 0.0
H2111 H 0.09873 0.78472 0.77541 0.0
H2112 H 0.09685 0.76614 0.77757 0.0
H2113 H 0.11023 0.77552 0.78714 0.0
H2114 H 0.10047 0.76556 0.81036 0.0
H2115 H 0.08707 0.75615 0.80086 0.0
H2116 H 0.08231 0.76795 0.8145 0.0
H2117 H 0.0518 0.80708 0.79179 0.0
H2118 H 0.03675 0.79045 0.77856 0.0
H2119 H 0.07007 0.76033 0.77995 0.0
C2120 C 0.10359 0.79675 0.80915 0.0
C2121 C 0.1039 0.81022 0.81502 0.0
C2122 C 0.09204 0.81878 0.81336 0.0
C2123 C 0.08004 0.81396 0.80616 0.0
C2124 C 0.08006 0.80058 0.80061 0.0
C2125 C 0.09158 0.79214 0.80199 0.0
C2126 C 0.08902 0.77819 0.7951 0.0
C2127 C 0.09932 0.77602 0.78309 0.0
C2128 C 0.08976 0.76626 0.80585 0.0
C2129 C 0.07424 0.78005 0.78968 0.0
C2130 C 0.0692 0.793 0.79296 0.0
C2131 C 0.05569 0.79693 0.78913 0.0
C2132 C 0.04719 0.78741 0.78168 0.0
C2133 C 0.05226 0.77415 0.77806 0.0
C2134 C 0.06595 0.77048 0.78226 0.0
H2135 H 0.21308 0.1096 0.80072 0.0
H2136 H 0.21611 0.0937 0.84313 0.0
H2137 H 0.22835 0.07309 0.83462 0.0
H2138 H 0.20775 0.07581 0.78388 0.0
H2139 H 0.21816 0.08048 0.76893 0.0
H2140 H 0.20893 0.09371 0.7782 0.0
H2141 H 0.23215 0.10755 0.78179 0.0
H2142 H 0.24144 0.09438 0.77254 0.0
H2143 H 0.24684 0.09912 0.78995 0.0
H2144 H 0.24169 0.055 0.82185 0.0
H2145 H 0.25502 0.0406 0.80575 0.0
H2146 H 0.24266 0.06745 0.77126 0.0
C2147 C 0.21627 0.10176 0.80821 0.0
C2148 C 0.21348 0.10327 0.82262 0.0
C2149 C 0.21783 0.09271 0.83203 0.0
C2150 C 0.22488 0.08097 0.8273 0.0
C2151 C 0.22748 0.07983 0.81309 0.0
C2152 C 0.22327 0.08989 0.80365 0.0
C2153 C 0.2277 0.08624 0.78896 0.0
C2154 C 0.21487 0.08392 0.77943 0.0
C2155 C 0.23762 0.09749 0.78296 0.0
C2156 C 0.23529 0.07272 0.79168 0.0
C2157 C 0.23499 0.0692 0.80566 0.0
C2158 C 0.24181 0.05752 0.81083 0.0
C2159 C 0.24927 0.04929 0.80152 0.0
C2160 C 0.24985 0.05267 0.78709 0.0
C2161 C 0.24254 0.06451 0.78218 0.0
H2162 H 0.90712 0.22057 0.81043 0.0
H2163 H 0.93176 0.1839 0.81903 0.0
H2164 H 0.95249 0.19565 0.80888 0.0
H2165 H 0.92225 0.2291 0.77789 0.0
H2166 H 0.92201 0.24766 0.78044 0.0
H2167 H 0.90925 0.23662 0.78894 0.0
H2168 H 0.91673 0.24661 0.81297 0.0
H2169 H 0.92944 0.25777 0.80452 0.0
H2170 H 0.93486 0.24609 0.81826 0.0
H2171 H 0.97045 0.21121 0.79679 0.0
H2172 H 0.98399 0.22933 0.78404 0.0
H2173 H 0.94777 0.25602 0.78426 0.0
C2174 C 0.91692 0.21508 0.81042 0.0
C2175 C 0.91774 0.20126 0.81553 0.0
C2176 C 0.93077 0.19441 0.81503 0.0
C2177 C 0.94265 0.20103 0.80935 0.0
C2178 C 0.94141 0.21457 0.80424 0.0
C2179 C 0.92889 0.22154 0.8048 0.0
C2180 C 0.93025 0.23591 0.79829 0.0
C2181 C 0.92035 0.2374 0.78564 0.0
C2182 C 0.92767 0.24726 0.80916 0.0
C2183 C 0.94542 0.23587 0.79385 0.0
C2184 C 0.95172 0.2235 0.79739 0.0
C2185 C 0.96564 0.22098 0.79406 0.0
C2186 C 0.97327 0.23137 0.78686 0.0
C2187 C 0.96699 0.24411 0.78302 0.0
C2188 C 0.95289 0.24634 0.78676 0.0
H2189 H 0.81894 0.91688 0.79426 0.0
H2190 H 0.81275 0.92575 0.8381 0.0
H2191 H 0.79827 0.94588 0.83157 0.0
H2192 H 0.82116 0.95311 0.78239 0.0
H2193 H 0.81192 0.94957 0.7663 0.0
H2194 H 0.82228 0.93622 0.77442 0.0
H2195 H 0.80068 0.91958 0.77466 0.0
H2196 H 0.79028 0.93285 0.76652 0.0
H2197 H 0.78478 0.92511 0.78279 0.0
H2198 H 0.78349 0.9645 0.82018 0.0
H2199 H 0.76898 0.97933 0.80497 0.0
H2200 H 0.78575 0.95904 0.76854 0.0
C2201 C 0.81475 0.92317 0.80252 0.0
C2202 C 0.81704 0.91968 0.81673 0.0
C2203 C 0.81105 0.92807 0.82715 0.0
C2204 C 0.80289 0.93961 0.82354 0.0
C2205 C 0.80084 0.94273 0.80945 0.0
C2206 C 0.8066 0.93474 0.7991 0.0
C2207 C 0.80235 0.93997 0.78474 0.0
C2208 C 0.81519 0.94502 0.77648 0.0
C2209 C 0.79402 0.92871 0.77671 0.0
C2210 C 0.79313 0.95202 0.78861 0.0
C2211 C 0.79246 0.95351 0.80291 0.0
C2212 C 0.78408 0.96353 0.80896 0.0
C2213 C 0.77595 0.97203 0.80019 0.0
C2214 C 0.7762 0.9705 0.78548 0.0
C2215 C 0.7852 0.9605 0.77971 0.0
H2216 H 0.19222 0.09103 0.22134 0.0
H2217 H 0.22566 0.11015 0.19713 0.0
H2218 H 0.24186 0.09224 0.20568 0.0
H2219 H 0.21265 0.08378 0.25106 0.0
H2220 H 0.20405 0.06743 0.25508 0.0
H2221 H 0.1947 0.08078 0.24584 0.0
H2222 H 0.18909 0.06345 0.22588 0.0
H2223 H 0.19851 0.05006 0.23506 0.0
H2224 H 0.20318 0.05466 0.21743 0.0
H2225 H 0.25509 0.07385 0.21874 0.0
H2226 H 0.26427 0.05643 0.23543 0.0
H2227 H 0.22243 0.04901 0.25114 0.0
C2228 C 0.20292 0.09143 0.21774 0.0
C2229 C 0.20758 0.10204 0.20846 0.0
C2230 C 0.2217 0.10204 0.204 0.0
C2231 C 0.23102 0.09191 0.20886 0.0
C2232 C 0.22612 0.08175 0.21812 0.0
C2233 C 0.21238 0.08139 0.22248 0.0
C2234 C 0.20998 0.06986 0.23315 0.0
C2235 C 0.20506 0.07582 0.24711 0.0
C2236 C 0.19957 0.05885 0.22754 0.0
C2237 C 0.22461 0.06405 0.2344 0.0
C2238 C 0.23373 0.07098 0.22554 0.0
C2239 C 0.248 0.06819 0.22553 0.0
C2240 C 0.25312 0.05827 0.23502 0.0
C2241 C 0.24402 0.05121 0.24435 0.0
C2242 C 0.22954 0.05396 0.24383 0.0
H2243 H 0.22101 0.90641 0.80202 0.0
H2244 H 0.18377 0.93033 0.80974 0.0
H2245 H 0.19549 0.9513 0.8 0.0
H2246 H 0.24604 0.93356 0.81057 0.0
H2247 H 0.25808 0.92876 0.79713 0.0
H2248 H 0.24677 0.91575 0.80488 0.0
H2249 H 0.23718 0.9092 0.78038 0.0
H2250 H 0.24842 0.92223 0.77255 0.0
H2251 H 0.22982 0.92253 0.76935 0.0
H2252 H 0.21128 0.96967 0.78879 0.0
H2253 H 0.22993 0.98384 0.77754 0.0
H2254 H 0.25682 0.94785 0.77771 0.0
C2255 C 0.21528 0.91604 0.80161 0.0
C2256 C 0.20145 0.91669 0.80667 0.0
C2257 C 0.19442 0.92958 0.8061 0.0
C2258 C 0.20097 0.94154 0.80051 0.0
C2259 C 0.21458 0.9405 0.79556 0.0
C2260 C 0.22167 0.92808 0.79612 0.0
C2261 C 0.23623 0.92971 0.79016 0.0
C2262 C 0.24744 0.92677 0.80136 0.0
C2263 C 0.23801 0.92036 0.77735 0.0
C2264 C 0.2362 0.94496 0.78606 0.0
C2265 C 0.22363 0.95103 0.78923 0.0
C2266 C 0.22118 0.96503 0.7863 0.0
C2267 C 0.23186 0.97301 0.77996 0.0
C2268 C 0.24484 0.96699 0.77661 0.0
C2269 C 0.24695 0.95277 0.77982 0.0
H2270 H 0.11333 0.22073 0.80434 0.0
H2271 H 0.08845 0.18573 0.81952 0.0
H2272 H 0.067 0.19694 0.81068 0.0
H2273 H 0.08835 0.24746 0.81228 0.0
H2274 H 0.09232 0.25754 0.79685 0.0
H2275 H 0.10557 0.2469 0.8048 0.0
H2276 H 0.10903 0.23427 0.7813 0.0
H2277 H 0.09577 0.24484 0.7733 0.0
H2278 H 0.09418 0.22614 0.77276 0.0
H2279 H 0.04816 0.21183 0.79911 0.0
H2280 H 0.0339 0.22908 0.78627 0.0
H2281 H 0.07128 0.25437 0.77936 0.0
C2282 C 0.10338 0.21539 0.8058 0.0
C2283 C 0.10262 0.20233 0.81266 0.0
C2284 C 0.08933 0.19581 0.81447 0.0
C2285 C 0.07707 0.20207 0.80941 0.0
C2286 C 0.07823 0.21491 0.80261 0.0
C2287 C 0.09106 0.22152 0.80088 0.0
C2288 C 0.08953 0.2352 0.79312 0.0
C2289 C 0.09422 0.2475 0.80232 0.0
C2290 C 0.0976 0.2351 0.7793 0.0
C2291 C 0.07387 0.23518 0.79058 0.0
C2292 C 0.06748 0.22343 0.79613 0.0
C2293 C 0.05307 0.2211 0.7948 0.0
C2294 C 0.04503 0.231 0.78753 0.0
C2295 C 0.05142 0.24307 0.78165 0.0
C2296 C 0.06603 0.24516 0.78343 0.0
H2297 H 0.81216 0.09551 0.81748 0.0
H2298 H 0.77955 0.12633 0.8193 0.0
H2299 H 0.76313 0.11009 0.80764 0.0
H2300 H 0.80303 0.08289 0.7834 0.0
H2301 H 0.80676 0.06493 0.78724 0.0
H2302 H 0.81592 0.07858 0.79651 0.0
H2303 H 0.80785 0.06783 0.82 0.0
H2304 H 0.79862 0.05416 0.81078 0.0
H2305 H 0.78945 0.06483 0.82299 0.0
H2306 H 0.75034 0.09124 0.79563 0.0
H2307 H 0.74196 0.07096 0.78228 0.0
H2308 H 0.78253 0.05178 0.78712 0.0
C2309 C 0.80152 0.09874 0.81549 0.0
C2310 C 0.79713 0.11222 0.81925 0.0
C2311 C 0.78318 0.11614 0.81638 0.0
C2312 C 0.77374 0.10695 0.80986 0.0
C2313 C 0.77838 0.09383 0.8062 0.0
C2314 C 0.79193 0.08968 0.8088 0.0
C2315 C 0.79423 0.07515 0.80309 0.0
C2316 C 0.80566 0.07541 0.79189 0.0
C2317 C 0.79774 0.06489 0.81492 0.0
C2318 C 0.7799 0.07191 0.79676 0.0
C2319 C 0.77094 0.08284 0.79887 0.0
C2320 C 0.75725 0.08262 0.79388 0.0
C2321 C 0.7526 0.07107 0.78627 0.0
C2322 C 0.76163 0.05986 0.78353 0.0
C2323 C 0.7754 0.06017 0.7891 0.0
H2324 H 0.90549 0.79291 0.80806 0.0
H2325 H 0.9291 0.8292 0.82211 0.0
H2326 H 0.9501 0.82052 0.81024 0.0
H2327 H 0.93299 0.76838 0.81272 0.0
H2328 H 0.9282 0.75845 0.79747 0.0
H2329 H 0.91505 0.76778 0.80676 0.0
H2330 H 0.90819 0.78076 0.78398 0.0
H2331 H 0.92131 0.77146 0.77463 0.0
H2332 H 0.92143 0.79022 0.77436 0.0
H2333 H 0.96893 0.80719 0.7971 0.0
H2334 H 0.98321 0.79107 0.78322 0.0
H2335 H 0.94707 0.76354 0.77858 0.0
C2336 C 0.91508 0.79903 0.80873 0.0
C2337 C 0.91559 0.81176 0.81607 0.0
C2338 C 0.92835 0.81951 0.81643 0.0
C2339 C 0.94038 0.81461 0.80979 0.0
C2340 C 0.93951 0.80194 0.80278 0.0
C2341 C 0.92714 0.79431 0.80218 0.0
C2342 C 0.92887 0.78102 0.79402 0.0
C2343 C 0.92612 0.76815 0.8033 0.0
C2344 C 0.91939 0.78086 0.78098 0.0
C2345 C 0.94416 0.78231 0.79014 0.0
C2346 C 0.95018 0.79441 0.79528 0.0
C2347 C 0.96428 0.7977 0.79301 0.0
C2348 C 0.97234 0.78846 0.78518 0.0
C2349 C 0.96627 0.7761 0.77964 0.0
C2350 C 0.95201 0.77303 0.78237 0.0
H2351 H 0.80215 0.912 0.2072 0.0
H2352 H 0.84368 0.92049 0.2241 0.0
H2353 H 0.83475 0.94092 0.23635 0.0
H2354 H 0.79195 0.94844 0.20272 0.0
H2355 H 0.77412 0.94506 0.20788 0.0
H2356 H 0.78393 0.93163 0.19955 0.0
H2357 H 0.77898 0.91499 0.22037 0.0
H2358 H 0.76914 0.92834 0.22873 0.0
H2359 H 0.78361 0.92044 0.23779 0.0
H2360 H 0.82104 0.95937 0.2483 0.0
H2361 H 0.80357 0.97417 0.25926 0.0
H2362 H 0.7709 0.95453 0.23405 0.0
C2363 C 0.80939 0.91819 0.21342 0.0
C2364 C 0.82369 0.91464 0.21453 0.0
C2365 C 0.83277 0.92309 0.2228 0.0
C2366 C 0.82777 0.93471 0.22987 0.0
C2367 C 0.81365 0.93788 0.22858 0.0
C2368 C 0.80458 0.9299 0.22054 0.0
C2369 C 0.78977 0.93528 0.22138 0.0
C2370 C 0.78464 0.94041 0.20703 0.0
C2371 C 0.77979 0.9241 0.22743 0.0
C2372 C 0.79189 0.94731 0.2314 0.0
C2373 C 0.80576 0.94868 0.23535 0.0
C2374 C 0.81018 0.95854 0.2451 0.0
C2375 C 0.80013 0.96704 0.25119 0.0
C2376 C 0.78575 0.96572 0.24752 0.0
C2377 C 0.78174 0.95585 0.23722 0.0
H2378 H 0.11244 0.79187 0.21089 0.0
H2379 H 0.08932 0.82835 0.19808 0.0
H2380 H 0.06845 0.81917 0.2104 0.0
H2381 H 0.08422 0.76736 0.20712 0.0
H2382 H 0.08922 0.75711 0.22212 0.0
H2383 H 0.10231 0.76673 0.21251 0.0
H2384 H 0.11024 0.77925 0.23518 0.0
H2385 H 0.09716 0.76965 0.24486 0.0
H2386 H 0.09755 0.7884 0.2453 0.0
H2387 H 0.04989 0.80566 0.22426 0.0
H2388 H 0.03556 0.78913 0.2383 0.0
H2389 H 0.07099 0.76156 0.24141 0.0
C2390 C 0.10305 0.79804 0.21081 0.0
C2391 C 0.10256 0.81087 0.20352 0.0
C2392 C 0.08994 0.81844 0.20348 0.0
C2393 C 0.07804 0.81334 0.21051 0.0
C2394 C 0.07889 0.80062 0.21753 0.0
C2395 C 0.09109 0.79308 0.21771 0.0
C2396 C 0.08926 0.77959 0.22579 0.0
C2397 C 0.09137 0.76695 0.21632 0.0
C2398 C 0.09914 0.77921 0.23854 0.0
C2399 C 0.07413 0.78071 0.23017 0.0
C2400 C 0.06829 0.7929 0.22534 0.0
C2401 C 0.05438 0.79609 0.22809 0.0
C2402 C 0.04629 0.78661 0.23602 0.0
C2403 C 0.05213 0.77409 0.24113 0.0
C2404 C 0.06623 0.77116 0.238 0.0
H2405 H 0.90697 0.21072 0.21979 0.0
H2406 H 0.93023 0.20355 0.1819 0.0
H2407 H 0.95159 0.2132 0.19317 0.0
H2408 H 0.92267 0.24328 0.22792 0.0
H2409 H 0.92283 0.24031 0.24651 0.0
H2410 H 0.90971 0.23192 0.23577 0.0
H2411 H 0.91715 0.20785 0.24542 0.0
H2412 H 0.93029 0.21619 0.25621 0.0
H2413 H 0.93517 0.20278 0.24421 0.0
H2414 H 0.9704 0.22464 0.20857 0.0
H2415 H 0.98451 0.23726 0.22647 0.0
H2416 H 0.94857 0.23723 0.25375 0.0
C2417 C 0.91654 0.21117 0.21383 0.0
C2418 C 0.91688 0.20632 0.19995 0.0
C2419 C 0.92971 0.20698 0.19262 0.0
C2420 C 0.9419 0.21251 0.19891 0.0
C2421 C 0.94114 0.21731 0.21258 0.0
C2422 C 0.92877 0.21666 0.21994 0.0
C2423 C 0.93056 0.22287 0.23432 0.0
C2424 C 0.92087 0.23534 0.23623 0.0
C2425 C 0.92815 0.21176 0.24571 0.0
C2426 C 0.94577 0.22745 0.2338 0.0
C2427 C 0.95179 0.22402 0.22126 0.0
C2428 C 0.96577 0.22734 0.21843 0.0
C2429 C 0.97372 0.23446 0.22865 0.0
C2430 C 0.96759 0.23833 0.24141 0.0
C2431 C 0.95349 0.23459 0.244 0.0
H2432 H 0.22553 0.70831 0.61362 0.0
H2433 H 0.18831 0.6951 0.59078 0.0
H2434 H 0.19709 0.70736 0.56973 0.0
H2435 H 0.22898 0.7423 0.59792 0.0
H2436 H 0.24782 0.74192 0.59764 0.0
H2437 H 0.23837 0.73236 0.61087 0.0
H2438 H 0.25066 0.70971 0.60359 0.0
H2439 H 0.26013 0.71921 0.59035 0.0
H2440 H 0.24965 0.70416 0.58567 0.0
H2441 H 0.21066 0.72074 0.55075 0.0
H2442 H 0.22715 0.73469 0.53623 0.0
H2443 H 0.25536 0.73844 0.57176 0.0
C2444 C 0.21922 0.70792 0.60419 0.0
C2445 C 0.20622 0.70068 0.6039 0.0
C2446 C 0.19823 0.70067 0.59135 0.0
C2447 C 0.20318 0.70754 0.5793 0.0
C2448 C 0.21613 0.71443 0.57995 0.0
C2449 C 0.22399 0.71471 0.59212 0.0
C2450 C 0.23756 0.72279 0.59017 0.0
C2451 C 0.23821 0.7356 0.59972 0.0
C2452 C 0.25025 0.7134 0.59259 0.0
C2453 C 0.23617 0.72701 0.57499 0.0
C2454 C 0.22378 0.7221 0.5692 0.0
C2455 C 0.22037 0.72466 0.55522 0.0
C2456 C 0.22982 0.73254 0.54703 0.0
C2457 C 0.24248 0.73782 0.55286 0.0
C2458 C 0.24564 0.73484 0.56701 0.0
H2459 H 0.78851 0.70758 0.60649 0.0
H2460 H 0.83214 0.70979 0.59429 0.0
H2461 H 0.82575 0.72435 0.574 0.0
H2462 H 0.77366 0.70636 0.57156 0.0
H2463 H 0.75905 0.71714 0.5758 0.0
H2464 H 0.76692 0.70635 0.58907 0.0
H2465 H 0.77105 0.72799 0.60465 0.0
H2466 H 0.76315 0.73882 0.59147 0.0
H2467 H 0.78056 0.74282 0.59776 0.0
H2468 H 0.8148 0.73957 0.55556 0.0
H2469 H 0.80023 0.75473 0.54078 0.0
H2470 H 0.76362 0.7424 0.56467 0.0
C2471 C 0.79675 0.71115 0.5996 0.0
C2472 C 0.81085 0.70743 0.60201 0.0
C2473 C 0.82124 0.71226 0.59259 0.0
C2474 C 0.81773 0.7206 0.58104 0.0
C2475 C 0.80375 0.72404 0.57898 0.0
C2476 C 0.79342 0.71949 0.588 0.0
C2477 C 0.77925 0.72499 0.58361 0.0
C2478 C 0.76912 0.71299 0.57978 0.0
C2479 C 0.77315 0.7342 0.59505 0.0
C2480 C 0.78326 0.7335 0.57084 0.0
C2481 C 0.79743 0.73275 0.5683 0.0
C2482 C 0.80366 0.74011 0.55736 0.0
C2483 C 0.79524 0.74862 0.54891 0.0
C2484 C 0.78069 0.74974 0.55142 0.0
C2485 C 0.77468 0.74186 0.56246 0.0
H2486 H 0.7905 0.32043 0.60582 0.0
H2487 H 0.83353 0.30729 0.60181 0.0
H2488 H 0.8268 0.2933 0.58127 0.0
H2489 H 0.77492 0.28767 0.59775 0.0
H2490 H 0.76029 0.29486 0.58833 0.0
H2491 H 0.76872 0.30474 0.60199 0.0
H2492 H 0.77298 0.32517 0.58468 0.0
H2493 H 0.76462 0.3153 0.57093 0.0
H2494 H 0.78214 0.3221 0.56866 0.0
H2495 H 0.81511 0.2795 0.56196 0.0
H2496 H 0.79929 0.26631 0.54626 0.0
H2497 H 0.76386 0.28845 0.56272 0.0
C2498 C 0.79854 0.31461 0.60066 0.0
C2499 C 0.8126 0.31509 0.60548 0.0
C2500 C 0.82275 0.30737 0.59825 0.0
C2501 C 0.81902 0.29932 0.58657 0.0
C2502 C 0.80508 0.29907 0.58216 0.0
C2503 C 0.795 0.3065 0.58901 0.0
C2504 C 0.78064 0.30393 0.58257 0.0
C2505 C 0.77055 0.29741 0.5933 0.0
C2506 C 0.77475 0.31743 0.57634 0.0
C2507 C 0.78418 0.29368 0.57122 0.0
C2508 C 0.79835 0.29112 0.57106 0.0
C2509 C 0.80401 0.28156 0.56189 0.0
C2510 C 0.79492 0.27419 0.55289 0.0
C2511 C 0.78028 0.27635 0.55312 0.0
C2512 C 0.77497 0.28649 0.56226 0.0
H2513 H 0.20832 0.3043 0.61108 0.0
H2514 H 0.21641 0.34654 0.5966 0.0
H2515 H 0.22783 0.33747 0.57567 0.0
H2516 H 0.24024 0.29036 0.60049 0.0
H2517 H 0.2331 0.27381 0.59494 0.0
H2518 H 0.22447 0.28347 0.60829 0.0
H2519 H 0.20147 0.28288 0.59379 0.0
H2520 H 0.21003 0.27314 0.58041 0.0
H2521 H 0.20153 0.28923 0.57605 0.0
H2522 H 0.24033 0.32409 0.55756 0.0
H2523 H 0.25269 0.30732 0.54316 0.0
H2524 H 0.23531 0.27338 0.56813 0.0
C2525 C 0.21223 0.31162 0.60336 0.0
C2526 C 0.21153 0.32616 0.60557 0.0
C2527 C 0.217 0.33538 0.59528 0.0
C2528 C 0.22342 0.33033 0.58329 0.0
C2529 C 0.22422 0.31599 0.58158 0.0
C2530 C 0.21869 0.30674 0.59125 0.0
C2531 C 0.22156 0.29182 0.58713 0.0
C2532 C 0.23037 0.28444 0.59838 0.0
C2533 C 0.20783 0.2838 0.58417 0.0
C2534 C 0.22985 0.29419 0.57385 0.0
C2535 C 0.23118 0.30821 0.57082 0.0
C2536 C 0.23911 0.31306 0.55963 0.0
C2537 C 0.24602 0.30336 0.55139 0.0
C2538 C 0.24494 0.28886 0.55425 0.0
C2539 C 0.23649 0.28431 0.56557 0.0
H2540 H 0.21962 0.32592 0.42772 0.0
H2541 H 0.19509 0.29209 0.40956 0.0
H2542 H 0.20359 0.27625 0.42799 0.0
H2543 H 0.2493 0.30612 0.43557 0.0
H2544 H 0.25344 0.3149 0.45168 0.0
H2545 H 0.24422 0.32392 0.438 0.0
H2546 H 0.2243 0.32935 0.4552 0.0
H2547 H 0.23344 0.32025 0.46893 0.0
H2548 H 0.21571 0.31528 0.46446 0.0
H2549 H 0.21653 0.2635 0.44689 0.0
H2550 H 0.23317 0.25482 0.46471 0.0
H2551 H 0.24932 0.29676 0.47073 0.0
C2552 C 0.21595 0.31521 0.42764 0.0
C2553 C 0.20658 0.31032 0.41716 0.0
C2554 C 0.20203 0.29621 0.41757 0.0
C2555 C 0.20685 0.28709 0.42799 0.0
C2556 C 0.21618 0.29222 0.43803 0.0
C2557 C 0.22066 0.30596 0.43797 0.0
C2558 C 0.23139 0.30863 0.44944 0.0
C2559 C 0.24542 0.31369 0.4433 0.0
C2560 C 0.22587 0.31899 0.46014 0.0
C2561 C 0.23253 0.29416 0.45572 0.0
C2562 C 0.22356 0.28487 0.44906 0.0
C2563 C 0.22342 0.27071 0.45234 0.0
C2564 C 0.23288 0.26587 0.46246 0.0
C2565 C 0.24233 0.27515 0.46924 0.0
C2566 C 0.24193 0.28951 0.46599 0.0
H2567 H 0.21986 0.71233 0.40717 0.0
H2568 H 0.18451 0.69802 0.4318 0.0
H2569 H 0.19565 0.70794 0.45295 0.0
H2570 H 0.2466 0.70597 0.43343 0.0
H2571 H 0.25671 0.72129 0.42881 0.0
H2572 H 0.24614 0.71258 0.41578 0.0
H2573 H 0.23341 0.73565 0.41043 0.0
H2574 H 0.24391 0.74441 0.42347 0.0
H2575 H 0.22509 0.74476 0.42441 0.0
H2576 H 0.21042 0.7205 0.47142 0.0
H2577 H 0.22762 0.73413 0.4854 0.0
H2578 H 0.25334 0.73965 0.44859 0.0
C2579 C 0.21443 0.71128 0.417 0.0
C2580 C 0.20129 0.70434 0.41778 0.0
C2581 C 0.19466 0.70309 0.43092 0.0
C2582 C 0.20087 0.70878 0.443 0.0
C2583 C 0.21377 0.71565 0.44182 0.0
C2584 C 0.2205 0.71684 0.42915 0.0
C2585 C 0.23422 0.72483 0.43063 0.0
C2586 C 0.24665 0.71562 0.42695 0.0
C2587 C 0.23414 0.73821 0.42171 0.0
C2588 C 0.23408 0.72811 0.44606 0.0
C2589 C 0.22224 0.72272 0.45238 0.0
C2590 C 0.21977 0.72469 0.46657 0.0
C2591 C 0.22964 0.7324 0.47445 0.0
C2592 C 0.24183 0.7381 0.46815 0.0
C2593 C 0.24404 0.73572 0.45376 0.0
H2594 H 0.80746 0.72808 0.40748 0.0
H2595 H 0.82251 0.69305 0.43179 0.0
H2596 H 0.81046 0.70198 0.45257 0.0
H2597 H 0.81137 0.75365 0.43432 0.0
H2598 H 0.79577 0.7628 0.42934 0.0
H2599 H 0.80537 0.75344 0.41644 0.0
H2600 H 0.78293 0.73933 0.40993 0.0
H2601 H 0.77327 0.74865 0.42282 0.0
H2602 H 0.7736 0.72991 0.42337 0.0
H2603 H 0.79711 0.71546 0.47108 0.0
H2604 H 0.78286 0.73157 0.48502 0.0
H2605 H 0.77702 0.75756 0.44833 0.0
C2606 C 0.8083 0.7223 0.41718 0.0
C2607 C 0.81598 0.70985 0.41797 0.0
C2608 C 0.81658 0.70252 0.43085 0.0
C2609 C 0.80984 0.70756 0.44275 0.0
C2610 C 0.80247 0.71994 0.44161 0.0
C2611 C 0.80162 0.72715 0.4291 0.0
C2612 C 0.79302 0.74014 0.43054 0.0
C2613 C 0.80192 0.75328 0.42748 0.0
C2614 C 0.77993 0.73946 0.42111 0.0
C2615 C 0.78919 0.73918 0.44581 0.0
C2616 C 0.79474 0.7275 0.45208 0.0
C2617 C 0.79267 0.7246 0.46623 0.0
C2618 C 0.78462 0.73382 0.47409 0.0
C2619 C 0.77867 0.74573 0.46776 0.0
C2620 C 0.78115 0.7484 0.45345 0.0
H2621 H 0.79231 0.31274 0.41376 0.0
H2622 H 0.83592 0.30604 0.42449 0.0
H2623 H 0.82863 0.29267 0.44534 0.0
H2624 H 0.77956 0.31607 0.44912 0.0
H2625 H 0.76337 0.30686 0.44554 0.0
H2626 H 0.77199 0.31656 0.43184 0.0
H2627 H 0.77231 0.29444 0.41654 0.0
H2628 H 0.76363 0.28471 0.43014 0.0
H2629 H 0.78003 0.2788 0.42341 0.0
H2630 H 0.81654 0.279 0.46455 0.0
H2631 H 0.80068 0.26547 0.47986 0.0
H2632 H 0.76495 0.28125 0.45677 0.0
C2633 C 0.80036 0.30844 0.42044 0.0
C2634 C 0.81473 0.31056 0.41743 0.0
C2635 C 0.82486 0.30481 0.42662 0.0
C2636 C 0.82082 0.29714 0.4385 0.0
C2637 C 0.80659 0.29527 0.44112 0.0
C2638 C 0.79652 0.30074 0.43233 0.0
C2639 C 0.78192 0.29683 0.43725 0.0
C2640 C 0.77373 0.30986 0.44117 0.0
C2641 C 0.77401 0.28818 0.42618 0.0
C2642 C 0.78536 0.28813 0.45005 0.0
C2643 C 0.79964 0.28744 0.45217 0.0
C2644 C 0.80532 0.27959 0.46306 0.0
C2645 C 0.7962 0.27202 0.47181 0.0
C2646 C 0.78151 0.2723 0.46965 0.0
C2647 C 0.77611 0.28073 0.45873 0.0
H2648 H 0.10415 0.72565 0.70163 0.0
H2649 H 0.09365 0.68216 0.70923 0.0
H2650 H 0.07338 0.68918 0.72321 0.0
H2651 H 0.09558 0.73793 0.73516 0.0
H2652 H 0.08844 0.7541 0.72896 0.0
H2653 H 0.10174 0.74562 0.71909 0.0
H2654 H 0.08548 0.74552 0.69732 0.0
H2655 H 0.07211 0.75399 0.70714 0.0
H2656 H 0.06823 0.73777 0.69848 0.0
H2657 H 0.0547 0.70107 0.73726 0.0
H2658 H 0.03994 0.71673 0.75088 0.0
H2659 H 0.06196 0.75245 0.73313 0.0
C2660 C 0.09749 0.71757 0.70604 0.0
C2661 C 0.10056 0.70332 0.70428 0.0
C2662 C 0.09167 0.69314 0.71053 0.0
C2663 C 0.08004 0.69702 0.7184 0.0
C2664 C 0.07734 0.71115 0.71991 0.0
C2665 C 0.08582 0.72126 0.7139 0.0
C2666 C 0.08095 0.73573 0.71752 0.0
C2667 C 0.09236 0.74382 0.72567 0.0
C2668 C 0.07642 0.74372 0.70433 0.0
C2669 C 0.06852 0.73219 0.72667 0.0
C2670 C 0.06654 0.71797 0.72786 0.0
C2671 C 0.05606 0.71223 0.73626 0.0
C2672 C 0.04762 0.72125 0.74388 0.0
C2673 C 0.04966 0.73589 0.7431 0.0
C2674 C 0.0601 0.74134 0.73408 0.0
H2675 H 0.79809 0.60509 0.70531 0.0
H2676 H 0.84049 0.59432 0.71729 0.0
H2677 H 0.83145 0.57378 0.73004 0.0
H2678 H 0.78244 0.59618 0.73753 0.0
H2679 H 0.76651 0.58919 0.72999 0.0
H2680 H 0.77634 0.60245 0.72082 0.0
H2681 H 0.77773 0.58643 0.69926 0.0
H2682 H 0.76791 0.5731 0.70838 0.0
H2683 H 0.78476 0.56923 0.70121 0.0
H2684 H 0.8178 0.55558 0.74319 0.0
H2685 H 0.80059 0.54116 0.75585 0.0
H2686 H 0.7669 0.56281 0.73458 0.0
C2687 C 0.80548 0.59837 0.71054 0.0
C2688 C 0.82004 0.60131 0.71015 0.0
C2689 C 0.82933 0.59219 0.71715 0.0
C2690 C 0.82429 0.5805 0.72449 0.0
C2691 C 0.80991 0.57794 0.72471 0.0
C2692 C 0.80063 0.58657 0.71788 0.0
C2693 C 0.78563 0.58175 0.72025 0.0
C2694 C 0.77724 0.59307 0.72759 0.0
C2695 C 0.77859 0.57737 0.70645 0.0
C2696 C 0.78795 0.56928 0.72976 0.0
C2697 C 0.80203 0.56723 0.73213 0.0
C2698 C 0.80674 0.55692 0.74121 0.0
C2699 C 0.79681 0.54864 0.74828 0.0
C2700 C 0.78225 0.55063 0.74622 0.0
C2701 C 0.77788 0.56096 0.73654 0.0
H2702 H 0.91115 0.29274 0.70698 0.0
H2703 H 0.92076 0.33639 0.71439 0.0
H2704 H 0.9413 0.32972 0.7286 0.0
H2705 H 0.92046 0.28035 0.74072 0.0
H2706 H 0.92789 0.26442 0.73459 0.0
H2707 H 0.91423 0.27267 0.72467 0.0
H2708 H 0.93014 0.27335 0.70292 0.0
H2709 H 0.94388 0.26512 0.71279 0.0
H2710 H 0.94723 0.28151 0.70408 0.0
H2711 H 0.96048 0.31817 0.7427 0.0
H2712 H 0.97602 0.30275 0.7562 0.0
H2713 H 0.95454 0.26668 0.73864 0.0
C2714 C 0.91766 0.30093 0.71141 0.0
C2715 C 0.91428 0.31512 0.70951 0.0
C2716 C 0.92298 0.32545 0.7158 0.0
C2717 C 0.93476 0.32177 0.7238 0.0
C2718 C 0.93778 0.3077 0.72542 0.0
C2719 C 0.92947 0.29744 0.71941 0.0
C2720 C 0.93475 0.28307 0.72309 0.0
C2721 C 0.92367 0.27464 0.73126 0.0
C2722 C 0.93927 0.27531 0.70993 0.0
C2723 C 0.94724 0.28682 0.73224 0.0
C2724 C 0.94887 0.30107 0.7334 0.0
C2725 C 0.95938 0.30699 0.74174 0.0
C2726 C 0.96827 0.29811 0.74929 0.0
C2727 C 0.96663 0.28343 0.74849 0.0
C2728 C 0.95609 0.27782 0.73959 0.0
H2729 H 0.21708 0.40812 0.71675 0.0
H2730 H 0.17922 0.43168 0.71017 0.0
H2731 H 0.19107 0.4526 0.71981 0.0
H2732 H 0.22666 0.42323 0.74935 0.0
H2733 H 0.24517 0.42327 0.74593 0.0
H2734 H 0.23386 0.4104 0.73793 0.0
H2735 H 0.24271 0.41798 0.71349 0.0
H2736 H 0.25406 0.43086 0.72144 0.0
H2737 H 0.24159 0.43597 0.70823 0.0
H2738 H 0.20711 0.47094 0.73114 0.0
H2739 H 0.22575 0.48467 0.74316 0.0
H2740 H 0.25286 0.44891 0.74193 0.0
C2741 C 0.21124 0.41765 0.71735 0.0
C2742 C 0.1972 0.41821 0.71265 0.0
C2743 C 0.19004 0.431 0.7135 0.0
C2744 C 0.19666 0.44294 0.71903 0.0
C2745 C 0.21049 0.44198 0.72364 0.0
C2746 C 0.21769 0.42965 0.72281 0.0
C2747 C 0.23239 0.43125 0.72865 0.0
C2748 C 0.23465 0.42146 0.74121 0.0
C2749 C 0.24333 0.42888 0.71727 0.0
C2750 C 0.23228 0.44634 0.7331 0.0
C2751 C 0.21961 0.45242 0.73008 0.0
C2752 C 0.21709 0.46627 0.73349 0.0
C2753 C 0.22775 0.47402 0.74026 0.0
C2754 C 0.24073 0.46787 0.74364 0.0
C2755 C 0.24298 0.45389 0.73977 0.0
H2756 H 0.11216 0.28659 0.31309 0.0
H2757 H 0.09167 0.32576 0.3206 0.0
H2758 H 0.07091 0.31734 0.30733 0.0
H2759 H 0.09905 0.28146 0.27817 0.0
H2760 H 0.09701 0.26288 0.28027 0.0
H2761 H 0.11026 0.27217 0.29011 0.0
H2762 H 0.1 0.26223 0.31312 0.0
H2763 H 0.08673 0.2529 0.30335 0.0
H2764 H 0.08177 0.26471 0.31691 0.0
H2765 H 0.05192 0.30405 0.2937 0.0
H2766 H 0.03702 0.2875 0.28021 0.0
H2767 H 0.07015 0.25721 0.28214 0.0
C2768 C 0.1033 0.2934 0.31202 0.0
C2769 C 0.10356 0.30684 0.31793 0.0
C2770 C 0.09179 0.31548 0.31605 0.0
C2771 C 0.07992 0.31075 0.3086 0.0
C2772 C 0.07998 0.29738 0.30303 0.0
C2773 C 0.09141 0.28887 0.30461 0.0
C2774 C 0.08891 0.27495 0.29765 0.0
C2775 C 0.09943 0.27274 0.28585 0.0
C2776 C 0.08938 0.263 0.3084 0.0
C2777 C 0.07426 0.2769 0.29195 0.0
C2778 C 0.06922 0.28988 0.29515 0.0
C2779 C 0.05581 0.29389 0.2911 0.0
C2780 C 0.04739 0.28441 0.2835 0.0
C2781 C 0.05245 0.27112 0.27997 0.0
C2782 C 0.06605 0.26739 0.28439 0.0
H2783 H 0.22025 0.59158 0.32796 0.0
H2784 H 0.19349 0.6078 0.29503 0.0
H2785 H 0.20178 0.58967 0.27916 0.0
H2786 H 0.24914 0.58499 0.30655 0.0
H2787 H 0.25419 0.5693 0.31556 0.0
H2788 H 0.24506 0.5826 0.32475 0.0
H2789 H 0.22597 0.56454 0.33186 0.0
H2790 H 0.23501 0.55117 0.3226 0.0
H2791 H 0.21694 0.55463 0.31855 0.0
H2792 H 0.21464 0.57132 0.26613 0.0
H2793 H 0.23126 0.55422 0.25696 0.0
H2794 H 0.24965 0.54968 0.29817 0.0
C2795 C 0.21605 0.5913 0.31744 0.0
C2796 C 0.2061 0.60115 0.31283 0.0
C2797 C 0.20088 0.60028 0.29896 0.0
C2798 C 0.20558 0.59002 0.28982 0.0
C2799 C 0.21548 0.58061 0.29467 0.0
C2800 C 0.22063 0.58113 0.30817 0.0
C2801 C 0.23181 0.57028 0.31052 0.0
C2802 C 0.24588 0.57721 0.31458 0.0
C2803 C 0.22715 0.55952 0.32154 0.0
C2804 C 0.23239 0.56383 0.29614 0.0
C2805 C 0.2228 0.56987 0.28718 0.0
C2806 C 0.22202 0.56635 0.27311 0.0
C2807 C 0.23146 0.55662 0.26799 0.0
C2808 C 0.24152 0.55046 0.27692 0.0
C2809 C 0.24179 0.55393 0.29123 0.0
H2810 H 0.91063 0.71626 0.31315 0.0
H2811 H 0.9272 0.67465 0.30964 0.0
H2812 H 0.94837 0.68431 0.29848 0.0
H2813 H 0.92201 0.72874 0.2809 0.0
H2814 H 0.92662 0.74604 0.28666 0.0
H2815 H 0.91333 0.73612 0.29568 0.0
H2816 H 0.92696 0.73916 0.31896 0.0
H2817 H 0.94029 0.74916 0.31001 0.0
H2818 H 0.94499 0.734 0.32008 0.0
H2819 H 0.96634 0.69798 0.28524 0.0
H2820 H 0.98014 0.71472 0.27142 0.0
H2821 H 0.9533 0.74802 0.28511 0.0
C2822 C 0.91886 0.70922 0.31035 0.0
C2823 C 0.91715 0.69466 0.31221 0.0
C2824 C 0.92811 0.68581 0.30815 0.0
C2825 C 0.94025 0.69121 0.30189 0.0
C2826 C 0.94145 0.70554 0.29989 0.0
C2827 C 0.93114 0.71447 0.30412 0.0
C2828 C 0.93475 0.72938 0.30004 0.0
C2829 C 0.92351 0.73542 0.29024 0.0
C2830 C 0.93688 0.73846 0.31305 0.0
C2831 C 0.94845 0.72735 0.29247 0.0
C2832 C 0.95215 0.71353 0.29259 0.0
C2833 C 0.96375 0.7089 0.28536 0.0
C2834 C 0.97165 0.7186 0.2776 0.0
C2835 C 0.96805 0.73288 0.27715 0.0
C2836 C 0.95642 0.73724 0.28504 0.0
H2837 H 0.80068 0.41046 0.31292 0.0
H2838 H 0.84318 0.4241 0.30389 0.0
H2839 H 0.83414 0.44503 0.29213 0.0
H2840 H 0.78582 0.42098 0.28056 0.0
H2841 H 0.76956 0.42661 0.28784 0.0
H2842 H 0.77937 0.41316 0.29645 0.0
H2843 H 0.77981 0.42754 0.31923 0.0
H2844 H 0.77001 0.44105 0.31067 0.0
H2845 H 0.78657 0.44516 0.31892 0.0
H2846 H 0.8205 0.46362 0.27973 0.0
H2847 H 0.80334 0.4783 0.26759 0.0
H2848 H 0.76955 0.45336 0.28543 0.0
C2849 C 0.8081 0.41787 0.30853 0.0
C2850 C 0.82269 0.41562 0.30949 0.0
C2851 C 0.83199 0.42566 0.30359 0.0
C2852 C 0.82695 0.43758 0.29681 0.0
C2853 C 0.81254 0.43945 0.29602 0.0
C2854 C 0.80324 0.42991 0.30177 0.0
C2855 C 0.78823 0.43418 0.29904 0.0
C2856 C 0.78028 0.42307 0.29046 0.0
C2857 C 0.78072 0.43716 0.31279 0.0
C2858 C 0.79058 0.44744 0.29061 0.0
C2859 C 0.80467 0.45032 0.28905 0.0
C2860 C 0.80942 0.46159 0.28107 0.0
C2861 C 0.79953 0.46999 0.2743 0.0
C2862 C 0.78497 0.46718 0.27554 0.0
C2863 C 0.78055 0.45585 0.2841 0.0
H2864 H 0.21778 0.61111 0.71715 0.0
H2865 H 0.18238 0.58557 0.70371 0.0
H2866 H 0.1939 0.5647 0.71332 0.0
H2867 H 0.24461 0.58589 0.71002 0.0
H2868 H 0.25497 0.59063 0.72511 0.0
H2869 H 0.24413 0.60338 0.71666 0.0
H2870 H 0.23179 0.608 0.74012 0.0
H2871 H 0.24257 0.59523 0.74862 0.0
H2872 H 0.22378 0.59366 0.74948 0.0
H2873 H 0.20911 0.54657 0.7255 0.0
H2874 H 0.22666 0.53306 0.73883 0.0
H2875 H 0.25206 0.5706 0.74372 0.0
C2876 C 0.21242 0.60114 0.71622 0.0
C2877 C 0.19915 0.60003 0.70963 0.0
C2878 C 0.19262 0.58671 0.70853 0.0
C2879 C 0.19905 0.57479 0.71403 0.0
C2880 C 0.21208 0.57629 0.72056 0.0
C2881 C 0.2187 0.58914 0.72161 0.0
C2882 C 0.23258 0.58802 0.72925 0.0
C2883 C 0.24479 0.59223 0.71969 0.0
C2884 C 0.23268 0.59674 0.74266 0.0
C2885 C 0.23264 0.57258 0.73254 0.0
C2886 C 0.22077 0.56594 0.72743 0.0
C2887 C 0.21848 0.55168 0.72947 0.0
C2888 C 0.22854 0.54407 0.73701 0.0
C2889 C 0.24072 0.55072 0.74247 0.0
C2890 C 0.24277 0.56517 0.73998 0.0
H2891 H 0.20064 0.41054 0.29432 0.0
H2892 H 0.20591 0.42093 0.33807 0.0
H2893 H 0.22002 0.44166 0.33146 0.0
H2894 H 0.23473 0.42033 0.28369 0.0
H2895 H 0.22932 0.42735 0.26705 0.0
H2896 H 0.2191 0.41373 0.27521 0.0
H2897 H 0.19714 0.42917 0.27387 0.0
H2898 H 0.20732 0.44286 0.26571 0.0
H2899 H 0.19775 0.4463 0.28141 0.0
H2900 H 0.23454 0.46065 0.32009 0.0
H2901 H 0.24893 0.47588 0.305 0.0
H2902 H 0.2332 0.45384 0.26854 0.0
C2903 C 0.20455 0.41728 0.30252 0.0
C2904 C 0.20213 0.41406 0.31674 0.0
C2905 C 0.20774 0.42304 0.32712 0.0
C2906 C 0.21567 0.43492 0.32346 0.0
C2907 C 0.21787 0.43775 0.30936 0.0
C2908 C 0.21247 0.42919 0.29905 0.0
C2909 C 0.21682 0.43426 0.28469 0.0
C2910 C 0.22551 0.42326 0.27723 0.0
C2911 C 0.20399 0.4384 0.2759 0.0
C2912 C 0.22569 0.4469 0.28854 0.0
C2913 C 0.22609 0.44879 0.30282 0.0
C2914 C 0.23414 0.45938 0.30888 0.0
C2915 C 0.2422 0.4681 0.30017 0.0
C2916 C 0.24219 0.46621 0.2855 0.0
C2917 C 0.23354 0.45559 0.27969 0.0
H2918 H 0.11103 0.7041 0.29175 0.0
H2919 H 0.09018 0.69451 0.33075 0.0
H2920 H 0.06935 0.70727 0.32249 0.0
H2921 H 0.09785 0.73854 0.28739 0.0
H2922 H 0.09604 0.73713 0.26872 0.0
H2923 H 0.10917 0.72728 0.27783 0.0
H2924 H 0.09901 0.70448 0.26722 0.0
H2925 H 0.08584 0.71426 0.2581 0.0
H2926 H 0.08076 0.70015 0.26956 0.0
H2927 H 0.05032 0.72086 0.3093 0.0
H2928 H 0.03579 0.735 0.29311 0.0
H2929 H 0.06946 0.73526 0.26308 0.0
C2930 C 0.10206 0.70458 0.29855 0.0
C2931 C 0.10226 0.69823 0.3119 0.0
C2932 C 0.09036 0.69938 0.32053 0.0
C2933 C 0.07843 0.70653 0.31589 0.0
C2934 C 0.07856 0.71254 0.30259 0.0
C2935 C 0.09013 0.71168 0.2941 0.0
C2936 C 0.08779 0.71912 0.28033 0.0
C2937 C 0.09834 0.73124 0.27847 0.0
C2938 C 0.08838 0.70889 0.26808 0.0
C2939 C 0.07311 0.72435 0.28237 0.0
C2940 C 0.06786 0.72042 0.29521 0.0
C2941 C 0.05438 0.72403 0.29925 0.0
C2942 C 0.04617 0.732 0.28998 0.0
C2943 C 0.05154 0.73638 0.27692 0.0
C2944 C 0.06513 0.73231 0.2731 0.0
H2945 H 0.78865 0.60345 0.32332 0.0
H2946 H 0.83255 0.59676 0.31472 0.0
H2947 H 0.82611 0.57621 0.30067 0.0
H2948 H 0.77784 0.56687 0.32511 0.0
H2949 H 0.76131 0.56983 0.31649 0.0
H2950 H 0.76939 0.5834 0.32681 0.0
H2951 H 0.76845 0.60024 0.30559 0.0
H2952 H 0.76031 0.58675 0.29525 0.0
H2953 H 0.77621 0.59516 0.28936 0.0
H2954 H 0.81483 0.55726 0.28622 0.0
H2955 H 0.79961 0.54209 0.27181 0.0
H2956 H 0.76299 0.56084 0.28991 0.0
C2957 C 0.79694 0.59769 0.3185 0.0
C2958 C 0.81115 0.60175 0.32027 0.0
C2959 C 0.82162 0.59377 0.31381 0.0
C2960 C 0.81806 0.58208 0.30574 0.0
C2961 C 0.80397 0.57842 0.3042 0.0
C2962 C 0.79357 0.58599 0.31038 0.0
C2963 C 0.77918 0.58025 0.30652 0.0
C2964 C 0.77148 0.57476 0.31951 0.0
C2965 C 0.77054 0.59125 0.29872 0.0
C2966 C 0.78312 0.56844 0.29697 0.0
C2967 C 0.79747 0.56747 0.29588 0.0
C2968 C 0.80358 0.5578 0.28714 0.0
C2969 C 0.79481 0.54911 0.27907 0.0
C2970 C 0.78004 0.55013 0.27973 0.0
C2971 C 0.77421 0.55977 0.28909 0.0
H2972 H 0.92181 0.29218 0.32557 0.0
H2973 H 0.91251 0.32572 0.29653 0.0
H2974 H 0.93186 0.31835 0.28157 0.0
H2975 H 0.9599 0.29293 0.32138 0.0
H2976 H 0.96123 0.27425 0.32233 0.0
H2977 H 0.94746 0.28288 0.33146 0.0
H2978 H 0.9289 0.26752 0.31875 0.0
H2979 H 0.9426 0.25879 0.30968 0.0
H2980 H 0.92874 0.26698 0.29995 0.0
H2981 H 0.95076 0.30608 0.26861 0.0
H2982 H 0.96756 0.28961 0.25862 0.0
H2983 H 0.96487 0.26412 0.29595 0.0
C2984 C 0.92384 0.29803 0.31609 0.0
C2985 C 0.91559 0.30963 0.31233 0.0
C2986 C 0.91877 0.31699 0.29984 0.0
C2987 C 0.92973 0.31284 0.29122 0.0
C2988 C 0.93754 0.30132 0.2952 0.0
C2989 C 0.93475 0.29403 0.30736 0.0
C2990 C 0.94423 0.28156 0.30886 0.0
C2991 C 0.95377 0.283 0.32178 0.0
C2992 C 0.9356 0.26791 0.30933 0.0
C2993 C 0.95258 0.28281 0.2955 0.0
C2994 C 0.94861 0.29435 0.28782 0.0
C2995 C 0.95412 0.29717 0.27465 0.0
C2996 C 0.96368 0.28781 0.26907 0.0
C2997 C 0.96773 0.27583 0.27667 0.0
C2998 C 0.96228 0.27345 0.29015 0.0
H2999 H 0.79731 0.4124 0.71275 0.0
H3000 H 0.83979 0.42834 0.71781 0.0
H3001 H 0.83086 0.44894 0.72981 0.0
H3002 H 0.7808 0.44627 0.70719 0.0
H3003 H 0.76538 0.44142 0.71688 0.0
H3004 H 0.77499 0.42833 0.7078 0.0
H3005 H 0.7776 0.41427 0.73081 0.0
H3006 H 0.768 0.42729 0.73994 0.0
H3007 H 0.78523 0.42259 0.74593 0.0
H3008 H 0.81756 0.4669 0.74301 0.0
H3009 H 0.80093 0.48081 0.75626 0.0
H3010 H 0.76682 0.45399 0.74181 0.0
C3011 C 0.80473 0.42026 0.71631 0.0
C3012 C 0.81928 0.41874 0.71419 0.0
C3013 C 0.8286 0.42933 0.71902 0.0
C3014 C 0.82363 0.44107 0.72593 0.0
C3015 C 0.80927 0.4422 0.7279 0.0
C3016 C 0.79994 0.43212 0.72317 0.0
C3017 C 0.78505 0.43565 0.72707 0.0
C3018 C 0.77603 0.43806 0.71395 0.0
C3019 C 0.77859 0.42427 0.7365 0.0
C3020 C 0.78754 0.44911 0.735 0.0
C3021 C 0.80157 0.45273 0.7353 0.0
C3022 C 0.8065 0.4643 0.74264 0.0
C3023 C 0.7969 0.47225 0.75006 0.0
C3024 C 0.78243 0.46869 0.75009 0.0
C3025 C 0.77777 0.45706 0.74216 0.0
H3026 H 0.1106 0.30493 0.71992 0.0
H3027 H 0.08482 0.31587 0.68414 0.0
H3028 H 0.06399 0.30619 0.69611 0.0
H3029 H 0.09364 0.27275 0.72758 0.0
H3030 H 0.09509 0.27455 0.74625 0.0
H3031 H 0.10782 0.28286 0.7351 0.0
H3032 H 0.10266 0.30671 0.74626 0.0
H3033 H 0.08995 0.29845 0.7575 0.0
H3034 H 0.08493 0.31284 0.74649 0.0
H3035 H 0.04589 0.29463 0.71201 0.0
H3036 H 0.03245 0.2819 0.73022 0.0
H3037 H 0.07019 0.27912 0.75552 0.0
C3038 C 0.10055 0.3055 0.71467 0.0
C3039 C 0.09939 0.31119 0.70107 0.0
C3040 C 0.08604 0.31145 0.69449 0.0
C3041 C 0.07411 0.30605 0.70125 0.0
C3042 C 0.07566 0.30041 0.7146 0.0
C3043 C 0.08856 0.30013 0.72123 0.0
C3044 C 0.08752 0.29315 0.73541 0.0
C3045 C 0.09655 0.28005 0.73612 0.0
C3046 C 0.0915 0.3034 0.7471 0.0
C3047 C 0.07207 0.28944 0.73567 0.0
C3048 C 0.06535 0.29375 0.72363 0.0
C3049 C 0.05105 0.29125 0.72151 0.0
C3050 C 0.04349 0.28406 0.73192 0.0
C3051 C 0.05025 0.27938 0.74426 0.0
C3052 C 0.06471 0.28231 0.74612 0.0
H3053 H 0.90563 0.71449 0.71931 0.0
H3054 H 0.92909 0.70677 0.68166 0.0
H3055 H 0.95043 0.71643 0.69295 0.0
H3056 H 0.92173 0.74704 0.72738 0.0
H3057 H 0.92172 0.74415 0.74598 0.0
H3058 H 0.90855 0.73591 0.73517 0.0
H3059 H 0.91553 0.71176 0.74496 0.0
H3060 H 0.92871 0.71994 0.75582 0.0
H3061 H 0.93349 0.70642 0.74391 0.0
H3062 H 0.96921 0.72797 0.70832 0.0
H3063 H 0.98338 0.74036 0.7263 0.0
H3064 H 0.94739 0.74035 0.75356 0.0
C3065 C 0.91524 0.71483 0.71341 0.0
C3066 C 0.91564 0.70982 0.69958 0.0
C3067 C 0.92852 0.71034 0.69232 0.0
C3068 C 0.9407 0.71588 0.69863 0.0
C3069 C 0.93989 0.72083 0.71223 0.0
C3070 C 0.92748 0.7203 0.71953 0.0
C3071 C 0.92926 0.72654 0.73391 0.0
C3072 C 0.91975 0.73916 0.73571 0.0
C3073 C 0.92659 0.7155 0.74532 0.0
C3074 C 0.94453 0.7309 0.73348 0.0
C3075 C 0.95056 0.72746 0.72096 0.0
C3076 C 0.96458 0.73066 0.71819 0.0
C3077 C 0.97257 0.73766 0.72846 0.0
C3078 C 0.96649 0.74147 0.74127 0.0
C3079 C 0.95232 0.73783 0.74378 0.0
H3080 H 0.71752 0.19233 0.59525 0.0
H3081 H 0.6902 0.22408 0.61122 0.0
H3082 H 0.69864 0.2404 0.59308 0.0
H3083 H 0.74634 0.21476 0.58878 0.0
H3084 H 0.75168 0.2061 0.57312 0.0
H3085 H 0.74246 0.19649 0.58644 0.0
H3086 H 0.72369 0.18893 0.56824 0.0
H3087 H 0.73283 0.19861 0.55486 0.0
H3088 H 0.71468 0.202 0.5582 0.0
H3089 H 0.71161 0.25402 0.57467 0.0
H3090 H 0.72834 0.26389 0.55757 0.0
H3091 H 0.74725 0.22347 0.55337 0.0
C3092 C 0.71324 0.20269 0.59493 0.0
C3093 C 0.70308 0.20683 0.6047 0.0
C3094 C 0.69776 0.2205 0.60376 0.0
C3095 C 0.70254 0.2299 0.5935 0.0
C3096 C 0.71263 0.2255 0.58415 0.0
C3097 C 0.7179 0.21221 0.58474 0.0
C3098 C 0.72925 0.21035 0.57396 0.0
C3099 C 0.74326 0.20672 0.581 0.0
C3100 C 0.72484 0.19932 0.56318 0.0
C3101 C 0.72978 0.22478 0.56743 0.0
C3102 C 0.72001 0.23333 0.5734 0.0
C3103 C 0.71913 0.24737 0.56978 0.0
C3104 C 0.72864 0.25288 0.56004 0.0
C3105 C 0.73889 0.24439 0.55398 0.0
C3106 C 0.73926 0.2301 0.55754 0.0
H3107 H 0.30362 0.22274 0.61373 0.0
H3108 H 0.30819 0.18546 0.58897 0.0
H3109 H 0.29837 0.1977 0.56848 0.0
H3110 H 0.27123 0.23321 0.59904 0.0
H3111 H 0.27542 0.25157 0.59932 0.0
H3112 H 0.28331 0.24007 0.61191 0.0
H3113 H 0.30798 0.24848 0.60424 0.0
H3114 H 0.30016 0.26008 0.59167 0.0
H3115 H 0.31272 0.24752 0.58611 0.0
H3116 H 0.28731 0.21389 0.55075 0.0
H3117 H 0.27591 0.23274 0.53736 0.0
H3118 H 0.27925 0.25954 0.57355 0.0
C3119 C 0.30276 0.2172 0.60395 0.0
C3120 C 0.30667 0.2031 0.60301 0.0
C3121 C 0.30512 0.1962 0.59004 0.0
C3122 C 0.29962 0.20309 0.5783 0.0
C3123 C 0.29573 0.21692 0.57964 0.0
C3124 C 0.29728 0.22392 0.59213 0.0
C3125 C 0.292 0.23867 0.59088 0.0
C3126 C 0.27976 0.24101 0.60088 0.0
C3127 C 0.30393 0.24931 0.59337 0.0
C3128 C 0.28712 0.23882 0.5758 0.0
C3129 C 0.2894 0.22621 0.56946 0.0
C3130 C 0.28554 0.22384 0.5556 0.0
C3131 C 0.27912 0.23463 0.54805 0.0
C3132 C 0.27658 0.24763 0.55437 0.0
C3133 C 0.28079 0.24969 0.56842 0.0
H3134 H 0.30471 0.79866 0.61259 0.0
H3135 H 0.31688 0.83453 0.58749 0.0
H3136 H 0.30706 0.82304 0.56651 0.0
H3137 H 0.31193 0.7725 0.58666 0.0
H3138 H 0.29712 0.7617 0.59145 0.0
H3139 H 0.30559 0.7726 0.60432 0.0
H3140 H 0.28188 0.7841 0.60959 0.0
H3141 H 0.27336 0.77327 0.59672 0.0
H3142 H 0.27206 0.79193 0.59553 0.0
H3143 H 0.29483 0.80774 0.54822 0.0
H3144 H 0.28163 0.79001 0.53456 0.0
H3145 H 0.27809 0.76422 0.57175 0.0
C3146 C 0.30531 0.80413 0.6027 0.0
C3147 C 0.31162 0.81752 0.60174 0.0
C3148 C 0.31229 0.8242 0.58851 0.0
C3149 C 0.30667 0.81778 0.57652 0.0
C3150 C 0.30044 0.80463 0.57787 0.0
C3151 C 0.2998 0.79786 0.59063 0.0
C3152 C 0.29242 0.78386 0.58937 0.0
C3153 C 0.30236 0.77196 0.59317 0.0
C3154 C 0.27914 0.78327 0.59833 0.0
C3155 C 0.28883 0.78386 0.57394 0.0
C3156 C 0.29354 0.79589 0.56744 0.0
C3157 C 0.29117 0.79825 0.55322 0.0
C3158 C 0.2837 0.78809 0.54552 0.0
C3159 C 0.27866 0.77574 0.55204 0.0
C3160 C 0.28149 0.77364 0.56643 0.0
H3161 H 0.70983 0.80241 0.60893 0.0
H3162 H 0.71542 0.84497 0.59429 0.0
H3163 H 0.72724 0.83649 0.57333 0.0
H3164 H 0.74296 0.79043 0.59814 0.0
H3165 H 0.73668 0.77345 0.59291 0.0
H3166 H 0.72777 0.78274 0.60636 0.0
H3167 H 0.70454 0.7806 0.59235 0.0
H3168 H 0.71339 0.7713 0.57885 0.0
H3169 H 0.70385 0.7868 0.57457 0.0
H3170 H 0.74004 0.82364 0.55482 0.0
H3171 H 0.75276 0.80736 0.54007 0.0
H3172 H 0.73819 0.77287 0.56598 0.0
C3173 C 0.71349 0.80994 0.60129 0.0
C3174 C 0.71155 0.82438 0.60326 0.0
C3175 C 0.71649 0.83386 0.59295 0.0
C3176 C 0.7233 0.82915 0.58101 0.0
C3177 C 0.72508 0.81489 0.57943 0.0
C3178 C 0.72027 0.80541 0.58924 0.0
C3179 C 0.72394 0.79067 0.58519 0.0
C3180 C 0.7334 0.78393 0.59631 0.0
C3181 C 0.71064 0.78182 0.58258 0.0
C3182 C 0.7318 0.7934 0.57172 0.0
C3183 C 0.73228 0.80744 0.56857 0.0
C3184 C 0.73953 0.81259 0.55705 0.0
C3185 C 0.74665 0.80318 0.54862 0.0
C3186 C 0.74645 0.7887 0.55166 0.0
C3187 C 0.73867 0.78382 0.56331 0.0
H3188 H 0.72114 0.82909 0.42379 0.0
H3189 H 0.69048 0.79811 0.41016 0.0
H3190 H 0.69788 0.78254 0.42927 0.0
H3191 H 0.74792 0.80539 0.43135 0.0
H3192 H 0.75462 0.81465 0.44633 0.0
H3193 H 0.74586 0.82396 0.43255 0.0
H3194 H 0.72852 0.8338 0.45049 0.0
H3195 H 0.73719 0.82441 0.46432 0.0
H3196 H 0.71865 0.82198 0.46145 0.0
H3197 H 0.71013 0.76934 0.4483 0.0
H3198 H 0.7267 0.75942 0.46553 0.0
H3199 H 0.7494 0.79877 0.46699 0.0
C3200 C 0.71591 0.81907 0.42484 0.0
C3201 C 0.70511 0.81493 0.41545 0.0
C3202 C 0.69855 0.80171 0.41732 0.0
C3203 C 0.70273 0.79274 0.42815 0.0
C3204 C 0.71345 0.79711 0.43711 0.0
C3205 C 0.71996 0.80996 0.43559 0.0
C3206 C 0.73182 0.81177 0.44607 0.0
C3207 C 0.74588 0.81407 0.43863 0.0
C3208 C 0.72886 0.8237 0.45618 0.0
C3209 C 0.73121 0.79778 0.45349 0.0
C3210 C 0.72044 0.78952 0.44823 0.0
C3211 C 0.71842 0.77579 0.45267 0.0
C3212 C 0.72784 0.77025 0.46247 0.0
C3213 C 0.7391 0.77843 0.46778 0.0
C3214 C 0.7406 0.79246 0.46343 0.0
H3215 H 0.70405 0.22772 0.41159 0.0
H3216 H 0.70658 0.18411 0.4233 0.0
H3217 H 0.72017 0.19061 0.44436 0.0
H3218 H 0.73833 0.23761 0.4225 0.0
H3219 H 0.73341 0.25441 0.42891 0.0
H3220 H 0.72346 0.24635 0.41503 0.0
H3221 H 0.70084 0.24843 0.42952 0.0
H3222 H 0.71073 0.25647 0.44346 0.0
H3223 H 0.70023 0.2411 0.44687 0.0
H3224 H 0.7343 0.20185 0.46377 0.0
H3225 H 0.74848 0.21677 0.47941 0.0
H3226 H 0.73579 0.25319 0.4557 0.0
C3227 C 0.70728 0.21953 0.41866 0.0
C3228 C 0.70422 0.20537 0.41571 0.0
C3229 C 0.70893 0.195 0.42517 0.0
C3230 C 0.71655 0.1986 0.43725 0.0
C3231 C 0.71938 0.21264 0.43981 0.0
C3232 C 0.71489 0.22294 0.43078 0.0
C3233 C 0.7197 0.23721 0.43571 0.0
C3234 C 0.7293 0.24431 0.42489 0.0
C3235 C 0.70712 0.24634 0.43909 0.0
C3236 C 0.72775 0.23332 0.44883 0.0
C3237 C 0.72737 0.21911 0.45106 0.0
C3238 C 0.73452 0.21301 0.46221 0.0
C3239 C 0.74247 0.22163 0.47115 0.0
C3240 C 0.74325 0.23624 0.46893 0.0
C3241 C 0.73551 0.24209 0.45772 0.0
H3242 H 0.30128 0.2065 0.41822 0.0
H3243 H 0.3434 0.2211 0.42815 0.0
H3244 H 0.33449 0.23332 0.44867 0.0
H3245 H 0.28433 0.23771 0.4267 0.0
H3246 H 0.26906 0.22932 0.43404 0.0
H3247 H 0.27888 0.22067 0.42082 0.0
H3248 H 0.28194 0.19942 0.43728 0.0
H3249 H 0.27215 0.20804 0.45058 0.0
H3250 H 0.2895 0.20191 0.45439 0.0
H3251 H 0.32085 0.24563 0.46695 0.0
H3252 H 0.30351 0.25736 0.48135 0.0
H3253 H 0.27015 0.23426 0.4603 0.0
C3254 C 0.30865 0.2122 0.42474 0.0
C3255 C 0.3231 0.21268 0.42157 0.0
C3256 C 0.33235 0.22028 0.43046 0.0
C3257 C 0.32738 0.22733 0.44214 0.0
C3258 C 0.3131 0.22668 0.44491 0.0
C3259 C 0.30386 0.21928 0.4365 0.0
C3260 C 0.28893 0.22081 0.44146 0.0
C3261 C 0.27976 0.22753 0.43008 0.0
C3262 C 0.28277 0.2067 0.44621 0.0
C3263 C 0.29121 0.23051 0.45374 0.0
C3264 C 0.30523 0.23367 0.45561 0.0
C3265 C 0.30985 0.24304 0.46575 0.0
C3266 C 0.29986 0.24958 0.474 0.0
C3267 C 0.28535 0.24673 0.47215 0.0
C3268 C 0.2811 0.23678 0.46203 0.0
H3269 H 0.30428 0.80009 0.40879 0.0
H3270 H 0.31631 0.83545 0.43441 0.0
H3271 H 0.30644 0.82353 0.45509 0.0
H3272 H 0.27194 0.79267 0.42517 0.0
H3273 H 0.27334 0.77403 0.42402 0.0
H3274 H 0.28189 0.78507 0.41134 0.0
H3275 H 0.30564 0.77367 0.41715 0.0
H3276 H 0.29714 0.76252 0.42979 0.0
H3277 H 0.31185 0.77333 0.43496 0.0
H3278 H 0.29434 0.80794 0.47299 0.0
H3279 H 0.2812 0.78999 0.48638 0.0
H3280 H 0.2779 0.76464 0.44914 0.0
C3281 C 0.30507 0.80525 0.41878 0.0
C3282 C 0.31107 0.81875 0.41991 0.0
C3283 C 0.31162 0.82519 0.43319 0.0
C3284 C 0.3061 0.81847 0.44504 0.0
C3285 C 0.3001 0.80525 0.44351 0.0
C3286 C 0.29961 0.79868 0.43072 0.0
C3287 C 0.2923 0.78461 0.43181 0.0
C3288 C 0.27908 0.78407 0.42254 0.0
C3289 C 0.30234 0.77284 0.42822 0.0
C3290 C 0.28861 0.78436 0.44716 0.0
C3291 C 0.29322 0.79632 0.45377 0.0
C3292 C 0.29076 0.79849 0.46792 0.0
C3293 C 0.28333 0.78821 0.47547 0.0
C3294 C 0.27839 0.7759 0.46886 0.0
C3295 C 0.28126 0.774 0.45452 0.0
H3296 H 0.60341 0.22429 0.70272 0.0
H3297 H 0.59229 0.18067 0.7085 0.0
H3298 H 0.57215 0.18737 0.72283 0.0
H3299 H 0.59499 0.23528 0.73682 0.0
H3300 H 0.58812 0.25179 0.73127 0.0
H3301 H 0.60131 0.24352 0.72109 0.0
H3302 H 0.58512 0.24456 0.69929 0.0
H3303 H 0.57185 0.25281 0.70943 0.0
H3304 H 0.56776 0.23701 0.7001 0.0
H3305 H 0.55352 0.19899 0.73732 0.0
H3306 H 0.53886 0.21435 0.75143 0.0
H3307 H 0.56156 0.25037 0.73523 0.0
C3308 C 0.59664 0.21612 0.70681 0.0
C3309 C 0.59949 0.20191 0.70441 0.0
C3310 C 0.59048 0.1916 0.71028 0.0
C3311 C 0.57892 0.19532 0.71835 0.0
C3312 C 0.57642 0.20941 0.72047 0.0
C3313 C 0.58506 0.21964 0.71487 0.0
C3314 C 0.58039 0.23401 0.71906 0.0
C3315 C 0.59189 0.24159 0.72757 0.0
C3316 C 0.57602 0.2426 0.7062 0.0
C3317 C 0.56788 0.23029 0.72804 0.0
C3318 C 0.5657 0.21605 0.72867 0.0
C3319 C 0.55507 0.21016 0.73678 0.0
C3320 C 0.54668 0.219 0.74468 0.0
C3321 C 0.54895 0.23363 0.74447 0.0
C3322 C 0.55955 0.23926 0.73575 0.0
H3323 H 0.30001 0.11036 0.71259 0.0
H3324 H 0.34214 0.09415 0.71394 0.0
H3325 H 0.33343 0.07312 0.72612 0.0
H3326 H 0.29016 0.09889 0.74638 0.0
H3327 H 0.27237 0.09442 0.74163 0.0
H3328 H 0.28168 0.10781 0.73211 0.0
H3329 H 0.27681 0.09466 0.70901 0.0
H3330 H 0.26747 0.08123 0.71848 0.0
H3331 H 0.28192 0.07676 0.7075 0.0
H3332 H 0.32063 0.05479 0.73986 0.0
H3333 H 0.30464 0.04032 0.75394 0.0
H3334 H 0.27038 0.06759 0.74283 0.0
C3335 C 0.30739 0.10235 0.71538 0.0
C3336 C 0.32177 0.10391 0.71218 0.0
C3337 C 0.33106 0.09314 0.71601 0.0
C3338 C 0.32622 0.08116 0.72301 0.0
C3339 C 0.31203 0.07999 0.72606 0.0
C3340 C 0.30272 0.09025 0.72231 0.0
C3341 C 0.28807 0.08658 0.72726 0.0
C3342 C 0.28276 0.09758 0.73745 0.0
C3343 C 0.27797 0.08469 0.71482 0.0
C3344 C 0.29068 0.07282 0.73463 0.0
C3345 C 0.30456 0.06921 0.73376 0.0
C3346 C 0.30967 0.05738 0.7404 0.0
C3347 C 0.30041 0.04911 0.7483 0.0
C3348 C 0.28609 0.05259 0.74947 0.0
C3349 C 0.28122 0.06456 0.74228 0.0
H3350 H 0.40741 0.80537 0.72255 0.0
H3351 H 0.43165 0.81401 0.68532 0.0
H3352 H 0.45251 0.80405 0.69676 0.0
H3353 H 0.43513 0.81299 0.74756 0.0
H3354 H 0.42985 0.79919 0.75931 0.0
H3355 H 0.41703 0.8075 0.74833 0.0
H3356 H 0.40957 0.78349 0.7383 0.0
H3357 H 0.42239 0.77513 0.74922 0.0
H3358 H 0.42257 0.77261 0.7306 0.0
H3359 H 0.47067 0.79214 0.71217 0.0
H3360 H 0.48436 0.7796 0.73021 0.0
H3361 H 0.44819 0.77923 0.75729 0.0
C3362 C 0.41709 0.80517 0.71677 0.0
C3363 C 0.41784 0.81054 0.70301 0.0
C3364 C 0.43081 0.81017 0.69592 0.0
C3365 C 0.44272 0.80445 0.70232 0.0
C3366 C 0.44157 0.79916 0.71585 0.0
C3367 C 0.42908 0.79954 0.723 0.0
C3368 C 0.43053 0.79303 0.73737 0.0
C3369 C 0.42799 0.80382 0.74882 0.0
C3370 C 0.42068 0.78031 0.73896 0.0
C3371 C 0.44572 0.78877 0.73713 0.0
C3372 C 0.45195 0.79241 0.72465 0.0
C3373 C 0.4659 0.7893 0.72201 0.0
C3374 C 0.47362 0.78223 0.73234 0.0
C3375 C 0.46738 0.77828 0.74517 0.0
C3376 C 0.45326 0.7818 0.74753 0.0
H3377 H 0.70963 0.90712 0.73198 0.0
H3378 H 0.69888 0.92874 0.69356 0.0
H3379 H 0.71103 0.94995 0.70225 0.0
H3380 H 0.70458 0.9359 0.75486 0.0
H3381 H 0.71901 0.93149 0.76619 0.0
H3382 H 0.70976 0.91802 0.75673 0.0
H3383 H 0.73307 0.91015 0.74589 0.0
H3384 H 0.74239 0.92359 0.75531 0.0
H3385 H 0.74381 0.92265 0.7366 0.0
H3386 H 0.72401 0.96921 0.71575 0.0
H3387 H 0.7374 0.98416 0.73231 0.0
H3388 H 0.73901 0.94973 0.76175 0.0
C3389 C 0.70975 0.91632 0.72539 0.0
C3390 C 0.70325 0.91622 0.71207 0.0
C3391 C 0.7039 0.92847 0.70373 0.0
C3392 C 0.7107 0.94061 0.70862 0.0
C3393 C 0.71687 0.94036 0.72186 0.0
C3394 C 0.71649 0.92848 0.73008 0.0
C3395 C 0.72389 0.93084 0.74391 0.0
C3396 C 0.7137 0.92895 0.75614 0.0
C3397 C 0.73654 0.92124 0.74551 0.0
C3398 C 0.72848 0.9459 0.74224 0.0
C3399 C 0.72433 0.95127 0.72948 0.0
C3400 C 0.72734 0.96507 0.72574 0.0
C3401 C 0.73489 0.97351 0.73522 0.0
C3402 C 0.73942 0.9681 0.74826 0.0
C3403 C 0.73599 0.95413 0.75176 0.0
H3404 H 0.60599 0.80891 0.30142 0.0
H3405 H 0.59025 0.80341 0.34349 0.0
H3406 H 0.56939 0.79118 0.33415 0.0
H3407 H 0.57184 0.81387 0.28433 0.0
H3408 H 0.57658 0.80429 0.26902 0.0
H3409 H 0.58983 0.81361 0.27886 0.0
H3410 H 0.60392 0.79094 0.28167 0.0
H3411 H 0.59074 0.78157 0.27185 0.0
H3412 H 0.59556 0.7757 0.2891 0.0
H3413 H 0.55131 0.77775 0.3206 0.0
H3414 H 0.53722 0.7642 0.30384 0.0
H3415 H 0.56388 0.7791 0.2702 0.0
C3416 C 0.59811 0.80521 0.30866 0.0
C3417 C 0.59976 0.80726 0.32321 0.0
C3418 C 0.58916 0.80225 0.3323 0.0
C3419 C 0.57727 0.79522 0.3271 0.0
C3420 C 0.57603 0.7933 0.31275 0.0
C3421 C 0.58612 0.7982 0.30364 0.0
C3422 C 0.58247 0.79425 0.28872 0.0
C3423 C 0.58004 0.80729 0.2797 0.0
C3424 C 0.59385 0.78507 0.28248 0.0
C3425 C 0.56895 0.78608 0.29094 0.0
C3426 C 0.5654 0.78574 0.30487 0.0
C3427 C 0.55383 0.77817 0.30962 0.0
C3428 C 0.54577 0.77058 0.29993 0.0
C3429 C 0.54921 0.77063 0.28554 0.0
C3430 C 0.56088 0.77874 0.28107 0.0
H3431 H 0.71319 0.10786 0.30224 0.0
H3432 H 0.71237 0.08975 0.34385 0.0
H3433 H 0.72324 0.06855 0.33495 0.0
H3434 H 0.70584 0.07477 0.28343 0.0
H3435 H 0.71735 0.07938 0.26927 0.0
H3436 H 0.70847 0.09279 0.27864 0.0
H3437 H 0.73229 0.10493 0.28398 0.0
H3438 H 0.74123 0.09153 0.27472 0.0
H3439 H 0.74591 0.09524 0.29258 0.0
H3440 H 0.73638 0.05041 0.32226 0.0
H3441 H 0.75014 0.03614 0.30649 0.0
H3442 H 0.741 0.06477 0.2724 0.0
C3443 C 0.71502 0.09932 0.30941 0.0
C3444 C 0.71201 0.10058 0.3238 0.0
C3445 C 0.71478 0.08919 0.33285 0.0
C3446 C 0.72087 0.07703 0.32787 0.0
C3447 C 0.72402 0.07626 0.31375 0.0
C3448 C 0.72107 0.08701 0.30459 0.0
C3449 C 0.72609 0.08367 0.29001 0.0
C3450 C 0.7137 0.08259 0.27973 0.0
C3451 C 0.73703 0.09449 0.28504 0.0
C3452 C 0.73263 0.06956 0.29253 0.0
C3453 C 0.73125 0.06548 0.30629 0.0
C3454 C 0.73725 0.05333 0.31137 0.0
C3455 C 0.74498 0.04517 0.30222 0.0
C3456 C 0.74663 0.04906 0.288 0.0
C3457 C 0.74009 0.06139 0.28315 0.0
H3458 H 0.40975 0.2013 0.29306 0.0
H3459 H 0.42036 0.20682 0.33683 0.0
H3460 H 0.44135 0.22051 0.33016 0.0
H3461 H 0.44561 0.19772 0.2808 0.0
H3462 H 0.44233 0.20711 0.26479 0.0
H3463 H 0.42838 0.19734 0.27299 0.0
H3464 H 0.41327 0.21948 0.27351 0.0
H3465 H 0.42715 0.2293 0.26529 0.0
H3466 H 0.42019 0.23501 0.28166 0.0
H3467 H 0.46069 0.23454 0.3187 0.0
H3468 H 0.47631 0.24834 0.30346 0.0
H3469 H 0.4539 0.2326 0.26709 0.0
C3470 C 0.41658 0.2052 0.30127 0.0
C3471 C 0.41332 0.20296 0.3155 0.0
C3472 C 0.42246 0.20852 0.32586 0.0
C3473 C 0.4345 0.21622 0.32217 0.0
C3474 C 0.43737 0.21824 0.30806 0.0
C3475 C 0.42867 0.21287 0.29777 0.0
C3476 C 0.43386 0.21694 0.28337 0.0
C3477 C 0.43778 0.20401 0.275 0.0
C3478 C 0.42297 0.2257 0.2755 0.0
C3479 C 0.44673 0.22558 0.28719 0.0
C3480 C 0.44861 0.22614 0.30147 0.0
C3481 C 0.45942 0.23402 0.30749 0.0
C3482 C 0.46835 0.24175 0.2987 0.0
C3483 C 0.46649 0.24157 0.28399 0.0
C3484 C 0.45565 0.23309 0.27825 0.0
H3485 H 0.29965 0.90656 0.30448 0.0
H3486 H 0.33347 0.93202 0.32154 0.0
H3487 H 0.32197 0.95316 0.31249 0.0
H3488 H 0.29522 0.92564 0.27299 0.0
H3489 H 0.27645 0.92358 0.27256 0.0
H3490 H 0.287 0.91063 0.28103 0.0
H3491 H 0.27306 0.91363 0.30386 0.0
H3492 H 0.26243 0.92658 0.29543 0.0
H3493 H 0.27168 0.93069 0.31138 0.0
H3494 H 0.30703 0.97163 0.30032 0.0
H3495 H 0.29009 0.98538 0.28642 0.0
H3496 H 0.2661 0.9476 0.278 0.0
C3497 C 0.30466 0.91657 0.30633 0.0
C3498 C 0.31749 0.91758 0.31374 0.0
C3499 C 0.32357 0.93095 0.31605 0.0
C3500 C 0.31714 0.94303 0.31089 0.0
C3501 C 0.30456 0.94162 0.30351 0.0
C3502 C 0.29837 0.92871 0.30131 0.0
C3503 C 0.28498 0.92992 0.29287 0.0
C3504 C 0.28598 0.92197 0.27904 0.0
C3505 C 0.27229 0.92491 0.3014 0.0
C3506 C 0.28472 0.9455 0.29043 0.0
C3507 C 0.29604 0.95213 0.29666 0.0
C3508 C 0.29809 0.96652 0.29547 0.0
C3509 C 0.28838 0.97427 0.2876 0.0
C3510 C 0.27681 0.96761 0.28096 0.0
C3511 C 0.27495 0.95304 0.28266 0.0
H3512 H 0.71583 0.10318 0.70398 0.0
H3513 H 0.67392 0.0857 0.70824 0.0
H3514 H 0.68365 0.06486 0.71961 0.0
H3515 H 0.73385 0.06972 0.6983 0.0
H3516 H 0.74895 0.07512 0.7084 0.0
H3517 H 0.7389 0.08787 0.69896 0.0
H3518 H 0.73542 0.10166 0.72178 0.0
H3519 H 0.7455 0.08902 0.73125 0.0
H3520 H 0.72801 0.09289 0.73675 0.0
H3521 H 0.69761 0.04726 0.73319 0.0
H3522 H 0.71443 0.03492 0.74823 0.0
H3523 H 0.74751 0.06313 0.73442 0.0
C3524 C 0.7087 0.09491 0.70715 0.0
C3525 C 0.69408 0.09611 0.70506 0.0
C3526 C 0.68516 0.08498 0.70941 0.0
C3527 C 0.6906 0.07308 0.71594 0.0
C3528 C 0.70502 0.07232 0.71798 0.0
C3529 C 0.71396 0.08291 0.71365 0.0
C3530 C 0.72893 0.07999 0.71799 0.0
C3531 C 0.7382 0.07806 0.70515 0.0
C3532 C 0.7348 0.09157 0.72751 0.0
C3533 C 0.72693 0.0664 0.72591 0.0
C3534 C 0.7131 0.06204 0.72565 0.0
C3535 C 0.70853 0.05041 0.73323 0.0
C3536 C 0.71824 0.04335 0.74168 0.0
C3537 C 0.7324 0.04794 0.74255 0.0
C3538 C 0.7368 0.05931 0.73407 0.0
H3539 H 0.71208 0.91988 0.31873 0.0
H3540 H 0.68403 0.9114 0.28386 0.0
H3541 H 0.69591 0.92971 0.27004 0.0
H3542 H 0.71467 0.95756 0.31336 0.0
H3543 H 0.73295 0.95852 0.31808 0.0
H3544 H 0.72182 0.94519 0.32561 0.0
H3545 H 0.73846 0.92619 0.3168 0.0
H3546 H 0.74967 0.93945 0.30934 0.0
H3547 H 0.74276 0.92563 0.29854 0.0
H3548 H 0.71182 0.94763 0.25931 0.0
H3549 H 0.73076 0.96418 0.25257 0.0
H3550 H 0.74815 0.9618 0.29438 0.0
C3551 C 0.70842 0.92191 0.30821 0.0
C3552 C 0.69702 0.91425 0.30245 0.0
C3553 C 0.69255 0.91727 0.28862 0.0
C3554 C 0.69928 0.92763 0.28065 0.0
C3555 C 0.71043 0.93499 0.28664 0.0
C3556 C 0.71497 0.93232 0.30011 0.0
C3557 C 0.72749 0.94151 0.30386 0.0
C3558 C 0.72402 0.95127 0.31594 0.0
C3559 C 0.74035 0.93266 0.30733 0.0
C3560 C 0.72941 0.94956 0.29032 0.0
C3561 C 0.71943 0.94564 0.28053 0.0
C3562 C 0.71955 0.95095 0.26695 0.0
C3563 C 0.73029 0.96035 0.26322 0.0
C3564 C 0.74064 0.96445 0.27305 0.0
C3565 C 0.74008 0.95912 0.28682 0.0
H3566 H 0.61302 0.2182 0.30384 0.0
H3567 H 0.5887 0.18085 0.31333 0.0
H3568 H 0.56746 0.19207 0.30403 0.0
H3569 H 0.58625 0.24286 0.31245 0.0
H3570 H 0.59087 0.25467 0.29849 0.0
H3571 H 0.60401 0.24379 0.30629 0.0
H3572 H 0.6098 0.2339 0.28196 0.0
H3573 H 0.59666 0.24472 0.27409 0.0
H3574 H 0.596 0.22616 0.27151 0.0
H3575 H 0.54882 0.20736 0.29284 0.0
H3576 H 0.53466 0.22532 0.28092 0.0
H3577 H 0.57127 0.25258 0.27921 0.0
C3578 C 0.60324 0.21234 0.30394 0.0
C3579 C 0.60258 0.19862 0.30937 0.0
C3580 C 0.58949 0.19143 0.30942 0.0
C3581 C 0.57736 0.1977 0.30408 0.0
C3582 C 0.57842 0.21121 0.29875 0.0
C3583 C 0.59104 0.21845 0.29869 0.0
C3584 C 0.58943 0.23279 0.29228 0.0
C3585 C 0.59284 0.2442 0.30302 0.0
C3586 C 0.59851 0.23449 0.27918 0.0
C3587 C 0.57399 0.23244 0.28857 0.0
C3588 C 0.56777 0.21993 0.2924 0.0
C3589 C 0.55359 0.21721 0.28984 0.0
C3590 C 0.54561 0.2275 0.28312 0.0
C3591 C 0.55182 0.24035 0.27898 0.0
C3592 C 0.56619 0.2428 0.28194 0.0
H3593 H 0.30908 0.1069 0.3059 0.0
H3594 H 0.29579 0.0945 0.34741 0.0
H3595 H 0.28491 0.07316 0.33778 0.0
H3596 H 0.27869 0.09575 0.2882 0.0
H3597 H 0.28749 0.08951 0.27296 0.0
H3598 H 0.29534 0.10323 0.2832 0.0
H3599 H 0.31778 0.08873 0.28635 0.0
H3600 H 0.30998 0.07495 0.27608 0.0
H3601 H 0.31648 0.07133 0.29341 0.0
H3602 H 0.27367 0.05427 0.32353 0.0
H3603 H 0.26267 0.03935 0.30567 0.0
H3604 H 0.28425 0.06301 0.27334 0.0
C3605 C 0.30413 0.09955 0.313 0.0
C3606 C 0.30325 0.10244 0.32743 0.0
C3607 C 0.29645 0.09264 0.3363 0.0
C3608 C 0.29033 0.08042 0.33095 0.0
C3609 C 0.29117 0.07801 0.31668 0.0
C3610 C 0.29795 0.08724 0.30781 0.0
C3611 C 0.29666 0.08249 0.29278 0.0
C3612 C 0.28909 0.09339 0.28376 0.0
C3613 C 0.31109 0.07918 0.28681 0.0
C3614 C 0.28778 0.06937 0.29457 0.0
C3615 C 0.28484 0.06691 0.30845 0.0
C3616 C 0.27612 0.05593 0.31263 0.0
C3617 C 0.26999 0.0474 0.30236 0.0
C3618 C 0.2726 0.04982 0.28798 0.0
C3619 C 0.28192 0.06082 0.28417 0.0
H3620 H 0.41053 0.80922 0.30169 0.0
H3621 H 0.42538 0.80202 0.34402 0.0
H3622 H 0.44555 0.7894 0.33492 0.0
H3623 H 0.4193 0.77602 0.2885 0.0
H3624 H 0.42471 0.78239 0.27163 0.0
H3625 H 0.41187 0.79169 0.28136 0.0
H3626 H 0.4272 0.81412 0.27982 0.0
H3627 H 0.4401 0.80488 0.27008 0.0
H3628 H 0.4451 0.8138 0.28588 0.0
H3629 H 0.46317 0.77604 0.32144 0.0
H3630 H 0.477 0.76302 0.30459 0.0
H3631 H 0.45158 0.77958 0.27072 0.0
C3632 C 0.41805 0.80504 0.30904 0.0
C3633 C 0.41637 0.80677 0.3236 0.0
C3634 C 0.42652 0.80113 0.33283 0.0
C3635 C 0.438 0.79385 0.32776 0.0
C3636 C 0.43932 0.79232 0.3134 0.0
C3637 C 0.42966 0.79779 0.30415 0.0
C3638 C 0.43336 0.79428 0.28922 0.0
C3639 C 0.42161 0.78558 0.28227 0.0
C3640 C 0.43663 0.80756 0.28075 0.0
C3641 C 0.44641 0.78575 0.29156 0.0
C3642 C 0.44969 0.7848 0.30559 0.0
C3643 C 0.46085 0.7769 0.3104 0.0
C3644 C 0.46877 0.76962 0.30067 0.0
C3645 C 0.46561 0.77029 0.28618 0.0
C3646 C 0.45435 0.77871 0.28166 0.0
H3647 H 0.30215 0.91454 0.70609 0.0
H3648 H 0.34472 0.92652 0.7174 0.0
H3649 H 0.33592 0.94688 0.72986 0.0
H3650 H 0.28901 0.95002 0.7014 0.0
H3651 H 0.27219 0.94578 0.70881 0.0
H3652 H 0.28184 0.93262 0.69988 0.0
H3653 H 0.28053 0.91675 0.72181 0.0
H3654 H 0.27088 0.92985 0.73078 0.0
H3655 H 0.28683 0.9233 0.73832 0.0
H3656 H 0.32252 0.96482 0.74279 0.0
H3657 H 0.30553 0.97902 0.75518 0.0
H3658 H 0.27148 0.95638 0.73469 0.0
C3659 C 0.30963 0.92149 0.71111 0.0
C3660 C 0.32418 0.91893 0.71061 0.0
C3661 C 0.33358 0.92834 0.71734 0.0
C3662 C 0.32867 0.93993 0.72453 0.0
C3663 C 0.31431 0.9421 0.72487 0.0
C3664 C 0.30491 0.9332 0.71829 0.0
C3665 C 0.28997 0.93767 0.7207 0.0
C3666 C 0.28283 0.94177 0.70687 0.0
C3667 C 0.28156 0.92621 0.72836 0.0
C3668 C 0.29244 0.95028 0.72992 0.0
C3669 C 0.30656 0.95268 0.73214 0.0
C3670 C 0.31143 0.96321 0.74093 0.0
C3671 C 0.30163 0.97135 0.74785 0.0
C3672 C 0.28703 0.96905 0.74592 0.0
C3673 C 0.2825 0.95848 0.73655 0.0
H3674 H 0.61307 0.80274 0.72187 0.0
H3675 H 0.58804 0.81535 0.68613 0.0
H3676 H 0.56688 0.80556 0.69742 0.0
H3677 H 0.59546 0.77025 0.72806 0.0
H3678 H 0.59666 0.77143 0.74679 0.0
H3679 H 0.60971 0.77986 0.73609 0.0
H3680 H 0.60481 0.80341 0.74798 0.0
H3681 H 0.59178 0.79504 0.75875 0.0
H3682 H 0.58721 0.80987 0.74814 0.0
H3683 H 0.54841 0.79355 0.71251 0.0
H3684 H 0.5344 0.78068 0.73014 0.0
H3685 H 0.57164 0.77638 0.75597 0.0
C3686 C 0.60315 0.80342 0.71639 0.0
C3687 C 0.60226 0.80986 0.7031 0.0
C3688 C 0.589 0.81065 0.69639 0.0
C3689 C 0.57692 0.80505 0.70268 0.0
C3690 C 0.57821 0.7987 0.71575 0.0
C3691 C 0.591 0.79793 0.72254 0.0
C3692 C 0.58961 0.79051 0.73646 0.0
C3693 C 0.59838 0.77723 0.73687 0.0
C3694 C 0.59358 0.80029 0.74855 0.0
C3695 C 0.57408 0.78707 0.73638 0.0
C3696 C 0.56765 0.7919 0.72438 0.0
C3697 C 0.55335 0.78978 0.72197 0.0
C3698 C 0.54546 0.78251 0.73207 0.0
C3699 C 0.55188 0.77739 0.74443 0.0
C3700 C 0.56639 0.77988 0.74655 0.0
H3701 H 0.41526 0.2039 0.71528 0.0
H3702 H 0.42114 0.22817 0.67735 0.0
H3703 H 0.44173 0.23984 0.68793 0.0
H3704 H 0.42345 0.23126 0.73867 0.0
H3705 H 0.4323 0.22038 0.75122 0.0
H3706 H 0.41875 0.21308 0.74023 0.0
H3707 H 0.43596 0.19451 0.73158 0.0
H3708 H 0.44961 0.20184 0.7425 0.0
H3709 H 0.45237 0.19999 0.72403 0.0
H3710 H 0.46061 0.25028 0.70322 0.0
H3711 H 0.47601 0.25887 0.72238 0.0
H3712 H 0.45804 0.22798 0.75031 0.0
C3713 C 0.42089 0.21163 0.70916 0.0
C3714 C 0.41659 0.21497 0.69539 0.0
C3715 C 0.42434 0.22516 0.68779 0.0
C3716 C 0.43605 0.23191 0.69373 0.0
C3717 C 0.43997 0.22839 0.70731 0.0
C3718 C 0.43263 0.21848 0.71494 0.0
C3719 C 0.43863 0.21711 0.72958 0.0
C3720 C 0.42763 0.22068 0.74057 0.0
C3721 C 0.44449 0.20249 0.73206 0.0
C3722 C 0.45028 0.22801 0.72908 0.0
C3723 C 0.45096 0.23432 0.7161 0.0
C3724 C 0.46034 0.24526 0.71335 0.0
C3725 C 0.46907 0.25003 0.72423 0.0
C3726 C 0.4684 0.24381 0.73761 0.0
C3727 C 0.459 0.23258 0.74001 0.0
H3728 H 0.72798 0.70694 0.10878 0.0
H3729 H 0.68399 0.71 0.09775 0.0
H3730 H 0.69032 0.72369 0.07677 0.0
H3731 H 0.73814 0.7411 0.09802 0.0
H3732 H 0.75486 0.736 0.09136 0.0
H3733 H 0.74684 0.72617 0.1053 0.0
H3734 H 0.74841 0.70368 0.09066 0.0
H3735 H 0.75641 0.71345 0.07666 0.0
H3736 H 0.74076 0.70322 0.07341 0.0
H3737 H 0.70156 0.73766 0.05713 0.0
H3738 H 0.7166 0.75145 0.04122 0.0
H3739 H 0.75328 0.73835 0.06456 0.0
C3740 C 0.71965 0.71033 0.10188 0.0
C3741 C 0.70545 0.70734 0.10499 0.0
C3742 C 0.69492 0.71226 0.09576 0.0
C3743 C 0.69843 0.71996 0.08372 0.0
C3744 C 0.71252 0.72266 0.08098 0.0
C3745 C 0.72296 0.718 0.08982 0.0
C3746 C 0.73729 0.72261 0.08472 0.0
C3747 C 0.74471 0.73203 0.09549 0.0
C3748 C 0.74624 0.70999 0.08115 0.0
C3749 C 0.73329 0.7307 0.0717 0.0
C3750 C 0.71896 0.73056 0.06966 0.0
C3751 C 0.7128 0.73772 0.05856 0.0
C3752 C 0.72147 0.74544 0.04948 0.0
C3753 C 0.73619 0.74598 0.05152 0.0
C3754 C 0.74209 0.73825 0.06269 0.0
H3755 H 0.30472 0.71869 0.10844 0.0
H3756 H 0.29573 0.67673 0.09405 0.0
H3757 H 0.28467 0.68622 0.07279 0.0
H3758 H 0.27328 0.73336 0.09722 0.0
H3759 H 0.28077 0.74982 0.09173 0.0
H3760 H 0.2892 0.73985 0.10525 0.0
H3761 H 0.31219 0.7401 0.09111 0.0
H3762 H 0.30382 0.75014 0.07755 0.0
H3763 H 0.31197 0.73392 0.07339 0.0
H3764 H 0.27246 0.70003 0.0544 0.0
H3765 H 0.26015 0.71721 0.03998 0.0
H3766 H 0.27834 0.75053 0.06507 0.0
C3767 C 0.30071 0.71151 0.10067 0.0
C3768 C 0.30103 0.69695 0.10298 0.0
C3769 C 0.29543 0.68792 0.09263 0.0
C3770 C 0.28922 0.6932 0.08045 0.0
C3771 C 0.28879 0.70758 0.07863 0.0
C3772 C 0.29447 0.71663 0.08838 0.0
C3773 C 0.29191 0.73164 0.08417 0.0
C3774 C 0.28328 0.7391 0.09525 0.0
C3775 C 0.3058 0.73941 0.08139 0.0
C3776 C 0.28357 0.72956 0.07077 0.0
C3777 C 0.28199 0.7156 0.06773 0.0
C3778 C 0.27388 0.71102 0.05648 0.0
C3779 C 0.267 0.72094 0.04823 0.0
C3780 C 0.26829 0.73537 0.05116 0.0
C3781 C 0.27699 0.73964 0.06247 0.0
H3782 H 0.2986 0.326 0.09874 0.0
H3783 H 0.32571 0.29436 0.11617 0.0
H3784 H 0.31806 0.27815 0.09769 0.0
H3785 H 0.27027 0.30334 0.09096 0.0
H3786 H 0.26533 0.31209 0.07501 0.0
H3787 H 0.27402 0.32167 0.08872 0.0
H3788 H 0.29327 0.3296 0.0714 0.0
H3789 H 0.28467 0.31996 0.05764 0.0
H3790 H 0.30274 0.31673 0.06187 0.0
H3791 H 0.30584 0.26458 0.07874 0.0
H3792 H 0.28976 0.2547 0.06089 0.0
H3793 H 0.27057 0.29496 0.05559 0.0
C3794 C 0.303 0.31569 0.09866 0.0
C3795 C 0.31287 0.31155 0.10894 0.0
C3796 C 0.31837 0.29795 0.10832 0.0
C3797 C 0.31404 0.28861 0.09787 0.0
C3798 C 0.30422 0.293 0.08801 0.0
C3799 C 0.29879 0.30623 0.08829 0.0
C3800 C 0.28777 0.30807 0.07695 0.0
C3801 C 0.2735 0.31149 0.08329 0.0
C3802 C 0.2924 0.31925 0.06634 0.0
C3803 C 0.28761 0.2937 0.07047 0.0
C3804 C 0.29727 0.2852 0.07695 0.0
C3805 C 0.29841 0.27121 0.07345 0.0
C3806 C 0.28926 0.26568 0.0633 0.0
C3807 C 0.27913 0.27413 0.0567 0.0
C3808 C 0.2785 0.28838 0.06017 0.0
H3809 H 0.71449 0.30078 0.11334 0.0
H3810 H 0.69991 0.33463 0.08707 0.0
H3811 H 0.70935 0.32295 0.06637 0.0
H3812 H 0.74634 0.29544 0.09583 0.0
H3813 H 0.74583 0.27676 0.09772 0.0
H3814 H 0.73735 0.28746 0.11036 0.0
H3815 H 0.71394 0.27414 0.10602 0.0
H3816 H 0.72238 0.26334 0.09343 0.0
H3817 H 0.707 0.27289 0.08852 0.0
H3818 H 0.72126 0.30776 0.04846 0.0
H3819 H 0.73467 0.29049 0.03519 0.0
H3820 H 0.74072 0.26647 0.07321 0.0
C3821 C 0.71305 0.30564 0.10321 0.0
C3822 C 0.70644 0.31866 0.10188 0.0
C3823 C 0.70506 0.32475 0.08842 0.0
C3824 C 0.71032 0.31815 0.07657 0.0
C3825 C 0.71692 0.30541 0.07829 0.0
C3826 C 0.71824 0.29921 0.09128 0.0
C3827 C 0.72612 0.2857 0.09039 0.0
C3828 C 0.73972 0.28639 0.09909 0.0
C3829 C 0.7168 0.27328 0.09485 0.0
C3830 C 0.72915 0.28534 0.07491 0.0
C3831 C 0.72373 0.29675 0.06806 0.0
C3832 C 0.72549 0.29874 0.05373 0.0
C3833 C 0.73307 0.28885 0.04625 0.0
C3834 C 0.73888 0.27715 0.05312 0.0
C3835 C 0.73668 0.2754 0.06763 0.0
H3836 H 0.71426 0.29837 0.90951 0.0
H3837 H 0.70268 0.3339 0.93435 0.0
H3838 H 0.71218 0.32239 0.95544 0.0
H3839 H 0.70607 0.27181 0.93579 0.0
H3840 H 0.72065 0.26119 0.93111 0.0
H3841 H 0.71243 0.27204 0.91813 0.0
H3842 H 0.73641 0.28377 0.91278 0.0
H3843 H 0.74468 0.27302 0.9258 0.0
H3844 H 0.74637 0.2917 0.92676 0.0
H3845 H 0.72381 0.30717 0.97383 0.0
H3846 H 0.73659 0.28959 0.98775 0.0
H3847 H 0.73984 0.26389 0.95088 0.0
C3848 C 0.7135 0.30364 0.91941 0.0
C3849 C 0.70772 0.31707 0.92022 0.0
C3850 C 0.7072 0.32369 0.9334 0.0
C3851 C 0.71249 0.3172 0.94546 0.0
C3852 C 0.71826 0.30404 0.94425 0.0
C3853 C 0.71874 0.29732 0.93156 0.0
C3854 C 0.72583 0.28338 0.93299 0.0
C3855 C 0.71563 0.2714 0.92929 0.0
C3856 C 0.73911 0.28295 0.92405 0.0
C3857 C 0.72939 0.28338 0.94842 0.0
C3858 C 0.7249 0.29534 0.95478 0.0
C3859 C 0.72729 0.29772 0.96896 0.0
C3860 C 0.73451 0.28765 0.9768 0.0
C3861 C 0.73933 0.27537 0.97045 0.0
C3862 C 0.73654 0.27324 0.95607 0.0
H3863 H 0.69041 0.71877 0.92344 0.0
H3864 H 0.71306 0.68001 0.92259 0.0
H3865 H 0.72779 0.68812 0.94233 0.0
H3866 H 0.71922 0.74055 0.93033 0.0
H3867 H 0.70996 0.75211 0.94159 0.0
H3868 H 0.70062 0.74269 0.92821 0.0
H3869 H 0.68384 0.73235 0.94685 0.0
H3870 H 0.69326 0.74167 0.96033 0.0
H3871 H 0.69096 0.72305 0.96161 0.0
H3872 H 0.74157 0.70155 0.96081 0.0
H3873 H 0.7533 0.71936 0.9757 0.0
H3874 H 0.72085 0.74859 0.96525 0.0
C3875 C 0.69823 0.71181 0.92758 0.0
C3876 C 0.70049 0.69869 0.92142 0.0
C3877 C 0.71117 0.69015 0.92699 0.0
C3878 C 0.71952 0.69462 0.93831 0.0
C3879 C 0.71703 0.70763 0.94408 0.0
C3880 C 0.7066 0.71607 0.9389 0.0
C3881 C 0.70658 0.72995 0.94632 0.0
C3882 C 0.70926 0.74203 0.936 0.0
C3883 C 0.69284 0.73186 0.95425 0.0
C3884 C 0.7188 0.72813 0.9563 0.0
C3885 C 0.72466 0.71515 0.95495 0.0
C3886 C 0.73685 0.7116 0.9622 0.0
C3887 C 0.74339 0.7217 0.97072 0.0
C3888 C 0.73765 0.73509 0.97201 0.0
C3889 C 0.72507 0.7382 0.96491 0.0
H3890 H 0.31402 0.72881 0.91547 0.0
H3891 H 0.30406 0.68524 0.92338 0.0
H3892 H 0.28938 0.69194 0.94324 0.0
H3893 H 0.31597 0.73933 0.95201 0.0
H3894 H 0.3082 0.75599 0.94859 0.0
H3895 H 0.31832 0.74773 0.9353 0.0
H3896 H 0.29732 0.74928 0.91811 0.0
H3897 H 0.28716 0.75756 0.93133 0.0
H3898 H 0.2806 0.74194 0.92308 0.0
H3899 H 0.27489 0.70354 0.9617 0.0
H3900 H 0.26125 0.71904 0.97659 0.0
H3901 H 0.28168 0.75497 0.95744 0.0
C3902 C 0.30894 0.72063 0.92149 0.0
C3903 C 0.31024 0.70647 0.91779 0.0
C3904 C 0.30313 0.69617 0.92584 0.0
C3905 C 0.29485 0.69986 0.93723 0.0
C3906 C 0.29381 0.71391 0.94056 0.0
C3907 C 0.30067 0.72413 0.93292 0.0
C3908 C 0.29745 0.73851 0.93835 0.0
C3909 C 0.31078 0.74582 0.94389 0.0
C3910 C 0.2902 0.74734 0.92704 0.0
C3911 C 0.28753 0.73479 0.9501 0.0
C3912 C 0.28563 0.72056 0.95127 0.0
C3913 C 0.27645 0.7147 0.96099 0.0
C3914 C 0.26882 0.72362 0.96952 0.0
C3915 C 0.27038 0.73829 0.96833 0.0
C3916 C 0.28013 0.74384 0.95863 0.0
H3917 H 0.3076 0.2996 0.91077 0.0
H3918 H 0.3097 0.34087 0.92889 0.0
H3919 H 0.29896 0.33171 0.95039 0.0
H3920 H 0.27488 0.28976 0.92419 0.0
H3921 H 0.27919 0.2719 0.9278 0.0
H3922 H 0.28814 0.28133 0.91416 0.0
H3923 H 0.31201 0.27586 0.92577 0.0
H3924 H 0.30312 0.26633 0.93942 0.0
H3925 H 0.31503 0.2804 0.94378 0.0
H3926 H 0.28576 0.31879 0.96889 0.0
H3927 H 0.27178 0.30288 0.98346 0.0
H3928 H 0.27977 0.26924 0.95459 0.0
C3929 C 0.30609 0.30665 0.91937 0.0
C3930 C 0.30941 0.32102 0.91803 0.0
C3931 C 0.30704 0.32989 0.92951 0.0
C3932 C 0.30103 0.32476 0.94184 0.0
C3933 C 0.29756 0.31066 0.9427 0.0
C3934 C 0.30013 0.30167 0.93185 0.0
C3935 C 0.29482 0.28707 0.93532 0.0
C3936 C 0.28359 0.28224 0.92474 0.0
C3937 C 0.30697 0.27681 0.93612 0.0
C3938 C 0.28856 0.28939 0.94963 0.0
C3939 C 0.29032 0.30306 0.95368 0.0
C3940 C 0.2846 0.30797 0.96599 0.0
C3941 C 0.27673 0.29873 0.97431 0.0
C3942 C 0.27468 0.2846 0.97044 0.0
C3943 C 0.28097 0.27992 0.95797 0.0
H3944 H 0.60737 0.72787 0.20764 0.0
H3945 H 0.5967 0.68397 0.21206 0.0
H3946 H 0.57593 0.69002 0.22569 0.0
H3947 H 0.59776 0.73752 0.24228 0.0
H3948 H 0.59091 0.75416 0.2371 0.0
H3949 H 0.60459 0.74641 0.22711 0.0
H3950 H 0.58922 0.74816 0.20479 0.0
H3951 H 0.57546 0.75585 0.21473 0.0
H3952 H 0.57192 0.7404 0.20466 0.0
H3953 H 0.55671 0.70077 0.23963 0.0
H3954 H 0.54101 0.7153 0.2534 0.0
H3955 H 0.56396 0.7523 0.23992 0.0
C3956 C 0.60072 0.7195 0.21152 0.0
C3957 C 0.60371 0.7054 0.20865 0.0
C3958 C 0.59458 0.69484 0.21385 0.0
C3959 C 0.58276 0.69817 0.22168 0.0
C3960 C 0.58013 0.71214 0.22427 0.0
C3961 C 0.58887 0.72264 0.21938 0.0
C3962 C 0.58386 0.7368 0.22395 0.0
C3963 C 0.59494 0.74415 0.23316 0.0
C3964 C 0.57988 0.74583 0.21128 0.0
C3965 C 0.57105 0.7326 0.23232 0.0
C3966 C 0.56903 0.71834 0.23229 0.0
C3967 C 0.55811 0.71197 0.2396 0.0
C3968 C 0.54914 0.72036 0.24732 0.0
C3969 C 0.55109 0.73502 0.24771 0.0
C3970 C 0.56214 0.74115 0.23991 0.0
H3971 H 0.29883 0.60501 0.20732 0.0
H3972 H 0.34128 0.59517 0.22 0.0
H3973 H 0.33255 0.57405 0.23199 0.0
H3974 H 0.28285 0.59504 0.23898 0.0
H3975 H 0.26723 0.58782 0.23101 0.0
H3976 H 0.27689 0.60149 0.22229 0.0
H3977 H 0.27907 0.58596 0.20044 0.0
H3978 H 0.26942 0.57221 0.20913 0.0
H3979 H 0.28651 0.56891 0.20219 0.0
H3980 H 0.31915 0.55519 0.24441 0.0
H3981 H 0.30206 0.54015 0.25653 0.0
H3982 H 0.26819 0.56147 0.23523 0.0
C3983 C 0.30631 0.59837 0.21254 0.0
C3984 C 0.32079 0.60175 0.21257 0.0
C3985 C 0.33019 0.59272 0.21954 0.0
C3986 C 0.32533 0.5807 0.22645 0.0
C3987 C 0.31102 0.57774 0.22628 0.0
C3988 C 0.30163 0.58628 0.21948 0.0
C3989 C 0.28672 0.58105 0.22148 0.0
C3990 C 0.27791 0.592 0.22888 0.0
C3991 C 0.28004 0.57678 0.20747 0.0
C3992 C 0.28917 0.56847 0.23078 0.0
C3993 C 0.30327 0.56669 0.23332 0.0
C3994 C 0.30809 0.55631 0.24228 0.0
C3995 C 0.29824 0.5477 0.24905 0.0
C3996 C 0.28367 0.54943 0.24682 0.0
C3997 C 0.27919 0.55982 0.23727 0.0
H3998 H 0.40674 0.30533 0.22497 0.0
H3999 H 0.43048 0.31484 0.18761 0.0
H4000 H 0.45152 0.30477 0.1986 0.0
H4001 H 0.4348 0.31243 0.24987 0.0
H4002 H 0.42964 0.29834 0.26133 0.0
H4003 H 0.4167 0.30693 0.25072 0.0
H4004 H 0.40909 0.2832 0.24017 0.0
H4005 H 0.42203 0.27455 0.2507 0.0
H4006 H 0.42198 0.27251 0.23202 0.0
H4007 H 0.46988 0.29246 0.2135 0.0
H4008 H 0.48369 0.27928 0.23096 0.0
H4009 H 0.44787 0.27829 0.25849 0.0
C4010 C 0.41635 0.30531 0.21907 0.0
C4011 C 0.4169 0.31094 0.20541 0.0
C4012 C 0.42979 0.3108 0.19816 0.0
C4013 C 0.4418 0.30502 0.2043 0.0
C4014 C 0.44084 0.29945 0.21773 0.0
C4015 C 0.42844 0.29962 0.22504 0.0
C4016 C 0.43005 0.29275 0.23922 0.0
C4017 C 0.42766 0.30324 0.25098 0.0
C4018 C 0.42021 0.28 0.2406 0.0
C4019 C 0.44522 0.28849 0.23867 0.0
C4020 C 0.45132 0.29247 0.22623 0.0
C4021 C 0.46521 0.28937 0.22331 0.0
C4022 C 0.47301 0.28193 0.23332 0.0
C4023 C 0.46689 0.2776 0.24608 0.0
C4024 C 0.45284 0.28116 0.24876 0.0
H4025 H 0.72177 0.40697 0.21392 0.0
H4026 H 0.68235 0.42861 0.21066 0.0
H4027 H 0.69343 0.44944 0.22126 0.0
H4028 H 0.73194 0.4204 0.24717 0.0
H4029 H 0.75026 0.42181 0.24299 0.0
H4030 H 0.73938 0.40885 0.23458 0.0
H4031 H 0.74666 0.41855 0.21036 0.0
H4032 H 0.7576 0.43152 0.21871 0.0
H4033 H 0.74426 0.43673 0.20642 0.0
H4034 H 0.70884 0.46785 0.233 0.0
H4035 H 0.72721 0.48203 0.24485 0.0
H4036 H 0.75634 0.44821 0.24033 0.0
C4037 C 0.71543 0.41606 0.21545 0.0
C4038 C 0.70117 0.41611 0.21138 0.0
C4039 C 0.69334 0.42834 0.21346 0.0
C4040 C 0.69953 0.44022 0.21956 0.0
C4041 C 0.71358 0.43977 0.22352 0.0
C4042 C 0.72143 0.428 0.22151 0.0
C4043 C 0.73628 0.43011 0.22684 0.0
C4044 C 0.73966 0.41967 0.23859 0.0
C4045 C 0.74682 0.42917 0.21487 0.0
C4046 C 0.7355 0.44482 0.23234 0.0
C4047 C 0.72236 0.45027 0.23028 0.0
C4048 C 0.71918 0.46368 0.23462 0.0
C4049 C 0.72969 0.47168 0.2413 0.0
C4050 C 0.74319 0.46622 0.24365 0.0
C4051 C 0.74607 0.45263 0.23895 0.0
H4052 H 0.61201 0.28588 0.8127 0.0
H4053 H 0.59197 0.32524 0.82049 0.0
H4054 H 0.57087 0.3169 0.80775 0.0
H4055 H 0.59814 0.28072 0.77814 0.0
H4056 H 0.596 0.26217 0.7803 0.0
H4057 H 0.60949 0.27137 0.78988 0.0
H4058 H 0.59958 0.26154 0.8131 0.0
H4059 H 0.58606 0.25232 0.80359 0.0
H4060 H 0.58145 0.26419 0.81722 0.0
H4061 H 0.55155 0.30376 0.79443 0.0
H4062 H 0.53637 0.28743 0.78097 0.0
H4063 H 0.56919 0.25679 0.78249 0.0
C4064 C 0.60317 0.29274 0.81182 0.0
C4065 C 0.60369 0.30623 0.81764 0.0
C4066 C 0.59192 0.31493 0.816 0.0
C4067 C 0.57984 0.31024 0.80886 0.0
C4068 C 0.57967 0.29684 0.80335 0.0
C4069 C 0.59107 0.28825 0.80471 0.0
C4070 C 0.58832 0.27433 0.79782 0.0
C4071 C 0.5986 0.27202 0.78582 0.0
C4072 C 0.58888 0.26239 0.80857 0.0
C4073 C 0.57358 0.27639 0.79238 0.0
C4074 C 0.56871 0.28941 0.79568 0.0
C4075 C 0.55529 0.29355 0.79177 0.0
C4076 C 0.54671 0.2842 0.78419 0.0
C4077 C 0.55161 0.27088 0.78053 0.0
C4078 C 0.5652 0.26698 0.78485 0.0
H4079 H 0.71845 0.59319 0.82801 0.0
H4080 H 0.69277 0.61071 0.7949 0.0
H4081 H 0.70125 0.59294 0.77872 0.0
H4082 H 0.74784 0.58669 0.8071 0.0
H4083 H 0.75237 0.57068 0.81581 0.0
H4084 H 0.74326 0.58392 0.82512 0.0
H4085 H 0.72367 0.56604 0.83131 0.0
H4086 H 0.7327 0.55274 0.82193 0.0
H4087 H 0.7148 0.55664 0.81753 0.0
H4088 H 0.7141 0.57467 0.76552 0.0
H4089 H 0.73047 0.55734 0.75636 0.0
H4090 H 0.74781 0.5515 0.79787 0.0
C4091 C 0.71454 0.59329 0.81737 0.0
C4092 C 0.70483 0.60338 0.81281 0.0
C4093 C 0.69998 0.60299 0.79879 0.0
C4094 C 0.70479 0.59295 0.78947 0.0
C4095 C 0.71443 0.58327 0.79429 0.0
C4096 C 0.71924 0.58332 0.80793 0.0
C4097 C 0.73015 0.57222 0.81027 0.0
C4098 C 0.74424 0.57877 0.81484 0.0
C4099 C 0.72502 0.56126 0.82089 0.0
C4100 C 0.73097 0.56612 0.79574 0.0
C4101 C 0.72174 0.57259 0.78671 0.0
C4102 C 0.72121 0.56939 0.77255 0.0
C4103 C 0.73052 0.55953 0.76743 0.0
C4104 C 0.74022 0.55293 0.77644 0.0
C4105 C 0.74024 0.55611 0.79083 0.0
H4106 H 0.41179 0.70188 0.79464 0.0
H4107 H 0.41987 0.71186 0.83812 0.0
H4108 H 0.44073 0.7256 0.83125 0.0
H4109 H 0.44803 0.69934 0.78403 0.0
H4110 H 0.44502 0.70739 0.76725 0.0
H4111 H 0.43116 0.69763 0.77562 0.0
H4112 H 0.41507 0.71904 0.77391 0.0
H4113 H 0.42885 0.72882 0.76547 0.0
H4114 H 0.421 0.73542 0.78107 0.0
H4115 H 0.46017 0.73925 0.81955 0.0
H4116 H 0.47592 0.75247 0.80391 0.0
H4117 H 0.45535 0.73357 0.76802 0.0
C4118 C 0.41789 0.70698 0.80274 0.0
C4119 C 0.41414 0.70566 0.81697 0.0
C4120 C 0.42259 0.71244 0.82719 0.0
C4121 C 0.43446 0.72034 0.82338 0.0
C4122 C 0.43783 0.72139 0.80929 0.0
C4123 C 0.42977 0.71493 0.79913 0.0
C4124 C 0.43537 0.71815 0.78468 0.0
C4125 C 0.44018 0.70483 0.77747 0.0
C4126 C 0.42442 0.72582 0.77576 0.0
C4127 C 0.4477 0.72761 0.7883 0.0
C4128 C 0.44902 0.72926 0.80256 0.0
C4129 C 0.45932 0.73791 0.80837 0.0
C4130 C 0.46834 0.7453 0.79938 0.0
C4131 C 0.46701 0.74405 0.78468 0.0
C4132 C 0.45666 0.73484 0.77917 0.0
H4133 H 0.31009 0.40525 0.79098 0.0
H4134 H 0.32432 0.42636 0.8285 0.0
H4135 H 0.31239 0.44772 0.82064 0.0
H4136 H 0.31434 0.43442 0.76764 0.0
H4137 H 0.29894 0.43012 0.75747 0.0
H4138 H 0.30849 0.41655 0.76619 0.0
H4139 H 0.28588 0.40847 0.77883 0.0
H4140 H 0.27627 0.42201 0.77014 0.0
H4141 H 0.27628 0.42082 0.78891 0.0
H4142 H 0.29898 0.46717 0.80814 0.0
H4143 H 0.28454 0.48221 0.79277 0.0
H4144 H 0.27971 0.44816 0.76354 0.0
C4145 C 0.3108 0.41438 0.79753 0.0
C4146 C 0.3182 0.41407 0.81038 0.0
C4147 C 0.31861 0.42623 0.8187 0.0
C4148 C 0.31194 0.43847 0.81427 0.0
C4149 C 0.30483 0.43841 0.80149 0.0
C4150 C 0.30419 0.42663 0.79329 0.0
C4151 C 0.2958 0.42916 0.78007 0.0
C4152 C 0.30494 0.42747 0.76708 0.0
C4153 C 0.28279 0.41954 0.77946 0.0
C4154 C 0.29181 0.44419 0.78208 0.0
C4155 C 0.29713 0.44942 0.79446 0.0
C4156 C 0.29475 0.46314 0.79844 0.0
C4157 C 0.2866 0.47164 0.78962 0.0
C4158 C 0.28084 0.46635 0.77702 0.0
C4159 C 0.28371 0.45248 0.77323 0.0
H4160 H 0.72192 0.61342 0.21833 0.0
H4161 H 0.68535 0.58946 0.20511 0.0
H4162 H 0.6959 0.56811 0.21476 0.0
H4163 H 0.74748 0.58701 0.21117 0.0
H4164 H 0.75812 0.59128 0.22621 0.0
H4165 H 0.74783 0.60452 0.21782 0.0
H4166 H 0.73586 0.60968 0.24135 0.0
H4167 H 0.74607 0.59642 0.24979 0.0
H4168 H 0.72725 0.59571 0.25073 0.0
H4169 H 0.71028 0.54934 0.22686 0.0
H4170 H 0.72732 0.53498 0.2399 0.0
H4171 H 0.75451 0.5713 0.24463 0.0
C4172 C 0.7161 0.6037 0.21747 0.0
C4173 C 0.70279 0.60317 0.2109 0.0
C4174 C 0.69564 0.59015 0.20989 0.0
C4175 C 0.70152 0.57796 0.21543 0.0
C4176 C 0.71461 0.57889 0.22192 0.0
C4177 C 0.72183 0.59143 0.22289 0.0
C4178 C 0.73567 0.58968 0.23047 0.0
C4179 C 0.748 0.59334 0.22084 0.0
C4180 C 0.73624 0.59839 0.24388 0.0
C4181 C 0.73505 0.57424 0.23376 0.0
C4182 C 0.72284 0.56816 0.22874 0.0
C4183 C 0.71991 0.554 0.23076 0.0
C4184 C 0.72969 0.5459 0.23814 0.0
C4185 C 0.74225 0.55195 0.24345 0.0
C4186 C 0.74492 0.56632 0.24103 0.0
H4187 H 0.70466 0.40835 0.7924 0.0
H4188 H 0.70611 0.42006 0.83606 0.0
H4189 H 0.71987 0.44115 0.82993 0.0
H4190 H 0.73922 0.41955 0.78401 0.0
H4191 H 0.73469 0.42592 0.76685 0.0
H4192 H 0.72459 0.41196 0.77461 0.0
H4193 H 0.70199 0.42618 0.77125 0.0
H4194 H 0.71204 0.4402 0.76349 0.0
H4195 H 0.70116 0.44347 0.77834 0.0
H4196 H 0.73419 0.46061 0.81913 0.0
H4197 H 0.74849 0.47652 0.80466 0.0
H4198 H 0.73683 0.45279 0.76783 0.0
C4199 C 0.7077 0.41543 0.80067 0.0
C4200 C 0.70428 0.41248 0.81474 0.0
C4201 C 0.70873 0.42194 0.82523 0.0
C4202 C 0.71647 0.43402 0.82184 0.0
C4203 C 0.71966 0.43658 0.80789 0.0
C4204 C 0.71542 0.42755 0.79746 0.0
C4205 C 0.72055 0.43254 0.78333 0.0
C4206 C 0.73035 0.42186 0.77682 0.0
C4207 C 0.7082 0.43579 0.77353 0.0
C4208 C 0.72847 0.4457 0.78745 0.0
C4209 C 0.72776 0.44788 0.80165 0.0
C4210 C 0.73467 0.45909 0.80797 0.0
C4211 C 0.74269 0.46817 0.79961 0.0
C4212 C 0.74376 0.46606 0.78502 0.0
C4213 C 0.73632 0.45473 0.77892 0.0
H4214 H 0.61062 0.7162 0.80737 0.0
H4215 H 0.58378 0.68171 0.82032 0.0
H4216 H 0.56325 0.69385 0.81064 0.0
H4217 H 0.58586 0.74375 0.81487 0.0
H4218 H 0.59104 0.75405 0.79995 0.0
H4219 H 0.60348 0.74285 0.80842 0.0
H4220 H 0.608 0.7307 0.78486 0.0
H4221 H 0.59551 0.7418 0.77635 0.0
H4222 H 0.59347 0.72315 0.77529 0.0
H4223 H 0.54561 0.70955 0.7986 0.0
H4224 H 0.53258 0.72742 0.78532 0.0
H4225 H 0.57093 0.75183 0.78102 0.0
C4226 C 0.60041 0.71129 0.8084 0.0
C4227 C 0.59888 0.69795 0.81462 0.0
C4228 C 0.5853 0.69183 0.81547 0.0
C4229 C 0.57354 0.69869 0.81007 0.0
C4230 C 0.57546 0.71172 0.80385 0.0
C4231 C 0.58856 0.71799 0.80306 0.0
C4232 C 0.58786 0.73189 0.79554 0.0
C4233 C 0.59232 0.74384 0.80528 0.0
C4234 C 0.59673 0.73188 0.78222 0.0
C4235 C 0.57237 0.73239 0.79208 0.0
C4236 C 0.56536 0.72071 0.797 0.0
C4237 C 0.551 0.71878 0.79478 0.0
C4238 C 0.54366 0.72902 0.78727 0.0
C4239 C 0.55068 0.74103 0.782 0.0
C4240 C 0.56522 0.74269 0.78464 0.0
H4241 H 0.30194 0.61232 0.80324 0.0
H4242 H 0.31441 0.58732 0.83897 0.0
H4243 H 0.30501 0.56625 0.82736 0.0
H4244 H 0.26997 0.59455 0.79623 0.0
H4245 H 0.27138 0.59576 0.77752 0.0
H4246 H 0.27965 0.60878 0.78836 0.0
H4247 H 0.30352 0.60405 0.77685 0.0
H4248 H 0.2953 0.59108 0.76591 0.0
H4249 H 0.3101 0.58657 0.77671 0.0
H4250 H 0.29332 0.54786 0.81204 0.0
H4251 H 0.28044 0.53394 0.79431 0.0
H4252 H 0.27642 0.57095 0.76845 0.0
C4253 C 0.30293 0.60239 0.80854 0.0
C4254 C 0.30892 0.60153 0.82206 0.0
C4255 C 0.30973 0.58832 0.8287 0.0
C4256 C 0.30449 0.57626 0.82215 0.0
C4257 C 0.29849 0.57751 0.80891 0.0
C4258 C 0.29775 0.59024 0.80215 0.0
C4259 C 0.29047 0.58884 0.78811 0.0
C4260 C 0.27707 0.5975 0.78753 0.0
C4261 C 0.30045 0.59287 0.77619 0.0
C4262 C 0.2871 0.57338 0.78809 0.0
C4263 C 0.29184 0.56698 0.80014 0.0
C4264 C 0.28965 0.55276 0.80252 0.0
C4265 C 0.28236 0.54492 0.79237 0.0
C4266 C 0.27729 0.55131 0.78 0.0
C4267 C 0.2799 0.56572 0.77787 0.0
H4268 H 0.42102 0.29263 0.82564 0.0
H4269 H 0.41217 0.3273 0.7978 0.0
H4270 H 0.43138 0.32022 0.78258 0.0
H4271 H 0.45906 0.29302 0.82143 0.0
H4272 H 0.46018 0.27432 0.82167 0.0
H4273 H 0.4465 0.28273 0.83112 0.0
H4274 H 0.42779 0.26808 0.8178 0.0
H4275 H 0.44141 0.25956 0.80841 0.0
H4276 H 0.42765 0.26826 0.79899 0.0
H4277 H 0.45022 0.30837 0.76927 0.0
H4278 H 0.46698 0.29225 0.7587 0.0
H4279 H 0.46385 0.26522 0.79493 0.0
C4280 C 0.42311 0.29878 0.81637 0.0
C4281 C 0.41505 0.31064 0.81306 0.0
C4282 C 0.41829 0.31837 0.80081 0.0
C4283 C 0.42918 0.31439 0.79202 0.0
C4284 C 0.43684 0.30264 0.79558 0.0
C4285 C 0.43395 0.29494 0.80745 0.0
C4286 C 0.44329 0.28232 0.80847 0.0
C4287 C 0.45283 0.28315 0.82145 0.0
C4288 C 0.43451 0.26876 0.80841 0.0
C4289 C 0.45168 0.28399 0.79517 0.0
C4290 C 0.44785 0.29585 0.78794 0.0
C4291 C 0.45346 0.29917 0.77494 0.0
C4292 C 0.46299 0.29 0.76902 0.0
C4293 C 0.4669 0.27767 0.77612 0.0
C4294 C 0.46135 0.27478 0.78948 0.0
H4295 H 0.30944 0.40603 0.23268 0.0
H4296 H 0.31954 0.42818 0.19439 0.0
H4297 H 0.3073 0.44887 0.20308 0.0
H4298 H 0.27519 0.42015 0.23718 0.0
H4299 H 0.27683 0.42109 0.2559 0.0
H4300 H 0.28616 0.40807 0.24648 0.0
H4301 H 0.30951 0.41686 0.25748 0.0
H4302 H 0.30025 0.42991 0.26693 0.0
H4303 H 0.31451 0.43495 0.25569 0.0
H4304 H 0.29424 0.46756 0.21657 0.0
H4305 H 0.28077 0.48185 0.23305 0.0
H4306 H 0.27998 0.44731 0.26243 0.0
C4307 C 0.30917 0.41524 0.22612 0.0
C4308 C 0.31551 0.41544 0.21283 0.0
C4309 C 0.31465 0.42768 0.20453 0.0
C4310 C 0.30779 0.43953 0.20942 0.0
C4311 C 0.3018 0.439 0.22264 0.0
C4312 C 0.30238 0.42712 0.23083 0.0
C4313 C 0.29512 0.42913 0.24463 0.0
C4314 C 0.28258 0.41901 0.24613 0.0
C4315 C 0.30547 0.42763 0.25691 0.0
C4316 C 0.29037 0.44401 0.24298 0.0
C4317 C 0.29432 0.44959 0.23027 0.0
C4318 C 0.29108 0.46326 0.22654 0.0
C4319 C 0.28349 0.47133 0.23599 0.0
C4320 C 0.27916 0.46569 0.24898 0.0
C4321 C 0.28285 0.45188 0.25248 0.0
H4322 H 0.60391 0.29018 0.20114 0.0
H4323 H 0.59758 0.33345 0.21189 0.0
H4324 H 0.57719 0.3265 0.22605 0.0
H4325 H 0.56718 0.27972 0.19942 0.0
H4326 H 0.57016 0.26289 0.20721 0.0
H4327 H 0.58372 0.27131 0.19712 0.0
H4328 H 0.6009 0.26933 0.21808 0.0
H4329 H 0.58743 0.26083 0.22819 0.0
H4330 H 0.59605 0.2763 0.23474 0.0
H4331 H 0.55821 0.31472 0.24015 0.0
H4332 H 0.54287 0.29901 0.2538 0.0
H4333 H 0.56136 0.26338 0.23383 0.0
C4334 C 0.59828 0.29823 0.20648 0.0
C4335 C 0.60238 0.31241 0.20527 0.0
C4336 C 0.59456 0.32255 0.21238 0.0
C4337 C 0.58297 0.3187 0.22051 0.0
C4338 C 0.57924 0.30464 0.22147 0.0
C4339 C 0.58668 0.29456 0.21467 0.0
C4340 C 0.58087 0.28013 0.2179 0.0
C4341 C 0.57514 0.2731 0.20462 0.0
C4342 C 0.59197 0.27112 0.22516 0.0
C4343 C 0.56915 0.28365 0.22777 0.0
C4344 C 0.56831 0.29786 0.2296 0.0
C4345 C 0.55867 0.30358 0.23867 0.0
C4346 C 0.54989 0.29455 0.2463 0.0
C4347 C 0.55077 0.2799 0.24488 0.0
C4348 C 0.5604 0.27449 0.23523 0.0
H4349 H 0.40612 0.73091 0.20606 0.0
H4350 H 0.41735 0.68731 0.20638 0.0
H4351 H 0.43834 0.69298 0.2205 0.0
H4352 H 0.44183 0.74493 0.20355 0.0
H4353 H 0.43845 0.75943 0.2148 0.0
H4354 H 0.42452 0.75205 0.20428 0.0
H4355 H 0.40958 0.74812 0.22643 0.0
H4356 H 0.42345 0.75548 0.237 0.0
H4357 H 0.41668 0.73827 0.24084 0.0
H4358 H 0.45752 0.70316 0.23549 0.0
H4359 H 0.47326 0.71698 0.2506 0.0
H4360 H 0.45039 0.75428 0.23968 0.0
C4361 C 0.41309 0.72257 0.20892 0.0
C4362 C 0.41 0.70863 0.20512 0.0
C4363 C 0.41932 0.69803 0.20932 0.0
C4364 C 0.43135 0.70116 0.21725 0.0
C4365 C 0.43402 0.71497 0.22088 0.0
C4366 C 0.42517 0.72552 0.21684 0.0
C4367 C 0.43025 0.73944 0.22251 0.0
C4368 C 0.43398 0.74956 0.21057 0.0
C4369 C 0.41934 0.74569 0.23228 0.0
C4370 C 0.44321 0.73503 0.23051 0.0
C4371 C 0.44523 0.72088 0.22937 0.0
C4372 C 0.45616 0.71428 0.2363 0.0
C4373 C 0.46516 0.72229 0.24478 0.0
C4374 C 0.46326 0.73683 0.24628 0.0
C4375 C 0.45219 0.74322 0.23883 0.0
loop_
_geom_bond_atom_site_label_1
_geom_bond_atom_site_label_2
_geom_bond_distance
_geom_bond_site_symmetry_2
_ccdc_geom_bond_type
C0 C1 1.264 . S
C0 C5 1.479 . S
C0 C10 1.465 . S
C1 C0 1.264 . S
C1 C3 1.339 . S
C1 H28 0.931 . S
C2 C3 1.395 . S
C2 C4 1.320 . S
C3 C1 1.339 . S
C3 C2 1.395 . S
C3 H29 0.929 . S
C4 C2 1.320 . S
C4 C5 1.405 . S
C4 H30 0.930 . S
C5 C0 1.479 . S
C5 C4 1.405 . S
C5 H31 0.931 . S
U6 O7 2.454 . S
U6 O8 2.458 . S
U6 C9 2.984 . S
U6 C10 2.847 . S
U6 C23 2.882 . S
U6 O24 2.441 . S
U6 O25 2.420 . S
U6 O26 2.455 . S
U6 O27 2.449 . S
O7 U6 2.454 . S
O7 C9 1.353 . S
O8 U6 2.458 . S
O8 C9 1.286 . S
C9 U6 2.984 . S
C9 O7 1.353 . S
C9 O8 1.286 . S
C9 C11 1.363 . S
C10 C0 1.465 . S
C10 U6 2.847 . S
C10 O24 1.249 . S
C10 O25 1.202 . S
C11 C9 1.363 . S
C11 C13 1.408 . S
C11 C16 1.342 . S
C12 C13 1.310 . S
C12 C15 1.461 . S
C12 H32 0.932 . S
C13 C11 1.408 . S
C13 C12 1.310 . S
C13 H33 0.930 . S
C14 C15 1.474 . S
C14 C16 1.285 . S
C14 H34 0.929 . S
C15 C12 1.461 . S
C15 C14 1.474 . S
C16 C11 1.342 . S
C16 C14 1.285 . S
C16 H35 0.930 . S
C17 C20 1.424 . S
C17 C22 1.245 . S
C17 C23 1.428 . S
C18 C21 1.260 . S
C18 C22 1.477 . S
C18 H36 0.932 . S
C19 C20 1.384 . S
C19 C21 1.479 . S
C19 H37 0.929 . S
C20 C17 1.424 . S
C20 C19 1.384 . S
C20 H38 0.928 . S
C21 C18 1.260 . S
C21 C19 1.479 . S
C22 C17 1.245 . S
C22 C18 1.477 . S
C22 H39 0.932 . S
C23 U6 2.882 . S
C23 C17 1.428 . S
C23 O26 1.301 . S
C23 O27 1.282 . S
O24 U6 2.441 . S
O24 C10 1.249 . S
O25 U6 2.420 . S
O25 C10 1.202 . S
O26 U6 2.455 . S
O26 C23 1.301 . S
O27 U6 2.449 . S
O27 C23 1.282 . S
H28 C1 0.931 . S
H29 C3 0.929 . S
H30 C4 0.930 . S
H31 C5 0.931 . S
H32 C12 0.932 . S
H33 C13 0.930 . S
H34 C14 0.929 . S
H35 C16 0.930 . S
H36 C18 0.932 . S
H37 C19 0.929 . S
H38 C20 0.928 . S
H39 C22 0.932 . S
C40 C41 1.264 . S
C40 C45 1.479 . S
C40 C50 1.465 . S
C41 C40 1.264 . S
C41 C43 1.339 . S
C41 H68 0.931 . S
C42 C43 1.395 . S
C42 C44 1.320 . S
C43 C41 1.339 . S
C43 C42 1.395 . S
C43 H69 0.929 . S
C44 C42 1.320 . S
C44 C45 1.405 . S
C44 H70 0.930 . S
C45 C40 1.479 . S
C45 C44 1.405 . S
C45 H71 0.931 . S
U46 O47 2.454 . S
U46 O48 2.458 . S
U46 C49 2.984 . S
U46 C50 2.847 . S
U46 C63 2.882 . S
U46 O64 2.441 . S
U46 O65 2.420 . S
U46 O66 2.455 . S
U46 O67 2.449 . S
O47 U46 2.454 . S
O47 C49 1.353 . S
O48 U46 2.458 . S
O48 C49 1.286 . S
C49 U46 2.984 . S
C49 O47 1.353 . S
C49 O48 1.286 . S
C49 C51 1.363 . S
C50 C40 1.465 . S
C50 U46 2.847 . S
C50 O64 1.249 . S
C50 O65 1.202 . S
C51 C49 1.363 . S
C51 C53 1.408 . S
C51 C56 1.342 . S
C52 C53 1.310 . S
C52 C55 1.461 . S
C52 H72 0.932 . S
C53 C51 1.408 . S
C53 C52 1.310 . S
C53 H73 0.930 . S
C54 C55 1.474 . S
C54 C56 1.285 . S
C54 H74 0.929 . S
C55 C52 1.461 . S
C55 C54 1.474 . S
C56 C51 1.342 . S
C56 C54 1.285 . S
C56 H75 0.930 . S
C57 C60 1.424 . S
C57 C62 1.245 . S
C57 C63 1.428 . S
C58 C61 1.260 . S
C58 C62 1.477 . S
C58 H76 0.932 . S
C59 C60 1.384 . S
C59 C61 1.479 . S
C59 H77 0.929 . S
C60 C57 1.424 . S
C60 C59 1.384 . S
C60 H78 0.928 . S
C61 C58 1.260 . S
C61 C59 1.479 . S
C62 C57 1.245 . S
C62 C58 1.477 . S
C62 H79 0.932 . S
C63 U46 2.882 . S
C63 C57 1.428 . S
C63 O66 1.301 . S
C63 O67 1.282 . S
O64 U46 2.441 . S
O64 C50 1.249 . S
O65 U46 2.420 . S
O65 C50 1.202 . S
O66 U46 2.455 . S
O66 C63 1.301 . S
O67 U46 2.449 . S
O67 C63 1.282 . S
H68 C41 0.931 . S
H69 C43 0.929 . S
H70 C44 0.930 . S
H71 C45 0.931 . S
H72 C52 0.932 . S
H73 C53 0.930 . S
H74 C54 0.929 . S
H75 C56 0.930 . S
H76 C58 0.932 . S
H77 C59 0.929 . S
H78 C60 0.928 . S
H79 C62 0.932 . S
C80 C81 1.264 . S
C80 C85 1.479 . S
C80 C90 1.465 . S
C81 C80 1.264 . S
C81 C83 1.339 . S
C81 H108 0.931 . S
C82 C83 1.395 . S
C82 C84 1.320 . S
C83 C81 1.339 . S
C83 C82 1.395 . S
C83 H109 0.929 . S
C84 C82 1.320 . S
C84 C85 1.405 . S
C84 H110 0.930 . S
C85 C80 1.479 . S
C85 C84 1.405 . S
C85 H111 0.931 . S
U86 O87 2.454 . S
U86 O88 2.458 . S
U86 C89 2.984 . S
U86 C90 2.847 . S
U86 C103 2.882 . S
U86 O104 2.441 . S
U86 O105 2.420 . S
U86 O106 2.455 . S
U86 O107 2.449 . S
O87 U86 2.454 . S
O87 C89 1.353 . S
O88 U86 2.458 . S
O88 C89 1.286 . S
C89 U86 2.984 . S
C89 O87 1.353 . S
C89 O88 1.286 . S
C89 C91 1.363 . S
C90 C80 1.465 . S
C90 U86 2.847 . S
C90 O104 1.249 . S
C90 O105 1.202 . S
C91 C89 1.363 . S
C91 C93 1.408 . S
C91 C96 1.342 . S
C92 C93 1.310 . S
C92 C95 1.461 . S
C92 H112 0.932 . S
C93 C91 1.408 . S
C93 C92 1.310 . S
C93 H113 0.930 . S
C94 C95 1.474 . S
C94 C96 1.285 . S
C94 H114 0.929 . S
C95 C92 1.461 . S
C95 C94 1.474 . S
C96 C91 1.342 . S
C96 C94 1.285 . S
C96 H115 0.930 . S
C97 C100 1.424 . S
C97 C102 1.245 . S
C97 C103 1.428 . S
C98 C101 1.260 . S
C98 C102 1.477 . S
C98 H116 0.932 . S
C99 C100 1.384 . S
C99 C101 1.479 . S
C99 H117 0.929 . S
C100 C97 1.424 . S
C100 C99 1.384 . S
C100 H118 0.928 . S
C101 C98 1.260 . S
C101 C99 1.479 . S
C102 C97 1.245 . S
C102 C98 1.477 . S
C102 H119 0.932 . S
C103 U86 2.882 . S
C103 C97 1.428 . S
C103 O106 1.301 . S
C103 O107 1.282 . S
O104 U86 2.441 . S
O104 C90 1.249 . S
O105 U86 2.420 . S
O105 C90 1.202 . S
O106 U86 2.455 . S
O106 C103 1.301 . S
O107 U86 2.449 . S
O107 C103 1.282 . S
H108 C81 0.931 . S
H109 C83 0.929 . S
H110 C84 0.930 . S
H111 C85 0.931 . S
H112 C92 0.932 . S
H113 C93 0.930 . S
H114 C94 0.929 . S
H115 C96 0.930 . S
H116 C98 0.932 . S
H117 C99 0.929 . S
H118 C100 0.928 . S
H119 C102 0.932 . S
C120 C121 1.264 . S
C120 C125 1.479 . S
C120 C130 1.465 . S
C121 C120 1.264 . S
C121 C123 1.339 . S
C121 H148 0.931 . S
C122 C123 1.395 . S
C122 C124 1.320 . S
C123 C121 1.339 . S
C123 C122 1.395 . S
C123 H149 0.929 . S
C124 C122 1.320 . S
C124 C125 1.405 . S
C124 H150 0.930 . S
C125 C120 1.479 . S
C125 C124 1.405 . S
C125 H151 0.931 . S
U126 O127 2.454 . S
U126 O128 2.458 . S
U126 C129 2.984 . S
U126 C130 2.847 . S
U126 C143 2.882 . S
U126 O144 2.441 . S
U126 O145 2.420 . S
U126 O146 2.455 . S
U126 O147 2.449 . S
O127 U126 2.454 . S
O127 C129 1.353 . S
O128 U126 2.458 . S
O128 C129 1.286 . S
C129 U126 2.984 . S
C129 O127 1.353 . S
C129 O128 1.286 . S
C129 C131 1.363 . S
C130 C120 1.465 . S
C130 U126 2.847 . S
C130 O144 1.249 . S
C130 O145 1.202 . S
C131 C129 1.363 . S
C131 C133 1.408 . S
C131 C136 1.342 . S
C132 C133 1.310 . S
C132 C135 1.461 . S
C132 H152 0.932 . S
C133 C131 1.408 . S
C133 C132 1.310 . S
C133 H153 0.930 . S
C134 C135 1.474 . S
C134 C136 1.285 . S
C134 H154 0.929 . S
C135 C132 1.461 . S
C135 C134 1.474 . S
C136 C131 1.342 . S
C136 C134 1.285 . S
C136 H155 0.930 . S
C137 C140 1.424 . S
C137 C142 1.245 . S
C137 C143 1.428 . S
C138 C141 1.260 . S
C138 C142 1.477 . S
C138 H156 0.932 . S
C139 C140 1.384 . S
C139 C141 1.479 . S
C139 H157 0.929 . S
C140 C137 1.424 . S
C140 C139 1.384 . S
C140 H158 0.928 . S
C141 C138 1.260 . S
C141 C139 1.479 . S
C142 C137 1.245 . S
C142 C138 1.477 . S
C142 H159 0.932 . S
C143 U126 2.882 . S
C143 C137 1.428 . S
C143 O146 1.301 . S
C143 O147 1.282 . S
O144 U126 2.441 . S
O144 C130 1.249 . S
O145 U126 2.420 . S
O145 C130 1.202 . S
O146 U126 2.455 . S
O146 C143 1.301 . S
O147 U126 2.449 . S
O147 C143 1.282 . S
H148 C121 0.931 . S
H149 C123 0.929 . S
H150 C124 0.930 . S
H151 C125 0.931 . S
H152 C132 0.932 . S
H153 C133 0.930 . S
H154 C134 0.929 . S
H155 C136 0.930 . S
H156 C138 0.932 . S
H157 C139 0.929 . S
H158 C140 0.928 . S
H159 C142 0.932 . S
C160 C161 1.264 . S
C160 C165 1.479 . S
C160 C170 1.465 . S
C161 C160 1.264 . S
C161 C163 1.339 . S
C161 H188 0.931 . S
C162 C163 1.395 . S
C162 C164 1.320 . S
C163 C161 1.339 . S
C163 C162 1.395 . S
C163 H189 0.929 . S
C164 C162 1.320 . S
C164 C165 1.405 . S
C164 H190 0.930 . S
C165 C160 1.479 . S
C165 C164 1.405 . S
C165 H191 0.931 . S
U166 O167 2.454 . S
U166 O168 2.458 . S
U166 C169 2.984 . S
U166 C170 2.847 . S
U166 C183 2.882 . S
U166 O184 2.441 . S
U166 O185 2.420 . S
U166 O186 2.455 . S
U166 O187 2.449 . S
O167 U166 2.454 . S
O167 C169 1.353 . S
O168 U166 2.458 . S
O168 C169 1.286 . S
C169 U166 2.984 . S
C169 O167 1.353 . S
C169 O168 1.286 . S
C169 C171 1.363 . S
C170 C160 1.465 . S
C170 U166 2.847 . S
C170 O184 1.249 . S
C170 O185 1.202 . S
C171 C169 1.363 . S
C171 C173 1.408 . S
C171 C176 1.342 . S
C172 C173 1.310 . S
C172 C175 1.461 . S
C172 H192 0.932 . S
C173 C171 1.408 . S
C173 C172 1.310 . S
C173 H193 0.930 . S
C174 C175 1.474 . S
C174 C176 1.285 . S
C174 H194 0.929 . S
C175 C172 1.461 . S
C175 C174 1.474 . S
C176 C171 1.342 . S
C176 C174 1.285 . S
C176 H195 0.930 . S
C177 C180 1.424 . S
C177 C182 1.245 . S
C177 C183 1.428 . S
C178 C181 1.260 . S
C178 C182 1.477 . S
C178 H196 0.932 . S
C179 C180 1.384 . S
C179 C181 1.479 . S
C179 H197 0.929 . S
C180 C177 1.424 . S
C180 C179 1.384 . S
C180 H198 0.928 . S
C181 C178 1.260 . S
C181 C179 1.479 . S
C182 C177 1.245 . S
C182 C178 1.477 . S
C182 H199 0.932 . S
C183 U166 2.882 . S
C183 C177 1.428 . S
C183 O186 1.301 . S
C183 O187 1.282 . S
O184 U166 2.441 . S
O184 C170 1.249 . S
O185 U166 2.420 . S
O185 C170 1.202 . S
O186 U166 2.455 . S
O186 C183 1.301 . S
O187 U166 2.449 . S
O187 C183 1.282 . S
H188 C161 0.931 . S
H189 C163 0.929 . S
H190 C164 0.930 . S
H191 C165 0.931 . S
H192 C172 0.932 . S
H193 C173 0.930 . S
H194 C174 0.929 . S
H195 C176 0.930 . S
H196 C178 0.932 . S
H197 C179 0.929 . S
H198 C180 0.928 . S
H199 C182 0.932 . S
C200 C201 1.264 . S
C200 C205 1.479 . S
C200 C210 1.465 . S
C201 C200 1.264 . S
C201 C203 1.339 . S
C201 H228 0.931 . S
C202 C203 1.395 . S
C202 C204 1.320 . S
C203 C201 1.339 . S
C203 C202 1.395 . S
C203 H229 0.929 . S
C204 C202 1.320 . S
C204 C205 1.405 . S
C204 H230 0.930 . S
C205 C200 1.479 . S
C205 C204 1.405 . S
C205 H231 0.931 . S
U206 O207 2.454 . S
U206 O208 2.458 . S
U206 C209 2.984 . S
U206 C210 2.847 . S
U206 C223 2.882 . S
U206 O224 2.441 . S
U206 O225 2.420 . S
U206 O226 2.455 . S
U206 O227 2.449 . S
O207 U206 2.454 . S
O207 C209 1.353 . S
O208 U206 2.458 . S
O208 C209 1.286 . S
C209 U206 2.984 . S
C209 O207 1.353 . S
C209 O208 1.286 . S
C209 C211 1.363 . S
C210 C200 1.465 . S
C210 U206 2.847 . S
C210 O224 1.249 . S
C210 O225 1.202 . S
C211 C209 1.363 . S
C211 C213 1.408 . S
C211 C216 1.342 . S
C212 C213 1.310 . S
C212 C215 1.461 . S
C212 H232 0.932 . S
C213 C211 1.408 . S
C213 C212 1.310 . S
C213 H233 0.930 . S
C214 C215 1.474 . S
C214 C216 1.285 . S
C214 H234 0.929 . S
C215 C212 1.461 . S
C215 C214 1.474 . S
C216 C211 1.342 . S
C216 C214 1.285 . S
C216 H235 0.930 . S
C217 C220 1.424 . S
C217 C222 1.245 . S
C217 C223 1.428 . S
C218 C221 1.260 . S
C218 C222 1.477 . S
C218 H236 0.932 . S
C219 C220 1.384 . S
C219 C221 1.479 . S
C219 H237 0.929 . S
C220 C217 1.424 . S
C220 C219 1.384 . S
C220 H238 0.928 . S
C221 C218 1.260 . S
C221 C219 1.479 . S
C222 C217 1.245 . S
C222 C218 1.477 . S
C222 H239 0.932 . S
C223 U206 2.882 . S
C223 C217 1.428 . S
C223 O226 1.301 . S
C223 O227 1.282 . S
O224 U206 2.441 . S
O224 C210 1.249 . S
O225 U206 2.420 . S
O225 C210 1.202 . S
O226 U206 2.455 . S
O226 C223 1.301 . S
O227 U206 2.449 . S
O227 C223 1.282 . S
H228 C201 0.931 . S
H229 C203 0.929 . S
H230 C204 0.930 . S
H231 C205 0.931 . S
H232 C212 0.932 . S
H233 C213 0.930 . S
H234 C214 0.929 . S
H235 C216 0.930 . S
H236 C218 0.932 . S
H237 C219 0.929 . S
H238 C220 0.928 . S
H239 C222 0.932 . S
C240 C241 1.264 . S
C240 C245 1.479 . S
C240 C250 1.465 . S
C241 C240 1.264 . S
C241 C243 1.339 . S
C241 H268 0.931 . S
C242 C243 1.395 . S
C242 C244 1.320 . S
C243 C241 1.339 . S
C243 C242 1.395 . S
C243 H269 0.929 . S
C244 C242 1.320 . S
C244 C245 1.405 . S
C244 H270 0.930 . S
C245 C240 1.479 . S
C245 C244 1.405 . S
C245 H271 0.931 . S
U246 O247 2.454 . S
U246 O248 2.458 . S
U246 C249 2.984 . S
U246 C250 2.847 . S
U246 C263 2.882 . S
U246 O264 2.441 . S
U246 O265 2.420 . S
U246 O266 2.455 . S
U246 O267 2.449 . S
O247 U246 2.454 . S
O247 C249 1.353 . S
O248 U246 2.458 . S
O248 C249 1.286 . S
C249 U246 2.984 . S
C249 O247 1.353 . S
C249 O248 1.286 . S
C249 C251 1.363 . S
C250 C240 1.465 . S
C250 U246 2.847 . S
C250 O264 1.249 . S
C250 O265 1.202 . S
C251 C249 1.363 . S
C251 C253 1.408 . S
C251 C256 1.342 . S
C252 C253 1.310 . S
C252 C255 1.461 . S
C252 H272 0.932 . S
C253 C251 1.408 . S
C253 C252 1.310 . S
C253 H273 0.930 . S
C254 C255 1.474 . S
C254 C256 1.285 . S
C254 H274 0.929 . S
C255 C252 1.461 . S
C255 C254 1.474 . S
C256 C251 1.342 . S
C256 C254 1.285 . S
C256 H275 0.930 . S
C257 C260 1.424 . S
C257 C262 1.245 . S
C257 C263 1.428 . S
C258 C261 1.260 . S
C258 C262 1.477 . S
C258 H276 0.932 . S
C259 C260 1.384 . S
C259 C261 1.479 . S
C259 H277 0.929 . S
C260 C257 1.424 . S
C260 C259 1.384 . S
C260 H278 0.928 . S
C261 C258 1.260 . S
C261 C259 1.479 . S
C262 C257 1.245 . S
C262 C258 1.477 . S
C262 H279 0.932 . S
C263 U246 2.882 . S
C263 C257 1.428 . S
C263 O266 1.301 . S
C263 O267 1.282 . S
O264 U246 2.441 . S
O264 C250 1.249 . S
O265 U246 2.420 . S
O265 C250 1.202 . S
O266 U246 2.455 . S
O266 C263 1.301 . S
O267 U246 2.449 . S
O267 C263 1.282 . S
H268 C241 0.931 . S
H269 C243 0.929 . S
H270 C244 0.930 . S
H271 C245 0.931 . S
H272 C252 0.932 . S
H273 C253 0.930 . S
H274 C254 0.929 . S
H275 C256 0.930 . S
H276 C258 0.932 . S
H277 C259 0.929 . S
H278 C260 0.928 . S
H279 C262 0.932 . S
C280 C281 1.264 . S
C280 C285 1.479 . S
C280 C290 1.465 . S
C281 C280 1.264 . S
C281 C283 1.339 . S
C281 H308 0.931 . S
C282 C283 1.395 . S
C282 C284 1.320 . S
C283 C281 1.339 . S
C283 C282 1.395 . S
C283 H309 0.929 . S
C284 C282 1.320 . S
C284 C285 1.405 . S
C284 H310 0.930 . S
C285 C280 1.479 . S
C285 C284 1.405 . S
C285 H311 0.931 . S
U286 O287 2.454 . S
U286 O288 2.458 . S
U286 C289 2.984 . S
U286 C290 2.847 . S
U286 C303 2.882 . S
U286 O304 2.441 . S
U286 O305 2.420 . S
U286 O306 2.455 . S
U286 O307 2.449 . S
O287 U286 2.454 . S
O287 C289 1.353 . S
O288 U286 2.458 . S
O288 C289 1.286 . S
C289 U286 2.984 . S
C289 O287 1.353 . S
C289 O288 1.286 . S
C289 C291 1.363 . S
C290 C280 1.465 . S
C290 U286 2.847 . S
C290 O304 1.249 . S
C290 O305 1.202 . S
C291 C289 1.363 . S
C291 C293 1.408 . S
C291 C296 1.342 . S
C292 C293 1.310 . S
C292 C295 1.461 . S
C292 H312 0.932 . S
C293 C291 1.408 . S
C293 C292 1.310 . S
C293 H313 0.930 . S
C294 C295 1.474 . S
C294 C296 1.285 . S
C294 H314 0.929 . S
C295 C292 1.461 . S
C295 C294 1.474 . S
C296 C291 1.342 . S
C296 C294 1.285 . S
C296 H315 0.930 . S
C297 C300 1.424 . S
C297 C302 1.245 . S
C297 C303 1.428 . S
C298 C301 1.260 . S
C298 C302 1.477 . S
C298 H316 0.932 . S
C299 C300 1.384 . S
C299 C301 1.479 . S
C299 H317 0.929 . S
C300 C297 1.424 . S
C300 C299 1.384 . S
C300 H318 0.928 . S
C301 C298 1.260 . S
C301 C299 1.479 . S
C302 C297 1.245 . S
C302 C298 1.477 . S
C302 H319 0.932 . S
C303 U286 2.882 . S
C303 C297 1.428 . S
C303 O306 1.301 . S
C303 O307 1.282 . S
O304 U286 2.441 . S
O304 C290 1.249 . S
O305 U286 2.420 . S
O305 C290 1.202 . S
O306 U286 2.455 . S
O306 C303 1.301 . S
O307 U286 2.449 . S
O307 C303 1.282 . S
H308 C281 0.931 . S
H309 C283 0.929 . S
H310 C284 0.930 . S
H311 C285 0.931 . S
H312 C292 0.932 . S
H313 C293 0.930 . S
H314 C294 0.929 . S
H315 C296 0.930 . S
H316 C298 0.932 . S
H317 C299 0.929 . S
H318 C300 0.928 . S
H319 C302 0.932 . S
C320 C321 1.264 . S
C320 C325 1.479 . S
C320 C330 1.465 . S
C321 C320 1.264 . S
C321 C323 1.339 . S
C321 H348 0.931 . S
C322 C323 1.395 . S
C322 C324 1.320 . S
C323 C321 1.339 . S
C323 C322 1.395 . S
C323 H349 0.929 . S
C324 C322 1.320 . S
C324 C325 1.405 . S
C324 H350 0.930 . S
C325 C320 1.479 . S
C325 C324 1.405 . S
C325 H351 0.931 . S
U326 O327 2.454 . S
U326 O328 2.458 . S
U326 C329 2.984 . S
U326 C330 2.847 . S
U326 C343 2.882 . S
U326 O344 2.441 . S
U326 O345 2.420 . S
U326 O346 2.455 . S
U326 O347 2.449 . S
O327 U326 2.454 . S
O327 C329 1.353 . S
O328 U326 2.458 . S
O328 C329 1.286 . S
C329 U326 2.984 . S
C329 O327 1.353 . S
C329 O328 1.286 . S
C329 C331 1.363 . S
C330 C320 1.465 . S
C330 U326 2.847 . S
C330 O344 1.249 . S
C330 O345 1.202 . S
C331 C329 1.363 . S
C331 C333 1.408 . S
C331 C336 1.342 . S
C332 C333 1.310 . S
C332 C335 1.461 . S
C332 H352 0.932 . S
C333 C331 1.408 . S
C333 C332 1.310 . S
C333 H353 0.930 . S
C334 C335 1.474 . S
C334 C336 1.285 . S
C334 H354 0.929 . S
C335 C332 1.461 . S
C335 C334 1.474 . S
C336 C331 1.342 . S
C336 C334 1.285 . S
C336 H355 0.930 . S
C337 C340 1.424 . S
C337 C342 1.245 . S
C337 C343 1.428 . S
C338 C341 1.260 . S
C338 C342 1.477 . S
C338 H356 0.932 . S
C339 C340 1.384 . S
C339 C341 1.479 . S
C339 H357 0.929 . S
C340 C337 1.424 . S
C340 C339 1.384 . S
C340 H358 0.928 . S
C341 C338 1.260 . S
C341 C339 1.479 . S
C342 C337 1.245 . S
C342 C338 1.477 . S
C342 H359 0.932 . S
C343 U326 2.882 . S
C343 C337 1.428 . S
C343 O346 1.301 . S
C343 O347 1.282 . S
O344 U326 2.441 . S
O344 C330 1.249 . S
O345 U326 2.420 . S
O345 C330 1.202 . S
O346 U326 2.455 . S
O346 C343 1.301 . S
O347 U326 2.449 . S
O347 C343 1.282 . S
H348 C321 0.931 . S
H349 C323 0.929 . S
H350 C324 0.930 . S
H351 C325 0.931 . S
H352 C332 0.932 . S
H353 C333 0.930 . S
H354 C334 0.929 . S
H355 C336 0.930 . S
H356 C338 0.932 . S
H357 C339 0.929 . S
H358 C340 0.928 . S
H359 C342 0.932 . S
C360 C361 1.264 . S
C360 C365 1.479 . S
C360 C370 1.465 . S
C361 C360 1.264 . S
C361 C363 1.339 . S
C361 H388 0.931 . S
C362 C363 1.395 . S
C362 C364 1.320 . S
C363 C361 1.339 . S
C363 C362 1.395 . S
C363 H389 0.929 . S
C364 C362 1.320 . S
C364 C365 1.405 . S
C364 H390 0.930 . S
C365 C360 1.479 . S
C365 C364 1.405 . S
C365 H391 0.931 . S
U366 O367 2.454 . S
U366 O368 2.458 . S
U366 C369 2.984 . S
U366 C370 2.847 . S
U366 C383 2.882 . S
U366 O384 2.441 . S
U366 O385 2.420 . S
U366 O386 2.455 . S
U366 O387 2.449 . S
O367 U366 2.454 . S
O367 C369 1.353 . S
O368 U366 2.458 . S
O368 C369 1.286 . S
C369 U366 2.984 . S
C369 O367 1.353 . S
C369 O368 1.286 . S
C369 C371 1.363 . S
C370 C360 1.465 . S
C370 U366 2.847 . S
C370 O384 1.249 . S
C370 O385 1.202 . S
C371 C369 1.363 . S
C371 C373 1.408 . S
C371 C376 1.342 . S
C372 C373 1.310 . S
C372 C375 1.461 . S
C372 H392 0.932 . S
C373 C371 1.408 . S
C373 C372 1.310 . S
C373 H393 0.930 . S
C374 C375 1.474 . S
C374 C376 1.285 . S
C374 H394 0.929 . S
C375 C372 1.461 . S
C375 C374 1.474 . S
C376 C371 1.342 . S
C376 C374 1.285 . S
C376 H395 0.930 . S
C377 C380 1.424 . S
C377 C382 1.245 . S
C377 C383 1.428 . S
C378 C381 1.260 . S
C378 C382 1.477 . S
C378 H396 0.932 . S
C379 C380 1.384 . S
C379 C381 1.479 . S
C379 H397 0.929 . S
C380 C377 1.424 . S
C380 C379 1.384 . S
C380 H398 0.928 . S
C381 C378 1.260 . S
C381 C379 1.479 . S
C382 C377 1.245 . S
C382 C378 1.477 . S
C382 H399 0.932 . S
C383 U366 2.882 . S
C383 C377 1.428 . S
C383 O386 1.301 . S
C383 O387 1.282 . S
O384 U366 2.441 . S
O384 C370 1.249 . S
O385 U366 2.420 . S
O385 C370 1.202 . S
O386 U366 2.455 . S
O386 C383 1.301 . S
O387 U366 2.449 . S
O387 C383 1.282 . S
H388 C361 0.931 . S
H389 C363 0.929 . S
H390 C364 0.930 . S
H391 C365 0.931 . S
H392 C372 0.932 . S
H393 C373 0.930 . S
H394 C374 0.929 . S
H395 C376 0.930 . S
H396 C378 0.932 . S
H397 C379 0.929 . S
H398 C380 0.928 . S
H399 C382 0.932 . S
C400 C401 1.264 . S
C400 C405 1.479 . S
C400 C410 1.465 . S
C401 C400 1.264 . S
C401 C403 1.339 . S
C401 H428 0.931 . S
C402 C403 1.395 . S
C402 C404 1.320 . S
C403 C401 1.339 . S
C403 C402 1.395 . S
C403 H429 0.929 . S
C404 C402 1.320 . S
C404 C405 1.405 . S
C404 H430 0.930 . S
C405 C400 1.479 . S
C405 C404 1.405 . S
C405 H431 0.931 . S
U406 O407 2.454 . S
U406 O408 2.458 . S
U406 C409 2.984 . S
U406 C410 2.847 . S
U406 C423 2.882 . S
U406 O424 2.441 . S
U406 O425 2.420 . S
U406 O426 2.455 . S
U406 O427 2.449 . S
O407 U406 2.454 . S
O407 C409 1.353 . S
O408 U406 2.458 . S
O408 C409 1.286 . S
C409 U406 2.984 . S
C409 O407 1.353 . S
C409 O408 1.286 . S
C409 C411 1.363 . S
C410 C400 1.465 . S
C410 U406 2.847 . S
C410 O424 1.249 . S
C410 O425 1.202 . S
C411 C409 1.363 . S
C411 C413 1.408 . S
C411 C416 1.342 . S
C412 C413 1.310 . S
C412 C415 1.461 . S
C412 H432 0.932 . S
C413 C411 1.408 . S
C413 C412 1.310 . S
C413 H433 0.930 . S
C414 C415 1.474 . S
C414 C416 1.285 . S
C414 H434 0.929 . S
C415 C412 1.461 . S
C415 C414 1.474 . S
C416 C411 1.342 . S
C416 C414 1.285 . S
C416 H435 0.930 . S
C417 C420 1.424 . S
C417 C422 1.245 . S
C417 C423 1.428 . S
C418 C421 1.260 . S
C418 C422 1.477 . S
C418 H436 0.932 . S
C419 C420 1.384 . S
C419 C421 1.479 . S
C419 H437 0.929 . S
C420 C417 1.424 . S
C420 C419 1.384 . S
C420 H438 0.928 . S
C421 C418 1.260 . S
C421 C419 1.479 . S
C422 C417 1.245 . S
C422 C418 1.477 . S
C422 H439 0.932 . S
C423 U406 2.882 . S
C423 C417 1.428 . S
C423 O426 1.301 . S
C423 O427 1.282 . S
O424 U406 2.441 . S
O424 C410 1.249 . S
O425 U406 2.420 . S
O425 C410 1.202 . S
O426 U406 2.455 . S
O426 C423 1.301 . S
O427 U406 2.449 . S
O427 C423 1.282 . S
H428 C401 0.931 . S
H429 C403 0.929 . S
H430 C404 0.930 . S
H431 C405 0.931 . S
H432 C412 0.932 . S
H433 C413 0.930 . S
H434 C414 0.929 . S
H435 C416 0.930 . S
H436 C418 0.932 . S
H437 C419 0.929 . S
H438 C420 0.928 . S
H439 C422 0.932 . S
C440 C441 1.264 . S
C440 C445 1.479 . S
C440 C450 1.465 . S
C441 C440 1.264 . S
C441 C443 1.339 . S
C441 H468 0.931 . S
C442 C443 1.395 . S
C442 C444 1.320 . S
C443 C441 1.339 . S
C443 C442 1.395 . S
C443 H469 0.929 . S
C444 C442 1.320 . S
C444 C445 1.405 . S
C444 H470 0.930 . S
C445 C440 1.479 . S
C445 C444 1.405 . S
C445 H471 0.931 . S
U446 O447 2.454 . S
U446 O448 2.458 . S
U446 C449 2.984 . S
U446 C450 2.847 . S
U446 C463 2.882 . S
U446 O464 2.441 . S
U446 O465 2.420 . S
U446 O466 2.455 . S
U446 O467 2.449 . S
O447 U446 2.454 . S
O447 C449 1.353 . S
O448 U446 2.458 . S
O448 C449 1.286 . S
C449 U446 2.984 . S
C449 O447 1.353 . S
C449 O448 1.286 . S
C449 C451 1.363 . S
C450 C440 1.465 . S
C450 U446 2.847 . S
C450 O464 1.249 . S
C450 O465 1.202 . S
C451 C449 1.363 . S
C451 C453 1.408 . S
C451 C456 1.342 . S
C452 C453 1.310 . S
C452 C455 1.461 . S
C452 H472 0.932 . S
C453 C451 1.408 . S
C453 C452 1.310 . S
C453 H473 0.930 . S
C454 C455 1.474 . S
C454 C456 1.285 . S
C454 H474 0.929 . S
C455 C452 1.461 . S
C455 C454 1.474 . S
C456 C451 1.342 . S
C456 C454 1.285 . S
C456 H475 0.930 . S
C457 C460 1.424 . S
C457 C462 1.245 . S
C457 C463 1.428 . S
C458 C461 1.260 . S
C458 C462 1.477 . S
C458 H476 0.932 . S
C459 C460 1.384 . S
C459 C461 1.479 . S
C459 H477 0.929 . S
C460 C457 1.424 . S
C460 C459 1.384 . S
C460 H478 0.928 . S
C461 C458 1.260 . S
C461 C459 1.479 . S
C462 C457 1.245 . S
C462 C458 1.477 . S
C462 H479 0.932 . S
C463 U446 2.882 . S
C463 C457 1.428 . S
C463 O466 1.301 . S
C463 O467 1.282 . S
O464 U446 2.441 . S
O464 C450 1.249 . S
O465 U446 2.420 . S
O465 C450 1.202 . S
O466 U446 2.455 . S
O466 C463 1.301 . S
O467 U446 2.449 . S
O467 C463 1.282 . S
H468 C441 0.931 . S
H469 C443 0.929 . S
H470 C444 0.930 . S
H471 C445 0.931 . S
H472 C452 0.932 . S
H473 C453 0.930 . S
H474 C454 0.929 . S
H475 C456 0.930 . S
H476 C458 0.932 . S
H477 C459 0.929 . S
H478 C460 0.928 . S
H479 C462 0.932 . S
C480 C481 1.264 . S
C480 C485 1.479 . S
C480 C490 1.465 . S
C481 C480 1.264 . S
C481 C483 1.339 . S
C481 H508 0.931 . S
C482 C483 1.395 . S
C482 C484 1.320 . S
C483 C481 1.339 . S
C483 C482 1.395 . S
C483 H509 0.929 . S
C484 C482 1.320 . S
C484 C485 1.405 . S
C484 H510 0.930 . S
C485 C480 1.479 . S
C485 C484 1.405 . S
C485 H511 0.931 . S
U486 O487 2.454 . S
U486 O488 2.458 . S
U486 C489 2.984 . S
U486 C490 2.847 . S
U486 C503 2.882 . S
U486 O504 2.441 . S
U486 O505 2.420 . S
U486 O506 2.455 . S
U486 O507 2.449 . S
O487 U486 2.454 . S
O487 C489 1.353 . S
O488 U486 2.458 . S
O488 C489 1.286 . S
C489 U486 2.984 . S
C489 O487 1.353 . S
C489 O488 1.286 . S
C489 C491 1.363 . S
C490 C480 1.465 . S
C490 U486 2.847 . S
C490 O504 1.249 . S
C490 O505 1.202 . S
C491 C489 1.363 . S
C491 C493 1.408 . S
C491 C496 1.342 . S
C492 C493 1.310 . S
C492 C495 1.461 . S
C492 H512 0.932 . S
C493 C491 1.408 . S
C493 C492 1.310 . S
C493 H513 0.930 . S
C494 C495 1.474 . S
C494 C496 1.285 . S
C494 H514 0.929 . S
C495 C492 1.461 . S
C495 C494 1.474 . S
C496 C491 1.342 . S
C496 C494 1.285 . S
C496 H515 0.930 . S
C497 C500 1.424 . S
C497 C502 1.245 . S
C497 C503 1.428 . S
C498 C501 1.260 . S
C498 C502 1.477 . S
C498 H516 0.932 . S
C499 C500 1.384 . S
C499 C501 1.479 . S
C499 H517 0.929 . S
C500 C497 1.424 . S
C500 C499 1.384 . S
C500 H518 0.928 . S
C501 C498 1.260 . S
C501 C499 1.479 . S
C502 C497 1.245 . S
C502 C498 1.477 . S
C502 H519 0.932 . S
C503 U486 2.882 . S
C503 C497 1.428 . S
C503 O506 1.301 . S
C503 O507 1.282 . S
O504 U486 2.441 . S
O504 C490 1.249 . S
O505 U486 2.420 . S
O505 C490 1.202 . S
O506 U486 2.455 . S
O506 C503 1.301 . S
O507 U486 2.449 . S
O507 C503 1.282 . S
H508 C481 0.931 . S
H509 C483 0.929 . S
H510 C484 0.930 . S
H511 C485 0.931 . S
H512 C492 0.932 . S
H513 C493 0.930 . S
H514 C494 0.929 . S
H515 C496 0.930 . S
H516 C498 0.932 . S
H517 C499 0.929 . S
H518 C500 0.928 . S
H519 C502 0.932 . S
C520 C521 1.264 . S
C520 C525 1.479 . S
C520 C530 1.465 . S
C521 C520 1.264 . S
C521 C523 1.339 . S
C521 H548 0.931 . S
C522 C523 1.395 . S
C522 C524 1.320 . S
C523 C521 1.339 . S
C523 C522 1.395 . S
C523 H549 0.929 . S
C524 C522 1.320 . S
C524 C525 1.405 . S
C524 H550 0.930 . S
C525 C520 1.479 . S
C525 C524 1.405 . S
C525 H551 0.931 . S
U526 O527 2.454 . S
U526 O528 2.458 . S
U526 C529 2.984 . S
U526 C530 2.847 . S
U526 C543 2.882 . S
U526 O544 2.441 . S
U526 O545 2.420 . S
U526 O546 2.455 . S
U526 O547 2.449 . S
O527 U526 2.454 . S
O527 C529 1.353 . S
O528 U526 2.458 . S
O528 C529 1.286 . S
C529 U526 2.984 . S
C529 O527 1.353 . S
C529 O528 1.286 . S
C529 C531 1.363 . S
C530 C520 1.465 . S
C530 U526 2.847 . S
C530 O544 1.249 . S
C530 O545 1.202 . S
C531 C529 1.363 . S
C531 C533 1.408 . S
C531 C536 1.342 . S
C532 C533 1.310 . S
C532 C535 1.461 . S
C532 H552 0.932 . S
C533 C531 1.408 . S
C533 C532 1.310 . S
C533 H553 0.930 . S
C534 C535 1.474 . S
C534 C536 1.285 . S
C534 H554 0.929 . S
C535 C532 1.461 . S
C535 C534 1.474 . S
C536 C531 1.342 . S
C536 C534 1.285 . S
C536 H555 0.930 . S
C537 C540 1.424 . S
C537 C542 1.245 . S
C537 C543 1.428 . S
C538 C541 1.260 . S
C538 C542 1.477 . S
C538 H556 0.932 . S
C539 C540 1.384 . S
C539 C541 1.479 . S
C539 H557 0.929 . S
C540 C537 1.424 . S
C540 C539 1.384 . S
C540 H558 0.928 . S
C541 C538 1.260 . S
C541 C539 1.479 . S
C542 C537 1.245 . S
C542 C538 1.477 . S
C542 H559 0.932 . S
C543 U526 2.882 . S
C543 C537 1.428 . S
C543 O546 1.301 . S
C543 O547 1.282 . S
O544 U526 2.441 . S
O544 C530 1.249 . S
O545 U526 2.420 . S
O545 C530 1.202 . S
O546 U526 2.455 . S
O546 C543 1.301 . S
O547 U526 2.449 . S
O547 C543 1.282 . S
H548 C521 0.931 . S
H549 C523 0.929 . S
H550 C524 0.930 . S
H551 C525 0.931 . S
H552 C532 0.932 . S
H553 C533 0.930 . S
H554 C534 0.929 . S
H555 C536 0.930 . S
H556 C538 0.932 . S
H557 C539 0.929 . S
H558 C540 0.928 . S
H559 C542 0.932 . S
C560 C561 1.264 . S
C560 C565 1.479 . S
C560 C570 1.465 . S
C561 C560 1.264 . S
C561 C563 1.339 . S
C561 H588 0.931 . S
C562 C563 1.395 . S
C562 C564 1.320 . S
C563 C561 1.339 . S
C563 C562 1.395 . S
C563 H589 0.929 . S
C564 C562 1.320 . S
C564 C565 1.405 . S
C564 H590 0.930 . S
C565 C560 1.479 . S
C565 C564 1.405 . S
C565 H591 0.931 . S
U566 O567 2.454 . S
U566 O568 2.458 . S
U566 C569 2.984 . S
U566 C570 2.847 . S
U566 C583 2.882 . S
U566 O584 2.441 . S
U566 O585 2.420 . S
U566 O586 2.455 . S
U566 O587 2.449 . S
O567 U566 2.454 . S
O567 C569 1.353 . S
O568 U566 2.458 . S
O568 C569 1.286 . S
C569 U566 2.984 . S
C569 O567 1.353 . S
C569 O568 1.286 . S
C569 C571 1.363 . S
C570 C560 1.465 . S
C570 U566 2.847 . S
C570 O584 1.249 . S
C570 O585 1.202 . S
C571 C569 1.363 . S
C571 C573 1.408 . S
C571 C576 1.342 . S
C572 C573 1.310 . S
C572 C575 1.461 . S
C572 H592 0.932 . S
C573 C571 1.408 . S
C573 C572 1.310 . S
C573 H593 0.930 . S
C574 C575 1.474 . S
C574 C576 1.285 . S
C574 H594 0.929 . S
C575 C572 1.461 . S
C575 C574 1.474 . S
C576 C571 1.342 . S
C576 C574 1.285 . S
C576 H595 0.930 . S
C577 C580 1.424 . S
C577 C582 1.245 . S
C577 C583 1.428 . S
C578 C581 1.260 . S
C578 C582 1.477 . S
C578 H596 0.932 . S
C579 C580 1.384 . S
C579 C581 1.479 . S
C579 H597 0.929 . S
C580 C577 1.424 . S
C580 C579 1.384 . S
C580 H598 0.928 . S
C581 C578 1.260 . S
C581 C579 1.479 . S
C582 C577 1.245 . S
C582 C578 1.477 . S
C582 H599 0.932 . S
C583 U566 2.882 . S
C583 C577 1.428 . S
C583 O586 1.301 . S
C583 O587 1.282 . S
O584 U566 2.441 . S
O584 C570 1.249 . S
O585 U566 2.420 . S
O585 C570 1.202 . S
O586 U566 2.455 . S
O586 C583 1.301 . S
O587 U566 2.449 . S
O587 C583 1.282 . S
H588 C561 0.931 . S
H589 C563 0.929 . S
H590 C564 0.930 . S
H591 C565 0.931 . S
H592 C572 0.932 . S
H593 C573 0.930 . S
H594 C574 0.929 . S
H595 C576 0.930 . S
H596 C578 0.932 . S
H597 C579 0.929 . S
H598 C580 0.928 . S
H599 C582 0.932 . S
C600 C601 1.264 . S
C600 C605 1.479 . S
C600 C610 1.465 . S
C601 C600 1.264 . S
C601 C603 1.339 . S
C601 H628 0.931 . S
C602 C603 1.395 . S
C602 C604 1.320 . S
C603 C601 1.339 . S
C603 C602 1.395 . S
C603 H629 0.929 . S
C604 C602 1.320 . S
C604 C605 1.405 . S
C604 H630 0.930 . S
C605 C600 1.479 . S
C605 C604 1.405 . S
C605 H631 0.931 . S
U606 O607 2.454 . S
U606 O608 2.458 . S
U606 C609 2.984 . S
U606 C610 2.847 . S
U606 C623 2.882 . S
U606 O624 2.441 . S
U606 O625 2.420 . S
U606 O626 2.455 . S
U606 O627 2.449 . S
O607 U606 2.454 . S
O607 C609 1.353 . S
O608 U606 2.458 . S
O608 C609 1.286 . S
C609 U606 2.984 . S
C609 O607 1.353 . S
C609 O608 1.286 . S
C609 C611 1.363 . S
C610 C600 1.465 . S
C610 U606 2.847 . S
C610 O624 1.249 . S
C610 O625 1.202 . S
C611 C609 1.363 . S
C611 C613 1.408 . S
C611 C616 1.342 . S
C612 C613 1.310 . S
C612 C615 1.461 . S
C612 H632 0.932 . S
C613 C611 1.408 . S
C613 C612 1.310 . S
C613 H633 0.930 . S
C614 C615 1.474 . S
C614 C616 1.285 . S
C614 H634 0.929 . S
C615 C612 1.461 . S
C615 C614 1.474 . S
C616 C611 1.342 . S
C616 C614 1.285 . S
C616 H635 0.930 . S
C617 C620 1.424 . S
C617 C622 1.245 . S
C617 C623 1.428 . S
C618 C621 1.260 . S
C618 C622 1.477 . S
C618 H636 0.932 . S
C619 C620 1.384 . S
C619 C621 1.479 . S
C619 H637 0.929 . S
C620 C617 1.424 . S
C620 C619 1.384 . S
C620 H638 0.928 . S
C621 C618 1.260 . S
C621 C619 1.479 . S
C622 C617 1.245 . S
C622 C618 1.477 . S
C622 H639 0.932 . S
C623 U606 2.882 . S
C623 C617 1.428 . S
C623 O626 1.301 . S
C623 O627 1.282 . S
O624 U606 2.441 . S
O624 C610 1.249 . S
O625 U606 2.420 . S
O625 C610 1.202 . S
O626 U606 2.455 . S
O626 C623 1.301 . S
O627 U606 2.449 . S
O627 C623 1.282 . S
H628 C601 0.931 . S
H629 C603 0.929 . S
H630 C604 0.930 . S
H631 C605 0.931 . S
H632 C612 0.932 . S
H633 C613 0.930 . S
H634 C614 0.929 . S
H635 C616 0.930 . S
H636 C618 0.932 . S
H637 C619 0.929 . S
H638 C620 0.928 . S
H639 C622 0.932 . S
C640 C641 1.264 . S
C640 C645 1.479 . S
C640 C650 1.465 . S
C641 C640 1.264 . S
C641 C643 1.339 . S
C641 H668 0.931 . S
C642 C643 1.395 . S
C642 C644 1.320 . S
C643 C641 1.339 . S
C643 C642 1.395 . S
C643 H669 0.929 . S
C644 C642 1.320 . S
C644 C645 1.405 . S
C644 H670 0.930 . S
C645 C640 1.479 . S
C645 C644 1.405 . S
C645 H671 0.931 . S
U646 O647 2.454 . S
U646 O648 2.458 . S
U646 C649 2.984 . S
U646 C650 2.847 . S
U646 C663 2.882 . S
U646 O664 2.441 . S
U646 O665 2.420 . S
U646 O666 2.455 . S
U646 O667 2.449 . S
O647 U646 2.454 . S
O647 C649 1.353 . S
O648 U646 2.458 . S
O648 C649 1.286 . S
C649 U646 2.984 . S
C649 O647 1.353 . S
C649 O648 1.286 . S
C649 C651 1.363 . S
C650 C640 1.465 . S
C650 U646 2.847 . S
C650 O664 1.249 . S
C650 O665 1.202 . S
C651 C649 1.363 . S
C651 C653 1.408 . S
C651 C656 1.342 . S
C652 C653 1.310 . S
C652 C655 1.461 . S
C652 H672 0.932 . S
C653 C651 1.408 . S
C653 C652 1.310 . S
C653 H673 0.930 . S
C654 C655 1.474 . S
C654 C656 1.285 . S
C654 H674 0.929 . S
C655 C652 1.461 . S
C655 C654 1.474 . S
C656 C651 1.342 . S
C656 C654 1.285 . S
C656 H675 0.930 . S
C657 C660 1.424 . S
C657 C662 1.245 . S
C657 C663 1.428 . S
C658 C661 1.260 . S
C658 C662 1.477 . S
C658 H676 0.932 . S
C659 C660 1.384 . S
C659 C661 1.479 . S
C659 H677 0.929 . S
C660 C657 1.424 . S
C660 C659 1.384 . S
C660 H678 0.928 . S
C661 C658 1.260 . S
C661 C659 1.479 . S
C662 C657 1.245 . S
C662 C658 1.477 . S
C662 H679 0.932 . S
C663 U646 2.882 . S
C663 C657 1.428 . S
C663 O666 1.301 . S
C663 O667 1.282 . S
O664 U646 2.441 . S
O664 C650 1.249 . S
O665 U646 2.420 . S
O665 C650 1.202 . S
O666 U646 2.455 . S
O666 C663 1.301 . S
O667 U646 2.449 . S
O667 C663 1.282 . S
H668 C641 0.931 . S
H669 C643 0.929 . S
H670 C644 0.930 . S
H671 C645 0.931 . S
H672 C652 0.932 . S
H673 C653 0.930 . S
H674 C654 0.929 . S
H675 C656 0.930 . S
H676 C658 0.932 . S
H677 C659 0.929 . S
H678 C660 0.928 . S
H679 C662 0.932 . S
C680 C681 1.264 . S
C680 C685 1.479 . S
C680 C690 1.465 . S
C681 C680 1.264 . S
C681 C683 1.339 . S
C681 H708 0.931 . S
C682 C683 1.395 . S
C682 C684 1.320 . S
C683 C681 1.339 . S
C683 C682 1.395 . S
C683 H709 0.929 . S
C684 C682 1.320 . S
C684 C685 1.405 . S
C684 H710 0.930 . S
C685 C680 1.479 . S
C685 C684 1.405 . S
C685 H711 0.931 . S
U686 O687 2.454 . S
U686 O688 2.458 . S
U686 C689 2.984 . S
U686 C690 2.847 . S
U686 C703 2.882 . S
U686 O704 2.441 . S
U686 O705 2.420 . S
U686 O706 2.455 . S
U686 O707 2.449 . S
O687 U686 2.454 . S
O687 C689 1.353 . S
O688 U686 2.458 . S
O688 C689 1.286 . S
C689 U686 2.984 . S
C689 O687 1.353 . S
C689 O688 1.286 . S
C689 C691 1.363 . S
C690 C680 1.465 . S
C690 U686 2.847 . S
C690 O704 1.249 . S
C690 O705 1.202 . S
C691 C689 1.363 . S
C691 C693 1.408 . S
C691 C696 1.342 . S
C692 C693 1.310 . S
C692 C695 1.461 . S
C692 H712 0.932 . S
C693 C691 1.408 . S
C693 C692 1.310 . S
C693 H713 0.930 . S
C694 C695 1.474 . S
C694 C696 1.285 . S
C694 H714 0.929 . S
C695 C692 1.461 . S
C695 C694 1.474 . S
C696 C691 1.342 . S
C696 C694 1.285 . S
C696 H715 0.930 . S
C697 C700 1.424 . S
C697 C702 1.245 . S
C697 C703 1.428 . S
C698 C701 1.260 . S
C698 C702 1.477 . S
C698 H716 0.932 . S
C699 C700 1.384 . S
C699 C701 1.479 . S
C699 H717 0.929 . S
C700 C697 1.424 . S
C700 C699 1.384 . S
C700 H718 0.928 . S
C701 C698 1.260 . S
C701 C699 1.479 . S
C702 C697 1.245 . S
C702 C698 1.477 . S
C702 H719 0.932 . S
C703 U686 2.882 . S
C703 C697 1.428 . S
C703 O706 1.301 . S
C703 O707 1.282 . S
O704 U686 2.441 . S
O704 C690 1.249 . S
O705 U686 2.420 . S
O705 C690 1.202 . S
O706 U686 2.455 . S
O706 C703 1.301 . S
O707 U686 2.449 . S
O707 C703 1.282 . S
H708 C681 0.931 . S
H709 C683 0.929 . S
H710 C684 0.930 . S
H711 C685 0.931 . S
H712 C692 0.932 . S
H713 C693 0.930 . S
H714 C694 0.929 . S
H715 C696 0.930 . S
H716 C698 0.932 . S
H717 C699 0.929 . S
H718 C700 0.928 . S
H719 C702 0.932 . S
C720 C721 1.264 . S
C720 C725 1.479 . S
C720 C730 1.465 . S
C721 C720 1.264 . S
C721 C723 1.339 . S
C721 H748 0.931 . S
C722 C723 1.395 . S
C722 C724 1.320 . S
C723 C721 1.339 . S
C723 C722 1.395 . S
C723 H749 0.929 . S
C724 C722 1.320 . S
C724 C725 1.405 . S
C724 H750 0.930 . S
C725 C720 1.479 . S
C725 C724 1.405 . S
C725 H751 0.931 . S
U726 O727 2.454 . S
U726 O728 2.458 . S
U726 C729 2.984 . S
U726 C730 2.847 . S
U726 C743 2.882 . S
U726 O744 2.441 . S
U726 O745 2.420 . S
U726 O746 2.455 . S
U726 O747 2.449 . S
O727 U726 2.454 . S
O727 C729 1.353 . S
O728 U726 2.458 . S
O728 C729 1.286 . S
C729 U726 2.984 . S
C729 O727 1.353 . S
C729 O728 1.286 . S
C729 C731 1.363 . S
C730 C720 1.465 . S
C730 U726 2.847 . S
C730 O744 1.249 . S
C730 O745 1.202 . S
C731 C729 1.363 . S
C731 C733 1.408 . S
C731 C736 1.342 . S
C732 C733 1.310 . S
C732 C735 1.461 . S
C732 H752 0.932 . S
C733 C731 1.408 . S
C733 C732 1.310 . S
C733 H753 0.930 . S
C734 C735 1.474 . S
C734 C736 1.285 . S
C734 H754 0.929 . S
C735 C732 1.461 . S
C735 C734 1.474 . S
C736 C731 1.342 . S
C736 C734 1.285 . S
C736 H755 0.930 . S
C737 C740 1.424 . S
C737 C742 1.245 . S
C737 C743 1.428 . S
C738 C741 1.260 . S
C738 C742 1.477 . S
C738 H756 0.932 . S
C739 C740 1.384 . S
C739 C741 1.479 . S
C739 H757 0.929 . S
C740 C737 1.424 . S
C740 C739 1.384 . S
C740 H758 0.928 . S
C741 C738 1.260 . S
C741 C739 1.479 . S
C742 C737 1.245 . S
C742 C738 1.477 . S
C742 H759 0.932 . S
C743 U726 2.882 . S
C743 C737 1.428 . S
C743 O746 1.301 . S
C743 O747 1.282 . S
O744 U726 2.441 . S
O744 C730 1.249 . S
O745 U726 2.420 . S
O745 C730 1.202 . S
O746 U726 2.455 . S
O746 C743 1.301 . S
O747 U726 2.449 . S
O747 C743 1.282 . S
H748 C721 0.931 . S
H749 C723 0.929 . S
H750 C724 0.930 . S
H751 C725 0.931 . S
H752 C732 0.932 . S
H753 C733 0.930 . S
H754 C734 0.929 . S
H755 C736 0.930 . S
H756 C738 0.932 . S
H757 C739 0.929 . S
H758 C740 0.928 . S
H759 C742 0.932 . S
C760 C761 1.264 . S
C760 C765 1.479 . S
C760 C770 1.465 . S
C761 C760 1.264 . S
C761 C763 1.339 . S
C761 H788 0.931 . S
C762 C763 1.395 . S
C762 C764 1.320 . S
C763 C761 1.339 . S
C763 C762 1.395 . S
C763 H789 0.929 . S
C764 C762 1.320 . S
C764 C765 1.405 . S
C764 H790 0.930 . S
C765 C760 1.479 . S
C765 C764 1.405 . S
C765 H791 0.931 . S
U766 O767 2.454 . S
U766 O768 2.458 . S
U766 C769 2.984 . S
U766 C770 2.847 . S
U766 C783 2.882 . S
U766 O784 2.441 . S
U766 O785 2.420 . S
U766 O786 2.455 . S
U766 O787 2.449 . S
O767 U766 2.454 . S
O767 C769 1.353 . S
O768 U766 2.458 . S
O768 C769 1.286 . S
C769 U766 2.984 . S
C769 O767 1.353 . S
C769 O768 1.286 . S
C769 C771 1.363 . S
C770 C760 1.465 . S
C770 U766 2.847 . S
C770 O784 1.249 . S
C770 O785 1.202 . S
C771 C769 1.363 . S
C771 C773 1.408 . S
C771 C776 1.342 . S
C772 C773 1.310 . S
C772 C775 1.461 . S
C772 H792 0.932 . S
C773 C771 1.408 . S
C773 C772 1.310 . S
C773 H793 0.930 . S
C774 C775 1.474 . S
C774 C776 1.285 . S
C774 H794 0.929 . S
C775 C772 1.461 . S
C775 C774 1.474 . S
C776 C771 1.342 . S
C776 C774 1.285 . S
C776 H795 0.930 . S
C777 C780 1.424 . S
C777 C782 1.245 . S
C777 C783 1.428 . S
C778 C781 1.260 . S
C778 C782 1.477 . S
C778 H796 0.932 . S
C779 C780 1.384 . S
C779 C781 1.479 . S
C779 H797 0.929 . S
C780 C777 1.424 . S
C780 C779 1.384 . S
C780 H798 0.928 . S
C781 C778 1.260 . S
C781 C779 1.479 . S
C782 C777 1.245 . S
C782 C778 1.477 . S
C782 H799 0.932 . S
C783 U766 2.882 . S
C783 C777 1.428 . S
C783 O786 1.301 . S
C783 O787 1.282 . S
O784 U766 2.441 . S
O784 C770 1.249 . S
O785 U766 2.420 . S
O785 C770 1.202 . S
O786 U766 2.455 . S
O786 C783 1.301 . S
O787 U766 2.449 . S
O787 C783 1.282 . S
H788 C761 0.931 . S
H789 C763 0.929 . S
H790 C764 0.930 . S
H791 C765 0.931 . S
H792 C772 0.932 . S
H793 C773 0.930 . S
H794 C774 0.929 . S
H795 C776 0.930 . S
H796 C778 0.932 . S
H797 C779 0.929 . S
H798 C780 0.928 . S
H799 C782 0.932 . S
C800 C801 1.264 . S
C800 C805 1.479 . S
C800 C810 1.465 . S
C801 C800 1.264 . S
C801 C803 1.339 . S
C801 H828 0.931 . S
C802 C803 1.395 . S
C802 C804 1.320 . S
C803 C801 1.339 . S
C803 C802 1.395 . S
C803 H829 0.929 . S
C804 C802 1.320 . S
C804 C805 1.405 . S
C804 H830 0.930 . S
C805 C800 1.479 . S
C805 C804 1.405 . S
C805 H831 0.931 . S
U806 O807 2.454 . S
U806 O808 2.458 . S
U806 C809 2.984 . S
U806 C810 2.847 . S
U806 C823 2.882 . S
U806 O824 2.441 . S
U806 O825 2.420 . S
U806 O826 2.455 . S
U806 O827 2.449 . S
O807 U806 2.454 . S
O807 C809 1.353 . S
O808 U806 2.458 . S
O808 C809 1.286 . S
C809 U806 2.984 . S
C809 O807 1.353 . S
C809 O808 1.286 . S
C809 C811 1.363 . S
C810 C800 1.465 . S
C810 U806 2.847 . S
C810 O824 1.249 . S
C810 O825 1.202 . S
C811 C809 1.363 . S
C811 C813 1.408 . S
C811 C816 1.342 . S
C812 C813 1.310 . S
C812 C815 1.461 . S
C812 H832 0.932 . S
C813 C811 1.408 . S
C813 C812 1.310 . S
C813 H833 0.930 . S
C814 C815 1.474 . S
C814 C816 1.285 . S
C814 H834 0.929 . S
C815 C812 1.461 . S
C815 C814 1.474 . S
C816 C811 1.342 . S
C816 C814 1.285 . S
C816 H835 0.930 . S
C817 C820 1.424 . S
C817 C822 1.245 . S
C817 C823 1.428 . S
C818 C821 1.260 . S
C818 C822 1.477 . S
C818 H836 0.932 . S
C819 C820 1.384 . S
C819 C821 1.479 . S
C819 H837 0.929 . S
C820 C817 1.424 . S
C820 C819 1.384 . S
C820 H838 0.928 . S
C821 C818 1.260 . S
C821 C819 1.479 . S
C822 C817 1.245 . S
C822 C818 1.477 . S
C822 H839 0.932 . S
C823 U806 2.882 . S
C823 C817 1.428 . S
C823 O826 1.301 . S
C823 O827 1.282 . S
O824 U806 2.441 . S
O824 C810 1.249 . S
O825 U806 2.420 . S
O825 C810 1.202 . S
O826 U806 2.455 . S
O826 C823 1.301 . S
O827 U806 2.449 . S
O827 C823 1.282 . S
H828 C801 0.931 . S
H829 C803 0.929 . S
H830 C804 0.930 . S
H831 C805 0.931 . S
H832 C812 0.932 . S
H833 C813 0.930 . S
H834 C814 0.929 . S
H835 C816 0.930 . S
H836 C818 0.932 . S
H837 C819 0.929 . S
H838 C820 0.928 . S
H839 C822 0.932 . S
C840 C841 1.264 . S
C840 C845 1.479 . S
C840 C850 1.465 . S
C841 C840 1.264 . S
C841 C843 1.339 . S
C841 H868 0.931 . S
C842 C843 1.395 . S
C842 C844 1.320 . S
C843 C841 1.339 . S
C843 C842 1.395 . S
C843 H869 0.929 . S
C844 C842 1.320 . S
C844 C845 1.405 . S
C844 H870 0.930 . S
C845 C840 1.479 . S
C845 C844 1.405 . S
C845 H871 0.931 . S
U846 O847 2.454 . S
U846 O848 2.458 . S
U846 C849 2.984 . S
U846 C850 2.847 . S
U846 C863 2.882 . S
U846 O864 2.441 . S
U846 O865 2.420 . S
U846 O866 2.455 . S
U846 O867 2.449 . S
O847 U846 2.454 . S
O847 C849 1.353 . S
O848 U846 2.458 . S
O848 C849 1.286 . S
C849 U846 2.984 . S
C849 O847 1.353 . S
C849 O848 1.286 . S
C849 C851 1.363 . S
C850 C840 1.465 . S
C850 U846 2.847 . S
C850 O864 1.249 . S
C850 O865 1.202 . S
C851 C849 1.363 . S
C851 C853 1.408 . S
C851 C856 1.342 . S
C852 C853 1.310 . S
C852 C855 1.461 . S
C852 H872 0.932 . S
C853 C851 1.408 . S
C853 C852 1.310 . S
C853 H873 0.930 . S
C854 C855 1.474 . S
C854 C856 1.285 . S
C854 H874 0.929 . S
C855 C852 1.461 . S
C855 C854 1.474 . S
C856 C851 1.342 . S
C856 C854 1.285 . S
C856 H875 0.930 . S
C857 C860 1.424 . S
C857 C862 1.245 . S
C857 C863 1.428 . S
C858 C861 1.260 . S
C858 C862 1.477 . S
C858 H876 0.932 . S
C859 C860 1.384 . S
C859 C861 1.479 . S
C859 H877 0.929 . S
C860 C857 1.424 . S
C860 C859 1.384 . S
C860 H878 0.928 . S
C861 C858 1.260 . S
C861 C859 1.479 . S
C862 C857 1.245 . S
C862 C858 1.477 . S
C862 H879 0.932 . S
C863 U846 2.882 . S
C863 C857 1.428 . S
C863 O866 1.301 . S
C863 O867 1.282 . S
O864 U846 2.441 . S
O864 C850 1.249 . S
O865 U846 2.420 . S
O865 C850 1.202 . S
O866 U846 2.455 . S
O866 C863 1.301 . S
O867 U846 2.449 . S
O867 C863 1.282 . S
H868 C841 0.931 . S
H869 C843 0.929 . S
H870 C844 0.930 . S
H871 C845 0.931 . S
H872 C852 0.932 . S
H873 C853 0.930 . S
H874 C854 0.929 . S
H875 C856 0.930 . S
H876 C858 0.932 . S
H877 C859 0.929 . S
H878 C860 0.928 . S
H879 C862 0.932 . S
C880 C881 1.264 . S
C880 C885 1.479 . S
C880 C890 1.465 . S
C881 C880 1.264 . S
C881 C883 1.339 . S
C881 H908 0.931 . S
C882 C883 1.395 . S
C882 C884 1.320 . S
C883 C881 1.339 . S
C883 C882 1.395 . S
C883 H909 0.929 . S
C884 C882 1.320 . S
C884 C885 1.405 . S
C884 H910 0.930 . S
C885 C880 1.479 . S
C885 C884 1.405 . S
C885 H911 0.931 . S
U886 O887 2.454 . S
U886 O888 2.458 . S
U886 C889 2.984 . S
U886 C890 2.847 . S
U886 C903 2.882 . S
U886 O904 2.441 . S
U886 O905 2.420 . S
U886 O906 2.455 . S
U886 O907 2.449 . S
O887 U886 2.454 . S
O887 C889 1.353 . S
O888 U886 2.458 . S
O888 C889 1.286 . S
C889 U886 2.984 . S
C889 O887 1.353 . S
C889 O888 1.286 . S
C889 C891 1.363 . S
C890 C880 1.465 . S
C890 U886 2.847 . S
C890 O904 1.249 . S
C890 O905 1.202 . S
C891 C889 1.363 . S
C891 C893 1.408 . S
C891 C896 1.342 . S
C892 C893 1.310 . S
C892 C895 1.461 . S
C892 H912 0.932 . S
C893 C891 1.408 . S
C893 C892 1.310 . S
C893 H913 0.930 . S
C894 C895 1.474 . S
C894 C896 1.285 . S
C894 H914 0.929 . S
C895 C892 1.461 . S
C895 C894 1.474 . S
C896 C891 1.342 . S
C896 C894 1.285 . S
C896 H915 0.930 . S
C897 C900 1.424 . S
C897 C902 1.245 . S
C897 C903 1.428 . S
C898 C901 1.260 . S
C898 C902 1.477 . S
C898 H916 0.932 . S
C899 C900 1.384 . S
C899 C901 1.479 . S
C899 H917 0.929 . S
C900 C897 1.424 . S
C900 C899 1.384 . S
C900 H918 0.928 . S
C901 C898 1.260 . S
C901 C899 1.479 . S
C902 C897 1.245 . S
C902 C898 1.477 . S
C902 H919 0.932 . S
C903 U886 2.882 . S
C903 C897 1.428 . S
C903 O906 1.301 . S
C903 O907 1.282 . S
O904 U886 2.441 . S
O904 C890 1.249 . S
O905 U886 2.420 . S
O905 C890 1.202 . S
O906 U886 2.455 . S
O906 C903 1.301 . S
O907 U886 2.449 . S
O907 C903 1.282 . S
H908 C881 0.931 . S
H909 C883 0.929 . S
H910 C884 0.930 . S
H911 C885 0.931 . S
H912 C892 0.932 . S
H913 C893 0.930 . S
H914 C894 0.929 . S
H915 C896 0.930 . S
H916 C898 0.932 . S
H917 C899 0.929 . S
H918 C900 0.928 . S
H919 C902 0.932 . S
C920 C921 1.264 . S
C920 C925 1.479 . S
C920 C930 1.465 . S
C921 C920 1.264 . S
C921 C923 1.339 . S
C921 H948 0.931 . S
C922 C923 1.395 . S
C922 C924 1.320 . S
C923 C921 1.339 . S
C923 C922 1.395 . S
C923 H949 0.929 . S
C924 C922 1.320 . S
C924 C925 1.405 . S
C924 H950 0.930 . S
C925 C920 1.479 . S
C925 C924 1.405 . S
C925 H951 0.931 . S
U926 O927 2.454 . S
U926 O928 2.458 . S
U926 C929 2.984 . S
U926 C930 2.847 . S
U926 C943 2.882 . S
U926 O944 2.441 . S
U926 O945 2.420 . S
U926 O946 2.455 . S
U926 O947 2.449 . S
O927 U926 2.454 . S
O927 C929 1.353 . S
O928 U926 2.458 . S
O928 C929 1.286 . S
C929 U926 2.984 . S
C929 O927 1.353 . S
C929 O928 1.286 . S
C929 C931 1.363 . S
C930 C920 1.465 . S
C930 U926 2.847 . S
C930 O944 1.249 . S
C930 O945 1.202 . S
C931 C929 1.363 . S
C931 C933 1.408 . S
C931 C936 1.342 . S
C932 C933 1.310 . S
C932 C935 1.461 . S
C932 H952 0.932 . S
C933 C931 1.408 . S
C933 C932 1.310 . S
C933 H953 0.930 . S
C934 C935 1.474 . S
C934 C936 1.285 . S
C934 H954 0.929 . S
C935 C932 1.461 . S
C935 C934 1.474 . S
C936 C931 1.342 . S
C936 C934 1.285 . S
C936 H955 0.930 . S
C937 C940 1.424 . S
C937 C942 1.245 . S
C937 C943 1.428 . S
C938 C941 1.260 . S
C938 C942 1.477 . S
C938 H956 0.932 . S
C939 C940 1.384 . S
C939 C941 1.479 . S
C939 H957 0.929 . S
C940 C937 1.424 . S
C940 C939 1.384 . S
C940 H958 0.928 . S
C941 C938 1.260 . S
C941 C939 1.479 . S
C942 C937 1.245 . S
C942 C938 1.477 . S
C942 H959 0.932 . S
C943 U926 2.882 . S
C943 C937 1.428 . S
C943 O946 1.301 . S
C943 O947 1.282 . S
O944 U926 2.441 . S
O944 C930 1.249 . S
O945 U926 2.420 . S
O945 C930 1.202 . S
O946 U926 2.455 . S
O946 C943 1.301 . S
O947 U926 2.449 . S
O947 C943 1.282 . S
H948 C921 0.931 . S
H949 C923 0.929 . S
H950 C924 0.930 . S
H951 C925 0.931 . S
H952 C932 0.932 . S
H953 C933 0.930 . S
H954 C934 0.929 . S
H955 C936 0.930 . S
H956 C938 0.932 . S
H957 C939 0.929 . S
H958 C940 0.928 . S
H959 C942 0.932 . S
C960 C961 1.264 . S
C960 C965 1.479 . S
C960 C970 1.465 . S
C961 C960 1.264 . S
C961 C963 1.339 . S
C961 H988 0.931 . S
C962 C963 1.395 . S
C962 C964 1.320 . S
C963 C961 1.339 . S
C963 C962 1.395 . S
C963 H989 0.929 . S
C964 C962 1.320 . S
C964 C965 1.405 . S
C964 H990 0.930 . S
C965 C960 1.479 . S
C965 C964 1.405 . S
C965 H991 0.931 . S
U966 O967 2.454 . S
U966 O968 2.458 . S
U966 C969 2.984 . S
U966 C970 2.847 . S
U966 C983 2.882 . S
U966 O984 2.441 . S
U966 O985 2.420 . S
U966 O986 2.455 . S
U966 O987 2.449 . S
O967 U966 2.454 . S
O967 C969 1.353 . S
O968 U966 2.458 . S
O968 C969 1.286 . S
C969 U966 2.984 . S
C969 O967 1.353 . S
C969 O968 1.286 . S
C969 C971 1.363 . S
C970 C960 1.465 . S
C970 U966 2.847 . S
C970 O984 1.249 . S
C970 O985 1.202 . S
C971 C969 1.363 . S
C971 C973 1.408 . S
C971 C976 1.342 . S
C972 C973 1.310 . S
C972 C975 1.461 . S
C972 H992 0.932 . S
C973 C971 1.408 . S
C973 C972 1.310 . S
C973 H993 0.930 . S
C974 C975 1.474 . S
C974 C976 1.285 . S
C974 H994 0.929 . S
C975 C972 1.461 . S
C975 C974 1.474 . S
C976 C971 1.342 . S
C976 C974 1.285 . S
C976 H995 0.930 . S
C977 C980 1.424 . S
C977 C982 1.245 . S
C977 C983 1.428 . S
C978 C981 1.260 . S
C978 C982 1.477 . S
C978 H996 0.932 . S
C979 C980 1.384 . S
C979 C981 1.479 . S
C979 H997 0.929 . S
C980 C977 1.424 . S
C980 C979 1.384 . S
C980 H998 0.928 . S
C981 C978 1.260 . S
C981 C979 1.479 . S
C982 C977 1.245 . S
C982 C978 1.477 . S
C982 H999 0.932 . S
C983 U966 2.882 . S
C983 C977 1.428 . S
C983 O986 1.301 . S
C983 O987 1.282 . S
O984 U966 2.441 . S
O984 C970 1.249 . S
O985 U966 2.420 . S
O985 C970 1.202 . S
O986 U966 2.455 . S
O986 C983 1.301 . S
O987 U966 2.449 . S
O987 C983 1.282 . S
H988 C961 0.931 . S
H989 C963 0.929 . S
H990 C964 0.930 . S
H991 C965 0.931 . S
H992 C972 0.932 . S
H993 C973 0.930 . S
H994 C974 0.929 . S
H995 C976 0.930 . S
H996 C978 0.932 . S
H997 C979 0.929 . S
H998 C980 0.928 . S
H999 C982 0.932 . S
C1000 C1001 1.264 . S
C1000 C1005 1.479 . S
C1000 C1010 1.465 . S
C1001 C1000 1.264 . S
C1001 C1003 1.339 . S
C1001 H1028 0.931 . S
C1002 C1003 1.395 . S
C1002 C1004 1.320 . S
C1003 C1001 1.339 . S
C1003 C1002 1.395 . S
C1003 H1029 0.929 . S
C1004 C1002 1.320 . S
C1004 C1005 1.405 . S
C1004 H1030 0.930 . S
C1005 C1000 1.479 . S
C1005 C1004 1.405 . S
C1005 H1031 0.931 . S
U1006 O1007 2.454 . S
U1006 O1008 2.458 . S
U1006 C1009 2.984 . S
U1006 C1010 2.847 . S
U1006 C1023 2.882 . S
U1006 O1024 2.441 . S
U1006 O1025 2.420 . S
U1006 O1026 2.455 . S
U1006 O1027 2.449 . S
O1007 U1006 2.454 . S
O1007 C1009 1.353 . S
O1008 U1006 2.458 . S
O1008 C1009 1.286 . S
C1009 U1006 2.984 . S
C1009 O1007 1.353 . S
C1009 O1008 1.286 . S
C1009 C1011 1.363 . S
C1010 C1000 1.465 . S
C1010 U1006 2.847 . S
C1010 O1024 1.249 . S
C1010 O1025 1.202 . S
C1011 C1009 1.363 . S
C1011 C1013 1.408 . S
C1011 C1016 1.342 . S
C1012 C1013 1.310 . S
C1012 C1015 1.461 . S
C1012 H1032 0.932 . S
C1013 C1011 1.408 . S
C1013 C1012 1.310 . S
C1013 H1033 0.930 . S
C1014 C1015 1.474 . S
C1014 C1016 1.285 . S
C1014 H1034 0.929 . S
C1015 C1012 1.461 . S
C1015 C1014 1.474 . S
C1016 C1011 1.342 . S
C1016 C1014 1.285 . S
C1016 H1035 0.930 . S
C1017 C1020 1.424 . S
C1017 C1022 1.245 . S
C1017 C1023 1.428 . S
C1018 C1021 1.260 . S
C1018 C1022 1.477 . S
C1018 H1036 0.932 . S
C1019 C1020 1.384 . S
C1019 C1021 1.479 . S
C1019 H1037 0.929 . S
C1020 C1017 1.424 . S
C1020 C1019 1.384 . S
C1020 H1038 0.928 . S
C1021 C1018 1.260 . S
C1021 C1019 1.479 . S
C1022 C1017 1.245 . S
C1022 C1018 1.477 . S
C1022 H1039 0.932 . S
C1023 U1006 2.882 . S
C1023 C1017 1.428 . S
C1023 O1026 1.301 . S
C1023 O1027 1.282 . S
O1024 U1006 2.441 . S
O1024 C1010 1.249 . S
O1025 U1006 2.420 . S
O1025 C1010 1.202 . S
O1026 U1006 2.455 . S
O1026 C1023 1.301 . S
O1027 U1006 2.449 . S
O1027 C1023 1.282 . S
H1028 C1001 0.931 . S
H1029 C1003 0.929 . S
H1030 C1004 0.930 . S
H1031 C1005 0.931 . S
H1032 C1012 0.932 . S
H1033 C1013 0.930 . S
H1034 C1014 0.929 . S
H1035 C1016 0.930 . S
H1036 C1018 0.932 . S
H1037 C1019 0.929 . S
H1038 C1020 0.928 . S
H1039 C1022 0.932 . S
C1040 C1041 1.264 . S
C1040 C1045 1.479 . S
C1040 C1050 1.465 . S
C1041 C1040 1.264 . S
C1041 C1043 1.339 . S
C1041 H1068 0.931 . S
C1042 C1043 1.395 . S
C1042 C1044 1.320 . S
C1043 C1041 1.339 . S
C1043 C1042 1.395 . S
C1043 H1069 0.929 . S
C1044 C1042 1.320 . S
C1044 C1045 1.405 . S
C1044 H1070 0.930 . S
C1045 C1040 1.479 . S
C1045 C1044 1.405 . S
C1045 H1071 0.931 . S
U1046 O1047 2.454 . S
U1046 O1048 2.458 . S
U1046 C1049 2.984 . S
U1046 C1050 2.847 . S
U1046 C1063 2.882 . S
U1046 O1064 2.441 . S
U1046 O1065 2.420 . S
U1046 O1066 2.455 . S
U1046 O1067 2.449 . S
O1047 U1046 2.454 . S
O1047 C1049 1.353 . S
O1048 U1046 2.458 . S
O1048 C1049 1.286 . S
C1049 U1046 2.984 . S
C1049 O1047 1.353 . S
C1049 O1048 1.286 . S
C1049 C1051 1.363 . S
C1050 C1040 1.465 . S
C1050 U1046 2.847 . S
C1050 O1064 1.249 . S
C1050 O1065 1.202 . S
C1051 C1049 1.363 . S
C1051 C1053 1.408 . S
C1051 C1056 1.342 . S
C1052 C1053 1.310 . S
C1052 C1055 1.461 . S
C1052 H1072 0.932 . S
C1053 C1051 1.408 . S
C1053 C1052 1.310 . S
C1053 H1073 0.930 . S
C1054 C1055 1.474 . S
C1054 C1056 1.285 . S
C1054 H1074 0.929 . S
C1055 C1052 1.461 . S
C1055 C1054 1.474 . S
C1056 C1051 1.342 . S
C1056 C1054 1.285 . S
C1056 H1075 0.930 . S
C1057 C1060 1.424 . S
C1057 C1062 1.245 . S
C1057 C1063 1.428 . S
C1058 C1061 1.260 . S
C1058 C1062 1.477 . S
C1058 H1076 0.932 . S
C1059 C1060 1.384 . S
C1059 C1061 1.479 . S
C1059 H1077 0.929 . S
C1060 C1057 1.424 . S
C1060 C1059 1.384 . S
C1060 H1078 0.928 . S
C1061 C1058 1.260 . S
C1061 C1059 1.479 . S
C1062 C1057 1.245 . S
C1062 C1058 1.477 . S
C1062 H1079 0.932 . S
C1063 U1046 2.882 . S
C1063 C1057 1.428 . S
C1063 O1066 1.301 . S
C1063 O1067 1.282 . S
O1064 U1046 2.441 . S
O1064 C1050 1.249 . S
O1065 U1046 2.420 . S
O1065 C1050 1.202 . S
O1066 U1046 2.455 . S
O1066 C1063 1.301 . S
O1067 U1046 2.449 . S
O1067 C1063 1.282 . S
H1068 C1041 0.931 . S
H1069 C1043 0.929 . S
H1070 C1044 0.930 . S
H1071 C1045 0.931 . S
H1072 C1052 0.932 . S
H1073 C1053 0.930 . S
H1074 C1054 0.929 . S
H1075 C1056 0.930 . S
H1076 C1058 0.932 . S
H1077 C1059 0.929 . S
H1078 C1060 0.928 . S
H1079 C1062 0.932 . S
C1080 C1081 1.264 . S
C1080 C1085 1.479 . S
C1080 C1090 1.465 . S
C1081 C1080 1.264 . S
C1081 C1083 1.339 . S
C1081 H1108 0.931 . S
C1082 C1083 1.395 . S
C1082 C1084 1.320 . S
C1083 C1081 1.339 . S
C1083 C1082 1.395 . S
C1083 H1109 0.929 . S
C1084 C1082 1.320 . S
C1084 C1085 1.405 . S
C1084 H1110 0.930 . S
C1085 C1080 1.479 . S
C1085 C1084 1.405 . S
C1085 H1111 0.931 . S
U1086 O1087 2.454 . S
U1086 O1088 2.458 . S
U1086 C1089 2.984 . S
U1086 C1090 2.847 . S
U1086 C1103 2.882 . S
U1086 O1104 2.441 . S
U1086 O1105 2.420 . S
U1086 O1106 2.455 . S
U1086 O1107 2.449 . S
O1087 U1086 2.454 . S
O1087 C1089 1.353 . S
O1088 U1086 2.458 . S
O1088 C1089 1.286 . S
C1089 U1086 2.984 . S
C1089 O1087 1.353 . S
C1089 O1088 1.286 . S
C1089 C1091 1.363 . S
C1090 C1080 1.465 . S
C1090 U1086 2.847 . S
C1090 O1104 1.249 . S
C1090 O1105 1.202 . S
C1091 C1089 1.363 . S
C1091 C1093 1.408 . S
C1091 C1096 1.342 . S
C1092 C1093 1.310 . S
C1092 C1095 1.461 . S
C1092 H1112 0.932 . S
C1093 C1091 1.408 . S
C1093 C1092 1.310 . S
C1093 H1113 0.930 . S
C1094 C1095 1.474 . S
C1094 C1096 1.285 . S
C1094 H1114 0.929 . S
C1095 C1092 1.461 . S
C1095 C1094 1.474 . S
C1096 C1091 1.342 . S
C1096 C1094 1.285 . S
C1096 H1115 0.930 . S
C1097 C1100 1.424 . S
C1097 C1102 1.245 . S
C1097 C1103 1.428 . S
C1098 C1101 1.260 . S
C1098 C1102 1.477 . S
C1098 H1116 0.932 . S
C1099 C1100 1.384 . S
C1099 C1101 1.479 . S
C1099 H1117 0.929 . S
C1100 C1097 1.424 . S
C1100 C1099 1.384 . S
C1100 H1118 0.928 . S
C1101 C1098 1.260 . S
C1101 C1099 1.479 . S
C1102 C1097 1.245 . S
C1102 C1098 1.477 . S
C1102 H1119 0.932 . S
C1103 U1086 2.882 . S
C1103 C1097 1.428 . S
C1103 O1106 1.301 . S
C1103 O1107 1.282 . S
O1104 U1086 2.441 . S
O1104 C1090 1.249 . S
O1105 U1086 2.420 . S
O1105 C1090 1.202 . S
O1106 U1086 2.455 . S
O1106 C1103 1.301 . S
O1107 U1086 2.449 . S
O1107 C1103 1.282 . S
H1108 C1081 0.931 . S
H1109 C1083 0.929 . S
H1110 C1084 0.930 . S
H1111 C1085 0.931 . S
H1112 C1092 0.932 . S
H1113 C1093 0.930 . S
H1114 C1094 0.929 . S
H1115 C1096 0.930 . S
H1116 C1098 0.932 . S
H1117 C1099 0.929 . S
H1118 C1100 0.928 . S
H1119 C1102 0.932 . S
C1120 C1121 1.264 . S
C1120 C1125 1.479 . S
C1120 C1130 1.465 . S
C1121 C1120 1.264 . S
C1121 C1123 1.339 . S
C1121 H1148 0.931 . S
C1122 C1123 1.395 . S
C1122 C1124 1.320 . S
C1123 C1121 1.339 . S
C1123 C1122 1.395 . S
C1123 H1149 0.929 . S
C1124 C1122 1.320 . S
C1124 C1125 1.405 . S
C1124 H1150 0.930 . S
C1125 C1120 1.479 . S
C1125 C1124 1.405 . S
C1125 H1151 0.931 . S
U1126 O1127 2.454 . S
U1126 O1128 2.458 . S
U1126 C1129 2.984 . S
U1126 C1130 2.847 . S
U1126 C1143 2.882 . S
U1126 O1144 2.441 . S
U1126 O1145 2.420 . S
U1126 O1146 2.455 . S
U1126 O1147 2.449 . S
O1127 U1126 2.454 . S
O1127 C1129 1.353 . S
O1128 U1126 2.458 . S
O1128 C1129 1.286 . S
C1129 U1126 2.984 . S
C1129 O1127 1.353 . S
C1129 O1128 1.286 . S
C1129 C1131 1.363 . S
C1130 C1120 1.465 . S
C1130 U1126 2.847 . S
C1130 O1144 1.249 . S
C1130 O1145 1.202 . S
C1131 C1129 1.363 . S
C1131 C1133 1.408 . S
C1131 C1136 1.342 . S
C1132 C1133 1.310 . S
C1132 C1135 1.461 . S
C1132 H1152 0.932 . S
C1133 C1131 1.408 . S
C1133 C1132 1.310 . S
C1133 H1153 0.930 . S
C1134 C1135 1.474 . S
C1134 C1136 1.285 . S
C1134 H1154 0.929 . S
C1135 C1132 1.461 . S
C1135 C1134 1.474 . S
C1136 C1131 1.342 . S
C1136 C1134 1.285 . S
C1136 H1155 0.930 . S
C1137 C1140 1.424 . S
C1137 C1142 1.245 . S
C1137 C1143 1.428 . S
C1138 C1141 1.260 . S
C1138 C1142 1.477 . S
C1138 H1156 0.932 . S
C1139 C1140 1.384 . S
C1139 C1141 1.479 . S
C1139 H1157 0.929 . S
C1140 C1137 1.424 . S
C1140 C1139 1.384 . S
C1140 H1158 0.928 . S
C1141 C1138 1.260 . S
C1141 C1139 1.479 . S
C1142 C1137 1.245 . S
C1142 C1138 1.477 . S
C1142 H1159 0.932 . S
C1143 U1126 2.882 . S
C1143 C1137 1.428 . S
C1143 O1146 1.301 . S
C1143 O1147 1.282 . S
O1144 U1126 2.441 . S
O1144 C1130 1.249 . S
O1145 U1126 2.420 . S
O1145 C1130 1.202 . S
O1146 U1126 2.455 . S
O1146 C1143 1.301 . S
O1147 U1126 2.449 . S
O1147 C1143 1.282 . S
H1148 C1121 0.931 . S
H1149 C1123 0.929 . S
H1150 C1124 0.930 . S
H1151 C1125 0.931 . S
H1152 C1132 0.932 . S
H1153 C1133 0.930 . S
H1154 C1134 0.929 . S
H1155 C1136 0.930 . S
H1156 C1138 0.932 . S
H1157 C1139 0.929 . S
H1158 C1140 0.928 . S
H1159 C1142 0.932 . S
C1160 C1161 1.264 . S
C1160 C1165 1.479 . S
C1160 C1170 1.465 . S
C1161 C1160 1.264 . S
C1161 C1163 1.339 . S
C1161 H1188 0.931 . S
C1162 C1163 1.395 . S
C1162 C1164 1.320 . S
C1163 C1161 1.339 . S
C1163 C1162 1.395 . S
C1163 H1189 0.929 . S
C1164 C1162 1.320 . S
C1164 C1165 1.405 . S
C1164 H1190 0.930 . S
C1165 C1160 1.479 . S
C1165 C1164 1.405 . S
C1165 H1191 0.931 . S
U1166 O1167 2.454 . S
U1166 O1168 2.458 . S
U1166 C1169 2.984 . S
U1166 C1170 2.847 . S
U1166 C1183 2.882 . S
U1166 O1184 2.441 . S
U1166 O1185 2.420 . S
U1166 O1186 2.455 . S
U1166 O1187 2.449 . S
O1167 U1166 2.454 . S
O1167 C1169 1.353 . S
O1168 U1166 2.458 . S
O1168 C1169 1.286 . S
C1169 U1166 2.984 . S
C1169 O1167 1.353 . S
C1169 O1168 1.286 . S
C1169 C1171 1.363 . S
C1170 C1160 1.465 . S
C1170 U1166 2.847 . S
C1170 O1184 1.249 . S
C1170 O1185 1.202 . S
C1171 C1169 1.363 . S
C1171 C1173 1.408 . S
C1171 C1176 1.342 . S
C1172 C1173 1.310 . S
C1172 C1175 1.461 . S
C1172 H1192 0.932 . S
C1173 C1171 1.408 . S
C1173 C1172 1.310 . S
C1173 H1193 0.930 . S
C1174 C1175 1.474 . S
C1174 C1176 1.285 . S
C1174 H1194 0.929 . S
C1175 C1172 1.461 . S
C1175 C1174 1.474 . S
C1176 C1171 1.342 . S
C1176 C1174 1.285 . S
C1176 H1195 0.930 . S
C1177 C1180 1.424 . S
C1177 C1182 1.245 . S
C1177 C1183 1.428 . S
C1178 C1181 1.260 . S
C1178 C1182 1.477 . S
C1178 H1196 0.932 . S
C1179 C1180 1.384 . S
C1179 C1181 1.479 . S
C1179 H1197 0.929 . S
C1180 C1177 1.424 . S
C1180 C1179 1.384 . S
C1180 H1198 0.928 . S
C1181 C1178 1.260 . S
C1181 C1179 1.479 . S
C1182 C1177 1.245 . S
C1182 C1178 1.477 . S
C1182 H1199 0.932 . S
C1183 U1166 2.882 . S
C1183 C1177 1.428 . S
C1183 O1186 1.301 . S
C1183 O1187 1.282 . S
O1184 U1166 2.441 . S
O1184 C1170 1.249 . S
O1185 U1166 2.420 . S
O1185 C1170 1.202 . S
O1186 U1166 2.455 . S
O1186 C1183 1.301 . S
O1187 U1166 2.449 . S
O1187 C1183 1.282 . S
H1188 C1161 0.931 . S
H1189 C1163 0.929 . S
H1190 C1164 0.930 . S
H1191 C1165 0.931 . S
H1192 C1172 0.932 . S
H1193 C1173 0.930 . S
H1194 C1174 0.929 . S
H1195 C1176 0.930 . S
H1196 C1178 0.932 . S
H1197 C1179 0.929 . S
H1198 C1180 0.928 . S
H1199 C1182 0.932 . S
C1200 C1201 1.264 . S
C1200 C1205 1.479 . S
C1200 C1210 1.465 . S
C1201 C1200 1.264 . S
C1201 C1203 1.339 . S
C1201 H1228 0.931 . S
C1202 C1203 1.395 . S
C1202 C1204 1.320 . S
C1203 C1201 1.339 . S
C1203 C1202 1.395 . S
C1203 H1229 0.929 . S
C1204 C1202 1.320 . S
C1204 C1205 1.405 . S
C1204 H1230 0.930 . S
C1205 C1200 1.479 . S
C1205 C1204 1.405 . S
C1205 H1231 0.931 . S
U1206 O1207 2.454 . S
U1206 O1208 2.458 . S
U1206 C1209 2.984 . S
U1206 C1210 2.847 . S
U1206 C1223 2.882 . S
U1206 O1224 2.441 . S
U1206 O1225 2.420 . S
U1206 O1226 2.455 . S
U1206 O1227 2.449 . S
O1207 U1206 2.454 . S
O1207 C1209 1.353 . S
O1208 U1206 2.458 . S
O1208 C1209 1.286 . S
C1209 U1206 2.984 . S
C1209 O1207 1.353 . S
C1209 O1208 1.286 . S
C1209 C1211 1.363 . S
C1210 C1200 1.465 . S
C1210 U1206 2.847 . S
C1210 O1224 1.249 . S
C1210 O1225 1.202 . S
C1211 C1209 1.363 . S
C1211 C1213 1.408 . S
C1211 C1216 1.342 . S
C1212 C1213 1.310 . S
C1212 C1215 1.461 . S
C1212 H1232 0.932 . S
C1213 C1211 1.408 . S
C1213 C1212 1.310 . S
C1213 H1233 0.930 . S
C1214 C1215 1.474 . S
C1214 C1216 1.285 . S
C1214 H1234 0.929 . S
C1215 C1212 1.461 . S
C1215 C1214 1.474 . S
C1216 C1211 1.342 . S
C1216 C1214 1.285 . S
C1216 H1235 0.930 . S
C1217 C1220 1.424 . S
C1217 C1222 1.245 . S
C1217 C1223 1.428 . S
C1218 C1221 1.260 . S
C1218 C1222 1.477 . S
C1218 H1236 0.932 . S
C1219 C1220 1.384 . S
C1219 C1221 1.479 . S
C1219 H1237 0.929 . S
C1220 C1217 1.424 . S
C1220 C1219 1.384 . S
C1220 H1238 0.928 . S
C1221 C1218 1.260 . S
C1221 C1219 1.479 . S
C1222 C1217 1.245 . S
C1222 C1218 1.477 . S
C1222 H1239 0.932 . S
C1223 U1206 2.882 . S
C1223 C1217 1.428 . S
C1223 O1226 1.301 . S
C1223 O1227 1.282 . S
O1224 U1206 2.441 . S
O1224 C1210 1.249 . S
O1225 U1206 2.420 . S
O1225 C1210 1.202 . S
O1226 U1206 2.455 . S
O1226 C1223 1.301 . S
O1227 U1206 2.449 . S
O1227 C1223 1.282 . S
H1228 C1201 0.931 . S
H1229 C1203 0.929 . S
H1230 C1204 0.930 . S
H1231 C1205 0.931 . S
H1232 C1212 0.932 . S
H1233 C1213 0.930 . S
H1234 C1214 0.929 . S
H1235 C1216 0.930 . S
H1236 C1218 0.932 . S
H1237 C1219 0.929 . S
H1238 C1220 0.928 . S
H1239 C1222 0.932 . S
C1240 C1241 1.264 . S
C1240 C1245 1.479 . S
C1240 C1250 1.465 . S
C1241 C1240 1.264 . S
C1241 C1243 1.339 . S
C1241 H1268 0.931 . S
C1242 C1243 1.395 . S
C1242 C1244 1.320 . S
C1243 C1241 1.339 . S
C1243 C1242 1.395 . S
C1243 H1269 0.929 . S
C1244 C1242 1.320 . S
C1244 C1245 1.405 . S
C1244 H1270 0.930 . S
C1245 C1240 1.479 . S
C1245 C1244 1.405 . S
C1245 H1271 0.931 . S
U1246 O1247 2.454 . S
U1246 O1248 2.458 . S
U1246 C1249 2.984 . S
U1246 C1250 2.847 . S
U1246 C1263 2.882 . S
U1246 O1264 2.441 . S
U1246 O1265 2.420 . S
U1246 O1266 2.455 . S
U1246 O1267 2.449 . S
O1247 U1246 2.454 . S
O1247 C1249 1.353 . S
O1248 U1246 2.458 . S
O1248 C1249 1.286 . S
C1249 U1246 2.984 . S
C1249 O1247 1.353 . S
C1249 O1248 1.286 . S
C1249 C1251 1.363 . S
C1250 C1240 1.465 . S
C1250 U1246 2.847 . S
C1250 O1264 1.249 . S
C1250 O1265 1.202 . S
C1251 C1249 1.363 . S
C1251 C1253 1.408 . S
C1251 C1256 1.342 . S
C1252 C1253 1.310 . S
C1252 C1255 1.461 . S
C1252 H1272 0.932 . S
C1253 C1251 1.408 . S
C1253 C1252 1.310 . S
C1253 H1273 0.930 . S
C1254 C1255 1.474 . S
C1254 C1256 1.285 . S
C1254 H1274 0.929 . S
C1255 C1252 1.461 . S
C1255 C1254 1.474 . S
C1256 C1251 1.342 . S
C1256 C1254 1.285 . S
C1256 H1275 0.930 . S
C1257 C1260 1.424 . S
C1257 C1262 1.245 . S
C1257 C1263 1.428 . S
C1258 C1261 1.260 . S
C1258 C1262 1.477 . S
C1258 H1276 0.932 . S
C1259 C1260 1.384 . S
C1259 C1261 1.479 . S
C1259 H1277 0.929 . S
C1260 C1257 1.424 . S
C1260 C1259 1.384 . S
C1260 H1278 0.928 . S
C1261 C1258 1.260 . S
C1261 C1259 1.479 . S
C1262 C1257 1.245 . S
C1262 C1258 1.477 . S
C1262 H1279 0.932 . S
C1263 U1246 2.882 . S
C1263 C1257 1.428 . S
C1263 O1266 1.301 . S
C1263 O1267 1.282 . S
O1264 U1246 2.441 . S
O1264 C1250 1.249 . S
O1265 U1246 2.420 . S
O1265 C1250 1.202 . S
O1266 U1246 2.455 . S
O1266 C1263 1.301 . S
O1267 U1246 2.449 . S
O1267 C1263 1.282 . S
H1268 C1241 0.931 . S
H1269 C1243 0.929 . S
H1270 C1244 0.930 . S
H1271 C1245 0.931 . S
H1272 C1252 0.932 . S
H1273 C1253 0.930 . S
H1274 C1254 0.929 . S
H1275 C1256 0.930 . S
H1276 C1258 0.932 . S
H1277 C1259 0.929 . S
H1278 C1260 0.928 . S
H1279 C1262 0.932 . S
H1280 C1288 0.930 . S
H1281 C1291 0.930 . S
H1282 C1293 0.930 . S
H1283 C1294 0.970 . S
H1284 C1294 0.970 . S
H1285 C1296 0.930 . S
H1286 C1298 0.930 . S
H1287 C1300 0.930 . S
C1288 H1280 0.930 . S
C1288 C1289 1.382 . S
C1288 C1290 1.426 . S
C1289 C1288 1.382 . S
C1289 C1293 1.389 . S
C1290 C1288 1.426 . S
C1290 C1291 1.375 . S
C1290 C1294 1.532 1_556 S
C1291 H1281 0.930 . S
C1291 C1290 1.375 . S
C1291 C1292 1.416 . S
C1292 C1291 1.416 . S
C1292 C1293 1.371 . S
C1293 H1282 0.930 . S
C1293 C1289 1.389 . S
C1293 C1292 1.371 . S
C1294 H1283 0.970 . S
C1294 H1284 0.970 . S
C1294 C1290 1.532 1_554 S
C1294 C1295 1.499 . S
C1295 C1294 1.499 . S
C1295 C1296 1.370 . S
C1295 C1300 1.415 . S
C1296 H1285 0.930 . S
C1296 C1295 1.370 . S
C1296 C1297 1.407 . S
C1297 C1296 1.407 . S
C1297 C1298 1.365 . S
C1298 H1286 0.930 . S
C1298 C1297 1.365 . S
C1298 C1299 1.393 . S
C1299 C1298 1.393 . S
C1299 C1300 1.387 . S
C1300 H1287 0.930 . S
C1300 C1295 1.415 . S
C1300 C1299 1.387 . S
H1301 C1309 0.930 . S
H1302 C1312 0.930 . S
H1303 C1314 0.930 . S
H1304 C1315 0.970 . S
H1305 C1315 0.970 . S
H1306 C1317 0.930 . S
H1307 C1319 0.930 . S
H1308 C1321 0.930 . S
C1309 H1301 0.930 . S
C1309 C1310 1.382 . S
C1309 C1311 1.426 . S
C1310 C1309 1.382 . S
C1310 C1314 1.389 . S
C1311 C1309 1.426 . S
C1311 C1312 1.375 . S
C1311 C1315 1.532 . S
C1312 H1302 0.930 . S
C1312 C1311 1.375 . S
C1312 C1313 1.416 . S
C1313 C1312 1.416 . S
C1313 C1314 1.371 . S
C1314 H1303 0.930 . S
C1314 C1310 1.389 . S
C1314 C1313 1.371 . S
C1315 H1304 0.970 . S
C1315 H1305 0.970 . S
C1315 C1311 1.532 . S
C1315 C1316 1.499 1_554 S
C1316 C1315 1.499 1_556 S
C1316 C1317 1.370 . S
C1316 C1321 1.415 . S
C1317 H1306 0.930 . S
C1317 C1316 1.370 . S
C1317 C1318 1.407 . S
C1318 C1317 1.407 . S
C1318 C1319 1.365 . S
C1319 H1307 0.930 . S
C1319 C1318 1.365 . S
C1319 C1320 1.393 . S
C1320 C1319 1.393 . S
C1320 C1321 1.387 . S
C1321 H1308 0.930 . S
C1321 C1316 1.415 . S
C1321 C1320 1.387 . S
H1322 C1330 0.930 . S
H1323 C1333 0.930 . S
H1324 C1335 0.930 . S
H1325 C1336 0.970 . S
H1326 C1336 0.970 . S
H1327 C1338 0.930 . S
H1328 C1340 0.930 . S
H1329 C1342 0.930 . S
C1330 H1322 0.930 . S
C1330 C1331 1.382 . S
C1330 C1332 1.426 . S
C1331 C1330 1.382 . S
C1331 C1335 1.389 . S
C1332 C1330 1.426 . S
C1332 C1333 1.375 . S
C1332 C1336 1.532 . S
C1333 H1323 0.930 . S
C1333 C1332 1.375 . S
C1333 C1334 1.416 . S
C1334 C1333 1.416 . S
C1334 C1335 1.371 . S
C1335 H1324 0.930 . S
C1335 C1331 1.389 . S
C1335 C1334 1.371 . S
C1336 H1325 0.970 . S
C1336 H1326 0.970 . S
C1336 C1332 1.532 . S
C1336 C1337 1.499 1_554 S
C1337 C1336 1.499 1_556 S
C1337 C1338 1.370 . S
C1337 C1342 1.415 . S
C1338 H1327 0.930 . S
C1338 C1337 1.370 . S
C1338 C1339 1.407 . S
C1339 C1338 1.407 . S
C1339 C1340 1.365 . S
C1340 H1328 0.930 . S
C1340 C1339 1.365 . S
C1340 C1341 1.393 . S
C1341 C1340 1.393 . S
C1341 C1342 1.387 . S
C1342 H1329 0.930 . S
C1342 C1337 1.415 . S
C1342 C1341 1.387 . S
H1343 C1351 0.930 . S
H1344 C1354 0.930 . S
H1345 C1356 0.930 . S
H1346 C1357 0.970 . S
H1347 C1357 0.970 . S
H1348 C1359 0.930 . S
H1349 C1361 0.930 . S
H1350 C1363 0.930 . S
C1351 H1343 0.930 . S
C1351 C1352 1.382 . S
C1351 C1353 1.426 . S
C1352 C1351 1.382 . S
C1352 C1356 1.389 . S
C1353 C1351 1.426 . S
C1353 C1354 1.375 . S
C1353 C1357 1.532 . S
C1354 H1344 0.930 . S
C1354 C1353 1.375 . S
C1354 C1355 1.416 . S
C1355 C1354 1.416 . S
C1355 C1356 1.371 . S
C1356 H1345 0.930 . S
C1356 C1352 1.389 . S
C1356 C1355 1.371 . S
C1357 H1346 0.970 . S
C1357 H1347 0.970 . S
C1357 C1353 1.532 . S
C1357 C1358 1.499 1_554 S
C1358 C1357 1.499 1_556 S
C1358 C1359 1.370 . S
C1358 C1363 1.415 . S
C1359 H1348 0.930 . S
C1359 C1358 1.370 . S
C1359 C1360 1.407 . S
C1360 C1359 1.407 . S
C1360 C1361 1.365 . S
C1361 H1349 0.930 . S
C1361 C1360 1.365 . S
C1361 C1362 1.393 . S
C1362 C1361 1.393 . S
C1362 C1363 1.387 . S
C1363 H1350 0.930 . S
C1363 C1358 1.415 . S
C1363 C1362 1.387 . S
H1364 C1372 0.930 . S
H1365 C1375 0.930 . S
H1366 C1377 0.930 . S
H1367 C1378 0.970 . S
H1368 C1378 0.970 . S
H1369 C1380 0.930 . S
H1370 C1382 0.930 . S
H1371 C1384 0.930 . S
C1372 H1364 0.930 . S
C1372 C1373 1.382 . S
C1372 C1374 1.426 . S
C1373 C1372 1.382 . S
C1373 C1377 1.389 . S
C1374 C1372 1.426 . S
C1374 C1375 1.375 . S
C1374 C1378 1.532 . S
C1375 H1365 0.930 . S
C1375 C1374 1.375 . S
C1375 C1376 1.416 . S
C1376 C1375 1.416 . S
C1376 C1377 1.371 . S
C1377 H1366 0.930 . S
C1377 C1373 1.389 . S
C1377 C1376 1.371 . S
C1378 H1367 0.970 . S
C1378 H1368 0.970 . S
C1378 C1374 1.532 . S
C1378 C1379 1.499 1_455 S
C1379 C1378 1.499 1_655 S
C1379 C1380 1.370 . S
C1379 C1384 1.415 . S
C1380 H1369 0.930 . S
C1380 C1379 1.370 . S
C1380 C1381 1.407 . S
C1381 C1380 1.407 . S
C1381 C1382 1.365 . S
C1382 H1370 0.930 . S
C1382 C1381 1.365 . S
C1382 C1383 1.393 . S
C1383 C1382 1.393 . S
C1383 C1384 1.387 . S
C1384 H1371 0.930 . S
C1384 C1379 1.415 . S
C1384 C1383 1.387 . S
H1385 C1393 0.930 . S
H1386 C1396 0.930 . S
H1387 C1398 0.930 . S
H1388 C1399 0.970 . S
H1389 C1399 0.970 1_565 S
H1390 C1401 0.930 . S
H1391 C1403 0.930 . S
H1392 C1405 0.930 . S
C1393 H1385 0.930 . S
C1393 C1394 1.382 . S
C1393 C1395 1.426 . S
C1394 C1393 1.382 . S
C1394 C1398 1.389 . S
C1395 C1393 1.426 . S
C1395 C1396 1.375 . S
C1395 C1399 1.534 . S
C1396 H1386 0.930 . S
C1396 C1395 1.375 . S
C1396 C1397 1.416 . S
C1397 C1396 1.416 . S
C1397 C1398 1.371 . S
C1398 H1387 0.930 . S
C1398 C1394 1.389 . S
C1398 C1397 1.371 . S
C1399 H1388 0.970 . S
C1399 H1389 0.970 1_545 S
C1399 C1395 1.534 . S
C1399 C1400 1.498 1_545 S
C1400 C1399 1.498 1_565 S
C1400 C1401 1.370 . S
C1400 C1405 1.415 . S
C1401 H1390 0.930 . S
C1401 C1400 1.370 . S
C1401 C1402 1.407 . S
C1402 C1401 1.407 . S
C1402 C1403 1.365 . S
C1403 H1391 0.930 . S
C1403 C1402 1.365 . S
C1403 C1404 1.393 . S
C1404 C1403 1.393 . S
C1404 C1405 1.387 . S
C1405 H1392 0.930 . S
C1405 C1400 1.415 . S
C1405 C1404 1.387 . S
H1406 C1414 0.930 . S
H1407 C1417 0.930 . S
H1408 C1419 0.930 . S
H1409 C1420 0.970 . S
H1410 C1420 0.970 . S
H1411 C1422 0.930 . S
H1412 C1424 0.930 . S
H1413 C1426 0.930 . S
C1414 H1406 0.930 . S
C1414 C1415 1.382 . S
C1414 C1416 1.426 . S
C1415 C1414 1.382 . S
C1415 C1419 1.389 . S
C1416 C1414 1.426 . S
C1416 C1417 1.375 . S
C1416 C1420 1.527 1_655 S
C1417 H1407 0.930 . S
C1417 C1416 1.375 . S
C1417 C1418 1.416 . S
C1418 C1417 1.416 . S
C1418 C1419 1.371 . S
C1419 H1408 0.930 . S
C1419 C1415 1.389 . S
C1419 C1418 1.371 . S
C1420 H1409 0.970 . S
C1420 H1410 0.970 . S
C1420 C1416 1.527 1_455 S
C1420 C1421 1.505 . S
C1421 C1420 1.505 . S
C1421 C1422 1.370 . S
C1421 C1426 1.415 . S
C1422 H1411 0.930 . S
C1422 C1421 1.370 . S
C1422 C1423 1.407 . S
C1423 C1422 1.407 . S
C1423 C1424 1.365 . S
C1424 H1412 0.930 . S
C1424 C1423 1.365 . S
C1424 C1425 1.393 . S
C1425 C1424 1.393 . S
C1425 C1426 1.387 . S
C1426 H1413 0.930 . S
C1426 C1421 1.415 . S
C1426 C1425 1.387 . S
H1427 C1435 0.930 . S
H1428 C1438 0.930 . S
H1429 C1440 0.930 . S
H1430 C1441 0.970 . S
H1431 C1441 0.970 . S
H1432 C1443 0.930 . S
H1433 C1445 0.930 . S
H1434 C1447 0.930 . S
C1435 H1427 0.930 . S
C1435 C1436 1.382 . S
C1435 C1437 1.426 . S
C1436 C1435 1.382 . S
C1436 C1440 1.389 . S
C1437 C1435 1.426 . S
C1437 C1438 1.375 . S
C1437 C1441 1.532 1_565 S
C1438 H1428 0.930 . S
C1438 C1437 1.375 . S
C1438 C1439 1.416 . S
C1439 C1438 1.416 . S
C1439 C1440 1.371 . S
C1440 H1429 0.930 . S
C1440 C1436 1.389 . S
C1440 C1439 1.371 . S
C1441 H1430 0.970 . S
C1441 H1431 0.970 . S
C1441 C1437 1.532 1_545 S
C1441 C1442 1.499 . S
C1442 C1441 1.499 . S
C1442 C1443 1.370 . S
C1442 C1447 1.415 . S
C1443 H1432 0.930 . S
C1443 C1442 1.370 . S
C1443 C1444 1.407 . S
C1444 C1443 1.407 . S
C1444 C1445 1.365 . S
C1445 H1433 0.930 . S
C1445 C1444 1.365 . S
C1445 C1446 1.393 . S
C1446 C1445 1.393 . S
C1446 C1447 1.387 . S
C1447 H1434 0.930 . S
C1447 C1442 1.415 . S
C1447 C1446 1.387 . S
H1448 C1456 0.930 . S
H1449 C1459 0.930 . S
H1450 C1461 0.930 . S
H1451 C1462 0.970 . S
H1452 C1462 0.970 . S
H1453 C1464 0.930 . S
H1454 C1466 0.930 . S
H1455 C1468 0.930 . S
C1456 H1448 0.930 . S
C1456 C1457 1.382 . S
C1456 C1458 1.426 . S
C1457 C1456 1.382 . S
C1457 C1461 1.389 . S
C1458 C1456 1.426 . S
C1458 C1459 1.375 . S
C1458 C1462 1.532 1_655 S
C1459 H1449 0.930 . S
C1459 C1458 1.375 . S
C1459 C1460 1.416 . S
C1460 C1459 1.416 . S
C1460 C1461 1.371 . S
C1461 H1450 0.930 . S
C1461 C1457 1.389 . S
C1461 C1460 1.371 . S
C1462 H1451 0.970 . S
C1462 H1452 0.970 . S
C1462 C1458 1.532 1_455 S
C1462 C1463 1.499 . S
C1463 C1462 1.499 . S
C1463 C1464 1.370 . S
C1463 C1468 1.415 . S
C1464 H1453 0.930 . S
C1464 C1463 1.370 . S
C1464 C1465 1.407 . S
C1465 C1464 1.407 . S
C1465 C1466 1.365 . S
C1466 H1454 0.930 . S
C1466 C1465 1.365 . S
C1466 C1467 1.393 . S
C1467 C1466 1.393 . S
C1467 C1468 1.387 . S
C1468 H1455 0.930 . S
C1468 C1463 1.415 . S
C1468 C1467 1.387 . S
H1469 C1477 0.930 . S
H1470 C1480 0.930 . S
H1471 C1482 0.930 . S
H1472 C1483 0.970 . S
H1473 C1483 0.970 . S
H1474 C1485 0.930 . S
H1475 C1487 0.930 . S
H1476 C1489 0.930 . S
C1477 H1469 0.930 . S
C1477 C1478 1.382 . S
C1477 C1479 1.426 . S
C1478 C1477 1.382 . S
C1478 C1482 1.389 . S
C1479 C1477 1.426 . S
C1479 C1480 1.375 . S
C1479 C1483 1.532 1_565 S
C1480 H1470 0.930 . S
C1480 C1479 1.375 . S
C1480 C1481 1.416 . S
C1481 C1480 1.416 . S
C1481 C1482 1.371 . S
C1482 H1471 0.930 . S
C1482 C1478 1.389 . S
C1482 C1481 1.371 . S
C1483 H1472 0.970 . S
C1483 H1473 0.970 . S
C1483 C1479 1.532 1_545 S
C1483 C1484 1.499 . S
C1484 C1483 1.499 . S
C1484 C1485 1.370 . S
C1484 C1489 1.415 . S
C1485 H1474 0.930 . S
C1485 C1484 1.370 . S
C1485 C1486 1.407 . S
C1486 C1485 1.407 . S
C1486 C1487 1.365 . S
C1487 H1475 0.930 . S
C1487 C1486 1.365 . S
C1487 C1488 1.393 . S
C1488 C1487 1.393 . S
C1488 C1489 1.387 . S
C1489 H1476 0.930 . S
C1489 C1484 1.415 . S
C1489 C1488 1.387 . S
H1490 C1498 0.930 . S
H1491 C1501 0.930 . S
H1492 C1503 0.930 . S
H1493 C1504 0.970 . S
H1494 C1504 0.970 . S
H1495 C1506 0.930 . S
H1496 C1508 0.930 . S
H1497 C1510 0.930 . S
C1498 H1490 0.930 . S
C1498 C1499 1.382 . S
C1498 C1500 1.426 . S
C1499 C1498 1.382 . S
C1499 C1503 1.389 . S
C1500 C1498 1.426 . S
C1500 C1501 1.375 . S
C1500 C1504 1.532 1_655 S
C1501 H1491 0.930 . S
C1501 C1500 1.375 . S
C1501 C1502 1.416 . S
C1502 C1501 1.416 . S
C1502 C1503 1.371 . S
C1503 H1492 0.930 . S
C1503 C1499 1.389 . S
C1503 C1502 1.371 . S
C1504 H1493 0.970 . S
C1504 H1494 0.970 . S
C1504 C1500 1.532 1_455 S
C1504 C1505 1.499 . S
C1505 C1504 1.499 . S
C1505 C1506 1.370 . S
C1505 C1510 1.415 . S
C1506 H1495 0.930 . S
C1506 C1505 1.370 . S
C1506 C1507 1.407 . S
C1507 C1506 1.407 . S
C1507 C1508 1.365 . S
C1508 H1496 0.930 . S
C1508 C1507 1.365 . S
C1508 C1509 1.393 . S
C1509 C1508 1.393 . S
C1509 C1510 1.387 . S
C1510 H1497 0.930 . S
C1510 C1505 1.415 . S
C1510 C1509 1.387 . S
H1511 C1519 0.930 . S
H1512 C1522 0.930 . S
H1513 C1524 0.930 . S
H1514 C1525 0.970 . S
H1515 C1525 0.970 . S
H1516 C1527 0.930 . S
H1517 C1529 0.930 . S
H1518 C1531 0.930 . S
C1519 H1511 0.930 . S
C1519 C1520 1.382 . S
C1519 C1521 1.426 . S
C1520 C1519 1.382 . S
C1520 C1524 1.389 . S
C1521 C1519 1.426 . S
C1521 C1522 1.375 . S
C1521 C1525 1.532 1_565 S
C1522 H1512 0.930 . S
C1522 C1521 1.375 . S
C1522 C1523 1.416 . S
C1523 C1522 1.416 . S
C1523 C1524 1.371 . S
C1524 H1513 0.930 . S
C1524 C1520 1.389 . S
C1524 C1523 1.371 . S
C1525 H1514 0.970 . S
C1525 H1515 0.970 . S
C1525 C1521 1.532 1_545 S
C1525 C1526 1.499 . S
C1526 C1525 1.499 . S
C1526 C1527 1.370 . S
C1526 C1531 1.415 . S
C1527 H1516 0.930 . S
C1527 C1526 1.370 . S
C1527 C1528 1.407 . S
C1528 C1527 1.407 . S
C1528 C1529 1.365 . S
C1529 H1517 0.930 . S
C1529 C1528 1.365 . S
C1529 C1530 1.393 . S
C1530 C1529 1.393 . S
C1530 C1531 1.387 . S
C1531 H1518 0.930 . S
C1531 C1526 1.415 . S
C1531 C1530 1.387 . S
H1532 C1540 0.930 . S
H1533 C1543 0.930 . S
H1534 C1545 0.930 . S
H1535 C1546 0.970 . S
H1536 C1546 0.970 . S
H1537 C1548 0.930 . S
H1538 C1550 0.930 . S
H1539 C1552 0.930 . S
C1540 H1532 0.930 . S
C1540 C1541 1.382 . S
C1540 C1542 1.426 . S
C1541 C1540 1.382 . S
C1541 C1545 1.389 . S
C1542 C1540 1.426 . S
C1542 C1543 1.375 . S
C1542 C1546 1.532 . S
C1543 H1533 0.930 . S
C1543 C1542 1.375 . S
C1543 C1544 1.416 . S
C1544 C1543 1.416 . S
C1544 C1545 1.371 . S
C1545 H1534 0.930 . S
C1545 C1541 1.389 . S
C1545 C1544 1.371 . S
C1546 H1535 0.970 . S
C1546 H1536 0.970 . S
C1546 C1542 1.532 . S
C1546 C1547 1.499 . S
C1547 C1546 1.499 . S
C1547 C1548 1.370 . S
C1547 C1552 1.415 . S
C1548 H1537 0.930 . S
C1548 C1547 1.370 . S
C1548 C1549 1.407 . S
C1549 C1548 1.407 . S
C1549 C1550 1.365 . S
C1550 H1538 0.930 . S
C1550 C1549 1.365 . S
C1550 C1551 1.393 . S
C1551 C1550 1.393 . S
C1551 C1552 1.387 . S
C1552 H1539 0.930 . S
C1552 C1547 1.415 . S
C1552 C1551 1.387 . S
H1553 C1561 0.930 . S
H1554 C1564 0.930 . S
H1555 C1566 0.930 . S
H1556 C1567 0.970 . S
H1557 C1567 0.970 . S
H1558 C1569 0.930 . S
H1559 C1571 0.930 . S
H1560 C1573 0.930 . S
C1561 H1553 0.930 . S
C1561 C1562 1.382 . S
C1561 C1563 1.426 . S
C1562 C1561 1.382 . S
C1562 C1566 1.389 . S
C1563 C1561 1.426 . S
C1563 C1564 1.375 . S
C1563 C1567 1.532 . S
C1564 H1554 0.930 . S
C1564 C1563 1.375 . S
C1564 C1565 1.416 . S
C1565 C1564 1.416 . S
C1565 C1566 1.371 . S
C1566 H1555 0.930 . S
C1566 C1562 1.389 . S
C1566 C1565 1.371 . S
C1567 H1556 0.970 . S
C1567 H1557 0.970 . S
C1567 C1563 1.532 . S
C1567 C1568 1.499 . S
C1568 C1567 1.499 . S
C1568 C1569 1.370 . S
C1568 C1573 1.415 . S
C1569 H1558 0.930 . S
C1569 C1568 1.370 . S
C1569 C1570 1.407 . S
C1570 C1569 1.407 . S
C1570 C1571 1.365 . S
C1571 H1559 0.930 . S
C1571 C1570 1.365 . S
C1571 C1572 1.393 . S
C1572 C1571 1.393 . S
C1572 C1573 1.387 . S
C1573 H1560 0.930 . S
C1573 C1568 1.415 . S
C1573 C1572 1.387 . S
H1574 C1582 0.930 . S
H1575 C1585 0.930 . S
H1576 C1587 0.930 . S
H1577 C1588 0.970 . S
H1578 C1588 0.970 . S
H1579 C1590 0.930 . S
H1580 C1592 0.930 . S
H1581 C1594 0.930 . S
C1582 H1574 0.930 . S
C1582 C1583 1.382 . S
C1582 C1584 1.426 . S
C1583 C1582 1.382 . S
C1583 C1587 1.389 . S
C1584 C1582 1.426 . S
C1584 C1585 1.375 . S
C1584 C1588 1.532 . S
C1585 H1575 0.930 . S
C1585 C1584 1.375 . S
C1585 C1586 1.416 . S
C1586 C1585 1.416 . S
C1586 C1587 1.371 . S
C1587 H1576 0.930 . S
C1587 C1583 1.389 . S
C1587 C1586 1.371 . S
C1588 H1577 0.970 . S
C1588 H1578 0.970 . S
C1588 C1584 1.532 . S
C1588 C1589 1.499 . S
C1589 C1588 1.499 . S
C1589 C1590 1.370 . S
C1589 C1594 1.415 . S
C1590 H1579 0.930 . S
C1590 C1589 1.370 . S
C1590 C1591 1.407 . S
C1591 C1590 1.407 . S
C1591 C1592 1.365 . S
C1592 H1580 0.930 . S
C1592 C1591 1.365 . S
C1592 C1593 1.393 . S
C1593 C1592 1.393 . S
C1593 C1594 1.387 . S
C1594 H1581 0.930 . S
C1594 C1589 1.415 . S
C1594 C1593 1.387 . S
H1595 C1603 0.930 . S
H1596 C1606 0.930 . S
H1597 C1608 0.930 . S
H1598 C1609 0.970 . S
H1599 C1609 0.970 . S
H1600 C1611 0.930 . S
H1601 C1613 0.930 . S
H1602 C1615 0.930 . S
C1603 H1595 0.930 . S
C1603 C1604 1.382 . S
C1603 C1605 1.426 . S
C1604 C1603 1.382 . S
C1604 C1608 1.389 . S
C1605 C1603 1.426 . S
C1605 C1606 1.375 . S
C1605 C1609 1.532 . S
C1606 H1596 0.930 . S
C1606 C1605 1.375 . S
C1606 C1607 1.416 . S
C1607 C1606 1.416 . S
C1607 C1608 1.371 . S
C1608 H1597 0.930 . S
C1608 C1604 1.389 . S
C1608 C1607 1.371 . S
C1609 H1598 0.970 . S
C1609 H1599 0.970 . S
C1609 C1605 1.532 . S
C1609 C1610 1.499 . S
C1610 C1609 1.499 . S
C1610 C1611 1.370 . S
C1610 C1615 1.415 . S
C1611 H1600 0.930 . S
C1611 C1610 1.370 . S
C1611 C1612 1.407 . S
C1612 C1611 1.407 . S
C1612 C1613 1.365 . S
C1613 H1601 0.930 . S
C1613 C1612 1.365 . S
C1613 C1614 1.393 . S
C1614 C1613 1.393 . S
C1614 C1615 1.387 . S
C1615 H1602 0.930 . S
C1615 C1610 1.415 . S
C1615 C1614 1.387 . S
H1616 C1624 0.930 . S
H1617 C1627 0.930 . S
H1618 C1629 0.930 . S
H1619 C1630 0.970 . S
H1620 C1630 0.970 . S
H1621 C1632 0.930 . S
H1622 C1634 0.930 . S
H1623 C1636 0.930 . S
C1624 H1616 0.930 . S
C1624 C1625 1.382 . S
C1624 C1626 1.426 . S
C1625 C1624 1.382 . S
C1625 C1629 1.389 . S
C1626 C1624 1.426 . S
C1626 C1627 1.375 . S
C1626 C1630 1.532 . S
C1627 H1617 0.930 . S
C1627 C1626 1.375 . S
C1627 C1628 1.416 . S
C1628 C1627 1.416 . S
C1628 C1629 1.371 . S
C1629 H1618 0.930 . S
C1629 C1625 1.389 . S
C1629 C1628 1.371 . S
C1630 H1619 0.970 . S
C1630 H1620 0.970 . S
C1630 C1626 1.532 . S
C1630 C1631 1.499 . S
C1631 C1630 1.499 . S
C1631 C1632 1.370 . S
C1631 C1636 1.415 . S
C1632 H1621 0.930 . S
C1632 C1631 1.370 . S
C1632 C1633 1.407 . S
C1633 C1632 1.407 . S
C1633 C1634 1.365 . S
C1634 H1622 0.930 . S
C1634 C1633 1.365 . S
C1634 C1635 1.393 . S
C1635 C1634 1.393 . S
C1635 C1636 1.387 . S
C1636 H1623 0.930 . S
C1636 C1631 1.415 . S
C1636 C1635 1.387 . S
H1637 C1645 0.930 . S
H1638 C1648 0.930 . S
H1639 C1650 0.930 . S
H1640 C1651 0.970 . S
H1641 C1651 0.970 . S
H1642 C1653 0.930 . S
H1643 C1655 0.930 . S
H1644 C1657 0.930 . S
C1645 H1637 0.930 . S
C1645 C1646 1.382 . S
C1645 C1647 1.426 . S
C1646 C1645 1.382 . S
C1646 C1650 1.389 . S
C1647 C1645 1.426 . S
C1647 C1648 1.375 . S
C1647 C1651 1.532 . S
C1648 H1638 0.930 . S
C1648 C1647 1.375 . S
C1648 C1649 1.416 . S
C1649 C1648 1.416 . S
C1649 C1650 1.371 . S
C1650 H1639 0.930 . S
C1650 C1646 1.389 . S
C1650 C1649 1.371 . S
C1651 H1640 0.970 . S
C1651 H1641 0.970 . S
C1651 C1647 1.532 . S
C1651 C1652 1.499 . S
C1652 C1651 1.499 . S
C1652 C1653 1.370 . S
C1652 C1657 1.415 . S
C1653 H1642 0.930 . S
C1653 C1652 1.370 . S
C1653 C1654 1.407 . S
C1654 C1653 1.407 . S
C1654 C1655 1.365 . S
C1655 H1643 0.930 . S
C1655 C1654 1.365 . S
C1655 C1656 1.393 . S
C1656 C1655 1.393 . S
C1656 C1657 1.387 . S
C1657 H1644 0.930 . S
C1657 C1652 1.415 . S
C1657 C1656 1.387 . S
H1658 C1666 0.930 . S
H1659 C1669 0.930 . S
H1660 C1671 0.930 . S
H1661 C1672 0.970 . S
H1662 C1672 0.970 . S
H1663 C1674 0.930 . S
H1664 C1676 0.930 . S
H1665 C1678 0.930 . S
C1666 H1658 0.930 . S
C1666 C1667 1.382 . S
C1666 C1668 1.426 . S
C1667 C1666 1.382 . S
C1667 C1671 1.389 . S
C1668 C1666 1.426 . S
C1668 C1669 1.375 . S
C1668 C1672 1.532 . S
C1669 H1659 0.930 . S
C1669 C1668 1.375 . S
C1669 C1670 1.416 . S
C1670 C1669 1.416 . S
C1670 C1671 1.371 . S
C1671 H1660 0.930 . S
C1671 C1667 1.389 . S
C1671 C1670 1.371 . S
C1672 H1661 0.970 . S
C1672 H1662 0.970 . S
C1672 C1668 1.532 . S
C1672 C1673 1.499 . S
C1673 C1672 1.499 . S
C1673 C1674 1.370 . S
C1673 C1678 1.415 . S
C1674 H1663 0.930 . S
C1674 C1673 1.370 . S
C1674 C1675 1.407 . S
C1675 C1674 1.407 . S
C1675 C1676 1.365 . S
C1676 H1664 0.930 . S
C1676 C1675 1.365 . S
C1676 C1677 1.393 . S
C1677 C1676 1.393 . S
C1677 C1678 1.387 . S
C1678 H1665 0.930 . S
C1678 C1673 1.415 . S
C1678 C1677 1.387 . S
H1679 C1687 0.930 . S
H1680 C1690 0.930 . S
H1681 C1692 0.930 . S
H1682 C1693 0.970 . S
H1683 C1693 0.970 . S
H1684 C1695 0.930 . S
H1685 C1697 0.930 . S
H1686 C1699 0.930 . S
C1687 H1679 0.930 . S
C1687 C1688 1.382 . S
C1687 C1689 1.426 . S
C1688 C1687 1.382 . S
C1688 C1692 1.389 . S
C1689 C1687 1.426 . S
C1689 C1690 1.375 . S
C1689 C1693 1.532 . S
C1690 H1680 0.930 . S
C1690 C1689 1.375 . S
C1690 C1691 1.416 . S
C1691 C1690 1.416 . S
C1691 C1692 1.371 . S
C1692 H1681 0.930 . S
C1692 C1688 1.389 . S
C1692 C1691 1.371 . S
C1693 H1682 0.970 . S
C1693 H1683 0.970 . S
C1693 C1689 1.532 . S
C1693 C1694 1.499 . S
C1694 C1693 1.499 . S
C1694 C1695 1.370 . S
C1694 C1699 1.415 . S
C1695 H1684 0.930 . S
C1695 C1694 1.370 . S
C1695 C1696 1.407 . S
C1696 C1695 1.407 . S
C1696 C1697 1.365 . S
C1697 H1685 0.930 . S
C1697 C1696 1.365 . S
C1697 C1698 1.393 . S
C1698 C1697 1.393 . S
C1698 C1699 1.387 . S
C1699 H1686 0.930 . S
C1699 C1694 1.415 . S
C1699 C1698 1.387 . S
H1700 C1708 0.930 . S
H1701 C1711 0.930 . S
H1702 C1713 0.930 . S
H1703 C1714 0.970 . S
H1704 C1714 0.970 . S
H1705 C1716 0.930 . S
H1706 C1718 0.930 . S
H1707 C1720 0.930 . S
C1708 H1700 0.930 . S
C1708 C1709 1.382 . S
C1708 C1710 1.426 . S
C1709 C1708 1.382 . S
C1709 C1713 1.389 . S
C1710 C1708 1.426 . S
C1710 C1711 1.375 . S
C1710 C1714 1.532 . S
C1711 H1701 0.930 . S
C1711 C1710 1.375 . S
C1711 C1712 1.416 . S
C1712 C1711 1.416 . S
C1712 C1713 1.371 . S
C1713 H1702 0.930 . S
C1713 C1709 1.389 . S
C1713 C1712 1.371 . S
C1714 H1703 0.970 . S
C1714 H1704 0.970 . S
C1714 C1710 1.532 . S
C1714 C1715 1.499 . S
C1715 C1714 1.499 . S
C1715 C1716 1.370 . S
C1715 C1720 1.415 . S
C1716 H1705 0.930 . S
C1716 C1715 1.370 . S
C1716 C1717 1.407 . S
C1717 C1716 1.407 . S
C1717 C1718 1.365 . S
C1718 H1706 0.930 . S
C1718 C1717 1.365 . S
C1718 C1719 1.393 . S
C1719 C1718 1.393 . S
C1719 C1720 1.387 . S
C1720 H1707 0.930 . S
C1720 C1715 1.415 . S
C1720 C1719 1.387 . S
H1721 C1729 0.930 . S
H1722 C1732 0.930 . S
H1723 C1734 0.930 . S
H1724 C1735 0.970 . S
H1725 C1735 0.970 . S
H1726 C1737 0.930 . S
H1727 C1739 0.930 . S
H1728 C1741 0.930 . S
C1729 H1721 0.930 . S
C1729 C1730 1.382 . S
C1729 C1731 1.426 . S
C1730 C1729 1.382 . S
C1730 C1734 1.389 . S
C1731 C1729 1.426 . S
C1731 C1732 1.375 . S
C1731 C1735 1.532 . S
C1732 H1722 0.930 . S
C1732 C1731 1.375 . S
C1732 C1733 1.416 . S
C1733 C1732 1.416 . S
C1733 C1734 1.371 . S
C1734 H1723 0.930 . S
C1734 C1730 1.389 . S
C1734 C1733 1.371 . S
C1735 H1724 0.970 . S
C1735 H1725 0.970 . S
C1735 C1731 1.532 . S
C1735 C1736 1.499 . S
C1736 C1735 1.499 . S
C1736 C1737 1.370 . S
C1736 C1741 1.415 . S
C1737 H1726 0.930 . S
C1737 C1736 1.370 . S
C1737 C1738 1.407 . S
C1738 C1737 1.407 . S
C1738 C1739 1.365 . S
C1739 H1727 0.930 . S
C1739 C1738 1.365 . S
C1739 C1740 1.393 . S
C1740 C1739 1.393 . S
C1740 C1741 1.387 . S
C1741 H1728 0.930 . S
C1741 C1736 1.415 . S
C1741 C1740 1.387 . S
H1742 C1750 0.930 . S
H1743 C1753 0.930 . S
H1744 C1755 0.930 . S
H1745 C1756 0.970 . S
H1746 C1756 0.970 . S
H1747 C1758 0.930 . S
H1748 C1760 0.930 . S
H1749 C1762 0.930 . S
C1750 H1742 0.930 . S
C1750 C1751 1.382 . S
C1750 C1752 1.426 . S
C1751 C1750 1.382 . S
C1751 C1755 1.389 . S
C1752 C1750 1.426 . S
C1752 C1753 1.375 . S
C1752 C1756 1.532 . S
C1753 H1743 0.930 . S
C1753 C1752 1.375 . S
C1753 C1754 1.416 . S
C1754 C1753 1.416 . S
C1754 C1755 1.371 . S
C1755 H1744 0.930 . S
C1755 C1751 1.389 . S
C1755 C1754 1.371 . S
C1756 H1745 0.970 . S
C1756 H1746 0.970 . S
C1756 C1752 1.532 . S
C1756 C1757 1.499 . S
C1757 C1756 1.499 . S
C1757 C1758 1.370 . S
C1757 C1762 1.415 . S
C1758 H1747 0.930 . S
C1758 C1757 1.370 . S
C1758 C1759 1.407 . S
C1759 C1758 1.407 . S
C1759 C1760 1.365 . S
C1760 H1748 0.930 . S
C1760 C1759 1.365 . S
C1760 C1761 1.393 . S
C1761 C1760 1.393 . S
C1761 C1762 1.387 . S
C1762 H1749 0.930 . S
C1762 C1757 1.415 . S
C1762 C1761 1.387 . S
H1763 C1771 0.930 . S
H1764 C1774 0.930 . S
H1765 C1776 0.930 . S
H1766 C1777 0.970 . S
H1767 C1777 0.970 . S
H1768 C1779 0.930 . S
H1769 C1781 0.930 . S
H1770 C1783 0.930 . S
C1771 H1763 0.930 . S
C1771 C1772 1.382 . S
C1771 C1773 1.426 . S
C1772 C1771 1.382 . S
C1772 C1776 1.389 . S
C1773 C1771 1.426 . S
C1773 C1774 1.375 . S
C1773 C1777 1.532 . S
C1774 H1764 0.930 . S
C1774 C1773 1.375 . S
C1774 C1775 1.416 . S
C1775 C1774 1.416 . S
C1775 C1776 1.371 . S
C1776 H1765 0.930 . S
C1776 C1772 1.389 . S
C1776 C1775 1.371 . S
C1777 H1766 0.970 . S
C1777 H1767 0.970 . S
C1777 C1773 1.532 . S
C1777 C1778 1.499 . S
C1778 C1777 1.499 . S
C1778 C1779 1.370 . S
C1778 C1783 1.415 . S
C1779 H1768 0.930 . S
C1779 C1778 1.370 . S
C1779 C1780 1.407 . S
C1780 C1779 1.407 . S
C1780 C1781 1.365 . S
C1781 H1769 0.930 . S
C1781 C1780 1.365 . S
C1781 C1782 1.393 . S
C1782 C1781 1.393 . S
C1782 C1783 1.387 . S
C1783 H1770 0.930 . S
C1783 C1778 1.415 . S
C1783 C1782 1.387 . S
H1784 C1796 0.930 . S
H1785 C1798 0.930 . S
H1786 C1799 0.930 . S
H1787 C1803 0.959 . S
H1788 C1803 0.959 . S
H1789 C1803 0.961 . S
H1790 C1804 0.960 . S
H1791 C1804 0.961 . S
H1792 C1804 0.959 . S
H1793 C1807 0.929 . S
H1794 C1808 0.931 . S
H1795 C1810 0.930 . S
C1796 H1784 0.930 . S
C1796 C1797 1.399 . S
C1796 C1801 1.399 . S
C1797 C1796 1.399 . S
C1797 C1798 1.376 . S
C1798 H1785 0.930 . S
C1798 C1797 1.376 . S
C1798 C1799 1.388 . S
C1799 H1786 0.930 . S
C1799 C1798 1.388 . S
C1799 C1800 1.390 . S
C1800 C1799 1.390 . S
C1800 C1801 1.394 . S
C1800 C1806 1.465 . S
C1801 C1796 1.399 . S
C1801 C1800 1.394 . S
C1801 C1802 1.516 . S
C1802 C1801 1.516 . S
C1802 C1803 1.502 . S
C1802 C1804 1.561 . S
C1802 C1805 1.526 . S
C1803 H1787 0.959 . S
C1803 H1788 0.959 . S
C1803 H1789 0.961 . S
C1803 C1802 1.502 . S
C1804 H1790 0.960 . S
C1804 H1791 0.961 . S
C1804 H1792 0.959 . S
C1804 C1802 1.561 . S
C1805 C1802 1.526 . S
C1805 C1806 1.396 . S
C1805 C1810 1.390 . S
C1806 C1800 1.465 . S
C1806 C1805 1.396 . S
C1806 C1807 1.399 . S
C1807 H1793 0.929 . S
C1807 C1806 1.399 . S
C1807 C1808 1.385 . S
C1808 H1794 0.931 . S
C1808 C1807 1.385 . S
C1808 C1809 1.389 . S
C1809 C1808 1.389 . S
C1809 C1810 1.387 . S
C1810 H1795 0.930 . S
C1810 C1805 1.390 . S
C1810 C1809 1.387 . S
H1811 C1823 0.930 . S
H1812 C1825 0.930 . S
H1813 C1826 0.930 . S
H1814 C1830 0.959 . S
H1815 C1830 0.959 . S
H1816 C1830 0.961 . S
H1817 C1831 0.960 . S
H1818 C1831 0.961 . S
H1819 C1831 0.959 . S
H1820 C1834 0.929 . S
H1821 C1835 0.931 . S
H1822 C1837 0.930 . S
C1823 H1811 0.930 . S
C1823 C1824 1.399 . S
C1823 C1828 1.399 . S
C1824 C1823 1.399 . S
C1824 C1825 1.376 . S
C1825 H1812 0.930 . S
C1825 C1824 1.376 . S
C1825 C1826 1.388 . S
C1826 H1813 0.930 . S
C1826 C1825 1.388 . S
C1826 C1827 1.390 . S
C1827 C1826 1.390 . S
C1827 C1828 1.394 . S
C1827 C1833 1.465 . S
C1828 C1823 1.399 . S
C1828 C1827 1.394 . S
C1828 C1829 1.516 . S
C1829 C1828 1.516 . S
C1829 C1830 1.502 . S
C1829 C1831 1.561 . S
C1829 C1832 1.526 . S
C1830 H1814 0.959 . S
C1830 H1815 0.959 . S
C1830 H1816 0.961 . S
C1830 C1829 1.502 . S
C1831 H1817 0.960 . S
C1831 H1818 0.961 . S
C1831 H1819 0.959 . S
C1831 C1829 1.561 . S
C1832 C1829 1.526 . S
C1832 C1833 1.396 . S
C1832 C1837 1.390 . S
C1833 C1827 1.465 . S
C1833 C1832 1.396 . S
C1833 C1834 1.399 . S
C1834 H1820 0.929 . S
C1834 C1833 1.399 . S
C1834 C1835 1.385 . S
C1835 H1821 0.931 . S
C1835 C1834 1.385 . S
C1835 C1836 1.389 . S
C1836 C1835 1.389 . S
C1836 C1837 1.387 . S
C1837 H1822 0.930 . S
C1837 C1832 1.390 . S
C1837 C1836 1.387 . S
H1838 C1850 0.930 . S
H1839 C1852 0.930 . S
H1840 C1853 0.930 . S
H1841 C1857 0.959 . S
H1842 C1857 0.959 . S
H1843 C1857 0.961 . S
H1844 C1858 0.960 . S
H1845 C1858 0.961 . S
H1846 C1858 0.959 . S
H1847 C1861 0.929 . S
H1848 C1862 0.931 . S
H1849 C1864 0.930 . S
C1850 H1838 0.930 . S
C1850 C1851 1.399 . S
C1850 C1855 1.399 . S
C1851 C1850 1.399 . S
C1851 C1852 1.376 . S
C1852 H1839 0.930 . S
C1852 C1851 1.376 . S
C1852 C1853 1.388 . S
C1853 H1840 0.930 . S
C1853 C1852 1.388 . S
C1853 C1854 1.390 . S
C1854 C1853 1.390 . S
C1854 C1855 1.394 . S
C1854 C1860 1.465 . S
C1855 C1850 1.399 . S
C1855 C1854 1.394 . S
C1855 C1856 1.516 . S
C1856 C1855 1.516 . S
C1856 C1857 1.502 . S
C1856 C1858 1.561 . S
C1856 C1859 1.526 . S
C1857 H1841 0.959 . S
C1857 H1842 0.959 . S
C1857 H1843 0.961 . S
C1857 C1856 1.502 . S
C1858 H1844 0.960 . S
C1858 H1845 0.961 . S
C1858 H1846 0.959 . S
C1858 C1856 1.561 . S
C1859 C1856 1.526 . S
C1859 C1860 1.396 . S
C1859 C1864 1.390 . S
C1860 C1854 1.465 . S
C1860 C1859 1.396 . S
C1860 C1861 1.399 . S
C1861 H1847 0.929 . S
C1861 C1860 1.399 . S
C1861 C1862 1.385 . S
C1862 H1848 0.931 . S
C1862 C1861 1.385 . S
C1862 C1863 1.389 . S
C1863 C1862 1.389 . S
C1863 C1864 1.387 . S
C1864 H1849 0.930 . S
C1864 C1859 1.390 . S
C1864 C1863 1.387 . S
H1865 C1877 0.930 . S
H1866 C1879 0.930 . S
H1867 C1880 0.930 . S
H1868 C1884 0.959 . S
H1869 C1884 0.959 . S
H1870 C1884 0.961 . S
H1871 C1885 0.960 . S
H1872 C1885 0.961 . S
H1873 C1885 0.959 . S
H1874 C1888 0.929 . S
H1875 C1889 0.931 . S
H1876 C1891 0.930 . S
C1877 H1865 0.930 . S
C1877 C1878 1.399 . S
C1877 C1882 1.399 . S
C1878 C1877 1.399 . S
C1878 C1879 1.376 . S
C1879 H1866 0.930 . S
C1879 C1878 1.376 . S
C1879 C1880 1.388 . S
C1880 H1867 0.930 . S
C1880 C1879 1.388 . S
C1880 C1881 1.390 . S
C1881 C1880 1.390 . S
C1881 C1882 1.394 . S
C1881 C1887 1.465 . S
C1882 C1877 1.399 . S
C1882 C1881 1.394 . S
C1882 C1883 1.516 . S
C1883 C1882 1.516 . S
C1883 C1884 1.502 . S
C1883 C1885 1.561 . S
C1883 C1886 1.526 . S
C1884 H1868 0.959 . S
C1884 H1869 0.959 . S
C1884 H1870 0.961 . S
C1884 C1883 1.502 . S
C1885 H1871 0.960 . S
C1885 H1872 0.961 . S
C1885 H1873 0.959 . S
C1885 C1883 1.561 . S
C1886 C1883 1.526 . S
C1886 C1887 1.396 . S
C1886 C1891 1.390 . S
C1887 C1881 1.465 . S
C1887 C1886 1.396 . S
C1887 C1888 1.399 . S
C1888 H1874 0.929 . S
C1888 C1887 1.399 . S
C1888 C1889 1.385 . S
C1889 H1875 0.931 . S
C1889 C1888 1.385 . S
C1889 C1890 1.389 . S
C1890 C1889 1.389 . S
C1890 C1891 1.387 . S
C1891 H1876 0.930 . S
C1891 C1886 1.390 . S
C1891 C1890 1.387 . S
H1892 C1904 0.930 . S
H1893 C1906 0.930 . S
H1894 C1907 0.930 . S
H1895 C1911 0.959 . S
H1896 C1911 0.959 . S
H1897 C1911 0.961 . S
H1898 C1912 0.960 . S
H1899 C1912 0.961 . S
H1900 C1912 0.959 . S
H1901 C1915 0.929 . S
H1902 C1916 0.931 . S
H1903 C1918 0.930 . S
C1904 H1892 0.930 . S
C1904 C1905 1.399 . S
C1904 C1909 1.399 . S
C1905 C1904 1.399 . S
C1905 C1906 1.376 . S
C1906 H1893 0.930 . S
C1906 C1905 1.376 . S
C1906 C1907 1.388 . S
C1907 H1894 0.930 . S
C1907 C1906 1.388 . S
C1907 C1908 1.390 . S
C1908 C1907 1.390 . S
C1908 C1909 1.394 . S
C1908 C1914 1.465 . S
C1909 C1904 1.399 . S
C1909 C1908 1.394 . S
C1909 C1910 1.516 . S
C1910 C1909 1.516 . S
C1910 C1911 1.502 . S
C1910 C1912 1.561 . S
C1910 C1913 1.526 . S
C1911 H1895 0.959 . S
C1911 H1896 0.959 . S
C1911 H1897 0.961 . S
C1911 C1910 1.502 . S
C1912 H1898 0.960 . S
C1912 H1899 0.961 . S
C1912 H1900 0.959 . S
C1912 C1910 1.561 . S
C1913 C1910 1.526 . S
C1913 C1914 1.396 . S
C1913 C1918 1.390 . S
C1914 C1908 1.465 . S
C1914 C1913 1.396 . S
C1914 C1915 1.399 . S
C1915 H1901 0.929 . S
C1915 C1914 1.399 . S
C1915 C1916 1.385 . S
C1916 H1902 0.931 . S
C1916 C1915 1.385 . S
C1916 C1917 1.389 . S
C1917 C1916 1.389 . S
C1917 C1918 1.387 . S
C1918 H1903 0.930 . S
C1918 C1913 1.390 . S
C1918 C1917 1.387 . S
H1919 C1931 0.930 . S
H1920 C1933 0.930 . S
H1921 C1934 0.930 . S
H1922 C1938 0.959 . S
H1923 C1938 0.959 . S
H1924 C1938 0.961 . S
H1925 C1939 0.960 . S
H1926 C1939 0.961 . S
H1927 C1939 0.959 . S
H1928 C1942 0.929 . S
H1929 C1943 0.931 . S
H1930 C1945 0.930 . S
C1931 H1919 0.930 . S
C1931 C1932 1.399 . S
C1931 C1936 1.399 . S
C1932 C1931 1.399 . S
C1932 C1933 1.376 . S
C1933 H1920 0.930 . S
C1933 C1932 1.376 . S
C1933 C1934 1.388 . S
C1934 H1921 0.930 . S
C1934 C1933 1.388 . S
C1934 C1935 1.390 . S
C1935 C1934 1.390 . S
C1935 C1936 1.394 . S
C1935 C1941 1.465 . S
C1936 C1931 1.399 . S
C1936 C1935 1.394 . S
C1936 C1937 1.516 . S
C1937 C1936 1.516 . S
C1937 C1938 1.502 . S
C1937 C1939 1.561 . S
C1937 C1940 1.526 . S
C1938 H1922 0.959 . S
C1938 H1923 0.959 . S
C1938 H1924 0.961 . S
C1938 C1937 1.502 . S
C1939 H1925 0.960 . S
C1939 H1926 0.961 . S
C1939 H1927 0.959 . S
C1939 C1937 1.561 . S
C1940 C1937 1.526 . S
C1940 C1941 1.396 . S
C1940 C1945 1.390 . S
C1941 C1935 1.465 . S
C1941 C1940 1.396 . S
C1941 C1942 1.399 . S
C1942 H1928 0.929 . S
C1942 C1941 1.399 . S
C1942 C1943 1.385 . S
C1943 H1929 0.931 . S
C1943 C1942 1.385 . S
C1943 C1944 1.389 . S
C1944 C1943 1.389 . S
C1944 C1945 1.387 . S
C1945 H1930 0.930 . S
C1945 C1940 1.390 . S
C1945 C1944 1.387 . S
H1946 C1958 0.930 . S
H1947 C1960 0.930 . S
H1948 C1961 0.930 . S
H1949 C1965 0.959 . S
H1950 C1965 0.959 . S
H1951 C1965 0.961 . S
H1952 C1966 0.960 . S
H1953 C1966 0.961 . S
H1954 C1966 0.959 . S
H1955 C1969 0.929 . S
H1956 C1970 0.931 . S
H1957 C1972 0.930 . S
C1958 H1946 0.930 . S
C1958 C1959 1.399 . S
C1958 C1963 1.399 . S
C1959 C1958 1.399 . S
C1959 C1960 1.376 . S
C1960 H1947 0.930 . S
C1960 C1959 1.376 . S
C1960 C1961 1.388 . S
C1961 H1948 0.930 . S
C1961 C1960 1.388 . S
C1961 C1962 1.390 . S
C1962 C1961 1.390 . S
C1962 C1963 1.394 . S
C1962 C1968 1.465 . S
C1963 C1958 1.399 . S
C1963 C1962 1.394 . S
C1963 C1964 1.516 . S
C1964 C1963 1.516 . S
C1964 C1965 1.502 . S
C1964 C1966 1.561 . S
C1964 C1967 1.526 . S
C1965 H1949 0.959 . S
C1965 H1950 0.959 . S
C1965 H1951 0.961 . S
C1965 C1964 1.502 . S
C1966 H1952 0.960 . S
C1966 H1953 0.961 . S
C1966 H1954 0.959 . S
C1966 C1964 1.561 . S
C1967 C1964 1.526 . S
C1967 C1968 1.396 . S
C1967 C1972 1.390 . S
C1968 C1962 1.465 . S
C1968 C1967 1.396 . S
C1968 C1969 1.399 . S
C1969 H1955 0.929 . S
C1969 C1968 1.399 . S
C1969 C1970 1.385 . S
C1970 H1956 0.931 . S
C1970 C1969 1.385 . S
C1970 C1971 1.389 . S
C1971 C1970 1.389 . S
C1971 C1972 1.387 . S
C1972 H1957 0.930 . S
C1972 C1967 1.390 . S
C1972 C1971 1.387 . S
H1973 C1985 0.930 . S
H1974 C1987 0.930 . S
H1975 C1988 0.930 . S
H1976 C1992 0.959 . S
H1977 C1992 0.959 . S
H1978 C1992 0.961 . S
H1979 C1993 0.960 . S
H1980 C1993 0.961 . S
H1981 C1993 0.959 . S
H1982 C1996 0.929 . S
H1983 C1997 0.931 . S
H1984 C1999 0.930 . S
C1985 H1973 0.930 . S
C1985 C1986 1.399 . S
C1985 C1990 1.399 . S
C1986 C1985 1.399 . S
C1986 C1987 1.376 . S
C1987 H1974 0.930 . S
C1987 C1986 1.376 . S
C1987 C1988 1.388 . S
C1988 H1975 0.930 . S
C1988 C1987 1.388 . S
C1988 C1989 1.390 . S
C1989 C1988 1.390 . S
C1989 C1990 1.394 . S
C1989 C1995 1.465 . S
C1990 C1985 1.399 . S
C1990 C1989 1.394 . S
C1990 C1991 1.516 . S
C1991 C1990 1.516 . S
C1991 C1992 1.502 . S
C1991 C1993 1.561 . S
C1991 C1994 1.526 . S
C1992 H1976 0.959 . S
C1992 H1977 0.959 . S
C1992 H1978 0.961 . S
C1992 C1991 1.502 . S
C1993 H1979 0.960 . S
C1993 H1980 0.961 . S
C1993 H1981 0.959 . S
C1993 C1991 1.561 . S
C1994 C1991 1.526 . S
C1994 C1995 1.396 . S
C1994 C1999 1.390 . S
C1995 C1989 1.465 . S
C1995 C1994 1.396 . S
C1995 C1996 1.399 . S
C1996 H1982 0.929 . S
C1996 C1995 1.399 . S
C1996 C1997 1.385 . S
C1997 H1983 0.931 . S
C1997 C1996 1.385 . S
C1997 C1998 1.389 . S
C1998 C1997 1.389 . S
C1998 C1999 1.387 . S
C1999 H1984 0.930 . S
C1999 C1994 1.390 . S
C1999 C1998 1.387 . S
H2000 C2012 0.930 . S
H2001 C2014 0.930 . S
H2002 C2015 0.930 . S
H2003 C2019 0.959 . S
H2004 C2019 0.959 . S
H2005 C2019 0.961 . S
H2006 C2020 0.960 . S
H2007 C2020 0.961 . S
H2008 C2020 0.959 . S
H2009 C2023 0.929 . S
H2010 C2024 0.931 . S
H2011 C2026 0.930 . S
C2012 H2000 0.930 . S
C2012 C2013 1.399 . S
C2012 C2017 1.399 . S
C2013 C2012 1.399 . S
C2013 C2014 1.376 . S
C2014 H2001 0.930 . S
C2014 C2013 1.376 . S
C2014 C2015 1.388 . S
C2015 H2002 0.930 . S
C2015 C2014 1.388 . S
C2015 C2016 1.390 . S
C2016 C2015 1.390 . S
C2016 C2017 1.394 . S
C2016 C2022 1.465 . S
C2017 C2012 1.399 . S
C2017 C2016 1.394 . S
C2017 C2018 1.516 . S
C2018 C2017 1.516 . S
C2018 C2019 1.502 . S
C2018 C2020 1.561 . S
C2018 C2021 1.526 . S
C2019 H2003 0.959 . S
C2019 H2004 0.959 . S
C2019 H2005 0.961 . S
C2019 C2018 1.502 . S
C2020 H2006 0.960 . S
C2020 H2007 0.961 . S
C2020 H2008 0.959 . S
C2020 C2018 1.561 . S
C2021 C2018 1.526 . S
C2021 C2022 1.396 . S
C2021 C2026 1.390 . S
C2022 C2016 1.465 . S
C2022 C2021 1.396 . S
C2022 C2023 1.399 . S
C2023 H2009 0.929 . S
C2023 C2022 1.399 . S
C2023 C2024 1.385 . S
C2024 H2010 0.931 . S
C2024 C2023 1.385 . S
C2024 C2025 1.389 . S
C2025 C2024 1.389 . S
C2025 C2026 1.387 . S
C2026 H2011 0.930 . S
C2026 C2021 1.390 . S
C2026 C2025 1.387 . S
H2027 C2039 0.930 . S
H2028 C2041 0.930 . S
H2029 C2042 0.930 . S
H2030 C2046 0.959 . S
H2031 C2046 0.959 . S
H2032 C2046 0.961 . S
H2033 C2047 0.960 . S
H2034 C2047 0.961 . S
H2035 C2047 0.959 . S
H2036 C2050 0.929 . S
H2037 C2051 0.931 . S
H2038 C2053 0.930 . S
C2039 H2027 0.930 . S
C2039 C2040 1.399 . S
C2039 C2044 1.399 . S
C2040 C2039 1.399 . S
C2040 C2041 1.376 . S
C2041 H2028 0.930 . S
C2041 C2040 1.376 . S
C2041 C2042 1.388 . S
C2042 H2029 0.930 . S
C2042 C2041 1.388 . S
C2042 C2043 1.390 . S
C2043 C2042 1.390 . S
C2043 C2044 1.394 . S
C2043 C2049 1.465 . S
C2044 C2039 1.399 . S
C2044 C2043 1.394 . S
C2044 C2045 1.516 . S
C2045 C2044 1.516 . S
C2045 C2046 1.502 . S
C2045 C2047 1.561 . S
C2045 C2048 1.526 . S
C2046 H2030 0.959 . S
C2046 H2031 0.959 . S
C2046 H2032 0.961 . S
C2046 C2045 1.502 . S
C2047 H2033 0.960 . S
C2047 H2034 0.961 . S
C2047 H2035 0.959 . S
C2047 C2045 1.561 . S
C2048 C2045 1.526 . S
C2048 C2049 1.396 . S
C2048 C2053 1.390 . S
C2049 C2043 1.465 . S
C2049 C2048 1.396 . S
C2049 C2050 1.399 . S
C2050 H2036 0.929 . S
C2050 C2049 1.399 . S
C2050 C2051 1.385 . S
C2051 H2037 0.931 . S
C2051 C2050 1.385 . S
C2051 C2052 1.389 . S
C2052 C2051 1.389 . S
C2052 C2053 1.387 . S
C2053 H2038 0.930 . S
C2053 C2048 1.390 . S
C2053 C2052 1.387 . S
H2054 C2066 0.930 . S
H2055 C2068 0.930 . S
H2056 C2069 0.930 . S
H2057 C2073 0.959 . S
H2058 C2073 0.959 . S
H2059 C2073 0.961 . S
H2060 C2074 0.960 . S
H2061 C2074 0.961 . S
H2062 C2074 0.959 . S
H2063 C2077 0.929 . S
H2064 C2078 0.931 . S
H2065 C2080 0.930 . S
C2066 H2054 0.930 . S
C2066 C2067 1.399 . S
C2066 C2071 1.399 . S
C2067 C2066 1.399 . S
C2067 C2068 1.376 . S
C2068 H2055 0.930 . S
C2068 C2067 1.376 . S
C2068 C2069 1.388 . S
C2069 H2056 0.930 . S
C2069 C2068 1.388 . S
C2069 C2070 1.390 . S
C2070 C2069 1.390 . S
C2070 C2071 1.394 . S
C2070 C2076 1.465 . S
C2071 C2066 1.399 . S
C2071 C2070 1.394 . S
C2071 C2072 1.516 . S
C2072 C2071 1.516 . S
C2072 C2073 1.502 . S
C2072 C2074 1.561 . S
C2072 C2075 1.526 . S
C2073 H2057 0.959 . S
C2073 H2058 0.959 . S
C2073 H2059 0.961 . S
C2073 C2072 1.502 . S
C2074 H2060 0.960 . S
C2074 H2061 0.961 . S
C2074 H2062 0.959 . S
C2074 C2072 1.561 . S
C2075 C2072 1.526 . S
C2075 C2076 1.396 . S
C2075 C2080 1.390 . S
C2076 C2070 1.465 . S
C2076 C2075 1.396 . S
C2076 C2077 1.399 . S
C2077 H2063 0.929 . S
C2077 C2076 1.399 . S
C2077 C2078 1.385 . S
C2078 H2064 0.931 . S
C2078 C2077 1.385 . S
C2078 C2079 1.389 . S
C2079 C2078 1.389 . S
C2079 C2080 1.387 . S
C2080 H2065 0.930 . S
C2080 C2075 1.390 . S
C2080 C2079 1.387 . S
H2081 C2093 0.930 . S
H2082 C2095 0.930 . S
H2083 C2096 0.930 . S
H2084 C2100 0.959 . S
H2085 C2100 0.959 . S
H2086 C2100 0.961 . S
H2087 C2101 0.960 . S
H2088 C2101 0.961 . S
H2089 C2101 0.959 . S
H2090 C2104 0.929 . S
H2091 C2105 0.931 . S
H2092 C2107 0.930 . S
C2093 H2081 0.930 . S
C2093 C2094 1.399 . S
C2093 C2098 1.399 . S
C2094 C2093 1.399 . S
C2094 C2095 1.376 . S
C2095 H2082 0.930 . S
C2095 C2094 1.376 . S
C2095 C2096 1.388 . S
C2096 H2083 0.930 . S
C2096 C2095 1.388 . S
C2096 C2097 1.390 . S
C2097 C2096 1.390 . S
C2097 C2098 1.394 . S
C2097 C2103 1.465 . S
C2098 C2093 1.399 . S
C2098 C2097 1.394 . S
C2098 C2099 1.516 . S
C2099 C2098 1.516 . S
C2099 C2100 1.502 . S
C2099 C2101 1.561 . S
C2099 C2102 1.526 . S
C2100 H2084 0.959 . S
C2100 H2085 0.959 . S
C2100 H2086 0.961 . S
C2100 C2099 1.502 . S
C2101 H2087 0.960 . S
C2101 H2088 0.961 . S
C2101 H2089 0.959 . S
C2101 C2099 1.561 . S
C2102 C2099 1.526 . S
C2102 C2103 1.396 . S
C2102 C2107 1.390 . S
C2103 C2097 1.465 . S
C2103 C2102 1.396 . S
C2103 C2104 1.399 . S
C2104 H2090 0.929 . S
C2104 C2103 1.399 . S
C2104 C2105 1.385 . S
C2105 H2091 0.931 . S
C2105 C2104 1.385 . S
C2105 C2106 1.389 . S
C2106 C2105 1.389 . S
C2106 C2107 1.387 . S
C2107 H2092 0.930 . S
C2107 C2102 1.390 . S
C2107 C2106 1.387 . S
H2108 C2120 0.930 . S
H2109 C2122 0.930 . S
H2110 C2123 0.930 . S
H2111 C2127 0.959 . S
H2112 C2127 0.959 . S
H2113 C2127 0.961 . S
H2114 C2128 0.960 . S
H2115 C2128 0.961 . S
H2116 C2128 0.959 . S
H2117 C2131 0.929 . S
H2118 C2132 0.931 . S
H2119 C2134 0.930 . S
C2120 H2108 0.930 . S
C2120 C2121 1.399 . S
C2120 C2125 1.399 . S
C2121 C2120 1.399 . S
C2121 C2122 1.376 . S
C2122 H2109 0.930 . S
C2122 C2121 1.376 . S
C2122 C2123 1.388 . S
C2123 H2110 0.930 . S
C2123 C2122 1.388 . S
C2123 C2124 1.390 . S
C2124 C2123 1.390 . S
C2124 C2125 1.394 . S
C2124 C2130 1.465 . S
C2125 C2120 1.399 . S
C2125 C2124 1.394 . S
C2125 C2126 1.516 . S
C2126 C2125 1.516 . S
C2126 C2127 1.502 . S
C2126 C2128 1.561 . S
C2126 C2129 1.526 . S
C2127 H2111 0.959 . S
C2127 H2112 0.959 . S
C2127 H2113 0.961 . S
C2127 C2126 1.502 . S
C2128 H2114 0.960 . S
C2128 H2115 0.961 . S
C2128 H2116 0.959 . S
C2128 C2126 1.561 . S
C2129 C2126 1.526 . S
C2129 C2130 1.396 . S
C2129 C2134 1.390 . S
C2130 C2124 1.465 . S
C2130 C2129 1.396 . S
C2130 C2131 1.399 . S
C2131 H2117 0.929 . S
C2131 C2130 1.399 . S
C2131 C2132 1.385 . S
C2132 H2118 0.931 . S
C2132 C2131 1.385 . S
C2132 C2133 1.389 . S
C2133 C2132 1.389 . S
C2133 C2134 1.387 . S
C2134 H2119 0.930 . S
C2134 C2129 1.390 . S
C2134 C2133 1.387 . S
H2135 C2147 0.930 . S
H2136 C2149 0.930 . S
H2137 C2150 0.930 . S
H2138 C2154 0.959 . S
H2139 C2154 0.959 . S
H2140 C2154 0.961 . S
H2141 C2155 0.960 . S
H2142 C2155 0.961 . S
H2143 C2155 0.959 . S
H2144 C2158 0.929 . S
H2145 C2159 0.931 . S
H2146 C2161 0.930 . S
C2147 H2135 0.930 . S
C2147 C2148 1.399 . S
C2147 C2152 1.399 . S
C2148 C2147 1.399 . S
C2148 C2149 1.376 . S
C2149 H2136 0.930 . S
C2149 C2148 1.376 . S
C2149 C2150 1.388 . S
C2150 H2137 0.930 . S
C2150 C2149 1.388 . S
C2150 C2151 1.390 . S
C2151 C2150 1.390 . S
C2151 C2152 1.394 . S
C2151 C2157 1.465 . S
C2152 C2147 1.399 . S
C2152 C2151 1.394 . S
C2152 C2153 1.516 . S
C2153 C2152 1.516 . S
C2153 C2154 1.502 . S
C2153 C2155 1.561 . S
C2153 C2156 1.526 . S
C2154 H2138 0.959 . S
C2154 H2139 0.959 . S
C2154 H2140 0.961 . S
C2154 C2153 1.502 . S
C2155 H2141 0.960 . S
C2155 H2142 0.961 . S
C2155 H2143 0.959 . S
C2155 C2153 1.561 . S
C2156 C2153 1.526 . S
C2156 C2157 1.396 . S
C2156 C2161 1.390 . S
C2157 C2151 1.465 . S
C2157 C2156 1.396 . S
C2157 C2158 1.399 . S
C2158 H2144 0.929 . S
C2158 C2157 1.399 . S
C2158 C2159 1.385 . S
C2159 H2145 0.931 . S
C2159 C2158 1.385 . S
C2159 C2160 1.389 . S
C2160 C2159 1.389 . S
C2160 C2161 1.387 . S
C2161 H2146 0.930 . S
C2161 C2156 1.390 . S
C2161 C2160 1.387 . S
H2162 C2174 0.930 . S
H2163 C2176 0.930 . S
H2164 C2177 0.930 . S
H2165 C2181 0.959 . S
H2166 C2181 0.959 . S
H2167 C2181 0.961 . S
H2168 C2182 0.960 . S
H2169 C2182 0.961 . S
H2170 C2182 0.959 . S
H2171 C2185 0.929 . S
H2172 C2186 0.931 . S
H2173 C2188 0.930 . S
C2174 H2162 0.930 . S
C2174 C2175 1.399 . S
C2174 C2179 1.399 . S
C2175 C2174 1.399 . S
C2175 C2176 1.376 . S
C2176 H2163 0.930 . S
C2176 C2175 1.376 . S
C2176 C2177 1.388 . S
C2177 H2164 0.930 . S
C2177 C2176 1.388 . S
C2177 C2178 1.390 . S
C2178 C2177 1.390 . S
C2178 C2179 1.394 . S
C2178 C2184 1.465 . S
C2179 C2174 1.399 . S
C2179 C2178 1.394 . S
C2179 C2180 1.516 . S
C2180 C2179 1.516 . S
C2180 C2181 1.502 . S
C2180 C2182 1.561 . S
C2180 C2183 1.526 . S
C2181 H2165 0.959 . S
C2181 H2166 0.959 . S
C2181 H2167 0.961 . S
C2181 C2180 1.502 . S
C2182 H2168 0.960 . S
C2182 H2169 0.961 . S
C2182 H2170 0.959 . S
C2182 C2180 1.561 . S
C2183 C2180 1.526 . S
C2183 C2184 1.396 . S
C2183 C2188 1.390 . S
C2184 C2178 1.465 . S
C2184 C2183 1.396 . S
C2184 C2185 1.399 . S
C2185 H2171 0.929 . S
C2185 C2184 1.399 . S
C2185 C2186 1.385 . S
C2186 H2172 0.931 . S
C2186 C2185 1.385 . S
C2186 C2187 1.389 . S
C2187 C2186 1.389 . S
C2187 C2188 1.387 . S
C2188 H2173 0.930 . S
C2188 C2183 1.390 . S
C2188 C2187 1.387 . S
H2189 C2201 0.930 . S
H2190 C2203 0.930 . S
H2191 C2204 0.930 . S
H2192 C2208 0.959 . S
H2193 C2208 0.959 . S
H2194 C2208 0.961 . S
H2195 C2209 0.960 . S
H2196 C2209 0.961 . S
H2197 C2209 0.959 . S
H2198 C2212 0.929 . S
H2199 C2213 0.931 . S
H2200 C2215 0.930 . S
C2201 H2189 0.930 . S
C2201 C2202 1.399 . S
C2201 C2206 1.399 . S
C2202 C2201 1.399 . S
C2202 C2203 1.376 . S
C2203 H2190 0.930 . S
C2203 C2202 1.376 . S
C2203 C2204 1.388 . S
C2204 H2191 0.930 . S
C2204 C2203 1.388 . S
C2204 C2205 1.390 . S
C2205 C2204 1.390 . S
C2205 C2206 1.394 . S
C2205 C2211 1.465 . S
C2206 C2201 1.399 . S
C2206 C2205 1.394 . S
C2206 C2207 1.516 . S
C2207 C2206 1.516 . S
C2207 C2208 1.502 . S
C2207 C2209 1.561 . S
C2207 C2210 1.526 . S
C2208 H2192 0.959 . S
C2208 H2193 0.959 . S
C2208 H2194 0.961 . S
C2208 C2207 1.502 . S
C2209 H2195 0.960 . S
C2209 H2196 0.961 . S
C2209 H2197 0.959 . S
C2209 C2207 1.561 . S
C2210 C2207 1.526 . S
C2210 C2211 1.396 . S
C2210 C2215 1.390 . S
C2211 C2205 1.465 . S
C2211 C2210 1.396 . S
C2211 C2212 1.399 . S
C2212 H2198 0.929 . S
C2212 C2211 1.399 . S
C2212 C2213 1.385 . S
C2213 H2199 0.931 . S
C2213 C2212 1.385 . S
C2213 C2214 1.389 . S
C2214 C2213 1.389 . S
C2214 C2215 1.387 . S
C2215 H2200 0.930 . S
C2215 C2210 1.390 . S
C2215 C2214 1.387 . S
H2216 C2228 0.930 . S
H2217 C2230 0.930 . S
H2218 C2231 0.930 . S
H2219 C2235 0.959 . S
H2220 C2235 0.959 . S
H2221 C2235 0.961 . S
H2222 C2236 0.960 . S
H2223 C2236 0.961 . S
H2224 C2236 0.959 . S
H2225 C2239 0.929 . S
H2226 C2240 0.931 . S
H2227 C2242 0.930 . S
C2228 H2216 0.930 . S
C2228 C2229 1.399 . S
C2228 C2233 1.399 . S
C2229 C2228 1.399 . S
C2229 C2230 1.376 . S
C2230 H2217 0.930 . S
C2230 C2229 1.376 . S
C2230 C2231 1.388 . S
C2231 H2218 0.930 . S
C2231 C2230 1.388 . S
C2231 C2232 1.390 . S
C2232 C2231 1.390 . S
C2232 C2233 1.394 . S
C2232 C2238 1.465 . S
C2233 C2228 1.399 . S
C2233 C2232 1.394 . S
C2233 C2234 1.516 . S
C2234 C2233 1.516 . S
C2234 C2235 1.502 . S
C2234 C2236 1.561 . S
C2234 C2237 1.526 . S
C2235 H2219 0.959 . S
C2235 H2220 0.959 . S
C2235 H2221 0.961 . S
C2235 C2234 1.502 . S
C2236 H2222 0.960 . S
C2236 H2223 0.961 . S
C2236 H2224 0.959 . S
C2236 C2234 1.561 . S
C2237 C2234 1.526 . S
C2237 C2238 1.396 . S
C2237 C2242 1.390 . S
C2238 C2232 1.465 . S
C2238 C2237 1.396 . S
C2238 C2239 1.399 . S
C2239 H2225 0.929 . S
C2239 C2238 1.399 . S
C2239 C2240 1.385 . S
C2240 H2226 0.931 . S
C2240 C2239 1.385 . S
C2240 C2241 1.389 . S
C2241 C2240 1.389 . S
C2241 C2242 1.387 . S
C2242 H2227 0.930 . S
C2242 C2237 1.390 . S
C2242 C2241 1.387 . S
H2243 C2255 0.930 . S
H2244 C2257 0.930 . S
H2245 C2258 0.930 . S
H2246 C2262 0.959 . S
H2247 C2262 0.959 . S
H2248 C2262 0.961 . S
H2249 C2263 0.960 . S
H2250 C2263 0.961 . S
H2251 C2263 0.959 . S
H2252 C2266 0.929 . S
H2253 C2267 0.931 . S
H2254 C2269 0.930 . S
C2255 H2243 0.930 . S
C2255 C2256 1.399 . S
C2255 C2260 1.399 . S
C2256 C2255 1.399 . S
C2256 C2257 1.376 . S
C2257 H2244 0.930 . S
C2257 C2256 1.376 . S
C2257 C2258 1.388 . S
C2258 H2245 0.930 . S
C2258 C2257 1.388 . S
C2258 C2259 1.390 . S
C2259 C2258 1.390 . S
C2259 C2260 1.394 . S
C2259 C2265 1.465 . S
C2260 C2255 1.399 . S
C2260 C2259 1.394 . S
C2260 C2261 1.516 . S
C2261 C2260 1.516 . S
C2261 C2262 1.502 . S
C2261 C2263 1.561 . S
C2261 C2264 1.526 . S
C2262 H2246 0.959 . S
C2262 H2247 0.959 . S
C2262 H2248 0.961 . S
C2262 C2261 1.502 . S
C2263 H2249 0.960 . S
C2263 H2250 0.961 . S
C2263 H2251 0.959 . S
C2263 C2261 1.561 . S
C2264 C2261 1.526 . S
C2264 C2265 1.396 . S
C2264 C2269 1.390 . S
C2265 C2259 1.465 . S
C2265 C2264 1.396 . S
C2265 C2266 1.399 . S
C2266 H2252 0.929 . S
C2266 C2265 1.399 . S
C2266 C2267 1.385 . S
C2267 H2253 0.931 . S
C2267 C2266 1.385 . S
C2267 C2268 1.389 . S
C2268 C2267 1.389 . S
C2268 C2269 1.387 . S
C2269 H2254 0.930 . S
C2269 C2264 1.390 . S
C2269 C2268 1.387 . S
H2270 C2282 0.930 . S
H2271 C2284 0.930 . S
H2272 C2285 0.930 . S
H2273 C2289 0.959 . S
H2274 C2289 0.959 . S
H2275 C2289 0.961 . S
H2276 C2290 0.960 . S
H2277 C2290 0.961 . S
H2278 C2290 0.959 . S
H2279 C2293 0.929 . S
H2280 C2294 0.931 . S
H2281 C2296 0.930 . S
C2282 H2270 0.930 . S
C2282 C2283 1.399 . S
C2282 C2287 1.399 . S
C2283 C2282 1.399 . S
C2283 C2284 1.376 . S
C2284 H2271 0.930 . S
C2284 C2283 1.376 . S
C2284 C2285 1.388 . S
C2285 H2272 0.930 . S
C2285 C2284 1.388 . S
C2285 C2286 1.390 . S
C2286 C2285 1.390 . S
C2286 C2287 1.394 . S
C2286 C2292 1.465 . S
C2287 C2282 1.399 . S
C2287 C2286 1.394 . S
C2287 C2288 1.516 . S
C2288 C2287 1.516 . S
C2288 C2289 1.502 . S
C2288 C2290 1.561 . S
C2288 C2291 1.526 . S
C2289 H2273 0.959 . S
C2289 H2274 0.959 . S
C2289 H2275 0.961 . S
C2289 C2288 1.502 . S
C2290 H2276 0.960 . S
C2290 H2277 0.961 . S
C2290 H2278 0.959 . S
C2290 C2288 1.561 . S
C2291 C2288 1.526 . S
C2291 C2292 1.396 . S
C2291 C2296 1.390 . S
C2292 C2286 1.465 . S
C2292 C2291 1.396 . S
C2292 C2293 1.399 . S
C2293 H2279 0.929 . S
C2293 C2292 1.399 . S
C2293 C2294 1.385 . S
C2294 H2280 0.931 . S
C2294 C2293 1.385 . S
C2294 C2295 1.389 . S
C2295 C2294 1.389 . S
C2295 C2296 1.387 . S
C2296 H2281 0.930 . S
C2296 C2291 1.390 . S
C2296 C2295 1.387 . S
H2297 C2309 0.930 . S
H2298 C2311 0.930 . S
H2299 C2312 0.930 . S
H2300 C2316 0.959 . S
H2301 C2316 0.959 . S
H2302 C2316 0.961 . S
H2303 C2317 0.960 . S
H2304 C2317 0.961 . S
H2305 C2317 0.959 . S
H2306 C2320 0.929 . S
H2307 C2321 0.931 . S
H2308 C2323 0.930 . S
C2309 H2297 0.930 . S
C2309 C2310 1.399 . S
C2309 C2314 1.399 . S
C2310 C2309 1.399 . S
C2310 C2311 1.376 . S
C2311 H2298 0.930 . S
C2311 C2310 1.376 . S
C2311 C2312 1.388 . S
C2312 H2299 0.930 . S
C2312 C2311 1.388 . S
C2312 C2313 1.390 . S
C2313 C2312 1.390 . S
C2313 C2314 1.394 . S
C2313 C2319 1.465 . S
C2314 C2309 1.399 . S
C2314 C2313 1.394 . S
C2314 C2315 1.516 . S
C2315 C2314 1.516 . S
C2315 C2316 1.502 . S
C2315 C2317 1.561 . S
C2315 C2318 1.526 . S
C2316 H2300 0.959 . S
C2316 H2301 0.959 . S
C2316 H2302 0.961 . S
C2316 C2315 1.502 . S
C2317 H2303 0.960 . S
C2317 H2304 0.961 . S
C2317 H2305 0.959 . S
C2317 C2315 1.561 . S
C2318 C2315 1.526 . S
C2318 C2319 1.396 . S
C2318 C2323 1.390 . S
C2319 C2313 1.465 . S
C2319 C2318 1.396 . S
C2319 C2320 1.399 . S
C2320 H2306 0.929 . S
C2320 C2319 1.399 . S
C2320 C2321 1.385 . S
C2321 H2307 0.931 . S
C2321 C2320 1.385 . S
C2321 C2322 1.389 . S
C2322 C2321 1.389 . S
C2322 C2323 1.387 . S
C2323 H2308 0.930 . S
C2323 C2318 1.390 . S
C2323 C2322 1.387 . S
H2324 C2336 0.930 . S
H2325 C2338 0.930 . S
H2326 C2339 0.930 . S
H2327 C2343 0.959 . S
H2328 C2343 0.959 . S
H2329 C2343 0.961 . S
H2330 C2344 0.960 . S
H2331 C2344 0.961 . S
H2332 C2344 0.959 . S
H2333 C2347 0.929 . S
H2334 C2348 0.931 . S
H2335 C2350 0.930 . S
C2336 H2324 0.930 . S
C2336 C2337 1.399 . S
C2336 C2341 1.399 . S
C2337 C2336 1.399 . S
C2337 C2338 1.376 . S
C2338 H2325 0.930 . S
C2338 C2337 1.376 . S
C2338 C2339 1.388 . S
C2339 H2326 0.930 . S
C2339 C2338 1.388 . S
C2339 C2340 1.390 . S
C2340 C2339 1.390 . S
C2340 C2341 1.394 . S
C2340 C2346 1.465 . S
C2341 C2336 1.399 . S
C2341 C2340 1.394 . S
C2341 C2342 1.516 . S
C2342 C2341 1.516 . S
C2342 C2343 1.502 . S
C2342 C2344 1.561 . S
C2342 C2345 1.526 . S
C2343 H2327 0.959 . S
C2343 H2328 0.959 . S
C2343 H2329 0.961 . S
C2343 C2342 1.502 . S
C2344 H2330 0.960 . S
C2344 H2331 0.961 . S
C2344 H2332 0.959 . S
C2344 C2342 1.561 . S
C2345 C2342 1.526 . S
C2345 C2346 1.396 . S
C2345 C2350 1.390 . S
C2346 C2340 1.465 . S
C2346 C2345 1.396 . S
C2346 C2347 1.399 . S
C2347 H2333 0.929 . S
C2347 C2346 1.399 . S
C2347 C2348 1.385 . S
C2348 H2334 0.931 . S
C2348 C2347 1.385 . S
C2348 C2349 1.389 . S
C2349 C2348 1.389 . S
C2349 C2350 1.387 . S
C2350 H2335 0.930 . S
C2350 C2345 1.390 . S
C2350 C2349 1.387 . S
H2351 C2363 0.930 . S
H2352 C2365 0.930 . S
H2353 C2366 0.930 . S
H2354 C2370 0.959 . S
H2355 C2370 0.959 . S
H2356 C2370 0.961 . S
H2357 C2371 0.960 . S
H2358 C2371 0.961 . S
H2359 C2371 0.959 . S
H2360 C2374 0.929 . S
H2361 C2375 0.931 . S
H2362 C2377 0.930 . S
C2363 H2351 0.930 . S
C2363 C2364 1.399 . S
C2363 C2368 1.399 . S
C2364 C2363 1.399 . S
C2364 C2365 1.376 . S
C2365 H2352 0.930 . S
C2365 C2364 1.376 . S
C2365 C2366 1.388 . S
C2366 H2353 0.930 . S
C2366 C2365 1.388 . S
C2366 C2367 1.390 . S
C2367 C2366 1.390 . S
C2367 C2368 1.394 . S
C2367 C2373 1.465 . S
C2368 C2363 1.399 . S
C2368 C2367 1.394 . S
C2368 C2369 1.516 . S
C2369 C2368 1.516 . S
C2369 C2370 1.502 . S
C2369 C2371 1.561 . S
C2369 C2372 1.526 . S
C2370 H2354 0.959 . S
C2370 H2355 0.959 . S
C2370 H2356 0.961 . S
C2370 C2369 1.502 . S
C2371 H2357 0.960 . S
C2371 H2358 0.961 . S
C2371 H2359 0.959 . S
C2371 C2369 1.561 . S
C2372 C2369 1.526 . S
C2372 C2373 1.396 . S
C2372 C2377 1.390 . S
C2373 C2367 1.465 . S
C2373 C2372 1.396 . S
C2373 C2374 1.399 . S
C2374 H2360 0.929 . S
C2374 C2373 1.399 . S
C2374 C2375 1.385 . S
C2375 H2361 0.931 . S
C2375 C2374 1.385 . S
C2375 C2376 1.389 . S
C2376 C2375 1.389 . S
C2376 C2377 1.387 . S
C2377 H2362 0.930 . S
C2377 C2372 1.390 . S
C2377 C2376 1.387 . S
H2378 C2390 0.930 . S
H2379 C2392 0.930 . S
H2380 C2393 0.930 . S
H2381 C2397 0.959 . S
H2382 C2397 0.959 . S
H2383 C2397 0.961 . S
H2384 C2398 0.960 . S
H2385 C2398 0.961 . S
H2386 C2398 0.959 . S
H2387 C2401 0.929 . S
H2388 C2402 0.931 . S
H2389 C2404 0.930 . S
C2390 H2378 0.930 . S
C2390 C2391 1.399 . S
C2390 C2395 1.399 . S
C2391 C2390 1.399 . S
C2391 C2392 1.376 . S
C2392 H2379 0.930 . S
C2392 C2391 1.376 . S
C2392 C2393 1.388 . S
C2393 H2380 0.930 . S
C2393 C2392 1.388 . S
C2393 C2394 1.390 . S
C2394 C2393 1.390 . S
C2394 C2395 1.394 . S
C2394 C2400 1.465 . S
C2395 C2390 1.399 . S
C2395 C2394 1.394 . S
C2395 C2396 1.516 . S
C2396 C2395 1.516 . S
C2396 C2397 1.502 . S
C2396 C2398 1.561 . S
C2396 C2399 1.526 . S
C2397 H2381 0.959 . S
C2397 H2382 0.959 . S
C2397 H2383 0.961 . S
C2397 C2396 1.502 . S
C2398 H2384 0.960 . S
C2398 H2385 0.961 . S
C2398 H2386 0.959 . S
C2398 C2396 1.561 . S
C2399 C2396 1.526 . S
C2399 C2400 1.396 . S
C2399 C2404 1.390 . S
C2400 C2394 1.465 . S
C2400 C2399 1.396 . S
C2400 C2401 1.399 . S
C2401 H2387 0.929 . S
C2401 C2400 1.399 . S
C2401 C2402 1.385 . S
C2402 H2388 0.931 . S
C2402 C2401 1.385 . S
C2402 C2403 1.389 . S
C2403 C2402 1.389 . S
C2403 C2404 1.387 . S
C2404 H2389 0.930 . S
C2404 C2399 1.390 . S
C2404 C2403 1.387 . S
H2405 C2417 0.930 . S
H2406 C2419 0.930 . S
H2407 C2420 0.930 . S
H2408 C2424 0.959 . S
H2409 C2424 0.959 . S
H2410 C2424 0.961 . S
H2411 C2425 0.960 . S
H2412 C2425 0.961 . S
H2413 C2425 0.959 . S
H2414 C2428 0.929 . S
H2415 C2429 0.931 . S
H2416 C2431 0.930 . S
C2417 H2405 0.930 . S
C2417 C2418 1.399 . S
C2417 C2422 1.399 . S
C2418 C2417 1.399 . S
C2418 C2419 1.376 . S
C2419 H2406 0.930 . S
C2419 C2418 1.376 . S
C2419 C2420 1.388 . S
C2420 H2407 0.930 . S
C2420 C2419 1.388 . S
C2420 C2421 1.390 . S
C2421 C2420 1.390 . S
C2421 C2422 1.394 . S
C2421 C2427 1.465 . S
C2422 C2417 1.399 . S
C2422 C2421 1.394 . S
C2422 C2423 1.516 . S
C2423 C2422 1.516 . S
C2423 C2424 1.502 . S
C2423 C2425 1.561 . S
C2423 C2426 1.526 . S
C2424 H2408 0.959 . S
C2424 H2409 0.959 . S
C2424 H2410 0.961 . S
C2424 C2423 1.502 . S
C2425 H2411 0.960 . S
C2425 H2412 0.961 . S
C2425 H2413 0.959 . S
C2425 C2423 1.561 . S
C2426 C2423 1.526 . S
C2426 C2427 1.396 . S
C2426 C2431 1.390 . S
C2427 C2421 1.465 . S
C2427 C2426 1.396 . S
C2427 C2428 1.399 . S
C2428 H2414 0.929 . S
C2428 C2427 1.399 . S
C2428 C2429 1.385 . S
C2429 H2415 0.931 . S
C2429 C2428 1.385 . S
C2429 C2430 1.389 . S
C2430 C2429 1.389 . S
C2430 C2431 1.387 . S
C2431 H2416 0.930 . S
C2431 C2426 1.390 . S
C2431 C2430 1.387 . S
H2432 C2444 0.930 . S
H2433 C2446 0.930 . S
H2434 C2447 0.930 . S
H2435 C2451 0.959 . S
H2436 C2451 0.959 . S
H2437 C2451 0.961 . S
H2438 C2452 0.960 . S
H2439 C2452 0.961 . S
H2440 C2452 0.959 . S
H2441 C2455 0.929 . S
H2442 C2456 0.931 . S
H2443 C2458 0.930 . S
C2444 H2432 0.930 . S
C2444 C2445 1.399 . S
C2444 C2449 1.399 . S
C2445 C2444 1.399 . S
C2445 C2446 1.376 . S
C2446 H2433 0.930 . S
C2446 C2445 1.376 . S
C2446 C2447 1.388 . S
C2447 H2434 0.930 . S
C2447 C2446 1.388 . S
C2447 C2448 1.390 . S
C2448 C2447 1.390 . S
C2448 C2449 1.394 . S
C2448 C2454 1.465 . S
C2449 C2444 1.399 . S
C2449 C2448 1.394 . S
C2449 C2450 1.516 . S
C2450 C2449 1.516 . S
C2450 C2451 1.502 . S
C2450 C2452 1.561 . S
C2450 C2453 1.526 . S
C2451 H2435 0.959 . S
C2451 H2436 0.959 . S
C2451 H2437 0.961 . S
C2451 C2450 1.502 . S
C2452 H2438 0.960 . S
C2452 H2439 0.961 . S
C2452 H2440 0.959 . S
C2452 C2450 1.561 . S
C2453 C2450 1.526 . S
C2453 C2454 1.396 . S
C2453 C2458 1.390 . S
C2454 C2448 1.465 . S
C2454 C2453 1.396 . S
C2454 C2455 1.399 . S
C2455 H2441 0.929 . S
C2455 C2454 1.399 . S
C2455 C2456 1.385 . S
C2456 H2442 0.931 . S
C2456 C2455 1.385 . S
C2456 C2457 1.389 . S
C2457 C2456 1.389 . S
C2457 C2458 1.387 . S
C2458 H2443 0.930 . S
C2458 C2453 1.390 . S
C2458 C2457 1.387 . S
H2459 C2471 0.930 . S
H2460 C2473 0.930 . S
H2461 C2474 0.930 . S
H2462 C2478 0.959 . S
H2463 C2478 0.959 . S
H2464 C2478 0.961 . S
H2465 C2479 0.960 . S
H2466 C2479 0.961 . S
H2467 C2479 0.959 . S
H2468 C2482 0.929 . S
H2469 C2483 0.931 . S
H2470 C2485 0.930 . S
C2471 H2459 0.930 . S
C2471 C2472 1.399 . S
C2471 C2476 1.399 . S
C2472 C2471 1.399 . S
C2472 C2473 1.376 . S
C2473 H2460 0.930 . S
C2473 C2472 1.376 . S
C2473 C2474 1.388 . S
C2474 H2461 0.930 . S
C2474 C2473 1.388 . S
C2474 C2475 1.390 . S
C2475 C2474 1.390 . S
C2475 C2476 1.394 . S
C2475 C2481 1.465 . S
C2476 C2471 1.399 . S
C2476 C2475 1.394 . S
C2476 C2477 1.516 . S
C2477 C2476 1.516 . S
C2477 C2478 1.502 . S
C2477 C2479 1.561 . S
C2477 C2480 1.526 . S
C2478 H2462 0.959 . S
C2478 H2463 0.959 . S
C2478 H2464 0.961 . S
C2478 C2477 1.502 . S
C2479 H2465 0.960 . S
C2479 H2466 0.961 . S
C2479 H2467 0.959 . S
C2479 C2477 1.561 . S
C2480 C2477 1.526 . S
C2480 C2481 1.396 . S
C2480 C2485 1.390 . S
C2481 C2475 1.465 . S
C2481 C2480 1.396 . S
C2481 C2482 1.399 . S
C2482 H2468 0.929 . S
C2482 C2481 1.399 . S
C2482 C2483 1.385 . S
C2483 H2469 0.931 . S
C2483 C2482 1.385 . S
C2483 C2484 1.389 . S
C2484 C2483 1.389 . S
C2484 C2485 1.387 . S
C2485 H2470 0.930 . S
C2485 C2480 1.390 . S
C2485 C2484 1.387 . S
H2486 C2498 0.930 . S
H2487 C2500 0.930 . S
H2488 C2501 0.930 . S
H2489 C2505 0.959 . S
H2490 C2505 0.959 . S
H2491 C2505 0.961 . S
H2492 C2506 0.960 . S
H2493 C2506 0.961 . S
H2494 C2506 0.959 . S
H2495 C2509 0.929 . S
H2496 C2510 0.931 . S
H2497 C2512 0.930 . S
C2498 H2486 0.930 . S
C2498 C2499 1.399 . S
C2498 C2503 1.399 . S
C2499 C2498 1.399 . S
C2499 C2500 1.376 . S
C2500 H2487 0.930 . S
C2500 C2499 1.376 . S
C2500 C2501 1.388 . S
C2501 H2488 0.930 . S
C2501 C2500 1.388 . S
C2501 C2502 1.390 . S
C2502 C2501 1.390 . S
C2502 C2503 1.394 . S
C2502 C2508 1.465 . S
C2503 C2498 1.399 . S
C2503 C2502 1.394 . S
C2503 C2504 1.516 . S
C2504 C2503 1.516 . S
C2504 C2505 1.502 . S
C2504 C2506 1.561 . S
C2504 C2507 1.526 . S
C2505 H2489 0.959 . S
C2505 H2490 0.959 . S
C2505 H2491 0.961 . S
C2505 C2504 1.502 . S
C2506 H2492 0.960 . S
C2506 H2493 0.961 . S
C2506 H2494 0.959 . S
C2506 C2504 1.561 . S
C2507 C2504 1.526 . S
C2507 C2508 1.396 . S
C2507 C2512 1.390 . S
C2508 C2502 1.465 . S
C2508 C2507 1.396 . S
C2508 C2509 1.399 . S
C2509 H2495 0.929 . S
C2509 C2508 1.399 . S
C2509 C2510 1.385 . S
C2510 H2496 0.931 . S
C2510 C2509 1.385 . S
C2510 C2511 1.389 . S
C2511 C2510 1.389 . S
C2511 C2512 1.387 . S
C2512 H2497 0.930 . S
C2512 C2507 1.390 . S
C2512 C2511 1.387 . S
H2513 C2525 0.930 . S
H2514 C2527 0.930 . S
H2515 C2528 0.930 . S
H2516 C2532 0.959 . S
H2517 C2532 0.959 . S
H2518 C2532 0.961 . S
H2519 C2533 0.960 . S
H2520 C2533 0.961 . S
H2521 C2533 0.959 . S
H2522 C2536 0.929 . S
H2523 C2537 0.931 . S
H2524 C2539 0.930 . S
C2525 H2513 0.930 . S
C2525 C2526 1.399 . S
C2525 C2530 1.399 . S
C2526 C2525 1.399 . S
C2526 C2527 1.376 . S
C2527 H2514 0.930 . S
C2527 C2526 1.376 . S
C2527 C2528 1.388 . S
C2528 H2515 0.930 . S
C2528 C2527 1.388 . S
C2528 C2529 1.390 . S
C2529 C2528 1.390 . S
C2529 C2530 1.394 . S
C2529 C2535 1.465 . S
C2530 C2525 1.399 . S
C2530 C2529 1.394 . S
C2530 C2531 1.516 . S
C2531 C2530 1.516 . S
C2531 C2532 1.502 . S
C2531 C2533 1.561 . S
C2531 C2534 1.526 . S
C2532 H2516 0.959 . S
C2532 H2517 0.959 . S
C2532 H2518 0.961 . S
C2532 C2531 1.502 . S
C2533 H2519 0.960 . S
C2533 H2520 0.961 . S
C2533 H2521 0.959 . S
C2533 C2531 1.561 . S
C2534 C2531 1.526 . S
C2534 C2535 1.396 . S
C2534 C2539 1.390 . S
C2535 C2529 1.465 . S
C2535 C2534 1.396 . S
C2535 C2536 1.399 . S
C2536 H2522 0.929 . S
C2536 C2535 1.399 . S
C2536 C2537 1.385 . S
C2537 H2523 0.931 . S
C2537 C2536 1.385 . S
C2537 C2538 1.389 . S
C2538 C2537 1.389 . S
C2538 C2539 1.387 . S
C2539 H2524 0.930 . S
C2539 C2534 1.390 . S
C2539 C2538 1.387 . S
H2540 C2552 0.930 . S
H2541 C2554 0.930 . S
H2542 C2555 0.930 . S
H2543 C2559 0.959 . S
H2544 C2559 0.959 . S
H2545 C2559 0.961 . S
H2546 C2560 0.960 . S
H2547 C2560 0.961 . S
H2548 C2560 0.959 . S
H2549 C2563 0.929 . S
H2550 C2564 0.931 . S
H2551 C2566 0.930 . S
C2552 H2540 0.930 . S
C2552 C2553 1.399 . S
C2552 C2557 1.399 . S
C2553 C2552 1.399 . S
C2553 C2554 1.376 . S
C2554 H2541 0.930 . S
C2554 C2553 1.376 . S
C2554 C2555 1.388 . S
C2555 H2542 0.930 . S
C2555 C2554 1.388 . S
C2555 C2556 1.390 . S
C2556 C2555 1.390 . S
C2556 C2557 1.394 . S
C2556 C2562 1.465 . S
C2557 C2552 1.399 . S
C2557 C2556 1.394 . S
C2557 C2558 1.516 . S
C2558 C2557 1.516 . S
C2558 C2559 1.502 . S
C2558 C2560 1.561 . S
C2558 C2561 1.526 . S
C2559 H2543 0.959 . S
C2559 H2544 0.959 . S
C2559 H2545 0.961 . S
C2559 C2558 1.502 . S
C2560 H2546 0.960 . S
C2560 H2547 0.961 . S
C2560 H2548 0.959 . S
C2560 C2558 1.561 . S
C2561 C2558 1.526 . S
C2561 C2562 1.396 . S
C2561 C2566 1.390 . S
C2562 C2556 1.465 . S
C2562 C2561 1.396 . S
C2562 C2563 1.399 . S
C2563 H2549 0.929 . S
C2563 C2562 1.399 . S
C2563 C2564 1.385 . S
C2564 H2550 0.931 . S
C2564 C2563 1.385 . S
C2564 C2565 1.389 . S
C2565 C2564 1.389 . S
C2565 C2566 1.387 . S
C2566 H2551 0.930 . S
C2566 C2561 1.390 . S
C2566 C2565 1.387 . S
H2567 C2579 0.930 . S
H2568 C2581 0.930 . S
H2569 C2582 0.930 . S
H2570 C2586 0.959 . S
H2571 C2586 0.959 . S
H2572 C2586 0.961 . S
H2573 C2587 0.960 . S
H2574 C2587 0.961 . S
H2575 C2587 0.959 . S
H2576 C2590 0.929 . S
H2577 C2591 0.931 . S
H2578 C2593 0.930 . S
C2579 H2567 0.930 . S
C2579 C2580 1.399 . S
C2579 C2584 1.399 . S
C2580 C2579 1.399 . S
C2580 C2581 1.376 . S
C2581 H2568 0.930 . S
C2581 C2580 1.376 . S
C2581 C2582 1.388 . S
C2582 H2569 0.930 . S
C2582 C2581 1.388 . S
C2582 C2583 1.390 . S
C2583 C2582 1.390 . S
C2583 C2584 1.394 . S
C2583 C2589 1.465 . S
C2584 C2579 1.399 . S
C2584 C2583 1.394 . S
C2584 C2585 1.516 . S
C2585 C2584 1.516 . S
C2585 C2586 1.502 . S
C2585 C2587 1.561 . S
C2585 C2588 1.526 . S
C2586 H2570 0.959 . S
C2586 H2571 0.959 . S
C2586 H2572 0.961 . S
C2586 C2585 1.502 . S
C2587 H2573 0.960 . S
C2587 H2574 0.961 . S
C2587 H2575 0.959 . S
C2587 C2585 1.561 . S
C2588 C2585 1.526 . S
C2588 C2589 1.396 . S
C2588 C2593 1.390 . S
C2589 C2583 1.465 . S
C2589 C2588 1.396 . S
C2589 C2590 1.399 . S
C2590 H2576 0.929 . S
C2590 C2589 1.399 . S
C2590 C2591 1.385 . S
C2591 H2577 0.931 . S
C2591 C2590 1.385 . S
C2591 C2592 1.389 . S
C2592 C2591 1.389 . S
C2592 C2593 1.387 . S
C2593 H2578 0.930 . S
C2593 C2588 1.390 . S
C2593 C2592 1.387 . S
H2594 C2606 0.930 . S
H2595 C2608 0.930 . S
H2596 C2609 0.930 . S
H2597 C2613 0.959 . S
H2598 C2613 0.959 . S
H2599 C2613 0.961 . S
H2600 C2614 0.960 . S
H2601 C2614 0.961 . S
H2602 C2614 0.959 . S
H2603 C2617 0.929 . S
H2604 C2618 0.931 . S
H2605 C2620 0.930 . S
C2606 H2594 0.930 . S
C2606 C2607 1.399 . S
C2606 C2611 1.399 . S
C2607 C2606 1.399 . S
C2607 C2608 1.376 . S
C2608 H2595 0.930 . S
C2608 C2607 1.376 . S
C2608 C2609 1.388 . S
C2609 H2596 0.930 . S
C2609 C2608 1.388 . S
C2609 C2610 1.390 . S
C2610 C2609 1.390 . S
C2610 C2611 1.394 . S
C2610 C2616 1.465 . S
C2611 C2606 1.399 . S
C2611 C2610 1.394 . S
C2611 C2612 1.516 . S
C2612 C2611 1.516 . S
C2612 C2613 1.502 . S
C2612 C2614 1.561 . S
C2612 C2615 1.526 . S
C2613 H2597 0.959 . S
C2613 H2598 0.959 . S
C2613 H2599 0.961 . S
C2613 C2612 1.502 . S
C2614 H2600 0.960 . S
C2614 H2601 0.961 . S
C2614 H2602 0.959 . S
C2614 C2612 1.561 . S
C2615 C2612 1.526 . S
C2615 C2616 1.396 . S
C2615 C2620 1.390 . S
C2616 C2610 1.465 . S
C2616 C2615 1.396 . S
C2616 C2617 1.399 . S
C2617 H2603 0.929 . S
C2617 C2616 1.399 . S
C2617 C2618 1.385 . S
C2618 H2604 0.931 . S
C2618 C2617 1.385 . S
C2618 C2619 1.389 . S
C2619 C2618 1.389 . S
C2619 C2620 1.387 . S
C2620 H2605 0.930 . S
C2620 C2615 1.390 . S
C2620 C2619 1.387 . S
H2621 C2633 0.930 . S
H2622 C2635 0.930 . S
H2623 C2636 0.930 . S
H2624 C2640 0.959 . S
H2625 C2640 0.959 . S
H2626 C2640 0.961 . S
H2627 C2641 0.960 . S
H2628 C2641 0.961 . S
H2629 C2641 0.959 . S
H2630 C2644 0.929 . S
H2631 C2645 0.931 . S
H2632 C2647 0.930 . S
C2633 H2621 0.930 . S
C2633 C2634 1.399 . S
C2633 C2638 1.399 . S
C2634 C2633 1.399 . S
C2634 C2635 1.376 . S
C2635 H2622 0.930 . S
C2635 C2634 1.376 . S
C2635 C2636 1.388 . S
C2636 H2623 0.930 . S
C2636 C2635 1.388 . S
C2636 C2637 1.390 . S
C2637 C2636 1.390 . S
C2637 C2638 1.394 . S
C2637 C2643 1.465 . S
C2638 C2633 1.399 . S
C2638 C2637 1.394 . S
C2638 C2639 1.516 . S
C2639 C2638 1.516 . S
C2639 C2640 1.502 . S
C2639 C2641 1.561 . S
C2639 C2642 1.526 . S
C2640 H2624 0.959 . S
C2640 H2625 0.959 . S
C2640 H2626 0.961 . S
C2640 C2639 1.502 . S
C2641 H2627 0.960 . S
C2641 H2628 0.961 . S
C2641 H2629 0.959 . S
C2641 C2639 1.561 . S
C2642 C2639 1.526 . S
C2642 C2643 1.396 . S
C2642 C2647 1.390 . S
C2643 C2637 1.465 . S
C2643 C2642 1.396 . S
C2643 C2644 1.399 . S
C2644 H2630 0.929 . S
C2644 C2643 1.399 . S
C2644 C2645 1.385 . S
C2645 H2631 0.931 . S
C2645 C2644 1.385 . S
C2645 C2646 1.389 . S
C2646 C2645 1.389 . S
C2646 C2647 1.387 . S
C2647 H2632 0.930 . S
C2647 C2642 1.390 . S
C2647 C2646 1.387 . S
H2648 C2660 0.930 . S
H2649 C2662 0.930 . S
H2650 C2663 0.930 . S
H2651 C2667 0.959 . S
H2652 C2667 0.959 . S
H2653 C2667 0.961 . S
H2654 C2668 0.960 . S
H2655 C2668 0.961 . S
H2656 C2668 0.959 . S
H2657 C2671 0.929 . S
H2658 C2672 0.931 . S
H2659 C2674 0.930 . S
C2660 H2648 0.930 . S
C2660 C2661 1.399 . S
C2660 C2665 1.399 . S
C2661 C2660 1.399 . S
C2661 C2662 1.376 . S
C2662 H2649 0.930 . S
C2662 C2661 1.376 . S
C2662 C2663 1.388 . S
C2663 H2650 0.930 . S
C2663 C2662 1.388 . S
C2663 C2664 1.390 . S
C2664 C2663 1.390 . S
C2664 C2665 1.394 . S
C2664 C2670 1.465 . S
C2665 C2660 1.399 . S
C2665 C2664 1.394 . S
C2665 C2666 1.516 . S
C2666 C2665 1.516 . S
C2666 C2667 1.502 . S
C2666 C2668 1.561 . S
C2666 C2669 1.526 . S
C2667 H2651 0.959 . S
C2667 H2652 0.959 . S
C2667 H2653 0.961 . S
C2667 C2666 1.502 . S
C2668 H2654 0.960 . S
C2668 H2655 0.961 . S
C2668 H2656 0.959 . S
C2668 C2666 1.561 . S
C2669 C2666 1.526 . S
C2669 C2670 1.396 . S
C2669 C2674 1.390 . S
C2670 C2664 1.465 . S
C2670 C2669 1.396 . S
C2670 C2671 1.399 . S
C2671 H2657 0.929 . S
C2671 C2670 1.399 . S
C2671 C2672 1.385 . S
C2672 H2658 0.931 . S
C2672 C2671 1.385 . S
C2672 C2673 1.389 . S
C2673 C2672 1.389 . S
C2673 C2674 1.387 . S
C2674 H2659 0.930 . S
C2674 C2669 1.390 . S
C2674 C2673 1.387 . S
H2675 C2687 0.930 . S
H2676 C2689 0.930 . S
H2677 C2690 0.930 . S
H2678 C2694 0.959 . S
H2679 C2694 0.959 . S
H2680 C2694 0.961 . S
H2681 C2695 0.960 . S
H2682 C2695 0.961 . S
H2683 C2695 0.959 . S
H2684 C2698 0.929 . S
H2685 C2699 0.931 . S
H2686 C2701 0.930 . S
C2687 H2675 0.930 . S
C2687 C2688 1.399 . S
C2687 C2692 1.399 . S
C2688 C2687 1.399 . S
C2688 C2689 1.376 . S
C2689 H2676 0.930 . S
C2689 C2688 1.376 . S
C2689 C2690 1.388 . S
C2690 H2677 0.930 . S
C2690 C2689 1.388 . S
C2690 C2691 1.390 . S
C2691 C2690 1.390 . S
C2691 C2692 1.394 . S
C2691 C2697 1.465 . S
C2692 C2687 1.399 . S
C2692 C2691 1.394 . S
C2692 C2693 1.516 . S
C2693 C2692 1.516 . S
C2693 C2694 1.502 . S
C2693 C2695 1.561 . S
C2693 C2696 1.526 . S
C2694 H2678 0.959 . S
C2694 H2679 0.959 . S
C2694 H2680 0.961 . S
C2694 C2693 1.502 . S
C2695 H2681 0.960 . S
C2695 H2682 0.961 . S
C2695 H2683 0.959 . S
C2695 C2693 1.561 . S
C2696 C2693 1.526 . S
C2696 C2697 1.396 . S
C2696 C2701 1.390 . S
C2697 C2691 1.465 . S
C2697 C2696 1.396 . S
C2697 C2698 1.399 . S
C2698 H2684 0.929 . S
C2698 C2697 1.399 . S
C2698 C2699 1.385 . S
C2699 H2685 0.931 . S
C2699 C2698 1.385 . S
C2699 C2700 1.389 . S
C2700 C2699 1.389 . S
C2700 C2701 1.387 . S
C2701 H2686 0.930 . S
C2701 C2696 1.390 . S
C2701 C2700 1.387 . S
H2702 C2714 0.930 . S
H2703 C2716 0.930 . S
H2704 C2717 0.930 . S
H2705 C2721 0.959 . S
H2706 C2721 0.959 . S
H2707 C2721 0.961 . S
H2708 C2722 0.960 . S
H2709 C2722 0.961 . S
H2710 C2722 0.959 . S
H2711 C2725 0.929 . S
H2712 C2726 0.931 . S
H2713 C2728 0.930 . S
C2714 H2702 0.930 . S
C2714 C2715 1.399 . S
C2714 C2719 1.399 . S
C2715 C2714 1.399 . S
C2715 C2716 1.376 . S
C2716 H2703 0.930 . S
C2716 C2715 1.376 . S
C2716 C2717 1.388 . S
C2717 H2704 0.930 . S
C2717 C2716 1.388 . S
C2717 C2718 1.390 . S
C2718 C2717 1.390 . S
C2718 C2719 1.394 . S
C2718 C2724 1.465 . S
C2719 C2714 1.399 . S
C2719 C2718 1.394 . S
C2719 C2720 1.516 . S
C2720 C2719 1.516 . S
C2720 C2721 1.502 . S
C2720 C2722 1.561 . S
C2720 C2723 1.526 . S
C2721 H2705 0.959 . S
C2721 H2706 0.959 . S
C2721 H2707 0.961 . S
C2721 C2720 1.502 . S
C2722 H2708 0.960 . S
C2722 H2709 0.961 . S
C2722 H2710 0.959 . S
C2722 C2720 1.561 . S
C2723 C2720 1.526 . S
C2723 C2724 1.396 . S
C2723 C2728 1.390 . S
C2724 C2718 1.465 . S
C2724 C2723 1.396 . S
C2724 C2725 1.399 . S
C2725 H2711 0.929 . S
C2725 C2724 1.399 . S
C2725 C2726 1.385 . S
C2726 H2712 0.931 . S
C2726 C2725 1.385 . S
C2726 C2727 1.389 . S
C2727 C2726 1.389 . S
C2727 C2728 1.387 . S
C2728 H2713 0.930 . S
C2728 C2723 1.390 . S
C2728 C2727 1.387 . S
H2729 C2741 0.930 . S
H2730 C2743 0.930 . S
H2731 C2744 0.930 . S
H2732 C2748 0.959 . S
H2733 C2748 0.959 . S
H2734 C2748 0.961 . S
H2735 C2749 0.960 . S
H2736 C2749 0.961 . S
H2737 C2749 0.959 . S
H2738 C2752 0.929 . S
H2739 C2753 0.931 . S
H2740 C2755 0.930 . S
C2741 H2729 0.930 . S
C2741 C2742 1.399 . S
C2741 C2746 1.399 . S
C2742 C2741 1.399 . S
C2742 C2743 1.376 . S
C2743 H2730 0.930 . S
C2743 C2742 1.376 . S
C2743 C2744 1.388 . S
C2744 H2731 0.930 . S
C2744 C2743 1.388 . S
C2744 C2745 1.390 . S
C2745 C2744 1.390 . S
C2745 C2746 1.394 . S
C2745 C2751 1.465 . S
C2746 C2741 1.399 . S
C2746 C2745 1.394 . S
C2746 C2747 1.516 . S
C2747 C2746 1.516 . S
C2747 C2748 1.502 . S
C2747 C2749 1.561 . S
C2747 C2750 1.526 . S
C2748 H2732 0.959 . S
C2748 H2733 0.959 . S
C2748 H2734 0.961 . S
C2748 C2747 1.502 . S
C2749 H2735 0.960 . S
C2749 H2736 0.961 . S
C2749 H2737 0.959 . S
C2749 C2747 1.561 . S
C2750 C2747 1.526 . S
C2750 C2751 1.396 . S
C2750 C2755 1.390 . S
C2751 C2745 1.465 . S
C2751 C2750 1.396 . S
C2751 C2752 1.399 . S
C2752 H2738 0.929 . S
C2752 C2751 1.399 . S
C2752 C2753 1.385 . S
C2753 H2739 0.931 . S
C2753 C2752 1.385 . S
C2753 C2754 1.389 . S
C2754 C2753 1.389 . S
C2754 C2755 1.387 . S
C2755 H2740 0.930 . S
C2755 C2750 1.390 . S
C2755 C2754 1.387 . S
H2756 C2768 0.930 . S
H2757 C2770 0.930 . S
H2758 C2771 0.930 . S
H2759 C2775 0.959 . S
H2760 C2775 0.959 . S
H2761 C2775 0.961 . S
H2762 C2776 0.960 . S
H2763 C2776 0.961 . S
H2764 C2776 0.959 . S
H2765 C2779 0.929 . S
H2766 C2780 0.931 . S
H2767 C2782 0.930 . S
C2768 H2756 0.930 . S
C2768 C2769 1.399 . S
C2768 C2773 1.399 . S
C2769 C2768 1.399 . S
C2769 C2770 1.376 . S
C2770 H2757 0.930 . S
C2770 C2769 1.376 . S
C2770 C2771 1.388 . S
C2771 H2758 0.930 . S
C2771 C2770 1.388 . S
C2771 C2772 1.390 . S
C2772 C2771 1.390 . S
C2772 C2773 1.394 . S
C2772 C2778 1.465 . S
C2773 C2768 1.399 . S
C2773 C2772 1.394 . S
C2773 C2774 1.516 . S
C2774 C2773 1.516 . S
C2774 C2775 1.502 . S
C2774 C2776 1.561 . S
C2774 C2777 1.526 . S
C2775 H2759 0.959 . S
C2775 H2760 0.959 . S
C2775 H2761 0.961 . S
C2775 C2774 1.502 . S
C2776 H2762 0.960 . S
C2776 H2763 0.961 . S
C2776 H2764 0.959 . S
C2776 C2774 1.561 . S
C2777 C2774 1.526 . S
C2777 C2778 1.396 . S
C2777 C2782 1.390 . S
C2778 C2772 1.465 . S
C2778 C2777 1.396 . S
C2778 C2779 1.399 . S
C2779 H2765 0.929 . S
C2779 C2778 1.399 . S
C2779 C2780 1.385 . S
C2780 H2766 0.931 . S
C2780 C2779 1.385 . S
C2780 C2781 1.389 . S
C2781 C2780 1.389 . S
C2781 C2782 1.387 . S
C2782 H2767 0.930 . S
C2782 C2777 1.390 . S
C2782 C2781 1.387 . S
H2783 C2795 0.930 . S
H2784 C2797 0.930 . S
H2785 C2798 0.930 . S
H2786 C2802 0.959 . S
H2787 C2802 0.959 . S
H2788 C2802 0.961 . S
H2789 C2803 0.960 . S
H2790 C2803 0.961 . S
H2791 C2803 0.959 . S
H2792 C2806 0.929 . S
H2793 C2807 0.931 . S
H2794 C2809 0.930 . S
C2795 H2783 0.930 . S
C2795 C2796 1.399 . S
C2795 C2800 1.399 . S
C2796 C2795 1.399 . S
C2796 C2797 1.376 . S
C2797 H2784 0.930 . S
C2797 C2796 1.376 . S
C2797 C2798 1.388 . S
C2798 H2785 0.930 . S
C2798 C2797 1.388 . S
C2798 C2799 1.390 . S
C2799 C2798 1.390 . S
C2799 C2800 1.394 . S
C2799 C2805 1.465 . S
C2800 C2795 1.399 . S
C2800 C2799 1.394 . S
C2800 C2801 1.516 . S
C2801 C2800 1.516 . S
C2801 C2802 1.502 . S
C2801 C2803 1.561 . S
C2801 C2804 1.526 . S
C2802 H2786 0.959 . S
C2802 H2787 0.959 . S
C2802 H2788 0.961 . S
C2802 C2801 1.502 . S
C2803 H2789 0.960 . S
C2803 H2790 0.961 . S
C2803 H2791 0.959 . S
C2803 C2801 1.561 . S
C2804 C2801 1.526 . S
C2804 C2805 1.396 . S
C2804 C2809 1.390 . S
C2805 C2799 1.465 . S
C2805 C2804 1.396 . S
C2805 C2806 1.399 . S
C2806 H2792 0.929 . S
C2806 C2805 1.399 . S
C2806 C2807 1.385 . S
C2807 H2793 0.931 . S
C2807 C2806 1.385 . S
C2807 C2808 1.389 . S
C2808 C2807 1.389 . S
C2808 C2809 1.387 . S
C2809 H2794 0.930 . S
C2809 C2804 1.390 . S
C2809 C2808 1.387 . S
H2810 C2822 0.930 . S
H2811 C2824 0.930 . S
H2812 C2825 0.930 . S
H2813 C2829 0.959 . S
H2814 C2829 0.959 . S
H2815 C2829 0.961 . S
H2816 C2830 0.960 . S
H2817 C2830 0.961 . S
H2818 C2830 0.959 . S
H2819 C2833 0.929 . S
H2820 C2834 0.931 . S
H2821 C2836 0.930 . S
C2822 H2810 0.930 . S
C2822 C2823 1.399 . S
C2822 C2827 1.399 . S
C2823 C2822 1.399 . S
C2823 C2824 1.376 . S
C2824 H2811 0.930 . S
C2824 C2823 1.376 . S
C2824 C2825 1.388 . S
C2825 H2812 0.930 . S
C2825 C2824 1.388 . S
C2825 C2826 1.390 . S
C2826 C2825 1.390 . S
C2826 C2827 1.394 . S
C2826 C2832 1.465 . S
C2827 C2822 1.399 . S
C2827 C2826 1.394 . S
C2827 C2828 1.516 . S
C2828 C2827 1.516 . S
C2828 C2829 1.502 . S
C2828 C2830 1.561 . S
C2828 C2831 1.526 . S
C2829 H2813 0.959 . S
C2829 H2814 0.959 . S
C2829 H2815 0.961 . S
C2829 C2828 1.502 . S
C2830 H2816 0.960 . S
C2830 H2817 0.961 . S
C2830 H2818 0.959 . S
C2830 C2828 1.561 . S
C2831 C2828 1.526 . S
C2831 C2832 1.396 . S
C2831 C2836 1.390 . S
C2832 C2826 1.465 . S
C2832 C2831 1.396 . S
C2832 C2833 1.399 . S
C2833 H2819 0.929 . S
C2833 C2832 1.399 . S
C2833 C2834 1.385 . S
C2834 H2820 0.931 . S
C2834 C2833 1.385 . S
C2834 C2835 1.389 . S
C2835 C2834 1.389 . S
C2835 C2836 1.387 . S
C2836 H2821 0.930 . S
C2836 C2831 1.390 . S
C2836 C2835 1.387 . S
H2837 C2849 0.930 . S
H2838 C2851 0.930 . S
H2839 C2852 0.930 . S
H2840 C2856 0.959 . S
H2841 C2856 0.959 . S
H2842 C2856 0.961 . S
H2843 C2857 0.960 . S
H2844 C2857 0.961 . S
H2845 C2857 0.959 . S
H2846 C2860 0.929 . S
H2847 C2861 0.931 . S
H2848 C2863 0.930 . S
C2849 H2837 0.930 . S
C2849 C2850 1.399 . S
C2849 C2854 1.399 . S
C2850 C2849 1.399 . S
C2850 C2851 1.376 . S
C2851 H2838 0.930 . S
C2851 C2850 1.376 . S
C2851 C2852 1.388 . S
C2852 H2839 0.930 . S
C2852 C2851 1.388 . S
C2852 C2853 1.390 . S
C2853 C2852 1.390 . S
C2853 C2854 1.394 . S
C2853 C2859 1.465 . S
C2854 C2849 1.399 . S
C2854 C2853 1.394 . S
C2854 C2855 1.516 . S
C2855 C2854 1.516 . S
C2855 C2856 1.502 . S
C2855 C2857 1.561 . S
C2855 C2858 1.526 . S
C2856 H2840 0.959 . S
C2856 H2841 0.959 . S
C2856 H2842 0.961 . S
C2856 C2855 1.502 . S
C2857 H2843 0.960 . S
C2857 H2844 0.961 . S
C2857 H2845 0.959 . S
C2857 C2855 1.561 . S
C2858 C2855 1.526 . S
C2858 C2859 1.396 . S
C2858 C2863 1.390 . S
C2859 C2853 1.465 . S
C2859 C2858 1.396 . S
C2859 C2860 1.399 . S
C2860 H2846 0.929 . S
C2860 C2859 1.399 . S
C2860 C2861 1.385 . S
C2861 H2847 0.931 . S
C2861 C2860 1.385 . S
C2861 C2862 1.389 . S
C2862 C2861 1.389 . S
C2862 C2863 1.387 . S
C2863 H2848 0.930 . S
C2863 C2858 1.390 . S
C2863 C2862 1.387 . S
H2864 C2876 0.930 . S
H2865 C2878 0.930 . S
H2866 C2879 0.930 . S
H2867 C2883 0.959 . S
H2868 C2883 0.959 . S
H2869 C2883 0.961 . S
H2870 C2884 0.960 . S
H2871 C2884 0.961 . S
H2872 C2884 0.959 . S
H2873 C2887 0.929 . S
H2874 C2888 0.931 . S
H2875 C2890 0.930 . S
C2876 H2864 0.930 . S
C2876 C2877 1.399 . S
C2876 C2881 1.399 . S
C2877 C2876 1.399 . S
C2877 C2878 1.376 . S
C2878 H2865 0.930 . S
C2878 C2877 1.376 . S
C2878 C2879 1.388 . S
C2879 H2866 0.930 . S
C2879 C2878 1.388 . S
C2879 C2880 1.390 . S
C2880 C2879 1.390 . S
C2880 C2881 1.394 . S
C2880 C2886 1.465 . S
C2881 C2876 1.399 . S
C2881 C2880 1.394 . S
C2881 C2882 1.516 . S
C2882 C2881 1.516 . S
C2882 C2883 1.502 . S
C2882 C2884 1.561 . S
C2882 C2885 1.526 . S
C2883 H2867 0.959 . S
C2883 H2868 0.959 . S
C2883 H2869 0.961 . S
C2883 C2882 1.502 . S
C2884 H2870 0.960 . S
C2884 H2871 0.961 . S
C2884 H2872 0.959 . S
C2884 C2882 1.561 . S
C2885 C2882 1.526 . S
C2885 C2886 1.396 . S
C2885 C2890 1.390 . S
C2886 C2880 1.465 . S
C2886 C2885 1.396 . S
C2886 C2887 1.399 . S
C2887 H2873 0.929 . S
C2887 C2886 1.399 . S
C2887 C2888 1.385 . S
C2888 H2874 0.931 . S
C2888 C2887 1.385 . S
C2888 C2889 1.389 . S
C2889 C2888 1.389 . S
C2889 C2890 1.387 . S
C2890 H2875 0.930 . S
C2890 C2885 1.390 . S
C2890 C2889 1.387 . S
H2891 C2903 0.930 . S
H2892 C2905 0.930 . S
H2893 C2906 0.930 . S
H2894 C2910 0.959 . S
H2895 C2910 0.959 . S
H2896 C2910 0.961 . S
H2897 C2911 0.960 . S
H2898 C2911 0.961 . S
H2899 C2911 0.959 . S
H2900 C2914 0.929 . S
H2901 C2915 0.931 . S
H2902 C2917 0.930 . S
C2903 H2891 0.930 . S
C2903 C2904 1.399 . S
C2903 C2908 1.399 . S
C2904 C2903 1.399 . S
C2904 C2905 1.376 . S
C2905 H2892 0.930 . S
C2905 C2904 1.376 . S
C2905 C2906 1.388 . S
C2906 H2893 0.930 . S
C2906 C2905 1.388 . S
C2906 C2907 1.390 . S
C2907 C2906 1.390 . S
C2907 C2908 1.394 . S
C2907 C2913 1.465 . S
C2908 C2903 1.399 . S
C2908 C2907 1.394 . S
C2908 C2909 1.516 . S
C2909 C2908 1.516 . S
C2909 C2910 1.502 . S
C2909 C2911 1.561 . S
C2909 C2912 1.526 . S
C2910 H2894 0.959 . S
C2910 H2895 0.959 . S
C2910 H2896 0.961 . S
C2910 C2909 1.502 . S
C2911 H2897 0.960 . S
C2911 H2898 0.961 . S
C2911 H2899 0.959 . S
C2911 C2909 1.561 . S
C2912 C2909 1.526 . S
C2912 C2913 1.396 . S
C2912 C2917 1.390 . S
C2913 C2907 1.465 . S
C2913 C2912 1.396 . S
C2913 C2914 1.399 . S
C2914 H2900 0.929 . S
C2914 C2913 1.399 . S
C2914 C2915 1.385 . S
C2915 H2901 0.931 . S
C2915 C2914 1.385 . S
C2915 C2916 1.389 . S
C2916 C2915 1.389 . S
C2916 C2917 1.387 . S
C2917 H2902 0.930 . S
C2917 C2912 1.390 . S
C2917 C2916 1.387 . S
H2918 C2930 0.930 . S
H2919 C2932 0.930 . S
H2920 C2933 0.930 . S
H2921 C2937 0.959 . S
H2922 C2937 0.959 . S
H2923 C2937 0.961 . S
H2924 C2938 0.960 . S
H2925 C2938 0.961 . S
H2926 C2938 0.959 . S
H2927 C2941 0.929 . S
H2928 C2942 0.931 . S
H2929 C2944 0.930 . S
C2930 H2918 0.930 . S
C2930 C2931 1.399 . S
C2930 C2935 1.399 . S
C2931 C2930 1.399 . S
C2931 C2932 1.376 . S
C2932 H2919 0.930 . S
C2932 C2931 1.376 . S
C2932 C2933 1.388 . S
C2933 H2920 0.930 . S
C2933 C2932 1.388 . S
C2933 C2934 1.390 . S
C2934 C2933 1.390 . S
C2934 C2935 1.394 . S
C2934 C2940 1.465 . S
C2935 C2930 1.399 . S
C2935 C2934 1.394 . S
C2935 C2936 1.516 . S
C2936 C2935 1.516 . S
C2936 C2937 1.502 . S
C2936 C2938 1.561 . S
C2936 C2939 1.526 . S
C2937 H2921 0.959 . S
C2937 H2922 0.959 . S
C2937 H2923 0.961 . S
C2937 C2936 1.502 . S
C2938 H2924 0.960 . S
C2938 H2925 0.961 . S
C2938 H2926 0.959 . S
C2938 C2936 1.561 . S
C2939 C2936 1.526 . S
C2939 C2940 1.396 . S
C2939 C2944 1.390 . S
C2940 C2934 1.465 . S
C2940 C2939 1.396 . S
C2940 C2941 1.399 . S
C2941 H2927 0.929 . S
C2941 C2940 1.399 . S
C2941 C2942 1.385 . S
C2942 H2928 0.931 . S
C2942 C2941 1.385 . S
C2942 C2943 1.389 . S
C2943 C2942 1.389 . S
C2943 C2944 1.387 . S
C2944 H2929 0.930 . S
C2944 C2939 1.390 . S
C2944 C2943 1.387 . S
H2945 C2957 0.930 . S
H2946 C2959 0.930 . S
H2947 C2960 0.930 . S
H2948 C2964 0.959 . S
H2949 C2964 0.959 . S
H2950 C2964 0.961 . S
H2951 C2965 0.960 . S
H2952 C2965 0.961 . S
H2953 C2965 0.959 . S
H2954 C2968 0.929 . S
H2955 C2969 0.931 . S
H2956 C2971 0.930 . S
C2957 H2945 0.930 . S
C2957 C2958 1.399 . S
C2957 C2962 1.399 . S
C2958 C2957 1.399 . S
C2958 C2959 1.376 . S
C2959 H2946 0.930 . S
C2959 C2958 1.376 . S
C2959 C2960 1.388 . S
C2960 H2947 0.930 . S
C2960 C2959 1.388 . S
C2960 C2961 1.390 . S
C2961 C2960 1.390 . S
C2961 C2962 1.394 . S
C2961 C2967 1.465 . S
C2962 C2957 1.399 . S
C2962 C2961 1.394 . S
C2962 C2963 1.516 . S
C2963 C2962 1.516 . S
C2963 C2964 1.502 . S
C2963 C2965 1.561 . S
C2963 C2966 1.526 . S
C2964 H2948 0.959 . S
C2964 H2949 0.959 . S
C2964 H2950 0.961 . S
C2964 C2963 1.502 . S
C2965 H2951 0.960 . S
C2965 H2952 0.961 . S
C2965 H2953 0.959 . S
C2965 C2963 1.561 . S
C2966 C2963 1.526 . S
C2966 C2967 1.396 . S
C2966 C2971 1.390 . S
C2967 C2961 1.465 . S
C2967 C2966 1.396 . S
C2967 C2968 1.399 . S
C2968 H2954 0.929 . S
C2968 C2967 1.399 . S
C2968 C2969 1.385 . S
C2969 H2955 0.931 . S
C2969 C2968 1.385 . S
C2969 C2970 1.389 . S
C2970 C2969 1.389 . S
C2970 C2971 1.387 . S
C2971 H2956 0.930 . S
C2971 C2966 1.390 . S
C2971 C2970 1.387 . S
H2972 C2984 0.930 . S
H2973 C2986 0.930 . S
H2974 C2987 0.930 . S
H2975 C2991 0.959 . S
H2976 C2991 0.959 . S
H2977 C2991 0.961 . S
H2978 C2992 0.960 . S
H2979 C2992 0.961 . S
H2980 C2992 0.959 . S
H2981 C2995 0.929 . S
H2982 C2996 0.931 . S
H2983 C2998 0.930 . S
C2984 H2972 0.930 . S
C2984 C2985 1.399 . S
C2984 C2989 1.399 . S
C2985 C2984 1.399 . S
C2985 C2986 1.376 . S
C2986 H2973 0.930 . S
C2986 C2985 1.376 . S
C2986 C2987 1.388 . S
C2987 H2974 0.930 . S
C2987 C2986 1.388 . S
C2987 C2988 1.390 . S
C2988 C2987 1.390 . S
C2988 C2989 1.394 . S
C2988 C2994 1.465 . S
C2989 C2984 1.399 . S
C2989 C2988 1.394 . S
C2989 C2990 1.516 . S
C2990 C2989 1.516 . S
C2990 C2991 1.502 . S
C2990 C2992 1.561 . S
C2990 C2993 1.526 . S
C2991 H2975 0.959 . S
C2991 H2976 0.959 . S
C2991 H2977 0.961 . S
C2991 C2990 1.502 . S
C2992 H2978 0.960 . S
C2992 H2979 0.961 . S
C2992 H2980 0.959 . S
C2992 C2990 1.561 . S
C2993 C2990 1.526 . S
C2993 C2994 1.396 . S
C2993 C2998 1.390 . S
C2994 C2988 1.465 . S
C2994 C2993 1.396 . S
C2994 C2995 1.399 . S
C2995 H2981 0.929 . S
C2995 C2994 1.399 . S
C2995 C2996 1.385 . S
C2996 H2982 0.931 . S
C2996 C2995 1.385 . S
C2996 C2997 1.389 . S
C2997 C2996 1.389 . S
C2997 C2998 1.387 . S
C2998 H2983 0.930 . S
C2998 C2993 1.390 . S
C2998 C2997 1.387 . S
H2999 C3011 0.930 . S
H3000 C3013 0.930 . S
H3001 C3014 0.930 . S
H3002 C3018 0.959 . S
H3003 C3018 0.959 . S
H3004 C3018 0.961 . S
H3005 C3019 0.960 . S
H3006 C3019 0.961 . S
H3007 C3019 0.959 . S
H3008 C3022 0.929 . S
H3009 C3023 0.931 . S
H3010 C3025 0.930 . S
C3011 H2999 0.930 . S
C3011 C3012 1.399 . S
C3011 C3016 1.399 . S
C3012 C3011 1.399 . S
C3012 C3013 1.376 . S
C3013 H3000 0.930 . S
C3013 C3012 1.376 . S
C3013 C3014 1.388 . S
C3014 H3001 0.930 . S
C3014 C3013 1.388 . S
C3014 C3015 1.390 . S
C3015 C3014 1.390 . S
C3015 C3016 1.394 . S
C3015 C3021 1.465 . S
C3016 C3011 1.399 . S
C3016 C3015 1.394 . S
C3016 C3017 1.516 . S
C3017 C3016 1.516 . S
C3017 C3018 1.502 . S
C3017 C3019 1.561 . S
C3017 C3020 1.526 . S
C3018 H3002 0.959 . S
C3018 H3003 0.959 . S
C3018 H3004 0.961 . S
C3018 C3017 1.502 . S
C3019 H3005 0.960 . S
C3019 H3006 0.961 . S
C3019 H3007 0.959 . S
C3019 C3017 1.561 . S
C3020 C3017 1.526 . S
C3020 C3021 1.396 . S
C3020 C3025 1.390 . S
C3021 C3015 1.465 . S
C3021 C3020 1.396 . S
C3021 C3022 1.399 . S
C3022 H3008 0.929 . S
C3022 C3021 1.399 . S
C3022 C3023 1.385 . S
C3023 H3009 0.931 . S
C3023 C3022 1.385 . S
C3023 C3024 1.389 . S
C3024 C3023 1.389 . S
C3024 C3025 1.387 . S
C3025 H3010 0.930 . S
C3025 C3020 1.390 . S
C3025 C3024 1.387 . S
H3026 C3038 0.930 . S
H3027 C3040 0.930 . S
H3028 C3041 0.930 . S
H3029 C3045 0.959 . S
H3030 C3045 0.959 . S
H3031 C3045 0.961 . S
H3032 C3046 0.960 . S
H3033 C3046 0.961 . S
H3034 C3046 0.959 . S
H3035 C3049 0.929 . S
H3036 C3050 0.931 . S
H3037 C3052 0.930 . S
C3038 H3026 0.930 . S
C3038 C3039 1.399 . S
C3038 C3043 1.399 . S
C3039 C3038 1.399 . S
C3039 C3040 1.376 . S
C3040 H3027 0.930 . S
C3040 C3039 1.376 . S
C3040 C3041 1.388 . S
C3041 H3028 0.930 . S
C3041 C3040 1.388 . S
C3041 C3042 1.390 . S
C3042 C3041 1.390 . S
C3042 C3043 1.394 . S
C3042 C3048 1.465 . S
C3043 C3038 1.399 . S
C3043 C3042 1.394 . S
C3043 C3044 1.516 . S
C3044 C3043 1.516 . S
C3044 C3045 1.502 . S
C3044 C3046 1.561 . S
C3044 C3047 1.526 . S
C3045 H3029 0.959 . S
C3045 H3030 0.959 . S
C3045 H3031 0.961 . S
C3045 C3044 1.502 . S
C3046 H3032 0.960 . S
C3046 H3033 0.961 . S
C3046 H3034 0.959 . S
C3046 C3044 1.561 . S
C3047 C3044 1.526 . S
C3047 C3048 1.396 . S
C3047 C3052 1.390 . S
C3048 C3042 1.465 . S
C3048 C3047 1.396 . S
C3048 C3049 1.399 . S
C3049 H3035 0.929 . S
C3049 C3048 1.399 . S
C3049 C3050 1.385 . S
C3050 H3036 0.931 . S
C3050 C3049 1.385 . S
C3050 C3051 1.389 . S
C3051 C3050 1.389 . S
C3051 C3052 1.387 . S
C3052 H3037 0.930 . S
C3052 C3047 1.390 . S
C3052 C3051 1.387 . S
H3053 C3065 0.930 . S
H3054 C3067 0.930 . S
H3055 C3068 0.930 . S
H3056 C3072 0.959 . S
H3057 C3072 0.959 . S
H3058 C3072 0.961 . S
H3059 C3073 0.960 . S
H3060 C3073 0.961 . S
H3061 C3073 0.959 . S
H3062 C3076 0.929 . S
H3063 C3077 0.931 . S
H3064 C3079 0.930 . S
C3065 H3053 0.930 . S
C3065 C3066 1.399 . S
C3065 C3070 1.399 . S
C3066 C3065 1.399 . S
C3066 C3067 1.376 . S
C3067 H3054 0.930 . S
C3067 C3066 1.376 . S
C3067 C3068 1.388 . S
C3068 H3055 0.930 . S
C3068 C3067 1.388 . S
C3068 C3069 1.390 . S
C3069 C3068 1.390 . S
C3069 C3070 1.394 . S
C3069 C3075 1.465 . S
C3070 C3065 1.399 . S
C3070 C3069 1.394 . S
C3070 C3071 1.516 . S
C3071 C3070 1.516 . S
C3071 C3072 1.502 . S
C3071 C3073 1.561 . S
C3071 C3074 1.526 . S
C3072 H3056 0.959 . S
C3072 H3057 0.959 . S
C3072 H3058 0.961 . S
C3072 C3071 1.502 . S
C3073 H3059 0.960 . S
C3073 H3060 0.961 . S
C3073 H3061 0.959 . S
C3073 C3071 1.561 . S
C3074 C3071 1.526 . S
C3074 C3075 1.396 . S
C3074 C3079 1.390 . S
C3075 C3069 1.465 . S
C3075 C3074 1.396 . S
C3075 C3076 1.399 . S
C3076 H3062 0.929 . S
C3076 C3075 1.399 . S
C3076 C3077 1.385 . S
C3077 H3063 0.931 . S
C3077 C3076 1.385 . S
C3077 C3078 1.389 . S
C3078 C3077 1.389 . S
C3078 C3079 1.387 . S
C3079 H3064 0.930 . S
C3079 C3074 1.390 . S
C3079 C3078 1.387 . S
H3080 C3092 0.930 . S
H3081 C3094 0.930 . S
H3082 C3095 0.930 . S
H3083 C3099 0.959 . S
H3084 C3099 0.959 . S
H3085 C3099 0.961 . S
H3086 C3100 0.960 . S
H3087 C3100 0.961 . S
H3088 C3100 0.959 . S
H3089 C3103 0.929 . S
H3090 C3104 0.931 . S
H3091 C3106 0.930 . S
C3092 H3080 0.930 . S
C3092 C3093 1.399 . S
C3092 C3097 1.399 . S
C3093 C3092 1.399 . S
C3093 C3094 1.376 . S
C3094 H3081 0.930 . S
C3094 C3093 1.376 . S
C3094 C3095 1.388 . S
C3095 H3082 0.930 . S
C3095 C3094 1.388 . S
C3095 C3096 1.390 . S
C3096 C3095 1.390 . S
C3096 C3097 1.394 . S
C3096 C3102 1.465 . S
C3097 C3092 1.399 . S
C3097 C3096 1.394 . S
C3097 C3098 1.516 . S
C3098 C3097 1.516 . S
C3098 C3099 1.502 . S
C3098 C3100 1.561 . S
C3098 C3101 1.526 . S
C3099 H3083 0.959 . S
C3099 H3084 0.959 . S
C3099 H3085 0.961 . S
C3099 C3098 1.502 . S
C3100 H3086 0.960 . S
C3100 H3087 0.961 . S
C3100 H3088 0.959 . S
C3100 C3098 1.561 . S
C3101 C3098 1.526 . S
C3101 C3102 1.396 . S
C3101 C3106 1.390 . S
C3102 C3096 1.465 . S
C3102 C3101 1.396 . S
C3102 C3103 1.399 . S
C3103 H3089 0.929 . S
C3103 C3102 1.399 . S
C3103 C3104 1.385 . S
C3104 H3090 0.931 . S
C3104 C3103 1.385 . S
C3104 C3105 1.389 . S
C3105 C3104 1.389 . S
C3105 C3106 1.387 . S
C3106 H3091 0.930 . S
C3106 C3101 1.390 . S
C3106 C3105 1.387 . S
H3107 C3119 0.930 . S
H3108 C3121 0.930 . S
H3109 C3122 0.930 . S
H3110 C3126 0.959 . S
H3111 C3126 0.959 . S
H3112 C3126 0.961 . S
H3113 C3127 0.960 . S
H3114 C3127 0.961 . S
H3115 C3127 0.959 . S
H3116 C3130 0.929 . S
H3117 C3131 0.931 . S
H3118 C3133 0.930 . S
C3119 H3107 0.930 . S
C3119 C3120 1.399 . S
C3119 C3124 1.399 . S
C3120 C3119 1.399 . S
C3120 C3121 1.376 . S
C3121 H3108 0.930 . S
C3121 C3120 1.376 . S
C3121 C3122 1.388 . S
C3122 H3109 0.930 . S
C3122 C3121 1.388 . S
C3122 C3123 1.390 . S
C3123 C3122 1.390 . S
C3123 C3124 1.394 . S
C3123 C3129 1.465 . S
C3124 C3119 1.399 . S
C3124 C3123 1.394 . S
C3124 C3125 1.516 . S
C3125 C3124 1.516 . S
C3125 C3126 1.502 . S
C3125 C3127 1.561 . S
C3125 C3128 1.526 . S
C3126 H3110 0.959 . S
C3126 H3111 0.959 . S
C3126 H3112 0.961 . S
C3126 C3125 1.502 . S
C3127 H3113 0.960 . S
C3127 H3114 0.961 . S
C3127 H3115 0.959 . S
C3127 C3125 1.561 . S
C3128 C3125 1.526 . S
C3128 C3129 1.396 . S
C3128 C3133 1.390 . S
C3129 C3123 1.465 . S
C3129 C3128 1.396 . S
C3129 C3130 1.399 . S
C3130 H3116 0.929 . S
C3130 C3129 1.399 . S
C3130 C3131 1.385 . S
C3131 H3117 0.931 . S
C3131 C3130 1.385 . S
C3131 C3132 1.389 . S
C3132 C3131 1.389 . S
C3132 C3133 1.387 . S
C3133 H3118 0.930 . S
C3133 C3128 1.390 . S
C3133 C3132 1.387 . S
H3134 C3146 0.930 . S
H3135 C3148 0.930 . S
H3136 C3149 0.930 . S
H3137 C3153 0.959 . S
H3138 C3153 0.959 . S
H3139 C3153 0.961 . S
H3140 C3154 0.960 . S
H3141 C3154 0.961 . S
H3142 C3154 0.959 . S
H3143 C3157 0.929 . S
H3144 C3158 0.931 . S
H3145 C3160 0.930 . S
C3146 H3134 0.930 . S
C3146 C3147 1.399 . S
C3146 C3151 1.399 . S
C3147 C3146 1.399 . S
C3147 C3148 1.376 . S
C3148 H3135 0.930 . S
C3148 C3147 1.376 . S
C3148 C3149 1.388 . S
C3149 H3136 0.930 . S
C3149 C3148 1.388 . S
C3149 C3150 1.390 . S
C3150 C3149 1.390 . S
C3150 C3151 1.394 . S
C3150 C3156 1.465 . S
C3151 C3146 1.399 . S
C3151 C3150 1.394 . S
C3151 C3152 1.516 . S
C3152 C3151 1.516 . S
C3152 C3153 1.502 . S
C3152 C3154 1.561 . S
C3152 C3155 1.526 . S
C3153 H3137 0.959 . S
C3153 H3138 0.959 . S
C3153 H3139 0.961 . S
C3153 C3152 1.502 . S
C3154 H3140 0.960 . S
C3154 H3141 0.961 . S
C3154 H3142 0.959 . S
C3154 C3152 1.561 . S
C3155 C3152 1.526 . S
C3155 C3156 1.396 . S
C3155 C3160 1.390 . S
C3156 C3150 1.465 . S
C3156 C3155 1.396 . S
C3156 C3157 1.399 . S
C3157 H3143 0.929 . S
C3157 C3156 1.399 . S
C3157 C3158 1.385 . S
C3158 H3144 0.931 . S
C3158 C3157 1.385 . S
C3158 C3159 1.389 . S
C3159 C3158 1.389 . S
C3159 C3160 1.387 . S
C3160 H3145 0.930 . S
C3160 C3155 1.390 . S
C3160 C3159 1.387 . S
H3161 C3173 0.930 . S
H3162 C3175 0.930 . S
H3163 C3176 0.930 . S
H3164 C3180 0.959 . S
H3165 C3180 0.959 . S
H3166 C3180 0.961 . S
H3167 C3181 0.960 . S
H3168 C3181 0.961 . S
H3169 C3181 0.959 . S
H3170 C3184 0.929 . S
H3171 C3185 0.931 . S
H3172 C3187 0.930 . S
C3173 H3161 0.930 . S
C3173 C3174 1.399 . S
C3173 C3178 1.399 . S
C3174 C3173 1.399 . S
C3174 C3175 1.376 . S
C3175 H3162 0.930 . S
C3175 C3174 1.376 . S
C3175 C3176 1.388 . S
C3176 H3163 0.930 . S
C3176 C3175 1.388 . S
C3176 C3177 1.390 . S
C3177 C3176 1.390 . S
C3177 C3178 1.394 . S
C3177 C3183 1.465 . S
C3178 C3173 1.399 . S
C3178 C3177 1.394 . S
C3178 C3179 1.516 . S
C3179 C3178 1.516 . S
C3179 C3180 1.502 . S
C3179 C3181 1.561 . S
C3179 C3182 1.526 . S
C3180 H3164 0.959 . S
C3180 H3165 0.959 . S
C3180 H3166 0.961 . S
C3180 C3179 1.502 . S
C3181 H3167 0.960 . S
C3181 H3168 0.961 . S
C3181 H3169 0.959 . S
C3181 C3179 1.561 . S
C3182 C3179 1.526 . S
C3182 C3183 1.396 . S
C3182 C3187 1.390 . S
C3183 C3177 1.465 . S
C3183 C3182 1.396 . S
C3183 C3184 1.399 . S
C3184 H3170 0.929 . S
C3184 C3183 1.399 . S
C3184 C3185 1.385 . S
C3185 H3171 0.931 . S
C3185 C3184 1.385 . S
C3185 C3186 1.389 . S
C3186 C3185 1.389 . S
C3186 C3187 1.387 . S
C3187 H3172 0.930 . S
C3187 C3182 1.390 . S
C3187 C3186 1.387 . S
H3188 C3200 0.930 . S
H3189 C3202 0.930 . S
H3190 C3203 0.930 . S
H3191 C3207 0.959 . S
H3192 C3207 0.959 . S
H3193 C3207 0.961 . S
H3194 C3208 0.960 . S
H3195 C3208 0.961 . S
H3196 C3208 0.959 . S
H3197 C3211 0.929 . S
H3198 C3212 0.931 . S
H3199 C3214 0.930 . S
C3200 H3188 0.930 . S
C3200 C3201 1.399 . S
C3200 C3205 1.399 . S
C3201 C3200 1.399 . S
C3201 C3202 1.376 . S
C3202 H3189 0.930 . S
C3202 C3201 1.376 . S
C3202 C3203 1.388 . S
C3203 H3190 0.930 . S
C3203 C3202 1.388 . S
C3203 C3204 1.390 . S
C3204 C3203 1.390 . S
C3204 C3205 1.394 . S
C3204 C3210 1.465 . S
C3205 C3200 1.399 . S
C3205 C3204 1.394 . S
C3205 C3206 1.516 . S
C3206 C3205 1.516 . S
C3206 C3207 1.502 . S
C3206 C3208 1.561 . S
C3206 C3209 1.526 . S
C3207 H3191 0.959 . S
C3207 H3192 0.959 . S
C3207 H3193 0.961 . S
C3207 C3206 1.502 . S
C3208 H3194 0.960 . S
C3208 H3195 0.961 . S
C3208 H3196 0.959 . S
C3208 C3206 1.561 . S
C3209 C3206 1.526 . S
C3209 C3210 1.396 . S
C3209 C3214 1.390 . S
C3210 C3204 1.465 . S
C3210 C3209 1.396 . S
C3210 C3211 1.399 . S
C3211 H3197 0.929 . S
C3211 C3210 1.399 . S
C3211 C3212 1.385 . S
C3212 H3198 0.931 . S
C3212 C3211 1.385 . S
C3212 C3213 1.389 . S
C3213 C3212 1.389 . S
C3213 C3214 1.387 . S
C3214 H3199 0.930 . S
C3214 C3209 1.390 . S
C3214 C3213 1.387 . S
H3215 C3227 0.930 . S
H3216 C3229 0.930 . S
H3217 C3230 0.930 . S
H3218 C3234 0.959 . S
H3219 C3234 0.959 . S
H3220 C3234 0.961 . S
H3221 C3235 0.960 . S
H3222 C3235 0.961 . S
H3223 C3235 0.959 . S
H3224 C3238 0.929 . S
H3225 C3239 0.931 . S
H3226 C3241 0.930 . S
C3227 H3215 0.930 . S
C3227 C3228 1.399 . S
C3227 C3232 1.399 . S
C3228 C3227 1.399 . S
C3228 C3229 1.376 . S
C3229 H3216 0.930 . S
C3229 C3228 1.376 . S
C3229 C3230 1.388 . S
C3230 H3217 0.930 . S
C3230 C3229 1.388 . S
C3230 C3231 1.390 . S
C3231 C3230 1.390 . S
C3231 C3232 1.394 . S
C3231 C3237 1.465 . S
C3232 C3227 1.399 . S
C3232 C3231 1.394 . S
C3232 C3233 1.516 . S
C3233 C3232 1.516 . S
C3233 C3234 1.502 . S
C3233 C3235 1.561 . S
C3233 C3236 1.526 . S
C3234 H3218 0.959 . S
C3234 H3219 0.959 . S
C3234 H3220 0.961 . S
C3234 C3233 1.502 . S
C3235 H3221 0.960 . S
C3235 H3222 0.961 . S
C3235 H3223 0.959 . S
C3235 C3233 1.561 . S
C3236 C3233 1.526 . S
C3236 C3237 1.396 . S
C3236 C3241 1.390 . S
C3237 C3231 1.465 . S
C3237 C3236 1.396 . S
C3237 C3238 1.399 . S
C3238 H3224 0.929 . S
C3238 C3237 1.399 . S
C3238 C3239 1.385 . S
C3239 H3225 0.931 . S
C3239 C3238 1.385 . S
C3239 C3240 1.389 . S
C3240 C3239 1.389 . S
C3240 C3241 1.387 . S
C3241 H3226 0.930 . S
C3241 C3236 1.390 . S
C3241 C3240 1.387 . S
H3242 C3254 0.930 . S
H3243 C3256 0.930 . S
H3244 C3257 0.930 . S
H3245 C3261 0.959 . S
H3246 C3261 0.959 . S
H3247 C3261 0.961 . S
H3248 C3262 0.960 . S
H3249 C3262 0.961 . S
H3250 C3262 0.959 . S
H3251 C3265 0.929 . S
H3252 C3266 0.931 . S
H3253 C3268 0.930 . S
C3254 H3242 0.930 . S
C3254 C3255 1.399 . S
C3254 C3259 1.399 . S
C3255 C3254 1.399 . S
C3255 C3256 1.376 . S
C3256 H3243 0.930 . S
C3256 C3255 1.376 . S
C3256 C3257 1.388 . S
C3257 H3244 0.930 . S
C3257 C3256 1.388 . S
C3257 C3258 1.390 . S
C3258 C3257 1.390 . S
C3258 C3259 1.394 . S
C3258 C3264 1.465 . S
C3259 C3254 1.399 . S
C3259 C3258 1.394 . S
C3259 C3260 1.516 . S
C3260 C3259 1.516 . S
C3260 C3261 1.502 . S
C3260 C3262 1.561 . S
C3260 C3263 1.526 . S
C3261 H3245 0.959 . S
C3261 H3246 0.959 . S
C3261 H3247 0.961 . S
C3261 C3260 1.502 . S
C3262 H3248 0.960 . S
C3262 H3249 0.961 . S
C3262 H3250 0.959 . S
C3262 C3260 1.561 . S
C3263 C3260 1.526 . S
C3263 C3264 1.396 . S
C3263 C3268 1.390 . S
C3264 C3258 1.465 . S
C3264 C3263 1.396 . S
C3264 C3265 1.399 . S
C3265 H3251 0.929 . S
C3265 C3264 1.399 . S
C3265 C3266 1.385 . S
C3266 H3252 0.931 . S
C3266 C3265 1.385 . S
C3266 C3267 1.389 . S
C3267 C3266 1.389 . S
C3267 C3268 1.387 . S
C3268 H3253 0.930 . S
C3268 C3263 1.390 . S
C3268 C3267 1.387 . S
H3269 C3281 0.930 . S
H3270 C3283 0.930 . S
H3271 C3284 0.930 . S
H3272 C3288 0.959 . S
H3273 C3288 0.959 . S
H3274 C3288 0.961 . S
H3275 C3289 0.960 . S
H3276 C3289 0.961 . S
H3277 C3289 0.959 . S
H3278 C3292 0.929 . S
H3279 C3293 0.931 . S
H3280 C3295 0.930 . S
C3281 H3269 0.930 . S
C3281 C3282 1.399 . S
C3281 C3286 1.399 . S
C3282 C3281 1.399 . S
C3282 C3283 1.376 . S
C3283 H3270 0.930 . S
C3283 C3282 1.376 . S
C3283 C3284 1.388 . S
C3284 H3271 0.930 . S
C3284 C3283 1.388 . S
C3284 C3285 1.390 . S
C3285 C3284 1.390 . S
C3285 C3286 1.394 . S
C3285 C3291 1.465 . S
C3286 C3281 1.399 . S
C3286 C3285 1.394 . S
C3286 C3287 1.516 . S
C3287 C3286 1.516 . S
C3287 C3288 1.502 . S
C3287 C3289 1.561 . S
C3287 C3290 1.526 . S
C3288 H3272 0.959 . S
C3288 H3273 0.959 . S
C3288 H3274 0.961 . S
C3288 C3287 1.502 . S
C3289 H3275 0.960 . S
C3289 H3276 0.961 . S
C3289 H3277 0.959 . S
C3289 C3287 1.561 . S
C3290 C3287 1.526 . S
C3290 C3291 1.396 . S
C3290 C3295 1.390 . S
C3291 C3285 1.465 . S
C3291 C3290 1.396 . S
C3291 C3292 1.399 . S
C3292 H3278 0.929 . S
C3292 C3291 1.399 . S
C3292 C3293 1.385 . S
C3293 H3279 0.931 . S
C3293 C3292 1.385 . S
C3293 C3294 1.389 . S
C3294 C3293 1.389 . S
C3294 C3295 1.387 . S
C3295 H3280 0.930 . S
C3295 C3290 1.390 . S
C3295 C3294 1.387 . S
H3296 C3308 0.930 . S
H3297 C3310 0.930 . S
H3298 C3311 0.930 . S
H3299 C3315 0.959 . S
H3300 C3315 0.959 . S
H3301 C3315 0.961 . S
H3302 C3316 0.960 . S
H3303 C3316 0.961 . S
H3304 C3316 0.959 . S
H3305 C3319 0.929 . S
H3306 C3320 0.931 . S
H3307 C3322 0.930 . S
C3308 H3296 0.930 . S
C3308 C3309 1.399 . S
C3308 C3313 1.399 . S
C3309 C3308 1.399 . S
C3309 C3310 1.376 . S
C3310 H3297 0.930 . S
C3310 C3309 1.376 . S
C3310 C3311 1.388 . S
C3311 H3298 0.930 . S
C3311 C3310 1.388 . S
C3311 C3312 1.390 . S
C3312 C3311 1.390 . S
C3312 C3313 1.394 . S
C3312 C3318 1.465 . S
C3313 C3308 1.399 . S
C3313 C3312 1.394 . S
C3313 C3314 1.516 . S
C3314 C3313 1.516 . S
C3314 C3315 1.502 . S
C3314 C3316 1.561 . S
C3314 C3317 1.526 . S
C3315 H3299 0.959 . S
C3315 H3300 0.959 . S
C3315 H3301 0.961 . S
C3315 C3314 1.502 . S
C3316 H3302 0.960 . S
C3316 H3303 0.961 . S
C3316 H3304 0.959 . S
C3316 C3314 1.561 . S
C3317 C3314 1.526 . S
C3317 C3318 1.396 . S
C3317 C3322 1.390 . S
C3318 C3312 1.465 . S
C3318 C3317 1.396 . S
C3318 C3319 1.399 . S
C3319 H3305 0.929 . S
C3319 C3318 1.399 . S
C3319 C3320 1.385 . S
C3320 H3306 0.931 . S
C3320 C3319 1.385 . S
C3320 C3321 1.389 . S
C3321 C3320 1.389 . S
C3321 C3322 1.387 . S
C3322 H3307 0.930 . S
C3322 C3317 1.390 . S
C3322 C3321 1.387 . S
H3323 C3335 0.930 . S
H3324 C3337 0.930 . S
H3325 C3338 0.930 . S
H3326 C3342 0.959 . S
H3327 C3342 0.959 . S
H3328 C3342 0.961 . S
H3329 C3343 0.960 . S
H3330 C3343 0.961 . S
H3331 C3343 0.959 . S
H3332 C3346 0.929 . S
H3333 C3347 0.931 . S
H3334 C3349 0.930 . S
C3335 H3323 0.930 . S
C3335 C3336 1.399 . S
C3335 C3340 1.399 . S
C3336 C3335 1.399 . S
C3336 C3337 1.376 . S
C3337 H3324 0.930 . S
C3337 C3336 1.376 . S
C3337 C3338 1.388 . S
C3338 H3325 0.930 . S
C3338 C3337 1.388 . S
C3338 C3339 1.390 . S
C3339 C3338 1.390 . S
C3339 C3340 1.394 . S
C3339 C3345 1.465 . S
C3340 C3335 1.399 . S
C3340 C3339 1.394 . S
C3340 C3341 1.516 . S
C3341 C3340 1.516 . S
C3341 C3342 1.502 . S
C3341 C3343 1.561 . S
C3341 C3344 1.526 . S
C3342 H3326 0.959 . S
C3342 H3327 0.959 . S
C3342 H3328 0.961 . S
C3342 C3341 1.502 . S
C3343 H3329 0.960 . S
C3343 H3330 0.961 . S
C3343 H3331 0.959 . S
C3343 C3341 1.561 . S
C3344 C3341 1.526 . S
C3344 C3345 1.396 . S
C3344 C3349 1.390 . S
C3345 C3339 1.465 . S
C3345 C3344 1.396 . S
C3345 C3346 1.399 . S
C3346 H3332 0.929 . S
C3346 C3345 1.399 . S
C3346 C3347 1.385 . S
C3347 H3333 0.931 . S
C3347 C3346 1.385 . S
C3347 C3348 1.389 . S
C3348 C3347 1.389 . S
C3348 C3349 1.387 . S
C3349 H3334 0.930 . S
C3349 C3344 1.390 . S
C3349 C3348 1.387 . S
H3350 C3362 0.930 . S
H3351 C3364 0.930 . S
H3352 C3365 0.930 . S
H3353 C3369 0.959 . S
H3354 C3369 0.959 . S
H3355 C3369 0.961 . S
H3356 C3370 0.960 . S
H3357 C3370 0.961 . S
H3358 C3370 0.959 . S
H3359 C3373 0.929 . S
H3360 C3374 0.931 . S
H3361 C3376 0.930 . S
C3362 H3350 0.930 . S
C3362 C3363 1.399 . S
C3362 C3367 1.399 . S
C3363 C3362 1.399 . S
C3363 C3364 1.376 . S
C3364 H3351 0.930 . S
C3364 C3363 1.376 . S
C3364 C3365 1.388 . S
C3365 H3352 0.930 . S
C3365 C3364 1.388 . S
C3365 C3366 1.390 . S
C3366 C3365 1.390 . S
C3366 C3367 1.394 . S
C3366 C3372 1.465 . S
C3367 C3362 1.399 . S
C3367 C3366 1.394 . S
C3367 C3368 1.516 . S
C3368 C3367 1.516 . S
C3368 C3369 1.502 . S
C3368 C3370 1.561 . S
C3368 C3371 1.526 . S
C3369 H3353 0.959 . S
C3369 H3354 0.959 . S
C3369 H3355 0.961 . S
C3369 C3368 1.502 . S
C3370 H3356 0.960 . S
C3370 H3357 0.961 . S
C3370 H3358 0.959 . S
C3370 C3368 1.561 . S
C3371 C3368 1.526 . S
C3371 C3372 1.396 . S
C3371 C3376 1.390 . S
C3372 C3366 1.465 . S
C3372 C3371 1.396 . S
C3372 C3373 1.399 . S
C3373 H3359 0.929 . S
C3373 C3372 1.399 . S
C3373 C3374 1.385 . S
C3374 H3360 0.931 . S
C3374 C3373 1.385 . S
C3374 C3375 1.389 . S
C3375 C3374 1.389 . S
C3375 C3376 1.387 . S
C3376 H3361 0.930 . S
C3376 C3371 1.390 . S
C3376 C3375 1.387 . S
H3377 C3389 0.930 . S
H3378 C3391 0.930 . S
H3379 C3392 0.930 . S
H3380 C3396 0.959 . S
H3381 C3396 0.959 . S
H3382 C3396 0.961 . S
H3383 C3397 0.960 . S
H3384 C3397 0.961 . S
H3385 C3397 0.959 . S
H3386 C3400 0.929 . S
H3387 C3401 0.931 . S
H3388 C3403 0.930 . S
C3389 H3377 0.930 . S
C3389 C3390 1.399 . S
C3389 C3394 1.399 . S
C3390 C3389 1.399 . S
C3390 C3391 1.376 . S
C3391 H3378 0.930 . S
C3391 C3390 1.376 . S
C3391 C3392 1.388 . S
C3392 H3379 0.930 . S
C3392 C3391 1.388 . S
C3392 C3393 1.390 . S
C3393 C3392 1.390 . S
C3393 C3394 1.394 . S
C3393 C3399 1.465 . S
C3394 C3389 1.399 . S
C3394 C3393 1.394 . S
C3394 C3395 1.516 . S
C3395 C3394 1.516 . S
C3395 C3396 1.502 . S
C3395 C3397 1.561 . S
C3395 C3398 1.526 . S
C3396 H3380 0.959 . S
C3396 H3381 0.959 . S
C3396 H3382 0.961 . S
C3396 C3395 1.502 . S
C3397 H3383 0.960 . S
C3397 H3384 0.961 . S
C3397 H3385 0.959 . S
C3397 C3395 1.561 . S
C3398 C3395 1.526 . S
C3398 C3399 1.396 . S
C3398 C3403 1.390 . S
C3399 C3393 1.465 . S
C3399 C3398 1.396 . S
C3399 C3400 1.399 . S
C3400 H3386 0.929 . S
C3400 C3399 1.399 . S
C3400 C3401 1.385 . S
C3401 H3387 0.931 . S
C3401 C3400 1.385 . S
C3401 C3402 1.389 . S
C3402 C3401 1.389 . S
C3402 C3403 1.387 . S
C3403 H3388 0.930 . S
C3403 C3398 1.390 . S
C3403 C3402 1.387 . S
H3404 C3416 0.930 . S
H3405 C3418 0.930 . S
H3406 C3419 0.930 . S
H3407 C3423 0.959 . S
H3408 C3423 0.959 . S
H3409 C3423 0.961 . S
H3410 C3424 0.960 . S
H3411 C3424 0.961 . S
H3412 C3424 0.959 . S
H3413 C3427 0.929 . S
H3414 C3428 0.931 . S
H3415 C3430 0.930 . S
C3416 H3404 0.930 . S
C3416 C3417 1.399 . S
C3416 C3421 1.399 . S
C3417 C3416 1.399 . S
C3417 C3418 1.376 . S
C3418 H3405 0.930 . S
C3418 C3417 1.376 . S
C3418 C3419 1.388 . S
C3419 H3406 0.930 . S
C3419 C3418 1.388 . S
C3419 C3420 1.390 . S
C3420 C3419 1.390 . S
C3420 C3421 1.394 . S
C3420 C3426 1.465 . S
C3421 C3416 1.399 . S
C3421 C3420 1.394 . S
C3421 C3422 1.516 . S
C3422 C3421 1.516 . S
C3422 C3423 1.502 . S
C3422 C3424 1.561 . S
C3422 C3425 1.526 . S
C3423 H3407 0.959 . S
C3423 H3408 0.959 . S
C3423 H3409 0.961 . S
C3423 C3422 1.502 . S
C3424 H3410 0.960 . S
C3424 H3411 0.961 . S
C3424 H3412 0.959 . S
C3424 C3422 1.561 . S
C3425 C3422 1.526 . S
C3425 C3426 1.396 . S
C3425 C3430 1.390 . S
C3426 C3420 1.465 . S
C3426 C3425 1.396 . S
C3426 C3427 1.399 . S
C3427 H3413 0.929 . S
C3427 C3426 1.399 . S
C3427 C3428 1.385 . S
C3428 H3414 0.931 . S
C3428 C3427 1.385 . S
C3428 C3429 1.389 . S
C3429 C3428 1.389 . S
C3429 C3430 1.387 . S
C3430 H3415 0.930 . S
C3430 C3425 1.390 . S
C3430 C3429 1.387 . S
H3431 C3443 0.930 . S
H3432 C3445 0.930 . S
H3433 C3446 0.930 . S
H3434 C3450 0.959 . S
H3435 C3450 0.959 . S
H3436 C3450 0.961 . S
H3437 C3451 0.960 . S
H3438 C3451 0.961 . S
H3439 C3451 0.959 . S
H3440 C3454 0.929 . S
H3441 C3455 0.931 . S
H3442 C3457 0.930 . S
C3443 H3431 0.930 . S
C3443 C3444 1.399 . S
C3443 C3448 1.399 . S
C3444 C3443 1.399 . S
C3444 C3445 1.376 . S
C3445 H3432 0.930 . S
C3445 C3444 1.376 . S
C3445 C3446 1.388 . S
C3446 H3433 0.930 . S
C3446 C3445 1.388 . S
C3446 C3447 1.390 . S
C3447 C3446 1.390 . S
C3447 C3448 1.394 . S
C3447 C3453 1.465 . S
C3448 C3443 1.399 . S
C3448 C3447 1.394 . S
C3448 C3449 1.516 . S
C3449 C3448 1.516 . S
C3449 C3450 1.502 . S
C3449 C3451 1.561 . S
C3449 C3452 1.526 . S
C3450 H3434 0.959 . S
C3450 H3435 0.959 . S
C3450 H3436 0.961 . S
C3450 C3449 1.502 . S
C3451 H3437 0.960 . S
C3451 H3438 0.961 . S
C3451 H3439 0.959 . S
C3451 C3449 1.561 . S
C3452 C3449 1.526 . S
C3452 C3453 1.396 . S
C3452 C3457 1.390 . S
C3453 C3447 1.465 . S
C3453 C3452 1.396 . S
C3453 C3454 1.399 . S
C3454 H3440 0.929 . S
C3454 C3453 1.399 . S
C3454 C3455 1.385 . S
C3455 H3441 0.931 . S
C3455 C3454 1.385 . S
C3455 C3456 1.389 . S
C3456 C3455 1.389 . S
C3456 C3457 1.387 . S
C3457 H3442 0.930 . S
C3457 C3452 1.390 . S
C3457 C3456 1.387 . S
H3458 C3470 0.930 . S
H3459 C3472 0.930 . S
H3460 C3473 0.930 . S
H3461 C3477 0.959 . S
H3462 C3477 0.959 . S
H3463 C3477 0.961 . S
H3464 C3478 0.960 . S
H3465 C3478 0.961 . S
H3466 C3478 0.959 . S
H3467 C3481 0.929 . S
H3468 C3482 0.931 . S
H3469 C3484 0.930 . S
C3470 H3458 0.930 . S
C3470 C3471 1.399 . S
C3470 C3475 1.399 . S
C3471 C3470 1.399 . S
C3471 C3472 1.376 . S
C3472 H3459 0.930 . S
C3472 C3471 1.376 . S
C3472 C3473 1.388 . S
C3473 H3460 0.930 . S
C3473 C3472 1.388 . S
C3473 C3474 1.390 . S
C3474 C3473 1.390 . S
C3474 C3475 1.394 . S
C3474 C3480 1.465 . S
C3475 C3470 1.399 . S
C3475 C3474 1.394 . S
C3475 C3476 1.516 . S
C3476 C3475 1.516 . S
C3476 C3477 1.502 . S
C3476 C3478 1.561 . S
C3476 C3479 1.526 . S
C3477 H3461 0.959 . S
C3477 H3462 0.959 . S
C3477 H3463 0.961 . S
C3477 C3476 1.502 . S
C3478 H3464 0.960 . S
C3478 H3465 0.961 . S
C3478 H3466 0.959 . S
C3478 C3476 1.561 . S
C3479 C3476 1.526 . S
C3479 C3480 1.396 . S
C3479 C3484 1.390 . S
C3480 C3474 1.465 . S
C3480 C3479 1.396 . S
C3480 C3481 1.399 . S
C3481 H3467 0.929 . S
C3481 C3480 1.399 . S
C3481 C3482 1.385 . S
C3482 H3468 0.931 . S
C3482 C3481 1.385 . S
C3482 C3483 1.389 . S
C3483 C3482 1.389 . S
C3483 C3484 1.387 . S
C3484 H3469 0.930 . S
C3484 C3479 1.390 . S
C3484 C3483 1.387 . S
H3485 C3497 0.930 . S
H3486 C3499 0.930 . S
H3487 C3500 0.930 . S
H3488 C3504 0.959 . S
H3489 C3504 0.959 . S
H3490 C3504 0.961 . S
H3491 C3505 0.960 . S
H3492 C3505 0.961 . S
H3493 C3505 0.959 . S
H3494 C3508 0.929 . S
H3495 C3509 0.931 . S
H3496 C3511 0.930 . S
C3497 H3485 0.930 . S
C3497 C3498 1.399 . S
C3497 C3502 1.399 . S
C3498 C3497 1.399 . S
C3498 C3499 1.376 . S
C3499 H3486 0.930 . S
C3499 C3498 1.376 . S
C3499 C3500 1.388 . S
C3500 H3487 0.930 . S
C3500 C3499 1.388 . S
C3500 C3501 1.390 . S
C3501 C3500 1.390 . S
C3501 C3502 1.394 . S
C3501 C3507 1.465 . S
C3502 C3497 1.399 . S
C3502 C3501 1.394 . S
C3502 C3503 1.516 . S
C3503 C3502 1.516 . S
C3503 C3504 1.502 . S
C3503 C3505 1.561 . S
C3503 C3506 1.526 . S
C3504 H3488 0.959 . S
C3504 H3489 0.959 . S
C3504 H3490 0.961 . S
C3504 C3503 1.502 . S
C3505 H3491 0.960 . S
C3505 H3492 0.961 . S
C3505 H3493 0.959 . S
C3505 C3503 1.561 . S
C3506 C3503 1.526 . S
C3506 C3507 1.396 . S
C3506 C3511 1.390 . S
C3507 C3501 1.465 . S
C3507 C3506 1.396 . S
C3507 C3508 1.399 . S
C3508 H3494 0.929 . S
C3508 C3507 1.399 . S
C3508 C3509 1.385 . S
C3509 H3495 0.931 . S
C3509 C3508 1.385 . S
C3509 C3510 1.389 . S
C3510 C3509 1.389 . S
C3510 C3511 1.387 . S
C3511 H3496 0.930 . S
C3511 C3506 1.390 . S
C3511 C3510 1.387 . S
H3512 C3524 0.930 . S
H3513 C3526 0.930 . S
H3514 C3527 0.930 . S
H3515 C3531 0.959 . S
H3516 C3531 0.959 . S
H3517 C3531 0.961 . S
H3518 C3532 0.960 . S
H3519 C3532 0.961 . S
H3520 C3532 0.959 . S
H3521 C3535 0.929 . S
H3522 C3536 0.931 . S
H3523 C3538 0.930 . S
C3524 H3512 0.930 . S
C3524 C3525 1.399 . S
C3524 C3529 1.399 . S
C3525 C3524 1.399 . S
C3525 C3526 1.376 . S
C3526 H3513 0.930 . S
C3526 C3525 1.376 . S
C3526 C3527 1.388 . S
C3527 H3514 0.930 . S
C3527 C3526 1.388 . S
C3527 C3528 1.390 . S
C3528 C3527 1.390 . S
C3528 C3529 1.394 . S
C3528 C3534 1.465 . S
C3529 C3524 1.399 . S
C3529 C3528 1.394 . S
C3529 C3530 1.516 . S
C3530 C3529 1.516 . S
C3530 C3531 1.502 . S
C3530 C3532 1.561 . S
C3530 C3533 1.526 . S
C3531 H3515 0.959 . S
C3531 H3516 0.959 . S
C3531 H3517 0.961 . S
C3531 C3530 1.502 . S
C3532 H3518 0.960 . S
C3532 H3519 0.961 . S
C3532 H3520 0.959 . S
C3532 C3530 1.561 . S
C3533 C3530 1.526 . S
C3533 C3534 1.396 . S
C3533 C3538 1.390 . S
C3534 C3528 1.465 . S
C3534 C3533 1.396 . S
C3534 C3535 1.399 . S
C3535 H3521 0.929 . S
C3535 C3534 1.399 . S
C3535 C3536 1.385 . S
C3536 H3522 0.931 . S
C3536 C3535 1.385 . S
C3536 C3537 1.389 . S
C3537 C3536 1.389 . S
C3537 C3538 1.387 . S
C3538 H3523 0.930 . S
C3538 C3533 1.390 . S
C3538 C3537 1.387 . S
H3539 C3551 0.930 . S
H3540 C3553 0.930 . S
H3541 C3554 0.930 . S
H3542 C3558 0.959 . S
H3543 C3558 0.959 . S
H3544 C3558 0.961 . S
H3545 C3559 0.960 . S
H3546 C3559 0.961 . S
H3547 C3559 0.959 . S
H3548 C3562 0.929 . S
H3549 C3563 0.931 . S
H3550 C3565 0.930 . S
C3551 H3539 0.930 . S
C3551 C3552 1.399 . S
C3551 C3556 1.399 . S
C3552 C3551 1.399 . S
C3552 C3553 1.376 . S
C3553 H3540 0.930 . S
C3553 C3552 1.376 . S
C3553 C3554 1.388 . S
C3554 H3541 0.930 . S
C3554 C3553 1.388 . S
C3554 C3555 1.390 . S
C3555 C3554 1.390 . S
C3555 C3556 1.394 . S
C3555 C3561 1.465 . S
C3556 C3551 1.399 . S
C3556 C3555 1.394 . S
C3556 C3557 1.516 . S
C3557 C3556 1.516 . S
C3557 C3558 1.502 . S
C3557 C3559 1.561 . S
C3557 C3560 1.526 . S
C3558 H3542 0.959 . S
C3558 H3543 0.959 . S
C3558 H3544 0.961 . S
C3558 C3557 1.502 . S
C3559 H3545 0.960 . S
C3559 H3546 0.961 . S
C3559 H3547 0.959 . S
C3559 C3557 1.561 . S
C3560 C3557 1.526 . S
C3560 C3561 1.396 . S
C3560 C3565 1.390 . S
C3561 C3555 1.465 . S
C3561 C3560 1.396 . S
C3561 C3562 1.399 . S
C3562 H3548 0.929 . S
C3562 C3561 1.399 . S
C3562 C3563 1.385 . S
C3563 H3549 0.931 . S
C3563 C3562 1.385 . S
C3563 C3564 1.389 . S
C3564 C3563 1.389 . S
C3564 C3565 1.387 . S
C3565 H3550 0.930 . S
C3565 C3560 1.390 . S
C3565 C3564 1.387 . S
H3566 C3578 0.930 . S
H3567 C3580 0.930 . S
H3568 C3581 0.930 . S
H3569 C3585 0.959 . S
H3570 C3585 0.959 . S
H3571 C3585 0.961 . S
H3572 C3586 0.960 . S
H3573 C3586 0.961 . S
H3574 C3586 0.959 . S
H3575 C3589 0.929 . S
H3576 C3590 0.931 . S
H3577 C3592 0.930 . S
C3578 H3566 0.930 . S
C3578 C3579 1.399 . S
C3578 C3583 1.399 . S
C3579 C3578 1.399 . S
C3579 C3580 1.376 . S
C3580 H3567 0.930 . S
C3580 C3579 1.376 . S
C3580 C3581 1.388 . S
C3581 H3568 0.930 . S
C3581 C3580 1.388 . S
C3581 C3582 1.390 . S
C3582 C3581 1.390 . S
C3582 C3583 1.394 . S
C3582 C3588 1.465 . S
C3583 C3578 1.399 . S
C3583 C3582 1.394 . S
C3583 C3584 1.516 . S
C3584 C3583 1.516 . S
C3584 C3585 1.502 . S
C3584 C3586 1.561 . S
C3584 C3587 1.526 . S
C3585 H3569 0.959 . S
C3585 H3570 0.959 . S
C3585 H3571 0.961 . S
C3585 C3584 1.502 . S
C3586 H3572 0.960 . S
C3586 H3573 0.961 . S
C3586 H3574 0.959 . S
C3586 C3584 1.561 . S
C3587 C3584 1.526 . S
C3587 C3588 1.396 . S
C3587 C3592 1.390 . S
C3588 C3582 1.465 . S
C3588 C3587 1.396 . S
C3588 C3589 1.399 . S
C3589 H3575 0.929 . S
C3589 C3588 1.399 . S
C3589 C3590 1.385 . S
C3590 H3576 0.931 . S
C3590 C3589 1.385 . S
C3590 C3591 1.389 . S
C3591 C3590 1.389 . S
C3591 C3592 1.387 . S
C3592 H3577 0.930 . S
C3592 C3587 1.390 . S
C3592 C3591 1.387 . S
H3593 C3605 0.930 . S
H3594 C3607 0.930 . S
H3595 C3608 0.930 . S
H3596 C3612 0.959 . S
H3597 C3612 0.959 . S
H3598 C3612 0.961 . S
H3599 C3613 0.960 . S
H3600 C3613 0.961 . S
H3601 C3613 0.959 . S
H3602 C3616 0.929 . S
H3603 C3617 0.931 . S
H3604 C3619 0.930 . S
C3605 H3593 0.930 . S
C3605 C3606 1.399 . S
C3605 C3610 1.399 . S
C3606 C3605 1.399 . S
C3606 C3607 1.376 . S
C3607 H3594 0.930 . S
C3607 C3606 1.376 . S
C3607 C3608 1.388 . S
C3608 H3595 0.930 . S
C3608 C3607 1.388 . S
C3608 C3609 1.390 . S
C3609 C3608 1.390 . S
C3609 C3610 1.394 . S
C3609 C3615 1.465 . S
C3610 C3605 1.399 . S
C3610 C3609 1.394 . S
C3610 C3611 1.516 . S
C3611 C3610 1.516 . S
C3611 C3612 1.502 . S
C3611 C3613 1.561 . S
C3611 C3614 1.526 . S
C3612 H3596 0.959 . S
C3612 H3597 0.959 . S
C3612 H3598 0.961 . S
C3612 C3611 1.502 . S
C3613 H3599 0.960 . S
C3613 H3600 0.961 . S
C3613 H3601 0.959 . S
C3613 C3611 1.561 . S
C3614 C3611 1.526 . S
C3614 C3615 1.396 . S
C3614 C3619 1.390 . S
C3615 C3609 1.465 . S
C3615 C3614 1.396 . S
C3615 C3616 1.399 . S
C3616 H3602 0.929 . S
C3616 C3615 1.399 . S
C3616 C3617 1.385 . S
C3617 H3603 0.931 . S
C3617 C3616 1.385 . S
C3617 C3618 1.389 . S
C3618 C3617 1.389 . S
C3618 C3619 1.387 . S
C3619 H3604 0.930 . S
C3619 C3614 1.390 . S
C3619 C3618 1.387 . S
H3620 C3632 0.930 . S
H3621 C3634 0.930 . S
H3622 C3635 0.930 . S
H3623 C3639 0.959 . S
H3624 C3639 0.959 . S
H3625 C3639 0.961 . S
H3626 C3640 0.960 . S
H3627 C3640 0.961 . S
H3628 C3640 0.959 . S
H3629 C3643 0.929 . S
H3630 C3644 0.931 . S
H3631 C3646 0.930 . S
C3632 H3620 0.930 . S
C3632 C3633 1.399 . S
C3632 C3637 1.399 . S
C3633 C3632 1.399 . S
C3633 C3634 1.376 . S
C3634 H3621 0.930 . S
C3634 C3633 1.376 . S
C3634 C3635 1.388 . S
C3635 H3622 0.930 . S
C3635 C3634 1.388 . S
C3635 C3636 1.390 . S
C3636 C3635 1.390 . S
C3636 C3637 1.394 . S
C3636 C3642 1.465 . S
C3637 C3632 1.399 . S
C3637 C3636 1.394 . S
C3637 C3638 1.516 . S
C3638 C3637 1.516 . S
C3638 C3639 1.502 . S
C3638 C3640 1.561 . S
C3638 C3641 1.526 . S
C3639 H3623 0.959 . S
C3639 H3624 0.959 . S
C3639 H3625 0.961 . S
C3639 C3638 1.502 . S
C3640 H3626 0.960 . S
C3640 H3627 0.961 . S
C3640 H3628 0.959 . S
C3640 C3638 1.561 . S
C3641 C3638 1.526 . S
C3641 C3642 1.396 . S
C3641 C3646 1.390 . S
C3642 C3636 1.465 . S
C3642 C3641 1.396 . S
C3642 C3643 1.399 . S
C3643 H3629 0.929 . S
C3643 C3642 1.399 . S
C3643 C3644 1.385 . S
C3644 H3630 0.931 . S
C3644 C3643 1.385 . S
C3644 C3645 1.389 . S
C3645 C3644 1.389 . S
C3645 C3646 1.387 . S
C3646 H3631 0.930 . S
C3646 C3641 1.390 . S
C3646 C3645 1.387 . S
H3647 C3659 0.930 . S
H3648 C3661 0.930 . S
H3649 C3662 0.930 . S
H3650 C3666 0.959 . S
H3651 C3666 0.959 . S
H3652 C3666 0.961 . S
H3653 C3667 0.960 . S
H3654 C3667 0.961 . S
H3655 C3667 0.959 . S
H3656 C3670 0.929 . S
H3657 C3671 0.931 . S
H3658 C3673 0.930 . S
C3659 H3647 0.930 . S
C3659 C3660 1.399 . S
C3659 C3664 1.399 . S
C3660 C3659 1.399 . S
C3660 C3661 1.376 . S
C3661 H3648 0.930 . S
C3661 C3660 1.376 . S
C3661 C3662 1.388 . S
C3662 H3649 0.930 . S
C3662 C3661 1.388 . S
C3662 C3663 1.390 . S
C3663 C3662 1.390 . S
C3663 C3664 1.394 . S
C3663 C3669 1.465 . S
C3664 C3659 1.399 . S
C3664 C3663 1.394 . S
C3664 C3665 1.516 . S
C3665 C3664 1.516 . S
C3665 C3666 1.502 . S
C3665 C3667 1.561 . S
C3665 C3668 1.526 . S
C3666 H3650 0.959 . S
C3666 H3651 0.959 . S
C3666 H3652 0.961 . S
C3666 C3665 1.502 . S
C3667 H3653 0.960 . S
C3667 H3654 0.961 . S
C3667 H3655 0.959 . S
C3667 C3665 1.561 . S
C3668 C3665 1.526 . S
C3668 C3669 1.396 . S
C3668 C3673 1.390 . S
C3669 C3663 1.465 . S
C3669 C3668 1.396 . S
C3669 C3670 1.399 . S
C3670 H3656 0.929 . S
C3670 C3669 1.399 . S
C3670 C3671 1.385 . S
C3671 H3657 0.931 . S
C3671 C3670 1.385 . S
C3671 C3672 1.389 . S
C3672 C3671 1.389 . S
C3672 C3673 1.387 . S
C3673 H3658 0.930 . S
C3673 C3668 1.390 . S
C3673 C3672 1.387 . S
H3674 C3686 0.930 . S
H3675 C3688 0.930 . S
H3676 C3689 0.930 . S
H3677 C3693 0.959 . S
H3678 C3693 0.959 . S
H3679 C3693 0.961 . S
H3680 C3694 0.960 . S
H3681 C3694 0.961 . S
H3682 C3694 0.959 . S
H3683 C3697 0.929 . S
H3684 C3698 0.931 . S
H3685 C3700 0.930 . S
C3686 H3674 0.930 . S
C3686 C3687 1.399 . S
C3686 C3691 1.399 . S
C3687 C3686 1.399 . S
C3687 C3688 1.376 . S
C3688 H3675 0.930 . S
C3688 C3687 1.376 . S
C3688 C3689 1.388 . S
C3689 H3676 0.930 . S
C3689 C3688 1.388 . S
C3689 C3690 1.390 . S
C3690 C3689 1.390 . S
C3690 C3691 1.394 . S
C3690 C3696 1.465 . S
C3691 C3686 1.399 . S
C3691 C3690 1.394 . S
C3691 C3692 1.516 . S
C3692 C3691 1.516 . S
C3692 C3693 1.502 . S
C3692 C3694 1.561 . S
C3692 C3695 1.526 . S
C3693 H3677 0.959 . S
C3693 H3678 0.959 . S
C3693 H3679 0.961 . S
C3693 C3692 1.502 . S
C3694 H3680 0.960 . S
C3694 H3681 0.961 . S
C3694 H3682 0.959 . S
C3694 C3692 1.561 . S
C3695 C3692 1.526 . S
C3695 C3696 1.396 . S
C3695 C3700 1.390 . S
C3696 C3690 1.465 . S
C3696 C3695 1.396 . S
C3696 C3697 1.399 . S
C3697 H3683 0.929 . S
C3697 C3696 1.399 . S
C3697 C3698 1.385 . S
C3698 H3684 0.931 . S
C3698 C3697 1.385 . S
C3698 C3699 1.389 . S
C3699 C3698 1.389 . S
C3699 C3700 1.387 . S
C3700 H3685 0.930 . S
C3700 C3695 1.390 . S
C3700 C3699 1.387 . S
H3701 C3713 0.930 . S
H3702 C3715 0.930 . S
H3703 C3716 0.930 . S
H3704 C3720 0.959 . S
H3705 C3720 0.959 . S
H3706 C3720 0.961 . S
H3707 C3721 0.960 . S
H3708 C3721 0.961 . S
H3709 C3721 0.959 . S
H3710 C3724 0.929 . S
H3711 C3725 0.931 . S
H3712 C3727 0.930 . S
C3713 H3701 0.930 . S
C3713 C3714 1.399 . S
C3713 C3718 1.399 . S
C3714 C3713 1.399 . S
C3714 C3715 1.376 . S
C3715 H3702 0.930 . S
C3715 C3714 1.376 . S
C3715 C3716 1.388 . S
C3716 H3703 0.930 . S
C3716 C3715 1.388 . S
C3716 C3717 1.390 . S
C3717 C3716 1.390 . S
C3717 C3718 1.394 . S
C3717 C3723 1.465 . S
C3718 C3713 1.399 . S
C3718 C3717 1.394 . S
C3718 C3719 1.516 . S
C3719 C3718 1.516 . S
C3719 C3720 1.502 . S
C3719 C3721 1.561 . S
C3719 C3722 1.526 . S
C3720 H3704 0.959 . S
C3720 H3705 0.959 . S
C3720 H3706 0.961 . S
C3720 C3719 1.502 . S
C3721 H3707 0.960 . S
C3721 H3708 0.961 . S
C3721 H3709 0.959 . S
C3721 C3719 1.561 . S
C3722 C3719 1.526 . S
C3722 C3723 1.396 . S
C3722 C3727 1.390 . S
C3723 C3717 1.465 . S
C3723 C3722 1.396 . S
C3723 C3724 1.399 . S
C3724 H3710 0.929 . S
C3724 C3723 1.399 . S
C3724 C3725 1.385 . S
C3725 H3711 0.931 . S
C3725 C3724 1.385 . S
C3725 C3726 1.389 . S
C3726 C3725 1.389 . S
C3726 C3727 1.387 . S
C3727 H3712 0.930 . S
C3727 C3722 1.390 . S
C3727 C3726 1.387 . S
H3728 C3740 0.930 . S
H3729 C3742 0.930 . S
H3730 C3743 0.930 . S
H3731 C3747 0.959 . S
H3732 C3747 0.959 . S
H3733 C3747 0.961 . S
H3734 C3748 0.960 . S
H3735 C3748 0.961 . S
H3736 C3748 0.959 . S
H3737 C3751 0.929 . S
H3738 C3752 0.931 . S
H3739 C3754 0.930 . S
C3740 H3728 0.930 . S
C3740 C3741 1.399 . S
C3740 C3745 1.399 . S
C3741 C3740 1.399 . S
C3741 C3742 1.376 . S
C3742 H3729 0.930 . S
C3742 C3741 1.376 . S
C3742 C3743 1.388 . S
C3743 H3730 0.930 . S
C3743 C3742 1.388 . S
C3743 C3744 1.390 . S
C3744 C3743 1.390 . S
C3744 C3745 1.394 . S
C3744 C3750 1.465 . S
C3745 C3740 1.399 . S
C3745 C3744 1.394 . S
C3745 C3746 1.516 . S
C3746 C3745 1.516 . S
C3746 C3747 1.502 . S
C3746 C3748 1.561 . S
C3746 C3749 1.526 . S
C3747 H3731 0.959 . S
C3747 H3732 0.959 . S
C3747 H3733 0.961 . S
C3747 C3746 1.502 . S
C3748 H3734 0.960 . S
C3748 H3735 0.961 . S
C3748 H3736 0.959 . S
C3748 C3746 1.561 . S
C3749 C3746 1.526 . S
C3749 C3750 1.396 . S
C3749 C3754 1.390 . S
C3750 C3744 1.465 . S
C3750 C3749 1.396 . S
C3750 C3751 1.399 . S
C3751 H3737 0.929 . S
C3751 C3750 1.399 . S
C3751 C3752 1.385 . S
C3752 H3738 0.931 . S
C3752 C3751 1.385 . S
C3752 C3753 1.389 . S
C3753 C3752 1.389 . S
C3753 C3754 1.387 . S
C3754 H3739 0.930 . S
C3754 C3749 1.390 . S
C3754 C3753 1.387 . S
H3755 C3767 0.930 . S
H3756 C3769 0.930 . S
H3757 C3770 0.930 . S
H3758 C3774 0.959 . S
H3759 C3774 0.959 . S
H3760 C3774 0.961 . S
H3761 C3775 0.960 . S
H3762 C3775 0.961 . S
H3763 C3775 0.959 . S
H3764 C3778 0.929 . S
H3765 C3779 0.931 . S
H3766 C3781 0.930 . S
C3767 H3755 0.930 . S
C3767 C3768 1.399 . S
C3767 C3772 1.399 . S
C3768 C3767 1.399 . S
C3768 C3769 1.376 . S
C3769 H3756 0.930 . S
C3769 C3768 1.376 . S
C3769 C3770 1.388 . S
C3770 H3757 0.930 . S
C3770 C3769 1.388 . S
C3770 C3771 1.390 . S
C3771 C3770 1.390 . S
C3771 C3772 1.394 . S
C3771 C3777 1.465 . S
C3772 C3767 1.399 . S
C3772 C3771 1.394 . S
C3772 C3773 1.516 . S
C3773 C3772 1.516 . S
C3773 C3774 1.502 . S
C3773 C3775 1.561 . S
C3773 C3776 1.526 . S
C3774 H3758 0.959 . S
C3774 H3759 0.959 . S
C3774 H3760 0.961 . S
C3774 C3773 1.502 . S
C3775 H3761 0.960 . S
C3775 H3762 0.961 . S
C3775 H3763 0.959 . S
C3775 C3773 1.561 . S
C3776 C3773 1.526 . S
C3776 C3777 1.396 . S
C3776 C3781 1.390 . S
C3777 C3771 1.465 . S
C3777 C3776 1.396 . S
C3777 C3778 1.399 . S
C3778 H3764 0.929 . S
C3778 C3777 1.399 . S
C3778 C3779 1.385 . S
C3779 H3765 0.931 . S
C3779 C3778 1.385 . S
C3779 C3780 1.389 . S
C3780 C3779 1.389 . S
C3780 C3781 1.387 . S
C3781 H3766 0.930 . S
C3781 C3776 1.390 . S
C3781 C3780 1.387 . S
H3782 C3794 0.930 . S
H3783 C3796 0.930 . S
H3784 C3797 0.930 . S
H3785 C3801 0.959 . S
H3786 C3801 0.959 . S
H3787 C3801 0.961 . S
H3788 C3802 0.960 . S
H3789 C3802 0.961 . S
H3790 C3802 0.959 . S
H3791 C3805 0.929 . S
H3792 C3806 0.931 . S
H3793 C3808 0.930 . S
C3794 H3782 0.930 . S
C3794 C3795 1.399 . S
C3794 C3799 1.399 . S
C3795 C3794 1.399 . S
C3795 C3796 1.376 . S
C3796 H3783 0.930 . S
C3796 C3795 1.376 . S
C3796 C3797 1.388 . S
C3797 H3784 0.930 . S
C3797 C3796 1.388 . S
C3797 C3798 1.390 . S
C3798 C3797 1.390 . S
C3798 C3799 1.394 . S
C3798 C3804 1.465 . S
C3799 C3794 1.399 . S
C3799 C3798 1.394 . S
C3799 C3800 1.516 . S
C3800 C3799 1.516 . S
C3800 C3801 1.502 . S
C3800 C3802 1.561 . S
C3800 C3803 1.526 . S
C3801 H3785 0.959 . S
C3801 H3786 0.959 . S
C3801 H3787 0.961 . S
C3801 C3800 1.502 . S
C3802 H3788 0.960 . S
C3802 H3789 0.961 . S
C3802 H3790 0.959 . S
C3802 C3800 1.561 . S
C3803 C3800 1.526 . S
C3803 C3804 1.396 . S
C3803 C3808 1.390 . S
C3804 C3798 1.465 . S
C3804 C3803 1.396 . S
C3804 C3805 1.399 . S
C3805 H3791 0.929 . S
C3805 C3804 1.399 . S
C3805 C3806 1.385 . S
C3806 H3792 0.931 . S
C3806 C3805 1.385 . S
C3806 C3807 1.389 . S
C3807 C3806 1.389 . S
C3807 C3808 1.387 . S
C3808 H3793 0.930 . S
C3808 C3803 1.390 . S
C3808 C3807 1.387 . S
H3809 C3821 0.930 . S
H3810 C3823 0.930 . S
H3811 C3824 0.930 . S
H3812 C3828 0.959 . S
H3813 C3828 0.959 . S
H3814 C3828 0.961 . S
H3815 C3829 0.960 . S
H3816 C3829 0.961 . S
H3817 C3829 0.959 . S
H3818 C3832 0.929 . S
H3819 C3833 0.931 . S
H3820 C3835 0.930 . S
C3821 H3809 0.930 . S
C3821 C3822 1.399 . S
C3821 C3826 1.399 . S
C3822 C3821 1.399 . S
C3822 C3823 1.376 . S
C3823 H3810 0.930 . S
C3823 C3822 1.376 . S
C3823 C3824 1.388 . S
C3824 H3811 0.930 . S
C3824 C3823 1.388 . S
C3824 C3825 1.390 . S
C3825 C3824 1.390 . S
C3825 C3826 1.394 . S
C3825 C3831 1.465 . S
C3826 C3821 1.399 . S
C3826 C3825 1.394 . S
C3826 C3827 1.516 . S
C3827 C3826 1.516 . S
C3827 C3828 1.502 . S
C3827 C3829 1.561 . S
C3827 C3830 1.526 . S
C3828 H3812 0.959 . S
C3828 H3813 0.959 . S
C3828 H3814 0.961 . S
C3828 C3827 1.502 . S
C3829 H3815 0.960 . S
C3829 H3816 0.961 . S
C3829 H3817 0.959 . S
C3829 C3827 1.561 . S
C3830 C3827 1.526 . S
C3830 C3831 1.396 . S
C3830 C3835 1.390 . S
C3831 C3825 1.465 . S
C3831 C3830 1.396 . S
C3831 C3832 1.399 . S
C3832 H3818 0.929 . S
C3832 C3831 1.399 . S
C3832 C3833 1.385 . S
C3833 H3819 0.931 . S
C3833 C3832 1.385 . S
C3833 C3834 1.389 . S
C3834 C3833 1.389 . S
C3834 C3835 1.387 . S
C3835 H3820 0.930 . S
C3835 C3830 1.390 . S
C3835 C3834 1.387 . S
H3836 C3848 0.930 . S
H3837 C3850 0.930 . S
H3838 C3851 0.930 . S
H3839 C3855 0.959 . S
H3840 C3855 0.959 . S
H3841 C3855 0.961 . S
H3842 C3856 0.960 . S
H3843 C3856 0.961 . S
H3844 C3856 0.959 . S
H3845 C3859 0.929 . S
H3846 C3860 0.931 . S
H3847 C3862 0.930 . S
C3848 H3836 0.930 . S
C3848 C3849 1.399 . S
C3848 C3853 1.399 . S
C3849 C3848 1.399 . S
C3849 C3850 1.376 . S
C3850 H3837 0.930 . S
C3850 C3849 1.376 . S
C3850 C3851 1.388 . S
C3851 H3838 0.930 . S
C3851 C3850 1.388 . S
C3851 C3852 1.390 . S
C3852 C3851 1.390 . S
C3852 C3853 1.394 . S
C3852 C3858 1.465 . S
C3853 C3848 1.399 . S
C3853 C3852 1.394 . S
C3853 C3854 1.516 . S
C3854 C3853 1.516 . S
C3854 C3855 1.502 . S
C3854 C3856 1.561 . S
C3854 C3857 1.526 . S
C3855 H3839 0.959 . S
C3855 H3840 0.959 . S
C3855 H3841 0.961 . S
C3855 C3854 1.502 . S
C3856 H3842 0.960 . S
C3856 H3843 0.961 . S
C3856 H3844 0.959 . S
C3856 C3854 1.561 . S
C3857 C3854 1.526 . S
C3857 C3858 1.396 . S
C3857 C3862 1.390 . S
C3858 C3852 1.465 . S
C3858 C3857 1.396 . S
C3858 C3859 1.399 . S
C3859 H3845 0.929 . S
C3859 C3858 1.399 . S
C3859 C3860 1.385 . S
C3860 H3846 0.931 . S
C3860 C3859 1.385 . S
C3860 C3861 1.389 . S
C3861 C3860 1.389 . S
C3861 C3862 1.387 . S
C3862 H3847 0.930 . S
C3862 C3857 1.390 . S
C3862 C3861 1.387 . S
H3863 C3875 0.930 . S
H3864 C3877 0.930 . S
H3865 C3878 0.930 . S
H3866 C3882 0.959 . S
H3867 C3882 0.959 . S
H3868 C3882 0.961 . S
H3869 C3883 0.960 . S
H3870 C3883 0.961 . S
H3871 C3883 0.959 . S
H3872 C3886 0.929 . S
H3873 C3887 0.931 . S
H3874 C3889 0.930 . S
C3875 H3863 0.930 . S
C3875 C3876 1.399 . S
C3875 C3880 1.399 . S
C3876 C3875 1.399 . S
C3876 C3877 1.376 . S
C3877 H3864 0.930 . S
C3877 C3876 1.376 . S
C3877 C3878 1.388 . S
C3878 H3865 0.930 . S
C3878 C3877 1.388 . S
C3878 C3879 1.390 . S
C3879 C3878 1.390 . S
C3879 C3880 1.394 . S
C3879 C3885 1.465 . S
C3880 C3875 1.399 . S
C3880 C3879 1.394 . S
C3880 C3881 1.516 . S
C3881 C3880 1.516 . S
C3881 C3882 1.502 . S
C3881 C3883 1.561 . S
C3881 C3884 1.526 . S
C3882 H3866 0.959 . S
C3882 H3867 0.959 . S
C3882 H3868 0.961 . S
C3882 C3881 1.502 . S
C3883 H3869 0.960 . S
C3883 H3870 0.961 . S
C3883 H3871 0.959 . S
C3883 C3881 1.561 . S
C3884 C3881 1.526 . S
C3884 C3885 1.396 . S
C3884 C3889 1.390 . S
C3885 C3879 1.465 . S
C3885 C3884 1.396 . S
C3885 C3886 1.399 . S
C3886 H3872 0.929 . S
C3886 C3885 1.399 . S
C3886 C3887 1.385 . S
C3887 H3873 0.931 . S
C3887 C3886 1.385 . S
C3887 C3888 1.389 . S
C3888 C3887 1.389 . S
C3888 C3889 1.387 . S
C3889 H3874 0.930 . S
C3889 C3884 1.390 . S
C3889 C3888 1.387 . S
H3890 C3902 0.930 . S
H3891 C3904 0.930 . S
H3892 C3905 0.930 . S
H3893 C3909 0.959 . S
H3894 C3909 0.959 . S
H3895 C3909 0.961 . S
H3896 C3910 0.960 . S
H3897 C3910 0.961 . S
H3898 C3910 0.959 . S
H3899 C3913 0.929 . S
H3900 C3914 0.931 . S
H3901 C3916 0.930 . S
C3902 H3890 0.930 . S
C3902 C3903 1.399 . S
C3902 C3907 1.399 . S
C3903 C3902 1.399 . S
C3903 C3904 1.376 . S
C3904 H3891 0.930 . S
C3904 C3903 1.376 . S
C3904 C3905 1.388 . S
C3905 H3892 0.930 . S
C3905 C3904 1.388 . S
C3905 C3906 1.390 . S
C3906 C3905 1.390 . S
C3906 C3907 1.394 . S
C3906 C3912 1.465 . S
C3907 C3902 1.399 . S
C3907 C3906 1.394 . S
C3907 C3908 1.516 . S
C3908 C3907 1.516 . S
C3908 C3909 1.502 . S
C3908 C3910 1.561 . S
C3908 C3911 1.526 . S
C3909 H3893 0.959 . S
C3909 H3894 0.959 . S
C3909 H3895 0.961 . S
C3909 C3908 1.502 . S
C3910 H3896 0.960 . S
C3910 H3897 0.961 . S
C3910 H3898 0.959 . S
C3910 C3908 1.561 . S
C3911 C3908 1.526 . S
C3911 C3912 1.396 . S
C3911 C3916 1.390 . S
C3912 C3906 1.465 . S
C3912 C3911 1.396 . S
C3912 C3913 1.399 . S
C3913 H3899 0.929 . S
C3913 C3912 1.399 . S
C3913 C3914 1.385 . S
C3914 H3900 0.931 . S
C3914 C3913 1.385 . S
C3914 C3915 1.389 . S
C3915 C3914 1.389 . S
C3915 C3916 1.387 . S
C3916 H3901 0.930 . S
C3916 C3911 1.390 . S
C3916 C3915 1.387 . S
H3917 C3929 0.930 . S
H3918 C3931 0.930 . S
H3919 C3932 0.930 . S
H3920 C3936 0.959 . S
H3921 C3936 0.959 . S
H3922 C3936 0.961 . S
H3923 C3937 0.960 . S
H3924 C3937 0.961 . S
H3925 C3937 0.959 . S
H3926 C3940 0.929 . S
H3927 C3941 0.931 . S
H3928 C3943 0.930 . S
C3929 H3917 0.930 . S
C3929 C3930 1.399 . S
C3929 C3934 1.399 . S
C3930 C3929 1.399 . S
C3930 C3931 1.376 . S
C3931 H3918 0.930 . S
C3931 C3930 1.376 . S
C3931 C3932 1.388 . S
C3932 H3919 0.930 . S
C3932 C3931 1.388 . S
C3932 C3933 1.390 . S
C3933 C3932 1.390 . S
C3933 C3934 1.394 . S
C3933 C3939 1.465 . S
C3934 C3929 1.399 . S
C3934 C3933 1.394 . S
C3934 C3935 1.516 . S
C3935 C3934 1.516 . S
C3935 C3936 1.502 . S
C3935 C3937 1.561 . S
C3935 C3938 1.526 . S
C3936 H3920 0.959 . S
C3936 H3921 0.959 . S
C3936 H3922 0.961 . S
C3936 C3935 1.502 . S
C3937 H3923 0.960 . S
C3937 H3924 0.961 . S
C3937 H3925 0.959 . S
C3937 C3935 1.561 . S
C3938 C3935 1.526 . S
C3938 C3939 1.396 . S
C3938 C3943 1.390 . S
C3939 C3933 1.465 . S
C3939 C3938 1.396 . S
C3939 C3940 1.399 . S
C3940 H3926 0.929 . S
C3940 C3939 1.399 . S
C3940 C3941 1.385 . S
C3941 H3927 0.931 . S
C3941 C3940 1.385 . S
C3941 C3942 1.389 . S
C3942 C3941 1.389 . S
C3942 C3943 1.387 . S
C3943 H3928 0.930 . S
C3943 C3938 1.390 . S
C3943 C3942 1.387 . S
H3944 C3956 0.930 . S
H3945 C3958 0.930 . S
H3946 C3959 0.930 . S
H3947 C3963 0.959 . S
H3948 C3963 0.959 . S
H3949 C3963 0.961 . S
H3950 C3964 0.960 . S
H3951 C3964 0.961 . S
H3952 C3964 0.959 . S
H3953 C3967 0.929 . S
H3954 C3968 0.931 . S
H3955 C3970 0.930 . S
C3956 H3944 0.930 . S
C3956 C3957 1.399 . S
C3956 C3961 1.399 . S
C3957 C3956 1.399 . S
C3957 C3958 1.376 . S
C3958 H3945 0.930 . S
C3958 C3957 1.376 . S
C3958 C3959 1.388 . S
C3959 H3946 0.930 . S
C3959 C3958 1.388 . S
C3959 C3960 1.390 . S
C3960 C3959 1.390 . S
C3960 C3961 1.394 . S
C3960 C3966 1.465 . S
C3961 C3956 1.399 . S
C3961 C3960 1.394 . S
C3961 C3962 1.516 . S
C3962 C3961 1.516 . S
C3962 C3963 1.502 . S
C3962 C3964 1.561 . S
C3962 C3965 1.526 . S
C3963 H3947 0.959 . S
C3963 H3948 0.959 . S
C3963 H3949 0.961 . S
C3963 C3962 1.502 . S
C3964 H3950 0.960 . S
C3964 H3951 0.961 . S
C3964 H3952 0.959 . S
C3964 C3962 1.561 . S
C3965 C3962 1.526 . S
C3965 C3966 1.396 . S
C3965 C3970 1.390 . S
C3966 C3960 1.465 . S
C3966 C3965 1.396 . S
C3966 C3967 1.399 . S
C3967 H3953 0.929 . S
C3967 C3966 1.399 . S
C3967 C3968 1.385 . S
C3968 H3954 0.931 . S
C3968 C3967 1.385 . S
C3968 C3969 1.389 . S
C3969 C3968 1.389 . S
C3969 C3970 1.387 . S
C3970 H3955 0.930 . S
C3970 C3965 1.390 . S
C3970 C3969 1.387 . S
H3971 C3983 0.930 . S
H3972 C3985 0.930 . S
H3973 C3986 0.930 . S
H3974 C3990 0.959 . S
H3975 C3990 0.959 . S
H3976 C3990 0.961 . S
H3977 C3991 0.960 . S
H3978 C3991 0.961 . S
H3979 C3991 0.959 . S
H3980 C3994 0.929 . S
H3981 C3995 0.931 . S
H3982 C3997 0.930 . S
C3983 H3971 0.930 . S
C3983 C3984 1.399 . S
C3983 C3988 1.399 . S
C3984 C3983 1.399 . S
C3984 C3985 1.376 . S
C3985 H3972 0.930 . S
C3985 C3984 1.376 . S
C3985 C3986 1.388 . S
C3986 H3973 0.930 . S
C3986 C3985 1.388 . S
C3986 C3987 1.390 . S
C3987 C3986 1.390 . S
C3987 C3988 1.394 . S
C3987 C3993 1.465 . S
C3988 C3983 1.399 . S
C3988 C3987 1.394 . S
C3988 C3989 1.516 . S
C3989 C3988 1.516 . S
C3989 C3990 1.502 . S
C3989 C3991 1.561 . S
C3989 C3992 1.526 . S
C3990 H3974 0.959 . S
C3990 H3975 0.959 . S
C3990 H3976 0.961 . S
C3990 C3989 1.502 . S
C3991 H3977 0.960 . S
C3991 H3978 0.961 . S
C3991 H3979 0.959 . S
C3991 C3989 1.561 . S
C3992 C3989 1.526 . S
C3992 C3993 1.396 . S
C3992 C3997 1.390 . S
C3993 C3987 1.465 . S
C3993 C3992 1.396 . S
C3993 C3994 1.399 . S
C3994 H3980 0.929 . S
C3994 C3993 1.399 . S
C3994 C3995 1.385 . S
C3995 H3981 0.931 . S
C3995 C3994 1.385 . S
C3995 C3996 1.389 . S
C3996 C3995 1.389 . S
C3996 C3997 1.387 . S
C3997 H3982 0.930 . S
C3997 C3992 1.390 . S
C3997 C3996 1.387 . S
H3998 C4010 0.930 . S
H3999 C4012 0.930 . S
H4000 C4013 0.930 . S
H4001 C4017 0.959 . S
H4002 C4017 0.959 . S
H4003 C4017 0.961 . S
H4004 C4018 0.960 . S
H4005 C4018 0.961 . S
H4006 C4018 0.959 . S
H4007 C4021 0.929 . S
H4008 C4022 0.931 . S
H4009 C4024 0.930 . S
C4010 H3998 0.930 . S
C4010 C4011 1.399 . S
C4010 C4015 1.399 . S
C4011 C4010 1.399 . S
C4011 C4012 1.376 . S
C4012 H3999 0.930 . S
C4012 C4011 1.376 . S
C4012 C4013 1.388 . S
C4013 H4000 0.930 . S
C4013 C4012 1.388 . S
C4013 C4014 1.390 . S
C4014 C4013 1.390 . S
C4014 C4015 1.394 . S
C4014 C4020 1.465 . S
C4015 C4010 1.399 . S
C4015 C4014 1.394 . S
C4015 C4016 1.516 . S
C4016 C4015 1.516 . S
C4016 C4017 1.502 . S
C4016 C4018 1.561 . S
C4016 C4019 1.526 . S
C4017 H4001 0.959 . S
C4017 H4002 0.959 . S
C4017 H4003 0.961 . S
C4017 C4016 1.502 . S
C4018 H4004 0.960 . S
C4018 H4005 0.961 . S
C4018 H4006 0.959 . S
C4018 C4016 1.561 . S
C4019 C4016 1.526 . S
C4019 C4020 1.396 . S
C4019 C4024 1.390 . S
C4020 C4014 1.465 . S
C4020 C4019 1.396 . S
C4020 C4021 1.399 . S
C4021 H4007 0.929 . S
C4021 C4020 1.399 . S
C4021 C4022 1.385 . S
C4022 H4008 0.931 . S
C4022 C4021 1.385 . S
C4022 C4023 1.389 . S
C4023 C4022 1.389 . S
C4023 C4024 1.387 . S
C4024 H4009 0.930 . S
C4024 C4019 1.390 . S
C4024 C4023 1.387 . S
H4025 C4037 0.930 . S
H4026 C4039 0.930 . S
H4027 C4040 0.930 . S
H4028 C4044 0.959 . S
H4029 C4044 0.959 . S
H4030 C4044 0.961 . S
H4031 C4045 0.960 . S
H4032 C4045 0.961 . S
H4033 C4045 0.959 . S
H4034 C4048 0.929 . S
H4035 C4049 0.931 . S
H4036 C4051 0.930 . S
C4037 H4025 0.930 . S
C4037 C4038 1.399 . S
C4037 C4042 1.399 . S
C4038 C4037 1.399 . S
C4038 C4039 1.376 . S
C4039 H4026 0.930 . S
C4039 C4038 1.376 . S
C4039 C4040 1.388 . S
C4040 H4027 0.930 . S
C4040 C4039 1.388 . S
C4040 C4041 1.390 . S
C4041 C4040 1.390 . S
C4041 C4042 1.394 . S
C4041 C4047 1.465 . S
C4042 C4037 1.399 . S
C4042 C4041 1.394 . S
C4042 C4043 1.516 . S
C4043 C4042 1.516 . S
C4043 C4044 1.502 . S
C4043 C4045 1.561 . S
C4043 C4046 1.526 . S
C4044 H4028 0.959 . S
C4044 H4029 0.959 . S
C4044 H4030 0.961 . S
C4044 C4043 1.502 . S
C4045 H4031 0.960 . S
C4045 H4032 0.961 . S
C4045 H4033 0.959 . S
C4045 C4043 1.561 . S
C4046 C4043 1.526 . S
C4046 C4047 1.396 . S
C4046 C4051 1.390 . S
C4047 C4041 1.465 . S
C4047 C4046 1.396 . S
C4047 C4048 1.399 . S
C4048 H4034 0.929 . S
C4048 C4047 1.399 . S
C4048 C4049 1.385 . S
C4049 H4035 0.931 . S
C4049 C4048 1.385 . S
C4049 C4050 1.389 . S
C4050 C4049 1.389 . S
C4050 C4051 1.387 . S
C4051 H4036 0.930 . S
C4051 C4046 1.390 . S
C4051 C4050 1.387 . S
H4052 C4064 0.930 . S
H4053 C4066 0.930 . S
H4054 C4067 0.930 . S
H4055 C4071 0.959 . S
H4056 C4071 0.959 . S
H4057 C4071 0.961 . S
H4058 C4072 0.960 . S
H4059 C4072 0.961 . S
H4060 C4072 0.959 . S
H4061 C4075 0.929 . S
H4062 C4076 0.931 . S
H4063 C4078 0.930 . S
C4064 H4052 0.930 . S
C4064 C4065 1.399 . S
C4064 C4069 1.399 . S
C4065 C4064 1.399 . S
C4065 C4066 1.376 . S
C4066 H4053 0.930 . S
C4066 C4065 1.376 . S
C4066 C4067 1.388 . S
C4067 H4054 0.930 . S
C4067 C4066 1.388 . S
C4067 C4068 1.390 . S
C4068 C4067 1.390 . S
C4068 C4069 1.394 . S
C4068 C4074 1.465 . S
C4069 C4064 1.399 . S
C4069 C4068 1.394 . S
C4069 C4070 1.516 . S
C4070 C4069 1.516 . S
C4070 C4071 1.502 . S
C4070 C4072 1.561 . S
C4070 C4073 1.526 . S
C4071 H4055 0.959 . S
C4071 H4056 0.959 . S
C4071 H4057 0.961 . S
C4071 C4070 1.502 . S
C4072 H4058 0.960 . S
C4072 H4059 0.961 . S
C4072 H4060 0.959 . S
C4072 C4070 1.561 . S
C4073 C4070 1.526 . S
C4073 C4074 1.396 . S
C4073 C4078 1.390 . S
C4074 C4068 1.465 . S
C4074 C4073 1.396 . S
C4074 C4075 1.399 . S
C4075 H4061 0.929 . S
C4075 C4074 1.399 . S
C4075 C4076 1.385 . S
C4076 H4062 0.931 . S
C4076 C4075 1.385 . S
C4076 C4077 1.389 . S
C4077 C4076 1.389 . S
C4077 C4078 1.387 . S
C4078 H4063 0.930 . S
C4078 C4073 1.390 . S
C4078 C4077 1.387 . S
H4079 C4091 0.930 . S
H4080 C4093 0.930 . S
H4081 C4094 0.930 . S
H4082 C4098 0.959 . S
H4083 C4098 0.959 . S
H4084 C4098 0.961 . S
H4085 C4099 0.960 . S
H4086 C4099 0.961 . S
H4087 C4099 0.959 . S
H4088 C4102 0.929 . S
H4089 C4103 0.931 . S
H4090 C4105 0.930 . S
C4091 H4079 0.930 . S
C4091 C4092 1.399 . S
C4091 C4096 1.399 . S
C4092 C4091 1.399 . S
C4092 C4093 1.376 . S
C4093 H4080 0.930 . S
C4093 C4092 1.376 . S
C4093 C4094 1.388 . S
C4094 H4081 0.930 . S
C4094 C4093 1.388 . S
C4094 C4095 1.390 . S
C4095 C4094 1.390 . S
C4095 C4096 1.394 . S
C4095 C4101 1.465 . S
C4096 C4091 1.399 . S
C4096 C4095 1.394 . S
C4096 C4097 1.516 . S
C4097 C4096 1.516 . S
C4097 C4098 1.502 . S
C4097 C4099 1.561 . S
C4097 C4100 1.526 . S
C4098 H4082 0.959 . S
C4098 H4083 0.959 . S
C4098 H4084 0.961 . S
C4098 C4097 1.502 . S
C4099 H4085 0.960 . S
C4099 H4086 0.961 . S
C4099 H4087 0.959 . S
C4099 C4097 1.561 . S
C4100 C4097 1.526 . S
C4100 C4101 1.396 . S
C4100 C4105 1.390 . S
C4101 C4095 1.465 . S
C4101 C4100 1.396 . S
C4101 C4102 1.399 . S
C4102 H4088 0.929 . S
C4102 C4101 1.399 . S
C4102 C4103 1.385 . S
C4103 H4089 0.931 . S
C4103 C4102 1.385 . S
C4103 C4104 1.389 . S
C4104 C4103 1.389 . S
C4104 C4105 1.387 . S
C4105 H4090 0.930 . S
C4105 C4100 1.390 . S
C4105 C4104 1.387 . S
H4106 C4118 0.930 . S
H4107 C4120 0.930 . S
H4108 C4121 0.930 . S
H4109 C4125 0.959 . S
H4110 C4125 0.959 . S
H4111 C4125 0.961 . S
H4112 C4126 0.960 . S
H4113 C4126 0.961 . S
H4114 C4126 0.959 . S
H4115 C4129 0.929 . S
H4116 C4130 0.931 . S
H4117 C4132 0.930 . S
C4118 H4106 0.930 . S
C4118 C4119 1.399 . S
C4118 C4123 1.399 . S
C4119 C4118 1.399 . S
C4119 C4120 1.376 . S
C4120 H4107 0.930 . S
C4120 C4119 1.376 . S
C4120 C4121 1.388 . S
C4121 H4108 0.930 . S
C4121 C4120 1.388 . S
C4121 C4122 1.390 . S
C4122 C4121 1.390 . S
C4122 C4123 1.394 . S
C4122 C4128 1.465 . S
C4123 C4118 1.399 . S
C4123 C4122 1.394 . S
C4123 C4124 1.516 . S
C4124 C4123 1.516 . S
C4124 C4125 1.502 . S
C4124 C4126 1.561 . S
C4124 C4127 1.526 . S
C4125 H4109 0.959 . S
C4125 H4110 0.959 . S
C4125 H4111 0.961 . S
C4125 C4124 1.502 . S
C4126 H4112 0.960 . S
C4126 H4113 0.961 . S
C4126 H4114 0.959 . S
C4126 C4124 1.561 . S
C4127 C4124 1.526 . S
C4127 C4128 1.396 . S
C4127 C4132 1.390 . S
C4128 C4122 1.465 . S
C4128 C4127 1.396 . S
C4128 C4129 1.399 . S
C4129 H4115 0.929 . S
C4129 C4128 1.399 . S
C4129 C4130 1.385 . S
C4130 H4116 0.931 . S
C4130 C4129 1.385 . S
C4130 C4131 1.389 . S
C4131 C4130 1.389 . S
C4131 C4132 1.387 . S
C4132 H4117 0.930 . S
C4132 C4127 1.390 . S
C4132 C4131 1.387 . S
H4133 C4145 0.930 . S
H4134 C4147 0.930 . S
H4135 C4148 0.930 . S
H4136 C4152 0.959 . S
H4137 C4152 0.959 . S
H4138 C4152 0.961 . S
H4139 C4153 0.960 . S
H4140 C4153 0.961 . S
H4141 C4153 0.959 . S
H4142 C4156 0.929 . S
H4143 C4157 0.931 . S
H4144 C4159 0.930 . S
C4145 H4133 0.930 . S
C4145 C4146 1.399 . S
C4145 C4150 1.399 . S
C4146 C4145 1.399 . S
C4146 C4147 1.376 . S
C4147 H4134 0.930 . S
C4147 C4146 1.376 . S
C4147 C4148 1.388 . S
C4148 H4135 0.930 . S
C4148 C4147 1.388 . S
C4148 C4149 1.390 . S
C4149 C4148 1.390 . S
C4149 C4150 1.394 . S
C4149 C4155 1.465 . S
C4150 C4145 1.399 . S
C4150 C4149 1.394 . S
C4150 C4151 1.516 . S
C4151 C4150 1.516 . S
C4151 C4152 1.502 . S
C4151 C4153 1.561 . S
C4151 C4154 1.526 . S
C4152 H4136 0.959 . S
C4152 H4137 0.959 . S
C4152 H4138 0.961 . S
C4152 C4151 1.502 . S
C4153 H4139 0.960 . S
C4153 H4140 0.961 . S
C4153 H4141 0.959 . S
C4153 C4151 1.561 . S
C4154 C4151 1.526 . S
C4154 C4155 1.396 . S
C4154 C4159 1.390 . S
C4155 C4149 1.465 . S
C4155 C4154 1.396 . S
C4155 C4156 1.399 . S
C4156 H4142 0.929 . S
C4156 C4155 1.399 . S
C4156 C4157 1.385 . S
C4157 H4143 0.931 . S
C4157 C4156 1.385 . S
C4157 C4158 1.389 . S
C4158 C4157 1.389 . S
C4158 C4159 1.387 . S
C4159 H4144 0.930 . S
C4159 C4154 1.390 . S
C4159 C4158 1.387 . S
H4160 C4172 0.930 . S
H4161 C4174 0.930 . S
H4162 C4175 0.930 . S
H4163 C4179 0.959 . S
H4164 C4179 0.959 . S
H4165 C4179 0.961 . S
H4166 C4180 0.960 . S
H4167 C4180 0.961 . S
H4168 C4180 0.959 . S
H4169 C4183 0.929 . S
H4170 C4184 0.931 . S
H4171 C4186 0.930 . S
C4172 H4160 0.930 . S
C4172 C4173 1.399 . S
C4172 C4177 1.399 . S
C4173 C4172 1.399 . S
C4173 C4174 1.376 . S
C4174 H4161 0.930 . S
C4174 C4173 1.376 . S
C4174 C4175 1.388 . S
C4175 H4162 0.930 . S
C4175 C4174 1.388 . S
C4175 C4176 1.390 . S
C4176 C4175 1.390 . S
C4176 C4177 1.394 . S
C4176 C4182 1.465 . S
C4177 C4172 1.399 . S
C4177 C4176 1.394 . S
C4177 C4178 1.516 . S
C4178 C4177 1.516 . S
C4178 C4179 1.502 . S
C4178 C4180 1.561 . S
C4178 C4181 1.526 . S
C4179 H4163 0.959 . S
C4179 H4164 0.959 . S
C4179 H4165 0.961 . S
C4179 C4178 1.502 . S
C4180 H4166 0.960 . S
C4180 H4167 0.961 . S
C4180 H4168 0.959 . S
C4180 C4178 1.561 . S
C4181 C4178 1.526 . S
C4181 C4182 1.396 . S
C4181 C4186 1.390 . S
C4182 C4176 1.465 . S
C4182 C4181 1.396 . S
C4182 C4183 1.399 . S
C4183 H4169 0.929 . S
C4183 C4182 1.399 . S
C4183 C4184 1.385 . S
C4184 H4170 0.931 . S
C4184 C4183 1.385 . S
C4184 C4185 1.389 . S
C4185 C4184 1.389 . S
C4185 C4186 1.387 . S
C4186 H4171 0.930 . S
C4186 C4181 1.390 . S
C4186 C4185 1.387 . S
H4187 C4199 0.930 . S
H4188 C4201 0.930 . S
H4189 C4202 0.930 . S
H4190 C4206 0.959 . S
H4191 C4206 0.959 . S
H4192 C4206 0.961 . S
H4193 C4207 0.960 . S
H4194 C4207 0.961 . S
H4195 C4207 0.959 . S
H4196 C4210 0.929 . S
H4197 C4211 0.931 . S
H4198 C4213 0.930 . S
C4199 H4187 0.930 . S
C4199 C4200 1.399 . S
C4199 C4204 1.399 . S
C4200 C4199 1.399 . S
C4200 C4201 1.376 . S
C4201 H4188 0.930 . S
C4201 C4200 1.376 . S
C4201 C4202 1.388 . S
C4202 H4189 0.930 . S
C4202 C4201 1.388 . S
C4202 C4203 1.390 . S
C4203 C4202 1.390 . S
C4203 C4204 1.394 . S
C4203 C4209 1.465 . S
C4204 C4199 1.399 . S
C4204 C4203 1.394 . S
C4204 C4205 1.516 . S
C4205 C4204 1.516 . S
C4205 C4206 1.502 . S
C4205 C4207 1.561 . S
C4205 C4208 1.526 . S
C4206 H4190 0.959 . S
C4206 H4191 0.959 . S
C4206 H4192 0.961 . S
C4206 C4205 1.502 . S
C4207 H4193 0.960 . S
C4207 H4194 0.961 . S
C4207 H4195 0.959 . S
C4207 C4205 1.561 . S
C4208 C4205 1.526 . S
C4208 C4209 1.396 . S
C4208 C4213 1.390 . S
C4209 C4203 1.465 . S
C4209 C4208 1.396 . S
C4209 C4210 1.399 . S
C4210 H4196 0.929 . S
C4210 C4209 1.399 . S
C4210 C4211 1.385 . S
C4211 H4197 0.931 . S
C4211 C4210 1.385 . S
C4211 C4212 1.389 . S
C4212 C4211 1.389 . S
C4212 C4213 1.387 . S
C4213 H4198 0.930 . S
C4213 C4208 1.390 . S
C4213 C4212 1.387 . S
H4214 C4226 0.930 . S
H4215 C4228 0.930 . S
H4216 C4229 0.930 . S
H4217 C4233 0.959 . S
H4218 C4233 0.959 . S
H4219 C4233 0.961 . S
H4220 C4234 0.960 . S
H4221 C4234 0.961 . S
H4222 C4234 0.959 . S
H4223 C4237 0.929 . S
H4224 C4238 0.931 . S
H4225 C4240 0.930 . S
C4226 H4214 0.930 . S
C4226 C4227 1.399 . S
C4226 C4231 1.399 . S
C4227 C4226 1.399 . S
C4227 C4228 1.376 . S
C4228 H4215 0.930 . S
C4228 C4227 1.376 . S
C4228 C4229 1.388 . S
C4229 H4216 0.930 . S
C4229 C4228 1.388 . S
C4229 C4230 1.390 . S
C4230 C4229 1.390 . S
C4230 C4231 1.394 . S
C4230 C4236 1.465 . S
C4231 C4226 1.399 . S
C4231 C4230 1.394 . S
C4231 C4232 1.516 . S
C4232 C4231 1.516 . S
C4232 C4233 1.502 . S
C4232 C4234 1.561 . S
C4232 C4235 1.526 . S
C4233 H4217 0.959 . S
C4233 H4218 0.959 . S
C4233 H4219 0.961 . S
C4233 C4232 1.502 . S
C4234 H4220 0.960 . S
C4234 H4221 0.961 . S
C4234 H4222 0.959 . S
C4234 C4232 1.561 . S
C4235 C4232 1.526 . S
C4235 C4236 1.396 . S
C4235 C4240 1.390 . S
C4236 C4230 1.465 . S
C4236 C4235 1.396 . S
C4236 C4237 1.399 . S
C4237 H4223 0.929 . S
C4237 C4236 1.399 . S
C4237 C4238 1.385 . S
C4238 H4224 0.931 . S
C4238 C4237 1.385 . S
C4238 C4239 1.389 . S
C4239 C4238 1.389 . S
C4239 C4240 1.387 . S
C4240 H4225 0.930 . S
C4240 C4235 1.390 . S
C4240 C4239 1.387 . S
H4241 C4253 0.930 . S
H4242 C4255 0.930 . S
H4243 C4256 0.930 . S
H4244 C4260 0.959 . S
H4245 C4260 0.959 . S
H4246 C4260 0.961 . S
H4247 C4261 0.960 . S
H4248 C4261 0.961 . S
H4249 C4261 0.959 . S
H4250 C4264 0.929 . S
H4251 C4265 0.931 . S
H4252 C4267 0.930 . S
C4253 H4241 0.930 . S
C4253 C4254 1.399 . S
C4253 C4258 1.399 . S
C4254 C4253 1.399 . S
C4254 C4255 1.376 . S
C4255 H4242 0.930 . S
C4255 C4254 1.376 . S
C4255 C4256 1.388 . S
C4256 H4243 0.930 . S
C4256 C4255 1.388 . S
C4256 C4257 1.390 . S
C4257 C4256 1.390 . S
C4257 C4258 1.394 . S
C4257 C4263 1.465 . S
C4258 C4253 1.399 . S
C4258 C4257 1.394 . S
C4258 C4259 1.516 . S
C4259 C4258 1.516 . S
C4259 C4260 1.502 . S
C4259 C4261 1.561 . S
C4259 C4262 1.526 . S
C4260 H4244 0.959 . S
C4260 H4245 0.959 . S
C4260 H4246 0.961 . S
C4260 C4259 1.502 . S
C4261 H4247 0.960 . S
C4261 H4248 0.961 . S
C4261 H4249 0.959 . S
C4261 C4259 1.561 . S
C4262 C4259 1.526 . S
C4262 C4263 1.396 . S
C4262 C4267 1.390 . S
C4263 C4257 1.465 . S
C4263 C4262 1.396 . S
C4263 C4264 1.399 . S
C4264 H4250 0.929 . S
C4264 C4263 1.399 . S
C4264 C4265 1.385 . S
C4265 H4251 0.931 . S
C4265 C4264 1.385 . S
C4265 C4266 1.389 . S
C4266 C4265 1.389 . S
C4266 C4267 1.387 . S
C4267 H4252 0.930 . S
C4267 C4262 1.390 . S
C4267 C4266 1.387 . S
H4268 C4280 0.930 . S
H4269 C4282 0.930 . S
H4270 C4283 0.930 . S
H4271 C4287 0.959 . S
H4272 C4287 0.959 . S
H4273 C4287 0.961 . S
H4274 C4288 0.960 . S
H4275 C4288 0.961 . S
H4276 C4288 0.959 . S
H4277 C4291 0.929 . S
H4278 C4292 0.931 . S
H4279 C4294 0.930 . S
C4280 H4268 0.930 . S
C4280 C4281 1.399 . S
C4280 C4285 1.399 . S
C4281 C4280 1.399 . S
C4281 C4282 1.376 . S
C4282 H4269 0.930 . S
C4282 C4281 1.376 . S
C4282 C4283 1.388 . S
C4283 H4270 0.930 . S
C4283 C4282 1.388 . S
C4283 C4284 1.390 . S
C4284 C4283 1.390 . S
C4284 C4285 1.394 . S
C4284 C4290 1.465 . S
C4285 C4280 1.399 . S
C4285 C4284 1.394 . S
C4285 C4286 1.516 . S
C4286 C4285 1.516 . S
C4286 C4287 1.502 . S
C4286 C4288 1.561 . S
C4286 C4289 1.526 . S
C4287 H4271 0.959 . S
C4287 H4272 0.959 . S
C4287 H4273 0.961 . S
C4287 C4286 1.502 . S
C4288 H4274 0.960 . S
C4288 H4275 0.961 . S
C4288 H4276 0.959 . S
C4288 C4286 1.561 . S
C4289 C4286 1.526 . S
C4289 C4290 1.396 . S
C4289 C4294 1.390 . S
C4290 C4284 1.465 . S
C4290 C4289 1.396 . S
C4290 C4291 1.399 . S
C4291 H4277 0.929 . S
C4291 C4290 1.399 . S
C4291 C4292 1.385 . S
C4292 H4278 0.931 . S
C4292 C4291 1.385 . S
C4292 C4293 1.389 . S
C4293 C4292 1.389 . S
C4293 C4294 1.387 . S
C4294 H4279 0.930 . S
C4294 C4289 1.390 . S
C4294 C4293 1.387 . S
H4295 C4307 0.930 . S
H4296 C4309 0.930 . S
H4297 C4310 0.930 . S
H4298 C4314 0.959 . S
H4299 C4314 0.959 . S
H4300 C4314 0.961 . S
H4301 C4315 0.960 . S
H4302 C4315 0.961 . S
H4303 C4315 0.959 . S
H4304 C4318 0.929 . S
H4305 C4319 0.931 . S
H4306 C4321 0.930 . S
C4307 H4295 0.930 . S
C4307 C4308 1.399 . S
C4307 C4312 1.399 . S
C4308 C4307 1.399 . S
C4308 C4309 1.376 . S
C4309 H4296 0.930 . S
C4309 C4308 1.376 . S
C4309 C4310 1.388 . S
C4310 H4297 0.930 . S
C4310 C4309 1.388 . S
C4310 C4311 1.390 . S
C4311 C4310 1.390 . S
C4311 C4312 1.394 . S
C4311 C4317 1.465 . S
C4312 C4307 1.399 . S
C4312 C4311 1.394 . S
C4312 C4313 1.516 . S
C4313 C4312 1.516 . S
C4313 C4314 1.502 . S
C4313 C4315 1.561 . S
C4313 C4316 1.526 . S
C4314 H4298 0.959 . S
C4314 H4299 0.959 . S
C4314 H4300 0.961 . S
C4314 C4313 1.502 . S
C4315 H4301 0.960 . S
C4315 H4302 0.961 . S
C4315 H4303 0.959 . S
C4315 C4313 1.561 . S
C4316 C4313 1.526 . S
C4316 C4317 1.396 . S
C4316 C4321 1.390 . S
C4317 C4311 1.465 . S
C4317 C4316 1.396 . S
C4317 C4318 1.399 . S
C4318 H4304 0.929 . S
C4318 C4317 1.399 . S
C4318 C4319 1.385 . S
C4319 H4305 0.931 . S
C4319 C4318 1.385 . S
C4319 C4320 1.389 . S
C4320 C4319 1.389 . S
C4320 C4321 1.387 . S
C4321 H4306 0.930 . S
C4321 C4316 1.390 . S
C4321 C4320 1.387 . S
H4322 C4334 0.930 . S
H4323 C4336 0.930 . S
H4324 C4337 0.930 . S
H4325 C4341 0.959 . S
H4326 C4341 0.959 . S
H4327 C4341 0.961 . S
H4328 C4342 0.960 . S
H4329 C4342 0.961 . S
H4330 C4342 0.959 . S
H4331 C4345 0.929 . S
H4332 C4346 0.931 . S
H4333 C4348 0.930 . S
C4334 H4322 0.930 . S
C4334 C4335 1.399 . S
C4334 C4339 1.399 . S
C4335 C4334 1.399 . S
C4335 C4336 1.376 . S
C4336 H4323 0.930 . S
C4336 C4335 1.376 . S
C4336 C4337 1.388 . S
C4337 H4324 0.930 . S
C4337 C4336 1.388 . S
C4337 C4338 1.390 . S
C4338 C4337 1.390 . S
C4338 C4339 1.394 . S
C4338 C4344 1.465 . S
C4339 C4334 1.399 . S
C4339 C4338 1.394 . S
C4339 C4340 1.516 . S
C4340 C4339 1.516 . S
C4340 C4341 1.502 . S
C4340 C4342 1.561 . S
C4340 C4343 1.526 . S
C4341 H4325 0.959 . S
C4341 H4326 0.959 . S
C4341 H4327 0.961 . S
C4341 C4340 1.502 . S
C4342 H4328 0.960 . S
C4342 H4329 0.961 . S
C4342 H4330 0.959 . S
C4342 C4340 1.561 . S
C4343 C4340 1.526 . S
C4343 C4344 1.396 . S
C4343 C4348 1.390 . S
C4344 C4338 1.465 . S
C4344 C4343 1.396 . S
C4344 C4345 1.399 . S
C4345 H4331 0.929 . S
C4345 C4344 1.399 . S
C4345 C4346 1.385 . S
C4346 H4332 0.931 . S
C4346 C4345 1.385 . S
C4346 C4347 1.389 . S
C4347 C4346 1.389 . S
C4347 C4348 1.387 . S
C4348 H4333 0.930 . S
C4348 C4343 1.390 . S
C4348 C4347 1.387 . S
H4349 C4361 0.930 . S
H4350 C4363 0.930 . S
H4351 C4364 0.930 . S
H4352 C4368 0.959 . S
H4353 C4368 0.959 . S
H4354 C4368 0.961 . S
H4355 C4369 0.960 . S
H4356 C4369 0.961 . S
H4357 C4369 0.959 . S
H4358 C4372 0.929 . S
H4359 C4373 0.931 . S
H4360 C4375 0.930 . S
C4361 H4349 0.930 . S
C4361 C4362 1.399 . S
C4361 C4366 1.399 . S
C4362 C4361 1.399 . S
C4362 C4363 1.376 . S
C4363 H4350 0.930 . S
C4363 C4362 1.376 . S
C4363 C4364 1.388 . S
C4364 H4351 0.930 . S
C4364 C4363 1.388 . S
C4364 C4365 1.390 . S
C4365 C4364 1.390 . S
C4365 C4366 1.394 . S
C4365 C4371 1.465 . S
C4366 C4361 1.399 . S
C4366 C4365 1.394 . S
C4366 C4367 1.516 . S
C4367 C4366 1.516 . S
C4367 C4368 1.502 . S
C4367 C4369 1.561 . S
C4367 C4370 1.526 . S
C4368 H4352 0.959 . S
C4368 H4353 0.959 . S
C4368 H4354 0.961 . S
C4368 C4367 1.502 . S
C4369 H4355 0.960 . S
C4369 H4356 0.961 . S
C4369 H4357 0.959 . S
C4369 C4367 1.561 . S
C4370 C4367 1.526 . S
C4370 C4371 1.396 . S
C4370 C4375 1.390 . S
C4371 C4365 1.465 . S
C4371 C4370 1.396 . S
C4371 C4372 1.399 . S
C4372 H4358 0.929 . S
C4372 C4371 1.399 . S
C4372 C4373 1.385 . S
C4373 H4359 0.931 . S
C4373 C4372 1.385 . S
C4373 C4374 1.389 . S
C4374 C4373 1.389 . S
C4374 C4375 1.387 . S
C4375 H4360 0.930 . S
C4375 C4370 1.390 . S
C4375 C4374 1.387 . S
C1809 C1299 1.478 . S
C1797 C21 1.522 . S
C1836 C1310 1.379 . S
C1824 C42 1.514 . S
C1851 C82 1.519 . S
C1863 C1334 1.430 . S
C1890 C1355 1.460 . S
C1878 C135 1.523 . S
C1905 C175 1.486 . S
C1917 C1362 1.431 . S
C1932 C221 1.563 . S
C1944 C1292 1.392 . S
C1959 C255 1.526 . S
C1971 C1318 1.437 . S
C1998 C1341 1.450 . S
C1986 C301 1.579 . S
C2025 C1373 1.394 . S
C2013 C15 1.538 . S
C2040 C55 1.495 . S
C2052 C1394 1.377 . S
C2067 C101 1.537 . S
C2079 C1418 1.505 . S
C2106 C1436 1.430 . S
C2094 C141 1.542 . S
C2121 C162 1.463 . S
C2133 C1465 1.438 . S
C2160 C1486 1.388 . S
C2148 C215 1.561 . S
C2175 C261 1.567 . S
C2187 C1502 1.484 . S
C2214 C1523 1.404 . S
C2202 C282 1.562 . S
C2229 C2 1.544 . S
C2241 C1444 1.412 . S
C2256 C181 1.440 . S
C2268 C1478 1.451 . S
C2295 C1509 1.525 . S
C2283 C202 1.509 . S
C2310 C242 1.549 . S
C2322 C1530 1.423 . S
C2349 C1457 1.473 . S
C2337 C295 1.526 . S
C2376 C1402 1.401 . S
C2364 C95 1.571 . S
C2391 C122 1.541 . S
C2403 C1425 1.489 . S
C2430 C1381 1.393 . S
C2418 C61 1.518 . S
C2457 C1549 1.478 . S
C2445 C341 1.521 . S
C2472 C362 1.508 . S
C2484 C1565 1.325 . S
C2499 C402 1.537 . S
C2511 C1583 1.419 . S
C2538 C1604 1.479 . S
C2526 C455 1.535 . S
C2553 C495 1.494 . S
C2565 C1612 1.376 . S
C2580 C541 1.514 . S
C2592 C1541 1.513 . S
C2607 C575 1.523 . S
C2619 C1572 1.474 . S
C2634 C621 1.574 . S
C2646 C1591 1.409 . S
C2673 C1467 1.476 . S
C2661 C335 1.518 . S
C2688 C375 1.502 . S
C2700 C1625 1.370 . S
C2727 C1499 1.494 . S
C2715 C421 1.516 . S
C2742 C461 1.546 . S
C2754 C1654 1.431 . S
C2769 C482 1.474 . S
C2781 C1376 1.449 . S
C2808 C1670 1.443 . S
C2796 C535 1.558 . S
C2823 C581 1.548 . S
C2835 C1415 1.447 . S
C2862 C1698 1.432 . S
C2850 C602 1.535 . S
C2877 C322 1.536 . S
C2889 C1646 1.453 . S
C2916 C1677 1.448 . S
C2904 C501 1.436 . S
C2931 C522 1.540 . S
C2943 C1423 1.499 . S
C2970 C1691 1.357 . S
C2958 C562 1.547 . S
C2985 C615 1.537 . S
C2997 C1383 1.437 . S
C3012 C415 1.559 . S
C3024 C1633 1.391 . S
C3039 C442 1.556 . S
C3051 C1507 1.487 . S
C3066 C381 1.526 . S
C3078 C1460 1.385 . S
C3093 C661 1.560 . S
C3105 C1586 1.436 . S
C3132 C1607 1.440 . S
C3120 C682 1.509 . S
C3147 C722 1.497 . S
C3159 C1551 1.511 . S
C3174 C775 1.546 . S
C3186 C1562 1.387 . S
C3201 C815 1.491 . S
C3213 C1570 1.379 . S
C3228 C861 1.500 . S
C3240 C1593 1.511 . S
C3267 C1614 1.391 . S
C3255 C895 1.533 . S
C3282 C941 1.590 . S
C3294 C1544 1.509 . S
C3321 C1709 1.470 . S
C3309 C655 1.524 . S
C3336 C695 1.494 . S
C3348 C1488 1.391 . S
C3375 C1730 1.474 . S
C3363 C741 1.565 . S
C3390 C781 1.551 . S
C3402 C1520 1.474 . S
C3417 C802 1.518 . S
C3429 C1754 1.337 . S
C3444 C855 1.547 . S
C3456 C1397 1.424 . S
C3483 C1775 1.390 . S
C3471 C901 1.553 . S
C3498 C922 1.539 . S
C3510 C1439 1.444 . S
C3537 C1528 1.398 . S
C3525 C642 1.542 . S
C3564 C1404 1.378 . S
C3552 C821 1.502 . S
C3579 C842 1.549 . S
C3591 C1782 1.481 . S
C3606 C882 1.541 . S
C3618 C1446 1.412 . S
C3645 C1761 1.414 . S
C3633 C935 1.532 . S
C3672 C1481 1.368 . S
C3660 C735 1.565 . S
C3699 C1738 1.431 . S
C3687 C762 1.535 . S
C3726 C1717 1.360 . S
C3714 C701 1.520 . S
C3741 C981 1.524 . S
C3753 C1331 1.466 . S
C3768 C1002 1.506 . S
C3780 C1352 1.435 . S
C3807 C1297 1.465 . S
C3795 C1042 1.526 . S
C3834 C1313 1.466 . S
C3822 C1095 1.538 . S
C3861 C1320 1.408 . S
C3849 C1135 1.494 . S
C3888 C1339 1.500 . S
C3876 C1181 1.508 . S
C3915 C1360 1.406 . S
C3903 C1215 1.534 . S
C3930 C1261 1.584 . S
C3942 C1289 1.501 . S
C3957 C975 1.545 . S
C3969 C1751 1.385 . S
C3996 C1667 1.372 . S
C3984 C1015 1.499 . S
C4023 C1772 1.473 . S
C4011 C1061 1.570 . S
C4050 C1696 1.429 . S
C4038 C1101 1.546 . S
C4065 C1122 1.456 . S
C4077 C1712 1.440 . S
C4104 C1628 1.449 . S
C4092 C1175 1.546 . S
C4131 C1733 1.378 . S
C4119 C1221 1.556 . S
C4146 C1242 1.557 . S
C4158 C1656 1.491 . S
C4185 C1688 1.492 . S
C4173 C962 1.492 . S
C4212 C1635 1.446 . S
C4200 C1141 1.428 . S
C4239 C1740 1.492 . S
C4227 C1162 1.547 . S
C4254 C1202 1.561 . S
C4266 C1649 1.482 . S
C4281 C1255 1.532 . S
C4293 C1719 1.436 . S
C4308 C1055 1.545 . S
C4320 C1675 1.490 . S
C4335 C1082 1.555 . S
C4347 C1780 1.378 . S
C4374 C1759 1.369 . S
C4362 C1021 1.527 . S
