# Generated by pormake.
# Topology ssb, (4,4)-cn, num edge types: 1
# Building blocks:
#     Node 0, Type 0, BuildingBlock: MIFKUJ_clean_linker_1, # of connection points: 4
#     Node 1, Type 0, BuildingBlock: MIFKUJ_clean_linker_1, # of connection points: 4
#     Node 2, Type 0, BuildingBlock: MIFKUJ_clean_linker_1, # of connection points: 4
#     Node 3, Type 0, BuildingBlock: MIFKUJ_clean_linker_1, # of connection points: 4
#     Node 4, Type 0, BuildingBlock: MIFKUJ_clean_linker_1, # of connection points: 4
#     Node 5, Type 0, BuildingBlock: MIFKUJ_clean_linker_1, # of connection points: 4
#     Node 6, Type 0, BuildingBlock: MIFKUJ_clean_linker_1, # of connection points: 4
#     Node 7, Type 0, BuildingBlock: MIFKUJ_clean_linker_1, # of connection points: 4
#     Node 8, Type 1, BuildingBlock: KOZSID_clean_sbu_0, # of connection points: 4
#     Node 9, Type 1, BuildingBlock: KOZSID_clean_sbu_0, # of connection points: 4
#     Node 10, Type 1, BuildingBlock: KOZSID_clean_sbu_0, # of connection points: 4
#     Node 11, Type 1, BuildingBlock: KOZSID_clean_sbu_0, # of connection points: 4
#     Node 12, Type 1, BuildingBlock: KOZSID_clean_sbu_0, # of connection points: 4
#     Node 13, Type 1, BuildingBlock: KOZSID_clean_sbu_0, # of connection points: 4
#     Node 14, Type 1, BuildingBlock: KOZSID_clean_sbu_0, # of connection points: 4
#     Node 15, Type 1, BuildingBlock: KOZSID_clean_sbu_0, # of connection points: 4
#     Edge 16, Type (0, 1), BuildingBlock: TEMPAE_clean_linker_10, # of connection points: 2
#     Edge 17, Type (0, 1), BuildingBlock: TEMPAE_clean_linker_10, # of connection points: 2
#     Edge 18, Type (0, 1), BuildingBlock: TEMPAE_clean_linker_10, # of connection points: 2
#     Edge 19, Type (0, 1), BuildingBlock: TEMPAE_clean_linker_10, # of connection points: 2
#     Edge 20, Type (0, 1), BuildingBlock: TEMPAE_clean_linker_10, # of connection points: 2
#     Edge 21, Type (0, 1), BuildingBlock: TEMPAE_clean_linker_10, # of connection points: 2
#     Edge 22, Type (0, 1), BuildingBlock: TEMPAE_clean_linker_10, # of connection points: 2
#     Edge 23, Type (0, 1), BuildingBlock: TEMPAE_clean_linker_10, # of connection points: 2
#     Edge 24, Type (0, 1), BuildingBlock: TEMPAE_clean_linker_10, # of connection points: 2
#     Edge 25, Type (0, 1), BuildingBlock: TEMPAE_clean_linker_10, # of connection points: 2
#     Edge 26, Type (0, 1), BuildingBlock: TEMPAE_clean_linker_10, # of connection points: 2
#     Edge 27, Type (0, 1), BuildingBlock: TEMPAE_clean_linker_10, # of connection points: 2
#     Edge 28, Type (0, 1), BuildingBlock: TEMPAE_clean_linker_10, # of connection points: 2
#     Edge 29, Type (0, 1), BuildingBlock: TEMPAE_clean_linker_10, # of connection points: 2
#     Edge 30, Type (0, 1), BuildingBlock: TEMPAE_clean_linker_10, # of connection points: 2
#     Edge 31, Type (0, 1), BuildingBlock: TEMPAE_clean_linker_10, # of connection points: 2
#     Edge 32, Type (0, 1), BuildingBlock: TEMPAE_clean_linker_10, # of connection points: 2
#     Edge 33, Type (0, 1), BuildingBlock: TEMPAE_clean_linker_10, # of connection points: 2
#     Edge 34, Type (0, 1), BuildingBlock: TEMPAE_clean_linker_10, # of connection points: 2
#     Edge 35, Type (0, 1), BuildingBlock: TEMPAE_clean_linker_10, # of connection points: 2
#     Edge 36, Type (0, 1), BuildingBlock: TEMPAE_clean_linker_10, # of connection points: 2
#     Edge 37, Type (0, 1), BuildingBlock: TEMPAE_clean_linker_10, # of connection points: 2
#     Edge 38, Type (0, 1), BuildingBlock: TEMPAE_clean_linker_10, # of connection points: 2
#     Edge 39, Type (0, 1), BuildingBlock: TEMPAE_clean_linker_10, # of connection points: 2
#     Edge 40, Type (0, 1), BuildingBlock: TEMPAE_clean_linker_10, # of connection points: 2
#     Edge 41, Type (0, 1), BuildingBlock: TEMPAE_clean_linker_10, # of connection points: 2
#     Edge 42, Type (0, 1), BuildingBlock: TEMPAE_clean_linker_10, # of connection points: 2
#     Edge 43, Type (0, 1), BuildingBlock: TEMPAE_clean_linker_10, # of connection points: 2
#     Edge 44, Type (0, 1), BuildingBlock: TEMPAE_clean_linker_10, # of connection points: 2
#     Edge 45, Type (0, 1), BuildingBlock: TEMPAE_clean_linker_10, # of connection points: 2
#     Edge 46, Type (0, 1), BuildingBlock: TEMPAE_clean_linker_10, # of connection points: 2
#     Edge 47, Type (0, 1), BuildingBlock: TEMPAE_clean_linker_10, # of connection points: 2
# Relax obj value: 0.002
# Max RMSD: 0.021
# Mean RMSD: 0.013
data_MOF--net-ssb--node1-KOZSID_clean_sbu_0--node2-MIFKUJ_clean_linker_1--edge1-TEMPAE_clean_linker_10
_symmetry_space_group_name_H-M    P1
_symmetry_Int_Tables_number       1
_symmetry_cell_setting            triclinic
loop_
_symmetry_equiv_pos_as_xyz
'x, y, z'
_cell_length_a     64.17377
_cell_length_b     63.833427
_cell_length_c     47.228986
_cell_angle_alpha  92.188223
_cell_angle_beta   94.33777
_cell_angle_gamma 90.015312
loop_
_atom_site_label
_atom_site_type_symbol
_atom_site_fract_x
_atom_site_fract_y
_atom_site_fract_z
_atom_type_partial_charge
H0 H 0.28445 0.22072 0.21613 0.0
H1 H 0.31505 0.22254 0.18854 0.0
H2 H 0.32839 0.28495 0.22414 0.0
H3 H 0.29864 0.28245 0.25298 0.0
H4 H 0.28033 0.22059 0.27041 0.0
H5 H 0.25682 0.26587 0.19568 0.0
H6 H 0.25837 0.29556 0.16466 0.0
H7 H 0.25545 0.33831 0.23736 0.0
H8 H 0.25452 0.30852 0.26837 0.0
H9 H 0.22685 0.27846 0.32804 0.0
H10 H 0.19731 0.27855 0.35766 0.0
H11 H 0.18017 0.21632 0.32453 0.0
H12 H 0.20884 0.21698 0.29356 0.0
H13 H 0.22785 0.27753 0.27275 0.0
H14 H 0.25798 0.2311 0.34727 0.0
H15 H 0.25686 0.20074 0.37765 0.0
H16 H 0.24434 0.16012 0.30321 0.0
H17 H 0.24601 0.19042 0.27289 0.0
C18 C 0.28904 0.25155 0.23636 0.0
C19 C 0.29406 0.23474 0.21812 0.0
C20 C 0.31145 0.2359 0.20211 0.0
C21 C 0.32416 0.25396 0.20392 0.0
C22 C 0.31913 0.27072 0.22239 0.0
C23 C 0.30191 0.26943 0.23863 0.0
C24 C 0.27056 0.2503 0.25339 0.0
C25 C 0.26869 0.23291 0.27063 0.0
C26 C 0.25549 0.26657 0.25379 0.0
C27 C 0.25578 0.28479 0.23457 0.0
C28 C 0.25665 0.28162 0.20503 0.0
C29 C 0.25734 0.29869 0.18721 0.0
C30 C 0.2571 0.31948 0.19837 0.0
C31 C 0.25598 0.32261 0.22793 0.0
C32 C 0.25524 0.30552 0.24573 0.0
C33 C 0.2203 0.2476 0.30882 0.0
C34 C 0.21667 0.26487 0.32709 0.0
C35 C 0.19988 0.26479 0.34426 0.0
C36 C 0.18636 0.24739 0.34367 0.0
C37 C 0.19008 0.23009 0.32536 0.0
C38 C 0.20672 0.2303 0.30793 0.0
C39 C 0.23788 0.24806 0.29012 0.0
C40 C 0.23952 0.26525 0.27246 0.0
C41 C 0.25263 0.23156 0.28912 0.0
C42 C 0.25206 0.21311 0.30773 0.0
C43 C 0.25507 0.21566 0.33747 0.0
C44 C 0.25447 0.19828 0.35482 0.0
C45 C 0.25045 0.178 0.34286 0.0
C46 C 0.24733 0.17552 0.31309 0.0
C47 C 0.24839 0.19282 0.29574 0.0
H48 H 0.70249 0.25369 0.26213 0.0
H49 H 0.66892 0.25584 0.23418 0.0
H50 H 0.70114 0.26637 0.159 0.0
H51 H 0.73474 0.26339 0.18669 0.0
H52 H 0.732 0.22665 0.25935 0.0
H53 H 0.73326 0.30333 0.25742 0.0
H54 H 0.72943 0.33674 0.23404 0.0
H55 H 0.77216 0.31514 0.17255 0.0
H56 H 0.77683 0.28241 0.19733 0.0
H57 H 0.81919 0.24407 0.26202 0.0
H58 H 0.8512 0.24279 0.29396 0.0
H59 H 0.81456 0.2523 0.36631 0.0
H60 H 0.78257 0.25308 0.33438 0.0
H61 H 0.78918 0.279 0.26018 0.0
H62 H 0.79411 0.2057 0.27869 0.0
H63 H 0.7954 0.17339 0.30523 0.0
H64 H 0.73619 0.18904 0.33812 0.0
H65 H 0.73531 0.22173 0.31276 0.0
C66 C 0.72121 0.25862 0.22665 0.0
C67 C 0.70237 0.25646 0.23963 0.0
C68 C 0.68321 0.25769 0.22369 0.0
C69 C 0.6825 0.26132 0.1945 0.0
C70 C 0.7013 0.26383 0.18156 0.0
C71 C 0.72049 0.26226 0.19743 0.0
C72 C 0.74151 0.25601 0.2435 0.0
C73 C 0.74439 0.23826 0.25986 0.0
C74 C 0.75794 0.27073 0.2436 0.0
C75 C 0.75528 0.29057 0.22895 0.0
C76 C 0.74181 0.30595 0.23894 0.0
C77 C 0.73955 0.32494 0.22541 0.0
C78 C 0.75048 0.32869 0.20136 0.0
C79 C 0.76384 0.31303 0.19135 0.0
C80 C 0.76643 0.29424 0.20528 0.0
C81 C 0.79859 0.24855 0.29592 0.0
C82 C 0.81809 0.24573 0.28477 0.0
C83 C 0.83628 0.24494 0.30296 0.0
C84 C 0.83524 0.24747 0.33249 0.0
C85 C 0.81571 0.25038 0.34359 0.0
C86 C 0.79749 0.25076 0.32544 0.0
C87 C 0.77938 0.24993 0.27672 0.0
C88 C 0.7768 0.26737 0.25973 0.0
C89 C 0.763 0.23514 0.27674 0.0
C90 C 0.7647 0.21624 0.29394 0.0
C91 C 0.78167 0.20247 0.29217 0.0
C92 C 0.78234 0.18399 0.3071 0.0
C93 C 0.76581 0.17885 0.32339 0.0
C94 C 0.74899 0.19268 0.32541 0.0
C95 C 0.7485 0.2113 0.31096 0.0
H96 H 0.71084 0.78414 0.21118 0.0
H97 H 0.67811 0.78243 0.18215 0.0
H98 H 0.6724 0.71663 0.19964 0.0
H99 H 0.70368 0.71937 0.23185 0.0
H100 H 0.7192 0.78224 0.26271 0.0
H101 H 0.73791 0.73697 0.18347 0.0
H102 H 0.73627 0.70597 0.15104 0.0
H103 H 0.75162 0.66661 0.22187 0.0
H104 H 0.75259 0.69742 0.25429 0.0
H105 H 0.78335 0.72671 0.31173 0.0
H106 H 0.81596 0.72737 0.34083 0.0
H107 H 0.82185 0.7939 0.32787 0.0
H108 H 0.79109 0.79216 0.29498 0.0
H109 H 0.77596 0.72981 0.26066 0.0
H110 H 0.74839 0.77411 0.33963 0.0
H111 H 0.74952 0.80504 0.37253 0.0
H112 H 0.75323 0.8453 0.30176 0.0
H113 H 0.75148 0.81447 0.26895 0.0
C114 C 0.71005 0.75181 0.22346 0.0
C115 C 0.70241 0.76939 0.20906 0.0
C116 C 0.68374 0.76825 0.19194 0.0
C117 C 0.67249 0.74929 0.18796 0.0
C118 C 0.68028 0.73163 0.20232 0.0
C119 C 0.69855 0.73303 0.22037 0.0
C120 C 0.72959 0.75356 0.24244 0.0
C121 C 0.73168 0.77082 0.26204 0.0
C122 C 0.74579 0.73841 0.24191 0.0
C123 C 0.74511 0.71969 0.22158 0.0
C124 C 0.74067 0.72167 0.19214 0.0
C125 C 0.73978 0.70391 0.17356 0.0
C126 C 0.7438 0.68377 0.18384 0.0
C127 C 0.74861 0.68187 0.21318 0.0
C128 C 0.74918 0.69954 0.23177 0.0
C129 C 0.78435 0.75945 0.30132 0.0
C130 C 0.79179 0.74142 0.31486 0.0
C131 C 0.81041 0.74195 0.33212 0.0
C132 C 0.8218 0.76076 0.33728 0.0
C133 C 0.81398 0.77895 0.32422 0.0
C134 C 0.79585 0.77815 0.30588 0.0
C135 C 0.76526 0.75812 0.28135 0.0
C136 C 0.76334 0.74106 0.26141 0.0
C137 C 0.74918 0.77334 0.28154 0.0
C138 C 0.74992 0.79194 0.3018 0.0
C139 C 0.74938 0.7896 0.33121 0.0
C140 C 0.74999 0.80726 0.34996 0.0
C141 C 0.75155 0.82758 0.33971 0.0
C142 C 0.75217 0.82985 0.31029 0.0
C143 C 0.75108 0.81226 0.29153 0.0
H144 H 0.21624 0.7273 0.28906 0.0
H145 H 0.18686 0.72724 0.3192 0.0
H146 H 0.16431 0.78485 0.28328 0.0
H147 H 0.19305 0.78439 0.25197 0.0
H148 H 0.22092 0.72361 0.23718 0.0
H149 H 0.23828 0.77771 0.30552 0.0
H150 H 0.23593 0.80971 0.33502 0.0
H151 H 0.23072 0.8462 0.25956 0.0
H152 H 0.23217 0.81395 0.23006 0.0
H153 H 0.26547 0.77531 0.16792 0.0
H154 H 0.29619 0.77449 0.14035 0.0
H155 H 0.32734 0.73399 0.20154 0.0
H156 H 0.29605 0.73406 0.22798 0.0
H157 H 0.26399 0.78728 0.22875 0.0
H158 H 0.25313 0.72826 0.16272 0.0
H159 H 0.26173 0.69453 0.14018 0.0
H160 H 0.26059 0.66516 0.22085 0.0
H161 H 0.25301 0.69909 0.24376 0.0
C162 C 0.20712 0.75599 0.26836 0.0
C163 C 0.20486 0.7398 0.2873 0.0
C164 C 0.18812 0.73978 0.3046 0.0
C165 C 0.17347 0.7561 0.30362 0.0
C166 C 0.17557 0.77222 0.28461 0.0
C167 C 0.19206 0.772 0.26684 0.0
C168 C 0.22528 0.75609 0.25041 0.0
C169 C 0.23043 0.73752 0.23568 0.0
C170 C 0.23769 0.7742 0.24795 0.0
C171 C 0.23515 0.79348 0.26562 0.0
C172 C 0.23622 0.79256 0.29532 0.0
C173 C 0.23513 0.81087 0.31214 0.0
C174 C 0.23326 0.83045 0.29957 0.0
C175 C 0.23193 0.83131 0.2698 0.0
C176 C 0.23291 0.81295 0.25296 0.0
C177 C 0.27849 0.75464 0.19983 0.0
C178 C 0.27895 0.76625 0.17528 0.0
C179 C 0.29662 0.76586 0.15967 0.0
C180 C 0.31439 0.75419 0.16863 0.0
C181 C 0.31388 0.74282 0.19357 0.0
C182 C 0.29607 0.74295 0.20889 0.0
C183 C 0.2596 0.75483 0.21604 0.0
C184 C 0.25431 0.77348 0.23024 0.0
C185 C 0.24761 0.73658 0.21894 0.0
C186 C 0.25273 0.71627 0.20502 0.0
C187 C 0.25521 0.7147 0.17572 0.0
C188 C 0.26005 0.69547 0.16284 0.0
C189 C 0.26192 0.67746 0.17894 0.0
C190 C 0.25924 0.67894 0.20813 0.0
C191 C 0.25482 0.69824 0.22112 0.0
H192 H 0.19514 0.7715 0.74663 0.0
H193 H 0.16412 0.7716 0.71296 0.0
H194 H 0.2032 0.76123 0.6433 0.0
H195 H 0.23434 0.76162 0.67708 0.0
H196 H 0.22474 0.73757 0.75181 0.0
H197 H 0.21853 0.80869 0.72304 0.0
H198 H 0.2171 0.83763 0.69128 0.0
H199 H 0.28237 0.82812 0.67743 0.0
H200 H 0.28279 0.79749 0.70631 0.0
H201 H 0.31106 0.76478 0.76123 0.0
H202 H 0.34244 0.76263 0.79377 0.0
H203 H 0.30405 0.75465 0.86377 0.0
H204 H 0.27253 0.75785 0.83144 0.0
H205 H 0.28095 0.79111 0.75695 0.0
H206 H 0.28648 0.71813 0.78016 0.0
H207 H 0.28816 0.68785 0.81057 0.0
H208 H 0.22606 0.70159 0.83507 0.0
H209 H 0.22466 0.73224 0.8054 0.0
C210 C 0.21694 0.76669 0.71422 0.0
C211 C 0.19701 0.76938 0.72409 0.0
C212 C 0.17939 0.76953 0.70492 0.0
C213 C 0.18142 0.76648 0.67568 0.0
C214 C 0.20135 0.7636 0.6658 0.0
C215 C 0.21905 0.76387 0.68497 0.0
C216 C 0.2354 0.76618 0.73476 0.0
C217 C 0.23703 0.74933 0.75322 0.0
C218 C 0.25144 0.78155 0.73567 0.0
C219 C 0.25058 0.80013 0.71673 0.0
C220 C 0.23238 0.81226 0.71242 0.0
C221 C 0.23176 0.82942 0.69459 0.0
C222 C 0.24962 0.83568 0.68127 0.0
C223 C 0.26801 0.82381 0.68633 0.0
C224 C 0.2684 0.80627 0.70344 0.0
C225 C 0.28942 0.76122 0.7938 0.0
C226 C 0.30934 0.76282 0.78362 0.0
C227 C 0.32723 0.76155 0.80214 0.0
C228 C 0.32552 0.75839 0.8311 0.0
C229 C 0.30566 0.75691 0.84142 0.0
C230 C 0.28771 0.75865 0.82297 0.0
C231 C 0.27057 0.76225 0.77371 0.0
C232 C 0.26878 0.77925 0.75538 0.0
C233 C 0.2545 0.74686 0.77257 0.0
C234 C 0.25557 0.72791 0.79067 0.0
C235 C 0.27331 0.71488 0.79236 0.0
C236 C 0.27424 0.69747 0.80975 0.0
C237 C 0.25727 0.69226 0.8254 0.0
C238 C 0.23937 0.70501 0.8232 0.0
C239 C 0.23856 0.7226 0.80617 0.0
H240 H 0.29927 0.26483 0.7975 0.0
H241 H 0.33258 0.26639 0.82648 0.0
H242 H 0.30098 0.24953 0.89991 0.0
H243 H 0.26755 0.24822 0.87084 0.0
H244 H 0.27304 0.23023 0.7877 0.0
H245 H 0.27144 0.29968 0.82338 0.0
H246 H 0.27258 0.32983 0.85655 0.0
H247 H 0.21953 0.30535 0.89599 0.0
H248 H 0.21853 0.27491 0.86255 0.0
H249 H 0.18416 0.24177 0.78952 0.0
H250 H 0.15269 0.24166 0.75655 0.0
H251 H 0.18992 0.25996 0.68914 0.0
H252 H 0.22133 0.25992 0.72208 0.0
H253 H 0.21202 0.27535 0.80487 0.0
H254 H 0.2128 0.20696 0.7603 0.0
H255 H 0.21485 0.17804 0.72509 0.0
H256 H 0.27244 0.20353 0.69924 0.0
H257 H 0.27001 0.2329 0.73365 0.0
C258 C 0.28099 0.25644 0.83207 0.0
C259 C 0.29951 0.26157 0.81987 0.0
C260 C 0.31847 0.26257 0.83643 0.0
C261 C 0.31928 0.25808 0.86537 0.0
C262 C 0.30073 0.25297 0.8776 0.0
C263 C 0.28168 0.2523 0.8611 0.0
C264 C 0.2611 0.25483 0.81408 0.0
C265 C 0.25975 0.24024 0.7912 0.0
C266 C 0.24367 0.26754 0.8192 0.0
C267 C 0.2451 0.28492 0.84081 0.0
C268 C 0.26038 0.3005 0.83961 0.0
C269 C 0.26102 0.31772 0.85861 0.0
C270 C 0.24624 0.31983 0.879 0.0
C271 C 0.23107 0.3041 0.88043 0.0
C272 C 0.2305 0.28676 0.86141 0.0
C273 C 0.20505 0.25071 0.75816 0.0
C274 C 0.18551 0.24573 0.76763 0.0
C275 C 0.16761 0.24558 0.7488 0.0
C276 C 0.16892 0.25081 0.72035 0.0
C277 C 0.18848 0.256 0.71101 0.0
C278 C 0.2064 0.25586 0.72973 0.0
C279 C 0.22404 0.25089 0.77805 0.0
C280 C 0.2252 0.26516 0.80144 0.0
C281 C 0.24152 0.2382 0.77297 0.0
C282 C 0.24121 0.22215 0.74952 0.0
C283 C 0.22551 0.20672 0.74646 0.0
C284 C 0.22673 0.19017 0.72649 0.0
C285 C 0.24386 0.18864 0.70976 0.0
C286 C 0.25919 0.2044 0.71215 0.0
C287 C 0.25779 0.2211 0.73175 0.0
H288 H 0.72011 0.22626 0.81857 0.0
H289 H 0.68986 0.22774 0.84715 0.0
H290 H 0.67397 0.28865 0.81532 0.0
H291 H 0.70386 0.28687 0.78597 0.0
H292 H 0.72339 0.22517 0.76437 0.0
H293 H 0.74304 0.27415 0.8413 0.0
H294 H 0.74105 0.30557 0.87241 0.0
H295 H 0.75095 0.34439 0.80188 0.0
H296 H 0.7518 0.31309 0.77037 0.0
H297 H 0.77795 0.28162 0.71102 0.0
H298 H 0.80815 0.28086 0.68261 0.0
H299 H 0.82438 0.21949 0.71308 0.0
H300 H 0.79502 0.22105 0.74293 0.0
H301 H 0.77583 0.28231 0.76587 0.0
H302 H 0.74759 0.2338 0.68854 0.0
H303 H 0.74889 0.2025 0.65677 0.0
H304 H 0.75824 0.16383 0.72959 0.0
H305 H 0.75653 0.1951 0.76125 0.0
C306 C 0.71445 0.25656 0.80036 0.0
C307 C 0.71004 0.23988 0.81755 0.0
C308 C 0.69278 0.24072 0.83387 0.0
C309 C 0.67967 0.25834 0.83348 0.0
C310 C 0.68399 0.275 0.81622 0.0
C311 C 0.70108 0.27401 0.79952 0.0
C312 C 0.73284 0.25546 0.78304 0.0
C313 C 0.73496 0.23761 0.76495 0.0
C314 C 0.7478 0.27193 0.78358 0.0
C315 C 0.74716 0.29104 0.80312 0.0
C316 C 0.74438 0.28938 0.83227 0.0
C317 C 0.74336 0.30738 0.85015 0.0
C318 C 0.74578 0.32746 0.83958 0.0
C319 C 0.74911 0.32913 0.81067 0.0
C320 C 0.74965 0.31118 0.79265 0.0
C321 C 0.78399 0.25128 0.72886 0.0
C322 C 0.78806 0.26803 0.71165 0.0
C323 C 0.80525 0.26746 0.69516 0.0
C324 C 0.81871 0.25005 0.69537 0.0
C325 C 0.81453 0.23326 0.71258 0.0
C326 C 0.7975 0.23397 0.72936 0.0
C327 C 0.76603 0.2523 0.74696 0.0
C328 C 0.7641 0.27003 0.7653 0.0
C329 C 0.75124 0.23582 0.74676 0.0
C330 C 0.75201 0.21685 0.72733 0.0
C331 C 0.74989 0.21858 0.69766 0.0
C332 C 0.75056 0.20068 0.67953 0.0
C333 C 0.75372 0.18068 0.69066 0.0
C334 C 0.75595 0.17901 0.72036 0.0
C335 C 0.75486 0.19686 0.73847 0.0
H336 H 0.78585 0.72859 0.70336 0.0
H337 H 0.81553 0.72977 0.67435 0.0
H338 H 0.83663 0.78721 0.71909 0.0
H339 H 0.80794 0.78483 0.74974 0.0
H340 H 0.78184 0.72291 0.75478 0.0
H341 H 0.76255 0.77958 0.69584 0.0
H342 H 0.76387 0.81312 0.67281 0.0
H343 H 0.76996 0.84547 0.75509 0.0
H344 H 0.76874 0.81179 0.77809 0.0
H345 H 0.73669 0.772 0.83242 0.0
H346 H 0.70625 0.76947 0.86065 0.0
H347 H 0.677 0.72618 0.79727 0.0
H348 H 0.70758 0.72853 0.7693 0.0
H349 H 0.73722 0.78445 0.77431 0.0
H350 H 0.75499 0.72632 0.83201 0.0
H351 H 0.74937 0.69263 0.85297 0.0
H352 H 0.74301 0.66267 0.76914 0.0
H353 H 0.74851 0.69661 0.74816 0.0
C354 C 0.79438 0.75675 0.72863 0.0
C355 C 0.79697 0.74134 0.70716 0.0
C356 C 0.81388 0.74221 0.69023 0.0
C357 C 0.82852 0.75871 0.69403 0.0
C358 C 0.8259 0.77412 0.71563 0.0
C359 C 0.80922 0.77298 0.73294 0.0
C360 C 0.77635 0.75555 0.74669 0.0
C361 C 0.77196 0.73637 0.75859 0.0
C362 C 0.76359 0.77308 0.7525 0.0
C363 C 0.76576 0.79323 0.73864 0.0
C364 C 0.76455 0.79386 0.70891 0.0
C365 C 0.76532 0.813 0.69581 0.0
C366 C 0.76706 0.83183 0.71222 0.0
C367 C 0.76846 0.83117 0.74199 0.0
C368 C 0.76781 0.81199 0.7551 0.0
C369 C 0.72438 0.7504 0.79887 0.0
C370 C 0.72372 0.76195 0.82466 0.0
C371 C 0.70643 0.76041 0.8408 0.0
C372 C 0.68933 0.74761 0.83111 0.0
C373 C 0.68994 0.73621 0.80513 0.0
C374 C 0.70739 0.7375 0.78923 0.0
C375 C 0.7428 0.75192 0.78189 0.0
C376 C 0.74722 0.77112 0.77035 0.0
C377 C 0.75535 0.73436 0.77598 0.0
C378 C 0.75189 0.71395 0.78855 0.0
C379 C 0.75209 0.71256 0.81812 0.0
C380 C 0.74885 0.69333 0.83005 0.0
C381 C 0.74557 0.67512 0.81262 0.0
C382 C 0.74557 0.67649 0.78301 0.0
C383 C 0.7487 0.6958 0.77105 0.0
C384 C 0.03295 0.27017 0.57071 0.0
C385 C 0.03922 0.28968 0.58237 0.0
C386 C 0.02837 0.30427 0.56696 0.0
C387 C 0.01621 0.29294 0.54679 0.0
N388 N 0.01853 0.27194 0.54842 0.0
Co389 Co 0.00418 0.24973 0.52266 0.0
N390 N 0.98972 0.27134 0.49841 0.0
C391 C 0.99206 0.2924 0.50136 0.0
C392 C 0.97967 0.30325 0.48216 0.0
C393 C 0.96861 0.28828 0.46606 0.0
C394 C 0.97502 0.26902 0.47632 0.0
N395 N 0.98932 0.22753 0.49751 0.0
C396 C 0.97455 0.22936 0.47566 0.0
C397 C 0.96795 0.20989 0.46422 0.0
C398 C 0.9785 0.19523 0.47986 0.0
C399 C 0.99096 0.20651 0.49977 0.0
N400 N 0.01914 0.22812 0.54633 0.0
C401 C 0.0177 0.20703 0.5425 0.0
C402 C 0.03014 0.19622 0.56171 0.0
C403 C 0.04043 0.21128 0.5786 0.0
C404 C 0.0337 0.23049 0.56856 0.0
N405 N 0.98048 0.24986 0.54739 0.0
C406 C 0.94557 0.24979 0.58037 0.0
C407 C 0.95622 0.23126 0.57422 0.0
C408 C 0.97339 0.23163 0.55776 0.0
C409 C 0.95296 0.26841 0.57003 0.0
C410 C 0.97035 0.26811 0.55394 0.0
N411 N 0.02789 0.24961 0.49789 0.0
C412 C 0.05193 0.23073 0.46925 0.0
C413 C 0.0624 0.24925 0.46415 0.0
C414 C 0.05511 0.26799 0.47605 0.0
C415 C 0.03793 0.26782 0.49252 0.0
C416 C 0.03496 0.23125 0.48611 0.0
H417 H 0.03321 0.28264 0.50086 0.0
H418 H 0.0279 0.21655 0.48936 0.0
H419 H 0.98058 0.21693 0.55359 0.0
H420 H 0.97515 0.28283 0.54678 0.0
C421 C 0.00414 0.30156 0.52435 0.0
C422 C 0.04196 0.25048 0.58052 0.0
C423 C 0.96585 0.24906 0.46553 0.0
C424 C 0.00436 0.19784 0.52081 0.0
H425 H 0.05086 0.29313 0.59969 0.0
H426 H 0.02977 0.32115 0.56949 0.0
H427 H 0.97817 0.32009 0.48083 0.0
H428 H 0.95672 0.29136 0.44929 0.0
H429 H 0.95649 0.20663 0.44659 0.0
H430 H 0.97711 0.17836 0.47722 0.0
H431 H 0.03164 0.1794 0.56316 0.0
H432 H 0.05176 0.20843 0.59619 0.0
H433 H 0.95144 0.21645 0.58216 0.0
H434 H 0.94518 0.28319 0.57384 0.0
H435 H 0.05665 0.21581 0.46013 0.0
H436 H 0.06279 0.28277 0.47311 0.0
C437 C 0.73665 0.04022 0.54994 0.0
C438 C 0.71741 0.0488 0.55547 0.0
C439 C 0.7025 0.03626 0.54146 0.0
C440 C 0.71337 0.02089 0.52797 0.0
N441 N 0.73437 0.02282 0.53241 0.0
Co442 Co 0.75587 0.0042 0.51543 0.0
N443 N 0.73379 0.9861 0.49413 0.0
C444 C 0.71286 0.98857 0.49433 0.0
C445 C 0.7015 0.97342 0.47872 0.0
C446 C 0.71598 0.96044 0.46779 0.0
C447 C 0.7355 0.96855 0.47716 0.0
N448 N 0.77736 0.98545 0.49866 0.0
C449 C 0.77507 0.96822 0.4808 0.0
C450 C 0.79431 0.96035 0.47393 0.0
C451 C 0.80923 0.97267 0.48834 0.0
C452 C 0.79838 0.98744 0.50296 0.0
N453 N 0.77795 0.02241 0.53655 0.0
C454 C 0.79889 0.01998 0.53631 0.0
C455 C 0.81021 0.03452 0.5531 0.0
C456 C 0.7957 0.04713 0.5647 0.0
C457 C 0.77621 0.03964 0.5541 0.0
N458 N 0.75565 0.98593 0.54832 0.0
C459 C 0.75556 0.95797 0.59282 0.0
C460 C 0.7743 0.96538 0.58378 0.0
C461 C 0.77398 0.97927 0.56175 0.0
C462 C 0.73684 0.96532 0.5799 0.0
C463 C 0.73724 0.97924 0.55789 0.0
N464 N 0.75615 0.02255 0.4826 0.0
C465 C 0.7754 0.04285 0.45119 0.0
C466 C 0.75702 0.05212 0.44033 0.0
C467 C 0.73808 0.04566 0.44977 0.0
C468 C 0.73799 0.0307 0.4705 0.0
C469 C 0.77462 0.02825 0.47225 0.0
H470 H 0.72308 0.02632 0.47677 0.0
H471 H 0.78923 0.02226 0.48026 0.0
H472 H 0.78878 0.98407 0.55566 0.0
H473 H 0.72248 0.98414 0.54876 0.0
C474 C 0.70431 0.00485 0.51024 0.0
C475 C 0.75658 0.04942 0.56152 0.0
C476 C 0.75513 0.95878 0.46967 0.0
C477 C 0.80747 0.00363 0.52048 0.0
H478 H 0.71436 0.06281 0.56808 0.0
H479 H 0.68573 0.03828 0.54084 0.0
H480 H 0.68467 0.97181 0.476 0.0
H481 H 0.71247 0.94644 0.45469 0.0
H482 H 0.79733 0.94712 0.45984 0.0
H483 H 0.82601 0.97112 0.48804 0.0
H484 H 0.82704 0.03573 0.55664 0.0
H485 H 0.79914 0.06029 0.57941 0.0
H486 H 0.78922 0.95994 0.59297 0.0
H487 H 0.72192 0.96021 0.58652 0.0
H488 H 0.79041 0.0475 0.44435 0.0
H489 H 0.72345 0.05232 0.44144 0.0
C490 C 0.03656 0.7788 0.54539 0.0
C491 C 0.04408 0.79823 0.55578 0.0
C492 C 0.03264 0.81294 0.54136 0.0
C493 C 0.01881 0.8017 0.5232 0.0
N494 N 0.0204 0.78069 0.52551 0.0
Co495 Co 0.0038 0.75849 0.50256 0.0
N496 N 0.9876 0.78013 0.4805 0.0
C497 C 0.98961 0.80121 0.48361 0.0
C498 C 0.97634 0.81202 0.46541 0.0
C499 C 0.96479 0.79696 0.45016 0.0
C500 C 0.9716 0.77777 0.46022 0.0
N501 N 0.98765 0.73629 0.47892 0.0
C502 C 0.97125 0.73809 0.4593 0.0
C503 C 0.96379 0.71853 0.44922 0.0
C504 C 0.976 0.70395 0.46272 0.0
C505 C 0.99002 0.71528 0.48042 0.0
N506 N 0.01957 0.73688 0.52533 0.0
C507 C 0.01689 0.71585 0.52302 0.0
C508 C 0.03041 0.70499 0.54081 0.0
C509 C 0.04263 0.71995 0.55522 0.0
C510 C 0.03573 0.73918 0.5454 0.0
N511 N 0.98205 0.75913 0.53046 0.0
C512 C 0.94982 0.7601 0.5682 0.0
C513 C 0.95604 0.74127 0.5553 0.0
C514 C 0.97214 0.74112 0.53697 0.0
C515 C 0.9603 0.77842 0.56205 0.0
C516 C 0.97607 0.77761 0.54316 0.0
N517 N 0.02555 0.75784 0.47464 0.0
C518 C 0.05115 0.73881 0.44872 0.0
C519 C 0.05724 0.75713 0.4364 0.0
C520 C 0.04716 0.77578 0.44329 0.0
C521 C 0.03163 0.77582 0.46251 0.0
C522 C 0.03524 0.73947 0.46738 0.0
H523 H 0.02496 0.79065 0.46739 0.0
H524 H 0.03115 0.72491 0.47575 0.0
H525 H 0.97609 0.72621 0.52809 0.0
H526 H 0.98311 0.79218 0.53906 0.0
C527 C 0.00428 0.8104 0.5036 0.0
C528 C 0.04586 0.75906 0.55431 0.0
C529 C 0.96158 0.75789 0.45096 0.0
C530 C 0.00341 0.70669 0.50152 0.0
H531 H 0.05676 0.80144 0.57181 0.0
H532 H 0.0344 0.8298 0.54356 0.0
H533 H 0.97507 0.82883 0.46363 0.0
H534 H 0.95246 0.79982 0.43385 0.0
H535 H 0.95045 0.71494 0.4345 0.0
H536 H 0.97411 0.68709 0.46099 0.0
H537 H 0.03189 0.68816 0.54217 0.0
H538 H 0.05559 0.71688 0.57045 0.0
H539 H 0.94832 0.72661 0.55881 0.0
H540 H 0.95646 0.79341 0.5718 0.0
H541 H 0.05848 0.72397 0.44373 0.0
H542 H 0.05154 0.79038 0.43435 0.0
C543 C 0.26732 0.97125 0.54605 0.0
C544 C 0.28662 0.9621 0.55275 0.0
C545 C 0.30113 0.97362 0.54046 0.0
C546 C 0.28998 0.98896 0.52669 0.0
N547 N 0.26915 0.98799 0.52933 0.0
Co548 Co 0.2473 0.00676 0.51095 0.0
N549 N 0.26873 0.02311 0.49178 0.0
C550 C 0.28962 0.01981 0.49368 0.0
C551 C 0.30062 0.03388 0.47947 0.0
C552 C 0.28594 0.04701 0.46768 0.0
C553 C 0.26665 0.04006 0.47515 0.0
N554 N 0.22546 0.02567 0.49281 0.0
C555 C 0.22728 0.04213 0.4756 0.0
C556 C 0.20787 0.05051 0.46744 0.0
C557 C 0.19339 0.03936 0.48033 0.0
C558 C 0.20463 0.02471 0.49542 0.0
N559 N 0.22584 0.99027 0.52989 0.0
C560 C 0.20495 0.99359 0.52802 0.0
C561 C 0.19412 0.98035 0.54374 0.0
C562 C 0.20888 0.96764 0.55627 0.0
C563 C 0.22801 0.97371 0.54722 0.0
N564 N 0.25049 0.02652 0.54434 0.0
C565 C 0.25426 0.05822 0.58712 0.0
C566 C 0.23485 0.04943 0.57855 0.0
C567 C 0.23332 0.03377 0.55719 0.0
C568 C 0.27194 0.05025 0.57516 0.0
C569 C 0.26974 0.0342 0.55424 0.0
N570 N 0.24404 0.98708 0.4775 0.0
C571 C 0.22187 0.96621 0.44379 0.0
C572 C 0.23928 0.95715 0.43236 0.0
C573 C 0.25912 0.96381 0.44314 0.0
C574 C 0.26112 0.97871 0.46555 0.0
C575 C 0.22459 0.9811 0.46609 0.0
H576 H 0.27663 0.98291 0.47312 0.0
H577 H 0.2107 0.9873 0.47392 0.0
H578 H 0.218 0.02825 0.55096 0.0
H579 H 0.28377 0.02862 0.54602 0.0
C580 C 0.29853 0.00391 0.51008 0.0
C581 C 0.24773 0.96321 0.55578 0.0
C582 C 0.24691 0.05039 0.46632 0.0
C583 C 0.19604 0.00967 0.51189 0.0
H584 H 0.28997 0.94834 0.56494 0.0
H585 H 0.3178 0.97087 0.54104 0.0
H586 H 0.31737 0.03474 0.47828 0.0
H587 H 0.28921 0.06039 0.45533 0.0
H588 H 0.20445 0.06333 0.45351 0.0
H589 H 0.17663 0.04161 0.47879 0.0
H590 H 0.17746 0.98009 0.54601 0.0
H591 H 0.20583 0.95537 0.57058 0.0
H592 H 0.22077 0.05526 0.58739 0.0
H593 H 0.28732 0.05654 0.58165 0.0
H594 H 0.20619 0.96172 0.43572 0.0
H595 H 0.27306 0.95709 0.43497 0.0
C596 C 0.53257 0.76741 0.04736 0.0
C597 C 0.54143 0.78674 0.05591 0.0
C598 C 0.53172 0.80129 0.0392 0.0
C599 C 0.51778 0.79012 0.02117 0.0
N600 N 0.51772 0.76931 0.0256 0.0
Co601 Co 0.50226 0.74714 0.00116 0.0
N602 N 0.48781 0.76865 0.97693 0.0
C603 C 0.48981 0.7897 0.97998 0.0
C604 C 0.47676 0.80047 0.96141 0.0
C605 C 0.46528 0.78537 0.9461 0.0
C606 C 0.47208 0.76624 0.95632 0.0
N607 N 0.48791 0.72494 0.97561 0.0
C608 C 0.47282 0.72671 0.9542 0.0
C609 C 0.46681 0.70725 0.94217 0.0
C610 C 0.47841 0.69268 0.95673 0.0
C611 C 0.49074 0.704 0.97677 0.0
N612 N 0.51536 0.72568 0.02663 0.0
C613 C 0.51209 0.70474 0.02454 0.0
C614 C 0.52216 0.69407 0.04615 0.0
C615 C 0.53266 0.70909 0.06291 0.0
C616 C 0.52862 0.72809 0.05021 0.0
N617 N 0.47828 0.74844 0.02528 0.0
C618 C 0.44294 0.75065 0.05705 0.0
C619 C 0.44855 0.73184 0.04373 0.0
C620 C 0.4663 0.73101 0.02837 0.0
C621 C 0.45544 0.7683 0.05465 0.0
C622 C 0.47283 0.76692 0.03852 0.0
N623 N 0.52639 0.74584 0.97689 0.0
C624 C 0.55633 0.7275 0.95983 0.0
C625 C 0.56195 0.74487 0.94487 0.0
C626 C 0.54912 0.76254 0.94578 0.0
C627 C 0.53172 0.76275 0.96185 0.0
C628 C 0.53858 0.72823 0.9753 0.0
H629 H 0.52298 0.77689 0.96175 0.0
H630 H 0.53522 0.71435 0.98598 0.0
H631 H 0.46994 0.7161 0.01902 0.0
H632 H 0.48149 0.78104 0.03677 0.0
C633 C 0.5043 0.79877 1.00026 0.0
C634 C 0.5392 0.74762 0.0598 0.0
C635 C 0.46254 0.74628 0.94663 0.0
C636 C 0.50147 0.69546 1.00039 0.0
H637 H 0.55388 0.79012 0.07214 0.0
H638 H 0.5347 0.818 0.03983 0.0
H639 H 0.47551 0.81728 0.95955 0.0
H640 H 0.45302 0.78809 0.92963 0.0
H641 H 0.45462 0.70377 0.92559 0.0
H642 H 0.47689 0.67581 0.95436 0.0
H643 H 0.52246 0.6773 0.04883 0.0
H644 H 0.54278 0.70629 0.08176 0.0
H645 H 0.43936 0.71775 0.0454 0.0
H646 H 0.45154 0.7832 0.06463 0.0
H647 H 0.56575 0.71343 0.96009 0.0
H648 H 0.55236 0.77627 0.93404 0.0
C649 C 0.24806 0.53328 0.06051 0.0
C650 C 0.23055 0.5399 0.07389 0.0
C651 C 0.21362 0.53133 0.05842 0.0
C652 C 0.22176 0.51986 0.03677 0.0
N653 N 0.24288 0.5204 0.0377 0.0
Co654 Co 0.26125 0.50535 0.0113 0.0
N655 N 0.23639 0.49392 0.98756 0.0
C656 C 0.21607 0.49862 0.99009 0.0
C657 C 0.20263 0.48764 0.97097 0.0
C658 C 0.21514 0.4749 0.95574 0.0
C659 C 0.23548 0.4789 0.96658 0.0
N660 N 0.27957 0.48946 0.98554 0.0
C661 C 0.2743 0.47444 0.96531 0.0
C662 C 0.29174 0.46578 0.95375 0.0
C663 C 0.30874 0.47544 0.96767 0.0
C664 C 0.30068 0.48926 0.98688 0.0
N665 N 0.28616 0.51742 0.03447 0.0
C666 C 0.30651 0.51463 0.02965 0.0
C667 C 0.32003 0.52612 0.04794 0.0
C668 C 0.30759 0.53723 0.0652 0.0
C669 C 0.2871 0.5317 0.0565 0.0
N670 N 0.26121 0.48045 0.0358 0.0
C671 C 0.2609 0.44496 0.07046 0.0
C672 C 0.27968 0.45379 0.06312 0.0
C673 C 0.27949 0.47131 0.04595 0.0
C674 C 0.24231 0.45426 0.05975 0.0
C675 C 0.24281 0.47175 0.04272 0.0
N676 N 0.26121 0.53036 0.98667 0.0
C677 C 0.2786 0.55291 0.95533 0.0
C678 C 0.26108 0.56587 0.95195 0.0
C679 C 0.24366 0.56073 0.96642 0.0
C680 C 0.24399 0.54307 0.98329 0.0
C681 C 0.2784 0.53556 0.97275 0.0
H682 H 0.23006 0.54007 0.99336 0.0
H683 H 0.29245 0.52669 0.97468 0.0
H684 H 0.29433 0.47723 0.04114 0.0
H685 H 0.22804 0.47794 0.03526 0.0
C686 C 0.21002 0.51022 0.01375 0.0
C687 C 0.26901 0.54128 0.06857 0.0
C688 C 0.25321 0.46663 0.95846 0.0
C689 C 0.31242 0.50134 0.00753 0.0
H690 H 0.23006 0.55051 0.09227 0.0
H691 H 0.19731 0.53381 0.06191 0.0
H692 H 0.18572 0.4878 0.9696 0.0
H693 H 0.20991 0.46324 0.9395 0.0
H694 H 0.29213 0.45327 0.93769 0.0
H695 H 0.32503 0.47216 0.96492 0.0
H696 H 0.33691 0.5267 0.04829 0.0
H697 H 0.31304 0.54845 0.08185 0.0
H698 H 0.29457 0.44744 0.07094 0.0
H699 H 0.22729 0.44793 0.06417 0.0
H700 H 0.29263 0.55631 0.94492 0.0
H701 H 0.2296 0.57012 0.96439 0.0
C702 C 0.47077 0.27788 0.98044 0.0
C703 C 0.46273 0.29678 0.97097 0.0
C704 C 0.47414 0.31225 0.98559 0.0
C705 C 0.48843 0.30195 0.00299 0.0
N706 N 0.48722 0.28082 0.9999 0.0
Co707 Co 0.50405 0.25979 0.02229 0.0
N708 N 0.51976 0.28252 0.04545 0.0
C709 C 0.51793 0.30343 0.04225 0.0
C710 C 0.53189 0.31516 0.05958 0.0
C711 C 0.54361 0.30091 0.07447 0.0
C712 C 0.53594 0.2812 0.06552 0.0
N713 N 0.52015 0.23874 0.04555 0.0
C714 C 0.53547 0.2416 0.06668 0.0
C715 C 0.54204 0.2227 0.07787 0.0
C716 C 0.53084 0.2073 0.06275 0.0
C717 C 0.51799 0.21764 0.04347 0.0
N718 N 0.48897 0.23707 0.99833 0.0
C719 C 0.49234 0.21619 0.99948 0.0
C720 C 0.47918 0.20445 0.98097 0.0
C721 C 0.46646 0.21863 0.96743 0.0
C722 C 0.47267 0.23833 0.97846 0.0
N723 N 0.52615 0.25985 0.99495 0.0
C724 C 0.55889 0.26026 0.95844 0.0
C725 C 0.55351 0.24188 0.97121 0.0
C726 C 0.53711 0.24197 0.98901 0.0
C727 C 0.54742 0.27835 0.96378 0.0
C728 C 0.53133 0.27784 0.98209 0.0
N729 N 0.48199 0.2597 0.04954 0.0
C730 C 0.45595 0.24102 0.07316 0.0
C731 C 0.44899 0.25965 0.08575 0.0
C732 C 0.45912 0.27829 0.08021 0.0
C733 C 0.47541 0.27797 0.06214 0.0
C734 C 0.47239 0.24138 0.05549 0.0
H735 H 0.48232 0.29272 0.05849 0.0
H736 H 0.47684 0.22664 0.04658 0.0
H737 H 0.53373 0.22738 0.99784 0.0
H738 H 0.52352 0.29227 0.98569 0.0
C739 C 0.50306 0.3116 0.02262 0.0
C740 C 0.46165 0.25761 0.97122 0.0
C741 C 0.54512 0.26169 0.07571 0.0
C742 C 0.50547 0.20799 0.02125 0.0
H743 H 0.4497 0.29911 0.9555 0.0
H744 H 0.47201 0.32901 0.9841 0.0
H745 H 0.53361 0.33204 0.06082 0.0
H746 H 0.5566 0.30469 0.08975 0.0
H747 H 0.55411 0.22026 0.09469 0.0
H748 H 0.53242 0.19054 0.06488 0.0
H749 H 0.47812 0.18753 0.9788 0.0
H750 H 0.45353 0.21476 0.9521 0.0
H751 H 0.56183 0.22741 0.96731 0.0
H752 H 0.55115 0.29298 0.95439 0.0
H753 H 0.44849 0.22617 0.07638 0.0
H754 H 0.45458 0.29311 0.0898 0.0
C755 C 0.71961 0.54163 0.04436 0.0
C756 C 0.70015 0.54993 0.04923 0.0
C757 C 0.68562 0.53708 0.03494 0.0
C758 C 0.69692 0.52177 0.02201 0.0
N759 N 0.71785 0.52402 0.02712 0.0
Co760 Co 0.73989 0.50534 0.01163 0.0
N761 N 0.71842 0.4871 0.98926 0.0
C762 C 0.69744 0.48967 0.98799 0.0
C763 C 0.68656 0.47455 0.97167 0.0
C764 C 0.70142 0.46152 0.96179 0.0
C765 C 0.72068 0.46954 0.97251 0.0
N766 N 0.76193 0.48641 0.99666 0.0
C767 C 0.7602 0.46901 0.97905 0.0
C768 C 0.7797 0.46092 0.97382 0.0
C769 C 0.79418 0.47327 0.98906 0.0
C770 C 0.78284 0.48827 0.00252 0.0
N771 N 0.76139 0.52386 0.03344 0.0
C772 C 0.78239 0.52151 0.03434 0.0
C773 C 0.79326 0.53643 0.05104 0.0
C774 C 0.77837 0.54926 0.06129 0.0
C775 C 0.75915 0.54149 0.05005 0.0
N776 N 0.73863 0.48731 0.04467 0.0
C777 C 0.73743 0.45764 0.08668 0.0
C778 C 0.75618 0.46728 0.08168 0.0
C779 C 0.75645 0.48194 0.06058 0.0
C780 C 0.71912 0.46382 0.07168 0.0
C781 C 0.72002 0.47889 0.05124 0.0
N782 N 0.74114 0.52326 0.97853 0.0
C783 C 0.76118 0.54214 0.9465 0.0
C784 C 0.74295 0.55039 0.93335 0.0
C785 C 0.72378 0.54433 0.94256 0.0
C786 C 0.72325 0.53082 0.96496 0.0
C787 C 0.75992 0.52869 0.96886 0.0
H788 H 0.70818 0.52703 0.97119 0.0
H789 H 0.77437 0.52311 0.97818 0.0
H790 H 0.77132 0.48822 0.05705 0.0
H791 H 0.70553 0.48303 0.04058 0.0
C792 C 0.68837 0.50578 0.00368 0.0
C793 C 0.73927 0.55138 0.05602 0.0
C794 C 0.74058 0.4596 0.96664 0.0
C795 C 0.79141 0.50476 0.01989 0.0
H796 H 0.69674 0.564 0.06151 0.0
H797 H 0.66881 0.53893 0.03365 0.0
H798 H 0.66977 0.47295 0.96787 0.0
H799 H 0.69833 0.44751 0.94853 0.0
H800 H 0.7832 0.44755 0.96025 0.0
H801 H 0.81101 0.47165 0.98997 0.0
H802 H 0.81002 0.53774 0.05542 0.0
H803 H 0.78139 0.56276 0.07557 0.0
H804 H 0.7707 0.46279 0.09304 0.0
H805 H 0.70425 0.45675 0.07533 0.0
H806 H 0.77639 0.5462 0.93977 0.0
H807 H 0.70924 0.55051 0.93318 0.0
C808 C 0.14906 0.23861 0.35124 0.0
C809 C 0.1683 0.24742 0.36173 0.0
C810 C 0.13188 0.23863 0.36794 0.0
C811 C 0.13383 0.24798 0.39567 0.0
C812 C 0.15313 0.25698 0.40639 0.0
C813 C 0.17016 0.25645 0.38939 0.0
C814 C 0.11159 0.2287 0.35586 0.0
C815 C 0.15577 0.26726 0.43578 0.0
C816 C 0.08394 0.26522 0.42818 0.0
C817 C 0.0808 0.249 0.44668 0.0
C818 C 0.10126 0.2652 0.41171 0.0
C819 C 0.11564 0.24841 0.41342 0.0
C820 C 0.11255 0.23195 0.43192 0.0
C821 C 0.09528 0.23252 0.44847 0.0
C822 C 0.10413 0.28314 0.39241 0.0
C823 C 0.12747 0.21369 0.43415 0.0
H824 H 0.1473 0.23192 0.32976 0.0
H825 H 0.18502 0.263 0.3979 0.0
H826 H 0.10678 0.21636 0.36998 0.0
H827 H 0.09903 0.24063 0.35482 0.0
H828 H 0.11281 0.22157 0.33422 0.0
H829 H 0.17171 0.27382 0.4408 0.0
H830 H 0.14425 0.2801 0.43772 0.0
H831 H 0.15266 0.25571 0.45192 0.0
H832 H 0.07272 0.27785 0.42626 0.0
H833 H 0.09326 0.22011 0.46305 0.0
H834 H 0.10374 0.27718 0.37 0.0
H835 H 0.11964 0.29059 0.39766 0.0
H836 H 0.09187 0.29531 0.39414 0.0
H837 H 0.12836 0.20574 0.41297 0.0
H838 H 0.12269 0.20199 0.44926 0.0
H839 H 0.14341 0.21938 0.44126 0.0
C840 C 0.74879 0.14507 0.33226 0.0
C841 C 0.76569 0.15886 0.33782 0.0
C842 C 0.74769 0.12657 0.34703 0.0
C843 C 0.76368 0.12209 0.3682 0.0
C844 C 0.78103 0.13579 0.37344 0.0
C845 C 0.78193 0.15399 0.3579 0.0
C846 C 0.72917 0.11211 0.34053 0.0
C847 C 0.79817 0.13165 0.39622 0.0
C848 C 0.74866 0.08873 0.42791 0.0
C849 C 0.75782 0.06952 0.42088 0.0
C850 C 0.75055 0.10601 0.41095 0.0
C851 C 0.76154 0.10382 0.38612 0.0
C852 C 0.77044 0.08431 0.37859 0.0
C853 C 0.76867 0.06737 0.39631 0.0
C854 C 0.74115 0.1267 0.41987 0.0
C855 C 0.78188 0.08136 0.35195 0.0
H856 H 0.73637 0.14889 0.31645 0.0
H857 H 0.79491 0.16482 0.36215 0.0
H858 H 0.73455 0.09584 0.33643 0.0
H859 H 0.71962 0.11192 0.35913 0.0
H860 H 0.71904 0.11699 0.32182 0.0
H861 H 0.81103 0.14335 0.39671 0.0
H862 H 0.79162 0.13209 0.41732 0.0
H863 H 0.80479 0.11579 0.39282 0.0
H864 H 0.74054 0.09037 0.4472 0.0
H865 H 0.77569 0.05243 0.39097 0.0
H866 H 0.72952 0.13188 0.40302 0.0
H867 H 0.75352 0.13891 0.42278 0.0
H868 H 0.73333 0.12578 0.43999 0.0
H869 H 0.77154 0.08561 0.33315 0.0
H870 H 0.7873 0.06498 0.34868 0.0
H871 H 0.79564 0.09196 0.35304 0.0
C872 C 0.84574 0.74678 0.37702 0.0
C873 C 0.84199 0.76116 0.35538 0.0
C874 C 0.86516 0.74588 0.39264 0.0
C875 C 0.88089 0.76055 0.3878 0.0
C876 C 0.877 0.77577 0.3671 0.0
C877 C 0.85788 0.77552 0.35062 0.0
C878 C 0.869 0.72893 0.41387 0.0
C879 C 0.89309 0.79227 0.36218 0.0
C880 C 0.92405 0.76843 0.44662 0.0
C881 C 0.94079 0.75811 0.43481 0.0
C882 C 0.90458 0.76982 0.43126 0.0
C883 C 0.90156 0.75972 0.40405 0.0
C884 C 0.91833 0.7489 0.39229 0.0
C885 C 0.93796 0.74882 0.40747 0.0
C886 C 0.88741 0.78243 0.44389 0.0
C887 C 0.9155 0.73723 0.36383 0.0
H888 H 0.83358 0.73601 0.38181 0.0
H889 H 0.85566 0.78645 0.33372 0.0
H890 H 0.88308 0.71978 0.40894 0.0
H891 H 0.87207 0.73603 0.43557 0.0
H892 H 0.85555 0.71797 0.41392 0.0
H893 H 0.8867 0.80446 0.34779 0.0
H894 H 0.89897 0.80001 0.38268 0.0
H895 H 0.90665 0.78484 0.35264 0.0
H896 H 0.92637 0.77578 0.46771 0.0
H897 H 0.95108 0.74127 0.39813 0.0
H898 H 0.87397 0.77213 0.44718 0.0
H899 H 0.88169 0.79455 0.42898 0.0
H900 H 0.89272 0.7903 0.46458 0.0
H901 H 0.90205 0.72627 0.36352 0.0
H902 H 0.92963 0.72816 0.35887 0.0
H903 H 0.91198 0.74842 0.34676 0.0
C904 C 0.24775 0.85214 0.3415 0.0
C905 C 0.23352 0.84994 0.31756 0.0
C906 C 0.24819 0.87035 0.35897 0.0
C907 C 0.23414 0.88679 0.35218 0.0
C908 C 0.21991 0.88483 0.32784 0.0
C909 C 0.21973 0.86635 0.3108 0.0
C910 C 0.26358 0.87191 0.38482 0.0
C911 C 0.20475 0.90213 0.32002 0.0
C912 C 0.22293 0.92349 0.41381 0.0
C913 C 0.23679 0.94003 0.41043 0.0
C914 C 0.22143 0.90633 0.39443 0.0
C915 C 0.23407 0.90578 0.37114 0.0
C916 C 0.2476 0.92273 0.3671 0.0
C917 C 0.24886 0.93967 0.38692 0.0
C918 C 0.20695 0.88842 0.39951 0.0
C919 C 0.26117 0.92269 0.34234 0.0
H920 H 0.25871 0.83964 0.34648 0.0
H921 H 0.2086 0.86462 0.29242 0.0
H922 H 0.27383 0.88579 0.38366 0.0
H923 H 0.25507 0.87408 0.40431 0.0
H924 H 0.27355 0.85775 0.38693 0.0
H925 H 0.19523 0.89844 0.2998 0.0
H926 H 0.19405 0.90482 0.33717 0.0
H927 H 0.21334 0.917 0.3179 0.0
H928 H 0.21378 0.92363 0.43219 0.0
H929 H 0.25941 0.95258 0.38416 0.0
H930 H 0.21624 0.87411 0.40406 0.0
H931 H 0.19644 0.88482 0.3802 0.0
H932 H 0.19724 0.8919 0.41761 0.0
H933 H 0.27275 0.90982 0.34431 0.0
H934 H 0.26972 0.93773 0.34115 0.0
H935 H 0.25152 0.91972 0.32209 0.0
C936 C 0.14839 0.78243 0.65561 0.0
C937 C 0.16259 0.76579 0.65574 0.0
C938 C 0.12983 0.78149 0.63794 0.0
C939 C 0.12524 0.76327 0.62056 0.0
C940 C 0.13968 0.7465 0.62042 0.0
C941 C 0.15834 0.74806 0.63785 0.0
C942 C 0.11501 0.79986 0.63818 0.0
C943 C 0.13512 0.72669 0.60252 0.0
C944 C 0.06789 0.75312 0.59919 0.0
C945 C 0.06635 0.75935 0.57105 0.0
C946 C 0.08713 0.75383 0.61536 0.0
C947 C 0.10501 0.76152 0.60322 0.0
C948 C 0.10343 0.76799 0.5748 0.0
C949 C 0.08408 0.76664 0.55894 0.0
C950 C 0.0883 0.74649 0.64545 0.0
C951 C 0.12205 0.77666 0.56134 0.0
H952 H 0.15183 0.79616 0.6694 0.0
H953 H 0.16932 0.73515 0.63824 0.0
H954 H 0.11136 0.80511 0.61624 0.0
H955 H 0.10006 0.79504 0.64639 0.0
H956 H 0.12152 0.81335 0.65158 0.0
H957 H 0.14819 0.71529 0.60439 0.0
H958 H 0.12081 0.7191 0.60914 0.0
H959 H 0.13209 0.73045 0.57985 0.0
H960 H 0.05401 0.74771 0.60849 0.0
H961 H 0.08268 0.77156 0.53715 0.0
H962 H 0.0928 0.75975 0.66053 0.0
H963 H 0.10052 0.73429 0.64828 0.0
H964 H 0.0732 0.73994 0.65116 0.0
H965 H 0.12805 0.79083 0.57368 0.0
H966 H 0.11817 0.78091 0.53897 0.0
H967 H 0.13487 0.765 0.56181 0.0
C968 C 0.26498 0.15813 0.69493 0.0
C969 C 0.24659 0.16985 0.69141 0.0
C970 C 0.26754 0.13964 0.67869 0.0
C971 C 0.25145 0.13303 0.65819 0.0
C972 C 0.23297 0.14504 0.65422 0.0
C973 C 0.23066 0.16326 0.67118 0.0
C974 C 0.28726 0.12698 0.68383 0.0
C975 C 0.21566 0.13862 0.63216 0.0
C976 C 0.26428 0.09532 0.59828 0.0
C977 C 0.25563 0.07667 0.6068 0.0
C978 C 0.2633 0.11381 0.61504 0.0
C979 C 0.25378 0.11339 0.64108 0.0
C980 C 0.2458 0.09435 0.65031 0.0
C981 C 0.24661 0.0762 0.63283 0.0
C982 C 0.27166 0.13393 0.60437 0.0
C983 C 0.23594 0.09327 0.67825 0.0
H984 H 0.27715 0.1632 0.71091 0.0
H985 H 0.21649 0.17246 0.66853 0.0
H986 H 0.28327 0.11104 0.69032 0.0
H987 H 0.29532 0.12511 0.66393 0.0
H988 H 0.29828 0.13436 0.70057 0.0
H989 H 0.20267 0.15014 0.63106 0.0
H990 H 0.22189 0.13692 0.61091 0.0
H991 H 0.20926 0.12314 0.63709 0.0
H992 H 0.27098 0.09563 0.5779 0.0
H993 H 0.23997 0.06167 0.63928 0.0
H994 H 0.28319 0.14123 0.62047 0.0
H995 H 0.2587 0.14526 0.60087 0.0
H996 H 0.27925 0.1314 0.58414 0.0
H997 H 0.24673 0.09992 0.69579 0.0
H998 H 0.23187 0.07696 0.6832 0.0
H999 H 0.2215 0.10284 0.67763 0.0
C1000 C 0.836 0.25793 0.65093 0.0
C1001 C 0.83721 0.2496 0.6781 0.0
C1002 C 0.85347 0.25808 0.63474 0.0
C1003 C 0.87254 0.24939 0.64577 0.0
C1004 C 0.87383 0.2407 0.67297 0.0
C1005 C 0.85622 0.24107 0.68888 0.0
C1006 C 0.85154 0.26765 0.60591 0.0
C1007 C 0.89385 0.23111 0.68533 0.0
C1008 C 0.91244 0.23304 0.59378 0.0
C1009 C 0.92685 0.24968 0.59721 0.0
C1010 C 0.89478 0.23267 0.60956 0.0
C1011 C 0.89122 0.24952 0.62894 0.0
C1012 C 0.90554 0.26645 0.63235 0.0
C1013 C 0.92325 0.26625 0.61663 0.0
C1014 C 0.87995 0.21425 0.60553 0.0
C1015 C 0.90216 0.2848 0.65262 0.0
H1016 H 0.82133 0.26424 0.64216 0.0
H1017 H 0.85747 0.23492 0.71001 0.0
H1018 H 0.86309 0.28053 0.6053 0.0
H1019 H 0.8551 0.25573 0.58926 0.0
H1020 H 0.83567 0.27399 0.60055 0.0
H1021 H 0.89208 0.22441 0.70639 0.0
H1022 H 0.89905 0.2185 0.67067 0.0
H1023 H 0.9064 0.24314 0.68774 0.0
H1024 H 0.91482 0.22034 0.57849 0.0
H1025 H 0.93441 0.27902 0.61982 0.0
H1026 H 0.86415 0.21968 0.59799 0.0
H1027 H 0.8785 0.2068 0.62614 0.0
H1028 H 0.88517 0.20221 0.59001 0.0
H1029 H 0.88675 0.29207 0.64711 0.0
H1030 H 0.91448 0.29699 0.65226 0.0
H1031 H 0.90197 0.27931 0.6746 0.0
C1032 C 0.75325 0.86815 0.70718 0.0
C1033 C 0.76642 0.85212 0.69816 0.0
C1034 C 0.75116 0.8868 0.69254 0.0
C1035 C 0.76255 0.88938 0.66842 0.0
C1036 C 0.7764 0.87352 0.6598 0.0
C1037 C 0.77815 0.85504 0.67479 0.0
C1038 C 0.73621 0.90338 0.70222 0.0
C1039 C 0.78891 0.87582 0.63425 0.0
C1040 C 0.74239 0.92423 0.6096 0.0
C1041 C 0.7557 0.94163 0.61419 0.0
C1042 C 0.74392 0.90743 0.62782 0.0
C1043 C 0.75918 0.90807 0.65109 0.0
C1044 C 0.77207 0.92596 0.65655 0.0
C1045 C 0.77016 0.94258 0.638 0.0
C1046 C 0.72987 0.88859 0.6214 0.0
C1047 C 0.78843 0.92718 0.68129 0.0
H1048 H 0.744 0.8658 0.72509 0.0
H1049 H 0.78854 0.84273 0.66806 0.0
H1050 H 0.74414 0.91885 0.70483 0.0
H1051 H 0.72302 0.90488 0.68583 0.0
H1052 H 0.72976 0.89965 0.72262 0.0
H1053 H 0.79977 0.8625 0.63128 0.0
H1054 H 0.77817 0.87677 0.61479 0.0
H1055 H 0.79813 0.89058 0.63644 0.0
H1056 H 0.73136 0.92332 0.59104 0.0
H1057 H 0.78027 0.95616 0.6418 0.0
H1058 H 0.72194 0.88456 0.64056 0.0
H1059 H 0.73938 0.87484 0.61538 0.0
H1060 H 0.71778 0.89125 0.60381 0.0
H1061 H 0.78136 0.92366 0.70129 0.0
H1062 H 0.79603 0.94285 0.68388 0.0
H1063 H 0.80066 0.91523 0.67802 0.0
C1064 C 0.86607 0.76734 0.68679 0.0
C1065 C 0.84647 0.75971 0.67567 0.0
C1066 C 0.88307 0.76823 0.66977 0.0
C1067 C 0.88062 0.76083 0.64107 0.0
C1068 C 0.86097 0.75304 0.6297 0.0
C1069 C 0.84411 0.75283 0.64698 0.0
C1070 C 0.90368 0.77699 0.68256 0.0
C1071 C 0.8578 0.74472 0.59931 0.0
C1072 C 0.91864 0.7777 0.58817 0.0
C1073 C 0.9324 0.76059 0.58755 0.0
C1074 C 0.90201 0.77819 0.60591 0.0
C1075 C 0.89869 0.76094 0.62301 0.0
C1076 C 0.91244 0.74362 0.62252 0.0
C1077 C 0.92924 0.74377 0.60512 0.0
C1078 C 0.8879 0.79711 0.60619 0.0
C1079 C 0.90926 0.72479 0.64013 0.0
H1080 H 0.8683 0.77238 0.70897 0.0
H1081 H 0.82901 0.74733 0.63786 0.0
H1082 H 0.91583 0.76465 0.68238 0.0
H1083 H 0.90888 0.78989 0.66963 0.0
H1084 H 0.90274 0.78307 0.70477 0.0
H1085 H 0.84165 0.73881 0.59385 0.0
H1086 H 0.86109 0.75722 0.58458 0.0
H1087 H 0.86892 0.73176 0.59563 0.0
H1088 H 0.9206 0.79065 0.57442 0.0
H1089 H 0.93994 0.73065 0.60539 0.0
H1090 H 0.8872 0.80355 0.62825 0.0
H1091 H 0.87177 0.79249 0.59831 0.0
H1092 H 0.89324 0.8097 0.59281 0.0
H1093 H 0.90997 0.72959 0.663 0.0
H1094 H 0.92115 0.71243 0.63703 0.0
H1095 H 0.89353 0.71794 0.63446 0.0
C1096 C 0.23522 0.87123 0.66657 0.0
C1097 C 0.24914 0.85448 0.66254 0.0
C1098 C 0.23445 0.88868 0.64905 0.0
C1099 C 0.24846 0.8901 0.62739 0.0
C1100 C 0.26277 0.87353 0.62339 0.0
C1101 C 0.26266 0.85588 0.6405 0.0
C1102 C 0.21853 0.90564 0.6537 0.0
C1103 C 0.27837 0.87451 0.60109 0.0
C1104 C 0.23662 0.92622 0.56519 0.0
C1105 C 0.24786 0.94443 0.57424 0.0
C1106 C 0.23633 0.90866 0.58242 0.0
C1107 C 0.24821 0.9089 0.60903 0.0
C1108 C 0.25987 0.92716 0.61804 0.0
C1109 C 0.25923 0.94478 0.60085 0.0
C1110 C 0.22312 0.8899 0.57224 0.0
C1111 C 0.27328 0.92802 0.64574 0.0
H1112 H 0.22494 0.87097 0.68369 0.0
H1113 H 0.2732 0.84311 0.63627 0.0
H1114 H 0.22658 0.92058 0.66045 0.0
H1115 H 0.20909 0.90838 0.63352 0.0
H1116 H 0.20781 0.90163 0.67009 0.0
H1117 H 0.28925 0.86097 0.60164 0.0
H1118 H 0.27006 0.87476 0.57965 0.0
H1119 H 0.28766 0.88919 0.60424 0.0
H1120 H 0.22785 0.9258 0.54463 0.0
H1121 H 0.26785 0.95884 0.60806 0.0
H1122 H 0.21211 0.88617 0.58839 0.0
H1123 H 0.2332 0.87598 0.56947 0.0
H1124 H 0.21399 0.89253 0.55176 0.0
H1125 H 0.26338 0.92625 0.66375 0.0
H1126 H 0.28215 0.94297 0.64912 0.0
H1127 H 0.28453 0.91482 0.64614 0.0
C1128 C 0.13632 0.23367 0.69807 0.0
C1129 C 0.14994 0.25091 0.70042 0.0
C1130 C 0.11854 0.23339 0.67881 0.0
C1131 C 0.11415 0.25091 0.66186 0.0
C1132 C 0.12772 0.26849 0.66447 0.0
C1133 C 0.14556 0.26821 0.68357 0.0
C1134 C 0.10462 0.21423 0.6763 0.0
C1135 C 0.12339 0.28759 0.64708 0.0
C1136 C 0.07976 0.24367 0.59313 0.0
C1137 C 0.06043 0.25071 0.60149 0.0
C1138 C 0.09735 0.24346 0.61265 0.0
C1139 C 0.09554 0.25074 0.64107 0.0
C1140 C 0.07598 0.25793 0.64954 0.0
C1141 C 0.05857 0.25761 0.62966 0.0
C1142 C 0.11784 0.2354 0.60289 0.0
C1143 C 0.0735 0.26606 0.67953 0.0
H1144 H 0.13981 0.22022 0.71093 0.0
H1145 H 0.15599 0.28163 0.6856 0.0
H1146 H 0.08847 0.21862 0.68095 0.0
H1147 H 0.10386 0.20753 0.65421 0.0
H1148 H 0.11023 0.2019 0.69099 0.0
H1149 H 0.13514 0.30021 0.65226 0.0
H1150 H 0.12336 0.28323 0.62412 0.0
H1151 H 0.10767 0.29389 0.6508 0.0
H1152 H 0.08105 0.23826 0.57128 0.0
H1153 H 0.0435 0.26289 0.63601 0.0
H1154 H 0.12352 0.22227 0.61612 0.0
H1155 H 0.12984 0.24797 0.60563 0.0
H1156 H 0.11648 0.22983 0.58025 0.0
H1157 H 0.07762 0.25362 0.69473 0.0
H1158 H 0.05731 0.27139 0.68255 0.0
H1159 H 0.08438 0.27937 0.68495 0.0
C1160 C 0.7389 0.15768 0.64949 0.0
C1161 C 0.75457 0.1616 0.67142 0.0
C1162 C 0.73922 0.13947 0.63166 0.0
C1163 C 0.75588 0.12499 0.63535 0.0
C1164 C 0.77193 0.12908 0.65719 0.0
C1165 C 0.77096 0.14717 0.67512 0.0
C1166 C 0.72155 0.13559 0.60911 0.0
C1167 C 0.79021 0.11438 0.66155 0.0
C1168 C 0.74803 0.06838 0.60702 0.0
C1169 C 0.75682 0.06874 0.58074 0.0
C1170 C 0.74746 0.08655 0.62483 0.0
C1171 C 0.75639 0.1055 0.61657 0.0
C1172 C 0.76566 0.1058 0.59025 0.0
C1173 C 0.76554 0.08751 0.57254 0.0
C1174 C 0.73707 0.08553 0.65237 0.0
C1175 C 0.77574 0.12545 0.58079 0.0
H1176 H 0.7261 0.16866 0.64667 0.0
H1177 H 0.78322 0.1502 0.69185 0.0
H1178 H 0.72773 0.13449 0.5878 0.0
H1179 H 0.71386 0.1204 0.61243 0.0
H1180 H 0.7096 0.14817 0.60922 0.0
H1181 H 0.80178 0.12012 0.67879 0.0
H1182 H 0.78461 0.09868 0.66689 0.0
H1183 H 0.79821 0.11238 0.64159 0.0
H1184 H 0.74134 0.05387 0.61344 0.0
H1185 H 0.77229 0.08784 0.55221 0.0
H1186 H 0.72427 0.0972 0.65276 0.0
H1187 H 0.74849 0.08959 0.67056 0.0
H1188 H 0.73049 0.06975 0.65547 0.0
H1189 H 0.76391 0.13804 0.57829 0.0
H1190 H 0.78301 0.1229 0.56033 0.0
H1191 H 0.78793 0.13113 0.59722 0.0
C1192 C 0.85906 0.26453 0.37076 0.0
C1193 C 0.85454 0.24751 0.35168 0.0
C1194 C 0.87742 0.26496 0.3889 0.0
C1195 C 0.89129 0.24772 0.38836 0.0
C1196 C 0.88667 0.2304 0.36927 0.0
C1197 C 0.86842 0.23062 0.35089 0.0
C1198 C 0.88202 0.28389 0.40853 0.0
C1199 C 0.90085 0.21155 0.3685 0.0
C1200 C 0.9476 0.25562 0.4179 0.0
C1201 C 0.9468 0.24869 0.44555 0.0
C1202 C 0.9296 0.25554 0.39907 0.0
C1203 C 0.91056 0.24778 0.40795 0.0
C1204 C 0.90986 0.2403 0.43572 0.0
C1205 C 0.92798 0.24104 0.4543 0.0
C1206 C 0.93088 0.26398 0.36982 0.0
C1207 C 0.88998 0.23151 0.44579 0.0
H1208 H 0.84836 0.27766 0.37113 0.0
H1209 H 0.86479 0.21742 0.33621 0.0
H1210 H 0.88291 0.27921 0.43096 0.0
H1211 H 0.89744 0.29064 0.40465 0.0
H1212 H 0.86995 0.29626 0.4057 0.0
H1213 H 0.89483 0.19923 0.35274 0.0
H1214 H 0.91665 0.21635 0.36315 0.0
H1215 H 0.90261 0.20471 0.3898 0.0
H1216 H 0.9623 0.26131 0.41117 0.0
H1217 H 0.92752 0.23558 0.47571 0.0
H1218 H 0.91965 0.27706 0.36667 0.0
H1219 H 0.92645 0.25159 0.35337 0.0
H1220 H 0.9468 0.26976 0.3664 0.0
H1221 H 0.87774 0.24379 0.44558 0.0
H1222 H 0.89228 0.22559 0.46762 0.0
H1223 H 0.88402 0.21849 0.43115 0.0
C1224 C 0.76864 0.86115 0.35904 0.0
C1225 C 0.75245 0.84642 0.35952 0.0
C1226 C 0.76957 0.87916 0.37733 0.0
C1227 C 0.75361 0.8829 0.39609 0.0
C1228 C 0.73715 0.8681 0.39649 0.0
C1229 C 0.73692 0.84994 0.37851 0.0
C1230 C 0.7877 0.89416 0.37663 0.0
C1231 C 0.71954 0.87164 0.41557 0.0
C1232 C 0.76347 0.92055 0.46076 0.0
C1233 C 0.75481 0.93929 0.45073 0.0
C1234 C 0.76345 0.90221 0.44315 0.0
C1235 C 0.75403 0.90239 0.41501 0.0
C1236 C 0.74503 0.92125 0.40493 0.0
C1237 C 0.74581 0.9395 0.42274 0.0
C1238 C 0.77368 0.88267 0.45463 0.0
C1239 C 0.73442 0.92213 0.37538 0.0
H1240 H 0.78076 0.85843 0.34455 0.0
H1241 H 0.72428 0.83869 0.37878 0.0
H1242 H 0.78192 0.90973 0.37 0.0
H1243 H 0.79568 0.89637 0.39821 0.0
H1244 H 0.79931 0.88856 0.36179 0.0
H1245 H 0.70773 0.85885 0.41309 0.0
H1246 H 0.72581 0.87283 0.43811 0.0
H1247 H 0.71166 0.8867 0.41074 0.0
H1248 H 0.7704 0.92031 0.4824 0.0
H1249 H 0.73918 0.95398 0.41489 0.0
H1250 H 0.78591 0.87721 0.44069 0.0
H1251 H 0.76196 0.8699 0.45465 0.0
H1252 H 0.78094 0.88528 0.47659 0.0
H1253 H 0.7458 0.91846 0.35938 0.0
H1254 H 0.7275 0.93776 0.3711 0.0
H1255 H 0.72184 0.91014 0.37239 0.0
C1256 C 0.14278 0.73904 0.323 0.0
C1257 C 0.15613 0.75637 0.32263 0.0
C1258 C 0.12635 0.73904 0.34103 0.0
C1259 C 0.12355 0.75661 0.3596 0.0
C1260 C 0.13714 0.77409 0.35943 0.0
C1261 C 0.15313 0.77386 0.34068 0.0
C1262 C 0.11193 0.72029 0.34013 0.0
C1263 C 0.13497 0.79292 0.37932 0.0
C1264 C 0.07087 0.76554 0.38989 0.0
C1265 C 0.07413 0.75684 0.41666 0.0
C1266 C 0.08673 0.76534 0.37096 0.0
C1267 C 0.10646 0.75665 0.37928 0.0
C1268 C 0.10988 0.74803 0.40644 0.0
C1269 C 0.09358 0.74802 0.42468 0.0
C1270 C 0.08234 0.77428 0.34198 0.0
C1271 C 0.13081 0.73902 0.41634 0.0
H1272 H 0.14505 0.72557 0.30888 0.0
H1273 H 0.1636 0.78718 0.34054 0.0
H1274 H 0.1128 0.71307 0.36118 0.0
H1275 H 0.09552 0.72532 0.3354 0.0
H1276 H 0.11583 0.70818 0.32387 0.0
H1277 H 0.14703 0.80507 0.37687 0.0
H1278 H 0.11931 0.80005 0.37535 0.0
H1279 H 0.13628 0.78799 0.40166 0.0
H1280 H 0.05577 0.77223 0.38363 0.0
H1281 H 0.09614 0.74147 0.4455 0.0
H1282 H 0.08516 0.76218 0.32522 0.0
H1283 H 0.09313 0.78753 0.33937 0.0
H1284 H 0.06601 0.77996 0.33852 0.0
H1285 H 0.13481 0.72577 0.40188 0.0
H1286 H 0.13103 0.73332 0.4383 0.0
H1287 H 0.14319 0.75109 0.41567 0.0
C1288 C 0.26588 0.15553 0.38191 0.0
C1289 C 0.24957 0.15948 0.3613 0.0
C1290 C 0.2655 0.13784 0.39891 0.0
C1291 C 0.24814 0.12395 0.39585 0.0
C1292 C 0.23145 0.12811 0.37539 0.0
C1293 C 0.2325 0.14561 0.35817 0.0
C1294 C 0.28387 0.13384 0.41988 0.0
C1295 C 0.21239 0.11412 0.3718 0.0
C1296 C 0.25425 0.06769 0.4208 0.0
C1297 C 0.24684 0.06922 0.44801 0.0
C1298 C 0.25498 0.08535 0.40382 0.0
C1299 C 0.24753 0.10499 0.41382 0.0
C1300 C 0.23959 0.10648 0.44107 0.0
C1301 C 0.23961 0.0887 0.45793 0.0
C1302 C 0.26401 0.08301 0.37528 0.0
C1303 C 0.23101 0.12687 0.45242 0.0
H1304 H 0.2792 0.16606 0.3843 0.0
H1305 H 0.21976 0.14865 0.34247 0.0
H1306 H 0.27866 0.13373 0.44173 0.0
H1307 H 0.29058 0.11818 0.41521 0.0
H1308 H 0.29636 0.14584 0.41933 0.0
H1309 H 0.2004 0.11991 0.35579 0.0
H1310 H 0.21694 0.09803 0.36512 0.0
H1311 H 0.20529 0.11305 0.39241 0.0
H1312 H 0.25976 0.05266 0.41297 0.0
H1313 H 0.23391 0.08998 0.47896 0.0
H1314 H 0.27721 0.09414 0.37435 0.0
H1315 H 0.25203 0.08696 0.35816 0.0
H1316 H 0.2697 0.06686 0.3709 0.0
H1317 H 0.2435 0.13896 0.45464 0.0
H1318 H 0.22456 0.12525 0.47341 0.0
H1319 H 0.21847 0.13266 0.43723 0.0
C1320 C 0.6731 0.74216 0.87684 0.0
C1321 C 0.67077 0.7464 0.84787 0.0
C1322 C 0.65564 0.74115 0.89299 0.0
C1323 C 0.63544 0.74489 0.87996 0.0
C1324 C 0.63304 0.74923 0.8507 0.0
C1325 C 0.65072 0.74973 0.83495 0.0
C1326 C 0.65882 0.7361 0.92399 0.0
C1327 C 0.61183 0.7537 0.83615 0.0
C1328 C 0.58723 0.72634 0.91416 0.0
C1329 C 0.58101 0.7447 0.92856 0.0
C1330 C 0.60509 0.72608 0.89867 0.0
C1331 C 0.61685 0.74471 0.89704 0.0
C1332 C 0.6107 0.76327 0.91145 0.0
C1333 C 0.59304 0.76299 0.92724 0.0
C1334 C 0.6113 0.7059 0.88389 0.0
C1335 C 0.62271 0.78352 0.91002 0.0
H1336 H 0.68859 0.7394 0.88677 0.0
H1337 H 0.64894 0.7532 0.8126 0.0
H1338 H 0.65345 0.74939 0.93737 0.0
H1339 H 0.64928 0.72222 0.92824 0.0
H1340 H 0.67544 0.73285 0.93064 0.0
H1341 H 0.61262 0.75675 0.81326 0.0
H1342 H 0.60116 0.74024 0.83808 0.0
H1343 H 0.60484 0.76755 0.84668 0.0
H1344 H 0.57797 0.71219 0.91462 0.0
H1345 H 0.58874 0.77715 0.93873 0.0
H1346 H 0.62768 0.70191 0.89085 0.0
H1347 H 0.61058 0.70784 0.8606 0.0
H1348 H 0.60105 0.69256 0.88825 0.0
H1349 H 0.63908 0.78146 0.91874 0.0
H1350 H 0.61567 0.79668 0.92203 0.0
H1351 H 0.62322 0.78786 0.88755 0.0
C1352 C 0.24115 0.6597 0.84346 0.0
C1353 C 0.25816 0.6736 0.84386 0.0
C1354 C 0.24172 0.64213 0.86073 0.0
C1355 C 0.25961 0.63837 0.87934 0.0
C1356 C 0.27681 0.65241 0.87994 0.0
C1357 C 0.27594 0.66968 0.8621 0.0
C1358 C 0.22315 0.62749 0.85895 0.0
C1359 C 0.29608 0.64929 0.89967 0.0
C1360 C 0.2527 0.60381 0.94261 0.0
C1361 C 0.26095 0.58453 0.93349 0.0
C1362 C 0.25242 0.62144 0.92545 0.0
C1363 C 0.26029 0.61983 0.89817 0.0
C1364 C 0.26859 0.60038 0.88882 0.0
C1365 C 0.26896 0.58309 0.9066 0.0
C1366 C 0.24373 0.64186 0.93657 0.0
C1367 C 0.27686 0.59776 0.85983 0.0
H1368 H 0.22743 0.66241 0.82926 0.0
H1369 H 0.28909 0.68041 0.86283 0.0
H1370 H 0.22813 0.61133 0.85316 0.0
H1371 H 0.2166 0.62696 0.87998 0.0
H1372 H 0.21059 0.63231 0.84305 0.0
H1373 H 0.30804 0.66166 0.89785 0.0
H1374 H 0.29177 0.64934 0.92199 0.0
H1375 H 0.30315 0.63381 0.89495 0.0
H1376 H 0.2467 0.60521 0.96344 0.0
H1377 H 0.27516 0.56825 0.89918 0.0
H1378 H 0.23012 0.64666 0.92243 0.0
H1379 H 0.25569 0.65442 0.93658 0.0
H1380 H 0.23871 0.64075 0.95847 0.0
H1381 H 0.26434 0.60124 0.84318 0.0
H1382 H 0.28275 0.58166 0.85562 0.0
H1383 H 0.28975 0.60907 0.85785 0.0
C1384 C 0.35313 0.27541 0.88211 0.0
C1385 C 0.33959 0.25822 0.88244 0.0
C1386 C 0.3728 0.2754 0.89727 0.0
C1387 C 0.37917 0.25761 0.91267 0.0
C1388 C 0.36549 0.24024 0.91318 0.0
C1389 C 0.34576 0.24083 0.89823 0.0
C1390 C 0.3868 0.29437 0.89665 0.0
C1391 C 0.37187 0.22087 0.92902 0.0
C1392 C 0.43759 0.25005 0.9278 0.0
C1393 C 0.44044 0.25682 0.95635 0.0
C1394 C 0.41763 0.24984 0.91345 0.0
C1395 C 0.40029 0.25707 0.9279 0.0
C1396 C 0.40319 0.26409 0.95674 0.0
C1397 C 0.42327 0.26375 0.97068 0.0
C1398 C 0.41511 0.24201 0.88281 0.0
C1399 C 0.38517 0.27222 0.97272 0.0
H1400 H 0.34827 0.28892 0.87005 0.0
H1401 H 0.33535 0.22745 0.89822 0.0
H1402 H 0.39133 0.30033 0.91864 0.0
H1403 H 0.40139 0.28996 0.88676 0.0
H1404 H 0.37917 0.30725 0.88459 0.0
H1405 H 0.35935 0.20876 0.92745 0.0
H1406 H 0.38606 0.21398 0.92038 0.0
H1407 H 0.37589 0.22505 0.95178 0.0
H1408 H 0.45103 0.24498 0.91675 0.0
H1409 H 0.42566 0.26913 0.99275 0.0
H1410 H 0.40925 0.25483 0.86915 0.0
H1411 H 0.40337 0.22918 0.88027 0.0
H1412 H 0.43003 0.23613 0.87504 0.0
H1413 H 0.37799 0.28588 0.96192 0.0
H1414 H 0.39009 0.27706 0.99507 0.0
H1415 H 0.3729 0.25998 0.97276 0.0
C1416 C 0.72808 0.34997 0.87552 0.0
C1417 C 0.74493 0.34664 0.85862 0.0
C1418 C 0.72685 0.36823 0.89306 0.0
C1419 C 0.74313 0.38336 0.89435 0.0
C1420 C 0.76034 0.37987 0.87764 0.0
C1421 C 0.7609 0.36173 0.85975 0.0
C1422 C 0.70797 0.37148 0.90993 0.0
C1423 C 0.77828 0.39526 0.87879 0.0
C1424 C 0.73328 0.43992 0.91955 0.0
C1425 C 0.74092 0.43993 0.94817 0.0
C1426 C 0.73351 0.42158 0.902 0.0
C1427 C 0.74214 0.40285 0.91306 0.0
C1428 C 0.75006 0.40286 0.94193 0.0
C1429 C 0.74909 0.42129 0.95919 0.0
C1430 C 0.72447 0.42224 0.87161 0.0
C1431 C 0.75982 0.38348 0.95452 0.0
H1432 H 0.7156 0.33844 0.87455 0.0
H1433 H 0.77404 0.35916 0.84692 0.0
H1434 H 0.71287 0.37276 0.93296 0.0
H1435 H 0.70016 0.3864 0.90421 0.0
H1436 H 0.69646 0.35849 0.90617 0.0
H1437 H 0.79084 0.38995 0.86527 0.0
H1438 H 0.77258 0.41073 0.87166 0.0
H1439 H 0.78507 0.39757 0.90102 0.0
H1440 H 0.72702 0.45432 0.91095 0.0
H1441 H 0.75496 0.42123 0.98132 0.0
H1442 H 0.71227 0.40996 0.86737 0.0
H1443 H 0.73685 0.41886 0.85694 0.0
H1444 H 0.71746 0.43771 0.86662 0.0
H1445 H 0.74825 0.3705 0.95311 0.0
H1446 H 0.76564 0.38615 0.97712 0.0
H1447 H 0.77307 0.37827 0.94221 0.0
C1448 C 0.64771 0.24553 0.17897 0.0
C1449 C 0.66219 0.2618 0.17743 0.0
C1450 C 0.62857 0.24547 0.16252 0.0
C1451 C 0.62368 0.26228 0.14449 0.0
C1452 C 0.63817 0.27889 0.14313 0.0
C1453 C 0.65737 0.27835 0.15944 0.0
C1454 C 0.61369 0.22729 0.16417 0.0
C1455 C 0.63336 0.29724 0.12449 0.0
C1456 C 0.58313 0.25347 0.08238 0.0
C1457 C 0.56525 0.26205 0.09343 0.0
C1458 C 0.60226 0.25336 0.09883 0.0
C1459 C 0.60351 0.26233 0.12681 0.0
C1460 C 0.58544 0.27112 0.13797 0.0
C1461 C 0.56642 0.27064 0.1212 0.0
C1462 C 0.62108 0.24351 0.08635 0.0
C1463 C 0.58622 0.28104 0.16756 0.0
H1464 H 0.65155 0.23261 0.19267 0.0
H1465 H 0.66853 0.29101 0.15844 0.0
H1466 H 0.59852 0.23302 0.17116 0.0
H1467 H 0.61053 0.21961 0.1428 0.0
H1468 H 0.61992 0.21538 0.1791 0.0
H1469 H 0.64604 0.30917 0.12646 0.0
H1470 H 0.631 0.29169 0.10193 0.0
H1471 H 0.61862 0.30483 0.13019 0.0
H1472 H 0.58206 0.24676 0.06087 0.0
H1473 H 0.55245 0.27709 0.12968 0.0
H1474 H 0.62722 0.23072 0.09987 0.0
H1475 H 0.63372 0.25532 0.08594 0.0
H1476 H 0.61739 0.23698 0.06441 0.0
H1477 H 0.59094 0.26922 0.18341 0.0
H1478 H 0.57092 0.28774 0.17271 0.0
H1479 H 0.59814 0.29371 0.16979 0.0
C1480 C 0.7263 0.6615 0.14353 0.0
C1481 C 0.74303 0.66476 0.16417 0.0
C1482 C 0.7251 0.64331 0.12554 0.0
C1483 C 0.74117 0.62809 0.12784 0.0
C1484 C 0.75826 0.63148 0.14835 0.0
C1485 C 0.75889 0.64962 0.16635 0.0
C1486 C 0.70644 0.64024 0.10434 0.0
C1487 C 0.77593 0.61592 0.15127 0.0
C1488 C 0.73071 0.57154 0.10063 0.0
C1489 C 0.73914 0.57125 0.07408 0.0
C1490 C 0.7309 0.58998 0.11805 0.0
C1491 C 0.7401 0.60855 0.10899 0.0
C1492 C 0.74864 0.60828 0.08213 0.0
C1493 C 0.74789 0.58971 0.06495 0.0
C1494 C 0.72135 0.58955 0.14626 0.0
C1495 C 0.75888 0.62753 0.07173 0.0
H1496 H 0.71388 0.67299 0.14187 0.0
H1497 H 0.77199 0.6521 0.182 0.0
H1498 H 0.71166 0.63864 0.0825 0.0
H1499 H 0.69817 0.62553 0.10845 0.0
H1500 H 0.69522 0.65346 0.10522 0.0
H1501 H 0.78838 0.6211 0.16768 0.0
H1502 H 0.76987 0.6005 0.15704 0.0
H1503 H 0.78298 0.61354 0.13065 0.0
H1504 H 0.72402 0.55726 0.10779 0.0
H1505 H 0.75441 0.58951 0.04442 0.0
H1506 H 0.70933 0.60197 0.14755 0.0
H1507 H 0.73353 0.59287 0.16379 0.0
H1508 H 0.71401 0.57418 0.14968 0.0
H1509 H 0.74759 0.64069 0.07071 0.0
H1510 H 0.76476 0.62479 0.05038 0.0
H1511 H 0.77216 0.63252 0.08689 0.0
C1512 C 0.34543 0.73565 0.1498 0.0
C1513 C 0.33334 0.75391 0.15209 0.0
C1514 C 0.36342 0.73525 0.13461 0.0
C1515 C 0.36928 0.75338 0.12076 0.0
C1516 C 0.35708 0.77177 0.12264 0.0
C1517 C 0.33943 0.77189 0.13853 0.0
C1518 C 0.37618 0.7154 0.13341 0.0
C1519 C 0.36263 0.79133 0.1078 0.0
C1520 C 0.4255 0.759 0.10167 0.0
C1521 C 0.42406 0.75181 0.0732 0.0
C1522 C 0.40782 0.75948 0.11748 0.0
C1523 C 0.38817 0.75307 0.10425 0.0
C1524 C 0.3866 0.74619 0.07528 0.0
C1525 C 0.40464 0.74541 0.0602 0.0
C1526 C 0.41021 0.7665 0.14845 0.0
C1527 C 0.36588 0.73971 0.06022 0.0
H1528 H 0.34074 0.72153 0.15965 0.0
H1529 H 0.33053 0.78622 0.1405 0.0
H1530 H 0.37643 0.70941 0.11109 0.0
H1531 H 0.39259 0.71874 0.14142 0.0
H1532 H 0.36993 0.70289 0.14616 0.0
H1533 H 0.35113 0.80412 0.11057 0.0
H1534 H 0.37829 0.79707 0.11619 0.0
H1535 H 0.36342 0.78772 0.08474 0.0
H1536 H 0.44059 0.7638 0.11172 0.0
H1537 H 0.40355 0.74002 0.03808 0.0
H1538 H 0.40508 0.75378 0.16174 0.0
H1539 H 0.40007 0.78023 0.15226 0.0
H1540 H 0.42659 0.77081 0.1556 0.0
H1541 H 0.35949 0.72603 0.07052 0.0
H1542 H 0.36722 0.7355 0.03738 0.0
H1543 H 0.35444 0.75265 0.06187 0.0
C1544 C 0.24687 0.33745 0.15246 0.0
C1545 C 0.25798 0.33779 0.17932 0.0
C1546 C 0.24744 0.35457 0.13449 0.0
C1547 C 0.25943 0.37264 0.14337 0.0
C1548 C 0.27077 0.37305 0.17036 0.0
C1549 C 0.26989 0.35573 0.18793 0.0
C1550 C 0.23499 0.35341 0.10605 0.0
C1551 C 0.28388 0.39184 0.18071 0.0
C1552 C 0.27526 0.41011 0.08708 0.0
C1553 C 0.26062 0.42639 0.08917 0.0
C1554 C 0.27509 0.39264 0.10451 0.0
C1555 C 0.25988 0.39119 0.12464 0.0
C1556 C 0.24506 0.40752 0.12686 0.0
C1557 C 0.24564 0.42484 0.10926 0.0
C1558 C 0.29119 0.37565 0.1013 0.0
C1559 C 0.22856 0.40674 0.14795 0.0
H1560 H 0.23739 0.32388 0.14562 0.0
H1561 H 0.2788 0.35615 0.20837 0.0
H1562 H 0.22327 0.36619 0.10502 0.0
H1563 H 0.24546 0.35569 0.08877 0.0
H1564 H 0.22672 0.33817 0.10199 0.0
H1565 H 0.29193 0.38971 0.20207 0.0
H1566 H 0.29583 0.39484 0.16554 0.0
H1567 H 0.2739 0.406 0.18171 0.0
H1568 H 0.28674 0.41085 0.07146 0.0
H1569 H 0.23443 0.43737 0.11156 0.0
H1570 H 0.28331 0.36048 0.09531 0.0
H1571 H 0.30038 0.37365 0.12188 0.0
H1572 H 0.30214 0.37916 0.08496 0.0
H1573 H 0.21901 0.3923 0.14393 0.0
H1574 H 0.218 0.42053 0.14691 0.0
H1575 H 0.23609 0.40612 0.16984 0.0
C1576 C 0.36119 0.26492 0.19827 0.0
C1577 C 0.34261 0.25529 0.18674 0.0
C1578 C 0.37867 0.26634 0.18229 0.0
C1579 C 0.3777 0.25763 0.15422 0.0
C1580 C 0.35907 0.24783 0.14244 0.0
C1581 C 0.34172 0.24691 0.15875 0.0
C1582 C 0.39822 0.27707 0.19549 0.0
C1583 C 0.35749 0.2382 0.11263 0.0
C1584 C 0.41618 0.27567 0.1028 0.0
C1585 C 0.43108 0.25956 0.10407 0.0
C1586 C 0.3989 0.27541 0.11932 0.0
C1587 C 0.39628 0.2585 0.13727 0.0
C1588 C 0.41127 0.24225 0.13879 0.0
C1589 C 0.42856 0.24307 0.12236 0.0
C1590 C 0.38333 0.29313 0.11735 0.0
C1591 C 0.40894 0.22388 0.15753 0.0
H1592 H 0.3622 0.27115 0.22 0.0
H1593 H 0.32736 0.23976 0.14944 0.0
H1594 H 0.41137 0.26579 0.19665 0.0
H1595 H 0.40271 0.28997 0.18205 0.0
H1596 H 0.39621 0.28365 0.21723 0.0
H1597 H 0.34194 0.23099 0.1067 0.0
H1598 H 0.36039 0.25032 0.09717 0.0
H1599 H 0.36964 0.22598 0.11066 0.0
H1600 H 0.41779 0.28832 0.08845 0.0
H1601 H 0.44015 0.23074 0.12392 0.0
H1602 H 0.38155 0.30033 0.13878 0.0
H1603 H 0.36778 0.28698 0.10911 0.0
H1604 H 0.38806 0.30552 0.10321 0.0
H1605 H 0.40838 0.22949 0.17998 0.0
H1606 H 0.42194 0.21248 0.15622 0.0
H1607 H 0.39399 0.2156 0.15131 0.0
C1608 C 0.72844 0.35876 0.18409 0.0
C1609 C 0.74796 0.3488 0.1867 0.0
C1610 C 0.7258 0.3775 0.16973 0.0
C1611 C 0.74294 0.38613 0.15702 0.0
C1612 C 0.7627 0.3763 0.15971 0.0
C1613 C 0.76504 0.35793 0.17488 0.0
C1614 C 0.70459 0.38782 0.16769 0.0
C1615 C 0.78125 0.38489 0.14597 0.0
C1616 C 0.73219 0.41989 0.09357 0.0
C1617 C 0.73733 0.43981 0.10537 0.0
C1618 C 0.7337 0.40226 0.11029 0.0
C1619 C 0.74003 0.40483 0.13959 0.0
C1620 C 0.74452 0.42509 0.15179 0.0
C1621 C 0.74342 0.4424 0.13434 0.0
C1622 C 0.72929 0.38084 0.09641 0.0
C1623 C 0.7508 0.42841 0.18309 0.0
H1624 H 0.71506 0.35172 0.19276 0.0
H1625 H 0.78029 0.35067 0.17735 0.0
H1626 H 0.70605 0.40461 0.17457 0.0
H1627 H 0.69798 0.38717 0.14528 0.0
H1628 H 0.69341 0.38014 0.18088 0.0
H1629 H 0.79556 0.37537 0.15018 0.0
H1630 H 0.77766 0.38528 0.12263 0.0
H1631 H 0.78456 0.40122 0.15386 0.0
H1632 H 0.72769 0.41805 0.071 0.0
H1633 H 0.74736 0.45794 0.14323 0.0
H1634 H 0.71696 0.37278 0.10716 0.0
H1635 H 0.74357 0.37105 0.09861 0.0
H1636 H 0.7242 0.38165 0.07346 0.0
H1637 H 0.73919 0.42098 0.19583 0.0
H1638 H 0.75214 0.4453 0.18958 0.0
H1639 H 0.76607 0.42081 0.18835 0.0
C1640 C 0.64977 0.76092 0.14566 0.0
C1641 C 0.65269 0.74808 0.16917 0.0
C1642 C 0.63093 0.76075 0.12862 0.0
C1643 C 0.61491 0.74662 0.13422 0.0
C1644 C 0.61789 0.73309 0.15718 0.0
C1645 C 0.63651 0.73433 0.17476 0.0
C1646 C 0.6281 0.77585 0.10476 0.0
C1647 C 0.60143 0.71727 0.16315 0.0
C1648 C 0.55935 0.75793 0.10577 0.0
C1649 C 0.5583 0.74683 0.07957 0.0
C1650 C 0.57778 0.75815 0.12375 0.0
C1651 C 0.59507 0.74605 0.11592 0.0
C1652 C 0.59366 0.73396 0.09009 0.0
C1653 C 0.57542 0.73487 0.07191 0.0
C1654 C 0.57896 0.77183 0.15062 0.0
C1655 C 0.61143 0.72017 0.08156 0.0
H1656 H 0.66222 0.77118 0.14038 0.0
H1657 H 0.63819 0.72459 0.19306 0.0
H1658 H 0.62631 0.76706 0.08401 0.0
H1659 H 0.61364 0.78514 0.10683 0.0
H1660 H 0.64151 0.78684 0.10448 0.0
H1661 H 0.60681 0.70681 0.18048 0.0
H1662 H 0.58711 0.72546 0.16924 0.0
H1663 H 0.59704 0.70747 0.14369 0.0
H1664 H 0.54592 0.7669 0.11179 0.0
H1665 H 0.57448 0.72619 0.05166 0.0
H1666 H 0.59194 0.78329 0.15026 0.0
H1667 H 0.58236 0.76217 0.16941 0.0
H1668 H 0.56423 0.78058 0.15332 0.0
H1669 H 0.62504 0.72999 0.07742 0.0
H1670 H 0.60705 0.71026 0.06217 0.0
H1671 H 0.61652 0.70981 0.09911 0.0
C1672 C 0.28275 0.6539 0.1488 0.0
C1673 C 0.26551 0.65696 0.16492 0.0
C1674 C 0.28562 0.63475 0.13413 0.0
C1675 C 0.27057 0.61864 0.13516 0.0
C1676 C 0.25329 0.62161 0.1518 0.0
C1677 C 0.25109 0.64072 0.16677 0.0
C1678 C 0.30445 0.6319 0.11706 0.0
C1679 C 0.23669 0.60493 0.15289 0.0
C1680 C 0.26251 0.57948 0.07331 0.0
C1681 C 0.27123 0.5614 0.08503 0.0
C1682 C 0.2626 0.59839 0.08925 0.0
C1683 C 0.27201 0.59919 0.11737 0.0
C1684 C 0.28155 0.58109 0.12892 0.0
C1685 C 0.28078 0.56223 0.11266 0.0
C1686 C 0.25193 0.61726 0.0764 0.0
C1687 C 0.29204 0.58153 0.15864 0.0
H1688 H 0.29392 0.66654 0.14764 0.0
H1689 H 0.23769 0.64329 0.17912 0.0
H1690 H 0.31274 0.61722 0.12274 0.0
H1691 H 0.29936 0.63045 0.09409 0.0
H1692 H 0.3156 0.64523 0.12053 0.0
H1693 H 0.22455 0.60954 0.16748 0.0
H1694 H 0.22897 0.60182 0.13131 0.0
H1695 H 0.24387 0.59002 0.15994 0.0
H1696 H 0.2551 0.57861 0.05187 0.0
H1697 H 0.28733 0.54806 0.12161 0.0
H1698 H 0.26292 0.63072 0.07725 0.0
H1699 H 0.23862 0.62202 0.08889 0.0
H1700 H 0.24593 0.61412 0.05395 0.0
H1701 H 0.30331 0.59476 0.16162 0.0
H1702 H 0.30045 0.56671 0.16337 0.0
H1703 H 0.28018 0.58407 0.17432 0.0
C1704 C 0.35972 0.77231 0.85201 0.0
C1705 C 0.34456 0.75646 0.85031 0.0
C1706 C 0.37839 0.77029 0.86905 0.0
C1707 C 0.3821 0.75175 0.88417 0.0
C1708 C 0.3667 0.73577 0.88271 0.0
C1709 C 0.34795 0.73843 0.86597 0.0
C1710 C 0.39426 0.78785 0.87057 0.0
C1711 C 0.37029 0.71566 0.89816 0.0
C1712 C 0.43924 0.73965 0.90238 0.0
C1713 C 0.44165 0.74617 0.93103 0.0
C1714 C 0.41968 0.74065 0.88712 0.0
C1715 C 0.4024 0.74892 0.90076 0.0
C1716 C 0.40481 0.75545 0.92981 0.0
C1717 C 0.42445 0.75387 0.94467 0.0
C1718 C 0.41763 0.73326 0.85628 0.0
C1719 C 0.38685 0.7647 0.94492 0.0
H1720 H 0.35693 0.78629 0.83996 0.0
H1721 H 0.3362 0.72614 0.86437 0.0
H1722 H 0.39844 0.79283 0.89306 0.0
H1723 H 0.40879 0.78229 0.86147 0.0
H1724 H 0.38843 0.80171 0.85886 0.0
H1725 H 0.35653 0.70501 0.89537 0.0
H1726 H 0.38399 0.70735 0.89018 0.0
H1727 H 0.37391 0.71913 0.9212 0.0
H1728 H 0.45272 0.73402 0.89188 0.0
H1729 H 0.42654 0.75904 0.96686 0.0
H1730 H 0.41388 0.74674 0.84266 0.0
H1731 H 0.40459 0.72184 0.85249 0.0
H1732 H 0.43217 0.72579 0.84951 0.0
H1733 H 0.38169 0.77946 0.9349 0.0
H1734 H 0.39113 0.76817 0.96786 0.0
H1735 H 0.37331 0.7538 0.94288 0.0
C1736 C 0.26456 0.34828 0.90892 0.0
C1737 C 0.24584 0.3393 0.89695 0.0
C1738 C 0.26485 0.3684 0.92181 0.0
C1739 C 0.24593 0.37969 0.92281 0.0
C1740 C 0.2268 0.37016 0.9125 0.0
C1741 C 0.22698 0.35003 0.8996 0.0
C1742 C 0.28555 0.37804 0.93277 0.0
C1743 C 0.20633 0.38171 0.91343 0.0
C1744 C 0.24692 0.42953 0.96904 0.0
C1745 C 0.25006 0.44456 0.949 0.0
C1746 C 0.2451 0.40826 0.9608 0.0
C1747 C 0.2465 0.40214 0.93189 0.0
C1748 C 0.24925 0.41746 0.91153 0.0
C1749 C 0.25097 0.4386 0.9204 0.0
C1750 C 0.24214 0.39236 0.98302 0.0
C1751 C 0.25085 0.41149 0.88052 0.0
H1752 H 0.27911 0.33984 0.90728 0.0
H1753 H 0.21249 0.34319 0.89019 0.0
H1754 H 0.28938 0.39107 0.91914 0.0
H1755 H 0.28463 0.38476 0.95464 0.0
H1756 H 0.2985 0.36649 0.93289 0.0
H1757 H 0.19268 0.37124 0.90781 0.0
H1758 H 0.20479 0.38898 0.93488 0.0
H1759 H 0.20589 0.39455 0.89821 0.0
H1760 H 0.24627 0.43445 0.9912 0.0
H1761 H 0.2534 0.45048 0.90515 0.0
H1762 H 0.25571 0.38159 0.98448 0.0
H1763 H 0.22806 0.38267 0.97687 0.0
H1764 H 0.24049 0.39985 0.00436 0.0
H1765 H 0.26464 0.40126 0.87812 0.0
H1766 H 0.25238 0.42539 0.86737 0.0
H1767 H 0.23683 0.40243 0.8721 0.0
C1768 C 0.64756 0.24235 0.85049 0.0
C1769 C 0.66154 0.25926 0.85112 0.0
C1770 C 0.63052 0.24281 0.86744 0.0
C1771 C 0.62761 0.26047 0.88577 0.0
C1772 C 0.64169 0.27761 0.88645 0.0
C1773 C 0.65841 0.27687 0.86891 0.0
C1774 C 0.61567 0.22437 0.8658 0.0
C1775 C 0.63928 0.29657 0.90603 0.0
C1776 C 0.57403 0.26942 0.91317 0.0
C1777 C 0.57652 0.26057 0.93992 0.0
C1778 C 0.59053 0.26949 0.89528 0.0
C1779 C 0.61005 0.2608 0.9046 0.0
C1780 C 0.61271 0.25212 0.93178 0.0
C1781 C 0.59585 0.25197 0.94903 0.0
C1782 C 0.587 0.2786 0.86628 0.0
C1783 C 0.63337 0.243 0.94265 0.0
H1784 H 0.64988 0.22882 0.83651 0.0
H1785 H 0.66934 0.28986 0.86957 0.0
H1786 H 0.61587 0.21714 0.8868 0.0
H1787 H 0.59947 0.22973 0.86036 0.0
H1788 H 0.61973 0.21217 0.84974 0.0
H1789 H 0.6515 0.30862 0.90388 0.0
H1790 H 0.62372 0.30378 0.90151 0.0
H1791 H 0.64017 0.29175 0.92842 0.0
H1792 H 0.55902 0.27593 0.90604 0.0
H1793 H 0.59785 0.24534 0.96985 0.0
H1794 H 0.58979 0.26641 0.84961 0.0
H1795 H 0.59828 0.2915 0.86411 0.0
H1796 H 0.57091 0.28477 0.86226 0.0
H1797 H 0.63757 0.22963 0.92852 0.0
H1798 H 0.63304 0.23744 0.96461 0.0
H1799 H 0.64592 0.25494 0.94238 0.0
C1800 C 0.72995 0.65306 0.84795 0.0
C1801 C 0.74297 0.65471 0.82563 0.0
C1802 C 0.72915 0.63455 0.86277 0.0
C1803 C 0.74169 0.61734 0.855 0.0
C1804 C 0.75404 0.61853 0.83154 0.0
C1805 C 0.75454 0.63727 0.81708 0.0
C1806 C 0.71568 0.63379 0.88759 0.0
C1807 C 0.76756 0.60045 0.82269 0.0
C1808 C 0.75834 0.58282 0.91576 0.0
C1809 C 0.74391 0.56631 0.91154 0.0
C1810 C 0.75824 0.59915 0.89685 0.0
C1811 C 0.74332 0.59897 0.8732 0.0
C1812 C 0.72919 0.58199 0.86821 0.0
C1813 C 0.72964 0.56582 0.88752 0.0
C1814 C 0.77355 0.61706 0.90286 0.0
C1815 C 0.71316 0.58127 0.84309 0.0
H1816 H 0.72074 0.66645 0.85424 0.0
H1817 H 0.76471 0.63858 0.79992 0.0
H1818 H 0.70556 0.61964 0.88554 0.0
H1819 H 0.72578 0.63272 0.90763 0.0
H1820 H 0.70562 0.64787 0.88937 0.0
H1821 H 0.7743 0.60299 0.80211 0.0
H1822 H 0.78058 0.5984 0.83918 0.0
H1823 H 0.75842 0.58564 0.82084 0.0
H1824 H 0.7692 0.58341 0.93451 0.0
H1825 H 0.71864 0.55292 0.88404 0.0
H1826 H 0.76494 0.63168 0.90767 0.0
H1827 H 0.78223 0.61975 0.88389 0.0
H1828 H 0.785 0.61413 0.92111 0.0
H1829 H 0.70175 0.59415 0.8455 0.0
H1830 H 0.70451 0.56615 0.84094 0.0
H1831 H 0.72079 0.58372 0.82317 0.0
loop_
_geom_bond_atom_site_label_1
_geom_bond_atom_site_label_2
_geom_bond_distance
_geom_bond_site_symmetry_2
_ccdc_geom_bond_type
H0 C19 0.949 . S
H1 C20 0.950 . S
H2 C22 0.950 . S
H3 C23 0.950 . S
H4 C25 0.950 . S
H5 C28 0.950 . S
H6 C29 0.950 . S
H7 C31 0.951 . S
H8 C32 0.949 . S
H9 C34 0.949 . S
H10 C35 0.950 . S
H11 C37 0.950 . S
H12 C38 0.950 . S
H13 C40 0.950 . S
H14 C43 0.950 . S
H15 C44 0.950 . S
H16 C46 0.951 . S
H17 C47 0.949 . S
C18 C19 1.376 . S
C18 C23 1.386 . S
C18 C24 1.483 . S
C19 H0 0.949 . S
C19 C18 1.376 . S
C19 C20 1.397 . S
C20 H1 0.950 . S
C20 C19 1.397 . S
C20 C21 1.391 . S
C21 C20 1.391 . S
C21 C22 1.405 . S
C22 H2 0.950 . S
C22 C21 1.405 . S
C22 C23 1.367 . S
C23 H3 0.950 . S
C23 C18 1.386 . S
C23 C22 1.367 . S
C24 C18 1.483 . S
C24 C25 1.382 . S
C24 C26 1.403 . S
C25 H4 0.950 . S
C25 C24 1.382 . S
C25 C41 1.411 . S
C26 C24 1.403 . S
C26 C27 1.489 . S
C26 C40 1.411 . S
C27 C26 1.489 . S
C27 C28 1.383 . S
C27 C32 1.382 . S
C28 H5 0.950 . S
C28 C27 1.383 . S
C28 C29 1.395 . S
C29 H6 0.950 . S
C29 C28 1.395 . S
C29 C30 1.288 . S
C30 C29 1.288 . S
C30 C31 1.392 . S
C31 H7 0.951 . S
C31 C30 1.392 . S
C31 C32 1.392 . S
C32 H8 0.949 . S
C32 C27 1.382 . S
C32 C31 1.392 . S
C33 C34 1.376 . S
C33 C38 1.386 . S
C33 C39 1.483 . S
C34 H9 0.949 . S
C34 C33 1.376 . S
C34 C35 1.397 . S
C35 H10 0.950 . S
C35 C34 1.397 . S
C35 C36 1.391 . S
C36 C35 1.391 . S
C36 C37 1.405 . S
C37 H11 0.950 . S
C37 C36 1.405 . S
C37 C38 1.367 . S
C38 H12 0.950 . S
C38 C33 1.386 . S
C38 C37 1.367 . S
C39 C33 1.483 . S
C39 C40 1.382 . S
C39 C41 1.403 . S
C40 H13 0.950 . S
C40 C26 1.411 . S
C40 C39 1.382 . S
C41 C25 1.411 . S
C41 C39 1.403 . S
C41 C42 1.489 . S
C42 C41 1.489 . S
C42 C43 1.383 . S
C42 C47 1.382 . S
C43 H14 0.950 . S
C43 C42 1.383 . S
C43 C44 1.395 . S
C44 H15 0.950 . S
C44 C43 1.395 . S
C44 C45 1.288 . S
C45 C44 1.288 . S
C45 C46 1.392 . S
C46 H16 0.951 . S
C46 C45 1.392 . S
C46 C47 1.392 . S
C47 H17 0.949 . S
C47 C42 1.382 . S
C47 C46 1.392 . S
H48 C67 0.949 . S
H49 C68 0.950 . S
H50 C70 0.950 . S
H51 C71 0.950 . S
H52 C73 0.950 . S
H53 C76 0.950 . S
H54 C77 0.950 . S
H55 C79 0.951 . S
H56 C80 0.949 . S
H57 C82 0.949 . S
H58 C83 0.950 . S
H59 C85 0.950 . S
H60 C86 0.950 . S
H61 C88 0.950 . S
H62 C91 0.950 . S
H63 C92 0.950 . S
H64 C94 0.951 . S
H65 C95 0.949 . S
C66 C67 1.376 . S
C66 C71 1.386 . S
C66 C72 1.483 . S
C67 H48 0.949 . S
C67 C66 1.376 . S
C67 C68 1.397 . S
C68 H49 0.950 . S
C68 C67 1.397 . S
C68 C69 1.391 . S
C69 C68 1.391 . S
C69 C70 1.405 . S
C70 H50 0.950 . S
C70 C69 1.405 . S
C70 C71 1.367 . S
C71 H51 0.950 . S
C71 C66 1.386 . S
C71 C70 1.367 . S
C72 C66 1.483 . S
C72 C73 1.382 . S
C72 C74 1.403 . S
C73 H52 0.950 . S
C73 C72 1.382 . S
C73 C89 1.411 . S
C74 C72 1.403 . S
C74 C75 1.489 . S
C74 C88 1.411 . S
C75 C74 1.489 . S
C75 C76 1.383 . S
C75 C80 1.382 . S
C76 H53 0.950 . S
C76 C75 1.383 . S
C76 C77 1.395 . S
C77 H54 0.950 . S
C77 C76 1.395 . S
C77 C78 1.288 . S
C78 C77 1.288 . S
C78 C79 1.392 . S
C79 H55 0.951 . S
C79 C78 1.392 . S
C79 C80 1.392 . S
C80 H56 0.949 . S
C80 C75 1.382 . S
C80 C79 1.392 . S
C81 C82 1.376 . S
C81 C86 1.386 . S
C81 C87 1.483 . S
C82 H57 0.949 . S
C82 C81 1.376 . S
C82 C83 1.397 . S
C83 H58 0.950 . S
C83 C82 1.397 . S
C83 C84 1.391 . S
C84 C83 1.391 . S
C84 C85 1.405 . S
C85 H59 0.950 . S
C85 C84 1.405 . S
C85 C86 1.367 . S
C86 H60 0.950 . S
C86 C81 1.386 . S
C86 C85 1.367 . S
C87 C81 1.483 . S
C87 C88 1.382 . S
C87 C89 1.403 . S
C88 H61 0.950 . S
C88 C74 1.411 . S
C88 C87 1.382 . S
C89 C73 1.411 . S
C89 C87 1.403 . S
C89 C90 1.489 . S
C90 C89 1.489 . S
C90 C91 1.383 . S
C90 C95 1.382 . S
C91 H62 0.950 . S
C91 C90 1.383 . S
C91 C92 1.395 . S
C92 H63 0.950 . S
C92 C91 1.395 . S
C92 C93 1.288 . S
C93 C92 1.288 . S
C93 C94 1.392 . S
C94 H64 0.951 . S
C94 C93 1.392 . S
C94 C95 1.392 . S
C95 H65 0.949 . S
C95 C90 1.382 . S
C95 C94 1.392 . S
H96 C115 0.949 . S
H97 C116 0.950 . S
H98 C118 0.950 . S
H99 C119 0.950 . S
H100 C121 0.950 . S
H101 C124 0.950 . S
H102 C125 0.950 . S
H103 C127 0.951 . S
H104 C128 0.949 . S
H105 C130 0.949 . S
H106 C131 0.950 . S
H107 C133 0.950 . S
H108 C134 0.950 . S
H109 C136 0.950 . S
H110 C139 0.950 . S
H111 C140 0.950 . S
H112 C142 0.951 . S
H113 C143 0.949 . S
C114 C115 1.376 . S
C114 C119 1.386 . S
C114 C120 1.483 . S
C115 H96 0.949 . S
C115 C114 1.376 . S
C115 C116 1.397 . S
C116 H97 0.950 . S
C116 C115 1.397 . S
C116 C117 1.391 . S
C117 C116 1.391 . S
C117 C118 1.405 . S
C118 H98 0.950 . S
C118 C117 1.405 . S
C118 C119 1.367 . S
C119 H99 0.950 . S
C119 C114 1.386 . S
C119 C118 1.367 . S
C120 C114 1.483 . S
C120 C121 1.382 . S
C120 C122 1.403 . S
C121 H100 0.950 . S
C121 C120 1.382 . S
C121 C137 1.411 . S
C122 C120 1.403 . S
C122 C123 1.489 . S
C122 C136 1.411 . S
C123 C122 1.489 . S
C123 C124 1.383 . S
C123 C128 1.382 . S
C124 H101 0.950 . S
C124 C123 1.383 . S
C124 C125 1.395 . S
C125 H102 0.950 . S
C125 C124 1.395 . S
C125 C126 1.288 . S
C126 C125 1.288 . S
C126 C127 1.392 . S
C127 H103 0.951 . S
C127 C126 1.392 . S
C127 C128 1.392 . S
C128 H104 0.949 . S
C128 C123 1.382 . S
C128 C127 1.392 . S
C129 C130 1.376 . S
C129 C134 1.386 . S
C129 C135 1.483 . S
C130 H105 0.949 . S
C130 C129 1.376 . S
C130 C131 1.397 . S
C131 H106 0.950 . S
C131 C130 1.397 . S
C131 C132 1.391 . S
C132 C131 1.391 . S
C132 C133 1.405 . S
C133 H107 0.950 . S
C133 C132 1.405 . S
C133 C134 1.367 . S
C134 H108 0.950 . S
C134 C129 1.386 . S
C134 C133 1.367 . S
C135 C129 1.483 . S
C135 C136 1.382 . S
C135 C137 1.403 . S
C136 H109 0.950 . S
C136 C122 1.411 . S
C136 C135 1.382 . S
C137 C121 1.411 . S
C137 C135 1.403 . S
C137 C138 1.489 . S
C138 C137 1.489 . S
C138 C139 1.383 . S
C138 C143 1.382 . S
C139 H110 0.950 . S
C139 C138 1.383 . S
C139 C140 1.395 . S
C140 H111 0.950 . S
C140 C139 1.395 . S
C140 C141 1.288 . S
C141 C140 1.288 . S
C141 C142 1.392 . S
C142 H112 0.951 . S
C142 C141 1.392 . S
C142 C143 1.392 . S
C143 H113 0.949 . S
C143 C138 1.382 . S
C143 C142 1.392 . S
H144 C163 0.949 . S
H145 C164 0.950 . S
H146 C166 0.950 . S
H147 C167 0.950 . S
H148 C169 0.950 . S
H149 C172 0.950 . S
H150 C173 0.950 . S
H151 C175 0.951 . S
H152 C176 0.949 . S
H153 C178 0.949 . S
H154 C179 0.950 . S
H155 C181 0.950 . S
H156 C182 0.950 . S
H157 C184 0.950 . S
H158 C187 0.950 . S
H159 C188 0.950 . S
H160 C190 0.951 . S
H161 C191 0.949 . S
C162 C163 1.376 . S
C162 C167 1.386 . S
C162 C168 1.483 . S
C163 H144 0.949 . S
C163 C162 1.376 . S
C163 C164 1.397 . S
C164 H145 0.950 . S
C164 C163 1.397 . S
C164 C165 1.391 . S
C165 C164 1.391 . S
C165 C166 1.405 . S
C166 H146 0.950 . S
C166 C165 1.405 . S
C166 C167 1.367 . S
C167 H147 0.950 . S
C167 C162 1.386 . S
C167 C166 1.367 . S
C168 C162 1.483 . S
C168 C169 1.382 . S
C168 C170 1.403 . S
C169 H148 0.950 . S
C169 C168 1.382 . S
C169 C185 1.411 . S
C170 C168 1.403 . S
C170 C171 1.489 . S
C170 C184 1.411 . S
C171 C170 1.489 . S
C171 C172 1.383 . S
C171 C176 1.382 . S
C172 H149 0.950 . S
C172 C171 1.383 . S
C172 C173 1.395 . S
C173 H150 0.950 . S
C173 C172 1.395 . S
C173 C174 1.288 . S
C174 C173 1.288 . S
C174 C175 1.392 . S
C175 H151 0.951 . S
C175 C174 1.392 . S
C175 C176 1.392 . S
C176 H152 0.949 . S
C176 C171 1.382 . S
C176 C175 1.392 . S
C177 C178 1.376 . S
C177 C182 1.386 . S
C177 C183 1.483 . S
C178 H153 0.949 . S
C178 C177 1.376 . S
C178 C179 1.397 . S
C179 H154 0.950 . S
C179 C178 1.397 . S
C179 C180 1.391 . S
C180 C179 1.391 . S
C180 C181 1.405 . S
C181 H155 0.950 . S
C181 C180 1.405 . S
C181 C182 1.367 . S
C182 H156 0.950 . S
C182 C177 1.386 . S
C182 C181 1.367 . S
C183 C177 1.483 . S
C183 C184 1.382 . S
C183 C185 1.403 . S
C184 H157 0.950 . S
C184 C170 1.411 . S
C184 C183 1.382 . S
C185 C169 1.411 . S
C185 C183 1.403 . S
C185 C186 1.489 . S
C186 C185 1.489 . S
C186 C187 1.383 . S
C186 C191 1.382 . S
C187 H158 0.950 . S
C187 C186 1.383 . S
C187 C188 1.395 . S
C188 H159 0.950 . S
C188 C187 1.395 . S
C188 C189 1.288 . S
C189 C188 1.288 . S
C189 C190 1.392 . S
C190 H160 0.951 . S
C190 C189 1.392 . S
C190 C191 1.392 . S
C191 H161 0.949 . S
C191 C186 1.382 . S
C191 C190 1.392 . S
H192 C211 0.949 . S
H193 C212 0.950 . S
H194 C214 0.950 . S
H195 C215 0.950 . S
H196 C217 0.950 . S
H197 C220 0.950 . S
H198 C221 0.950 . S
H199 C223 0.951 . S
H200 C224 0.949 . S
H201 C226 0.949 . S
H202 C227 0.950 . S
H203 C229 0.950 . S
H204 C230 0.950 . S
H205 C232 0.950 . S
H206 C235 0.950 . S
H207 C236 0.950 . S
H208 C238 0.951 . S
H209 C239 0.949 . S
C210 C211 1.376 . S
C210 C215 1.386 . S
C210 C216 1.483 . S
C211 H192 0.949 . S
C211 C210 1.376 . S
C211 C212 1.397 . S
C212 H193 0.950 . S
C212 C211 1.397 . S
C212 C213 1.391 . S
C213 C212 1.391 . S
C213 C214 1.405 . S
C214 H194 0.950 . S
C214 C213 1.405 . S
C214 C215 1.367 . S
C215 H195 0.950 . S
C215 C210 1.386 . S
C215 C214 1.367 . S
C216 C210 1.483 . S
C216 C217 1.382 . S
C216 C218 1.403 . S
C217 H196 0.950 . S
C217 C216 1.382 . S
C217 C233 1.411 . S
C218 C216 1.403 . S
C218 C219 1.489 . S
C218 C232 1.411 . S
C219 C218 1.489 . S
C219 C220 1.383 . S
C219 C224 1.382 . S
C220 H197 0.950 . S
C220 C219 1.383 . S
C220 C221 1.395 . S
C221 H198 0.950 . S
C221 C220 1.395 . S
C221 C222 1.288 . S
C222 C221 1.288 . S
C222 C223 1.392 . S
C223 H199 0.951 . S
C223 C222 1.392 . S
C223 C224 1.392 . S
C224 H200 0.949 . S
C224 C219 1.382 . S
C224 C223 1.392 . S
C225 C226 1.376 . S
C225 C230 1.386 . S
C225 C231 1.483 . S
C226 H201 0.949 . S
C226 C225 1.376 . S
C226 C227 1.397 . S
C227 H202 0.950 . S
C227 C226 1.397 . S
C227 C228 1.391 . S
C228 C227 1.391 . S
C228 C229 1.405 . S
C229 H203 0.950 . S
C229 C228 1.405 . S
C229 C230 1.367 . S
C230 H204 0.950 . S
C230 C225 1.386 . S
C230 C229 1.367 . S
C231 C225 1.483 . S
C231 C232 1.382 . S
C231 C233 1.403 . S
C232 H205 0.950 . S
C232 C218 1.411 . S
C232 C231 1.382 . S
C233 C217 1.411 . S
C233 C231 1.403 . S
C233 C234 1.489 . S
C234 C233 1.489 . S
C234 C235 1.383 . S
C234 C239 1.382 . S
C235 H206 0.950 . S
C235 C234 1.383 . S
C235 C236 1.395 . S
C236 H207 0.950 . S
C236 C235 1.395 . S
C236 C237 1.288 . S
C237 C236 1.288 . S
C237 C238 1.392 . S
C238 H208 0.951 . S
C238 C237 1.392 . S
C238 C239 1.392 . S
C239 H209 0.949 . S
C239 C234 1.382 . S
C239 C238 1.392 . S
H240 C259 0.949 . S
H241 C260 0.950 . S
H242 C262 0.950 . S
H243 C263 0.950 . S
H244 C265 0.950 . S
H245 C268 0.950 . S
H246 C269 0.950 . S
H247 C271 0.951 . S
H248 C272 0.949 . S
H249 C274 0.949 . S
H250 C275 0.950 . S
H251 C277 0.950 . S
H252 C278 0.950 . S
H253 C280 0.950 . S
H254 C283 0.950 . S
H255 C284 0.950 . S
H256 C286 0.951 . S
H257 C287 0.949 . S
C258 C259 1.376 . S
C258 C263 1.386 . S
C258 C264 1.483 . S
C259 H240 0.949 . S
C259 C258 1.376 . S
C259 C260 1.397 . S
C260 H241 0.950 . S
C260 C259 1.397 . S
C260 C261 1.391 . S
C261 C260 1.391 . S
C261 C262 1.405 . S
C262 H242 0.950 . S
C262 C261 1.405 . S
C262 C263 1.367 . S
C263 H243 0.950 . S
C263 C258 1.386 . S
C263 C262 1.367 . S
C264 C258 1.483 . S
C264 C265 1.382 . S
C264 C266 1.403 . S
C265 H244 0.950 . S
C265 C264 1.382 . S
C265 C281 1.411 . S
C266 C264 1.403 . S
C266 C267 1.489 . S
C266 C280 1.411 . S
C267 C266 1.489 . S
C267 C268 1.383 . S
C267 C272 1.382 . S
C268 H245 0.950 . S
C268 C267 1.383 . S
C268 C269 1.395 . S
C269 H246 0.950 . S
C269 C268 1.395 . S
C269 C270 1.288 . S
C270 C269 1.288 . S
C270 C271 1.392 . S
C271 H247 0.951 . S
C271 C270 1.392 . S
C271 C272 1.392 . S
C272 H248 0.949 . S
C272 C267 1.382 . S
C272 C271 1.392 . S
C273 C274 1.376 . S
C273 C278 1.386 . S
C273 C279 1.483 . S
C274 H249 0.949 . S
C274 C273 1.376 . S
C274 C275 1.397 . S
C275 H250 0.950 . S
C275 C274 1.397 . S
C275 C276 1.391 . S
C276 C275 1.391 . S
C276 C277 1.405 . S
C277 H251 0.950 . S
C277 C276 1.405 . S
C277 C278 1.367 . S
C278 H252 0.950 . S
C278 C273 1.386 . S
C278 C277 1.367 . S
C279 C273 1.483 . S
C279 C280 1.382 . S
C279 C281 1.403 . S
C280 H253 0.950 . S
C280 C266 1.411 . S
C280 C279 1.382 . S
C281 C265 1.411 . S
C281 C279 1.403 . S
C281 C282 1.489 . S
C282 C281 1.489 . S
C282 C283 1.383 . S
C282 C287 1.382 . S
C283 H254 0.950 . S
C283 C282 1.383 . S
C283 C284 1.395 . S
C284 H255 0.950 . S
C284 C283 1.395 . S
C284 C285 1.288 . S
C285 C284 1.288 . S
C285 C286 1.392 . S
C286 H256 0.951 . S
C286 C285 1.392 . S
C286 C287 1.392 . S
C287 H257 0.949 . S
C287 C282 1.382 . S
C287 C286 1.392 . S
H288 C307 0.949 . S
H289 C308 0.950 . S
H290 C310 0.950 . S
H291 C311 0.950 . S
H292 C313 0.950 . S
H293 C316 0.950 . S
H294 C317 0.950 . S
H295 C319 0.951 . S
H296 C320 0.949 . S
H297 C322 0.949 . S
H298 C323 0.950 . S
H299 C325 0.950 . S
H300 C326 0.950 . S
H301 C328 0.950 . S
H302 C331 0.950 . S
H303 C332 0.950 . S
H304 C334 0.951 . S
H305 C335 0.949 . S
C306 C307 1.376 . S
C306 C311 1.386 . S
C306 C312 1.483 . S
C307 H288 0.949 . S
C307 C306 1.376 . S
C307 C308 1.397 . S
C308 H289 0.950 . S
C308 C307 1.397 . S
C308 C309 1.391 . S
C309 C308 1.391 . S
C309 C310 1.405 . S
C310 H290 0.950 . S
C310 C309 1.405 . S
C310 C311 1.367 . S
C311 H291 0.950 . S
C311 C306 1.386 . S
C311 C310 1.367 . S
C312 C306 1.483 . S
C312 C313 1.382 . S
C312 C314 1.403 . S
C313 H292 0.950 . S
C313 C312 1.382 . S
C313 C329 1.411 . S
C314 C312 1.403 . S
C314 C315 1.489 . S
C314 C328 1.411 . S
C315 C314 1.489 . S
C315 C316 1.383 . S
C315 C320 1.382 . S
C316 H293 0.950 . S
C316 C315 1.383 . S
C316 C317 1.395 . S
C317 H294 0.950 . S
C317 C316 1.395 . S
C317 C318 1.288 . S
C318 C317 1.288 . S
C318 C319 1.392 . S
C319 H295 0.951 . S
C319 C318 1.392 . S
C319 C320 1.392 . S
C320 H296 0.949 . S
C320 C315 1.382 . S
C320 C319 1.392 . S
C321 C322 1.376 . S
C321 C326 1.386 . S
C321 C327 1.483 . S
C322 H297 0.949 . S
C322 C321 1.376 . S
C322 C323 1.397 . S
C323 H298 0.950 . S
C323 C322 1.397 . S
C323 C324 1.391 . S
C324 C323 1.391 . S
C324 C325 1.405 . S
C325 H299 0.950 . S
C325 C324 1.405 . S
C325 C326 1.367 . S
C326 H300 0.950 . S
C326 C321 1.386 . S
C326 C325 1.367 . S
C327 C321 1.483 . S
C327 C328 1.382 . S
C327 C329 1.403 . S
C328 H301 0.950 . S
C328 C314 1.411 . S
C328 C327 1.382 . S
C329 C313 1.411 . S
C329 C327 1.403 . S
C329 C330 1.489 . S
C330 C329 1.489 . S
C330 C331 1.383 . S
C330 C335 1.382 . S
C331 H302 0.950 . S
C331 C330 1.383 . S
C331 C332 1.395 . S
C332 H303 0.950 . S
C332 C331 1.395 . S
C332 C333 1.288 . S
C333 C332 1.288 . S
C333 C334 1.392 . S
C334 H304 0.951 . S
C334 C333 1.392 . S
C334 C335 1.392 . S
C335 H305 0.949 . S
C335 C330 1.382 . S
C335 C334 1.392 . S
H336 C355 0.949 . S
H337 C356 0.950 . S
H338 C358 0.950 . S
H339 C359 0.950 . S
H340 C361 0.950 . S
H341 C364 0.950 . S
H342 C365 0.950 . S
H343 C367 0.951 . S
H344 C368 0.949 . S
H345 C370 0.949 . S
H346 C371 0.950 . S
H347 C373 0.950 . S
H348 C374 0.950 . S
H349 C376 0.950 . S
H350 C379 0.950 . S
H351 C380 0.950 . S
H352 C382 0.951 . S
H353 C383 0.949 . S
C354 C355 1.376 . S
C354 C359 1.386 . S
C354 C360 1.483 . S
C355 H336 0.949 . S
C355 C354 1.376 . S
C355 C356 1.397 . S
C356 H337 0.950 . S
C356 C355 1.397 . S
C356 C357 1.391 . S
C357 C356 1.391 . S
C357 C358 1.405 . S
C358 H338 0.950 . S
C358 C357 1.405 . S
C358 C359 1.367 . S
C359 H339 0.950 . S
C359 C354 1.386 . S
C359 C358 1.367 . S
C360 C354 1.483 . S
C360 C361 1.382 . S
C360 C362 1.403 . S
C361 H340 0.950 . S
C361 C360 1.382 . S
C361 C377 1.411 . S
C362 C360 1.403 . S
C362 C363 1.489 . S
C362 C376 1.411 . S
C363 C362 1.489 . S
C363 C364 1.383 . S
C363 C368 1.382 . S
C364 H341 0.950 . S
C364 C363 1.383 . S
C364 C365 1.395 . S
C365 H342 0.950 . S
C365 C364 1.395 . S
C365 C366 1.288 . S
C366 C365 1.288 . S
C366 C367 1.392 . S
C367 H343 0.951 . S
C367 C366 1.392 . S
C367 C368 1.392 . S
C368 H344 0.949 . S
C368 C363 1.382 . S
C368 C367 1.392 . S
C369 C370 1.376 . S
C369 C374 1.386 . S
C369 C375 1.483 . S
C370 H345 0.949 . S
C370 C369 1.376 . S
C370 C371 1.397 . S
C371 H346 0.950 . S
C371 C370 1.397 . S
C371 C372 1.391 . S
C372 C371 1.391 . S
C372 C373 1.405 . S
C373 H347 0.950 . S
C373 C372 1.405 . S
C373 C374 1.367 . S
C374 H348 0.950 . S
C374 C369 1.386 . S
C374 C373 1.367 . S
C375 C369 1.483 . S
C375 C376 1.382 . S
C375 C377 1.403 . S
C376 H349 0.950 . S
C376 C362 1.411 . S
C376 C375 1.382 . S
C377 C361 1.411 . S
C377 C375 1.403 . S
C377 C378 1.489 . S
C378 C377 1.489 . S
C378 C379 1.383 . S
C378 C383 1.382 . S
C379 H350 0.950 . S
C379 C378 1.383 . S
C379 C380 1.395 . S
C380 H351 0.950 . S
C380 C379 1.395 . S
C380 C381 1.288 . S
C381 C380 1.288 . S
C381 C382 1.392 . S
C382 H352 0.951 . S
C382 C381 1.392 . S
C382 C383 1.392 . S
C383 H353 0.949 . S
C383 C378 1.382 . S
C383 C382 1.392 . S
C384 C385 1.443 . S
C384 N388 1.376 . S
C384 C422 1.389 . S
C385 C384 1.443 . S
C385 C386 1.340 . S
C385 H425 0.951 . S
C386 C385 1.340 . S
C386 C387 1.439 . S
C386 H426 0.950 . S
C387 C386 1.439 . S
C387 N388 1.374 . S
C387 C421 1.395 . S
N388 C384 1.376 . S
N388 C387 1.374 . S
N388 Co389 2.008 . S
Co389 N388 2.008 . S
Co389 N390 1.995 1_455 S
Co389 N395 2.008 1_455 S
Co389 N400 1.995 . S
Co389 N405 2.282 1_455 S
Co389 N411 2.282 . S
N390 Co389 1.995 1_655 S
N390 C391 1.376 . S
N390 C394 1.383 . S
C391 N390 1.376 . S
C391 C392 1.446 . S
C391 C421 1.391 1_655 S
C392 C391 1.446 . S
C392 C393 1.339 . S
C392 H427 0.949 . S
C393 C392 1.339 . S
C393 C394 1.439 . S
C393 H428 0.950 . S
C394 N390 1.383 . S
C394 C393 1.439 . S
C394 C423 1.392 . S
N395 Co389 2.008 1_655 S
N395 C396 1.376 . S
N395 C399 1.374 . S
C396 N395 1.376 . S
C396 C397 1.443 . S
C396 C423 1.389 . S
C397 C396 1.443 . S
C397 C398 1.340 . S
C397 H429 0.951 . S
C398 C397 1.340 . S
C398 C399 1.439 . S
C398 H430 0.950 . S
C399 N395 1.374 . S
C399 C398 1.439 . S
C399 C424 1.405 . S
N400 Co389 1.995 . S
N400 C401 1.376 . S
N400 C404 1.383 . S
C401 N400 1.376 . S
C401 C402 1.446 . S
C401 C424 1.380 1_455 S
C402 C401 1.446 . S
C402 C403 1.339 . S
C402 H431 0.949 . S
C403 C402 1.339 . S
C403 C404 1.439 . S
C403 H432 0.950 . S
C404 N400 1.383 . S
C404 C403 1.439 . S
C404 C422 1.392 . S
N405 Co389 2.282 1_655 S
N405 C408 1.332 . S
N405 C410 1.332 . S
C406 C407 1.386 . S
C406 C409 1.388 . S
C407 C406 1.386 . S
C407 C408 1.382 . S
C407 H433 0.950 . S
C408 N405 1.332 . S
C408 C407 1.382 . S
C408 H419 0.952 . S
C409 C406 1.388 . S
C409 C410 1.382 . S
C409 H434 0.950 . S
C410 N405 1.332 . S
C410 C409 1.382 . S
C410 H420 0.948 . S
N411 Co389 2.282 . S
N411 C415 1.332 . S
N411 C416 1.332 . S
C412 C413 1.388 . S
C412 C416 1.382 . S
C412 H435 0.950 . S
C413 C412 1.388 . S
C413 C414 1.386 . S
C414 C413 1.386 . S
C414 C415 1.382 . S
C414 H436 0.950 . S
C415 N411 1.332 . S
C415 C414 1.382 . S
C415 H417 0.952 . S
C416 N411 1.332 . S
C416 C412 1.382 . S
C416 H418 0.948 . S
H417 C415 0.952 . S
H418 C416 0.948 . S
H419 C408 0.952 . S
H420 C410 0.948 . S
C421 C387 1.395 . S
C421 C391 1.391 1_455 S
C422 C384 1.389 . S
C422 C404 1.392 . S
C423 C394 1.392 . S
C423 C396 1.389 . S
C424 C399 1.405 . S
C424 C401 1.380 1_655 S
H425 C385 0.951 . S
H426 C386 0.950 . S
H427 C392 0.949 . S
H428 C393 0.950 . S
H429 C397 0.951 . S
H430 C398 0.950 . S
H431 C402 0.949 . S
H432 C403 0.950 . S
H433 C407 0.950 . S
H434 C409 0.950 . S
H435 C412 0.950 . S
H436 C414 0.950 . S
C437 C438 1.443 . S
C437 N441 1.376 . S
C437 C475 1.389 . S
C438 C437 1.443 . S
C438 C439 1.340 . S
C438 H478 0.951 . S
C439 C438 1.340 . S
C439 C440 1.439 . S
C439 H479 0.950 . S
C440 C439 1.439 . S
C440 N441 1.374 . S
C440 C474 1.395 . S
N441 C437 1.376 . S
N441 C440 1.374 . S
N441 Co442 2.008 . S
Co442 N441 2.008 . S
Co442 N443 1.995 1_545 S
Co442 N448 2.008 1_545 S
Co442 N453 1.995 . S
Co442 N458 2.282 1_545 S
Co442 N464 2.282 . S
N443 Co442 1.995 1_565 S
N443 C444 1.376 . S
N443 C447 1.383 . S
C444 N443 1.376 . S
C444 C445 1.446 . S
C444 C474 1.391 1_565 S
C445 C444 1.446 . S
C445 C446 1.339 . S
C445 H480 0.949 . S
C446 C445 1.339 . S
C446 C447 1.439 . S
C446 H481 0.950 . S
C447 N443 1.383 . S
C447 C446 1.439 . S
C447 C476 1.392 . S
N448 Co442 2.008 1_565 S
N448 C449 1.376 . S
N448 C452 1.374 . S
C449 N448 1.376 . S
C449 C450 1.443 . S
C449 C476 1.389 . S
C450 C449 1.443 . S
C450 C451 1.340 . S
C450 H482 0.951 . S
C451 C450 1.340 . S
C451 C452 1.439 . S
C451 H483 0.950 . S
C452 N448 1.374 . S
C452 C451 1.439 . S
C452 C477 1.397 1_565 S
N453 Co442 1.995 . S
N453 C454 1.376 . S
N453 C457 1.383 . S
C454 N453 1.376 . S
C454 C455 1.446 . S
C454 C477 1.389 . S
C455 C454 1.446 . S
C455 C456 1.339 . S
C455 H484 0.949 . S
C456 C455 1.339 . S
C456 C457 1.439 . S
C456 H485 0.950 . S
C457 N453 1.383 . S
C457 C456 1.439 . S
C457 C475 1.392 . S
N458 Co442 2.282 1_565 S
N458 C461 1.332 . S
N458 C463 1.332 . S
C459 C460 1.386 . S
C459 C462 1.388 . S
C460 C459 1.386 . S
C460 C461 1.382 . S
C460 H486 0.950 . S
C461 N458 1.332 . S
C461 C460 1.382 . S
C461 H472 0.952 . S
C462 C459 1.388 . S
C462 C463 1.382 . S
C462 H487 0.950 . S
C463 N458 1.332 . S
C463 C462 1.382 . S
C463 H473 0.948 . S
N464 Co442 2.282 . S
N464 C468 1.332 . S
N464 C469 1.332 . S
C465 C466 1.388 . S
C465 C469 1.382 . S
C465 H488 0.950 . S
C466 C465 1.388 . S
C466 C467 1.386 . S
C467 C466 1.386 . S
C467 C468 1.382 . S
C467 H489 0.950 . S
C468 N464 1.332 . S
C468 C467 1.382 . S
C468 H470 0.952 . S
C469 N464 1.332 . S
C469 C465 1.382 . S
C469 H471 0.948 . S
H470 C468 0.952 . S
H471 C469 0.948 . S
H472 C461 0.952 . S
H473 C463 0.948 . S
C474 C440 1.395 . S
C474 C444 1.391 1_545 S
C475 C437 1.389 . S
C475 C457 1.392 . S
C476 C447 1.392 . S
C476 C449 1.389 . S
C477 C452 1.397 1_545 S
C477 C454 1.389 . S
H478 C438 0.951 . S
H479 C439 0.950 . S
H480 C445 0.949 . S
H481 C446 0.950 . S
H482 C450 0.951 . S
H483 C451 0.950 . S
H484 C455 0.949 . S
H485 C456 0.950 . S
H486 C460 0.950 . S
H487 C462 0.950 . S
H488 C465 0.950 . S
H489 C467 0.950 . S
C490 C491 1.443 . S
C490 N494 1.376 . S
C490 C528 1.389 . S
C491 C490 1.443 . S
C491 C492 1.340 . S
C491 H531 0.951 . S
C492 C491 1.340 . S
C492 C493 1.439 . S
C492 H532 0.950 . S
C493 C492 1.439 . S
C493 N494 1.374 . S
C493 C527 1.395 . S
N494 C490 1.376 . S
N494 C493 1.374 . S
N494 Co495 2.008 . S
Co495 N494 2.008 . S
Co495 N496 1.995 1_455 S
Co495 N501 2.008 1_455 S
Co495 N506 1.995 . S
Co495 N511 2.282 1_455 S
Co495 N517 2.282 . S
N496 Co495 1.995 1_655 S
N496 C497 1.376 . S
N496 C500 1.383 . S
C497 N496 1.376 . S
C497 C498 1.446 . S
C497 C527 1.391 1_655 S
C498 C497 1.446 . S
C498 C499 1.339 . S
C498 H533 0.949 . S
C499 C498 1.339 . S
C499 C500 1.439 . S
C499 H534 0.950 . S
C500 N496 1.383 . S
C500 C499 1.439 . S
C500 C529 1.392 . S
N501 Co495 2.008 1_655 S
N501 C502 1.376 . S
N501 C505 1.374 . S
C502 N501 1.376 . S
C502 C503 1.443 . S
C502 C529 1.389 . S
C503 C502 1.443 . S
C503 C504 1.340 . S
C503 H535 0.951 . S
C504 C503 1.340 . S
C504 C505 1.439 . S
C504 H536 0.950 . S
C505 N501 1.374 . S
C505 C504 1.439 . S
C505 C530 1.395 . S
N506 Co495 1.995 . S
N506 C507 1.376 . S
N506 C510 1.383 . S
C507 N506 1.376 . S
C507 C508 1.446 . S
C507 C530 1.391 1_455 S
C508 C507 1.446 . S
C508 C509 1.339 . S
C508 H537 0.949 . S
C509 C508 1.339 . S
C509 C510 1.439 . S
C509 H538 0.950 . S
C510 N506 1.383 . S
C510 C509 1.439 . S
C510 C528 1.392 . S
N511 Co495 2.282 1_655 S
N511 C514 1.332 . S
N511 C516 1.332 . S
C512 C513 1.386 . S
C512 C515 1.388 . S
C513 C512 1.386 . S
C513 C514 1.382 . S
C513 H539 0.950 . S
C514 N511 1.332 . S
C514 C513 1.382 . S
C514 H525 0.952 . S
C515 C512 1.388 . S
C515 C516 1.382 . S
C515 H540 0.950 . S
C516 N511 1.332 . S
C516 C515 1.382 . S
C516 H526 0.948 . S
N517 Co495 2.282 . S
N517 C521 1.332 . S
N517 C522 1.332 . S
C518 C519 1.388 . S
C518 C522 1.382 . S
C518 H541 0.950 . S
C519 C518 1.388 . S
C519 C520 1.386 . S
C520 C519 1.386 . S
C520 C521 1.382 . S
C520 H542 0.950 . S
C521 N517 1.332 . S
C521 C520 1.382 . S
C521 H523 0.952 . S
C522 N517 1.332 . S
C522 C518 1.382 . S
C522 H524 0.948 . S
H523 C521 0.952 . S
H524 C522 0.948 . S
H525 C514 0.952 . S
H526 C516 0.948 . S
C527 C493 1.395 . S
C527 C497 1.391 1_455 S
C528 C490 1.389 . S
C528 C510 1.392 . S
C529 C500 1.392 . S
C529 C502 1.389 . S
C530 C505 1.395 . S
C530 C507 1.391 1_655 S
H531 C491 0.951 . S
H532 C492 0.950 . S
H533 C498 0.949 . S
H534 C499 0.950 . S
H535 C503 0.951 . S
H536 C504 0.950 . S
H537 C508 0.949 . S
H538 C509 0.950 . S
H539 C513 0.950 . S
H540 C515 0.950 . S
H541 C518 0.950 . S
H542 C520 0.950 . S
C543 C544 1.443 . S
C543 N547 1.376 . S
C543 C581 1.389 . S
C544 C543 1.443 . S
C544 C545 1.340 . S
C544 H584 0.951 . S
C545 C544 1.340 . S
C545 C546 1.439 . S
C545 H585 0.950 . S
C546 C545 1.439 . S
C546 N547 1.374 . S
C546 C580 1.411 . S
N547 C543 1.376 . S
N547 C546 1.374 . S
N547 Co548 2.008 1_565 S
Co548 N547 2.008 1_545 S
Co548 N549 1.995 . S
Co548 N554 2.008 . S
Co548 N559 1.995 1_545 S
Co548 N564 2.282 . S
Co548 N570 2.282 1_545 S
N549 Co548 1.995 . S
N549 C550 1.376 . S
N549 C553 1.383 . S
C550 N549 1.376 . S
C550 C551 1.446 . S
C550 C580 1.375 1_545 S
C551 C550 1.446 . S
C551 C552 1.339 . S
C551 H586 0.949 . S
C552 C551 1.339 . S
C552 C553 1.439 . S
C552 H587 0.950 . S
C553 N549 1.383 . S
C553 C552 1.439 . S
C553 C582 1.392 . S
N554 Co548 2.008 . S
N554 C555 1.376 . S
N554 C558 1.374 . S
C555 N554 1.376 . S
C555 C556 1.443 . S
C555 C582 1.389 . S
C556 C555 1.443 . S
C556 C557 1.340 . S
C556 H588 0.951 . S
C557 C556 1.340 . S
C557 C558 1.439 . S
C557 H589 0.950 . S
C558 N554 1.374 . S
C558 C557 1.439 . S
C558 C583 1.395 . S
N559 Co548 1.995 1_565 S
N559 C560 1.376 . S
N559 C563 1.383 . S
C560 N559 1.376 . S
C560 C561 1.446 . S
C560 C583 1.391 1_565 S
C561 C560 1.446 . S
C561 C562 1.339 . S
C561 H590 0.949 . S
C562 C561 1.339 . S
C562 C563 1.439 . S
C562 H591 0.950 . S
C563 N559 1.383 . S
C563 C562 1.439 . S
C563 C581 1.392 . S
N564 Co548 2.282 . S
N564 C567 1.332 . S
N564 C569 1.332 . S
C565 C566 1.386 . S
C565 C568 1.388 . S
C566 C565 1.386 . S
C566 C567 1.382 . S
C566 H592 0.950 . S
C567 N564 1.332 . S
C567 C566 1.382 . S
C567 H578 0.952 . S
C568 C565 1.388 . S
C568 C569 1.382 . S
C568 H593 0.950 . S
C569 N564 1.332 . S
C569 C568 1.382 . S
C569 H579 0.948 . S
N570 Co548 2.282 1_565 S
N570 C574 1.332 . S
N570 C575 1.332 . S
C571 C572 1.388 . S
C571 C575 1.382 . S
C571 H594 0.950 . S
C572 C571 1.388 . S
C572 C573 1.386 . S
C573 C572 1.386 . S
C573 C574 1.382 . S
C573 H595 0.950 . S
C574 N570 1.332 . S
C574 C573 1.382 . S
C574 H576 0.952 . S
C575 N570 1.332 . S
C575 C571 1.382 . S
C575 H577 0.948 . S
H576 C574 0.952 . S
H577 C575 0.948 . S
H578 C567 0.952 . S
H579 C569 0.948 . S
C580 C546 1.411 . S
C580 C550 1.375 1_565 S
C581 C543 1.389 . S
C581 C563 1.392 . S
C582 C553 1.392 . S
C582 C555 1.389 . S
C583 C558 1.395 . S
C583 C560 1.391 1_545 S
H584 C544 0.951 . S
H585 C545 0.950 . S
H586 C551 0.949 . S
H587 C552 0.950 . S
H588 C556 0.951 . S
H589 C557 0.950 . S
H590 C561 0.949 . S
H591 C562 0.950 . S
H592 C566 0.950 . S
H593 C568 0.950 . S
H594 C571 0.950 . S
H595 C573 0.950 . S
C596 C597 1.443 . S
C596 N600 1.376 . S
C596 C634 1.389 . S
C597 C596 1.443 . S
C597 C598 1.340 . S
C597 H637 0.951 . S
C598 C597 1.340 . S
C598 C599 1.439 . S
C598 H638 0.950 . S
C599 C598 1.439 . S
C599 N600 1.374 . S
C599 C633 1.395 1_554 S
N600 C596 1.376 . S
N600 C599 1.374 . S
N600 Co601 2.015 . S
Co601 N600 2.015 . S
Co601 N602 1.987 1_554 S
Co601 N607 2.002 1_554 S
Co601 N612 2.002 . S
Co601 N617 2.294 . S
Co601 N623 2.271 1_554 S
N602 Co601 1.987 1_556 S
N602 C603 1.376 . S
N602 C606 1.383 . S
C603 N602 1.376 . S
C603 C604 1.446 . S
C603 C633 1.391 . S
C604 C603 1.446 . S
C604 C605 1.339 . S
C604 H639 0.949 . S
C605 C604 1.339 . S
C605 C606 1.439 . S
C605 H640 0.950 . S
C606 N602 1.383 . S
C606 C605 1.439 . S
C606 C635 1.392 . S
N607 Co601 2.002 1_556 S
N607 C608 1.376 . S
N607 C611 1.374 . S
C608 N607 1.376 . S
C608 C609 1.443 . S
C608 C635 1.389 . S
C609 C608 1.443 . S
C609 C610 1.340 . S
C609 H641 0.951 . S
C610 C609 1.340 . S
C610 C611 1.439 . S
C610 H642 0.950 . S
C611 N607 1.374 . S
C611 C610 1.439 . S
C611 C636 1.395 1_556 S
N612 Co601 2.002 . S
N612 C613 1.376 . S
N612 C616 1.383 . S
C613 N612 1.376 . S
C613 C614 1.446 . S
C613 C636 1.391 . S
C614 C613 1.446 . S
C614 C615 1.339 . S
C614 H643 0.949 . S
C615 C614 1.339 . S
C615 C616 1.439 . S
C615 H644 0.950 . S
C616 N612 1.383 . S
C616 C615 1.439 . S
C616 C634 1.392 . S
N617 Co601 2.294 . S
N617 C620 1.332 . S
N617 C622 1.332 . S
C618 C619 1.386 . S
C618 C621 1.388 . S
C619 C618 1.386 . S
C619 C620 1.382 . S
C619 H645 0.950 . S
C620 N617 1.332 . S
C620 C619 1.382 . S
C620 H631 0.952 . S
C621 C618 1.388 . S
C621 C622 1.382 . S
C621 H646 0.950 . S
C622 N617 1.332 . S
C622 C621 1.382 . S
C622 H632 0.948 . S
N623 Co601 2.271 1_556 S
N623 C627 1.332 . S
N623 C628 1.332 . S
C624 C625 1.388 . S
C624 C628 1.382 . S
C624 H647 0.950 . S
C625 C624 1.388 . S
C625 C626 1.386 . S
C626 C625 1.386 . S
C626 C627 1.382 . S
C626 H648 0.950 . S
C627 N623 1.332 . S
C627 C626 1.382 . S
C627 H629 0.952 . S
C628 N623 1.332 . S
C628 C624 1.382 . S
C628 H630 0.948 . S
H629 C627 0.952 . S
H630 C628 0.948 . S
H631 C620 0.952 . S
H632 C622 0.948 . S
C633 C599 1.395 1_556 S
C633 C603 1.391 . S
C634 C596 1.389 . S
C634 C616 1.392 . S
C635 C606 1.392 . S
C635 C608 1.389 . S
C636 C611 1.395 1_554 S
C636 C613 1.391 . S
H637 C597 0.951 . S
H638 C598 0.950 . S
H639 C604 0.949 . S
H640 C605 0.950 . S
H641 C609 0.951 . S
H642 C610 0.950 . S
H643 C614 0.949 . S
H644 C615 0.950 . S
H645 C619 0.950 . S
H646 C621 0.950 . S
H647 C624 0.950 . S
H648 C626 0.950 . S
C649 C650 1.443 . S
C649 N653 1.376 . S
C649 C687 1.389 . S
C650 C649 1.443 . S
C650 C651 1.340 . S
C650 H690 0.951 . S
C651 C650 1.340 . S
C651 C652 1.439 . S
C651 H691 0.950 . S
C652 C651 1.439 . S
C652 N653 1.374 . S
C652 C686 1.395 . S
N653 C649 1.376 . S
N653 C652 1.374 . S
N653 Co654 2.008 . S
Co654 N653 2.008 . S
Co654 N655 1.995 1_554 S
Co654 N660 2.022 . S
Co654 N665 1.995 . S
Co654 N670 2.282 . S
Co654 N676 2.282 1_554 S
N655 Co654 1.995 1_556 S
N655 C656 1.376 . S
N655 C659 1.383 . S
C656 N655 1.376 . S
C656 C657 1.446 . S
C656 C686 1.391 1_556 S
C657 C656 1.446 . S
C657 C658 1.339 . S
C657 H692 0.949 . S
C658 C657 1.339 . S
C658 C659 1.439 . S
C658 H693 0.950 . S
C659 N655 1.383 . S
C659 C658 1.439 . S
C659 C688 1.392 . S
N660 Co654 2.022 . S
N660 C661 1.357 1_554 S
N660 C664 1.381 . S
C661 N660 1.357 1_556 S
C661 C662 1.443 . S
C661 C688 1.389 . S
C662 C661 1.443 . S
C662 C663 1.340 . S
C662 H694 0.951 . S
C663 C662 1.340 . S
C663 C664 1.439 1_556 S
C663 H695 0.950 . S
C664 N660 1.381 . S
C664 C663 1.439 1_554 S
C664 C689 1.395 . S
N665 Co654 1.995 . S
N665 C666 1.376 . S
N665 C669 1.383 . S
C666 N665 1.376 . S
C666 C667 1.446 . S
C666 C689 1.391 . S
C667 C666 1.446 . S
C667 C668 1.339 . S
C667 H696 0.949 . S
C668 C667 1.339 . S
C668 C669 1.439 . S
C668 H697 0.950 . S
C669 N665 1.383 . S
C669 C668 1.439 . S
C669 C687 1.392 . S
N670 Co654 2.282 . S
N670 C673 1.332 . S
N670 C675 1.332 . S
C671 C672 1.386 . S
C671 C674 1.388 . S
C672 C671 1.386 . S
C672 C673 1.382 . S
C672 H698 0.950 . S
C673 N670 1.332 . S
C673 C672 1.382 . S
C673 H684 0.952 . S
C674 C671 1.388 . S
C674 C675 1.382 . S
C674 H699 0.950 . S
C675 N670 1.332 . S
C675 C674 1.382 . S
C675 H685 0.948 . S
N676 Co654 2.282 1_556 S
N676 C680 1.332 . S
N676 C681 1.332 . S
C677 C678 1.388 . S
C677 C681 1.382 . S
C677 H700 0.950 . S
C678 C677 1.388 . S
C678 C679 1.386 . S
C679 C678 1.386 . S
C679 C680 1.382 . S
C679 H701 0.950 . S
C680 N676 1.332 . S
C680 C679 1.382 . S
C680 H682 0.952 . S
C681 N676 1.332 . S
C681 C677 1.382 . S
C681 H683 0.948 . S
H682 C680 0.952 . S
H683 C681 0.948 . S
H684 C673 0.952 . S
H685 C675 0.948 . S
C686 C652 1.395 . S
C686 C656 1.391 1_554 S
C687 C649 1.389 . S
C687 C669 1.392 . S
C688 C659 1.392 . S
C688 C661 1.389 . S
C689 C664 1.395 . S
C689 C666 1.391 . S
H690 C650 0.951 . S
H691 C651 0.950 . S
H692 C657 0.949 . S
H693 C658 0.950 . S
H694 C662 0.951 . S
H695 C663 0.950 . S
H696 C667 0.949 . S
H697 C668 0.950 . S
H698 C672 0.950 . S
H699 C674 0.950 . S
H700 C677 0.950 . S
H701 C679 0.950 . S
C702 C703 1.443 . S
C702 N706 1.376 1_556 S
C702 C740 1.389 . S
C703 C702 1.443 . S
C703 C704 1.340 1_556 S
C703 H743 0.951 . S
C704 C703 1.340 1_554 S
C704 C705 1.439 . S
C704 H744 0.950 . S
C705 C704 1.439 . S
C705 N706 1.374 . S
C705 C739 1.395 . S
N706 C702 1.376 1_554 S
N706 C705 1.374 . S
N706 Co707 2.008 . S
Co707 N706 2.008 . S
Co707 N708 1.995 . S
Co707 N713 2.008 . S
Co707 N718 2.006 . S
Co707 N723 2.282 1_554 S
Co707 N729 2.282 . S
N708 Co707 1.995 . S
N708 C709 1.376 . S
N708 C712 1.383 . S
C709 N708 1.376 . S
C709 C710 1.446 . S
C709 C739 1.391 . S
C710 C709 1.446 . S
C710 C711 1.339 . S
C710 H745 0.949 . S
C711 C710 1.339 . S
C711 C712 1.439 . S
C711 H746 0.950 . S
C712 N708 1.383 . S
C712 C711 1.439 . S
C712 C741 1.392 . S
N713 Co707 2.008 . S
N713 C714 1.376 . S
N713 C717 1.374 . S
C714 N713 1.376 . S
C714 C715 1.443 . S
C714 C741 1.389 . S
C715 C714 1.443 . S
C715 C716 1.340 . S
C715 H747 0.951 . S
C716 C715 1.340 . S
C716 C717 1.439 . S
C716 H748 0.950 . S
C717 N713 1.374 . S
C717 C716 1.439 . S
C717 C742 1.395 . S
N718 Co707 2.006 . S
N718 C719 1.376 1_554 S
N718 C722 1.371 1_554 S
C719 N718 1.376 1_556 S
C719 C720 1.457 . S
C719 C742 1.382 1_556 S
C720 C719 1.457 . S
C720 C721 1.339 . S
C720 H749 0.949 . S
C721 C720 1.339 . S
C721 C722 1.439 . S
C721 H750 0.950 . S
C722 N718 1.371 1_556 S
C722 C721 1.439 . S
C722 C740 1.392 . S
N723 Co707 2.282 1_556 S
N723 C726 1.332 . S
N723 C728 1.332 . S
C724 C725 1.386 . S
C724 C727 1.388 . S
C725 C724 1.386 . S
C725 C726 1.382 . S
C725 H751 0.950 . S
C726 N723 1.332 . S
C726 C725 1.382 . S
C726 H737 0.952 . S
C727 C724 1.388 . S
C727 C728 1.382 . S
C727 H752 0.950 . S
C728 N723 1.332 . S
C728 C727 1.382 . S
C728 H738 0.956 . S
N729 Co707 2.282 . S
N729 C733 1.332 . S
N729 C734 1.332 . S
C730 C731 1.388 . S
C730 C734 1.382 . S
C730 H753 0.950 . S
C731 C730 1.388 . S
C731 C732 1.386 . S
C732 C731 1.386 . S
C732 C733 1.382 . S
C732 H754 0.950 . S
C733 N729 1.332 . S
C733 C732 1.382 . S
C733 H735 0.952 . S
C734 N729 1.332 . S
C734 C730 1.382 . S
C734 H736 0.948 . S
H735 C733 0.952 . S
H736 C734 0.948 . S
H737 C726 0.952 . S
H738 C728 0.956 . S
C739 C705 1.395 . S
C739 C709 1.391 . S
C740 C702 1.389 . S
C740 C722 1.392 . S
C741 C712 1.392 . S
C741 C714 1.389 . S
C742 C717 1.395 . S
C742 C719 1.382 1_554 S
H743 C703 0.951 . S
H744 C704 0.950 . S
H745 C710 0.949 . S
H746 C711 0.950 . S
H747 C715 0.951 . S
H748 C716 0.950 . S
H749 C720 0.949 . S
H750 C721 0.950 . S
H751 C725 0.950 . S
H752 C727 0.950 . S
H753 C730 0.950 . S
H754 C732 0.950 . S
C755 C756 1.443 . S
C755 N759 1.376 . S
C755 C793 1.389 . S
C756 C755 1.443 . S
C756 C757 1.340 . S
C756 H796 0.951 . S
C757 C756 1.340 . S
C757 C758 1.439 . S
C757 H797 0.950 . S
C758 C757 1.439 . S
C758 N759 1.374 . S
C758 C792 1.395 1_554 S
N759 C755 1.376 . S
N759 C758 1.374 . S
N759 Co760 2.008 . S
Co760 N759 2.008 . S
Co760 N761 1.995 1_554 S
Co760 N766 2.008 1_554 S
Co760 N771 1.995 . S
Co760 N776 2.282 . S
Co760 N782 2.282 1_554 S
N761 Co760 1.995 1_556 S
N761 C762 1.376 . S
N761 C765 1.383 . S
C762 N761 1.376 . S
C762 C763 1.446 . S
C762 C792 1.391 . S
C763 C762 1.446 . S
C763 C764 1.339 . S
C763 H798 0.949 . S
C764 C763 1.339 . S
C764 C765 1.439 . S
C764 H799 0.950 . S
C765 N761 1.383 . S
C765 C764 1.439 . S
C765 C794 1.392 . S
N766 Co760 2.008 1_556 S
N766 C767 1.376 . S
N766 C770 1.374 1_556 S
C767 N766 1.376 . S
C767 C768 1.443 . S
C767 C794 1.389 . S
C768 C767 1.443 . S
C768 C769 1.340 . S
C768 H800 0.951 . S
C769 C768 1.340 . S
C769 C770 1.439 1_556 S
C769 H801 0.950 . S
C770 N766 1.374 1_554 S
C770 C769 1.439 1_554 S
C770 C795 1.395 . S
N771 Co760 1.995 . S
N771 C772 1.376 . S
N771 C775 1.383 . S
C772 N771 1.376 . S
C772 C773 1.446 . S
C772 C795 1.391 . S
C773 C772 1.446 . S
C773 C774 1.339 . S
C773 H802 0.949 . S
C774 C773 1.339 . S
C774 C775 1.439 . S
C774 H803 0.950 . S
C775 N771 1.383 . S
C775 C774 1.439 . S
C775 C793 1.392 . S
N776 Co760 2.282 . S
N776 C779 1.332 . S
N776 C781 1.332 . S
C777 C778 1.386 . S
C777 C780 1.388 . S
C778 C777 1.386 . S
C778 C779 1.382 . S
C778 H804 0.950 . S
C779 N776 1.332 . S
C779 C778 1.382 . S
C779 H790 0.952 . S
C780 C777 1.388 . S
C780 C781 1.382 . S
C780 H805 0.950 . S
C781 N776 1.332 . S
C781 C780 1.382 . S
C781 H791 0.948 . S
N782 Co760 2.282 1_556 S
N782 C786 1.332 . S
N782 C787 1.332 . S
C783 C784 1.388 . S
C783 C787 1.382 . S
C783 H806 0.950 . S
C784 C783 1.388 . S
C784 C785 1.386 . S
C785 C784 1.386 . S
C785 C786 1.382 . S
C785 H807 0.950 . S
C786 N782 1.332 . S
C786 C785 1.382 . S
C786 H788 0.952 . S
C787 N782 1.332 . S
C787 C783 1.382 . S
C787 H789 0.948 . S
H788 C786 0.952 . S
H789 C787 0.948 . S
H790 C779 0.952 . S
H791 C781 0.948 . S
C792 C758 1.395 1_556 S
C792 C762 1.391 . S
C793 C755 1.389 . S
C793 C775 1.392 . S
C794 C765 1.392 . S
C794 C767 1.389 . S
C795 C770 1.395 . S
C795 C772 1.391 . S
H796 C756 0.951 . S
H797 C757 0.950 . S
H798 C763 0.949 . S
H799 C764 0.950 . S
H800 C768 0.951 . S
H801 C769 0.950 . S
H802 C773 0.949 . S
H803 C774 0.950 . S
H804 C778 0.950 . S
H805 C780 0.950 . S
H806 C783 0.950 . S
H807 C785 0.950 . S
C808 C809 1.391 . S
C808 C810 1.394 . S
C808 H824 0.931 . S
C809 C808 1.391 . S
C809 C813 1.376 . S
C810 C808 1.394 . S
C810 C811 1.369 . S
C810 C814 1.531 . S
C811 C810 1.369 . S
C811 C812 1.410 . S
C811 C819 1.503 . S
C812 C811 1.410 . S
C812 C813 1.392 . S
C812 C815 1.511 . S
C813 C809 1.376 . S
C813 C812 1.392 . S
C813 H825 0.929 . S
C814 C810 1.531 . S
C814 H826 0.960 . S
C814 H827 0.962 . S
C814 H828 0.960 . S
C815 C812 1.511 . S
C815 H829 0.961 . S
C815 H830 0.961 . S
C815 H831 0.961 . S
C816 C817 1.370 . S
C816 C818 1.363 . S
C816 H832 0.931 . S
C817 C816 1.370 . S
C817 C821 1.408 . S
C818 C816 1.363 . S
C818 C819 1.370 . S
C818 C822 1.524 . S
C819 C811 1.503 . S
C819 C818 1.370 . S
C819 C820 1.403 . S
C820 C819 1.403 . S
C820 C821 1.404 . S
C820 C823 1.539 . S
C821 C817 1.408 . S
C821 C820 1.404 . S
C821 H833 0.930 . S
C822 C818 1.524 . S
C822 H834 0.956 . S
C822 H835 0.961 . S
C822 H836 0.961 . S
C823 C820 1.539 . S
C823 H837 0.958 . S
C823 H838 0.961 . S
C823 H839 0.960 . S
H824 C808 0.931 . S
H825 C813 0.929 . S
H826 C814 0.960 . S
H827 C814 0.962 . S
H828 C814 0.960 . S
H829 C815 0.961 . S
H830 C815 0.961 . S
H831 C815 0.961 . S
H832 C816 0.931 . S
H833 C821 0.930 . S
H834 C822 0.956 . S
H835 C822 0.961 . S
H836 C822 0.961 . S
H837 C823 0.958 . S
H838 C823 0.961 . S
H839 C823 0.960 . S
C840 C841 1.391 . S
C840 C842 1.394 . S
C840 H856 0.931 . S
C841 C840 1.391 . S
C841 C845 1.376 . S
C842 C840 1.394 . S
C842 C843 1.369 . S
C842 C846 1.531 . S
C843 C842 1.369 . S
C843 C844 1.410 . S
C843 C851 1.503 . S
C844 C843 1.410 . S
C844 C845 1.392 . S
C844 C847 1.511 . S
C845 C841 1.376 . S
C845 C844 1.392 . S
C845 H857 0.929 . S
C846 C842 1.531 . S
C846 H858 0.960 . S
C846 H859 0.962 . S
C846 H860 0.960 . S
C847 C844 1.511 . S
C847 H861 0.961 . S
C847 H862 0.961 . S
C847 H863 0.961 . S
C848 C849 1.370 . S
C848 C850 1.363 . S
C848 H864 0.931 . S
C849 C848 1.370 . S
C849 C853 1.408 . S
C850 C848 1.363 . S
C850 C851 1.370 . S
C850 C854 1.524 . S
C851 C843 1.503 . S
C851 C850 1.370 . S
C851 C852 1.403 . S
C852 C851 1.403 . S
C852 C853 1.404 . S
C852 C855 1.539 . S
C853 C849 1.408 . S
C853 C852 1.404 . S
C853 H865 0.930 . S
C854 C850 1.524 . S
C854 H866 0.956 . S
C854 H867 0.961 . S
C854 H868 0.961 . S
C855 C852 1.539 . S
C855 H869 0.958 . S
C855 H870 0.961 . S
C855 H871 0.960 . S
H856 C840 0.931 . S
H857 C845 0.929 . S
H858 C846 0.960 . S
H859 C846 0.962 . S
H860 C846 0.960 . S
H861 C847 0.961 . S
H862 C847 0.961 . S
H863 C847 0.961 . S
H864 C848 0.931 . S
H865 C853 0.930 . S
H866 C854 0.956 . S
H867 C854 0.961 . S
H868 C854 0.961 . S
H869 C855 0.958 . S
H870 C855 0.961 . S
H871 C855 0.960 . S
C872 C873 1.391 . S
C872 C874 1.394 . S
C872 H888 0.931 . S
C873 C872 1.391 . S
C873 C877 1.376 . S
C874 C872 1.394 . S
C874 C875 1.369 . S
C874 C878 1.531 . S
C875 C874 1.369 . S
C875 C876 1.410 . S
C875 C883 1.503 . S
C876 C875 1.410 . S
C876 C877 1.392 . S
C876 C879 1.511 . S
C877 C873 1.376 . S
C877 C876 1.392 . S
C877 H889 0.929 . S
C878 C874 1.531 . S
C878 H890 0.960 . S
C878 H891 0.962 . S
C878 H892 0.960 . S
C879 C876 1.511 . S
C879 H893 0.961 . S
C879 H894 0.961 . S
C879 H895 0.961 . S
C880 C881 1.370 . S
C880 C882 1.363 . S
C880 H896 0.931 . S
C881 C880 1.370 . S
C881 C885 1.408 . S
C882 C880 1.363 . S
C882 C883 1.370 . S
C882 C886 1.524 . S
C883 C875 1.503 . S
C883 C882 1.370 . S
C883 C884 1.403 . S
C884 C883 1.403 . S
C884 C885 1.404 . S
C884 C887 1.539 . S
C885 C881 1.408 . S
C885 C884 1.404 . S
C885 H897 0.930 . S
C886 C882 1.524 . S
C886 H898 0.956 . S
C886 H899 0.961 . S
C886 H900 0.961 . S
C887 C884 1.539 . S
C887 H901 0.958 . S
C887 H902 0.961 . S
C887 H903 0.960 . S
H888 C872 0.931 . S
H889 C877 0.929 . S
H890 C878 0.960 . S
H891 C878 0.962 . S
H892 C878 0.960 . S
H893 C879 0.961 . S
H894 C879 0.961 . S
H895 C879 0.961 . S
H896 C880 0.931 . S
H897 C885 0.930 . S
H898 C886 0.956 . S
H899 C886 0.961 . S
H900 C886 0.961 . S
H901 C887 0.958 . S
H902 C887 0.961 . S
H903 C887 0.960 . S
C904 C905 1.391 . S
C904 C906 1.394 . S
C904 H920 0.931 . S
C905 C904 1.391 . S
C905 C909 1.376 . S
C906 C904 1.394 . S
C906 C907 1.369 . S
C906 C910 1.531 . S
C907 C906 1.369 . S
C907 C908 1.410 . S
C907 C915 1.503 . S
C908 C907 1.410 . S
C908 C909 1.392 . S
C908 C911 1.511 . S
C909 C905 1.376 . S
C909 C908 1.392 . S
C909 H921 0.929 . S
C910 C906 1.531 . S
C910 H922 0.960 . S
C910 H923 0.962 . S
C910 H924 0.960 . S
C911 C908 1.511 . S
C911 H925 0.961 . S
C911 H926 0.961 . S
C911 H927 0.961 . S
C912 C913 1.370 . S
C912 C914 1.363 . S
C912 H928 0.931 . S
C913 C912 1.370 . S
C913 C917 1.408 . S
C914 C912 1.363 . S
C914 C915 1.370 . S
C914 C918 1.524 . S
C915 C907 1.503 . S
C915 C914 1.370 . S
C915 C916 1.403 . S
C916 C915 1.403 . S
C916 C917 1.404 . S
C916 C919 1.539 . S
C917 C913 1.408 . S
C917 C916 1.404 . S
C917 H929 0.930 . S
C918 C914 1.524 . S
C918 H930 0.956 . S
C918 H931 0.961 . S
C918 H932 0.961 . S
C919 C916 1.539 . S
C919 H933 0.958 . S
C919 H934 0.961 . S
C919 H935 0.960 . S
H920 C904 0.931 . S
H921 C909 0.929 . S
H922 C910 0.960 . S
H923 C910 0.962 . S
H924 C910 0.960 . S
H925 C911 0.961 . S
H926 C911 0.961 . S
H927 C911 0.961 . S
H928 C912 0.931 . S
H929 C917 0.930 . S
H930 C918 0.956 . S
H931 C918 0.961 . S
H932 C918 0.961 . S
H933 C919 0.958 . S
H934 C919 0.961 . S
H935 C919 0.960 . S
C936 C937 1.391 . S
C936 C938 1.394 . S
C936 H952 0.931 . S
C937 C936 1.391 . S
C937 C941 1.376 . S
C938 C936 1.394 . S
C938 C939 1.369 . S
C938 C942 1.531 . S
C939 C938 1.369 . S
C939 C940 1.410 . S
C939 C947 1.503 . S
C940 C939 1.410 . S
C940 C941 1.392 . S
C940 C943 1.511 . S
C941 C937 1.376 . S
C941 C940 1.392 . S
C941 H953 0.929 . S
C942 C938 1.531 . S
C942 H954 0.960 . S
C942 H955 0.962 . S
C942 H956 0.960 . S
C943 C940 1.511 . S
C943 H957 0.961 . S
C943 H958 0.961 . S
C943 H959 0.961 . S
C944 C945 1.370 . S
C944 C946 1.363 . S
C944 H960 0.931 . S
C945 C944 1.370 . S
C945 C949 1.408 . S
C946 C944 1.363 . S
C946 C947 1.370 . S
C946 C950 1.524 . S
C947 C939 1.503 . S
C947 C946 1.370 . S
C947 C948 1.403 . S
C948 C947 1.403 . S
C948 C949 1.404 . S
C948 C951 1.539 . S
C949 C945 1.408 . S
C949 C948 1.404 . S
C949 H961 0.930 . S
C950 C946 1.524 . S
C950 H962 0.956 . S
C950 H963 0.961 . S
C950 H964 0.961 . S
C951 C948 1.539 . S
C951 H965 0.958 . S
C951 H966 0.961 . S
C951 H967 0.960 . S
H952 C936 0.931 . S
H953 C941 0.929 . S
H954 C942 0.960 . S
H955 C942 0.962 . S
H956 C942 0.960 . S
H957 C943 0.961 . S
H958 C943 0.961 . S
H959 C943 0.961 . S
H960 C944 0.931 . S
H961 C949 0.930 . S
H962 C950 0.956 . S
H963 C950 0.961 . S
H964 C950 0.961 . S
H965 C951 0.958 . S
H966 C951 0.961 . S
H967 C951 0.960 . S
C968 C969 1.391 . S
C968 C970 1.394 . S
C968 H984 0.931 . S
C969 C968 1.391 . S
C969 C973 1.376 . S
C970 C968 1.394 . S
C970 C971 1.369 . S
C970 C974 1.531 . S
C971 C970 1.369 . S
C971 C972 1.410 . S
C971 C979 1.503 . S
C972 C971 1.410 . S
C972 C973 1.392 . S
C972 C975 1.511 . S
C973 C969 1.376 . S
C973 C972 1.392 . S
C973 H985 0.929 . S
C974 C970 1.531 . S
C974 H986 0.960 . S
C974 H987 0.962 . S
C974 H988 0.960 . S
C975 C972 1.511 . S
C975 H989 0.961 . S
C975 H990 0.961 . S
C975 H991 0.961 . S
C976 C977 1.370 . S
C976 C978 1.363 . S
C976 H992 0.931 . S
C977 C976 1.370 . S
C977 C981 1.408 . S
C978 C976 1.363 . S
C978 C979 1.370 . S
C978 C982 1.524 . S
C979 C971 1.503 . S
C979 C978 1.370 . S
C979 C980 1.403 . S
C980 C979 1.403 . S
C980 C981 1.404 . S
C980 C983 1.539 . S
C981 C977 1.408 . S
C981 C980 1.404 . S
C981 H993 0.930 . S
C982 C978 1.524 . S
C982 H994 0.956 . S
C982 H995 0.961 . S
C982 H996 0.961 . S
C983 C980 1.539 . S
C983 H997 0.958 . S
C983 H998 0.961 . S
C983 H999 0.960 . S
H984 C968 0.931 . S
H985 C973 0.929 . S
H986 C974 0.960 . S
H987 C974 0.962 . S
H988 C974 0.960 . S
H989 C975 0.961 . S
H990 C975 0.961 . S
H991 C975 0.961 . S
H992 C976 0.931 . S
H993 C981 0.930 . S
H994 C982 0.956 . S
H995 C982 0.961 . S
H996 C982 0.961 . S
H997 C983 0.958 . S
H998 C983 0.961 . S
H999 C983 0.960 . S
C1000 C1001 1.391 . S
C1000 C1002 1.394 . S
C1000 H1016 0.931 . S
C1001 C1000 1.391 . S
C1001 C1005 1.376 . S
C1002 C1000 1.394 . S
C1002 C1003 1.369 . S
C1002 C1006 1.531 . S
C1003 C1002 1.369 . S
C1003 C1004 1.410 . S
C1003 C1011 1.503 . S
C1004 C1003 1.410 . S
C1004 C1005 1.392 . S
C1004 C1007 1.511 . S
C1005 C1001 1.376 . S
C1005 C1004 1.392 . S
C1005 H1017 0.929 . S
C1006 C1002 1.531 . S
C1006 H1018 0.960 . S
C1006 H1019 0.962 . S
C1006 H1020 0.960 . S
C1007 C1004 1.511 . S
C1007 H1021 0.961 . S
C1007 H1022 0.961 . S
C1007 H1023 0.961 . S
C1008 C1009 1.370 . S
C1008 C1010 1.363 . S
C1008 H1024 0.931 . S
C1009 C1008 1.370 . S
C1009 C1013 1.408 . S
C1010 C1008 1.363 . S
C1010 C1011 1.370 . S
C1010 C1014 1.524 . S
C1011 C1003 1.503 . S
C1011 C1010 1.370 . S
C1011 C1012 1.403 . S
C1012 C1011 1.403 . S
C1012 C1013 1.404 . S
C1012 C1015 1.539 . S
C1013 C1009 1.408 . S
C1013 C1012 1.404 . S
C1013 H1025 0.930 . S
C1014 C1010 1.524 . S
C1014 H1026 0.956 . S
C1014 H1027 0.961 . S
C1014 H1028 0.961 . S
C1015 C1012 1.539 . S
C1015 H1029 0.958 . S
C1015 H1030 0.961 . S
C1015 H1031 0.960 . S
H1016 C1000 0.931 . S
H1017 C1005 0.929 . S
H1018 C1006 0.960 . S
H1019 C1006 0.962 . S
H1020 C1006 0.960 . S
H1021 C1007 0.961 . S
H1022 C1007 0.961 . S
H1023 C1007 0.961 . S
H1024 C1008 0.931 . S
H1025 C1013 0.930 . S
H1026 C1014 0.956 . S
H1027 C1014 0.961 . S
H1028 C1014 0.961 . S
H1029 C1015 0.958 . S
H1030 C1015 0.961 . S
H1031 C1015 0.960 . S
C1032 C1033 1.391 . S
C1032 C1034 1.394 . S
C1032 H1048 0.931 . S
C1033 C1032 1.391 . S
C1033 C1037 1.376 . S
C1034 C1032 1.394 . S
C1034 C1035 1.369 . S
C1034 C1038 1.531 . S
C1035 C1034 1.369 . S
C1035 C1036 1.410 . S
C1035 C1043 1.503 . S
C1036 C1035 1.410 . S
C1036 C1037 1.392 . S
C1036 C1039 1.511 . S
C1037 C1033 1.376 . S
C1037 C1036 1.392 . S
C1037 H1049 0.929 . S
C1038 C1034 1.531 . S
C1038 H1050 0.960 . S
C1038 H1051 0.962 . S
C1038 H1052 0.960 . S
C1039 C1036 1.511 . S
C1039 H1053 0.961 . S
C1039 H1054 0.961 . S
C1039 H1055 0.961 . S
C1040 C1041 1.370 . S
C1040 C1042 1.363 . S
C1040 H1056 0.931 . S
C1041 C1040 1.370 . S
C1041 C1045 1.408 . S
C1042 C1040 1.363 . S
C1042 C1043 1.370 . S
C1042 C1046 1.524 . S
C1043 C1035 1.503 . S
C1043 C1042 1.370 . S
C1043 C1044 1.403 . S
C1044 C1043 1.403 . S
C1044 C1045 1.404 . S
C1044 C1047 1.539 . S
C1045 C1041 1.408 . S
C1045 C1044 1.404 . S
C1045 H1057 0.930 . S
C1046 C1042 1.524 . S
C1046 H1058 0.956 . S
C1046 H1059 0.961 . S
C1046 H1060 0.961 . S
C1047 C1044 1.539 . S
C1047 H1061 0.958 . S
C1047 H1062 0.961 . S
C1047 H1063 0.960 . S
H1048 C1032 0.931 . S
H1049 C1037 0.929 . S
H1050 C1038 0.960 . S
H1051 C1038 0.962 . S
H1052 C1038 0.960 . S
H1053 C1039 0.961 . S
H1054 C1039 0.961 . S
H1055 C1039 0.961 . S
H1056 C1040 0.931 . S
H1057 C1045 0.930 . S
H1058 C1046 0.956 . S
H1059 C1046 0.961 . S
H1060 C1046 0.961 . S
H1061 C1047 0.958 . S
H1062 C1047 0.961 . S
H1063 C1047 0.960 . S
C1064 C1065 1.391 . S
C1064 C1066 1.394 . S
C1064 H1080 0.931 . S
C1065 C1064 1.391 . S
C1065 C1069 1.376 . S
C1066 C1064 1.394 . S
C1066 C1067 1.369 . S
C1066 C1070 1.531 . S
C1067 C1066 1.369 . S
C1067 C1068 1.410 . S
C1067 C1075 1.503 . S
C1068 C1067 1.410 . S
C1068 C1069 1.392 . S
C1068 C1071 1.511 . S
C1069 C1065 1.376 . S
C1069 C1068 1.392 . S
C1069 H1081 0.929 . S
C1070 C1066 1.531 . S
C1070 H1082 0.960 . S
C1070 H1083 0.962 . S
C1070 H1084 0.960 . S
C1071 C1068 1.511 . S
C1071 H1085 0.961 . S
C1071 H1086 0.961 . S
C1071 H1087 0.961 . S
C1072 C1073 1.370 . S
C1072 C1074 1.363 . S
C1072 H1088 0.931 . S
C1073 C1072 1.370 . S
C1073 C1077 1.408 . S
C1074 C1072 1.363 . S
C1074 C1075 1.370 . S
C1074 C1078 1.524 . S
C1075 C1067 1.503 . S
C1075 C1074 1.370 . S
C1075 C1076 1.403 . S
C1076 C1075 1.403 . S
C1076 C1077 1.404 . S
C1076 C1079 1.539 . S
C1077 C1073 1.408 . S
C1077 C1076 1.404 . S
C1077 H1089 0.930 . S
C1078 C1074 1.524 . S
C1078 H1090 0.956 . S
C1078 H1091 0.961 . S
C1078 H1092 0.961 . S
C1079 C1076 1.539 . S
C1079 H1093 0.958 . S
C1079 H1094 0.961 . S
C1079 H1095 0.960 . S
H1080 C1064 0.931 . S
H1081 C1069 0.929 . S
H1082 C1070 0.960 . S
H1083 C1070 0.962 . S
H1084 C1070 0.960 . S
H1085 C1071 0.961 . S
H1086 C1071 0.961 . S
H1087 C1071 0.961 . S
H1088 C1072 0.931 . S
H1089 C1077 0.930 . S
H1090 C1078 0.956 . S
H1091 C1078 0.961 . S
H1092 C1078 0.961 . S
H1093 C1079 0.958 . S
H1094 C1079 0.961 . S
H1095 C1079 0.960 . S
C1096 C1097 1.391 . S
C1096 C1098 1.394 . S
C1096 H1112 0.931 . S
C1097 C1096 1.391 . S
C1097 C1101 1.376 . S
C1098 C1096 1.394 . S
C1098 C1099 1.369 . S
C1098 C1102 1.531 . S
C1099 C1098 1.369 . S
C1099 C1100 1.410 . S
C1099 C1107 1.503 . S
C1100 C1099 1.410 . S
C1100 C1101 1.392 . S
C1100 C1103 1.511 . S
C1101 C1097 1.376 . S
C1101 C1100 1.392 . S
C1101 H1113 0.929 . S
C1102 C1098 1.531 . S
C1102 H1114 0.960 . S
C1102 H1115 0.962 . S
C1102 H1116 0.960 . S
C1103 C1100 1.511 . S
C1103 H1117 0.961 . S
C1103 H1118 0.961 . S
C1103 H1119 0.961 . S
C1104 C1105 1.370 . S
C1104 C1106 1.363 . S
C1104 H1120 0.931 . S
C1105 C1104 1.370 . S
C1105 C1109 1.408 . S
C1106 C1104 1.363 . S
C1106 C1107 1.370 . S
C1106 C1110 1.524 . S
C1107 C1099 1.503 . S
C1107 C1106 1.370 . S
C1107 C1108 1.403 . S
C1108 C1107 1.403 . S
C1108 C1109 1.404 . S
C1108 C1111 1.539 . S
C1109 C1105 1.408 . S
C1109 C1108 1.404 . S
C1109 H1121 0.930 . S
C1110 C1106 1.524 . S
C1110 H1122 0.956 . S
C1110 H1123 0.961 . S
C1110 H1124 0.961 . S
C1111 C1108 1.539 . S
C1111 H1125 0.958 . S
C1111 H1126 0.961 . S
C1111 H1127 0.960 . S
H1112 C1096 0.931 . S
H1113 C1101 0.929 . S
H1114 C1102 0.960 . S
H1115 C1102 0.962 . S
H1116 C1102 0.960 . S
H1117 C1103 0.961 . S
H1118 C1103 0.961 . S
H1119 C1103 0.961 . S
H1120 C1104 0.931 . S
H1121 C1109 0.930 . S
H1122 C1110 0.956 . S
H1123 C1110 0.961 . S
H1124 C1110 0.961 . S
H1125 C1111 0.958 . S
H1126 C1111 0.961 . S
H1127 C1111 0.960 . S
C1128 C1129 1.391 . S
C1128 C1130 1.394 . S
C1128 H1144 0.931 . S
C1129 C1128 1.391 . S
C1129 C1133 1.376 . S
C1130 C1128 1.394 . S
C1130 C1131 1.369 . S
C1130 C1134 1.531 . S
C1131 C1130 1.369 . S
C1131 C1132 1.410 . S
C1131 C1139 1.503 . S
C1132 C1131 1.410 . S
C1132 C1133 1.392 . S
C1132 C1135 1.511 . S
C1133 C1129 1.376 . S
C1133 C1132 1.392 . S
C1133 H1145 0.929 . S
C1134 C1130 1.531 . S
C1134 H1146 0.960 . S
C1134 H1147 0.962 . S
C1134 H1148 0.960 . S
C1135 C1132 1.511 . S
C1135 H1149 0.961 . S
C1135 H1150 0.961 . S
C1135 H1151 0.961 . S
C1136 C1137 1.370 . S
C1136 C1138 1.363 . S
C1136 H1152 0.931 . S
C1137 C1136 1.370 . S
C1137 C1141 1.408 . S
C1138 C1136 1.363 . S
C1138 C1139 1.370 . S
C1138 C1142 1.524 . S
C1139 C1131 1.503 . S
C1139 C1138 1.370 . S
C1139 C1140 1.403 . S
C1140 C1139 1.403 . S
C1140 C1141 1.404 . S
C1140 C1143 1.539 . S
C1141 C1137 1.408 . S
C1141 C1140 1.404 . S
C1141 H1153 0.930 . S
C1142 C1138 1.524 . S
C1142 H1154 0.956 . S
C1142 H1155 0.961 . S
C1142 H1156 0.961 . S
C1143 C1140 1.539 . S
C1143 H1157 0.958 . S
C1143 H1158 0.961 . S
C1143 H1159 0.960 . S
H1144 C1128 0.931 . S
H1145 C1133 0.929 . S
H1146 C1134 0.960 . S
H1147 C1134 0.962 . S
H1148 C1134 0.960 . S
H1149 C1135 0.961 . S
H1150 C1135 0.961 . S
H1151 C1135 0.961 . S
H1152 C1136 0.931 . S
H1153 C1141 0.930 . S
H1154 C1142 0.956 . S
H1155 C1142 0.961 . S
H1156 C1142 0.961 . S
H1157 C1143 0.958 . S
H1158 C1143 0.961 . S
H1159 C1143 0.960 . S
C1160 C1161 1.391 . S
C1160 C1162 1.394 . S
C1160 H1176 0.931 . S
C1161 C1160 1.391 . S
C1161 C1165 1.376 . S
C1162 C1160 1.394 . S
C1162 C1163 1.369 . S
C1162 C1166 1.531 . S
C1163 C1162 1.369 . S
C1163 C1164 1.410 . S
C1163 C1171 1.503 . S
C1164 C1163 1.410 . S
C1164 C1165 1.392 . S
C1164 C1167 1.511 . S
C1165 C1161 1.376 . S
C1165 C1164 1.392 . S
C1165 H1177 0.929 . S
C1166 C1162 1.531 . S
C1166 H1178 0.960 . S
C1166 H1179 0.962 . S
C1166 H1180 0.960 . S
C1167 C1164 1.511 . S
C1167 H1181 0.961 . S
C1167 H1182 0.961 . S
C1167 H1183 0.961 . S
C1168 C1169 1.370 . S
C1168 C1170 1.363 . S
C1168 H1184 0.931 . S
C1169 C1168 1.370 . S
C1169 C1173 1.408 . S
C1170 C1168 1.363 . S
C1170 C1171 1.370 . S
C1170 C1174 1.524 . S
C1171 C1163 1.503 . S
C1171 C1170 1.370 . S
C1171 C1172 1.403 . S
C1172 C1171 1.403 . S
C1172 C1173 1.404 . S
C1172 C1175 1.539 . S
C1173 C1169 1.408 . S
C1173 C1172 1.404 . S
C1173 H1185 0.930 . S
C1174 C1170 1.524 . S
C1174 H1186 0.956 . S
C1174 H1187 0.961 . S
C1174 H1188 0.961 . S
C1175 C1172 1.539 . S
C1175 H1189 0.958 . S
C1175 H1190 0.961 . S
C1175 H1191 0.960 . S
H1176 C1160 0.931 . S
H1177 C1165 0.929 . S
H1178 C1166 0.960 . S
H1179 C1166 0.962 . S
H1180 C1166 0.960 . S
H1181 C1167 0.961 . S
H1182 C1167 0.961 . S
H1183 C1167 0.961 . S
H1184 C1168 0.931 . S
H1185 C1173 0.930 . S
H1186 C1174 0.956 . S
H1187 C1174 0.961 . S
H1188 C1174 0.961 . S
H1189 C1175 0.958 . S
H1190 C1175 0.961 . S
H1191 C1175 0.960 . S
C1192 C1193 1.391 . S
C1192 C1194 1.394 . S
C1192 H1208 0.931 . S
C1193 C1192 1.391 . S
C1193 C1197 1.376 . S
C1194 C1192 1.394 . S
C1194 C1195 1.369 . S
C1194 C1198 1.531 . S
C1195 C1194 1.369 . S
C1195 C1196 1.410 . S
C1195 C1203 1.503 . S
C1196 C1195 1.410 . S
C1196 C1197 1.392 . S
C1196 C1199 1.511 . S
C1197 C1193 1.376 . S
C1197 C1196 1.392 . S
C1197 H1209 0.929 . S
C1198 C1194 1.531 . S
C1198 H1210 0.960 . S
C1198 H1211 0.962 . S
C1198 H1212 0.960 . S
C1199 C1196 1.511 . S
C1199 H1213 0.961 . S
C1199 H1214 0.961 . S
C1199 H1215 0.961 . S
C1200 C1201 1.370 . S
C1200 C1202 1.363 . S
C1200 H1216 0.931 . S
C1201 C1200 1.370 . S
C1201 C1205 1.408 . S
C1202 C1200 1.363 . S
C1202 C1203 1.370 . S
C1202 C1206 1.524 . S
C1203 C1195 1.503 . S
C1203 C1202 1.370 . S
C1203 C1204 1.403 . S
C1204 C1203 1.403 . S
C1204 C1205 1.404 . S
C1204 C1207 1.539 . S
C1205 C1201 1.408 . S
C1205 C1204 1.404 . S
C1205 H1217 0.930 . S
C1206 C1202 1.524 . S
C1206 H1218 0.956 . S
C1206 H1219 0.961 . S
C1206 H1220 0.961 . S
C1207 C1204 1.539 . S
C1207 H1221 0.958 . S
C1207 H1222 0.961 . S
C1207 H1223 0.960 . S
H1208 C1192 0.931 . S
H1209 C1197 0.929 . S
H1210 C1198 0.960 . S
H1211 C1198 0.962 . S
H1212 C1198 0.960 . S
H1213 C1199 0.961 . S
H1214 C1199 0.961 . S
H1215 C1199 0.961 . S
H1216 C1200 0.931 . S
H1217 C1205 0.930 . S
H1218 C1206 0.956 . S
H1219 C1206 0.961 . S
H1220 C1206 0.961 . S
H1221 C1207 0.958 . S
H1222 C1207 0.961 . S
H1223 C1207 0.960 . S
C1224 C1225 1.391 . S
C1224 C1226 1.394 . S
C1224 H1240 0.931 . S
C1225 C1224 1.391 . S
C1225 C1229 1.376 . S
C1226 C1224 1.394 . S
C1226 C1227 1.369 . S
C1226 C1230 1.531 . S
C1227 C1226 1.369 . S
C1227 C1228 1.410 . S
C1227 C1235 1.503 . S
C1228 C1227 1.410 . S
C1228 C1229 1.392 . S
C1228 C1231 1.511 . S
C1229 C1225 1.376 . S
C1229 C1228 1.392 . S
C1229 H1241 0.929 . S
C1230 C1226 1.531 . S
C1230 H1242 0.960 . S
C1230 H1243 0.962 . S
C1230 H1244 0.960 . S
C1231 C1228 1.511 . S
C1231 H1245 0.961 . S
C1231 H1246 0.961 . S
C1231 H1247 0.961 . S
C1232 C1233 1.370 . S
C1232 C1234 1.363 . S
C1232 H1248 0.931 . S
C1233 C1232 1.370 . S
C1233 C1237 1.408 . S
C1234 C1232 1.363 . S
C1234 C1235 1.370 . S
C1234 C1238 1.524 . S
C1235 C1227 1.503 . S
C1235 C1234 1.370 . S
C1235 C1236 1.403 . S
C1236 C1235 1.403 . S
C1236 C1237 1.404 . S
C1236 C1239 1.539 . S
C1237 C1233 1.408 . S
C1237 C1236 1.404 . S
C1237 H1249 0.930 . S
C1238 C1234 1.524 . S
C1238 H1250 0.956 . S
C1238 H1251 0.961 . S
C1238 H1252 0.961 . S
C1239 C1236 1.539 . S
C1239 H1253 0.958 . S
C1239 H1254 0.961 . S
C1239 H1255 0.960 . S
H1240 C1224 0.931 . S
H1241 C1229 0.929 . S
H1242 C1230 0.960 . S
H1243 C1230 0.962 . S
H1244 C1230 0.960 . S
H1245 C1231 0.961 . S
H1246 C1231 0.961 . S
H1247 C1231 0.961 . S
H1248 C1232 0.931 . S
H1249 C1237 0.930 . S
H1250 C1238 0.956 . S
H1251 C1238 0.961 . S
H1252 C1238 0.961 . S
H1253 C1239 0.958 . S
H1254 C1239 0.961 . S
H1255 C1239 0.960 . S
C1256 C1257 1.391 . S
C1256 C1258 1.394 . S
C1256 H1272 0.931 . S
C1257 C1256 1.391 . S
C1257 C1261 1.376 . S
C1258 C1256 1.394 . S
C1258 C1259 1.369 . S
C1258 C1262 1.531 . S
C1259 C1258 1.369 . S
C1259 C1260 1.410 . S
C1259 C1267 1.503 . S
C1260 C1259 1.410 . S
C1260 C1261 1.392 . S
C1260 C1263 1.511 . S
C1261 C1257 1.376 . S
C1261 C1260 1.392 . S
C1261 H1273 0.929 . S
C1262 C1258 1.531 . S
C1262 H1274 0.960 . S
C1262 H1275 0.962 . S
C1262 H1276 0.960 . S
C1263 C1260 1.511 . S
C1263 H1277 0.961 . S
C1263 H1278 0.961 . S
C1263 H1279 0.961 . S
C1264 C1265 1.370 . S
C1264 C1266 1.363 . S
C1264 H1280 0.931 . S
C1265 C1264 1.370 . S
C1265 C1269 1.408 . S
C1266 C1264 1.363 . S
C1266 C1267 1.370 . S
C1266 C1270 1.524 . S
C1267 C1259 1.503 . S
C1267 C1266 1.370 . S
C1267 C1268 1.403 . S
C1268 C1267 1.403 . S
C1268 C1269 1.404 . S
C1268 C1271 1.539 . S
C1269 C1265 1.408 . S
C1269 C1268 1.404 . S
C1269 H1281 0.930 . S
C1270 C1266 1.524 . S
C1270 H1282 0.956 . S
C1270 H1283 0.961 . S
C1270 H1284 0.961 . S
C1271 C1268 1.539 . S
C1271 H1285 0.958 . S
C1271 H1286 0.961 . S
C1271 H1287 0.960 . S
H1272 C1256 0.931 . S
H1273 C1261 0.929 . S
H1274 C1262 0.960 . S
H1275 C1262 0.962 . S
H1276 C1262 0.960 . S
H1277 C1263 0.961 . S
H1278 C1263 0.961 . S
H1279 C1263 0.961 . S
H1280 C1264 0.931 . S
H1281 C1269 0.930 . S
H1282 C1270 0.956 . S
H1283 C1270 0.961 . S
H1284 C1270 0.961 . S
H1285 C1271 0.958 . S
H1286 C1271 0.961 . S
H1287 C1271 0.960 . S
C1288 C1289 1.391 . S
C1288 C1290 1.394 . S
C1288 H1304 0.931 . S
C1289 C1288 1.391 . S
C1289 C1293 1.376 . S
C1290 C1288 1.394 . S
C1290 C1291 1.369 . S
C1290 C1294 1.531 . S
C1291 C1290 1.369 . S
C1291 C1292 1.410 . S
C1291 C1299 1.503 . S
C1292 C1291 1.410 . S
C1292 C1293 1.392 . S
C1292 C1295 1.511 . S
C1293 C1289 1.376 . S
C1293 C1292 1.392 . S
C1293 H1305 0.929 . S
C1294 C1290 1.531 . S
C1294 H1306 0.960 . S
C1294 H1307 0.962 . S
C1294 H1308 0.960 . S
C1295 C1292 1.511 . S
C1295 H1309 0.961 . S
C1295 H1310 0.961 . S
C1295 H1311 0.961 . S
C1296 C1297 1.370 . S
C1296 C1298 1.363 . S
C1296 H1312 0.931 . S
C1297 C1296 1.370 . S
C1297 C1301 1.408 . S
C1298 C1296 1.363 . S
C1298 C1299 1.370 . S
C1298 C1302 1.524 . S
C1299 C1291 1.503 . S
C1299 C1298 1.370 . S
C1299 C1300 1.403 . S
C1300 C1299 1.403 . S
C1300 C1301 1.404 . S
C1300 C1303 1.539 . S
C1301 C1297 1.408 . S
C1301 C1300 1.404 . S
C1301 H1313 0.930 . S
C1302 C1298 1.524 . S
C1302 H1314 0.956 . S
C1302 H1315 0.961 . S
C1302 H1316 0.961 . S
C1303 C1300 1.539 . S
C1303 H1317 0.958 . S
C1303 H1318 0.961 . S
C1303 H1319 0.960 . S
H1304 C1288 0.931 . S
H1305 C1293 0.929 . S
H1306 C1294 0.960 . S
H1307 C1294 0.962 . S
H1308 C1294 0.960 . S
H1309 C1295 0.961 . S
H1310 C1295 0.961 . S
H1311 C1295 0.961 . S
H1312 C1296 0.931 . S
H1313 C1301 0.930 . S
H1314 C1302 0.956 . S
H1315 C1302 0.961 . S
H1316 C1302 0.961 . S
H1317 C1303 0.958 . S
H1318 C1303 0.961 . S
H1319 C1303 0.960 . S
C1320 C1321 1.391 . S
C1320 C1322 1.394 . S
C1320 H1336 0.931 . S
C1321 C1320 1.391 . S
C1321 C1325 1.376 . S
C1322 C1320 1.394 . S
C1322 C1323 1.369 . S
C1322 C1326 1.531 . S
C1323 C1322 1.369 . S
C1323 C1324 1.410 . S
C1323 C1331 1.503 . S
C1324 C1323 1.410 . S
C1324 C1325 1.392 . S
C1324 C1327 1.511 . S
C1325 C1321 1.376 . S
C1325 C1324 1.392 . S
C1325 H1337 0.929 . S
C1326 C1322 1.531 . S
C1326 H1338 0.960 . S
C1326 H1339 0.962 . S
C1326 H1340 0.960 . S
C1327 C1324 1.511 . S
C1327 H1341 0.961 . S
C1327 H1342 0.961 . S
C1327 H1343 0.961 . S
C1328 C1329 1.370 . S
C1328 C1330 1.363 . S
C1328 H1344 0.931 . S
C1329 C1328 1.370 . S
C1329 C1333 1.408 . S
C1330 C1328 1.363 . S
C1330 C1331 1.370 . S
C1330 C1334 1.524 . S
C1331 C1323 1.503 . S
C1331 C1330 1.370 . S
C1331 C1332 1.403 . S
C1332 C1331 1.403 . S
C1332 C1333 1.404 . S
C1332 C1335 1.539 . S
C1333 C1329 1.408 . S
C1333 C1332 1.404 . S
C1333 H1345 0.930 . S
C1334 C1330 1.524 . S
C1334 H1346 0.956 . S
C1334 H1347 0.961 . S
C1334 H1348 0.961 . S
C1335 C1332 1.539 . S
C1335 H1349 0.958 . S
C1335 H1350 0.961 . S
C1335 H1351 0.960 . S
H1336 C1320 0.931 . S
H1337 C1325 0.929 . S
H1338 C1326 0.960 . S
H1339 C1326 0.962 . S
H1340 C1326 0.960 . S
H1341 C1327 0.961 . S
H1342 C1327 0.961 . S
H1343 C1327 0.961 . S
H1344 C1328 0.931 . S
H1345 C1333 0.930 . S
H1346 C1334 0.956 . S
H1347 C1334 0.961 . S
H1348 C1334 0.961 . S
H1349 C1335 0.958 . S
H1350 C1335 0.961 . S
H1351 C1335 0.960 . S
C1352 C1353 1.391 . S
C1352 C1354 1.394 . S
C1352 H1368 0.931 . S
C1353 C1352 1.391 . S
C1353 C1357 1.376 . S
C1354 C1352 1.394 . S
C1354 C1355 1.369 . S
C1354 C1358 1.531 . S
C1355 C1354 1.369 . S
C1355 C1356 1.410 . S
C1355 C1363 1.503 . S
C1356 C1355 1.410 . S
C1356 C1357 1.392 . S
C1356 C1359 1.511 . S
C1357 C1353 1.376 . S
C1357 C1356 1.392 . S
C1357 H1369 0.929 . S
C1358 C1354 1.531 . S
C1358 H1370 0.960 . S
C1358 H1371 0.962 . S
C1358 H1372 0.960 . S
C1359 C1356 1.511 . S
C1359 H1373 0.961 . S
C1359 H1374 0.961 . S
C1359 H1375 0.961 . S
C1360 C1361 1.370 . S
C1360 C1362 1.363 . S
C1360 H1376 0.931 . S
C1361 C1360 1.370 . S
C1361 C1365 1.408 . S
C1362 C1360 1.363 . S
C1362 C1363 1.370 . S
C1362 C1366 1.524 . S
C1363 C1355 1.503 . S
C1363 C1362 1.370 . S
C1363 C1364 1.403 . S
C1364 C1363 1.403 . S
C1364 C1365 1.404 . S
C1364 C1367 1.539 . S
C1365 C1361 1.408 . S
C1365 C1364 1.404 . S
C1365 H1377 0.930 . S
C1366 C1362 1.524 . S
C1366 H1378 0.956 . S
C1366 H1379 0.961 . S
C1366 H1380 0.961 . S
C1367 C1364 1.539 . S
C1367 H1381 0.958 . S
C1367 H1382 0.961 . S
C1367 H1383 0.960 . S
H1368 C1352 0.931 . S
H1369 C1357 0.929 . S
H1370 C1358 0.960 . S
H1371 C1358 0.962 . S
H1372 C1358 0.960 . S
H1373 C1359 0.961 . S
H1374 C1359 0.961 . S
H1375 C1359 0.961 . S
H1376 C1360 0.931 . S
H1377 C1365 0.930 . S
H1378 C1366 0.956 . S
H1379 C1366 0.961 . S
H1380 C1366 0.961 . S
H1381 C1367 0.958 . S
H1382 C1367 0.961 . S
H1383 C1367 0.960 . S
C1384 C1385 1.391 . S
C1384 C1386 1.394 . S
C1384 H1400 0.931 . S
C1385 C1384 1.391 . S
C1385 C1389 1.376 . S
C1386 C1384 1.394 . S
C1386 C1387 1.369 . S
C1386 C1390 1.531 . S
C1387 C1386 1.369 . S
C1387 C1388 1.410 . S
C1387 C1395 1.503 . S
C1388 C1387 1.410 . S
C1388 C1389 1.392 . S
C1388 C1391 1.511 . S
C1389 C1385 1.376 . S
C1389 C1388 1.392 . S
C1389 H1401 0.929 . S
C1390 C1386 1.531 . S
C1390 H1402 0.960 . S
C1390 H1403 0.962 . S
C1390 H1404 0.960 . S
C1391 C1388 1.511 . S
C1391 H1405 0.961 . S
C1391 H1406 0.961 . S
C1391 H1407 0.961 . S
C1392 C1393 1.370 . S
C1392 C1394 1.363 . S
C1392 H1408 0.931 . S
C1393 C1392 1.370 . S
C1393 C1397 1.408 . S
C1394 C1392 1.363 . S
C1394 C1395 1.370 . S
C1394 C1398 1.524 . S
C1395 C1387 1.503 . S
C1395 C1394 1.370 . S
C1395 C1396 1.403 . S
C1396 C1395 1.403 . S
C1396 C1397 1.404 . S
C1396 C1399 1.539 . S
C1397 C1393 1.408 . S
C1397 C1396 1.404 . S
C1397 H1409 0.930 . S
C1398 C1394 1.524 . S
C1398 H1410 0.956 . S
C1398 H1411 0.961 . S
C1398 H1412 0.961 . S
C1399 C1396 1.539 . S
C1399 H1413 0.958 . S
C1399 H1414 0.961 . S
C1399 H1415 0.960 . S
H1400 C1384 0.931 . S
H1401 C1389 0.929 . S
H1402 C1390 0.960 . S
H1403 C1390 0.962 . S
H1404 C1390 0.960 . S
H1405 C1391 0.961 . S
H1406 C1391 0.961 . S
H1407 C1391 0.961 . S
H1408 C1392 0.931 . S
H1409 C1397 0.930 . S
H1410 C1398 0.956 . S
H1411 C1398 0.961 . S
H1412 C1398 0.961 . S
H1413 C1399 0.958 . S
H1414 C1399 0.961 . S
H1415 C1399 0.960 . S
C1416 C1417 1.391 . S
C1416 C1418 1.394 . S
C1416 H1432 0.931 . S
C1417 C1416 1.391 . S
C1417 C1421 1.376 . S
C1418 C1416 1.394 . S
C1418 C1419 1.369 . S
C1418 C1422 1.531 . S
C1419 C1418 1.369 . S
C1419 C1420 1.410 . S
C1419 C1427 1.503 . S
C1420 C1419 1.410 . S
C1420 C1421 1.392 . S
C1420 C1423 1.511 . S
C1421 C1417 1.376 . S
C1421 C1420 1.392 . S
C1421 H1433 0.929 . S
C1422 C1418 1.531 . S
C1422 H1434 0.960 . S
C1422 H1435 0.962 . S
C1422 H1436 0.960 . S
C1423 C1420 1.511 . S
C1423 H1437 0.961 . S
C1423 H1438 0.961 . S
C1423 H1439 0.961 . S
C1424 C1425 1.370 . S
C1424 C1426 1.363 . S
C1424 H1440 0.931 . S
C1425 C1424 1.370 . S
C1425 C1429 1.408 . S
C1426 C1424 1.363 . S
C1426 C1427 1.370 . S
C1426 C1430 1.524 . S
C1427 C1419 1.503 . S
C1427 C1426 1.370 . S
C1427 C1428 1.403 . S
C1428 C1427 1.403 . S
C1428 C1429 1.404 . S
C1428 C1431 1.539 . S
C1429 C1425 1.408 . S
C1429 C1428 1.404 . S
C1429 H1441 0.930 . S
C1430 C1426 1.524 . S
C1430 H1442 0.956 . S
C1430 H1443 0.961 . S
C1430 H1444 0.961 . S
C1431 C1428 1.539 . S
C1431 H1445 0.958 . S
C1431 H1446 0.961 . S
C1431 H1447 0.960 . S
H1432 C1416 0.931 . S
H1433 C1421 0.929 . S
H1434 C1422 0.960 . S
H1435 C1422 0.962 . S
H1436 C1422 0.960 . S
H1437 C1423 0.961 . S
H1438 C1423 0.961 . S
H1439 C1423 0.961 . S
H1440 C1424 0.931 . S
H1441 C1429 0.930 . S
H1442 C1430 0.956 . S
H1443 C1430 0.961 . S
H1444 C1430 0.961 . S
H1445 C1431 0.958 . S
H1446 C1431 0.961 . S
H1447 C1431 0.960 . S
C1448 C1449 1.391 . S
C1448 C1450 1.394 . S
C1448 H1464 0.931 . S
C1449 C1448 1.391 . S
C1449 C1453 1.376 . S
C1450 C1448 1.394 . S
C1450 C1451 1.369 . S
C1450 C1454 1.531 . S
C1451 C1450 1.369 . S
C1451 C1452 1.410 . S
C1451 C1459 1.503 . S
C1452 C1451 1.410 . S
C1452 C1453 1.392 . S
C1452 C1455 1.511 . S
C1453 C1449 1.376 . S
C1453 C1452 1.392 . S
C1453 H1465 0.929 . S
C1454 C1450 1.531 . S
C1454 H1466 0.960 . S
C1454 H1467 0.962 . S
C1454 H1468 0.960 . S
C1455 C1452 1.511 . S
C1455 H1469 0.961 . S
C1455 H1470 0.961 . S
C1455 H1471 0.961 . S
C1456 C1457 1.370 . S
C1456 C1458 1.363 . S
C1456 H1472 0.931 . S
C1457 C1456 1.370 . S
C1457 C1461 1.408 . S
C1458 C1456 1.363 . S
C1458 C1459 1.370 . S
C1458 C1462 1.524 . S
C1459 C1451 1.503 . S
C1459 C1458 1.370 . S
C1459 C1460 1.403 . S
C1460 C1459 1.403 . S
C1460 C1461 1.404 . S
C1460 C1463 1.539 . S
C1461 C1457 1.408 . S
C1461 C1460 1.404 . S
C1461 H1473 0.930 . S
C1462 C1458 1.524 . S
C1462 H1474 0.956 . S
C1462 H1475 0.961 . S
C1462 H1476 0.961 . S
C1463 C1460 1.539 . S
C1463 H1477 0.958 . S
C1463 H1478 0.961 . S
C1463 H1479 0.960 . S
H1464 C1448 0.931 . S
H1465 C1453 0.929 . S
H1466 C1454 0.960 . S
H1467 C1454 0.962 . S
H1468 C1454 0.960 . S
H1469 C1455 0.961 . S
H1470 C1455 0.961 . S
H1471 C1455 0.961 . S
H1472 C1456 0.931 . S
H1473 C1461 0.930 . S
H1474 C1462 0.956 . S
H1475 C1462 0.961 . S
H1476 C1462 0.961 . S
H1477 C1463 0.958 . S
H1478 C1463 0.961 . S
H1479 C1463 0.960 . S
C1480 C1481 1.391 . S
C1480 C1482 1.394 . S
C1480 H1496 0.931 . S
C1481 C1480 1.391 . S
C1481 C1485 1.376 . S
C1482 C1480 1.394 . S
C1482 C1483 1.369 . S
C1482 C1486 1.531 . S
C1483 C1482 1.369 . S
C1483 C1484 1.410 . S
C1483 C1491 1.503 . S
C1484 C1483 1.410 . S
C1484 C1485 1.392 . S
C1484 C1487 1.511 . S
C1485 C1481 1.376 . S
C1485 C1484 1.392 . S
C1485 H1497 0.929 . S
C1486 C1482 1.531 . S
C1486 H1498 0.960 . S
C1486 H1499 0.962 . S
C1486 H1500 0.960 . S
C1487 C1484 1.511 . S
C1487 H1501 0.961 . S
C1487 H1502 0.961 . S
C1487 H1503 0.961 . S
C1488 C1489 1.370 . S
C1488 C1490 1.363 . S
C1488 H1504 0.931 . S
C1489 C1488 1.370 . S
C1489 C1493 1.408 . S
C1490 C1488 1.363 . S
C1490 C1491 1.370 . S
C1490 C1494 1.524 . S
C1491 C1483 1.503 . S
C1491 C1490 1.370 . S
C1491 C1492 1.403 . S
C1492 C1491 1.403 . S
C1492 C1493 1.404 . S
C1492 C1495 1.539 . S
C1493 C1489 1.408 . S
C1493 C1492 1.404 . S
C1493 H1505 0.930 . S
C1494 C1490 1.524 . S
C1494 H1506 0.956 . S
C1494 H1507 0.961 . S
C1494 H1508 0.961 . S
C1495 C1492 1.539 . S
C1495 H1509 0.958 . S
C1495 H1510 0.961 . S
C1495 H1511 0.960 . S
H1496 C1480 0.931 . S
H1497 C1485 0.929 . S
H1498 C1486 0.960 . S
H1499 C1486 0.962 . S
H1500 C1486 0.960 . S
H1501 C1487 0.961 . S
H1502 C1487 0.961 . S
H1503 C1487 0.961 . S
H1504 C1488 0.931 . S
H1505 C1493 0.930 . S
H1506 C1494 0.956 . S
H1507 C1494 0.961 . S
H1508 C1494 0.961 . S
H1509 C1495 0.958 . S
H1510 C1495 0.961 . S
H1511 C1495 0.960 . S
C1512 C1513 1.391 . S
C1512 C1514 1.394 . S
C1512 H1528 0.931 . S
C1513 C1512 1.391 . S
C1513 C1517 1.376 . S
C1514 C1512 1.394 . S
C1514 C1515 1.369 . S
C1514 C1518 1.531 . S
C1515 C1514 1.369 . S
C1515 C1516 1.410 . S
C1515 C1523 1.503 . S
C1516 C1515 1.410 . S
C1516 C1517 1.392 . S
C1516 C1519 1.511 . S
C1517 C1513 1.376 . S
C1517 C1516 1.392 . S
C1517 H1529 0.929 . S
C1518 C1514 1.531 . S
C1518 H1530 0.960 . S
C1518 H1531 0.962 . S
C1518 H1532 0.960 . S
C1519 C1516 1.511 . S
C1519 H1533 0.961 . S
C1519 H1534 0.961 . S
C1519 H1535 0.961 . S
C1520 C1521 1.370 . S
C1520 C1522 1.363 . S
C1520 H1536 0.931 . S
C1521 C1520 1.370 . S
C1521 C1525 1.408 . S
C1522 C1520 1.363 . S
C1522 C1523 1.370 . S
C1522 C1526 1.524 . S
C1523 C1515 1.503 . S
C1523 C1522 1.370 . S
C1523 C1524 1.403 . S
C1524 C1523 1.403 . S
C1524 C1525 1.404 . S
C1524 C1527 1.539 . S
C1525 C1521 1.408 . S
C1525 C1524 1.404 . S
C1525 H1537 0.930 . S
C1526 C1522 1.524 . S
C1526 H1538 0.956 . S
C1526 H1539 0.961 . S
C1526 H1540 0.961 . S
C1527 C1524 1.539 . S
C1527 H1541 0.958 . S
C1527 H1542 0.961 . S
C1527 H1543 0.960 . S
H1528 C1512 0.931 . S
H1529 C1517 0.929 . S
H1530 C1518 0.960 . S
H1531 C1518 0.962 . S
H1532 C1518 0.960 . S
H1533 C1519 0.961 . S
H1534 C1519 0.961 . S
H1535 C1519 0.961 . S
H1536 C1520 0.931 . S
H1537 C1525 0.930 . S
H1538 C1526 0.956 . S
H1539 C1526 0.961 . S
H1540 C1526 0.961 . S
H1541 C1527 0.958 . S
H1542 C1527 0.961 . S
H1543 C1527 0.960 . S
C1544 C1545 1.391 . S
C1544 C1546 1.394 . S
C1544 H1560 0.931 . S
C1545 C1544 1.391 . S
C1545 C1549 1.376 . S
C1546 C1544 1.394 . S
C1546 C1547 1.369 . S
C1546 C1550 1.531 . S
C1547 C1546 1.369 . S
C1547 C1548 1.410 . S
C1547 C1555 1.503 . S
C1548 C1547 1.410 . S
C1548 C1549 1.392 . S
C1548 C1551 1.511 . S
C1549 C1545 1.376 . S
C1549 C1548 1.392 . S
C1549 H1561 0.929 . S
C1550 C1546 1.531 . S
C1550 H1562 0.960 . S
C1550 H1563 0.962 . S
C1550 H1564 0.960 . S
C1551 C1548 1.511 . S
C1551 H1565 0.961 . S
C1551 H1566 0.961 . S
C1551 H1567 0.961 . S
C1552 C1553 1.370 . S
C1552 C1554 1.363 . S
C1552 H1568 0.931 . S
C1553 C1552 1.370 . S
C1553 C1557 1.408 . S
C1554 C1552 1.363 . S
C1554 C1555 1.370 . S
C1554 C1558 1.524 . S
C1555 C1547 1.503 . S
C1555 C1554 1.370 . S
C1555 C1556 1.403 . S
C1556 C1555 1.403 . S
C1556 C1557 1.404 . S
C1556 C1559 1.539 . S
C1557 C1553 1.408 . S
C1557 C1556 1.404 . S
C1557 H1569 0.930 . S
C1558 C1554 1.524 . S
C1558 H1570 0.956 . S
C1558 H1571 0.961 . S
C1558 H1572 0.961 . S
C1559 C1556 1.539 . S
C1559 H1573 0.958 . S
C1559 H1574 0.961 . S
C1559 H1575 0.960 . S
H1560 C1544 0.931 . S
H1561 C1549 0.929 . S
H1562 C1550 0.960 . S
H1563 C1550 0.962 . S
H1564 C1550 0.960 . S
H1565 C1551 0.961 . S
H1566 C1551 0.961 . S
H1567 C1551 0.961 . S
H1568 C1552 0.931 . S
H1569 C1557 0.930 . S
H1570 C1558 0.956 . S
H1571 C1558 0.961 . S
H1572 C1558 0.961 . S
H1573 C1559 0.958 . S
H1574 C1559 0.961 . S
H1575 C1559 0.960 . S
C1576 C1577 1.391 . S
C1576 C1578 1.394 . S
C1576 H1592 0.931 . S
C1577 C1576 1.391 . S
C1577 C1581 1.376 . S
C1578 C1576 1.394 . S
C1578 C1579 1.369 . S
C1578 C1582 1.531 . S
C1579 C1578 1.369 . S
C1579 C1580 1.410 . S
C1579 C1587 1.503 . S
C1580 C1579 1.410 . S
C1580 C1581 1.392 . S
C1580 C1583 1.511 . S
C1581 C1577 1.376 . S
C1581 C1580 1.392 . S
C1581 H1593 0.929 . S
C1582 C1578 1.531 . S
C1582 H1594 0.960 . S
C1582 H1595 0.962 . S
C1582 H1596 0.960 . S
C1583 C1580 1.511 . S
C1583 H1597 0.961 . S
C1583 H1598 0.961 . S
C1583 H1599 0.961 . S
C1584 C1585 1.370 . S
C1584 C1586 1.363 . S
C1584 H1600 0.931 . S
C1585 C1584 1.370 . S
C1585 C1589 1.408 . S
C1586 C1584 1.363 . S
C1586 C1587 1.370 . S
C1586 C1590 1.524 . S
C1587 C1579 1.503 . S
C1587 C1586 1.370 . S
C1587 C1588 1.403 . S
C1588 C1587 1.403 . S
C1588 C1589 1.404 . S
C1588 C1591 1.539 . S
C1589 C1585 1.408 . S
C1589 C1588 1.404 . S
C1589 H1601 0.930 . S
C1590 C1586 1.524 . S
C1590 H1602 0.956 . S
C1590 H1603 0.961 . S
C1590 H1604 0.961 . S
C1591 C1588 1.539 . S
C1591 H1605 0.958 . S
C1591 H1606 0.961 . S
C1591 H1607 0.960 . S
H1592 C1576 0.931 . S
H1593 C1581 0.929 . S
H1594 C1582 0.960 . S
H1595 C1582 0.962 . S
H1596 C1582 0.960 . S
H1597 C1583 0.961 . S
H1598 C1583 0.961 . S
H1599 C1583 0.961 . S
H1600 C1584 0.931 . S
H1601 C1589 0.930 . S
H1602 C1590 0.956 . S
H1603 C1590 0.961 . S
H1604 C1590 0.961 . S
H1605 C1591 0.958 . S
H1606 C1591 0.961 . S
H1607 C1591 0.960 . S
C1608 C1609 1.391 . S
C1608 C1610 1.394 . S
C1608 H1624 0.931 . S
C1609 C1608 1.391 . S
C1609 C1613 1.376 . S
C1610 C1608 1.394 . S
C1610 C1611 1.369 . S
C1610 C1614 1.531 . S
C1611 C1610 1.369 . S
C1611 C1612 1.410 . S
C1611 C1619 1.503 . S
C1612 C1611 1.410 . S
C1612 C1613 1.392 . S
C1612 C1615 1.511 . S
C1613 C1609 1.376 . S
C1613 C1612 1.392 . S
C1613 H1625 0.929 . S
C1614 C1610 1.531 . S
C1614 H1626 0.960 . S
C1614 H1627 0.962 . S
C1614 H1628 0.960 . S
C1615 C1612 1.511 . S
C1615 H1629 0.961 . S
C1615 H1630 0.961 . S
C1615 H1631 0.961 . S
C1616 C1617 1.370 . S
C1616 C1618 1.363 . S
C1616 H1632 0.931 . S
C1617 C1616 1.370 . S
C1617 C1621 1.408 . S
C1618 C1616 1.363 . S
C1618 C1619 1.370 . S
C1618 C1622 1.524 . S
C1619 C1611 1.503 . S
C1619 C1618 1.370 . S
C1619 C1620 1.403 . S
C1620 C1619 1.403 . S
C1620 C1621 1.404 . S
C1620 C1623 1.539 . S
C1621 C1617 1.408 . S
C1621 C1620 1.404 . S
C1621 H1633 0.930 . S
C1622 C1618 1.524 . S
C1622 H1634 0.956 . S
C1622 H1635 0.961 . S
C1622 H1636 0.961 . S
C1623 C1620 1.539 . S
C1623 H1637 0.958 . S
C1623 H1638 0.961 . S
C1623 H1639 0.960 . S
H1624 C1608 0.931 . S
H1625 C1613 0.929 . S
H1626 C1614 0.960 . S
H1627 C1614 0.962 . S
H1628 C1614 0.960 . S
H1629 C1615 0.961 . S
H1630 C1615 0.961 . S
H1631 C1615 0.961 . S
H1632 C1616 0.931 . S
H1633 C1621 0.930 . S
H1634 C1622 0.956 . S
H1635 C1622 0.961 . S
H1636 C1622 0.961 . S
H1637 C1623 0.958 . S
H1638 C1623 0.961 . S
H1639 C1623 0.960 . S
C1640 C1641 1.391 . S
C1640 C1642 1.394 . S
C1640 H1656 0.931 . S
C1641 C1640 1.391 . S
C1641 C1645 1.376 . S
C1642 C1640 1.394 . S
C1642 C1643 1.369 . S
C1642 C1646 1.531 . S
C1643 C1642 1.369 . S
C1643 C1644 1.410 . S
C1643 C1651 1.503 . S
C1644 C1643 1.410 . S
C1644 C1645 1.392 . S
C1644 C1647 1.511 . S
C1645 C1641 1.376 . S
C1645 C1644 1.392 . S
C1645 H1657 0.929 . S
C1646 C1642 1.531 . S
C1646 H1658 0.960 . S
C1646 H1659 0.962 . S
C1646 H1660 0.960 . S
C1647 C1644 1.511 . S
C1647 H1661 0.961 . S
C1647 H1662 0.961 . S
C1647 H1663 0.961 . S
C1648 C1649 1.370 . S
C1648 C1650 1.363 . S
C1648 H1664 0.931 . S
C1649 C1648 1.370 . S
C1649 C1653 1.408 . S
C1650 C1648 1.363 . S
C1650 C1651 1.370 . S
C1650 C1654 1.524 . S
C1651 C1643 1.503 . S
C1651 C1650 1.370 . S
C1651 C1652 1.403 . S
C1652 C1651 1.403 . S
C1652 C1653 1.404 . S
C1652 C1655 1.539 . S
C1653 C1649 1.408 . S
C1653 C1652 1.404 . S
C1653 H1665 0.930 . S
C1654 C1650 1.524 . S
C1654 H1666 0.956 . S
C1654 H1667 0.961 . S
C1654 H1668 0.961 . S
C1655 C1652 1.539 . S
C1655 H1669 0.958 . S
C1655 H1670 0.961 . S
C1655 H1671 0.960 . S
H1656 C1640 0.931 . S
H1657 C1645 0.929 . S
H1658 C1646 0.960 . S
H1659 C1646 0.962 . S
H1660 C1646 0.960 . S
H1661 C1647 0.961 . S
H1662 C1647 0.961 . S
H1663 C1647 0.961 . S
H1664 C1648 0.931 . S
H1665 C1653 0.930 . S
H1666 C1654 0.956 . S
H1667 C1654 0.961 . S
H1668 C1654 0.961 . S
H1669 C1655 0.958 . S
H1670 C1655 0.961 . S
H1671 C1655 0.960 . S
C1672 C1673 1.391 . S
C1672 C1674 1.394 . S
C1672 H1688 0.931 . S
C1673 C1672 1.391 . S
C1673 C1677 1.376 . S
C1674 C1672 1.394 . S
C1674 C1675 1.369 . S
C1674 C1678 1.531 . S
C1675 C1674 1.369 . S
C1675 C1676 1.410 . S
C1675 C1683 1.503 . S
C1676 C1675 1.410 . S
C1676 C1677 1.392 . S
C1676 C1679 1.511 . S
C1677 C1673 1.376 . S
C1677 C1676 1.392 . S
C1677 H1689 0.929 . S
C1678 C1674 1.531 . S
C1678 H1690 0.960 . S
C1678 H1691 0.962 . S
C1678 H1692 0.960 . S
C1679 C1676 1.511 . S
C1679 H1693 0.961 . S
C1679 H1694 0.961 . S
C1679 H1695 0.961 . S
C1680 C1681 1.370 . S
C1680 C1682 1.363 . S
C1680 H1696 0.931 . S
C1681 C1680 1.370 . S
C1681 C1685 1.408 . S
C1682 C1680 1.363 . S
C1682 C1683 1.370 . S
C1682 C1686 1.524 . S
C1683 C1675 1.503 . S
C1683 C1682 1.370 . S
C1683 C1684 1.403 . S
C1684 C1683 1.403 . S
C1684 C1685 1.404 . S
C1684 C1687 1.539 . S
C1685 C1681 1.408 . S
C1685 C1684 1.404 . S
C1685 H1697 0.930 . S
C1686 C1682 1.524 . S
C1686 H1698 0.956 . S
C1686 H1699 0.961 . S
C1686 H1700 0.961 . S
C1687 C1684 1.539 . S
C1687 H1701 0.958 . S
C1687 H1702 0.961 . S
C1687 H1703 0.960 . S
H1688 C1672 0.931 . S
H1689 C1677 0.929 . S
H1690 C1678 0.960 . S
H1691 C1678 0.962 . S
H1692 C1678 0.960 . S
H1693 C1679 0.961 . S
H1694 C1679 0.961 . S
H1695 C1679 0.961 . S
H1696 C1680 0.931 . S
H1697 C1685 0.930 . S
H1698 C1686 0.956 . S
H1699 C1686 0.961 . S
H1700 C1686 0.961 . S
H1701 C1687 0.958 . S
H1702 C1687 0.961 . S
H1703 C1687 0.960 . S
C1704 C1705 1.391 . S
C1704 C1706 1.394 . S
C1704 H1720 0.931 . S
C1705 C1704 1.391 . S
C1705 C1709 1.376 . S
C1706 C1704 1.394 . S
C1706 C1707 1.369 . S
C1706 C1710 1.531 . S
C1707 C1706 1.369 . S
C1707 C1708 1.410 . S
C1707 C1715 1.503 . S
C1708 C1707 1.410 . S
C1708 C1709 1.392 . S
C1708 C1711 1.511 . S
C1709 C1705 1.376 . S
C1709 C1708 1.392 . S
C1709 H1721 0.929 . S
C1710 C1706 1.531 . S
C1710 H1722 0.960 . S
C1710 H1723 0.962 . S
C1710 H1724 0.960 . S
C1711 C1708 1.511 . S
C1711 H1725 0.961 . S
C1711 H1726 0.961 . S
C1711 H1727 0.961 . S
C1712 C1713 1.370 . S
C1712 C1714 1.363 . S
C1712 H1728 0.931 . S
C1713 C1712 1.370 . S
C1713 C1717 1.408 . S
C1714 C1712 1.363 . S
C1714 C1715 1.370 . S
C1714 C1718 1.524 . S
C1715 C1707 1.503 . S
C1715 C1714 1.370 . S
C1715 C1716 1.403 . S
C1716 C1715 1.403 . S
C1716 C1717 1.404 . S
C1716 C1719 1.539 . S
C1717 C1713 1.408 . S
C1717 C1716 1.404 . S
C1717 H1729 0.930 . S
C1718 C1714 1.524 . S
C1718 H1730 0.956 . S
C1718 H1731 0.961 . S
C1718 H1732 0.961 . S
C1719 C1716 1.539 . S
C1719 H1733 0.958 . S
C1719 H1734 0.961 . S
C1719 H1735 0.960 . S
H1720 C1704 0.931 . S
H1721 C1709 0.929 . S
H1722 C1710 0.960 . S
H1723 C1710 0.962 . S
H1724 C1710 0.960 . S
H1725 C1711 0.961 . S
H1726 C1711 0.961 . S
H1727 C1711 0.961 . S
H1728 C1712 0.931 . S
H1729 C1717 0.930 . S
H1730 C1718 0.956 . S
H1731 C1718 0.961 . S
H1732 C1718 0.961 . S
H1733 C1719 0.958 . S
H1734 C1719 0.961 . S
H1735 C1719 0.960 . S
C1736 C1737 1.391 . S
C1736 C1738 1.394 . S
C1736 H1752 0.931 . S
C1737 C1736 1.391 . S
C1737 C1741 1.376 . S
C1738 C1736 1.394 . S
C1738 C1739 1.369 . S
C1738 C1742 1.531 . S
C1739 C1738 1.369 . S
C1739 C1740 1.410 . S
C1739 C1747 1.503 . S
C1740 C1739 1.410 . S
C1740 C1741 1.392 . S
C1740 C1743 1.511 . S
C1741 C1737 1.376 . S
C1741 C1740 1.392 . S
C1741 H1753 0.929 . S
C1742 C1738 1.531 . S
C1742 H1754 0.960 . S
C1742 H1755 0.962 . S
C1742 H1756 0.960 . S
C1743 C1740 1.511 . S
C1743 H1757 0.961 . S
C1743 H1758 0.961 . S
C1743 H1759 0.961 . S
C1744 C1745 1.370 . S
C1744 C1746 1.363 . S
C1744 H1760 0.931 . S
C1745 C1744 1.370 . S
C1745 C1749 1.408 . S
C1746 C1744 1.363 . S
C1746 C1747 1.370 . S
C1746 C1750 1.524 . S
C1747 C1739 1.503 . S
C1747 C1746 1.370 . S
C1747 C1748 1.403 . S
C1748 C1747 1.403 . S
C1748 C1749 1.404 . S
C1748 C1751 1.539 . S
C1749 C1745 1.408 . S
C1749 C1748 1.404 . S
C1749 H1761 0.930 . S
C1750 C1746 1.524 . S
C1750 H1762 0.956 . S
C1750 H1763 0.961 . S
C1750 H1764 0.961 . S
C1751 C1748 1.539 . S
C1751 H1765 0.958 . S
C1751 H1766 0.961 . S
C1751 H1767 0.960 . S
H1752 C1736 0.931 . S
H1753 C1741 0.929 . S
H1754 C1742 0.960 . S
H1755 C1742 0.962 . S
H1756 C1742 0.960 . S
H1757 C1743 0.961 . S
H1758 C1743 0.961 . S
H1759 C1743 0.961 . S
H1760 C1744 0.931 . S
H1761 C1749 0.930 . S
H1762 C1750 0.956 . S
H1763 C1750 0.961 . S
H1764 C1750 0.961 . S
H1765 C1751 0.958 . S
H1766 C1751 0.961 . S
H1767 C1751 0.960 . S
C1768 C1769 1.391 . S
C1768 C1770 1.394 . S
C1768 H1784 0.931 . S
C1769 C1768 1.391 . S
C1769 C1773 1.376 . S
C1770 C1768 1.394 . S
C1770 C1771 1.369 . S
C1770 C1774 1.531 . S
C1771 C1770 1.369 . S
C1771 C1772 1.410 . S
C1771 C1779 1.503 . S
C1772 C1771 1.410 . S
C1772 C1773 1.392 . S
C1772 C1775 1.511 . S
C1773 C1769 1.376 . S
C1773 C1772 1.392 . S
C1773 H1785 0.929 . S
C1774 C1770 1.531 . S
C1774 H1786 0.960 . S
C1774 H1787 0.962 . S
C1774 H1788 0.960 . S
C1775 C1772 1.511 . S
C1775 H1789 0.961 . S
C1775 H1790 0.961 . S
C1775 H1791 0.961 . S
C1776 C1777 1.370 . S
C1776 C1778 1.363 . S
C1776 H1792 0.931 . S
C1777 C1776 1.370 . S
C1777 C1781 1.408 . S
C1778 C1776 1.363 . S
C1778 C1779 1.370 . S
C1778 C1782 1.524 . S
C1779 C1771 1.503 . S
C1779 C1778 1.370 . S
C1779 C1780 1.403 . S
C1780 C1779 1.403 . S
C1780 C1781 1.404 . S
C1780 C1783 1.539 . S
C1781 C1777 1.408 . S
C1781 C1780 1.404 . S
C1781 H1793 0.930 . S
C1782 C1778 1.524 . S
C1782 H1794 0.956 . S
C1782 H1795 0.961 . S
C1782 H1796 0.961 . S
C1783 C1780 1.539 . S
C1783 H1797 0.958 . S
C1783 H1798 0.961 . S
C1783 H1799 0.960 . S
H1784 C1768 0.931 . S
H1785 C1773 0.929 . S
H1786 C1774 0.960 . S
H1787 C1774 0.962 . S
H1788 C1774 0.960 . S
H1789 C1775 0.961 . S
H1790 C1775 0.961 . S
H1791 C1775 0.961 . S
H1792 C1776 0.931 . S
H1793 C1781 0.930 . S
H1794 C1782 0.956 . S
H1795 C1782 0.961 . S
H1796 C1782 0.961 . S
H1797 C1783 0.958 . S
H1798 C1783 0.961 . S
H1799 C1783 0.960 . S
C1800 C1801 1.391 . S
C1800 C1802 1.394 . S
C1800 H1816 0.931 . S
C1801 C1800 1.391 . S
C1801 C1805 1.376 . S
C1802 C1800 1.394 . S
C1802 C1803 1.369 . S
C1802 C1806 1.531 . S
C1803 C1802 1.369 . S
C1803 C1804 1.410 . S
C1803 C1811 1.503 . S
C1804 C1803 1.410 . S
C1804 C1805 1.392 . S
C1804 C1807 1.511 . S
C1805 C1801 1.376 . S
C1805 C1804 1.392 . S
C1805 H1817 0.929 . S
C1806 C1802 1.531 . S
C1806 H1818 0.960 . S
C1806 H1819 0.962 . S
C1806 H1820 0.960 . S
C1807 C1804 1.511 . S
C1807 H1821 0.961 . S
C1807 H1822 0.961 . S
C1807 H1823 0.961 . S
C1808 C1809 1.370 . S
C1808 C1810 1.363 . S
C1808 H1824 0.931 . S
C1809 C1808 1.370 . S
C1809 C1813 1.408 . S
C1810 C1808 1.363 . S
C1810 C1811 1.370 . S
C1810 C1814 1.524 . S
C1811 C1803 1.503 . S
C1811 C1810 1.370 . S
C1811 C1812 1.403 . S
C1812 C1811 1.403 . S
C1812 C1813 1.404 . S
C1812 C1815 1.539 . S
C1813 C1809 1.408 . S
C1813 C1812 1.404 . S
C1813 H1825 0.930 . S
C1814 C1810 1.524 . S
C1814 H1826 0.956 . S
C1814 H1827 0.961 . S
C1814 H1828 0.961 . S
C1815 C1812 1.539 . S
C1815 H1829 0.958 . S
C1815 H1830 0.961 . S
C1815 H1831 0.960 . S
H1816 C1800 0.931 . S
H1817 C1805 0.929 . S
H1818 C1806 0.960 . S
H1819 C1806 0.962 . S
H1820 C1806 0.960 . S
H1821 C1807 0.961 . S
H1822 C1807 0.961 . S
H1823 C1807 0.961 . S
H1824 C1808 0.931 . S
H1825 C1813 0.930 . S
H1826 C1814 0.956 . S
H1827 C1814 0.961 . S
H1828 C1814 0.961 . S
H1829 C1815 0.958 . S
H1830 C1815 0.961 . S
H1831 C1815 0.960 . S
C817 C413 1.457 . S
C809 C36 1.449 . S
C849 C466 1.285 . S
C841 C93 1.291 . S
C881 C529 1.528 . S
C873 C132 1.526 . S
C913 C572 1.252 . S
C905 C174 1.246 . S
C937 C213 1.518 . S
C945 C528 1.524 . S
C977 C565 1.312 . S
C969 C285 1.315 . S
C1009 C406 1.461 . S
C1001 C324 1.460 . S
C1041 C459 1.224 . S
C1033 C366 1.208 . S
C1073 C512 1.483 . S
C1065 C357 1.485 . S
C1105 C581 1.791 . S
C1097 C222 1.790 . S
C1137 C422 1.552 . S
C1129 C276 1.551 . S
C1169 C475 1.724 . S
C1161 C333 1.714 . S
C1201 C423 1.546 . S
C1193 C84 1.537 . S
C1233 C476 1.785 . S
C1225 C141 1.768 . S
C1265 C519 1.493 . S
C1257 C165 1.483 . S
C1297 C582 1.733 . S
C1289 C45 1.720 . S
C1329 C625 1.430 . S
C1321 C372 1.429 . S
C1353 C237 1.670 . S
C1361 C678 1.670 . S
C1385 C261 1.552 . S
C1393 C740 1.554 . S
C1417 C318 1.667 . S
C1425 C794 1.667 . S
C1449 C69 1.480 . S
C1457 C741 1.492 . S
C1481 C126 1.732 . S
C1489 C793 1.735 . S
C1513 C180 1.478 . S
C1521 C618 1.486 . S
C1553 C671 1.612 . S
C1545 C30 1.608 . S
C1585 C731 1.455 . S
C1577 C21 1.457 . S
C1609 C78 1.341 . S
C1617 C777 1.338 . S
C1641 C117 1.566 . S
C1649 C634 1.579 . S
C1673 C189 1.297 . S
C1681 C687 1.326 . S
C1713 C635 1.515 . S
C1705 C228 1.512 . S
C1745 C688 1.391 . S
C1737 C270 1.391 . S
C1769 C309 1.504 . S
C1777 C724 1.514 . S
C1809 C784 1.282 . S
C1801 C381 1.259 . S
