# Generated by pormake.
# Topology anh, (6,3)-cn, num edge types: 1
# Building blocks:
#     Node 0, Type 0, BuildingBlock: GEDQOX_clean_sbu_0, # of connection points: 6
#     Node 1, Type 0, BuildingBlock: GEDQOX_clean_sbu_0, # of connection points: 6
#     Node 2, Type 0, BuildingBlock: GEDQOX_clean_sbu_0, # of connection points: 6
#     Node 3, Type 1, BuildingBlock: VETTIZ_charged_linker_0, # of connection points: 3
#     Node 4, Type 1, BuildingBlock: VETTIZ_charged_linker_0, # of connection points: 3
#     Node 5, Type 1, BuildingBlock: VETTIZ_charged_linker_0, # of connection points: 3
#     Node 6, Type 1, BuildingBlock: VETTIZ_charged_linker_0, # of connection points: 3
#     Node 7, Type 1, BuildingBlock: VETTIZ_charged_linker_0, # of connection points: 3
#     Node 8, Type 1, BuildingBlock: VETTIZ_charged_linker_0, # of connection points: 3
#     Edge 9, Type (0, 1), BuildingBlock: OJICUG_clean_linker_0, # of connection points: 2
#     Edge 10, Type (0, 1), BuildingBlock: OJICUG_clean_linker_0, # of connection points: 2
#     Edge 11, Type (0, 1), BuildingBlock: OJICUG_clean_linker_0, # of connection points: 2
#     Edge 12, Type (0, 1), BuildingBlock: OJICUG_clean_linker_0, # of connection points: 2
#     Edge 13, Type (0, 1), BuildingBlock: OJICUG_clean_linker_0, # of connection points: 2
#     Edge 14, Type (0, 1), BuildingBlock: OJICUG_clean_linker_0, # of connection points: 2
#     Edge 15, Type (0, 1), BuildingBlock: OJICUG_clean_linker_0, # of connection points: 2
#     Edge 16, Type (0, 1), BuildingBlock: OJICUG_clean_linker_0, # of connection points: 2
#     Edge 17, Type (0, 1), BuildingBlock: OJICUG_clean_linker_0, # of connection points: 2
#     Edge 18, Type (0, 1), BuildingBlock: OJICUG_clean_linker_0, # of connection points: 2
#     Edge 19, Type (0, 1), BuildingBlock: OJICUG_clean_linker_0, # of connection points: 2
#     Edge 20, Type (0, 1), BuildingBlock: OJICUG_clean_linker_0, # of connection points: 2
#     Edge 21, Type (0, 1), BuildingBlock: OJICUG_clean_linker_0, # of connection points: 2
#     Edge 22, Type (0, 1), BuildingBlock: OJICUG_clean_linker_0, # of connection points: 2
#     Edge 23, Type (0, 1), BuildingBlock: OJICUG_clean_linker_0, # of connection points: 2
#     Edge 24, Type (0, 1), BuildingBlock: OJICUG_clean_linker_0, # of connection points: 2
#     Edge 25, Type (0, 1), BuildingBlock: OJICUG_clean_linker_0, # of connection points: 2
#     Edge 26, Type (0, 1), BuildingBlock: OJICUG_clean_linker_0, # of connection points: 2
# Relax obj value: 0.213
# Max RMSD: 0.228
# Mean RMSD: 0.169
data_MOF--net-anh--node1-GEDQOX_clean_sbu_0--node2-VETTIZ_charged_linker_0--edge1-OJICUG_clean_linker_0
_symmetry_space_group_name_H-M    P1
_symmetry_Int_Tables_number       1
_symmetry_cell_setting            triclinic
loop_
_symmetry_equiv_pos_as_xyz
'x, y, z'
_cell_length_a     29.512899
_cell_length_b     27.464627
_cell_length_c     52.633644
_cell_angle_alpha  93.007902
_cell_angle_beta   90.682241
_cell_angle_gamma 102.90254
loop_
_atom_site_label
_atom_site_type_symbol
_atom_site_fract_x
_atom_site_fract_y
_atom_site_fract_z
_atom_type_partial_charge
Nd0 Nd 0.09814 0.54889 0.15779 0.0
Nd1 Nd 0.0714 0.43616 0.15631 0.0
C2 C 0.13896 0.63786 0.14293 0.0
C3 C 0.18445 0.67247 0.14961 0.0
C4 C 0.22119 0.67772 0.1324 0.0
C5 C 0.26454 0.70943 0.13866 0.0
C6 C 0.27219 0.73648 0.16232 0.0
C7 C 0.23562 0.73076 0.17961 0.0
C8 C 0.19233 0.69923 0.17335 0.0
C9 C 0.09327 0.52516 0.20776 0.0
C10 C 0.18645 0.48353 0.15758 0.0
C11 C 1.02553 0.34189 0.15643 0.0
C12 C 0.97496 0.32121 0.15663 0.0
C13 C 0.9462 0.34942 0.16834 0.0
C14 C 0.89837 0.33162 0.16817 0.0
C15 C 0.87814 0.28255 0.15877 0.0
C16 C 0.90655 0.25541 0.14538 0.0
C17 C 0.95459 0.27517 0.14391 0.0
C18 C 0.08745 0.47909 0.11153 0.0
C19 C 0.98238 0.50123 0.15564 0.0
O20 O 0.14115 0.5961 0.13031 0.0
O21 O 0.10689 0.63147 0.16032 0.0
O22 O 0.10495 0.57004 0.20001 0.0
O23 O 0.08536 0.49299 0.1892 0.0
O24 O 0.17222 0.52564 0.15352 0.0
O25 O 0.15359 0.44283 0.16237 0.0
O26 O 1.04443 0.36769 0.17709 0.0
O27 O 1.04019 0.36368 0.13572 0.0
O28 O 0.10642 0.44281 0.11737 0.0
O29 O 1.06333 0.49165 0.1289 0.0
O30 O 0.99606 0.45817 0.15809 0.0
O31 O 1.01583 0.54269 0.15306 0.0
H32 H 0.21643 0.65718 0.11406 0.0
H33 H 0.29215 0.71256 0.12505 0.0
H34 H 0.24018 0.7515 0.19789 0.0
H35 H 0.16507 0.69596 0.18717 0.0
H36 H 0.96061 0.38469 0.17852 0.0
H37 H 0.87779 0.35553 0.17704 0.0
H38 H 0.89252 0.21797 0.13729 0.0
H39 H 0.97599 0.25363 0.13381 0.0
Nd40 Nd 0.51327 0.01478 0.51242 0.0
Nd41 Nd 0.61115 0.0456 0.51179 0.0
C42 C 0.42996 0.96697 0.52545 0.0
C43 C 0.40149 0.91595 0.52022 0.0
C44 C 0.39842 0.87983 0.53852 0.0
C45 C 0.37107 0.83162 0.53362 0.0
C46 C 0.34684 0.81889 0.51029 0.0
C47 C 0.35045 0.85466 0.49191 0.0
C48 C 0.37735 0.90275 0.49684 0.0
C49 C 0.54166 0.0362 0.4642 0.0
C50 C 0.57527 0.9272 0.50331 0.0
C51 C 0.69796 0.09658 0.51271 0.0
C52 C 0.72014 0.15016 0.51414 0.0
C53 C 0.71042 0.18202 0.49583 0.0
C54 C 0.73732 0.23057 0.49538 0.0
C55 C 0.77411 0.24747 0.51312 0.0
C56 C 0.77961 0.21813 0.53337 0.0
C57 C 0.75268 0.16952 0.53386 0.0
C58 C 0.57715 0.02182 0.55888 0.0
C59 C 0.55007 0.132 0.51063 0.0
O60 O 0.46716 0.97076 0.53982 0.0
O61 O 0.43698 0.99627 0.50636 0.0
O62 O 0.50438 0.04609 0.47406 0.0
O63 O 0.56187 1.01244 0.47907 0.0
O64 O 0.53446 0.93783 0.50788 0.0
O65 O 0.61285 0.96345 0.50187 0.0
O66 O 0.67569 0.07724 0.49157 0.0
O67 O 0.67619 0.0805 0.53303 0.0
O68 O 0.60914 1.0031 0.54821 0.0
O69 O 0.56217 0.04989 0.54419 0.0
O70 O 0.58759 0.11839 0.50229 0.0
O71 O 0.51702 0.09866 0.52074 0.0
H72 H 0.41687 0.88893 0.55668 0.0
H73 H 0.36868 0.8044 0.54801 0.0
H74 H 0.33138 0.84579 0.47393 0.0
H75 H 0.37884 0.92961 0.48235 0.0
H76 H 0.68432 0.16855 0.48093 0.0
H77 H 0.73289 0.25286 0.47952 0.0
H78 H 0.80798 0.23064 0.54713 0.0
H79 H 0.75948 0.14594 0.54866 0.0
Nd80 Nd 0.53977 0.51327 0.83002 0.0
Nd81 Nd 0.62898 0.54537 0.8296 0.0
C82 C 0.45716 0.49124 0.809 0.0
C83 C 0.42816 0.52704 0.80703 0.0
C84 C 0.42395 0.54839 0.78367 0.0
C85 C 0.40252 0.58847 0.78248 0.0
C86 C 0.38463 0.60695 0.80459 0.0
C87 C 0.39373 0.5887 0.82827 0.0
C88 C 0.41374 0.54819 0.82934 0.0
C89 C 0.55725 0.51857 0.8816 0.0
C90 C 0.57792 0.63452 0.83854 0.0
C91 C 0.71777 0.55374 0.82687 0.0
C92 C 0.73722 0.5099 0.82129 0.0
C93 C 0.74345 0.4788 0.84077 0.0
C94 C 0.76535 0.43966 0.83541 0.0
C95 C 0.78846 0.43901 0.81217 0.0
C96 C 0.76632 0.45477 0.79136 0.0
C97 C 0.74436 0.49436 0.79597 0.0
C98 C 0.59086 0.54533 0.78184 0.0
C99 C 0.58786 0.42286 0.83239 0.0
O100 O 0.49466 0.50249 0.79578 0.0
O101 O 0.46496 0.47823 0.83194 0.0
O102 O 0.51669 0.50588 0.87049 0.0
O103 O 0.59029 0.53042 0.86609 0.0
O104 O 0.54216 0.59867 0.8306 0.0
O105 O 0.61765 0.62247 0.84349 0.0
O106 O 0.69793 0.55598 0.84882 0.0
O107 O 0.6938 0.56553 0.80823 0.0
O108 O 0.61312 0.58559 0.79423 0.0
O109 O 0.58453 0.50876 0.79609 0.0
O110 O 0.62593 0.45905 0.83297 0.0
O111 O 0.54769 0.43427 0.83038 0.0
H112 H 0.43704 0.5339 0.76638 0.0
H113 H 0.39586 0.60175 0.76409 0.0
H114 H 0.38093 0.60169 0.84595 0.0
H115 H 0.41792 0.53376 0.84779 0.0
H116 H 0.73348 0.48582 0.86012 0.0
H117 H 0.77413 0.4198 0.85132 0.0
H118 H 0.77726 0.44784 0.77219 0.0
H119 H 0.73553 0.51416 0.78003 0.0
C120 C 0.67326 0.13689 0.19186 0.0
C121 C 0.71175 0.17097 0.20369 0.0
C122 C 0.71569 0.17385 0.23055 0.0
C123 C 0.64345 0.11351 0.23341 0.0
C124 C 0.63983 0.10802 0.20717 0.0
C125 C 0.59877 0.06664 0.19846 0.0
H126 H 0.41361 0.88848 0.23331 0.0
C127 C 0.60479 0.07807 0.24418 0.0
C128 C 0.57804 0.05001 0.2239 0.0
H129 H 0.4636 0.91294 0.15686 0.0
H130 H 0.52217 0.98413 0.17316 0.0
H131 H 0.51275 0.89331 0.25573 0.0
H132 H 0.42578 0.99914 0.25371 0.0
H133 H 0.45301 1.00838 0.28396 0.0
H134 H 0.41571 0.94843 0.27459 0.0
H135 H 0.46442 0.89093 0.27633 0.0
H136 H 0.52189 0.92693 0.28521 0.0
C137 C 0.61772 0.02512 0.18406 0.0
C138 C 0.56538 0.08903 0.18224 0.0
C139 C 0.59329 0.07256 0.34072 0.0
C140 C 0.56133 0.04264 0.35623 0.0
C141 C 0.52393 1.0069 0.34492 0.0
C142 C 0.51819 1.00066 0.31847 0.0
C143 C 0.55025 0.03052 0.30301 0.0
C144 C 0.58691 0.06589 0.31412 0.0
C145 C 0.6175 0.0937 0.29446 0.0
C146 C 0.59295 0.06908 0.26986 0.0
C147 C 0.55384 0.03221 0.27506 0.0
C148 C 0.66678 0.08309 0.29765 0.0
C149 C 0.61581 0.14973 0.29777 0.0
C150 C 0.43761 0.90741 0.21976 0.0
C151 C 0.43351 0.89316 0.19359 0.0
C152 C 0.46503 0.92217 0.17711 0.0
C153 C 0.49981 0.96331 0.18665 0.0
C154 C 0.50441 0.97487 0.21305 0.0
C155 C 0.47345 0.94676 0.22897 0.0
C156 C 0.48428 0.96145 0.25655 0.0
C157 C 0.52659 1.0036 0.25481 0.0
C158 C 0.53847 1.01195 0.22931 0.0
C159 C 0.49617 0.91598 0.26935 0.0
C160 C 0.44259 0.98005 0.26803 0.0
H161 H 0.68655 0.15214 0.26547 0.0
H162 H 0.6692 0.13255 0.17135 0.0
H163 H 0.56004 0.12451 0.19161 0.0
H164 H 0.53054 0.06406 0.17974 0.0
H165 H 0.57976 0.09748 0.16315 0.0
H166 H 0.64945 0.01914 0.19391 0.0
H167 H 0.62718 0.0354 0.16437 0.0
H168 H 0.59313 0.98841 0.18325 0.0
H169 H 0.6221 0.10067 0.34905 0.0
H170 H 0.49886 0.98387 0.35669 0.0
H171 H 0.48894 0.97269 0.31114 0.0
H172 H 0.66557 0.04736 0.30693 0.0
H173 H 0.69012 0.11329 0.30953 0.0
H174 H 0.68327 0.07806 0.27921 0.0
H175 H 0.58036 0.15386 0.30295 0.0
H176 H 0.62337 0.16978 0.28011 0.0
H177 H 0.64034 0.16939 0.31312 0.0
H178 H 0.74583 0.19665 0.24062 0.0
C179 C 0.68142 0.14671 0.24528 0.0
C180 C 0.56202 0.6733 0.50916 0.0
C181 C 0.56008 0.71958 0.52239 0.0
C182 C 0.54683 0.71856 0.54793 0.0
C183 C 0.54669 0.63064 0.5487 0.0
C184 C 0.55464 0.62862 0.52287 0.0
C185 C 0.55376 0.5745 0.51346 0.0
H186 H 0.56674 0.34084 0.55404 0.0
C187 C 0.54639 0.58165 0.55898 0.0
C188 C 0.54986 0.54709 0.5385 0.0
H189 H 0.53888 0.36657 0.47592 0.0
H190 H 0.5438 0.45625 0.48814 0.0
H191 H 0.63522 0.43391 0.57108 0.0
H192 H 0.48703 0.38739 0.57087 0.0
H193 H 0.50058 0.42206 0.59981 0.0
H194 H 0.52376 0.36718 0.59353 0.0
H195 H 0.60532 0.39522 0.59478 0.0
H196 H 0.62043 0.4626 0.59931 0.0
C197 C 0.59875 0.57187 0.49956 0.0
C198 C 0.51047 0.55542 0.49604 0.0
C199 C 0.55448 0.57046 0.65631 0.0
C200 C 0.55888 0.53091 0.67179 0.0
C201 C 0.5616 0.48477 0.65961 0.0
C202 C 0.55943 0.4776 0.63316 0.0
C203 C 0.55494 0.51694 0.61798 0.0
C204 C 0.55254 0.56247 0.62948 0.0
C205 C 0.54791 0.5996 0.60987 0.0
C206 C 0.54815 0.56843 0.58482 0.0
C207 C 0.55246 0.52052 0.58996 0.0
C208 C 0.59126 0.64343 0.61307 0.0
C209 C 0.50082 0.61504 0.61372 0.0
C210 C 0.56079 0.3647 0.53918 0.0
C211 C 0.55083 0.34533 0.51424 0.0
C212 C 0.54582 0.37977 0.49563 0.0
C213 C 0.54809 0.43156 0.50273 0.0
C214 C 0.55435 0.44866 0.5287 0.0
C215 C 0.55993 0.41405 0.54599 0.0
C216 C 0.55972 0.43264 0.57285 0.0
C217 C 0.55475 0.48515 0.56981 0.0
C218 C 0.55249 0.49662 0.54397 0.0
C219 C 0.60733 0.43085 0.58536 0.0
C220 C 0.5159 0.40071 0.58514 0.0
H221 H 0.53089 0.67769 0.58045 0.0
H222 H 0.57021 0.67232 0.48918 0.0
H223 H 0.47846 0.5593 0.50612 0.0
H224 H 0.50628 0.5156 0.48992 0.0
H225 H 0.5129 0.57724 0.4787 0.0
H226 H 0.62963 0.58766 0.51213 0.0
H227 H 0.60172 0.59348 0.48215 0.0
H228 H 0.59946 0.53268 0.49378 0.0
H229 H 0.55216 0.60655 0.66479 0.0
H230 H 0.56646 0.45391 0.67051 0.0
H231 H 0.56179 0.4413 0.62572 0.0
H232 H 0.62339 0.6289 0.61484 0.0
H233 H 0.58898 0.66728 0.63051 0.0
H234 H 0.59682 0.66751 0.5968 0.0
H235 H 0.47652 0.58812 0.62508 0.0
H236 H 0.48179 0.61522 0.59543 0.0
H237 H 0.50579 0.65247 0.62381 0.0
H238 H 0.54285 0.75251 0.55826 0.0
C239 C 0.54 0.67486 0.56094 0.0
C240 C 0.19786 0.54853 0.84765 0.0
C241 C 0.2444 0.56031 0.85501 0.0
C242 C 0.25721 0.56249 0.88104 0.0
C243 C 0.17697 0.55733 0.89159 0.0
C244 C 0.16586 0.55343 0.86586 0.0
C245 C 0.12377 0.57219 0.85974 0.0
H246 H 0.91476 0.56567 0.88953 0.0
C247 C 0.13801 0.57193 0.90473 0.0
C248 C 0.10752 0.58153 0.8861 0.0
H249 H 0.98295 0.59364 0.81775 0.0
H250 H 1.05558 0.62106 0.83928 0.0
H251 H 0.97434 0.50966 0.91449 0.0
H252 H 0.98665 0.66796 0.921 0.0
H253 H 1.01968 0.65612 0.94712 0.0
H254 H 0.95804 0.62878 0.94482 0.0
H255 H 0.93488 0.54165 0.93045 0.0
H256 H 0.98524 0.53159 0.94676 0.0
C257 C 0.09008 0.5298 0.84373 0.0
C258 C 0.13966 0.6225 0.84639 0.0
C259 C 0.12294 0.5618 -0.00029 0.0
C260 C 0.08661 0.56593 0.01606 0.0
C261 C 1.04731 0.58098 0.00654 0.0
C262 C 1.04274 0.58802 0.9807 0.0
C263 C 0.0782 0.58092 0.96447 0.0
C264 C 0.11806 0.56951 0.97406 0.0
C265 C 0.15303 0.56595 0.95398 0.0
C266 C 0.12623 0.57457 0.93059 0.0
C267 C 0.0828 0.58398 0.93704 0.0
C268 C 0.1634 0.51312 0.95344 0.0
C269 C 0.19631 0.60893 0.95965 0.0
C270 C 0.94555 0.57968 0.8788 0.0
C271 C 0.94415 0.57442 0.85202 0.0
C272 C 0.98345 0.59575 0.83837 0.0
C273 C 1.0261 0.61083 0.85096 0.0
C274 C 1.02856 0.60374 0.87704 0.0
C275 C 0.98895 0.59456 0.89118 0.0
C276 C 1.00008 0.59137 0.91906 0.0
C277 C 1.05181 0.59262 0.91798 0.0
C278 C 0.06673 0.5966 0.89305 0.0
C279 C 0.97214 0.54101 0.92835 0.0
C280 C 0.99049 0.6382 0.93388 0.0
H281 H 0.23412 0.56301 0.91921 0.0
H282 H 0.18755 0.54864 0.8278 0.0
H283 H 0.17747 0.63919 0.84932 0.0
H284 H 0.12328 0.65233 0.85446 0.0
H285 H 0.13272 0.61737 0.82553 0.0
H286 H 0.09147 0.49238 0.85045 0.0
H287 H 0.09963 0.53012 0.82338 0.0
H288 H 1.05329 0.53147 0.8449 0.0
H289 H 0.15354 0.55018 0.00633 0.0
H290 H 1.01931 0.58557 0.0189 0.0
H291 H 1.01129 0.59717 0.97422 0.0
H292 H 0.13051 0.48397 0.95366 0.0
H293 H 0.18495 0.50903 0.97031 0.0
H294 H 0.18177 0.50435 0.93629 0.0
H295 H 0.18608 0.64324 0.96751 0.0
H296 H 0.21573 0.62065 0.9424 0.0
H297 H 0.22009 0.59835 0.97381 0.0
H298 H 0.29355 0.57085 0.88693 0.0
C299 C 0.223 0.55923 0.89958 0.0
C300 C 0.95534 0.42321 0.47968 0.0
C301 C 0.9184 0.38723 0.46825 0.0
C302 C 0.91243 0.38351 0.44155 0.0
C303 C 0.98205 0.44737 0.43773 0.0
C304 C 0.98675 0.45301 0.46399 0.0
C305 C 1.02892 0.49243 0.47252 0.0
H306 H 0.21364 0.66911 0.43995 0.0
C307 C 1.02128 0.48163 0.42675 0.0
C308 C 1.04858 0.50886 0.44702 0.0
H309 H 0.17473 0.62371 0.5158 0.0
H310 H 0.10753 0.56449 0.49814 0.0
H311 H 0.20504 0.56085 0.41998 0.0
H312 H 0.11402 0.66179 0.41458 0.0
H313 H 0.11279 0.63047 0.38446 0.0
H314 H 0.16706 0.66764 0.39748 0.0
H315 H 0.21222 0.60626 0.39626 0.0
H316 H 0.17607 0.5441 0.39056 0.0
C317 C 1.06196 0.4673 0.48767 0.0
C318 C 1.01239 0.53472 0.4878 0.0
C319 C 1.04159 0.47927 0.33042 0.0
C320 C 0.07531 0.50815 0.31536 0.0
C321 C 0.11271 0.54315 0.32728 0.0
C322 C 0.11575 0.5512 0.35363 0.0
C323 C 0.08139 0.52346 0.36853 0.0
C324 C 1.0454 0.48768 0.35707 0.0
C325 C 1.01215 0.46252 0.37644 0.0
C326 C 1.03474 0.4889 0.40116 0.0
C327 C 0.07492 0.52465 0.39622 0.0
C328 C 1.01251 0.40614 0.37486 0.0
C329 C 0.96384 0.474 0.37122 0.0
C330 C 0.19156 0.64604 0.45301 0.0
C331 C 0.20046 0.65125 0.47944 0.0
C332 C 0.16899 0.62117 0.49538 0.0
C333 C 0.1301 0.58628 0.48507 0.0
C334 C 0.12314 0.58048 0.45851 0.0
C335 C 0.15397 0.60982 0.44304 0.0
C336 C 0.14447 0.59544 0.41531 0.0
C337 C 0.10145 0.55385 0.41652 0.0
C338 C 0.08877 0.54557 0.4418 0.0
C339 C 0.18652 0.57595 0.40475 0.0
C340 C 0.1343 0.64109 0.40205 0.0
H341 H 0.93807 0.40785 0.4061 0.0
H342 H 0.9605 0.42691 0.50016 0.0
H343 H 0.98025 0.54189 0.47894 0.0
H344 H 1.03783 0.57093 0.48824 0.0
H345 H 1.00439 0.52449 0.50766 0.0
H346 H 1.06053 0.42863 0.47971 0.0
H347 H 1.05225 0.46482 0.50797 0.0
H348 H 0.09887 0.48669 0.48662 0.0
H349 H 1.01221 0.4525 0.32171 0.0
H350 H 0.13911 0.56562 0.316 0.0
H351 H 0.14436 0.57957 0.36128 0.0
H352 H 1.0485 0.40078 0.37238 0.0
H353 H 0.99092 0.38633 0.35842 0.0
H354 H 1.00041 0.38714 0.3923 0.0
H355 H 0.96722 0.51032 0.36218 0.0
H356 H 0.94477 0.47837 0.38886 0.0
H357 H 0.94197 0.44456 0.35827 0.0
H358 H 0.88341 0.35683 0.43242 0.0
C359 C 0.9441 0.41321 0.42627 0.0
C360 C 0.5722 0.88473 0.83093 0.0
C361 C 0.57011 0.83718 0.81816 0.0
C362 C 0.5668 0.83323 0.7915 0.0
C363 C 0.56693 0.92126 0.79004 0.0
C364 C 0.57038 0.92665 0.81632 0.0
C365 C 0.57133 0.98079 0.82544 0.0
H366 H 0.57767 0.21957 0.78613 0.0
C367 C 0.56567 0.96994 0.77975 0.0
C368 C 0.56855 1.00611 0.80024 0.0
H369 H 0.57926 0.18282 0.86466 0.0
H370 H 0.57401 0.09405 0.85103 0.0
H371 H 0.64361 0.16072 0.76587 0.0
H372 H 0.49563 0.1317 0.7706 0.0
H373 H 0.50474 0.10316 0.74119 0.0
H374 H 0.52697 0.16966 0.74704 0.0
H375 H 0.60821 0.18436 0.74384 0.0
H376 H 0.62407 0.12512 0.73771 0.0
C377 C 0.61725 1.00291 0.8402 0.0
C378 C 0.52855 0.98168 0.84177 0.0
C379 C 0.55435 0.98074 0.68308 0.0
C380 C 0.55373 0.02114 0.66761 0.0
C381 C 0.55589 0.06879 0.67948 0.0
C382 C 0.55836 0.07626 0.7059 0.0
C383 C 0.55916 0.03589 0.72111 0.0
C384 C 0.55718 0.98912 0.70973 0.0
C385 C 0.55972 0.95131 0.72919 0.0
C386 C 0.56255 0.98319 0.75408 0.0
C387 C 0.56261 0.03241 0.74901 0.0
C388 C 0.6051 0.93272 0.72471 0.0
C389 C 0.51427 0.90986 0.7267 0.0
C390 C 0.577 0.19293 0.8007 0.0
C391 C 0.57897 0.20858 0.82637 0.0
C392 C 0.57835 0.172 0.84455 0.0
C393 C 0.57518 0.12065 0.83664 0.0
C394 C 0.5728 0.10603 0.81036 0.0
C395 C 0.57328 0.14285 0.7933 0.0
C396 C 0.5685 0.12378 0.76634 0.0
C397 C 0.56629 0.0692 0.76914 0.0
C398 C 0.56891 0.05728 0.79486 0.0
C399 C 0.61304 0.14982 0.75252 0.0
C400 C 0.52186 0.13268 0.7555 0.0
H401 H 0.56263 0.86799 0.7573 0.0
H402 H 0.57468 0.8889 0.85149 0.0
H403 H 0.49613 0.96226 0.83121 0.0
H404 H 0.52537 0.0203 0.84683 0.0
H405 H 0.53068 0.96247 0.85966 0.0
H406 H 0.6474 0.99909 0.82841 0.0
H407 H 0.61908 0.98315 0.85795 0.0
H408 H 0.62112 0.04308 0.84548 0.0
H409 H 0.55284 0.94353 0.67471 0.0
H410 H 0.55702 0.10104 0.66831 0.0
H411 H 0.56031 0.11373 0.71329 0.0
H412 H 0.63323 0.96322 0.71809 0.0
H413 H 0.5996 0.90134 0.71 0.0
H414 H 0.61974 0.92115 0.74224 0.0
H415 H 0.48477 0.92459 0.71932 0.0
H416 H 0.50237 0.89506 0.74521 0.0
H417 H 0.51833 0.87841 0.71343 0.0
H418 H 0.56535 0.79755 0.78131 0.0
C419 C 0.56524 0.87449 0.77753 0.0
C420 C 0.72962 0.49609 0.1506 0.0
C421 C 0.77141 0.49607 0.1349 0.0
C422 C 0.76049 0.49232 0.10856 0.0
C423 C 0.67793 0.49424 0.11288 0.0
C424 C 0.68257 0.49449 0.13894 0.0
C425 C 0.63165 0.49285 0.14955 0.0
H426 H 0.39362 0.4939 0.10563 0.0
C427 C 0.62878 0.49448 0.1044 0.0
C428 C 0.59836 0.493 0.12549 0.0
H429 H 0.42096 0.47671 0.18456 0.0
H430 H 0.50471 0.48014 0.17501 0.0
H431 H 0.47978 0.57721 0.09772 0.0
H432 H 0.44537 0.41783 0.08588 0.0
H433 H 0.4782 0.4377 0.05945 0.0
H434 H 0.42488 0.45802 0.06491 0.0
H435 H 0.44395 0.54586 0.0714 0.0
H436 H 0.50627 0.56653 0.06909 0.0
C437 C 0.6326 0.539 0.16746 0.0
C438 C 0.61488 0.44485 0.16369 0.0
C439 C 0.60595 0.50487 0.00785 0.0
C440 C 0.5673 0.50755 0.99229 0.0
C441 C 0.52531 0.50943 0.00443 0.0
C442 C 0.52113 0.50688 0.03082 0.0
C443 C 0.55943 0.50294 0.04619 0.0
C444 C 0.60097 0.5026 0.03458 0.0
C445 C 0.6379 0.49891 0.05384 0.0
C446 C 0.61193 0.49725 0.07903 0.0
C447 C 0.5658 0.49905 0.07435 0.0
C448 C 0.67695 0.54735 0.05276 0.0
C449 C 0.65271 0.44881 0.04725 0.0
C450 C 0.41636 0.49168 0.12158 0.0
C451 C 0.3974 0.48602 0.14607 0.0
C452 C 0.43187 0.48146 0.16513 0.0
C453 C 0.48121 0.48365 0.15964 0.0
C454 C 0.49885 0.49 0.1345 0.0
C455 C 0.46442 0.49319 0.11653 0.0
C456 C 0.48317 0.49758 0.09061 0.0
C457 C 0.53392 0.49653 0.09462 0.0
C458 C 0.54726 0.49281 0.12063 0.0
C459 C 0.47785 0.5491 0.08148 0.0
C460 C 0.45657 0.45082 0.07417 0.0
H461 H 0.71594 0.49138 0.07796 0.0
H462 H 0.73331 0.49728 0.1711 0.0
H463 H 0.61426 0.41137 0.15076 0.0
H464 H 0.57919 0.44267 0.17076 0.0
H465 H 0.63844 0.44384 0.18019 0.0
H466 H 0.64493 0.57378 0.15728 0.0
H467 H 0.6564 0.53964 0.18407 0.0
H468 H 0.59724 0.5388 0.17456 0.0
H469 H 0.63899 0.50343 -0.00052 0.0
H470 H 0.49508 0.513 -0.00655 0.0
H471 H 0.48759 0.5078 0.038 0.0
H472 H 0.66325 0.57913 0.04598 0.0
H473 H 0.70477 0.54165 0.03966 0.0
H474 H 0.69267 0.56133 0.07169 0.0
H475 H 0.62425 0.42065 0.03723 0.0
H476 H 0.66041 0.43005 0.0644 0.0
H477 H 0.68325 0.45452 0.03473 0.0
H478 H 0.78544 0.48793 0.09447 0.0
C479 C 0.71689 0.49269 0.09813 0.0
C480 C 0.26826 0.50824 0.13607 0.0
C481 C 0.24023 0.48275 0.15523 0.0
H482 H 0.3346 0.52949 0.11808 0.0
C483 C 0.26568 0.45842 0.1719 0.0
H484 H 0.25207 0.5277 0.12246 0.0
C485 C 0.31521 0.46021 0.16969 0.0
C486 C 0.34318 0.48525 0.15017 0.0
H487 H 0.24738 0.43838 0.18725 0.0
H488 H 0.33144 0.44093 0.18333 0.0
C489 C 0.31709 0.50895 0.13346 0.0
C490 C 0.82774 0.33292 0.51541 0.0
C491 C 0.81468 0.28367 0.50494 0.0
H492 H 0.87242 0.40561 0.51177 0.0
C493 C 0.84004 0.26755 0.48518 0.0
H494 H 0.80889 0.34539 0.53107 0.0
C495 C 0.87595 0.30093 0.47459 0.0
C496 C 0.8868 0.35133 0.48332 0.0
H497 H 0.83092 0.22923 0.47733 0.0
H498 H 0.89397 0.28772 0.45874 0.0
C499 C 0.86399 0.36692 0.50455 0.0
C500 C 0.61508 0.72768 0.84117 0.0
C501 C 0.57485 0.68853 0.83866 0.0
H502 H 0.64503 0.80599 0.83732 0.0
C503 C 0.53211 0.70141 0.83369 0.0
H504 H 0.64873 0.71944 0.84472 0.0
C505 C 0.53005 0.75121 0.82989 0.0
C506 C 0.57055 0.78985 0.83099 0.0
H507 H 0.50036 0.67262 0.83148 0.0
H508 H 0.49706 0.75904 0.82431 0.0
C509 C 0.61298 0.77758 0.83725 0.0
C510 C 0.90948 0.50544 0.12797 0.0
C511 C 0.92857 0.50127 0.15219 0.0
H512 H 0.85382 0.51076 0.10392 0.0
C513 C 0.89464 0.49647 0.17186 0.0
H514 H 0.93233 0.50916 0.11189 0.0
C515 C 0.84532 0.49552 0.1672 0.0
C516 C 0.82581 0.49894 0.14242 0.0
H517 H 0.90618 0.4936 0.19121 0.0
H518 H 0.82247 0.49183 0.18325 0.0
C519 C 0.86135 0.50499 0.12339 0.0
C520 C 0.27829 0.75341 0.52164 0.0
C521 C 0.31504 0.76977 0.50528 0.0
H522 H 0.2123 0.70416 0.52613 0.0
C523 C 0.3174 0.7426 0.48228 0.0
H524 H 0.27603 0.7739 0.53957 0.0
C525 C 0.28183 0.70172 0.47487 0.0
C526 C 0.24217 0.68831 0.48986 0.0
H527 H 0.34592 0.75424 0.46956 0.0
H528 H 0.2849 0.68196 0.45687 0.0
C529 C 0.24182 0.71329 0.51389 0.0
C530 C 0.61917 0.34831 0.84653 0.0
C531 C 0.58758 0.36834 0.8323 0.0
H532 H 0.64037 0.28126 0.85686 0.0
C533 C 0.55111 0.33484 0.81885 0.0
H534 H 0.64696 0.37303 0.85761 0.0
C535 C 0.54663 0.28327 0.81901 0.0
C536 C 0.57886 0.26268 0.83231 0.0
H537 H 0.52598 0.34858 0.80769 0.0
H538 H 0.5187 0.25925 0.80767 0.0
C539 C 0.61476 0.29579 0.84657 0.0
C540 C 0.60834 0.8595 0.52118 0.0
C541 C 0.57893 0.87375 0.50326 0.0
H542 H 0.62579 0.79954 0.54082 0.0
C543 C 0.54849 0.83573 0.48834 0.0
H544 H 0.63139 0.88766 0.53336 0.0
C545 C 0.54576 0.78461 0.49231 0.0
C546 C 0.57271 0.77051 0.51168 0.0
H547 H 0.52534 0.84562 0.47437 0.0
H548 H 0.5201 0.75643 0.4816 0.0
C549 C 0.60512 0.80879 0.5254 0.0
C550 C 0.86292 0.44989 0.83683 0.0
C551 C 0.83958 0.45984 0.81492 0.0
H552 H 0.91155 0.48052 0.86698 0.0
C553 C 0.85911 0.50365 0.80229 0.0
H554 H 0.851 0.41544 0.84631 0.0
C555 C 0.8922 0.54161 0.81463 0.0
C556 C 0.90873 0.53506 0.83889 0.0
H557 H 0.84488 0.51211 0.78444 0.0
H558 H 0.90329 0.57678 0.80565 0.0
C559 C 0.89634 0.4878 0.84912 0.0
C560 C 0.33921 0.80622 0.15142 0.0
C561 C 0.31733 0.77203 0.16888 0.0
H562 H 0.39155 0.8717 0.14532 0.0
C563 C 0.3372 0.7743 0.19336 0.0
H564 H 0.32502 0.8051 0.13227 0.0
C565 C 0.37637 0.81146 0.20069 0.0
C566 C 0.39606 0.84893 0.1841 0.0
H567 H 0.32205 0.74758 0.20704 0.0
H568 H 0.39049 0.81076 0.21968 0.0
C569 C 0.37776 0.84451 0.15899 0.0
C570 C 0.52363 0.20702 0.52859 0.0
C571 C 0.54579 0.18516 0.50919 0.0
H572 H 0.50589 0.27286 0.54468 0.0
C573 C 0.56464 0.21509 0.48912 0.0
H574 H 0.50868 0.18533 0.54428 0.0
C575 C 0.56348 0.26644 0.48933 0.0
C576 C 0.54401 0.28911 0.50982 0.0
H577 H 0.58094 0.19896 0.47346 0.0
H578 H 0.57978 0.28874 0.47417 0.0
C579 C 0.52244 0.25772 0.52881 0.0
C580 C 0.30511 0.58719 0.79348 0.0
C581 C 0.34216 0.62604 0.80248 0.0
H582 H 0.25202 0.52734 0.80597 0.0
C583 C 0.33375 0.6562 0.82348 0.0
H584 H 0.30725 0.56695 0.77545 0.0
C585 C 0.30211 0.63399 0.84131 0.0
C586 C 0.2762 0.58477 0.83615 0.0
H587 H 0.35911 0.69004 0.82934 0.0
H588 H 0.30002 0.65371 0.85948 0.0
C589 C 0.27483 0.56327 0.81127 0.0
C590 C 0.81514 0.27382 0.19059 0.0
C591 C 0.83066 0.25787 0.16709 0.0
H592 H 0.76411 0.26322 0.21869 0.0
C593 C 0.80257 0.21576 0.15374 0.0
H594 H 0.83541 0.30481 0.20225 0.0
C595 C 0.76236 0.18821 0.16479 0.0
C596 C 0.7489 0.20313 0.18906 0.0
H597 H 0.81242 0.2029 0.13527 0.0
H598 H 0.74332 0.15423 0.15479 0.0
C599 C 0.7743 0.24825 0.20077 0.0
C600 C 0.1299 0.52829 0.07803 0.0
C601 C 0.08854 0.49992 0.087 0.0
H602 H 0.16126 0.57533 0.04908 0.0
C603 C 1.04637 0.49646 0.07399 0.0
H604 H 0.16239 0.53242 0.08862 0.0
C605 C 1.04562 0.51949 0.05129 0.0
C606 C 0.08698 0.54767 0.04177 0.0
H607 H 1.01409 0.47529 0.08124 0.0
H608 H 1.01281 0.51368 0.04089 0.0
C609 C 0.12903 0.55288 0.05566 0.0
C610 C 0.58762 0.0243 0.42509 0.0
C611 C 0.55258 0.04365 0.43713 0.0
H612 H 0.61856 1.00968 0.38943 0.0
C613 C 0.52559 0.06881 0.4227 0.0
H614 H 0.60925 1.00522 0.43582 0.0
C615 C 0.53108 0.07153 0.39651 0.0
C616 C 0.56397 0.04959 0.38422 0.0
H617 H 0.49879 0.08478 0.43146 0.0
H618 H 0.50806 0.0887 0.38563 0.0
C619 C 0.59321 0.02719 0.3987 0.0
C620 C 0.59466 0.58455 0.73948 0.0
C621 C 0.57902 0.5427 0.75407 0.0
H622 H 0.60113 0.61389 0.70235 0.0
C623 C 0.55325 0.49853 0.74169 0.0
H624 H 0.61438 0.61937 0.74843 0.0
C625 C 0.54466 0.49575 0.71531 0.0
C626 C 0.56243 0.53674 0.70038 0.0
H627 H 0.54014 0.46584 0.75234 0.0
H628 H 0.52458 0.46092 0.70658 0.0
C629 C 0.58667 0.58158 0.713 0.0
C630 C 0.58652 0.98598 0.60072 0.0
C631 C 0.56604 0.01704 0.58606 0.0
H632 H 0.59886 0.96282 0.63786 0.0
C633 C 0.53725 0.04517 0.59795 0.0
H634 H 0.60853 0.96344 0.59198 0.0
C635 C 0.5311 0.04425 0.62426 0.0
C636 C 0.55393 0.01552 0.63927 0.0
H637 H 0.52065 0.06904 0.58708 0.0
H638 H 0.50936 0.06715 0.63292 0.0
C639 C 0.5806 0.98523 0.62702 0.0
C640 C 0.60423 0.53748 0.92367 0.0
C641 C 0.56337 0.51418 0.90965 0.0
H642 H 0.63787 0.5542 0.96079 0.0
C643 C 0.52655 0.48552 0.92281 0.0
H644 H 0.63357 0.55933 0.91411 0.0
C645 C 0.52933 0.48167 0.94912 0.0
C646 C 0.56867 0.50725 0.96362 0.0
H647 H 0.49501 0.46586 0.91272 0.0
H648 H 0.4999 0.4589 0.9582 0.0
C649 C 0.60678 0.53423 0.95041 0.0
C650 C 0.0782 0.55768 0.25055 0.0
C651 C 0.08227 0.5163 0.23466 0.0
H652 H 0.07091 0.58653 0.28826 0.0
C653 C 0.07669 0.46919 0.24504 0.0
H654 H 0.08104 0.59426 0.24312 0.0
C655 C 0.07099 0.46488 0.27144 0.0
C656 C 0.07044 0.50757 0.28736 0.0
H657 H 0.07877 0.43652 0.23305 0.0
H658 H 0.06955 0.42912 0.27953 0.0
C659 C 0.07203 0.55329 0.27645 0.0
loop_
_geom_bond_atom_site_label_1
_geom_bond_atom_site_label_2
_geom_bond_distance
_geom_bond_site_symmetry_2
_ccdc_geom_bond_type
Nd0 C2 2.836 . S
Nd0 O20 2.500 . S
Nd0 O21 2.492 . S
Nd0 O22 2.487 . S
Nd0 O23 2.682 . S
Nd0 O24 2.410 . S
Nd0 O29 2.414 . S
Nd0 O31 2.424 1_455 S
Nd1 C11 2.836 . S
Nd1 O23 2.414 1_655 S
Nd1 O25 2.424 1_655 S
Nd1 O26 2.500 . S
Nd1 O27 2.492 . S
Nd1 O28 2.487 . S
Nd1 O29 2.682 1_655 S
Nd1 O30 2.410 . S
C2 Nd0 2.836 . S
C2 C3 1.498 . S
C2 O20 1.258 . S
C2 O21 1.239 . S
C3 C2 1.498 . S
C3 C4 1.366 . S
C3 C8 1.407 . S
C4 C3 1.366 . S
C4 C5 1.392 . S
C4 H32 0.930 . S
C5 C4 1.392 . S
C5 C6 1.398 . S
C5 H33 0.929 . S
C6 C5 1.398 . S
C6 C7 1.352 . S
C7 C6 1.352 . S
C7 C8 1.384 . S
C7 H34 0.930 . S
C8 C3 1.407 . S
C8 C7 1.384 . S
C8 H35 0.929 . S
C9 O22 1.241 . S
C9 O23 1.273 . S
C10 O24 1.251 . S
C10 O25 1.268 . S
C11 Nd1 2.836 . S
C11 C12 1.498 . S
C11 O26 1.258 . S
C11 O27 1.239 . S
C12 C11 1.498 . S
C12 C13 1.366 . S
C12 C17 1.407 . S
C13 C12 1.366 . S
C13 C14 1.392 . S
C13 H36 0.930 . S
C14 C13 1.392 . S
C14 C15 1.398 . S
C14 H37 0.929 . S
C15 C14 1.398 . S
C15 C16 1.352 . S
C16 C15 1.352 . S
C16 C17 1.384 . S
C16 H38 0.930 . S
C17 C12 1.407 . S
C17 C16 1.384 . S
C17 H39 0.929 . S
C18 O28 1.241 1_455 S
C18 O29 1.273 . S
C19 O30 1.251 . S
C19 O31 1.268 . S
O20 Nd0 2.500 . S
O20 C2 1.258 . S
O21 Nd0 2.492 . S
O21 C2 1.239 . S
O22 Nd0 2.487 . S
O22 C9 1.241 . S
O23 Nd0 2.682 . S
O23 Nd1 2.414 1_455 S
O23 C9 1.273 . S
O24 Nd0 2.410 . S
O24 C10 1.251 . S
O25 Nd1 2.424 1_455 S
O25 C10 1.268 . S
O26 Nd1 2.500 . S
O26 C11 1.258 . S
O27 Nd1 2.492 . S
O27 C11 1.239 . S
O28 Nd1 2.487 . S
O28 C18 1.241 1_655 S
O29 Nd0 2.414 . S
O29 Nd1 2.682 1_455 S
O29 C18 1.273 . S
O30 Nd1 2.410 . S
O30 C19 1.251 . S
O31 Nd0 2.424 1_655 S
O31 C19 1.268 . S
H32 C4 0.930 . S
H33 C5 0.929 . S
H34 C7 0.930 . S
H35 C8 0.929 . S
H36 C13 0.930 . S
H37 C14 0.929 . S
H38 C16 0.930 . S
H39 C17 0.929 . S
Nd40 C42 2.841 . S
Nd40 O60 2.505 . S
Nd40 O61 2.496 . S
Nd40 O62 2.487 . S
Nd40 O63 2.681 1_565 S
Nd40 O64 2.416 . S
Nd40 O69 2.415 1_565 S
Nd40 O71 2.417 1_565 S
Nd41 C51 2.836 . S
Nd41 O63 2.414 . S
Nd41 O65 2.424 1_545 S
Nd41 O66 2.500 . S
Nd41 O67 2.492 . S
Nd41 O68 2.487 . S
Nd41 O69 2.682 . S
Nd41 O70 2.410 . S
C42 Nd40 2.841 . S
C42 C43 1.498 . S
C42 O60 1.258 . S
C42 O61 1.239 . S
C43 C42 1.498 . S
C43 C44 1.366 . S
C43 C48 1.407 . S
C44 C43 1.366 . S
C44 C45 1.392 . S
C44 H72 0.930 . S
C45 C44 1.392 . S
C45 C46 1.398 . S
C45 H73 0.929 . S
C46 C45 1.398 . S
C46 C47 1.352 . S
C47 C46 1.352 . S
C47 C48 1.384 . S
C47 H74 0.930 . S
C48 C43 1.407 . S
C48 C47 1.384 . S
C48 H75 0.929 . S
C49 O62 1.241 1_545 S
C49 O63 1.273 . S
C50 O64 1.251 . S
C50 O65 1.268 . S
C51 Nd41 2.836 . S
C51 C52 1.498 . S
C51 O66 1.258 . S
C51 O67 1.239 . S
C52 C51 1.498 . S
C52 C53 1.366 . S
C52 C57 1.407 . S
C53 C52 1.366 . S
C53 C54 1.392 . S
C53 H76 0.930 . S
C54 C53 1.392 . S
C54 C55 1.398 . S
C54 H77 0.929 . S
C55 C54 1.398 . S
C55 C56 1.352 . S
C56 C55 1.352 . S
C56 C57 1.384 . S
C56 H78 0.930 . S
C57 C52 1.407 . S
C57 C56 1.384 . S
C57 H79 0.929 . S
C58 O68 1.241 . S
C58 O69 1.273 . S
C59 O70 1.251 . S
C59 O71 1.268 . S
O60 Nd40 2.505 . S
O60 C42 1.258 . S
O61 Nd40 2.496 . S
O61 C42 1.239 . S
O62 Nd40 2.487 . S
O62 C49 1.241 1_565 S
O63 Nd40 2.681 1_545 S
O63 Nd41 2.414 . S
O63 C49 1.273 . S
O64 Nd40 2.416 . S
O64 C50 1.251 . S
O65 Nd41 2.424 1_565 S
O65 C50 1.268 . S
O66 Nd41 2.500 . S
O66 C51 1.258 . S
O67 Nd41 2.492 . S
O67 C51 1.239 . S
O68 Nd41 2.487 . S
O68 C58 1.241 . S
O69 Nd40 2.415 1_545 S
O69 Nd41 2.682 . S
O69 C58 1.273 . S
O70 Nd41 2.410 . S
O70 C59 1.251 . S
O71 Nd40 2.417 1_545 S
O71 C59 1.268 . S
H72 C44 0.930 . S
H73 C45 0.929 . S
H74 C47 0.930 . S
H75 C48 0.929 . S
H76 C53 0.930 . S
H77 C54 0.929 . S
H78 C56 0.930 . S
H79 C57 0.929 . S
Nd80 C82 2.836 . S
Nd80 O100 2.500 . S
Nd80 O101 2.492 . S
Nd80 O102 2.487 . S
Nd80 O103 2.682 . S
Nd80 O104 2.410 . S
Nd80 O109 2.414 . S
Nd80 O111 2.424 . S
Nd81 C91 2.836 . S
Nd81 O103 2.414 . S
Nd81 O105 2.424 . S
Nd81 O106 2.500 . S
Nd81 O107 2.492 . S
Nd81 O108 2.487 . S
Nd81 O109 2.682 . S
Nd81 O110 2.410 . S
C82 Nd80 2.836 . S
C82 C83 1.498 . S
C82 O100 1.258 . S
C82 O101 1.239 . S
C83 C82 1.498 . S
C83 C84 1.366 . S
C83 C88 1.407 . S
C84 C83 1.366 . S
C84 C85 1.392 . S
C84 H112 0.930 . S
C85 C84 1.392 . S
C85 C86 1.398 . S
C85 H113 0.929 . S
C86 C85 1.398 . S
C86 C87 1.352 . S
C87 C86 1.352 . S
C87 C88 1.384 . S
C87 H114 0.930 . S
C88 C83 1.407 . S
C88 C87 1.384 . S
C88 H115 0.929 . S
C89 O102 1.241 . S
C89 O103 1.273 . S
C90 O104 1.251 . S
C90 O105 1.268 . S
C91 Nd81 2.836 . S
C91 C92 1.498 . S
C91 O106 1.258 . S
C91 O107 1.239 . S
C92 C91 1.498 . S
C92 C93 1.366 . S
C92 C97 1.407 . S
C93 C92 1.366 . S
C93 C94 1.392 . S
C93 H116 0.930 . S
C94 C93 1.392 . S
C94 C95 1.398 . S
C94 H117 0.929 . S
C95 C94 1.398 . S
C95 C96 1.352 . S
C96 C95 1.352 . S
C96 C97 1.384 . S
C96 H118 0.930 . S
C97 C92 1.407 . S
C97 C96 1.384 . S
C97 H119 0.929 . S
C98 O108 1.241 . S
C98 O109 1.273 . S
C99 O110 1.251 . S
C99 O111 1.268 . S
O100 Nd80 2.500 . S
O100 C82 1.258 . S
O101 Nd80 2.492 . S
O101 C82 1.239 . S
O102 Nd80 2.487 . S
O102 C89 1.241 . S
O103 Nd80 2.682 . S
O103 Nd81 2.414 . S
O103 C89 1.273 . S
O104 Nd80 2.410 . S
O104 C90 1.251 . S
O105 Nd81 2.424 . S
O105 C90 1.268 . S
O106 Nd81 2.500 . S
O106 C91 1.258 . S
O107 Nd81 2.492 . S
O107 C91 1.239 . S
O108 Nd81 2.487 . S
O108 C98 1.241 . S
O109 Nd80 2.414 . S
O109 Nd81 2.682 . S
O109 C98 1.273 . S
O110 Nd81 2.410 . S
O110 C99 1.251 . S
O111 Nd80 2.424 . S
O111 C99 1.268 . S
H112 C84 0.930 . S
H113 C85 0.929 . S
H114 C87 0.930 . S
H115 C88 0.929 . S
H116 C93 0.930 . S
H117 C94 0.929 . S
H118 C96 0.930 . S
H119 C97 0.929 . S
C120 C121 1.391 . S
C120 C124 1.391 . S
C120 H162 0.948 . S
C121 C120 1.391 . S
C121 C122 1.391 . S
C122 C121 1.391 . S
C122 H178 0.947 . S
C122 C179 1.392 . S
C123 C124 1.391 . S
C123 C127 1.397 . S
C123 C179 1.419 . S
C124 C120 1.391 . S
C124 C123 1.391 . S
C124 C125 1.399 . S
C125 C124 1.399 . S
C125 C128 1.396 . S
C125 C137 1.453 . S
C125 C138 1.684 . S
H126 C150 0.948 . S
C127 C123 1.397 . S
C127 C128 1.394 . S
C127 C146 1.723 . S
C128 C125 1.396 . S
C128 C127 1.394 . S
C128 C158 1.723 1_545 S
H129 C152 0.947 . S
H130 C153 0.948 . S
H131 C159 0.982 . S
H132 C160 0.979 . S
H133 C160 0.980 . S
H134 C160 0.983 . S
H135 C159 0.979 . S
H136 C159 0.977 . S
C137 C125 1.453 . S
C137 H166 0.982 . S
C137 H167 0.979 . S
C137 H168 0.977 1_545 S
C138 C125 1.684 . S
C138 H163 0.979 . S
C138 H164 0.980 . S
C138 H165 0.983 . S
C139 C140 1.391 . S
C139 C144 1.391 . S
C139 H169 0.948 . S
C140 C139 1.391 . S
C140 C141 1.391 . S
C141 C140 1.391 . S
C141 C142 1.392 1_545 S
C141 H170 0.947 1_545 S
C142 C141 1.392 1_565 S
C142 C143 1.419 1_565 S
C142 H171 0.948 . S
C143 C142 1.419 1_545 S
C143 C144 1.391 . S
C143 C147 1.397 . S
C144 C139 1.391 . S
C144 C143 1.391 . S
C144 C145 1.399 . S
C145 C144 1.399 . S
C145 C146 1.396 . S
C145 C148 1.453 . S
C145 C149 1.684 . S
C146 C127 1.723 . S
C146 C145 1.396 . S
C146 C147 1.394 . S
C147 C143 1.397 . S
C147 C146 1.394 . S
C147 C157 1.723 1_545 S
C148 C145 1.453 . S
C148 H172 0.982 . S
C148 H173 0.979 . S
C148 H174 0.977 . S
C149 C145 1.684 . S
C149 H175 0.979 . S
C149 H176 0.980 . S
C149 H177 0.983 . S
C150 H126 0.948 . S
C150 C151 1.391 . S
C150 C155 1.391 . S
C151 C150 1.391 . S
C151 C152 1.391 . S
C152 H129 0.947 . S
C152 C151 1.391 . S
C152 C153 1.392 . S
C153 H130 0.948 . S
C153 C152 1.392 . S
C153 C154 1.419 . S
C154 C153 1.419 . S
C154 C155 1.391 . S
C154 C158 1.397 . S
C155 C150 1.391 . S
C155 C154 1.391 . S
C155 C156 1.399 . S
C156 C155 1.399 . S
C156 C157 1.396 . S
C156 C159 1.453 . S
C156 C160 1.684 . S
C157 C147 1.723 1_565 S
C157 C156 1.396 . S
C157 C158 1.394 . S
C158 C128 1.723 1_565 S
C158 C154 1.397 . S
C158 C157 1.394 . S
C159 H131 0.982 . S
C159 H135 0.979 . S
C159 H136 0.977 . S
C159 C156 1.453 . S
C160 H132 0.979 . S
C160 H133 0.980 . S
C160 H134 0.983 . S
C160 C156 1.684 . S
H161 C179 0.948 . S
H162 C120 0.948 . S
H163 C138 0.979 . S
H164 C138 0.980 . S
H165 C138 0.983 . S
H166 C137 0.982 . S
H167 C137 0.979 . S
H168 C137 0.977 1_565 S
H169 C139 0.948 . S
H170 C141 0.947 1_565 S
H171 C142 0.948 . S
H172 C148 0.982 . S
H173 C148 0.979 . S
H174 C148 0.977 . S
H175 C149 0.979 . S
H176 C149 0.980 . S
H177 C149 0.983 . S
H178 C122 0.947 . S
C179 C122 1.392 . S
C179 C123 1.419 . S
C179 H161 0.948 . S
C180 C181 1.391 . S
C180 C184 1.391 . S
C180 H222 0.948 . S
C181 C180 1.391 . S
C181 C182 1.391 . S
C182 C181 1.391 . S
C182 H238 0.947 . S
C182 C239 1.392 . S
C183 C184 1.391 . S
C183 C187 1.397 . S
C183 C239 1.419 . S
C184 C180 1.391 . S
C184 C183 1.391 . S
C184 C185 1.399 . S
C185 C184 1.399 . S
C185 C188 1.396 . S
C185 C197 1.453 . S
C185 C198 1.684 . S
H186 C210 0.948 . S
C187 C183 1.397 . S
C187 C188 1.394 . S
C187 C206 1.723 . S
C188 C185 1.396 . S
C188 C187 1.394 . S
C188 C218 1.723 . S
H189 C212 0.947 . S
H190 C213 0.948 . S
H191 C219 0.982 . S
H192 C220 0.979 . S
H193 C220 0.980 . S
H194 C220 0.983 . S
H195 C219 0.979 . S
H196 C219 0.977 . S
C197 C185 1.453 . S
C197 H226 0.982 . S
C197 H227 0.979 . S
C197 H228 0.977 . S
C198 C185 1.684 . S
C198 H223 0.979 . S
C198 H224 0.980 . S
C198 H225 0.983 . S
C199 C200 1.391 . S
C199 C204 1.391 . S
C199 H229 0.948 . S
C200 C199 1.391 . S
C200 C201 1.391 . S
C201 C200 1.391 . S
C201 C202 1.392 . S
C201 H230 0.947 . S
C202 C201 1.392 . S
C202 C203 1.419 . S
C202 H231 0.948 . S
C203 C202 1.419 . S
C203 C204 1.391 . S
C203 C207 1.397 . S
C204 C199 1.391 . S
C204 C203 1.391 . S
C204 C205 1.399 . S
C205 C204 1.399 . S
C205 C206 1.396 . S
C205 C208 1.453 . S
C205 C209 1.684 . S
C206 C187 1.723 . S
C206 C205 1.396 . S
C206 C207 1.394 . S
C207 C203 1.397 . S
C207 C206 1.394 . S
C207 C217 1.723 . S
C208 C205 1.453 . S
C208 H232 0.982 . S
C208 H233 0.979 . S
C208 H234 0.977 . S
C209 C205 1.684 . S
C209 H235 0.979 . S
C209 H236 0.980 . S
C209 H237 0.983 . S
C210 H186 0.948 . S
C210 C211 1.391 . S
C210 C215 1.391 . S
C211 C210 1.391 . S
C211 C212 1.391 . S
C212 H189 0.947 . S
C212 C211 1.391 . S
C212 C213 1.392 . S
C213 H190 0.948 . S
C213 C212 1.392 . S
C213 C214 1.419 . S
C214 C213 1.419 . S
C214 C215 1.391 . S
C214 C218 1.397 . S
C215 C210 1.391 . S
C215 C214 1.391 . S
C215 C216 1.399 . S
C216 C215 1.399 . S
C216 C217 1.396 . S
C216 C219 1.453 . S
C216 C220 1.684 . S
C217 C207 1.723 . S
C217 C216 1.396 . S
C217 C218 1.394 . S
C218 C188 1.723 . S
C218 C214 1.397 . S
C218 C217 1.394 . S
C219 H191 0.982 . S
C219 H195 0.979 . S
C219 H196 0.977 . S
C219 C216 1.453 . S
C220 H192 0.979 . S
C220 H193 0.980 . S
C220 H194 0.983 . S
C220 C216 1.684 . S
H221 C239 0.948 . S
H222 C180 0.948 . S
H223 C198 0.979 . S
H224 C198 0.980 . S
H225 C198 0.983 . S
H226 C197 0.982 . S
H227 C197 0.979 . S
H228 C197 0.977 . S
H229 C199 0.948 . S
H230 C201 0.947 . S
H231 C202 0.948 . S
H232 C208 0.982 . S
H233 C208 0.979 . S
H234 C208 0.977 . S
H235 C209 0.979 . S
H236 C209 0.980 . S
H237 C209 0.983 . S
H238 C182 0.947 . S
C239 C182 1.392 . S
C239 C183 1.419 . S
C239 H221 0.948 . S
C240 C241 1.391 . S
C240 C244 1.391 . S
C240 H282 0.948 . S
C241 C240 1.391 . S
C241 C242 1.391 . S
C242 C241 1.391 . S
C242 H298 0.947 . S
C242 C299 1.392 . S
C243 C244 1.391 . S
C243 C247 1.397 . S
C243 C299 1.419 . S
C244 C240 1.391 . S
C244 C243 1.391 . S
C244 C245 1.399 . S
C245 C244 1.399 . S
C245 C248 1.396 . S
C245 C257 1.453 . S
C245 C258 1.684 . S
H246 C270 0.948 . S
C247 C243 1.397 . S
C247 C248 1.394 . S
C247 C266 1.723 . S
C248 C245 1.396 . S
C248 C247 1.394 . S
C248 C278 1.723 1_455 S
H249 C272 0.947 . S
H250 C273 0.948 . S
H251 C279 0.982 . S
H252 C280 0.979 . S
H253 C280 0.980 . S
H254 C280 0.983 . S
H255 C279 0.979 . S
H256 C279 0.977 . S
C257 C245 1.453 . S
C257 H286 0.982 . S
C257 H287 0.979 . S
C257 H288 0.977 . S
C258 C245 1.684 . S
C258 H283 0.979 . S
C258 H284 0.980 . S
C258 H285 0.983 . S
C259 C260 1.391 . S
C259 C264 1.391 1_554 S
C259 H289 0.948 . S
C260 C259 1.391 . S
C260 C261 1.391 1_455 S
C261 C260 1.391 1_655 S
C261 C262 1.392 1_554 S
C261 H290 0.947 . S
C262 C261 1.392 1_556 S
C262 C263 1.419 1_655 S
C262 H291 0.948 . S
C263 C262 1.419 1_455 S
C263 C264 1.391 . S
C263 C267 1.397 . S
C264 C259 1.391 1_556 S
C264 C263 1.391 . S
C264 C265 1.399 . S
C265 C264 1.399 . S
C265 C266 1.396 . S
C265 C268 1.453 . S
C265 C269 1.684 . S
C266 C247 1.723 . S
C266 C265 1.396 . S
C266 C267 1.394 . S
C267 C263 1.397 . S
C267 C266 1.394 . S
C267 C277 1.723 1_455 S
C268 C265 1.453 . S
C268 H292 0.982 . S
C268 H293 0.979 . S
C268 H294 0.977 . S
C269 C265 1.684 . S
C269 H295 0.979 . S
C269 H296 0.980 . S
C269 H297 0.983 . S
C270 H246 0.948 . S
C270 C271 1.391 . S
C270 C275 1.391 . S
C271 C270 1.391 . S
C271 C272 1.391 . S
C272 H249 0.947 . S
C272 C271 1.391 . S
C272 C273 1.392 . S
C273 H250 0.948 . S
C273 C272 1.392 . S
C273 C274 1.419 . S
C274 C273 1.419 . S
C274 C275 1.391 . S
C274 C278 1.397 . S
C275 C270 1.391 . S
C275 C274 1.391 . S
C275 C276 1.399 . S
C276 C275 1.399 . S
C276 C277 1.396 . S
C276 C279 1.453 . S
C276 C280 1.684 . S
C277 C267 1.723 1_655 S
C277 C276 1.396 . S
C277 C278 1.394 . S
C278 C248 1.723 1_655 S
C278 C274 1.397 . S
C278 C277 1.394 . S
C279 H251 0.982 . S
C279 H255 0.979 . S
C279 H256 0.977 . S
C279 C276 1.453 . S
C280 H252 0.979 . S
C280 H253 0.980 . S
C280 H254 0.983 . S
C280 C276 1.684 . S
H281 C299 0.948 . S
H282 C240 0.948 . S
H283 C258 0.979 . S
H284 C258 0.980 . S
H285 C258 0.983 . S
H286 C257 0.982 . S
H287 C257 0.979 . S
H288 C257 0.977 . S
H289 C259 0.948 . S
H290 C261 0.947 . S
H291 C262 0.948 . S
H292 C268 0.982 . S
H293 C268 0.979 . S
H294 C268 0.977 . S
H295 C269 0.979 . S
H296 C269 0.980 . S
H297 C269 0.983 . S
H298 C242 0.947 . S
C299 C242 1.392 . S
C299 C243 1.419 . S
C299 H281 0.948 . S
C300 C301 1.391 . S
C300 C304 1.391 . S
C300 H342 0.948 . S
C301 C300 1.391 . S
C301 C302 1.391 . S
C302 C301 1.391 . S
C302 H358 0.947 . S
C302 C359 1.392 . S
C303 C304 1.391 . S
C303 C307 1.397 . S
C303 C359 1.419 . S
C304 C300 1.391 . S
C304 C303 1.391 . S
C304 C305 1.399 . S
C305 C304 1.399 . S
C305 C308 1.396 . S
C305 C317 1.453 . S
C305 C318 1.684 . S
H306 C330 0.948 . S
C307 C303 1.397 . S
C307 C308 1.394 . S
C307 C326 1.723 . S
C308 C305 1.396 . S
C308 C307 1.394 . S
C308 C338 1.723 1_655 S
H309 C332 0.947 . S
H310 C333 0.948 . S
H311 C339 0.982 . S
H312 C340 0.979 . S
H313 C340 0.980 . S
H314 C340 0.983 . S
H315 C339 0.979 . S
H316 C339 0.977 . S
C317 C305 1.453 . S
C317 H346 0.982 1_655 S
C317 H347 0.979 . S
C317 H348 0.977 1_655 S
C318 C305 1.684 . S
C318 H343 0.979 . S
C318 H344 0.980 . S
C318 H345 0.983 . S
C319 C320 1.391 1_655 S
C319 C324 1.391 . S
C319 H349 0.948 . S
C320 C319 1.391 1_455 S
C320 C321 1.391 . S
C321 C320 1.391 . S
C321 C322 1.392 . S
C321 H350 0.947 . S
C322 C321 1.392 . S
C322 C323 1.419 . S
C322 H351 0.948 . S
C323 C322 1.419 . S
C323 C324 1.391 1_455 S
C323 C327 1.397 . S
C324 C319 1.391 . S
C324 C323 1.391 1_655 S
C324 C325 1.399 . S
C325 C324 1.399 . S
C325 C326 1.396 . S
C325 C328 1.453 . S
C325 C329 1.684 . S
C326 C307 1.723 . S
C326 C325 1.396 . S
C326 C327 1.394 1_655 S
C327 C323 1.397 . S
C327 C326 1.394 1_455 S
C327 C337 1.723 . S
C328 C325 1.453 . S
C328 H352 0.982 . S
C328 H353 0.979 . S
C328 H354 0.977 . S
C329 C325 1.684 . S
C329 H355 0.979 . S
C329 H356 0.980 . S
C329 H357 0.983 . S
C330 H306 0.948 . S
C330 C331 1.391 . S
C330 C335 1.391 . S
C331 C330 1.391 . S
C331 C332 1.391 . S
C332 H309 0.947 . S
C332 C331 1.391 . S
C332 C333 1.392 . S
C333 H310 0.948 . S
C333 C332 1.392 . S
C333 C334 1.419 . S
C334 C333 1.419 . S
C334 C335 1.391 . S
C334 C338 1.397 . S
C335 C330 1.391 . S
C335 C334 1.391 . S
C335 C336 1.399 . S
C336 C335 1.399 . S
C336 C337 1.396 . S
C336 C339 1.453 . S
C336 C340 1.684 . S
C337 C327 1.723 . S
C337 C336 1.396 . S
C337 C338 1.394 . S
C338 C308 1.723 1_455 S
C338 C334 1.397 . S
C338 C337 1.394 . S
C339 H311 0.982 . S
C339 H315 0.979 . S
C339 H316 0.977 . S
C339 C336 1.453 . S
C340 H312 0.979 . S
C340 H313 0.980 . S
C340 H314 0.983 . S
C340 C336 1.684 . S
H341 C359 0.948 . S
H342 C300 0.948 . S
H343 C318 0.979 . S
H344 C318 0.980 . S
H345 C318 0.983 . S
H346 C317 0.982 1_455 S
H347 C317 0.979 . S
H348 C317 0.977 1_455 S
H349 C319 0.948 . S
H350 C321 0.947 . S
H351 C322 0.948 . S
H352 C328 0.982 . S
H353 C328 0.979 . S
H354 C328 0.977 . S
H355 C329 0.979 . S
H356 C329 0.980 . S
H357 C329 0.983 . S
H358 C302 0.947 . S
C359 C302 1.392 . S
C359 C303 1.419 . S
C359 H341 0.948 . S
C360 C361 1.391 . S
C360 C364 1.391 . S
C360 H402 0.948 . S
C361 C360 1.391 . S
C361 C362 1.391 . S
C362 C361 1.391 . S
C362 H418 0.947 . S
C362 C419 1.392 . S
C363 C364 1.391 . S
C363 C367 1.397 . S
C363 C419 1.419 . S
C364 C360 1.391 . S
C364 C363 1.391 . S
C364 C365 1.399 . S
C365 C364 1.399 . S
C365 C368 1.396 . S
C365 C377 1.453 . S
C365 C378 1.684 . S
H366 C390 0.948 . S
C367 C363 1.397 . S
C367 C368 1.394 . S
C367 C386 1.723 . S
C368 C365 1.396 . S
C368 C367 1.394 . S
C368 C398 1.723 1_565 S
H369 C392 0.947 . S
H370 C393 0.948 . S
H371 C399 0.982 . S
H372 C400 0.979 . S
H373 C400 0.980 . S
H374 C400 0.983 . S
H375 C399 0.979 . S
H376 C399 0.977 . S
C377 C365 1.453 . S
C377 H406 0.982 . S
C377 H407 0.979 . S
C377 H408 0.977 1_565 S
C378 C365 1.684 . S
C378 H403 0.979 . S
C378 H404 0.980 1_565 S
C378 H405 0.983 . S
C379 C380 1.391 1_565 S
C379 C384 1.391 . S
C379 H409 0.948 . S
C380 C379 1.391 1_545 S
C380 C381 1.391 . S
C381 C380 1.391 . S
C381 C382 1.392 . S
C381 H410 0.947 . S
C382 C381 1.392 . S
C382 C383 1.419 . S
C382 H411 0.948 . S
C383 C382 1.419 . S
C383 C384 1.391 1_545 S
C383 C387 1.397 . S
C384 C379 1.391 . S
C384 C383 1.391 1_565 S
C384 C385 1.399 . S
C385 C384 1.399 . S
C385 C386 1.396 . S
C385 C388 1.453 . S
C385 C389 1.684 . S
C386 C367 1.723 . S
C386 C385 1.396 . S
C386 C387 1.394 1_565 S
C387 C383 1.397 . S
C387 C386 1.394 1_545 S
C387 C397 1.723 . S
C388 C385 1.453 . S
C388 H412 0.982 . S
C388 H413 0.979 . S
C388 H414 0.977 . S
C389 C385 1.684 . S
C389 H415 0.979 . S
C389 H416 0.980 . S
C389 H417 0.983 . S
C390 H366 0.948 . S
C390 C391 1.391 . S
C390 C395 1.391 . S
C391 C390 1.391 . S
C391 C392 1.391 . S
C392 H369 0.947 . S
C392 C391 1.391 . S
C392 C393 1.392 . S
C393 H370 0.948 . S
C393 C392 1.392 . S
C393 C394 1.419 . S
C394 C393 1.419 . S
C394 C395 1.391 . S
C394 C398 1.397 . S
C395 C390 1.391 . S
C395 C394 1.391 . S
C395 C396 1.399 . S
C396 C395 1.399 . S
C396 C397 1.396 . S
C396 C399 1.453 . S
C396 C400 1.684 . S
C397 C387 1.723 . S
C397 C396 1.396 . S
C397 C398 1.394 . S
C398 C368 1.723 1_545 S
C398 C394 1.397 . S
C398 C397 1.394 . S
C399 H371 0.982 . S
C399 H375 0.979 . S
C399 H376 0.977 . S
C399 C396 1.453 . S
C400 H372 0.979 . S
C400 H373 0.980 . S
C400 H374 0.983 . S
C400 C396 1.684 . S
H401 C419 0.948 . S
H402 C360 0.948 . S
H403 C378 0.979 . S
H404 C378 0.980 1_545 S
H405 C378 0.983 . S
H406 C377 0.982 . S
H407 C377 0.979 . S
H408 C377 0.977 1_545 S
H409 C379 0.948 . S
H410 C381 0.947 . S
H411 C382 0.948 . S
H412 C388 0.982 . S
H413 C388 0.979 . S
H414 C388 0.977 . S
H415 C389 0.979 . S
H416 C389 0.980 . S
H417 C389 0.983 . S
H418 C362 0.947 . S
C419 C362 1.392 . S
C419 C363 1.419 . S
C419 H401 0.948 . S
C420 C421 1.391 . S
C420 C424 1.391 . S
C420 H462 0.948 . S
C421 C420 1.391 . S
C421 C422 1.391 . S
C422 C421 1.391 . S
C422 H478 0.947 . S
C422 C479 1.392 . S
C423 C424 1.391 . S
C423 C427 1.397 . S
C423 C479 1.419 . S
C424 C420 1.391 . S
C424 C423 1.391 . S
C424 C425 1.399 . S
C425 C424 1.399 . S
C425 C428 1.396 . S
C425 C437 1.453 . S
C425 C438 1.684 . S
H426 C450 0.948 . S
C427 C423 1.397 . S
C427 C428 1.394 . S
C427 C446 1.723 . S
C428 C425 1.396 . S
C428 C427 1.394 . S
C428 C458 1.723 . S
H429 C452 0.947 . S
H430 C453 0.948 . S
H431 C459 0.982 . S
H432 C460 0.979 . S
H433 C460 0.980 . S
H434 C460 0.983 . S
H435 C459 0.979 . S
H436 C459 0.977 . S
C437 C425 1.453 . S
C437 H466 0.982 . S
C437 H467 0.979 . S
C437 H468 0.977 . S
C438 C425 1.684 . S
C438 H463 0.979 . S
C438 H464 0.980 . S
C438 H465 0.983 . S
C439 C440 1.391 1_554 S
C439 C444 1.391 . S
C439 H469 0.948 . S
C440 C439 1.391 1_556 S
C440 C441 1.391 1_556 S
C441 C440 1.391 1_554 S
C441 C442 1.392 . S
C441 H470 0.947 1_554 S
C442 C441 1.392 . S
C442 C443 1.419 . S
C442 H471 0.948 . S
C443 C442 1.419 . S
C443 C444 1.391 . S
C443 C447 1.397 . S
C444 C439 1.391 . S
C444 C443 1.391 . S
C444 C445 1.399 . S
C445 C444 1.399 . S
C445 C446 1.396 . S
C445 C448 1.453 . S
C445 C449 1.684 . S
C446 C427 1.723 . S
C446 C445 1.396 . S
C446 C447 1.394 . S
C447 C443 1.397 . S
C447 C446 1.394 . S
C447 C457 1.723 . S
C448 C445 1.453 . S
C448 H472 0.982 . S
C448 H473 0.979 . S
C448 H474 0.977 . S
C449 C445 1.684 . S
C449 H475 0.979 . S
C449 H476 0.980 . S
C449 H477 0.983 . S
C450 H426 0.948 . S
C450 C451 1.391 . S
C450 C455 1.391 . S
C451 C450 1.391 . S
C451 C452 1.391 . S
C452 H429 0.947 . S
C452 C451 1.391 . S
C452 C453 1.392 . S
C453 H430 0.948 . S
C453 C452 1.392 . S
C453 C454 1.419 . S
C454 C453 1.419 . S
C454 C455 1.391 . S
C454 C458 1.397 . S
C455 C450 1.391 . S
C455 C454 1.391 . S
C455 C456 1.399 . S
C456 C455 1.399 . S
C456 C457 1.396 . S
C456 C459 1.453 . S
C456 C460 1.684 . S
C457 C447 1.723 . S
C457 C456 1.396 . S
C457 C458 1.394 . S
C458 C428 1.723 . S
C458 C454 1.397 . S
C458 C457 1.394 . S
C459 H431 0.982 . S
C459 H435 0.979 . S
C459 H436 0.977 . S
C459 C456 1.453 . S
C460 H432 0.979 . S
C460 H433 0.980 . S
C460 H434 0.983 . S
C460 C456 1.684 . S
H461 C479 0.948 . S
H462 C420 0.948 . S
H463 C438 0.979 . S
H464 C438 0.980 . S
H465 C438 0.983 . S
H466 C437 0.982 . S
H467 C437 0.979 . S
H468 C437 0.977 . S
H469 C439 0.948 . S
H470 C441 0.947 1_556 S
H471 C442 0.948 . S
H472 C448 0.982 . S
H473 C448 0.979 . S
H474 C448 0.977 . S
H475 C449 0.979 . S
H476 C449 0.980 . S
H477 C449 0.983 . S
H478 C422 0.947 . S
C479 C422 1.392 . S
C479 C423 1.419 . S
C479 H461 0.948 . S
C480 C481 1.387 . S
C480 H484 0.950 . S
C480 C489 1.390 . S
C481 C480 1.387 . S
C481 C483 1.387 . S
H482 C489 0.950 . S
C483 C481 1.387 . S
C483 C485 1.390 . S
C483 H487 0.950 . S
H484 C480 0.950 . S
C485 C483 1.390 . S
C485 C486 1.387 . S
C485 H488 0.950 . S
C486 C485 1.387 . S
C486 C489 1.387 . S
H487 C483 0.950 . S
H488 C485 0.950 . S
C489 C480 1.390 . S
C489 H482 0.950 . S
C489 C486 1.387 . S
C490 C491 1.387 . S
C490 H494 0.950 . S
C490 C499 1.390 . S
C491 C490 1.387 . S
C491 C493 1.387 . S
H492 C499 0.950 . S
C493 C491 1.387 . S
C493 C495 1.390 . S
C493 H497 0.950 . S
H494 C490 0.950 . S
C495 C493 1.390 . S
C495 C496 1.387 . S
C495 H498 0.950 . S
C496 C495 1.387 . S
C496 C499 1.387 . S
H497 C493 0.950 . S
H498 C495 0.950 . S
C499 C490 1.390 . S
C499 H492 0.950 . S
C499 C496 1.387 . S
C500 C501 1.387 . S
C500 H504 0.950 . S
C500 C509 1.390 . S
C501 C500 1.387 . S
C501 C503 1.387 . S
H502 C509 0.950 . S
C503 C501 1.387 . S
C503 C505 1.390 . S
C503 H507 0.950 . S
H504 C500 0.950 . S
C505 C503 1.390 . S
C505 C506 1.387 . S
C505 H508 0.950 . S
C506 C505 1.387 . S
C506 C509 1.387 . S
H507 C503 0.950 . S
H508 C505 0.950 . S
C509 C500 1.390 . S
C509 H502 0.950 . S
C509 C506 1.387 . S
C510 C511 1.387 . S
C510 H514 0.950 . S
C510 C519 1.390 . S
C511 C510 1.387 . S
C511 C513 1.387 . S
H512 C519 0.950 . S
C513 C511 1.387 . S
C513 C515 1.390 . S
C513 H517 0.950 . S
H514 C510 0.950 . S
C515 C513 1.390 . S
C515 C516 1.387 . S
C515 H518 0.950 . S
C516 C515 1.387 . S
C516 C519 1.387 . S
H517 C513 0.950 . S
H518 C515 0.950 . S
C519 C510 1.390 . S
C519 H512 0.950 . S
C519 C516 1.387 . S
C520 C521 1.387 . S
C520 H524 0.950 . S
C520 C529 1.390 . S
C521 C520 1.387 . S
C521 C523 1.387 . S
H522 C529 0.950 . S
C523 C521 1.387 . S
C523 C525 1.390 . S
C523 H527 0.950 . S
H524 C520 0.950 . S
C525 C523 1.390 . S
C525 C526 1.387 . S
C525 H528 0.950 . S
C526 C525 1.387 . S
C526 C529 1.387 . S
H527 C523 0.950 . S
H528 C525 0.950 . S
C529 C520 1.390 . S
C529 H522 0.950 . S
C529 C526 1.387 . S
C530 C531 1.387 . S
C530 H534 0.950 . S
C530 C539 1.390 . S
C531 C530 1.387 . S
C531 C533 1.387 . S
H532 C539 0.950 . S
C533 C531 1.387 . S
C533 C535 1.390 . S
C533 H537 0.950 . S
H534 C530 0.950 . S
C535 C533 1.390 . S
C535 C536 1.387 . S
C535 H538 0.950 . S
C536 C535 1.387 . S
C536 C539 1.387 . S
H537 C533 0.950 . S
H538 C535 0.950 . S
C539 C530 1.390 . S
C539 H532 0.950 . S
C539 C536 1.387 . S
C540 C541 1.387 . S
C540 H544 0.950 . S
C540 C549 1.390 . S
C541 C540 1.387 . S
C541 C543 1.387 . S
H542 C549 0.950 . S
C543 C541 1.387 . S
C543 C545 1.390 . S
C543 H547 0.950 . S
H544 C540 0.950 . S
C545 C543 1.390 . S
C545 C546 1.387 . S
C545 H548 0.950 . S
C546 C545 1.387 . S
C546 C549 1.387 . S
H547 C543 0.950 . S
H548 C545 0.950 . S
C549 C540 1.390 . S
C549 H542 0.950 . S
C549 C546 1.387 . S
C550 C551 1.387 . S
C550 H554 0.950 . S
C550 C559 1.390 . S
C551 C550 1.387 . S
C551 C553 1.387 . S
H552 C559 0.950 . S
C553 C551 1.387 . S
C553 C555 1.390 . S
C553 H557 0.950 . S
H554 C550 0.950 . S
C555 C553 1.390 . S
C555 C556 1.387 . S
C555 H558 0.950 . S
C556 C555 1.387 . S
C556 C559 1.387 . S
H557 C553 0.950 . S
H558 C555 0.950 . S
C559 C550 1.390 . S
C559 H552 0.950 . S
C559 C556 1.387 . S
C560 C561 1.387 . S
C560 H564 0.950 . S
C560 C569 1.390 . S
C561 C560 1.387 . S
C561 C563 1.387 . S
H562 C569 0.950 . S
C563 C561 1.387 . S
C563 C565 1.390 . S
C563 H567 0.950 . S
H564 C560 0.950 . S
C565 C563 1.390 . S
C565 C566 1.387 . S
C565 H568 0.950 . S
C566 C565 1.387 . S
C566 C569 1.387 . S
H567 C563 0.950 . S
H568 C565 0.950 . S
C569 C560 1.390 . S
C569 H562 0.950 . S
C569 C566 1.387 . S
C570 C571 1.387 . S
C570 H574 0.950 . S
C570 C579 1.390 . S
C571 C570 1.387 . S
C571 C573 1.387 . S
H572 C579 0.950 . S
C573 C571 1.387 . S
C573 C575 1.390 . S
C573 H577 0.950 . S
H574 C570 0.950 . S
C575 C573 1.390 . S
C575 C576 1.387 . S
C575 H578 0.950 . S
C576 C575 1.387 . S
C576 C579 1.387 . S
H577 C573 0.950 . S
H578 C575 0.950 . S
C579 C570 1.390 . S
C579 H572 0.950 . S
C579 C576 1.387 . S
C580 C581 1.387 . S
C580 H584 0.950 . S
C580 C589 1.390 . S
C581 C580 1.387 . S
C581 C583 1.387 . S
H582 C589 0.950 . S
C583 C581 1.387 . S
C583 C585 1.390 . S
C583 H587 0.950 . S
H584 C580 0.950 . S
C585 C583 1.390 . S
C585 C586 1.387 . S
C585 H588 0.950 . S
C586 C585 1.387 . S
C586 C589 1.387 . S
H587 C583 0.950 . S
H588 C585 0.950 . S
C589 C580 1.390 . S
C589 H582 0.950 . S
C589 C586 1.387 . S
C590 C591 1.387 . S
C590 H594 0.950 . S
C590 C599 1.390 . S
C591 C590 1.387 . S
C591 C593 1.387 . S
H592 C599 0.950 . S
C593 C591 1.387 . S
C593 C595 1.390 . S
C593 H597 0.950 . S
H594 C590 0.950 . S
C595 C593 1.390 . S
C595 C596 1.387 . S
C595 H598 0.950 . S
C596 C595 1.387 . S
C596 C599 1.387 . S
H597 C593 0.950 . S
H598 C595 0.950 . S
C599 C590 1.390 . S
C599 H592 0.950 . S
C599 C596 1.387 . S
C600 C601 1.387 . S
C600 H604 0.950 . S
C600 C609 1.390 . S
C601 C600 1.387 . S
C601 C603 1.387 1_455 S
H602 C609 0.950 . S
C603 C601 1.387 1_655 S
C603 C605 1.390 . S
C603 H607 0.950 . S
H604 C600 0.950 . S
C605 C603 1.390 . S
C605 C606 1.387 1_655 S
C605 H608 0.950 . S
C606 C605 1.387 1_455 S
C606 C609 1.387 . S
H607 C603 0.950 . S
H608 C605 0.950 . S
C609 C600 1.390 . S
C609 H602 0.950 . S
C609 C606 1.387 . S
C610 C611 1.387 . S
C610 H614 0.950 . S
C610 C619 1.390 . S
C611 C610 1.387 . S
C611 C613 1.387 . S
H612 C619 0.950 . S
C613 C611 1.387 . S
C613 C615 1.390 . S
C613 H617 0.950 . S
H614 C610 0.950 . S
C615 C613 1.390 . S
C615 C616 1.387 . S
C615 H618 0.950 . S
C616 C615 1.387 . S
C616 C619 1.387 . S
H617 C613 0.950 . S
H618 C615 0.950 . S
C619 C610 1.390 . S
C619 H612 0.950 . S
C619 C616 1.387 . S
C620 C621 1.387 . S
C620 H624 0.950 . S
C620 C629 1.390 . S
C621 C620 1.387 . S
C621 C623 1.387 . S
H622 C629 0.950 . S
C623 C621 1.387 . S
C623 C625 1.390 . S
C623 H627 0.950 . S
H624 C620 0.950 . S
C625 C623 1.390 . S
C625 C626 1.387 . S
C625 H628 0.950 . S
C626 C625 1.387 . S
C626 C629 1.387 . S
H627 C623 0.950 . S
H628 C625 0.950 . S
C629 C620 1.390 . S
C629 H622 0.950 . S
C629 C626 1.387 . S
C630 C631 1.387 1_565 S
C630 H634 0.950 . S
C630 C639 1.390 . S
C631 C630 1.387 1_545 S
C631 C633 1.387 . S
H632 C639 0.950 . S
C633 C631 1.387 . S
C633 C635 1.390 . S
C633 H637 0.950 . S
H634 C630 0.950 . S
C635 C633 1.390 . S
C635 C636 1.387 . S
C635 H638 0.950 . S
C636 C635 1.387 . S
C636 C639 1.387 1_545 S
H637 C633 0.950 . S
H638 C635 0.950 . S
C639 C630 1.390 . S
C639 H632 0.950 . S
C639 C636 1.387 1_565 S
C640 C641 1.387 . S
C640 H644 0.950 . S
C640 C649 1.390 . S
C641 C640 1.387 . S
C641 C643 1.387 . S
H642 C649 0.950 . S
C643 C641 1.387 . S
C643 C645 1.390 . S
C643 H647 0.950 . S
H644 C640 0.950 . S
C645 C643 1.390 . S
C645 C646 1.387 . S
C645 H648 0.950 . S
C646 C645 1.387 . S
C646 C649 1.387 . S
H647 C643 0.950 . S
H648 C645 0.950 . S
C649 C640 1.390 . S
C649 H642 0.950 . S
C649 C646 1.387 . S
C650 C651 1.387 . S
C650 H654 0.950 . S
C650 C659 1.390 . S
C651 C650 1.387 . S
C651 C653 1.387 1_455 S
H652 C659 0.950 . S
C653 C651 1.387 1_655 S
C653 C655 1.390 . S
C653 H657 0.950 . S
H654 C650 0.950 . S
C655 C653 1.390 . S
C655 C656 1.387 1_655 S
C655 H658 0.950 . S
C656 C655 1.387 1_455 S
C656 C659 1.387 . S
H657 C653 0.950 . S
H658 C655 0.950 . S
C659 C650 1.390 . S
C659 H652 0.950 . S
C659 C656 1.387 . S
C481 C10 3.188 . S
C486 C451 3.183 . S
C491 C55 1.297 . S
C496 C301 1.298 . S
C501 C90 2.008 . S
C506 C361 1.842 . S
C511 C19 3.109 . S
C516 C421 2.930 . S
C526 C331 1.394 . S
C521 C46 1.356 . S
C536 C391 2.210 . S
C531 C99 2.206 . S
C541 C50 2.012 . S
C546 C181 1.836 . S
C551 C95 0.922 . S
C556 C271 1.018 . S
C561 C6 1.375 . S
C566 C151 1.402 . S
C576 C211 2.147 . S
C571 C59 2.172 . S
C586 C241 0.604 . S
C581 C86 0.677 . S
C591 C15 1.419 . S
C596 C121 1.464 . S
C606 C260 1.103 . S
C601 C18 1.104 . S
C611 C49 1.458 . S
C616 C140 1.468 . S
C621 C98 1.328 . S
C626 C200 1.329 . S
C636 C380 1.339 . S
C631 C58 1.333 . S
C646 C440 1.771 . S
C641 C89 1.722 . S
C651 C9 1.450 . S
C656 C320 1.476 . S
