# Generated by pormake.
# Topology ptr, (4,4)-cn, num edge types: 1
# Building blocks:
#     Node 0, Type 0, BuildingBlock: AZAVOO_clean_sbu_0, # of connection points: 4
#     Node 1, Type 0, BuildingBlock: AZAVOO_clean_sbu_0, # of connection points: 4
#     Node 2, Type 0, BuildingBlock: AZAVOO_clean_sbu_0, # of connection points: 4
#     Node 3, Type 0, BuildingBlock: AZAVOO_clean_sbu_0, # of connection points: 4
#     Node 4, Type 0, BuildingBlock: AZAVOO_clean_sbu_0, # of connection points: 4
#     Node 5, Type 0, BuildingBlock: AZAVOO_clean_sbu_0, # of connection points: 4
#     Node 6, Type 0, BuildingBlock: AZAVOO_clean_sbu_0, # of connection points: 4
#     Node 7, Type 0, BuildingBlock: AZAVOO_clean_sbu_0, # of connection points: 4
#     Node 8, Type 0, BuildingBlock: AZAVOO_clean_sbu_0, # of connection points: 4
#     Node 9, Type 0, BuildingBlock: AZAVOO_clean_sbu_0, # of connection points: 4
#     Node 10, Type 0, BuildingBlock: AZAVOO_clean_sbu_0, # of connection points: 4
#     Node 11, Type 0, BuildingBlock: AZAVOO_clean_sbu_0, # of connection points: 4
#     Node 12, Type 0, BuildingBlock: AZAVOO_clean_sbu_0, # of connection points: 4
#     Node 13, Type 0, BuildingBlock: AZAVOO_clean_sbu_0, # of connection points: 4
#     Node 14, Type 0, BuildingBlock: AZAVOO_clean_sbu_0, # of connection points: 4
#     Node 15, Type 0, BuildingBlock: AZAVOO_clean_sbu_0, # of connection points: 4
#     Node 16, Type 0, BuildingBlock: AZAVOO_clean_sbu_0, # of connection points: 4
#     Node 17, Type 0, BuildingBlock: AZAVOO_clean_sbu_0, # of connection points: 4
#     Node 18, Type 1, BuildingBlock: KUFVIS_clean_linker_0, # of connection points: 4
#     Node 19, Type 1, BuildingBlock: KUFVIS_clean_linker_0, # of connection points: 4
#     Node 20, Type 1, BuildingBlock: KUFVIS_clean_linker_0, # of connection points: 4
#     Node 21, Type 1, BuildingBlock: KUFVIS_clean_linker_0, # of connection points: 4
#     Node 22, Type 1, BuildingBlock: KUFVIS_clean_linker_0, # of connection points: 4
#     Node 23, Type 1, BuildingBlock: KUFVIS_clean_linker_0, # of connection points: 4
#     Node 24, Type 1, BuildingBlock: KUFVIS_clean_linker_0, # of connection points: 4
#     Node 25, Type 1, BuildingBlock: KUFVIS_clean_linker_0, # of connection points: 4
#     Node 26, Type 1, BuildingBlock: KUFVIS_clean_linker_0, # of connection points: 4
#     Node 27, Type 1, BuildingBlock: KUFVIS_clean_linker_0, # of connection points: 4
#     Node 28, Type 1, BuildingBlock: KUFVIS_clean_linker_0, # of connection points: 4
#     Node 29, Type 1, BuildingBlock: KUFVIS_clean_linker_0, # of connection points: 4
#     Node 30, Type 1, BuildingBlock: KUFVIS_clean_linker_0, # of connection points: 4
#     Node 31, Type 1, BuildingBlock: KUFVIS_clean_linker_0, # of connection points: 4
#     Node 32, Type 1, BuildingBlock: KUFVIS_clean_linker_0, # of connection points: 4
#     Node 33, Type 1, BuildingBlock: KUFVIS_clean_linker_0, # of connection points: 4
#     Node 34, Type 1, BuildingBlock: KUFVIS_clean_linker_0, # of connection points: 4
#     Node 35, Type 1, BuildingBlock: KUFVIS_clean_linker_0, # of connection points: 4
#     Edge 36, Type (0, 1), BuildingBlock: ZUJKAS_clean_linker_0, # of connection points: 2
#     Edge 37, Type (0, 1), BuildingBlock: ZUJKAS_clean_linker_0, # of connection points: 2
#     Edge 38, Type (0, 1), BuildingBlock: ZUJKAS_clean_linker_0, # of connection points: 2
#     Edge 39, Type (0, 1), BuildingBlock: ZUJKAS_clean_linker_0, # of connection points: 2
#     Edge 40, Type (0, 1), BuildingBlock: ZUJKAS_clean_linker_0, # of connection points: 2
#     Edge 41, Type (0, 1), BuildingBlock: ZUJKAS_clean_linker_0, # of connection points: 2
#     Edge 42, Type (0, 1), BuildingBlock: ZUJKAS_clean_linker_0, # of connection points: 2
#     Edge 43, Type (0, 1), BuildingBlock: ZUJKAS_clean_linker_0, # of connection points: 2
#     Edge 44, Type (0, 1), BuildingBlock: ZUJKAS_clean_linker_0, # of connection points: 2
#     Edge 45, Type (0, 1), BuildingBlock: ZUJKAS_clean_linker_0, # of connection points: 2
#     Edge 46, Type (0, 1), BuildingBlock: ZUJKAS_clean_linker_0, # of connection points: 2
#     Edge 47, Type (0, 1), BuildingBlock: ZUJKAS_clean_linker_0, # of connection points: 2
#     Edge 48, Type (0, 1), BuildingBlock: ZUJKAS_clean_linker_0, # of connection points: 2
#     Edge 49, Type (0, 1), BuildingBlock: ZUJKAS_clean_linker_0, # of connection points: 2
#     Edge 50, Type (0, 1), BuildingBlock: ZUJKAS_clean_linker_0, # of connection points: 2
#     Edge 51, Type (0, 1), BuildingBlock: ZUJKAS_clean_linker_0, # of connection points: 2
#     Edge 52, Type (0, 1), BuildingBlock: ZUJKAS_clean_linker_0, # of connection points: 2
#     Edge 53, Type (0, 1), BuildingBlock: ZUJKAS_clean_linker_0, # of connection points: 2
#     Edge 54, Type (0, 1), BuildingBlock: ZUJKAS_clean_linker_0, # of connection points: 2
#     Edge 55, Type (0, 1), BuildingBlock: ZUJKAS_clean_linker_0, # of connection points: 2
#     Edge 56, Type (0, 1), BuildingBlock: ZUJKAS_clean_linker_0, # of connection points: 2
#     Edge 57, Type (0, 1), BuildingBlock: ZUJKAS_clean_linker_0, # of connection points: 2
#     Edge 58, Type (0, 1), BuildingBlock: ZUJKAS_clean_linker_0, # of connection points: 2
#     Edge 59, Type (0, 1), BuildingBlock: ZUJKAS_clean_linker_0, # of connection points: 2
#     Edge 60, Type (0, 1), BuildingBlock: ZUJKAS_clean_linker_0, # of connection points: 2
#     Edge 61, Type (0, 1), BuildingBlock: ZUJKAS_clean_linker_0, # of connection points: 2
#     Edge 62, Type (0, 1), BuildingBlock: ZUJKAS_clean_linker_0, # of connection points: 2
#     Edge 63, Type (0, 1), BuildingBlock: ZUJKAS_clean_linker_0, # of connection points: 2
#     Edge 64, Type (0, 1), BuildingBlock: ZUJKAS_clean_linker_0, # of connection points: 2
#     Edge 65, Type (0, 1), BuildingBlock: ZUJKAS_clean_linker_0, # of connection points: 2
#     Edge 66, Type (0, 1), BuildingBlock: ZUJKAS_clean_linker_0, # of connection points: 2
#     Edge 67, Type (0, 1), BuildingBlock: ZUJKAS_clean_linker_0, # of connection points: 2
#     Edge 68, Type (0, 1), BuildingBlock: ZUJKAS_clean_linker_0, # of connection points: 2
#     Edge 69, Type (0, 1), BuildingBlock: ZUJKAS_clean_linker_0, # of connection points: 2
#     Edge 70, Type (0, 1), BuildingBlock: ZUJKAS_clean_linker_0, # of connection points: 2
#     Edge 71, Type (0, 1), BuildingBlock: ZUJKAS_clean_linker_0, # of connection points: 2
#     Edge 72, Type (0, 1), BuildingBlock: ZUJKAS_clean_linker_0, # of connection points: 2
#     Edge 73, Type (0, 1), BuildingBlock: ZUJKAS_clean_linker_0, # of connection points: 2
#     Edge 74, Type (0, 1), BuildingBlock: ZUJKAS_clean_linker_0, # of connection points: 2
#     Edge 75, Type (0, 1), BuildingBlock: ZUJKAS_clean_linker_0, # of connection points: 2
#     Edge 76, Type (0, 1), BuildingBlock: ZUJKAS_clean_linker_0, # of connection points: 2
#     Edge 77, Type (0, 1), BuildingBlock: ZUJKAS_clean_linker_0, # of connection points: 2
#     Edge 78, Type (0, 1), BuildingBlock: ZUJKAS_clean_linker_0, # of connection points: 2
#     Edge 79, Type (0, 1), BuildingBlock: ZUJKAS_clean_linker_0, # of connection points: 2
#     Edge 80, Type (0, 1), BuildingBlock: ZUJKAS_clean_linker_0, # of connection points: 2
#     Edge 81, Type (0, 1), BuildingBlock: ZUJKAS_clean_linker_0, # of connection points: 2
#     Edge 82, Type (0, 1), BuildingBlock: ZUJKAS_clean_linker_0, # of connection points: 2
#     Edge 83, Type (0, 1), BuildingBlock: ZUJKAS_clean_linker_0, # of connection points: 2
#     Edge 84, Type (0, 1), BuildingBlock: ZUJKAS_clean_linker_0, # of connection points: 2
#     Edge 85, Type (0, 1), BuildingBlock: ZUJKAS_clean_linker_0, # of connection points: 2
#     Edge 86, Type (0, 1), BuildingBlock: ZUJKAS_clean_linker_0, # of connection points: 2
#     Edge 87, Type (0, 1), BuildingBlock: ZUJKAS_clean_linker_0, # of connection points: 2
#     Edge 88, Type (0, 1), BuildingBlock: ZUJKAS_clean_linker_0, # of connection points: 2
#     Edge 89, Type (0, 1), BuildingBlock: ZUJKAS_clean_linker_0, # of connection points: 2
#     Edge 90, Type (0, 1), BuildingBlock: ZUJKAS_clean_linker_0, # of connection points: 2
#     Edge 91, Type (0, 1), BuildingBlock: ZUJKAS_clean_linker_0, # of connection points: 2
#     Edge 92, Type (0, 1), BuildingBlock: ZUJKAS_clean_linker_0, # of connection points: 2
#     Edge 93, Type (0, 1), BuildingBlock: ZUJKAS_clean_linker_0, # of connection points: 2
#     Edge 94, Type (0, 1), BuildingBlock: ZUJKAS_clean_linker_0, # of connection points: 2
#     Edge 95, Type (0, 1), BuildingBlock: ZUJKAS_clean_linker_0, # of connection points: 2
#     Edge 96, Type (0, 1), BuildingBlock: ZUJKAS_clean_linker_0, # of connection points: 2
#     Edge 97, Type (0, 1), BuildingBlock: ZUJKAS_clean_linker_0, # of connection points: 2
#     Edge 98, Type (0, 1), BuildingBlock: ZUJKAS_clean_linker_0, # of connection points: 2
#     Edge 99, Type (0, 1), BuildingBlock: ZUJKAS_clean_linker_0, # of connection points: 2
#     Edge 100, Type (0, 1), BuildingBlock: ZUJKAS_clean_linker_0, # of connection points: 2
#     Edge 101, Type (0, 1), BuildingBlock: ZUJKAS_clean_linker_0, # of connection points: 2
#     Edge 102, Type (0, 1), BuildingBlock: ZUJKAS_clean_linker_0, # of connection points: 2
#     Edge 103, Type (0, 1), BuildingBlock: ZUJKAS_clean_linker_0, # of connection points: 2
#     Edge 104, Type (0, 1), BuildingBlock: ZUJKAS_clean_linker_0, # of connection points: 2
#     Edge 105, Type (0, 1), BuildingBlock: ZUJKAS_clean_linker_0, # of connection points: 2
#     Edge 106, Type (0, 1), BuildingBlock: ZUJKAS_clean_linker_0, # of connection points: 2
#     Edge 107, Type (0, 1), BuildingBlock: ZUJKAS_clean_linker_0, # of connection points: 2
# Relax obj value: 0.078
# Max RMSD: 0.238
# Mean RMSD: 0.131
data_MOF--net-ptr--node1-AZAVOO_clean_sbu_0--node2-KUFVIS_clean_linker_0--edge1-ZUJKAS_clean_linker_0
_symmetry_space_group_name_H-M    P1
_symmetry_Int_Tables_number       1
_symmetry_cell_setting            triclinic
loop_
_symmetry_equiv_pos_as_xyz
'x, y, z'
_cell_length_a     103.17363
_cell_length_b     101.71655
_cell_length_c     59.678678
_cell_angle_alpha  91.130902
_cell_angle_beta   91.143733
_cell_angle_gamma 120.0252
loop_
_atom_site_label
_atom_site_type_symbol
_atom_site_fract_x
_atom_site_fract_y
_atom_site_fract_z
_atom_type_partial_charge
Mg0 Mg 0.0162 0.35974 0.97985 0.0
O1 O 0.01131 0.37174 0.00934 0.0
O2 O 0.9936 0.37638 0.99602 0.0
Mg3 Mg 0.98685 0.3675 0.96003 0.0
C4 C 1.00257 0.37719 0.01175 0.0
C5 C 0.04274 0.36368 0.01051 0.0
O6 O 0.04625 0.37787 0.00792 0.0
O7 O 0.99427 0.33725 0.98499 0.0
O8 O 0.97745 0.3431 0.97167 0.0
O9 O 0.03317 0.38252 0.96798 0.0
O10 O 0.00935 0.37064 0.95702 0.0
C11 C 0.98073 0.33366 0.98016 0.0
C12 C 0.02232 0.38278 0.95717 0.0
O13 O 0.03022 0.35314 0.00238 0.0
Mg14 Mg 0.64867 0.64363 0.04172 0.0
O15 O 0.63153 0.63143 0.01227 0.0
O16 O 0.60921 0.62617 0.02483 0.0
Mg17 Mg 0.61192 0.63532 0.06084 0.0
C18 C 0.61735 0.62559 0.00943 0.0
C19 C 0.67048 0.63995 0.01096 0.0
O20 O 0.6602 0.62573 0.01374 0.0
O21 O 0.64849 0.66579 0.0364 0.0
O22 O 0.62615 0.65996 0.04945 0.0
O23 O 0.64372 0.621 0.05333 0.0
O24 O 0.63172 0.63274 0.06459 0.0
C25 C 0.63863 0.66941 0.0411 0.0
C26 C 0.63289 0.6207 0.06429 0.0
O27 O 0.6685 0.65044 0.0191 0.0
Mg28 Mg 0.35861 0.99274 0.97553 0.0
O29 O 0.37655 1.00059 0.00456 0.0
O30 O 0.39784 0.01856 0.99019 0.0
Mg31 Mg 0.3937 0.02317 0.9545 0.0
C32 C 0.39063 0.01018 0.0063 0.0
C33 C 0.32913 0.96694 0.98728 0.0
O34 O 0.33145 0.96483 0.96627 0.0
O35 O 0.35669 0.01395 0.98089 0.0
O36 O 0.37834 0.03186 0.96753 0.0
O37 O 0.36508 0.97603 0.96375 0.0
O38 O 0.37535 0.99955 0.95219 0.0
C39 C 0.36577 0.02777 0.97642 0.0
C40 C 0.37519 0.9868 0.95226 0.0
O41 O 0.33914 0.97871 -0.00193 0.0
Mg42 Mg 0.9981 0.64974 0.04118 0.0
O43 O 1.00318 0.63829 0.01134 0.0
O44 O 0.02199 0.63502 0.02354 0.0
Mg45 Mg 0.0289 0.64394 0.05972 0.0
C46 C 0.01246 0.63359 0.00829 0.0
C47 C 0.97027 0.65106 0.027 0.0
O48 O 0.96662 0.64327 0.04538 0.0
O49 O 0.01921 0.67272 0.03521 0.0
O50 O 0.03692 0.66843 0.04937 0.0
O51 O 0.98213 0.62664 0.0535 0.0
O52 O 0.00607 0.63962 0.06363 0.0
C53 C 0.03288 0.67728 0.04076 0.0
C54 C 0.99343 0.62715 0.06413 0.0
O55 O 0.98325 0.65566 0.01944 0.0
Mg56 Mg 0.36524 0.35889 0.98052 0.0
O57 O 0.38079 0.3715 0.01156 0.0
O58 O 0.40355 0.37588 0.00239 0.0
Mg59 Mg 0.40308 0.36736 0.96671 0.0
C60 C 0.39474 0.37679 0.01627 0.0
C61 C 0.33285 0.34948 0.98746 0.0
O62 O 0.33453 0.35086 0.9657 0.0
O63 O 0.3655 0.33706 0.98829 0.0
O64 O 0.38832 0.34275 0.97761 0.0
O65 O 0.3701 0.38103 0.96659 0.0
O66 O 0.38355 0.36997 0.96037 0.0
C67 C 0.37552 0.3334 0.98514 0.0
C68 C 0.38183 0.38158 0.95826 0.0
O69 O 0.34401 0.35177 -0.00014 0.0
Mg70 Mg 0.65049 0.00649 0.03553 0.0
O71 O 0.63555 0.00377 0.00448 0.0
O72 O 0.61352 0.98273 0.00899 0.0
Mg73 Mg 0.61432 0.97186 0.04166 0.0
C74 C 0.62208 0.99435 0.99783 0.0
C75 C 0.68335 0.03099 0.03093 0.0
O76 O 0.68292 0.02691 0.05178 0.0
O77 O 0.65448 0.98753 0.02264 0.0
O78 O 0.63236 0.967 0.02861 0.0
O79 O 0.64105 0.0193 0.0531 0.0
O80 O 0.63154 0.99447 0.05435 0.0
C81 C 0.64587 0.97312 0.02232 0.0
C82 C 0.63047 0.00625 0.05932 0.0
O83 O 0.67137 0.02451 0.01879 0.0
Mg84 Mg 0.68101 0.69498 0.31461 0.0
O85 O 0.67391 0.70705 0.34121 0.0
O86 O 0.65729 0.71143 0.32308 0.0
Mg87 Mg 0.65288 0.70192 0.28732 0.0
C88 C 0.66503 0.71246 0.34068 0.0
C89 C 0.70636 0.69939 0.34845 0.0
O90 O 0.71029 0.71355 0.34457 0.0
O91 O 0.65888 0.67253 0.31845 0.0
O92 O 0.64283 0.67793 0.30093 0.0
O93 O 0.69862 0.71764 0.30312 0.0
O94 O 0.6755 0.70526 0.28901 0.0
C95 C 0.64562 0.66878 0.31153 0.0
C96 C 0.68842 0.71746 0.28996 0.0
O97 O 0.69386 0.68883 0.34028 0.0
Mg98 Mg 0.3129 0.97948 0.37306 0.0
O99 O 0.29516 0.96876 0.34377 0.0
O100 O 0.27348 0.96396 0.35849 0.0
Mg101 Mg 0.27702 0.97187 0.39512 0.0
C102 C 0.28101 0.96359 0.34201 0.0
C103 C 0.34266 0.98458 0.36093 0.0
O104 O 0.34021 0.98015 0.38172 0.0
O105 O 0.31345 1.00216 0.36971 0.0
O106 O 0.29158 0.99657 0.3844 0.0
O107 O 0.30763 0.95641 0.38308 0.0
O108 O 0.29621 0.96827 0.39614 0.0
C109 C 0.3039 0.00597 0.37561 0.0
C110 C 0.29721 0.95614 0.39511 0.0
O111 O 0.3327 0.98616 0.35039 0.0
Mg112 Mg 0.02496 0.3228 0.30852 0.0
O113 O 0.04027 0.32695 0.3399 0.0
O114 O 0.06286 0.34623 0.33193 0.0
Mg115 Mg 0.06221 0.35427 0.29689 0.0
C116 C 0.05406 0.33616 0.3452 0.0
C117 C 0.99345 0.29728 0.31468 0.0
O118 O 0.99579 0.29681 0.29318 0.0
O119 O 0.02342 0.34399 0.31691 0.0
O120 O 0.04629 0.36254 0.3086 0.0
O121 O 0.03163 0.30672 0.29474 0.0
O122 O 0.04353 0.33131 0.28845 0.0
C123 C 0.03307 0.35805 0.31531 0.0
C124 C 0.0429 0.31836 0.28631 0.0
O125 O 0.00387 0.30752 0.32722 0.0
Mg126 Mg 0.66573 0.98374 0.35928 0.0
O127 O 0.67054 0.9723 0.32898 0.0
O128 O 0.69058 0.97066 0.3397 0.0
Mg129 Mg 0.69865 0.98076 0.37503 0.0
C130 C 0.68025 0.96824 0.32525 0.0
C131 C 0.64397 0.99507 0.34974 0.0
O132 O 0.64904 0.99983 0.37041 0.0
O133 O 0.68558 0.00722 0.35195 0.0
O134 O 0.70488 0.00461 0.36348 0.0
O135 O 0.65139 0.9608 0.37307 0.0
O136 O 0.67558 0.97517 0.38107 0.0
C137 C 0.69963 0.01266 0.35561 0.0
C138 C 0.66343 0.96233 0.38276 0.0
O139 O 0.64919 0.98797 0.33882 0.0
Mg140 Mg 0.03127 0.68987 0.31936 0.0
O141 O 0.04653 0.7022 0.35062 0.0
O142 O 0.0691 0.70554 0.34296 0.0
Mg143 Mg 0.06847 0.69544 0.30824 0.0
C144 C 0.06034 0.70725 0.35598 0.0
C145 C 0.00752 0.69503 0.34349 0.0
O146 O 0.01786 0.70915 0.34018 0.0
O147 O 0.02948 0.66723 0.32825 0.0
O148 O 0.05211 0.67129 0.31944 0.0
O149 O 0.03865 0.71254 0.30501 0.0
O150 O 0.04991 0.69921 0.29928 0.0
C151 C 0.03889 0.66263 0.32623 0.0
C152 C 0.04976 0.71168 0.29691 0.0
O153 O 0.01004 0.6844 0.33796 0.0
Mg154 Mg 0.31844 0.34956 0.37805 0.0
O155 O 0.30283 0.34559 0.34715 0.0
O156 O 0.28028 0.32664 0.35594 0.0
Mg157 Mg 0.28126 0.31853 0.3909 0.0
C158 C 0.28891 0.33657 0.34237 0.0
C159 C 0.35078 0.3727 0.37207 0.0
O160 O 0.349 0.37171 0.39384 0.0
O161 O 0.31943 0.32817 0.36906 0.0
O162 O 0.29691 0.30992 0.37907 0.0
O163 O 0.31228 0.36597 0.39247 0.0
O164 O 0.30017 0.34138 0.3987 0.0
C165 C 0.30989 0.31417 0.37155 0.0
C166 C 0.30103 0.35442 0.40111 0.0
O167 O 0.33953 0.36441 0.35907 0.0
Mg168 Mg 0.34985 0.03038 0.64293 0.0
O169 O 0.34469 0.04289 0.67118 0.0
O170 O 0.32711 0.04735 0.65673 0.0
Mg171 Mg 0.32096 0.03806 0.62075 0.0
C172 C 0.3359 0.04833 0.67287 0.0
C173 C 0.3757 0.03491 0.67555 0.0
O174 O 0.37897 0.049 0.67265 0.0
O175 O 0.32777 0.00813 0.64834 0.0
O176 O 0.31122 0.0138 0.63331 0.0
O177 O 0.36708 0.05284 0.63053 0.0
O178 O 0.34338 0.04088 0.61887 0.0
C179 C 0.31431 0.00448 0.64275 0.0
C180 C 0.35642 0.05291 0.61888 0.0
O181 O 0.36351 0.02417 0.66685 0.0
Mg182 Mg 0.97895 0.31478 0.70533 0.0
O183 O 0.96262 0.3033 0.6747 0.0
O184 O 0.94005 0.29814 0.68606 0.0
Mg185 Mg 0.94166 0.30586 0.72257 0.0
C186 C 0.94856 0.29789 0.671 0.0
C187 C 0.01196 0.32994 0.69557 0.0
O188 O 0.01156 0.33329 0.71683 0.0
O189 O 0.97873 0.33692 0.70061 0.0
O190 O 0.95608 0.33078 0.71269 0.0
O191 O 0.9741 0.29203 0.71629 0.0
O192 O 0.96135 0.30311 0.72678 0.0
C193 C 0.96874 0.34041 0.70503 0.0
C194 C 0.96289 0.29129 0.72674 0.0
O195 O 0.99964 0.32251 0.68435 0.0
Mg196 Mg 0.69772 0.66553 0.64433 0.0
O197 O 0.71471 0.67259 0.67447 0.0
O198 O 0.73662 0.69054 0.66161 0.0
Mg199 Mg 0.73415 0.69469 0.62494 0.0
C200 C 0.72871 0.68224 0.67732 0.0
C201 C 0.6674 0.64031 0.6557 0.0
O202 O 0.67028 0.63693 0.63573 0.0
O203 O 0.69723 0.68766 0.64884 0.0
O204 O 0.71942 0.70457 0.6357 0.0
O205 O 0.70324 0.64786 0.63345 0.0
O206 O 0.71502 0.6715 0.62231 0.0
C207 C 0.70688 0.70125 0.64407 0.0
C208 C 0.714 0.65835 0.62243 0.0
O209 O 0.67727 0.65251 0.66578 0.0
Mg210 Mg 0.33239 0.3179 0.70136 0.0
O211 O 0.33653 0.30536 0.6719 0.0
O212 O 0.35526 0.30189 0.68388 0.0
Mg213 Mg 0.36314 0.31187 0.71928 0.0
C214 C 0.34551 0.30028 0.6689 0.0
C215 C 0.30727 0.32403 0.69175 0.0
O216 O 0.30789 0.3226 0.71353 0.0
O217 O 0.35357 0.34047 0.69384 0.0
O218 O 0.37142 0.33593 0.70658 0.0
O219 O 0.31638 0.29547 0.71509 0.0
O220 O 0.34055 0.30813 0.72408 0.0
C221 C 0.36738 0.34476 0.69791 0.0
C222 C 0.32775 0.29589 0.72536 0.0
O223 O 0.31692 0.32309 0.67988 0.0
Mg224 Mg 0.69329 0.02017 0.65187 0.0
O225 O 0.70877 0.03242 0.68298 0.0
O226 O 0.73045 0.0333 0.67642 0.0
Mg227 Mg 0.72913 0.02218 0.64226 0.0
C228 C 0.72227 0.03634 0.6888 0.0
C229 C 0.66148 0.01393 0.65699 0.0
O230 O 0.66272 0.01283 0.63525 0.0
O231 O 0.68952 0.99708 0.6623 0.0
O232 O 0.7112 0.99863 0.65381 0.0
O233 O 0.70179 0.04244 0.63606 0.0
O234 O 0.71206 0.02802 0.63206 0.0
C235 C 0.69783 0.99114 0.66068 0.0
C236 C 0.71254 0.04072 0.62848 0.0
O237 O 0.67263 0.01681 0.66987 0.0
Mg238 Mg 0.98378 0.67294 0.69907 0.0
O239 O 0.96885 0.66994 0.66784 0.0
O240 O 0.94687 0.64891 0.67272 0.0
Mg241 Mg 0.94767 0.63839 0.70571 0.0
C242 C 0.95538 0.66041 0.66131 0.0
C243 C 0.01652 0.6972 0.695 0.0
O244 O 0.0157 0.69298 0.71584 0.0
O245 O 0.98778 0.65391 0.68675 0.0
O246 O 0.96571 0.6334 0.69296 0.0
O247 O 0.97448 0.68599 0.7161 0.0
O248 O 0.96483 0.66116 0.71792 0.0
C249 C 0.97922 0.6395 0.68667 0.0
C250 C 0.96385 0.67303 0.72253 0.0
O251 O 0.00473 0.69081 0.68242 0.0
H252 H 0.22849 0.34192 0.12706 0.0
H253 H 0.18848 0.32937 0.08772 0.0
H254 H 0.19072 0.34004 0.15874 0.0
H255 H 0.16698 0.3196 0.15483 0.0
H256 H 0.12931 0.31857 0.12175 0.0
H257 H 0.17168 0.33951 0.08991 0.0
C258 C 0.21721 0.34016 0.12594 0.0
C259 C 0.21053 0.34156 0.1453 0.0
C260 C 0.20938 0.33591 0.10523 0.0
C261 C 0.19461 0.33311 0.10369 0.0
C262 C 0.18755 0.33429 0.12305 0.0
C263 C 0.19577 0.33877 0.14373 0.0
C264 C 0.17137 0.32986 0.12221 0.0
C265 C 0.16233 0.32231 0.14039 0.0
C266 C 0.14721 0.31822 0.14025 0.0
C267 C 0.14089 0.32122 0.12151 0.0
C268 C 0.14956 0.32881 0.1033 0.0
C269 C 0.16488 0.33325 0.10371 0.0
H270 H 0.67139 0.88624 0.12189 0.0
H271 H 0.68349 0.85639 0.08883 0.0
H272 H 0.67647 0.85381 0.1603 0.0
H273 H 0.69395 0.84668 0.15925 0.0
H274 H 0.69254 0.80764 0.12844 0.0
H275 H 0.67361 0.83058 0.09282 0.0
C276 C 0.67359 0.87688 0.12274 0.0
C277 C 0.67374 0.87076 0.14347 0.0
C278 C 0.67695 0.87162 0.10313 0.0
C279 C 0.68048 0.86001 0.10409 0.0
C280 C 0.68027 0.85327 0.12465 0.0
C281 C 0.67689 0.85882 0.14431 0.0
C282 C 0.68375 0.84064 0.12559 0.0
C283 C 0.69086 0.8389 0.14489 0.0
C284 C 0.69407 0.82706 0.14583 0.0
C285 C 0.69053 0.81711 0.12729 0.0
C286 C 0.68322 0.81832 0.10812 0.0
C287 C 0.6797 0.83 0.1074 0.0
H288 H 0.21351 0.89483 0.12427 0.0
H289 H 0.18244 0.85236 0.09132 0.0
H290 H 0.17628 0.86172 0.1601 0.0
H291 H 0.16925 0.83713 0.16244 0.0
H292 H 0.13045 0.79849 0.13333 0.0
H293 H 0.15627 0.83705 0.09289 0.0
C294 C 0.20317 0.88401 0.12459 0.0
C295 C 0.19556 0.87931 0.1446 0.0
C296 C 0.1983 0.87452 0.10527 0.0
C297 C 0.18569 0.8599 0.10601 0.0
C298 C 0.17759 0.85497 0.12584 0.0
C299 C 0.1825 0.86502 0.14486 0.0
C300 C 0.16455 0.83919 0.12736 0.0
C301 C 0.1618 0.83175 0.14794 0.0
C302 C 0.1495 0.8172 0.15009 0.0
C303 C 0.13998 0.80979 0.1315 0.0
C304 C 0.14224 0.81683 0.11086 0.0
C305 C 0.15467 0.83151 0.10873 0.0
H306 H 0.32912 0.11397 0.8839 0.0
H307 H 0.32658 0.14852 0.92232 0.0
H308 H 0.33169 0.15192 0.85032 0.0
H309 H 0.31851 0.16346 0.8529 0.0
H310 H 0.32409 0.20275 0.88895 0.0
H311 H 0.33706 0.17365 0.9211 0.0
C312 C 0.32877 0.12446 0.88452 0.0
C313 C 0.32994 0.13202 0.86473 0.0
C314 C 0.32796 0.13059 0.90525 0.0
C315 C 0.32775 0.14428 0.90617 0.0
C316 C 0.3287 0.15212 0.88635 0.0
C317 C 0.33029 0.146 0.86574 0.0
C318 C 0.32769 0.16636 0.88707 0.0
C319 C 0.32211 0.17045 0.86817 0.0
C320 C 0.32089 0.18357 0.86881 0.0
C321 C 0.32471 0.19241 0.88864 0.0
C322 C 0.33032 0.18877 0.90758 0.0
C323 C 0.33213 0.17596 0.90662 0.0
H324 H 0.78654 0.12552 0.89183 0.0
H325 H 0.82744 0.1536 0.92944 0.0
H326 H 0.82571 0.15568 0.85698 0.0
H327 H 0.84908 0.16209 0.85992 0.0
H328 H 0.88773 0.19886 0.89279 0.0
H329 H 0.84641 0.17763 0.92701 0.0
C330 C 0.7982 0.13445 0.89216 0.0
C331 C 0.80541 0.13981 0.87202 0.0
C332 C 0.80603 0.13964 0.9128 0.0
C333 C 0.82143 0.15029 0.91337 0.0
C334 C 0.82894 0.15641 0.89331 0.0
C335 C 0.82059 0.15112 0.87272 0.0
C336 C 0.84542 0.16794 0.89367 0.0
C337 C 0.85401 0.16945 0.87467 0.0
C338 C 0.86914 0.1807 0.87417 0.0
C339 C 0.87613 0.18985 0.89336 0.0
C340 C 0.86808 0.18861 0.91254 0.0
C341 C 0.85266 0.1779 0.91251 0.0
H342 H 0.79423 0.68362 0.89203 0.0
H343 H 0.82195 0.66996 0.92729 0.0
H344 H 0.83137 0.68516 0.85918 0.0
H345 H 0.83836 0.66784 0.85747 0.0
H346 H 0.87547 0.66784 0.89052 0.0
H347 H 0.84778 0.67981 0.92847 0.0
C348 C 0.8041 0.68242 0.89262 0.0
C349 C 0.81231 0.68474 0.87332 0.0
C350 C 0.80768 0.67735 0.91217 0.0
C351 C 0.81972 0.67455 0.91243 0.0
C352 C 0.82854 0.67734 0.89336 0.0
C353 C 0.82476 0.68267 0.87399 0.0
C354 C 0.84126 0.6742 0.89309 0.0
C355 C 0.84498 0.66971 0.87274 0.0
C356 C 0.85729 0.66749 0.8718 0.0
C357 C 0.86578 0.66934 0.89132 0.0
C358 C 0.86236 0.67368 0.91171 0.0
C359 C 0.85007 0.67605 0.9127 0.0
H360 H 0.89558 0.68409 0.45886 0.0
H361 H 0.85507 0.66913 0.41955 0.0
H362 H 0.85545 0.67459 0.49173 0.0
H363 H 0.83264 0.65398 0.48616 0.0
H364 H 0.79402 0.6521 0.45518 0.0
H365 H 0.83632 0.67629 0.42361 0.0
C366 C 0.88388 0.68103 0.45797 0.0
C367 C 0.87632 0.67961 0.47775 0.0
C368 C 0.87635 0.67747 0.43704 0.0
C369 C 0.86093 0.67243 0.43575 0.0
C370 C 0.85311 0.67131 0.45546 0.0
C371 C 0.86107 0.67515 0.47636 0.0
C372 C 0.8366 0.66554 0.4546 0.0
C373 C 0.82772 0.65687 0.47227 0.0
C374 C 0.81243 0.6521 0.47257 0.0
C375 C 0.80574 0.65529 0.45453 0.0
C376 C 0.81419 0.66389 0.43677 0.0
C377 C 0.82969 0.66915 0.43691 0.0
H378 H 0.33056 0.21863 0.4633 0.0
H379 H 0.34382 0.19117 0.42607 0.0
H380 H 0.33956 0.18746 0.49808 0.0
H381 H 0.3576 0.18159 0.49463 0.0
H382 H 0.35751 0.14405 0.46096 0.0
H383 H 0.33607 0.16579 0.42881 0.0
C384 C 0.33342 0.20972 0.46299 0.0
C385 C 0.33494 0.20373 0.48312 0.0
C386 C 0.33642 0.20508 0.44249 0.0
C387 C 0.34103 0.19424 0.442 0.0
C388 C 0.34212 0.18754 0.46197 0.0
C389 C 0.339 0.19244 0.48249 0.0
C390 C 0.34665 0.17565 0.46144 0.0
C391 C 0.35451 0.17409 0.47994 0.0
C392 C 0.35843 0.16273 0.47974 0.0
C393 C 0.35497 0.15319 0.46071 0.0
C394 C 0.34702 0.15429 0.44226 0.0
C395 C 0.34272 0.1654 0.44277 0.0
H396 H 0.88928 0.21408 0.45904 0.0
H397 H 0.85172 0.17773 0.42305 0.0
H398 H 0.8481 0.18852 0.49244 0.0
H399 H 0.8325 0.16397 0.49338 0.0
H400 H 0.79044 0.135 0.45941 0.0
H401 H 0.827 0.16766 0.42195 0.0
C402 C 0.8778 0.20477 0.45886 0.0
C403 C 0.86957 0.20182 0.47828 0.0
C404 C 0.8713 0.19632 0.43892 0.0
C405 C 0.85634 0.18446 0.43843 0.0
C406 C 0.8477 0.18116 0.45781 0.0
C407 C 0.85446 0.19032 0.4775 0.0
C408 C 0.83184 0.16815 0.45783 0.0
C409 C 0.82571 0.16085 0.47803 0.0
C410 C 0.81072 0.1493 0.47875 0.0
C411 C 0.80187 0.14441 0.45901 0.0
C412 C 0.80785 0.15067 0.4385 0.0
C413 C 0.82274 0.16268 0.4379 0.0
H414 H 0.007 0.45079 0.21893 0.0
H415 H 0.9978 0.48097 0.25724 0.0
H416 H 0.0059 0.4873 0.18615 0.0
H417 H 0.99056 0.49659 0.18818 0.0
H418 H 0.99116 0.53311 0.22593 0.0
H419 H 0.00702 0.50619 0.25745 0.0
C420 C 0.00558 0.46066 0.21968 0.0
C421 C 0.00664 0.46846 0.20018 0.0
C422 C 1.00261 0.46529 0.24019 0.0
C423 C 1.00051 0.47788 0.24129 0.0
C424 C 1.00145 0.48601 0.22182 0.0
C425 C 0.00466 0.48116 0.2013 0.0
C426 C 0.99882 0.49926 0.22284 0.0
C427 C 0.99312 0.5031 0.20382 0.0
C428 C 0.99044 0.51533 0.20484 0.0
C429 C 0.99297 0.52348 0.22513 0.0
C430 C 0.99877 0.52009 0.24406 0.0
C431 C 1.00198 0.50823 0.24284 0.0
H432 H 0.46065 0.44848 0.23226 0.0
H433 H 0.49915 0.48326 0.26894 0.0
H434 H 0.4958 0.48402 0.19651 0.0
H435 H 0.52025 0.49329 0.19989 0.0
H436 H 0.55479 0.53501 0.23047 0.0
H437 H 0.5144 0.50856 0.26523 0.0
C438 C 0.47158 0.45868 0.23238 0.0
C439 C 0.47765 0.46526 0.21209 0.0
C440 C 0.47913 0.4653 0.25284 0.0
C441 C 0.49322 0.4786 0.25301 0.0
C442 C 0.4997 0.48545 0.2327 0.0
C443 C 0.49146 0.47884 0.21234 0.0
C444 C 0.51514 0.4991 0.23251 0.0
C445 C 0.52417 0.50151 0.21377 0.0
C446 C 0.53837 0.51452 0.21265 0.0
C447 C 0.544 0.5247 0.23117 0.0
C448 C 0.53562 0.52234 0.25031 0.0
C449 C 0.52104 0.50981 0.25077 0.0
H450 H 0.45695 0.01342 0.22176 0.0
H451 H 0.48394 0.99953 0.25819 0.0
H452 H 0.49373 0.0137 0.18961 0.0
H453 H 0.50082 0.99693 0.18778 0.0
H454 H 0.53453 0.99182 0.22238 0.0
H455 H 0.50847 0.00618 0.25964 0.0
C456 C 0.46666 0.01195 0.22246 0.0
C457 C 0.47476 0.01376 0.20316 0.0
C458 C 0.47024 0.00733 0.24243 0.0
C459 C 0.48187 0.00392 0.24299 0.0
C460 C 0.49054 0.00599 0.22389 0.0
C461 C 0.48704 0.01139 0.20429 0.0
C462 C 0.50273 1.00197 0.22383 0.0
C463 C 0.50665 0.99769 0.20344 0.0
C464 C 0.51819 0.99426 0.20286 0.0
C465 C 0.52541 0.99423 0.22284 0.0
C466 C 0.52181 0.9983 0.24328 0.0
C467 C 0.51069 0.00246 0.2438 0.0
H468 H 0.56386 0.02079 0.79605 0.0
H469 H 0.52361 0.00715 0.75674 0.0
H470 H 0.52398 0.01216 0.82894 0.0
H471 H 0.50087 0.99193 0.82306 0.0
H472 H 0.46254 0.98981 0.79057 0.0
H473 H 0.50536 0.01459 0.7606 0.0
C474 C 0.55228 0.01812 0.79511 0.0
C475 C 0.54475 0.01679 0.81491 0.0
C476 C 0.5448 0.01488 0.77413 0.0
C477 C 0.52947 0.01024 0.77294 0.0
C478 C 0.5217 0.00919 0.79264 0.0
C479 C 0.52959 0.01271 0.81355 0.0
C480 C 0.50525 0.0037 0.79164 0.0
C481 C 0.49614 0.99491 0.80904 0.0
C482 C 0.4808 0.98994 0.80867 0.0
C483 C 0.47433 0.99322 0.79043 0.0
C484 C 0.48305 1.00202 0.77301 0.0
C485 C 0.49856 0.00739 0.77373 0.0
H486 H 0.00486 0.55657 0.79893 0.0
H487 H 0.01487 0.52537 0.76523 0.0
H488 H 0.00708 0.52228 0.83654 0.0
H489 H 0.02139 0.51184 0.83638 0.0
H490 H 0.01608 0.47147 0.80414 0.0
H491 H 0.00475 0.5002 0.76727 0.0
C492 C 0.00646 0.54681 0.79959 0.0
C493 C 0.00607 0.54029 0.82017 0.0
C494 C 0.00938 0.54128 0.77986 0.0
C495 C 0.01216 0.52914 0.78061 0.0
C496 C 0.01126 0.52189 0.80098 0.0
C497 C 0.00819 0.52768 0.82071 0.0
C498 C 0.01315 0.50819 0.80156 0.0
C499 C 0.01827 0.50457 0.82143 0.0
C500 C 0.01893 0.49117 0.82241 0.0
C501 C 0.01559 0.48186 0.80319 0.0
C502 C 0.01086 0.48529 0.78316 0.0
C503 C 0.00925 0.4982 0.78252 0.0
H504 H 0.55617 0.55509 0.79614 0.0
H505 H 0.51828 0.52583 0.75334 0.0
H506 H 0.51966 0.51608 0.82358 0.0
H507 H 0.4959 0.50497 0.82084 0.0
H508 H 0.45991 0.47144 0.77915 0.0
H509 H 0.50152 0.50132 0.74955 0.0
C510 C 0.54522 0.54499 0.79387 0.0
C511 C 0.53841 0.53617 0.81228 0.0
C512 C 0.53813 0.54115 0.7726 0.0
C513 C 0.52379 0.52825 0.76973 0.0
C514 C 0.51654 0.51899 0.78807 0.0
C515 C 0.5243 0.52305 0.80923 0.0
C516 C 0.50085 0.50553 0.78545 0.0
C517 C 0.49177 0.49981 0.80437 0.0
C518 C 0.47732 0.48703 0.80246 0.0
C519 C 0.4713 0.48088 0.78108 0.0
C520 C 0.47995 0.48597 0.76213 0.0
C521 C 0.49481 0.49805 0.76429 0.0
H522 H 0.66016 0.78041 0.54994 0.0
H523 H 0.66613 0.81966 0.58642 0.0
H524 H 0.64986 0.81116 0.51701 0.0
H525 H 0.65889 0.83549 0.51672 0.0
H526 H 0.6523 0.86774 0.55435 0.0
H527 H 0.65473 0.83268 0.58899 0.0
C528 C 0.6591 0.7905 0.5505 0.0
C529 C 0.65497 0.79508 0.53102 0.0
C530 C 0.66269 0.79912 0.57052 0.0
C531 C 0.66253 0.81283 0.57102 0.0
C532 C 0.65776 0.81751 0.55186 0.0
C533 C 0.6539 0.80832 0.53193 0.0
C534 C 0.65663 0.83173 0.55265 0.0
C535 C 0.65699 0.83927 0.53274 0.0
C536 C 0.65486 0.85187 0.5332 0.0
C537 C 0.65322 0.85757 0.55378 0.0
C538 C 0.65364 0.85091 0.5738 0.0
C539 C 0.65506 0.8379 0.57326 0.0
H540 H 0.12118 0.79456 0.56106 0.0
H541 H 0.16192 0.82181 0.5996 0.0
H542 H 0.16094 0.8247 0.5273 0.0
H543 H 0.18399 0.82927 0.53129 0.0
H544 H 0.22267 0.86644 0.56347 0.0
H545 H 0.18097 0.84647 0.59685 0.0
C546 C 0.13289 0.80336 0.5617 0.0
C547 C 0.1403 0.8089 0.54175 0.0
C548 C 0.14056 0.80821 0.58251 0.0
C549 C 0.15601 0.81869 0.58345 0.0
C550 C 0.16372 0.82488 0.5636 0.0
C551 C 0.15556 0.81998 0.54284 0.0
C552 C 0.18024 0.83605 0.56427 0.0
C553 C 0.18895 0.83692 0.54576 0.0
C554 C 0.20413 0.84796 0.5453 0.0
C555 C 0.21104 0.85754 0.56413 0.0
C556 C 0.20285 0.85693 0.58289 0.0
C557 C 0.18738 0.84636 0.58278 0.0
H558 H 0.11528 0.33205 0.56304 0.0
H559 H 0.15504 0.3424 0.60133 0.0
H560 H 0.1531 0.3359 0.52907 0.0
H561 H 0.17718 0.35373 0.53347 0.0
H562 H 0.21376 0.35247 0.56632 0.0
H563 H 0.17153 0.33314 0.59813 0.0
C564 C 0.12661 0.33393 0.56366 0.0
C565 C 0.13352 0.3341 0.54371 0.0
C566 C 0.13419 0.33659 0.58437 0.0
C567 C 0.14907 0.33966 0.58525 0.0
C568 C 0.15619 0.33942 0.56534 0.0
C569 C 0.14806 0.33627 0.54463 0.0
C570 C 0.1722 0.34312 0.56591 0.0
C571 C 0.18144 0.35048 0.54775 0.0
C572 C 0.19636 0.35381 0.54783 0.0
C573 C 0.2023 0.35022 0.5664 0.0
C574 C 0.19346 0.3429 0.58451 0.0
C575 C 0.17838 0.33922 0.58428 0.0
H576 H 0.02334 0.38667 0.04695 0.0
H577 H 0.02535 0.40262 0.07979 0.0
H578 H 0.98589 0.40324 0.05621 0.0
H579 H 0.98362 0.38725 0.02388 0.0
H580 H 0.02883 0.43184 0.07968 0.0
H581 H 0.97666 0.39188 0.12119 0.0
H582 H 0.98469 0.38577 0.0996 0.0
H583 H 0.97348 0.39415 0.09223 0.0
C584 C 0.01495 0.39 0.04898 0.0
C585 C 1.0033 0.38562 0.03277 0.0
C586 C 0.01616 0.39917 0.06768 0.0
C587 C 0.00566 0.40396 0.07057 0.0
C588 C 0.99394 0.39944 0.05458 0.0
H589 H 0.99037 0.46205 0.16079 0.0
H590 H 0.99147 0.44774 0.12797 0.0
C591 C 0.99273 0.39033 0.03599 0.0
C592 C 0.00716 0.41428 0.08963 0.0
H593 H 0.988 0.41802 0.13295 0.0
C594 C 0.01999 0.42878 0.0915 0.0
C595 C 0.99559 0.41027 0.10497 0.0
C596 C 0.9819 0.39462 0.10457 0.0
C597 C 0.02133 0.43954 0.10791 0.0
C598 C 0.00959 0.43562 0.12288 0.0
C599 C 0.99689 0.42106 0.12123 0.0
C600 C 0.01039 0.44621 0.14098 0.0
C601 C 0.03511 0.45512 0.1088 0.0
C602 C 0.02086 0.45037 0.15887 0.0
C603 C 0.02024 0.45851 0.17754 0.0
C604 C 0.00912 0.46262 0.17868 0.0
C605 C 0.99914 0.45917 0.16023 0.0
C606 C 0.99971 0.45092 0.14159 0.0
H607 H 0.04143 0.45748 0.09312 0.0
H608 H 0.03205 0.46404 0.11168 0.0
H609 H 0.04263 0.45591 0.12295 0.0
H610 H 0.02906 0.44668 0.15888 0.0
H611 H 0.02808 0.46104 0.19154 0.0
H612 H 0.62566 0.59157 0.05355 0.0
H613 H 0.60695 0.56831 0.07086 0.0
H614 H 0.59688 0.59515 0.11661 0.0
H615 H 0.6149 0.61826 0.09851 0.0
H616 H 0.60543 0.55825 0.1099 0.0
H617 H 0.55564 0.56415 0.09816 0.0
H618 H 0.57283 0.57618 0.08431 0.0
H619 H 0.57001 0.58097 0.1124 0.0
C620 C 0.61931 0.59245 0.06716 0.0
C621 C 0.62163 0.60668 0.07464 0.0
C622 C 0.60862 0.57916 0.07702 0.0
C623 C 0.60021 0.57989 0.09472 0.0
C624 C 0.60276 0.59418 0.10243 0.0
H625 H 0.56877 0.52809 0.20829 0.0
H626 H 0.58269 0.54057 0.17556 0.0
C627 C 0.61318 0.60741 0.09224 0.0
C628 C 0.58945 0.56592 0.10616 0.0
H629 H 0.55537 0.54937 0.13002 0.0
C630 C 0.59435 0.55612 0.11389 0.0
C631 C 0.57475 0.56267 0.11071 0.0
C632 C 0.56797 0.57147 0.10068 0.0
C633 C 0.58542 0.54395 0.12752 0.0
C634 C 0.57152 0.54195 0.13444 0.0
C635 C 0.56614 0.55099 0.12521 0.0
C636 C 0.56318 0.53195 0.15305 0.0
C637 C 0.59113 0.53353 0.13447 0.0
C638 C 0.5475 0.52282 0.15156 0.0
C639 C 0.53941 0.51619 0.17067 0.0
C640 C 0.54687 0.51844 0.19161 0.0
C641 C 0.56262 0.52641 0.19257 0.0
C642 C 0.57066 0.53333 0.17364 0.0
H643 H 0.59747 0.53202 0.12078 0.0
H644 H 0.59899 0.53872 0.14917 0.0
H645 H 0.58189 0.52217 0.13887 0.0
H646 H 0.54144 0.52153 0.13588 0.0
H647 H 0.52729 0.5102 0.16925 0.0
H648 H 0.42093 0.02392 0.01183 0.0
H649 H 0.43552 0.02534 0.04518 0.0
H650 H 0.39493 1.00104 0.0817 0.0
H651 H 0.38006 0.99908 0.04787 0.0
H652 H 0.43879 0.03846 0.08511 0.0
H653 H 0.41477 0.97645 0.09441 0.0
H654 H 0.41114 0.98426 0.0698 0.0
H655 H 0.40105 0.98236 0.0949 0.0
C656 C 0.41502 0.01884 0.02691 0.0
C657 C 0.39928 0.01132 0.02712 0.0
C658 C 0.42343 0.01969 0.04601 0.0
C659 C 0.41635 0.01313 0.06589 0.0
C660 C 0.40063 0.00588 0.06639 0.0
H661 H 0.46332 0.0326 0.1956 0.0
H662 H 0.44981 0.03314 0.16197 0.0
C663 C 0.39215 0.00485 0.0471 0.0
C664 C 0.4256 0.01406 0.0859 0.0
H665 H 0.43154 0.99256 0.12342 0.0
C666 C 0.43722 0.02842 0.09348 0.0
C667 C 0.42372 1.00094 0.09656 0.0
C668 C 0.4121 0.98512 0.0884 0.0
C669 C 0.44698 0.03004 0.1114 0.0
C670 C 0.4448 0.01696 0.12253 0.0
C671 C 0.43319 0.0026 0.11493 0.0
C672 C 0.45425 0.01782 0.14223 0.0
C673 C 0.45977 0.04571 0.11779 0.0
C674 C 0.46126 0.00902 0.14244 0.0
C675 C 0.46871 0.0084 0.16186 0.0
C676 C 0.46931 0.01659 0.1815 0.0
C677 C 0.46293 0.026 0.18087 0.0
C678 C 0.45534 0.02647 0.16153 0.0
H679 H 0.46277 0.05346 0.10353 0.0
H680 H 0.45635 0.05062 0.13166 0.0
H681 H 0.46989 0.04534 0.1235 0.0
H682 H 0.46056 1.00223 0.12775 0.0
H683 H 0.47331 1.00088 0.16179 0.0
H684 H 0.39675 0.00657 0.92484 0.0
H685 H 0.41477 0.0026 0.9042 0.0
H686 H 0.39715 0.95823 0.93181 0.0
H687 H 0.3792 0.9622 0.95291 0.0
H688 H 0.4293 0.97556 0.93102 0.0
H689 H 0.40186 0.97312 0.849 0.0
H690 H 0.40652 0.98985 0.86578 0.0
H691 H 0.3929 0.97147 0.8753 0.0
C692 C 0.39678 0.99603 0.92673 0.0
C693 C 0.3865 0.98468 0.94045 0.0
C694 C 0.40703 0.99374 0.91483 0.0
C695 C 0.40712 0.98004 0.91628 0.0
C696 C 0.3972 0.96885 0.93043 0.0
H697 H 0.45394 0.9637 0.8103 0.0
H698 H 0.43574 0.9572 0.83977 0.0
C699 C 0.38692 0.97113 0.94239 0.0
C700 C 0.41728 0.97729 0.90236 0.0
H701 H 0.42635 0.97634 0.84805 0.0
C702 C 0.42859 0.97553 0.91286 0.0
C703 C 0.41608 0.9769 0.87871 0.0
C704 C 0.4036 0.97778 0.86649 0.0
C705 C 0.43926 0.97419 0.90024 0.0
C706 C 0.43865 0.97485 0.87661 0.0
C707 C 0.42687 0.97585 0.86617 0.0
C708 C 0.4507 0.97596 0.86223 0.0
C709 C 0.4511 0.9722 0.91235 0.0
C710 C 0.4654 0.98814 0.86559 0.0
C711 C 0.47586 0.9917 0.84892 0.0
C712 C 0.47168 0.98328 0.82851 0.0
C713 C 0.4574 0.97032 0.82595 0.0
C714 C 0.44701 0.96665 0.84273 0.0
H715 H 0.44697 0.96641 0.92841 0.0
H716 H 0.45474 0.96555 0.90192 0.0
H717 H 0.46098 0.98355 0.91639 0.0
H718 H 0.46845 0.99571 0.88021 0.0
H719 H 0.48674 1.00187 0.85114 0.0
H720 H 0.04767 0.41083 0.95861 0.0
H721 H 0.05089 0.43428 0.94266 0.0
H722 H 0.00509 0.41018 0.91746 0.0
H723 H 1.00185 0.38672 0.93283 0.0
H724 H 0.04543 0.43816 0.89523 0.0
H725 H 0.00991 0.44852 0.95319 0.0
H726 H 0.01796 0.43683 0.96016 0.0
H727 H 1.00145 0.42931 0.94217 0.0
C728 C 0.03828 0.41052 0.94969 0.0
C729 C 0.02443 0.39691 0.94723 0.0
C730 C 0.04013 0.42394 0.94068 0.0
C731 C 0.02813 0.42399 0.92932 0.0
C732 C 0.01438 0.41042 0.92664 0.0
H733 H 0.99869 0.46689 0.84408 0.0
H734 H 1.00352 0.45391 0.87427 0.0
C735 C 0.01255 0.39701 0.93544 0.0
C736 C 0.03001 0.43794 0.91911 0.0
H737 H 0.01487 0.46104 0.91815 0.0
C738 C 0.03905 0.44345 0.90048 0.0
C739 C 0.02171 0.44479 0.92616 0.0
C740 C 0.01231 0.43967 0.94665 0.0
C741 C 0.03908 0.45486 0.88756 0.0
C742 C 0.03006 0.46111 0.89384 0.0
C743 C 0.0218 0.45627 0.91339 0.0
C744 C 0.02709 0.47063 0.87844 0.0
C745 C 0.04786 0.45928 0.86639 0.0
C746 C 0.03861 0.48471 0.8714 0.0
C747 C 0.03582 0.49217 0.85405 0.0
C748 C 0.02149 0.48563 0.84375 0.0
C749 C 0.00982 0.47213 0.85189 0.0
C750 C 0.01258 0.46473 0.86911 0.0
H751 H 0.05241 0.45171 0.86224 0.0
H752 H 0.0407 0.45893 0.85198 0.0
H753 H 0.0574 0.47106 0.86854 0.0
H754 H 0.04984 0.48958 0.87865 0.0
H755 H 0.04498 0.50254 0.84787 0.0
H756 H 0.5877 0.61256 0.99714 0.0
H757 H 0.57469 0.59616 0.96438 0.0
H758 H 0.61653 0.60218 0.94098 0.0
H759 H 0.62973 0.61849 0.97406 0.0
H760 H 0.57835 0.60194 0.91926 0.0
H761 H 0.58995 0.55586 0.9409 0.0
H762 H 0.59294 0.57082 0.96075 0.0
H763 H 0.60627 0.57437 0.93945 0.0
C764 C 0.59421 0.61048 0.98505 0.0
C765 C 0.60979 0.6168 0.98837 0.0
C766 C 0.58672 0.60107 0.9663 0.0
C767 C 0.59459 0.5977 0.95047 0.0
C768 C 0.6102 0.60435 0.95328 0.0
H769 H 0.56769 0.54628 0.82436 0.0
H770 H 0.58094 0.56017 0.85907 0.0
C771 C 0.61773 0.6138 0.97209 0.0
C772 C 0.58634 0.58731 0.93101 0.0
H773 H 0.57758 0.55325 0.9058 0.0
C774 C 0.57814 0.59127 0.91635 0.0
C775 C 0.58607 0.57338 0.92729 0.0
C776 C 0.59416 0.56824 0.94301 0.0
C777 C 0.56984 0.5818 0.8979 0.0
C778 C 0.56952 0.56785 0.89422 0.0
C779 C 0.57778 0.5639 0.90878 0.0
C780 C 0.56111 0.55757 0.87477 0.0
C781 C 0.56174 0.58696 0.88219 0.0
C782 C 0.54548 0.55091 0.87255 0.0
C783 C 0.53787 0.54296 0.85274 0.0
C784 C 0.54581 0.54157 0.83484 0.0
C785 C 0.56132 0.54733 0.83778 0.0
C786 C 0.56889 0.55524 0.85759 0.0
H787 H 0.56577 0.59929 0.88453 0.0
H788 H 0.56317 0.5846 0.86444 0.0
H789 H 0.54959 0.58063 0.88548 0.0
H790 H 0.53925 0.55238 0.88581 0.0
H791 H 0.52594 0.5387 0.85092 0.0
H792 H 0.03093 0.62292 0.99574 0.0
H793 H 0.02793 0.60652 0.96342 0.0
H794 H 0.98867 0.60788 0.94095 0.0
H795 H 0.99157 0.62443 0.97337 0.0
H796 H 1.00207 0.57745 0.95373 0.0
H797 H 0.01423 0.61734 0.88433 0.0
H798 H 0.0197 0.62383 0.91318 0.0
H799 H 1.00053 0.61594 0.90375 0.0
C800 C 0.02173 0.61993 0.98385 0.0
C801 C 0.01147 0.62502 0.98725 0.0
C802 C 0.02003 0.61049 0.96538 0.0
C803 C 0.00812 0.60601 0.94977 0.0
C804 C 0.99805 0.61135 0.95268 0.0
H805 H 0.9857 0.54955 0.82733 0.0
H806 H 0.98478 0.56421 0.85965 0.0
C807 C 0.99972 0.62081 0.97124 0.0
C808 C 0.00598 0.5952 0.93109 0.0
H809 H 0.00714 0.59205 0.87422 0.0
C810 C 1.00314 0.58061 0.93632 0.0
C811 C 0.0073 0.59934 0.90843 0.0
C812 C 0.01071 0.61499 0.90196 0.0
C813 C 1.00161 0.57003 0.91949 0.0
C814 C 1.00329 0.57428 0.89684 0.0
C815 C 0.00586 0.58879 0.89159 0.0
C816 C 1.0029 0.56409 0.87833 0.0
C817 C 0.99804 0.55436 0.92612 0.0
C818 C 0.01326 0.55894 0.87821 0.0
C819 C 0.01376 0.55049 0.85979 0.0
C820 C 0.00406 0.54722 0.84102 0.0
C821 C 0.99341 0.552 0.84148 0.0
C822 C 0.99286 0.56037 0.85993 0.0
H823 H 0.99262 0.55143 0.9426 0.0
H824 H 0.99053 0.54559 0.91337 0.0
H825 H 0.00859 0.554 0.92762 0.0
H826 H 0.02134 0.56194 0.89198 0.0
H827 H 0.02223 0.54717 0.85977 0.0
H828 H 0.37707 0.39724 0.92616 0.0
H829 H 0.396 0.41865 0.90569 0.0
H830 H 0.43085 0.41911 0.94763 0.0
H831 H 0.41193 0.39688 0.96678 0.0
H832 H 0.41626 0.44634 0.91397 0.0
H833 H 0.44546 0.41522 0.88915 0.0
H834 H 0.4281 0.4062 0.90351 0.0
H835 H 0.44556 0.41798 0.91888 0.0
C836 C 0.3888 0.40194 0.93089 0.0
C837 C 0.39316 0.3953 0.94757 0.0
C838 C 0.39961 0.41421 0.91931 0.0
C839 C 0.41494 0.42027 0.92465 0.0
C840 C 0.41918 0.41427 0.94252 0.0
H841 H 0.47601 0.49907 0.84404 0.0
H842 H 0.46298 0.48496 0.87695 0.0
C843 C 0.40838 0.40164 0.95354 0.0
C844 C 0.42631 0.43228 0.91065 0.0
H845 H 0.45565 0.44016 0.87731 0.0
C846 C 0.4249 0.44501 0.90595 0.0
C847 C 0.43761 0.43055 0.90018 0.0
C848 C 0.43921 0.41669 0.90299 0.0
C849 C 0.43388 0.45558 0.8902 0.0
C850 C 0.44503 0.45373 0.87959 0.0
C851 C 0.44707 0.44156 0.88542 0.0
C852 C 0.45331 0.46279 0.86023 0.0
C853 C 0.43069 0.46805 0.88414 0.0
C854 C 0.45265 0.45507 0.84015 0.0
C855 C 0.4605 0.463 0.82175 0.0
C856 C 0.46895 0.47898 0.82256 0.0
C857 C 0.46963 0.48679 0.84272 0.0
C858 C 0.46199 0.47874 0.86148 0.0
H859 H 0.41965 0.46582 0.89008 0.0
H860 H 0.43944 0.47895 0.89211 0.0
H861 H 0.43084 0.46939 0.86571 0.0
H862 H 0.4461 0.44279 0.83871 0.0
H863 H 0.46008 0.45645 0.80694 0.0
H864 H 0.59398 0.97696 0.97891 0.0
H865 H 0.58228 0.9835 0.94857 0.0
H866 H 0.62336 0.02581 0.9411 0.0
H867 H 0.6353 0.01937 0.97151 0.0
H868 H 0.57924 0.01008 0.94884 0.0
H869 H 0.61092 0.00712 0.87635 0.0
H870 H 0.61036 0.99827 0.90252 0.0
H871 H 0.62187 0.01846 0.90041 0.0
C872 C 0.60064 0.98759 0.97069 0.0
C873 C 0.61561 0.99764 0.97772 0.0
C874 C 0.59389 0.99132 0.95338 0.0
C875 C 0.60195 0.0051 0.94258 0.0
C876 C 0.61699 0.01503 0.94908 0.0
H877 H 0.57312 0.03836 0.82917 0.0
H878 H 0.58726 0.03747 0.862 0.0
C879 C 0.62379 0.01132 0.96647 0.0
C880 C 0.59431 0.00924 0.92517 0.0
H881 H 0.59303 0.01455 0.86908 0.0
C882 C 0.58228 0.01113 0.9314 0.0
C883 C 0.59839 0.0107 0.90251 0.0
C884 C 0.61102 0.00844 0.89489 0.0
C885 C 0.57409 0.01431 0.91549 0.0
C886 C 0.57787 0.01531 0.8927 0.0
C887 C 0.59016 0.0138 0.88658 0.0
C888 C 0.56877 0.01704 0.87467 0.0
C889 C 0.56154 0.01664 0.9233 0.0
C890 C 0.55359 0.00604 0.87115 0.0
C891 C 0.54548 0.00656 0.85247 0.0
C892 C 0.55246 0.01799 0.8368 0.0
C893 C 0.56748 0.02937 0.84089 0.0
C894 C 0.57556 0.02887 0.85962 0.0
H895 H 0.5632 0.02037 0.94126 0.0
H896 H 0.56059 0.02519 0.91322 0.0
H897 H 0.55081 0.00572 0.92144 0.0
H898 H 0.54819 0.99661 0.88223 0.0
H899 H 0.53402 0.99748 0.84958 0.0
H900 H 0.60904 0.98125 0.07949 0.0
H901 H 0.5873 0.97851 0.09897 0.0
H902 H 0.59994 0.0247 0.08458 0.0
H903 H 0.62185 0.02758 0.06486 0.0
H904 H 0.59069 0.99967 0.13709 0.0
H905 H 0.55332 0.99706 0.06634 0.0
H906 H 0.56756 0.99187 0.06268 0.0
H907 H 0.57283 0.01147 0.06636 0.0
C908 C 0.60714 0.99079 0.08018 0.0
C909 C 0.61715 0.00463 0.07059 0.0
C910 C 0.5947 0.98919 0.09133 0.0
C911 C 0.59196 1.00134 0.09293 0.0
C912 C 0.6018 0.01514 0.08319 0.0
H913 H 0.52811 0.01393 0.16877 0.0
H914 H 0.54471 0.0148 0.13929 0.0
C915 C 0.61433 0.01679 0.0721 0.0
C916 C 0.57948 0.99983 0.10642 0.0
H917 H 0.54472 0.99614 0.10303 0.0
C918 C 0.58062 0.99887 0.12968 0.0
C919 C 0.56648 0.99896 0.09661 0.0
C920 C 0.56482 0.99981 0.07161 0.0
C921 C 0.56909 0.99709 0.14352 0.0
C922 C 0.55585 0.99576 0.13371 0.0
C923 C 0.55479 0.99696 0.11043 0.0
C924 C 0.54328 0.99353 0.14773 0.0
C925 C 0.57133 0.99695 0.16859 0.0
C926 C 0.53628 0.98083 0.16123 0.0
C927 C 0.52691 0.98037 0.17812 0.0
C928 C 0.52421 0.99248 0.18146 0.0
C929 C 0.52995 0.00441 0.16641 0.0
C930 C 0.53948 0.00495 0.14966 0.0
H931 H 0.58336 1.00201 0.1736 0.0
H932 H 0.56675 0.0033 0.17763 0.0
H933 H 0.56539 0.98504 0.17407 0.0
H934 H 0.53884 0.97175 0.15966 0.0
H935 H 0.52254 0.97103 0.18948 0.0
H936 H 0.01476 0.62532 0.08957 0.0
H937 H 0.01235 0.60333 0.10889 0.0
H938 H 0.96646 0.57667 0.08456 0.0
H939 H 0.96889 0.59858 0.06465 0.0
H940 H 0.99303 0.5886 0.14209 0.0
H941 H 0.98301 0.5484 0.07076 0.0
H942 H 0.99022 0.56844 0.06717 0.0
H943 H 0.97057 0.55596 0.07096 0.0
C944 C 0.00422 0.61474 0.08798 0.0
C945 C 0.99206 0.61369 0.07542 0.0
C946 C 1.00285 0.60217 0.09911 0.0
C947 C 0.9893 0.58829 0.09791 0.0
C948 C 0.97713 0.58717 0.08531 0.0
H949 H 0.96744 0.52101 0.19916 0.0
H950 H 0.96531 0.53684 0.17058 0.0
C951 C 0.9785 0.59974 0.07411 0.0
C952 C 0.9877 0.5754 0.11118 0.0
H953 H 0.98003 0.53858 0.10734 0.0
C954 C 0.99019 0.57767 0.13448 0.0
C955 C 0.98411 0.56118 0.10118 0.0
C956 C 0.98195 0.55833 0.07612 0.0
C957 C 0.98917 0.56614 0.14809 0.0
C958 C 0.98522 0.5518 0.13821 0.0
C959 C 0.98284 0.54952 0.11488 0.0
C960 C 0.9842 0.53939 0.15204 0.0
C961 C 0.99269 0.56956 0.17294 0.0
C962 C 0.99484 0.53471 0.15012 0.0
C963 C 0.99595 0.52549 0.16628 0.0
C964 C 0.98645 0.52092 0.18458 0.0
C965 C 0.97493 0.52447 0.18527 0.0
C966 C 0.97376 0.53356 0.16904 0.0
H967 H 0.99884 0.58197 0.17697 0.0
H968 H 0.98207 0.56441 0.18205 0.0
H969 H 0.99951 0.56467 0.17927 0.0
H970 H 1.00296 0.53905 0.13706 0.0
H971 H 0.00499 0.52301 0.16548 0.0
H972 H 0.42126 0.38297 0.03605 0.0
H973 H 0.43376 0.39889 0.06939 0.0
H974 H 0.39639 0.40613 0.07843 0.0
H975 H 0.38357 0.38984 0.04509 0.0
H976 H 0.44262 0.42892 0.07535 0.0
H977 H 0.4032 0.39493 0.14095 0.0
H978 H 0.40239 0.38724 0.11312 0.0
H979 H 0.39501 0.39969 0.11792 0.0
C980 C 0.41558 0.38778 0.04523 0.0
C981 C 0.4014 0.38513 0.03789 0.0
C982 C 0.42277 0.39692 0.06428 0.0
C983 C 0.41602 0.40368 0.07644 0.0
C984 C 0.40172 0.40084 0.06949 0.0
H985 H 0.47054 0.47737 0.17638 0.0
H986 H 0.45516 0.46361 0.14275 0.0
C987 C 0.39441 0.39154 0.05044 0.0
C988 C 0.42436 0.41409 0.09583 0.0
H989 H 0.42409 0.41841 0.15264 0.0
C990 C 0.43854 0.42669 0.09225 0.0
C991 C 0.41903 0.41111 0.11784 0.0
C992 C 0.40414 0.39745 0.12283 0.0
C993 C 0.44773 0.43614 0.11015 0.0
C994 C 0.44244 0.43309 0.13219 0.0
C995 C 0.42809 0.42075 0.1357 0.0
C996 C 0.45203 0.44176 0.15207 0.0
C997 C 0.46325 0.44886 0.10541 0.0
C998 C 0.45527 0.43404 0.16847 0.0
C999 C 0.46389 0.44182 0.18762 0.0
C1000 C 0.46948 0.45749 0.1908 0.0
C1001 C 0.4665 0.46532 0.1742 0.0
C1002 C 0.45773 0.45748 0.15503 0.0
H1003 H 0.46678 0.44753 0.08844 0.0
H1004 H 0.46338 0.45984 0.10631 0.0
H1005 H 0.47159 0.44942 0.11802 0.0
H1006 H 0.45107 0.42195 0.16649 0.0
H1007 H 0.46614 0.43553 0.20007 0.0
H1008 H 0.65043 0.72851 0.34291 0.0
H1009 H 0.64821 0.74221 0.37499 0.0
H1010 H 0.67396 0.72854 0.41618 0.0
H1011 H 0.67659 0.71494 0.38371 0.0
H1012 H 0.63528 0.73192 0.41435 0.0
H1013 H 0.69565 0.77416 0.42855 0.0
H1014 H 0.6885 0.76211 0.40353 0.0
H1015 H 0.69128 0.75472 0.42917 0.0
C1016 C 0.65568 0.72837 0.35873 0.0
C1017 C 0.66373 0.7206 0.36067 0.0
C1018 C 0.65438 0.73624 0.3771 0.0
C1019 C 0.66104 0.73656 0.39793 0.0
C1020 C 0.66897 0.7287 0.40013 0.0
H1021 H 0.63983 0.76421 0.52395 0.0
H1022 H 0.64058 0.75002 0.49102 0.0
C1023 C 0.67039 0.72086 0.3816 0.0
C1024 C 0.65937 0.745 0.4172 0.0
H1025 H 0.67901 0.77442 0.45509 0.0
C1026 C 0.64485 0.74121 0.42327 0.0
C1027 C 0.67185 0.75729 0.42856 0.0
C1028 C 0.6877 0.76244 0.42204 0.0
C1029 C 0.64245 0.74933 0.44042 0.0
C1030 C 0.65493 0.76134 0.4522 0.0
C1031 C 0.66945 0.76518 0.44607 0.0
C1032 C 0.65323 0.76988 0.4713 0.0
C1033 C 0.62658 0.74515 0.44539 0.0
C1034 C 0.66005 0.78578 0.47119 0.0
C1035 C 0.6598 0.79397 0.49015 0.0
C1036 C 0.65281 0.78638 0.50962 0.0
C1037 C 0.6454 0.7704 0.50927 0.0
C1038 C 0.64571 0.76225 0.49038 0.0
H1039 H 0.61883 0.73921 0.43076 0.0
H1040 H 0.6227 0.73734 0.45958 0.0
H1041 H 0.62583 0.75536 0.4501 0.0
H1042 H 0.66594 0.7919 0.45665 0.0
H1043 H 0.66576 0.80626 0.48998 0.0
H1044 H 0.2961 0.92871 0.39447 0.0
H1045 H 0.27976 0.90635 0.41571 0.0
H1046 H 0.25816 0.92977 0.44306 0.0
H1047 H 0.27468 0.95226 0.4224 0.0
H1048 H 0.26776 0.91744 0.47508 0.0
H1049 H 0.23531 0.87453 0.40707 0.0
H1050 H 0.25531 0.88391 0.40494 0.0
H1051 H 0.24589 0.89466 0.40229 0.0
C1052 C 0.28776 0.92905 0.40482 0.0
C1053 C 0.28666 0.94227 0.4067 0.0
C1054 C 0.27835 0.91621 0.41681 0.0
C1055 C 0.26761 0.91633 0.43071 0.0
C1056 C 0.26632 0.92941 0.43229 0.0
H1057 H 0.19471 0.85235 0.50479 0.0
H1058 H 0.21077 0.86645 0.47426 0.0
C1059 C 0.27575 0.94226 0.42041 0.0
C1060 C 0.25852 0.90337 0.44508 0.0
H1061 H 0.23168 0.86578 0.44424 0.0
C1062 C 0.25991 0.90613 0.46835 0.0
C1063 C 0.24827 0.88866 0.43618 0.0
C1064 C 0.24596 0.88522 0.41125 0.0
C1065 C 0.25117 0.89467 0.48302 0.0
C1066 C 0.24101 0.87989 0.47421 0.0
C1067 C 0.23968 0.87705 0.45092 0.0
C1068 C 0.23075 0.86782 0.48902 0.0
C1069 C 0.25248 0.89867 0.5078 0.0
C1070 C 0.23645 0.86301 0.5066 0.0
C1071 C 0.22732 0.85502 0.52414 0.0
C1072 C 0.21231 0.85158 0.52413 0.0
C1073 C 0.20621 0.85479 0.50517 0.0
C1074 C 0.21539 0.8629 0.48775 0.0
H1075 H 0.25843 0.91116 0.51118 0.0
H1076 H 0.24124 0.89363 0.51514 0.0
H1077 H 0.25887 0.89407 0.51653 0.0
H1078 H 0.24823 0.86646 0.50762 0.0
H1079 H 0.23224 0.85255 0.53849 0.0
H1080 H 0.04295 0.31167 0.37252 0.0
H1081 H 0.05538 0.30868 0.40588 0.0
H1082 H 0.09221 0.35436 0.3998 0.0
H1083 H 0.08011 0.3573 0.36634 0.0
H1084 H 0.10183 0.33421 0.4056 0.0
H1085 H 0.05999 0.32623 0.46903 0.0
H1086 H 0.05271 0.31308 0.44536 0.0
H1087 H 0.05958 0.33294 0.44142 0.0
C1088 C 0.05359 0.32114 0.3785 0.0
C1089 C 0.06054 0.33472 0.36676 0.0
C1090 C 0.06068 0.31942 0.39758 0.0
C1091 C 0.0747 0.33133 0.40541 0.0
C1092 C 0.08143 0.34499 0.39401 0.0
H1093 H 0.12095 0.35088 0.53189 0.0
H1094 H 0.10669 0.34869 0.49755 0.0
C1095 C 0.07446 0.34667 0.37491 0.0
C1096 C 0.08273 0.32961 0.42503 0.0
H1097 H 0.08085 0.3244 0.48144 0.0
C1098 C 0.09722 0.33198 0.42219 0.0
C1099 C 0.0767 0.32676 0.44664 0.0
C1100 C 0.06145 0.32473 0.45094 0.0
C1101 C 0.10604 0.33203 0.44045 0.0
C1102 C 0.10005 0.32926 0.46208 0.0
C1103 C 0.08539 0.32644 0.46481 0.0
C1104 C 0.10919 0.3306 0.48243 0.0
C1105 C 0.12191 0.33572 0.43657 0.0
C1106 C 0.1155 0.32125 0.48529 0.0
C1107 C 0.12383 0.3226 0.50493 0.0
C1108 C 0.12572 0.33313 0.52209 0.0
C1109 C 0.11952 0.34254 0.51902 0.0
C1110 C 0.11136 0.3413 0.49943 0.0
H1111 H 0.12583 0.34084 0.42003 0.0
H1112 H 0.1297 0.34369 0.44989 0.0
H1113 H 0.12247 0.32511 0.43698 0.0
H1114 H 0.11377 0.31275 0.47254 0.0
H1115 H 0.12841 0.31515 0.507 0.0
H1116 H 0.0454 0.29293 0.28179 0.0
H1117 H 0.06428 0.29016 0.26137 0.0
H1118 H 0.08621 0.33758 0.24569 0.0
H1119 H 0.06725 0.34038 0.26556 0.0
H1120 H 0.07979 0.31843 0.2088 0.0
H1121 H 0.10859 0.30463 0.27612 0.0
H1122 H 0.08852 0.29302 0.27485 0.0
H1123 H 0.09706 0.31294 0.2819 0.0
C1124 C 0.05434 0.30281 0.2742 0.0
C1125 C 0.05484 0.31689 0.27531 0.0
C1126 C 0.06519 0.30123 0.26272 0.0
C1127 C 0.07675 0.31372 0.25231 0.0
C1128 C 0.07743 0.32783 0.25378 0.0
H1129 H 0.15487 0.3311 0.18227 0.0
H1130 H 0.13748 0.32729 0.21209 0.0
C1131 C 0.06659 0.32942 0.26518 0.0
C1132 C 0.08734 0.31184 0.23811 0.0
H1133 H 0.115 0.30265 0.23863 0.0
C1134 C 0.08747 0.31497 0.21532 0.0
C1135 C 0.09737 0.30737 0.24674 0.0
C1136 C 0.09803 0.30441 0.27128 0.0
C1137 C 0.09741 0.31385 0.20088 0.0
C1138 C 0.10729 0.30913 0.20937 0.0
C1139 C 0.10722 0.30601 0.23217 0.0
C1140 C 0.11838 0.30848 0.19478 0.0
C1141 C 0.09755 0.31815 0.17676 0.0
C1142 C 0.11355 0.29852 0.17593 0.0
C1143 C 0.12343 0.30073 0.15886 0.0
C1144 C 0.13828 0.31282 0.16058 0.0
C1145 C 0.1435 0.32165 0.18061 0.0
C1146 C 0.13357 0.31952 0.19761 0.0
H1147 H 0.09152 0.32452 0.17418 0.0
H1148 H 0.10921 0.32521 0.17121 0.0
H1149 H 0.09195 0.30768 0.16588 0.0
H1150 H 0.10189 0.28981 0.17364 0.0
H1151 H 0.11919 0.29371 0.14362 0.0
H1152 H 0.71342 0.74576 0.29252 0.0
H1153 H 0.71792 0.76819 0.27197 0.0
H1154 H 0.67409 0.74253 0.23974 0.0
H1155 H 0.66972 0.72002 0.25957 0.0
H1156 H 0.69585 0.75796 0.21027 0.0
H1157 H 0.70087 0.79639 0.28153 0.0
H1158 H 0.71321 0.78875 0.28352 0.0
H1159 H 0.69332 0.77624 0.28443 0.0
C1160 C 0.70472 0.74491 0.28112 0.0
C1161 C 0.69115 0.73112 0.27783 0.0
C1162 C 0.70726 0.75779 0.26955 0.0
C1163 C 0.69624 0.75711 0.25464 0.0
C1164 C 0.68271 0.74334 0.25133 0.0
H1165 H 0.68006 0.8202 0.18544 0.0
H1166 H 0.68338 0.80554 0.21481 0.0
C1167 C 0.68019 0.73048 0.26276 0.0
C1168 C 0.69897 0.77039 0.2414 0.0
H1169 H 0.70542 0.80678 0.2454 0.0
C1170 C 0.69802 0.76866 0.21795 0.0
C1171 C 0.70169 0.78429 0.2515 0.0
C1172 C 0.70221 0.78656 0.27662 0.0
C1173 C 0.69944 0.78031 0.20428 0.0
C1174 C 0.70235 0.79431 0.21432 0.0
C1175 C 0.70345 0.79613 0.23778 0.0
C1176 C 0.70295 0.80654 0.2005 0.0
C1177 C 0.69718 0.77726 0.17921 0.0
C1178 C 0.71347 0.81283 0.18366 0.0
C1179 C 0.7115 0.82107 0.16681 0.0
C1180 C 0.69918 0.82338 0.16686 0.0
C1181 C 0.68972 0.81867 0.18518 0.0
C1182 C 0.69158 0.81024 0.20189 0.0
H1183 H 0.69172 0.76494 0.17474 0.0
H1184 H 0.6902 0.78173 0.17199 0.0
H1185 H 0.70822 0.78303 0.17126 0.0
H1186 H 0.7225 0.81034 0.18257 0.0
H1187 H 0.71892 0.8246 0.15281 0.0
H1188 H 0.29236 0.96289 0.30084 0.0
H1189 H 0.27812 0.95054 0.26584 0.0
H1190 H 0.23677 0.93528 0.29997 0.0
H1191 H 0.25073 0.94778 0.33455 0.0
H1192 H 0.25858 0.92102 0.25634 0.0
H1193 H 0.22923 0.95352 0.24569 0.0
H1194 H 0.24483 0.95948 0.26536 0.0
H1195 H 0.22622 0.94533 0.27275 0.0
C1196 C 0.28023 0.95702 0.30081 0.0
C1197 C 0.27272 0.95645 0.3205 0.0
C1198 C 0.27211 0.94998 0.28081 0.0
C1199 C 0.25637 0.94227 0.28016 0.0
C1200 C 0.24889 0.94155 0.29984 0.0
H1201 H 0.19714 0.86974 0.18664 0.0
H1202 H 0.21143 0.8854 0.21948 0.0
C1203 C 0.25695 0.94865 0.3197 0.0
C1204 C 0.24762 0.93422 0.25934 0.0
H1205 H 0.21869 0.92969 0.22496 0.0
C1206 C 0.24997 0.92303 0.24933 0.0
C1207 C 0.23652 0.93699 0.24997 0.0
C1208 C 0.23416 0.9496 0.25887 0.0
C1209 C 0.24121 0.91418 0.2307 0.0
C1210 C 0.22947 0.91628 0.22223 0.0
C1211 C 0.22747 0.92785 0.23174 0.0
C1212 C 0.21938 0.90681 0.20322 0.0
C1213 C 0.24476 0.90279 0.22012 0.0
C1214 C 0.21826 0.91367 0.18367 0.0
C1215 C 0.20976 0.90475 0.16504 0.0
C1216 C 0.20227 0.88878 0.16554 0.0
C1217 C 0.2027 0.88198 0.18564 0.0
C1218 C 0.21109 0.89092 0.20433 0.0
H1219 H 0.25648 0.90572 0.22414 0.0
H1220 H 0.23723 0.8914 0.22676 0.0
H1221 H 0.24307 0.90209 0.20161 0.0
H1222 H 0.22437 0.92592 0.18254 0.0
H1223 H 0.20943 0.91037 0.14999 0.0
H1224 H 0.69971 0.95922 0.31122 0.0
H1225 H 0.69625 0.94176 0.28015 0.0
H1226 H 0.65422 0.93867 0.26146 0.0
H1227 H 0.65755 0.95626 0.29272 0.0
H1228 H 0.67093 0.91127 0.27494 0.0
H1229 H 0.67721 0.9469 0.2018 0.0
H1230 H 0.68411 0.955 0.22966 0.0
H1231 H 0.66442 0.94575 0.22278 0.0
C1232 C 0.68978 0.95502 0.30041 0.0
C1233 C 0.67888 0.95916 0.30458 0.0
C1234 C 0.68782 0.94499 0.28266 0.0
C1235 C 0.675 0.93893 0.26851 0.0
C1236 C 0.66428 0.94335 0.27208 0.0
H1237 H 0.65201 0.8781 0.15077 0.0
H1238 H 0.65074 0.89316 0.18225 0.0
C1239 C 0.66621 0.95341 0.28995 0.0
C1240 C 0.67269 0.92747 0.25076 0.0
H1241 H 0.6719 0.92188 0.19407 0.0
C1242 C 0.67107 0.91354 0.25724 0.0
C1243 C 0.6728 0.93044 0.22773 0.0
C1244 C 0.67482 0.94535 0.21993 0.0
C1245 C 0.66964 0.90251 0.24127 0.0
C1246 C 0.67019 0.90565 0.21821 0.0
C1247 C 0.67149 0.91947 0.21174 0.0
C1248 C 0.66997 0.89505 0.20047 0.0
C1249 C 0.66741 0.88757 0.2493 0.0
C1250 C 0.68104 0.89084 0.2004 0.0
C1251 C 0.68172 0.88213 0.18249 0.0
C1252 C 0.67148 0.87766 0.16415 0.0
C1253 C 0.66011 0.88145 0.16462 0.0
C1254 C 0.65938 0.89007 0.18258 0.0
H1255 H 0.66252 0.88507 0.26617 0.0
H1256 H 0.65997 0.87804 0.23748 0.0
H1257 H 0.67842 0.88813 0.25057 0.0
H1258 H 0.68955 0.89482 0.21374 0.0
H1259 H 0.69074 0.87959 0.18242 0.0
H1260 H 0.057 0.74146 0.29998 0.0
H1261 H 0.07769 0.76307 0.28221 0.0
H1262 H 0.09127 0.73305 0.25239 0.0
H1263 H 0.071 0.71156 0.27073 0.0
H1264 H 0.11521 0.75926 0.26774 0.0
H1265 H 0.07702 0.77164 0.21696 0.0
H1266 H 0.07516 0.77255 0.24668 0.0
H1267 H 0.07026 0.7547 0.23288 0.0
C1268 C 0.06442 0.7395 0.28965 0.0
C1269 C 0.06232 0.72481 0.28656 0.0
C1270 C 0.0762 0.75184 0.27945 0.0
C1271 C 0.08586 0.74963 0.26562 0.0
C1272 C 0.08395 0.73502 0.26297 0.0
H1273 H 0.14439 0.78914 0.16061 0.0
H1274 H 0.1317 0.77494 0.19358 0.0
C1275 C 0.07233 0.72274 0.2734 0.0
C1276 C 0.09764 0.76233 0.2532 0.0
H1277 H 0.10283 0.7874 0.21239 0.0
C1278 C 0.11252 0.76551 0.25578 0.0
C1279 C 0.09413 0.77049 0.23759 0.0
C1280 C 0.07827 0.76712 0.23316 0.0
C1281 C 0.12389 0.77632 0.24271 0.0
C1282 C 0.12026 0.78413 0.22676 0.0
C1283 C 0.10556 0.78145 0.22484 0.0
C1284 C 0.13094 0.79372 0.20992 0.0
C1285 C 0.13962 0.7791 0.24568 0.0
C1286 C 0.13506 0.80908 0.20854 0.0
C1287 C 0.14243 0.81723 0.1898 0.0
C1288 C 0.14549 0.81001 0.17207 0.0
C1289 C 0.14219 0.79493 0.17415 0.0
C1290 C 0.13501 0.78685 0.19298 0.0
H1291 H 0.14142 0.77528 0.26217 0.0
H1292 H 0.14166 0.77267 0.23232 0.0
H1293 H 0.14795 0.79135 0.2442 0.0
H1294 H 0.13186 0.81449 0.22137 0.0
H1295 H 0.14471 0.82879 0.18841 0.0
H1296 H 0.30246 0.35754 0.30968 0.0
H1297 H 0.29033 0.36122 0.27649 0.0
H1298 H 0.24802 0.32316 0.29408 0.0
H1299 H 0.25987 0.31938 0.32707 0.0
H1300 H 0.27301 0.3397 0.24007 0.0
H1301 H 0.23944 0.35871 0.28796 0.0
H1302 H 0.25557 0.35861 0.30011 0.0
H1303 H 0.23787 0.34126 0.29709 0.0
C1304 C 0.29059 0.3499 0.30642 0.0
C1305 C 0.28214 0.33823 0.32119 0.0
C1306 C 0.28369 0.35205 0.28748 0.0
C1307 C 0.26824 0.34266 0.28315 0.0
C1308 C 0.2599 0.33074 0.29742 0.0
H1309 H 0.20011 0.32655 0.18416 0.0
H1310 H 0.21485 0.3286 0.2181 0.0
C1311 C 0.26674 0.32855 0.31623 0.0
C1312 C 0.26069 0.34508 0.2636 0.0
H1313 H 0.23262 0.35219 0.24924 0.0
C1314 C 0.26432 0.34263 0.242 0.0
C1315 C 0.24933 0.34885 0.26626 0.0
C1316 C 0.24538 0.35215 0.2891 0.0
C1317 C 0.25644 0.34324 0.22295 0.0
C1318 C 0.24486 0.34673 0.22562 0.0
C1319 C 0.24149 0.34952 0.24723 0.0
C1320 C 0.2357 0.34682 0.20623 0.0
C1321 C 0.26016 0.3395 0.20021 0.0
C1322 C 0.24239 0.35682 0.18876 0.0
C1323 C 0.234 0.35568 0.16939 0.0
C1324 C 0.21873 0.3446 0.16725 0.0
C1325 C 0.21183 0.33526 0.18539 0.0
C1326 C 0.22026 0.33637 0.20472 0.0
H1327 H 0.26676 0.33363 0.20156 0.0
H1328 H 0.2498 0.33217 0.18991 0.0
H1329 H 0.26692 0.35017 0.19126 0.0
H1330 H 0.25421 0.36523 0.18983 0.0
H1331 H 0.23956 0.36316 0.15579 0.0
H1332 H 0.27688 0.33256 0.42237 0.0
H1333 H 0.25813 0.33545 0.44266 0.0
H1334 H 0.28013 0.38289 0.42707 0.0
H1335 H 0.2988 0.38001 0.40618 0.0
H1336 H 0.26463 0.35449 0.47962 0.0
H1337 H 0.2358 0.36854 0.41263 0.0
H1338 H 0.24731 0.36022 0.40668 0.0
H1339 H 0.25587 0.38011 0.41395 0.0
C1340 C 0.27761 0.34355 0.42287 0.0
C1341 C 0.28931 0.35604 0.41256 0.0
C1342 C 0.26689 0.34519 0.43452 0.0
C1343 C 0.26764 0.35933 0.43612 0.0
C1344 C 0.27917 0.3718 0.42563 0.0
H1345 H 0.22453 0.37814 0.54532 0.0
H1346 H 0.24208 0.38232 0.51557 0.0
C1347 C 0.2899 0.37016 0.41388 0.0
C1348 C 0.25707 0.36119 0.45044 0.0
H1349 H 0.22922 0.3701 0.45012 0.0
C1350 C 0.25691 0.35794 0.47318 0.0
C1351 C 0.24698 0.36561 0.44191 0.0
C1352 C 0.24634 0.36871 0.41742 0.0
C1353 C 0.24687 0.35885 0.48765 0.0
C1354 C 0.23691 0.3635 0.47926 0.0
C1355 C 0.23704 0.36678 0.45651 0.0
C1356 C 0.22572 0.36395 0.49387 0.0
C1357 C 0.24669 0.35436 0.51168 0.0
C1358 C 0.21052 0.35301 0.49066 0.0
C1359 C 0.20044 0.35074 0.5075 0.0
C1360 C 0.20551 0.35934 0.52773 0.0
C1361 C 0.2204 0.37132 0.52989 0.0
C1362 C 0.23042 0.37367 0.51298 0.0
H1363 H 0.25272 0.34798 0.51408 0.0
H1364 H 0.25227 0.36475 0.52272 0.0
H1365 H 0.23502 0.34724 0.51716 0.0
H1366 H 0.20669 0.34542 0.47598 0.0
H1367 H 0.18903 0.34138 0.50552 0.0
H1368 H 0.68644 0.9628 0.40698 0.0
H1369 H 0.686 0.94215 0.42778 0.0
H1370 H 0.63977 0.91267 0.40688 0.0
H1371 H 0.64019 0.9332 0.38562 0.0
H1372 H 0.66786 0.92831 0.46275 0.0
H1373 H 0.65802 0.88561 0.39546 0.0
H1374 H 0.66427 0.90526 0.38988 0.0
H1375 H 0.64483 0.89225 0.39456 0.0
C1376 C 0.67625 0.95186 0.40645 0.0
C1377 C 0.66337 0.94963 0.39454 0.0
C1378 C 0.67602 0.94007 0.41839 0.0
C1379 C 0.66293 0.9258 0.4186 0.0
C1380 C 0.6501 0.92348 0.40653 0.0
H1381 H 0.6345 0.85994 0.52018 0.0
H1382 H 0.63673 0.87694 0.49023 0.0
C1383 C 0.65032 0.93527 0.39455 0.0
C1384 C 0.66234 0.91385 0.43309 0.0
H1385 H 0.65449 0.87696 0.43311 0.0
C1386 C 0.66508 0.91714 0.45622 0.0
C1387 C 0.65882 0.89932 0.42452 0.0
C1388 C 0.65646 0.8954 0.39972 0.0
C1389 C 0.66396 0.90616 0.47109 0.0
C1390 C 0.65983 0.89145 0.46265 0.0
C1391 C 0.65753 0.88823 0.43948 0.0
C1392 C 0.65734 0.87925 0.47804 0.0
C1393 C 0.66704 0.9103 0.49581 0.0
C1394 C 0.66789 0.87446 0.48043 0.0
C1395 C 0.66665 0.86472 0.49758 0.0
C1396 C 0.65485 0.85972 0.51252 0.0
C1397 C 0.6438 0.86378 0.50906 0.0
C1398 C 0.64504 0.87345 0.49197 0.0
H1399 H 0.67302 0.9228 0.49906 0.0
H1400 H 0.65626 0.90526 0.5045 0.0
H1401 H 0.67383 0.90568 0.50324 0.0
H1402 H 0.67747 0.87886 0.46978 0.0
H1403 H 0.67534 0.86182 0.49996 0.0
H1404 H 0.08851 0.71797 0.37408 0.0
H1405 H 0.1006 0.73617 0.40541 0.0
H1406 H 0.05972 0.73678 0.41622 0.0
H1407 H 0.04738 0.71842 0.38482 0.0
H1408 H 0.104 0.76565 0.40748 0.0
H1409 H 0.07291 0.73118 0.47954 0.0
H1410 H 0.0728 0.72268 0.45263 0.0
H1411 H 0.06169 0.73156 0.4564 0.0
C1412 C 0.08196 0.72177 0.38326 0.0
C1413 C 0.06694 0.71671 0.37685 0.0
C1414 C 0.08894 0.73222 0.40115 0.0
C1415 C 0.08106 0.7378 0.41315 0.0
C1416 C 0.06595 0.73247 0.40734 0.0
H1417 H 0.11191 0.80182 0.52828 0.0
H1418 H 0.0973 0.78608 0.49554 0.0
C1419 C 0.05892 0.72197 0.38938 0.0
C1420 C 0.08903 0.74977 0.43096 0.0
H1421 H 0.09102 0.75682 0.48743 0.0
C1422 C 0.10114 0.76376 0.42497 0.0
C1423 C 0.08519 0.74729 0.4537 0.0
C1424 C 0.07252 0.73235 0.4611 0.0
C1425 C 0.10963 0.77531 0.44115 0.0
C1426 C 0.10607 0.77268 0.46399 0.0
C1427 C 0.09372 0.75882 0.46991 0.0
C1428 C 0.11544 0.78378 0.48218 0.0
C1429 C 0.12226 0.79023 0.43361 0.0
C1430 C 0.13057 0.78797 0.4853 0.0
C1431 C 0.13894 0.79698 0.50396 0.0
C1432 C 0.13229 0.80184 0.51998 0.0
C1433 C 0.11731 0.79816 0.51631 0.0
C1434 C 0.10896 0.78917 0.49762 0.0
H1435 H 0.12058 0.79215 0.41579 0.0
H1436 H 0.12338 0.79991 0.4441 0.0
H1437 H 0.13293 0.79008 0.43513 0.0
H1438 H 0.13572 0.78368 0.47388 0.0
H1439 H 0.15036 0.7994 0.5065 0.0
H1440 H 0.31534 0.05611 0.68556 0.0
H1441 H 0.31676 0.07185 0.71782 0.0
H1442 H 0.35883 0.07597 0.73933 0.0
H1443 H 0.35737 0.05987 0.70708 0.0
H1444 H 0.34033 0.0709 0.77414 0.0
H1445 H 0.34346 0.11751 0.72409 0.0
H1446 H 0.32743 0.09956 0.71594 0.0
H1447 H 0.34597 0.10254 0.71205 0.0
C1448 C 0.32491 0.06032 0.69713 0.0
C1449 C 0.33632 0.05683 0.6936 0.0
C1450 C 0.32576 0.06944 0.71549 0.0
C1451 C 0.33811 0.07547 0.73062 0.0
C1452 C 0.34928 0.07159 0.72768 0.0
H1453 H 0.35085 0.14517 0.83249 0.0
H1454 H 0.35428 0.13233 0.79968 0.0
C1455 C 0.34841 0.06234 0.7093 0.0
C1456 C 0.33905 0.08553 0.74969 0.0
H1457 H 0.33666 0.11712 0.76249 0.0
C1458 C 0.33972 0.08111 0.7716 0.0
C1459 C 0.33857 0.09904 0.7464 0.0
C1460 C 0.33899 0.10504 0.72334 0.0
C1461 C 0.33915 0.0894 0.79027 0.0
C1462 C 0.33751 0.10225 0.7869 0.0
C1463 C 0.33764 0.10712 0.76505 0.0
C1464 C 0.33505 0.11036 0.80581 0.0
C1465 C 0.34026 0.08426 0.81342 0.0
C1466 C 0.32279 0.10242 0.81952 0.0
C1467 C 0.32085 0.10968 0.83813 0.0
C1468 C 0.33102 0.1251 0.84326 0.0
C1469 C 0.34284 0.13329 0.82884 0.0
C1470 C 0.34484 0.12595 0.81023 0.0
H1471 H 0.34618 0.07765 0.81332 0.0
H1472 H 0.34625 0.09408 0.82548 0.0
H1473 H 0.32882 0.07677 0.81945 0.0
H1474 H 0.31482 0.09051 0.81601 0.0
H1475 H 0.31153 0.10317 0.84881 0.0
H1476 H 0.96223 0.26407 0.72678 0.0
H1477 H 0.94538 0.24143 0.74714 0.0
H1478 H 0.92232 0.26404 0.77182 0.0
H1479 H 0.93925 0.28678 0.75191 0.0
H1480 H 0.93182 0.25183 0.80506 0.0
H1481 H 0.90088 0.20917 0.73604 0.0
H1482 H 0.92095 0.21906 0.73465 0.0
H1483 H 0.91111 0.22937 0.73166 0.0
C1484 C 0.95346 0.26417 0.73634 0.0
C1485 C 0.95207 0.27723 0.73771 0.0
C1486 C 0.94377 0.25117 0.74781 0.0
C1487 C 0.93249 0.251 0.76074 0.0
C1488 C 0.9309 0.26392 0.76179 0.0
H1489 H 0.85938 0.18572 0.83436 0.0
H1490 H 0.87519 0.20045 0.80394 0.0
C1491 C 0.94058 0.2769 0.75036 0.0
C1492 C 0.92316 0.23793 0.7748 0.0
H1493 H 0.89666 0.2002 0.77312 0.0
C1494 C 0.92417 0.24053 0.79808 0.0
C1495 C 0.91316 0.22324 0.76559 0.0
C1496 C 0.91131 0.21999 0.7406 0.0
C1497 C 0.91535 0.22889 0.81247 0.0
C1498 C 0.90546 0.21413 0.80335 0.0
C1499 C 0.90444 0.21147 0.78004 0.0
C1500 C 0.89534 0.2018 0.81793 0.0
C1501 C 0.91636 0.23264 0.8373 0.0
C1502 C 0.90125 0.19685 0.83502 0.0
C1503 C 0.89225 0.18848 0.85246 0.0
C1504 C 0.8772 0.18484 0.85289 0.0
C1505 C 0.87092 0.1883 0.83439 0.0
C1506 C 0.87995 0.19676 0.81704 0.0
H1507 H 0.92215 0.24509 0.84094 0.0
H1508 H 0.90503 0.22738 0.84437 0.0
H1509 H 0.92276 0.22806 0.84607 0.0
H1510 H 0.91307 0.20044 0.83578 0.0
H1511 H 0.89732 0.18584 0.86644 0.0
H1512 H 0.72056 0.66127 0.71025 0.0
H1513 H 0.73525 0.66315 0.74423 0.0
H1514 H 0.76888 0.70854 0.72767 0.0
H1515 H 0.75456 0.70659 0.69358 0.0
H1516 H 0.78128 0.69177 0.73724 0.0
H1517 H 0.74196 0.68569 0.80356 0.0
H1518 H 0.73405 0.67029 0.78307 0.0
H1519 H 0.73914 0.68915 0.77483 0.0
C1520 C 0.73097 0.67173 0.71408 0.0
C1521 C 0.73643 0.68375 0.6992 0.0
C1522 C 0.73933 0.67281 0.73353 0.0
C1523 C 0.75313 0.68604 0.7386 0.0
C1524 C 0.7583 0.69821 0.7241 0.0
H1525 H 0.80291 0.70517 0.86592 0.0
H1526 H 0.78971 0.70668 0.83235 0.0
C1527 C 0.75008 0.69707 0.70461 0.0
C1528 C 0.76272 0.68698 0.75814 0.0
H1529 H 0.76343 0.68421 0.81499 0.0
C1530 C 0.7774 0.6902 0.75427 0.0
C1531 C 0.75773 0.68513 0.78037 0.0
C1532 C 0.74241 0.68253 0.78579 0.0
C1533 C 0.78716 0.69145 0.77194 0.0
C1534 C 0.78198 0.68901 0.79407 0.0
C1535 C 0.76737 0.68599 0.798 0.0
C1536 C 0.79139 0.68926 0.81338 0.0
C1537 C 0.803 0.69562 0.76674 0.0
C1538 C 0.79697 0.67918 0.81371 0.0
C1539 C 0.80464 0.67843 0.83275 0.0
C1540 C 0.80667 0.68758 0.85195 0.0
C1541 C 0.80149 0.69799 0.85135 0.0
C1542 C 0.79392 0.69882 0.83224 0.0
H1543 H 0.80651 0.70168 0.75075 0.0
H1544 H 0.81103 0.70292 0.78037 0.0
H1545 H 0.80366 0.6851 0.76493 0.0
H1546 H 0.79485 0.67144 0.79958 0.0
H1547 H 0.80825 0.6701 0.83289 0.0
H1548 H 0.71527 0.6321 0.62109 0.0
H1549 H 0.73224 0.62683 0.59961 0.0
H1550 H 0.75424 0.67262 0.57623 0.0
H1551 H 0.73715 0.67785 0.59705 0.0
H1552 H 0.74517 0.65085 0.54236 0.0
H1553 H 0.77686 0.64061 0.60958 0.0
H1554 H 0.75679 0.62963 0.61066 0.0
H1555 H 0.76615 0.64989 0.61504 0.0
C1556 C 0.72383 0.64109 0.61156 0.0
C1557 C 0.72489 0.65542 0.61083 0.0
C1558 C 0.73359 0.63809 0.59945 0.0
C1559 C 0.74461 0.64939 0.58657 0.0
C1560 C 0.74586 0.66377 0.58618 0.0
H1561 H 0.82032 0.66462 0.51471 0.0
H1562 H 0.80308 0.66039 0.54484 0.0
C1563 C 0.73609 0.66675 0.59817 0.0
C1564 C 0.75411 0.64604 0.57195 0.0
H1565 H 0.78194 0.63712 0.57208 0.0
C1566 C 0.75314 0.64775 0.54883 0.0
C1567 C 0.76451 0.64205 0.58052 0.0
C1568 C 0.76629 0.64053 0.60532 0.0
C1569 C 0.76255 0.64597 0.53404 0.0
C1570 C 0.77296 0.64194 0.54253 0.0
C1571 C 0.77378 0.63996 0.56563 0.0
C1572 C 0.78404 0.64138 0.52774 0.0
C1573 C 0.76172 0.64914 0.50957 0.0
C1574 C 0.77928 0.63139 0.50891 0.0
C1575 C 0.78907 0.63387 0.49158 0.0
C1576 C 0.80381 0.64621 0.49309 0.0
C1577 C 0.80904 0.65498 0.51318 0.0
C1578 C 0.79918 0.6526 0.53038 0.0
H1579 H 0.75535 0.65515 0.50674 0.0
H1580 H 0.77311 0.65615 0.50301 0.0
H1581 H 0.75598 0.63824 0.4997 0.0
H1582 H 0.76768 0.62247 0.50679 0.0
H1583 H 0.78483 0.6269 0.4763 0.0
H1584 H 0.33702 0.05579 0.5903 0.0
H1585 H 0.34129 0.07839 0.57067 0.0
H1586 H 0.3857 0.1037 0.60106 0.0
H1587 H 0.38146 0.08115 0.6211 0.0
H1588 H 0.369 0.11961 0.60082 0.0
H1589 H 0.36948 0.09498 0.51728 0.0
H1590 H 0.35325 0.08308 0.53296 0.0
H1591 H 0.37144 0.08712 0.54314 0.0
C1592 C 0.34766 0.06617 0.59297 0.0
C1593 C 0.35891 0.06665 0.60723 0.0
C1594 C 0.35011 0.07906 0.58165 0.0
C1595 C 0.36386 0.09265 0.58425 0.0
C1596 C 0.37502 0.0933 0.59881 0.0
H1597 H 0.38336 0.16012 0.48425 0.0
H1598 H 0.3881 0.14624 0.51329 0.0
C1599 C 0.37259 0.08038 0.61014 0.0
C1600 C 0.36665 0.10601 0.57124 0.0
H1601 H 0.36756 0.11732 0.51766 0.0
C1602 C 0.36886 0.11922 0.58264 0.0
C1603 C 0.36674 0.10556 0.54757 0.0
C1604 C 0.36525 0.09199 0.53448 0.0
C1605 C 0.3705 0.13179 0.57086 0.0
C1606 C 0.36974 0.13098 0.54714 0.0
C1607 C 0.36814 0.11797 0.53585 0.0
C1608 C 0.36951 0.14287 0.53338 0.0
C1609 C 0.37297 0.14574 0.58392 0.0
C1610 C 0.35798 0.14631 0.53564 0.0
C1611 C 0.35542 0.15445 0.51921 0.0
C1612 C 0.36419 0.15904 0.50014 0.0
C1613 C 0.37649 0.15674 0.49887 0.0
C1614 C 0.37915 0.14875 0.51539 0.0
H1615 H 0.37828 0.14665 0.60069 0.0
H1616 H 0.38012 0.15625 0.57479 0.0
H1617 H 0.36199 0.14496 0.58653 0.0
H1618 H 0.35019 0.14165 0.54907 0.0
H1619 H 0.34572 0.15587 0.52037 0.0
H1620 H 0.96024 0.28785 0.6383 0.0
H1621 H 0.94713 0.27233 0.60451 0.0
H1622 H 0.90766 0.27434 0.62103 0.0
H1623 H 0.92059 0.28984 0.6546 0.0
H1624 H 0.91978 0.24348 0.60551 0.0
H1625 H 0.91302 0.28467 0.55398 0.0
H1626 H 0.92673 0.29054 0.57685 0.0
H1627 H 0.90739 0.28371 0.58248 0.0
C1628 C 0.94887 0.28523 0.63452 0.0
C1629 C 0.94147 0.29007 0.6492 0.0
C1630 C 0.94138 0.27632 0.61526 0.0
C1631 C 0.92647 0.2723 0.61021 0.0
C1632 C 0.91923 0.2775 0.62444 0.0
H1633 H 0.85892 0.21477 0.50817 0.0
H1634 H 0.87226 0.23116 0.54122 0.0
C1635 C 0.92664 0.2863 0.64371 0.0
C1636 C 0.91806 0.26177 0.59101 0.0
H1637 H 0.89907 0.25872 0.54187 0.0
C1638 C 0.91534 0.24682 0.59149 0.0
C1639 C 0.91213 0.26614 0.57294 0.0
C1640 C 0.91504 0.28217 0.57133 0.0
C1641 C 0.90666 0.23602 0.57452 0.0
C1642 C 0.90081 0.2404 0.55633 0.0
C1643 C 0.90351 0.25537 0.55587 0.0
C1644 C 0.89237 0.22981 0.53717 0.0
C1645 C 0.90355 0.21994 0.57648 0.0
C1646 C 0.89923 0.22361 0.52401 0.0
C1647 C 0.89162 0.2142 0.50534 0.0
C1648 C 0.87703 0.21091 0.49922 0.0
C1649 C 0.87008 0.21696 0.51258 0.0
C1650 C 0.87772 0.22641 0.53135 0.0
H1651 H 0.90489 0.21738 0.59411 0.0
H1652 H 0.89205 0.2116 0.57014 0.0
H1653 H 0.91163 0.2184 0.56636 0.0
H1654 H 0.91061 0.22629 0.52792 0.0
H1655 H 0.89724 0.2096 0.49551 0.0
H1656 H 0.36449 0.29056 0.6553 0.0
H1657 H 0.36122 0.27373 0.62351 0.0
H1658 H 0.32018 0.27241 0.60358 0.0
H1659 H 0.32323 0.28922 0.6358 0.0
H1660 H 0.31772 0.24353 0.60506 0.0
H1661 H 0.3669 0.28301 0.55713 0.0
H1662 H 0.37157 0.28191 0.58589 0.0
H1663 H 0.35955 0.28949 0.57927 0.0
C1664 C 0.35482 0.28687 0.64409 0.0
C1665 C 0.34413 0.2913 0.64815 0.0
C1666 C 0.35302 0.27728 0.62581 0.0
C1667 C 0.34056 0.27196 0.61102 0.0
C1668 C 0.32993 0.27647 0.61475 0.0
H1669 H 0.313 0.21003 0.4944 0.0
H1670 H 0.31331 0.22549 0.52658 0.0
C1671 C 0.33173 0.28613 0.6331 0.0
C1672 C 0.33844 0.26113 0.59236 0.0
H1673 H 0.35559 0.25667 0.54688 0.0
C1674 C 0.3259 0.24643 0.59218 0.0
C1675 C 0.34916 0.26493 0.57564 0.0
C1676 C 0.36248 0.28074 0.57431 0.0
C1677 C 0.32405 0.23528 0.57609 0.0
C1678 C 0.33494 0.23901 0.55967 0.0
C1679 C 0.34734 0.25378 0.55966 0.0
C1680 C 0.33362 0.22795 0.54192 0.0
C1681 C 0.31068 0.21949 0.57713 0.0
C1682 C 0.34482 0.22404 0.54002 0.0
C1683 C 0.34469 0.21523 0.52162 0.0
C1684 C 0.33344 0.21035 0.50466 0.0
C1685 C 0.32184 0.21369 0.50717 0.0
C1686 C 0.32195 0.22244 0.52561 0.0
H1687 H 0.30541 0.21746 0.59371 0.0
H1688 H 0.30218 0.21802 0.56413 0.0
H1689 H 0.31392 0.21077 0.57375 0.0
H1690 H 0.35396 0.22824 0.5524 0.0
H1691 H 0.35386 0.213 0.52002 0.0
H1692 H 0.71489 0.06729 0.61521 0.0
H1693 H 0.73483 0.08716 0.59402 0.0
H1694 H 0.75875 0.06247 0.59488 0.0
H1695 H 0.73855 0.04223 0.61516 0.0
H1696 H 0.76436 0.106 0.60241 0.0
H1697 H 0.75588 0.06783 0.52887 0.0
H1698 H 0.74298 0.06209 0.55142 0.0
H1699 H 0.76021 0.0618 0.55459 0.0
C1700 C 0.72439 0.06607 0.61091 0.0
C1701 C 0.72506 0.0531 0.61676 0.0
C1702 C 0.73581 0.07748 0.59886 0.0
C1703 C 0.74816 0.07618 0.59252 0.0
C1704 C 0.74915 0.06353 0.5991 0.0
H1705 H 0.82114 0.13521 0.50608 0.0
H1706 H 0.80798 0.11867 0.53714 0.0
C1707 C 0.73762 0.05201 0.61087 0.0
C1708 C 0.7597 0.08788 0.57848 0.0
H1709 H 0.77577 0.09308 0.52752 0.0
C1710 C 0.76691 0.10316 0.58609 0.0
C1711 C 0.76299 0.08417 0.55713 0.0
C1712 C 0.75502 0.06811 0.54738 0.0
C1713 C 0.77714 0.11482 0.57276 0.0
C1714 C 0.78025 0.11108 0.55143 0.0
C1715 C 0.77342 0.09582 0.54406 0.0
C1716 C 0.78937 0.12281 0.53545 0.0
C1717 C 0.7844 0.13109 0.58133 0.0
C1718 C 0.78329 0.13069 0.52456 0.0
C1719 C 0.79066 0.13994 0.50677 0.0
C1720 C 0.80427 0.14154 0.49974 0.0
C1721 C 0.81073 0.13426 0.5114 0.0
C1722 C 0.80324 0.12482 0.52903 0.0
H1723 H 0.78305 0.13192 0.59965 0.0
H1724 H 0.79652 0.13725 0.57779 0.0
H1725 H 0.77916 0.13687 0.57252 0.0
H1726 H 0.7725 0.1291 0.52912 0.0
H1727 H 0.78547 0.14544 0.49797 0.0
H1728 H 0.92741 0.64246 0.64227 0.0
H1729 H 0.91545 0.64853 0.61176 0.0
H1730 H 0.95602 0.69129 0.60413 0.0
H1731 H 0.96822 0.68533 0.63474 0.0
H1732 H 0.91179 0.67476 0.61186 0.0
H1733 H 0.94379 0.67231 0.53944 0.0
H1734 H 0.94342 0.66359 0.56567 0.0
H1735 H 0.95462 0.68381 0.56348 0.0
C1736 C 0.93392 0.65309 0.63399 0.0
C1737 C 0.94881 0.66342 0.64104 0.0
C1738 C 0.92702 0.65655 0.61657 0.0
C1739 C 0.93485 0.67033 0.60569 0.0
C1740 C 0.94983 0.68052 0.61218 0.0
H1741 H 0.90451 0.70178 0.49177 0.0
H1742 H 0.91894 0.7015 0.52465 0.0
C1743 C 0.95678 0.67708 0.62969 0.0
C1744 C 0.92701 0.67418 0.58822 0.0
H1745 H 0.92542 0.67907 0.53205 0.0
C1746 C 0.9148 0.67578 0.59441 0.0
C1747 C 0.93104 0.67561 0.56555 0.0
C1748 C 0.94386 0.67365 0.55797 0.0
C1749 C 0.90639 0.67862 0.57845 0.0
C1750 C 0.91012 0.67957 0.55564 0.0
C1751 C 0.92258 0.67836 0.54956 0.0
C1752 C 0.9008 0.68092 0.53758 0.0
C1753 C 0.89364 0.68062 0.58621 0.0
C1754 C 0.88571 0.66963 0.53419 0.0
C1755 C 0.87743 0.6698 0.51548 0.0
C1756 C 0.88414 0.68116 0.49966 0.0
C1757 C 0.89906 0.69283 0.50362 0.0
C1758 C 0.90732 0.69268 0.52237 0.0
H1759 H 0.89526 0.68445 0.60413 0.0
H1760 H 0.89242 0.68898 0.57601 0.0
H1761 H 0.88305 0.66956 0.58449 0.0
H1762 H 0.88053 0.66025 0.5454 0.0
H1763 H 0.86605 0.66051 0.5127 0.0
H1764 H 0.9422 0.6483 0.743 0.0
H1765 H 0.921 0.6463 0.76329 0.0
H1766 H 0.93442 0.6926 0.74839 0.0
H1767 H 0.95579 0.69477 0.72794 0.0
H1768 H 0.92708 0.67031 0.80137 0.0
H1769 H 0.88632 0.66351 0.73307 0.0
H1770 H 0.89972 0.65718 0.72937 0.0
H1771 H 0.90595 0.67709 0.73037 0.0
C1772 C 0.94056 0.65801 0.74372 0.0
C1773 C 0.95067 0.6717 0.73387 0.0
C1774 C 0.92843 0.65683 0.75531 0.0
C1775 C 0.92612 0.66924 0.75706 0.0
C1776 C 0.93598 0.68285 0.74691 0.0
H1777 H 0.86521 0.68513 0.83533 0.0
H1778 H 0.88051 0.68457 0.80476 0.0
C1779 C 0.9482 0.68409 0.7354 0.0
C1780 C 0.91425 0.66834 0.77139 0.0
H1781 H 0.87919 0.66394 0.77036 0.0
C1782 C 0.91659 0.6689 0.79465 0.0
C1783 C 0.90072 0.66668 0.76241 0.0
C1784 C 0.89787 0.66602 0.73743 0.0
C1785 C 0.90572 0.66784 0.80932 0.0
C1786 C 0.89194 0.66568 0.80041 0.0
C1787 C 0.88968 0.66538 0.77708 0.0
C1788 C 0.88002 0.66411 0.81538 0.0
C1789 C 0.90923 0.66933 0.83425 0.0
C1790 C 0.87398 0.6523 0.83056 0.0
C1791 C 0.8654 0.65268 0.84806 0.0
C1792 C 0.8625 0.66472 0.85032 0.0
C1793 C 0.86724 0.67568 0.83379 0.0
C1794 C 0.876 0.6754 0.81641 0.0
H1795 H 0.92148 0.67486 0.83801 0.0
H1796 H 0.90488 0.67604 0.84286 0.0
H1797 H 0.90384 0.65785 0.84136 0.0
H1798 H 0.87673 0.64332 0.82974 0.0
H1799 H 0.86181 0.6441 0.86062 0.0
H1800 H 0.34924 0.29352 0.74965 0.0
H1801 H 0.34643 0.27151 0.76949 0.0
H1802 H 0.29983 0.24611 0.74821 0.0
H1803 H 0.30264 0.26795 0.72782 0.0
H1804 H 0.32813 0.25812 0.80399 0.0
H1805 H 0.31382 0.21593 0.73395 0.0
H1806 H 0.32164 0.23598 0.72955 0.0
H1807 H 0.30204 0.22425 0.73472 0.0
C1808 C 0.33845 0.28319 0.74886 0.0
C1809 C 0.32619 0.28247 0.73701 0.0
C1810 C 0.33685 0.27062 0.76026 0.0
C1811 C 0.32298 0.25708 0.76003 0.0
C1812 C 0.31073 0.2563 0.74817 0.0
H1813 H 0.29939 0.19145 0.86381 0.0
H1814 H 0.29812 0.20751 0.8348 0.0
C1815 C 0.31233 0.26886 0.7367 0.0
C1816 C 0.32113 0.24422 0.77361 0.0
H1817 H 0.31081 0.20659 0.77096 0.0
C1818 C 0.32438 0.24688 0.79674 0.0
C1819 C 0.31636 0.22957 0.76408 0.0
C1820 C 0.31339 0.22625 0.73918 0.0
C1821 C 0.32286 0.23529 0.81066 0.0
C1822 C 0.31763 0.22052 0.80129 0.0
C1823 C 0.31458 0.21787 0.77811 0.0
C1824 C 0.31586 0.20799 0.8155 0.0
C1825 C 0.32716 0.23906 0.83527 0.0
C1826 C 0.32551 0.20207 0.81331 0.0
C1827 C 0.3261 0.19271 0.82971 0.0
C1828 C 0.3171 0.18925 0.8485 0.0
C1829 C 0.30648 0.19404 0.84951 0.0
C1830 C 0.30581 0.20326 0.83305 0.0
H1831 H 0.33422 0.2515 0.8387 0.0
H1832 H 0.31686 0.23491 0.84502 0.0
H1833 H 0.33336 0.23345 0.84142 0.0
H1834 H 0.33331 0.20555 0.79982 0.0
H1835 H 0.33445 0.18926 0.82866 0.0
H1836 H 0.71042 0.04886 0.71741 0.0
H1837 H 0.72339 0.067 0.74886 0.0
H1838 H 0.7631 0.06417 0.73779 0.0
H1839 H 0.75026 0.04592 0.7068 0.0
H1840 H 0.75683 0.06353 0.7824 0.0
H1841 H 0.75533 0.11146 0.74165 0.0
H1842 H 0.7374 0.0947 0.74457 0.0
H1843 H 0.75082 0.09407 0.72653 0.0
C1844 C 0.72186 0.05197 0.72182 0.0
C1845 C 0.72931 0.04599 0.70941 0.0
C1846 C 0.7293 0.06246 0.73966 0.0
C1847 C 0.74432 0.06719 0.74533 0.0
C1848 C 0.75155 0.06078 0.73359 0.0
H1849 H 0.81539 0.12984 0.83723 0.0
H1850 H 0.80045 0.11309 0.80548 0.0
C1851 C 0.74416 0.05031 0.71584 0.0
C1852 C 0.75269 0.07889 0.76337 0.0
H1853 H 0.76625 0.11627 0.77828 0.0
C1854 C 0.75887 0.07505 0.7815 0.0
C1855 C 0.75536 0.09394 0.76215 0.0
C1856 C 0.7495 0.09889 0.74261 0.0
C1857 C 0.76765 0.08582 0.79844 0.0
C1858 C 0.77049 0.1009 0.79705 0.0
C1859 C 0.7641 0.10471 0.77918 0.0
C1860 C 0.78003 0.11276 0.8142 0.0
C1861 C 0.77372 0.08096 0.81782 0.0
C1862 C 0.77368 0.11871 0.82889 0.0
C1863 C 0.78221 0.12837 0.84695 0.0
C1864 C 0.79727 0.13229 0.85053 0.0
C1865 C 0.80386 0.12713 0.83485 0.0
C1866 C 0.7953 0.11743 0.81685 0.0
H1867 H 0.76786 0.0684 0.81895 0.0
H1868 H 0.78579 0.08509 0.81551 0.0
H1869 H 0.77264 0.08593 0.83393 0.0
H1870 H 0.76194 0.11533 0.827 0.0
H1871 H 0.77688 0.1323 0.85863 0.0
H1872 H 0.07057 0.38377 0.02826 0.0
H1873 H 0.09026 0.37854 0.04032 0.0
H1874 H 0.06053 0.33069 0.02639 0.0
H1875 H 0.04076 0.33582 0.01395 0.0
H1876 H 0.09098 0.36062 0.07394 0.0
H1877 H 0.09737 0.33931 0.99097 0.0
H1878 H 0.08718 0.34933 0.99439 0.0
H1879 H 0.07861 0.32958 0.00083 0.0
C1880 C 0.06815 0.3721 0.02783 0.0
C1881 C 0.05408 0.36022 0.01999 0.0
C1882 C 0.07946 0.36915 0.0347 0.0
C1883 C 0.07699 0.35427 0.03379 0.0
C1884 C 0.06281 0.34231 0.0267 0.0
H1885 H 0.12467 0.31016 0.07777 0.0
H1886 H 0.1084 0.31753 0.05799 0.0
C1887 C 0.05147 0.34525 0.01982 0.0
C1888 C 0.08923 0.35133 0.04059 0.0
H1889 H 0.11053 0.33647 0.02199 0.0
C1890 C 0.09535 0.35547 0.06253 0.0
C1891 C 0.09495 0.34463 0.02565 0.0
C1892 C 0.08931 0.34057 0.00158 0.0
C1893 C 0.10668 0.35267 0.07016 0.0
C1894 C 0.1123 0.34583 0.0553 0.0
C1895 C 0.1063 0.34183 0.03328 0.0
C1896 C 0.12354 0.34169 0.06301 0.0
C1897 C 0.11216 0.35655 0.09435 0.0
C1898 C 0.13785 0.35284 0.07119 0.0
C1899 C 0.14723 0.34863 0.08238 0.0
C1900 C 0.1424 0.33322 0.08549 0.0
C1901 C 0.12866 0.32212 0.07548 0.0
C1902 C 0.11934 0.32632 0.06429 0.0
H1903 H 0.1046 0.35883 0.10464 0.0
H1904 H 0.11314 0.34717 0.10187 0.0
H1905 H 0.12342 0.36689 0.09519 0.0
H1906 H 0.1414 0.36478 0.07004 0.0
H1907 H 0.15767 0.35739 0.09015 0.0
H1908 H 0.61912 0.68018 0.04247 0.0
H1909 H 0.62515 0.70664 0.04436 0.0
H1910 H 0.67194 0.72132 0.03745 0.0
H1911 H 0.66597 0.69483 0.03506 0.0
H1912 H 0.64216 0.72597 0.07774 0.0
H1913 H 0.66739 0.75034 0.99701 0.0
H1914 H 0.65671 0.73011 0.00092 0.0
H1915 H 0.67603 0.74088 0.01041 0.0
C1916 C 0.63067 0.68901 0.04087 0.0
C1917 C 0.64207 0.68535 0.03876 0.0
C1918 C 0.63409 0.70416 0.04193 0.0
C1919 C 0.64898 0.71601 0.04089 0.0
C1920 C 0.66033 0.7124 0.03779 0.0
H1921 H 0.69978 0.80792 0.08739 0.0
H1922 H 0.69019 0.78361 0.06683 0.0
C1923 C 0.6569 0.69722 0.03656 0.0
C1924 C 0.65276 0.73194 0.04591 0.0
H1925 H 0.67188 0.76821 0.02734 0.0
C1926 C 0.64843 0.73516 0.06652 0.0
C1927 C 0.66102 0.74396 0.03135 0.0
C1928 C 0.66544 0.74115 0.00859 0.0
C1929 C 0.65261 0.75007 0.07338 0.0
C1930 C 0.66114 0.76214 0.05904 0.0
C1931 C 0.66524 0.75893 0.03821 0.0
C1932 C 0.66706 0.77819 0.0666 0.0
C1933 C 0.64848 0.75285 0.09642 0.0
C1934 C 0.65735 0.78361 0.07214 0.0
C1935 C 0.66283 0.79753 0.08395 0.0
C1936 C 0.67809 0.80619 0.09031 0.0
C1937 C 0.68795 0.8014 0.08281 0.0
C1938 C 0.68249 0.78753 0.07105 0.0
H1939 H 0.6444 0.74272 0.10694 0.0
H1940 H 0.65824 0.76257 0.10529 0.0
H1941 H 0.63942 0.75567 0.09475 0.0
H1942 H 0.64542 0.77665 0.06857 0.0
H1943 H 0.65497 0.8009 0.08959 0.0
H1944 H 0.31946 0.9682 0.02945 0.0
H1945 H 0.29574 0.94973 0.04561 0.0
H1946 H 0.28338 0.92202 0.98469 0.0
H1947 H 0.30683 0.94043 0.96834 0.0
H1948 H 0.26062 0.92607 -0.00061 0.0
H1949 H 0.28405 0.90782 0.0686 0.0
H1950 H 0.2916 0.92801 0.06847 0.0
H1951 H 0.2951 0.91857 0.04557 0.0
C1952 C 0.31172 0.95814 0.01956 0.0
C1953 C 0.31505 0.95578 0.99764 0.0
C1954 C 0.29821 0.94755 0.02885 0.0
C1955 C 0.28789 0.9344 0.01645 0.0
C1956 C 0.2912 0.93206 0.99458 0.0
H1957 H 0.21207 0.86134 0.08326 0.0
H1958 H 0.23261 0.87389 0.05722 0.0
C1959 C 0.30464 0.94261 0.98528 0.0
C1960 C 0.27342 0.92326 0.02593 0.0
H1961 H 0.25816 0.90025 0.07013 0.0
C1962 C 0.26007 0.92031 0.01476 0.0
C1963 C 0.27271 0.91552 0.04569 0.0
C1964 C 0.28662 0.9175 0.05768 0.0
C1965 C 0.24603 0.9103 0.02334 0.0
C1966 C 0.24535 0.90322 0.04378 0.0
C1967 C 0.25868 0.9057 0.05446 0.0
C1968 C 0.23114 0.89435 0.05554 0.0
C1969 C 0.23208 0.90745 0.01049 0.0
C1970 C 0.22321 0.90148 0.06257 0.0
C1971 C 0.2115 0.89432 0.07725 0.0
C1972 C 0.20755 0.87994 0.08525 0.0
C1973 C 0.21477 0.87234 0.07704 0.0
C1974 C 0.22657 0.87954 0.06236 0.0
H1975 H 0.23414 0.90936 0.99232 0.0
H1976 H 0.22273 0.89569 0.01255 0.0
H1977 H 0.22857 0.91548 0.01686 0.0
H1978 H 0.2267 0.91299 0.05793 0.0
H1979 H 0.20615 0.90044 0.08354 0.0
H1980 H 0.33754 0.02377 0.97387 0.0
H1981 H 0.33083 0.04371 0.9726 0.0
H1982 H 0.37705 0.07772 0.9865 0.0
H1983 H 0.3839 0.05792 0.9866 0.0
H1984 H 0.33284 0.06675 -0.00116 0.0
H1985 H 0.36981 0.09013 0.92644 0.0
H1986 H 0.36558 0.07234 0.93832 0.0
H1987 H 0.37958 0.09003 0.95155 0.0
C1988 C 0.34622 0.03549 0.97699 0.0
C1989 C 0.36128 0.03934 0.97989 0.0
C1990 C 0.34238 0.04687 0.97629 0.0
C1991 C 0.35351 0.06225 0.9788 0.0
C1992 C 0.36834 0.06598 0.98377 0.0
H1993 H 0.34982 0.14186 0.93795 0.0
H1994 H 0.35565 0.12658 0.96308 0.0
C1995 C 0.37224 0.05466 0.98394 0.0
C1996 C 0.34983 0.07433 0.97407 0.0
H1997 H 0.35779 0.1032 0.9387 0.0
C1998 C 0.33838 0.0748 0.98582 0.0
C1999 C 0.35695 0.08477 0.9569 0.0
C2000 C 0.36855 0.08424 0.94242 0.0
C2001 C 0.33378 0.08533 0.98067 0.0
C2002 C 0.34087 0.09563 0.96345 0.0
C2003 C 0.35257 0.09544 0.95219 0.0
C2004 C 0.3353 0.10546 0.95459 0.0
C2005 C 0.32127 0.08525 0.99337 0.0
C2006 C 0.32162 0.09877 0.94232 0.0
C2007 C 0.31834 0.10744 0.92791 0.0
C2008 C 0.32867 0.12295 0.92566 0.0
C2009 C 0.34161 0.12997 0.93967 0.0
C2010 C 0.34496 0.12124 0.95393 0.0
H2011 H 0.31965 0.07955 0.00962 0.0
H2012 H 0.3235 0.097 0.99659 0.0
H2013 H 0.31068 0.07898 0.98317 0.0
H2014 H 0.31413 0.08658 0.94224 0.0
H2015 H 0.30837 0.10179 0.91706 0.0
H2016 H 0.98212 0.30735 0.98139 0.0
H2017 H 0.96089 0.2812 0.97844 0.0
H2018 H 0.93012 0.29815 0.98171 0.0
H2019 H 0.95112 0.32417 0.98421 0.0
H2020 H 0.93452 0.26286 0.00388 0.0
H2021 H 0.92064 0.27614 0.91997 0.0
H2022 H 0.93819 0.2884 0.93484 0.0
H2023 H 0.92151 0.28863 0.94236 0.0
C2024 C 0.97084 0.30548 0.98193 0.0
C2025 C 0.96831 0.31785 0.98266 0.0
C2026 C 0.95872 0.29054 0.98023 0.0
C2027 C 0.94393 0.28776 0.97936 0.0
C2028 C 0.94143 0.30004 0.98186 0.0
H2029 H 0.86071 0.20876 0.93069 0.0
H2030 H 0.87772 0.23218 0.95232 0.0
C2031 C 0.95347 0.31492 0.98333 0.0
C2032 C 0.93117 0.27229 0.97381 0.0
H2033 H 0.90399 0.25204 0.93346 0.0
C2034 C 0.9278 0.26047 0.98853 0.0
C2035 C 0.92242 0.26919 0.95375 0.0
C2036 C 0.92591 0.2812 0.93669 0.0
C2037 C 0.91584 0.24564 0.98374 0.0
C2038 C 0.90717 0.24256 0.96359 0.0
C2039 C 0.91047 0.25444 0.94907 0.0
C2040 C 0.89556 0.22694 0.95591 0.0
C2041 C 0.91255 0.23345 0.00032 0.0
C2042 C 0.89966 0.21593 0.95156 0.0
C2043 C 0.88994 0.20256 0.93936 0.0
C2044 C 0.87596 0.19997 0.93115 0.0
C2045 C 0.87133 0.21037 0.93708 0.0
C2046 C 0.88109 0.2238 0.94928 0.0
H2047 H 0.91663 0.23839 0.01752 0.0
H2048 H 0.90036 0.22516 0.00061 0.0
H2049 H 0.9184 0.22724 0.99541 0.0
H2050 H 0.91083 0.21817 0.95604 0.0
H2051 H 0.89381 0.19476 0.93484 0.0
H2052 H 0.67894 0.62 0.99555 0.0
H2053 H 0.70364 0.62576 0.98336 0.0
H2054 H 0.71961 0.67369 0.99232 0.0
H2055 H 0.69498 0.66804 0.00498 0.0
H2056 H 0.71982 0.64205 0.94825 0.0
H2057 H 0.75082 0.66895 0.02848 0.0
H2058 H 0.73063 0.65813 0.02622 0.0
H2059 H 0.74054 0.67748 0.01752 0.0
C2060 C 0.68767 0.63179 0.99487 0.0
C2061 C 0.685 0.64357 0.0014 0.0
C2062 C 0.7018 0.63505 0.98795 0.0
C2063 C 0.71356 0.65013 0.98746 0.0
C2064 C 0.71081 0.66195 0.99319 0.0
H2065 H 0.80059 0.69628 0.9344 0.0
H2066 H 0.77835 0.68865 0.95652 0.0
C2067 C 0.69667 0.6587 0.00018 0.0
C2068 C 0.72858 0.65346 0.98037 0.0
H2069 H 0.76561 0.67148 0.99681 0.0
C2070 C 0.72981 0.64833 0.95896 0.0
C2071 C 0.74158 0.66162 0.99443 0.0
C2072 C 0.74086 0.66675 0.01803 0.0
C2073 C 0.74375 0.65159 0.95089 0.0
C2074 C 0.75679 0.66 0.96477 0.0
C2075 C 0.75556 0.66494 0.98632 0.0
C2076 C 0.77185 0.66486 0.95621 0.0
C2077 C 0.7445 0.64652 0.92723 0.0
C2078 C 0.77601 0.65414 0.94992 0.0
C2079 C 0.7888 0.65851 0.93741 0.0
C2080 C 0.7975 0.67364 0.93106 0.0
C2081 C 0.79406 0.68456 0.93919 0.0
C2082 C 0.78135 0.68021 0.95174 0.0
H2083 H 0.73383 0.64253 0.91746 0.0
H2084 H 0.75368 0.65594 0.91827 0.0
H2085 H 0.74686 0.63702 0.92775 0.0
H2086 H 0.76888 0.64226 0.95346 0.0
H2087 H 0.79115 0.64988 0.93113 0.0
H2088 H 0.94056 0.63856 0.03481 0.0
H2089 H 0.9227 0.64486 0.01795 0.0
H2090 H 0.95768 0.67866 0.97857 0.0
H2091 H 0.97558 0.67205 0.99492 0.0
H2092 H 0.92175 0.67068 0.019 0.0
H2093 H 0.92587 0.65512 0.93088 0.0
H2094 H 0.93393 0.65029 0.95415 0.0
H2095 H 0.94353 0.66913 0.94341 0.0
C2096 C 0.94446 0.64727 0.02243 0.0
C2097 C 0.95948 0.65473 0.01608 0.0
C2098 C 0.93423 0.65089 0.01286 0.0
C2099 C 0.93877 0.6621 0.99677 0.0
C2100 C 0.95381 0.66971 0.99055 0.0
H2101 H 0.89114 0.69597 0.91798 0.0
H2102 H 0.91005 0.69496 0.94219 0.0
C2103 C 0.96405 0.66596 -4e-05 0.0
C2104 C 0.92769 0.66578 0.98673 0.0
H2105 H 0.91168 0.66724 0.93689 0.0
C2106 C 0.91955 0.66991 0.00104 0.0
C2107 C 0.92473 0.66469 0.96329 0.0
C2108 C 0.93236 0.65942 0.94704 0.0
C2109 C 0.90863 0.67309 0.99253 0.0
C2110 C 0.90581 0.67212 0.96915 0.0
C2111 C 0.91399 0.6681 0.95484 0.0
C2112 C 0.89415 0.67478 0.9589 0.0
C2113 C 0.90025 0.67758 0.00849 0.0
C2114 C 0.87888 0.66415 0.96102 0.0
C2115 C 0.86804 0.66477 0.94725 0.0
C2116 C 0.87239 0.67603 0.93126 0.0
C2117 C 0.88753 0.68735 0.93049 0.0
C2118 C 0.89833 0.68671 0.94416 0.0
H2119 H 0.90557 0.68047 0.0256 0.0
H2120 H 0.89963 0.68746 0.00221 0.0
H2121 H 0.88862 0.66798 0.00964 0.0
H2122 H 0.87545 0.65473 0.97206 0.0
H2123 H 0.85648 0.65574 0.94774 0.0
H2124 H 0.34783 0.308 0.98854 0.0
H2125 H 0.34192 0.28153 0.98625 0.0
H2126 H 0.38905 0.29626 0.98613 0.0
H2127 H 0.39505 0.32271 0.98794 0.0
H2128 H 0.37409 0.27832 0.95036 0.0
H2129 H 0.34367 0.25079 0.02647 0.0
H2130 H 0.33601 0.26097 0.0125 0.0
H2131 H 0.35476 0.27119 0.02452 0.0
C2132 C 0.35695 0.30561 0.98863 0.0
C2133 C 0.37191 0.31749 0.98817 0.0
C2134 C 0.35355 0.29044 0.98748 0.0
C2135 C 0.36504 0.28688 0.98619 0.0
C2136 C 0.38 0.29872 0.98716 0.0
H2137 H 0.35773 0.203 0.92953 0.0
H2138 H 0.36756 0.22575 0.95437 0.0
C2139 C 0.3834 0.31386 0.98814 0.0
C2140 C 0.36149 0.27112 0.98041 0.0
H2141 H 0.34028 0.23407 0.99482 0.0
C2142 C 0.36697 0.26867 0.96035 0.0
C2143 C 0.35211 0.25854 0.99336 0.0
C2144 C 0.34641 0.2605 0.01553 0.0
C2145 C 0.36272 0.25399 0.95226 0.0
C2146 C 0.35296 0.24134 0.96484 0.0
C2147 C 0.34786 0.24378 0.98531 0.0
C2148 C 0.34653 0.22562 0.95541 0.0
C2149 C 0.368 0.25213 0.9296 0.0
C2150 C 0.33125 0.21741 0.94927 0.0
C2151 C 0.32562 0.20438 0.93539 0.0
C2152 C 0.33518 0.19935 0.92741 0.0
C2153 C 0.35013 0.20663 0.93548 0.0
C2154 C 0.35577 0.21969 0.94947 0.0
H2155 H 0.37318 0.26285 0.92032 0.0
H2156 H 0.37652 0.24861 0.9319 0.0
H2157 H 0.35855 0.24321 0.91913 0.0
H2158 H 0.32391 0.22172 0.95375 0.0
H2159 H 0.31402 0.19888 0.92951 0.0
H2160 H 0.71064 0.04698 0.0529 0.0
H2161 H 0.73411 0.06685 0.03817 0.0
H2162 H 0.71183 0.06219 0.97416 0.0
H2163 H 0.68831 0.04218 0.98864 0.0
H2164 H 0.73938 0.06272 0.97156 0.0
H2165 H 0.74462 0.11069 0.02497 0.0
H2166 H 0.7421 0.09434 0.03962 0.0
H2167 H 0.7273 0.09282 0.02144 0.0
C2168 C 0.7107 0.05019 0.03569 0.0
C2169 C 0.69757 0.04302 0.02196 0.0
C2170 C 0.72412 0.06162 0.02736 0.0
C2171 C 0.72466 0.06613 0.00519 0.0
C2172 C 0.71163 0.0589 0.99137 0.0
H2173 H 0.78171 0.14026 0.92748 0.0
H2174 H 0.76384 0.12322 0.95423 0.0
C2175 C 0.69819 0.04748 -0.00032 0.0
C2176 C 0.73884 0.07818 0.99614 0.0
H2177 H 0.76424 0.11619 0.00044 0.0
C2178 C 0.74491 0.07439 0.97798 0.0
C2179 C 0.74596 0.09339 0.00455 0.0
C2180 C 0.73965 0.09816 0.02361 0.0
C2181 C 0.75774 0.08546 0.96765 0.0
C2182 C 0.76482 0.1007 0.97594 0.0
C2183 C 0.75892 0.10445 0.99438 0.0
C2184 C 0.77714 0.11308 0.96382 0.0
C2185 C 0.7632 0.08089 0.94728 0.0
C2186 C 0.79091 0.11361 0.9613 0.0
C2187 C 0.80119 0.12344 0.94607 0.0
C2188 C 0.79777 0.13281 0.93327 0.0
C2189 C 0.78458 0.13316 0.93726 0.0
C2190 C 0.77437 0.12342 0.95248 0.0
H2191 H 0.75502 0.06922 0.94085 0.0
H2192 H 0.7654 0.08892 0.93359 0.0
H2193 H 0.77386 0.08122 0.95173 0.0
H2194 H 0.7933 0.10582 0.97012 0.0
H2195 H 0.81123 0.12288 0.94309 0.0
H2196 H 0.63092 0.94211 0.02075 0.0
H2197 H 0.64175 0.92572 0.02133 0.0
H2198 H 0.68566 0.96441 0.01281 0.0
H2199 H 0.67494 0.98114 0.01303 0.0
H2200 H 0.65889 0.91828 0.9954 0.0
H2201 H 0.69052 0.95021 0.07353 0.0
H2202 H 0.6764 0.95327 0.06048 0.0
H2203 H 0.69452 0.96088 0.04849 0.0
C2204 C 0.64286 0.94719 0.01863 0.0
C2205 C 0.6521 0.96304 0.01743 0.0
C2206 C 0.64904 0.93774 0.01884 0.0
C2207 C 0.66456 0.94387 0.01771 0.0
C2208 C 0.67369 0.95949 0.01431 0.0
H2209 H 0.70124 0.89223 0.08109 0.0
H2210 H 0.70136 0.90964 0.05299 0.0
C2211 C 0.66752 0.96902 0.0143 0.0
C2212 C 0.671 0.93405 0.02295 0.0
H2213 H 0.68951 0.92732 0.06518 0.0
C2214 C 0.66588 0.92041 0.01039 0.0
C2215 C 0.68017 0.93683 0.04248 0.0
C2216 C 0.68568 0.95102 0.05717 0.0
C2217 C 0.66884 0.90908 0.01763 0.0
C2218 C 0.67705 0.91144 0.038 0.0
C2219 C 0.68323 0.92555 0.04953 0.0
C2220 C 0.6772 0.89882 0.04981 0.0
C2221 C 0.66263 0.89445 0.00393 0.0
C2222 C 0.66361 0.88671 0.0568 0.0
C2223 C 0.66356 0.87688 0.07282 0.0
C2224 C 0.67709 0.87893 0.082 0.0
C2225 C 0.69069 0.89031 0.07386 0.0
C2226 C 0.69075 0.90025 0.05791 0.0
H2227 H 0.66164 0.89635 0.98585 0.0
H2228 H 0.66976 0.88919 0.00593 0.0
H2229 H 0.65124 0.88633 0.00956 0.0
H2230 H 0.65303 0.88561 0.0513 0.0
H2231 H 0.65297 0.86834 0.07923 0.0
H2232 H 0.03258 0.69859 0.01309 0.0
H2233 H 0.05198 0.7255 0.01102 0.0
H2234 H 0.07792 0.7195 0.06323 0.0
H2235 H 0.05925 0.69281 0.06444 0.0
H2236 H 0.06176 0.74817 0.03828 0.0
H2237 H 0.11055 0.74207 0.02244 0.0
H2238 H 0.09179 0.726 0.01998 0.0
H2239 H 0.10206 0.73136 0.04663 0.0
C2240 C 0.04257 0.70302 0.02383 0.0
C2241 C 0.04446 0.6935 0.03869 0.0
C2242 C 0.05365 0.7184 0.02264 0.0
C2243 C 0.06673 0.72453 0.03646 0.0
C2244 C 0.06837 0.71502 0.0516 0.0
H2245 H 0.112 0.80268 0.11259 0.0
H2246 H 0.09396 0.78287 0.08713 0.0
C2247 C 0.05754 0.6997 0.05245 0.0
C2248 C 0.07821 0.74103 0.03673 0.0
H2249 H 0.11575 0.76462 0.04593 0.0
C2250 C 0.0736 0.75182 0.03936 0.0
C2251 C 0.09377 0.74613 0.03703 0.0
C2252 C 0.09977 0.73574 0.03105 0.0
C2253 C 0.08398 0.76715 0.04477 0.0
C2254 C 0.09927 0.77167 0.04881 0.0
C2255 C 0.10403 0.76125 0.04362 0.0
C2256 C 0.10988 0.78599 0.06167 0.0
C2257 C 0.07829 0.77819 0.04656 0.0
C2258 C 0.12507 0.79466 0.05615 0.0
C2259 C 0.13564 0.80579 0.07132 0.0
C2260 C 0.13115 0.80843 0.0922 0.0
C2261 C 0.11581 0.80078 0.09671 0.0
C2262 C 0.10538 0.78954 0.08187 0.0
H2263 H 0.06961 0.7756 0.0332 0.0
H2264 H 0.07288 0.77694 0.06288 0.0
H2265 H 0.08741 0.79015 0.04512 0.0
H2266 H 0.1289 0.79222 0.04069 0.0
H2267 H 0.14739 0.81149 0.06743 0.0
H2268 H 0.32566 0.347 0.03178 0.0
H2269 H 0.30214 0.34275 0.04744 0.0
H2270 H 0.28417 0.34065 0.98076 0.0
H2271 H 0.30747 0.34466 0.96497 0.0
H2272 H 0.28951 0.36115 0.04254 0.0
H2273 H 0.25068 0.30271 0.00867 0.0
H2274 H 0.27078 0.31099 0.00921 0.0
H2275 H 0.26161 0.31606 0.98799 0.0
C2276 C 0.31665 0.34547 0.02044 0.0
C2277 C 0.31844 0.34614 0.99713 0.0
C2278 C 0.30323 0.34306 0.02941 0.0
C2279 C 0.29135 0.3412 0.01524 0.0
C2280 C 0.29307 0.34175 0.99198 0.0
H2281 H 0.21892 0.35302 0.06807 0.0
H2282 H 0.23747 0.35375 0.04204 0.0
C2283 C 0.30645 0.34414 0.983 0.0
C2284 C 0.27746 0.33947 0.02487 0.0
H2285 H 0.23969 0.31542 0.02708 0.0
C2286 C 0.27861 0.35117 0.03911 0.0
C2287 C 0.26327 0.32642 0.0204 0.0
C2288 C 0.26145 0.31325 0.0059 0.0
C2289 C 0.26598 0.35014 0.0492 0.0
C2290 C 0.25175 0.33715 0.04459 0.0
C2291 C 0.25057 0.32547 0.03024 0.0
C2292 C 0.23836 0.33486 0.05653 0.0
C2293 C 0.26806 0.3627 0.06539 0.0
C2294 C 0.23208 0.32342 0.07224 0.0
C2295 C 0.22148 0.32293 0.08686 0.0
C2296 C 0.21691 0.3338 0.08587 0.0
C2297 C 0.2222 0.34445 0.06893 0.0
C2298 C 0.23288 0.34496 0.05427 0.0
H2299 H 0.28003 0.37044 0.07028 0.0
H2300 H 0.2637 0.36954 0.05739 0.0
H2301 H 0.26173 0.35793 0.08081 0.0
H2302 H 0.23613 0.31551 0.07422 0.0
H2303 H 0.2176 0.3147 0.09995 0.0
H2304 H 0.73401 0.71939 0.3669 0.0
H2305 H 0.75363 0.71408 0.37909 0.0
H2306 H 0.72377 0.66624 0.36525 0.0
H2307 H 0.70407 0.67146 0.35275 0.0
H2308 H 0.75451 0.69572 0.41256 0.0
H2309 H 0.76043 0.67538 0.32846 0.0
H2310 H 0.75038 0.68548 0.33264 0.0
H2311 H 0.74173 0.66565 0.3386 0.0
C2312 C 0.73154 0.70771 0.36661 0.0
C2313 C 0.71747 0.69586 0.35867 0.0
C2314 C 0.7428 0.7047 0.37355 0.0
C2315 C 0.7403 0.68981 0.37259 0.0
C2316 C 0.72607 0.67787 0.36561 0.0
H2317 H 0.78907 0.64562 0.41135 0.0
H2318 H 0.77238 0.65313 0.39327 0.0
C2319 C 0.71477 0.68086 0.35869 0.0
C2320 C 0.7526 0.68685 0.37888 0.0
H2321 H 0.77394 0.67244 0.35879 0.0
C2322 C 0.75884 0.69074 0.40077 0.0
C2323 C 0.75827 0.68039 0.36343 0.0
C2324 C 0.75247 0.6766 0.3394 0.0
C2325 C 0.77027 0.68792 0.40785 0.0
C2326 C 0.77587 0.68134 0.39246 0.0
C2327 C 0.76973 0.67759 0.3705 0.0
C2328 C 0.78726 0.67723 0.39949 0.0
C2329 C 0.77588 0.69149 0.432 0.0
C2330 C 0.80155 0.68833 0.40779 0.0
C2331 C 0.81117 0.68405 0.41803 0.0
C2332 C 0.80661 0.6686 0.42005 0.0
C2333 C 0.79286 0.6576 0.40994 0.0
C2334 C 0.7833 0.66188 0.39971 0.0
H2335 H 0.76828 0.69346 0.44269 0.0
H2336 H 0.77708 0.68211 0.439 0.0
H2337 H 0.78705 0.70195 0.43294 0.0
H2338 H 0.80495 0.70027 0.4074 0.0
H2339 H 0.82162 0.69274 0.42587 0.0
H2340 H 0.28443 0.01668 0.37802 0.0
H2341 H 0.29036 0.04309 0.37981 0.0
H2342 H 0.33706 0.05791 0.3713 0.0
H2343 H 0.33117 0.0314 0.36905 0.0
H2344 H 0.30813 0.06264 0.4129 0.0
H2345 H 0.33124 0.08639 0.33079 0.0
H2346 H 0.32065 0.0662 0.33509 0.0
H2347 H 0.3401 0.07701 0.3438 0.0
C2348 C 0.29594 0.02553 0.37611 0.0
C2349 C 0.30735 0.02191 0.37358 0.0
C2350 C 0.2993 0.04064 0.37707 0.0
C2351 C 0.31413 0.0525 0.37553 0.0
C2352 C 0.32548 0.04896 0.37205 0.0
H2353 H 0.36388 0.14508 0.41953 0.0
H2354 H 0.3546 0.12086 0.39888 0.0
C2355 C 0.32211 0.03378 0.37092 0.0
C2356 C 0.31784 0.06841 0.38045 0.0
H2357 H 0.3356 0.1044 0.3607 0.0
C2358 C 0.31392 0.07172 0.40132 0.0
C2359 C 0.3255 0.08027 0.3654 0.0
C2360 C 0.32951 0.0773 0.34242 0.0
C2361 C 0.31787 0.0866 0.40792 0.0
C2362 C 0.3257 0.09852 0.39303 0.0
C2363 C 0.32945 0.09522 0.37197 0.0
C2364 C 0.33127 0.11457 0.40018 0.0
C2365 C 0.31422 0.08951 0.43124 0.0
C2366 C 0.32129 0.11949 0.40651 0.0
C2367 C 0.32658 0.13333 0.41843 0.0
C2368 C 0.34192 0.14242 0.42406 0.0
C2369 C 0.35199 0.1382 0.41557 0.0
C2370 C 0.3467 0.12438 0.40373 0.0
H2371 H 0.31087 0.07963 0.44207 0.0
H2372 H 0.32399 0.09959 0.43946 0.0
H2373 H 0.30478 0.09179 0.43016 0.0
H2374 H 0.30934 0.11215 0.40361 0.0
H2375 H 0.31857 0.13626 0.42482 0.0
H2376 H 0.96959 0.27387 0.29192 0.0
H2377 H 0.94608 0.25444 0.3071 0.0
H2378 H 0.96133 0.27489 0.37337 0.0
H2379 H 0.98487 0.2945 0.35832 0.0
H2380 H 0.94208 0.23354 0.33954 0.0
H2381 H 0.91968 0.27053 0.36657 0.0
H2382 H 0.93489 0.27665 0.34753 0.0
H2383 H 0.93838 0.27701 0.37725 0.0
C2384 C 0.96792 0.27432 0.30972 0.0
C2385 C 0.97909 0.28577 0.32392 0.0
C2386 C 0.95448 0.26319 0.31835 0.0
C2387 C 0.95189 0.26335 0.34128 0.0
C2388 C 0.963 0.27475 0.35553 0.0
H2389 H 0.8985 0.19883 0.43388 0.0
H2390 H 0.91636 0.21283 0.40515 0.0
C2391 C 0.97647 0.28589 0.34692 0.0
C2392 C 0.9378 0.25128 0.35049 0.0
H2393 H 0.90819 0.24569 0.38158 0.0
C2394 C 0.93455 0.23615 0.34849 0.0
C2395 C 0.92783 0.25467 0.36173 0.0
C2396 C 0.93026 0.27057 0.36323 0.0
C2397 C 0.92201 0.22441 0.35853 0.0
C2398 C 0.91262 0.22796 0.37107 0.0
C2399 C 0.91543 0.24297 0.37202 0.0
C2400 C 0.90086 0.21676 0.38539 0.0
C2401 C 0.91908 0.20836 0.35591 0.0
C2402 C 0.8861 0.21399 0.38357 0.0
C2403 C 0.87585 0.20595 0.40004 0.0
C2404 C 0.88034 0.20077 0.41864 0.0
C2405 C 0.89478 0.20264 0.41959 0.0
C2406 C 0.90496 0.21059 0.40313 0.0
H2407 H 0.92381 0.20673 0.34022 0.0
H2408 H 0.92456 0.20598 0.3702 0.0
H2409 H 0.90689 0.19998 0.35574 0.0
H2410 H 0.88275 0.21876 0.37008 0.0
H2411 H 0.86483 0.2048 0.39913 0.0
H2412 H 0.00536 0.35483 0.30831 0.0
H2413 H 0.99941 0.37527 0.30661 0.0
H2414 H 0.04448 0.40769 0.32964 0.0
H2415 H 0.05069 0.38743 0.33028 0.0
H2416 H 0.99984 0.39747 0.33339 0.0
H2417 H 0.04299 0.42319 0.26894 0.0
H2418 H 0.03722 0.4047 0.27966 0.0
H2419 H 0.05031 0.42159 0.2956 0.0
C2420 C 0.01391 0.36627 0.31343 0.0
C2421 C 0.02857 0.36961 0.31902 0.0
C2422 C 0.0105 0.37795 0.31245 0.0
C2423 C 0.02163 0.39309 0.31735 0.0
C2424 C 0.03585 0.39618 0.32508 0.0
H2425 H 0.02281 0.47516 0.2752 0.0
H2426 H 0.02679 0.45885 0.30089 0.0
C2427 C 0.03937 0.38458 0.32556 0.0
C2428 C 0.0188 0.40568 0.31209 0.0
H2429 H 0.03027 0.43605 0.27844 0.0
C2430 C 0.00657 0.40599 0.32154 0.0
C2431 C 0.02751 0.41675 0.29645 0.0
C2432 C 0.04014 0.4165 0.2844 0.0
C2433 C 1.00274 0.41695 0.31551 0.0
C2434 C 0.01136 0.42784 0.2997 0.0
C2435 C 0.02383 0.42782 0.29084 0.0
C2436 C 0.00676 0.43816 0.2897 0.0
C2437 C 0.98938 0.41669 0.32576 0.0
C2438 C 0.99388 0.43202 0.27558 0.0
C2439 C 0.99167 0.44129 0.26088 0.0
C2440 C 1.00224 0.45684 0.26021 0.0
C2441 C 0.0144 0.46324 0.27574 0.0
C2442 C 0.0167 0.45393 0.29031 0.0
H2443 H 0.98657 0.41066 0.34182 0.0
H2444 H 0.99144 0.4284 0.32881 0.0
H2445 H 0.97954 0.41062 0.31401 0.0
H2446 H 0.98624 0.41986 0.27446 0.0
H2447 H 0.98234 0.43611 0.24878 0.0
H2448 H 0.64665 0.64256 0.31745 0.0
H2449 H 0.62532 0.61645 0.31582 0.0
H2450 H 0.59482 0.63373 0.31102 0.0
H2451 H 0.61594 0.65968 0.31211 0.0
H2452 H 0.59833 0.59953 0.34014 0.0
H2453 H 0.58675 0.60886 0.25234 0.0
H2454 H 0.6039 0.62179 0.26761 0.0
H2455 H 0.58703 0.62232 0.27254 0.0
C2456 C 0.63539 0.64078 0.31644 0.0
C2457 C 0.63299 0.65317 0.3145 0.0
C2458 C 0.62321 0.62587 0.31552 0.0
C2459 C 0.6085 0.62316 0.3128 0.0
C2460 C 0.60608 0.63555 0.31261 0.0
H2461 H 0.52686 0.54218 0.26485 0.0
H2462 H 0.54283 0.56626 0.28579 0.0
C2463 C 0.61819 0.65038 0.31326 0.0
C2464 C 0.5958 0.60753 0.30812 0.0
H2465 H 0.56966 0.58552 0.26748 0.0
C2466 C 0.59201 0.59645 0.32431 0.0
C2467 C 0.58757 0.60353 0.28742 0.0
C2468 C 0.59157 0.61469 0.26888 0.0
C2469 C 0.58016 0.58146 0.32031 0.0
C2470 C 0.57204 0.57747 0.29953 0.0
C2471 C 0.57572 0.58863 0.28355 0.0
C2472 C 0.56077 0.56156 0.29272 0.0
C2473 C 0.57644 0.57005 0.33835 0.0
C2474 C 0.56526 0.55066 0.29051 0.0
C2475 C 0.55614 0.53695 0.27868 0.0
C2476 C 0.54238 0.53389 0.26883 0.0
C2477 C 0.53729 0.54418 0.27265 0.0
C2478 C 0.54646 0.55796 0.28445 0.0
H2479 H 0.58006 0.57573 0.35524 0.0
H2480 H 0.56424 0.56176 0.33825 0.0
H2481 H 0.58244 0.56371 0.33534 0.0
H2482 H 0.57634 0.55326 0.29625 0.0
H2483 H 0.56038 0.52927 0.27561 0.0
H2484 H 0.36421 0.97966 0.37899 0.0
H2485 H 0.38701 0.98335 0.362 0.0
H2486 H 0.37575 0.99906 0.30211 0.0
H2487 H 0.35257 0.99508 0.31892 0.0
H2488 H 0.385 0.97839 0.29317 0.0
H2489 H 0.42512 0.02336 0.3533 0.0
H2490 H 0.41168 0.00643 0.36655 0.0
H2491 H 0.40549 0.01759 0.35158 0.0
C2492 C 0.36657 0.98398 0.36223 0.0
C2493 C 0.35659 0.98716 0.35035 0.0
C2494 C 0.37969 0.98617 0.3526 0.0
C2495 C 0.38324 0.99176 0.33097 0.0
C2496 C 0.37326 0.99484 0.31892 0.0
H2497 H 0.46543 0.02859 0.2622 0.0
H2498 H 0.44486 0.02403 0.2864 0.0
C2499 C 0.36004 0.99258 0.32853 0.0
C2500 C 0.39718 0.99397 0.3208 0.0
H2501 H 0.43528 0.01273 0.32818 0.0
C2502 C 0.39599 0.9859 0.3008 0.0
C2503 C 0.41152 0.00385 0.33074 0.0
C2504 C 0.41359 0.01342 0.35161 0.0
C2505 C 0.40876 0.98743 0.29045 0.0
C2506 C 0.42309 0.99705 0.30065 0.0
C2507 C 0.42427 0.00514 0.32064 0.0
C2508 C 0.43701 1.00006 0.28954 0.0
C2509 C 0.40681 0.97913 0.26827 0.0
C2510 C 0.43995 0.98828 0.28432 0.0
C2511 C 0.45178 0.9909 0.27049 0.0
C2512 C 0.46081 0.00534 0.26185 0.0
C2513 C 0.45861 0.01736 0.2687 0.0
C2514 C 0.44684 0.01475 0.28245 0.0
H2515 H 0.39548 0.97486 0.26048 0.0
H2516 H 0.41528 0.98665 0.25633 0.0
H2517 H 0.40836 0.96924 0.27096 0.0
H2518 H 0.43267 0.97692 0.29002 0.0
H2519 H 0.4532 0.98144 0.26529 0.0
H2520 H 0.63127 0.01028 0.36902 0.0
H2521 H 0.60998 0.01227 0.35488 0.0
H2522 H 0.60711 0.98614 0.29532 0.0
H2523 H 0.62862 0.98423 0.30924 0.0
H2524 H 0.60438 0.01149 0.28653 0.0
H2525 H 0.56635 0.97781 0.35351 0.0
H2526 H 0.58381 0.99373 0.36357 0.0
H2527 H 0.58374 0.97821 0.34855 0.0
C2528 C 0.62617 0.00497 0.35286 0.0
C2529 C 0.63161 0.99699 0.34032 0.0
C2530 C 0.61391 0.00605 0.34489 0.0
C2531 C 0.60675 0.99909 0.32427 0.0
C2532 C 0.6124 0.99149 0.31137 0.0
H2533 H 0.52171 0.97468 0.26345 0.0
H2534 H 0.54222 0.97603 0.2866 0.0
C2535 C 0.6247 0.99042 0.31933 0.0
C2536 C 0.59341 0.9998 0.31611 0.0
H2537 H 0.55733 0.98937 0.32834 0.0
C2538 C 0.59412 0.00672 0.29571 0.0
C2539 C 0.57997 0.99344 0.32803 0.0
C2540 C 0.5783 0.98525 0.34953 0.0
C2541 C 0.58176 0.00741 0.28685 0.0
C2542 C 0.56839 1.00125 0.29893 0.0
C2543 C 0.56767 0.99433 0.31934 0.0
C2544 C 0.55465 1.00058 0.28942 0.0
C2545 C 0.58294 0.01424 0.26423 0.0
C2546 C 0.55437 0.0139 0.28453 0.0
C2547 C 0.54254 0.01313 0.27148 0.0
C2548 C 0.53085 0.99902 0.26328 0.0
C2549 C 0.5305 0.98567 0.26991 0.0
C2550 C 0.54227 0.98644 0.28297 0.0
H2551 H 0.59288 0.01572 0.25522 0.0
H2552 H 0.57275 0.00701 0.25355 0.0
H2553 H 0.58397 0.02558 0.26654 0.0
H2554 H 0.56373 0.02492 0.28963 0.0
H2555 H 0.54318 0.02357 0.26622 0.0
H2556 H 0.01046 0.63902 0.3328 0.0
H2557 H 1.00201 0.61185 0.33027 0.0
H2558 H 0.04761 0.62217 0.32273 0.0
H2559 H 0.05617 0.64921 0.32564 0.0
H2560 H 0.00568 0.59941 0.29221 0.0
H2561 H 0.03222 0.58624 0.36296 0.0
H2562 H 0.03078 0.60323 0.3628 0.0
H2563 H 0.04552 0.60246 0.34825 0.0
C2564 C 0.01875 0.63552 0.33128 0.0
C2565 C 0.03398 0.64634 0.32919 0.0
C2566 C 0.01389 0.61997 0.32982 0.0
C2567 C 0.02418 0.61494 0.32648 0.0
C2568 C 0.03948 0.62572 0.32579 0.0
H2569 H 0.02625 0.54128 0.26087 0.0
H2570 H 0.03154 0.563 0.28586 0.0
C2571 C 0.04434 0.64123 0.32724 0.0
C2572 C 0.01886 0.5988 0.32015 0.0
H2573 H 0.02434 0.56896 0.33058 0.0
C2574 C 0.00949 0.59263 0.3009 0.0
C2575 C 0.02399 0.59003 0.33133 0.0
C2576 C 0.03357 0.59578 0.35261 0.0
C2577 C 0.00569 0.57827 0.29189 0.0
C2578 C 0.01112 0.56963 0.30273 0.0
C2579 C 0.02015 0.57558 0.32236 0.0
C2580 C 0.00828 0.55491 0.29277 0.0
C2581 C 0.99651 0.57281 0.27015 0.0
C2582 C 0.99356 0.54279 0.28951 0.0
C2583 C 0.99055 0.53049 0.27519 0.0
C2584 C 1.00225 0.53 0.26431 0.0
C2585 C 0.0171 0.54134 0.26937 0.0
C2586 C 0.0201 0.55375 0.28354 0.0
H2587 H 0.99594 0.58212 0.2616 0.0
H2588 H 1.00125 0.5678 0.25848 0.0
H2589 H 0.98491 0.5639 0.27368 0.0
H2590 H 0.9843 0.54339 0.29671 0.0
H2591 H 0.97901 0.52191 0.27131 0.0
H2592 H 0.37643 0.39206 0.396 0.0
H2593 H 0.40081 0.41013 0.3816 0.0
H2594 H 0.38322 0.39563 0.31388 0.0
H2595 H 0.35867 0.37763 0.32812 0.0
H2596 H 0.41967 0.40512 0.35512 0.0
H2597 H 0.40184 0.44177 0.31285 0.0
H2598 H 0.39043 0.4279 0.33284 0.0
H2599 H 0.39068 0.4221 0.30425 0.0
C2600 C 0.3777 0.39272 0.37802 0.0
C2601 C 0.36557 0.38346 0.36319 0.0
C2602 C 0.39166 0.40306 0.36985 0.0
C2603 C 0.39375 0.4044 0.3467 0.0
C2604 C 0.38175 0.39501 0.33182 0.0
H2605 H 0.46789 0.43596 0.26422 0.0
H2606 H 0.44925 0.42268 0.29229 0.0
C2607 C 0.36775 0.38466 0.33998 0.0
C2608 C 0.40856 0.41542 0.33809 0.0
H2609 H 0.42557 0.44496 0.30295 0.0
C2610 C 0.42102 0.41396 0.34392 0.0
C2611 C 0.41039 0.42717 0.32393 0.0
C2612 C 0.39766 0.42996 0.31827 0.0
C2613 C 0.4351 0.42343 0.33497 0.0
C2614 C 0.43666 0.43448 0.31958 0.0
C2615 C 0.42437 0.43645 0.3147 0.0
C2616 C 0.45029 0.44298 0.30639 0.0
C2617 C 0.4481 0.42138 0.34189 0.0
C2618 C 0.45737 0.45888 0.30529 0.0
C2619 C 0.46803 0.4665 0.28912 0.0
C2620 C 0.47159 0.45827 0.27372 0.0
C2621 C 0.46535 0.44254 0.27599 0.0
C2622 C 0.45475 0.43496 0.29211 0.0
H2623 H 0.44669 0.41678 0.35897 0.0
H2624 H 0.44862 0.4131 0.33008 0.0
H2625 H 0.45889 0.43225 0.34165 0.0
H2626 H 0.45403 0.46527 0.31607 0.0
H2627 H 0.47258 0.4786 0.28751 0.0
H2628 H 0.29288 0.28353 0.3765 0.0
H2629 H 0.30114 0.26493 0.37578 0.0
H2630 H 0.34502 0.29939 0.3565 0.0
H2631 H 0.33696 0.31832 0.35772 0.0
H2632 H 0.31352 0.25403 0.34452 0.0
H2633 H 0.35374 0.28577 0.41582 0.0
H2634 H 0.3397 0.29024 0.40661 0.0
H2635 H 0.3561 0.29592 0.39054 0.0
C2636 C 0.30426 0.28719 0.37183 0.0
C2637 C 0.31433 0.30252 0.36758 0.0
C2638 C 0.30894 0.27648 0.37133 0.0
C2639 C 0.32377 0.28082 0.36651 0.0
C2640 C 0.33361 0.29586 0.36072 0.0
H2641 H 0.35906 0.22418 0.41618 0.0
H2642 H 0.35811 0.24202 0.38992 0.0
C2643 C 0.32895 0.30665 0.36133 0.0
C2644 C 0.32903 0.26979 0.36976 0.0
H2645 H 0.34977 0.2617 0.40626 0.0
C2646 C 0.32168 0.25581 0.35771 0.0
C2647 C 0.33974 0.27214 0.3869 0.0
C2648 C 0.34774 0.28676 0.40086 0.0
C2649 C 0.32411 0.24383 0.36321 0.0
C2650 C 0.33401 0.24585 0.38139 0.0
C2651 C 0.3422 0.26018 0.39228 0.0
C2652 C 0.33419 0.23286 0.39198 0.0
C2653 C 0.31566 0.22895 0.35005 0.0
C2654 C 0.32102 0.22149 0.40123 0.0
C2655 C 0.32158 0.2114 0.41617 0.0
C2656 C 0.33531 0.21246 0.42208 0.0
C2657 C 0.34832 0.22302 0.41154 0.0
C2658 C 0.34779 0.23323 0.39666 0.0
H2659 H 0.31329 0.23078 0.3325 0.0
H2660 H 0.32197 0.22275 0.34984 0.0
H2661 H 0.30474 0.22172 0.35786 0.0
H2662 H 0.31047 0.2212 0.39838 0.0
H2663 H 0.31145 0.20348 0.42438 0.0
H2664 H 0.73017 0.02721 0.35521 0.0
H2665 H 0.74761 0.05449 0.35883 0.0
H2666 H 0.71071 0.06299 0.35456 0.0
H2667 H 0.69304 0.03558 0.35107 0.0
H2668 H 0.75319 0.08133 0.33356 0.0
H2669 H 0.73055 0.0789 0.41836 0.0
H2670 H 0.72683 0.06199 0.40258 0.0
H2671 H 0.71736 0.07208 0.39491 0.0
C2672 C 0.72573 0.03485 0.3546 0.0
C2673 C 0.71016 0.02916 0.3532 0.0
C2674 C 0.73575 0.05047 0.35657 0.0
C2675 C 0.73045 0.06075 0.35728 0.0
C2676 C 0.71501 0.05522 0.35426 0.0
H2677 H 0.78178 0.14918 0.42516 0.0
H2678 H 0.76267 0.12989 0.39936 0.0
C2679 C 0.70494 0.03955 0.35219 0.0
C2680 C 0.74096 0.07688 0.36393 0.0
H2681 H 0.75141 0.10167 0.40892 0.0
C2682 C 0.75271 0.08592 0.34988 0.0
C2683 C 0.7403 0.08282 0.38523 0.0
C2684 C 0.72817 0.07348 0.40129 0.0
C2685 C 0.76401 0.10064 0.35681 0.0
C2686 C 0.76374 0.1063 0.37857 0.0
C2687 C 0.75164 0.09744 0.39219 0.0
C2688 C 0.77646 0.12056 0.38874 0.0
C2689 C 0.77615 0.10991 0.34078 0.0
C2690 C 0.79088 0.12235 0.39047 0.0
C2691 C 0.80191 0.13363 0.40481 0.0
C2692 C 0.79863 0.14312 0.41794 0.0
C2693 C 0.78463 0.14214 0.41492 0.0
C2694 C 0.77368 0.13103 0.40033 0.0
H2695 H 0.77189 0.10688 0.3231 0.0
H2696 H 0.78072 0.12228 0.34381 0.0
H2697 H 0.78541 0.10742 0.34297 0.0
H2698 H 0.79326 0.11424 0.38227 0.0
H2699 H 0.8125 0.13395 0.40728 0.0
H2700 H 0.99887 0.71513 0.35749 0.0
H2701 H 0.9739 0.70959 0.36793 0.0
H2702 H 0.95724 0.66168 0.35667 0.0
H2703 H 0.98227 0.66709 0.34657 0.0
H2704 H 0.94735 0.6952 0.34215 0.0
H2705 H 0.94277 0.66337 0.41908 0.0
H2706 H 0.96033 0.67466 0.40566 0.0
H2707 H 0.94689 0.65618 0.39413 0.0
C2708 C 0.98995 0.70339 0.35744 0.0
C2709 C 0.99261 0.69155 0.3513 0.0
C2710 C 0.97565 0.70025 0.36332 0.0
C2711 C 0.96372 0.68522 0.36324 0.0
C2712 C 0.96633 0.67335 0.35722 0.0
H2713 H 0.87384 0.65351 0.41243 0.0
H2714 H 0.89335 0.65393 0.38898 0.0
C2715 C 0.98065 0.67647 0.35141 0.0
C2716 C 0.94856 0.68211 0.36923 0.0
H2717 H 0.92182 0.66543 0.40828 0.0
C2718 C 0.94172 0.68861 0.35653 0.0
C2719 C 0.94117 0.67342 0.38789 0.0
C2720 C 0.94818 0.66659 0.40263 0.0
C2721 C 0.92783 0.6869 0.36227 0.0
C2722 C 0.92068 0.67863 0.38134 0.0
C2723 C 0.92726 0.67168 0.39355 0.0
C2724 C 0.90733 0.67842 0.39056 0.0
C2725 C 0.92099 0.69409 0.348 0.0
C2726 C 0.90845 0.69206 0.39846 0.0
C2727 C 0.89734 0.69181 0.41174 0.0
C2728 C 0.88491 0.67793 0.41726 0.0
C2729 C 0.88318 0.66435 0.40794 0.0
C2730 C 0.89437 0.66458 0.39475 0.0
H2731 H 0.92506 0.69561 0.33062 0.0
H2732 H 0.90857 0.68715 0.34734 0.0
H2733 H 0.92425 0.70549 0.35533 0.0
H2734 H 0.91847 0.70284 0.39588 0.0
H2735 H 0.89904 0.70238 0.41918 0.0
H2736 H 0.40296 0.05547 0.69458 0.0
H2737 H 0.42281 0.05083 0.70797 0.0
H2738 H 0.39421 0.00285 0.69353 0.0
H2739 H 0.37431 0.00739 0.67978 0.0
H2740 H 0.42338 0.03298 0.742 0.0
H2741 H 0.43201 0.01269 0.65969 0.0
H2742 H 0.42137 0.02229 0.6625 0.0
H2743 H 0.41304 0.00252 0.66867 0.0
C2744 C 0.40082 0.0439 0.69434 0.0
C2745 C 0.38705 0.03181 0.68594 0.0
C2746 C 0.41222 0.04129 0.70197 0.0
C2747 C 0.41013 0.02655 0.70128 0.0
C2748 C 0.39621 0.01437 0.69369 0.0
H2749 H 0.45834 0.98349 0.74699 0.0
H2750 H 0.44207 0.99077 0.72705 0.0
C2751 C 0.38478 0.01697 0.68605 0.0
C2752 C 0.42248 0.02397 0.70872 0.0
H2753 H 0.4447 0.0099 0.69138 0.0
C2754 C 0.42814 0.02806 0.73089 0.0
C2755 C 0.42871 0.0176 0.69415 0.0
C2756 C 0.42359 0.01364 0.66986 0.0
C2757 C 0.43951 0.02549 0.73912 0.0
C2758 C 0.4456 0.01892 0.72465 0.0
C2759 C 0.44009 0.01502 0.70239 0.0
C2760 C 0.45682 0.01493 0.73297 0.0
C2761 C 0.44448 0.02928 0.76351 0.0
C2762 C 0.47091 0.02613 0.74179 0.0
C2763 C 0.48028 0.02197 0.75312 0.0
C2764 C 0.47567 0.00656 0.75573 0.0
C2765 C 0.46215 0.99545 0.7452 0.0
C2766 C 0.45283 0.9996 0.73387 0.0
H2767 H 0.4366 0.03132 0.77337 0.0
H2768 H 0.4455 0.01996 0.77119 0.0
H2769 H 0.45564 0.03974 0.76479 0.0
H2770 H 0.47431 0.03805 0.74092 0.0
H2771 H 0.49058 0.03075 0.76123 0.0
H2772 H 0.94896 0.35084 0.70376 0.0
H2773 H 0.95468 0.37719 0.70634 0.0
H2774 H 1.00191 0.39245 0.70559 0.0
H2775 H 0.99627 0.36609 0.70241 0.0
H2776 H 0.96922 0.39522 0.74156 0.0
H2777 H 0.99999 0.42303 0.66588 0.0
H2778 H 0.98929 0.40262 0.66787 0.0
H2779 H 0.00798 0.41323 0.68007 0.0
C2780 C 0.96057 0.3598 0.70364 0.0
C2781 C 0.97217 0.35635 0.70305 0.0
C2782 C 0.96381 0.37488 0.70506 0.0
C2783 C 0.97872 0.38685 0.70598 0.0
C2784 C 0.99031 0.38346 0.70436 0.0
H2785 H 0.02783 0.47489 0.76413 0.0
H2786 H 0.0188 0.45192 0.74038 0.0
C2787 C 0.98707 0.36835 0.7027 0.0
C2788 C 0.98211 0.40256 0.71178 0.0
H2789 H 1.00315 0.43968 0.69755 0.0
C2790 C 0.97638 0.4049 0.73166 0.0
C2791 C 0.99152 0.41521 0.69894 0.0
C2792 C 0.99743 0.41339 0.67689 0.0
C2793 C 0.98035 0.41953 0.73963 0.0
C2794 C 0.99015 0.43223 0.7272 0.0
C2795 C 0.99555 0.42992 0.70695 0.0
C2796 C 0.9962 0.44791 0.73653 0.0
C2797 C 0.97467 0.42132 0.76198 0.0
C2798 C 0.9867 0.45375 0.74116 0.0
C2799 C 0.99187 0.46692 0.75478 0.0
C2800 C 0.00658 0.47436 0.76386 0.0
C2801 C 0.01642 0.4693 0.75739 0.0
C2802 C 0.01128 0.4562 0.7438 0.0
H2803 H 0.9693 0.41057 0.77118 0.0
H2804 H 0.98397 0.43021 0.77272 0.0
H2805 H 0.96623 0.4249 0.75922 0.0
H2806 H 0.97506 0.44759 0.73547 0.0
H2807 H 0.98406 0.47056 0.75962 0.0
H2808 H 0.64643 0.61189 0.64064 0.0
H2809 H 0.62214 0.59494 0.65629 0.0
H2810 H 0.63077 0.62841 0.70862 0.0
H2811 H 0.65529 0.64555 0.69312 0.0
H2812 H 0.61793 0.58504 0.70389 0.0
H2813 H 0.58782 0.61526 0.67836 0.0
H2814 H 0.60411 0.61752 0.66422 0.0
H2815 H 0.60624 0.62651 0.69126 0.0
C2816 C 0.6432 0.61571 0.65546 0.0
C2817 C 0.6528 0.63009 0.66565 0.0
C2818 C 0.62929 0.60599 0.66434 0.0
C2819 C 0.62462 0.61051 0.6834 0.0
C2820 C 0.63414 0.62483 0.6937 0.0
H2821 H 0.55144 0.57189 0.77081 0.0
H2822 H 0.57103 0.58811 0.74558 0.0
C2823 C 0.64816 0.63455 0.68492 0.0
C2824 C 0.61004 0.59991 0.69301 0.0
H2825 H 0.57498 0.59417 0.70144 0.0
C2826 C 0.60847 0.58694 0.70325 0.0
C2827 C 0.59781 0.60249 0.69207 0.0
C2828 C 0.59894 0.61614 0.68078 0.0
C2829 C 0.59511 0.57669 0.71333 0.0
C2830 C 0.5828 0.57924 0.71247 0.0
C2831 C 0.58433 0.59212 0.70185 0.0
C2832 C 0.56889 0.56951 0.72453 0.0
C2833 C 0.59459 0.56363 0.72572 0.0
C2834 C 0.56049 0.55371 0.72023 0.0
C2835 C 0.54932 0.54438 0.73482 0.0
C2836 C 0.54636 0.55077 0.75371 0.0
C2837 C 0.55366 0.56668 0.75651 0.0
C2838 C 0.56485 0.57595 0.74209 0.0
H2839 H 0.60596 0.56533 0.72915 0.0
H2840 H 0.58898 0.56211 0.74193 0.0
H2841 H 0.58815 0.553 0.71537 0.0
H2842 H 0.56315 0.54854 0.70638 0.0
H2843 H 0.54384 0.53216 0.73227 0.0
H2844 H 0.72654 0.73171 0.6474 0.0
H2845 H 0.72077 0.75222 0.64702 0.0
H2846 H 0.67353 0.71932 0.6462 0.0
H2847 H 0.67925 0.69872 0.64726 0.0
H2848 H 0.70655 0.75562 0.61246 0.0
H2849 H 0.67498 0.75154 0.68821 0.0
H2850 H 0.68576 0.74208 0.6854 0.0
H2851 H 0.66714 0.73367 0.673 0.0
C2852 C 0.71492 0.72884 0.64763 0.0
C2853 C 0.70333 0.71358 0.64713 0.0
C2854 C 0.71164 0.74059 0.6475 0.0
C2855 C 0.69673 0.73736 0.64677 0.0
C2856 C 0.68514 0.72215 0.64733 0.0
H2857 H 0.64643 0.77203 0.58983 0.0
H2858 H 0.65611 0.75975 0.61437 0.0
C2859 C 0.68841 0.71036 0.64774 0.0
C2860 C 0.69333 0.7496 0.64195 0.0
H2861 H 0.67159 0.76467 0.65717 0.0
C2862 C 0.6992 0.75786 0.62255 0.0
C2863 C 0.68368 0.75248 0.65507 0.0
C2864 C 0.67765 0.74457 0.67671 0.0
C2865 C 0.69503 0.76824 0.61516 0.0
C2866 C 0.68488 0.77066 0.62775 0.0
C2867 C 0.67945 0.76288 0.64766 0.0
C2868 C 0.67825 0.77949 0.61856 0.0
C2869 C 0.70077 0.77579 0.59314 0.0
C2870 C 0.68724 0.79495 0.61394 0.0
C2871 C 0.68171 0.802 0.59983 0.0
C2872 C 0.66714 0.79363 0.59034 0.0
C2873 C 0.65773 0.77867 0.59692 0.0
C2874 C 0.66323 0.77166 0.61097 0.0
H2875 H 0.70661 0.77083 0.58382 0.0
H2876 H 0.69141 0.77475 0.58228 0.0
H2877 H 0.70881 0.78806 0.59638 0.0
H2878 H 0.69883 0.80121 0.61988 0.0
H2879 H 0.68916 0.81353 0.59491 0.0
H2880 H 0.28442 0.99472 0.64182 0.0
H2881 H 0.26366 0.96863 0.64093 0.0
H2882 H 0.2948 0.95232 0.64861 0.0
H2883 H 0.31577 0.97856 0.64987 0.0
H2884 H 0.2604 0.9483 0.60776 0.0
H2885 H 0.26171 0.92522 0.69068 0.0
H2886 H 0.27133 0.94536 0.68582 0.0
H2887 H 0.27933 0.93403 0.67705 0.0
C2888 C 0.2869 0.98563 0.64375 0.0
C2889 C 0.3018 0.98875 0.64573 0.0
C2890 C 0.27498 0.97069 0.64329 0.0
C2891 C 0.27762 0.95849 0.64481 0.0
C2892 C 0.29244 0.96155 0.64783 0.0
H2893 H 0.22892 0.86447 0.60554 0.0
H2894 H 0.2457 0.88883 0.62484 0.0
C2895 C 0.30444 0.97656 0.64844 0.0
C2896 C 0.26504 0.94271 0.64043 0.0
H2897 H 0.24617 0.90723 0.66182 0.0
C2898 C 0.25717 0.93937 0.61972 0.0
C2899 C 0.26091 0.93104 0.65596 0.0
C2900 C 0.26866 0.93407 0.67872 0.0
C2901 C 0.24557 0.92466 0.61383 0.0
C2902 C 0.24143 0.91294 0.6293 0.0
C2903 C 0.24921 0.91626 0.65012 0.0
C2904 C 0.22997 0.89698 0.62304 0.0
C2905 C 0.23828 0.92166 0.59066 0.0
C2906 C 0.2152 0.89307 0.61694 0.0
C2907 C 0.20557 0.87912 0.60584 0.0
C2908 C 0.2106 0.8689 0.60081 0.0
C2909 C 0.2248 0.87218 0.60914 0.0
C2910 C 0.2344 0.8861 0.62016 0.0
H2911 H 0.24488 0.93109 0.57928 0.0
H2912 H 0.23691 0.91098 0.58298 0.0
H2913 H 0.22701 0.92043 0.59187 0.0
H2914 H 0.21147 0.90122 0.61936 0.0
H2915 H 0.19473 0.87693 0.59951 0.0
H2916 H 0.01668 0.32177 0.65374 0.0
H2917 H 0.04026 0.32523 0.6395 0.0
H2918 H 0.06337 0.34913 0.70106 0.0
H2919 H 0.03989 0.34561 0.71553 0.0
H2920 H 0.06808 0.35175 0.63339 0.0
H2921 H 0.07291 0.31445 0.69585 0.0
H2922 H 0.0558 0.31485 0.69085 0.0
H2923 H 0.07094 0.3298 0.70736 0.0
C2924 C 0.0268 0.32787 0.66418 0.0
C2925 C 0.02637 0.33329 0.68585 0.0
C2926 C 0.04026 0.32982 0.65603 0.0
C2927 C 0.0535 0.33718 0.66941 0.0
C2928 C 0.05322 0.34313 0.69067 0.0
H2929 H 0.13969 0.36123 0.61043 0.0
H2930 H 0.12174 0.36276 0.63535 0.0
C2931 C 0.03979 0.34118 0.69884 0.0
C2932 C 0.0675 0.33837 0.6612 0.0
H2933 H 0.09259 0.32628 0.67072 0.0
C2934 C 0.07353 0.34631 0.64163 0.0
C2935 C 0.0745 0.33113 0.67195 0.0
C2936 C 0.06818 0.32196 0.69257 0.0
C2937 C 0.08624 0.34702 0.63229 0.0
C2938 C 0.09324 0.33979 0.64303 0.0
C2939 C 0.08734 0.33202 0.66277 0.0
C2940 C 0.10557 0.33871 0.63246 0.0
C2941 C 0.0917 0.35496 0.61048 0.0
C2942 C 0.10282 0.32457 0.62387 0.0
C2943 C 0.11307 0.32369 0.6099 0.0
C2944 C 0.12628 0.33691 0.60451 0.0
C2945 C 0.12967 0.35088 0.61469 0.0
C2946 C 0.11936 0.35177 0.62864 0.0
H2947 H 0.08352 0.35764 0.60244 0.0
H2948 H 0.10236 0.36579 0.61371 0.0
H2949 H 0.09387 0.34784 0.59852 0.0
H2950 H 0.09227 0.31436 0.62665 0.0
H2951 H 0.11017 0.31285 0.60196 0.0
H2952 H 0.30053 0.32471 0.64705 0.0
H2953 H 0.27966 0.32699 0.63108 0.0
H2954 H 0.26572 0.33007 0.69768 0.0
H2955 H 0.28627 0.32758 0.71369 0.0
H2956 H 0.2421 0.31019 0.66996 0.0
H2957 H 0.27624 0.3652 0.62912 0.0
H2958 H 0.2805 0.35074 0.6209 0.0
H2959 H 0.28415 0.35802 0.64942 0.0
C2960 C 0.29307 0.32597 0.65827 0.0
C2961 C 0.29512 0.32601 0.68165 0.0
C2962 C 0.28117 0.32732 0.64913 0.0
C2963 C 0.2712 0.32886 0.6632 0.0
C2964 C 0.27325 0.3289 0.6865 0.0
H2965 H 0.21131 0.36071 0.61923 0.0
H2966 H 0.22901 0.35637 0.6414 0.0
C2967 C 0.28507 0.32752 0.69562 0.0
C2968 C 0.25849 0.33026 0.65383 0.0
H2969 H 0.25007 0.3524 0.62134 0.0
C2970 C 0.24383 0.31944 0.65936 0.0
C2971 C 0.26077 0.34244 0.6403 0.0
C2972 C 0.27626 0.35486 0.63472 0.0
C2973 C 0.23139 0.32037 0.65149 0.0
C2974 C 0.23364 0.33232 0.63743 0.0
C2975 C 0.24832 0.34322 0.63211 0.0
C2976 C 0.22103 0.33368 0.62753 0.0
C2977 C 0.21598 0.30869 0.65859 0.0
C2978 C 0.21026 0.32216 0.61302 0.0
C2979 C 0.19998 0.32455 0.60069 0.0
C2980 C 0.20036 0.33852 0.6026 0.0
C2981 C 0.21056 0.34971 0.61799 0.0
C2982 C 0.22077 0.34729 0.63041 0.0
H2983 H 0.21651 0.30325 0.67428 0.0
H2984 H 0.20882 0.31385 0.66124 0.0
H2985 H 0.21055 0.29965 0.64525 0.0
H2986 H 0.21043 0.31171 0.61009 0.0
H2987 H 0.19253 0.31597 0.58837 0.0
H2988 H 0.71215 0.97461 0.6598 0.0
H2989 H 0.70056 0.94703 0.65651 0.0
H2990 H 0.65709 0.94234 0.66523 0.0
H2991 H 0.66854 0.97 0.6683 0.0
H2992 H 0.67962 0.92066 0.68211 0.0
H2993 H 0.65624 0.92624 0.60016 0.0
H2994 H 0.67083 0.94246 0.61575 0.0
H2995 H 0.65186 0.93363 0.62466 0.0
C2996 C 0.70015 0.96776 0.66152 0.0
C2997 C 0.69125 0.97458 0.66385 0.0
C2998 C 0.69356 0.95196 0.65975 0.0
C2999 C 0.67796 0.94268 0.66026 0.0
C3000 C 0.66915 0.94935 0.66454 0.0
H3001 H 0.63141 0.85478 0.5905 0.0
H3002 H 0.63472 0.87448 0.61803 0.0
C3003 C 0.67573 0.96517 0.66632 0.0
C3004 C 0.67096 0.92644 0.65314 0.0
H3005 H 0.6527 0.90241 0.60831 0.0
C3006 C 0.67351 0.91655 0.66614 0.0
C3007 C 0.66303 0.92113 0.63229 0.0
C3008 C 0.66037 0.93138 0.61726 0.0
C3009 C 0.66858 0.90153 0.65859 0.0
C3010 C 0.66124 0.89644 0.63726 0.0
C3011 C 0.65822 0.90621 0.62473 0.0
C3012 C 0.65794 0.88178 0.62623 0.0
C3013 C 0.6714 0.89134 0.67346 0.0
C3014 C 0.66962 0.87873 0.62256 0.0
C3015 C 0.6676 0.86723 0.60721 0.0
C3016 C 0.65398 0.8588 0.59503 0.0
C3017 C 0.64195 0.86102 0.59996 0.0
C3018 C 0.64388 0.87234 0.61557 0.0
H3019 H 0.67156 0.89447 0.69145 0.0
H3020 H 0.66277 0.87921 0.67051 0.0
H3021 H 0.68254 0.89275 0.66993 0.0
H3022 H 0.68068 0.88605 0.63004 0.0
H3023 H 0.67711 0.86592 0.6033 0.0
H3024 H 0.04341 0.71295 0.71805 0.0
H3025 H 0.0671 0.73315 0.70445 0.0
H3026 H 0.04595 0.72926 0.6397 0.0
H3027 H 0.0222 0.70891 0.65305 0.0
H3028 H 0.07371 0.73019 0.63806 0.0
H3029 H 0.07738 0.77706 0.69243 0.0
H3030 H 0.07478 0.76054 0.70668 0.0
H3031 H 0.06024 0.75912 0.68801 0.0
C3032 C 0.04377 0.71639 0.70091 0.0
C3033 C 0.03088 0.70935 0.68664 0.0
C3034 C 0.05731 0.728 0.69323 0.0
C3035 C 0.05822 0.73284 0.67119 0.0
C3036 C 0.04545 0.72573 0.65682 0.0
H3037 H 0.11596 0.80845 0.59683 0.0
H3038 H 0.09784 0.79093 0.62287 0.0
C3039 C 0.03189 0.71411 0.66448 0.0
C3040 C 0.07252 0.74514 0.66287 0.0
H3041 H 0.09754 0.78319 0.66873 0.0
C3042 C 0.07901 0.74175 0.64488 0.0
C3043 C 0.07934 0.76021 0.67179 0.0
C3044 C 0.07256 0.76456 0.69068 0.0
C3045 C 0.09198 0.7531 0.63519 0.0
C3046 C 0.09876 0.76821 0.64399 0.0
C3047 C 0.09244 0.77155 0.66228 0.0
C3048 C 0.1112 0.78087 0.63249 0.0
C3049 C 0.0979 0.74896 0.61492 0.0
C3050 C 0.12508 0.7816 0.63027 0.0
C3051 C 0.1355 0.79169 0.61544 0.0
C3052 C 0.13211 0.80112 0.60273 0.0
C3053 C 0.1188 0.80129 0.60652 0.0
C3054 C 0.10846 0.79128 0.62134 0.0
H3055 H 0.08992 0.73736 0.60801 0.0
H3056 H 0.10028 0.75719 0.60149 0.0
H3057 H 0.10854 0.74935 0.61971 0.0
H3058 H 0.12747 0.77377 0.63898 0.0
H3059 H 0.14564 0.79129 0.61263 0.0
H3060 H 0.00858 0.64762 0.67999 0.0
H3061 H 0.01923 0.63087 0.68098 0.0
H3062 H 0.97486 0.59207 0.68539 0.0
H3063 H 0.96417 0.60852 0.6837 0.0
H3064 H 0.01752 0.61597 0.71672 0.0
H3065 H 0.99292 0.57336 0.64757 0.0
H3066 H 0.99238 0.59083 0.64732 0.0
H3067 H 0.97813 0.57444 0.66105 0.0
C3068 C 1.00106 0.63547 0.68036 0.0
C3069 C 0.98552 0.62945 0.68209 0.0
C3070 C 0.00718 0.6259 0.68093 0.0
C3071 C 0.99787 0.61016 0.68308 0.0
C3072 C 0.9823 0.60408 0.68314 0.0
H3073 H 0.98565 0.54101 0.75967 0.0
H3074 H 0.98618 0.55746 0.72993 0.0
C3075 C 0.97619 0.61359 0.68247 0.0
C3076 C 0.00424 0.60045 0.68956 0.0
H3077 H 0.99747 0.56407 0.68341 0.0
C3078 C 0.0136 0.60483 0.70893 0.0
C3079 C 0.99922 0.58593 0.6794 0.0
C3080 C 0.99024 0.58098 0.65754 0.0
C3081 C 0.01674 0.59456 0.71972 0.0
C3082 C 0.01043 0.57955 0.71077 0.0
C3083 C 1.0022 0.57557 0.69032 0.0
C3084 C 0.0099 0.56738 0.72458 0.0
C3085 C 0.02562 0.59941 0.74171 0.0
C3086 C 0.02295 0.56705 0.7307 0.0
C3087 C 0.02263 0.55755 0.74766 0.0
C3088 C 0.00926 0.54839 0.75862 0.0
C3089 C 0.99605 0.54797 0.75133 0.0
C3090 C 0.99635 0.55732 0.73435 0.0
H3091 H 0.02877 0.61117 0.74719 0.0
H3092 H 0.01905 0.59158 0.75504 0.0
H3093 H 0.03604 0.59889 0.74 0.0
H3094 H 0.0335 0.57472 0.72329 0.0
H3095 H 0.03296 0.55811 0.75321 0.0
H3096 H 0.36395 0.36938 0.6893 0.0
H3097 H 0.38375 0.39612 0.68849 0.0
H3098 H 0.4172 0.38298 0.69804 0.0
H3099 H 0.39766 0.35642 0.6986 0.0
H3100 H 0.40296 0.411 0.72422 0.0
H3101 H 0.43608 0.41453 0.65061 0.0
H3102 H 0.41734 0.39888 0.65416 0.0
H3103 H 0.43314 0.39924 0.66819 0.0
C3104 C 0.37553 0.37216 0.69068 0.0
C3105 C 0.37917 0.36072 0.69414 0.0
C3106 C 0.38685 0.38745 0.69023 0.0
C3107 C 0.402 0.39158 0.6929 0.0
C3108 C 0.40565 0.38011 0.69541 0.0
H3109 H 0.48391 0.46349 0.74491 0.0
H3110 H 0.46494 0.44177 0.72219 0.0
C3111 C 0.3944 0.36489 0.69595 0.0
C3112 C 0.41389 0.4078 0.69605 0.0
H3113 H 0.44883 0.43413 0.67964 0.0
C3114 C 0.41283 0.41619 0.71414 0.0
C3115 C 0.42685 0.41453 0.68303 0.0
C3116 C 0.42837 0.40637 0.66278 0.0
C3117 C 0.42467 0.43074 0.72038 0.0
C3118 C 0.43785 0.4373 0.70781 0.0
C3119 C 0.43872 0.42914 0.68919 0.0
C3120 C 0.45124 0.45191 0.71531 0.0
C3121 C 0.42329 0.43856 0.74123 0.0
C3122 C 0.45043 0.46525 0.71752 0.0
C3123 C 0.46129 0.47767 0.73048 0.0
C3124 C 0.47322 0.477 0.74106 0.0
C3125 C 0.47499 0.4644 0.73652 0.0
C3126 C 0.46407 0.45193 0.72372 0.0
H3127 H 0.41373 0.43071 0.75141 0.0
H3128 H 0.4337 0.44345 0.75191 0.0
H3129 H 0.42146 0.44799 0.73632 0.0
H3130 H 0.44075 0.46557 0.71087 0.0
H3131 H 0.45955 0.48714 0.7341 0.0
H3132 H 0.65535 0.0165 0.70083 0.0
H3133 H 0.63256 0.01486 0.71521 0.0
H3134 H 0.61327 0.00623 0.64804 0.0
H3135 H 0.63605 0.00802 0.63347 0.0
H3136 H 0.61039 0.02832 0.67141 0.0
H3137 H 0.59146 0.9771 0.72184 0.0
H3138 H 0.6105 0.99147 0.72839 0.0
H3139 H 0.60548 0.98238 0.70093 0.0
C3140 C 0.64622 0.01414 0.68913 0.0
C3141 C 0.64752 0.01236 0.66601 0.0
C3142 C 0.63317 0.01312 0.69739 0.0
C3143 C 0.62114 0.01021 0.68271 0.0
C3144 C 0.62239 0.00841 0.65965 0.0
H3145 H 0.53721 0.99196 0.74293 0.0
H3146 H 0.55389 0.99029 0.71565 0.0
C3147 C 0.63542 0.00942 0.65138 0.0
C3148 C 0.60752 0.00968 0.69137 0.0
H3149 H 0.58031 0.99239 0.72954 0.0
C3150 C 0.60368 0.02033 0.68391 0.0
C3151 C 0.59861 0.99907 0.70733 0.0
C3152 C 0.60161 0.98675 0.71494 0.0
C3153 C 0.59163 0.02118 0.69288 0.0
C3154 C 0.58335 0.01124 0.70994 0.0
C3155 C 0.58671 1.00007 0.71653 0.0
C3156 C 0.57221 0.01313 0.7228 0.0
C3157 C 0.588 0.03284 0.68421 0.0
C3158 C 0.57681 0.02666 0.73533 0.0
C3159 C 0.56732 0.02763 0.75076 0.0
C3160 C 0.55307 0.01507 0.75405 0.0
C3161 C 0.54807 1.00186 0.74049 0.0
C3162 C 0.55762 1.00087 0.72506 0.0
H3163 H 0.59164 0.03575 0.66672 0.0
H3164 H 0.57581 0.02874 0.68472 0.0
H3165 H 0.59406 0.0434 0.69482 0.0
H3166 H 0.5881 0.03615 0.73424 0.0
H3167 H 0.57145 0.03791 0.76111 0.0
loop_
_geom_bond_atom_site_label_1
_geom_bond_atom_site_label_2
_geom_bond_distance
_geom_bond_site_symmetry_2
_ccdc_geom_bond_type
Mg0 O1 2.028 1_556 S
Mg0 O7 1.992 1_455 S
Mg0 O9 2.114 . S
Mg0 O10 2.251 1_455 S
Mg0 O13 2.010 1_556 S
O1 Mg0 2.028 1_554 S
O1 C4 1.250 1_455 S
O2 Mg3 2.028 1_554 S
O2 C4 1.248 . S
Mg3 O2 2.028 1_556 S
Mg3 O8 2.032 . S
Mg3 O10 2.079 . S
C4 O1 1.250 1_655 S
C4 O2 1.248 . S
C5 O6 1.256 1_554 S
C5 O13 1.249 . S
O6 C5 1.256 1_556 S
O7 Mg0 1.992 1_655 S
O7 C11 1.254 . S
O8 Mg3 2.032 . S
O8 C11 1.259 . S
O9 Mg0 2.114 . S
O9 C12 1.252 . S
O10 Mg0 2.251 1_655 S
O10 Mg3 2.079 . S
O10 C12 1.273 1_655 S
C11 O7 1.254 . S
C11 O8 1.259 . S
C12 O9 1.252 . S
C12 O10 1.273 1_455 S
O13 Mg0 2.010 1_554 S
O13 C5 1.249 . S
Mg14 O15 2.028 1_554 S
Mg14 O21 1.986 . S
Mg14 O23 2.114 . S
Mg14 O24 2.251 . S
Mg14 O27 2.010 . S
O15 Mg14 2.028 1_556 S
O15 C18 1.250 . S
O16 Mg17 2.028 1_556 S
O16 C18 1.248 . S
Mg17 O16 2.028 1_554 S
Mg17 O22 2.032 . S
Mg17 O24 2.079 . S
C18 O15 1.250 . S
C18 O16 1.248 . S
C19 O20 1.264 . S
C19 O27 1.249 . S
O20 C19 1.264 . S
O21 Mg14 1.986 . S
O21 C25 1.246 . S
O22 Mg17 2.032 . S
O22 C25 1.259 . S
O23 Mg14 2.114 . S
O23 C26 1.252 . S
O24 Mg14 2.251 . S
O24 Mg17 2.079 . S
O24 C26 1.273 . S
C25 O21 1.246 . S
C25 O22 1.259 . S
C26 O23 1.252 . S
C26 O24 1.273 . S
O27 Mg14 2.010 . S
O27 C19 1.249 . S
Mg28 O29 2.023 1_556 S
Mg28 O35 1.984 1_566 S
Mg28 O37 2.114 . S
Mg28 O38 2.251 1_565 S
Mg28 O41 2.010 1_556 S
O29 Mg28 2.023 1_554 S
O29 C32 1.244 1_565 S
O30 Mg31 2.028 1_554 S
O30 C32 1.248 . S
Mg31 O30 2.028 1_556 S
Mg31 O36 2.032 . S
Mg31 O38 2.079 . S
C32 O29 1.244 1_545 S
C32 O30 1.248 . S
C33 O34 1.264 1_554 S
C33 O41 1.249 . S
O34 C33 1.264 1_556 S
O35 Mg28 1.984 1_544 S
O35 C39 1.242 1_554 S
O36 Mg31 2.032 . S
O36 C39 1.259 . S
O37 Mg28 2.114 . S
O37 C40 1.252 . S
O38 Mg28 2.251 1_545 S
O38 Mg31 2.079 . S
O38 C40 1.273 1_545 S
C39 O35 1.242 1_556 S
C39 O36 1.259 . S
C40 O37 1.252 . S
C40 O38 1.273 1_565 S
O41 Mg28 2.010 1_554 S
O41 C33 1.249 . S
Mg42 O43 2.056 1_554 S
Mg42 O49 1.986 1_655 S
Mg42 O51 2.114 . S
Mg42 O52 2.251 1_655 S
Mg42 O55 2.010 . S
O43 Mg42 2.056 1_556 S
O43 C46 1.179 1_655 S
O44 Mg45 2.028 1_556 S
O44 C46 1.248 . S
Mg45 O44 2.028 1_554 S
Mg45 O50 2.032 . S
Mg45 O52 2.079 . S
C46 O43 1.179 1_455 S
C46 O44 1.248 . S
C47 O48 1.264 . S
C47 O55 1.249 . S
O48 C47 1.264 . S
O49 Mg42 1.986 1_455 S
O49 C53 1.246 . S
O50 Mg45 2.032 . S
O50 C53 1.259 . S
O51 Mg42 2.114 . S
O51 C54 1.252 . S
O52 Mg42 2.251 1_455 S
O52 Mg45 2.079 . S
O52 C54 1.273 1_455 S
C53 O49 1.246 . S
C53 O50 1.259 . S
C54 O51 1.252 . S
C54 O52 1.273 1_655 S
O55 Mg42 2.010 . S
O55 C47 1.249 . S
Mg56 O57 2.028 1_556 S
Mg56 O63 1.985 1_556 S
Mg56 O65 2.114 . S
Mg56 O66 2.251 . S
Mg56 O69 2.010 1_556 S
O57 Mg56 2.028 1_554 S
O57 C60 1.250 . S
O58 Mg59 2.028 1_554 S
O58 C60 1.248 . S
Mg59 O58 2.028 1_556 S
Mg59 O64 2.032 . S
Mg59 O66 2.079 . S
C60 O57 1.250 . S
C60 O58 1.248 . S
C61 O62 1.264 . S
C61 O69 1.249 . S
O62 C61 1.264 . S
O63 Mg56 1.985 1_554 S
O63 C67 1.242 1_554 S
O64 Mg59 2.032 . S
O64 C67 1.259 . S
O65 Mg56 2.114 . S
O65 C68 1.252 . S
O66 Mg56 2.251 . S
O66 Mg59 2.079 . S
O66 C68 1.273 . S
C67 O63 1.242 1_556 S
C67 O64 1.259 . S
C68 O65 1.252 . S
C68 O66 1.273 . S
O69 Mg56 2.010 1_554 S
O69 C61 1.249 . S
Mg70 O71 2.028 1_554 S
Mg70 O77 1.986 1_545 S
Mg70 O79 2.114 . S
Mg70 O80 2.251 1_545 S
Mg70 O83 2.010 . S
O71 Mg70 2.028 1_556 S
O71 C74 1.250 1_545 S
O72 Mg73 1.988 1_556 S
O72 C74 1.273 . S
Mg73 O72 1.988 1_554 S
Mg73 O78 2.032 . S
Mg73 O80 2.079 . S
C74 O71 1.250 1_565 S
C74 O72 1.273 . S
C75 O76 1.264 . S
C75 O83 1.249 . S
O76 C75 1.264 . S
O77 Mg70 1.986 1_565 S
O77 C81 1.246 . S
O78 Mg73 2.032 . S
O78 C81 1.259 . S
O79 Mg70 2.114 . S
O79 C82 1.252 . S
O80 Mg70 2.251 1_565 S
O80 Mg73 2.079 . S
O80 C82 1.273 1_565 S
C81 O77 1.246 . S
C81 O78 1.259 . S
C82 O79 1.252 . S
C82 O80 1.273 1_545 S
O83 Mg70 2.010 . S
O83 C75 1.249 . S
Mg84 O85 2.028 . S
Mg84 O91 1.986 . S
Mg84 O93 2.114 . S
Mg84 O94 2.251 . S
Mg84 O97 2.010 . S
O85 Mg84 2.028 . S
O85 C88 1.250 . S
O86 Mg87 2.028 . S
O86 C88 1.248 . S
Mg87 O86 2.028 . S
Mg87 O92 2.032 . S
Mg87 O94 2.079 . S
C88 O85 1.250 . S
C88 O86 1.248 . S
C89 O90 1.264 . S
C89 O97 1.249 . S
O90 C89 1.264 . S
O91 Mg84 1.986 . S
O91 C95 1.246 . S
O92 Mg87 2.032 . S
O92 C95 1.259 . S
O93 Mg84 2.114 . S
O93 C96 1.252 . S
O94 Mg84 2.251 . S
O94 Mg87 2.079 . S
O94 C96 1.273 . S
C95 O91 1.246 . S
C95 O92 1.259 . S
C96 O93 1.252 . S
C96 O94 1.273 . S
O97 Mg84 2.010 . S
O97 C89 1.249 . S
Mg98 O99 2.028 . S
Mg98 O105 1.986 1_565 S
Mg98 O107 2.114 . S
Mg98 O108 2.251 . S
Mg98 O111 2.010 . S
O99 Mg98 2.028 . S
O99 C102 1.250 . S
O100 Mg101 2.028 . S
O100 C102 1.248 . S
Mg101 O100 2.028 . S
Mg101 O106 2.032 1_565 S
Mg101 O108 2.079 . S
C102 O99 1.250 . S
C102 O100 1.248 . S
C103 O104 1.264 . S
C103 O111 1.249 . S
O104 C103 1.264 . S
O105 Mg98 1.986 1_545 S
O105 C109 1.246 . S
O106 Mg101 2.032 1_545 S
O106 C109 1.259 . S
O107 Mg98 2.114 . S
O107 C110 1.252 . S
O108 Mg98 2.251 . S
O108 Mg101 2.079 . S
O108 C110 1.273 . S
C109 O105 1.246 . S
C109 O106 1.259 . S
C110 O107 1.252 . S
C110 O108 1.273 . S
O111 Mg98 2.010 . S
O111 C103 1.249 . S
Mg112 O113 2.028 . S
Mg112 O119 1.986 . S
Mg112 O121 2.114 . S
Mg112 O122 2.251 . S
Mg112 O125 2.010 1_455 S
O113 Mg112 2.028 . S
O113 C116 1.250 . S
O114 Mg115 2.028 . S
O114 C116 1.248 . S
Mg115 O114 2.028 . S
Mg115 O120 2.032 . S
Mg115 O122 2.079 . S
C116 O113 1.250 . S
C116 O114 1.248 . S
C117 O118 1.264 . S
C117 O125 1.249 . S
O118 C117 1.264 . S
O119 Mg112 1.986 . S
O119 C123 1.246 . S
O120 Mg115 2.032 . S
O120 C123 1.259 . S
O121 Mg112 2.114 . S
O121 C124 1.252 . S
O122 Mg112 2.251 . S
O122 Mg115 2.079 . S
O122 C124 1.273 . S
C123 O119 1.246 . S
C123 O120 1.259 . S
C124 O121 1.252 . S
C124 O122 1.273 . S
O125 Mg112 2.010 1_655 S
O125 C117 1.249 . S
Mg126 O127 2.028 . S
Mg126 O133 1.986 1_565 S
Mg126 O135 2.114 . S
Mg126 O136 2.251 . S
Mg126 O139 2.010 . S
O127 Mg126 2.028 . S
O127 C130 1.250 . S
O128 Mg129 2.028 . S
O128 C130 1.248 . S
Mg129 O128 2.028 . S
Mg129 O134 2.023 1_565 S
Mg129 O136 2.079 . S
C130 O127 1.250 . S
C130 O128 1.248 . S
C131 O132 1.264 . S
C131 O139 1.249 . S
O132 C131 1.264 . S
O133 Mg126 1.986 1_545 S
O133 C137 1.246 . S
O134 Mg129 2.023 1_545 S
O134 C137 1.268 . S
O135 Mg126 2.114 . S
O135 C138 1.252 . S
O136 Mg126 2.251 . S
O136 Mg129 2.079 . S
O136 C138 1.273 . S
C137 O133 1.246 . S
C137 O134 1.268 . S
C138 O135 1.252 . S
C138 O136 1.273 . S
O139 Mg126 2.010 . S
O139 C131 1.249 . S
Mg140 O141 2.028 . S
Mg140 O147 1.986 . S
Mg140 O149 2.114 . S
Mg140 O150 2.251 . S
Mg140 O153 2.010 1_455 S
O141 Mg140 2.028 . S
O141 C144 1.250 . S
O142 Mg143 2.028 . S
O142 C144 1.248 . S
Mg143 O142 2.028 . S
Mg143 O148 2.032 . S
Mg143 O150 2.079 . S
C144 O141 1.250 . S
C144 O142 1.248 . S
C145 O146 1.264 . S
C145 O153 1.249 . S
O146 C145 1.264 . S
O147 Mg140 1.986 . S
O147 C151 1.246 . S
O148 Mg143 2.032 . S
O148 C151 1.259 . S
O149 Mg140 2.114 . S
O149 C152 1.252 . S
O150 Mg140 2.251 . S
O150 Mg143 2.079 . S
O150 C152 1.273 . S
C151 O147 1.246 . S
C151 O148 1.259 . S
C152 O149 1.252 . S
C152 O150 1.273 . S
O153 Mg140 2.010 1_655 S
O153 C145 1.249 . S
Mg154 O155 2.028 . S
Mg154 O161 1.986 . S
Mg154 O163 2.114 . S
Mg154 O164 2.251 . S
Mg154 O167 2.010 . S
O155 Mg154 2.028 . S
O155 C158 1.250 . S
O156 Mg157 2.028 . S
O156 C158 1.248 . S
Mg157 O156 2.028 . S
Mg157 O162 2.032 . S
Mg157 O164 2.079 . S
C158 O155 1.250 . S
C158 O156 1.248 . S
C159 O160 1.264 . S
C159 O167 1.249 . S
O160 C159 1.264 . S
O161 Mg154 1.986 . S
O161 C165 1.246 . S
O162 Mg157 2.032 . S
O162 C165 1.259 . S
O163 Mg154 2.114 . S
O163 C166 1.252 . S
O164 Mg154 2.251 . S
O164 Mg157 2.079 . S
O164 C166 1.273 . S
C165 O161 1.246 . S
C165 O162 1.259 . S
C166 O163 1.252 . S
C166 O164 1.273 . S
O167 Mg154 2.010 . S
O167 C159 1.249 . S
Mg168 O169 2.028 . S
Mg168 O175 1.959 1_545 S
Mg168 O177 2.114 . S
Mg168 O178 2.251 . S
Mg168 O181 2.010 . S
O169 Mg168 2.028 . S
O169 C172 1.250 . S
O170 Mg171 2.028 . S
O170 C172 1.248 . S
Mg171 O170 2.028 . S
Mg171 O176 2.032 . S
Mg171 O178 2.079 . S
C172 O169 1.250 . S
C172 O170 1.248 . S
C173 O174 1.264 . S
C173 O181 1.249 . S
O174 C173 1.264 . S
O175 Mg168 1.959 1_565 S
O175 C179 1.240 . S
O176 Mg171 2.032 . S
O176 C179 1.259 1_545 S
O177 Mg168 2.114 . S
O177 C180 1.252 . S
O178 Mg168 2.251 . S
O178 Mg171 2.079 . S
O178 C180 1.273 . S
C179 O175 1.240 . S
C179 O176 1.259 1_565 S
C180 O177 1.252 . S
C180 O178 1.273 . S
O181 Mg168 2.010 . S
O181 C173 1.249 . S
Mg182 O183 2.028 . S
Mg182 O189 1.986 . S
Mg182 O191 2.114 . S
Mg182 O192 2.251 . S
Mg182 O195 2.010 1_655 S
O183 Mg182 2.028 . S
O183 C186 1.250 . S
O184 Mg185 2.028 . S
O184 C186 1.248 . S
Mg185 O184 2.028 . S
Mg185 O190 2.032 . S
Mg185 O192 2.079 . S
C186 O183 1.250 . S
C186 O184 1.248 . S
C187 O188 1.264 . S
C187 O195 1.249 . S
O188 C187 1.264 . S
O189 Mg182 1.986 . S
O189 C193 1.246 . S
O190 Mg185 2.032 . S
O190 C193 1.259 . S
O191 Mg182 2.114 . S
O191 C194 1.252 . S
O192 Mg182 2.251 . S
O192 Mg185 2.079 . S
O192 C194 1.273 . S
C193 O189 1.246 . S
C193 O190 1.259 . S
C194 O191 1.252 . S
C194 O192 1.273 . S
O195 Mg182 2.010 1_455 S
O195 C187 1.249 . S
Mg196 O197 2.028 . S
Mg196 O203 1.986 . S
Mg196 O205 2.114 . S
Mg196 O206 2.251 . S
Mg196 O209 2.010 . S
O197 Mg196 2.028 . S
O197 C200 1.250 . S
O198 Mg199 2.028 . S
O198 C200 1.248 . S
Mg199 O198 2.028 . S
Mg199 O204 2.032 . S
Mg199 O206 2.079 . S
C200 O197 1.250 . S
C200 O198 1.248 . S
C201 O202 1.264 . S
C201 O209 1.249 . S
O202 C201 1.264 . S
O203 Mg196 1.986 . S
O203 C207 1.246 . S
O204 Mg199 2.032 . S
O204 C207 1.259 . S
O205 Mg196 2.114 . S
O205 C208 1.252 . S
O206 Mg196 2.251 . S
O206 Mg199 2.079 . S
O206 C208 1.273 . S
C207 O203 1.246 . S
C207 O204 1.259 . S
C208 O205 1.252 . S
C208 O206 1.273 . S
O209 Mg196 2.010 . S
O209 C201 1.249 . S
Mg210 O211 2.028 . S
Mg210 O217 1.986 . S
Mg210 O219 2.114 . S
Mg210 O220 2.251 . S
Mg210 O223 2.010 . S
O211 Mg210 2.028 . S
O211 C214 1.250 . S
O212 Mg213 2.028 . S
O212 C214 1.248 . S
Mg213 O212 2.028 . S
Mg213 O218 2.032 . S
Mg213 O220 2.079 . S
C214 O211 1.250 . S
C214 O212 1.248 . S
C215 O216 1.264 . S
C215 O223 1.249 . S
O216 C215 1.264 . S
O217 Mg210 1.986 . S
O217 C221 1.246 . S
O218 Mg213 2.032 . S
O218 C221 1.259 . S
O219 Mg210 2.114 . S
O219 C222 1.252 . S
O220 Mg210 2.251 . S
O220 Mg213 2.079 . S
O220 C222 1.273 . S
C221 O217 1.246 . S
C221 O218 1.259 . S
C222 O219 1.252 . S
C222 O220 1.273 . S
O223 Mg210 2.010 . S
O223 C215 1.249 . S
Mg224 O225 2.028 . S
Mg224 O231 1.986 1_545 S
Mg224 O233 2.114 . S
Mg224 O234 2.251 . S
Mg224 O237 2.010 . S
O225 Mg224 2.028 . S
O225 C228 1.250 . S
O226 Mg227 2.028 . S
O226 C228 1.248 . S
Mg227 O226 2.028 . S
Mg227 O232 2.028 1_545 S
Mg227 O234 2.079 . S
C228 O225 1.250 . S
C228 O226 1.248 . S
C229 O230 1.264 . S
C229 O237 1.249 . S
O230 C229 1.264 . S
O231 Mg224 1.986 1_565 S
O231 C235 1.246 . S
O232 Mg227 2.028 1_565 S
O232 C235 1.260 . S
O233 Mg224 2.114 . S
O233 C236 1.252 . S
O234 Mg224 2.251 . S
O234 Mg227 2.079 . S
O234 C236 1.273 . S
C235 O231 1.246 . S
C235 O232 1.260 . S
C236 O233 1.252 . S
C236 O234 1.273 . S
O237 Mg224 2.010 . S
O237 C229 1.249 . S
Mg238 O239 2.028 . S
Mg238 O245 1.986 . S
Mg238 O247 2.114 . S
Mg238 O248 2.251 . S
Mg238 O251 2.010 1_655 S
O239 Mg238 2.028 . S
O239 C242 1.250 . S
O240 Mg241 2.028 . S
O240 C242 1.248 . S
Mg241 O240 2.028 . S
Mg241 O246 2.032 . S
Mg241 O248 2.079 . S
C242 O239 1.250 . S
C242 O240 1.248 . S
C243 O244 1.264 . S
C243 O251 1.249 . S
O244 C243 1.264 . S
O245 Mg238 1.986 . S
O245 C249 1.246 . S
O246 Mg241 2.032 . S
O246 C249 1.259 . S
O247 Mg238 2.114 . S
O247 C250 1.252 . S
O248 Mg238 2.251 . S
O248 Mg241 2.079 . S
O248 C250 1.273 . S
C249 O245 1.246 . S
C249 O246 1.259 . S
C250 O247 1.252 . S
C250 O248 1.273 . S
O251 Mg238 2.010 1_455 S
O251 C243 1.249 . S
H252 C258 0.930 . S
H253 C261 0.931 . S
H254 C263 0.931 . S
H255 C265 0.930 . S
H256 C267 0.930 . S
H257 C269 0.931 . S
C258 H252 0.930 . S
C258 C259 1.380 . S
C258 C260 1.394 . S
C259 C258 1.380 . S
C259 C263 1.382 . S
C260 C258 1.394 . S
C260 C261 1.400 . S
C261 H253 0.931 . S
C261 C260 1.400 . S
C261 C262 1.375 . S
C262 C261 1.375 . S
C262 C263 1.415 . S
C262 C264 1.501 . S
C263 H254 0.931 . S
C263 C259 1.382 . S
C263 C262 1.415 . S
C264 C262 1.501 . S
C264 C265 1.384 . S
C264 C269 1.408 . S
C265 H255 0.930 . S
C265 C264 1.384 . S
C265 C266 1.389 . S
C266 C265 1.389 . S
C266 C267 1.405 . S
C267 H256 0.930 . S
C267 C266 1.405 . S
C267 C268 1.364 . S
C268 C267 1.364 . S
C268 C269 1.400 . S
C269 H257 0.931 . S
C269 C264 1.408 . S
C269 C268 1.400 . S
H270 C276 0.930 . S
H271 C279 0.931 . S
H272 C281 0.931 . S
H273 C283 0.930 . S
H274 C285 0.930 . S
H275 C287 0.931 . S
C276 H270 0.930 . S
C276 C277 1.380 . S
C276 C278 1.394 . S
C277 C276 1.380 . S
C277 C281 1.382 . S
C278 C276 1.394 . S
C278 C279 1.400 . S
C279 H271 0.931 . S
C279 C278 1.400 . S
C279 C280 1.375 . S
C280 C279 1.375 . S
C280 C281 1.415 . S
C280 C282 1.501 . S
C281 H272 0.931 . S
C281 C277 1.382 . S
C281 C280 1.415 . S
C282 C280 1.501 . S
C282 C283 1.384 . S
C282 C287 1.408 . S
C283 H273 0.930 . S
C283 C282 1.384 . S
C283 C284 1.389 . S
C284 C283 1.389 . S
C284 C285 1.405 . S
C285 H274 0.930 . S
C285 C284 1.405 . S
C285 C286 1.364 . S
C286 C285 1.364 . S
C286 C287 1.400 . S
C287 H275 0.931 . S
C287 C282 1.408 . S
C287 C286 1.400 . S
H288 C294 0.930 . S
H289 C297 0.931 . S
H290 C299 0.931 . S
H291 C301 0.930 . S
H292 C303 0.930 . S
H293 C305 0.931 . S
C294 H288 0.930 . S
C294 C295 1.380 . S
C294 C296 1.394 . S
C295 C294 1.380 . S
C295 C299 1.382 . S
C296 C294 1.394 . S
C296 C297 1.400 . S
C297 H289 0.931 . S
C297 C296 1.400 . S
C297 C298 1.375 . S
C298 C297 1.375 . S
C298 C299 1.415 . S
C298 C300 1.501 . S
C299 H290 0.931 . S
C299 C295 1.382 . S
C299 C298 1.415 . S
C300 C298 1.501 . S
C300 C301 1.384 . S
C300 C305 1.408 . S
C301 H291 0.930 . S
C301 C300 1.384 . S
C301 C302 1.389 . S
C302 C301 1.389 . S
C302 C303 1.405 . S
C303 H292 0.930 . S
C303 C302 1.405 . S
C303 C304 1.364 . S
C304 C303 1.364 . S
C304 C305 1.400 . S
C305 H293 0.931 . S
C305 C300 1.408 . S
C305 C304 1.400 . S
H306 C312 0.930 . S
H307 C315 0.931 . S
H308 C317 0.931 . S
H309 C319 0.930 . S
H310 C321 0.930 . S
H311 C323 0.931 . S
C312 H306 0.930 . S
C312 C313 1.380 . S
C312 C314 1.394 . S
C313 C312 1.380 . S
C313 C317 1.382 . S
C314 C312 1.394 . S
C314 C315 1.400 . S
C315 H307 0.931 . S
C315 C314 1.400 . S
C315 C316 1.375 . S
C316 C315 1.375 . S
C316 C317 1.415 . S
C316 C318 1.501 . S
C317 H308 0.931 . S
C317 C313 1.382 . S
C317 C316 1.415 . S
C318 C316 1.501 . S
C318 C319 1.384 . S
C318 C323 1.408 . S
C319 H309 0.930 . S
C319 C318 1.384 . S
C319 C320 1.389 . S
C320 C319 1.389 . S
C320 C321 1.405 . S
C321 H310 0.930 . S
C321 C320 1.405 . S
C321 C322 1.364 . S
C322 C321 1.364 . S
C322 C323 1.400 . S
C323 H311 0.931 . S
C323 C318 1.408 . S
C323 C322 1.400 . S
H324 C330 0.930 . S
H325 C333 0.931 . S
H326 C335 0.931 . S
H327 C337 0.930 . S
H328 C339 0.930 . S
H329 C341 0.931 . S
C330 H324 0.930 . S
C330 C331 1.380 . S
C330 C332 1.394 . S
C331 C330 1.380 . S
C331 C335 1.382 . S
C332 C330 1.394 . S
C332 C333 1.400 . S
C333 H325 0.931 . S
C333 C332 1.400 . S
C333 C334 1.375 . S
C334 C333 1.375 . S
C334 C335 1.415 . S
C334 C336 1.501 . S
C335 H326 0.931 . S
C335 C331 1.382 . S
C335 C334 1.415 . S
C336 C334 1.501 . S
C336 C337 1.384 . S
C336 C341 1.408 . S
C337 H327 0.930 . S
C337 C336 1.384 . S
C337 C338 1.389 . S
C338 C337 1.389 . S
C338 C339 1.405 . S
C339 H328 0.930 . S
C339 C338 1.405 . S
C339 C340 1.364 . S
C340 C339 1.364 . S
C340 C341 1.400 . S
C341 H329 0.931 . S
C341 C336 1.408 . S
C341 C340 1.400 . S
H342 C348 0.930 . S
H343 C351 0.931 . S
H344 C353 0.931 . S
H345 C355 0.930 . S
H346 C357 0.930 . S
H347 C359 0.931 . S
C348 H342 0.930 . S
C348 C349 1.380 . S
C348 C350 1.394 . S
C349 C348 1.380 . S
C349 C353 1.382 . S
C350 C348 1.394 . S
C350 C351 1.400 . S
C351 H343 0.931 . S
C351 C350 1.400 . S
C351 C352 1.375 . S
C352 C351 1.375 . S
C352 C353 1.415 . S
C352 C354 1.501 . S
C353 H344 0.931 . S
C353 C349 1.382 . S
C353 C352 1.415 . S
C354 C352 1.501 . S
C354 C355 1.384 . S
C354 C359 1.408 . S
C355 H345 0.930 . S
C355 C354 1.384 . S
C355 C356 1.389 . S
C356 C355 1.389 . S
C356 C357 1.405 . S
C357 H346 0.930 . S
C357 C356 1.405 . S
C357 C358 1.364 . S
C358 C357 1.364 . S
C358 C359 1.400 . S
C359 H347 0.931 . S
C359 C354 1.408 . S
C359 C358 1.400 . S
H360 C366 0.930 . S
H361 C369 0.931 . S
H362 C371 0.931 . S
H363 C373 0.930 . S
H364 C375 0.930 . S
H365 C377 0.931 . S
C366 H360 0.930 . S
C366 C367 1.380 . S
C366 C368 1.394 . S
C367 C366 1.380 . S
C367 C371 1.382 . S
C368 C366 1.394 . S
C368 C369 1.400 . S
C369 H361 0.931 . S
C369 C368 1.400 . S
C369 C370 1.375 . S
C370 C369 1.375 . S
C370 C371 1.415 . S
C370 C372 1.501 . S
C371 H362 0.931 . S
C371 C367 1.382 . S
C371 C370 1.415 . S
C372 C370 1.501 . S
C372 C373 1.384 . S
C372 C377 1.408 . S
C373 H363 0.930 . S
C373 C372 1.384 . S
C373 C374 1.389 . S
C374 C373 1.389 . S
C374 C375 1.405 . S
C375 H364 0.930 . S
C375 C374 1.405 . S
C375 C376 1.364 . S
C376 C375 1.364 . S
C376 C377 1.400 . S
C377 H365 0.931 . S
C377 C372 1.408 . S
C377 C376 1.400 . S
H378 C384 0.930 . S
H379 C387 0.931 . S
H380 C389 0.931 . S
H381 C391 0.930 . S
H382 C393 0.930 . S
H383 C395 0.931 . S
C384 H378 0.930 . S
C384 C385 1.380 . S
C384 C386 1.394 . S
C385 C384 1.380 . S
C385 C389 1.382 . S
C386 C384 1.394 . S
C386 C387 1.400 . S
C387 H379 0.931 . S
C387 C386 1.400 . S
C387 C388 1.375 . S
C388 C387 1.375 . S
C388 C389 1.415 . S
C388 C390 1.501 . S
C389 H380 0.931 . S
C389 C385 1.382 . S
C389 C388 1.415 . S
C390 C388 1.501 . S
C390 C391 1.384 . S
C390 C395 1.408 . S
C391 H381 0.930 . S
C391 C390 1.384 . S
C391 C392 1.389 . S
C392 C391 1.389 . S
C392 C393 1.405 . S
C393 H382 0.930 . S
C393 C392 1.405 . S
C393 C394 1.364 . S
C394 C393 1.364 . S
C394 C395 1.400 . S
C395 H383 0.931 . S
C395 C390 1.408 . S
C395 C394 1.400 . S
H396 C402 0.930 . S
H397 C405 0.931 . S
H398 C407 0.931 . S
H399 C409 0.930 . S
H400 C411 0.930 . S
H401 C413 0.931 . S
C402 H396 0.930 . S
C402 C403 1.380 . S
C402 C404 1.394 . S
C403 C402 1.380 . S
C403 C407 1.382 . S
C404 C402 1.394 . S
C404 C405 1.400 . S
C405 H397 0.931 . S
C405 C404 1.400 . S
C405 C406 1.375 . S
C406 C405 1.375 . S
C406 C407 1.415 . S
C406 C408 1.501 . S
C407 H398 0.931 . S
C407 C403 1.382 . S
C407 C406 1.415 . S
C408 C406 1.501 . S
C408 C409 1.384 . S
C408 C413 1.408 . S
C409 H399 0.930 . S
C409 C408 1.384 . S
C409 C410 1.389 . S
C410 C409 1.389 . S
C410 C411 1.405 . S
C411 H400 0.930 . S
C411 C410 1.405 . S
C411 C412 1.364 . S
C412 C411 1.364 . S
C412 C413 1.400 . S
C413 H401 0.931 . S
C413 C408 1.408 . S
C413 C412 1.400 . S
H414 C420 0.966 . S
H415 C423 0.931 . S
H416 C425 0.931 . S
H417 C427 0.930 . S
H418 C429 0.894 . S
H419 C431 0.937 1_655 S
C420 H414 0.966 . S
C420 C421 1.381 . S
C420 C422 1.394 1_655 S
C421 C420 1.381 . S
C421 C425 1.382 . S
C422 C420 1.394 1_455 S
C422 C423 1.400 . S
C423 H415 0.931 . S
C423 C422 1.400 . S
C423 C424 1.375 . S
C424 C423 1.375 . S
C424 C425 1.415 1_455 S
C424 C426 1.501 . S
C425 H416 0.931 . S
C425 C421 1.382 . S
C425 C424 1.415 1_655 S
C426 C424 1.501 . S
C426 C427 1.384 . S
C426 C431 1.419 . S
C427 H417 0.930 . S
C427 C426 1.384 . S
C427 C428 1.389 . S
C428 C427 1.389 . S
C428 C429 1.430 . S
C429 H418 0.894 . S
C429 C428 1.430 . S
C429 C430 1.379 . S
C430 C429 1.379 . S
C430 C431 1.391 . S
C431 H419 0.937 1_455 S
C431 C426 1.419 . S
C431 C430 1.391 . S
H432 C438 0.930 . S
H433 C441 0.931 . S
H434 C443 0.931 . S
H435 C445 0.930 . S
H436 C447 0.930 . S
H437 C449 0.931 . S
C438 H432 0.930 . S
C438 C439 1.380 . S
C438 C440 1.394 . S
C439 C438 1.380 . S
C439 C443 1.382 . S
C440 C438 1.394 . S
C440 C441 1.400 . S
C441 H433 0.931 . S
C441 C440 1.400 . S
C441 C442 1.375 . S
C442 C441 1.375 . S
C442 C443 1.415 . S
C442 C444 1.501 . S
C443 H434 0.931 . S
C443 C439 1.382 . S
C443 C442 1.415 . S
C444 C442 1.501 . S
C444 C445 1.384 . S
C444 C449 1.408 . S
C445 H435 0.930 . S
C445 C444 1.384 . S
C445 C446 1.389 . S
C446 C445 1.389 . S
C446 C447 1.405 . S
C447 H436 0.930 . S
C447 C446 1.405 . S
C447 C448 1.364 . S
C448 C447 1.364 . S
C448 C449 1.400 . S
C449 H437 0.931 . S
C449 C444 1.408 . S
C449 C448 1.400 . S
H450 C456 0.887 . S
H451 C459 0.931 . S
H452 C461 0.931 . S
H453 C463 0.930 . S
H454 C465 0.980 . S
H455 C467 0.920 . S
C456 H450 0.887 . S
C456 C457 1.379 . S
C456 C458 1.390 1_545 S
C457 C456 1.379 . S
C457 C461 1.382 . S
C458 C456 1.390 1_565 S
C458 C459 1.400 . S
C459 H451 0.931 . S
C459 C458 1.400 . S
C459 C460 1.375 . S
C460 C459 1.375 . S
C460 C461 1.415 1_565 S
C460 C462 1.501 . S
C461 H452 0.931 . S
C461 C457 1.382 . S
C461 C460 1.415 1_545 S
C462 C460 1.501 . S
C462 C463 1.384 . S
C462 C467 1.397 . S
C463 H453 0.930 . S
C463 C462 1.384 . S
C463 C464 1.350 . S
C464 C463 1.350 . S
C464 C465 1.404 . S
C465 H454 0.980 . S
C465 C464 1.404 . S
C465 C466 1.351 . S
C466 C465 1.351 . S
C466 C467 1.409 . S
C467 H455 0.920 . S
C467 C462 1.397 . S
C467 C466 1.409 . S
H468 C474 0.909 . S
H469 C477 0.931 . S
H470 C479 0.931 1_545 S
H471 C481 0.930 . S
H472 C483 0.894 . S
H473 C485 0.931 . S
C474 H468 0.909 . S
C474 C475 1.385 . S
C474 C476 1.414 1_545 S
C475 C474 1.385 . S
C475 C479 1.401 1_545 S
C476 C474 1.414 1_565 S
C476 C477 1.385 . S
C477 H469 0.931 . S
C477 C476 1.385 . S
C477 C478 1.375 . S
C478 C477 1.375 . S
C478 C479 1.413 . S
C478 C480 1.501 . S
C479 H470 0.931 1_565 S
C479 C475 1.401 1_565 S
C479 C478 1.413 . S
C480 C478 1.501 . S
C480 C481 1.384 . S
C480 C485 1.408 1_565 S
C481 H471 0.930 . S
C481 C480 1.384 . S
C481 C482 1.389 . S
C482 C481 1.389 . S
C482 C483 1.440 . S
C483 H472 0.894 . S
C483 C482 1.440 . S
C483 C484 1.374 1_565 S
C484 C483 1.374 1_545 S
C484 C485 1.400 . S
C485 H473 0.931 . S
C485 C480 1.408 1_545 S
C485 C484 1.400 . S
H486 C492 0.963 . S
H487 C495 0.931 . S
H488 C497 0.934 . S
H489 C499 0.930 . S
H490 C501 0.981 . S
H491 C503 0.931 . S
C492 H486 0.963 . S
C492 C493 1.373 . S
C492 C494 1.371 1_655 S
C493 C492 1.373 . S
C493 C497 1.361 1_655 S
C494 C492 1.371 1_455 S
C494 C495 1.413 . S
C495 H487 0.931 . S
C495 C494 1.413 . S
C495 C496 1.375 . S
C496 C495 1.375 . S
C496 C497 1.419 . S
C496 C498 1.501 . S
C497 H488 0.934 . S
C497 C493 1.361 1_455 S
C497 C496 1.419 . S
C498 C496 1.501 . S
C498 C499 1.384 . S
C498 C503 1.408 1_455 S
C499 H489 0.930 . S
C499 C498 1.384 . S
C499 C500 1.389 . S
C500 C499 1.389 . S
C500 C501 1.395 . S
C501 H490 0.981 . S
C501 C500 1.395 . S
C501 C502 1.331 1_455 S
C502 C501 1.331 1_655 S
C502 C503 1.400 . S
C503 H491 0.931 . S
C503 C498 1.408 1_655 S
C503 C502 1.400 . S
H504 C510 0.930 . S
H505 C513 0.931 . S
H506 C515 0.931 . S
H507 C517 0.930 . S
H508 C519 0.930 . S
H509 C521 0.931 . S
C510 H504 0.930 . S
C510 C511 1.380 . S
C510 C512 1.394 . S
C511 C510 1.380 . S
C511 C515 1.382 . S
C512 C510 1.394 . S
C512 C513 1.400 . S
C513 H505 0.931 . S
C513 C512 1.400 . S
C513 C514 1.375 . S
C514 C513 1.375 . S
C514 C515 1.415 . S
C514 C516 1.501 . S
C515 H506 0.931 . S
C515 C511 1.382 . S
C515 C514 1.415 . S
C516 C514 1.501 . S
C516 C517 1.384 . S
C516 C521 1.408 . S
C517 H507 0.930 . S
C517 C516 1.384 . S
C517 C518 1.389 . S
C518 C517 1.389 . S
C518 C519 1.405 . S
C519 H508 0.930 . S
C519 C518 1.405 . S
C519 C520 1.364 . S
C520 C519 1.364 . S
C520 C521 1.400 . S
C521 H509 0.931 . S
C521 C516 1.408 . S
C521 C520 1.400 . S
H522 C528 0.930 . S
H523 C531 0.931 . S
H524 C533 0.931 . S
H525 C535 0.930 . S
H526 C537 0.930 . S
H527 C539 0.931 . S
C528 H522 0.930 . S
C528 C529 1.380 . S
C528 C530 1.394 . S
C529 C528 1.380 . S
C529 C533 1.382 . S
C530 C528 1.394 . S
C530 C531 1.400 . S
C531 H523 0.931 . S
C531 C530 1.400 . S
C531 C532 1.375 . S
C532 C531 1.375 . S
C532 C533 1.415 . S
C532 C534 1.501 . S
C533 H524 0.931 . S
C533 C529 1.382 . S
C533 C532 1.415 . S
C534 C532 1.501 . S
C534 C535 1.384 . S
C534 C539 1.408 . S
C535 H525 0.930 . S
C535 C534 1.384 . S
C535 C536 1.389 . S
C536 C535 1.389 . S
C536 C537 1.405 . S
C537 H526 0.930 . S
C537 C536 1.405 . S
C537 C538 1.364 . S
C538 C537 1.364 . S
C538 C539 1.400 . S
C539 H527 0.931 . S
C539 C534 1.408 . S
C539 C538 1.400 . S
H540 C546 0.930 . S
H541 C549 0.931 . S
H542 C551 0.931 . S
H543 C553 0.930 . S
H544 C555 0.930 . S
H545 C557 0.931 . S
C546 H540 0.930 . S
C546 C547 1.380 . S
C546 C548 1.394 . S
C547 C546 1.380 . S
C547 C551 1.382 . S
C548 C546 1.394 . S
C548 C549 1.400 . S
C549 H541 0.931 . S
C549 C548 1.400 . S
C549 C550 1.375 . S
C550 C549 1.375 . S
C550 C551 1.415 . S
C550 C552 1.501 . S
C551 H542 0.931 . S
C551 C547 1.382 . S
C551 C550 1.415 . S
C552 C550 1.501 . S
C552 C553 1.384 . S
C552 C557 1.408 . S
C553 H543 0.930 . S
C553 C552 1.384 . S
C553 C554 1.389 . S
C554 C553 1.389 . S
C554 C555 1.405 . S
C555 H544 0.930 . S
C555 C554 1.405 . S
C555 C556 1.364 . S
C556 C555 1.364 . S
C556 C557 1.400 . S
C557 H545 0.931 . S
C557 C552 1.408 . S
C557 C556 1.400 . S
H558 C564 0.930 . S
H559 C567 0.931 . S
H560 C569 0.931 . S
H561 C571 0.930 . S
H562 C573 0.930 . S
H563 C575 0.931 . S
C564 H558 0.930 . S
C564 C565 1.380 . S
C564 C566 1.394 . S
C565 C564 1.380 . S
C565 C569 1.382 . S
C566 C564 1.394 . S
C566 C567 1.400 . S
C567 H559 0.931 . S
C567 C566 1.400 . S
C567 C568 1.375 . S
C568 C567 1.375 . S
C568 C569 1.415 . S
C568 C570 1.501 . S
C569 H560 0.931 . S
C569 C565 1.382 . S
C569 C568 1.415 . S
C570 C568 1.501 . S
C570 C571 1.384 . S
C570 C575 1.408 . S
C571 H561 0.930 . S
C571 C570 1.384 . S
C571 C572 1.389 . S
C572 C571 1.389 . S
C572 C573 1.405 . S
C573 H562 0.930 . S
C573 C572 1.405 . S
C573 C574 1.364 . S
C574 C573 1.364 . S
C574 C575 1.400 . S
C575 H563 0.931 . S
C575 C570 1.408 . S
C575 C574 1.400 . S
H576 C584 0.929 . S
H577 C586 0.930 . S
H578 C588 0.930 . S
H579 C591 0.929 . S
H580 C594 0.930 . S
H581 C596 0.960 . S
H582 C596 0.960 . S
H583 C596 0.960 . S
C584 H576 0.929 . S
C584 C585 1.377 1_455 S
C584 C586 1.384 . S
C585 C584 1.377 1_655 S
C585 C591 1.390 . S
C586 H577 0.930 . S
C586 C584 1.384 . S
C586 C587 1.372 1_455 S
C587 C586 1.372 1_655 S
C587 C588 1.400 . S
C587 C592 1.490 . S
C588 H578 0.930 . S
C588 C587 1.400 . S
C588 C591 1.386 . S
H589 C605 0.930 . S
H590 C606 0.931 . S
C591 H579 0.929 . S
C591 C585 1.390 . S
C591 C588 1.386 . S
C592 C587 1.490 . S
C592 C594 1.395 1_655 S
C592 C595 1.403 . S
H593 C599 0.930 . S
C594 H580 0.930 . S
C594 C592 1.395 1_455 S
C594 C597 1.403 . S
C595 C592 1.403 . S
C595 C596 1.524 . S
C595 C599 1.400 . S
C596 H581 0.960 . S
C596 H582 0.960 . S
C596 H583 0.960 . S
C596 C595 1.524 . S
C597 C594 1.403 . S
C597 C598 1.385 1_455 S
C597 C601 1.495 . S
C598 C597 1.385 1_655 S
C598 C599 1.387 . S
C598 C600 1.458 . S
C599 H593 0.930 . S
C599 C595 1.400 . S
C599 C598 1.387 . S
C600 C598 1.458 . S
C600 C602 1.350 1_655 S
C600 C606 1.442 . S
C601 C597 1.495 . S
C601 H607 0.959 . S
C601 H608 0.961 . S
C601 H609 0.960 . S
C602 C600 1.350 1_455 S
C602 C603 1.394 . S
C602 H610 0.930 . S
C603 C602 1.394 . S
C603 C604 1.383 1_455 S
C603 H611 0.929 . S
C604 C603 1.383 1_655 S
C604 C605 1.377 . S
C605 H589 0.930 . S
C605 C604 1.377 . S
C605 C606 1.379 . S
C606 H590 0.931 . S
C606 C600 1.442 . S
C606 C605 1.379 . S
H607 C601 0.959 . S
H608 C601 0.961 . S
H609 C601 0.960 . S
H610 C602 0.930 . S
H611 C603 0.929 . S
H612 C620 0.929 . S
H613 C622 0.930 . S
H614 C624 0.930 . S
H615 C627 0.929 . S
H616 C630 0.930 . S
H617 C632 0.960 . S
H618 C632 0.960 . S
H619 C632 0.960 . S
C620 H612 0.929 . S
C620 C621 1.377 . S
C620 C622 1.384 . S
C621 C620 1.377 . S
C621 C627 1.390 . S
C622 H613 0.930 . S
C622 C620 1.384 . S
C622 C623 1.372 . S
C623 C622 1.372 . S
C623 C624 1.400 . S
C623 C628 1.490 . S
C624 H614 0.930 . S
C624 C623 1.400 . S
C624 C627 1.386 . S
H625 C641 0.930 . S
H626 C642 0.931 . S
C627 H615 0.929 . S
C627 C621 1.390 . S
C627 C624 1.386 . S
C628 C623 1.490 . S
C628 C630 1.395 . S
C628 C631 1.403 . S
H629 C635 0.930 . S
C630 H616 0.930 . S
C630 C628 1.395 . S
C630 C633 1.403 . S
C631 C628 1.403 . S
C631 C632 1.524 . S
C631 C635 1.400 . S
C632 H617 0.960 . S
C632 H618 0.960 . S
C632 H619 0.960 . S
C632 C631 1.524 . S
C633 C630 1.403 . S
C633 C634 1.392 . S
C633 C637 1.495 . S
C634 C633 1.392 . S
C634 C635 1.385 . S
C634 C636 1.478 . S
C635 H629 0.930 . S
C635 C631 1.400 . S
C635 C634 1.385 . S
C636 C634 1.478 . S
C636 C638 1.381 . S
C636 C642 1.383 . S
C637 C633 1.495 . S
C637 H643 0.959 . S
C637 H644 0.961 . S
C637 H645 0.960 . S
C638 C636 1.381 . S
C638 C639 1.394 . S
C638 H646 0.930 . S
C639 C638 1.394 . S
C639 C640 1.383 . S
C639 H647 0.929 . S
C640 C639 1.383 . S
C640 C641 1.377 . S
C641 H625 0.930 . S
C641 C640 1.377 . S
C641 C642 1.379 . S
C642 H626 0.931 . S
C642 C636 1.383 . S
C642 C641 1.379 . S
H643 C637 0.959 . S
H644 C637 0.961 . S
H645 C637 0.960 . S
H646 C638 0.930 . S
H647 C639 0.929 . S
H648 C656 0.929 . S
H649 C658 0.930 . S
H650 C660 0.913 1_565 S
H651 C663 0.929 1_565 S
H652 C666 0.930 . S
H653 C668 0.960 . S
H654 C668 0.960 . S
H655 C668 0.960 . S
C656 H648 0.929 . S
C656 C657 1.377 . S
C656 C658 1.384 . S
C657 C656 1.377 . S
C657 C663 1.390 . S
C658 H649 0.930 . S
C658 C656 1.384 . S
C658 C659 1.372 . S
C659 C658 1.372 . S
C659 C660 1.392 . S
C659 C664 1.490 . S
C660 H650 0.913 1_545 S
C660 C659 1.392 . S
C660 C663 1.415 . S
H661 C677 0.930 1_565 S
H662 C678 0.931 . S
C663 H651 0.929 1_545 S
C663 C657 1.390 . S
C663 C660 1.415 . S
C664 C659 1.490 . S
C664 C666 1.395 . S
C664 C667 1.403 1_545 S
H665 C671 0.930 . S
C666 H652 0.930 . S
C666 C664 1.395 . S
C666 C669 1.403 . S
C667 C664 1.403 1_565 S
C667 C668 1.524 . S
C667 C671 1.400 . S
C668 H653 0.960 . S
C668 H654 0.960 . S
C668 H655 0.960 . S
C668 C667 1.524 . S
C669 C666 1.403 . S
C669 C670 1.392 . S
C669 C673 1.495 . S
C670 C669 1.392 . S
C670 C671 1.385 1_545 S
C670 C672 1.478 . S
C671 H665 0.930 . S
C671 C667 1.400 . S
C671 C670 1.385 1_565 S
C672 C670 1.478 . S
C672 C674 1.381 . S
C672 C678 1.383 . S
C673 C669 1.495 . S
C673 H679 0.959 . S
C673 H680 0.961 . S
C673 H681 0.960 . S
C674 C672 1.381 . S
C674 C675 1.394 . S
C674 H682 0.930 . S
C675 C674 1.394 . S
C675 C676 1.383 . S
C675 H683 0.929 . S
C676 C675 1.383 . S
C676 C677 1.377 . S
C677 H661 0.930 1_545 S
C677 C676 1.377 . S
C677 C678 1.379 . S
C678 H662 0.931 . S
C678 C672 1.383 . S
C678 C677 1.379 . S
H679 C673 0.959 . S
H680 C673 0.961 . S
H681 C673 0.960 . S
H682 C674 0.930 . S
H683 C675 0.929 . S
H684 C692 0.929 . S
H685 C694 0.930 . S
H686 C696 0.930 . S
H687 C699 0.929 . S
H688 C702 0.930 . S
H689 C704 0.960 . S
H690 C704 0.960 1_545 S
H691 C704 0.960 . S
C692 H684 0.929 . S
C692 C693 1.377 1_545 S
C692 C694 1.384 . S
C693 C692 1.377 1_565 S
C693 C699 1.390 . S
C694 H685 0.930 . S
C694 C692 1.384 . S
C694 C695 1.372 1_545 S
C695 C694 1.372 1_565 S
C695 C696 1.400 . S
C695 C700 1.490 . S
C696 H686 0.930 . S
C696 C695 1.400 . S
C696 C699 1.386 . S
H697 C713 0.930 . S
H698 C714 0.931 . S
C699 H687 0.929 . S
C699 C693 1.390 . S
C699 C696 1.386 . S
C700 C695 1.490 . S
C700 C702 1.395 . S
C700 C703 1.403 . S
H701 C707 0.930 . S
C702 H688 0.930 . S
C702 C700 1.395 . S
C702 C705 1.403 . S
C703 C700 1.403 . S
C703 C704 1.524 . S
C703 C707 1.400 . S
C704 H689 0.960 . S
C704 H690 0.960 1_565 S
C704 H691 0.960 . S
C704 C703 1.524 . S
C705 C702 1.403 . S
C705 C706 1.392 . S
C705 C709 1.495 . S
C706 C705 1.392 . S
C706 C707 1.385 . S
C706 C708 1.478 . S
C707 H701 0.930 . S
C707 C703 1.400 . S
C707 C706 1.385 . S
C708 C706 1.478 . S
C708 C710 1.381 1_565 S
C708 C714 1.383 . S
C709 C705 1.495 . S
C709 H715 0.959 . S
C709 H716 0.961 . S
C709 H717 0.960 1_565 S
C710 C708 1.381 1_545 S
C710 C711 1.394 . S
C710 H718 0.930 . S
C711 C710 1.394 . S
C711 C712 1.383 1_545 S
C711 H719 0.929 . S
C712 C711 1.383 1_565 S
C712 C713 1.377 . S
C713 H697 0.930 . S
C713 C712 1.377 . S
C713 C714 1.379 . S
C714 H698 0.931 . S
C714 C708 1.383 . S
C714 C713 1.379 . S
H715 C709 0.959 . S
H716 C709 0.961 . S
H717 C709 0.960 1_545 S
H718 C710 0.930 . S
H719 C711 0.929 . S
H720 C728 0.929 . S
H721 C730 0.930 . S
H722 C732 0.930 1_655 S
H723 C735 0.929 1_655 S
H724 C738 0.930 . S
H725 C740 0.960 . S
H726 C740 0.960 . S
H727 C740 0.960 . S
C728 H720 0.929 . S
C728 C729 1.377 . S
C728 C730 1.384 . S
C729 C728 1.377 . S
C729 C735 1.390 . S
C730 H721 0.930 . S
C730 C728 1.384 . S
C730 C731 1.372 . S
C731 C730 1.372 . S
C731 C732 1.400 . S
C731 C736 1.490 . S
C732 H722 0.930 1_455 S
C732 C731 1.400 . S
C732 C735 1.386 . S
H733 C749 0.927 . S
H734 C750 0.931 1_655 S
C735 H723 0.929 1_455 S
C735 C729 1.390 . S
C735 C732 1.386 . S
C736 C731 1.490 . S
C736 C738 1.395 . S
C736 C739 1.403 1_455 S
H737 C743 0.930 . S
C738 H724 0.930 . S
C738 C736 1.395 . S
C738 C741 1.403 . S
C739 C736 1.403 1_655 S
C739 C740 1.524 . S
C739 C743 1.400 . S
C740 H725 0.960 . S
C740 H726 0.960 . S
C740 H727 0.960 . S
C740 C739 1.524 . S
C741 C738 1.403 . S
C741 C742 1.392 . S
C741 C745 1.495 . S
C742 C741 1.392 . S
C742 C743 1.385 1_455 S
C742 C744 1.478 . S
C743 H737 0.930 . S
C743 C739 1.400 . S
C743 C742 1.385 1_655 S
C744 C742 1.478 . S
C744 C746 1.381 . S
C744 C750 1.383 . S
C745 C741 1.495 . S
C745 H751 0.959 . S
C745 H752 0.961 . S
C745 H753 0.960 . S
C746 C744 1.381 . S
C746 C747 1.394 . S
C746 H754 0.930 . S
C747 C746 1.394 . S
C747 C748 1.383 . S
C747 H755 0.929 . S
C748 C747 1.383 . S
C748 C749 1.376 1_455 S
C749 H733 0.927 . S
C749 C748 1.376 1_655 S
C749 C750 1.382 1_655 S
C750 H734 0.931 1_455 S
C750 C744 1.383 . S
C750 C749 1.382 1_455 S
H751 C745 0.959 . S
H752 C745 0.961 . S
H753 C745 0.960 . S
H754 C746 0.930 . S
H755 C747 0.929 . S
H756 C764 0.929 . S
H757 C766 0.930 . S
H758 C768 0.930 . S
H759 C771 0.929 . S
H760 C774 0.930 . S
H761 C776 0.960 . S
H762 C776 0.960 . S
H763 C776 0.960 . S
C764 H756 0.929 . S
C764 C765 1.377 . S
C764 C766 1.384 . S
C765 C764 1.377 . S
C765 C771 1.390 . S
C766 H757 0.930 . S
C766 C764 1.384 . S
C766 C767 1.372 . S
C767 C766 1.372 . S
C767 C768 1.400 . S
C767 C772 1.490 . S
C768 H758 0.930 . S
C768 C767 1.400 . S
C768 C771 1.386 . S
H769 C785 0.930 . S
H770 C786 0.931 . S
C771 H759 0.929 . S
C771 C765 1.390 . S
C771 C768 1.386 . S
C772 C767 1.490 . S
C772 C774 1.395 . S
C772 C775 1.403 . S
H773 C779 0.930 . S
C774 H760 0.930 . S
C774 C772 1.395 . S
C774 C777 1.403 . S
C775 C772 1.403 . S
C775 C776 1.524 . S
C775 C779 1.400 . S
C776 H761 0.960 . S
C776 H762 0.960 . S
C776 H763 0.960 . S
C776 C775 1.524 . S
C777 C774 1.403 . S
C777 C778 1.392 . S
C777 C781 1.495 . S
C778 C777 1.392 . S
C778 C779 1.385 . S
C778 C780 1.478 . S
C779 H773 0.930 . S
C779 C775 1.400 . S
C779 C778 1.385 . S
C780 C778 1.478 . S
C780 C782 1.381 . S
C780 C786 1.383 . S
C781 C777 1.495 . S
C781 H787 0.959 . S
C781 H788 0.961 . S
C781 H789 0.960 . S
C782 C780 1.381 . S
C782 C783 1.394 . S
C782 H790 0.930 . S
C783 C782 1.394 . S
C783 C784 1.383 . S
C783 H791 0.929 . S
C784 C783 1.383 . S
C784 C785 1.377 . S
C785 H769 0.930 . S
C785 C784 1.377 . S
C785 C786 1.379 . S
C786 H770 0.931 . S
C786 C780 1.383 . S
C786 C785 1.379 . S
H787 C781 0.959 . S
H788 C781 0.961 . S
H789 C781 0.960 . S
H790 C782 0.930 . S
H791 C783 0.929 . S
H792 C800 0.929 . S
H793 C802 0.930 . S
H794 C804 0.930 . S
H795 C807 0.929 . S
H796 C810 0.930 . S
H797 C812 0.960 . S
H798 C812 0.960 . S
H799 C812 0.960 . S
C800 H792 0.929 . S
C800 C801 1.377 . S
C800 C802 1.384 . S
C801 C800 1.377 . S
C801 C807 1.390 1_455 S
C802 H793 0.930 . S
C802 C800 1.384 . S
C802 C803 1.372 . S
C803 C802 1.372 . S
C803 C804 1.400 1_455 S
C803 C808 1.490 . S
C804 H794 0.930 . S
C804 C803 1.400 1_655 S
C804 C807 1.386 . S
H805 C821 0.930 . S
H806 C822 0.931 . S
C807 H795 0.929 . S
C807 C801 1.390 1_655 S
C807 C804 1.386 . S
C808 C803 1.490 . S
C808 C810 1.395 . S
C808 C811 1.403 1_455 S
H809 C815 0.930 . S
C810 H796 0.930 . S
C810 C808 1.395 . S
C810 C813 1.403 . S
C811 C808 1.403 1_655 S
C811 C812 1.524 . S
C811 C815 1.400 . S
C812 H797 0.960 . S
C812 H798 0.960 . S
C812 H799 0.960 . S
C812 C811 1.524 . S
C813 C810 1.403 . S
C813 C814 1.392 . S
C813 C817 1.495 . S
C814 C813 1.392 . S
C814 C815 1.385 1_455 S
C814 C816 1.478 . S
C815 H809 0.930 . S
C815 C811 1.400 . S
C815 C814 1.385 1_655 S
C816 C814 1.478 . S
C816 C818 1.381 . S
C816 C822 1.383 1_455 S
C817 C813 1.495 . S
C817 H823 0.959 . S
C817 H824 0.961 . S
C817 H825 0.960 . S
C818 C816 1.381 . S
C818 C819 1.394 . S
C818 H826 0.930 . S
C819 C818 1.394 . S
C819 C820 1.418 . S
C819 H827 0.929 . S
C820 C819 1.418 . S
C820 C821 1.320 1_455 S
C821 H805 0.930 . S
C821 C820 1.320 1_655 S
C821 C822 1.379 . S
C822 H806 0.931 . S
C822 C816 1.383 1_655 S
C822 C821 1.379 . S
H823 C817 0.959 . S
H824 C817 0.961 . S
H825 C817 0.960 . S
H826 C818 0.930 . S
H827 C819 0.929 . S
H828 C836 0.929 . S
H829 C838 0.930 . S
H830 C840 0.930 . S
H831 C843 0.929 . S
H832 C846 0.930 . S
H833 C848 0.960 . S
H834 C848 0.960 . S
H835 C848 0.960 . S
C836 H828 0.929 . S
C836 C837 1.377 . S
C836 C838 1.384 . S
C837 C836 1.377 . S
C837 C843 1.390 . S
C838 H829 0.930 . S
C838 C836 1.384 . S
C838 C839 1.372 . S
C839 C838 1.372 . S
C839 C840 1.400 . S
C839 C844 1.490 . S
C840 H830 0.930 . S
C840 C839 1.400 . S
C840 C843 1.386 . S
H841 C857 0.930 . S
H842 C858 0.931 . S
C843 H831 0.929 . S
C843 C837 1.390 . S
C843 C840 1.386 . S
C844 C839 1.490 . S
C844 C846 1.395 . S
C844 C847 1.403 . S
H845 C851 0.930 . S
C846 H832 0.930 . S
C846 C844 1.395 . S
C846 C849 1.403 . S
C847 C844 1.403 . S
C847 C848 1.524 . S
C847 C851 1.400 . S
C848 H833 0.960 . S
C848 H834 0.960 . S
C848 H835 0.960 . S
C848 C847 1.524 . S
C849 C846 1.403 . S
C849 C850 1.392 . S
C849 C853 1.495 . S
C850 C849 1.392 . S
C850 C851 1.385 . S
C850 C852 1.478 . S
C851 H845 0.930 . S
C851 C847 1.400 . S
C851 C850 1.385 . S
C852 C850 1.478 . S
C852 C854 1.381 . S
C852 C858 1.383 . S
C853 C849 1.495 . S
C853 H859 0.959 . S
C853 H860 0.961 . S
C853 H861 0.960 . S
C854 C852 1.381 . S
C854 C855 1.394 . S
C854 H862 0.930 . S
C855 C854 1.394 . S
C855 C856 1.383 . S
C855 H863 0.929 . S
C856 C855 1.383 . S
C856 C857 1.377 . S
C857 H841 0.930 . S
C857 C856 1.377 . S
C857 C858 1.379 . S
C858 H842 0.931 . S
C858 C852 1.383 . S
C858 C857 1.379 . S
H859 C853 0.959 . S
H860 C853 0.961 . S
H861 C853 0.960 . S
H862 C854 0.930 . S
H863 C855 0.929 . S
H864 C872 0.929 . S
H865 C874 0.930 . S
H866 C876 0.930 . S
H867 C879 0.929 . S
H868 C882 0.930 . S
H869 C884 0.960 . S
H870 C884 0.960 . S
H871 C884 0.960 1_545 S
C872 H864 0.929 . S
C872 C873 1.377 . S
C872 C874 1.384 . S
C873 C872 1.377 . S
C873 C879 1.390 1_565 S
C874 H865 0.930 . S
C874 C872 1.384 . S
C874 C875 1.372 . S
C875 C874 1.372 . S
C875 C876 1.400 1_565 S
C875 C880 1.490 . S
C876 H866 0.930 . S
C876 C875 1.400 1_545 S
C876 C879 1.386 . S
H877 C893 0.930 . S
H878 C894 0.931 . S
C879 H867 0.929 . S
C879 C873 1.390 1_545 S
C879 C876 1.386 . S
C880 C875 1.490 . S
C880 C882 1.395 . S
C880 C883 1.403 . S
H881 C887 0.930 . S
C882 H868 0.930 . S
C882 C880 1.395 . S
C882 C885 1.441 . S
C883 C880 1.403 . S
C883 C884 1.524 . S
C883 C887 1.400 . S
C884 H869 0.960 . S
C884 H870 0.960 . S
C884 H871 0.960 1_565 S
C884 C883 1.524 . S
C885 C882 1.441 . S
C885 C886 1.397 . S
C885 C889 1.452 1_565 S
C886 C885 1.397 . S
C886 C887 1.385 . S
C886 C888 1.485 . S
C887 H881 0.930 . S
C887 C883 1.400 . S
C887 C886 1.385 . S
C888 C886 1.485 . S
C888 C890 1.387 . S
C888 C894 1.371 1_565 S
C889 C885 1.452 1_545 S
C889 H895 0.959 . S
C889 H896 0.976 . S
C889 H897 0.954 1_545 S
C890 C888 1.387 . S
C890 C891 1.394 . S
C890 H898 0.930 . S
C891 C890 1.394 . S
C891 C892 1.349 1_565 S
C891 H899 0.929 . S
C892 C891 1.349 1_545 S
C892 C893 1.393 . S
C893 H877 0.930 . S
C893 C892 1.393 . S
C893 C894 1.379 . S
C894 H878 0.931 . S
C894 C888 1.371 1_545 S
C894 C893 1.379 . S
H895 C889 0.959 . S
H896 C889 0.976 . S
H897 C889 0.954 1_565 S
H898 C890 0.930 . S
H899 C891 0.929 . S
H900 C908 0.929 . S
H901 C910 0.930 . S
H902 C912 0.930 . S
H903 C915 0.929 . S
H904 C918 0.930 . S
H905 C920 0.960 . S
H906 C920 0.960 1_565 S
H907 C920 0.960 . S
C908 H900 0.929 . S
C908 C909 1.377 1_565 S
C908 C910 1.384 . S
C909 C908 1.377 1_545 S
C909 C915 1.390 . S
C910 H901 0.930 . S
C910 C908 1.384 . S
C910 C911 1.372 1_565 S
C911 C910 1.372 1_545 S
C911 C912 1.400 . S
C911 C916 1.490 . S
C912 H902 0.930 . S
C912 C911 1.400 . S
C912 C915 1.386 . S
H913 C929 0.930 . S
H914 C930 0.931 . S
C915 H903 0.929 . S
C915 C909 1.390 . S
C915 C912 1.386 . S
C916 C911 1.490 . S
C916 C918 1.395 . S
C916 C919 1.403 . S
H917 C923 0.930 . S
C918 H904 0.930 . S
C918 C916 1.395 . S
C918 C921 1.403 . S
C919 C916 1.403 . S
C919 C920 1.524 . S
C919 C923 1.400 . S
C920 H905 0.960 . S
C920 H906 0.960 1_545 S
C920 H907 0.960 . S
C920 C919 1.524 . S
C921 C918 1.403 . S
C921 C922 1.392 . S
C921 C925 1.495 . S
C922 C921 1.392 . S
C922 C923 1.385 . S
C922 C924 1.478 . S
C923 H917 0.930 . S
C923 C919 1.400 . S
C923 C922 1.385 . S
C924 C922 1.478 . S
C924 C926 1.381 1_545 S
C924 C930 1.383 . S
C925 C921 1.495 . S
C925 H931 0.959 . S
C925 H932 0.961 . S
C925 H933 0.960 1_545 S
C926 C924 1.381 1_565 S
C926 C927 1.394 . S
C926 H934 0.930 . S
C927 C926 1.394 . S
C927 C928 1.328 1_565 S
C927 H935 0.929 . S
C928 C927 1.328 1_545 S
C928 C929 1.413 . S
C929 H913 0.930 . S
C929 C928 1.413 . S
C929 C930 1.379 . S
C930 H914 0.931 . S
C930 C924 1.383 . S
C930 C929 1.379 . S
H931 C925 0.959 . S
H932 C925 0.961 . S
H933 C925 0.960 1_565 S
H934 C926 0.930 . S
H935 C927 0.929 . S
H936 C944 0.929 . S
H937 C946 0.930 . S
H938 C948 0.930 . S
H939 C951 0.929 . S
H940 C954 0.930 . S
H941 C956 0.960 . S
H942 C956 0.960 1_455 S
H943 C956 0.960 . S
C944 H936 0.929 . S
C944 C945 1.377 1_455 S
C944 C946 1.384 . S
C945 C944 1.377 1_655 S
C945 C951 1.390 . S
C946 H937 0.930 . S
C946 C944 1.384 . S
C946 C947 1.372 1_455 S
C947 C946 1.372 1_655 S
C947 C948 1.400 . S
C947 C952 1.490 . S
C948 H938 0.930 . S
C948 C947 1.400 . S
C948 C951 1.386 . S
H949 C965 0.930 . S
H950 C966 0.931 . S
C951 H939 0.929 . S
C951 C945 1.390 . S
C951 C948 1.386 . S
C952 C947 1.490 . S
C952 C954 1.395 . S
C952 C955 1.403 . S
H953 C959 0.930 . S
C954 H940 0.930 . S
C954 C952 1.395 . S
C954 C957 1.403 . S
C955 C952 1.403 . S
C955 C956 1.524 . S
C955 C959 1.400 . S
C956 H941 0.960 . S
C956 H942 0.960 1_655 S
C956 H943 0.960 . S
C956 C955 1.524 . S
C957 C954 1.403 . S
C957 C958 1.392 . S
C957 C961 1.495 . S
C958 C957 1.392 . S
C958 C959 1.385 . S
C958 C960 1.478 . S
C959 H953 0.930 . S
C959 C955 1.400 . S
C959 C958 1.385 . S
C960 C958 1.478 . S
C960 C962 1.381 1_655 S
C960 C966 1.383 . S
C961 C957 1.495 . S
C961 H967 0.959 . S
C961 H968 0.961 . S
C961 H969 0.960 1_655 S
C962 C960 1.381 1_455 S
C962 C963 1.394 . S
C962 H970 0.930 . S
C963 C962 1.394 . S
C963 C964 1.384 1_455 S
C963 H971 0.929 . S
C964 C963 1.384 1_655 S
C964 C965 1.376 . S
C965 H949 0.930 . S
C965 C964 1.376 . S
C965 C966 1.379 . S
C966 H950 0.931 . S
C966 C960 1.383 . S
C966 C965 1.379 . S
H967 C961 0.959 . S
H968 C961 0.961 . S
H969 C961 0.960 1_455 S
H970 C962 0.930 . S
H971 C963 0.929 . S
H972 C980 0.929 . S
H973 C982 0.930 . S
H974 C984 0.930 . S
H975 C987 0.929 . S
H976 C990 0.930 . S
H977 C992 0.960 . S
H978 C992 0.960 . S
H979 C992 0.960 . S
C980 H972 0.929 . S
C980 C981 1.377 . S
C980 C982 1.384 . S
C981 C980 1.377 . S
C981 C987 1.390 . S
C982 H973 0.930 . S
C982 C980 1.384 . S
C982 C983 1.372 . S
C983 C982 1.372 . S
C983 C984 1.400 . S
C983 C988 1.490 . S
C984 H974 0.930 . S
C984 C983 1.400 . S
C984 C987 1.386 . S
H985 C1001 0.930 . S
H986 C1002 0.931 . S
C987 H975 0.929 . S
C987 C981 1.390 . S
C987 C984 1.386 . S
C988 C983 1.490 . S
C988 C990 1.395 . S
C988 C991 1.403 . S
H989 C995 0.930 . S
C990 H976 0.930 . S
C990 C988 1.395 . S
C990 C993 1.403 . S
C991 C988 1.403 . S
C991 C992 1.524 . S
C991 C995 1.400 . S
C992 H977 0.960 . S
C992 H978 0.960 . S
C992 H979 0.960 . S
C992 C991 1.524 . S
C993 C990 1.403 . S
C993 C994 1.392 . S
C993 C997 1.495 . S
C994 C993 1.392 . S
C994 C995 1.385 . S
C994 C996 1.478 . S
C995 H989 0.930 . S
C995 C991 1.400 . S
C995 C994 1.385 . S
C996 C994 1.478 . S
C996 C998 1.381 . S
C996 C1002 1.383 . S
C997 C993 1.495 . S
C997 H1003 0.959 . S
C997 H1004 0.961 . S
C997 H1005 0.960 . S
C998 C996 1.381 . S
C998 C999 1.394 . S
C998 H1006 0.930 . S
C999 C998 1.394 . S
C999 C1000 1.383 . S
C999 H1007 0.929 . S
C1000 C999 1.383 . S
C1000 C1001 1.377 . S
C1001 H985 0.930 . S
C1001 C1000 1.377 . S
C1001 C1002 1.379 . S
C1002 H986 0.931 . S
C1002 C996 1.383 . S
C1002 C1001 1.379 . S
H1003 C997 0.959 . S
H1004 C997 0.961 . S
H1005 C997 0.960 . S
H1006 C998 0.930 . S
H1007 C999 0.929 . S
H1008 C1016 0.929 . S
H1009 C1018 0.930 . S
H1010 C1020 0.930 . S
H1011 C1023 0.929 . S
H1012 C1026 0.930 . S
H1013 C1028 0.960 . S
H1014 C1028 0.960 . S
H1015 C1028 0.960 . S
C1016 H1008 0.929 . S
C1016 C1017 1.377 . S
C1016 C1018 1.384 . S
C1017 C1016 1.377 . S
C1017 C1023 1.390 . S
C1018 H1009 0.930 . S
C1018 C1016 1.384 . S
C1018 C1019 1.372 . S
C1019 C1018 1.372 . S
C1019 C1020 1.400 . S
C1019 C1024 1.490 . S
C1020 H1010 0.930 . S
C1020 C1019 1.400 . S
C1020 C1023 1.386 . S
H1021 C1037 0.930 . S
H1022 C1038 0.931 . S
C1023 H1011 0.929 . S
C1023 C1017 1.390 . S
C1023 C1020 1.386 . S
C1024 C1019 1.490 . S
C1024 C1026 1.395 . S
C1024 C1027 1.403 . S
H1025 C1031 0.930 . S
C1026 H1012 0.930 . S
C1026 C1024 1.395 . S
C1026 C1029 1.403 . S
C1027 C1024 1.403 . S
C1027 C1028 1.524 . S
C1027 C1031 1.400 . S
C1028 H1013 0.960 . S
C1028 H1014 0.960 . S
C1028 H1015 0.960 . S
C1028 C1027 1.524 . S
C1029 C1026 1.403 . S
C1029 C1030 1.392 . S
C1029 C1033 1.495 . S
C1030 C1029 1.392 . S
C1030 C1031 1.385 . S
C1030 C1032 1.478 . S
C1031 H1025 0.930 . S
C1031 C1027 1.400 . S
C1031 C1030 1.385 . S
C1032 C1030 1.478 . S
C1032 C1034 1.381 . S
C1032 C1038 1.383 . S
C1033 C1029 1.495 . S
C1033 H1039 0.959 . S
C1033 H1040 0.961 . S
C1033 H1041 0.960 . S
C1034 C1032 1.381 . S
C1034 C1035 1.394 . S
C1034 H1042 0.930 . S
C1035 C1034 1.394 . S
C1035 C1036 1.383 . S
C1035 H1043 0.929 . S
C1036 C1035 1.383 . S
C1036 C1037 1.377 . S
C1037 H1021 0.930 . S
C1037 C1036 1.377 . S
C1037 C1038 1.379 . S
C1038 H1022 0.931 . S
C1038 C1032 1.383 . S
C1038 C1037 1.379 . S
H1039 C1033 0.959 . S
H1040 C1033 0.961 . S
H1041 C1033 0.960 . S
H1042 C1034 0.930 . S
H1043 C1035 0.929 . S
H1044 C1052 0.929 . S
H1045 C1054 0.930 . S
H1046 C1056 0.930 . S
H1047 C1059 0.929 . S
H1048 C1062 0.930 . S
H1049 C1064 0.960 . S
H1050 C1064 0.960 . S
H1051 C1064 0.960 . S
C1052 H1044 0.929 . S
C1052 C1053 1.377 . S
C1052 C1054 1.384 . S
C1053 C1052 1.377 . S
C1053 C1059 1.390 . S
C1054 H1045 0.930 . S
C1054 C1052 1.384 . S
C1054 C1055 1.372 . S
C1055 C1054 1.372 . S
C1055 C1056 1.400 . S
C1055 C1060 1.490 . S
C1056 H1046 0.930 . S
C1056 C1055 1.400 . S
C1056 C1059 1.386 . S
H1057 C1073 0.930 . S
H1058 C1074 0.931 . S
C1059 H1047 0.929 . S
C1059 C1053 1.390 . S
C1059 C1056 1.386 . S
C1060 C1055 1.490 . S
C1060 C1062 1.395 . S
C1060 C1063 1.403 . S
H1061 C1067 0.930 . S
C1062 H1048 0.930 . S
C1062 C1060 1.395 . S
C1062 C1065 1.403 . S
C1063 C1060 1.403 . S
C1063 C1064 1.524 . S
C1063 C1067 1.400 . S
C1064 H1049 0.960 . S
C1064 H1050 0.960 . S
C1064 H1051 0.960 . S
C1064 C1063 1.524 . S
C1065 C1062 1.403 . S
C1065 C1066 1.392 . S
C1065 C1069 1.495 . S
C1066 C1065 1.392 . S
C1066 C1067 1.385 . S
C1066 C1068 1.478 . S
C1067 H1061 0.930 . S
C1067 C1063 1.400 . S
C1067 C1066 1.385 . S
C1068 C1066 1.478 . S
C1068 C1070 1.381 . S
C1068 C1074 1.383 . S
C1069 C1065 1.495 . S
C1069 H1075 0.959 . S
C1069 H1076 0.961 . S
C1069 H1077 0.960 . S
C1070 C1068 1.381 . S
C1070 C1071 1.394 . S
C1070 H1078 0.930 . S
C1071 C1070 1.394 . S
C1071 C1072 1.383 . S
C1071 H1079 0.929 . S
C1072 C1071 1.383 . S
C1072 C1073 1.377 . S
C1073 H1057 0.930 . S
C1073 C1072 1.377 . S
C1073 C1074 1.379 . S
C1074 H1058 0.931 . S
C1074 C1068 1.383 . S
C1074 C1073 1.379 . S
H1075 C1069 0.959 . S
H1076 C1069 0.961 . S
H1077 C1069 0.960 . S
H1078 C1070 0.930 . S
H1079 C1071 0.929 . S
H1080 C1088 0.929 . S
H1081 C1090 0.930 . S
H1082 C1092 0.930 . S
H1083 C1095 0.929 . S
H1084 C1098 0.930 . S
H1085 C1100 0.960 . S
H1086 C1100 0.960 . S
H1087 C1100 0.960 . S
C1088 H1080 0.929 . S
C1088 C1089 1.377 . S
C1088 C1090 1.384 . S
C1089 C1088 1.377 . S
C1089 C1095 1.390 . S
C1090 H1081 0.930 . S
C1090 C1088 1.384 . S
C1090 C1091 1.372 . S
C1091 C1090 1.372 . S
C1091 C1092 1.400 . S
C1091 C1096 1.490 . S
C1092 H1082 0.930 . S
C1092 C1091 1.400 . S
C1092 C1095 1.386 . S
H1093 C1109 0.930 . S
H1094 C1110 0.931 . S
C1095 H1083 0.929 . S
C1095 C1089 1.390 . S
C1095 C1092 1.386 . S
C1096 C1091 1.490 . S
C1096 C1098 1.395 . S
C1096 C1099 1.403 . S
H1097 C1103 0.930 . S
C1098 H1084 0.930 . S
C1098 C1096 1.395 . S
C1098 C1101 1.403 . S
C1099 C1096 1.403 . S
C1099 C1100 1.524 . S
C1099 C1103 1.400 . S
C1100 H1085 0.960 . S
C1100 H1086 0.960 . S
C1100 H1087 0.960 . S
C1100 C1099 1.524 . S
C1101 C1098 1.403 . S
C1101 C1102 1.392 . S
C1101 C1105 1.495 . S
C1102 C1101 1.392 . S
C1102 C1103 1.385 . S
C1102 C1104 1.478 . S
C1103 H1097 0.930 . S
C1103 C1099 1.400 . S
C1103 C1102 1.385 . S
C1104 C1102 1.478 . S
C1104 C1106 1.381 . S
C1104 C1110 1.383 . S
C1105 C1101 1.495 . S
C1105 H1111 0.959 . S
C1105 H1112 0.961 . S
C1105 H1113 0.960 . S
C1106 C1104 1.381 . S
C1106 C1107 1.394 . S
C1106 H1114 0.930 . S
C1107 C1106 1.394 . S
C1107 C1108 1.383 . S
C1107 H1115 0.929 . S
C1108 C1107 1.383 . S
C1108 C1109 1.377 . S
C1109 H1093 0.930 . S
C1109 C1108 1.377 . S
C1109 C1110 1.379 . S
C1110 H1094 0.931 . S
C1110 C1104 1.383 . S
C1110 C1109 1.379 . S
H1111 C1105 0.959 . S
H1112 C1105 0.961 . S
H1113 C1105 0.960 . S
H1114 C1106 0.930 . S
H1115 C1107 0.929 . S
H1116 C1124 0.929 . S
H1117 C1126 0.930 . S
H1118 C1128 0.930 . S
H1119 C1131 0.929 . S
H1120 C1134 0.930 . S
H1121 C1136 0.960 . S
H1122 C1136 0.960 . S
H1123 C1136 0.960 . S
C1124 H1116 0.929 . S
C1124 C1125 1.377 . S
C1124 C1126 1.384 . S
C1125 C1124 1.377 . S
C1125 C1131 1.390 . S
C1126 H1117 0.930 . S
C1126 C1124 1.384 . S
C1126 C1127 1.372 . S
C1127 C1126 1.372 . S
C1127 C1128 1.400 . S
C1127 C1132 1.490 . S
C1128 H1118 0.930 . S
C1128 C1127 1.400 . S
C1128 C1131 1.386 . S
H1129 C1145 0.930 . S
H1130 C1146 0.931 . S
C1131 H1119 0.929 . S
C1131 C1125 1.390 . S
C1131 C1128 1.386 . S
C1132 C1127 1.490 . S
C1132 C1134 1.395 . S
C1132 C1135 1.403 . S
H1133 C1139 0.930 . S
C1134 H1120 0.930 . S
C1134 C1132 1.395 . S
C1134 C1137 1.403 . S
C1135 C1132 1.403 . S
C1135 C1136 1.524 . S
C1135 C1139 1.400 . S
C1136 H1121 0.960 . S
C1136 H1122 0.960 . S
C1136 H1123 0.960 . S
C1136 C1135 1.524 . S
C1137 C1134 1.403 . S
C1137 C1138 1.392 . S
C1137 C1141 1.495 . S
C1138 C1137 1.392 . S
C1138 C1139 1.385 . S
C1138 C1140 1.478 . S
C1139 H1133 0.930 . S
C1139 C1135 1.400 . S
C1139 C1138 1.385 . S
C1140 C1138 1.478 . S
C1140 C1142 1.381 . S
C1140 C1146 1.383 . S
C1141 C1137 1.495 . S
C1141 H1147 0.959 . S
C1141 H1148 0.961 . S
C1141 H1149 0.960 . S
C1142 C1140 1.381 . S
C1142 C1143 1.394 . S
C1142 H1150 0.930 . S
C1143 C1142 1.394 . S
C1143 C1144 1.383 . S
C1143 H1151 0.929 . S
C1144 C1143 1.383 . S
C1144 C1145 1.377 . S
C1145 H1129 0.930 . S
C1145 C1144 1.377 . S
C1145 C1146 1.379 . S
C1146 H1130 0.931 . S
C1146 C1140 1.383 . S
C1146 C1145 1.379 . S
H1147 C1141 0.959 . S
H1148 C1141 0.961 . S
H1149 C1141 0.960 . S
H1150 C1142 0.930 . S
H1151 C1143 0.929 . S
H1152 C1160 0.929 . S
H1153 C1162 0.930 . S
H1154 C1164 0.930 . S
H1155 C1167 0.929 . S
H1156 C1170 0.930 . S
H1157 C1172 0.960 . S
H1158 C1172 0.960 . S
H1159 C1172 0.960 . S
C1160 H1152 0.929 . S
C1160 C1161 1.377 . S
C1160 C1162 1.384 . S
C1161 C1160 1.377 . S
C1161 C1167 1.390 . S
C1162 H1153 0.930 . S
C1162 C1160 1.384 . S
C1162 C1163 1.372 . S
C1163 C1162 1.372 . S
C1163 C1164 1.400 . S
C1163 C1168 1.490 . S
C1164 H1154 0.930 . S
C1164 C1163 1.400 . S
C1164 C1167 1.386 . S
H1165 C1181 0.930 . S
H1166 C1182 0.931 . S
C1167 H1155 0.929 . S
C1167 C1161 1.390 . S
C1167 C1164 1.386 . S
C1168 C1163 1.490 . S
C1168 C1170 1.395 . S
C1168 C1171 1.403 . S
H1169 C1175 0.930 . S
C1170 H1156 0.930 . S
C1170 C1168 1.395 . S
C1170 C1173 1.403 . S
C1171 C1168 1.403 . S
C1171 C1172 1.524 . S
C1171 C1175 1.400 . S
C1172 H1157 0.960 . S
C1172 H1158 0.960 . S
C1172 H1159 0.960 . S
C1172 C1171 1.524 . S
C1173 C1170 1.403 . S
C1173 C1174 1.392 . S
C1173 C1177 1.495 . S
C1174 C1173 1.392 . S
C1174 C1175 1.385 . S
C1174 C1176 1.478 . S
C1175 H1169 0.930 . S
C1175 C1171 1.400 . S
C1175 C1174 1.385 . S
C1176 C1174 1.478 . S
C1176 C1178 1.381 . S
C1176 C1182 1.383 . S
C1177 C1173 1.495 . S
C1177 H1183 0.959 . S
C1177 H1184 0.961 . S
C1177 H1185 0.960 . S
C1178 C1176 1.381 . S
C1178 C1179 1.394 . S
C1178 H1186 0.930 . S
C1179 C1178 1.394 . S
C1179 C1180 1.383 . S
C1179 H1187 0.929 . S
C1180 C1179 1.383 . S
C1180 C1181 1.377 . S
C1181 H1165 0.930 . S
C1181 C1180 1.377 . S
C1181 C1182 1.379 . S
C1182 H1166 0.931 . S
C1182 C1176 1.383 . S
C1182 C1181 1.379 . S
H1183 C1177 0.959 . S
H1184 C1177 0.961 . S
H1185 C1177 0.960 . S
H1186 C1178 0.930 . S
H1187 C1179 0.929 . S
H1188 C1196 0.929 . S
H1189 C1198 0.930 . S
H1190 C1200 0.930 . S
H1191 C1203 0.929 . S
H1192 C1206 0.930 . S
H1193 C1208 0.960 . S
H1194 C1208 0.960 . S
H1195 C1208 0.960 . S
C1196 H1188 0.929 . S
C1196 C1197 1.377 . S
C1196 C1198 1.384 . S
C1197 C1196 1.377 . S
C1197 C1203 1.390 . S
C1198 H1189 0.930 . S
C1198 C1196 1.384 . S
C1198 C1199 1.372 . S
C1199 C1198 1.372 . S
C1199 C1200 1.400 . S
C1199 C1204 1.490 . S
C1200 H1190 0.930 . S
C1200 C1199 1.400 . S
C1200 C1203 1.386 . S
H1201 C1217 0.930 . S
H1202 C1218 0.931 . S
C1203 H1191 0.929 . S
C1203 C1197 1.390 . S
C1203 C1200 1.386 . S
C1204 C1199 1.490 . S
C1204 C1206 1.395 . S
C1204 C1207 1.403 . S
H1205 C1211 0.930 . S
C1206 H1192 0.930 . S
C1206 C1204 1.395 . S
C1206 C1209 1.403 . S
C1207 C1204 1.403 . S
C1207 C1208 1.524 . S
C1207 C1211 1.400 . S
C1208 H1193 0.960 . S
C1208 H1194 0.960 . S
C1208 H1195 0.960 . S
C1208 C1207 1.524 . S
C1209 C1206 1.403 . S
C1209 C1210 1.392 . S
C1209 C1213 1.495 . S
C1210 C1209 1.392 . S
C1210 C1211 1.385 . S
C1210 C1212 1.478 . S
C1211 H1205 0.930 . S
C1211 C1207 1.400 . S
C1211 C1210 1.385 . S
C1212 C1210 1.478 . S
C1212 C1214 1.381 . S
C1212 C1218 1.383 . S
C1213 C1209 1.495 . S
C1213 H1219 0.959 . S
C1213 H1220 0.961 . S
C1213 H1221 0.960 . S
C1214 C1212 1.381 . S
C1214 C1215 1.394 . S
C1214 H1222 0.930 . S
C1215 C1214 1.394 . S
C1215 C1216 1.383 . S
C1215 H1223 0.929 . S
C1216 C1215 1.383 . S
C1216 C1217 1.377 . S
C1217 H1201 0.930 . S
C1217 C1216 1.377 . S
C1217 C1218 1.379 . S
C1218 H1202 0.931 . S
C1218 C1212 1.383 . S
C1218 C1217 1.379 . S
H1219 C1213 0.959 . S
H1220 C1213 0.961 . S
H1221 C1213 0.960 . S
H1222 C1214 0.930 . S
H1223 C1215 0.929 . S
H1224 C1232 0.929 . S
H1225 C1234 0.930 . S
H1226 C1236 0.930 . S
H1227 C1239 0.929 . S
H1228 C1242 0.930 . S
H1229 C1244 0.960 . S
H1230 C1244 0.960 . S
H1231 C1244 0.960 . S
C1232 H1224 0.929 . S
C1232 C1233 1.377 . S
C1232 C1234 1.384 . S
C1233 C1232 1.377 . S
C1233 C1239 1.390 . S
C1234 H1225 0.930 . S
C1234 C1232 1.384 . S
C1234 C1235 1.372 . S
C1235 C1234 1.372 . S
C1235 C1236 1.400 . S
C1235 C1240 1.490 . S
C1236 H1226 0.930 . S
C1236 C1235 1.400 . S
C1236 C1239 1.386 . S
H1237 C1253 0.930 . S
H1238 C1254 0.931 . S
C1239 H1227 0.929 . S
C1239 C1233 1.390 . S
C1239 C1236 1.386 . S
C1240 C1235 1.490 . S
C1240 C1242 1.395 . S
C1240 C1243 1.403 . S
H1241 C1247 0.930 . S
C1242 H1228 0.930 . S
C1242 C1240 1.395 . S
C1242 C1245 1.403 . S
C1243 C1240 1.403 . S
C1243 C1244 1.524 . S
C1243 C1247 1.400 . S
C1244 H1229 0.960 . S
C1244 H1230 0.960 . S
C1244 H1231 0.960 . S
C1244 C1243 1.524 . S
C1245 C1242 1.403 . S
C1245 C1246 1.392 . S
C1245 C1249 1.495 . S
C1246 C1245 1.392 . S
C1246 C1247 1.385 . S
C1246 C1248 1.478 . S
C1247 H1241 0.930 . S
C1247 C1243 1.400 . S
C1247 C1246 1.385 . S
C1248 C1246 1.478 . S
C1248 C1250 1.381 . S
C1248 C1254 1.383 . S
C1249 C1245 1.495 . S
C1249 H1255 0.959 . S
C1249 H1256 0.961 . S
C1249 H1257 0.960 . S
C1250 C1248 1.381 . S
C1250 C1251 1.394 . S
C1250 H1258 0.930 . S
C1251 C1250 1.394 . S
C1251 C1252 1.383 . S
C1251 H1259 0.929 . S
C1252 C1251 1.383 . S
C1252 C1253 1.377 . S
C1253 H1237 0.930 . S
C1253 C1252 1.377 . S
C1253 C1254 1.379 . S
C1254 H1238 0.931 . S
C1254 C1248 1.383 . S
C1254 C1253 1.379 . S
H1255 C1249 0.959 . S
H1256 C1249 0.961 . S
H1257 C1249 0.960 . S
H1258 C1250 0.930 . S
H1259 C1251 0.929 . S
H1260 C1268 0.929 . S
H1261 C1270 0.930 . S
H1262 C1272 0.930 . S
H1263 C1275 0.929 . S
H1264 C1278 0.930 . S
H1265 C1280 0.960 . S
H1266 C1280 0.960 . S
H1267 C1280 0.960 . S
C1268 H1260 0.929 . S
C1268 C1269 1.377 . S
C1268 C1270 1.384 . S
C1269 C1268 1.377 . S
C1269 C1275 1.390 . S
C1270 H1261 0.930 . S
C1270 C1268 1.384 . S
C1270 C1271 1.372 . S
C1271 C1270 1.372 . S
C1271 C1272 1.400 . S
C1271 C1276 1.490 . S
C1272 H1262 0.930 . S
C1272 C1271 1.400 . S
C1272 C1275 1.386 . S
H1273 C1289 0.930 . S
H1274 C1290 0.931 . S
C1275 H1263 0.929 . S
C1275 C1269 1.390 . S
C1275 C1272 1.386 . S
C1276 C1271 1.490 . S
C1276 C1278 1.395 . S
C1276 C1279 1.403 . S
H1277 C1283 0.930 . S
C1278 H1264 0.930 . S
C1278 C1276 1.395 . S
C1278 C1281 1.403 . S
C1279 C1276 1.403 . S
C1279 C1280 1.524 . S
C1279 C1283 1.400 . S
C1280 H1265 0.960 . S
C1280 H1266 0.960 . S
C1280 H1267 0.960 . S
C1280 C1279 1.524 . S
C1281 C1278 1.403 . S
C1281 C1282 1.392 . S
C1281 C1285 1.495 . S
C1282 C1281 1.392 . S
C1282 C1283 1.385 . S
C1282 C1284 1.478 . S
C1283 H1277 0.930 . S
C1283 C1279 1.400 . S
C1283 C1282 1.385 . S
C1284 C1282 1.478 . S
C1284 C1286 1.381 . S
C1284 C1290 1.383 . S
C1285 C1281 1.495 . S
C1285 H1291 0.959 . S
C1285 H1292 0.961 . S
C1285 H1293 0.960 . S
C1286 C1284 1.381 . S
C1286 C1287 1.394 . S
C1286 H1294 0.930 . S
C1287 C1286 1.394 . S
C1287 C1288 1.383 . S
C1287 H1295 0.929 . S
C1288 C1287 1.383 . S
C1288 C1289 1.377 . S
C1289 H1273 0.930 . S
C1289 C1288 1.377 . S
C1289 C1290 1.379 . S
C1290 H1274 0.931 . S
C1290 C1284 1.383 . S
C1290 C1289 1.379 . S
H1291 C1285 0.959 . S
H1292 C1285 0.961 . S
H1293 C1285 0.960 . S
H1294 C1286 0.930 . S
H1295 C1287 0.929 . S
H1296 C1304 0.929 . S
H1297 C1306 0.930 . S
H1298 C1308 0.930 . S
H1299 C1311 0.929 . S
H1300 C1314 0.930 . S
H1301 C1316 0.960 . S
H1302 C1316 0.960 . S
H1303 C1316 0.960 . S
C1304 H1296 0.929 . S
C1304 C1305 1.377 . S
C1304 C1306 1.384 . S
C1305 C1304 1.377 . S
C1305 C1311 1.390 . S
C1306 H1297 0.930 . S
C1306 C1304 1.384 . S
C1306 C1307 1.372 . S
C1307 C1306 1.372 . S
C1307 C1308 1.400 . S
C1307 C1312 1.490 . S
C1308 H1298 0.930 . S
C1308 C1307 1.400 . S
C1308 C1311 1.386 . S
H1309 C1325 0.930 . S
H1310 C1326 0.931 . S
C1311 H1299 0.929 . S
C1311 C1305 1.390 . S
C1311 C1308 1.386 . S
C1312 C1307 1.490 . S
C1312 C1314 1.395 . S
C1312 C1315 1.403 . S
H1313 C1319 0.930 . S
C1314 H1300 0.930 . S
C1314 C1312 1.395 . S
C1314 C1317 1.403 . S
C1315 C1312 1.403 . S
C1315 C1316 1.524 . S
C1315 C1319 1.400 . S
C1316 H1301 0.960 . S
C1316 H1302 0.960 . S
C1316 H1303 0.960 . S
C1316 C1315 1.524 . S
C1317 C1314 1.403 . S
C1317 C1318 1.392 . S
C1317 C1321 1.495 . S
C1318 C1317 1.392 . S
C1318 C1319 1.385 . S
C1318 C1320 1.478 . S
C1319 H1313 0.930 . S
C1319 C1315 1.400 . S
C1319 C1318 1.385 . S
C1320 C1318 1.478 . S
C1320 C1322 1.381 . S
C1320 C1326 1.383 . S
C1321 C1317 1.495 . S
C1321 H1327 0.959 . S
C1321 H1328 0.961 . S
C1321 H1329 0.960 . S
C1322 C1320 1.381 . S
C1322 C1323 1.394 . S
C1322 H1330 0.930 . S
C1323 C1322 1.394 . S
C1323 C1324 1.383 . S
C1323 H1331 0.929 . S
C1324 C1323 1.383 . S
C1324 C1325 1.377 . S
C1325 H1309 0.930 . S
C1325 C1324 1.377 . S
C1325 C1326 1.379 . S
C1326 H1310 0.931 . S
C1326 C1320 1.383 . S
C1326 C1325 1.379 . S
H1327 C1321 0.959 . S
H1328 C1321 0.961 . S
H1329 C1321 0.960 . S
H1330 C1322 0.930 . S
H1331 C1323 0.929 . S
H1332 C1340 0.929 . S
H1333 C1342 0.930 . S
H1334 C1344 0.930 . S
H1335 C1347 0.929 . S
H1336 C1350 0.930 . S
H1337 C1352 0.960 . S
H1338 C1352 0.960 . S
H1339 C1352 0.960 . S
C1340 H1332 0.929 . S
C1340 C1341 1.377 . S
C1340 C1342 1.384 . S
C1341 C1340 1.377 . S
C1341 C1347 1.390 . S
C1342 H1333 0.930 . S
C1342 C1340 1.384 . S
C1342 C1343 1.372 . S
C1343 C1342 1.372 . S
C1343 C1344 1.400 . S
C1343 C1348 1.490 . S
C1344 H1334 0.930 . S
C1344 C1343 1.400 . S
C1344 C1347 1.386 . S
H1345 C1361 0.930 . S
H1346 C1362 0.931 . S
C1347 H1335 0.929 . S
C1347 C1341 1.390 . S
C1347 C1344 1.386 . S
C1348 C1343 1.490 . S
C1348 C1350 1.395 . S
C1348 C1351 1.403 . S
H1349 C1355 0.930 . S
C1350 H1336 0.930 . S
C1350 C1348 1.395 . S
C1350 C1353 1.403 . S
C1351 C1348 1.403 . S
C1351 C1352 1.524 . S
C1351 C1355 1.400 . S
C1352 H1337 0.960 . S
C1352 H1338 0.960 . S
C1352 H1339 0.960 . S
C1352 C1351 1.524 . S
C1353 C1350 1.403 . S
C1353 C1354 1.392 . S
C1353 C1357 1.495 . S
C1354 C1353 1.392 . S
C1354 C1355 1.385 . S
C1354 C1356 1.478 . S
C1355 H1349 0.930 . S
C1355 C1351 1.400 . S
C1355 C1354 1.385 . S
C1356 C1354 1.478 . S
C1356 C1358 1.381 . S
C1356 C1362 1.383 . S
C1357 C1353 1.495 . S
C1357 H1363 0.959 . S
C1357 H1364 0.961 . S
C1357 H1365 0.960 . S
C1358 C1356 1.381 . S
C1358 C1359 1.394 . S
C1358 H1366 0.930 . S
C1359 C1358 1.394 . S
C1359 C1360 1.383 . S
C1359 H1367 0.929 . S
C1360 C1359 1.383 . S
C1360 C1361 1.377 . S
C1361 H1345 0.930 . S
C1361 C1360 1.377 . S
C1361 C1362 1.379 . S
C1362 H1346 0.931 . S
C1362 C1356 1.383 . S
C1362 C1361 1.379 . S
H1363 C1357 0.959 . S
H1364 C1357 0.961 . S
H1365 C1357 0.960 . S
H1366 C1358 0.930 . S
H1367 C1359 0.929 . S
H1368 C1376 0.929 . S
H1369 C1378 0.930 . S
H1370 C1380 0.930 . S
H1371 C1383 0.929 . S
H1372 C1386 0.930 . S
H1373 C1388 0.960 . S
H1374 C1388 0.960 . S
H1375 C1388 0.960 . S
C1376 H1368 0.929 . S
C1376 C1377 1.377 . S
C1376 C1378 1.384 . S
C1377 C1376 1.377 . S
C1377 C1383 1.390 . S
C1378 H1369 0.930 . S
C1378 C1376 1.384 . S
C1378 C1379 1.372 . S
C1379 C1378 1.372 . S
C1379 C1380 1.400 . S
C1379 C1384 1.490 . S
C1380 H1370 0.930 . S
C1380 C1379 1.400 . S
C1380 C1383 1.386 . S
H1381 C1397 0.930 . S
H1382 C1398 0.931 . S
C1383 H1371 0.929 . S
C1383 C1377 1.390 . S
C1383 C1380 1.386 . S
C1384 C1379 1.490 . S
C1384 C1386 1.395 . S
C1384 C1387 1.403 . S
H1385 C1391 0.930 . S
C1386 H1372 0.930 . S
C1386 C1384 1.395 . S
C1386 C1389 1.403 . S
C1387 C1384 1.403 . S
C1387 C1388 1.524 . S
C1387 C1391 1.400 . S
C1388 H1373 0.960 . S
C1388 H1374 0.960 . S
C1388 H1375 0.960 . S
C1388 C1387 1.524 . S
C1389 C1386 1.403 . S
C1389 C1390 1.392 . S
C1389 C1393 1.495 . S
C1390 C1389 1.392 . S
C1390 C1391 1.385 . S
C1390 C1392 1.478 . S
C1391 H1385 0.930 . S
C1391 C1387 1.400 . S
C1391 C1390 1.385 . S
C1392 C1390 1.478 . S
C1392 C1394 1.381 . S
C1392 C1398 1.383 . S
C1393 C1389 1.495 . S
C1393 H1399 0.959 . S
C1393 H1400 0.961 . S
C1393 H1401 0.960 . S
C1394 C1392 1.381 . S
C1394 C1395 1.394 . S
C1394 H1402 0.930 . S
C1395 C1394 1.394 . S
C1395 C1396 1.383 . S
C1395 H1403 0.929 . S
C1396 C1395 1.383 . S
C1396 C1397 1.377 . S
C1397 H1381 0.930 . S
C1397 C1396 1.377 . S
C1397 C1398 1.379 . S
C1398 H1382 0.931 . S
C1398 C1392 1.383 . S
C1398 C1397 1.379 . S
H1399 C1393 0.959 . S
H1400 C1393 0.961 . S
H1401 C1393 0.960 . S
H1402 C1394 0.930 . S
H1403 C1395 0.929 . S
H1404 C1412 0.929 . S
H1405 C1414 0.930 . S
H1406 C1416 0.930 . S
H1407 C1419 0.929 . S
H1408 C1422 0.930 . S
H1409 C1424 0.960 . S
H1410 C1424 0.960 . S
H1411 C1424 0.960 . S
C1412 H1404 0.929 . S
C1412 C1413 1.377 . S
C1412 C1414 1.384 . S
C1413 C1412 1.377 . S
C1413 C1419 1.390 . S
C1414 H1405 0.930 . S
C1414 C1412 1.384 . S
C1414 C1415 1.372 . S
C1415 C1414 1.372 . S
C1415 C1416 1.400 . S
C1415 C1420 1.490 . S
C1416 H1406 0.930 . S
C1416 C1415 1.400 . S
C1416 C1419 1.386 . S
H1417 C1433 0.930 . S
H1418 C1434 0.931 . S
C1419 H1407 0.929 . S
C1419 C1413 1.390 . S
C1419 C1416 1.386 . S
C1420 C1415 1.490 . S
C1420 C1422 1.395 . S
C1420 C1423 1.403 . S
H1421 C1427 0.930 . S
C1422 H1408 0.930 . S
C1422 C1420 1.395 . S
C1422 C1425 1.403 . S
C1423 C1420 1.403 . S
C1423 C1424 1.524 . S
C1423 C1427 1.400 . S
C1424 H1409 0.960 . S
C1424 H1410 0.960 . S
C1424 H1411 0.960 . S
C1424 C1423 1.524 . S
C1425 C1422 1.403 . S
C1425 C1426 1.392 . S
C1425 C1429 1.495 . S
C1426 C1425 1.392 . S
C1426 C1427 1.385 . S
C1426 C1428 1.478 . S
C1427 H1421 0.930 . S
C1427 C1423 1.400 . S
C1427 C1426 1.385 . S
C1428 C1426 1.478 . S
C1428 C1430 1.381 . S
C1428 C1434 1.383 . S
C1429 C1425 1.495 . S
C1429 H1435 0.959 . S
C1429 H1436 0.961 . S
C1429 H1437 0.960 . S
C1430 C1428 1.381 . S
C1430 C1431 1.394 . S
C1430 H1438 0.930 . S
C1431 C1430 1.394 . S
C1431 C1432 1.383 . S
C1431 H1439 0.929 . S
C1432 C1431 1.383 . S
C1432 C1433 1.377 . S
C1433 H1417 0.930 . S
C1433 C1432 1.377 . S
C1433 C1434 1.379 . S
C1434 H1418 0.931 . S
C1434 C1428 1.383 . S
C1434 C1433 1.379 . S
H1435 C1429 0.959 . S
H1436 C1429 0.961 . S
H1437 C1429 0.960 . S
H1438 C1430 0.930 . S
H1439 C1431 0.929 . S
H1440 C1448 0.929 . S
H1441 C1450 0.930 . S
H1442 C1452 0.930 . S
H1443 C1455 0.929 . S
H1444 C1458 0.930 . S
H1445 C1460 0.960 . S
H1446 C1460 0.960 . S
H1447 C1460 0.960 . S
C1448 H1440 0.929 . S
C1448 C1449 1.377 . S
C1448 C1450 1.384 . S
C1449 C1448 1.377 . S
C1449 C1455 1.390 . S
C1450 H1441 0.930 . S
C1450 C1448 1.384 . S
C1450 C1451 1.372 . S
C1451 C1450 1.372 . S
C1451 C1452 1.400 . S
C1451 C1456 1.490 . S
C1452 H1442 0.930 . S
C1452 C1451 1.400 . S
C1452 C1455 1.386 . S
H1453 C1469 0.930 . S
H1454 C1470 0.931 . S
C1455 H1443 0.929 . S
C1455 C1449 1.390 . S
C1455 C1452 1.386 . S
C1456 C1451 1.490 . S
C1456 C1458 1.395 . S
C1456 C1459 1.403 . S
H1457 C1463 0.930 . S
C1458 H1444 0.930 . S
C1458 C1456 1.395 . S
C1458 C1461 1.403 . S
C1459 C1456 1.403 . S
C1459 C1460 1.524 . S
C1459 C1463 1.400 . S
C1460 H1445 0.960 . S
C1460 H1446 0.960 . S
C1460 H1447 0.960 . S
C1460 C1459 1.524 . S
C1461 C1458 1.403 . S
C1461 C1462 1.392 . S
C1461 C1465 1.495 . S
C1462 C1461 1.392 . S
C1462 C1463 1.385 . S
C1462 C1464 1.478 . S
C1463 H1457 0.930 . S
C1463 C1459 1.400 . S
C1463 C1462 1.385 . S
C1464 C1462 1.478 . S
C1464 C1466 1.381 . S
C1464 C1470 1.383 . S
C1465 C1461 1.495 . S
C1465 H1471 0.959 . S
C1465 H1472 0.961 . S
C1465 H1473 0.960 . S
C1466 C1464 1.381 . S
C1466 C1467 1.394 . S
C1466 H1474 0.930 . S
C1467 C1466 1.394 . S
C1467 C1468 1.383 . S
C1467 H1475 0.929 . S
C1468 C1467 1.383 . S
C1468 C1469 1.377 . S
C1469 H1453 0.930 . S
C1469 C1468 1.377 . S
C1469 C1470 1.379 . S
C1470 H1454 0.931 . S
C1470 C1464 1.383 . S
C1470 C1469 1.379 . S
H1471 C1465 0.959 . S
H1472 C1465 0.961 . S
H1473 C1465 0.960 . S
H1474 C1466 0.930 . S
H1475 C1467 0.929 . S
H1476 C1484 0.929 . S
H1477 C1486 0.930 . S
H1478 C1488 0.930 . S
H1479 C1491 0.929 . S
H1480 C1494 0.930 . S
H1481 C1496 0.960 . S
H1482 C1496 0.960 . S
H1483 C1496 0.960 . S
C1484 H1476 0.929 . S
C1484 C1485 1.377 . S
C1484 C1486 1.384 . S
C1485 C1484 1.377 . S
C1485 C1491 1.390 . S
C1486 H1477 0.930 . S
C1486 C1484 1.384 . S
C1486 C1487 1.372 . S
C1487 C1486 1.372 . S
C1487 C1488 1.400 . S
C1487 C1492 1.490 . S
C1488 H1478 0.930 . S
C1488 C1487 1.400 . S
C1488 C1491 1.386 . S
H1489 C1505 0.930 . S
H1490 C1506 0.931 . S
C1491 H1479 0.929 . S
C1491 C1485 1.390 . S
C1491 C1488 1.386 . S
C1492 C1487 1.490 . S
C1492 C1494 1.395 . S
C1492 C1495 1.403 . S
H1493 C1499 0.930 . S
C1494 H1480 0.930 . S
C1494 C1492 1.395 . S
C1494 C1497 1.403 . S
C1495 C1492 1.403 . S
C1495 C1496 1.524 . S
C1495 C1499 1.400 . S
C1496 H1481 0.960 . S
C1496 H1482 0.960 . S
C1496 H1483 0.960 . S
C1496 C1495 1.524 . S
C1497 C1494 1.403 . S
C1497 C1498 1.392 . S
C1497 C1501 1.495 . S
C1498 C1497 1.392 . S
C1498 C1499 1.385 . S
C1498 C1500 1.478 . S
C1499 H1493 0.930 . S
C1499 C1495 1.400 . S
C1499 C1498 1.385 . S
C1500 C1498 1.478 . S
C1500 C1502 1.381 . S
C1500 C1506 1.383 . S
C1501 C1497 1.495 . S
C1501 H1507 0.959 . S
C1501 H1508 0.961 . S
C1501 H1509 0.960 . S
C1502 C1500 1.381 . S
C1502 C1503 1.394 . S
C1502 H1510 0.930 . S
C1503 C1502 1.394 . S
C1503 C1504 1.383 . S
C1503 H1511 0.929 . S
C1504 C1503 1.383 . S
C1504 C1505 1.377 . S
C1505 H1489 0.930 . S
C1505 C1504 1.377 . S
C1505 C1506 1.379 . S
C1506 H1490 0.931 . S
C1506 C1500 1.383 . S
C1506 C1505 1.379 . S
H1507 C1501 0.959 . S
H1508 C1501 0.961 . S
H1509 C1501 0.960 . S
H1510 C1502 0.930 . S
H1511 C1503 0.929 . S
H1512 C1520 0.929 . S
H1513 C1522 0.930 . S
H1514 C1524 0.930 . S
H1515 C1527 0.929 . S
H1516 C1530 0.930 . S
H1517 C1532 0.960 . S
H1518 C1532 0.960 . S
H1519 C1532 0.960 . S
C1520 H1512 0.929 . S
C1520 C1521 1.377 . S
C1520 C1522 1.384 . S
C1521 C1520 1.377 . S
C1521 C1527 1.390 . S
C1522 H1513 0.930 . S
C1522 C1520 1.384 . S
C1522 C1523 1.372 . S
C1523 C1522 1.372 . S
C1523 C1524 1.400 . S
C1523 C1528 1.490 . S
C1524 H1514 0.930 . S
C1524 C1523 1.400 . S
C1524 C1527 1.386 . S
H1525 C1541 0.930 . S
H1526 C1542 0.931 . S
C1527 H1515 0.929 . S
C1527 C1521 1.390 . S
C1527 C1524 1.386 . S
C1528 C1523 1.490 . S
C1528 C1530 1.395 . S
C1528 C1531 1.403 . S
H1529 C1535 0.930 . S
C1530 H1516 0.930 . S
C1530 C1528 1.395 . S
C1530 C1533 1.403 . S
C1531 C1528 1.403 . S
C1531 C1532 1.524 . S
C1531 C1535 1.400 . S
C1532 H1517 0.960 . S
C1532 H1518 0.960 . S
C1532 H1519 0.960 . S
C1532 C1531 1.524 . S
C1533 C1530 1.403 . S
C1533 C1534 1.392 . S
C1533 C1537 1.495 . S
C1534 C1533 1.392 . S
C1534 C1535 1.385 . S
C1534 C1536 1.478 . S
C1535 H1529 0.930 . S
C1535 C1531 1.400 . S
C1535 C1534 1.385 . S
C1536 C1534 1.478 . S
C1536 C1538 1.381 . S
C1536 C1542 1.383 . S
C1537 C1533 1.495 . S
C1537 H1543 0.959 . S
C1537 H1544 0.961 . S
C1537 H1545 0.960 . S
C1538 C1536 1.381 . S
C1538 C1539 1.394 . S
C1538 H1546 0.930 . S
C1539 C1538 1.394 . S
C1539 C1540 1.383 . S
C1539 H1547 0.929 . S
C1540 C1539 1.383 . S
C1540 C1541 1.377 . S
C1541 H1525 0.930 . S
C1541 C1540 1.377 . S
C1541 C1542 1.379 . S
C1542 H1526 0.931 . S
C1542 C1536 1.383 . S
C1542 C1541 1.379 . S
H1543 C1537 0.959 . S
H1544 C1537 0.961 . S
H1545 C1537 0.960 . S
H1546 C1538 0.930 . S
H1547 C1539 0.929 . S
H1548 C1556 0.929 . S
H1549 C1558 0.930 . S
H1550 C1560 0.930 . S
H1551 C1563 0.929 . S
H1552 C1566 0.930 . S
H1553 C1568 0.960 . S
H1554 C1568 0.960 . S
H1555 C1568 0.960 . S
C1556 H1548 0.929 . S
C1556 C1557 1.377 . S
C1556 C1558 1.384 . S
C1557 C1556 1.377 . S
C1557 C1563 1.390 . S
C1558 H1549 0.930 . S
C1558 C1556 1.384 . S
C1558 C1559 1.372 . S
C1559 C1558 1.372 . S
C1559 C1560 1.400 . S
C1559 C1564 1.490 . S
C1560 H1550 0.930 . S
C1560 C1559 1.400 . S
C1560 C1563 1.386 . S
H1561 C1577 0.930 . S
H1562 C1578 0.931 . S
C1563 H1551 0.929 . S
C1563 C1557 1.390 . S
C1563 C1560 1.386 . S
C1564 C1559 1.490 . S
C1564 C1566 1.395 . S
C1564 C1567 1.403 . S
H1565 C1571 0.930 . S
C1566 H1552 0.930 . S
C1566 C1564 1.395 . S
C1566 C1569 1.403 . S
C1567 C1564 1.403 . S
C1567 C1568 1.524 . S
C1567 C1571 1.400 . S
C1568 H1553 0.960 . S
C1568 H1554 0.960 . S
C1568 H1555 0.960 . S
C1568 C1567 1.524 . S
C1569 C1566 1.403 . S
C1569 C1570 1.392 . S
C1569 C1573 1.495 . S
C1570 C1569 1.392 . S
C1570 C1571 1.385 . S
C1570 C1572 1.478 . S
C1571 H1565 0.930 . S
C1571 C1567 1.400 . S
C1571 C1570 1.385 . S
C1572 C1570 1.478 . S
C1572 C1574 1.381 . S
C1572 C1578 1.383 . S
C1573 C1569 1.495 . S
C1573 H1579 0.959 . S
C1573 H1580 0.961 . S
C1573 H1581 0.960 . S
C1574 C1572 1.381 . S
C1574 C1575 1.394 . S
C1574 H1582 0.930 . S
C1575 C1574 1.394 . S
C1575 C1576 1.383 . S
C1575 H1583 0.929 . S
C1576 C1575 1.383 . S
C1576 C1577 1.377 . S
C1577 H1561 0.930 . S
C1577 C1576 1.377 . S
C1577 C1578 1.379 . S
C1578 H1562 0.931 . S
C1578 C1572 1.383 . S
C1578 C1577 1.379 . S
H1579 C1573 0.959 . S
H1580 C1573 0.961 . S
H1581 C1573 0.960 . S
H1582 C1574 0.930 . S
H1583 C1575 0.929 . S
H1584 C1592 0.929 . S
H1585 C1594 0.930 . S
H1586 C1596 0.930 . S
H1587 C1599 0.929 . S
H1588 C1602 0.930 . S
H1589 C1604 0.960 . S
H1590 C1604 0.960 . S
H1591 C1604 0.960 . S
C1592 H1584 0.929 . S
C1592 C1593 1.377 . S
C1592 C1594 1.384 . S
C1593 C1592 1.377 . S
C1593 C1599 1.390 . S
C1594 H1585 0.930 . S
C1594 C1592 1.384 . S
C1594 C1595 1.372 . S
C1595 C1594 1.372 . S
C1595 C1596 1.400 . S
C1595 C1600 1.490 . S
C1596 H1586 0.930 . S
C1596 C1595 1.400 . S
C1596 C1599 1.386 . S
H1597 C1613 0.930 . S
H1598 C1614 0.931 . S
C1599 H1587 0.929 . S
C1599 C1593 1.390 . S
C1599 C1596 1.386 . S
C1600 C1595 1.490 . S
C1600 C1602 1.395 . S
C1600 C1603 1.403 . S
H1601 C1607 0.930 . S
C1602 H1588 0.930 . S
C1602 C1600 1.395 . S
C1602 C1605 1.403 . S
C1603 C1600 1.403 . S
C1603 C1604 1.524 . S
C1603 C1607 1.400 . S
C1604 H1589 0.960 . S
C1604 H1590 0.960 . S
C1604 H1591 0.960 . S
C1604 C1603 1.524 . S
C1605 C1602 1.403 . S
C1605 C1606 1.392 . S
C1605 C1609 1.495 . S
C1606 C1605 1.392 . S
C1606 C1607 1.385 . S
C1606 C1608 1.478 . S
C1607 H1601 0.930 . S
C1607 C1603 1.400 . S
C1607 C1606 1.385 . S
C1608 C1606 1.478 . S
C1608 C1610 1.381 . S
C1608 C1614 1.383 . S
C1609 C1605 1.495 . S
C1609 H1615 0.959 . S
C1609 H1616 0.961 . S
C1609 H1617 0.960 . S
C1610 C1608 1.381 . S
C1610 C1611 1.394 . S
C1610 H1618 0.930 . S
C1611 C1610 1.394 . S
C1611 C1612 1.383 . S
C1611 H1619 0.929 . S
C1612 C1611 1.383 . S
C1612 C1613 1.377 . S
C1613 H1597 0.930 . S
C1613 C1612 1.377 . S
C1613 C1614 1.379 . S
C1614 H1598 0.931 . S
C1614 C1608 1.383 . S
C1614 C1613 1.379 . S
H1615 C1609 0.959 . S
H1616 C1609 0.961 . S
H1617 C1609 0.960 . S
H1618 C1610 0.930 . S
H1619 C1611 0.929 . S
H1620 C1628 0.929 . S
H1621 C1630 0.930 . S
H1622 C1632 0.930 . S
H1623 C1635 0.929 . S
H1624 C1638 0.930 . S
H1625 C1640 0.960 . S
H1626 C1640 0.960 . S
H1627 C1640 0.960 . S
C1628 H1620 0.929 . S
C1628 C1629 1.377 . S
C1628 C1630 1.384 . S
C1629 C1628 1.377 . S
C1629 C1635 1.390 . S
C1630 H1621 0.930 . S
C1630 C1628 1.384 . S
C1630 C1631 1.372 . S
C1631 C1630 1.372 . S
C1631 C1632 1.400 . S
C1631 C1636 1.490 . S
C1632 H1622 0.930 . S
C1632 C1631 1.400 . S
C1632 C1635 1.386 . S
H1633 C1649 0.930 . S
H1634 C1650 0.931 . S
C1635 H1623 0.929 . S
C1635 C1629 1.390 . S
C1635 C1632 1.386 . S
C1636 C1631 1.490 . S
C1636 C1638 1.395 . S
C1636 C1639 1.403 . S
H1637 C1643 0.930 . S
C1638 H1624 0.930 . S
C1638 C1636 1.395 . S
C1638 C1641 1.403 . S
C1639 C1636 1.403 . S
C1639 C1640 1.524 . S
C1639 C1643 1.400 . S
C1640 H1625 0.960 . S
C1640 H1626 0.960 . S
C1640 H1627 0.960 . S
C1640 C1639 1.524 . S
C1641 C1638 1.403 . S
C1641 C1642 1.392 . S
C1641 C1645 1.495 . S
C1642 C1641 1.392 . S
C1642 C1643 1.385 . S
C1642 C1644 1.478 . S
C1643 H1637 0.930 . S
C1643 C1639 1.400 . S
C1643 C1642 1.385 . S
C1644 C1642 1.478 . S
C1644 C1646 1.381 . S
C1644 C1650 1.383 . S
C1645 C1641 1.495 . S
C1645 H1651 0.959 . S
C1645 H1652 0.961 . S
C1645 H1653 0.960 . S
C1646 C1644 1.381 . S
C1646 C1647 1.394 . S
C1646 H1654 0.930 . S
C1647 C1646 1.394 . S
C1647 C1648 1.383 . S
C1647 H1655 0.929 . S
C1648 C1647 1.383 . S
C1648 C1649 1.377 . S
C1649 H1633 0.930 . S
C1649 C1648 1.377 . S
C1649 C1650 1.379 . S
C1650 H1634 0.931 . S
C1650 C1644 1.383 . S
C1650 C1649 1.379 . S
H1651 C1645 0.959 . S
H1652 C1645 0.961 . S
H1653 C1645 0.960 . S
H1654 C1646 0.930 . S
H1655 C1647 0.929 . S
H1656 C1664 0.929 . S
H1657 C1666 0.930 . S
H1658 C1668 0.930 . S
H1659 C1671 0.929 . S
H1660 C1674 0.930 . S
H1661 C1676 0.960 . S
H1662 C1676 0.960 . S
H1663 C1676 0.960 . S
C1664 H1656 0.929 . S
C1664 C1665 1.377 . S
C1664 C1666 1.384 . S
C1665 C1664 1.377 . S
C1665 C1671 1.390 . S
C1666 H1657 0.930 . S
C1666 C1664 1.384 . S
C1666 C1667 1.372 . S
C1667 C1666 1.372 . S
C1667 C1668 1.400 . S
C1667 C1672 1.490 . S
C1668 H1658 0.930 . S
C1668 C1667 1.400 . S
C1668 C1671 1.386 . S
H1669 C1685 0.930 . S
H1670 C1686 0.931 . S
C1671 H1659 0.929 . S
C1671 C1665 1.390 . S
C1671 C1668 1.386 . S
C1672 C1667 1.490 . S
C1672 C1674 1.395 . S
C1672 C1675 1.403 . S
H1673 C1679 0.930 . S
C1674 H1660 0.930 . S
C1674 C1672 1.395 . S
C1674 C1677 1.403 . S
C1675 C1672 1.403 . S
C1675 C1676 1.524 . S
C1675 C1679 1.400 . S
C1676 H1661 0.960 . S
C1676 H1662 0.960 . S
C1676 H1663 0.960 . S
C1676 C1675 1.524 . S
C1677 C1674 1.403 . S
C1677 C1678 1.392 . S
C1677 C1681 1.495 . S
C1678 C1677 1.392 . S
C1678 C1679 1.385 . S
C1678 C1680 1.478 . S
C1679 H1673 0.930 . S
C1679 C1675 1.400 . S
C1679 C1678 1.385 . S
C1680 C1678 1.478 . S
C1680 C1682 1.381 . S
C1680 C1686 1.383 . S
C1681 C1677 1.495 . S
C1681 H1687 0.959 . S
C1681 H1688 0.961 . S
C1681 H1689 0.960 . S
C1682 C1680 1.381 . S
C1682 C1683 1.394 . S
C1682 H1690 0.930 . S
C1683 C1682 1.394 . S
C1683 C1684 1.383 . S
C1683 H1691 0.929 . S
C1684 C1683 1.383 . S
C1684 C1685 1.377 . S
C1685 H1669 0.930 . S
C1685 C1684 1.377 . S
C1685 C1686 1.379 . S
C1686 H1670 0.931 . S
C1686 C1680 1.383 . S
C1686 C1685 1.379 . S
H1687 C1681 0.959 . S
H1688 C1681 0.961 . S
H1689 C1681 0.960 . S
H1690 C1682 0.930 . S
H1691 C1683 0.929 . S
H1692 C1700 0.929 . S
H1693 C1702 0.930 . S
H1694 C1704 0.930 . S
H1695 C1707 0.929 . S
H1696 C1710 0.930 . S
H1697 C1712 0.960 . S
H1698 C1712 0.960 . S
H1699 C1712 0.960 . S
C1700 H1692 0.929 . S
C1700 C1701 1.377 . S
C1700 C1702 1.384 . S
C1701 C1700 1.377 . S
C1701 C1707 1.390 . S
C1702 H1693 0.930 . S
C1702 C1700 1.384 . S
C1702 C1703 1.372 . S
C1703 C1702 1.372 . S
C1703 C1704 1.400 . S
C1703 C1708 1.490 . S
C1704 H1694 0.930 . S
C1704 C1703 1.400 . S
C1704 C1707 1.386 . S
H1705 C1721 0.930 . S
H1706 C1722 0.931 . S
C1707 H1695 0.929 . S
C1707 C1701 1.390 . S
C1707 C1704 1.386 . S
C1708 C1703 1.490 . S
C1708 C1710 1.395 . S
C1708 C1711 1.403 . S
H1709 C1715 0.930 . S
C1710 H1696 0.930 . S
C1710 C1708 1.395 . S
C1710 C1713 1.403 . S
C1711 C1708 1.403 . S
C1711 C1712 1.524 . S
C1711 C1715 1.400 . S
C1712 H1697 0.960 . S
C1712 H1698 0.960 . S
C1712 H1699 0.960 . S
C1712 C1711 1.524 . S
C1713 C1710 1.403 . S
C1713 C1714 1.392 . S
C1713 C1717 1.495 . S
C1714 C1713 1.392 . S
C1714 C1715 1.385 . S
C1714 C1716 1.478 . S
C1715 H1709 0.930 . S
C1715 C1711 1.400 . S
C1715 C1714 1.385 . S
C1716 C1714 1.478 . S
C1716 C1718 1.381 . S
C1716 C1722 1.383 . S
C1717 C1713 1.495 . S
C1717 H1723 0.959 . S
C1717 H1724 0.961 . S
C1717 H1725 0.960 . S
C1718 C1716 1.381 . S
C1718 C1719 1.394 . S
C1718 H1726 0.930 . S
C1719 C1718 1.394 . S
C1719 C1720 1.383 . S
C1719 H1727 0.929 . S
C1720 C1719 1.383 . S
C1720 C1721 1.377 . S
C1721 H1705 0.930 . S
C1721 C1720 1.377 . S
C1721 C1722 1.379 . S
C1722 H1706 0.931 . S
C1722 C1716 1.383 . S
C1722 C1721 1.379 . S
H1723 C1717 0.959 . S
H1724 C1717 0.961 . S
H1725 C1717 0.960 . S
H1726 C1718 0.930 . S
H1727 C1719 0.929 . S
H1728 C1736 0.929 . S
H1729 C1738 0.930 . S
H1730 C1740 0.930 . S
H1731 C1743 0.929 . S
H1732 C1746 0.930 . S
H1733 C1748 0.960 . S
H1734 C1748 0.960 . S
H1735 C1748 0.960 . S
C1736 H1728 0.929 . S
C1736 C1737 1.377 . S
C1736 C1738 1.384 . S
C1737 C1736 1.377 . S
C1737 C1743 1.390 . S
C1738 H1729 0.930 . S
C1738 C1736 1.384 . S
C1738 C1739 1.372 . S
C1739 C1738 1.372 . S
C1739 C1740 1.400 . S
C1739 C1744 1.490 . S
C1740 H1730 0.930 . S
C1740 C1739 1.400 . S
C1740 C1743 1.386 . S
H1741 C1757 0.930 . S
H1742 C1758 0.931 . S
C1743 H1731 0.929 . S
C1743 C1737 1.390 . S
C1743 C1740 1.386 . S
C1744 C1739 1.490 . S
C1744 C1746 1.395 . S
C1744 C1747 1.403 . S
H1745 C1751 0.930 . S
C1746 H1732 0.930 . S
C1746 C1744 1.395 . S
C1746 C1749 1.403 . S
C1747 C1744 1.403 . S
C1747 C1748 1.524 . S
C1747 C1751 1.400 . S
C1748 H1733 0.960 . S
C1748 H1734 0.960 . S
C1748 H1735 0.960 . S
C1748 C1747 1.524 . S
C1749 C1746 1.403 . S
C1749 C1750 1.392 . S
C1749 C1753 1.495 . S
C1750 C1749 1.392 . S
C1750 C1751 1.385 . S
C1750 C1752 1.478 . S
C1751 H1745 0.930 . S
C1751 C1747 1.400 . S
C1751 C1750 1.385 . S
C1752 C1750 1.478 . S
C1752 C1754 1.381 . S
C1752 C1758 1.383 . S
C1753 C1749 1.495 . S
C1753 H1759 0.959 . S
C1753 H1760 0.961 . S
C1753 H1761 0.960 . S
C1754 C1752 1.381 . S
C1754 C1755 1.394 . S
C1754 H1762 0.930 . S
C1755 C1754 1.394 . S
C1755 C1756 1.383 . S
C1755 H1763 0.929 . S
C1756 C1755 1.383 . S
C1756 C1757 1.377 . S
C1757 H1741 0.930 . S
C1757 C1756 1.377 . S
C1757 C1758 1.379 . S
C1758 H1742 0.931 . S
C1758 C1752 1.383 . S
C1758 C1757 1.379 . S
H1759 C1753 0.959 . S
H1760 C1753 0.961 . S
H1761 C1753 0.960 . S
H1762 C1754 0.930 . S
H1763 C1755 0.929 . S
H1764 C1772 0.929 . S
H1765 C1774 0.930 . S
H1766 C1776 0.930 . S
H1767 C1779 0.929 . S
H1768 C1782 0.930 . S
H1769 C1784 0.960 . S
H1770 C1784 0.960 . S
H1771 C1784 0.960 . S
C1772 H1764 0.929 . S
C1772 C1773 1.377 . S
C1772 C1774 1.384 . S
C1773 C1772 1.377 . S
C1773 C1779 1.390 . S
C1774 H1765 0.930 . S
C1774 C1772 1.384 . S
C1774 C1775 1.372 . S
C1775 C1774 1.372 . S
C1775 C1776 1.400 . S
C1775 C1780 1.490 . S
C1776 H1766 0.930 . S
C1776 C1775 1.400 . S
C1776 C1779 1.386 . S
H1777 C1793 0.930 . S
H1778 C1794 0.931 . S
C1779 H1767 0.929 . S
C1779 C1773 1.390 . S
C1779 C1776 1.386 . S
C1780 C1775 1.490 . S
C1780 C1782 1.395 . S
C1780 C1783 1.403 . S
H1781 C1787 0.930 . S
C1782 H1768 0.930 . S
C1782 C1780 1.395 . S
C1782 C1785 1.403 . S
C1783 C1780 1.403 . S
C1783 C1784 1.524 . S
C1783 C1787 1.400 . S
C1784 H1769 0.960 . S
C1784 H1770 0.960 . S
C1784 H1771 0.960 . S
C1784 C1783 1.524 . S
C1785 C1782 1.403 . S
C1785 C1786 1.392 . S
C1785 C1789 1.495 . S
C1786 C1785 1.392 . S
C1786 C1787 1.385 . S
C1786 C1788 1.478 . S
C1787 H1781 0.930 . S
C1787 C1783 1.400 . S
C1787 C1786 1.385 . S
C1788 C1786 1.478 . S
C1788 C1790 1.381 . S
C1788 C1794 1.383 . S
C1789 C1785 1.495 . S
C1789 H1795 0.959 . S
C1789 H1796 0.961 . S
C1789 H1797 0.960 . S
C1790 C1788 1.381 . S
C1790 C1791 1.394 . S
C1790 H1798 0.930 . S
C1791 C1790 1.394 . S
C1791 C1792 1.383 . S
C1791 H1799 0.929 . S
C1792 C1791 1.383 . S
C1792 C1793 1.377 . S
C1793 H1777 0.930 . S
C1793 C1792 1.377 . S
C1793 C1794 1.379 . S
C1794 H1778 0.931 . S
C1794 C1788 1.383 . S
C1794 C1793 1.379 . S
H1795 C1789 0.959 . S
H1796 C1789 0.961 . S
H1797 C1789 0.960 . S
H1798 C1790 0.930 . S
H1799 C1791 0.929 . S
H1800 C1808 0.929 . S
H1801 C1810 0.930 . S
H1802 C1812 0.930 . S
H1803 C1815 0.929 . S
H1804 C1818 0.930 . S
H1805 C1820 0.960 . S
H1806 C1820 0.960 . S
H1807 C1820 0.960 . S
C1808 H1800 0.929 . S
C1808 C1809 1.377 . S
C1808 C1810 1.384 . S
C1809 C1808 1.377 . S
C1809 C1815 1.390 . S
C1810 H1801 0.930 . S
C1810 C1808 1.384 . S
C1810 C1811 1.372 . S
C1811 C1810 1.372 . S
C1811 C1812 1.400 . S
C1811 C1816 1.490 . S
C1812 H1802 0.930 . S
C1812 C1811 1.400 . S
C1812 C1815 1.386 . S
H1813 C1829 0.930 . S
H1814 C1830 0.931 . S
C1815 H1803 0.929 . S
C1815 C1809 1.390 . S
C1815 C1812 1.386 . S
C1816 C1811 1.490 . S
C1816 C1818 1.395 . S
C1816 C1819 1.403 . S
H1817 C1823 0.930 . S
C1818 H1804 0.930 . S
C1818 C1816 1.395 . S
C1818 C1821 1.403 . S
C1819 C1816 1.403 . S
C1819 C1820 1.524 . S
C1819 C1823 1.400 . S
C1820 H1805 0.960 . S
C1820 H1806 0.960 . S
C1820 H1807 0.960 . S
C1820 C1819 1.524 . S
C1821 C1818 1.403 . S
C1821 C1822 1.392 . S
C1821 C1825 1.495 . S
C1822 C1821 1.392 . S
C1822 C1823 1.385 . S
C1822 C1824 1.478 . S
C1823 H1817 0.930 . S
C1823 C1819 1.400 . S
C1823 C1822 1.385 . S
C1824 C1822 1.478 . S
C1824 C1826 1.381 . S
C1824 C1830 1.383 . S
C1825 C1821 1.495 . S
C1825 H1831 0.959 . S
C1825 H1832 0.961 . S
C1825 H1833 0.960 . S
C1826 C1824 1.381 . S
C1826 C1827 1.394 . S
C1826 H1834 0.930 . S
C1827 C1826 1.394 . S
C1827 C1828 1.383 . S
C1827 H1835 0.929 . S
C1828 C1827 1.383 . S
C1828 C1829 1.377 . S
C1829 H1813 0.930 . S
C1829 C1828 1.377 . S
C1829 C1830 1.379 . S
C1830 H1814 0.931 . S
C1830 C1824 1.383 . S
C1830 C1829 1.379 . S
H1831 C1825 0.959 . S
H1832 C1825 0.961 . S
H1833 C1825 0.960 . S
H1834 C1826 0.930 . S
H1835 C1827 0.929 . S
H1836 C1844 0.929 . S
H1837 C1846 0.930 . S
H1838 C1848 0.930 . S
H1839 C1851 0.929 . S
H1840 C1854 0.930 . S
H1841 C1856 0.960 . S
H1842 C1856 0.960 . S
H1843 C1856 0.960 . S
C1844 H1836 0.929 . S
C1844 C1845 1.377 . S
C1844 C1846 1.384 . S
C1845 C1844 1.377 . S
C1845 C1851 1.390 . S
C1846 H1837 0.930 . S
C1846 C1844 1.384 . S
C1846 C1847 1.372 . S
C1847 C1846 1.372 . S
C1847 C1848 1.400 . S
C1847 C1852 1.490 . S
C1848 H1838 0.930 . S
C1848 C1847 1.400 . S
C1848 C1851 1.386 . S
H1849 C1865 0.930 . S
H1850 C1866 0.931 . S
C1851 H1839 0.929 . S
C1851 C1845 1.390 . S
C1851 C1848 1.386 . S
C1852 C1847 1.490 . S
C1852 C1854 1.395 . S
C1852 C1855 1.403 . S
H1853 C1859 0.930 . S
C1854 H1840 0.930 . S
C1854 C1852 1.395 . S
C1854 C1857 1.403 . S
C1855 C1852 1.403 . S
C1855 C1856 1.524 . S
C1855 C1859 1.400 . S
C1856 H1841 0.960 . S
C1856 H1842 0.960 . S
C1856 H1843 0.960 . S
C1856 C1855 1.524 . S
C1857 C1854 1.403 . S
C1857 C1858 1.392 . S
C1857 C1861 1.495 . S
C1858 C1857 1.392 . S
C1858 C1859 1.385 . S
C1858 C1860 1.478 . S
C1859 H1853 0.930 . S
C1859 C1855 1.400 . S
C1859 C1858 1.385 . S
C1860 C1858 1.478 . S
C1860 C1862 1.381 . S
C1860 C1866 1.383 . S
C1861 C1857 1.495 . S
C1861 H1867 0.959 . S
C1861 H1868 0.961 . S
C1861 H1869 0.960 . S
C1862 C1860 1.381 . S
C1862 C1863 1.394 . S
C1862 H1870 0.930 . S
C1863 C1862 1.394 . S
C1863 C1864 1.383 . S
C1863 H1871 0.929 . S
C1864 C1863 1.383 . S
C1864 C1865 1.377 . S
C1865 H1849 0.930 . S
C1865 C1864 1.377 . S
C1865 C1866 1.379 . S
C1866 H1850 0.931 . S
C1866 C1860 1.383 . S
C1866 C1865 1.379 . S
H1867 C1861 0.959 . S
H1868 C1861 0.961 . S
H1869 C1861 0.960 . S
H1870 C1862 0.930 . S
H1871 C1863 0.929 . S
H1872 C1880 0.929 . S
H1873 C1882 0.930 . S
H1874 C1884 0.930 . S
H1875 C1887 0.929 . S
H1876 C1890 0.930 . S
H1877 C1892 0.960 . S
H1878 C1892 0.960 . S
H1879 C1892 0.960 . S
C1880 H1872 0.929 . S
C1880 C1881 1.377 . S
C1880 C1882 1.384 . S
C1881 C1880 1.377 . S
C1881 C1887 1.390 . S
C1882 H1873 0.930 . S
C1882 C1880 1.384 . S
C1882 C1883 1.372 . S
C1883 C1882 1.372 . S
C1883 C1884 1.400 . S
C1883 C1888 1.490 . S
C1884 H1874 0.930 . S
C1884 C1883 1.400 . S
C1884 C1887 1.386 . S
H1885 C1901 0.930 . S
H1886 C1902 0.931 . S
C1887 H1875 0.929 . S
C1887 C1881 1.390 . S
C1887 C1884 1.386 . S
C1888 C1883 1.490 . S
C1888 C1890 1.395 . S
C1888 C1891 1.403 . S
H1889 C1895 0.930 . S
C1890 H1876 0.930 . S
C1890 C1888 1.395 . S
C1890 C1893 1.403 . S
C1891 C1888 1.403 . S
C1891 C1892 1.524 . S
C1891 C1895 1.400 . S
C1892 H1877 0.960 . S
C1892 H1878 0.960 . S
C1892 H1879 0.960 . S
C1892 C1891 1.524 . S
C1893 C1890 1.403 . S
C1893 C1894 1.392 . S
C1893 C1897 1.495 . S
C1894 C1893 1.392 . S
C1894 C1895 1.385 . S
C1894 C1896 1.478 . S
C1895 H1889 0.930 . S
C1895 C1891 1.400 . S
C1895 C1894 1.385 . S
C1896 C1894 1.478 . S
C1896 C1898 1.381 . S
C1896 C1902 1.383 . S
C1897 C1893 1.495 . S
C1897 H1903 0.959 . S
C1897 H1904 0.961 . S
C1897 H1905 0.960 . S
C1898 C1896 1.381 . S
C1898 C1899 1.394 . S
C1898 H1906 0.930 . S
C1899 C1898 1.394 . S
C1899 C1900 1.383 . S
C1899 H1907 0.929 . S
C1900 C1899 1.383 . S
C1900 C1901 1.377 . S
C1901 H1885 0.930 . S
C1901 C1900 1.377 . S
C1901 C1902 1.379 . S
C1902 H1886 0.931 . S
C1902 C1896 1.383 . S
C1902 C1901 1.379 . S
H1903 C1897 0.959 . S
H1904 C1897 0.961 . S
H1905 C1897 0.960 . S
H1906 C1898 0.930 . S
H1907 C1899 0.929 . S
H1908 C1916 0.929 . S
H1909 C1918 0.930 . S
H1910 C1920 0.930 . S
H1911 C1923 0.929 . S
H1912 C1926 0.930 . S
H1913 C1928 0.960 . S
H1914 C1928 0.960 . S
H1915 C1928 0.960 . S
C1916 H1908 0.929 . S
C1916 C1917 1.377 . S
C1916 C1918 1.384 . S
C1917 C1916 1.377 . S
C1917 C1923 1.390 . S
C1918 H1909 0.930 . S
C1918 C1916 1.384 . S
C1918 C1919 1.372 . S
C1919 C1918 1.372 . S
C1919 C1920 1.400 . S
C1919 C1924 1.490 . S
C1920 H1910 0.930 . S
C1920 C1919 1.400 . S
C1920 C1923 1.386 . S
H1921 C1937 0.930 . S
H1922 C1938 0.931 . S
C1923 H1911 0.929 . S
C1923 C1917 1.390 . S
C1923 C1920 1.386 . S
C1924 C1919 1.490 . S
C1924 C1926 1.395 . S
C1924 C1927 1.403 . S
H1925 C1931 0.930 . S
C1926 H1912 0.930 . S
C1926 C1924 1.395 . S
C1926 C1929 1.403 . S
C1927 C1924 1.403 . S
C1927 C1928 1.524 . S
C1927 C1931 1.400 . S
C1928 H1913 0.960 . S
C1928 H1914 0.960 . S
C1928 H1915 0.960 . S
C1928 C1927 1.524 . S
C1929 C1926 1.403 . S
C1929 C1930 1.392 . S
C1929 C1933 1.495 . S
C1930 C1929 1.392 . S
C1930 C1931 1.385 . S
C1930 C1932 1.478 . S
C1931 H1925 0.930 . S
C1931 C1927 1.400 . S
C1931 C1930 1.385 . S
C1932 C1930 1.478 . S
C1932 C1934 1.381 . S
C1932 C1938 1.383 . S
C1933 C1929 1.495 . S
C1933 H1939 0.959 . S
C1933 H1940 0.961 . S
C1933 H1941 0.960 . S
C1934 C1932 1.381 . S
C1934 C1935 1.394 . S
C1934 H1942 0.930 . S
C1935 C1934 1.394 . S
C1935 C1936 1.383 . S
C1935 H1943 0.929 . S
C1936 C1935 1.383 . S
C1936 C1937 1.377 . S
C1937 H1921 0.930 . S
C1937 C1936 1.377 . S
C1937 C1938 1.379 . S
C1938 H1922 0.931 . S
C1938 C1932 1.383 . S
C1938 C1937 1.379 . S
H1939 C1933 0.959 . S
H1940 C1933 0.961 . S
H1941 C1933 0.960 . S
H1942 C1934 0.930 . S
H1943 C1935 0.929 . S
H1944 C1952 0.929 . S
H1945 C1954 0.930 . S
H1946 C1956 0.930 . S
H1947 C1959 0.929 . S
H1948 C1962 0.930 . S
H1949 C1964 0.960 . S
H1950 C1964 0.960 . S
H1951 C1964 0.960 . S
C1952 H1944 0.929 . S
C1952 C1953 1.377 . S
C1952 C1954 1.384 . S
C1953 C1952 1.377 . S
C1953 C1959 1.390 . S
C1954 H1945 0.930 . S
C1954 C1952 1.384 . S
C1954 C1955 1.372 . S
C1955 C1954 1.372 . S
C1955 C1956 1.400 . S
C1955 C1960 1.490 . S
C1956 H1946 0.930 . S
C1956 C1955 1.400 . S
C1956 C1959 1.386 . S
H1957 C1973 0.930 . S
H1958 C1974 0.931 . S
C1959 H1947 0.929 . S
C1959 C1953 1.390 . S
C1959 C1956 1.386 . S
C1960 C1955 1.490 . S
C1960 C1962 1.395 . S
C1960 C1963 1.403 . S
H1961 C1967 0.930 . S
C1962 H1948 0.930 . S
C1962 C1960 1.395 . S
C1962 C1965 1.403 . S
C1963 C1960 1.403 . S
C1963 C1964 1.524 . S
C1963 C1967 1.400 . S
C1964 H1949 0.960 . S
C1964 H1950 0.960 . S
C1964 H1951 0.960 . S
C1964 C1963 1.524 . S
C1965 C1962 1.403 . S
C1965 C1966 1.392 . S
C1965 C1969 1.495 . S
C1966 C1965 1.392 . S
C1966 C1967 1.385 . S
C1966 C1968 1.478 . S
C1967 H1961 0.930 . S
C1967 C1963 1.400 . S
C1967 C1966 1.385 . S
C1968 C1966 1.478 . S
C1968 C1970 1.381 . S
C1968 C1974 1.383 . S
C1969 C1965 1.495 . S
C1969 H1975 0.959 . S
C1969 H1976 0.961 . S
C1969 H1977 0.960 . S
C1970 C1968 1.381 . S
C1970 C1971 1.394 . S
C1970 H1978 0.930 . S
C1971 C1970 1.394 . S
C1971 C1972 1.383 . S
C1971 H1979 0.929 . S
C1972 C1971 1.383 . S
C1972 C1973 1.377 . S
C1973 H1957 0.930 . S
C1973 C1972 1.377 . S
C1973 C1974 1.379 . S
C1974 H1958 0.931 . S
C1974 C1968 1.383 . S
C1974 C1973 1.379 . S
H1975 C1969 0.959 . S
H1976 C1969 0.961 . S
H1977 C1969 0.960 . S
H1978 C1970 0.930 . S
H1979 C1971 0.929 . S
H1980 C1988 0.929 . S
H1981 C1990 0.930 . S
H1982 C1992 0.930 . S
H1983 C1995 0.929 . S
H1984 C1998 0.930 . S
H1985 C2000 0.960 . S
H1986 C2000 0.960 . S
H1987 C2000 0.960 . S
C1988 H1980 0.929 . S
C1988 C1989 1.377 . S
C1988 C1990 1.384 . S
C1989 C1988 1.377 . S
C1989 C1995 1.390 1_556 S
C1990 H1981 0.930 . S
C1990 C1988 1.384 . S
C1990 C1991 1.372 . S
C1991 C1990 1.372 . S
C1991 C1992 1.400 . S
C1991 C1996 1.490 . S
C1992 H1982 0.930 . S
C1992 C1991 1.400 . S
C1992 C1995 1.386 1_556 S
H1993 C2009 0.930 . S
H1994 C2010 0.931 . S
C1995 H1983 0.929 . S
C1995 C1989 1.390 1_554 S
C1995 C1992 1.386 1_554 S
C1996 C1991 1.490 . S
C1996 C1998 1.395 . S
C1996 C1999 1.403 . S
H1997 C2003 0.930 . S
C1998 H1984 0.930 . S
C1998 C1996 1.395 . S
C1998 C2001 1.403 . S
C1999 C1996 1.403 . S
C1999 C2000 1.524 . S
C1999 C2003 1.400 . S
C2000 H1985 0.960 . S
C2000 H1986 0.960 . S
C2000 H1987 0.960 . S
C2000 C1999 1.524 . S
C2001 C1998 1.403 . S
C2001 C2002 1.392 . S
C2001 C2005 1.495 . S
C2002 C2001 1.392 . S
C2002 C2003 1.385 . S
C2002 C2004 1.478 . S
C2003 H1997 0.930 . S
C2003 C1999 1.400 . S
C2003 C2002 1.385 . S
C2004 C2002 1.478 . S
C2004 C2006 1.381 . S
C2004 C2010 1.383 . S
C2005 C2001 1.495 . S
C2005 H2011 0.959 . S
C2005 H2012 0.961 . S
C2005 H2013 0.960 . S
C2006 C2004 1.381 . S
C2006 C2007 1.394 . S
C2006 H2014 0.930 . S
C2007 C2006 1.394 . S
C2007 C2008 1.383 . S
C2007 H2015 0.929 . S
C2008 C2007 1.383 . S
C2008 C2009 1.377 . S
C2009 H1993 0.930 . S
C2009 C2008 1.377 . S
C2009 C2010 1.379 . S
C2010 H1994 0.931 . S
C2010 C2004 1.383 . S
C2010 C2009 1.379 . S
H2011 C2005 0.959 . S
H2012 C2005 0.961 . S
H2013 C2005 0.960 . S
H2014 C2006 0.930 . S
H2015 C2007 0.929 . S
H2016 C2024 0.929 . S
H2017 C2026 0.930 . S
H2018 C2028 0.930 . S
H2019 C2031 0.929 . S
H2020 C2034 0.930 . S
H2021 C2036 0.960 . S
H2022 C2036 0.960 . S
H2023 C2036 0.960 . S
C2024 H2016 0.929 . S
C2024 C2025 1.377 . S
C2024 C2026 1.384 . S
C2025 C2024 1.377 . S
C2025 C2031 1.390 . S
C2026 H2017 0.930 . S
C2026 C2024 1.384 . S
C2026 C2027 1.372 . S
C2027 C2026 1.372 . S
C2027 C2028 1.400 . S
C2027 C2032 1.490 . S
C2028 H2018 0.930 . S
C2028 C2027 1.400 . S
C2028 C2031 1.386 . S
H2029 C2045 0.930 . S
H2030 C2046 0.931 . S
C2031 H2019 0.929 . S
C2031 C2025 1.390 . S
C2031 C2028 1.386 . S
C2032 C2027 1.490 . S
C2032 C2034 1.395 . S
C2032 C2035 1.403 . S
H2033 C2039 0.930 . S
C2034 H2020 0.930 . S
C2034 C2032 1.395 . S
C2034 C2037 1.403 . S
C2035 C2032 1.403 . S
C2035 C2036 1.524 . S
C2035 C2039 1.400 . S
C2036 H2021 0.960 . S
C2036 H2022 0.960 . S
C2036 H2023 0.960 . S
C2036 C2035 1.524 . S
C2037 C2034 1.403 . S
C2037 C2038 1.392 . S
C2037 C2041 1.495 . S
C2038 C2037 1.392 . S
C2038 C2039 1.385 . S
C2038 C2040 1.478 . S
C2039 H2033 0.930 . S
C2039 C2035 1.400 . S
C2039 C2038 1.385 . S
C2040 C2038 1.478 . S
C2040 C2042 1.381 . S
C2040 C2046 1.383 . S
C2041 C2037 1.495 . S
C2041 H2047 0.959 1_556 S
C2041 H2048 0.961 . S
C2041 H2049 0.960 . S
C2042 C2040 1.381 . S
C2042 C2043 1.394 . S
C2042 H2050 0.930 . S
C2043 C2042 1.394 . S
C2043 C2044 1.383 . S
C2043 H2051 0.929 . S
C2044 C2043 1.383 . S
C2044 C2045 1.377 . S
C2045 H2029 0.930 . S
C2045 C2044 1.377 . S
C2045 C2046 1.379 . S
C2046 H2030 0.931 . S
C2046 C2040 1.383 . S
C2046 C2045 1.379 . S
H2047 C2041 0.959 1_554 S
H2048 C2041 0.961 . S
H2049 C2041 0.960 . S
H2050 C2042 0.930 . S
H2051 C2043 0.929 . S
H2052 C2060 0.929 . S
H2053 C2062 0.930 . S
H2054 C2064 0.930 . S
H2055 C2067 0.929 . S
H2056 C2070 0.930 . S
H2057 C2072 0.960 1_554 S
H2058 C2072 0.960 1_554 S
H2059 C2072 0.960 . S
C2060 H2052 0.929 . S
C2060 C2061 1.377 . S
C2060 C2062 1.384 . S
C2061 C2060 1.377 . S
C2061 C2067 1.390 . S
C2062 H2053 0.930 . S
C2062 C2060 1.384 . S
C2062 C2063 1.372 . S
C2063 C2062 1.372 . S
C2063 C2064 1.400 . S
C2063 C2068 1.490 . S
C2064 H2054 0.930 . S
C2064 C2063 1.400 . S
C2064 C2067 1.386 . S
H2065 C2081 0.930 . S
H2066 C2082 0.931 . S
C2067 H2055 0.929 . S
C2067 C2061 1.390 . S
C2067 C2064 1.386 . S
C2068 C2063 1.490 . S
C2068 C2070 1.395 . S
C2068 C2071 1.403 . S
H2069 C2075 0.930 . S
C2070 H2056 0.930 . S
C2070 C2068 1.395 . S
C2070 C2073 1.403 . S
C2071 C2068 1.403 . S
C2071 C2072 1.524 . S
C2071 C2075 1.400 . S
C2072 H2057 0.960 1_556 S
C2072 H2058 0.960 1_556 S
C2072 H2059 0.960 . S
C2072 C2071 1.524 . S
C2073 C2070 1.403 . S
C2073 C2074 1.392 . S
C2073 C2077 1.495 . S
C2074 C2073 1.392 . S
C2074 C2075 1.385 . S
C2074 C2076 1.478 . S
C2075 H2069 0.930 . S
C2075 C2071 1.400 . S
C2075 C2074 1.385 . S
C2076 C2074 1.478 . S
C2076 C2078 1.381 . S
C2076 C2082 1.383 . S
C2077 C2073 1.495 . S
C2077 H2083 0.959 . S
C2077 H2084 0.961 . S
C2077 H2085 0.960 . S
C2078 C2076 1.381 . S
C2078 C2079 1.394 . S
C2078 H2086 0.930 . S
C2079 C2078 1.394 . S
C2079 C2080 1.383 . S
C2079 H2087 0.929 . S
C2080 C2079 1.383 . S
C2080 C2081 1.377 . S
C2081 H2065 0.930 . S
C2081 C2080 1.377 . S
C2081 C2082 1.379 . S
C2082 H2066 0.931 . S
C2082 C2076 1.383 . S
C2082 C2081 1.379 . S
H2083 C2077 0.959 . S
H2084 C2077 0.961 . S
H2085 C2077 0.960 . S
H2086 C2078 0.930 . S
H2087 C2079 0.929 . S
H2088 C2096 0.929 . S
H2089 C2098 0.930 . S
H2090 C2100 0.930 . S
H2091 C2103 0.929 . S
H2092 C2106 0.930 . S
H2093 C2108 0.960 . S
H2094 C2108 0.960 . S
H2095 C2108 0.960 . S
C2096 H2088 0.929 . S
C2096 C2097 1.377 . S
C2096 C2098 1.384 . S
C2097 C2096 1.377 . S
C2097 C2103 1.390 . S
C2098 H2089 0.930 . S
C2098 C2096 1.384 . S
C2098 C2099 1.372 . S
C2099 C2098 1.372 . S
C2099 C2100 1.400 . S
C2099 C2104 1.490 . S
C2100 H2090 0.930 . S
C2100 C2099 1.400 . S
C2100 C2103 1.386 . S
H2101 C2117 0.930 . S
H2102 C2118 0.931 . S
C2103 H2091 0.929 . S
C2103 C2097 1.390 . S
C2103 C2100 1.386 . S
C2104 C2099 1.490 . S
C2104 C2106 1.395 . S
C2104 C2107 1.403 . S
H2105 C2111 0.930 . S
C2106 H2092 0.930 . S
C2106 C2104 1.395 . S
C2106 C2109 1.403 . S
C2107 C2104 1.403 . S
C2107 C2108 1.524 . S
C2107 C2111 1.400 . S
C2108 H2093 0.960 . S
C2108 H2094 0.960 . S
C2108 H2095 0.960 . S
C2108 C2107 1.524 . S
C2109 C2106 1.403 . S
C2109 C2110 1.392 . S
C2109 C2113 1.495 . S
C2110 C2109 1.392 . S
C2110 C2111 1.385 . S
C2110 C2112 1.478 . S
C2111 H2105 0.930 . S
C2111 C2107 1.400 . S
C2111 C2110 1.385 . S
C2112 C2110 1.478 . S
C2112 C2114 1.381 . S
C2112 C2118 1.383 . S
C2113 C2109 1.495 . S
C2113 H2119 0.959 1_556 S
C2113 H2120 0.961 . S
C2113 H2121 0.960 . S
C2114 C2112 1.381 . S
C2114 C2115 1.394 . S
C2114 H2122 0.930 . S
C2115 C2114 1.394 . S
C2115 C2116 1.383 . S
C2115 H2123 0.929 . S
C2116 C2115 1.383 . S
C2116 C2117 1.377 . S
C2117 H2101 0.930 . S
C2117 C2116 1.377 . S
C2117 C2118 1.379 . S
C2118 H2102 0.931 . S
C2118 C2112 1.383 . S
C2118 C2117 1.379 . S
H2119 C2113 0.959 1_554 S
H2120 C2113 0.961 . S
H2121 C2113 0.960 . S
H2122 C2114 0.930 . S
H2123 C2115 0.929 . S
H2124 C2132 0.929 . S
H2125 C2134 0.930 . S
H2126 C2136 0.930 1_554 S
H2127 C2139 0.929 . S
H2128 C2142 0.930 . S
H2129 C2144 0.960 . S
H2130 C2144 0.960 . S
H2131 C2144 0.960 1_554 S
C2132 H2124 0.929 . S
C2132 C2133 1.377 . S
C2132 C2134 1.384 . S
C2133 C2132 1.377 . S
C2133 C2139 1.390 1_556 S
C2134 H2125 0.930 . S
C2134 C2132 1.384 . S
C2134 C2135 1.372 . S
C2135 C2134 1.372 . S
C2135 C2136 1.400 . S
C2135 C2140 1.490 . S
C2136 H2126 0.930 1_556 S
C2136 C2135 1.400 . S
C2136 C2139 1.386 1_556 S
H2137 C2153 0.930 . S
H2138 C2154 0.931 . S
C2139 H2127 0.929 . S
C2139 C2133 1.390 1_554 S
C2139 C2136 1.386 1_554 S
C2140 C2135 1.490 . S
C2140 C2142 1.395 . S
C2140 C2143 1.403 . S
H2141 C2147 0.930 . S
C2142 H2128 0.930 . S
C2142 C2140 1.395 . S
C2142 C2145 1.403 . S
C2143 C2140 1.403 . S
C2143 C2144 1.524 . S
C2143 C2147 1.400 . S
C2144 H2129 0.960 . S
C2144 H2130 0.960 . S
C2144 H2131 0.960 1_556 S
C2144 C2143 1.524 . S
C2145 C2142 1.403 . S
C2145 C2146 1.392 . S
C2145 C2149 1.495 . S
C2146 C2145 1.392 . S
C2146 C2147 1.385 . S
C2146 C2148 1.478 . S
C2147 H2141 0.930 . S
C2147 C2143 1.400 . S
C2147 C2146 1.385 . S
C2148 C2146 1.478 . S
C2148 C2150 1.381 . S
C2148 C2154 1.383 . S
C2149 C2145 1.495 . S
C2149 H2155 0.959 . S
C2149 H2156 0.961 . S
C2149 H2157 0.960 . S
C2150 C2148 1.381 . S
C2150 C2151 1.394 . S
C2150 H2158 0.930 . S
C2151 C2150 1.394 . S
C2151 C2152 1.383 . S
C2151 H2159 0.929 . S
C2152 C2151 1.383 . S
C2152 C2153 1.377 . S
C2153 H2137 0.930 . S
C2153 C2152 1.377 . S
C2153 C2154 1.379 . S
C2154 H2138 0.931 . S
C2154 C2148 1.383 . S
C2154 C2153 1.379 . S
H2155 C2149 0.959 . S
H2156 C2149 0.961 . S
H2157 C2149 0.960 . S
H2158 C2150 0.930 . S
H2159 C2151 0.929 . S
H2160 C2168 0.929 . S
H2161 C2170 0.930 1_554 S
H2162 C2172 0.930 . S
H2163 C2175 0.929 . S
H2164 C2178 0.930 . S
H2165 C2180 0.960 . S
H2166 C2180 0.960 . S
H2167 C2180 0.960 . S
C2168 H2160 0.929 . S
C2168 C2169 1.377 1_554 S
C2168 C2170 1.384 1_554 S
C2169 C2168 1.377 1_556 S
C2169 C2175 1.390 . S
C2170 H2161 0.930 1_556 S
C2170 C2168 1.384 1_556 S
C2170 C2171 1.372 . S
C2171 C2170 1.372 . S
C2171 C2172 1.400 . S
C2171 C2176 1.490 . S
C2172 H2162 0.930 . S
C2172 C2171 1.400 . S
C2172 C2175 1.386 . S
H2173 C2189 0.930 . S
H2174 C2190 0.931 . S
C2175 H2163 0.929 . S
C2175 C2169 1.390 . S
C2175 C2172 1.386 . S
C2176 C2171 1.490 . S
C2176 C2178 1.395 . S
C2176 C2179 1.403 . S
H2177 C2183 0.930 . S
C2178 H2164 0.930 . S
C2178 C2176 1.395 . S
C2178 C2181 1.403 . S
C2179 C2176 1.403 . S
C2179 C2180 1.524 . S
C2179 C2183 1.400 . S
C2180 H2165 0.960 . S
C2180 H2166 0.960 . S
C2180 H2167 0.960 . S
C2180 C2179 1.524 . S
C2181 C2178 1.403 . S
C2181 C2182 1.392 . S
C2181 C2185 1.495 . S
C2182 C2181 1.392 . S
C2182 C2183 1.385 . S
C2182 C2184 1.478 . S
C2183 H2177 0.930 . S
C2183 C2179 1.400 . S
C2183 C2182 1.385 . S
C2184 C2182 1.478 . S
C2184 C2186 1.381 . S
C2184 C2190 1.383 . S
C2185 C2181 1.495 . S
C2185 H2191 0.959 . S
C2185 H2192 0.961 . S
C2185 H2193 0.960 . S
C2186 C2184 1.381 . S
C2186 C2187 1.394 . S
C2186 H2194 0.930 . S
C2187 C2186 1.394 . S
C2187 C2188 1.383 . S
C2187 H2195 0.929 . S
C2188 C2187 1.383 . S
C2188 C2189 1.377 . S
C2189 H2173 0.930 . S
C2189 C2188 1.377 . S
C2189 C2190 1.379 . S
C2190 H2174 0.931 . S
C2190 C2184 1.383 . S
C2190 C2189 1.379 . S
H2191 C2185 0.959 . S
H2192 C2185 0.961 . S
H2193 C2185 0.960 . S
H2194 C2186 0.930 . S
H2195 C2187 0.929 . S
H2196 C2204 0.929 . S
H2197 C2206 0.930 . S
H2198 C2208 0.930 . S
H2199 C2211 0.929 . S
H2200 C2214 0.930 . S
H2201 C2216 0.960 . S
H2202 C2216 0.960 . S
H2203 C2216 0.960 . S
C2204 H2196 0.929 . S
C2204 C2205 1.377 . S
C2204 C2206 1.384 . S
C2205 C2204 1.377 . S
C2205 C2211 1.390 . S
C2206 H2197 0.930 . S
C2206 C2204 1.384 . S
C2206 C2207 1.372 . S
C2207 C2206 1.372 . S
C2207 C2208 1.400 . S
C2207 C2212 1.490 . S
C2208 H2198 0.930 . S
C2208 C2207 1.400 . S
C2208 C2211 1.386 . S
H2209 C2225 0.930 . S
H2210 C2226 0.931 . S
C2211 H2199 0.929 . S
C2211 C2205 1.390 . S
C2211 C2208 1.386 . S
C2212 C2207 1.490 . S
C2212 C2214 1.395 . S
C2212 C2215 1.403 . S
H2213 C2219 0.930 . S
C2214 H2200 0.930 . S
C2214 C2212 1.395 . S
C2214 C2217 1.403 . S
C2215 C2212 1.403 . S
C2215 C2216 1.524 . S
C2215 C2219 1.400 . S
C2216 H2201 0.960 . S
C2216 H2202 0.960 . S
C2216 H2203 0.960 . S
C2216 C2215 1.524 . S
C2217 C2214 1.403 . S
C2217 C2218 1.392 . S
C2217 C2221 1.495 . S
C2218 C2217 1.392 . S
C2218 C2219 1.385 . S
C2218 C2220 1.478 . S
C2219 H2213 0.930 . S
C2219 C2215 1.400 . S
C2219 C2218 1.385 . S
C2220 C2218 1.478 . S
C2220 C2222 1.381 . S
C2220 C2226 1.383 . S
C2221 C2217 1.495 . S
C2221 H2227 0.959 . S
C2221 H2228 0.961 . S
C2221 H2229 0.960 . S
C2222 C2220 1.381 . S
C2222 C2223 1.394 . S
C2222 H2230 0.930 . S
C2223 C2222 1.394 . S
C2223 C2224 1.383 . S
C2223 H2231 0.929 . S
C2224 C2223 1.383 . S
C2224 C2225 1.377 . S
C2225 H2209 0.930 . S
C2225 C2224 1.377 . S
C2225 C2226 1.379 . S
C2226 H2210 0.931 . S
C2226 C2220 1.383 . S
C2226 C2225 1.379 . S
H2227 C2221 0.959 . S
H2228 C2221 0.961 . S
H2229 C2221 0.960 . S
H2230 C2222 0.930 . S
H2231 C2223 0.929 . S
H2232 C2240 0.932 . S
H2233 C2242 0.930 . S
H2234 C2244 0.930 . S
H2235 C2247 0.929 . S
H2236 C2250 0.930 . S
H2237 C2252 0.960 . S
H2238 C2252 0.960 . S
H2239 C2252 0.960 . S
C2240 H2232 0.932 . S
C2240 C2241 1.377 . S
C2240 C2242 1.384 . S
C2241 C2240 1.377 . S
C2241 C2247 1.390 . S
C2242 H2233 0.930 . S
C2242 C2240 1.384 . S
C2242 C2243 1.372 . S
C2243 C2242 1.372 . S
C2243 C2244 1.400 . S
C2243 C2248 1.490 . S
C2244 H2234 0.930 . S
C2244 C2243 1.400 . S
C2244 C2247 1.386 . S
H2245 C2261 0.930 . S
H2246 C2262 0.931 . S
C2247 H2235 0.929 . S
C2247 C2241 1.390 . S
C2247 C2244 1.386 . S
C2248 C2243 1.490 . S
C2248 C2250 1.395 . S
C2248 C2251 1.403 . S
H2249 C2255 0.930 . S
C2250 H2236 0.930 . S
C2250 C2248 1.395 . S
C2250 C2253 1.403 . S
C2251 C2248 1.403 . S
C2251 C2252 1.524 . S
C2251 C2255 1.400 . S
C2252 H2237 0.960 . S
C2252 H2238 0.960 . S
C2252 H2239 0.960 . S
C2252 C2251 1.524 . S
C2253 C2250 1.403 . S
C2253 C2254 1.392 . S
C2253 C2257 1.495 . S
C2254 C2253 1.392 . S
C2254 C2255 1.385 . S
C2254 C2256 1.478 . S
C2255 H2249 0.930 . S
C2255 C2251 1.400 . S
C2255 C2254 1.385 . S
C2256 C2254 1.478 . S
C2256 C2258 1.381 . S
C2256 C2262 1.383 . S
C2257 C2253 1.495 . S
C2257 H2263 0.959 . S
C2257 H2264 0.961 . S
C2257 H2265 0.960 . S
C2258 C2256 1.381 . S
C2258 C2259 1.394 . S
C2258 H2266 0.930 . S
C2259 C2258 1.394 . S
C2259 C2260 1.383 . S
C2259 H2267 0.929 . S
C2260 C2259 1.383 . S
C2260 C2261 1.377 . S
C2261 H2245 0.930 . S
C2261 C2260 1.377 . S
C2261 C2262 1.379 . S
C2262 H2246 0.931 . S
C2262 C2256 1.383 . S
C2262 C2261 1.379 . S
H2263 C2257 0.959 . S
H2264 C2257 0.961 . S
H2265 C2257 0.960 . S
H2266 C2258 0.930 . S
H2267 C2259 0.929 . S
H2268 C2276 0.929 . S
H2269 C2278 0.930 . S
H2270 C2280 0.930 . S
H2271 C2283 0.929 . S
H2272 C2286 0.930 . S
H2273 C2288 0.960 . S
H2274 C2288 0.960 . S
H2275 C2288 0.960 . S
C2276 H2268 0.929 . S
C2276 C2277 1.377 . S
C2276 C2278 1.384 . S
C2277 C2276 1.377 . S
C2277 C2283 1.390 . S
C2278 H2269 0.930 . S
C2278 C2276 1.384 . S
C2278 C2279 1.372 . S
C2279 C2278 1.372 . S
C2279 C2280 1.400 . S
C2279 C2284 1.490 . S
C2280 H2270 0.930 . S
C2280 C2279 1.400 . S
C2280 C2283 1.386 . S
H2281 C2297 0.930 . S
H2282 C2298 0.931 . S
C2283 H2271 0.929 . S
C2283 C2277 1.390 . S
C2283 C2280 1.386 . S
C2284 C2279 1.490 . S
C2284 C2286 1.395 . S
C2284 C2287 1.403 . S
H2285 C2291 0.930 . S
C2286 H2272 0.930 . S
C2286 C2284 1.395 . S
C2286 C2289 1.403 . S
C2287 C2284 1.403 . S
C2287 C2288 1.524 . S
C2287 C2291 1.400 . S
C2288 H2273 0.960 . S
C2288 H2274 0.960 . S
C2288 H2275 0.960 . S
C2288 C2287 1.524 . S
C2289 C2286 1.403 . S
C2289 C2290 1.392 . S
C2289 C2293 1.495 . S
C2290 C2289 1.392 . S
C2290 C2291 1.385 . S
C2290 C2292 1.478 . S
C2291 H2285 0.930 . S
C2291 C2287 1.400 . S
C2291 C2290 1.385 . S
C2292 C2290 1.478 . S
C2292 C2294 1.381 . S
C2292 C2298 1.383 . S
C2293 C2289 1.495 . S
C2293 H2299 0.959 . S
C2293 H2300 0.961 . S
C2293 H2301 0.960 . S
C2294 C2292 1.381 . S
C2294 C2295 1.394 . S
C2294 H2302 0.930 . S
C2295 C2294 1.394 . S
C2295 C2296 1.383 . S
C2295 H2303 0.929 . S
C2296 C2295 1.383 . S
C2296 C2297 1.377 . S
C2297 H2281 0.930 . S
C2297 C2296 1.377 . S
C2297 C2298 1.379 . S
C2298 H2282 0.931 . S
C2298 C2292 1.383 . S
C2298 C2297 1.379 . S
H2299 C2293 0.959 . S
H2300 C2293 0.961 . S
H2301 C2293 0.960 . S
H2302 C2294 0.930 . S
H2303 C2295 0.929 . S
H2304 C2312 0.929 . S
H2305 C2314 0.930 . S
H2306 C2316 0.930 . S
H2307 C2319 0.929 . S
H2308 C2322 0.930 . S
H2309 C2324 0.960 . S
H2310 C2324 0.960 . S
H2311 C2324 0.960 . S
C2312 H2304 0.929 . S
C2312 C2313 1.377 . S
C2312 C2314 1.384 . S
C2313 C2312 1.377 . S
C2313 C2319 1.390 . S
C2314 H2305 0.930 . S
C2314 C2312 1.384 . S
C2314 C2315 1.372 . S
C2315 C2314 1.372 . S
C2315 C2316 1.400 . S
C2315 C2320 1.490 . S
C2316 H2306 0.930 . S
C2316 C2315 1.400 . S
C2316 C2319 1.386 . S
H2317 C2333 0.930 . S
H2318 C2334 0.931 . S
C2319 H2307 0.929 . S
C2319 C2313 1.390 . S
C2319 C2316 1.386 . S
C2320 C2315 1.490 . S
C2320 C2322 1.395 . S
C2320 C2323 1.403 . S
H2321 C2327 0.930 . S
C2322 H2308 0.930 . S
C2322 C2320 1.395 . S
C2322 C2325 1.403 . S
C2323 C2320 1.403 . S
C2323 C2324 1.524 . S
C2323 C2327 1.400 . S
C2324 H2309 0.960 . S
C2324 H2310 0.960 . S
C2324 H2311 0.960 . S
C2324 C2323 1.524 . S
C2325 C2322 1.403 . S
C2325 C2326 1.392 . S
C2325 C2329 1.495 . S
C2326 C2325 1.392 . S
C2326 C2327 1.385 . S
C2326 C2328 1.478 . S
C2327 H2321 0.930 . S
C2327 C2323 1.400 . S
C2327 C2326 1.385 . S
C2328 C2326 1.478 . S
C2328 C2330 1.381 . S
C2328 C2334 1.383 . S
C2329 C2325 1.495 . S
C2329 H2335 0.959 . S
C2329 H2336 0.961 . S
C2329 H2337 0.960 . S
C2330 C2328 1.381 . S
C2330 C2331 1.394 . S
C2330 H2338 0.930 . S
C2331 C2330 1.394 . S
C2331 C2332 1.383 . S
C2331 H2339 0.929 . S
C2332 C2331 1.383 . S
C2332 C2333 1.377 . S
C2333 H2317 0.930 . S
C2333 C2332 1.377 . S
C2333 C2334 1.379 . S
C2334 H2318 0.931 . S
C2334 C2328 1.383 . S
C2334 C2333 1.379 . S
H2335 C2329 0.959 . S
H2336 C2329 0.961 . S
H2337 C2329 0.960 . S
H2338 C2330 0.930 . S
H2339 C2331 0.929 . S
H2340 C2348 0.929 . S
H2341 C2350 0.930 . S
H2342 C2352 0.930 . S
H2343 C2355 0.929 . S
H2344 C2358 0.930 . S
H2345 C2360 0.960 . S
H2346 C2360 0.960 . S
H2347 C2360 0.960 . S
C2348 H2340 0.929 . S
C2348 C2349 1.377 . S
C2348 C2350 1.384 . S
C2349 C2348 1.377 . S
C2349 C2355 1.390 . S
C2350 H2341 0.930 . S
C2350 C2348 1.384 . S
C2350 C2351 1.372 . S
C2351 C2350 1.372 . S
C2351 C2352 1.400 . S
C2351 C2356 1.490 . S
C2352 H2342 0.930 . S
C2352 C2351 1.400 . S
C2352 C2355 1.386 . S
H2353 C2369 0.930 . S
H2354 C2370 0.931 . S
C2355 H2343 0.929 . S
C2355 C2349 1.390 . S
C2355 C2352 1.386 . S
C2356 C2351 1.490 . S
C2356 C2358 1.395 . S
C2356 C2359 1.403 . S
H2357 C2363 0.930 . S
C2358 H2344 0.930 . S
C2358 C2356 1.395 . S
C2358 C2361 1.403 . S
C2359 C2356 1.403 . S
C2359 C2360 1.524 . S
C2359 C2363 1.400 . S
C2360 H2345 0.960 . S
C2360 H2346 0.960 . S
C2360 H2347 0.960 . S
C2360 C2359 1.524 . S
C2361 C2358 1.403 . S
C2361 C2362 1.392 . S
C2361 C2365 1.495 . S
C2362 C2361 1.392 . S
C2362 C2363 1.385 . S
C2362 C2364 1.478 . S
C2363 H2357 0.930 . S
C2363 C2359 1.400 . S
C2363 C2362 1.385 . S
C2364 C2362 1.478 . S
C2364 C2366 1.381 . S
C2364 C2370 1.383 . S
C2365 C2361 1.495 . S
C2365 H2371 0.959 . S
C2365 H2372 0.961 . S
C2365 H2373 0.960 . S
C2366 C2364 1.381 . S
C2366 C2367 1.394 . S
C2366 H2374 0.930 . S
C2367 C2366 1.394 . S
C2367 C2368 1.383 . S
C2367 H2375 0.929 . S
C2368 C2367 1.383 . S
C2368 C2369 1.377 . S
C2369 H2353 0.930 . S
C2369 C2368 1.377 . S
C2369 C2370 1.379 . S
C2370 H2354 0.931 . S
C2370 C2364 1.383 . S
C2370 C2369 1.379 . S
H2371 C2365 0.959 . S
H2372 C2365 0.961 . S
H2373 C2365 0.960 . S
H2374 C2366 0.930 . S
H2375 C2367 0.929 . S
H2376 C2384 0.929 . S
H2377 C2386 0.930 . S
H2378 C2388 0.930 . S
H2379 C2391 0.929 . S
H2380 C2394 0.930 . S
H2381 C2396 0.960 . S
H2382 C2396 0.960 . S
H2383 C2396 0.960 . S
C2384 H2376 0.929 . S
C2384 C2385 1.377 . S
C2384 C2386 1.384 . S
C2385 C2384 1.377 . S
C2385 C2391 1.390 . S
C2386 H2377 0.930 . S
C2386 C2384 1.384 . S
C2386 C2387 1.372 . S
C2387 C2386 1.372 . S
C2387 C2388 1.400 . S
C2387 C2392 1.490 . S
C2388 H2378 0.930 . S
C2388 C2387 1.400 . S
C2388 C2391 1.386 . S
H2389 C2405 0.930 . S
H2390 C2406 0.931 . S
C2391 H2379 0.929 . S
C2391 C2385 1.390 . S
C2391 C2388 1.386 . S
C2392 C2387 1.490 . S
C2392 C2394 1.395 . S
C2392 C2395 1.403 . S
H2393 C2399 0.930 . S
C2394 H2380 0.930 . S
C2394 C2392 1.395 . S
C2394 C2397 1.403 . S
C2395 C2392 1.403 . S
C2395 C2396 1.524 . S
C2395 C2399 1.400 . S
C2396 H2381 0.960 . S
C2396 H2382 0.960 . S
C2396 H2383 0.960 . S
C2396 C2395 1.524 . S
C2397 C2394 1.403 . S
C2397 C2398 1.392 . S
C2397 C2401 1.495 . S
C2398 C2397 1.392 . S
C2398 C2399 1.385 . S
C2398 C2400 1.478 . S
C2399 H2393 0.930 . S
C2399 C2395 1.400 . S
C2399 C2398 1.385 . S
C2400 C2398 1.478 . S
C2400 C2402 1.381 . S
C2400 C2406 1.383 . S
C2401 C2397 1.495 . S
C2401 H2407 0.959 . S
C2401 H2408 0.961 . S
C2401 H2409 0.960 . S
C2402 C2400 1.381 . S
C2402 C2403 1.394 . S
C2402 H2410 0.930 . S
C2403 C2402 1.394 . S
C2403 C2404 1.383 . S
C2403 H2411 0.929 . S
C2404 C2403 1.383 . S
C2404 C2405 1.377 . S
C2405 H2389 0.930 . S
C2405 C2404 1.377 . S
C2405 C2406 1.379 . S
C2406 H2390 0.931 . S
C2406 C2400 1.383 . S
C2406 C2405 1.379 . S
H2407 C2401 0.959 . S
H2408 C2401 0.961 . S
H2409 C2401 0.960 . S
H2410 C2402 0.930 . S
H2411 C2403 0.929 . S
H2412 C2420 0.929 1_655 S
H2413 C2422 0.930 1_655 S
H2414 C2424 0.930 . S
H2415 C2427 0.929 . S
H2416 C2430 0.932 1_655 S
H2417 C2432 0.960 . S
H2418 C2432 0.960 . S
H2419 C2432 0.960 . S
C2420 H2412 0.929 1_455 S
C2420 C2421 1.377 . S
C2420 C2422 1.384 . S
C2421 C2420 1.377 . S
C2421 C2427 1.390 . S
C2422 H2413 0.930 1_455 S
C2422 C2420 1.384 . S
C2422 C2423 1.372 . S
C2423 C2422 1.372 . S
C2423 C2424 1.400 . S
C2423 C2428 1.490 . S
C2424 H2414 0.930 . S
C2424 C2423 1.400 . S
C2424 C2427 1.386 . S
H2425 C2441 0.930 . S
H2426 C2442 0.931 . S
C2427 H2415 0.929 . S
C2427 C2421 1.390 . S
C2427 C2424 1.386 . S
C2428 C2423 1.490 . S
C2428 C2430 1.387 . S
C2428 C2431 1.403 . S
H2429 C2435 0.930 . S
C2430 H2416 0.932 1_455 S
C2430 C2428 1.387 . S
C2430 C2433 1.408 1_455 S
C2431 C2428 1.403 . S
C2431 C2432 1.524 . S
C2431 C2435 1.400 . S
C2432 H2417 0.960 . S
C2432 H2418 0.960 . S
C2432 H2419 0.960 . S
C2432 C2431 1.524 . S
C2433 C2430 1.408 1_655 S
C2433 C2434 1.392 1_655 S
C2433 C2437 1.495 . S
C2434 C2433 1.392 1_455 S
C2434 C2435 1.385 . S
C2434 C2436 1.478 . S
C2435 H2429 0.930 . S
C2435 C2431 1.400 . S
C2435 C2434 1.385 . S
C2436 C2434 1.478 . S
C2436 C2438 1.381 1_455 S
C2436 C2442 1.383 . S
C2437 C2433 1.495 . S
C2437 H2443 0.959 . S
C2437 H2444 0.961 . S
C2437 H2445 0.960 . S
C2438 C2436 1.381 1_655 S
C2438 C2439 1.394 . S
C2438 H2446 0.930 . S
C2439 C2438 1.394 . S
C2439 C2440 1.383 1_655 S
C2439 H2447 0.929 . S
C2440 C2439 1.383 1_455 S
C2440 C2441 1.377 . S
C2441 H2425 0.930 . S
C2441 C2440 1.377 . S
C2441 C2442 1.379 . S
C2442 H2426 0.931 . S
C2442 C2436 1.383 . S
C2442 C2441 1.379 . S
H2443 C2437 0.959 . S
H2444 C2437 0.961 . S
H2445 C2437 0.960 . S
H2446 C2438 0.930 . S
H2447 C2439 0.929 . S
H2448 C2456 0.929 . S
H2449 C2458 0.930 . S
H2450 C2460 0.930 . S
H2451 C2463 0.929 . S
H2452 C2466 0.930 . S
H2453 C2468 0.960 . S
H2454 C2468 0.960 . S
H2455 C2468 0.960 . S
C2456 H2448 0.929 . S
C2456 C2457 1.377 . S
C2456 C2458 1.384 . S
C2457 C2456 1.377 . S
C2457 C2463 1.390 . S
C2458 H2449 0.930 . S
C2458 C2456 1.384 . S
C2458 C2459 1.372 . S
C2459 C2458 1.372 . S
C2459 C2460 1.400 . S
C2459 C2464 1.490 . S
C2460 H2450 0.930 . S
C2460 C2459 1.400 . S
C2460 C2463 1.386 . S
H2461 C2477 0.930 . S
H2462 C2478 0.931 . S
C2463 H2451 0.929 . S
C2463 C2457 1.390 . S
C2463 C2460 1.386 . S
C2464 C2459 1.490 . S
C2464 C2466 1.395 . S
C2464 C2467 1.403 . S
H2465 C2471 0.930 . S
C2466 H2452 0.930 . S
C2466 C2464 1.395 . S
C2466 C2469 1.403 . S
C2467 C2464 1.403 . S
C2467 C2468 1.524 . S
C2467 C2471 1.400 . S
C2468 H2453 0.960 . S
C2468 H2454 0.960 . S
C2468 H2455 0.960 . S
C2468 C2467 1.524 . S
C2469 C2466 1.403 . S
C2469 C2470 1.392 . S
C2469 C2473 1.495 . S
C2470 C2469 1.392 . S
C2470 C2471 1.385 . S
C2470 C2472 1.478 . S
C2471 H2465 0.930 . S
C2471 C2467 1.400 . S
C2471 C2470 1.385 . S
C2472 C2470 1.478 . S
C2472 C2474 1.381 . S
C2472 C2478 1.383 . S
C2473 C2469 1.495 . S
C2473 H2479 0.959 . S
C2473 H2480 0.961 . S
C2473 H2481 0.960 . S
C2474 C2472 1.381 . S
C2474 C2475 1.394 . S
C2474 H2482 0.930 . S
C2475 C2474 1.394 . S
C2475 C2476 1.383 . S
C2475 H2483 0.929 . S
C2476 C2475 1.383 . S
C2476 C2477 1.377 . S
C2477 H2461 0.930 . S
C2477 C2476 1.377 . S
C2477 C2478 1.379 . S
C2478 H2462 0.931 . S
C2478 C2472 1.383 . S
C2478 C2477 1.379 . S
H2479 C2473 0.959 . S
H2480 C2473 0.961 . S
H2481 C2473 0.960 . S
H2482 C2474 0.930 . S
H2483 C2475 0.929 . S
H2484 C2492 0.929 . S
H2485 C2494 0.930 . S
H2486 C2496 0.930 1_545 S
H2487 C2499 0.917 1_545 S
H2488 C2502 0.930 . S
H2489 C2504 0.960 . S
H2490 C2504 0.960 . S
H2491 C2504 0.960 . S
C2492 H2484 0.929 . S
C2492 C2493 1.377 . S
C2492 C2494 1.384 . S
C2493 C2492 1.377 . S
C2493 C2499 1.390 . S
C2494 H2485 0.930 . S
C2494 C2492 1.384 . S
C2494 C2495 1.372 . S
C2495 C2494 1.372 . S
C2495 C2496 1.400 . S
C2495 C2500 1.490 . S
C2496 H2486 0.930 1_565 S
C2496 C2495 1.400 . S
C2496 C2499 1.386 . S
H2497 C2513 0.961 . S
H2498 C2514 0.931 1_545 S
C2499 H2487 0.917 1_565 S
C2499 C2493 1.390 . S
C2499 C2496 1.386 . S
C2500 C2495 1.490 . S
C2500 C2502 1.395 . S
C2500 C2503 1.403 1_565 S
H2501 C2507 0.930 . S
C2502 H2488 0.930 . S
C2502 C2500 1.395 . S
C2502 C2505 1.403 . S
C2503 C2500 1.403 1_545 S
C2503 C2504 1.524 . S
C2503 C2507 1.400 . S
C2504 H2489 0.960 . S
C2504 H2490 0.960 . S
C2504 H2491 0.960 . S
C2504 C2503 1.524 . S
C2505 C2502 1.403 . S
C2505 C2506 1.392 . S
C2505 C2509 1.495 . S
C2506 C2505 1.392 . S
C2506 C2507 1.385 1_565 S
C2506 C2508 1.478 . S
C2507 H2501 0.930 . S
C2507 C2503 1.400 . S
C2507 C2506 1.385 1_545 S
C2508 C2506 1.478 . S
C2508 C2510 1.381 . S
C2508 C2514 1.383 . S
C2509 C2505 1.495 . S
C2509 H2515 0.959 . S
C2509 H2516 0.961 . S
C2509 H2517 0.960 . S
C2510 C2508 1.381 . S
C2510 C2511 1.394 . S
C2510 H2518 0.930 . S
C2511 C2510 1.394 . S
C2511 C2512 1.383 . S
C2511 H2519 0.929 . S
C2512 C2511 1.383 . S
C2512 C2513 1.327 1_565 S
C2513 H2497 0.961 . S
C2513 C2512 1.327 1_545 S
C2513 C2514 1.402 1_545 S
C2514 H2498 0.931 1_565 S
C2514 C2508 1.383 . S
C2514 C2513 1.402 1_565 S
H2515 C2509 0.959 . S
H2516 C2509 0.961 . S
H2517 C2509 0.960 . S
H2518 C2510 0.930 . S
H2519 C2511 0.929 . S
H2520 C2528 0.929 1_545 S
H2521 C2530 0.930 1_545 S
H2522 C2532 0.930 . S
H2523 C2535 0.929 . S
H2524 C2538 0.930 . S
H2525 C2540 0.960 . S
H2526 C2540 0.960 . S
H2527 C2540 0.960 . S
C2528 H2520 0.929 1_565 S
C2528 C2529 1.377 . S
C2528 C2530 1.384 . S
C2529 C2528 1.377 . S
C2529 C2535 1.390 . S
C2530 H2521 0.930 1_565 S
C2530 C2528 1.384 . S
C2530 C2531 1.372 . S
C2531 C2530 1.372 . S
C2531 C2532 1.400 . S
C2531 C2536 1.490 . S
C2532 H2522 0.930 . S
C2532 C2531 1.400 . S
C2532 C2535 1.386 . S
H2533 C2549 0.930 . S
H2534 C2550 0.931 . S
C2535 H2523 0.929 . S
C2535 C2529 1.390 . S
C2535 C2532 1.386 . S
C2536 C2531 1.490 . S
C2536 C2538 1.395 1_565 S
C2536 C2539 1.403 . S
H2537 C2543 0.930 . S
C2538 H2524 0.930 . S
C2538 C2536 1.395 1_545 S
C2538 C2541 1.403 . S
C2539 C2536 1.403 . S
C2539 C2540 1.524 . S
C2539 C2543 1.400 . S
C2540 H2525 0.960 . S
C2540 H2526 0.960 . S
C2540 H2527 0.960 . S
C2540 C2539 1.524 . S
C2541 C2538 1.403 . S
C2541 C2542 1.392 1_545 S
C2541 C2545 1.495 . S
C2542 C2541 1.392 1_565 S
C2542 C2543 1.385 . S
C2542 C2544 1.478 . S
C2543 H2537 0.930 . S
C2543 C2539 1.400 . S
C2543 C2542 1.385 . S
C2544 C2542 1.478 . S
C2544 C2546 1.381 1_565 S
C2544 C2550 1.383 . S
C2545 C2541 1.495 . S
C2545 H2551 0.959 . S
C2545 H2552 0.961 . S
C2545 H2553 0.960 . S
C2546 C2544 1.381 1_545 S
C2546 C2547 1.394 . S
C2546 H2554 0.930 . S
C2547 C2546 1.394 . S
C2547 C2548 1.397 . S
C2547 H2555 0.929 . S
C2548 C2547 1.397 . S
C2548 C2549 1.346 1_545 S
C2549 H2533 0.930 . S
C2549 C2548 1.346 1_565 S
C2549 C2550 1.379 . S
C2550 H2534 0.931 . S
C2550 C2544 1.383 . S
C2550 C2549 1.379 . S
H2551 C2545 0.959 . S
H2552 C2545 0.961 . S
H2553 C2545 0.960 . S
H2554 C2546 0.930 . S
H2555 C2547 0.929 . S
H2556 C2564 0.929 1_655 S
H2557 C2566 0.930 1_655 S
H2558 C2568 0.930 . S
H2559 C2571 0.929 . S
H2560 C2574 0.930 . S
H2561 C2576 0.960 . S
H2562 C2576 0.960 . S
H2563 C2576 0.960 . S
C2564 H2556 0.929 1_455 S
C2564 C2565 1.377 . S
C2564 C2566 1.384 . S
C2565 C2564 1.377 . S
C2565 C2571 1.390 . S
C2566 H2557 0.930 1_455 S
C2566 C2564 1.384 . S
C2566 C2567 1.372 . S
C2567 C2566 1.372 . S
C2567 C2568 1.400 . S
C2567 C2572 1.490 . S
C2568 H2558 0.930 . S
C2568 C2567 1.400 . S
C2568 C2571 1.386 . S
H2569 C2585 0.930 . S
H2570 C2586 0.931 . S
C2571 H2559 0.929 . S
C2571 C2565 1.390 . S
C2571 C2568 1.386 . S
C2572 C2567 1.490 . S
C2572 C2574 1.395 1_455 S
C2572 C2575 1.403 . S
H2573 C2579 0.930 . S
C2574 H2560 0.930 . S
C2574 C2572 1.395 1_655 S
C2574 C2577 1.403 . S
C2575 C2572 1.403 . S
C2575 C2576 1.524 . S
C2575 C2579 1.400 . S
C2576 H2561 0.960 . S
C2576 H2562 0.960 . S
C2576 H2563 0.960 . S
C2576 C2575 1.524 . S
C2577 C2574 1.403 . S
C2577 C2578 1.392 1_655 S
C2577 C2581 1.495 . S
C2578 C2577 1.392 1_455 S
C2578 C2579 1.385 . S
C2578 C2580 1.478 . S
C2579 H2573 0.930 . S
C2579 C2575 1.400 . S
C2579 C2578 1.385 . S
C2580 C2578 1.478 . S
C2580 C2582 1.381 1_455 S
C2580 C2586 1.383 . S
C2581 C2577 1.495 . S
C2581 H2587 0.959 . S
C2581 H2588 0.961 . S
C2581 H2589 0.960 . S
C2582 C2580 1.381 1_655 S
C2582 C2583 1.394 . S
C2582 H2590 0.930 . S
C2583 C2582 1.394 . S
C2583 C2584 1.424 . S
C2583 H2591 0.929 . S
C2584 C2583 1.424 . S
C2584 C2585 1.358 1_655 S
C2585 H2569 0.930 . S
C2585 C2584 1.358 1_455 S
C2585 C2586 1.379 . S
C2586 H2570 0.931 . S
C2586 C2580 1.383 . S
C2586 C2585 1.379 . S
H2587 C2581 0.959 . S
H2588 C2581 0.961 . S
H2589 C2581 0.960 . S
H2590 C2582 0.930 . S
H2591 C2583 0.929 . S
H2592 C2600 0.929 . S
H2593 C2602 0.930 . S
H2594 C2604 0.930 . S
H2595 C2607 0.929 . S
H2596 C2610 0.930 . S
H2597 C2612 0.960 . S
H2598 C2612 0.960 . S
H2599 C2612 0.960 . S
C2600 H2592 0.929 . S
C2600 C2601 1.377 . S
C2600 C2602 1.384 . S
C2601 C2600 1.377 . S
C2601 C2607 1.390 . S
C2602 H2593 0.930 . S
C2602 C2600 1.384 . S
C2602 C2603 1.372 . S
C2603 C2602 1.372 . S
C2603 C2604 1.400 . S
C2603 C2608 1.490 . S
C2604 H2594 0.930 . S
C2604 C2603 1.400 . S
C2604 C2607 1.386 . S
H2605 C2621 0.930 . S
H2606 C2622 0.931 . S
C2607 H2595 0.929 . S
C2607 C2601 1.390 . S
C2607 C2604 1.386 . S
C2608 C2603 1.490 . S
C2608 C2610 1.395 . S
C2608 C2611 1.403 . S
H2609 C2615 0.930 . S
C2610 H2596 0.930 . S
C2610 C2608 1.395 . S
C2610 C2613 1.403 . S
C2611 C2608 1.403 . S
C2611 C2612 1.524 . S
C2611 C2615 1.400 . S
C2612 H2597 0.960 . S
C2612 H2598 0.960 . S
C2612 H2599 0.960 . S
C2612 C2611 1.524 . S
C2613 C2610 1.403 . S
C2613 C2614 1.392 . S
C2613 C2617 1.495 . S
C2614 C2613 1.392 . S
C2614 C2615 1.385 . S
C2614 C2616 1.478 . S
C2615 H2609 0.930 . S
C2615 C2611 1.400 . S
C2615 C2614 1.385 . S
C2616 C2614 1.478 . S
C2616 C2618 1.381 . S
C2616 C2622 1.383 . S
C2617 C2613 1.495 . S
C2617 H2623 0.959 . S
C2617 H2624 0.961 . S
C2617 H2625 0.960 . S
C2618 C2616 1.381 . S
C2618 C2619 1.394 . S
C2618 H2626 0.930 . S
C2619 C2618 1.394 . S
C2619 C2620 1.383 . S
C2619 H2627 0.929 . S
C2620 C2619 1.383 . S
C2620 C2621 1.377 . S
C2621 H2605 0.930 . S
C2621 C2620 1.377 . S
C2621 C2622 1.379 . S
C2622 H2606 0.931 . S
C2622 C2616 1.383 . S
C2622 C2621 1.379 . S
H2623 C2617 0.959 . S
H2624 C2617 0.961 . S
H2625 C2617 0.960 . S
H2626 C2618 0.930 . S
H2627 C2619 0.929 . S
H2628 C2636 0.929 . S
H2629 C2638 0.930 . S
H2630 C2640 0.930 . S
H2631 C2643 0.929 . S
H2632 C2646 0.930 . S
H2633 C2648 0.960 . S
H2634 C2648 0.960 . S
H2635 C2648 0.960 . S
C2636 H2628 0.929 . S
C2636 C2637 1.377 . S
C2636 C2638 1.384 . S
C2637 C2636 1.377 . S
C2637 C2643 1.390 . S
C2638 H2629 0.930 . S
C2638 C2636 1.384 . S
C2638 C2639 1.372 . S
C2639 C2638 1.372 . S
C2639 C2640 1.400 . S
C2639 C2644 1.490 . S
C2640 H2630 0.930 . S
C2640 C2639 1.400 . S
C2640 C2643 1.386 . S
H2641 C2657 0.930 . S
H2642 C2658 0.931 . S
C2643 H2631 0.929 . S
C2643 C2637 1.390 . S
C2643 C2640 1.386 . S
C2644 C2639 1.490 . S
C2644 C2646 1.395 . S
C2644 C2647 1.403 . S
H2645 C2651 0.930 . S
C2646 H2632 0.930 . S
C2646 C2644 1.395 . S
C2646 C2649 1.403 . S
C2647 C2644 1.403 . S
C2647 C2648 1.524 . S
C2647 C2651 1.400 . S
C2648 H2633 0.960 . S
C2648 H2634 0.960 . S
C2648 H2635 0.960 . S
C2648 C2647 1.524 . S
C2649 C2646 1.403 . S
C2649 C2650 1.392 . S
C2649 C2653 1.495 . S
C2650 C2649 1.392 . S
C2650 C2651 1.385 . S
C2650 C2652 1.478 . S
C2651 H2645 0.930 . S
C2651 C2647 1.400 . S
C2651 C2650 1.385 . S
C2652 C2650 1.478 . S
C2652 C2654 1.381 . S
C2652 C2658 1.383 . S
C2653 C2649 1.495 . S
C2653 H2659 0.959 . S
C2653 H2660 0.961 . S
C2653 H2661 0.960 . S
C2654 C2652 1.381 . S
C2654 C2655 1.394 . S
C2654 H2662 0.930 . S
C2655 C2654 1.394 . S
C2655 C2656 1.383 . S
C2655 H2663 0.929 . S
C2656 C2655 1.383 . S
C2656 C2657 1.377 . S
C2657 H2641 0.930 . S
C2657 C2656 1.377 . S
C2657 C2658 1.379 . S
C2658 H2642 0.931 . S
C2658 C2652 1.383 . S
C2658 C2657 1.379 . S
H2659 C2653 0.959 . S
H2660 C2653 0.961 . S
H2661 C2653 0.960 . S
H2662 C2654 0.930 . S
H2663 C2655 0.929 . S
H2664 C2672 0.929 . S
H2665 C2674 0.930 . S
H2666 C2676 0.930 . S
H2667 C2679 0.929 . S
H2668 C2682 0.930 . S
H2669 C2684 0.960 . S
H2670 C2684 0.960 . S
H2671 C2684 0.960 . S
C2672 H2664 0.929 . S
C2672 C2673 1.377 . S
C2672 C2674 1.384 . S
C2673 C2672 1.377 . S
C2673 C2679 1.390 . S
C2674 H2665 0.930 . S
C2674 C2672 1.384 . S
C2674 C2675 1.372 . S
C2675 C2674 1.372 . S
C2675 C2676 1.400 . S
C2675 C2680 1.490 . S
C2676 H2666 0.930 . S
C2676 C2675 1.400 . S
C2676 C2679 1.386 . S
H2677 C2693 0.930 . S
H2678 C2694 0.931 . S
C2679 H2667 0.929 . S
C2679 C2673 1.390 . S
C2679 C2676 1.386 . S
C2680 C2675 1.490 . S
C2680 C2682 1.395 . S
C2680 C2683 1.403 . S
H2681 C2687 0.930 . S
C2682 H2668 0.930 . S
C2682 C2680 1.395 . S
C2682 C2685 1.403 . S
C2683 C2680 1.403 . S
C2683 C2684 1.524 . S
C2683 C2687 1.400 . S
C2684 H2669 0.960 . S
C2684 H2670 0.960 . S
C2684 H2671 0.960 . S
C2684 C2683 1.524 . S
C2685 C2682 1.403 . S
C2685 C2686 1.392 . S
C2685 C2689 1.495 . S
C2686 C2685 1.392 . S
C2686 C2687 1.385 . S
C2686 C2688 1.478 . S
C2687 H2681 0.930 . S
C2687 C2683 1.400 . S
C2687 C2686 1.385 . S
C2688 C2686 1.478 . S
C2688 C2690 1.381 . S
C2688 C2694 1.383 . S
C2689 C2685 1.495 . S
C2689 H2695 0.959 . S
C2689 H2696 0.961 . S
C2689 H2697 0.960 . S
C2690 C2688 1.381 . S
C2690 C2691 1.394 . S
C2690 H2698 0.930 . S
C2691 C2690 1.394 . S
C2691 C2692 1.383 . S
C2691 H2699 0.929 . S
C2692 C2691 1.383 . S
C2692 C2693 1.377 . S
C2693 H2677 0.930 . S
C2693 C2692 1.377 . S
C2693 C2694 1.379 . S
C2694 H2678 0.931 . S
C2694 C2688 1.383 . S
C2694 C2693 1.379 . S
H2695 C2689 0.959 . S
H2696 C2689 0.961 . S
H2697 C2689 0.960 . S
H2698 C2690 0.930 . S
H2699 C2691 0.929 . S
H2700 C2708 0.929 . S
H2701 C2710 0.930 . S
H2702 C2712 0.930 . S
H2703 C2715 0.929 . S
H2704 C2718 0.930 . S
H2705 C2720 0.960 . S
H2706 C2720 0.960 . S
H2707 C2720 0.960 . S
C2708 H2700 0.929 . S
C2708 C2709 1.377 . S
C2708 C2710 1.384 . S
C2709 C2708 1.377 . S
C2709 C2715 1.390 . S
C2710 H2701 0.930 . S
C2710 C2708 1.384 . S
C2710 C2711 1.372 . S
C2711 C2710 1.372 . S
C2711 C2712 1.400 . S
C2711 C2716 1.490 . S
C2712 H2702 0.930 . S
C2712 C2711 1.400 . S
C2712 C2715 1.386 . S
H2713 C2729 0.930 . S
H2714 C2730 0.931 . S
C2715 H2703 0.929 . S
C2715 C2709 1.390 . S
C2715 C2712 1.386 . S
C2716 C2711 1.490 . S
C2716 C2718 1.395 . S
C2716 C2719 1.403 . S
H2717 C2723 0.930 . S
C2718 H2704 0.930 . S
C2718 C2716 1.395 . S
C2718 C2721 1.403 . S
C2719 C2716 1.403 . S
C2719 C2720 1.524 . S
C2719 C2723 1.400 . S
C2720 H2705 0.960 . S
C2720 H2706 0.960 . S
C2720 H2707 0.960 . S
C2720 C2719 1.524 . S
C2721 C2718 1.403 . S
C2721 C2722 1.392 . S
C2721 C2725 1.495 . S
C2722 C2721 1.392 . S
C2722 C2723 1.385 . S
C2722 C2724 1.478 . S
C2723 H2717 0.930 . S
C2723 C2719 1.400 . S
C2723 C2722 1.385 . S
C2724 C2722 1.478 . S
C2724 C2726 1.381 . S
C2724 C2730 1.383 . S
C2725 C2721 1.495 . S
C2725 H2731 0.959 . S
C2725 H2732 0.961 . S
C2725 H2733 0.960 . S
C2726 C2724 1.381 . S
C2726 C2727 1.394 . S
C2726 H2734 0.930 . S
C2727 C2726 1.394 . S
C2727 C2728 1.383 . S
C2727 H2735 0.929 . S
C2728 C2727 1.383 . S
C2728 C2729 1.377 . S
C2729 H2713 0.930 . S
C2729 C2728 1.377 . S
C2729 C2730 1.379 . S
C2730 H2714 0.931 . S
C2730 C2724 1.383 . S
C2730 C2729 1.379 . S
H2731 C2725 0.959 . S
H2732 C2725 0.961 . S
H2733 C2725 0.960 . S
H2734 C2726 0.930 . S
H2735 C2727 0.929 . S
H2736 C2744 0.929 . S
H2737 C2746 0.930 . S
H2738 C2748 0.930 1_565 S
H2739 C2751 0.929 1_565 S
H2740 C2754 0.930 . S
H2741 C2756 0.960 . S
H2742 C2756 0.960 1_545 S
H2743 C2756 0.960 . S
C2744 H2736 0.929 . S
C2744 C2745 1.377 . S
C2744 C2746 1.384 . S
C2745 C2744 1.377 . S
C2745 C2751 1.390 . S
C2746 H2737 0.930 . S
C2746 C2744 1.384 . S
C2746 C2747 1.372 . S
C2747 C2746 1.372 . S
C2747 C2748 1.400 . S
C2747 C2752 1.490 . S
C2748 H2738 0.930 1_545 S
C2748 C2747 1.400 . S
C2748 C2751 1.386 . S
H2749 C2765 0.930 . S
H2750 C2766 0.931 . S
C2751 H2739 0.929 1_545 S
C2751 C2745 1.390 . S
C2751 C2748 1.386 . S
C2752 C2747 1.490 . S
C2752 C2754 1.395 . S
C2752 C2755 1.403 . S
H2753 C2759 0.930 1_565 S
C2754 H2740 0.930 . S
C2754 C2752 1.395 . S
C2754 C2757 1.403 . S
C2755 C2752 1.403 . S
C2755 C2756 1.524 1_545 S
C2755 C2759 1.400 . S
C2756 H2741 0.960 . S
C2756 H2742 0.960 1_565 S
C2756 H2743 0.960 . S
C2756 C2755 1.524 1_565 S
C2757 C2754 1.403 . S
C2757 C2758 1.392 . S
C2757 C2761 1.495 . S
C2758 C2757 1.392 . S
C2758 C2759 1.385 . S
C2758 C2760 1.478 . S
C2759 H2753 0.930 1_545 S
C2759 C2755 1.400 . S
C2759 C2758 1.385 . S
C2760 C2758 1.478 . S
C2760 C2762 1.381 . S
C2760 C2766 1.383 1_545 S
C2761 C2757 1.495 . S
C2761 H2767 0.959 . S
C2761 H2768 0.961 . S
C2761 H2769 0.960 . S
C2762 C2760 1.381 . S
C2762 C2763 1.394 . S
C2762 H2770 0.930 . S
C2763 C2762 1.394 . S
C2763 C2764 1.383 . S
C2763 H2771 0.929 . S
C2764 C2763 1.383 . S
C2764 C2765 1.377 1_545 S
C2765 H2749 0.930 . S
C2765 C2764 1.377 1_565 S
C2765 C2766 1.379 . S
C2766 H2750 0.931 . S
C2766 C2760 1.383 1_565 S
C2766 C2765 1.379 . S
H2767 C2761 0.959 . S
H2768 C2761 0.961 . S
H2769 C2761 0.960 . S
H2770 C2762 0.930 . S
H2771 C2763 0.929 . S
H2772 C2780 0.929 . S
H2773 C2782 0.930 . S
H2774 C2784 0.930 1_455 S
H2775 C2787 0.929 1_455 S
H2776 C2790 0.930 . S
H2777 C2792 0.960 . S
H2778 C2792 0.960 . S
H2779 C2792 0.960 . S
C2780 H2772 0.929 . S
C2780 C2781 1.377 . S
C2780 C2782 1.384 . S
C2781 C2780 1.377 . S
C2781 C2787 1.390 . S
C2782 H2773 0.930 . S
C2782 C2780 1.384 . S
C2782 C2783 1.372 . S
C2783 C2782 1.372 . S
C2783 C2784 1.400 . S
C2783 C2788 1.490 . S
C2784 H2774 0.930 1_655 S
C2784 C2783 1.400 . S
C2784 C2787 1.386 . S
H2785 C2801 0.930 . S
H2786 C2802 0.931 . S
C2787 H2775 0.929 1_655 S
C2787 C2781 1.390 . S
C2787 C2784 1.386 . S
C2788 C2783 1.490 . S
C2788 C2790 1.395 . S
C2788 C2791 1.403 . S
H2789 C2795 0.930 . S
C2790 H2776 0.930 . S
C2790 C2788 1.395 . S
C2790 C2793 1.403 . S
C2791 C2788 1.403 . S
C2791 C2792 1.524 . S
C2791 C2795 1.400 . S
C2792 H2777 0.960 . S
C2792 H2778 0.960 . S
C2792 H2779 0.960 . S
C2792 C2791 1.524 . S
C2793 C2790 1.403 . S
C2793 C2794 1.392 . S
C2793 C2797 1.495 . S
C2794 C2793 1.392 . S
C2794 C2795 1.385 . S
C2794 C2796 1.478 . S
C2795 H2789 0.930 . S
C2795 C2791 1.400 . S
C2795 C2794 1.385 . S
C2796 C2794 1.478 . S
C2796 C2798 1.381 . S
C2796 C2802 1.383 1_655 S
C2797 C2793 1.495 . S
C2797 H2803 0.959 . S
C2797 H2804 0.961 . S
C2797 H2805 0.960 . S
C2798 C2796 1.381 . S
C2798 C2799 1.394 . S
C2798 H2806 0.930 . S
C2799 C2798 1.394 . S
C2799 C2800 1.383 . S
C2799 H2807 0.929 . S
C2800 C2799 1.383 . S
C2800 C2801 1.377 1_655 S
C2801 H2785 0.930 . S
C2801 C2800 1.377 1_455 S
C2801 C2802 1.379 . S
C2802 H2786 0.931 . S
C2802 C2796 1.383 1_455 S
C2802 C2801 1.379 . S
H2803 C2797 0.959 . S
H2804 C2797 0.961 . S
H2805 C2797 0.960 . S
H2806 C2798 0.930 . S
H2807 C2799 0.929 . S
H2808 C2816 0.929 . S
H2809 C2818 0.930 . S
H2810 C2820 0.930 . S
H2811 C2823 0.929 . S
H2812 C2826 0.930 . S
H2813 C2828 0.960 . S
H2814 C2828 0.960 . S
H2815 C2828 0.960 . S
C2816 H2808 0.929 . S
C2816 C2817 1.377 . S
C2816 C2818 1.384 . S
C2817 C2816 1.377 . S
C2817 C2823 1.390 . S
C2818 H2809 0.930 . S
C2818 C2816 1.384 . S
C2818 C2819 1.372 . S
C2819 C2818 1.372 . S
C2819 C2820 1.400 . S
C2819 C2824 1.490 . S
C2820 H2810 0.930 . S
C2820 C2819 1.400 . S
C2820 C2823 1.386 . S
H2821 C2837 0.930 . S
H2822 C2838 0.931 . S
C2823 H2811 0.929 . S
C2823 C2817 1.390 . S
C2823 C2820 1.386 . S
C2824 C2819 1.490 . S
C2824 C2826 1.395 . S
C2824 C2827 1.403 . S
H2825 C2831 0.930 . S
C2826 H2812 0.930 . S
C2826 C2824 1.395 . S
C2826 C2829 1.403 . S
C2827 C2824 1.403 . S
C2827 C2828 1.524 . S
C2827 C2831 1.400 . S
C2828 H2813 0.960 . S
C2828 H2814 0.960 . S
C2828 H2815 0.960 . S
C2828 C2827 1.524 . S
C2829 C2826 1.403 . S
C2829 C2830 1.392 . S
C2829 C2833 1.495 . S
C2830 C2829 1.392 . S
C2830 C2831 1.385 . S
C2830 C2832 1.478 . S
C2831 H2825 0.930 . S
C2831 C2827 1.400 . S
C2831 C2830 1.385 . S
C2832 C2830 1.478 . S
C2832 C2834 1.381 . S
C2832 C2838 1.383 . S
C2833 C2829 1.495 . S
C2833 H2839 0.959 . S
C2833 H2840 0.961 . S
C2833 H2841 0.960 . S
C2834 C2832 1.381 . S
C2834 C2835 1.394 . S
C2834 H2842 0.930 . S
C2835 C2834 1.394 . S
C2835 C2836 1.383 . S
C2835 H2843 0.929 . S
C2836 C2835 1.383 . S
C2836 C2837 1.377 . S
C2837 H2821 0.930 . S
C2837 C2836 1.377 . S
C2837 C2838 1.379 . S
C2838 H2822 0.931 . S
C2838 C2832 1.383 . S
C2838 C2837 1.379 . S
H2839 C2833 0.959 . S
H2840 C2833 0.961 . S
H2841 C2833 0.960 . S
H2842 C2834 0.930 . S
H2843 C2835 0.929 . S
H2844 C2852 0.929 . S
H2845 C2854 0.930 . S
H2846 C2856 0.930 . S
H2847 C2859 0.929 . S
H2848 C2862 0.930 . S
H2849 C2864 0.960 . S
H2850 C2864 0.960 . S
H2851 C2864 0.960 . S
C2852 H2844 0.929 . S
C2852 C2853 1.377 . S
C2852 C2854 1.384 . S
C2853 C2852 1.377 . S
C2853 C2859 1.390 . S
C2854 H2845 0.930 . S
C2854 C2852 1.384 . S
C2854 C2855 1.372 . S
C2855 C2854 1.372 . S
C2855 C2856 1.400 . S
C2855 C2860 1.490 . S
C2856 H2846 0.930 . S
C2856 C2855 1.400 . S
C2856 C2859 1.386 . S
H2857 C2873 0.930 . S
H2858 C2874 0.931 . S
C2859 H2847 0.929 . S
C2859 C2853 1.390 . S
C2859 C2856 1.386 . S
C2860 C2855 1.490 . S
C2860 C2862 1.395 . S
C2860 C2863 1.403 . S
H2861 C2867 0.930 . S
C2862 H2848 0.930 . S
C2862 C2860 1.395 . S
C2862 C2865 1.403 . S
C2863 C2860 1.403 . S
C2863 C2864 1.524 . S
C2863 C2867 1.400 . S
C2864 H2849 0.960 . S
C2864 H2850 0.960 . S
C2864 H2851 0.960 . S
C2864 C2863 1.524 . S
C2865 C2862 1.403 . S
C2865 C2866 1.392 . S
C2865 C2869 1.495 . S
C2866 C2865 1.392 . S
C2866 C2867 1.385 . S
C2866 C2868 1.478 . S
C2867 H2861 0.930 . S
C2867 C2863 1.400 . S
C2867 C2866 1.385 . S
C2868 C2866 1.478 . S
C2868 C2870 1.381 . S
C2868 C2874 1.383 . S
C2869 C2865 1.495 . S
C2869 H2875 0.959 . S
C2869 H2876 0.961 . S
C2869 H2877 0.960 . S
C2870 C2868 1.381 . S
C2870 C2871 1.394 . S
C2870 H2878 0.930 . S
C2871 C2870 1.394 . S
C2871 C2872 1.383 . S
C2871 H2879 0.929 . S
C2872 C2871 1.383 . S
C2872 C2873 1.377 . S
C2873 H2857 0.930 . S
C2873 C2872 1.377 . S
C2873 C2874 1.379 . S
C2874 H2858 0.931 . S
C2874 C2868 1.383 . S
C2874 C2873 1.379 . S
H2875 C2869 0.959 . S
H2876 C2869 0.961 . S
H2877 C2869 0.960 . S
H2878 C2870 0.930 . S
H2879 C2871 0.929 . S
H2880 C2888 0.929 . S
H2881 C2890 0.930 . S
H2882 C2892 0.930 . S
H2883 C2895 0.929 . S
H2884 C2898 0.930 . S
H2885 C2900 0.960 . S
H2886 C2900 0.960 . S
H2887 C2900 0.960 . S
C2888 H2880 0.929 . S
C2888 C2889 1.377 . S
C2888 C2890 1.384 . S
C2889 C2888 1.377 . S
C2889 C2895 1.390 . S
C2890 H2881 0.930 . S
C2890 C2888 1.384 . S
C2890 C2891 1.372 . S
C2891 C2890 1.372 . S
C2891 C2892 1.400 . S
C2891 C2896 1.490 . S
C2892 H2882 0.930 . S
C2892 C2891 1.400 . S
C2892 C2895 1.386 . S
H2893 C2909 0.930 . S
H2894 C2910 0.931 . S
C2895 H2883 0.929 . S
C2895 C2889 1.390 . S
C2895 C2892 1.386 . S
C2896 C2891 1.490 . S
C2896 C2898 1.395 . S
C2896 C2899 1.403 . S
H2897 C2903 0.930 . S
C2898 H2884 0.930 . S
C2898 C2896 1.395 . S
C2898 C2901 1.403 . S
C2899 C2896 1.403 . S
C2899 C2900 1.524 . S
C2899 C2903 1.400 . S
C2900 H2885 0.960 . S
C2900 H2886 0.960 . S
C2900 H2887 0.960 . S
C2900 C2899 1.524 . S
C2901 C2898 1.403 . S
C2901 C2902 1.392 . S
C2901 C2905 1.495 . S
C2902 C2901 1.392 . S
C2902 C2903 1.385 . S
C2902 C2904 1.478 . S
C2903 H2897 0.930 . S
C2903 C2899 1.400 . S
C2903 C2902 1.385 . S
C2904 C2902 1.478 . S
C2904 C2906 1.381 . S
C2904 C2910 1.383 . S
C2905 C2901 1.495 . S
C2905 H2911 0.959 . S
C2905 H2912 0.961 . S
C2905 H2913 0.960 . S
C2906 C2904 1.381 . S
C2906 C2907 1.394 . S
C2906 H2914 0.930 . S
C2907 C2906 1.394 . S
C2907 C2908 1.383 . S
C2907 H2915 0.929 . S
C2908 C2907 1.383 . S
C2908 C2909 1.377 . S
C2909 H2893 0.930 . S
C2909 C2908 1.377 . S
C2909 C2910 1.379 . S
C2910 H2894 0.931 . S
C2910 C2904 1.383 . S
C2910 C2909 1.379 . S
H2911 C2905 0.959 . S
H2912 C2905 0.961 . S
H2913 C2905 0.960 . S
H2914 C2906 0.930 . S
H2915 C2907 0.929 . S
H2916 C2924 0.929 . S
H2917 C2926 0.930 . S
H2918 C2928 0.930 . S
H2919 C2931 0.929 . S
H2920 C2934 0.930 . S
H2921 C2936 0.960 . S
H2922 C2936 0.960 . S
H2923 C2936 0.960 . S
C2924 H2916 0.929 . S
C2924 C2925 1.377 . S
C2924 C2926 1.384 . S
C2925 C2924 1.377 . S
C2925 C2931 1.390 . S
C2926 H2917 0.930 . S
C2926 C2924 1.384 . S
C2926 C2927 1.372 . S
C2927 C2926 1.372 . S
C2927 C2928 1.400 . S
C2927 C2932 1.490 . S
C2928 H2918 0.930 . S
C2928 C2927 1.400 . S
C2928 C2931 1.386 . S
H2929 C2945 0.930 . S
H2930 C2946 0.931 . S
C2931 H2919 0.929 . S
C2931 C2925 1.390 . S
C2931 C2928 1.386 . S
C2932 C2927 1.490 . S
C2932 C2934 1.395 . S
C2932 C2935 1.403 . S
H2933 C2939 0.930 . S
C2934 H2920 0.930 . S
C2934 C2932 1.395 . S
C2934 C2937 1.403 . S
C2935 C2932 1.403 . S
C2935 C2936 1.524 . S
C2935 C2939 1.400 . S
C2936 H2921 0.960 . S
C2936 H2922 0.960 . S
C2936 H2923 0.960 . S
C2936 C2935 1.524 . S
C2937 C2934 1.403 . S
C2937 C2938 1.392 . S
C2937 C2941 1.495 . S
C2938 C2937 1.392 . S
C2938 C2939 1.385 . S
C2938 C2940 1.478 . S
C2939 H2933 0.930 . S
C2939 C2935 1.400 . S
C2939 C2938 1.385 . S
C2940 C2938 1.478 . S
C2940 C2942 1.381 . S
C2940 C2946 1.383 . S
C2941 C2937 1.495 . S
C2941 H2947 0.959 . S
C2941 H2948 0.961 . S
C2941 H2949 0.960 . S
C2942 C2940 1.381 . S
C2942 C2943 1.394 . S
C2942 H2950 0.930 . S
C2943 C2942 1.394 . S
C2943 C2944 1.383 . S
C2943 H2951 0.929 . S
C2944 C2943 1.383 . S
C2944 C2945 1.377 . S
C2945 H2929 0.930 . S
C2945 C2944 1.377 . S
C2945 C2946 1.379 . S
C2946 H2930 0.931 . S
C2946 C2940 1.383 . S
C2946 C2945 1.379 . S
H2947 C2941 0.959 . S
H2948 C2941 0.961 . S
H2949 C2941 0.960 . S
H2950 C2942 0.930 . S
H2951 C2943 0.929 . S
H2952 C2960 0.929 . S
H2953 C2962 0.930 . S
H2954 C2964 0.930 . S
H2955 C2967 0.929 . S
H2956 C2970 0.930 . S
H2957 C2972 0.960 . S
H2958 C2972 0.960 . S
H2959 C2972 0.960 . S
C2960 H2952 0.929 . S
C2960 C2961 1.377 . S
C2960 C2962 1.384 . S
C2961 C2960 1.377 . S
C2961 C2967 1.390 . S
C2962 H2953 0.930 . S
C2962 C2960 1.384 . S
C2962 C2963 1.372 . S
C2963 C2962 1.372 . S
C2963 C2964 1.400 . S
C2963 C2968 1.490 . S
C2964 H2954 0.930 . S
C2964 C2963 1.400 . S
C2964 C2967 1.386 . S
H2965 C2981 0.930 . S
H2966 C2982 0.931 . S
C2967 H2955 0.929 . S
C2967 C2961 1.390 . S
C2967 C2964 1.386 . S
C2968 C2963 1.490 . S
C2968 C2970 1.395 . S
C2968 C2971 1.403 . S
H2969 C2975 0.930 . S
C2970 H2956 0.930 . S
C2970 C2968 1.395 . S
C2970 C2973 1.403 . S
C2971 C2968 1.403 . S
C2971 C2972 1.524 . S
C2971 C2975 1.400 . S
C2972 H2957 0.960 . S
C2972 H2958 0.960 . S
C2972 H2959 0.960 . S
C2972 C2971 1.524 . S
C2973 C2970 1.403 . S
C2973 C2974 1.392 . S
C2973 C2977 1.495 . S
C2974 C2973 1.392 . S
C2974 C2975 1.385 . S
C2974 C2976 1.478 . S
C2975 H2969 0.930 . S
C2975 C2971 1.400 . S
C2975 C2974 1.385 . S
C2976 C2974 1.478 . S
C2976 C2978 1.381 . S
C2976 C2982 1.383 . S
C2977 C2973 1.495 . S
C2977 H2983 0.959 . S
C2977 H2984 0.961 . S
C2977 H2985 0.960 . S
C2978 C2976 1.381 . S
C2978 C2979 1.394 . S
C2978 H2986 0.930 . S
C2979 C2978 1.394 . S
C2979 C2980 1.383 . S
C2979 H2987 0.929 . S
C2980 C2979 1.383 . S
C2980 C2981 1.377 . S
C2981 H2965 0.930 . S
C2981 C2980 1.377 . S
C2981 C2982 1.379 . S
C2982 H2966 0.931 . S
C2982 C2976 1.383 . S
C2982 C2981 1.379 . S
H2983 C2977 0.959 . S
H2984 C2977 0.961 . S
H2985 C2977 0.960 . S
H2986 C2978 0.930 . S
H2987 C2979 0.929 . S
H2988 C2996 0.929 . S
H2989 C2998 0.930 . S
H2990 C3000 0.930 . S
H2991 C3003 0.929 . S
H2992 C3006 0.930 . S
H2993 C3008 0.960 . S
H2994 C3008 0.960 . S
H2995 C3008 0.960 . S
C2996 H2988 0.929 . S
C2996 C2997 1.377 . S
C2996 C2998 1.384 . S
C2997 C2996 1.377 . S
C2997 C3003 1.390 . S
C2998 H2989 0.930 . S
C2998 C2996 1.384 . S
C2998 C2999 1.372 . S
C2999 C2998 1.372 . S
C2999 C3000 1.400 . S
C2999 C3004 1.490 . S
C3000 H2990 0.930 . S
C3000 C2999 1.400 . S
C3000 C3003 1.386 . S
H3001 C3017 0.930 . S
H3002 C3018 0.931 . S
C3003 H2991 0.929 . S
C3003 C2997 1.390 . S
C3003 C3000 1.386 . S
C3004 C2999 1.490 . S
C3004 C3006 1.395 . S
C3004 C3007 1.403 . S
H3005 C3011 0.930 . S
C3006 H2992 0.930 . S
C3006 C3004 1.395 . S
C3006 C3009 1.403 . S
C3007 C3004 1.403 . S
C3007 C3008 1.524 . S
C3007 C3011 1.400 . S
C3008 H2993 0.960 . S
C3008 H2994 0.960 . S
C3008 H2995 0.960 . S
C3008 C3007 1.524 . S
C3009 C3006 1.403 . S
C3009 C3010 1.392 . S
C3009 C3013 1.495 . S
C3010 C3009 1.392 . S
C3010 C3011 1.385 . S
C3010 C3012 1.478 . S
C3011 H3005 0.930 . S
C3011 C3007 1.400 . S
C3011 C3010 1.385 . S
C3012 C3010 1.478 . S
C3012 C3014 1.381 . S
C3012 C3018 1.383 . S
C3013 C3009 1.495 . S
C3013 H3019 0.959 . S
C3013 H3020 0.961 . S
C3013 H3021 0.960 . S
C3014 C3012 1.381 . S
C3014 C3015 1.394 . S
C3014 H3022 0.930 . S
C3015 C3014 1.394 . S
C3015 C3016 1.383 . S
C3015 H3023 0.929 . S
C3016 C3015 1.383 . S
C3016 C3017 1.377 . S
C3017 H3001 0.930 . S
C3017 C3016 1.377 . S
C3017 C3018 1.379 . S
C3018 H3002 0.931 . S
C3018 C3012 1.383 . S
C3018 C3017 1.379 . S
H3019 C3013 0.959 . S
H3020 C3013 0.961 . S
H3021 C3013 0.960 . S
H3022 C3014 0.930 . S
H3023 C3015 0.929 . S
H3024 C3032 0.929 . S
H3025 C3034 0.930 . S
H3026 C3036 0.930 . S
H3027 C3039 0.929 . S
H3028 C3042 0.930 . S
H3029 C3044 0.960 . S
H3030 C3044 0.960 . S
H3031 C3044 0.960 . S
C3032 H3024 0.929 . S
C3032 C3033 1.377 . S
C3032 C3034 1.384 . S
C3033 C3032 1.377 . S
C3033 C3039 1.390 . S
C3034 H3025 0.930 . S
C3034 C3032 1.384 . S
C3034 C3035 1.372 . S
C3035 C3034 1.372 . S
C3035 C3036 1.400 . S
C3035 C3040 1.490 . S
C3036 H3026 0.930 . S
C3036 C3035 1.400 . S
C3036 C3039 1.386 . S
H3037 C3053 0.930 . S
H3038 C3054 0.931 . S
C3039 H3027 0.929 . S
C3039 C3033 1.390 . S
C3039 C3036 1.386 . S
C3040 C3035 1.490 . S
C3040 C3042 1.395 . S
C3040 C3043 1.403 . S
H3041 C3047 0.930 . S
C3042 H3028 0.930 . S
C3042 C3040 1.395 . S
C3042 C3045 1.403 . S
C3043 C3040 1.403 . S
C3043 C3044 1.524 . S
C3043 C3047 1.400 . S
C3044 H3029 0.960 . S
C3044 H3030 0.960 . S
C3044 H3031 0.960 . S
C3044 C3043 1.524 . S
C3045 C3042 1.403 . S
C3045 C3046 1.392 . S
C3045 C3049 1.495 . S
C3046 C3045 1.392 . S
C3046 C3047 1.385 . S
C3046 C3048 1.478 . S
C3047 H3041 0.930 . S
C3047 C3043 1.400 . S
C3047 C3046 1.385 . S
C3048 C3046 1.478 . S
C3048 C3050 1.381 . S
C3048 C3054 1.383 . S
C3049 C3045 1.495 . S
C3049 H3055 0.959 . S
C3049 H3056 0.961 . S
C3049 H3057 0.960 . S
C3050 C3048 1.381 . S
C3050 C3051 1.394 . S
C3050 H3058 0.930 . S
C3051 C3050 1.394 . S
C3051 C3052 1.383 . S
C3051 H3059 0.929 . S
C3052 C3051 1.383 . S
C3052 C3053 1.377 . S
C3053 H3037 0.930 . S
C3053 C3052 1.377 . S
C3053 C3054 1.379 . S
C3054 H3038 0.931 . S
C3054 C3048 1.383 . S
C3054 C3053 1.379 . S
H3055 C3049 0.959 . S
H3056 C3049 0.961 . S
H3057 C3049 0.960 . S
H3058 C3050 0.930 . S
H3059 C3051 0.929 . S
H3060 C3068 0.919 1_455 S
H3061 C3070 0.930 . S
H3062 C3072 0.930 . S
H3063 C3075 0.929 . S
H3064 C3078 0.930 . S
H3065 C3080 0.960 . S
H3066 C3080 0.960 . S
H3067 C3080 0.960 . S
C3068 H3060 0.919 1_655 S
C3068 C3069 1.402 . S
C3068 C3070 1.370 1_655 S
C3069 C3068 1.402 . S
C3069 C3075 1.390 . S
C3070 H3061 0.930 . S
C3070 C3068 1.370 1_455 S
C3070 C3071 1.372 1_455 S
C3071 C3070 1.372 1_655 S
C3071 C3072 1.400 . S
C3071 C3076 1.490 . S
C3072 H3062 0.930 . S
C3072 C3071 1.400 . S
C3072 C3075 1.386 . S
H3073 C3089 0.930 . S
H3074 C3090 0.931 . S
C3075 H3063 0.929 . S
C3075 C3069 1.390 . S
C3075 C3072 1.386 . S
C3076 C3071 1.490 . S
C3076 C3078 1.395 1_655 S
C3076 C3079 1.403 . S
H3077 C3083 0.930 . S
C3078 H3064 0.930 . S
C3078 C3076 1.395 1_455 S
C3078 C3081 1.403 . S
C3079 C3076 1.403 . S
C3079 C3080 1.524 . S
C3079 C3083 1.400 . S
C3080 H3065 0.960 . S
C3080 H3066 0.960 . S
C3080 H3067 0.960 . S
C3080 C3079 1.524 . S
C3081 C3078 1.403 . S
C3081 C3082 1.392 1_455 S
C3081 C3085 1.495 . S
C3082 C3081 1.392 1_655 S
C3082 C3083 1.385 . S
C3082 C3084 1.478 . S
C3083 H3077 0.930 . S
C3083 C3079 1.400 . S
C3083 C3082 1.385 . S
C3084 C3082 1.478 . S
C3084 C3086 1.381 1_655 S
C3084 C3090 1.383 . S
C3085 C3081 1.495 . S
C3085 H3091 0.959 . S
C3085 H3092 0.961 . S
C3085 H3093 0.960 . S
C3086 C3084 1.381 1_455 S
C3086 C3087 1.394 . S
C3086 H3094 0.930 . S
C3087 C3086 1.394 . S
C3087 C3088 1.383 . S
C3087 H3095 0.929 . S
C3088 C3087 1.383 . S
C3088 C3089 1.378 1_455 S
C3089 H3073 0.930 . S
C3089 C3088 1.378 1_655 S
C3089 C3090 1.379 . S
C3090 H3074 0.931 . S
C3090 C3084 1.383 . S
C3090 C3089 1.379 . S
H3091 C3085 0.959 . S
H3092 C3085 0.961 . S
H3093 C3085 0.960 . S
H3094 C3086 0.930 . S
H3095 C3087 0.929 . S
H3096 C3104 0.929 . S
H3097 C3106 0.930 . S
H3098 C3108 0.930 . S
H3099 C3111 0.929 . S
H3100 C3114 0.930 . S
H3101 C3116 0.960 . S
H3102 C3116 0.960 . S
H3103 C3116 0.960 . S
C3104 H3096 0.929 . S
C3104 C3105 1.377 . S
C3104 C3106 1.384 . S
C3105 C3104 1.377 . S
C3105 C3111 1.390 . S
C3106 H3097 0.930 . S
C3106 C3104 1.384 . S
C3106 C3107 1.372 . S
C3107 C3106 1.372 . S
C3107 C3108 1.400 . S
C3107 C3112 1.490 . S
C3108 H3098 0.930 . S
C3108 C3107 1.400 . S
C3108 C3111 1.386 . S
H3109 C3125 0.930 . S
H3110 C3126 0.931 . S
C3111 H3099 0.929 . S
C3111 C3105 1.390 . S
C3111 C3108 1.386 . S
C3112 C3107 1.490 . S
C3112 C3114 1.395 . S
C3112 C3115 1.403 . S
H3113 C3119 0.930 . S
C3114 H3100 0.930 . S
C3114 C3112 1.395 . S
C3114 C3117 1.403 . S
C3115 C3112 1.403 . S
C3115 C3116 1.524 . S
C3115 C3119 1.400 . S
C3116 H3101 0.960 . S
C3116 H3102 0.960 . S
C3116 H3103 0.960 . S
C3116 C3115 1.524 . S
C3117 C3114 1.403 . S
C3117 C3118 1.392 . S
C3117 C3121 1.495 . S
C3118 C3117 1.392 . S
C3118 C3119 1.385 . S
C3118 C3120 1.478 . S
C3119 H3113 0.930 . S
C3119 C3115 1.400 . S
C3119 C3118 1.385 . S
C3120 C3118 1.478 . S
C3120 C3122 1.381 . S
C3120 C3126 1.383 . S
C3121 C3117 1.495 . S
C3121 H3127 0.959 . S
C3121 H3128 0.961 . S
C3121 H3129 0.960 . S
C3122 C3120 1.381 . S
C3122 C3123 1.394 . S
C3122 H3130 0.930 . S
C3123 C3122 1.394 . S
C3123 C3124 1.383 . S
C3123 H3131 0.929 . S
C3124 C3123 1.383 . S
C3124 C3125 1.377 . S
C3125 H3109 0.930 . S
C3125 C3124 1.377 . S
C3125 C3126 1.379 . S
C3126 H3110 0.931 . S
C3126 C3120 1.383 . S
C3126 C3125 1.379 . S
H3127 C3121 0.959 . S
H3128 C3121 0.961 . S
H3129 C3121 0.960 . S
H3130 C3122 0.930 . S
H3131 C3123 0.929 . S
H3132 C3140 0.929 . S
H3133 C3142 0.930 . S
H3134 C3144 0.930 . S
H3135 C3147 0.929 . S
H3136 C3150 0.930 . S
H3137 C3152 0.960 . S
H3138 C3152 0.960 . S
H3139 C3152 0.960 . S
C3140 H3132 0.929 . S
C3140 C3141 1.377 . S
C3140 C3142 1.384 . S
C3141 C3140 1.377 . S
C3141 C3147 1.390 . S
C3142 H3133 0.930 . S
C3142 C3140 1.384 . S
C3142 C3143 1.372 . S
C3143 C3142 1.372 . S
C3143 C3144 1.400 . S
C3143 C3148 1.490 . S
C3144 H3134 0.930 . S
C3144 C3143 1.400 . S
C3144 C3147 1.386 . S
H3145 C3161 0.924 . S
H3146 C3162 0.931 . S
C3147 H3135 0.929 . S
C3147 C3141 1.390 . S
C3147 C3144 1.386 . S
C3148 C3143 1.490 . S
C3148 C3150 1.395 . S
C3148 C3151 1.403 1_545 S
H3149 C3155 0.930 . S
C3150 H3136 0.930 . S
C3150 C3148 1.395 . S
C3150 C3153 1.403 . S
C3151 C3148 1.403 1_565 S
C3151 C3152 1.524 . S
C3151 C3155 1.400 . S
C3152 H3137 0.960 . S
C3152 H3138 0.960 . S
C3152 H3139 0.960 . S
C3152 C3151 1.524 . S
C3153 C3150 1.403 . S
C3153 C3154 1.392 . S
C3153 C3157 1.495 . S
C3154 C3153 1.392 . S
C3154 C3155 1.385 1_545 S
C3154 C3156 1.478 . S
C3155 H3149 0.930 . S
C3155 C3151 1.400 . S
C3155 C3154 1.385 1_565 S
C3156 C3154 1.478 . S
C3156 C3158 1.381 . S
C3156 C3162 1.383 . S
C3157 C3153 1.495 . S
C3157 H3163 0.959 . S
C3157 H3164 0.961 . S
C3157 H3165 0.960 . S
C3158 C3156 1.381 . S
C3158 C3159 1.394 . S
C3158 H3166 0.930 . S
C3159 C3158 1.394 . S
C3159 C3160 1.383 . S
C3159 H3167 0.929 . S
C3160 C3159 1.383 . S
C3160 C3161 1.377 . S
C3161 H3145 0.924 . S
C3161 C3160 1.377 . S
C3161 C3162 1.379 . S
C3162 H3146 0.931 . S
C3162 C3156 1.383 . S
C3162 C3161 1.379 . S
H3163 C3157 0.959 . S
H3164 C3157 0.961 . S
H3165 C3157 0.960 . S
H3166 C3158 0.930 . S
H3167 C3159 0.929 . S
C585 C4 1.539 . S
C604 C421 1.561 . S
C621 C26 1.568 . S
C640 C446 1.557 . S
C676 C457 1.500 . S
C657 C32 1.472 . S
C693 C40 1.495 . S
C712 C482 1.496 . S
C729 C12 1.536 . S
C748 C500 1.521 . S
C765 C18 1.501 . S
C784 C511 1.528 . S
C801 C46 1.522 . S
C820 C493 1.579 1_455 S
C856 C518 1.524 . S
C837 C68 1.546 . S
C892 C475 1.529 . S
C873 C74 1.484 . S
C909 C82 1.479 . S
C928 C464 1.485 1_545 S
C964 C428 1.509 1_655 S
C945 C54 1.544 . S
C981 C60 1.492 . S
C1000 C439 1.531 . S
C1017 C88 1.581 . S
C1036 C529 1.617 . S
C1053 C110 1.601 . S
C1072 C554 1.551 . S
C1108 C565 1.587 . S
C1089 C116 1.549 . S
C1125 C124 1.521 . S
C1144 C266 1.475 . S
C1161 C96 1.566 . S
C1180 C284 1.522 . S
C1197 C102 1.523 . S
C1216 C295 1.522 . S
C1233 C130 1.534 . S
C1252 C277 1.577 . S
C1269 C152 1.586 . S
C1288 C302 1.567 . S
C1324 C259 1.536 . S
C1305 C158 1.522 . S
C1360 C572 1.483 . S
C1341 C166 1.523 . S
C1396 C536 1.499 . S
C1377 C138 1.536 . S
C1432 C547 1.569 . S
C1413 C144 1.521 . S
C1449 C172 1.561 . S
C1468 C313 1.565 . S
C1485 C194 1.601 . S
C1504 C338 1.566 . S
C1521 C200 1.552 . S
C1540 C349 1.588 . S
C1557 C208 1.541 . S
C1576 C374 1.494 . S
C1612 C392 1.559 . S
C1593 C180 1.566 . S
C1648 C403 1.556 . S
C1629 C186 1.540 . S
C1684 C385 1.616 . S
C1665 C214 1.569 . S
C1720 C410 1.568 . S
C1701 C236 1.579 . S
C1737 C242 1.511 . S
C1756 C367 1.559 . S
C1792 C356 1.449 . S
C1773 C250 1.488 . S
C1809 C222 1.549 . S
C1828 C320 1.514 . S
C1864 C331 1.523 . S
C1845 C228 1.510 . S
C1900 C268 1.240 . S
C1881 C5 1.155 . S
C1917 C25 1.249 . S
C1936 C286 1.152 . S
C1972 C296 1.296 . S
C1953 C33 1.178 . S
C2008 C314 1.183 . S
C1989 C39 1.206 . S
C2044 C340 1.251 . S
C2025 C11 1.272 . S
C2080 C350 1.191 . S
C2061 C19 1.095 1_556 S
C2097 C47 1.206 1_556 S
C2116 C358 1.346 . S
C2133 C67 1.285 . S
C2152 C322 1.165 . S
C2169 C75 1.166 1_556 S
C2188 C332 1.291 . S
C2205 C81 1.263 . S
C2224 C278 1.243 . S
C2260 C304 1.235 . S
C2241 C53 1.282 . S
C2277 C61 1.111 . S
C2296 C260 1.209 . S
C2332 C376 1.232 . S
C2313 C89 1.121 . S
C2349 C109 1.314 . S
C2368 C394 1.218 . S
C2385 C117 1.148 . S
C2404 C404 1.304 . S
C2440 C422 1.183 . S
C2421 C123 1.193 . S
C2457 C95 1.256 . S
C2476 C448 1.201 . S
C2493 C103 1.065 . S
C2512 C458 1.179 . S
C2529 C131 1.078 . S
C2548 C466 1.196 1_545 S
C2565 C151 1.247 . S
C2584 C430 1.136 1_655 S
C2620 C440 1.294 . S
C2601 C159 1.141 . S
C2637 C165 1.274 . S
C2656 C386 1.194 . S
C2673 C137 1.342 . S
C2692 C412 1.283 . S
C2728 C368 1.324 . S
C2709 C145 1.173 . S
C2764 C484 1.176 . S
C2745 C173 1.086 . S
C2781 C193 1.208 . S
C2800 C502 1.119 . S
C2817 C201 1.104 . S
C2836 C512 1.196 . S
C2872 C530 1.170 . S
C2853 C207 1.233 . S
C2908 C556 1.259 . S
C2889 C179 1.326 . S
C2925 C187 1.150 . S
C2944 C566 1.242 . S
C2961 C215 1.173 . S
C2980 C574 1.260 . S
C2997 C235 1.341 . S
C3016 C538 1.301 . S
C3052 C548 1.291 . S
C3033 C243 1.159 . S
C3088 C494 1.108 . S
C3069 C249 1.193 . S
C3124 C520 1.220 . S
C3105 C221 1.299 . S
C3141 C229 1.095 . S
C3160 C476 1.200 1_545 S
