# Generated by pormake.
# Topology pyr, (3,6)-cn, num edge types: 1
# Building blocks:
#     Node 0, Type 0, BuildingBlock: QEWDON_clean_linker_0, # of connection points: 3
#     Node 1, Type 0, BuildingBlock: QEWDON_clean_linker_0, # of connection points: 3
#     Node 2, Type 0, BuildingBlock: QEWDON_clean_linker_0, # of connection points: 3
#     Node 3, Type 0, BuildingBlock: QEWDON_clean_linker_0, # of connection points: 3
#     Node 4, Type 0, BuildingBlock: QEWDON_clean_linker_0, # of connection points: 3
#     Node 5, Type 0, BuildingBlock: QEWDON_clean_linker_0, # of connection points: 3
#     Node 6, Type 0, BuildingBlock: QEWDON_clean_linker_0, # of connection points: 3
#     Node 7, Type 0, BuildingBlock: QEWDON_clean_linker_0, # of connection points: 3
#     Node 8, Type 1, BuildingBlock: BETDEL_clean_sbu_0, # of connection points: 6
#     Node 9, Type 1, BuildingBlock: BETDEL_clean_sbu_0, # of connection points: 6
#     Node 10, Type 1, BuildingBlock: BETDEL_clean_sbu_0, # of connection points: 6
#     Node 11, Type 1, BuildingBlock: BETDEL_clean_sbu_0, # of connection points: 6
#     Edge 12, Type (0, 1), BuildingBlock: TEMPAE_clean_linker_10, # of connection points: 2
#     Edge 13, Type (0, 1), BuildingBlock: TEMPAE_clean_linker_10, # of connection points: 2
#     Edge 14, Type (0, 1), BuildingBlock: TEMPAE_clean_linker_10, # of connection points: 2
#     Edge 15, Type (0, 1), BuildingBlock: TEMPAE_clean_linker_10, # of connection points: 2
#     Edge 16, Type (0, 1), BuildingBlock: TEMPAE_clean_linker_10, # of connection points: 2
#     Edge 17, Type (0, 1), BuildingBlock: TEMPAE_clean_linker_10, # of connection points: 2
#     Edge 18, Type (0, 1), BuildingBlock: TEMPAE_clean_linker_10, # of connection points: 2
#     Edge 19, Type (0, 1), BuildingBlock: TEMPAE_clean_linker_10, # of connection points: 2
#     Edge 20, Type (0, 1), BuildingBlock: TEMPAE_clean_linker_10, # of connection points: 2
#     Edge 21, Type (0, 1), BuildingBlock: TEMPAE_clean_linker_10, # of connection points: 2
#     Edge 22, Type (0, 1), BuildingBlock: TEMPAE_clean_linker_10, # of connection points: 2
#     Edge 23, Type (0, 1), BuildingBlock: TEMPAE_clean_linker_10, # of connection points: 2
#     Edge 24, Type (0, 1), BuildingBlock: TEMPAE_clean_linker_10, # of connection points: 2
#     Edge 25, Type (0, 1), BuildingBlock: TEMPAE_clean_linker_10, # of connection points: 2
#     Edge 26, Type (0, 1), BuildingBlock: TEMPAE_clean_linker_10, # of connection points: 2
#     Edge 27, Type (0, 1), BuildingBlock: TEMPAE_clean_linker_10, # of connection points: 2
#     Edge 28, Type (0, 1), BuildingBlock: TEMPAE_clean_linker_10, # of connection points: 2
#     Edge 29, Type (0, 1), BuildingBlock: TEMPAE_clean_linker_10, # of connection points: 2
#     Edge 30, Type (0, 1), BuildingBlock: TEMPAE_clean_linker_10, # of connection points: 2
#     Edge 31, Type (0, 1), BuildingBlock: TEMPAE_clean_linker_10, # of connection points: 2
#     Edge 32, Type (0, 1), BuildingBlock: TEMPAE_clean_linker_10, # of connection points: 2
#     Edge 33, Type (0, 1), BuildingBlock: TEMPAE_clean_linker_10, # of connection points: 2
#     Edge 34, Type (0, 1), BuildingBlock: TEMPAE_clean_linker_10, # of connection points: 2
#     Edge 35, Type (0, 1), BuildingBlock: TEMPAE_clean_linker_10, # of connection points: 2
# Relax obj value: 0.120
# Max RMSD: 0.262
# Mean RMSD: 0.190
data_MOF--net-pyr--node1-BETDEL_clean_sbu_0--node2-QEWDON_clean_linker_0--edge1-TEMPAE_clean_linker_10
_symmetry_space_group_name_H-M    P1
_symmetry_Int_Tables_number       1
_symmetry_cell_setting            triclinic
loop_
_symmetry_equiv_pos_as_xyz
'x, y, z'
_cell_length_a     36.911753
_cell_length_b     38.971908
_cell_length_c     38.099502
_cell_angle_alpha  91.937396
_cell_angle_beta   90.181793
_cell_angle_gamma 104.17983
loop_
_atom_site_label
_atom_site_type_symbol
_atom_site_fract_x
_atom_site_fract_y
_atom_site_fract_z
_atom_type_partial_charge
H0 H 0.28018 0.23793 0.16575 0.0
C1 C 0.26164 0.22604 0.18638 0.0
C2 C 0.26133 0.19184 0.19726 0.0
C3 C 0.23869 0.2457 0.20225 0.0
H4 H 0.23555 0.15074 0.23222 0.0
C5 C 0.23611 0.17701 0.2236 0.0
C6 C 0.21242 0.19625 0.23967 0.0
C7 C 0.21404 0.23071 0.2286 0.0
C8 C 0.24382 0.28339 0.19407 0.0
H9 H 0.19766 0.24681 0.24168 0.0
C10 C 0.21406 0.29633 0.18131 0.0
C11 C 0.21954 0.33251 0.17395 0.0
C12 C 0.27906 0.30672 0.19959 0.0
H13 H 0.30225 0.29725 0.20954 0.0
C14 C 0.2845 0.34254 0.1931 0.0
H15 H 0.18713 0.27804 0.17639 0.0
C16 C 0.25504 0.35544 0.1806 0.0
H17 H 0.26011 0.38357 0.17653 0.0
H18 H 0.31162 0.36046 0.19796 0.0
H19 H 0.26858 0.87894 0.76369 0.0
C20 C 0.28507 0.86299 0.75051 0.0
C21 C 0.32113 0.86365 0.76324 0.0
C22 C 0.26971 0.84076 0.72162 0.0
H23 H 0.36978 0.84305 0.75595 0.0
C24 C 0.34202 0.84241 0.74617 0.0
C25 C 0.32698 0.81959 0.71749 0.0
C26 C 0.29078 0.81916 0.70545 0.0
C27 C 0.23039 0.83711 0.71001 0.0
H28 H 0.27828 0.80114 0.684 0.0
C29 C 0.21714 0.86654 0.70013 0.0
C30 C 0.18022 0.86176 0.68687 0.0
C31 C 0.20618 0.80314 0.70757 0.0
H32 H 0.21555 0.7802 0.71529 0.0
C33 C 0.16981 0.79828 0.69496 0.0
H34 H 0.23571 0.89278 0.70219 0.0
C35 C 0.15702 0.82713 0.68436 0.0
H36 H 0.12906 0.82199 0.67336 0.0
H37 H 0.15158 0.7719 0.69283 0.0
H38 H 0.6714 0.45643 0.93453 0.0
C39 C 0.66161 0.42939 0.94278 0.0
C40 C 0.68605 0.41326 0.96057 0.0
C41 C 0.62391 0.4116 0.93779 0.0
H42 H 0.69181 0.36626 0.98588 0.0
C43 C 0.6729 0.37862 0.97206 0.0
C44 C 0.63553 0.36008 0.96644 0.0
C45 C 0.61107 0.37699 0.94958 0.0
C46 C 0.59717 0.43021 0.9231 0.0
H47 H 0.58203 0.36319 0.94529 0.0
C48 C 0.6022 0.44461 0.88954 0.0
C49 C 0.57693 0.46305 0.87659 0.0
C50 C 0.56664 0.43425 0.94334 0.0
H51 H 0.56235 0.42344 0.96926 0.0
C52 C 0.54184 0.45287 0.93062 0.0
H53 H 0.62545 0.44133 0.87355 0.0
C54 C 0.54699 0.46733 0.89747 0.0
H55 H 0.52724 0.4814 0.88783 0.0
H56 H 0.51853 0.45606 0.94647 0.0
H57 H 0.85241 0.76772 0.34819 0.0
C58 C 0.83386 0.75154 0.36652 0.0
C59 C 0.83545 0.76181 0.40237 0.0
C60 C 0.80614 0.72207 0.35394 0.0
H61 H 0.81158 0.74914 0.4534 0.0
C62 C 0.81065 0.7412 0.42577 0.0
C63 C 0.78313 0.71178 0.41355 0.0
C64 C 0.78078 0.70246 0.37763 0.0
C65 C 0.80103 0.71341 0.31582 0.0
H66 H 0.75886 0.68014 0.36805 0.0
C67 C 0.83004 0.70588 0.2954 0.0
C68 C 0.82377 0.69503 0.25965 0.0
C69 C 0.76607 0.71125 0.30009 0.0
H70 H 0.74342 0.71712 0.31529 0.0
C71 C 0.75991 0.70136 0.2647 0.0
H72 H 0.85703 0.70769 0.30759 0.0
C73 C 0.78831 0.69299 0.24468 0.0
H74 H 0.78201 0.68395 0.21766 0.0
H75 H 0.73276 0.69951 0.25287 0.0
H76 H 0.83997 0.83055 0.9471 0.0
C77 C 0.853 0.84691 0.92592 0.0
C78 C 0.88934 0.84648 0.91557 0.0
C79 C 0.83275 0.86754 0.90872 0.0
H80 H 0.93314 0.86641 0.87881 0.0
C81 C 0.90568 0.86769 0.88788 0.0
C82 C 0.88568 0.88852 0.87019 0.0
C83 C 0.84929 0.88866 0.88121 0.0
C84 C 0.79287 0.86336 0.9171 0.0
H85 H 0.83329 0.90411 0.86756 0.0
C86 C 0.77926 0.89198 0.93018 0.0
C87 C 0.74164 0.88641 0.94042 0.0
C88 C 0.76845 0.82957 0.91325 0.0
H89 H 0.77841 0.80727 0.90312 0.0
C90 C 0.73104 0.82422 0.92241 0.0
H91 H 0.79813 0.918 0.93367 0.0
C92 C 0.71771 0.85234 0.93603 0.0
H93 H 0.68852 0.84746 0.94308 0.0
H94 H 0.71238 0.79812 0.91921 0.0
H95 H 0.76734 0.20764 0.47291 0.0
C96 C 0.75689 0.20508 0.44608 0.0
C97 C 0.7729 0.18653 0.42067 0.0
C98 C 0.72609 0.21865 0.43792 0.0
H99 H 0.76845 0.16571 0.36737 0.0
C100 C 0.75726 0.18137 0.38652 0.0
C101 C 0.72661 0.19529 0.37746 0.0
C102 C 0.71207 0.21483 0.40338 0.0
C103 C 0.70536 0.23191 0.46666 0.0
H104 H 0.68856 0.22571 0.39731 0.0
C105 C 0.69437 0.26409 0.46476 0.0
C106 C 0.67386 0.27531 0.49233 0.0
C107 C 0.69524 0.21097 0.49606 0.0
H108 H 0.70273 0.18588 0.49794 0.0
C109 C 0.67447 0.22152 0.52289 0.0
H110 H 0.70246 0.28053 0.44235 0.0
C111 C 0.66369 0.25322 0.52104 0.0
H112 H 0.64688 0.26018 0.54209 0.0
H113 H 0.6664 0.20488 0.54514 0.0
H114 H 0.45675 0.74832 0.18796 0.0
C115 C 0.42707 0.73581 0.18706 0.0
C116 C 0.40211 0.75426 0.17379 0.0
C117 C 0.41388 0.70141 0.19935 0.0
H118 H 0.34464 0.75193 0.16123 0.0
C119 C 0.36383 0.73813 0.17256 0.0
C120 C 0.35048 0.70331 0.18333 0.0
C121 C 0.37548 0.68513 0.19717 0.0
C122 C 0.44066 0.68203 0.21261 0.0
H123 H 0.36523 0.65804 0.2051 0.0
C124 C 0.43718 0.66827 0.2465 0.0
C125 C 0.46428 0.65191 0.25964 0.0
C126 C 0.47077 0.67838 0.1916 0.0
H127 H 0.47386 0.68864 0.16541 0.0
C128 C 0.49703 0.66132 0.20412 0.0
H129 H 0.4144 0.67167 0.26306 0.0
C130 C 0.49397 0.6483 0.23792 0.0
H131 H 0.51489 0.63538 0.24712 0.0
H132 H 0.52004 0.65845 0.18768 0.0
H133 H 0.24011 0.41852 0.76918 0.0
C134 C 0.22058 0.40009 0.75203 0.0
C135 C 0.2265 0.39927 0.71552 0.0
C136 C 0.19103 0.37522 0.76693 0.0
H137 H 0.20487 0.37342 0.66595 0.0
C138 C 0.20134 0.37406 0.69417 0.0
C139 C 0.17234 0.3486 0.70886 0.0
C140 C 0.16711 0.34957 0.74525 0.0
C141 C 0.18715 0.37346 0.80546 0.0
H142 H 0.14532 0.32947 0.75695 0.0
C143 C 0.17869 0.40142 0.82541 0.0
C144 C 0.17266 0.39849 0.86186 0.0
C145 C 0.19056 0.34285 0.82217 0.0
H146 H 0.19708 0.32104 0.8072 0.0
C147 C 0.18553 0.34011 0.8583 0.0
H148 H 0.17608 0.42502 0.81239 0.0
C149 C 0.17643 0.36756 0.87803 0.0
H150 H 0.17135 0.3641 0.90581 0.0
H151 H 0.18808 0.31636 0.87099 0.0
Dy152 Dy 0.03573 0.07005 0.5128 0.0
C153 C 0.98044 0.01107 0.64739 0.0
C154 C 0.06425 0.10316 0.45338 0.0
Dy155 Dy 0.99505 0.04121 0.58377 0.0
O156 O 0.0328 0.07932 0.45493 0.0
O157 O 0.07986 0.10919 0.48434 0.0
O158 O 0.07258 0.03211 0.51877 0.0
O159 O 0.05177 0.05292 0.56346 0.0
C160 C 0.06965 0.0311 0.55268 0.0
C161 C 0.94951 0.06805 0.54235 0.0
O162 O 0.03047 0.09421 0.60096 0.0
O163 O 0.0405 0.11968 0.54616 0.0
O164 O 0.97506 0.04162 0.63935 0.0
O165 O 0.99386 0.99687 0.62056 0.0
O166 O 0.93943 0.05424 0.57249 0.0
O167 O 0.98239 0.06576 0.53703 0.0
O168 O 0.99538 0.02032 0.49383 0.0
O169 O 0.9842 0.99296 0.54765 0.0
C170 C 0.0414 0.12212 0.58106 0.0
C171 C 0.98252 0.99202 0.51276 0.0
Dy172 Dy 0.54317 0.07064 0.09612 0.0
C173 C 0.44206 0.99439 0.98361 0.0
C174 C 0.58447 0.10514 0.1523 0.0
Dy175 Dy 0.48918 0.03746 0.03127 0.0
O176 O 0.56109 0.07432 0.15266 0.0
O177 O 0.58505 0.11786 0.12104 0.0
O178 O 0.54736 0.01615 0.10734 0.0
O179 O 0.4974 0.023 0.08536 0.0
C180 C 0.51451 1.0004 0.09494 0.0
C181 C 0.52722 0.10456 0.01938 0.0
O182 O 0.44877 0.05392 0.06784 0.0
O183 O 0.49094 0.08822 0.10905 0.0
O184 O 0.44064 0.0263 0.99334 0.0
O185 O 0.46878 0.98549 1.00074 0.0
O186 O 0.50403 0.08504 0.99681 0.0
O187 O 0.52851 0.08639 0.04567 0.0
O188 O 0.58455 0.06019 0.0568 0.0
O189 O 0.54195 0.02058 0.02005 0.0
C190 C 0.45675 0.07645 0.09535 0.0
C191 C 0.57667 0.03568 0.03087 0.0
Dy192 Dy 0.52513 0.52919 0.55836 0.0
C193 C 0.46044 0.64239 0.61268 0.0
C194 C 0.55842 0.48137 0.52612 0.0
Dy195 Dy 0.49866 0.59458 0.58837 0.0
O196 O 0.52252 0.47795 0.52811 0.0
O197 O 0.5761 0.51111 0.54145 0.0
O198 O 0.48707 0.49469 0.59569 0.0
O199 O 0.47212 0.53908 0.57602 0.0
C200 C 0.4634 0.51437 0.59724 0.0
C201 C 0.57101 0.60681 0.57012 0.0
O202 O 0.51387 0.57021 0.63686 0.0
O203 O 0.555 0.54094 0.6105 0.0
O204 O 0.49019 0.64986 0.59348 0.0
O205 O 0.45135 0.60866 0.61841 0.0
O206 O 0.55914 0.6243 0.59544 0.0
O207 O 0.54354 0.58612 0.55497 0.0
O208 O 0.50214 0.54683 0.50924 0.0
O209 O 0.47747 0.59235 0.5329 0.0
C210 C 0.5404 0.55274 0.63886 0.0
C211 C 0.48383 0.57208 0.50595 0.0
Dy212 Dy 0.02126 0.53245 0.07773 0.0
C213 C 1.00345 0.66304 0.02028 0.0
C214 C 0.04198 0.47407 0.10008 0.0
Dy215 Dy 0.02038 0.60342 0.04411 0.0
O216 O 0.03661 0.49983 0.12025 0.0
O217 O 0.0351 0.47975 0.06762 0.0
O218 O 0.973 0.53668 0.11162 0.0
O219 O 0.01199 0.583 0.09676 0.0
C220 C 0.98135 0.57114 0.11192 0.0
C221 C 0.05977 0.56387 0.00988 0.0
O222 O 0.0708 0.62274 0.07832 0.0
O223 O 0.0789 0.56657 0.08889 0.0
O224 O 0.01399 0.63932 1.00088 0.0
O225 O 1.00232 0.65434 0.05298 0.0
O226 O 0.06861 0.59827 0.01004 0.0
O227 O 0.02924 0.55284 0.02533 0.0
O228 O 0.97072 0.5133 0.04382 0.0
O229 O 0.96231 0.56937 0.03318 0.0
C230 C 0.0906 0.6016 0.09075 0.0
C231 C 0.95042 0.53427 0.03194 0.0
C232 C 0.19936 0.1598 0.29376 0.0
C233 C 0.18778 0.18142 0.26946 0.0
C234 C 0.1771 0.14662 0.32244 0.0
C235 C 0.1429 0.1562 0.32787 0.0
C236 C 0.13094 0.17799 0.30365 0.0
C237 C 0.15317 0.18984 0.27449 0.0
C238 C 0.19051 0.12279 0.34726 0.0
C239 C 0.09504 0.18942 0.30893 0.0
C240 C 0.07247 0.1 0.38851 0.0
C241 C 0.08178 0.11835 0.42081 0.0
C242 C 0.09181 0.11221 0.35787 0.0
C243 C 0.12029 0.1441 0.35949 0.0
C244 C 0.12851 0.16354 0.39185 0.0
C245 C 0.10957 0.1501 0.42226 0.0
C246 C 0.08291 0.09019 0.32414 0.0
C247 C 0.15786 0.19819 0.3945 0.0
H248 H 0.22629 0.15366 0.29093 0.0
H249 H 0.14342 0.20591 0.2557 0.0
H250 H 0.19648 0.13623 0.37351 0.0
H251 H 0.16839 0.09811 0.35059 0.0
H252 H 0.21621 0.11557 0.33784 0.0
H253 H 0.08978 0.20666 0.28783 0.0
H254 H 0.07105 0.1659 0.30971 0.0
H255 H 0.09609 0.20408 0.33455 0.0
H256 H 0.05115 0.07526 0.38746 0.0
H257 H 0.11661 0.16438 0.44725 0.0
H258 H 0.10777 0.08087 0.31581 0.0
H259 H 0.0762 0.1064 0.30284 0.0
H260 H 0.05905 0.06676 0.32696 0.0
H261 H 0.18583 0.19344 0.38942 0.0
H262 H 0.1585 0.21158 0.42079 0.0
H263 H 0.15261 0.21631 0.3743 0.0
C264 C 0.31497 0.88147 0.82644 0.0
C265 C 0.33633 0.8845 0.79579 0.0
C266 C 0.33011 0.89854 0.85822 0.0
C267 C 0.36736 0.91954 0.85929 0.0
C268 C 0.38873 0.92334 0.82819 0.0
C269 C 0.37306 0.9056 0.79692 0.0
C270 C 0.30653 0.89347 0.89082 0.0
C271 C 0.42831 0.94593 0.828 0.0
C272 C 0.39855 0.98971 0.93244 0.0
C273 C 0.42022 0.97377 0.95388 0.0
C274 C 0.38069 0.97215 0.90193 0.0
C275 C 0.38412 0.93756 0.89286 0.0
C276 C 0.40488 0.92083 0.91515 0.0
C277 C 0.42293 0.93925 0.94529 0.0
C278 C 0.3592 0.99112 0.87878 0.0
C279 C 0.40878 0.88379 0.90673 0.0
H280 H 0.28675 0.86479 0.82582 0.0
H281 H 0.38959 0.90816 0.77325 0.0
H282 H 0.32013 0.88094 0.91111 0.0
H283 H 0.30423 0.9195 0.90198 0.0
H284 H 0.27794 0.87667 0.88553 0.0
H285 H 0.44079 0.94699 0.80144 0.0
H286 H 0.42894 0.97333 0.83744 0.0
H287 H 0.44603 0.93532 0.84623 0.0
H288 H 0.3965 0.01647 0.9389 0.0
H289 H 0.43963 0.92684 0.96182 0.0
H290 H 0.33026 0.97488 0.87439 0.0
H291 H 0.3726 0.99498 0.8527 0.0
H292 H 0.35795 0.0174 0.89021 0.0
H293 H 0.38081 0.86548 0.90254 0.0
H294 H 0.42364 0.87362 0.92791 0.0
H295 H 0.42447 0.88347 0.88198 0.0
C296 C 0.58925 0.51348 0.83624 0.0
C297 C 0.58037 0.47691 0.84086 0.0
C298 C 0.58734 0.52712 0.80281 0.0
C299 C 0.57524 0.50354 0.77362 0.0
C300 C 0.56745 0.46649 0.77811 0.0
C301 C 0.57044 0.45361 0.81173 0.0
C302 C 0.59662 0.56674 0.79904 0.0
C303 C 0.55377 0.44045 0.74785 0.0
C304 C 0.52402 0.53667 0.70046 0.0
C305 C 0.55068 0.54239 0.67379 0.0
C306 C 0.53166 0.52383 0.7329 0.0
C307 C 0.56726 0.51752 0.73926 0.0
C308 C 0.59467 0.52411 0.71273 0.0
C309 C 0.58584 0.53596 0.68005 0.0
C310 C 0.50125 0.51625 0.76005 0.0
C311 C 0.63317 0.51843 0.71881 0.0
H312 H 0.59676 0.53137 0.85896 0.0
H313 H 0.56316 0.42531 0.81558 0.0
H314 H 0.61574 0.57444 0.77668 0.0
H315 H 0.5707 0.57523 0.79335 0.0
H316 H 0.60987 0.58127 0.82322 0.0
H317 H 0.55157 0.41265 0.75513 0.0
H318 H 0.52582 0.44278 0.73902 0.0
H319 H 0.5728 0.4465 0.72521 0.0
H320 H 0.49658 0.54104 0.69555 0.0
H321 H 0.60648 0.54035 0.65944 0.0
H322 H 0.51058 0.53251 0.78437 0.0
H323 H 0.49539 0.48804 0.7671 0.0
H324 H 0.47482 0.52184 0.75064 0.0
H325 H 0.64613 0.53383 0.74262 0.0
H326 H 0.65186 0.52643 0.69617 0.0
H327 H 0.63114 0.4901 0.72353 0.0
C328 C 0.85576 0.68968 0.2022 0.0
C329 C 0.85284 0.68349 0.23834 0.0
C330 C 0.8789 0.67448 0.18072 0.0
C331 C 0.90047 0.65325 0.19582 0.0
C332 C 0.89968 0.64888 0.23258 0.0
C333 C 0.87562 0.66371 0.25334 0.0
C334 C 0.87868 0.67955 0.14159 0.0
C335 C 0.92291 0.62706 0.24981 0.0
C336 C 0.92346 0.57829 0.14116 0.0
C337 C 0.96047 0.59302 0.13173 0.0
C338 C 0.90341 0.59798 0.16128 0.0
C339 C 0.92113 0.63301 0.17291 0.0
C340 C 0.95848 0.64815 0.16314 0.0
C341 C 0.97762 0.62806 0.14226 0.0
C342 C 0.86333 0.58115 0.17035 0.0
C343 C 0.97852 0.68516 0.1755 0.0
H344 H 0.83908 0.70567 0.19041 0.0
H345 H 0.87351 0.65841 0.28108 0.0
H346 H 0.90761 0.68866 0.13186 0.0
H347 H 0.86597 0.65383 0.12784 0.0
H348 H 0.86262 0.69897 0.1343 0.0
H349 H 0.9227 0.62981 0.27892 0.0
H350 H 0.91185 0.5987 0.24207 0.0
H351 H 0.95226 0.635 0.24084 0.0
H352 H 0.91011 0.55128 0.13273 0.0
H353 H 0.00633 0.63942 0.13501 0.0
H354 H 0.84495 0.59811 0.16198 0.0
H355 H 0.86065 0.57877 0.19921 0.0
H356 H 0.85309 0.55439 0.1577 0.0
H357 H 0.96257 0.70439 0.16759 0.0
H358 H 0.0072 0.69339 0.16482 0.0
H359 H 0.98041 0.6866 0.20461 0.0
C360 C 0.32468 0.19176 0.17289 0.0
C361 C 0.28878 0.17272 0.18245 0.0
C362 C 0.35076 0.17462 0.15851 0.0
C363 C 0.34155 0.13724 0.15488 0.0
C364 C 0.30586 0.11763 0.16521 0.0
C365 C 0.27971 0.13559 0.17827 0.0
C366 C 0.38819 0.19663 0.14706 0.0
C367 C 0.29537 0.07767 0.16263 0.0
C368 C 0.39763 0.09604 0.08952 0.0
C369 C 0.42605 0.0898 0.11102 0.0
C370 C 0.36965 0.11106 0.1035 0.0
C371 C 0.36942 0.11894 0.14005 0.0
C372 C 0.39724 0.11132 0.16208 0.0
C373 C 0.42564 0.09743 0.1472 0.0
C374 C 0.34127 0.11984 0.07894 0.0
C375 C 0.3973 0.11829 0.20131 0.0
H376 H 0.3328 0.22027 0.17691 0.0
H377 H 0.25207 0.12041 0.18499 0.0
H378 H 0.41089 0.1906 0.16301 0.0
H379 H 0.39316 0.18996 0.11923 0.0
H380 H 0.39018 0.22551 0.14976 0.0
H381 H 0.26728 0.06625 0.1735 0.0
H382 H 0.29559 0.06844 0.1348 0.0
H383 H 0.31626 0.06712 0.17702 0.0
H384 H 0.3981 0.09044 0.06147 0.0
H385 H 0.44743 0.09231 0.1639 0.0
H386 H 0.34406 0.14887 0.0799 0.0
H387 H 0.31253 0.1071 0.08735 0.0
H388 H 0.34469 0.11117 0.05133 0.0
H389 H 0.40306 0.14719 0.2072 0.0
H390 H 0.41866 0.10777 0.21507 0.0
H391 H 0.36942 0.10605 0.21211 0.0
C392 C 0.18911 0.91921 0.65519 0.0
C393 C 0.16588 0.89184 0.67366 0.0
C394 C 0.17449 0.94473 0.63856 0.0
C395 C 0.13557 0.94241 0.63959 0.0
C396 C 0.1123 0.91596 0.65955 0.0
C397 C 0.12781 0.89152 0.67679 0.0
C398 C 0.20051 0.97328 0.61858 0.0
C399 C 0.07058 0.91213 0.66109 0.0
C400 C 0.09489 0.01821 0.61055 0.0
C401 C 0.08596 0.00847 0.57522 0.0
C402 C 0.11184 0.99745 0.6317 0.0
C403 C 0.11871 0.96558 0.61748 0.0
C404 C 0.10883 0.95533 0.58198 0.0
C405 C 0.09318 0.9772 0.56115 0.0
C406 C 0.12289 0.0099 0.66903 0.0
C407 C 0.11442 0.92101 0.56604 0.0
H408 H 0.21847 0.91991 0.65237 0.0
H409 H 0.10968 0.87134 0.6919 0.0
H410 H 0.19547 0.96804 0.58996 0.0
H411 H 0.19507 0.99951 0.62514 0.0
H412 H 0.23035 0.97457 0.62433 0.0
H413 H 0.05663 0.89135 0.67922 0.0
H414 H 0.06439 0.93754 0.66968 0.0
H415 H 0.05814 0.90515 0.63445 0.0
H416 H 0.08946 0.04251 0.6214 0.0
H417 H 0.08597 0.96952 0.53391 0.0
H418 H 0.15318 0.01213 0.67315 0.0
H419 H 0.10765 0.99028 0.68759 0.0
H420 H 0.11698 0.03595 0.67568 0.0
H421 H 0.14454 0.92133 0.56639 0.0
H422 H 0.10389 0.91621 0.53852 0.0
H423 H 0.09973 0.89849 0.58186 0.0
C424 C 0.73817 0.43473 1.00373 0.0
C425 C 0.72485 0.43305 0.96909 0.0
C426 C 0.77504 0.45249 0.01245 0.0
C427 C 0.79933 0.46855 0.98576 0.0
C428 C 0.78594 0.46719 0.95072 0.0
C429 C 0.74864 0.44966 0.94283 0.0
C430 C 0.78807 0.45385 0.05022 0.0
C431 C 0.81117 0.48366 0.92153 0.0
C432 C 0.88581 0.53813 0.01613 0.0
C433 C 0.91249 0.51804 0.01786 0.0
C434 C 0.84903 0.52257 1.0049 0.0
C435 C 0.83888 0.48619 0.9947 0.0
C436 C 0.86602 0.46607 0.99525 0.0
C437 C 0.90244 0.48218 0.0071 0.0
C438 C 0.82073 0.54475 1.00517 0.0
C439 C 0.85636 0.42731 0.98411 0.0
H440 H 0.71957 0.42225 0.0241 0.0
H441 H 0.7383 0.44818 0.91601 0.0
H442 H 0.81109 0.4403 0.05234 0.0
H443 H 0.79925 0.48177 0.05947 0.0
H444 H 0.76527 0.4411 0.06798 0.0
H445 H 0.7963 0.48074 0.89579 0.0
H446 H 0.823 0.51225 0.92769 0.0
H447 H 0.83501 0.47109 0.91917 0.0
H448 H 0.89332 0.56583 0.02457 0.0
H449 H 0.92303 0.46659 0.00806 0.0
H450 H 0.79871 0.53451 0.02457 0.0
H451 H 0.80679 0.5429 0.9791 0.0
H452 H 0.83357 0.57308 0.01199 0.0
H453 H 0.83589 0.41205 1.00257 0.0
H454 H 0.8813 0.41613 0.98352 0.0
H455 H 0.84305 0.42348 0.95764 0.0
C456 C 0.76461 0.6769 0.46728 0.0
C457 C 0.75448 0.69325 0.43791 0.0
C458 C 0.73758 0.66071 0.4914 0.0
C459 C 0.6999 0.66199 0.48641 0.0
C460 C 0.68971 0.67873 0.45678 0.0
C461 C 0.71711 0.69379 0.43265 0.0
C462 C 0.74923 0.64216 0.52205 0.0
C463 C 0.64996 0.6812 0.4508 0.0
C464 C 0.61669 0.59827 0.52493 0.0
C465 C 0.60746 0.61871 0.55289 0.0
C466 C 0.64844 0.61102 0.50469 0.0
C467 C 0.67073 0.64565 0.51176 0.0
C468 C 0.66244 0.6659 0.54089 0.0
C469 C 0.63108 0.65195 0.56146 0.0
C470 C 0.65682 0.58813 0.47451 0.0
C471 C 0.68514 0.70319 0.5489 0.0
H472 H 0.79365 0.67661 0.47119 0.0
H473 H 0.70954 0.70691 0.41009 0.0
H474 H 0.7431 0.6548 0.54711 0.0
H475 H 0.7329 0.61415 0.52173 0.0
H476 H 0.77947 0.64273 0.52163 0.0
H477 H 0.647 0.69629 0.42718 0.0
H478 H 0.63122 0.65427 0.44754 0.0
H479 H 0.64022 0.69428 0.474 0.0
H480 H 0.59827 0.57279 0.51792 0.0
H481 H 0.62388 0.6679 0.58294 0.0
H482 H 0.68705 0.58884 0.47397 0.0
H483 H 0.64959 0.59844 0.44933 0.0
H484 H 0.64067 0.56014 0.4761 0.0
H485 H 0.71538 0.70407 0.54985 0.0
H486 H 0.67722 0.71417 0.57423 0.0
H487 H 0.68079 0.72057 0.5276 0.0
C488 C 0.15168 0.33437 0.17071 0.0
C489 C 0.18872 0.34685 0.15966 0.0
C490 C 0.12332 0.35006 0.15953 0.0
C491 C 0.13237 0.37948 0.13757 0.0
C492 C 0.1693 0.39126 0.12523 0.0
C493 C 0.19676 0.37445 0.13592 0.0
C494 C 0.08397 0.33599 0.17227 0.0
C495 C 0.18032 0.42279 0.10206 0.0
C496 C 0.06225 0.418 0.08892 0.0
C497 C 0.06021 0.44656 0.11152 0.0
C498 C 0.0837 0.39433 0.09806 0.0
C499 C 0.10446 0.40019 0.12999 0.0
C500 C 0.10138 0.42836 0.15336 0.0
C501 C 0.07885 0.45089 0.14404 0.0
C502 C 0.08534 0.364 0.07292 0.0
C503 C 0.12372 0.43613 0.18725 0.0
H504 H 0.14498 0.31316 0.18905 0.0
H505 H 0.2249 0.38356 0.12616 0.0
H506 H 0.07701 0.35507 0.1918 0.0
H507 H 0.06368 0.33296 0.15015 0.0
H508 H 0.08037 0.31004 0.18477 0.0
H509 H 0.21003 0.42806 0.09404 0.0
H510 H 0.1625 0.41851 0.07806 0.0
H511 H 0.1759 0.44675 0.11625 0.0
H512 H 0.04775 0.41462 0.06376 0.0
H513 H 0.07749 0.47311 0.16146 0.0
H514 H 0.08284 0.33924 0.08728 0.0
H515 H 0.11269 0.36982 0.05953 0.0
H516 H 0.06291 0.35948 0.05254 0.0
H517 H 0.11857 0.4122 0.20323 0.0
H518 H 0.11688 0.45803 0.20322 0.0
H519 H 0.154 0.44355 0.18129 0.0
C520 C 0.58736 0.31217 0.99446 0.0
C521 C 0.6222 0.32319 0.97833 0.0
C522 C 0.57388 0.27702 1.00443 0.0
C523 C 0.59577 0.25229 0.99815 0.0
C524 C 0.63148 0.26352 0.98299 0.0
C525 C 0.64422 0.29878 0.97317 0.0
C526 C 0.53563 0.26605 0.02053 0.0
C527 C 0.65562 0.23794 0.97579 0.0
C528 C 0.56751 0.16299 0.04139 0.0
C529 C 0.54667 0.14186 0.01434 0.0
C530 C 0.58415 0.19904 0.03654 0.0
C531 C 0.57964 0.21403 1.0039 0.0
C532 C 0.55902 0.19251 0.97642 0.0
C533 C 0.54282 0.15675 0.98201 0.0
C534 C 0.60605 0.22117 0.06639 0.0
C535 C 0.55358 0.20736 0.94119 0.0
H536 H 0.57051 0.33103 0.99914 0.0
H537 H 0.67103 0.30699 0.96046 0.0
H538 H 0.51646 0.2472 1.00229 0.0
H539 H 0.53708 0.25217 0.04525 0.0
H540 H 0.52345 0.28899 0.02629 0.0
H541 H 0.68409 0.25155 0.96718 0.0
H542 H 0.65815 0.22308 0.99963 0.0
H543 H 0.64237 0.21829 0.95492 0.0
H544 H 0.57028 0.15151 0.06642 0.0
H545 H 0.5267 0.14043 0.961 0.0
H546 H 0.59254 0.24265 0.07441 0.0
H547 H 0.63469 0.23396 0.05772 0.0
H548 H 0.60806 0.20525 0.08965 0.0
H549 H 0.53872 0.22877 0.94461 0.0
H550 H 0.53728 0.18687 0.92241 0.0
H551 H 0.58108 0.21918 0.92946 0.0
C552 C 0.84376 0.82 0.43413 0.0
C553 C 0.85972 0.79605 0.41522 0.0
C554 C 0.86583 0.85202 0.44808 0.0
C555 C 0.90497 0.86022 0.44327 0.0
C556 C 0.92126 0.83643 0.42363 0.0
C557 C 0.89831 0.80461 0.40953 0.0
C558 C 0.84726 0.87685 0.46839 0.0
C559 C 0.96292 0.84421 0.41823 0.0
C560 C 0.95407 0.95719 0.4588 0.0
C561 C 0.96508 0.95795 0.49416 0.0
C562 C 0.93572 0.92531 0.44141 0.0
C563 C 0.92854 0.89339 0.45973 0.0
C564 C 0.94089 0.89378 0.495 0.0
C565 C 0.95882 0.92607 0.51185 0.0
C566 C 0.92263 0.92602 0.40391 0.0
C567 C 0.93408 0.86023 0.51532 0.0
H568 H 0.81379 0.81357 0.43804 0.0
H569 H 0.91058 0.78603 0.39491 0.0
H570 H 0.85763 0.88014 0.49596 0.0
H571 H 0.85448 0.90341 0.45687 0.0
H572 H 0.81634 0.86711 0.46854 0.0
H573 H 0.97106 0.8236 0.40133 0.0
H574 H 0.97295 0.87024 0.40606 0.0
H575 H 0.97744 0.84587 0.44401 0.0
H576 H 0.95881 0.98168 0.44489 0.0
H577 H 0.96767 0.92633 0.53904 0.0
H578 H 0.89163 0.91908 0.40286 0.0
H579 H 0.93203 0.906 0.3873 0.0
H580 H 0.93306 0.95242 0.39248 0.0
H581 H 0.90365 0.85 0.51947 0.0
H582 H 0.94842 0.86451 0.54136 0.0
H583 H 0.94386 0.83946 0.50018 0.0
C584 C 0.37008 0.77862 0.72222 0.0
C585 C 0.34804 0.79481 0.7013 0.0
C586 C 0.38903 0.75444 0.7076 0.0
C587 C 0.38531 0.74546 0.67122 0.0
C588 C 0.36321 0.76163 0.6499 0.0
C589 C 0.34523 0.78633 0.66507 0.0
C590 C 0.41281 0.73827 0.7312 0.0
C591 C 0.35818 0.75253 0.61106 0.0
C592 C 0.45818 0.7049 0.6268 0.0
C593 C 0.44085 0.66863 0.62695 0.0
C594 C 0.44054 0.73017 0.64128 0.0
C595 C 0.40434 0.71894 0.65556 0.0
C596 C 0.38648 0.6823 0.65521 0.0
C597 C 0.40514 0.65756 0.64126 0.0
C598 C 0.4609 0.76885 0.64178 0.0
C599 C 0.34764 0.66923 0.66954 0.0
H600 H 0.37202 0.78424 0.7503 0.0
H601 H 0.32892 0.79901 0.64842 0.0
H602 H 0.40123 0.7092 0.73167 0.0
H603 H 0.44159 0.74285 0.72082 0.0
H604 H 0.41434 0.74933 0.75857 0.0
H605 H 0.3396 0.76699 0.59819 0.0
H606 H 0.38567 0.75896 0.59793 0.0
H607 H 0.34611 0.72366 0.60686 0.0
H608 H 0.4859 0.71353 0.61592 0.0
H609 H 0.39164 0.62952 0.64129 0.0
H610 H 0.46411 0.77968 0.66924 0.0
H611 H 0.44441 0.78414 0.62726 0.0
H612 H 0.48904 0.77321 0.62989 0.0
H613 H 0.34745 0.67671 0.69787 0.0
H614 H 0.33718 0.64003 0.66629 0.0
H615 H 0.32798 0.68198 0.65599 0.0
C616 C 0.93902 0.92702 0.83796 0.0
C617 C 0.90157 0.90768 0.83844 0.0
C618 C 0.95442 0.94435 0.80769 0.0
C619 C 0.93189 0.9421 0.77712 0.0
C620 C 0.89414 0.92248 0.77743 0.0
C621 C 0.87946 0.90558 0.80805 0.0
C622 C 0.9947 0.96522 0.80846 0.0
C623 C 0.86923 0.91924 0.74534 0.0
C624 C 0.95528 0.01188 0.70796 0.0
C625 C 0.97068 0.9943 0.68142 0.0
C626 C 0.94362 0.9956 0.73968 0.0
C627 C 0.94734 0.96081 0.74493 0.0
C628 C 0.96391 0.94332 0.71856 0.0
C629 C 0.97543 0.96032 0.68708 0.0
C630 C 0.92636 0.01526 0.7672 0.0
C631 C 0.96844 0.90628 0.72314 0.0
H632 H 0.95619 0.92888 0.86141 0.0
H633 H 0.85073 0.89011 0.80798 0.0
H634 H 0.01046 0.95502 0.78747 0.0
H635 H 0.9963 0.99337 0.80317 0.0
H636 H 0.00862 0.96395 0.83411 0.0
H637 H 0.84064 0.90266 0.74976 0.0
H638 H 0.86704 0.94589 0.73771 0.0
H639 H 0.88159 0.90742 0.72289 0.0
H640 H 0.95174 0.03824 0.70371 0.0
H641 H 0.98751 0.94674 0.66664 0.0
H642 H 0.94084 0.01584 0.79285 0.0
H643 H 0.89666 1.00127 0.77079 0.0
H644 H 0.92762 0.04291 0.76001 0.0
H645 H 0.98345 0.90492 0.74813 0.0
H646 H 0.984 0.89727 0.70119 0.0
H647 H 0.94052 0.88759 0.72465 0.0
C648 C 0.66892 0.18196 0.33859 0.0
C649 C 0.70788 0.18703 0.34204 0.0
C650 C 0.65051 0.17247 0.30609 0.0
C651 C 0.67111 0.16646 0.27623 0.0
C652 C 0.7104 0.17196 0.27918 0.0
C653 C 0.72833 0.18266 0.31184 0.0
C654 C 0.60866 0.16755 0.30408 0.0
C655 C 0.73334 0.1651 0.24819 0.0
C656 C 0.61494 0.09976 0.20936 0.0
C657 C 0.60813 0.12147 0.18279 0.0
C658 C 0.6366 0.11403 0.23911 0.0
C659 C 0.65095 0.15115 0.24304 0.0
C660 C 0.64431 0.17328 0.21616 0.0
C661 C 0.62339 0.15809 0.18602 0.0
C662 C 0.64368 0.08931 0.26659 0.0
C663 C 0.65823 0.21302 0.21978 0.0
H664 H 0.6523 0.18425 0.3615 0.0
H665 H 0.75842 0.1871 0.31369 0.0
H666 H 0.60097 0.18144 0.28131 0.0
H667 H 0.59483 0.13901 0.30016 0.0
H668 H 0.59745 0.17762 0.3283 0.0
H669 H 0.7638 0.17257 0.25415 0.0
H670 H 0.72513 0.13654 0.24031 0.0
H671 H 0.72782 0.18002 0.22534 0.0
H672 H 0.60347 0.07137 0.20676 0.0
H673 H 0.61802 0.1749 0.16553 0.0
H674 H 0.62982 0.09413 0.29142 0.0
H675 H 0.67407 0.09442 0.27232 0.0
H676 H 0.63309 0.061 0.25827 0.0
H677 H 0.64485 0.22302 0.24269 0.0
H678 H 0.65208 0.22643 0.196 0.0
H679 H 0.68881 0.22049 0.2248 0.0
C680 C 0.49526 0.64801 0.3173 0.0
C681 C 0.46279 0.63975 0.2963 0.0
C682 C 0.49513 0.63591 0.35155 0.0
C683 C 0.46172 0.6148 0.36522 0.0
C684 C 0.42866 0.6067 0.34436 0.0
C685 C 0.42954 0.61945 0.31016 0.0
C686 C 0.5309 0.64557 0.37304 0.0
C687 C 0.39259 0.58412 0.35797 0.0
C688 C 0.47805 0.55911 0.44088 0.0
C689 C 0.47305 0.58027 0.47013 0.0
C690 C 0.47248 0.56908 0.40655 0.0
C691 C 0.46193 0.60112 0.40128 0.0
C692 C 0.45508 0.62171 0.43069 0.0
C693 C 0.46057 0.61099 0.46472 0.0
C694 C 0.47967 0.54616 0.3759 0.0
C695 C 0.44394 0.65611 0.42624 0.0
H696 H 0.52089 0.66418 0.30691 0.0
H697 H 0.40444 0.61285 0.29395 0.0
H698 H 0.52646 0.65951 0.39793 0.0
H699 H 0.53929 0.6212 0.38008 0.0
H700 H 0.55427 0.66283 0.3588 0.0
H701 H 0.36913 0.58095 0.33882 0.0
H702 H 0.39628 0.5575 0.36391 0.0
H703 H 0.38489 0.59603 0.38284 0.0
H704 H 0.48739 0.5352 0.44467 0.0
H705 H 0.45652 0.62758 0.48704 0.0
H706 H 0.50507 0.56018 0.36197 0.0
H707 H 0.45603 0.5411 0.35682 0.0
H708 H 0.48379 0.52035 0.3843 0.0
H709 H 0.46761 0.67586 0.41508 0.0
H710 H 0.43607 0.6672 0.45153 0.0
H711 H 0.42007 0.65227 0.40754 0.0
C712 C 0.17343 0.43532 0.91744 0.0
C713 C 0.16035 0.42645 0.88284 0.0
C714 C 0.15924 0.45898 0.93871 0.0
C715 C 0.13159 0.47449 0.92496 0.0
C716 C 0.11927 0.46673 0.8897 0.0
C717 C 0.13367 0.4427 0.86912 0.0
C718 C 0.17297 0.46649 0.97624 0.0
C719 C 0.08995 0.48291 0.87403 0.0
C720 C 0.06412 0.50434 0.98697 0.0
C721 C 0.07904 0.54104 0.9893 0.0
C722 C 0.08147 0.48231 0.96678 0.0
C723 C 0.11415 0.49747 0.94791 0.0
C724 C 0.12945 0.53455 0.95031 0.0
C725 C 0.11177 0.5559 0.97115 0.0
C726 C 0.06451 0.44286 0.96528 0.0
C727 C 0.16412 0.55168 0.93042 0.0
H728 H 0.19449 0.42336 0.92809 0.0
H729 H 0.12297 0.4357 0.84264 0.0
H730 H 0.18303 0.49545 0.9815 0.0
H731 H 0.14959 0.45666 0.99442 0.0
H732 H 0.19595 0.45374 0.98238 0.0
H733 H 0.08525 0.47605 0.84556 0.0
H734 H 0.0631 0.47346 0.88781 0.0
H735 H 0.09829 0.51216 0.87765 0.0
H736 H 0.03851 0.49284 1.00054 0.0
H737 H 0.12332 0.58431 0.97287 0.0
H738 H 0.08565 0.42855 0.97304 0.0
H739 H 0.05546 0.43394 0.93798 0.0
H740 H 0.04003 0.43517 0.98276 0.0
H741 H 0.18747 0.53986 0.93758 0.0
H742 H 0.17297 0.58075 0.93574 0.0
H743 H 0.15892 0.54663 0.90179 0.0
C744 C 0.73171 0.94795 0.94001 0.0
C745 C 0.72673 0.9154 0.95626 0.0
C746 C 0.71275 0.97323 0.9521 0.0
C747 C 0.6884 0.96564 0.98105 0.0
C748 C 0.68544 0.93383 0.99894 0.0
C749 C 0.70464 0.90917 0.98634 0.0
C750 C 0.71698 0.00701 0.93259 0.0
C751 C 0.66006 0.92473 0.03007 0.0
C752 C 0.6437 0.03161 0.02918 0.0
C753 C 0.60734 0.02212 0.01491 0.0
C754 C 0.67135 0.01502 0.01698 0.0
C755 C 0.66231 0.98825 0.99007 0.0
C756 C 0.62634 0.9801 0.97424 0.0
C757 C 0.59942 0.99716 0.98675 0.0
C758 C 0.70954 0.02478 0.0342 0.0
C759 C 0.61547 0.95175 0.94543 0.0
H760 H 0.74884 0.95287 0.91678 0.0
H761 H 0.70136 0.8843 0.99937 0.0
H762 H 0.69132 0.00554 0.91678 0.0
H763 H 0.72046 0.03009 0.95126 0.0
H764 H 0.74121 0.01159 0.91462 0.0
H765 H 0.6636 0.90061 0.043 0.0
H766 H 0.66555 0.94704 0.04979 0.0
H767 H 0.6305 0.92013 0.02132 0.0
H768 H 0.65024 0.05099 0.0508 0.0
H769 H 0.57161 0.98987 0.97516 0.0
H770 H 0.73174 0.02775 0.01417 0.0
H771 H 0.71256 0.00327 0.05148 0.0
H772 H 0.71409 0.04976 0.05038 0.0
H773 H 0.63632 0.95645 0.92413 0.0
H774 H 0.58748 0.95063 0.93394 0.0
H775 H 0.61503 0.92552 0.95614 0.0
C776 C 0.80336 0.13519 0.42137 0.0
C777 C 0.80397 0.17039 0.43121 0.0
C778 C 0.8297 0.11833 0.43517 0.0
C779 C 0.85725 0.137 0.45952 0.0
C780 C 0.85924 0.1731 0.468 0.0
C781 C 0.83271 0.18931 0.45372 0.0
C782 C 0.82665 0.07991 0.42522 0.0
C783 C 0.88809 0.1941 0.49376 0.0
C784 C 0.89028 0.08562 0.53103 0.0
C785 C 0.9261 0.0845 0.51981 0.0
C786 C 0.86758 0.10211 0.51136 0.0
C787 C 0.88087 0.11788 0.4794 0.0
C788 C 0.91686 0.1163 0.46754 0.0
C789 C 0.93915 0.09969 0.48798 0.0
C790 C 0.82955 0.10321 0.52519 0.0
C791 C 0.93198 0.13255 0.43356 0.0
H792 H 0.78118 0.1202 0.40424 0.0
H793 H 0.83384 0.21668 0.46101 0.0
H794 H 0.85449 0.07569 0.41844 0.0
H795 H 0.81628 0.06337 0.44794 0.0
H796 H 0.80723 0.07056 0.40263 0.0
H797 H 0.8884 0.2227 0.49486 0.0
H798 H 0.88205 0.18364 0.5204 0.0
H799 H 0.91638 0.1913 0.48668 0.0
H800 H 0.88003 0.0739 0.55562 0.0
H801 H 0.96684 0.09887 0.47922 0.0
H802 H 0.80758 0.09109 0.50545 0.0
H803 H 0.82818 0.13112 0.52991 0.0
H804 H 0.82303 0.08905 0.55009 0.0
H805 H 0.91212 0.1218 0.41167 0.0
H806 H 0.9596 0.12752 0.42709 0.0
H807 H 0.93496 0.16158 0.43537 0.0
C808 C 0.28218 0.69746 0.19083 0.0
C809 C 0.31123 0.685 0.1757 0.0
C810 C 0.245 0.68335 0.1799 0.0
C811 C 0.23712 0.65709 0.15244 0.0
C812 C 0.26645 0.64401 0.1376 0.0
C813 C 0.30318 0.65787 0.14976 0.0
C814 C 0.21433 0.69719 0.19703 0.0
C815 C 0.2593 0.61656 0.10779 0.0
C816 C 0.13958 0.5995 0.13501 0.0
C817 C 0.12714 0.61712 0.10769 0.0
C818 C 0.17479 0.61295 0.15077 0.0
C819 C 0.1985 0.6442 0.13814 0.0
C820 C 0.18593 0.66227 0.11072 0.0
C821 C 0.15008 0.64875 0.09614 0.0
C822 C 0.18676 0.59351 0.1806 0.0
C823 C 0.2108 0.69523 0.09601 0.0
H824 H 0.2887 0.71867 0.21075 0.0
H825 H 0.32592 0.6488 0.13774 0.0
H826 H 0.20205 0.712 0.17781 0.0
H827 H 0.19156 0.67485 0.20554 0.0
H828 H 0.22467 0.71507 0.22017 0.0
H829 H 0.28511 0.60875 0.09963 0.0
H830 H 0.23829 0.59253 0.11552 0.0
H831 H 0.24767 0.62715 0.08478 0.0
H832 H 0.12162 0.57519 0.14423 0.0
H833 H 0.1405 0.66224 0.07487 0.0
H834 H 0.196 0.61197 0.20351 0.0
H835 H 0.21092 0.583 0.17251 0.0
H836 H 0.16396 0.57108 0.18898 0.0
H837 H 0.21971 0.71586 0.11717 0.0
H838 H 0.19669 0.70627 0.07489 0.0
H839 H 0.23646 0.68907 0.08518 0.0
C840 C 0.2788 0.40815 0.67239 0.0
C841 C 0.26073 0.42201 0.69984 0.0
C842 C 0.31134 0.42834 0.65745 0.0
C843 C 0.32722 0.46306 0.67094 0.0
C844 C 0.30948 0.47736 0.69874 0.0
C845 C 0.27622 0.45677 0.71268 0.0
C846 C 0.32914 0.41209 0.62761 0.0
C847 C 0.32607 0.51403 0.71424 0.0
C848 C 0.42995 0.48817 0.64995 0.0
C849 C 0.42999 0.50704 0.61934 0.0
C850 C 0.39715 0.47666 0.66913 0.0
C851 C 0.36337 0.48316 0.65661 0.0
C852 C 0.36384 0.50419 0.62689 0.0
C853 C 0.39742 0.51634 0.60881 0.0
C854 C 0.39826 0.45542 0.70136 0.0
C855 C 0.32841 0.51138 0.61244 0.0
H856 H 0.26804 0.38103 0.66289 0.0
H857 H 0.26246 0.46789 0.7337 0.0
H858 H 0.33393 0.4299 0.60507 0.0
H859 H 0.35674 0.40866 0.63619 0.0
H860 H 0.3117 0.38586 0.6184 0.0
H861 H 0.30807 0.52189 0.73477 0.0
H862 H 0.35384 0.51507 0.72608 0.0
H863 H 0.33051 0.53375 0.69337 0.0
H864 H 0.45543 0.48158 0.65841 0.0
H865 H 0.39762 0.53113 0.58518 0.0
H866 H 0.38594 0.42696 0.69489 0.0
H867 H 0.38149 0.46361 0.72273 0.0
H868 H 0.42728 0.4584 0.7112 0.0
H869 H 0.31128 0.48678 0.59947 0.0
H870 H 0.33426 0.53247 0.59286 0.0
H871 H 0.31147 0.51925 0.63382 0.0
C872 C 0.94669 0.83266 0.9416 0.0
C873 C 0.90876 0.82175 0.93203 0.0
C874 C 0.96491 0.80921 0.95728 0.0
C875 C 0.94473 0.77406 0.96332 0.0
C876 C 0.90648 0.76295 0.95366 0.0
C877 C 0.88904 0.78687 0.9381 0.0
C878 C 0.00572 0.82197 0.96725 0.0
C879 C 0.88401 0.72562 0.95936 0.0
C880 C 0.99337 0.69933 0.97034 0.0
C881 C 0.9917 0.69362 0.00648 0.0
C882 C 0.97952 0.72638 0.95612 0.0
C883 C 0.9636 0.74824 0.97861 0.0
C884 C 0.96305 0.74337 0.01533 0.0
C885 C 0.97713 0.71604 0.02885 0.0
C886 C 0.98056 0.73062 0.91685 0.0
C887 C 0.94634 0.76615 0.04015 0.0
H888 H 0.96199 0.85964 0.93716 0.0
H889 H 0.85992 0.77803 0.93015 0.0
H890 H 0.00962 0.81844 0.99567 0.0
H891 H 0.02215 0.8059 0.95273 0.0
H892 H 0.01722 0.85029 0.96148 0.0
H893 H 0.85429 0.72147 0.95117 0.0
H894 H 0.89629 0.7065 0.94424 0.0
H895 H 0.88501 0.71942 0.9875 0.0
H896 H 1.00473 0.68207 0.95299 0.0
H897 H 0.97586 0.71166 0.05682 0.0
H898 H 0.99357 0.75851 0.91063 0.0
H899 H 0.95164 0.72405 0.90604 0.0
H900 H 0.99633 0.71325 0.90332 0.0
H901 H 0.95868 0.79459 0.03572 0.0
H902 H 0.95078 0.76088 0.06812 0.0
H903 H 0.91585 0.76104 0.035 0.0
C904 C 0.43987 0.79413 0.13051 0.0
C905 C 0.41606 0.78969 0.15941 0.0
C906 C 0.45326 0.82761 0.11641 0.0
C907 C 0.44337 0.85738 0.13229 0.0
C908 C 0.41884 0.85282 0.16123 0.0
C909 C 0.40506 0.81886 0.17417 0.0
C910 C 0.47865 0.83126 0.08505 0.0
C911 C 0.4084 0.88399 0.17945 0.0
C912 C 0.51387 0.94558 0.12627 0.0
C913 C 0.49653 0.96326 0.10242 0.0
C914 C 0.49671 0.91124 0.1362 0.0
C915 C 0.46178 0.89361 0.12109 0.0
C916 C 0.4446 0.91086 0.09606 0.0
C917 C 0.46197 0.94583 0.08739 0.0
C918 C 0.51564 0.89415 0.16352 0.0
C919 C 0.40787 0.89248 0.07868 0.0
H920 H 0.44782 0.7713 0.11887 0.0
H921 H 0.38649 0.81518 0.19648 0.0
H922 H 0.46872 0.84646 0.06454 0.0
H923 H 0.50725 0.84621 0.093 0.0
H924 H 0.48024 0.80514 0.07344 0.0
H925 H 0.38756 0.87573 0.20043 0.0
H926 H 0.43377 0.90205 0.19138 0.0
H927 H 0.39681 0.89931 0.16022 0.0
H928 H 0.54055 0.95901 0.1381 0.0
H929 H 0.4486 0.9595 0.06891 0.0
H930 H 0.52135 0.86935 0.15245 0.0
H931 H 0.49692 0.88696 0.18626 0.0
H932 H 0.54244 0.9118 0.17319 0.0
H933 H 0.40959 0.86649 0.06693 0.0
H934 H 0.3997 0.90847 0.05782 0.0
H935 H 0.3855 0.88723 0.09858 0.0
C936 C 0.16909 0.29944 0.66445 0.0
C937 C 0.15041 0.3186 0.68672 0.0
C938 C 0.14953 0.26896 0.64568 0.0
C939 C 0.11026 0.25757 0.64892 0.0
C940 C 0.09104 0.27758 0.67031 0.0
C941 C 0.11144 0.30773 0.68928 0.0
C942 C 0.17115 0.24807 0.6236 0.0
C943 C 0.04912 0.26658 0.67394 0.0
C944 C 0.06079 0.18847 0.58053 0.0
C945 C 0.05691 0.1571 0.59874 0.0
C946 C 0.07686 0.22159 0.59692 0.0
C947 C 0.08993 0.22324 0.63207 0.0
C948 C 0.08556 0.1917 0.65069 0.0
C949 C 0.06886 0.15908 0.6339 0.0
C950 C 0.0805 0.25473 0.57644 0.0
C951 C 0.09963 0.19227 0.68805 0.0
H952 H 0.19929 0.30751 0.66281 0.0
H953 H 0.09698 0.32267 0.70634 0.0
H954 H 0.16828 0.22158 0.63468 0.0
H955 H 0.15964 0.24383 0.59644 0.0
H956 H 0.20135 0.2615 0.62244 0.0
H957 H 0.0381 0.28679 0.68879 0.0
H958 H 0.03546 0.26188 0.64763 0.0
H959 H 0.04111 0.24131 0.68782 0.0
H960 H 0.05134 0.18717 0.55345 0.0
H961 H 0.06614 0.13498 0.64814 0.0
H962 H 0.11046 0.26746 0.5724 0.0
H963 H 0.06843 0.27407 0.59146 0.0
H964 H 0.06633 0.24918 0.55036 0.0
H965 H 0.13036 0.20317 0.68902 0.0
H966 H 0.09311 0.16548 0.69916 0.0
H967 H 0.08705 0.20982 0.70504 0.0
C968 C 0.66197 0.32925 0.52335 0.0
C969 C 0.66241 0.30955 0.49184 0.0
C970 C 0.64658 0.35877 0.52488 0.0
C971 C 0.63228 0.36988 0.49389 0.0
C972 C 0.63493 0.35171 0.4615 0.0
C973 C 0.64962 0.32152 0.46088 0.0
C974 C 0.64415 0.37709 0.56009 0.0
C975 C 0.62109 0.36339 0.4277 0.0
C976 C 0.55583 0.41819 0.51038 0.0
C977 C 0.57636 0.45354 0.51286 0.0
C978 C 0.57345 0.39074 0.50267 0.0
C979 C 0.6124 0.39895 0.49633 0.0
C980 C 0.63275 0.43488 0.49644 0.0
C981 C 0.61459 0.46175 0.50529 0.0
C982 C 0.55078 0.35285 0.50357 0.0
C983 C 0.674 0.4449 0.4887 0.0
H984 H 0.67289 0.32105 0.54725 0.0
H985 H 0.64978 0.30663 0.43637 0.0
H986 H 0.6583 0.40562 0.55913 0.0
H987 H 0.61442 0.37516 0.56651 0.0
H988 H 0.65701 0.36544 0.58164 0.0
H989 H 0.62996 0.34986 0.40431 0.0
H990 H 0.59012 0.35736 0.42769 0.0
H991 H 0.63152 0.39244 0.42535 0.0
H992 H 0.52627 0.41178 0.51632 0.0
H993 H 0.63046 0.48914 0.50689 0.0
H994 H 0.5605 0.33963 0.52584 0.0
H995 H 0.55484 0.33801 0.47915 0.0
H996 H 0.52044 0.35095 0.50666 0.0
H997 H 0.68987 0.43824 0.51118 0.0
H998 H 0.68428 0.47365 0.48415 0.0
H999 H 0.68014 0.4297 0.46525 0.0
loop_
_geom_bond_atom_site_label_1
_geom_bond_atom_site_label_2
_geom_bond_distance
_geom_bond_site_symmetry_2
_ccdc_geom_bond_type
H0 C1 0.949 . S
C1 H0 0.949 . S
C1 C2 1.395 . S
C1 C3 1.391 . S
C2 C1 1.395 . S
C2 C5 1.390 . S
C3 C1 1.391 . S
C3 C7 1.387 . S
C3 C8 1.491 . S
H4 C5 0.950 . S
C5 C2 1.390 . S
C5 H4 0.950 . S
C5 C6 1.378 . S
C6 C5 1.378 . S
C6 C7 1.409 . S
C7 C3 1.387 . S
C7 C6 1.409 . S
C7 H9 0.951 . S
C8 C3 1.491 . S
C8 C10 1.382 . S
C8 C12 1.404 . S
H9 C7 0.951 . S
C10 C8 1.382 . S
C10 C11 1.390 . S
C10 H15 0.949 . S
C11 C10 1.390 . S
C11 C16 1.399 . S
C12 C8 1.404 . S
C12 H13 0.950 . S
C12 C14 1.375 . S
H13 C12 0.950 . S
C14 C12 1.375 . S
C14 C16 1.382 . S
C14 H18 0.950 . S
H15 C10 0.949 . S
C16 C11 1.399 . S
C16 C14 1.382 . S
C16 H17 0.952 . S
H17 C16 0.952 . S
H18 C14 0.950 . S
H19 C20 0.949 . S
C20 H19 0.949 . S
C20 C21 1.395 . S
C20 C22 1.391 . S
C21 C20 1.395 . S
C21 C24 1.390 . S
C22 C20 1.391 . S
C22 C26 1.387 . S
C22 C27 1.491 . S
H23 C24 0.950 . S
C24 C21 1.390 . S
C24 H23 0.950 . S
C24 C25 1.378 . S
C25 C24 1.378 . S
C25 C26 1.409 . S
C26 C22 1.387 . S
C26 C25 1.409 . S
C26 H28 0.951 . S
C27 C22 1.491 . S
C27 C29 1.382 . S
C27 C31 1.404 . S
H28 C26 0.951 . S
C29 C27 1.382 . S
C29 C30 1.390 . S
C29 H34 0.949 . S
C30 C29 1.390 . S
C30 C35 1.399 . S
C31 C27 1.404 . S
C31 H32 0.950 . S
C31 C33 1.375 . S
H32 C31 0.950 . S
C33 C31 1.375 . S
C33 C35 1.382 . S
C33 H37 0.950 . S
H34 C29 0.949 . S
C35 C30 1.399 . S
C35 C33 1.382 . S
C35 H36 0.952 . S
H36 C35 0.952 . S
H37 C33 0.950 . S
H38 C39 0.949 . S
C39 H38 0.949 . S
C39 C40 1.395 . S
C39 C41 1.391 . S
C40 C39 1.395 . S
C40 C43 1.390 . S
C41 C39 1.391 . S
C41 C45 1.387 . S
C41 C46 1.491 . S
H42 C43 0.950 . S
C43 C40 1.390 . S
C43 H42 0.950 . S
C43 C44 1.378 . S
C44 C43 1.378 . S
C44 C45 1.409 . S
C45 C41 1.387 . S
C45 C44 1.409 . S
C45 H47 0.951 . S
C46 C41 1.491 . S
C46 C48 1.382 . S
C46 C50 1.404 . S
H47 C45 0.951 . S
C48 C46 1.382 . S
C48 C49 1.390 . S
C48 H53 0.949 . S
C49 C48 1.390 . S
C49 C54 1.399 . S
C50 C46 1.404 . S
C50 H51 0.950 . S
C50 C52 1.375 . S
H51 C50 0.950 . S
C52 C50 1.375 . S
C52 C54 1.382 . S
C52 H56 0.950 . S
H53 C48 0.949 . S
C54 C49 1.399 . S
C54 C52 1.382 . S
C54 H55 0.952 . S
H55 C54 0.952 . S
H56 C52 0.950 . S
H57 C58 0.949 . S
C58 H57 0.949 . S
C58 C59 1.395 . S
C58 C60 1.391 . S
C59 C58 1.395 . S
C59 C62 1.390 . S
C60 C58 1.391 . S
C60 C64 1.387 . S
C60 C65 1.491 . S
H61 C62 0.950 . S
C62 C59 1.390 . S
C62 H61 0.950 . S
C62 C63 1.378 . S
C63 C62 1.378 . S
C63 C64 1.409 . S
C64 C60 1.387 . S
C64 C63 1.409 . S
C64 H66 0.951 . S
C65 C60 1.491 . S
C65 C67 1.382 . S
C65 C69 1.404 . S
H66 C64 0.951 . S
C67 C65 1.382 . S
C67 C68 1.390 . S
C67 H72 0.949 . S
C68 C67 1.390 . S
C68 C73 1.399 . S
C69 C65 1.404 . S
C69 H70 0.950 . S
C69 C71 1.375 . S
H70 C69 0.950 . S
C71 C69 1.375 . S
C71 C73 1.382 . S
C71 H75 0.950 . S
H72 C67 0.949 . S
C73 C68 1.399 . S
C73 C71 1.382 . S
C73 H74 0.952 . S
H74 C73 0.952 . S
H75 C71 0.950 . S
H76 C77 0.949 . S
C77 H76 0.949 . S
C77 C78 1.395 . S
C77 C79 1.391 . S
C78 C77 1.395 . S
C78 C81 1.390 . S
C79 C77 1.391 . S
C79 C83 1.387 . S
C79 C84 1.491 . S
H80 C81 0.950 . S
C81 C78 1.390 . S
C81 H80 0.950 . S
C81 C82 1.378 . S
C82 C81 1.378 . S
C82 C83 1.409 . S
C83 C79 1.387 . S
C83 C82 1.409 . S
C83 H85 0.951 . S
C84 C79 1.491 . S
C84 C86 1.382 . S
C84 C88 1.404 . S
H85 C83 0.951 . S
C86 C84 1.382 . S
C86 C87 1.390 . S
C86 H91 0.949 . S
C87 C86 1.390 . S
C87 C92 1.399 . S
C88 C84 1.404 . S
C88 H89 0.950 . S
C88 C90 1.375 . S
H89 C88 0.950 . S
C90 C88 1.375 . S
C90 C92 1.382 . S
C90 H94 0.950 . S
H91 C86 0.949 . S
C92 C87 1.399 . S
C92 C90 1.382 . S
C92 H93 0.952 . S
H93 C92 0.952 . S
H94 C90 0.950 . S
H95 C96 0.949 . S
C96 H95 0.949 . S
C96 C97 1.395 . S
C96 C98 1.391 . S
C97 C96 1.395 . S
C97 C100 1.390 . S
C98 C96 1.391 . S
C98 C102 1.387 . S
C98 C103 1.491 . S
H99 C100 0.950 . S
C100 C97 1.390 . S
C100 H99 0.950 . S
C100 C101 1.378 . S
C101 C100 1.378 . S
C101 C102 1.409 . S
C102 C98 1.387 . S
C102 C101 1.409 . S
C102 H104 0.951 . S
C103 C98 1.491 . S
C103 C105 1.382 . S
C103 C107 1.404 . S
H104 C102 0.951 . S
C105 C103 1.382 . S
C105 C106 1.390 . S
C105 H110 0.949 . S
C106 C105 1.390 . S
C106 C111 1.399 . S
C107 C103 1.404 . S
C107 H108 0.950 . S
C107 C109 1.375 . S
H108 C107 0.950 . S
C109 C107 1.375 . S
C109 C111 1.382 . S
C109 H113 0.950 . S
H110 C105 0.949 . S
C111 C106 1.399 . S
C111 C109 1.382 . S
C111 H112 0.952 . S
H112 C111 0.952 . S
H113 C109 0.950 . S
H114 C115 0.949 . S
C115 H114 0.949 . S
C115 C116 1.395 . S
C115 C117 1.391 . S
C116 C115 1.395 . S
C116 C119 1.390 . S
C117 C115 1.391 . S
C117 C121 1.387 . S
C117 C122 1.491 . S
H118 C119 0.950 . S
C119 C116 1.390 . S
C119 H118 0.950 . S
C119 C120 1.378 . S
C120 C119 1.378 . S
C120 C121 1.409 . S
C121 C117 1.387 . S
C121 C120 1.409 . S
C121 H123 0.951 . S
C122 C117 1.491 . S
C122 C124 1.382 . S
C122 C126 1.404 . S
H123 C121 0.951 . S
C124 C122 1.382 . S
C124 C125 1.390 . S
C124 H129 0.949 . S
C125 C124 1.390 . S
C125 C130 1.399 . S
C126 C122 1.404 . S
C126 H127 0.950 . S
C126 C128 1.375 . S
H127 C126 0.950 . S
C128 C126 1.375 . S
C128 C130 1.382 . S
C128 H132 0.950 . S
H129 C124 0.949 . S
C130 C125 1.399 . S
C130 C128 1.382 . S
C130 H131 0.952 . S
H131 C130 0.952 . S
H132 C128 0.950 . S
H133 C134 0.949 . S
C134 H133 0.949 . S
C134 C135 1.395 . S
C134 C136 1.391 . S
C135 C134 1.395 . S
C135 C138 1.390 . S
C136 C134 1.391 . S
C136 C140 1.387 . S
C136 C141 1.491 . S
H137 C138 0.950 . S
C138 C135 1.390 . S
C138 H137 0.950 . S
C138 C139 1.378 . S
C139 C138 1.378 . S
C139 C140 1.409 . S
C140 C136 1.387 . S
C140 C139 1.409 . S
C140 H142 0.951 . S
C141 C136 1.491 . S
C141 C143 1.382 . S
C141 C145 1.404 . S
H142 C140 0.951 . S
C143 C141 1.382 . S
C143 C144 1.390 . S
C143 H148 0.949 . S
C144 C143 1.390 . S
C144 C149 1.399 . S
C145 C141 1.404 . S
C145 H146 0.950 . S
C145 C147 1.375 . S
H146 C145 0.950 . S
C147 C145 1.375 . S
C147 C149 1.382 . S
C147 H151 0.950 . S
H148 C143 0.949 . S
C149 C144 1.399 . S
C149 C147 1.382 . S
C149 H150 0.952 . S
H150 C149 0.952 . S
H151 C147 0.950 . S
Dy152 O156 2.398 . S
Dy152 O157 2.491 . S
Dy152 O158 2.403 . S
Dy152 O159 2.664 . S
Dy152 O163 2.326 . S
Dy152 O167 2.310 1_455 S
Dy152 O168 2.351 1_445 S
C153 O164 1.185 . S
C153 O165 1.355 . S
C154 O156 1.185 . S
C154 O157 1.355 . S
Dy155 O159 2.310 1_655 S
Dy155 O162 2.351 1_655 S
Dy155 O164 2.398 1_545 S
Dy155 O165 2.491 1_545 S
Dy155 O166 2.403 . S
Dy155 O167 2.664 . S
Dy155 O169 2.326 1_545 S
O156 Dy152 2.398 . S
O156 C154 1.185 . S
O157 Dy152 2.491 . S
O157 C154 1.355 . S
O158 Dy152 2.403 . S
O158 C160 1.254 . S
O159 Dy152 2.664 . S
O159 Dy155 2.310 1_455 S
O159 C160 1.268 . S
C160 O158 1.254 . S
C160 O159 1.268 . S
C161 O166 1.254 . S
C161 O167 1.268 . S
O162 Dy155 2.351 1_455 S
O162 C170 1.249 . S
O163 Dy152 2.326 . S
O163 C170 1.267 . S
O164 C153 1.185 . S
O164 Dy155 2.398 1_565 S
O165 C153 1.355 . S
O165 Dy155 2.491 1_565 S
O166 Dy155 2.403 . S
O166 C161 1.254 . S
O167 Dy152 2.310 1_655 S
O167 Dy155 2.664 . S
O167 C161 1.268 . S
O168 Dy152 2.351 1_665 S
O168 C171 1.249 . S
O169 Dy155 2.326 1_565 S
O169 C171 1.267 . S
C170 O162 1.249 . S
C170 O163 1.267 . S
C171 O168 1.249 . S
C171 O169 1.267 . S
Dy172 O176 2.398 . S
Dy172 O177 2.491 . S
Dy172 O178 2.403 1_545 S
Dy172 O179 2.664 1_545 S
Dy172 O183 2.326 . S
Dy172 O187 2.310 . S
Dy172 O188 2.351 . S
C173 O184 1.185 1_565 S
C173 O185 1.355 1_556 S
C174 O176 1.185 . S
C174 O177 1.355 . S
Dy175 O179 2.310 1_545 S
Dy175 O182 2.351 . S
Dy175 O184 2.398 1_554 S
Dy175 O185 2.491 1_545 S
Dy175 O186 2.403 . S
Dy175 O187 2.664 . S
Dy175 O189 2.326 . S
O176 Dy172 2.398 . S
O176 C174 1.185 . S
O177 Dy172 2.491 . S
O177 C174 1.355 . S
O178 Dy172 2.403 1_565 S
O178 C180 1.254 . S
O179 Dy172 2.664 1_565 S
O179 Dy175 2.310 1_565 S
O179 C180 1.268 . S
C180 O178 1.254 . S
C180 O179 1.268 . S
C181 O186 1.254 . S
C181 O187 1.268 . S
O182 Dy175 2.351 . S
O182 C190 1.249 . S
O183 Dy172 2.326 . S
O183 C190 1.267 . S
O184 C173 1.185 1_545 S
O184 Dy175 2.398 1_556 S
O185 C173 1.355 1_554 S
O185 Dy175 2.491 1_565 S
O186 Dy175 2.403 . S
O186 C181 1.254 . S
O187 Dy172 2.310 . S
O187 Dy175 2.664 . S
O187 C181 1.268 . S
O188 Dy172 2.351 . S
O188 C191 1.249 1_545 S
O189 Dy175 2.326 . S
O189 C191 1.267 1_545 S
C190 O182 1.249 . S
C190 O183 1.267 . S
C191 O188 1.249 1_565 S
C191 O189 1.267 1_565 S
Dy192 O196 2.398 . S
Dy192 O197 2.491 . S
Dy192 O198 2.403 . S
Dy192 O199 2.664 . S
Dy192 O203 2.326 . S
Dy192 O207 2.310 . S
Dy192 O208 2.351 . S
C193 O204 1.185 . S
C193 O205 1.355 . S
C194 O196 1.185 . S
C194 O197 1.355 . S
Dy195 O199 2.310 . S
Dy195 O202 2.351 . S
Dy195 O204 2.398 . S
Dy195 O205 2.491 . S
Dy195 O206 2.403 . S
Dy195 O207 2.664 . S
Dy195 O209 2.326 . S
O196 Dy192 2.398 . S
O196 C194 1.185 . S
O197 Dy192 2.491 . S
O197 C194 1.355 . S
O198 Dy192 2.403 . S
O198 C200 1.254 . S
O199 Dy192 2.664 . S
O199 Dy195 2.310 . S
O199 C200 1.268 . S
C200 O198 1.254 . S
C200 O199 1.268 . S
C201 O206 1.254 . S
C201 O207 1.268 . S
O202 Dy195 2.351 . S
O202 C210 1.249 . S
O203 Dy192 2.326 . S
O203 C210 1.267 . S
O204 C193 1.185 . S
O204 Dy195 2.398 . S
O205 C193 1.355 . S
O205 Dy195 2.491 . S
O206 Dy195 2.403 . S
O206 C201 1.254 . S
O207 Dy192 2.310 . S
O207 Dy195 2.664 . S
O207 C201 1.268 . S
O208 Dy192 2.351 . S
O208 C211 1.249 . S
O209 Dy195 2.326 . S
O209 C211 1.267 . S
C210 O202 1.249 . S
C210 O203 1.267 . S
C211 O208 1.249 . S
C211 O209 1.267 . S
Dy212 O216 2.398 . S
Dy212 O217 2.491 . S
Dy212 O218 2.403 . S
Dy212 O219 2.664 . S
Dy212 O223 2.326 . S
Dy212 O227 2.310 1_554 S
Dy212 O228 2.351 1_455 S
C213 O224 1.185 . S
C213 O225 1.355 1_556 S
C214 O216 1.185 . S
C214 O217 1.355 . S
Dy215 O219 2.310 . S
Dy215 O222 2.351 . S
Dy215 O224 2.398 1_454 S
Dy215 O225 2.491 1_455 S
Dy215 O226 2.403 1_554 S
Dy215 O227 2.664 1_554 S
Dy215 O229 2.326 1_454 S
O216 Dy212 2.398 . S
O216 C214 1.185 . S
O217 Dy212 2.491 . S
O217 C214 1.355 . S
O218 Dy212 2.403 . S
O218 C220 1.254 1_455 S
O219 Dy212 2.664 . S
O219 Dy215 2.310 . S
O219 C220 1.268 1_455 S
C220 O218 1.254 1_655 S
C220 O219 1.268 1_655 S
C221 O226 1.254 . S
C221 O227 1.268 . S
O222 Dy215 2.351 . S
O222 C230 1.249 . S
O223 Dy212 2.326 . S
O223 C230 1.267 . S
O224 C213 1.185 . S
O224 Dy215 2.398 1_656 S
O225 C213 1.355 1_554 S
O225 Dy215 2.491 1_655 S
O226 Dy215 2.403 1_556 S
O226 C221 1.254 . S
O227 Dy212 2.310 1_556 S
O227 Dy215 2.664 1_556 S
O227 C221 1.268 . S
O228 Dy212 2.351 1_655 S
O228 C231 1.249 1_554 S
O229 Dy215 2.326 1_656 S
O229 C231 1.267 . S
C230 O222 1.249 . S
C230 O223 1.267 . S
C231 O228 1.249 1_556 S
C231 O229 1.267 . S
C232 C233 1.391 . S
C232 C234 1.394 . S
C232 H248 0.931 . S
C233 C232 1.391 . S
C233 C237 1.376 . S
C234 C232 1.394 . S
C234 C235 1.369 . S
C234 C238 1.531 . S
C235 C234 1.369 . S
C235 C236 1.410 . S
C235 C243 1.503 . S
C236 C235 1.410 . S
C236 C237 1.392 . S
C236 C239 1.511 . S
C237 C233 1.376 . S
C237 C236 1.392 . S
C237 H249 0.929 . S
C238 C234 1.531 . S
C238 H250 0.960 . S
C238 H251 0.962 . S
C238 H252 0.960 . S
C239 C236 1.511 . S
C239 H253 0.961 . S
C239 H254 0.961 . S
C239 H255 0.961 . S
C240 C241 1.370 . S
C240 C242 1.363 . S
C240 H256 0.931 . S
C241 C240 1.370 . S
C241 C245 1.408 . S
C242 C240 1.363 . S
C242 C243 1.370 . S
C242 C246 1.524 . S
C243 C235 1.503 . S
C243 C242 1.370 . S
C243 C244 1.403 . S
C244 C243 1.403 . S
C244 C245 1.404 . S
C244 C247 1.539 . S
C245 C241 1.408 . S
C245 C244 1.404 . S
C245 H257 0.930 . S
C246 C242 1.524 . S
C246 H258 0.956 . S
C246 H259 0.961 . S
C246 H260 0.961 . S
C247 C244 1.539 . S
C247 H261 0.958 . S
C247 H262 0.961 . S
C247 H263 0.960 . S
H248 C232 0.931 . S
H249 C237 0.929 . S
H250 C238 0.960 . S
H251 C238 0.962 . S
H252 C238 0.960 . S
H253 C239 0.961 . S
H254 C239 0.961 . S
H255 C239 0.961 . S
H256 C240 0.931 . S
H257 C245 0.930 . S
H258 C246 0.956 . S
H259 C246 0.961 . S
H260 C246 0.961 . S
H261 C247 0.958 . S
H262 C247 0.961 . S
H263 C247 0.960 . S
C264 C265 1.391 . S
C264 C266 1.394 . S
C264 H280 0.931 . S
C265 C264 1.391 . S
C265 C269 1.376 . S
C266 C264 1.394 . S
C266 C267 1.369 . S
C266 C270 1.531 . S
C267 C266 1.369 . S
C267 C268 1.410 . S
C267 C275 1.503 . S
C268 C267 1.410 . S
C268 C269 1.392 . S
C268 C271 1.511 . S
C269 C265 1.376 . S
C269 C268 1.392 . S
C269 H281 0.929 . S
C270 C266 1.531 . S
C270 H282 0.960 . S
C270 H283 0.962 . S
C270 H284 0.960 . S
C271 C268 1.511 . S
C271 H285 0.961 . S
C271 H286 0.961 . S
C271 H287 0.961 . S
C272 C273 1.370 . S
C272 C274 1.363 . S
C272 H288 0.931 1_565 S
C273 C272 1.370 . S
C273 C277 1.408 . S
C274 C272 1.363 . S
C274 C275 1.370 . S
C274 C278 1.524 1_565 S
C275 C267 1.503 . S
C275 C274 1.370 . S
C275 C276 1.403 . S
C276 C275 1.403 . S
C276 C277 1.404 . S
C276 C279 1.539 . S
C277 C273 1.408 . S
C277 C276 1.404 . S
C277 H289 0.930 . S
C278 C274 1.524 1_545 S
C278 H290 0.956 . S
C278 H291 0.961 . S
C278 H292 0.961 . S
C279 C276 1.539 . S
C279 H293 0.958 . S
C279 H294 0.961 . S
C279 H295 0.960 . S
H280 C264 0.931 . S
H281 C269 0.929 . S
H282 C270 0.960 . S
H283 C270 0.962 . S
H284 C270 0.960 . S
H285 C271 0.961 . S
H286 C271 0.961 . S
H287 C271 0.961 . S
H288 C272 0.931 1_545 S
H289 C277 0.930 . S
H290 C278 0.956 . S
H291 C278 0.961 . S
H292 C278 0.961 . S
H293 C279 0.958 . S
H294 C279 0.961 . S
H295 C279 0.960 . S
C296 C297 1.391 . S
C296 C298 1.394 . S
C296 H312 0.931 . S
C297 C296 1.391 . S
C297 C301 1.376 . S
C298 C296 1.394 . S
C298 C299 1.369 . S
C298 C302 1.531 . S
C299 C298 1.369 . S
C299 C300 1.410 . S
C299 C307 1.503 . S
C300 C299 1.410 . S
C300 C301 1.392 . S
C300 C303 1.511 . S
C301 C297 1.376 . S
C301 C300 1.392 . S
C301 H313 0.929 . S
C302 C298 1.531 . S
C302 H314 0.960 . S
C302 H315 0.962 . S
C302 H316 0.960 . S
C303 C300 1.511 . S
C303 H317 0.961 . S
C303 H318 0.961 . S
C303 H319 0.961 . S
C304 C305 1.370 . S
C304 C306 1.363 . S
C304 H320 0.931 . S
C305 C304 1.370 . S
C305 C309 1.408 . S
C306 C304 1.363 . S
C306 C307 1.370 . S
C306 C310 1.524 . S
C307 C299 1.503 . S
C307 C306 1.370 . S
C307 C308 1.403 . S
C308 C307 1.403 . S
C308 C309 1.404 . S
C308 C311 1.539 . S
C309 C305 1.408 . S
C309 C308 1.404 . S
C309 H321 0.930 . S
C310 C306 1.524 . S
C310 H322 0.956 . S
C310 H323 0.961 . S
C310 H324 0.961 . S
C311 C308 1.539 . S
C311 H325 0.958 . S
C311 H326 0.961 . S
C311 H327 0.960 . S
H312 C296 0.931 . S
H313 C301 0.929 . S
H314 C302 0.960 . S
H315 C302 0.962 . S
H316 C302 0.960 . S
H317 C303 0.961 . S
H318 C303 0.961 . S
H319 C303 0.961 . S
H320 C304 0.931 . S
H321 C309 0.930 . S
H322 C310 0.956 . S
H323 C310 0.961 . S
H324 C310 0.961 . S
H325 C311 0.958 . S
H326 C311 0.961 . S
H327 C311 0.960 . S
C328 C329 1.391 . S
C328 C330 1.394 . S
C328 H344 0.931 . S
C329 C328 1.391 . S
C329 C333 1.376 . S
C330 C328 1.394 . S
C330 C331 1.369 . S
C330 C334 1.531 . S
C331 C330 1.369 . S
C331 C332 1.410 . S
C331 C339 1.503 . S
C332 C331 1.410 . S
C332 C333 1.392 . S
C332 C335 1.511 . S
C333 C329 1.376 . S
C333 C332 1.392 . S
C333 H345 0.929 . S
C334 C330 1.531 . S
C334 H346 0.960 . S
C334 H347 0.962 . S
C334 H348 0.960 . S
C335 C332 1.511 . S
C335 H349 0.961 . S
C335 H350 0.961 . S
C335 H351 0.961 1_655 S
C336 C337 1.370 . S
C336 C338 1.363 . S
C336 H352 0.931 . S
C337 C336 1.370 . S
C337 C341 1.408 . S
C338 C336 1.363 . S
C338 C339 1.370 . S
C338 C342 1.524 . S
C339 C331 1.503 . S
C339 C338 1.370 . S
C339 C340 1.403 . S
C340 C339 1.403 . S
C340 C341 1.404 . S
C340 C343 1.539 . S
C341 C337 1.408 . S
C341 C340 1.404 . S
C341 H353 0.930 1_655 S
C342 C338 1.524 . S
C342 H354 0.956 . S
C342 H355 0.961 . S
C342 H356 0.961 . S
C343 C340 1.539 . S
C343 H357 0.958 . S
C343 H358 0.961 1_655 S
C343 H359 0.960 . S
H344 C328 0.931 . S
H345 C333 0.929 . S
H346 C334 0.960 . S
H347 C334 0.962 . S
H348 C334 0.960 . S
H349 C335 0.961 . S
H350 C335 0.961 . S
H351 C335 0.961 1_455 S
H352 C336 0.931 . S
H353 C341 0.930 1_455 S
H354 C342 0.956 . S
H355 C342 0.961 . S
H356 C342 0.961 . S
H357 C343 0.958 . S
H358 C343 0.961 1_455 S
H359 C343 0.960 . S
C360 C361 1.391 . S
C360 C362 1.394 . S
C360 H376 0.931 . S
C361 C360 1.391 . S
C361 C365 1.376 . S
C362 C360 1.394 . S
C362 C363 1.369 . S
C362 C366 1.531 . S
C363 C362 1.369 . S
C363 C364 1.410 . S
C363 C371 1.503 . S
C364 C363 1.410 . S
C364 C365 1.392 . S
C364 C367 1.511 . S
C365 C361 1.376 . S
C365 C364 1.392 . S
C365 H377 0.929 . S
C366 C362 1.531 . S
C366 H378 0.960 . S
C366 H379 0.962 . S
C366 H380 0.960 . S
C367 C364 1.511 . S
C367 H381 0.961 . S
C367 H382 0.961 . S
C367 H383 0.961 . S
C368 C369 1.370 . S
C368 C370 1.363 . S
C368 H384 0.931 . S
C369 C368 1.370 . S
C369 C373 1.408 . S
C370 C368 1.363 . S
C370 C371 1.370 . S
C370 C374 1.524 . S
C371 C363 1.503 . S
C371 C370 1.370 . S
C371 C372 1.403 . S
C372 C371 1.403 . S
C372 C373 1.404 . S
C372 C375 1.539 . S
C373 C369 1.408 . S
C373 C372 1.404 . S
C373 H385 0.930 . S
C374 C370 1.524 . S
C374 H386 0.956 . S
C374 H387 0.961 . S
C374 H388 0.961 . S
C375 C372 1.539 . S
C375 H389 0.958 . S
C375 H390 0.961 . S
C375 H391 0.960 . S
H376 C360 0.931 . S
H377 C365 0.929 . S
H378 C366 0.960 . S
H379 C366 0.962 . S
H380 C366 0.960 . S
H381 C367 0.961 . S
H382 C367 0.961 . S
H383 C367 0.961 . S
H384 C368 0.931 . S
H385 C373 0.930 . S
H386 C374 0.956 . S
H387 C374 0.961 . S
H388 C374 0.961 . S
H389 C375 0.958 . S
H390 C375 0.961 . S
H391 C375 0.960 . S
C392 C393 1.391 . S
C392 C394 1.394 . S
C392 H408 0.931 . S
C393 C392 1.391 . S
C393 C397 1.376 . S
C394 C392 1.394 . S
C394 C395 1.369 . S
C394 C398 1.531 1_565 S
C395 C394 1.369 . S
C395 C396 1.410 . S
C395 C403 1.503 . S
C396 C395 1.410 . S
C396 C397 1.392 . S
C396 C399 1.511 . S
C397 C393 1.376 . S
C397 C396 1.392 . S
C397 H409 0.929 . S
C398 C394 1.531 1_545 S
C398 H410 0.960 . S
C398 H411 0.962 . S
C398 H412 0.960 . S
C399 C396 1.511 . S
C399 H413 0.961 . S
C399 H414 0.961 . S
C399 H415 0.961 . S
C400 C401 1.375 . S
C400 C402 1.363 . S
C400 H416 0.931 . S
C401 C400 1.375 . S
C401 C405 1.393 1_545 S
C402 C400 1.363 . S
C402 C403 1.370 1_545 S
C402 C406 1.524 . S
C403 C395 1.503 . S
C403 C402 1.370 1_565 S
C403 C404 1.403 . S
C404 C403 1.403 . S
C404 C405 1.404 . S
C404 C407 1.539 . S
C405 C401 1.393 1_565 S
C405 C404 1.404 . S
C405 H417 0.930 . S
C406 C402 1.524 . S
C406 H418 0.956 . S
C406 H419 0.961 . S
C406 H420 0.961 . S
C407 C404 1.539 . S
C407 H421 0.958 . S
C407 H422 0.961 . S
C407 H423 0.960 . S
H408 C392 0.931 . S
H409 C397 0.929 . S
H410 C398 0.960 . S
H411 C398 0.962 . S
H412 C398 0.960 . S
H413 C399 0.961 . S
H414 C399 0.961 . S
H415 C399 0.961 . S
H416 C400 0.931 . S
H417 C405 0.930 . S
H418 C406 0.956 . S
H419 C406 0.961 . S
H420 C406 0.961 . S
H421 C407 0.958 . S
H422 C407 0.961 . S
H423 C407 0.960 . S
C424 C425 1.391 . S
C424 C426 1.394 . S
C424 H440 0.931 . S
C425 C424 1.391 . S
C425 C429 1.376 . S
C426 C424 1.394 . S
C426 C427 1.369 . S
C426 C430 1.531 1_556 S
C427 C426 1.369 . S
C427 C428 1.410 . S
C427 C435 1.503 . S
C428 C427 1.410 . S
C428 C429 1.392 . S
C428 C431 1.511 . S
C429 C425 1.376 . S
C429 C428 1.392 . S
C429 H441 0.929 . S
C430 C426 1.531 1_554 S
C430 H442 0.960 . S
C430 H443 0.962 . S
C430 H444 0.960 . S
C431 C428 1.511 . S
C431 H445 0.961 . S
C431 H446 0.961 . S
C431 H447 0.961 . S
C432 C433 1.370 . S
C432 C434 1.363 . S
C432 H448 0.931 . S
C433 C432 1.370 . S
C433 C437 1.408 1_556 S
C434 C432 1.363 . S
C434 C435 1.370 . S
C434 C438 1.524 . S
C435 C427 1.503 . S
C435 C434 1.370 . S
C435 C436 1.403 . S
C436 C435 1.403 . S
C436 C437 1.404 1_556 S
C436 C439 1.539 1_556 S
C437 C433 1.408 1_554 S
C437 C436 1.404 1_554 S
C437 H449 0.930 . S
C438 C434 1.524 . S
C438 H450 0.956 . S
C438 H451 0.961 . S
C438 H452 0.961 . S
C439 C436 1.539 1_554 S
C439 H453 0.958 . S
C439 H454 0.961 . S
C439 H455 0.960 1_554 S
H440 C424 0.931 . S
H441 C429 0.929 . S
H442 C430 0.960 . S
H443 C430 0.962 . S
H444 C430 0.960 . S
H445 C431 0.961 . S
H446 C431 0.961 . S
H447 C431 0.961 . S
H448 C432 0.931 . S
H449 C437 0.930 . S
H450 C438 0.956 . S
H451 C438 0.961 . S
H452 C438 0.961 . S
H453 C439 0.958 . S
H454 C439 0.961 . S
H455 C439 0.960 1_556 S
C456 C457 1.391 . S
C456 C458 1.394 . S
C456 H472 0.931 . S
C457 C456 1.391 . S
C457 C461 1.376 . S
C458 C456 1.394 . S
C458 C459 1.369 . S
C458 C462 1.531 . S
C459 C458 1.369 . S
C459 C460 1.410 . S
C459 C467 1.503 . S
C460 C459 1.410 . S
C460 C461 1.392 . S
C460 C463 1.511 . S
C461 C457 1.376 . S
C461 C460 1.392 . S
C461 H473 0.929 . S
C462 C458 1.531 . S
C462 H474 0.960 . S
C462 H475 0.962 . S
C462 H476 0.960 . S
C463 C460 1.511 . S
C463 H477 0.961 . S
C463 H478 0.961 . S
C463 H479 0.961 . S
C464 C465 1.370 . S
C464 C466 1.363 . S
C464 H480 0.931 . S
C465 C464 1.370 . S
C465 C469 1.408 . S
C466 C464 1.363 . S
C466 C467 1.370 . S
C466 C470 1.524 . S
C467 C459 1.503 . S
C467 C466 1.370 . S
C467 C468 1.403 . S
C468 C467 1.403 . S
C468 C469 1.404 . S
C468 C471 1.539 . S
C469 C465 1.408 . S
C469 C468 1.404 . S
C469 H481 0.930 . S
C470 C466 1.524 . S
C470 H482 0.956 . S
C470 H483 0.961 . S
C470 H484 0.961 . S
C471 C468 1.539 . S
C471 H485 0.958 . S
C471 H486 0.961 . S
C471 H487 0.960 . S
H472 C456 0.931 . S
H473 C461 0.929 . S
H474 C462 0.960 . S
H475 C462 0.962 . S
H476 C462 0.960 . S
H477 C463 0.961 . S
H478 C463 0.961 . S
H479 C463 0.961 . S
H480 C464 0.931 . S
H481 C469 0.930 . S
H482 C470 0.956 . S
H483 C470 0.961 . S
H484 C470 0.961 . S
H485 C471 0.958 . S
H486 C471 0.961 . S
H487 C471 0.960 . S
C488 C489 1.391 . S
C488 C490 1.394 . S
C488 H504 0.931 . S
C489 C488 1.391 . S
C489 C493 1.376 . S
C490 C488 1.394 . S
C490 C491 1.369 . S
C490 C494 1.531 . S
C491 C490 1.369 . S
C491 C492 1.410 . S
C491 C499 1.503 . S
C492 C491 1.410 . S
C492 C493 1.392 . S
C492 C495 1.511 . S
C493 C489 1.376 . S
C493 C492 1.392 . S
C493 H505 0.929 . S
C494 C490 1.531 . S
C494 H506 0.960 . S
C494 H507 0.962 . S
C494 H508 0.960 . S
C495 C492 1.511 . S
C495 H509 0.961 . S
C495 H510 0.961 . S
C495 H511 0.961 . S
C496 C497 1.370 . S
C496 C498 1.363 . S
C496 H512 0.931 . S
C497 C496 1.370 . S
C497 C501 1.408 . S
C498 C496 1.363 . S
C498 C499 1.370 . S
C498 C502 1.524 . S
C499 C491 1.503 . S
C499 C498 1.370 . S
C499 C500 1.403 . S
C500 C499 1.403 . S
C500 C501 1.404 . S
C500 C503 1.539 . S
C501 C497 1.408 . S
C501 C500 1.404 . S
C501 H513 0.930 . S
C502 C498 1.524 . S
C502 H514 0.956 . S
C502 H515 0.961 . S
C502 H516 0.961 . S
C503 C500 1.539 . S
C503 H517 0.958 . S
C503 H518 0.961 . S
C503 H519 0.960 . S
H504 C488 0.931 . S
H505 C493 0.929 . S
H506 C494 0.960 . S
H507 C494 0.962 . S
H508 C494 0.960 . S
H509 C495 0.961 . S
H510 C495 0.961 . S
H511 C495 0.961 . S
H512 C496 0.931 . S
H513 C501 0.930 . S
H514 C502 0.956 . S
H515 C502 0.961 . S
H516 C502 0.961 . S
H517 C503 0.958 . S
H518 C503 0.961 . S
H519 C503 0.960 . S
C520 C521 1.391 . S
C520 C522 1.394 . S
C520 H536 0.931 . S
C521 C520 1.391 . S
C521 C525 1.376 . S
C522 C520 1.394 . S
C522 C523 1.369 . S
C522 C526 1.531 . S
C523 C522 1.369 . S
C523 C524 1.410 . S
C523 C531 1.503 . S
C524 C523 1.410 . S
C524 C525 1.392 . S
C524 C527 1.511 1_556 S
C525 C521 1.376 . S
C525 C524 1.392 . S
C525 H537 0.929 . S
C526 C522 1.531 . S
C526 H538 0.960 . S
C526 H539 0.962 . S
C526 H540 0.960 . S
C527 C524 1.511 1_554 S
C527 H541 0.961 . S
C527 H542 0.961 . S
C527 H543 0.961 1_554 S
C528 C529 1.370 . S
C528 C530 1.363 . S
C528 H544 0.931 . S
C529 C528 1.370 . S
C529 C533 1.408 1_554 S
C530 C528 1.363 . S
C530 C531 1.370 1_554 S
C530 C534 1.524 . S
C531 C523 1.503 . S
C531 C530 1.370 1_556 S
C531 C532 1.403 . S
C532 C531 1.403 . S
C532 C533 1.404 . S
C532 C535 1.539 . S
C533 C529 1.408 1_556 S
C533 C532 1.404 . S
C533 H545 0.930 . S
C534 C530 1.524 . S
C534 H546 0.956 . S
C534 H547 0.961 . S
C534 H548 0.961 . S
C535 C532 1.539 . S
C535 H549 0.958 . S
C535 H550 0.961 . S
C535 H551 0.960 . S
H536 C520 0.931 . S
H537 C525 0.929 . S
H538 C526 0.960 . S
H539 C526 0.962 . S
H540 C526 0.960 . S
H541 C527 0.961 . S
H542 C527 0.961 . S
H543 C527 0.961 1_556 S
H544 C528 0.931 . S
H545 C533 0.930 . S
H546 C534 0.956 . S
H547 C534 0.961 . S
H548 C534 0.961 . S
H549 C535 0.958 . S
H550 C535 0.961 . S
H551 C535 0.960 . S
C552 C553 1.391 . S
C552 C554 1.394 . S
C552 H568 0.931 . S
C553 C552 1.391 . S
C553 C557 1.376 . S
C554 C552 1.394 . S
C554 C555 1.369 . S
C554 C558 1.531 . S
C555 C554 1.369 . S
C555 C556 1.410 . S
C555 C563 1.503 . S
C556 C555 1.410 . S
C556 C557 1.392 . S
C556 C559 1.511 . S
C557 C553 1.376 . S
C557 C556 1.392 . S
C557 H569 0.929 . S
C558 C554 1.531 . S
C558 H570 0.960 . S
C558 H571 0.962 . S
C558 H572 0.960 . S
C559 C556 1.511 . S
C559 H573 0.961 . S
C559 H574 0.961 . S
C559 H575 0.961 . S
C560 C561 1.370 . S
C560 C562 1.363 . S
C560 H576 0.931 . S
C561 C560 1.370 . S
C561 C565 1.408 . S
C562 C560 1.363 . S
C562 C563 1.370 . S
C562 C566 1.524 . S
C563 C555 1.503 . S
C563 C562 1.370 . S
C563 C564 1.403 . S
C564 C563 1.403 . S
C564 C565 1.404 . S
C564 C567 1.539 . S
C565 C561 1.408 . S
C565 C564 1.404 . S
C565 H577 0.930 . S
C566 C562 1.524 . S
C566 H578 0.956 . S
C566 H579 0.961 . S
C566 H580 0.961 . S
C567 C564 1.539 . S
C567 H581 0.958 . S
C567 H582 0.961 . S
C567 H583 0.960 . S
H568 C552 0.931 . S
H569 C557 0.929 . S
H570 C558 0.960 . S
H571 C558 0.962 . S
H572 C558 0.960 . S
H573 C559 0.961 . S
H574 C559 0.961 . S
H575 C559 0.961 . S
H576 C560 0.931 . S
H577 C565 0.930 . S
H578 C566 0.956 . S
H579 C566 0.961 . S
H580 C566 0.961 . S
H581 C567 0.958 . S
H582 C567 0.961 . S
H583 C567 0.960 . S
C584 C585 1.391 . S
C584 C586 1.394 . S
C584 H600 0.931 . S
C585 C584 1.391 . S
C585 C589 1.376 . S
C586 C584 1.394 . S
C586 C587 1.369 . S
C586 C590 1.531 . S
C587 C586 1.369 . S
C587 C588 1.410 . S
C587 C595 1.503 . S
C588 C587 1.410 . S
C588 C589 1.392 . S
C588 C591 1.511 . S
C589 C585 1.376 . S
C589 C588 1.392 . S
C589 H601 0.929 . S
C590 C586 1.531 . S
C590 H602 0.960 . S
C590 H603 0.962 . S
C590 H604 0.960 . S
C591 C588 1.511 . S
C591 H605 0.961 . S
C591 H606 0.961 . S
C591 H607 0.961 . S
C592 C593 1.370 . S
C592 C594 1.363 . S
C592 H608 0.931 . S
C593 C592 1.370 . S
C593 C597 1.408 . S
C594 C592 1.363 . S
C594 C595 1.370 . S
C594 C598 1.524 . S
C595 C587 1.503 . S
C595 C594 1.370 . S
C595 C596 1.403 . S
C596 C595 1.403 . S
C596 C597 1.404 . S
C596 C599 1.539 . S
C597 C593 1.408 . S
C597 C596 1.404 . S
C597 H609 0.930 . S
C598 C594 1.524 . S
C598 H610 0.956 . S
C598 H611 0.961 . S
C598 H612 0.961 . S
C599 C596 1.539 . S
C599 H613 0.958 . S
C599 H614 0.961 . S
C599 H615 0.960 . S
H600 C584 0.931 . S
H601 C589 0.929 . S
H602 C590 0.960 . S
H603 C590 0.962 . S
H604 C590 0.960 . S
H605 C591 0.961 . S
H606 C591 0.961 . S
H607 C591 0.961 . S
H608 C592 0.931 . S
H609 C597 0.930 . S
H610 C598 0.956 . S
H611 C598 0.961 . S
H612 C598 0.961 . S
H613 C599 0.958 . S
H614 C599 0.961 . S
H615 C599 0.960 . S
C616 C617 1.391 . S
C616 C618 1.394 . S
C616 H632 0.931 . S
C617 C616 1.391 . S
C617 C621 1.376 . S
C618 C616 1.394 . S
C618 C619 1.369 . S
C618 C622 1.531 . S
C619 C618 1.369 . S
C619 C620 1.410 . S
C619 C627 1.503 . S
C620 C619 1.410 . S
C620 C621 1.392 . S
C620 C623 1.511 . S
C621 C617 1.376 . S
C621 C620 1.392 . S
C621 H633 0.929 . S
C622 C618 1.531 . S
C622 H634 0.960 . S
C622 H635 0.962 . S
C622 H636 0.960 . S
C623 C620 1.511 . S
C623 H637 0.961 . S
C623 H638 0.961 . S
C623 H639 0.961 . S
C624 C625 1.370 . S
C624 C626 1.363 . S
C624 H640 0.931 . S
C625 C624 1.370 . S
C625 C629 1.408 . S
C626 C624 1.363 . S
C626 C627 1.370 . S
C626 C630 1.524 . S
C627 C619 1.503 . S
C627 C626 1.370 . S
C627 C628 1.403 . S
C628 C627 1.403 . S
C628 C629 1.404 . S
C628 C631 1.539 . S
C629 C625 1.408 . S
C629 C628 1.404 . S
C629 H641 0.930 . S
C630 C626 1.524 . S
C630 H642 0.956 . S
C630 H643 0.961 . S
C630 H644 0.961 . S
C631 C628 1.539 . S
C631 H645 0.958 . S
C631 H646 0.961 . S
C631 H647 0.960 . S
H632 C616 0.931 . S
H633 C621 0.929 . S
H634 C622 0.960 . S
H635 C622 0.962 . S
H636 C622 0.960 . S
H637 C623 0.961 . S
H638 C623 0.961 . S
H639 C623 0.961 . S
H640 C624 0.931 . S
H641 C629 0.930 . S
H642 C630 0.956 . S
H643 C630 0.961 . S
H644 C630 0.961 . S
H645 C631 0.958 . S
H646 C631 0.961 . S
H647 C631 0.960 . S
C648 C649 1.391 . S
C648 C650 1.394 . S
C648 H664 0.931 . S
C649 C648 1.391 . S
C649 C653 1.376 . S
C650 C648 1.394 . S
C650 C651 1.369 . S
C650 C654 1.531 . S
C651 C650 1.369 . S
C651 C652 1.410 . S
C651 C659 1.503 . S
C652 C651 1.410 . S
C652 C653 1.392 . S
C652 C655 1.511 . S
C653 C649 1.376 . S
C653 C652 1.392 . S
C653 H665 0.929 . S
C654 C650 1.531 . S
C654 H666 0.960 . S
C654 H667 0.962 . S
C654 H668 0.960 . S
C655 C652 1.511 . S
C655 H669 0.961 . S
C655 H670 0.961 . S
C655 H671 0.961 . S
C656 C657 1.370 . S
C656 C658 1.363 . S
C656 H672 0.931 . S
C657 C656 1.370 . S
C657 C661 1.408 . S
C658 C656 1.363 . S
C658 C659 1.370 . S
C658 C662 1.524 . S
C659 C651 1.503 . S
C659 C658 1.370 . S
C659 C660 1.403 . S
C660 C659 1.403 . S
C660 C661 1.404 . S
C660 C663 1.539 . S
C661 C657 1.408 . S
C661 C660 1.404 . S
C661 H673 0.930 . S
C662 C658 1.524 . S
C662 H674 0.956 . S
C662 H675 0.961 . S
C662 H676 0.961 . S
C663 C660 1.539 . S
C663 H677 0.958 . S
C663 H678 0.961 . S
C663 H679 0.960 . S
H664 C648 0.931 . S
H665 C653 0.929 . S
H666 C654 0.960 . S
H667 C654 0.962 . S
H668 C654 0.960 . S
H669 C655 0.961 . S
H670 C655 0.961 . S
H671 C655 0.961 . S
H672 C656 0.931 . S
H673 C661 0.930 . S
H674 C662 0.956 . S
H675 C662 0.961 . S
H676 C662 0.961 . S
H677 C663 0.958 . S
H678 C663 0.961 . S
H679 C663 0.960 . S
C680 C681 1.391 . S
C680 C682 1.394 . S
C680 H696 0.931 . S
C681 C680 1.391 . S
C681 C685 1.376 . S
C682 C680 1.394 . S
C682 C683 1.369 . S
C682 C686 1.531 . S
C683 C682 1.369 . S
C683 C684 1.410 . S
C683 C691 1.503 . S
C684 C683 1.410 . S
C684 C685 1.392 . S
C684 C687 1.511 . S
C685 C681 1.376 . S
C685 C684 1.392 . S
C685 H697 0.929 . S
C686 C682 1.531 . S
C686 H698 0.960 . S
C686 H699 0.962 . S
C686 H700 0.960 . S
C687 C684 1.511 . S
C687 H701 0.961 . S
C687 H702 0.961 . S
C687 H703 0.961 . S
C688 C689 1.370 . S
C688 C690 1.363 . S
C688 H704 0.931 . S
C689 C688 1.370 . S
C689 C693 1.408 . S
C690 C688 1.363 . S
C690 C691 1.370 . S
C690 C694 1.524 . S
C691 C683 1.503 . S
C691 C690 1.370 . S
C691 C692 1.403 . S
C692 C691 1.403 . S
C692 C693 1.404 . S
C692 C695 1.539 . S
C693 C689 1.408 . S
C693 C692 1.404 . S
C693 H705 0.930 . S
C694 C690 1.524 . S
C694 H706 0.956 . S
C694 H707 0.961 . S
C694 H708 0.961 . S
C695 C692 1.539 . S
C695 H709 0.958 . S
C695 H710 0.961 . S
C695 H711 0.960 . S
H696 C680 0.931 . S
H697 C685 0.929 . S
H698 C686 0.960 . S
H699 C686 0.962 . S
H700 C686 0.960 . S
H701 C687 0.961 . S
H702 C687 0.961 . S
H703 C687 0.961 . S
H704 C688 0.931 . S
H705 C693 0.930 . S
H706 C694 0.956 . S
H707 C694 0.961 . S
H708 C694 0.961 . S
H709 C695 0.958 . S
H710 C695 0.961 . S
H711 C695 0.960 . S
C712 C713 1.391 . S
C712 C714 1.394 . S
C712 H728 0.931 . S
C713 C712 1.391 . S
C713 C717 1.376 . S
C714 C712 1.394 . S
C714 C715 1.369 . S
C714 C718 1.531 . S
C715 C714 1.369 . S
C715 C716 1.410 . S
C715 C723 1.503 . S
C716 C715 1.410 . S
C716 C717 1.392 . S
C716 C719 1.511 . S
C717 C713 1.376 . S
C717 C716 1.392 . S
C717 H729 0.929 . S
C718 C714 1.531 . S
C718 H730 0.960 . S
C718 H731 0.962 . S
C718 H732 0.960 . S
C719 C716 1.511 . S
C719 H733 0.961 . S
C719 H734 0.961 . S
C719 H735 0.961 . S
C720 C721 1.370 . S
C720 C722 1.363 . S
C720 H736 0.931 . S
C721 C720 1.370 . S
C721 C725 1.408 . S
C722 C720 1.363 . S
C722 C723 1.370 . S
C722 C726 1.524 . S
C723 C715 1.503 . S
C723 C722 1.370 . S
C723 C724 1.403 . S
C724 C723 1.403 . S
C724 C725 1.404 . S
C724 C727 1.539 . S
C725 C721 1.408 . S
C725 C724 1.404 . S
C725 H737 0.930 . S
C726 C722 1.524 . S
C726 H738 0.956 . S
C726 H739 0.961 . S
C726 H740 0.961 . S
C727 C724 1.539 . S
C727 H741 0.958 . S
C727 H742 0.961 . S
C727 H743 0.960 . S
H728 C712 0.931 . S
H729 C717 0.929 . S
H730 C718 0.960 . S
H731 C718 0.962 . S
H732 C718 0.960 . S
H733 C719 0.961 . S
H734 C719 0.961 . S
H735 C719 0.961 . S
H736 C720 0.931 . S
H737 C725 0.930 . S
H738 C726 0.956 . S
H739 C726 0.961 . S
H740 C726 0.961 . S
H741 C727 0.958 . S
H742 C727 0.961 . S
H743 C727 0.960 . S
C744 C745 1.391 . S
C744 C746 1.394 . S
C744 H760 0.931 . S
C745 C744 1.391 . S
C745 C749 1.376 . S
C746 C744 1.394 . S
C746 C747 1.369 . S
C746 C750 1.531 . S
C747 C746 1.369 . S
C747 C748 1.410 . S
C747 C755 1.503 . S
C748 C747 1.410 . S
C748 C749 1.392 . S
C748 C751 1.511 1_556 S
C749 C745 1.376 . S
C749 C748 1.392 . S
C749 H761 0.929 . S
C750 C746 1.531 . S
C750 H762 0.960 . S
C750 H763 0.962 . S
C750 H764 0.960 . S
C751 C748 1.511 1_554 S
C751 H765 0.961 . S
C751 H766 0.961 . S
C751 H767 0.961 . S
C752 C753 1.371 1_556 S
C752 C754 1.362 . S
C752 H768 0.928 . S
C753 C752 1.371 1_554 S
C753 C757 1.408 . S
C754 C752 1.362 . S
C754 C755 1.370 . S
C754 C758 1.524 . S
C755 C747 1.503 . S
C755 C754 1.370 . S
C755 C756 1.403 1_556 S
C756 C755 1.403 1_554 S
C756 C757 1.404 . S
C756 C759 1.539 . S
C757 C753 1.408 . S
C757 C756 1.404 . S
C757 H769 0.930 . S
C758 C754 1.524 . S
C758 H770 0.956 . S
C758 H771 0.961 . S
C758 H772 0.961 . S
C759 C756 1.539 . S
C759 H773 0.958 1_554 S
C759 H774 0.961 . S
C759 H775 0.963 . S
H760 C744 0.931 . S
H761 C749 0.929 . S
H762 C750 0.960 . S
H763 C750 0.962 . S
H764 C750 0.960 . S
H765 C751 0.961 . S
H766 C751 0.961 . S
H767 C751 0.961 . S
H768 C752 0.928 . S
H769 C757 0.930 . S
H770 C758 0.956 . S
H771 C758 0.961 . S
H772 C758 0.961 . S
H773 C759 0.958 1_556 S
H774 C759 0.961 . S
H775 C759 0.963 . S
C776 C777 1.391 . S
C776 C778 1.394 . S
C776 H792 0.931 . S
C777 C776 1.391 . S
C777 C781 1.376 . S
C778 C776 1.394 . S
C778 C779 1.369 . S
C778 C782 1.531 . S
C779 C778 1.369 . S
C779 C780 1.410 . S
C779 C787 1.503 . S
C780 C779 1.410 . S
C780 C781 1.392 . S
C780 C783 1.511 . S
C781 C777 1.376 . S
C781 C780 1.392 . S
C781 H793 0.929 . S
C782 C778 1.531 . S
C782 H794 0.960 . S
C782 H795 0.962 . S
C782 H796 0.960 . S
C783 C780 1.511 . S
C783 H797 0.961 . S
C783 H798 0.961 . S
C783 H799 0.961 . S
C784 C785 1.370 . S
C784 C786 1.363 . S
C784 H800 0.931 . S
C785 C784 1.370 . S
C785 C789 1.408 . S
C786 C784 1.363 . S
C786 C787 1.370 . S
C786 C790 1.524 . S
C787 C779 1.503 . S
C787 C786 1.370 . S
C787 C788 1.403 . S
C788 C787 1.403 . S
C788 C789 1.404 . S
C788 C791 1.539 . S
C789 C785 1.408 . S
C789 C788 1.404 . S
C789 H801 0.930 . S
C790 C786 1.524 . S
C790 H802 0.956 . S
C790 H803 0.961 . S
C790 H804 0.961 . S
C791 C788 1.539 . S
C791 H805 0.958 . S
C791 H806 0.961 . S
C791 H807 0.960 . S
H792 C776 0.931 . S
H793 C781 0.929 . S
H794 C782 0.960 . S
H795 C782 0.962 . S
H796 C782 0.960 . S
H797 C783 0.961 . S
H798 C783 0.961 . S
H799 C783 0.961 . S
H800 C784 0.931 . S
H801 C789 0.930 . S
H802 C790 0.956 . S
H803 C790 0.961 . S
H804 C790 0.961 . S
H805 C791 0.958 . S
H806 C791 0.961 . S
H807 C791 0.960 . S
C808 C809 1.391 . S
C808 C810 1.394 . S
C808 H824 0.931 . S
C809 C808 1.391 . S
C809 C813 1.376 . S
C810 C808 1.394 . S
C810 C811 1.369 . S
C810 C814 1.531 . S
C811 C810 1.369 . S
C811 C812 1.410 . S
C811 C819 1.503 . S
C812 C811 1.410 . S
C812 C813 1.392 . S
C812 C815 1.511 . S
C813 C809 1.376 . S
C813 C812 1.392 . S
C813 H825 0.929 . S
C814 C810 1.531 . S
C814 H826 0.960 . S
C814 H827 0.962 . S
C814 H828 0.960 . S
C815 C812 1.511 . S
C815 H829 0.961 . S
C815 H830 0.961 . S
C815 H831 0.961 . S
C816 C817 1.370 . S
C816 C818 1.363 . S
C816 H832 0.931 . S
C817 C816 1.370 . S
C817 C821 1.408 . S
C818 C816 1.363 . S
C818 C819 1.370 . S
C818 C822 1.524 . S
C819 C811 1.503 . S
C819 C818 1.370 . S
C819 C820 1.403 . S
C820 C819 1.403 . S
C820 C821 1.404 . S
C820 C823 1.539 . S
C821 C817 1.408 . S
C821 C820 1.404 . S
C821 H833 0.930 . S
C822 C818 1.524 . S
C822 H834 0.956 . S
C822 H835 0.961 . S
C822 H836 0.961 . S
C823 C820 1.539 . S
C823 H837 0.958 . S
C823 H838 0.961 . S
C823 H839 0.960 . S
H824 C808 0.931 . S
H825 C813 0.929 . S
H826 C814 0.960 . S
H827 C814 0.962 . S
H828 C814 0.960 . S
H829 C815 0.961 . S
H830 C815 0.961 . S
H831 C815 0.961 . S
H832 C816 0.931 . S
H833 C821 0.930 . S
H834 C822 0.956 . S
H835 C822 0.961 . S
H836 C822 0.961 . S
H837 C823 0.958 . S
H838 C823 0.961 . S
H839 C823 0.960 . S
C840 C841 1.391 . S
C840 C842 1.394 . S
C840 H856 0.931 . S
C841 C840 1.391 . S
C841 C845 1.376 . S
C842 C840 1.394 . S
C842 C843 1.369 . S
C842 C846 1.531 . S
C843 C842 1.369 . S
C843 C844 1.410 . S
C843 C851 1.503 . S
C844 C843 1.410 . S
C844 C845 1.392 . S
C844 C847 1.511 . S
C845 C841 1.376 . S
C845 C844 1.392 . S
C845 H857 0.929 . S
C846 C842 1.531 . S
C846 H858 0.960 . S
C846 H859 0.962 . S
C846 H860 0.960 . S
C847 C844 1.511 . S
C847 H861 0.961 . S
C847 H862 0.961 . S
C847 H863 0.961 . S
C848 C849 1.370 . S
C848 C850 1.363 . S
C848 H864 0.931 . S
C849 C848 1.370 . S
C849 C853 1.408 . S
C850 C848 1.363 . S
C850 C851 1.370 . S
C850 C854 1.524 . S
C851 C843 1.503 . S
C851 C850 1.370 . S
C851 C852 1.403 . S
C852 C851 1.403 . S
C852 C853 1.404 . S
C852 C855 1.539 . S
C853 C849 1.408 . S
C853 C852 1.404 . S
C853 H865 0.930 . S
C854 C850 1.524 . S
C854 H866 0.956 . S
C854 H867 0.961 . S
C854 H868 0.961 . S
C855 C852 1.539 . S
C855 H869 0.958 . S
C855 H870 0.961 . S
C855 H871 0.960 . S
H856 C840 0.931 . S
H857 C845 0.929 . S
H858 C846 0.960 . S
H859 C846 0.962 . S
H860 C846 0.960 . S
H861 C847 0.961 . S
H862 C847 0.961 . S
H863 C847 0.961 . S
H864 C848 0.931 . S
H865 C853 0.930 . S
H866 C854 0.956 . S
H867 C854 0.961 . S
H868 C854 0.961 . S
H869 C855 0.958 . S
H870 C855 0.961 . S
H871 C855 0.960 . S
C872 C873 1.391 . S
C872 C874 1.394 . S
C872 H888 0.931 . S
C873 C872 1.391 . S
C873 C877 1.376 . S
C874 C872 1.394 . S
C874 C875 1.369 . S
C874 C878 1.531 . S
C875 C874 1.369 . S
C875 C876 1.410 . S
C875 C883 1.503 . S
C876 C875 1.410 . S
C876 C877 1.392 . S
C876 C879 1.511 . S
C877 C873 1.376 . S
C877 C876 1.392 . S
C877 H889 0.929 . S
C878 C874 1.531 . S
C878 H890 0.960 . S
C878 H891 0.962 . S
C878 H892 0.960 . S
C879 C876 1.511 . S
C879 H893 0.961 . S
C879 H894 0.961 . S
C879 H895 0.961 . S
C880 C881 1.370 . S
C880 C882 1.363 . S
C880 H896 0.931 . S
C881 C880 1.370 . S
C881 C885 1.408 . S
C882 C880 1.363 . S
C882 C883 1.370 . S
C882 C886 1.524 . S
C883 C875 1.503 . S
C883 C882 1.370 . S
C883 C884 1.403 . S
C884 C883 1.403 . S
C884 C885 1.404 . S
C884 C887 1.539 . S
C885 C881 1.408 . S
C885 C884 1.404 . S
C885 H897 0.930 . S
C886 C882 1.524 . S
C886 H898 0.956 . S
C886 H899 0.961 . S
C886 H900 0.961 . S
C887 C884 1.539 . S
C887 H901 0.958 . S
C887 H902 0.961 . S
C887 H903 0.960 . S
H888 C872 0.931 . S
H889 C877 0.929 . S
H890 C878 0.960 . S
H891 C878 0.962 . S
H892 C878 0.960 . S
H893 C879 0.961 . S
H894 C879 0.961 . S
H895 C879 0.961 . S
H896 C880 0.931 . S
H897 C885 0.930 . S
H898 C886 0.956 . S
H899 C886 0.961 . S
H900 C886 0.961 . S
H901 C887 0.958 . S
H902 C887 0.961 . S
H903 C887 0.960 . S
C904 C905 1.391 . S
C904 C906 1.394 . S
C904 H920 0.931 . S
C905 C904 1.391 . S
C905 C909 1.376 . S
C906 C904 1.394 . S
C906 C907 1.369 . S
C906 C910 1.531 . S
C907 C906 1.369 . S
C907 C908 1.410 . S
C907 C915 1.503 . S
C908 C907 1.410 . S
C908 C909 1.392 . S
C908 C911 1.511 . S
C909 C905 1.376 . S
C909 C908 1.392 . S
C909 H921 0.929 . S
C910 C906 1.531 . S
C910 H922 0.960 . S
C910 H923 0.962 . S
C910 H924 0.960 . S
C911 C908 1.511 . S
C911 H925 0.961 . S
C911 H926 0.961 . S
C911 H927 0.961 . S
C912 C913 1.370 . S
C912 C914 1.363 . S
C912 H928 0.931 . S
C913 C912 1.370 . S
C913 C917 1.408 . S
C914 C912 1.363 . S
C914 C915 1.370 . S
C914 C918 1.524 . S
C915 C907 1.503 . S
C915 C914 1.370 . S
C915 C916 1.403 . S
C916 C915 1.403 . S
C916 C917 1.404 . S
C916 C919 1.539 . S
C917 C913 1.408 . S
C917 C916 1.404 . S
C917 H929 0.930 . S
C918 C914 1.524 . S
C918 H930 0.956 . S
C918 H931 0.961 . S
C918 H932 0.961 . S
C919 C916 1.539 . S
C919 H933 0.958 . S
C919 H934 0.961 . S
C919 H935 0.960 . S
H920 C904 0.931 . S
H921 C909 0.929 . S
H922 C910 0.960 . S
H923 C910 0.962 . S
H924 C910 0.960 . S
H925 C911 0.961 . S
H926 C911 0.961 . S
H927 C911 0.961 . S
H928 C912 0.931 . S
H929 C917 0.930 . S
H930 C918 0.956 . S
H931 C918 0.961 . S
H932 C918 0.961 . S
H933 C919 0.958 . S
H934 C919 0.961 . S
H935 C919 0.960 . S
C936 C937 1.391 . S
C936 C938 1.394 . S
C936 H952 0.931 . S
C937 C936 1.391 . S
C937 C941 1.376 . S
C938 C936 1.394 . S
C938 C939 1.369 . S
C938 C942 1.531 . S
C939 C938 1.369 . S
C939 C940 1.410 . S
C939 C947 1.503 . S
C940 C939 1.410 . S
C940 C941 1.392 . S
C940 C943 1.511 . S
C941 C937 1.376 . S
C941 C940 1.392 . S
C941 H953 0.929 . S
C942 C938 1.531 . S
C942 H954 0.960 . S
C942 H955 0.962 . S
C942 H956 0.960 . S
C943 C940 1.511 . S
C943 H957 0.961 . S
C943 H958 0.961 . S
C943 H959 0.961 . S
C944 C945 1.370 . S
C944 C946 1.363 . S
C944 H960 0.931 . S
C945 C944 1.370 . S
C945 C949 1.408 . S
C946 C944 1.363 . S
C946 C947 1.370 . S
C946 C950 1.524 . S
C947 C939 1.503 . S
C947 C946 1.370 . S
C947 C948 1.403 . S
C948 C947 1.403 . S
C948 C949 1.404 . S
C948 C951 1.539 . S
C949 C945 1.408 . S
C949 C948 1.404 . S
C949 H961 0.930 . S
C950 C946 1.524 . S
C950 H962 0.956 . S
C950 H963 0.961 . S
C950 H964 0.961 . S
C951 C948 1.539 . S
C951 H965 0.958 . S
C951 H966 0.961 . S
C951 H967 0.960 . S
H952 C936 0.931 . S
H953 C941 0.929 . S
H954 C942 0.960 . S
H955 C942 0.962 . S
H956 C942 0.960 . S
H957 C943 0.961 . S
H958 C943 0.961 . S
H959 C943 0.961 . S
H960 C944 0.931 . S
H961 C949 0.930 . S
H962 C950 0.956 . S
H963 C950 0.961 . S
H964 C950 0.961 . S
H965 C951 0.958 . S
H966 C951 0.961 . S
H967 C951 0.960 . S
C968 C969 1.391 . S
C968 C970 1.394 . S
C968 H984 0.931 . S
C969 C968 1.391 . S
C969 C973 1.376 . S
C970 C968 1.394 . S
C970 C971 1.369 . S
C970 C974 1.531 . S
C971 C970 1.369 . S
C971 C972 1.410 . S
C971 C979 1.503 . S
C972 C971 1.410 . S
C972 C973 1.392 . S
C972 C975 1.511 . S
C973 C969 1.376 . S
C973 C972 1.392 . S
C973 H985 0.929 . S
C974 C970 1.531 . S
C974 H986 0.960 . S
C974 H987 0.962 . S
C974 H988 0.960 . S
C975 C972 1.511 . S
C975 H989 0.961 . S
C975 H990 0.961 . S
C975 H991 0.961 . S
C976 C977 1.370 . S
C976 C978 1.363 . S
C976 H992 0.931 . S
C977 C976 1.370 . S
C977 C981 1.408 . S
C978 C976 1.363 . S
C978 C979 1.370 . S
C978 C982 1.524 . S
C979 C971 1.503 . S
C979 C978 1.370 . S
C979 C980 1.403 . S
C980 C979 1.403 . S
C980 C981 1.404 . S
C980 C983 1.539 . S
C981 C977 1.408 . S
C981 C980 1.404 . S
C981 H993 0.930 . S
C982 C978 1.524 . S
C982 H994 0.956 . S
C982 H995 0.961 . S
C982 H996 0.961 . S
C983 C980 1.539 . S
C983 H997 0.958 . S
C983 H998 0.961 . S
C983 H999 0.960 . S
H984 C968 0.931 . S
H985 C973 0.929 . S
H986 C974 0.960 . S
H987 C974 0.962 . S
H988 C974 0.960 . S
H989 C975 0.961 . S
H990 C975 0.961 . S
H991 C975 0.961 . S
H992 C976 0.931 . S
H993 C981 0.930 . S
H994 C982 0.956 . S
H995 C982 0.961 . S
H996 C982 0.961 . S
H997 C983 0.958 . S
H998 C983 0.961 . S
H999 C983 0.960 . S
C233 C6 1.606 . S
C241 C154 1.609 . S
C265 C21 1.785 . S
C273 C173 1.787 . S
C305 C210 1.202 . S
C297 C49 1.167 . S
C329 C68 1.393 . S
C337 C220 1.442 . S
C369 C190 2.589 . S
C361 C2 2.531 . S
C401 C160 1.157 . S
C393 C30 1.035 . S
C433 C231 1.413 . S
C425 C40 1.443 . S
C465 C201 1.244 . S
C457 C63 1.248 . S
C489 C11 1.537 . S
C497 C214 1.691 . S
C529 C181 1.884 . S
C521 C44 1.941 . S
C553 C59 1.472 . S
C561 C171 1.482 . S
C585 C25 1.441 . S
C593 C193 1.426 . S
C625 C153 1.807 . S
C617 C82 1.824 . S
C649 C101 1.585 . S
C657 C174 1.580 . S
C681 C125 1.521 . S
C689 C211 1.594 . S
C713 C144 1.206 . S
C721 C221 1.228 . S
C745 C87 1.581 . S
C753 C191 1.678 . S
C785 C161 2.139 . S
C777 C97 2.179 . S
C817 C230 1.281 . S
C809 C120 1.297 . S
C849 C200 1.222 . S
C841 C135 1.287 . S
C873 C78 1.968 . S
C881 C213 2.012 . S
C913 C180 1.360 . S
C905 C116 1.366 . S
C945 C170 1.973 . S
C937 C139 1.961 . S
C969 C106 1.232 . S
C977 C194 1.331 . S
