# Generated by pormake.
# Topology ssa, (4,4)-cn, num edge types: 1
# Building blocks:
#     Node 0, Type 0, BuildingBlock: KOZSID_clean_sbu_0, # of connection points: 4
#     Node 1, Type 0, BuildingBlock: KOZSID_clean_sbu_0, # of connection points: 4
#     Node 2, Type 0, BuildingBlock: KOZSID_clean_sbu_0, # of connection points: 4
#     Node 3, Type 0, BuildingBlock: KOZSID_clean_sbu_0, # of connection points: 4
#     Node 4, Type 0, BuildingBlock: KOZSID_clean_sbu_0, # of connection points: 4
#     Node 5, Type 0, BuildingBlock: KOZSID_clean_sbu_0, # of connection points: 4
#     Node 6, Type 1, BuildingBlock: MUDLON_clean_linker_0, # of connection points: 4
#     Node 7, Type 1, BuildingBlock: MUDLON_clean_linker_0, # of connection points: 4
#     Node 8, Type 1, BuildingBlock: MUDLON_clean_linker_0, # of connection points: 4
#     Node 9, Type 1, BuildingBlock: MUDLON_clean_linker_0, # of connection points: 4
#     Node 10, Type 1, BuildingBlock: MUDLON_clean_linker_0, # of connection points: 4
#     Node 11, Type 1, BuildingBlock: MUDLON_clean_linker_0, # of connection points: 4
#     Edge 12, Type (0, 1), BuildingBlock: AJUNOK_clean_linker_0, # of connection points: 2
#     Edge 13, Type (0, 1), BuildingBlock: AJUNOK_clean_linker_0, # of connection points: 2
#     Edge 14, Type (0, 1), BuildingBlock: AJUNOK_clean_linker_0, # of connection points: 2
#     Edge 15, Type (0, 1), BuildingBlock: AJUNOK_clean_linker_0, # of connection points: 2
#     Edge 16, Type (0, 1), BuildingBlock: AJUNOK_clean_linker_0, # of connection points: 2
#     Edge 17, Type (0, 1), BuildingBlock: AJUNOK_clean_linker_0, # of connection points: 2
#     Edge 18, Type (0, 1), BuildingBlock: AJUNOK_clean_linker_0, # of connection points: 2
#     Edge 19, Type (0, 1), BuildingBlock: AJUNOK_clean_linker_0, # of connection points: 2
#     Edge 20, Type (0, 1), BuildingBlock: AJUNOK_clean_linker_0, # of connection points: 2
#     Edge 21, Type (0, 1), BuildingBlock: AJUNOK_clean_linker_0, # of connection points: 2
#     Edge 22, Type (0, 1), BuildingBlock: AJUNOK_clean_linker_0, # of connection points: 2
#     Edge 23, Type (0, 1), BuildingBlock: AJUNOK_clean_linker_0, # of connection points: 2
#     Edge 24, Type (0, 1), BuildingBlock: AJUNOK_clean_linker_0, # of connection points: 2
#     Edge 25, Type (0, 1), BuildingBlock: AJUNOK_clean_linker_0, # of connection points: 2
#     Edge 26, Type (0, 1), BuildingBlock: AJUNOK_clean_linker_0, # of connection points: 2
#     Edge 27, Type (0, 1), BuildingBlock: AJUNOK_clean_linker_0, # of connection points: 2
#     Edge 28, Type (0, 1), BuildingBlock: AJUNOK_clean_linker_0, # of connection points: 2
#     Edge 29, Type (0, 1), BuildingBlock: AJUNOK_clean_linker_0, # of connection points: 2
#     Edge 30, Type (0, 1), BuildingBlock: AJUNOK_clean_linker_0, # of connection points: 2
#     Edge 31, Type (0, 1), BuildingBlock: AJUNOK_clean_linker_0, # of connection points: 2
#     Edge 32, Type (0, 1), BuildingBlock: AJUNOK_clean_linker_0, # of connection points: 2
#     Edge 33, Type (0, 1), BuildingBlock: AJUNOK_clean_linker_0, # of connection points: 2
#     Edge 34, Type (0, 1), BuildingBlock: AJUNOK_clean_linker_0, # of connection points: 2
#     Edge 35, Type (0, 1), BuildingBlock: AJUNOK_clean_linker_0, # of connection points: 2
# Relax obj value: 0.008
# Max RMSD: 0.045
# Mean RMSD: 0.026
data_MOF--net-ssa--node1-KOZSID_clean_sbu_0--node2-MUDLON_clean_linker_0--edge1-AJUNOK_clean_linker_0
_symmetry_space_group_name_H-M    P1
_symmetry_Int_Tables_number       1
_symmetry_cell_setting            triclinic
loop_
_symmetry_equiv_pos_as_xyz
'x, y, z'
_cell_length_a     61.234
_cell_length_b     62.7
_cell_length_c     34.714
_cell_angle_alpha  87.039
_cell_angle_beta   89.903
_cell_angle_gamma 122.317
loop_
_atom_site_label
_atom_site_type_symbol
_atom_site_fract_x
_atom_site_fract_y
_atom_site_fract_z
_atom_type_partial_charge
C0 C 0.96872 0.50622 0.03715 0.0
C1 C 0.9469 0.49999 0.05913 0.0
C2 C 0.94701 0.48715 0.09198 0.0
C3 C 0.96892 0.48649 0.08847 0.0
N4 N 0.98288 0.49813 0.05533 0.0
Co5 Co 0.01712 0.50334 0.04028 0.0
N6 N 0.01669 0.48362 0.08811 0.0
C7 C 0.99773 0.47193 0.11594 0.0
C8 C 0.00264 0.45955 0.14494 0.0
C9 C 0.02617 0.46353 0.1351 0.0
C10 C 0.03428 0.47823 0.10054 0.0
N11 N 0.05177 0.50928 0.02578 0.0
C12 C 0.0665 0.5023 0.04492 0.0
C13 C 0.08993 0.51128 0.02548 0.0
C14 C 0.09012 0.52453 0.99295 0.0
C15 C 0.06691 0.52292 0.99442 0.0
N16 N 0.01707 0.52214 0.99166 0.0
C17 C 0.03538 0.53254 0.96278 0.0
C18 C 0.02892 0.5418 0.93128 0.0
C19 C 0.00509 0.53719 0.94055 0.0
C20 C 0.99857 0.5258 0.97776 0.0
N21 N 0.03493 0.53522 0.06774 0.0
C22 C 0.06255 0.57988 0.10791 0.0
C23 C 0.06588 0.58036 0.06796 0.0
C24 C 0.05223 0.55801 0.04871 0.0
C25 C 0.04489 0.55663 0.12721 0.0
C26 C 0.03099 0.53494 0.10669 0.0
N27 N 0.99949 0.47152 0.01296 0.0
C28 C 0.99595 0.4489 0.95672 0.0
C29 C 0.97536 0.42629 0.97397 0.0
C30 C 0.96662 0.42698 0.01087 0.0
C31 C 0.97858 0.4497 0.02941 0.0
C32 C 0.00804 0.4708 0.9769 0.0
H33 H 0.97061 0.44915 0.05702 0.0
H34 H 0.02423 0.48694 0.96256 0.0
H35 H 0.05628 0.55973 0.01848 0.0
H36 H 0.01748 0.51812 0.12326 0.0
C37 C 0.97641 0.4744 0.11518 0.0
C38 C 0.97508 0.51969 0.99914 0.0
C39 C 0.05922 0.48734 0.0815 0.0
C40 C 0.05836 0.53305 0.96602 0.0
H41 H 0.93234 0.50422 0.05219 0.0
H42 H 0.93274 0.47916 0.11557 0.0
H43 H 0.99078 0.44928 0.17056 0.0
H44 H 0.0364 0.45672 0.15178 0.0
H45 H 0.10528 0.5085 0.03399 0.0
H46 H 0.10529 0.53406 0.97072 0.0
H47 H 0.04011 0.55066 0.90463 0.0
H48 H 0.99391 0.54185 0.92189 0.0
H49 H 0.0792 0.59788 0.05153 0.0
H50 H 0.0421 0.55484 0.15828 0.0
H51 H 0.00274 0.45 0.92745 0.0
H52 H 0.9506 0.41011 0.0255 0.0
C53 C 0.56435 0.02906 0.57358 0.0
C54 C 0.56483 0.02219 0.61212 0.0
C55 C 0.54209 0.99984 0.6205 0.0
C56 C 0.52892 0.9945 0.58694 0.0
N57 N 0.54198 0.01186 0.55738 0.0
Co58 Co 0.52847 0.01298 0.50517 0.0
N59 N 0.49452 0.98073 0.5182 0.0
C60 C 0.48802 0.96579 0.55108 0.0
C61 C 0.46365 0.9445 0.55153 0.0
C62 C 0.45415 0.94563 0.51652 0.0
C63 C 0.47344 0.96758 0.49658 0.0
N64 N 0.51438 0.01516 0.45398 0.0
C65 C 0.49118 0.99914 0.43871 0.0
C66 C 0.48957 0.00785 0.40183 0.0
C67 C 0.51242 0.03014 0.39369 0.0
C68 C 0.52672 0.03378 0.42575 0.0
N69 N 0.56298 0.04432 0.49125 0.0
C70 C 0.57071 0.0573 0.45651 0.0
C71 C 0.59578 0.0775 0.45506 0.0
C72 C 0.60456 0.07755 0.49116 0.0
C73 C 0.58413 0.05743 0.51272 0.0
N74 N 0.54125 0.99252 0.48409 0.0
C75 C 0.5581 0.96269 0.45313 0.0
C76 C 0.55575 0.98011 0.4297 0.0
C77 C 0.54774 0.99488 0.44562 0.0
C78 C 0.55208 0.96066 0.49255 0.0
C79 C 0.54345 0.97538 0.50722 0.0
N80 N 0.51575 0.03337 0.52616 0.0
C81 C 0.51757 0.07283 0.52748 0.0
C82 C 0.50023 0.06341 0.55913 0.0
C83 C 0.4902 0.0386 0.57341 0.0
C84 C 0.4983 0.02406 0.55682 0.0
C85 C 0.52477 0.05747 0.51119 0.0
H86 H 0.49052 0.0055 0.56978 0.0
H87 H 0.53793 0.06562 0.48682 0.0
H88 H 0.54692 0.008 0.42596 0.0
H89 H 0.53873 0.97253 0.53739 0.0
C90 C 0.50441 0.97327 0.5821 0.0
C91 C 0.58533 0.05229 0.55384 0.0
C92 C 0.47095 0.97483 0.45698 0.0
C93 C 0.55296 0.05218 0.42779 0.0
H94 H 0.57988 0.03237 0.63236 0.0
H95 H 0.53575 0.98896 0.64794 0.0
H96 H 0.45386 0.93004 0.57473 0.0
H97 H 0.4352 0.93179 0.50671 0.0
H98 H 0.47398 0.99871 0.38208 0.0
H99 H 0.51839 0.04164 0.36681 0.0
H100 H 0.60609 0.0912 0.43111 0.0
H101 H 0.62359 0.09128 0.50086 0.0
H102 H 0.55997 0.98235 0.39891 0.0
H103 H 0.55427 0.94801 0.51224 0.0
H104 H 0.52562 0.09201 0.51553 0.0
H105 H 0.47679 0.03073 0.59813 0.0
C106 C 0.57531 0.54812 0.95225 0.0
C107 C 0.58182 0.56438 0.91962 0.0
C108 C 0.5604 0.56497 0.91112 0.0
C109 C 0.54217 0.54917 0.93899 0.0
N110 N 0.55073 0.53873 0.96506 0.0
Co111 Co 0.53068 0.51451 0.01019 0.0
N112 N 0.49834 0.51312 0.99515 0.0
C113 C 0.49524 0.52481 0.96371 0.0
C114 C 0.47086 0.52045 0.96129 0.0
C115 C 0.45761 0.50525 0.99328 0.0
C116 C 0.47479 0.50123 0.01341 0.0
N117 N 0.51083 0.49087 0.05598 0.0
C118 C 0.48631 0.48169 0.06891 0.0
C119 C 0.48026 0.46662 0.10285 0.0
C120 C 0.5019 0.46661 0.11206 0.0
C121 C 0.51983 0.48159 0.08335 0.0
N122 N 0.56287 0.51533 0.02452 0.0
C123 C 0.56573 0.50275 0.05496 0.0
C124 C 0.58968 0.50595 0.05598 0.0
C125 C 0.60281 0.52113 0.0239 0.0
C126 C 0.58602 0.52635 0.00522 0.0
N127 N 0.54037 0.54353 0.04219 0.0
C128 C 0.55073 0.58254 0.09031 0.0
C129 C 0.55587 0.56407 0.10198 0.0
C130 C 0.55059 0.54493 0.07774 0.0
C131 C 0.54114 0.58171 0.05361 0.0
C132 C 0.53611 0.56216 0.03019 0.0
N133 N 0.52083 0.4854 0.97839 0.0
C134 C 0.5126 0.44346 0.97218 0.0
C135 C 0.50576 0.44358 0.9339 0.0
C136 C 0.50723 0.46524 0.91793 0.0
C137 C 0.51461 0.48571 0.94055 0.0
C138 C 0.52007 0.4644 0.99368 0.0
H139 H 0.51515 0.50156 0.92675 0.0
H140 H 0.52505 0.46306 0.02263 0.0
H141 H 0.55476 0.53137 0.0886 0.0
H142 H 0.52851 0.56239 0.00273 0.0
C143 C 0.51621 0.54168 0.93908 0.0
C144 C 0.5925 0.54084 0.96833 0.0
C145 C 0.46838 0.48739 0.05089 0.0
C146 C 0.5453 0.4875 0.08147 0.0
H147 H 0.59993 0.57416 0.90303 0.0
H148 H 0.55808 0.57494 0.88666 0.0
H149 H 0.46382 0.52816 0.93961 0.0
H150 H 0.43777 0.4985 0.00143 0.0
H151 H 0.46217 0.45694 0.11948 0.0
H152 H 0.50438 0.4571 0.137 0.0
H153 H 0.59658 0.49776 0.07706 0.0
H154 H 0.62234 0.52729 0.01481 0.0
H155 H 0.56407 0.56441 0.12976 0.0
H156 H 0.5371 0.59581 0.04327 0.0
H157 H 0.51187 0.42712 0.98574 0.0
H158 H 0.50287 0.46653 0.88799 0.0
C159 C 0.99639 0.46407 0.55039 0.0
C160 C 0.97426 0.44733 0.5313 0.0
C161 C 0.97329 0.46043 0.49951 0.0
C162 C 0.99492 0.48421 0.50067 0.0
N163 N 0.00992 0.48706 0.53098 0.0
Co164 Co 0.04354 0.51836 0.54284 0.0
N165 N 0.04307 0.53693 0.49425 0.0
C166 C 0.02493 0.52768 0.46705 0.0
C167 C 0.03085 0.54383 0.43519 0.0
C168 C 0.05431 0.56463 0.44216 0.0
C169 C 0.06123 0.5601 0.47839 0.0
N170 N 0.07665 0.54994 0.55537 0.0
C171 C 0.09075 0.57256 0.53507 0.0
C172 C 0.11195 0.58988 0.55521 0.0
C173 C 0.11158 0.5776 0.58903 0.0
C174 C 0.09013 0.55367 0.58779 0.0
N175 N 0.04466 0.49938 0.59047 0.0
C176 C 0.06338 0.50835 0.61681 0.0
C177 C 0.05872 0.49131 0.6469 0.0
C178 C 0.03569 0.47011 0.63939 0.0
C179 C 0.02762 0.47538 0.60476 0.0
N180 N 0.06308 0.50701 0.5139 0.0
C181 C 0.09147 0.49241 0.47083 0.0
C182 C 0.10028 0.50347 0.50601 0.0
C183 C 0.08591 0.51066 0.52689 0.0
C184 C 0.06807 0.48846 0.45798 0.0
C185 C 0.05429 0.49573 0.47978 0.0
N186 N 0.02396 0.52987 0.57189 0.0
C187 C 0.01386 0.54162 0.63157 0.0
C188 C 0.99622 0.54612 0.61344 0.0
C189 C 0.99251 0.54204 0.57414 0.0
C190 C 0.00625 0.53377 0.55421 0.0
C191 C 0.02767 0.53403 0.61039 0.0
H192 H 0.00204 0.53057 0.52457 0.0
H193 H 0.04104 0.53146 0.62613 0.0
H194 H 0.09366 0.51922 0.55337 0.0
H195 H 0.03667 0.49224 0.4682 0.0
C196 C 0.0028 0.50349 0.47191 0.0
C197 C 0.00318 0.4574 0.58745 0.0
C198 C 0.08536 0.5782 0.49625 0.0
C199 C 0.08352 0.53372 0.61477 0.0
H200 H 0.96018 0.42768 0.53958 0.0
H201 H 0.9588 0.45333 0.47773 0.0
H202 H 0.01969 0.54065 0.40958 0.0
H203 H 0.06516 0.58105 0.42234 0.0
H204 H 0.12648 0.60925 0.54603 0.0
H205 H 0.12567 0.58501 0.61136 0.0
H206 H 0.0702 0.49427 0.67207 0.0
H207 H 0.02576 0.45302 0.65805 0.0
H208 H 0.11807 0.50645 0.51752 0.0
H209 H 0.06054 0.48011 0.43076 0.0
H210 H 0.01677 0.54345 0.66227 0.0
H211 H 0.97899 0.54514 0.55871 0.0
C212 C 0.49736 0.99983 0.07034 0.0
C213 C 0.49401 0.00937 0.10352 0.0
C214 C 0.51701 0.03118 0.10913 0.0
C215 C 0.53298 0.03374 0.07914 0.0
N216 N 0.52152 0.01497 0.05448 0.0
Co217 Co 0.53758 0.01112 0.00702 0.0
N218 N 0.57182 0.04242 0.01651 0.0
C219 C 0.57798 0.05712 0.04685 0.0
C220 C 0.60291 0.07763 0.04482 0.0
C221 C 0.61321 0.07613 0.01094 0.0
C222 C 0.59386 0.05471 0.99427 0.0
N223 N 0.55348 0.00754 0.95917 0.0
C224 C 0.57723 0.02331 0.94242 0.0
C225 C 0.58036 0.01431 0.90847 0.0
C226 C 0.55759 0.99219 0.90327 0.0
C227 C 0.54196 0.98901 0.93417 0.0
N228 N 0.50343 0.97959 0.99786 0.0
C229 C 0.49768 0.96419 0.96854 0.0
C230 C 0.47285 0.94356 0.97065 0.0
C231 C 0.46212 0.9457 0.00353 0.0
C232 C 0.48114 0.96764 0.01955 0.0
N233 N 0.52747 0.03186 0.97612 0.0
C234 C 0.5151 0.06244 0.93104 0.0
C235 C 0.50962 0.03927 0.91863 0.0
C236 C 0.51586 0.02437 0.94146 0.0
C237 C 0.52649 0.06983 0.96666 0.0
C238 C 0.53257 0.05446 0.98843 0.0
N239 N 0.54792 0.9905 0.03793 0.0
C240 C 0.55468 0.9558 0.04446 0.0
C241 C 0.56459 0.9627 0.08108 0.0
C242 C 0.56517 0.98319 0.09619 0.0
C243 C 0.55707 0.99681 0.07425 0.0
C244 C 0.54639 0.96976 0.02364 0.0
H245 H 0.5584 0.01235 0.08744 0.0
H246 H 0.53889 0.96342 0.99605 0.0
H247 H 0.51128 0.00696 0.93038 0.0
H248 H 0.54145 0.06134 0.01508 0.0
C249 C 0.55925 0.05256 0.07477 0.0
C250 C 0.47739 0.97577 0.05613 0.0
C251 C 0.59686 0.04756 0.95638 0.0
C252 C 0.51613 0.96936 0.93981 0.0
H253 H 0.47686 0.00111 0.12216 0.0
H254 H 0.52171 0.04337 0.13279 0.0
H255 H 0.61217 0.09243 0.06486 0.0
H256 H 0.63253 0.08959 0.99928 0.0
H257 H 0.5972 0.02312 0.88907 0.0
H258 H 0.5528 0.98018 0.87935 0.0
H259 H 0.46375 0.92855 0.95093 0.0
H260 H 0.44264 0.93244 0.01478 0.0
H261 H 0.50075 0.03274 0.89119 0.0
H262 H 0.53046 0.08729 0.97801 0.0
H263 H 0.55355 0.93984 0.03171 0.0
H264 H 0.57168 0.98868 0.12508 0.0
C265 C 0.53359 0.55476 0.47328 0.0
C266 C 0.52074 0.56684 0.48116 0.0
C267 C 0.5075 0.55615 0.51566 0.0
C268 C 0.51177 0.53724 0.5255 0.0
N269 N 0.52629 0.53488 0.49888 0.0
Co270 Co 0.52976 0.50523 0.49426 0.0
N271 N 0.5135 0.49087 0.54698 0.0
C272 C 0.5047 0.50093 0.5716 0.0
C273 C 0.49542 0.48728 0.60631 0.0
C274 C 0.49862 0.46744 0.60379 0.0
C275 C 0.50963 0.47008 0.56745 0.0
N276 N 0.53258 0.47515 0.48887 0.0
C277 C 0.5261 0.45538 0.51433 0.0
C278 C 0.53123 0.43842 0.49901 0.0
C279 C 0.54118 0.44776 0.46246 0.0
C280 C 0.54161 0.46982 0.45759 0.0
N281 N 0.547 0.52035 0.44224 0.0
C282 C 0.55336 0.50938 0.41569 0.0
C283 C 0.55951 0.52188 0.37999 0.0
C284 C 0.55811 0.54261 0.38473 0.0
C285 C 0.55282 0.54244 0.42372 0.0
N286 N 0.56385 0.52324 0.51784 0.0
C287 C 0.60877 0.54058 0.56007 0.0
C288 C 0.60626 0.52998 0.5246 0.0
C289 C 0.58374 0.52147 0.50404 0.0
C290 C 0.58941 0.5445 0.57206 0.0
C291 C 0.56739 0.53605 0.55033 0.0
N292 N 0.49498 0.48689 0.4706 0.0
C293 C 0.46912 0.47011 0.41437 0.0
C294 C 0.44829 0.46938 0.4322 0.0
C295 C 0.45027 0.47515 0.47075 0.0
C296 C 0.47347 0.48351 0.48934 0.0
C297 C 0.49188 0.47844 0.43412 0.0
H298 H 0.47332 0.48721 0.51874 0.0
H299 H 0.50658 0.47799 0.41888 0.0
H300 H 0.58238 0.51286 0.47759 0.0
H301 H 0.55296 0.53919 0.56088 0.0
C302 C 0.50338 0.52194 0.55985 0.0
C303 C 0.55392 0.5633 0.4432 0.0
C304 C 0.51499 0.45181 0.55309 0.0
C305 C 0.5509 0.48616 0.42441 0.0
H306 H 0.52198 0.58263 0.46475 0.0
H307 H 0.49637 0.5617 0.5318 0.0
H308 H 0.48681 0.49099 0.63024 0.0
H309 H 0.49302 0.45245 0.62593 0.0
H310 H 0.52812 0.4211 0.51285 0.0
H311 H 0.54748 0.43953 0.44196 0.0
H312 H 0.56355 0.51612 0.35342 0.0
H313 H 0.56022 0.55595 0.36173 0.0
H314 H 0.62132 0.52773 0.51314 0.0
H315 H 0.59069 0.55309 0.59893 0.0
H316 H 0.46821 0.465 0.3848 0.0
H317 H 0.43409 0.4735 0.48649 0.0
H318 H 0.35882 0.48366 0.25594 0.0
N319 N 0.32018 0.43801 0.23214 0.0
H320 H 0.38625 0.49009 0.31036 0.0
H321 H 0.31279 0.40376 0.28757 0.0
H322 H 0.33984 0.41018 0.34329 0.0
H323 H 0.33244 0.40833 0.19966 0.0
H324 H 0.36692 0.42092 0.15104 0.0
H325 H 0.34567 0.48321 0.18831 0.0
H326 H 0.37973 0.4957 0.13954 0.0
H327 H 0.32055 0.48179 0.23826 0.0
H328 H 0.2713 0.4017 0.22548 0.0
H329 H 0.28308 0.48562 0.23821 0.0
H330 H 0.23336 0.40479 0.22865 0.0
H331 H 0.17487 0.49212 0.27368 0.0
H332 H 0.16155 0.50344 0.33113 0.0
H333 H 0.12761 0.42713 0.38073 0.0
H334 H 0.13962 0.41551 0.32153 0.0
H335 H 0.1125 0.41599 0.23603 0.0
H336 H 0.09028 0.42727 0.18843 0.0
H337 H 0.1621 0.49761 0.15835 0.0
H338 H 0.18415 0.48623 0.20642 0.0
H339 H 0.20925 0.47823 0.28476 0.0
H340 H 0.24819 0.47772 0.27581 0.0
H341 H 0.20839 0.41729 0.19835 0.0
N342 N 0.16113 0.44437 0.25677 0.0
H343 H 0.16875 0.41652 0.21019 0.0
C344 C 0.33372 0.44312 0.26768 0.0
C345 C 0.35408 0.46759 0.27528 0.0
C346 C 0.36971 0.47128 0.30667 0.0
C347 C 0.36509 0.45064 0.33128 0.0
C348 C 0.34388 0.4264 0.32474 0.0
C349 C 0.32836 0.42272 0.29318 0.0
C350 C 0.33641 0.44469 0.19786 0.0
C351 C 0.34224 0.42723 0.18587 0.0
C352 C 0.36195 0.43446 0.15823 0.0
C353 C 0.37629 0.45942 0.14212 0.0
C354 C 0.36933 0.47649 0.15217 0.0
C355 C 0.3496 0.46923 0.17988 0.0
C356 C 0.29874 0.44142 0.23098 0.0
C357 C 0.3017 0.46501 0.23502 0.0
C358 C 0.28005 0.46709 0.23566 0.0
C359 C 0.25494 0.44554 0.23336 0.0
C360 C 0.25224 0.42199 0.22946 0.0
C361 C 0.2739 0.42007 0.22797 0.0
C362 C 0.15774 0.45273 0.29302 0.0
C363 C 0.16477 0.47784 0.29695 0.0
C364 C 0.1575 0.48442 0.33025 0.0
C365 C 0.14361 0.46622 0.36071 0.0
C366 C 0.13812 0.44154 0.35766 0.0
C367 C 0.14506 0.43488 0.32405 0.0
C368 C 0.14982 0.45022 0.2248 0.0
C369 C 0.12348 0.43361 0.21865 0.0
C370 C 0.11088 0.44008 0.19149 0.0
C371 C 0.12442 0.46344 0.17005 0.0
C372 C 0.15113 0.47967 0.17497 0.0
C373 C 0.16376 0.47313 0.20215 0.0
C374 C 0.18565 0.44695 0.24867 0.0
C375 C 0.2087 0.46477 0.26591 0.0
C376 C 0.23128 0.46467 0.26035 0.0
C377 C 0.23158 0.44722 0.23669 0.0
C378 C 0.20886 0.43049 0.21775 0.0
C379 C 0.18618 0.43019 0.22408 0.0
H380 H 0.70775 0.10128 0.76886 0.0
N381 N 0.72371 0.14725 0.73851 0.0
H382 H 0.67905 0.07941 0.82583 0.0
H383 H 0.70727 0.16824 0.78959 0.0
H384 H 0.67935 0.14685 0.84685 0.0
H385 H 0.68207 0.15181 0.72766 0.0
H386 H 0.6503 0.13187 0.67836 0.0
H387 H 0.73023 0.13015 0.67383 0.0
H388 H 0.69961 0.11214 0.62199 0.0
H389 H 0.76997 0.15367 0.73943 0.0
H390 H 0.73165 0.1946 0.73674 0.0
H391 H 0.81156 0.19294 0.74471 0.0
H392 H 0.77289 0.23397 0.74585 0.0
H393 H 0.93231 0.30665 0.8134 0.0
H394 H 0.94848 0.32799 0.87322 0.0
H395 H 0.89071 0.34777 0.87007 0.0
H396 H 0.87199 0.32232 0.81471 0.0
H397 H 0.89666 0.35006 0.76368 0.0
H398 H 0.92124 0.38476 0.71742 0.0
H399 H 0.94167 0.33967 0.65466 0.0
H400 H 0.91963 0.30557 0.70541 0.0
H401 H 0.8779 0.25863 0.79751 0.0
H402 H 0.83545 0.22105 0.78957 0.0
H403 H 0.81339 0.26627 0.72229 0.0
N404 N 0.89589 0.30547 0.77005 0.0
H405 H 0.85525 0.3041 0.73345 0.0
C406 C 0.70974 0.13633 0.7749 0.0
C407 C 0.70191 0.1114 0.78616 0.0
C408 C 0.68559 0.09901 0.81865 0.0
C409 C 0.67676 0.11138 0.84043 0.0
C410 C 0.68551 0.13674 0.83015 0.0
C411 C 0.70177 0.14909 0.79757 0.0
C412 C 0.70828 0.14189 0.70488 0.0
C413 C 0.68626 0.14354 0.70445 0.0
C414 C 0.66817 0.13236 0.67575 0.0
C415 C 0.67225 0.12021 0.64613 0.0
C416 C 0.69558 0.12088 0.64474 0.0
C417 C 0.71326 0.1314 0.67404 0.0
C418 C 0.74782 0.17119 0.73868 0.0
C419 C 0.77064 0.17126 0.74036 0.0
C420 C 0.79435 0.19375 0.74396 0.0
C421 C 0.79573 0.21676 0.74698 0.0
C422 C 0.77276 0.21675 0.74372 0.0
C423 C 0.74904 0.19418 0.73905 0.0
C424 C 0.90194 0.31418 0.80853 0.0
C425 C 0.92282 0.31507 0.82643 0.0
C426 C 0.93242 0.32788 0.86011 0.0
C427 C 0.92232 0.34147 0.87507 0.0
C428 C 0.89957 0.33816 0.85925 0.0
C429 C 0.88899 0.32391 0.82706 0.0
C430 C 0.90695 0.32516 0.73917 0.0
C431 C 0.90659 0.34737 0.74066 0.0
C432 C 0.92021 0.3673 0.713 0.0
C433 C 0.93321 0.36511 0.68151 0.0
C434 C 0.93218 0.34225 0.67868 0.0
C435 C 0.91942 0.32263 0.70746 0.0
C436 C 0.87001 0.28409 0.76571 0.0
C437 C 0.86376 0.26041 0.78139 0.0
C438 C 0.83952 0.23887 0.77628 0.0
C439 C 0.82097 0.24031 0.75433 0.0
C440 C 0.82701 0.26428 0.73943 0.0
C441 C 0.85116 0.28601 0.74548 0.0
H442 H 0.56361 0.85161 0.32145 0.0
N443 N 0.61003 0.87418 0.28151 0.0
H444 H 0.55196 0.87169 0.36855 0.0
H445 H 0.64271 0.91427 0.31947 0.0
H446 H 0.63205 0.93314 0.37027 0.0
H447 H 0.6429 0.9043 0.22439 0.0
H448 H 0.63385 0.92369 0.16862 0.0
H449 H 0.56192 0.8617 0.25802 0.0
H450 H 0.55309 0.88214 0.20458 0.0
H451 H 0.56983 0.82805 0.2605 0.0
H452 H 0.64526 0.86601 0.30932 0.0
H453 H 0.56935 0.7889 0.26141 0.0
H454 H 0.64436 0.82659 0.31277 0.0
H455 H 0.57153 0.69111 0.33844 0.0
H456 H 0.56685 0.66021 0.38852 0.0
H457 H 0.64192 0.67497 0.35551 0.0
H458 H 0.64659 0.70618 0.30517 0.0
H459 H 0.63616 0.71311 0.22228 0.0
H460 H 0.61919 0.68197 0.17298 0.0
H461 H 0.54193 0.64964 0.22117 0.0
H462 H 0.55917 0.68003 0.27119 0.0
H463 H 0.56725 0.71686 0.2954 0.0
H464 H 0.56628 0.75498 0.29841 0.0
H465 H 0.64866 0.80036 0.27268 0.0
N466 N 0.61037 0.71457 0.28245 0.0
H467 H 0.64957 0.76195 0.27227 0.0
C468 C 0.60389 0.88201 0.31601 0.0
C469 C 0.57861 0.86941 0.33198 0.0
C470 C 0.5721 0.88072 0.35969 0.0
C471 C 0.59103 0.90425 0.37325 0.0
C472 C 0.61683 0.91536 0.3599 0.0
C473 C 0.62307 0.90451 0.3312 0.0
C474 C 0.60333 0.88195 0.24592 0.0
C475 C 0.62319 0.899 0.2196 0.0
C476 C 0.61801 0.9103 0.18812 0.0
C477 C 0.59287 0.9051 0.18289 0.0
C478 C 0.5727 0.8867 0.20783 0.0
C479 C 0.57782 0.87511 0.23882 0.0
C480 C 0.60792 0.85016 0.28417 0.0
C481 C 0.58622 0.82795 0.27174 0.0
C482 C 0.58588 0.80541 0.27267 0.0
C483 C 0.60697 0.8045 0.28673 0.0
C484 C 0.62808 0.8266 0.30069 0.0
C485 C 0.62857 0.84913 0.29913 0.0
C486 C 0.60952 0.70106 0.31786 0.0
C487 C 0.58745 0.68855 0.34269 0.0
C488 C 0.58482 0.67086 0.37159 0.0
C489 C 0.604 0.66516 0.37584 0.0
C490 C 0.62683 0.67899 0.35284 0.0
C491 C 0.62955 0.69685 0.32423 0.0
C492 C 0.59905 0.69903 0.25026 0.0
C493 C 0.61552 0.6996 0.22164 0.0
C494 C 0.60578 0.68182 0.19356 0.0
C495 C 0.57927 0.66309 0.1936 0.0
C496 C 0.56253 0.66348 0.22095 0.0
C497 C 0.57234 0.68114 0.24926 0.0
C498 C 0.60871 0.73655 0.28434 0.0
C499 C 0.5852 0.73492 0.29113 0.0
C500 C 0.58461 0.75689 0.2923 0.0
C501 C 0.60741 0.78094 0.28604 0.0
C502 C 0.63078 0.78233 0.27865 0.0
C503 C 0.63137 0.76039 0.27808 0.0
H504 H 0.9078 0.5934 0.86684 0.0
N505 N 0.88745 0.56653 0.80485 0.0
H506 H 0.92259 0.58154 0.92436 0.0
H507 H 0.87779 0.5194 0.82547 0.0
H508 H 0.89665 0.50908 0.87852 0.0
H509 H 0.87518 0.52601 0.76278 0.0
H510 H 0.90211 0.52467 0.71318 0.0
H511 H 0.92918 0.60613 0.76902 0.0
H512 H 0.95541 0.60543 0.7162 0.0
H513 H 0.87959 0.60143 0.82941 0.0
H514 H 0.84201 0.53111 0.77356 0.0
H515 H 0.84094 0.60297 0.82418 0.0
H516 H 0.80433 0.53383 0.76382 0.0
H517 H 0.71905 0.60967 0.8007 0.0
H518 H 0.68682 0.60026 0.85172 0.0
H519 H 0.67469 0.52622 0.87375 0.0
H520 H 0.70625 0.53541 0.82264 0.0
H521 H 0.69099 0.53191 0.75547 0.0
H522 H 0.66411 0.5231 0.6996 0.0
H523 H 0.7146 0.6004 0.65451 0.0
H524 H 0.74067 0.60941 0.71202 0.0
H525 H 0.78017 0.61534 0.77827 0.0
H526 H 0.81784 0.61206 0.78444 0.0
H527 H 0.76795 0.53044 0.7861 0.0
N528 N 0.73125 0.57841 0.77364 0.0
H529 H 0.73108 0.53446 0.77524 0.0
C530 C 0.89252 0.55774 0.8409 0.0
C531 C 0.90461 0.57468 0.86993 0.0
C532 C 0.91375 0.56806 0.90238 0.0
C533 C 0.91243 0.54488 0.90534 0.0
C534 C 0.8985 0.52725 0.8775 0.0
C535 C 0.88805 0.53336 0.84628 0.0
C536 C 0.90049 0.56615 0.77049 0.0
C537 C 0.89261 0.54349 0.75308 0.0
C538 C 0.90802 0.54278 0.72418 0.0
C539 C 0.93139 0.56482 0.71125 0.0
C540 C 0.93814 0.58789 0.72652 0.0
C541 C 0.92298 0.58843 0.75624 0.0
C542 C 0.86393 0.56636 0.80164 0.0
C543 C 0.86302 0.58641 0.81564 0.0
C544 C 0.84091 0.58744 0.81191 0.0
C545 C 0.8193 0.56881 0.79276 0.0
C546 C 0.82022 0.54848 0.77912 0.0
C547 C 0.84211 0.54705 0.78413 0.0
C548 C 0.71522 0.57342 0.80762 0.0
C549 C 0.70975 0.5916 0.81705 0.0
C550 C 0.69138 0.58619 0.84613 0.0
C551 C 0.678 0.56236 0.86625 0.0
C552 C 0.68436 0.54456 0.85815 0.0
C553 C 0.7027 0.54996 0.82902 0.0
C554 C 0.71776 0.57147 0.73804 0.0
C555 C 0.69656 0.54688 0.73337 0.0
C556 C 0.6813 0.54179 0.70107 0.0
C557 C 0.68729 0.56102 0.67237 0.0
C558 C 0.70937 0.58523 0.6762 0.0
C559 C 0.72438 0.59038 0.7088 0.0
C560 C 0.75278 0.57524 0.77743 0.0
C561 C 0.77753 0.5968 0.77983 0.0
C562 C 0.79903 0.59476 0.7839 0.0
C563 C 0.79624 0.57089 0.78679 0.0
C564 C 0.77123 0.54922 0.7838 0.0
C565 C 0.74984 0.55141 0.77838 0.0
H566 H 0.17895 0.67245 0.30307 0.0
N567 N 0.17357 0.7129 0.2888 0.0
H568 H 0.16181 0.64313 0.35899 0.0
H569 H 0.15849 0.72041 0.35593 0.0
H570 H 0.1442 0.69257 0.41487 0.0
H571 H 0.13034 0.70709 0.26129 0.0
H572 H 0.10387 0.67943 0.2111 0.0
H573 H 0.18755 0.68864 0.2405 0.0
H574 H 0.16001 0.65869 0.19408 0.0
H575 H 0.22089 0.71925 0.27687 0.0
H576 H 0.18154 0.75861 0.28855 0.0
H577 H 0.26217 0.75973 0.26607 0.0
H578 H 0.22256 0.79908 0.28041 0.0
H579 H 0.38337 0.88156 0.27352 0.0
H580 H 0.41286 0.90128 0.32497 0.0
H581 H 0.3583 0.91487 0.37988 0.0
H582 H 0.3299 0.89744 0.32529 0.0
H583 H 0.35672 0.927 0.22667 0.0
H584 H 0.38794 0.94727 0.17208 0.0
H585 H 0.38615 0.87817 0.15989 0.0
H586 H 0.3552 0.85813 0.21488 0.0
H587 H 0.33399 0.83765 0.29094 0.0
H588 H 0.29408 0.79591 0.2963 0.0
H589 H 0.25434 0.82639 0.23468 0.0
N590 N 0.33908 0.88165 0.26099 0.0
H591 H 0.29388 0.86828 0.23195 0.0
C592 C 0.16906 0.69823 0.32462 0.0
C593 C 0.17138 0.67709 0.32708 0.0
C594 C 0.16208 0.66049 0.3599 0.0
C595 C 0.15153 0.66533 0.39188 0.0
C596 C 0.15165 0.68788 0.3906 0.0
C597 C 0.16001 0.70395 0.35711 0.0
C598 C 0.16045 0.69931 0.25557 0.0
C599 C 0.13707 0.69692 0.24601 0.0
C600 C 0.12176 0.68071 0.21785 0.0
C601 C 0.12911 0.66577 0.19977 0.0
C602 C 0.15349 0.66961 0.20758 0.0
C603 C 0.16921 0.68657 0.23463 0.0
C604 C 0.19819 0.73612 0.2827 0.0
C605 C 0.22117 0.73665 0.27687 0.0
C606 C 0.24479 0.75984 0.27123 0.0
C607 C 0.2458 0.78282 0.27192 0.0
C608 C 0.22262 0.78193 0.27851 0.0
C609 C 0.19913 0.75884 0.28353 0.0
C610 C 0.35462 0.8887 0.29486 0.0
C611 C 0.37759 0.88872 0.29648 0.0
C612 C 0.39435 0.89961 0.32667 0.0
C613 C 0.38801 0.90962 0.35699 0.0
C614 C 0.36404 0.90774 0.35675 0.0
C615 C 0.34767 0.8976 0.3258 0.0
C616 C 0.35371 0.89119 0.22485 0.0
C617 C 0.36265 0.9161 0.21161 0.0
C618 C 0.38043 0.9276 0.18052 0.0
C619 C 0.38969 0.91436 0.16219 0.0
C620 C 0.37961 0.88889 0.17398 0.0
C621 C 0.36175 0.87736 0.20509 0.0
C622 C 0.31666 0.85625 0.26188 0.0
C623 C 0.31663 0.83536 0.27883 0.0
C624 C 0.2938 0.81137 0.28148 0.0
C625 C 0.27074 0.80774 0.26653 0.0
C626 C 0.2714 0.82851 0.24767 0.0
C627 C 0.29403 0.85246 0.24572 0.0
H628 H 0.42837 0.10174 0.72799 0.0
N629 N 0.45638 0.14885 0.74889 0.0
H630 H 0.43844 0.08336 0.67587 0.0
H631 H 0.49195 0.17591 0.68888 0.0
H632 H 0.50118 0.15788 0.63551 0.0
H633 H 0.50628 0.16095 0.75409 0.0
H634 H 0.52172 0.14237 0.80146 0.0
H635 H 0.43229 0.12339 0.81479 0.0
H636 H 0.44807 0.10576 0.86381 0.0
H637 H 0.41657 0.15446 0.74922 0.0
H638 H 0.49977 0.19672 0.74831 0.0
H639 H 0.41716 0.19363 0.74991 0.0
H640 H 0.50083 0.23627 0.74643 0.0
H641 H 0.42819 0.32481 0.71566 0.0
H642 H 0.44229 0.3573 0.66283 0.0
H643 H 0.51442 0.36082 0.65167 0.0
H644 H 0.50017 0.32832 0.70484 0.0
H645 H 0.50495 0.34511 0.7689 0.0
H646 H 0.51581 0.37561 0.81759 0.0
H647 H 0.43562 0.33541 0.85619 0.0
H648 H 0.42467 0.30546 0.80592 0.0
H649 H 0.42422 0.26686 0.71461 0.0
H650 H 0.42562 0.22885 0.71198 0.0
H651 H 0.49326 0.26259 0.78188 0.0
N652 N 0.45591 0.30862 0.74954 0.0
H653 H 0.49266 0.30104 0.78211 0.0
C654 C 0.45932 0.14011 0.71271 0.0
C655 C 0.44392 0.11416 0.70735 0.0
C656 C 0.44973 0.1037 0.67753 0.0
C657 C 0.47101 0.1191 0.65203 0.0
C658 C 0.48518 0.14541 0.65543 0.0
C659 C 0.47962 0.15582 0.68576 0.0
C660 C 0.46796 0.14332 0.78081 0.0
C661 C 0.49365 0.14944 0.77842 0.0
C662 C 0.50253 0.13889 0.80575 0.0
C663 C 0.48611 0.12253 0.83645 0.0
C664 C 0.46109 0.11805 0.84026 0.0
C665 C 0.45211 0.12828 0.81259 0.0
C666 C 0.45799 0.17264 0.74824 0.0
C667 C 0.43498 0.17231 0.74859 0.0
C668 C 0.43544 0.19481 0.74864 0.0
C669 C 0.45907 0.21834 0.74774 0.0
C670 C 0.48224 0.2186 0.74752 0.0
C671 C 0.48171 0.19597 0.74814 0.0
C672 C 0.46304 0.32416 0.71407 0.0
C673 C 0.44672 0.3321 0.70104 0.0
C674 C 0.45479 0.35059 0.67087 0.0
C675 C 0.4794 0.36146 0.65306 0.0
C676 C 0.49537 0.35273 0.66498 0.0
C677 C 0.48721 0.33412 0.69516 0.0
C678 C 0.46381 0.32308 0.78344 0.0
C679 C 0.48971 0.34254 0.78815 0.0
C680 C 0.49594 0.35999 0.81613 0.0
C681 C 0.47647 0.3583 0.84004 0.0
C682 C 0.45093 0.33765 0.83737 0.0
C683 C 0.44468 0.32032 0.80913 0.0
C684 C 0.45799 0.28674 0.74887 0.0
C685 C 0.43941 0.26604 0.72918 0.0
C686 C 0.44014 0.24422 0.72805 0.0
C687 C 0.45933 0.24232 0.74724 0.0
C688 C 0.4783 0.26332 0.76646 0.0
C689 C 0.47781 0.28539 0.76697 0.0
C690 C 0.07674 0.46001 0.09693 0.0
C691 C 0.07795 0.48274 0.1011 0.0
C692 C 0.09257 0.45428 0.11833 0.0
C693 C 0.11011 0.47116 0.14447 0.0
H694 H 0.06302 0.44634 0.07777 0.0
H695 H 0.09073 0.43631 0.11496 0.0
S696 S 0.12024 0.53326 0.16529 0.0
N697 N 0.09788 0.5223 0.13242 0.0
N698 N 0.12761 0.51164 0.17301 0.0
C699 C 0.11181 0.49426 0.14806 0.0
C700 C 0.09567 0.50001 0.1263 0.0
C701 C 0.62506 0.06372 0.59012 0.0
C702 C 0.60816 0.07055 0.5755 0.0
C703 C 0.646 0.08016 0.6121 0.0
C704 C 0.65114 0.1043 0.61972 0.0
H705 H 0.6217 0.04528 0.58524 0.0
H706 H 0.65778 0.07352 0.62415 0.0
S707 S 0.61356 0.13179 0.58437 0.0
N708 N 0.59816 0.10309 0.56835 0.0
N709 N 0.63833 0.13472 0.60802 0.0
C710 C 0.63481 0.11166 0.60381 0.0
C711 C 0.61319 0.09466 0.58199 0.0
C712 C 0.57073 0.62831 0.10269 0.0
C713 C 0.55582 0.60274 0.1162 0.0
C714 C 0.57762 0.64772 0.12762 0.0
C715 C 0.56967 0.64228 0.16689 0.0
H716 H 0.57781 0.63336 0.07293 0.0
H717 H 0.58958 0.66716 0.11619 0.0
S718 S 0.52898 0.57827 0.21585 0.0
N719 N 0.53201 0.57295 0.17067 0.0
N720 N 0.54545 0.60932 0.21775 0.0
C721 C 0.55407 0.61675 0.18041 0.0
C722 C 0.54707 0.59702 0.15504 0.0
C723 C 0.95416 0.54206 0.62991 0.0
C724 C 0.9808 0.5536 0.63586 0.0
C725 C 0.93865 0.54679 0.65314 0.0
C726 C 0.94899 0.56301 0.68368 0.0
H727 H 0.94494 0.52852 0.60801 0.0
H728 H 0.91819 0.53712 0.64767 0.0
S729 S 0.01812 0.59971 0.70927 0.0
N730 N 0.01736 0.58401 0.67206 0.0
N731 N 0.98797 0.5915 0.71748 0.0
C732 C 0.97581 0.57542 0.68905 0.0
C733 C 0.99171 0.57098 0.66484 0.0
C734 C 0.43135 0.95791 0.07689 0.0
C735 C 0.45436 0.95834 0.08121 0.0
C736 C 0.41011 0.94295 0.1025 0.0
C737 C 0.41125 0.92791 0.13302 0.0
H738 H 0.43002 0.96961 0.05414 0.0
H739 H 0.39281 0.94343 0.09878 0.0
S740 S 0.46758 0.9229 0.15605 0.0
N741 N 0.4773 0.94269 0.11743 0.0
N742 N 0.43754 0.91463 0.1659 0.0
C743 C 0.43414 0.92794 0.13699 0.0
C744 C 0.45569 0.9432 0.11099 0.0
C745 C 0.52151 0.42793 0.60694 0.0
C746 C 0.5065 0.42808 0.57659 0.0
C747 C 0.51302 0.40594 0.63068 0.0
C748 C 0.48921 0.38349 0.62486 0.0
H749 H 0.53965 0.44504 0.61274 0.0
H750 H 0.52476 0.40676 0.65457 0.0
S751 S 0.4438 0.37414 0.54736 0.0
N752 N 0.46754 0.40409 0.54063 0.0
N753 N 0.45152 0.36258 0.58504 0.0
C754 C 0.47442 0.38336 0.59381 0.0
C755 C 0.48311 0.40573 0.56968 0.0
C756 C 0.58737 0.95886 0.40757 0.0
C757 C 0.56731 0.9474 0.43601 0.0
C758 C 0.59519 0.94484 0.38839 0.0
C759 C 0.58369 0.91873 0.3972 0.0
H760 H 0.59695 0.97887 0.39949 0.0
H761 H 0.60988 0.95456 0.36552 0.0
S762 S 0.53164 0.87986 0.47166 0.0
N763 N 0.53645 0.90835 0.47288 0.0
N764 N 0.55243 0.88231 0.43863 0.0
C765 C 0.56434 0.90717 0.42682 0.0
C766 C 0.55596 0.92142 0.44589 0.0
C767 C 0.63928 0.56704 0.94746 0.0
C768 C 0.61468 0.54518 0.94429 0.0
C769 C 0.65989 0.57227 0.92259 0.0
C770 C 0.65648 0.55571 0.89397 0.0
H771 H 0.64243 0.58036 0.96877 0.0
H772 H 0.67855 0.58946 0.92556 0.0
S773 S 0.59524 0.49611 0.87416 0.0
N774 N 0.58774 0.50698 0.91091 0.0
N775 N 0.62626 0.51669 0.86385 0.0
C776 C 0.63188 0.5336 0.89102 0.0
C777 C 0.611 0.52839 0.91627 0.0
C778 C 0.09766 0.6199 0.46383 0.0
C779 C 0.10441 0.60233 0.47451 0.0
C780 C 0.11363 0.64086 0.43854 0.0
C781 C 0.13739 0.64549 0.42385 0.0
H782 H 0.07922 0.61664 0.47347 0.0
H783 H 0.10652 0.6527 0.42897 0.0
S784 S 0.1659 0.60735 0.44971 0.0
N785 N 0.13724 0.59192 0.47219 0.0
N786 N 0.16848 0.6325 0.42719 0.0
C787 C 0.14533 0.62912 0.43728 0.0
C788 C 0.12861 0.60733 0.46212 0.0
C789 C 0.48369 0.06734 0.89164 0.0
C790 C 0.5083 0.0784 0.90743 0.0
C791 C 0.47665 0.08187 0.8694 0.0
C792 C 0.49392 0.1081 0.86201 0.0
H793 H 0.46967 0.04726 0.89667 0.0
H794 H 0.45764 0.07234 0.85729 0.0
S795 S 0.56078 0.14625 0.89665 0.0
N796 N 0.5502 0.11711 0.91362 0.0
N797 N 0.53665 0.1446 0.87285 0.0
C798 C 0.51857 0.11945 0.8778 0.0
C799 C 0.5258 0.1046 0.90033 0.0
C800 C 0.414 0.44276 0.38633 0.0
C801 C 0.42509 0.46328 0.41016 0.0
C802 C 0.39382 0.4382 0.3622 0.0
C803 C 0.38401 0.45403 0.36085 0.0
H804 H 0.42133 0.43042 0.38576 0.0
H805 H 0.38658 0.42274 0.34329 0.0
S806 S 0.40523 0.50937 0.41926 0.0
N807 N 0.42415 0.49906 0.43194 0.0
N808 N 0.38573 0.49004 0.38723 0.0
C809 C 0.39423 0.47402 0.3856 0.0
C810 C 0.41483 0.47871 0.41016 0.0
C811 C 0.93541 0.38632 0.95457 0.0
C812 C 0.96252 0.40262 0.95271 0.0
C813 C 0.92273 0.36571 0.93121 0.0
C814 C 0.9365 0.36081 0.90416 0.0
H815 H 0.9237 0.39 0.9731 0.0
H816 H 0.90184 0.35398 0.93369 0.0
S817 S 0.00821 0.39626 0.89128 0.0
N818 N 0.00297 0.41025 0.9258 0.0
N819 N 0.97929 0.37365 0.87869 0.0
C820 C 0.96377 0.3764 0.90327 0.0
C821 C 0.97669 0.39676 0.92819 0.0
C822 C 0.93256 0.50829 0.9715 0.0
C823 C 0.95761 0.52699 0.98146 0.0
C824 C 0.91737 0.51452 0.9494 0.0
C825 C 0.92701 0.5396 0.93501 0.0
H826 H 0.92498 0.48858 0.97973 0.0
H827 H 0.89822 0.49931 0.94243 0.0
S828 S 0.99135 0.59571 0.95605 0.0
N829 N 0.99047 0.57172 0.97964 0.0
N830 N 0.9635 0.58343 0.93445 0.0
C831 C 0.95181 0.55863 0.94645 0.0
C832 C 0.96671 0.5523 0.97047 0.0
C833 C 0.43074 0.96293 0.42146 0.0
C834 C 0.44854 0.9568 0.43437 0.0
C835 C 0.41077 0.94716 0.39749 0.0
C836 C 0.4074 0.92428 0.38635 0.0
H837 H 0.43285 0.9805 0.42887 0.0
H838 H 0.3985 0.9535 0.38648 0.0
S839 S 0.44698 0.89814 0.41769 0.0
N840 N 0.46082 0.92585 0.43686 0.0
N841 N 0.42206 0.89507 0.39436 0.0
C842 C 0.42422 0.91724 0.40132 0.0
C843 C 0.44501 0.93372 0.42479 0.0
C844 C 0.51168 0.40964 0.91089 0.0
C845 C 0.49738 0.42128 0.9108 0.0
C846 C 0.50452 0.38898 0.88859 0.0
C847 C 0.48269 0.37906 0.86553 0.0
H848 H 0.52884 0.41687 0.92777 0.0
H849 H 0.51624 0.38078 0.88927 0.0
S850 S 0.4384 0.40235 0.85583 0.0
N851 N 0.45988 0.42082 0.88671 0.0
N852 N 0.44689 0.38256 0.84388 0.0
C853 C 0.46806 0.39035 0.86553 0.0
C854 C 0.47532 0.41134 0.8883 0.0
C855 C 0.09325 0.46155 0.43029 0.0
C856 C 0.10631 0.48507 0.44698 0.0
C857 C 0.10585 0.45522 0.40386 0.0
C858 C 0.13209 0.4721 0.3931 0.0
H859 H 0.07288 0.44814 0.43692 0.0
H860 H 0.09455 0.43738 0.39048 0.0
S861 S 0.17572 0.53516 0.43123 0.0
N862 N 0.14734 0.52482 0.45246 0.0
N863 N 0.17133 0.5125 0.40382 0.0
C864 C 0.14577 0.49516 0.4111 0.0
C865 C 0.13284 0.50171 0.43788 0.0
C866 C 0.64162 0.06693 0.92842 0.0
C867 C 0.61829 0.06611 0.9297 0.0
C868 C 0.66085 0.08227 0.90011 0.0
C869 C 0.65729 0.09724 0.87234 0.0
H870 H 0.64465 0.05512 0.94872 0.0
H871 H 0.67845 0.0821 0.89953 0.0
S872 S 0.59917 0.10136 0.86423 0.0
N873 N 0.5925 0.08139 0.9019 0.0
N874 N 0.62843 0.11014 0.8483 0.0
C875 C 0.63412 0.09689 0.8741 0.0
C876 C 0.61463 0.08128 0.9029 0.0
C877 C 0.58972 0.59932 0.39878 0.0
C878 C 0.57353 0.59132 0.43241 0.0
C879 C 0.60074 0.62372 0.38147 0.0
C880 C 0.59792 0.64187 0.39875 0.0
H881 H 0.59418 0.58716 0.38487 0.0
H882 H 0.61056 0.62797 0.35352 0.0
S883 S 0.57592 0.63691 0.49987 0.0
N884 N 0.56903 0.60824 0.49193 0.0
N885 N 0.58832 0.65382 0.45866 0.0
C886 C 0.58744 0.63616 0.4365 0.0
C887 C 0.5762 0.61115 0.45404 0.0
C888 C 0.46785 0.07303 0.58178 0.0
C889 C 0.49365 0.07966 0.57884 0.0
C890 C 0.46088 0.08671 0.60391 0.0
C891 C 0.47941 0.10725 0.6244 0.0
H892 H 0.45292 0.05688 0.56742 0.0
H893 H 0.44071 0.08076 0.60575 0.0
S894 S 0.54959 0.13146 0.62656 0.0
N895 N 0.53781 0.10794 0.59758 0.0
N896 N 0.52479 0.13317 0.64041 0.0
C897 C 0.50542 0.11426 0.62101 0.0
C898 C 0.5125 0.10055 0.59798 0.0
C899 C 0.4206 0.4602 0.06451 0.0
C900 C 0.44474 0.48133 0.07277 0.0
C901 C 0.39835 0.45355 0.08647 0.0
C902 C 0.39959 0.46791 0.11724 0.0
H903 H 0.41904 0.44858 0.04133 0.0
H904 H 0.38009 0.43695 0.07957 0.0
S905 S 0.45876 0.52482 0.15034 0.0
N906 N 0.46892 0.51655 0.11323 0.0
N907 N 0.42728 0.50406 0.15499 0.0
C908 C 0.42374 0.48928 0.12537 0.0
C909 C 0.4463 0.49596 0.10303 0.0
C910 C 0.99057 0.4149 0.61779 0.0
C911 C 0.98425 0.43304 0.609 0.0
C912 C 0.97366 0.39267 0.64026 0.0
C913 C 0.94937 0.38731 0.6537 0.0
H914 H 0.0091 0.41834 0.60825 0.0
H915 H 0.98017 0.38007 0.64819 0.0
S916 S 0.92224 0.42728 0.63281 0.0
N917 N 0.95173 0.4438 0.61315 0.0
N918 N 0.91867 0.40082 0.65157 0.0
C919 C 0.94217 0.40463 0.64256 0.0
C920 C 0.95987 0.42773 0.62111 0.0
C921 C 0.55841 0.92168 0.10734 0.0
C922 C 0.57359 0.94827 0.104 0.0
C923 C 0.56532 0.90781 0.13168 0.0
C924 C 0.58768 0.91997 0.15365 0.0
H925 H 0.54056 0.91151 0.09209 0.0
H926 H 0.55274 0.88739 0.13391 0.0
S927 S 0.63499 0.98926 0.153 0.0
N928 N 0.61307 0.98617 0.12229 0.0
N929 N 0.62541 0.96028 0.16939 0.0
C930 C 0.60349 0.94654 0.14952 0.0
C931 C 0.59658 0.96063 0.12445 0.0
C932 C 0.64307 0.56907 0.60481 0.0
C933 C 0.63067 0.54651 0.58546 0.0
C934 C 0.66196 0.57394 0.63179 0.0
C935 C 0.66928 0.55648 0.64054 0.0
H936 H 0.63781 0.58292 0.59957 0.0
H937 H 0.6702 0.59116 0.64692 0.0
S938 S 0.64387 0.4952 0.59628 0.0
N939 N 0.62758 0.50676 0.5763 0.0
N940 N 0.66388 0.51647 0.62576 0.0
C941 C 0.65777 0.53428 0.62035 0.0
C942 C 0.63835 0.5292 0.59308 0.0
C943 C 0.1049 0.61968 0.1198 0.0
C944 C 0.07842 0.6031 0.12952 0.0
C945 C 0.12082 0.64041 0.14164 0.0
C946 C 0.11111 0.6453 0.17459 0.0
H947 H 0.11369 0.61623 0.09579 0.0
H948 H 0.14107 0.65245 0.13293 0.0
S949 S 0.04266 0.60854 0.21104 0.0
N950 N 0.04267 0.59438 0.17229 0.0
N951 N 0.07291 0.63191 0.21529 0.0
C952 C 0.08448 0.62922 0.18409 0.0
C953 C 0.06812 0.60847 0.1612 0.0
loop_
_geom_bond_atom_site_label_1
_geom_bond_atom_site_label_2
_geom_bond_distance
_geom_bond_site_symmetry_2
_ccdc_geom_bond_type
C0 C1 1.443 . S
C0 N4 1.376 . S
C0 C38 1.389 . S
C1 C0 1.443 . S
C1 C2 1.340 . S
C1 H41 0.951 . S
C2 C1 1.340 . S
C2 C3 1.439 . S
C2 H42 0.950 . S
C3 C2 1.439 . S
C3 N4 1.374 . S
C3 C37 1.395 . S
N4 C0 1.376 . S
N4 C3 1.374 . S
N4 Co5 2.008 1_655 S
Co5 N4 2.008 1_455 S
Co5 N6 1.994 . S
Co5 N11 2.008 . S
Co5 N16 1.995 . S
Co5 N21 2.282 . S
Co5 N27 2.282 1_455 S
N6 Co5 1.994 . S
N6 C7 1.375 1_455 S
N6 C10 1.385 . S
C7 N6 1.375 1_655 S
C7 C8 1.446 . S
C7 C37 1.391 . S
C8 C7 1.446 . S
C8 C9 1.339 1_655 S
C8 H43 0.949 . S
C9 C8 1.339 1_455 S
C9 C10 1.439 . S
C9 H44 0.950 . S
C10 N6 1.385 . S
C10 C9 1.439 . S
C10 C39 1.392 . S
N11 Co5 2.008 . S
N11 C12 1.376 . S
N11 C15 1.374 . S
C12 N11 1.376 . S
C12 C13 1.443 . S
C12 C39 1.389 . S
C13 C12 1.443 . S
C13 C14 1.340 . S
C13 H45 0.951 . S
C14 C13 1.340 . S
C14 C15 1.439 . S
C14 H46 0.950 1_554 S
C15 N11 1.374 . S
C15 C14 1.439 . S
C15 C40 1.395 1_554 S
N16 Co5 1.995 . S
N16 C17 1.376 1_554 S
N16 C20 1.383 1_454 S
C17 N16 1.376 1_556 S
C17 C18 1.446 . S
C17 C40 1.391 . S
C18 C17 1.446 . S
C18 C19 1.339 1_455 S
C18 H47 0.949 . S
C19 C18 1.339 1_655 S
C19 C20 1.439 . S
C19 H48 0.950 . S
C20 N16 1.383 1_656 S
C20 C19 1.439 . S
C20 C38 1.392 1_556 S
N21 Co5 2.282 . S
N21 C24 1.332 . S
N21 C26 1.332 . S
C22 C23 1.386 . S
C22 C25 1.388 . S
C23 C22 1.386 . S
C23 C24 1.382 . S
C23 H49 0.950 . S
C24 N21 1.332 . S
C24 C23 1.382 . S
C24 H35 0.952 . S
C25 C22 1.388 . S
C25 C26 1.382 . S
C25 H50 0.950 . S
C26 N21 1.332 . S
C26 C25 1.382 . S
C26 H36 0.948 . S
N27 Co5 2.282 1_655 S
N27 C31 1.332 . S
N27 C32 1.332 1_554 S
C28 C29 1.388 . S
C28 C32 1.382 . S
C28 H51 0.950 . S
C29 C28 1.388 . S
C29 C30 1.386 1_556 S
C30 C29 1.386 1_554 S
C30 C31 1.382 . S
C30 H52 0.950 . S
C31 N27 1.332 . S
C31 C30 1.382 . S
C31 H33 0.952 . S
C32 N27 1.332 1_556 S
C32 C28 1.382 . S
C32 H34 0.948 . S
H33 C31 0.952 . S
H34 C32 0.948 . S
H35 C24 0.952 . S
H36 C26 0.948 . S
C37 C3 1.395 . S
C37 C7 1.391 . S
C38 C0 1.389 . S
C38 C20 1.392 1_554 S
C39 C10 1.392 . S
C39 C12 1.389 . S
C40 C15 1.395 1_556 S
C40 C17 1.391 . S
H41 C1 0.951 . S
H42 C2 0.950 . S
H43 C8 0.949 . S
H44 C9 0.950 . S
H45 C13 0.951 . S
H46 C14 0.950 1_556 S
H47 C18 0.949 . S
H48 C19 0.950 . S
H49 C23 0.950 . S
H50 C25 0.950 . S
H51 C28 0.950 . S
H52 C30 0.950 . S
C53 C54 1.443 . S
C53 N57 1.376 . S
C53 C91 1.389 . S
C54 C53 1.443 . S
C54 C55 1.340 . S
C54 H94 0.951 . S
C55 C54 1.340 . S
C55 C56 1.439 1_545 S
C55 H95 0.950 1_545 S
C56 C55 1.439 1_565 S
C56 N57 1.374 1_565 S
C56 C90 1.395 . S
N57 C53 1.376 . S
N57 C56 1.374 1_545 S
N57 Co58 2.008 . S
Co58 N57 2.008 . S
Co58 N59 1.995 1_545 S
Co58 N64 2.008 . S
Co58 N69 1.995 . S
Co58 N74 2.282 1_545 S
Co58 N80 2.282 . S
N59 Co58 1.995 1_565 S
N59 C60 1.376 . S
N59 C63 1.383 . S
C60 N59 1.376 . S
C60 C61 1.446 . S
C60 C90 1.391 . S
C61 C60 1.446 . S
C61 C62 1.339 . S
C61 H96 0.949 . S
C62 C61 1.339 . S
C62 C63 1.439 . S
C62 H97 0.950 . S
C63 N59 1.383 . S
C63 C62 1.439 . S
C63 C92 1.392 . S
N64 Co58 2.008 . S
N64 C65 1.376 1_545 S
N64 C68 1.374 . S
C65 N64 1.376 1_565 S
C65 C66 1.443 . S
C65 C92 1.389 . S
C66 C65 1.443 . S
C66 C67 1.340 1_565 S
C66 H98 0.951 . S
C67 C66 1.340 1_545 S
C67 C68 1.439 . S
C67 H99 0.950 . S
C68 N64 1.374 . S
C68 C67 1.439 . S
C68 C93 1.395 . S
N69 Co58 1.995 . S
N69 C70 1.376 . S
N69 C73 1.383 . S
C70 N69 1.376 . S
C70 C71 1.446 . S
C70 C93 1.391 . S
C71 C70 1.446 . S
C71 C72 1.339 . S
C71 H100 0.949 . S
C72 C71 1.339 . S
C72 C73 1.439 . S
C72 H101 0.950 . S
C73 N69 1.383 . S
C73 C72 1.439 . S
C73 C91 1.392 . S
N74 Co58 2.282 1_565 S
N74 C77 1.332 . S
N74 C79 1.332 . S
C75 C76 1.386 . S
C75 C78 1.388 . S
C76 C75 1.386 . S
C76 C77 1.382 . S
C76 H102 0.950 . S
C77 N74 1.332 . S
C77 C76 1.382 . S
C77 H88 0.952 1_565 S
C78 C75 1.388 . S
C78 C79 1.382 . S
C78 H103 0.950 . S
C79 N74 1.332 . S
C79 C78 1.382 . S
C79 H89 0.948 . S
N80 Co58 2.282 . S
N80 C84 1.332 . S
N80 C85 1.332 . S
C81 C82 1.388 . S
C81 C85 1.382 . S
C81 H104 0.950 . S
C82 C81 1.388 . S
C82 C83 1.386 . S
C83 C82 1.386 . S
C83 C84 1.382 . S
C83 H105 0.950 . S
C84 N80 1.332 . S
C84 C83 1.382 . S
C84 H86 0.952 . S
C85 N80 1.332 . S
C85 C81 1.382 . S
C85 H87 0.948 . S
H86 C84 0.952 . S
H87 C85 0.948 . S
H88 C77 0.952 1_545 S
H89 C79 0.948 . S
C90 C56 1.395 . S
C90 C60 1.391 . S
C91 C53 1.389 . S
C91 C73 1.392 . S
C92 C63 1.392 . S
C92 C65 1.389 . S
C93 C68 1.395 . S
C93 C70 1.391 . S
H94 C54 0.951 . S
H95 C55 0.950 1_565 S
H96 C61 0.949 . S
H97 C62 0.950 . S
H98 C66 0.951 . S
H99 C67 0.950 . S
H100 C71 0.949 . S
H101 C72 0.950 . S
H102 C76 0.950 . S
H103 C78 0.950 . S
H104 C81 0.950 . S
H105 C83 0.950 . S
C106 C107 1.443 . S
C106 N110 1.376 . S
C106 C144 1.389 . S
C107 C106 1.443 . S
C107 C108 1.340 . S
C107 H147 0.951 . S
C108 C107 1.340 . S
C108 C109 1.439 . S
C108 H148 0.950 . S
C109 C108 1.439 . S
C109 N110 1.374 . S
C109 C143 1.395 . S
N110 C106 1.376 . S
N110 C109 1.374 . S
N110 Co111 2.008 1_556 S
Co111 N110 2.008 1_554 S
Co111 N112 1.995 1_554 S
Co111 N117 2.008 . S
Co111 N122 1.995 . S
Co111 N127 2.282 . S
Co111 N133 2.282 1_554 S
N112 Co111 1.995 1_556 S
N112 C113 1.376 . S
N112 C116 1.383 1_556 S
C113 N112 1.376 . S
C113 C114 1.446 . S
C113 C143 1.391 . S
C114 C113 1.446 . S
C114 C115 1.339 . S
C114 H149 0.949 . S
C115 C114 1.339 . S
C115 C116 1.439 1_556 S
C115 H150 0.950 . S
C116 N112 1.383 1_554 S
C116 C115 1.439 1_554 S
C116 C145 1.392 . S
N117 Co111 2.008 . S
N117 C118 1.376 . S
N117 C121 1.374 . S
C118 N117 1.376 . S
C118 C119 1.443 . S
C118 C145 1.389 . S
C119 C118 1.443 . S
C119 C120 1.340 . S
C119 H151 0.951 . S
C120 C119 1.340 . S
C120 C121 1.439 . S
C120 H152 0.950 . S
C121 N117 1.374 . S
C121 C120 1.439 . S
C121 C146 1.395 . S
N122 Co111 1.995 . S
N122 C123 1.376 . S
N122 C126 1.395 . S
C123 N122 1.376 . S
C123 C124 1.446 . S
C123 C146 1.391 . S
C124 C123 1.446 . S
C124 C125 1.339 . S
C124 H153 0.949 . S
C125 C124 1.339 . S
C125 C126 1.450 . S
C125 H154 0.950 . S
C126 N122 1.395 . S
C126 C125 1.450 . S
C126 C144 1.372 1_554 S
N127 Co111 2.282 . S
N127 C130 1.332 . S
N127 C132 1.332 . S
C128 C129 1.386 . S
C128 C131 1.388 . S
C129 C128 1.386 . S
C129 C130 1.382 . S
C129 H155 0.950 . S
C130 N127 1.332 . S
C130 C129 1.382 . S
C130 H141 0.952 . S
C131 C128 1.388 . S
C131 C132 1.382 . S
C131 H156 0.950 . S
C132 N127 1.332 . S
C132 C131 1.382 . S
C132 H142 0.948 1_554 S
N133 Co111 2.282 1_556 S
N133 C137 1.332 . S
N133 C138 1.332 . S
C134 C135 1.388 . S
C134 C138 1.382 . S
C134 H157 0.950 . S
C135 C134 1.388 . S
C135 C136 1.386 . S
C136 C135 1.386 . S
C136 C137 1.382 . S
C136 H158 0.950 . S
C137 N133 1.332 . S
C137 C136 1.382 . S
C137 H139 0.952 . S
C138 N133 1.332 . S
C138 C134 1.382 . S
C138 H140 0.948 1_556 S
H139 C137 0.952 . S
H140 C138 0.948 1_554 S
H141 C130 0.952 . S
H142 C132 0.948 1_556 S
C143 C109 1.395 . S
C143 C113 1.391 . S
C144 C106 1.389 . S
C144 C126 1.372 1_556 S
C145 C116 1.392 . S
C145 C118 1.389 . S
C146 C121 1.395 . S
C146 C123 1.391 . S
H147 C107 0.951 . S
H148 C108 0.950 . S
H149 C114 0.949 . S
H150 C115 0.950 . S
H151 C119 0.951 . S
H152 C120 0.950 . S
H153 C124 0.949 . S
H154 C125 0.950 . S
H155 C129 0.950 . S
H156 C131 0.950 . S
H157 C134 0.950 . S
H158 C136 0.950 . S
C159 C160 1.443 1_455 S
C159 N163 1.376 . S
C159 C197 1.389 . S
C160 C159 1.443 1_655 S
C160 C161 1.340 . S
C160 H200 0.951 . S
C161 C160 1.340 . S
C161 C162 1.439 1_655 S
C161 H201 0.950 . S
C162 C161 1.439 1_455 S
C162 N163 1.374 . S
C162 C196 1.395 . S
N163 C159 1.376 . S
N163 C162 1.374 . S
N163 Co164 2.008 . S
Co164 N163 2.008 . S
Co164 N165 1.995 . S
Co164 N170 2.008 . S
Co164 N175 1.995 . S
Co164 N180 2.282 . S
Co164 N186 2.282 . S
N165 Co164 1.995 . S
N165 C166 1.376 . S
N165 C169 1.383 . S
C166 N165 1.376 . S
C166 C167 1.446 . S
C166 C196 1.391 . S
C167 C166 1.446 . S
C167 C168 1.339 . S
C167 H202 0.949 . S
C168 C167 1.339 . S
C168 C169 1.439 . S
C168 H203 0.950 . S
C169 N165 1.383 . S
C169 C168 1.439 . S
C169 C198 1.392 . S
N170 Co164 2.008 . S
N170 C171 1.376 . S
N170 C174 1.374 . S
C171 N170 1.376 . S
C171 C172 1.443 . S
C171 C198 1.389 . S
C172 C171 1.443 . S
C172 C173 1.340 . S
C172 H204 0.951 . S
C173 C172 1.340 . S
C173 C174 1.439 . S
C173 H205 0.950 . S
C174 N170 1.374 . S
C174 C173 1.439 . S
C174 C199 1.395 . S
N175 Co164 1.995 . S
N175 C176 1.376 . S
N175 C179 1.383 . S
C176 N175 1.376 . S
C176 C177 1.446 . S
C176 C199 1.391 . S
C177 C176 1.446 . S
C177 C178 1.339 . S
C177 H206 0.949 . S
C178 C177 1.339 . S
C178 C179 1.439 . S
C178 H207 0.950 . S
C179 N175 1.383 . S
C179 C178 1.439 . S
C179 C197 1.392 . S
N180 Co164 2.282 . S
N180 C183 1.332 . S
N180 C185 1.332 . S
C181 C182 1.386 . S
C181 C184 1.388 . S
C182 C181 1.386 . S
C182 C183 1.382 . S
C182 H208 0.950 . S
C183 N180 1.332 . S
C183 C182 1.382 . S
C183 H194 0.952 . S
C184 C181 1.388 . S
C184 C185 1.382 . S
C184 H209 0.950 . S
C185 N180 1.332 . S
C185 C184 1.382 . S
C185 H195 0.948 . S
N186 Co164 2.282 . S
N186 C190 1.332 . S
N186 C191 1.332 . S
C187 C188 1.388 . S
C187 C191 1.382 . S
C187 H210 0.950 . S
C188 C187 1.388 . S
C188 C189 1.386 . S
C189 C188 1.386 . S
C189 C190 1.382 . S
C189 H211 0.950 1_455 S
C190 N186 1.332 . S
C190 C189 1.382 . S
C190 H192 0.952 . S
C191 N186 1.332 . S
C191 C187 1.382 . S
C191 H193 0.948 . S
H192 C190 0.952 . S
H193 C191 0.948 . S
H194 C183 0.952 . S
H195 C185 0.948 . S
C196 C162 1.395 . S
C196 C166 1.391 . S
C197 C159 1.389 . S
C197 C179 1.392 . S
C198 C169 1.392 . S
C198 C171 1.389 . S
C199 C174 1.395 . S
C199 C176 1.391 . S
H200 C160 0.951 . S
H201 C161 0.950 . S
H202 C167 0.949 . S
H203 C168 0.950 . S
H204 C172 0.951 . S
H205 C173 0.950 . S
H206 C177 0.949 . S
H207 C178 0.950 . S
H208 C182 0.950 . S
H209 C184 0.950 . S
H210 C187 0.950 . S
H211 C189 0.950 1_655 S
C212 C213 1.443 . S
C212 N216 1.376 1_565 S
C212 C250 1.389 . S
C213 C212 1.443 . S
C213 C214 1.340 1_565 S
C213 H253 0.951 . S
C214 C213 1.340 1_545 S
C214 C215 1.439 . S
C214 H254 0.950 . S
C215 C214 1.439 . S
C215 N216 1.374 . S
C215 C249 1.395 . S
N216 C212 1.376 1_545 S
N216 C215 1.374 . S
N216 Co217 2.008 . S
Co217 N216 2.008 . S
Co217 N218 1.995 . S
Co217 N223 2.008 1_554 S
Co217 N228 1.995 1_544 S
Co217 N233 2.282 1_554 S
Co217 N239 2.282 1_545 S
N218 Co217 1.995 . S
N218 C219 1.376 . S
N218 C222 1.383 1_554 S
C219 N218 1.376 . S
C219 C220 1.446 . S
C219 C249 1.391 . S
C220 C219 1.446 . S
C220 C221 1.339 . S
C220 H255 0.949 . S
C221 C220 1.339 . S
C221 C222 1.439 1_554 S
C221 H256 0.950 1_554 S
C222 N218 1.383 1_556 S
C222 C221 1.439 1_556 S
C222 C251 1.392 . S
N223 Co217 2.008 1_556 S
N223 C224 1.376 . S
N223 C227 1.361 1_545 S
C224 N223 1.376 . S
C224 C225 1.443 . S
C224 C251 1.389 . S
C225 C224 1.443 . S
C225 C226 1.340 . S
C225 H257 0.951 . S
C226 C225 1.340 . S
C226 C227 1.438 1_545 S
C226 H258 0.950 . S
C227 N223 1.361 1_565 S
C227 C226 1.438 1_565 S
C227 C252 1.407 . S
N228 Co217 1.995 1_566 S
N228 C229 1.376 . S
N228 C232 1.383 1_556 S
C229 N228 1.376 . S
C229 C230 1.446 . S
C229 C252 1.391 . S
C230 C229 1.446 . S
C230 C231 1.352 . S
C230 H259 0.949 . S
C231 C230 1.352 . S
C231 C232 1.431 1_556 S
C231 H260 0.944 1_556 S
C232 N228 1.383 1_554 S
C232 C231 1.431 1_554 S
C232 C250 1.392 . S
N233 Co217 2.282 1_556 S
N233 C236 1.332 . S
N233 C238 1.332 . S
C234 C235 1.386 . S
C234 C237 1.388 . S
C235 C234 1.386 . S
C235 C236 1.382 . S
C235 H261 0.950 . S
C236 N233 1.332 . S
C236 C235 1.382 . S
C236 H247 0.952 . S
C237 C234 1.388 . S
C237 C238 1.382 . S
C237 H262 0.950 . S
C238 N233 1.332 . S
C238 C237 1.382 . S
C238 H248 0.948 1_556 S
N239 Co217 2.282 1_565 S
N239 C243 1.332 . S
N239 C244 1.332 . S
C240 C241 1.388 . S
C240 C244 1.382 . S
C240 H263 0.950 . S
C241 C240 1.388 . S
C241 C242 1.386 . S
C242 C241 1.386 . S
C242 C243 1.382 . S
C242 H264 0.950 . S
C243 N239 1.332 . S
C243 C242 1.382 . S
C243 H245 0.952 1_565 S
C244 N239 1.332 . S
C244 C240 1.382 . S
C244 H246 0.948 . S
H245 C243 0.952 1_545 S
H246 C244 0.948 . S
H247 C236 0.952 . S
H248 C238 0.948 1_554 S
C249 C215 1.395 . S
C249 C219 1.391 . S
C250 C212 1.389 . S
C250 C232 1.392 . S
C251 C222 1.392 . S
C251 C224 1.389 . S
C252 C227 1.407 . S
C252 C229 1.391 . S
H253 C213 0.951 . S
H254 C214 0.950 . S
H255 C220 0.949 . S
H256 C221 0.950 1_556 S
H257 C225 0.951 . S
H258 C226 0.950 . S
H259 C230 0.949 . S
H260 C231 0.944 1_554 S
H261 C235 0.950 . S
H262 C237 0.950 . S
H263 C240 0.950 . S
H264 C242 0.950 . S
C265 C266 1.443 . S
C265 N269 1.376 . S
C265 C303 1.389 . S
C266 C265 1.443 . S
C266 C267 1.340 . S
C266 H306 0.951 . S
C267 C266 1.340 . S
C267 C268 1.439 . S
C267 H307 0.950 . S
C268 C267 1.439 . S
C268 N269 1.374 . S
C268 C302 1.395 . S
N269 C265 1.376 . S
N269 C268 1.374 . S
N269 Co270 2.008 . S
Co270 N269 2.008 . S
Co270 N271 1.995 . S
Co270 N276 2.008 . S
Co270 N281 1.995 . S
Co270 N286 2.282 . S
Co270 N292 2.282 . S
N271 Co270 1.995 . S
N271 C272 1.376 . S
N271 C275 1.383 . S
C272 N271 1.376 . S
C272 C273 1.446 . S
C272 C302 1.391 . S
C273 C272 1.446 . S
C273 C274 1.339 . S
C273 H308 0.949 . S
C274 C273 1.339 . S
C274 C275 1.439 . S
C274 H309 0.950 . S
C275 N271 1.383 . S
C275 C274 1.439 . S
C275 C304 1.392 . S
N276 Co270 2.008 . S
N276 C277 1.376 . S
N276 C280 1.374 . S
C277 N276 1.376 . S
C277 C278 1.443 . S
C277 C304 1.389 . S
C278 C277 1.443 . S
C278 C279 1.340 . S
C278 H310 0.951 . S
C279 C278 1.340 . S
C279 C280 1.439 . S
C279 H311 0.950 . S
C280 N276 1.374 . S
C280 C279 1.439 . S
C280 C305 1.395 . S
N281 Co270 1.995 . S
N281 C282 1.376 . S
N281 C285 1.383 . S
C282 N281 1.376 . S
C282 C283 1.446 . S
C282 C305 1.391 . S
C283 C282 1.446 . S
C283 C284 1.339 . S
C283 H312 0.949 . S
C284 C283 1.339 . S
C284 C285 1.439 . S
C284 H313 0.950 . S
C285 N281 1.383 . S
C285 C284 1.439 . S
C285 C303 1.392 . S
N286 Co270 2.282 . S
N286 C289 1.332 . S
N286 C291 1.332 . S
C287 C288 1.386 . S
C287 C290 1.388 . S
C288 C287 1.386 . S
C288 C289 1.382 . S
C288 H314 0.950 . S
C289 N286 1.332 . S
C289 C288 1.382 . S
C289 H300 0.952 . S
C290 C287 1.388 . S
C290 C291 1.382 . S
C290 H315 0.950 . S
C291 N286 1.332 . S
C291 C290 1.382 . S
C291 H301 0.948 . S
N292 Co270 2.282 . S
N292 C296 1.332 . S
N292 C297 1.332 . S
C293 C294 1.388 . S
C293 C297 1.382 . S
C293 H316 0.950 . S
C294 C293 1.388 . S
C294 C295 1.386 . S
C295 C294 1.386 . S
C295 C296 1.382 . S
C295 H317 0.950 . S
C296 N292 1.332 . S
C296 C295 1.382 . S
C296 H298 0.952 . S
C297 N292 1.332 . S
C297 C293 1.382 . S
C297 H299 0.948 . S
H298 C296 0.952 . S
H299 C297 0.948 . S
H300 C289 0.952 . S
H301 C291 0.948 . S
C302 C268 1.395 . S
C302 C272 1.391 . S
C303 C265 1.389 . S
C303 C285 1.392 . S
C304 C275 1.392 . S
C304 C277 1.389 . S
C305 C280 1.395 . S
C305 C282 1.391 . S
H306 C266 0.951 . S
H307 C267 0.950 . S
H308 C273 0.949 . S
H309 C274 0.950 . S
H310 C278 0.951 . S
H311 C279 0.950 . S
H312 C283 0.949 . S
H313 C284 0.950 . S
H314 C288 0.950 . S
H315 C290 0.950 . S
H316 C293 0.950 . S
H317 C295 0.950 . S
H318 C345 0.929 . S
N319 C344 1.433 . S
N319 C350 1.435 . S
N319 C356 1.423 . S
H320 C346 0.930 . S
H321 C349 0.931 . S
H322 C348 0.929 . S
H323 C351 0.930 . S
H324 C352 0.932 . S
H325 C355 0.929 . S
H326 C354 0.931 . S
H327 C357 0.929 . S
H328 C361 0.932 . S
H329 C358 0.931 . S
H330 C360 0.929 . S
H331 C363 0.929 . S
H332 C364 0.930 . S
H333 C366 0.929 . S
H334 C367 0.931 . S
H335 C369 0.930 . S
H336 C370 0.932 . S
H337 C372 0.931 . S
H338 C373 0.929 . S
H339 C375 0.929 . S
H340 C376 0.931 . S
H341 C378 0.929 . S
N342 C362 1.433 . S
N342 C368 1.435 . S
N342 C374 1.423 . S
H343 C379 0.932 . S
C344 N319 1.433 . S
C344 C345 1.363 . S
C344 C349 1.370 . S
C345 H318 0.929 . S
C345 C344 1.363 . S
C345 C346 1.385 . S
C346 H320 0.930 . S
C346 C345 1.385 . S
C346 C347 1.357 . S
C347 C346 1.357 . S
C347 C348 1.406 . S
C348 H322 0.929 . S
C348 C347 1.406 . S
C348 C349 1.391 . S
C349 H321 0.931 . S
C349 C344 1.370 . S
C349 C348 1.391 . S
C350 N319 1.435 . S
C350 C351 1.358 . S
C350 C355 1.371 . S
C351 H323 0.930 . S
C351 C350 1.358 . S
C351 C352 1.405 . S
C352 H324 0.932 . S
C352 C351 1.405 . S
C352 C353 1.383 . S
C353 C352 1.383 . S
C353 C354 1.393 . S
C354 H326 0.931 . S
C354 C353 1.393 . S
C354 C355 1.382 . S
C355 H325 0.929 . S
C355 C350 1.371 . S
C355 C354 1.382 . S
C356 N319 1.423 . S
C356 C357 1.362 . S
C356 C361 1.388 . S
C357 H327 0.929 . S
C357 C356 1.362 . S
C357 C358 1.376 . S
C358 H329 0.931 . S
C358 C357 1.376 . S
C358 C359 1.396 . S
C359 C358 1.396 . S
C359 C360 1.348 . S
C359 C377 1.472 . S
C360 H330 0.929 . S
C360 C359 1.348 . S
C360 C361 1.443 . S
C361 H328 0.932 . S
C361 C356 1.388 . S
C361 C360 1.443 . S
C362 N342 1.433 . S
C362 C363 1.363 . S
C362 C367 1.370 . S
C363 H331 0.929 . S
C363 C362 1.363 . S
C363 C364 1.385 . S
C364 H332 0.930 . S
C364 C363 1.385 . S
C364 C365 1.357 . S
C365 C364 1.357 . S
C365 C366 1.406 . S
C366 H333 0.929 . S
C366 C365 1.406 . S
C366 C367 1.391 . S
C367 H334 0.931 . S
C367 C362 1.370 . S
C367 C366 1.391 . S
C368 N342 1.435 . S
C368 C369 1.358 . S
C368 C373 1.371 . S
C369 H335 0.930 . S
C369 C368 1.358 . S
C369 C370 1.405 . S
C370 H336 0.932 . S
C370 C369 1.405 . S
C370 C371 1.383 . S
C371 C370 1.383 . S
C371 C372 1.393 . S
C372 H337 0.931 . S
C372 C371 1.393 . S
C372 C373 1.382 . S
C373 H338 0.929 . S
C373 C368 1.371 . S
C373 C372 1.382 . S
C374 N342 1.423 . S
C374 C375 1.362 . S
C374 C379 1.388 . S
C375 H339 0.929 . S
C375 C374 1.362 . S
C375 C376 1.376 . S
C376 H340 0.931 . S
C376 C375 1.376 . S
C376 C377 1.396 . S
C377 C359 1.472 . S
C377 C376 1.396 . S
C377 C378 1.348 . S
C378 H341 0.929 . S
C378 C377 1.348 . S
C378 C379 1.443 . S
C379 H343 0.932 . S
C379 C374 1.388 . S
C379 C378 1.443 . S
H380 C407 0.929 . S
N381 C406 1.433 . S
N381 C412 1.435 . S
N381 C418 1.423 . S
H382 C408 0.930 . S
H383 C411 0.931 . S
H384 C410 0.929 . S
H385 C413 0.930 . S
H386 C414 0.932 . S
H387 C417 0.929 . S
H388 C416 0.931 . S
H389 C419 0.929 . S
H390 C423 0.932 . S
H391 C420 0.931 . S
H392 C422 0.929 . S
H393 C425 0.929 . S
H394 C426 0.930 . S
H395 C428 0.929 . S
H396 C429 0.931 . S
H397 C431 0.930 . S
H398 C432 0.932 . S
H399 C434 0.931 . S
H400 C435 0.929 . S
H401 C437 0.929 . S
H402 C438 0.931 . S
H403 C440 0.929 . S
N404 C424 1.433 . S
N404 C430 1.435 . S
N404 C436 1.423 . S
H405 C441 0.932 . S
C406 N381 1.433 . S
C406 C407 1.363 . S
C406 C411 1.370 . S
C407 H380 0.929 . S
C407 C406 1.363 . S
C407 C408 1.385 . S
C408 H382 0.930 . S
C408 C407 1.385 . S
C408 C409 1.357 . S
C409 C408 1.357 . S
C409 C410 1.406 . S
C410 H384 0.929 . S
C410 C409 1.406 . S
C410 C411 1.391 . S
C411 H383 0.931 . S
C411 C406 1.370 . S
C411 C410 1.391 . S
C412 N381 1.435 . S
C412 C413 1.358 . S
C412 C417 1.371 . S
C413 H385 0.930 . S
C413 C412 1.358 . S
C413 C414 1.405 . S
C414 H386 0.932 . S
C414 C413 1.405 . S
C414 C415 1.383 . S
C415 C414 1.383 . S
C415 C416 1.393 . S
C416 H388 0.931 . S
C416 C415 1.393 . S
C416 C417 1.382 . S
C417 H387 0.929 . S
C417 C412 1.371 . S
C417 C416 1.382 . S
C418 N381 1.423 . S
C418 C419 1.362 . S
C418 C423 1.388 . S
C419 H389 0.929 . S
C419 C418 1.362 . S
C419 C420 1.376 . S
C420 H391 0.931 . S
C420 C419 1.376 . S
C420 C421 1.396 . S
C421 C420 1.396 . S
C421 C422 1.348 . S
C421 C439 1.472 . S
C422 H392 0.929 . S
C422 C421 1.348 . S
C422 C423 1.443 . S
C423 H390 0.932 . S
C423 C418 1.388 . S
C423 C422 1.443 . S
C424 N404 1.433 . S
C424 C425 1.363 . S
C424 C429 1.370 . S
C425 H393 0.929 . S
C425 C424 1.363 . S
C425 C426 1.385 . S
C426 H394 0.930 . S
C426 C425 1.385 . S
C426 C427 1.357 . S
C427 C426 1.357 . S
C427 C428 1.406 . S
C428 H395 0.929 . S
C428 C427 1.406 . S
C428 C429 1.391 . S
C429 H396 0.931 . S
C429 C424 1.370 . S
C429 C428 1.391 . S
C430 N404 1.435 . S
C430 C431 1.358 . S
C430 C435 1.371 . S
C431 H397 0.930 . S
C431 C430 1.358 . S
C431 C432 1.405 . S
C432 H398 0.932 . S
C432 C431 1.405 . S
C432 C433 1.383 . S
C433 C432 1.383 . S
C433 C434 1.393 . S
C434 H399 0.931 . S
C434 C433 1.393 . S
C434 C435 1.382 . S
C435 H400 0.929 . S
C435 C430 1.371 . S
C435 C434 1.382 . S
C436 N404 1.423 . S
C436 C437 1.362 . S
C436 C441 1.388 . S
C437 H401 0.929 . S
C437 C436 1.362 . S
C437 C438 1.376 . S
C438 H402 0.931 . S
C438 C437 1.376 . S
C438 C439 1.396 . S
C439 C421 1.472 . S
C439 C438 1.396 . S
C439 C440 1.348 . S
C440 H403 0.929 . S
C440 C439 1.348 . S
C440 C441 1.443 . S
C441 H405 0.932 . S
C441 C436 1.388 . S
C441 C440 1.443 . S
H442 C469 0.929 . S
N443 C468 1.433 . S
N443 C474 1.435 . S
N443 C480 1.423 . S
H444 C470 0.930 . S
H445 C473 0.931 . S
H446 C472 0.929 . S
H447 C475 0.930 . S
H448 C476 0.932 . S
H449 C479 0.929 . S
H450 C478 0.931 . S
H451 C481 0.929 . S
H452 C485 0.932 . S
H453 C482 0.931 . S
H454 C484 0.929 . S
H455 C487 0.929 . S
H456 C488 0.930 . S
H457 C490 0.929 . S
H458 C491 0.931 . S
H459 C493 0.930 . S
H460 C494 0.932 . S
H461 C496 0.931 . S
H462 C497 0.929 . S
H463 C499 0.929 . S
H464 C500 0.931 . S
H465 C502 0.929 . S
N466 C486 1.433 . S
N466 C492 1.435 . S
N466 C498 1.423 . S
H467 C503 0.932 . S
C468 N443 1.433 . S
C468 C469 1.363 . S
C468 C473 1.370 . S
C469 H442 0.929 . S
C469 C468 1.363 . S
C469 C470 1.385 . S
C470 H444 0.930 . S
C470 C469 1.385 . S
C470 C471 1.357 . S
C471 C470 1.357 . S
C471 C472 1.406 . S
C472 H446 0.929 . S
C472 C471 1.406 . S
C472 C473 1.391 . S
C473 H445 0.931 . S
C473 C468 1.370 . S
C473 C472 1.391 . S
C474 N443 1.435 . S
C474 C475 1.358 . S
C474 C479 1.371 . S
C475 H447 0.930 . S
C475 C474 1.358 . S
C475 C476 1.405 . S
C476 H448 0.932 . S
C476 C475 1.405 . S
C476 C477 1.383 . S
C477 C476 1.383 . S
C477 C478 1.393 . S
C478 H450 0.931 . S
C478 C477 1.393 . S
C478 C479 1.382 . S
C479 H449 0.929 . S
C479 C474 1.371 . S
C479 C478 1.382 . S
C480 N443 1.423 . S
C480 C481 1.362 . S
C480 C485 1.388 . S
C481 H451 0.929 . S
C481 C480 1.362 . S
C481 C482 1.376 . S
C482 H453 0.931 . S
C482 C481 1.376 . S
C482 C483 1.396 . S
C483 C482 1.396 . S
C483 C484 1.348 . S
C483 C501 1.472 . S
C484 H454 0.929 . S
C484 C483 1.348 . S
C484 C485 1.443 . S
C485 H452 0.932 . S
C485 C480 1.388 . S
C485 C484 1.443 . S
C486 N466 1.433 . S
C486 C487 1.363 . S
C486 C491 1.370 . S
C487 H455 0.929 . S
C487 C486 1.363 . S
C487 C488 1.385 . S
C488 H456 0.930 . S
C488 C487 1.385 . S
C488 C489 1.357 . S
C489 C488 1.357 . S
C489 C490 1.406 . S
C490 H457 0.929 . S
C490 C489 1.406 . S
C490 C491 1.391 . S
C491 H458 0.931 . S
C491 C486 1.370 . S
C491 C490 1.391 . S
C492 N466 1.435 . S
C492 C493 1.358 . S
C492 C497 1.371 . S
C493 H459 0.930 . S
C493 C492 1.358 . S
C493 C494 1.405 . S
C494 H460 0.932 . S
C494 C493 1.405 . S
C494 C495 1.383 . S
C495 C494 1.383 . S
C495 C496 1.393 . S
C496 H461 0.931 . S
C496 C495 1.393 . S
C496 C497 1.382 . S
C497 H462 0.929 . S
C497 C492 1.371 . S
C497 C496 1.382 . S
C498 N466 1.423 . S
C498 C499 1.362 . S
C498 C503 1.388 . S
C499 H463 0.929 . S
C499 C498 1.362 . S
C499 C500 1.376 . S
C500 H464 0.931 . S
C500 C499 1.376 . S
C500 C501 1.396 . S
C501 C483 1.472 . S
C501 C500 1.396 . S
C501 C502 1.348 . S
C502 H465 0.929 . S
C502 C501 1.348 . S
C502 C503 1.443 . S
C503 H467 0.932 . S
C503 C498 1.388 . S
C503 C502 1.443 . S
H504 C531 0.929 . S
N505 C530 1.433 . S
N505 C536 1.435 . S
N505 C542 1.423 . S
H506 C532 0.930 . S
H507 C535 0.931 . S
H508 C534 0.929 . S
H509 C537 0.930 . S
H510 C538 0.932 . S
H511 C541 0.929 . S
H512 C540 0.931 . S
H513 C543 0.929 . S
H514 C547 0.932 . S
H515 C544 0.931 . S
H516 C546 0.929 . S
H517 C549 0.929 . S
H518 C550 0.930 . S
H519 C552 0.929 . S
H520 C553 0.931 . S
H521 C555 0.930 . S
H522 C556 0.932 . S
H523 C558 0.931 . S
H524 C559 0.929 . S
H525 C561 0.929 . S
H526 C562 0.931 . S
H527 C564 0.929 . S
N528 C548 1.433 . S
N528 C554 1.435 . S
N528 C560 1.423 . S
H529 C565 0.932 . S
C530 N505 1.433 . S
C530 C531 1.363 . S
C530 C535 1.370 . S
C531 H504 0.929 . S
C531 C530 1.363 . S
C531 C532 1.385 . S
C532 H506 0.930 . S
C532 C531 1.385 . S
C532 C533 1.357 . S
C533 C532 1.357 . S
C533 C534 1.406 . S
C534 H508 0.929 . S
C534 C533 1.406 . S
C534 C535 1.391 . S
C535 H507 0.931 . S
C535 C530 1.370 . S
C535 C534 1.391 . S
C536 N505 1.435 . S
C536 C537 1.358 . S
C536 C541 1.371 . S
C537 H509 0.930 . S
C537 C536 1.358 . S
C537 C538 1.405 . S
C538 H510 0.932 . S
C538 C537 1.405 . S
C538 C539 1.383 . S
C539 C538 1.383 . S
C539 C540 1.393 . S
C540 H512 0.931 . S
C540 C539 1.393 . S
C540 C541 1.382 . S
C541 H511 0.929 . S
C541 C536 1.371 . S
C541 C540 1.382 . S
C542 N505 1.423 . S
C542 C543 1.362 . S
C542 C547 1.388 . S
C543 H513 0.929 . S
C543 C542 1.362 . S
C543 C544 1.376 . S
C544 H515 0.931 . S
C544 C543 1.376 . S
C544 C545 1.396 . S
C545 C544 1.396 . S
C545 C546 1.348 . S
C545 C563 1.472 . S
C546 H516 0.929 . S
C546 C545 1.348 . S
C546 C547 1.443 . S
C547 H514 0.932 . S
C547 C542 1.388 . S
C547 C546 1.443 . S
C548 N528 1.433 . S
C548 C549 1.363 . S
C548 C553 1.370 . S
C549 H517 0.929 . S
C549 C548 1.363 . S
C549 C550 1.385 . S
C550 H518 0.930 . S
C550 C549 1.385 . S
C550 C551 1.357 . S
C551 C550 1.357 . S
C551 C552 1.406 . S
C552 H519 0.929 . S
C552 C551 1.406 . S
C552 C553 1.391 . S
C553 H520 0.931 . S
C553 C548 1.370 . S
C553 C552 1.391 . S
C554 N528 1.435 . S
C554 C555 1.358 . S
C554 C559 1.371 . S
C555 H521 0.930 . S
C555 C554 1.358 . S
C555 C556 1.405 . S
C556 H522 0.932 . S
C556 C555 1.405 . S
C556 C557 1.383 . S
C557 C556 1.383 . S
C557 C558 1.393 . S
C558 H523 0.931 . S
C558 C557 1.393 . S
C558 C559 1.382 . S
C559 H524 0.929 . S
C559 C554 1.371 . S
C559 C558 1.382 . S
C560 N528 1.423 . S
C560 C561 1.362 . S
C560 C565 1.388 . S
C561 H525 0.929 . S
C561 C560 1.362 . S
C561 C562 1.376 . S
C562 H526 0.931 . S
C562 C561 1.376 . S
C562 C563 1.396 . S
C563 C545 1.472 . S
C563 C562 1.396 . S
C563 C564 1.348 . S
C564 H527 0.929 . S
C564 C563 1.348 . S
C564 C565 1.443 . S
C565 H529 0.932 . S
C565 C560 1.388 . S
C565 C564 1.443 . S
H566 C593 0.929 . S
N567 C592 1.433 . S
N567 C598 1.435 . S
N567 C604 1.423 . S
H568 C594 0.930 . S
H569 C597 0.931 . S
H570 C596 0.929 . S
H571 C599 0.930 . S
H572 C600 0.932 . S
H573 C603 0.929 . S
H574 C602 0.931 . S
H575 C605 0.929 . S
H576 C609 0.932 . S
H577 C606 0.931 . S
H578 C608 0.929 . S
H579 C611 0.929 . S
H580 C612 0.930 . S
H581 C614 0.929 . S
H582 C615 0.931 . S
H583 C617 0.930 . S
H584 C618 0.932 . S
H585 C620 0.931 . S
H586 C621 0.929 . S
H587 C623 0.929 . S
H588 C624 0.931 . S
H589 C626 0.929 . S
N590 C610 1.433 . S
N590 C616 1.435 . S
N590 C622 1.423 . S
H591 C627 0.932 . S
C592 N567 1.433 . S
C592 C593 1.363 . S
C592 C597 1.370 . S
C593 H566 0.929 . S
C593 C592 1.363 . S
C593 C594 1.385 . S
C594 H568 0.930 . S
C594 C593 1.385 . S
C594 C595 1.357 . S
C595 C594 1.357 . S
C595 C596 1.406 . S
C596 H570 0.929 . S
C596 C595 1.406 . S
C596 C597 1.391 . S
C597 H569 0.931 . S
C597 C592 1.370 . S
C597 C596 1.391 . S
C598 N567 1.435 . S
C598 C599 1.358 . S
C598 C603 1.371 . S
C599 H571 0.930 . S
C599 C598 1.358 . S
C599 C600 1.405 . S
C600 H572 0.932 . S
C600 C599 1.405 . S
C600 C601 1.383 . S
C601 C600 1.383 . S
C601 C602 1.393 . S
C602 H574 0.931 . S
C602 C601 1.393 . S
C602 C603 1.382 . S
C603 H573 0.929 . S
C603 C598 1.371 . S
C603 C602 1.382 . S
C604 N567 1.423 . S
C604 C605 1.362 . S
C604 C609 1.388 . S
C605 H575 0.929 . S
C605 C604 1.362 . S
C605 C606 1.376 . S
C606 H577 0.931 . S
C606 C605 1.376 . S
C606 C607 1.396 . S
C607 C606 1.396 . S
C607 C608 1.348 . S
C607 C625 1.472 . S
C608 H578 0.929 . S
C608 C607 1.348 . S
C608 C609 1.443 . S
C609 H576 0.932 . S
C609 C604 1.388 . S
C609 C608 1.443 . S
C610 N590 1.433 . S
C610 C611 1.363 . S
C610 C615 1.370 . S
C611 H579 0.929 . S
C611 C610 1.363 . S
C611 C612 1.385 . S
C612 H580 0.930 . S
C612 C611 1.385 . S
C612 C613 1.357 . S
C613 C612 1.357 . S
C613 C614 1.406 . S
C614 H581 0.929 . S
C614 C613 1.406 . S
C614 C615 1.391 . S
C615 H582 0.931 . S
C615 C610 1.370 . S
C615 C614 1.391 . S
C616 N590 1.435 . S
C616 C617 1.358 . S
C616 C621 1.371 . S
C617 H583 0.930 . S
C617 C616 1.358 . S
C617 C618 1.405 . S
C618 H584 0.932 . S
C618 C617 1.405 . S
C618 C619 1.383 . S
C619 C618 1.383 . S
C619 C620 1.393 . S
C620 H585 0.931 . S
C620 C619 1.393 . S
C620 C621 1.382 . S
C621 H586 0.929 . S
C621 C616 1.371 . S
C621 C620 1.382 . S
C622 N590 1.423 . S
C622 C623 1.362 . S
C622 C627 1.388 . S
C623 H587 0.929 . S
C623 C622 1.362 . S
C623 C624 1.376 . S
C624 H588 0.931 . S
C624 C623 1.376 . S
C624 C625 1.396 . S
C625 C607 1.472 . S
C625 C624 1.396 . S
C625 C626 1.348 . S
C626 H589 0.929 . S
C626 C625 1.348 . S
C626 C627 1.443 . S
C627 H591 0.932 . S
C627 C622 1.388 . S
C627 C626 1.443 . S
H628 C655 0.929 . S
N629 C654 1.433 . S
N629 C660 1.435 . S
N629 C666 1.423 . S
H630 C656 0.930 . S
H631 C659 0.931 . S
H632 C658 0.929 . S
H633 C661 0.930 . S
H634 C662 0.932 . S
H635 C665 0.929 . S
H636 C664 0.931 . S
H637 C667 0.929 . S
H638 C671 0.932 . S
H639 C668 0.931 . S
H640 C670 0.929 . S
H641 C673 0.929 . S
H642 C674 0.930 . S
H643 C676 0.929 . S
H644 C677 0.931 . S
H645 C679 0.930 . S
H646 C680 0.932 . S
H647 C682 0.931 . S
H648 C683 0.929 . S
H649 C685 0.929 . S
H650 C686 0.931 . S
H651 C688 0.929 . S
N652 C672 1.433 . S
N652 C678 1.435 . S
N652 C684 1.423 . S
H653 C689 0.932 . S
C654 N629 1.433 . S
C654 C655 1.363 . S
C654 C659 1.370 . S
C655 H628 0.929 . S
C655 C654 1.363 . S
C655 C656 1.385 . S
C656 H630 0.930 . S
C656 C655 1.385 . S
C656 C657 1.357 . S
C657 C656 1.357 . S
C657 C658 1.406 . S
C658 H632 0.929 . S
C658 C657 1.406 . S
C658 C659 1.391 . S
C659 H631 0.931 . S
C659 C654 1.370 . S
C659 C658 1.391 . S
C660 N629 1.435 . S
C660 C661 1.358 . S
C660 C665 1.371 . S
C661 H633 0.930 . S
C661 C660 1.358 . S
C661 C662 1.405 . S
C662 H634 0.932 . S
C662 C661 1.405 . S
C662 C663 1.383 . S
C663 C662 1.383 . S
C663 C664 1.393 . S
C664 H636 0.931 . S
C664 C663 1.393 . S
C664 C665 1.382 . S
C665 H635 0.929 . S
C665 C660 1.371 . S
C665 C664 1.382 . S
C666 N629 1.423 . S
C666 C667 1.362 . S
C666 C671 1.388 . S
C667 H637 0.929 . S
C667 C666 1.362 . S
C667 C668 1.376 . S
C668 H639 0.931 . S
C668 C667 1.376 . S
C668 C669 1.396 . S
C669 C668 1.396 . S
C669 C670 1.348 . S
C669 C687 1.472 . S
C670 H640 0.929 . S
C670 C669 1.348 . S
C670 C671 1.443 . S
C671 H638 0.932 . S
C671 C666 1.388 . S
C671 C670 1.443 . S
C672 N652 1.433 . S
C672 C673 1.363 . S
C672 C677 1.370 . S
C673 H641 0.929 . S
C673 C672 1.363 . S
C673 C674 1.385 . S
C674 H642 0.930 . S
C674 C673 1.385 . S
C674 C675 1.357 . S
C675 C674 1.357 . S
C675 C676 1.406 . S
C676 H643 0.929 . S
C676 C675 1.406 . S
C676 C677 1.391 . S
C677 H644 0.931 . S
C677 C672 1.370 . S
C677 C676 1.391 . S
C678 N652 1.435 . S
C678 C679 1.358 . S
C678 C683 1.371 . S
C679 H645 0.930 . S
C679 C678 1.358 . S
C679 C680 1.405 . S
C680 H646 0.932 . S
C680 C679 1.405 . S
C680 C681 1.383 . S
C681 C680 1.383 . S
C681 C682 1.393 . S
C682 H647 0.931 . S
C682 C681 1.393 . S
C682 C683 1.382 . S
C683 H648 0.929 . S
C683 C678 1.371 . S
C683 C682 1.382 . S
C684 N652 1.423 . S
C684 C685 1.362 . S
C684 C689 1.388 . S
C685 H649 0.929 . S
C685 C684 1.362 . S
C685 C686 1.376 . S
C686 H650 0.931 . S
C686 C685 1.376 . S
C686 C687 1.396 . S
C687 C669 1.472 . S
C687 C686 1.396 . S
C687 C688 1.348 . S
C688 H651 0.929 . S
C688 C687 1.348 . S
C688 C689 1.443 . S
C689 H653 0.932 . S
C689 C684 1.388 . S
C689 C688 1.443 . S
C690 C691 1.369 . S
C690 C692 1.419 . S
C690 H694 0.930 . S
C691 C690 1.369 . S
C691 C700 1.429 . S
C692 C690 1.419 . S
C692 C693 1.363 . S
C692 H695 0.929 . S
C693 C692 1.363 . S
C693 C699 1.428 . S
H694 C690 0.930 . S
H695 C692 0.929 . S
S696 N697 1.613 . S
S696 N698 1.610 . S
N697 S696 1.613 . S
N697 C700 1.350 . S
N698 S696 1.610 . S
N698 C699 1.351 . S
C699 C693 1.428 . S
C699 N698 1.351 . S
C699 C700 1.434 . S
C700 C691 1.429 . S
C700 N697 1.350 . S
C700 C699 1.434 . S
C701 C702 1.369 . S
C701 C703 1.419 . S
C701 H705 0.930 . S
C702 C701 1.369 . S
C702 C711 1.429 . S
C703 C701 1.419 . S
C703 C704 1.363 . S
C703 H706 0.929 . S
C704 C703 1.363 . S
C704 C710 1.428 . S
H705 C701 0.930 . S
H706 C703 0.929 . S
S707 N708 1.613 . S
S707 N709 1.610 . S
N708 S707 1.613 . S
N708 C711 1.350 . S
N709 S707 1.610 . S
N709 C710 1.351 . S
C710 C704 1.428 . S
C710 N709 1.351 . S
C710 C711 1.434 . S
C711 C702 1.429 . S
C711 N708 1.350 . S
C711 C710 1.434 . S
C712 C713 1.369 . S
C712 C714 1.419 . S
C712 H716 0.930 . S
C713 C712 1.369 . S
C713 C722 1.429 . S
C714 C712 1.419 . S
C714 C715 1.363 . S
C714 H717 0.929 . S
C715 C714 1.363 . S
C715 C721 1.428 . S
H716 C712 0.930 . S
H717 C714 0.929 . S
S718 N719 1.613 . S
S718 N720 1.610 . S
N719 S718 1.613 . S
N719 C722 1.350 . S
N720 S718 1.610 . S
N720 C721 1.351 . S
C721 C715 1.428 . S
C721 N720 1.351 . S
C721 C722 1.434 . S
C722 C713 1.429 . S
C722 N719 1.350 . S
C722 C721 1.434 . S
C723 C724 1.369 . S
C723 C725 1.419 . S
C723 H727 0.930 . S
C724 C723 1.369 . S
C724 C733 1.429 . S
C725 C723 1.419 . S
C725 C726 1.363 . S
C725 H728 0.929 . S
C726 C725 1.363 . S
C726 C732 1.428 . S
H727 C723 0.930 . S
H728 C725 0.929 . S
S729 N730 1.613 . S
S729 N731 1.600 1_455 S
N730 S729 1.613 . S
N730 C733 1.350 1_455 S
N731 S729 1.600 1_655 S
N731 C732 1.353 . S
C732 C726 1.428 . S
C732 N731 1.353 . S
C732 C733 1.434 . S
C733 C724 1.429 . S
C733 N730 1.350 1_655 S
C733 C732 1.434 . S
C734 C735 1.369 . S
C734 C736 1.419 . S
C734 H738 0.930 . S
C735 C734 1.369 . S
C735 C744 1.429 . S
C736 C734 1.419 . S
C736 C737 1.363 . S
C736 H739 0.929 . S
C737 C736 1.363 . S
C737 C743 1.428 . S
H738 C734 0.930 . S
H739 C736 0.929 . S
S740 N741 1.613 . S
S740 N742 1.610 . S
N741 S740 1.613 . S
N741 C744 1.350 . S
N742 S740 1.610 . S
N742 C743 1.351 . S
C743 C737 1.428 . S
C743 N742 1.351 . S
C743 C744 1.434 . S
C744 C735 1.429 . S
C744 N741 1.350 . S
C744 C743 1.434 . S
C745 C746 1.369 . S
C745 C747 1.419 . S
C745 H749 0.930 . S
C746 C745 1.369 . S
C746 C755 1.429 . S
C747 C745 1.419 . S
C747 C748 1.363 . S
C747 H750 0.929 . S
C748 C747 1.363 . S
C748 C754 1.428 . S
H749 C745 0.930 . S
H750 C747 0.929 . S
S751 N752 1.613 . S
S751 N753 1.610 . S
N752 S751 1.613 . S
N752 C755 1.350 . S
N753 S751 1.610 . S
N753 C754 1.351 . S
C754 C748 1.428 . S
C754 N753 1.351 . S
C754 C755 1.434 . S
C755 C746 1.429 . S
C755 N752 1.350 . S
C755 C754 1.434 . S
C756 C757 1.369 . S
C756 C758 1.419 . S
C756 H760 0.930 . S
C757 C756 1.369 . S
C757 C766 1.429 . S
C758 C756 1.419 . S
C758 C759 1.363 . S
C758 H761 0.929 . S
C759 C758 1.363 . S
C759 C765 1.428 . S
H760 C756 0.930 . S
H761 C758 0.929 . S
S762 N763 1.613 . S
S762 N764 1.610 . S
N763 S762 1.613 . S
N763 C766 1.350 . S
N764 S762 1.610 . S
N764 C765 1.351 . S
C765 C759 1.428 . S
C765 N764 1.351 . S
C765 C766 1.434 . S
C766 C757 1.429 . S
C766 N763 1.350 . S
C766 C765 1.434 . S
C767 C768 1.369 . S
C767 C769 1.419 . S
C767 H771 0.930 . S
C768 C767 1.369 . S
C768 C777 1.429 . S
C769 C767 1.419 . S
C769 C770 1.363 . S
C769 H772 0.929 . S
C770 C769 1.363 . S
C770 C776 1.428 . S
H771 C767 0.930 . S
H772 C769 0.929 . S
S773 N774 1.613 . S
S773 N775 1.610 . S
N774 S773 1.613 . S
N774 C777 1.350 . S
N775 S773 1.610 . S
N775 C776 1.351 . S
C776 C770 1.428 . S
C776 N775 1.351 . S
C776 C777 1.434 . S
C777 C768 1.429 . S
C777 N774 1.350 . S
C777 C776 1.434 . S
C778 C779 1.369 . S
C778 C780 1.419 . S
C778 H782 0.930 . S
C779 C778 1.369 . S
C779 C788 1.429 . S
C780 C778 1.419 . S
C780 C781 1.363 . S
C780 H783 0.929 . S
C781 C780 1.363 . S
C781 C787 1.428 . S
H782 C778 0.930 . S
H783 C780 0.929 . S
S784 N785 1.613 . S
S784 N786 1.610 . S
N785 S784 1.613 . S
N785 C788 1.350 . S
N786 S784 1.610 . S
N786 C787 1.351 . S
C787 C781 1.428 . S
C787 N786 1.351 . S
C787 C788 1.434 . S
C788 C779 1.429 . S
C788 N785 1.350 . S
C788 C787 1.434 . S
C789 C790 1.369 . S
C789 C791 1.419 . S
C789 H793 0.930 . S
C790 C789 1.369 . S
C790 C799 1.429 . S
C791 C789 1.419 . S
C791 C792 1.363 . S
C791 H794 0.929 . S
C792 C791 1.363 . S
C792 C798 1.428 . S
H793 C789 0.930 . S
H794 C791 0.929 . S
S795 N796 1.613 . S
S795 N797 1.610 . S
N796 S795 1.613 . S
N796 C799 1.350 . S
N797 S795 1.610 . S
N797 C798 1.351 . S
C798 C792 1.428 . S
C798 N797 1.351 . S
C798 C799 1.434 . S
C799 C790 1.429 . S
C799 N796 1.350 . S
C799 C798 1.434 . S
C800 C801 1.369 . S
C800 C802 1.419 . S
C800 H804 0.930 . S
C801 C800 1.369 . S
C801 C810 1.429 . S
C802 C800 1.419 . S
C802 C803 1.363 . S
C802 H805 0.929 . S
C803 C802 1.363 . S
C803 C809 1.428 . S
H804 C800 0.930 . S
H805 C802 0.929 . S
S806 N807 1.613 . S
S806 N808 1.610 . S
N807 S806 1.613 . S
N807 C810 1.350 . S
N808 S806 1.610 . S
N808 C809 1.351 . S
C809 C803 1.428 . S
C809 N808 1.351 . S
C809 C810 1.434 . S
C810 C801 1.429 . S
C810 N807 1.350 . S
C810 C809 1.434 . S
C811 C812 1.369 . S
C811 C813 1.419 . S
C811 H815 0.930 . S
C812 C811 1.369 . S
C812 C821 1.429 . S
C813 C811 1.419 . S
C813 C814 1.363 . S
C813 H816 0.929 . S
C814 C813 1.363 . S
C814 C820 1.428 . S
H815 C811 0.930 . S
H816 C813 0.929 . S
S817 N818 1.613 . S
S817 N819 1.610 . S
N818 S817 1.613 . S
N818 C821 1.350 . S
N819 S817 1.610 . S
N819 C820 1.351 . S
C820 C814 1.428 . S
C820 N819 1.351 . S
C820 C821 1.434 . S
C821 C812 1.429 . S
C821 N818 1.350 . S
C821 C820 1.434 . S
C822 C823 1.369 1_554 S
C822 C824 1.419 1_554 S
C822 H826 0.930 . S
C823 C822 1.369 1_556 S
C823 C832 1.429 . S
C824 C822 1.419 1_556 S
C824 C825 1.363 . S
C824 H827 0.929 1_556 S
C825 C824 1.363 . S
C825 C831 1.428 . S
H826 C822 0.930 . S
H827 C824 0.929 1_554 S
S828 N829 1.613 . S
S828 N830 1.610 . S
N829 S828 1.613 . S
N829 C832 1.350 . S
N830 S828 1.610 . S
N830 C831 1.351 . S
C831 C825 1.428 . S
C831 N830 1.351 . S
C831 C832 1.434 . S
C832 C823 1.429 . S
C832 N829 1.350 . S
C832 C831 1.434 . S
C833 C834 1.369 . S
C833 C835 1.419 . S
C833 H837 0.930 . S
C834 C833 1.369 . S
C834 C843 1.429 . S
C835 C833 1.419 . S
C835 C836 1.363 . S
C835 H838 0.929 . S
C836 C835 1.363 . S
C836 C842 1.428 . S
H837 C833 0.930 . S
H838 C835 0.929 . S
S839 N840 1.613 . S
S839 N841 1.610 . S
N840 S839 1.613 . S
N840 C843 1.350 . S
N841 S839 1.610 . S
N841 C842 1.351 . S
C842 C836 1.428 . S
C842 N841 1.351 . S
C842 C843 1.434 . S
C843 C834 1.429 . S
C843 N840 1.350 . S
C843 C842 1.434 . S
C844 C845 1.369 . S
C844 C846 1.419 . S
C844 H848 0.930 . S
C845 C844 1.369 . S
C845 C854 1.429 . S
C846 C844 1.419 . S
C846 C847 1.363 . S
C846 H849 0.929 . S
C847 C846 1.363 . S
C847 C853 1.428 . S
H848 C844 0.930 . S
H849 C846 0.929 . S
S850 N851 1.613 . S
S850 N852 1.610 . S
N851 S850 1.613 . S
N851 C854 1.350 . S
N852 S850 1.610 . S
N852 C853 1.351 . S
C853 C847 1.428 . S
C853 N852 1.351 . S
C853 C854 1.434 . S
C854 C845 1.429 . S
C854 N851 1.350 . S
C854 C853 1.434 . S
C855 C856 1.369 . S
C855 C857 1.419 . S
C855 H859 0.930 . S
C856 C855 1.369 . S
C856 C865 1.429 . S
C857 C855 1.419 . S
C857 C858 1.363 . S
C857 H860 0.929 . S
C858 C857 1.363 . S
C858 C864 1.428 . S
H859 C855 0.930 . S
H860 C857 0.929 . S
S861 N862 1.613 . S
S861 N863 1.610 . S
N862 S861 1.613 . S
N862 C865 1.350 . S
N863 S861 1.610 . S
N863 C864 1.351 . S
C864 C858 1.428 . S
C864 N863 1.351 . S
C864 C865 1.434 . S
C865 C856 1.429 . S
C865 N862 1.350 . S
C865 C864 1.434 . S
C866 C867 1.369 . S
C866 C868 1.419 . S
C866 H870 0.930 . S
C867 C866 1.369 . S
C867 C876 1.429 . S
C868 C866 1.419 . S
C868 C869 1.363 . S
C868 H871 0.929 . S
C869 C868 1.363 . S
C869 C875 1.428 . S
H870 C866 0.930 . S
H871 C868 0.929 . S
S872 N873 1.613 . S
S872 N874 1.610 . S
N873 S872 1.613 . S
N873 C876 1.350 . S
N874 S872 1.610 . S
N874 C875 1.351 . S
C875 C869 1.428 . S
C875 N874 1.351 . S
C875 C876 1.434 . S
C876 C867 1.429 . S
C876 N873 1.350 . S
C876 C875 1.434 . S
C877 C878 1.369 . S
C877 C879 1.419 . S
C877 H881 0.930 . S
C878 C877 1.369 . S
C878 C887 1.429 . S
C879 C877 1.419 . S
C879 C880 1.363 . S
C879 H882 0.929 . S
C880 C879 1.363 . S
C880 C886 1.428 . S
H881 C877 0.930 . S
H882 C879 0.929 . S
S883 N884 1.613 . S
S883 N885 1.610 . S
N884 S883 1.613 . S
N884 C887 1.350 . S
N885 S883 1.610 . S
N885 C886 1.351 . S
C886 C880 1.428 . S
C886 N885 1.351 . S
C886 C887 1.434 . S
C887 C878 1.429 . S
C887 N884 1.350 . S
C887 C886 1.434 . S
C888 C889 1.369 . S
C888 C890 1.419 . S
C888 H892 0.930 . S
C889 C888 1.369 . S
C889 C898 1.429 . S
C890 C888 1.419 . S
C890 C891 1.363 . S
C890 H893 0.929 . S
C891 C890 1.363 . S
C891 C897 1.428 . S
H892 C888 0.930 . S
H893 C890 0.929 . S
S894 N895 1.613 . S
S894 N896 1.610 . S
N895 S894 1.613 . S
N895 C898 1.350 . S
N896 S894 1.610 . S
N896 C897 1.351 . S
C897 C891 1.428 . S
C897 N896 1.351 . S
C897 C898 1.434 . S
C898 C889 1.429 . S
C898 N895 1.350 . S
C898 C897 1.434 . S
C899 C900 1.369 . S
C899 C901 1.419 . S
C899 H903 0.930 . S
C900 C899 1.369 . S
C900 C909 1.429 . S
C901 C899 1.419 . S
C901 C902 1.363 . S
C901 H904 0.929 . S
C902 C901 1.363 . S
C902 C908 1.428 . S
H903 C899 0.930 . S
H904 C901 0.929 . S
S905 N906 1.613 . S
S905 N907 1.610 . S
N906 S905 1.613 . S
N906 C909 1.350 . S
N907 S905 1.610 . S
N907 C908 1.351 . S
C908 C902 1.428 . S
C908 N907 1.351 . S
C908 C909 1.434 . S
C909 C900 1.429 . S
C909 N906 1.350 . S
C909 C908 1.434 . S
C910 C911 1.352 1_455 S
C910 C912 1.415 1_455 S
C910 H914 0.952 . S
C911 C910 1.352 1_655 S
C911 C920 1.429 . S
C912 C910 1.415 1_655 S
C912 C913 1.363 . S
C912 H915 0.929 . S
C913 C912 1.363 . S
C913 C919 1.428 . S
H914 C910 0.952 . S
H915 C912 0.929 . S
S916 N917 1.613 . S
S916 N918 1.610 . S
N917 S916 1.613 . S
N917 C920 1.350 . S
N918 S916 1.610 . S
N918 C919 1.351 . S
C919 C913 1.428 . S
C919 N918 1.351 . S
C919 C920 1.434 . S
C920 C911 1.429 . S
C920 N917 1.350 . S
C920 C919 1.434 . S
C921 C922 1.369 . S
C921 C923 1.419 . S
C921 H925 0.930 . S
C922 C921 1.369 . S
C922 C931 1.429 . S
C923 C921 1.419 . S
C923 C924 1.363 . S
C923 H926 0.929 . S
C924 C923 1.363 . S
C924 C930 1.428 . S
H925 C921 0.930 . S
H926 C923 0.929 . S
S927 N928 1.613 . S
S927 N929 1.610 . S
N928 S927 1.613 . S
N928 C931 1.350 . S
N929 S927 1.610 . S
N929 C930 1.351 . S
C930 C924 1.428 . S
C930 N929 1.351 . S
C930 C931 1.434 . S
C931 C922 1.429 . S
C931 N928 1.350 . S
C931 C930 1.434 . S
C932 C933 1.369 . S
C932 C934 1.419 . S
C932 H936 0.930 . S
C933 C932 1.369 . S
C933 C942 1.429 . S
C934 C932 1.419 . S
C934 C935 1.363 . S
C934 H937 0.929 . S
C935 C934 1.363 . S
C935 C941 1.428 . S
H936 C932 0.930 . S
H937 C934 0.929 . S
S938 N939 1.613 . S
S938 N940 1.610 . S
N939 S938 1.613 . S
N939 C942 1.350 . S
N940 S938 1.610 . S
N940 C941 1.351 . S
C941 C935 1.428 . S
C941 N940 1.351 . S
C941 C942 1.434 . S
C942 C933 1.429 . S
C942 N939 1.350 . S
C942 C941 1.434 . S
C943 C944 1.369 . S
C943 C945 1.419 . S
C943 H947 0.930 . S
C944 C943 1.369 . S
C944 C953 1.429 . S
C945 C943 1.419 . S
C945 C946 1.363 . S
C945 H948 0.929 . S
C946 C945 1.363 . S
C946 C952 1.428 . S
H947 C943 0.930 . S
H948 C945 0.929 . S
S949 N950 1.613 . S
S949 N951 1.610 . S
N950 S949 1.613 . S
N950 C953 1.350 . S
N951 S949 1.610 . S
N951 C952 1.351 . S
C952 C946 1.428 . S
C952 N951 1.351 . S
C952 C953 1.434 . S
C953 C944 1.429 . S
C953 N950 1.350 . S
C953 C952 1.434 . S
C691 C39 1.772 . S
C693 C371 1.647 . S
C702 C91 1.792 . S
C704 C415 1.735 . S
C715 C495 1.503 . S
C713 C128 1.566 . S
C726 C539 1.485 . S
C724 C188 1.519 1_655 S
C737 C619 1.660 . S
C735 C250 1.730 . S
C748 C675 1.779 . S
C746 C304 1.978 . S
C757 C75 1.942 . S
C759 C471 1.648 . S
C768 C144 1.795 . S
C770 C551 1.637 . S
C781 C595 1.709 . S
C779 C198 1.899 . S
C792 C663 1.557 . S
C790 C234 1.579 . S
C801 C294 1.539 . S
C803 C347 1.419 . S
C814 C427 1.691 . S
C812 C29 1.723 . S
C825 C533 1.847 . S
C823 C38 1.971 1_556 S
C834 C92 1.744 . S
C836 C613 1.565 . S
C847 C681 1.602 . S
C845 C135 1.607 . S
C856 C181 1.751 . S
C858 C365 1.663 . S
C867 C251 1.609 . S
C869 C409 1.541 . S
C878 C303 2.016 . S
C880 C489 1.735 . S
C889 C82 1.910 . S
C891 C657 1.690 . S
C902 C353 1.697 . S
C900 C145 1.842 . S
C911 C197 1.675 1_655 S
C913 C433 1.600 . S
C922 C241 1.528 . S
C924 C477 1.470 . S
C933 C287 1.655 . S
C935 C557 1.632 . S
C944 C22 1.539 . S
C946 C601 1.468 . S
