# Generated by pormake.
# Topology ctn, (3,4)-cn, num edge types: 1
# Building blocks:
#     Node 0, Type 0, BuildingBlock: BELTOD_clean_linker_0, # of connection points: 3
#     Node 1, Type 0, BuildingBlock: BELTOD_clean_linker_0, # of connection points: 3
#     Node 2, Type 0, BuildingBlock: BELTOD_clean_linker_0, # of connection points: 3
#     Node 3, Type 0, BuildingBlock: BELTOD_clean_linker_0, # of connection points: 3
#     Node 4, Type 0, BuildingBlock: BELTOD_clean_linker_0, # of connection points: 3
#     Node 5, Type 0, BuildingBlock: BELTOD_clean_linker_0, # of connection points: 3
#     Node 6, Type 0, BuildingBlock: BELTOD_clean_linker_0, # of connection points: 3
#     Node 7, Type 0, BuildingBlock: BELTOD_clean_linker_0, # of connection points: 3
#     Node 8, Type 0, BuildingBlock: BELTOD_clean_linker_0, # of connection points: 3
#     Node 9, Type 0, BuildingBlock: BELTOD_clean_linker_0, # of connection points: 3
#     Node 10, Type 0, BuildingBlock: BELTOD_clean_linker_0, # of connection points: 3
#     Node 11, Type 0, BuildingBlock: BELTOD_clean_linker_0, # of connection points: 3
#     Node 12, Type 0, BuildingBlock: BELTOD_clean_linker_0, # of connection points: 3
#     Node 13, Type 0, BuildingBlock: BELTOD_clean_linker_0, # of connection points: 3
#     Node 14, Type 0, BuildingBlock: BELTOD_clean_linker_0, # of connection points: 3
#     Node 15, Type 0, BuildingBlock: BELTOD_clean_linker_0, # of connection points: 3
#     Node 16, Type 1, BuildingBlock: QUQFOY_clean_sbu_1, # of connection points: 4
#     Node 17, Type 1, BuildingBlock: QUQFOY_clean_sbu_1, # of connection points: 4
#     Node 18, Type 1, BuildingBlock: QUQFOY_clean_sbu_1, # of connection points: 4
#     Node 19, Type 1, BuildingBlock: QUQFOY_clean_sbu_1, # of connection points: 4
#     Node 20, Type 1, BuildingBlock: QUQFOY_clean_sbu_1, # of connection points: 4
#     Node 21, Type 1, BuildingBlock: QUQFOY_clean_sbu_1, # of connection points: 4
#     Node 22, Type 1, BuildingBlock: QUQFOY_clean_sbu_1, # of connection points: 4
#     Node 23, Type 1, BuildingBlock: QUQFOY_clean_sbu_1, # of connection points: 4
#     Node 24, Type 1, BuildingBlock: QUQFOY_clean_sbu_1, # of connection points: 4
#     Node 25, Type 1, BuildingBlock: QUQFOY_clean_sbu_1, # of connection points: 4
#     Node 26, Type 1, BuildingBlock: QUQFOY_clean_sbu_1, # of connection points: 4
#     Node 27, Type 1, BuildingBlock: QUQFOY_clean_sbu_1, # of connection points: 4
#     Edge 28, Type (0, 1), BuildingBlock: CIFDUS_clean_linker_0, # of connection points: 2
#     Edge 29, Type (0, 1), BuildingBlock: CIFDUS_clean_linker_0, # of connection points: 2
#     Edge 30, Type (0, 1), BuildingBlock: CIFDUS_clean_linker_0, # of connection points: 2
#     Edge 31, Type (0, 1), BuildingBlock: CIFDUS_clean_linker_0, # of connection points: 2
#     Edge 32, Type (0, 1), BuildingBlock: CIFDUS_clean_linker_0, # of connection points: 2
#     Edge 33, Type (0, 1), BuildingBlock: CIFDUS_clean_linker_0, # of connection points: 2
#     Edge 34, Type (0, 1), BuildingBlock: CIFDUS_clean_linker_0, # of connection points: 2
#     Edge 35, Type (0, 1), BuildingBlock: CIFDUS_clean_linker_0, # of connection points: 2
#     Edge 36, Type (0, 1), BuildingBlock: CIFDUS_clean_linker_0, # of connection points: 2
#     Edge 37, Type (0, 1), BuildingBlock: CIFDUS_clean_linker_0, # of connection points: 2
#     Edge 38, Type (0, 1), BuildingBlock: CIFDUS_clean_linker_0, # of connection points: 2
#     Edge 39, Type (0, 1), BuildingBlock: CIFDUS_clean_linker_0, # of connection points: 2
#     Edge 40, Type (0, 1), BuildingBlock: CIFDUS_clean_linker_0, # of connection points: 2
#     Edge 41, Type (0, 1), BuildingBlock: CIFDUS_clean_linker_0, # of connection points: 2
#     Edge 42, Type (0, 1), BuildingBlock: CIFDUS_clean_linker_0, # of connection points: 2
#     Edge 43, Type (0, 1), BuildingBlock: CIFDUS_clean_linker_0, # of connection points: 2
#     Edge 44, Type (0, 1), BuildingBlock: CIFDUS_clean_linker_0, # of connection points: 2
#     Edge 45, Type (0, 1), BuildingBlock: CIFDUS_clean_linker_0, # of connection points: 2
#     Edge 46, Type (0, 1), BuildingBlock: CIFDUS_clean_linker_0, # of connection points: 2
#     Edge 47, Type (0, 1), BuildingBlock: CIFDUS_clean_linker_0, # of connection points: 2
#     Edge 48, Type (0, 1), BuildingBlock: CIFDUS_clean_linker_0, # of connection points: 2
#     Edge 49, Type (0, 1), BuildingBlock: CIFDUS_clean_linker_0, # of connection points: 2
#     Edge 50, Type (0, 1), BuildingBlock: CIFDUS_clean_linker_0, # of connection points: 2
#     Edge 51, Type (0, 1), BuildingBlock: CIFDUS_clean_linker_0, # of connection points: 2
#     Edge 52, Type (0, 1), BuildingBlock: CIFDUS_clean_linker_0, # of connection points: 2
#     Edge 53, Type (0, 1), BuildingBlock: CIFDUS_clean_linker_0, # of connection points: 2
#     Edge 54, Type (0, 1), BuildingBlock: CIFDUS_clean_linker_0, # of connection points: 2
#     Edge 55, Type (0, 1), BuildingBlock: CIFDUS_clean_linker_0, # of connection points: 2
#     Edge 56, Type (0, 1), BuildingBlock: CIFDUS_clean_linker_0, # of connection points: 2
#     Edge 57, Type (0, 1), BuildingBlock: CIFDUS_clean_linker_0, # of connection points: 2
#     Edge 58, Type (0, 1), BuildingBlock: CIFDUS_clean_linker_0, # of connection points: 2
#     Edge 59, Type (0, 1), BuildingBlock: CIFDUS_clean_linker_0, # of connection points: 2
#     Edge 60, Type (0, 1), BuildingBlock: CIFDUS_clean_linker_0, # of connection points: 2
#     Edge 61, Type (0, 1), BuildingBlock: CIFDUS_clean_linker_0, # of connection points: 2
#     Edge 62, Type (0, 1), BuildingBlock: CIFDUS_clean_linker_0, # of connection points: 2
#     Edge 63, Type (0, 1), BuildingBlock: CIFDUS_clean_linker_0, # of connection points: 2
#     Edge 64, Type (0, 1), BuildingBlock: CIFDUS_clean_linker_0, # of connection points: 2
#     Edge 65, Type (0, 1), BuildingBlock: CIFDUS_clean_linker_0, # of connection points: 2
#     Edge 66, Type (0, 1), BuildingBlock: CIFDUS_clean_linker_0, # of connection points: 2
#     Edge 67, Type (0, 1), BuildingBlock: CIFDUS_clean_linker_0, # of connection points: 2
#     Edge 68, Type (0, 1), BuildingBlock: CIFDUS_clean_linker_0, # of connection points: 2
#     Edge 69, Type (0, 1), BuildingBlock: CIFDUS_clean_linker_0, # of connection points: 2
#     Edge 70, Type (0, 1), BuildingBlock: CIFDUS_clean_linker_0, # of connection points: 2
#     Edge 71, Type (0, 1), BuildingBlock: CIFDUS_clean_linker_0, # of connection points: 2
#     Edge 72, Type (0, 1), BuildingBlock: CIFDUS_clean_linker_0, # of connection points: 2
#     Edge 73, Type (0, 1), BuildingBlock: CIFDUS_clean_linker_0, # of connection points: 2
#     Edge 74, Type (0, 1), BuildingBlock: CIFDUS_clean_linker_0, # of connection points: 2
#     Edge 75, Type (0, 1), BuildingBlock: CIFDUS_clean_linker_0, # of connection points: 2
# Relax obj value: 0.037
# Max RMSD: 0.151
# Mean RMSD: 0.068
data_MOF--net-ctn--node1-QUQFOY_clean_sbu_1--node2-BELTOD_clean_linker_0--edge1-CIFDUS_clean_linker_0
_symmetry_space_group_name_H-M    P1
_symmetry_Int_Tables_number       1
_symmetry_cell_setting            triclinic
loop_
_symmetry_equiv_pos_as_xyz
'x, y, z'
_cell_length_a     55.384
_cell_length_b     55.802
_cell_length_c     55.441918
_cell_angle_alpha  92.180874
_cell_angle_beta   90.186906
_cell_angle_gamma 95.545853
loop_
_atom_site_label
_atom_site_type_symbol
_atom_site_fract_x
_atom_site_fract_y
_atom_site_fract_z
_atom_type_partial_charge
P0 P 0.06394 0.11166 0.07652 0.0
H1 H 0.05806 0.07282 0.11085 0.0
H2 H 0.02591 0.06068 0.13932 0.0
H3 H 0.98482 0.11745 0.11537 0.0
H4 H 0.01706 0.1296 0.08719 0.0
H5 H 0.11416 0.11041 0.0622 0.0
H6 H 0.13682 0.07891 0.04419 0.0
H7 H 0.07235 0.02879 0.045 0.0
H8 H 0.04959 0.06064 0.06288 0.0
H9 H 0.07551 0.1598 0.05773 0.0
H10 H 0.02656 0.09659 0.04046 0.0
O11 O 0.08309 0.131 0.09262 0.0
H12 H 0.05719 0.18129 0.02589 0.0
H13 H 0.00825 0.1179 0.0083 0.0
C14 C 0.03958 0.10154 0.09626 0.0
C15 C 0.04193 0.08236 0.11142 0.0
C16 C 0.02355 0.07546 0.1277 0.0
C17 C 0.00271 0.08797 0.12944 0.0
C18 C 0.00065 0.10747 0.1145 0.0
C19 C 0.01898 0.11426 0.09817 0.0
C20 C 0.08039 0.08768 0.06447 0.0
C21 C 0.10492 0.0926 0.05873 0.0
C22 C 0.11781 0.07464 0.04827 0.0
C23 C 0.10636 0.05138 0.04327 0.0
C24 C 0.08169 0.04647 0.04896 0.0
C25 C 0.06871 0.06462 0.05919 0.0
C26 C 0.05216 0.12672 0.05158 0.0
C27 C 0.06099 0.15046 0.0469 0.0
C28 C 0.0506 0.16267 0.02857 0.0
C29 C 0.03119 0.15133 0.01464 0.0
C30 C 0.02297 0.12722 0.01891 0.0
C31 C 0.03346 0.11499 0.03718 0.0
P32 P 0.29568 0.70782 0.19282 0.0
H33 H 0.30929 0.72634 0.14577 0.0
H34 H 0.29286 0.75583 0.12065 0.0
H35 H 0.24143 0.77055 0.17651 0.0
H36 H 0.25865 0.74146 0.20195 0.0
H37 H 0.33683 0.68877 0.21565 0.0
H38 H 0.36407 0.70388 0.24883 0.0
H39 H 0.32774 0.76888 0.25459 0.0
H40 H 0.30024 0.75355 0.22174 0.0
H41 H 0.24353 0.6986 0.18119 0.0
H42 H 0.29397 0.67457 0.23234 0.0
O43 O 0.31011 0.68981 0.17429 0.0
H44 H 0.21067 0.67344 0.1991 0.0
H45 H 0.26174 0.64774 0.24897 0.0
C46 C 0.28478 0.73128 0.17546 0.0
C47 C 0.29454 0.73595 0.15268 0.0
C48 C 0.28498 0.75272 0.13825 0.0
C49 C 0.26541 0.76516 0.14633 0.0
C50 C 0.25644 0.76126 0.1697 0.0
C51 C 0.26617 0.74456 0.1842 0.0
C52 C 0.31669 0.72014 0.21598 0.0
C53 C 0.33481 0.70634 0.22394 0.0
C54 C 0.35024 0.71489 0.24298 0.0
C55 C 0.34797 0.73752 0.25422 0.0
C56 C 0.32997 0.75144 0.24608 0.0
C57 C 0.31426 0.74269 0.22727 0.0
C58 C 0.27111 0.68943 0.20614 0.0
C59 C 0.24756 0.6882 0.19651 0.0
C60 C 0.22876 0.67334 0.20652 0.0
C61 C 0.23333 0.65861 0.22575 0.0
C62 C 0.25721 0.65936 0.23477 0.0
C63 C 0.27582 0.67466 0.22512 0.0
P64 P 0.98197 0.51231 0.05811 0.0
H65 H 0.98194 0.50749 0.0059 0.0
H66 H 0.98061 0.47279 0.97759 0.0
H67 H 0.97843 0.4252 0.03746 0.0
H68 H 0.97899 0.46006 0.06565 0.0
H69 H 0.96759 0.56083 0.06676 0.0
H70 H 0.92931 0.57828 0.06012 0.0
H71 H 0.89419 0.50728 0.04225 0.0
H72 H 0.93246 0.48998 0.04888 0.0
H73 H 0.02735 0.49795 0.07577 0.0
H74 H 0.95787 0.51128 0.10556 0.0
O75 O 0.00254 0.5332 0.04774 0.0
H76 H 0.04264 0.49155 0.11612 0.0
H77 H 0.97289 0.50448 0.14608 0.0
C78 C 0.9812 0.48635 0.03781 0.0
C79 C 0.98128 0.48957 0.0129 0.0
C80 C 0.98058 0.46972 0.99676 0.0
C81 C 0.97974 0.44622 0.00526 0.0
C82 C 0.97899 0.44304 0.03032 0.0
C83 C 0.97959 0.46297 0.04647 0.0
C84 C 0.95296 0.52425 0.05767 0.0
C85 C 0.95154 0.54901 0.06177 0.0
C86 C 0.92964 0.55893 0.05811 0.0
C87 C 0.90887 0.54417 0.05031 0.0
C88 C 0.91003 0.51913 0.04784 0.0
C89 C 0.93189 0.50923 0.05164 0.0
C90 C 0.99164 0.50538 0.08778 0.0
C91 C 0.01531 0.4992 0.09103 0.0
C92 C 0.02394 0.49533 0.11409 0.0
C93 C 0.009 0.49757 0.13435 0.0
C94 C 0.98493 0.50292 0.13087 0.0
C95 C 0.9763 0.50677 0.10772 0.0
P96 P 0.66519 0.83544 0.21364 0.0
H97 H 0.67024 0.88751 0.22198 0.0
H98 H 0.70527 0.91696 0.22932 0.0
H99 H 0.75253 0.8597 0.22561 0.0
H100 H 0.71732 0.83029 0.21799 0.0
H101 H 0.66018 0.83127 0.16146 0.0
H102 H 0.66754 0.79954 0.13169 0.0
H103 H 0.69342 0.75711 0.1882 0.0
H104 H 0.68613 0.78924 0.21806 0.0
H105 H 0.67008 0.85253 0.26428 0.0
H106 H 0.63346 0.7922 0.22358 0.0
O107 O 0.64313 0.84994 0.20205 0.0
H108 H 0.6478 0.8401 0.30035 0.0
H109 H 0.61114 0.77969 0.25963 0.0
C110 C 0.69126 0.85681 0.21894 0.0
C111 C 0.68815 0.8813 0.22258 0.0
C112 C 0.70817 0.8981 0.22699 0.0
C113 C 0.73167 0.89066 0.22795 0.0
C114 C 0.73468 0.866 0.2246 0.0
C115 C 0.71458 0.84918 0.22029 0.0
C116 C 0.67204 0.8123 0.19198 0.0
C117 C 0.66738 0.81513 0.16749 0.0
C118 C 0.67153 0.79696 0.1505 0.0
C119 C 0.68066 0.77567 0.15768 0.0
C120 C 0.68631 0.77329 0.18217 0.0
C121 C 0.68203 0.79154 0.19923 0.0
C122 C 0.65371 0.82308 0.24129 0.0
C123 C 0.65783 0.8362 0.26323 0.0
C124 C 0.64501 0.82914 0.28384 0.0
C125 C 0.62773 0.80894 0.28279 0.0
C126 C 0.62461 0.7951 0.26109 0.0
C127 C 0.63734 0.80227 0.24045 0.0
P128 P 0.06807 0.92121 0.42042 0.0
H129 H 0.10694 0.94576 0.39264 0.0
H130 H 0.13732 0.97957 0.40249 0.0
H131 H 0.10929 0.98384 0.47505 0.0
H132 H 0.07873 0.95049 0.4649 0.0
H133 H 0.09109 0.88566 0.4469 0.0
H134 H 0.08041 0.86443 0.4837 0.0
H135 H 0.01563 0.90157 0.49007 0.0
H136 H 0.0263 0.92246 0.45299 0.0
H137 H 0.05 0.96924 0.42042 0.0
H138 H 0.02996 0.89826 0.38882 0.0
O139 O 0.08001 0.90212 0.40099 0.0
H140 H 0.01792 0.98517 0.39723 0.0
H141 H 0.99748 0.91393 0.36597 0.0
C142 C 0.09095 0.94535 0.42818 0.0
C143 C 0.10751 0.95389 0.41071 0.0
C144 C 0.12488 0.97315 0.41639 0.0
C145 C 0.12578 0.98432 0.43959 0.0
C146 C 0.10896 0.97577 0.45696 0.0
C147 C 0.09161 0.95653 0.45125 0.0
C148 C 0.05921 0.90516 0.44697 0.0
C149 C 0.07448 0.88904 0.45612 0.0
C150 C 0.06848 0.87712 0.47729 0.0
C151 C 0.04714 0.88127 0.4898 0.0
C152 C 0.032 0.89771 0.48066 0.0
C153 C 0.03806 0.90965 0.45947 0.0
C154 C 0.04272 0.93267 0.40582 0.0
C155 C 0.03858 0.95703 0.40865 0.0
C156 C 0.02008 0.96609 0.39553 0.0
C157 C 0.00538 0.95089 0.37948 0.0
C158 C 0.00883 0.92622 0.37777 0.0
C159 C 0.02731 0.91721 0.39087 0.0
P160 P 0.25872 0.76565 0.76532 0.0
H161 H 0.27454 0.81194 0.79009 0.0
H162 H 0.26494 0.82941 0.82961 0.0
H163 H 0.22168 0.76348 0.84588 0.0
H164 H 0.23109 0.74622 0.8063 0.0
H165 H 0.30801 0.75396 0.755 0.0
H166 H 0.32815 0.71715 0.75751 0.0
H167 H 0.26123 0.67932 0.78131 0.0
H168 H 0.24121 0.7163 0.77894 0.0
H169 H 0.22336 0.8 0.76028 0.0
H170 H 0.23026 0.72643 0.73663 0.0
O171 O 0.27691 0.7856 0.7505 0.0
H172 H 0.18271 0.79736 0.74255 0.0
H173 H 0.18929 0.72354 0.71936 0.0
C174 C 0.25399 0.77754 0.79541 0.0
C175 C 0.26324 0.8011 0.80224 0.0
C176 C 0.25755 0.81117 0.82474 0.0
C177 C 0.24255 0.7978 0.84081 0.0
C178 C 0.23352 0.77411 0.83399 0.0
C179 C 0.23903 0.76415 0.8114 0.0
C180 C 0.27297 0.73791 0.76648 0.0
C181 C 0.29757 0.73774 0.76061 0.0
C182 C 0.30909 0.71662 0.762 0.0
C183 C 0.2963 0.69523 0.76952 0.0
C184 C 0.27169 0.69553 0.77568 0.0
C185 C 0.26018 0.71669 0.77424 0.0
C186 C 0.22959 0.76322 0.75041 0.0
C187 C 0.21614 0.78327 0.75126 0.0
C188 C 0.19298 0.78181 0.74099 0.0
C189 C 0.1828 0.76019 0.72976 0.0
C190 C 0.19662 0.74032 0.72823 0.0
C191 C 0.21999 0.74192 0.73824 0.0
P192 P 0.9956 0.51316 0.55373 0.0
H193 H 0.04682 0.51467 0.54154 0.0
H194 H 0.06821 0.51425 0.50309 0.0
H195 H -0.00057 0.50821 0.46508 0.0
H196 H 0.97835 0.50975 0.50359 0.0
H197 H 0.01745 0.54554 0.59227 0.0
H198 H 0.01409 0.58788 0.60285 0.0
H199 H 0.96533 0.59194 0.54236 0.0
H200 H 0.96962 0.54969 0.53138 0.0
H201 H 0.97872 0.46586 0.53269 0.0
H202 H 0.94751 0.52384 0.57133 0.0
O203 O 0.01152 0.50087 0.57481 0.0
H204 H 0.93837 0.44403 0.528 0.0
H205 H 0.90724 0.5022 0.56658 0.0
C206 C 0.01103 0.51155 0.52537 0.0
C207 C 0.03639 0.51306 0.5249 0.0
C208 C 0.04857 0.51273 0.50289 0.0
C209 C 0.03555 0.51095 0.48094 0.0
C210 C 0.01006 0.50977 0.48159 0.0
C211 C 0.99794 0.51033 0.50362 0.0
C212 C 0.99351 0.54447 0.56127 0.0
C213 C 0.00607 0.55554 0.58128 0.0
C214 C 0.00398 0.57974 0.58739 0.0
C215 C 0.98915 0.59326 0.57365 0.0
C216 C 0.977 0.58214 0.55325 0.0
C217 C 0.97931 0.55797 0.54703 0.0
C218 C 0.96601 0.49679 0.55164 0.0
C219 C 0.96319 0.47389 0.54012 0.0
C220 C 0.94018 0.4614 0.53757 0.0
C221 C 0.91966 0.47159 0.54667 0.0
C222 C 0.92269 0.49417 0.55896 0.0
C223 C 0.94573 0.50656 0.56164 0.0
P224 P 0.82909 0.85154 0.84798 0.0
H225 H 0.85834 0.87733 0.81181 0.0
H226 H 0.88464 0.86366 0.77955 0.0
H227 H 0.86155 0.78974 0.79496 0.0
H228 H 0.83511 0.80332 0.82667 0.0
H229 H 0.7927 0.87033 0.87851 0.0
H230 H 0.75814 0.89291 0.87069 0.0
H231 H 0.77332 0.88914 0.79429 0.0
H232 H 0.80756 0.86581 0.80225 0.0
H233 H 0.85549 0.82867 0.88489 0.0
H234 H 0.78476 0.81852 0.85121 0.0
O235 O 0.84811 0.87132 0.86369 0.0
H236 H 0.84498 0.79369 0.90942 0.0
H237 H 0.77414 0.78347 0.87559 0.0
C238 C 0.84502 0.8414 0.82184 0.0
C239 C 0.85864 0.8582 0.80792 0.0
C240 C 0.87358 0.85039 0.78951 0.0
C241 C 0.87528 0.82567 0.78504 0.0
C242 C 0.86077 0.80891 0.7983 0.0
C243 C 0.84562 0.81671 0.81644 0.0
C244 C 0.80271 0.86647 0.84102 0.0
C245 C 0.78844 0.87415 0.86005 0.0
C246 C 0.76878 0.88719 0.85555 0.0
C247 C 0.76314 0.89308 0.83188 0.0
C248 C 0.77711 0.88477 0.8127 0.0
C249 C 0.7968 0.87157 0.81725 0.0
C250 C 0.82067 0.82654 0.86676 0.0
C251 C 0.83761 0.81904 0.88296 0.0
C252 C 0.83167 0.79892 0.89678 0.0
C253 C 0.80868 0.78591 0.89451 0.0
C254 C 0.79183 0.79337 0.87803 0.0
C255 C 0.79787 0.81342 0.86412 0.0
P256 P 0.33685 0.35888 0.3618 0.0
H257 H 0.36685 0.3863 0.32733 0.0
H258 H 0.39201 0.37395 0.29354 0.0
H259 H 0.36536 0.29964 0.30314 0.0
H260 H 0.34023 0.31194 0.33646 0.0
H261 H 0.30732 0.38406 0.39501 0.0
H262 H 0.27494 0.41011 0.38969 0.0
H263 H 0.28046 0.40036 0.31226 0.0
H264 H 0.31257 0.37368 0.31781 0.0
H265 H 0.35994 0.32897 0.39511 0.0
H266 H 0.28954 0.33022 0.362 0.0
O267 O 0.35743 0.37498 0.37938 0.0
H268 H 0.34587 0.29174 0.41477 0.0
H269 H 0.27534 0.29285 0.38148 0.0
C270 C 0.3519 0.35007 0.3346 0.0
C271 C 0.36615 0.3674 0.32186 0.0
C272 C 0.38045 0.36035 0.30258 0.0
C273 C 0.38083 0.33582 0.296 0.0
C274 C 0.36568 0.31864 0.30812 0.0
C275 C 0.35124 0.32571 0.32717 0.0
C276 C 0.31256 0.3773 0.35684 0.0
C277 C 0.30153 0.38751 0.37689 0.0
C278 C 0.28309 0.40246 0.3738 0.0
C279 C 0.27535 0.40758 0.35053 0.0
C280 C 0.28598 0.39671 0.3304 0.0
C281 C 0.30447 0.38163 0.33355 0.0
C282 C 0.3256 0.33261 0.37762 0.0
C283 C 0.34136 0.32136 0.39232 0.0
C284 C 0.33337 0.29997 0.40333 0.0
C285 C 0.30948 0.2894 0.39969 0.0
C286 C 0.29373 0.30076 0.3849 0.0
C287 C 0.3018 0.32212 0.37379 0.0
P288 P 0.45753 0.99622 0.57395 0.0
H289 H 0.42704 0.97977 0.53267 0.0
H290 H 0.42027 0.941 0.51067 0.0
H291 H 0.46339 0.90901 0.56356 0.0
H292 H 0.46965 0.94779 0.58584 0.0
H293 H 0.45598 0.04608 0.56036 0.0
H294 H 0.42251 0.07064 0.55377 0.0
H295 H 0.37168 0.0127 0.5772 0.0
H296 H 0.40535 0.98805 0.58361 0.0
H297 H 0.50558 0.9919 0.59349 0.0
H298 H 0.43374 0.99794 0.6214 0.0
O299 O 0.48028 0.00796 0.55708 0.0
H300 H 0.52186 0.99372 0.6345 0.0
H301 H 0.44985 -0.00059 0.66263 0.0
C302 C 0.44853 0.96662 0.5611 0.0
C303 C 0.43443 0.96427 0.53997 0.0
C304 C 0.43075 0.94214 0.52728 0.0
C305 C 0.44144 0.92199 0.5353 0.0
C306 C 0.45468 0.92412 0.55709 0.0
C307 C 0.45833 0.94634 0.56981 0.0
C308 C 0.43306 0.01511 0.57206 0.0
C309 C 0.43768 0.03868 0.56424 0.0
C310 C 0.41855 0.0527 0.56047 0.0
C311 C 0.39451 0.04348 0.56477 0.0
C312 C 0.39005 0.02029 0.57384 0.0
C313 C 0.40922 0.00617 0.57739 0.0
C314 C 0.46858 0.99541 0.60441 0.0
C315 C 0.49327 0.99346 0.60848 0.0
C316 C 0.50252 0.99424 0.63197 0.0
C317 C 0.48717 0.99686 0.65185 0.0
C318 C 0.46219 0.99775 0.64768 0.0
C319 C 0.45295 0.9969 0.62412 0.0
P320 P 0.18405 0.32459 0.69882 0.0
H321 H 0.17914 0.37478 0.71054 0.0
H322 H 0.20739 0.40811 0.72646 0.0
H323 H 0.2639 0.36014 0.72975 0.0
H324 H 0.23539 0.32668 0.71434 0.0
H325 H 0.17163 0.27254 0.70333 0.0
H326 H 0.18544 0.23773 0.68141 0.0
H327 H 0.23898 0.28463 0.64499 0.0
H328 H 0.22519 0.31941 0.66713 0.0
H329 H 0.13213 0.32903 0.70289 0.0
H330 H 0.18889 0.30459 0.74645 0.0
O331 O 0.16962 0.33529 0.67567 0.0
H332 H 0.1034 0.32181 0.73558 0.0
H333 H 0.15998 0.29735 0.77958 0.0
C334 C 0.20538 0.34848 0.71064 0.0
C335 C 0.19763 0.37145 0.71467 0.0
C336 C 0.21369 0.39042 0.72389 0.0
C337 C 0.23783 0.38669 0.72913 0.0
C338 C 0.24545 0.36351 0.72552 0.0
C339 C 0.22922 0.34444 0.71662 0.0
C340 C 0.19772 0.29858 0.68724 0.0
C341 C 0.18686 0.27533 0.69125 0.0
C342 C 0.19466 0.25541 0.67858 0.0
C343 C 0.21329 0.25844 0.66148 0.0
C344 C 0.22488 0.28165 0.65834 0.0
C345 C 0.21698 0.30156 0.67095 0.0
C346 C 0.1626 0.31731 0.72229 0.0
C347 C 0.1384 0.32195 0.71945 0.0
C348 C 0.122 0.31794 0.73821 0.0
C349 C 0.12953 0.30923 0.76019 0.0
C350 C 0.15369 0.30398 0.76279 0.0
C351 C 0.17018 0.30816 0.74397 0.0
P352 P 0.80008 0.18548 0.69074 0.0
H353 H 0.80277 0.18594 0.63828 0.0
H354 H 0.79549 0.21621 0.60927 0.0
H355 H 0.77955 0.26556 0.66774 0.0
H356 H 0.78658 0.23482 0.69681 0.0
H357 H 0.8031 0.16978 0.7402 0.0
H358 H 0.82857 0.18399 0.77459 0.0
H359 H 0.86663 0.23755 0.73051 0.0
H360 H 0.8399 0.22405 0.69652 0.0
H361 H 0.76705 0.1439 0.67469 0.0
H362 H 0.76807 0.20186 0.72854 0.0
O363 O 0.81355 0.16331 0.6769 0.0
H364 H 0.72911 0.12542 0.69137 0.0
H365 H 0.73043 0.18309 0.74567 0.0
C366 C 0.79573 0.20838 0.66968 0.0
C367 C 0.79793 0.20333 0.64491 0.0
C368 C 0.79376 0.22067 0.62833 0.0
C369 C 0.78716 0.24338 0.63622 0.0
C370 C 0.78451 0.24821 0.66111 0.0
C371 C 0.78872 0.23078 0.67772 0.0
C372 C 0.81894 0.1965 0.71607 0.0
C373 C 0.81656 0.18494 0.73806 0.0
C374 C 0.83146 0.19287 0.75768 0.0
C375 C 0.84965 0.21206 0.7555 0.0
C376 C 0.85243 0.22315 0.73311 0.0
C377 C 0.83722 0.21539 0.71358 0.0
C378 C 0.77071 0.17374 0.70095 0.0
C379 C 0.75901 0.15272 0.68998 0.0
C380 C 0.73728 0.1423 0.69938 0.0
C381 C 0.72709 0.15277 0.71991 0.0
C382 C 0.73811 0.17461 0.72996 0.0
C383 C 0.7596 0.18524 0.72027 0.0
P384 P 0.57713 0.60655 0.57663 0.0
H385 H 0.57719 0.57035 0.61321 0.0
H386 H 0.54634 0.55389 0.64109 0.0
H387 H 0.49582 0.60058 0.6133 0.0
H388 H 0.52688 0.61733 0.58594 0.0
H389 H 0.62648 0.60718 0.55877 0.0
H390 H 0.64977 0.57603 0.54093 0.0
H391 H 0.58744 0.52372 0.54643 0.0
H392 H 0.56411 0.55511 0.56412 0.0
H393 H 0.58299 0.65682 0.56234 0.0
H394 H 0.54158 0.59051 0.53905 0.0
O395 O 0.59637 0.62585 0.59268 0.0
H396 H 0.5618 0.67863 0.53274 0.0
H397 H 0.52028 0.61226 0.50924 0.0
C398 C 0.55411 0.59445 0.59692 0.0
C399 C 0.55941 0.57689 0.613 0.0
C400 C 0.54174 0.56748 0.62889 0.0
C401 C 0.5185 0.5757 0.62919 0.0
C402 C 0.51352 0.59388 0.61355 0.0
C403 C 0.53123 0.60327 0.59766 0.0
C404 C 0.5938 0.58331 0.56333 0.0
C405 C 0.61784 0.589 0.55621 0.0
C406 C 0.63108 0.57121 0.54588 0.0
C407 C 0.62046 0.54739 0.54243 0.0
C408 C 0.59619 0.54183 0.54922 0.0
C409 C 0.58286 0.55975 0.55932 0.0
C410 C 0.56375 0.62208 0.55291 0.0
C411 C 0.56958 0.64688 0.55061 0.0
C412 C 0.55753 0.65932 0.5336 0.0
C413 C 0.53932 0.64716 0.51872 0.0
C414 C 0.53407 0.62214 0.52061 0.0
C415 C 0.54629 0.60968 0.53751 0.0
P416 P 0.57692 0.43117 0.92329 0.0
H417 H 0.6291 0.43351 0.93205 0.0
H418 H 0.65902 0.46616 0.94621 0.0
H419 H 0.60246 0.51441 0.95117 0.0
H420 H 0.57267 0.48143 0.93806 0.0
H421 H 0.5858 0.38457 0.94191 0.0
H422 H 0.57397 0.36466 0.97912 0.0
H423 H 0.53407 0.42461 0.00083 0.0
H424 H 0.54608 0.44454 0.96342 0.0
H425 H 0.5794 0.46448 0.88453 0.0
H426 H 0.52314 0.42379 0.92359 0.0
O427 O 0.59043 0.41231 0.90488 0.0
H428 H 0.54875 0.48095 0.86004 0.0
H429 H 0.49225 0.44026 0.89902 0.0
C430 C 0.59886 0.45528 0.93339 0.0
C431 C 0.62323 0.45116 0.93613 0.0
C432 C 0.64031 0.46988 0.94414 0.0
C433 C 0.63321 0.49301 0.94963 0.0
C434 C 0.60857 0.49682 0.94732 0.0
C435 C 0.59153 0.47804 0.93953 0.0
C436 C 0.5663 0.41574 0.94967 0.0
C437 C 0.57428 0.39333 0.95451 0.0
C438 C 0.56772 0.38208 0.97591 0.0
C439 C 0.5531 0.39309 0.99287 0.0
C440 C 0.54513 0.4156 0.98795 0.0
C441 C 0.55191 0.42695 0.96661 0.0
C442 C 0.55356 0.44329 0.90616 0.0
C443 C 0.56041 0.45923 0.88795 0.0
C444 C 0.54288 0.46854 0.87389 0.0
C445 C 0.51809 0.46193 0.87765 0.0
C446 C 0.51122 0.44594 0.89597 0.0
C447 C 0.52886 0.4365 0.91 0.0
P448 P 0.75671 0.27085 0.26285 0.0
H449 H 0.72223 0.26322 0.30213 0.0
H450 H 0.71568 0.28607 0.33964 0.0
H451 H 0.77729 0.3364 0.32366 0.0
H452 H 0.78368 0.31347 0.28612 0.0
H453 H 0.80415 0.25368 0.25346 0.0
H454 H 0.82167 0.21658 0.26247 0.0
H455 H 0.75352 0.18858 0.29316 0.0
H456 H 0.73635 0.22614 0.28469 0.0
H457 H 0.72347 0.30641 0.25397 0.0
H458 H 0.72564 0.23021 0.23911 0.0
O459 O 0.77586 0.28744 0.24556 0.0
H460 H 0.68257 0.30409 0.237 0.0
H461 H 0.68456 0.22774 0.22212 0.0
C462 C 0.75344 0.28664 0.29138 0.0
C463 C 0.73451 0.27899 0.30685 0.0
C464 C 0.73076 0.29209 0.32827 0.0
C465 C 0.74588 0.31312 0.33454 0.0
C466 C 0.76511 0.32048 0.31914 0.0
C467 C 0.76889 0.30729 0.29776 0.0
C468 C 0.76879 0.24256 0.26803 0.0
C469 C 0.79287 0.2395 0.26194 0.0
C470 C 0.80289 0.21817 0.26704 0.0
C471 C 0.78902 0.19946 0.27846 0.0
C472 C 0.76485 0.20267 0.2846 0.0
C473 C 0.7549 0.22408 0.27958 0.0
C474 C 0.72738 0.26841 0.24832 0.0
C475 C 0.71516 0.28918 0.24693 0.0
C476 C 0.69184 0.28787 0.23707 0.0
C477 C 0.68027 0.26571 0.22834 0.0
C478 C 0.69289 0.24501 0.22904 0.0
C479 C 0.71636 0.24639 0.2388 0.0
P480 P 0.47261 0.03001 0.04593 0.0
H481 H 0.52158 0.02018 0.03171 0.0
H482 H 0.5439 0.02519 0.99416 0.0
H483 H 0.48255 0.05516 0.96234 0.0
H484 H 0.46117 0.05163 0.00063 0.0
H485 H 0.50567 0.05538 0.08131 0.0
H486 H 0.5067 0.09501 0.10168 0.0
H487 H 0.44035 0.10759 0.0649 0.0
H488 H 0.44012 0.06831 0.04385 0.0
H489 H 0.44941 0.00359 0.00355 0.0
H490 H 0.42901 0.02602 0.0754 0.0
O491 O 0.48614 0.01127 0.06312 0.0
H492 H 0.40761 0.98742 0.99506 0.0
H493 H 0.38717 0.00891 0.06715 0.0
C494 C 0.48946 0.03481 0.01862 0.0
C495 C 0.51301 0.02792 0.01666 0.0
C496 C 0.52568 0.03065 0.99506 0.0
C497 C 0.51488 0.04007 0.97489 0.0
C498 C 0.49157 0.04792 0.9774 0.0
C499 C 0.47917 0.04567 -0.00079 0.0
C500 C 0.47247 0.0587 0.06164 0.0
C501 C 0.49126 0.06661 0.07781 0.0
C502 C 0.49174 0.08925 0.08952 0.0
C503 C 0.47343 0.10441 0.08518 0.0
C504 C 0.45479 0.09646 0.0686 0.0
C505 C 0.45448 0.07389 0.05675 0.0
C506 C 0.44212 0.01694 0.0398 0.0
C507 C 0.43594 0.00539 0.01741 0.0
C508 C 0.41207 0.99603 0.01256 0.0
C509 C 0.39422 0.99734 0.03033 0.0
C510 C 0.40064 0.00792 0.05312 0.0
C511 C 0.42445 0.0177 0.0578 0.0
O512 O 0.22341 0.86609 0.9774 0.0
Cd513 Cd 0.23061 0.87693 0.013 0.0
Cd514 Cd 0.21514 0.92024 0.99201 0.0
O515 O 0.21202 0.89866 0.96097 0.0
O516 O 0.24472 0.84729 0.02267 0.0
O517 O 0.21363 0.86105 0.04162 0.0
C518 C 0.22911 0.84525 0.03969 0.0
C519 C 0.18393 0.94329 0.00392 0.0
C520 C 0.21669 0.87682 0.95908 0.0
C521 C 0.26446 0.92358 0.01492 0.0
O522 O 0.24952 0.93399 0.00256 0.0
O523 O 0.25962 0.90195 0.02097 0.0
O524 O 0.19783 0.94909 0.98603 0.0
O525 O 0.18725 0.92372 0.01471 0.0
O526 O 0.15431 0.54897 0.31026 0.0
Cd527 Cd 0.13899 0.5165 0.32211 0.0
Cd528 Cd 0.09722 0.53357 0.29579 0.0
O529 O 0.12445 0.55988 0.28785 0.0
O530 O 0.16713 0.50519 0.33914 0.0
O531 O 0.1497 0.48541 0.3075 0.0
C532 C 0.16646 0.48719 0.32389 0.0
C533 C 0.06994 0.52368 0.26389 0.0
C534 C 0.14601 0.56343 0.29596 0.0
C535 C 0.09236 0.52318 0.34913 0.0
O536 O 0.08336 0.53123 0.3303 0.0
O537 O 0.11343 0.516 0.34889 0.0
O538 O 0.06938 0.5432 0.27693 0.0
O539 O 0.08583 0.50923 0.2693 0.0
O540 O 0.73809 0.68261 0.99499 0.0
Cd541 Cd 0.72765 0.65992 0.02241 0.0
Cd542 Cd 0.76464 0.63554 0.00286 0.0
O543 O 0.77061 0.66586 0.98276 0.0
O544 O 0.70496 0.67863 0.04117 0.0
O545 O 0.73966 0.66925 0.05623 0.0
C546 C 0.72014 0.67998 0.05892 0.0
C547 C 0.79796 0.61935 0.01937 0.0
C548 C 0.75669 0.68261 0.98163 0.0
C549 C 0.71399 0.61024 0.00147 0.0
O550 O 0.73571 0.61061 0.99413 0.0
O551 O 0.7073 0.62774 0.01425 0.0
O552 O 0.79288 0.61691 0.99667 0.0
O553 O 0.78438 0.63174 0.03289 0.0
O554 O 0.90555 0.00766 0.28554 0.0
Cd555 Cd 0.88494 0.01634 0.25682 0.0
Cd556 Cd 0.86169 0.03774 0.29327 0.0
O557 O 0.88993 0.02887 0.31489 0.0
O558 O 0.90422 0.00644 0.22851 0.0
O559 O 0.89733 0.04421 0.23662 0.0
C560 C 0.90756 0.02877 0.22318 0.0
C561 C 0.85262 0.07713 0.288 0.0
C562 C 0.90548 0.01494 0.30753 0.0
C563 C 0.83365 0.99672 0.26598 0.0
O564 O 0.83436 0.01094 0.2845 0.0
O565 O 0.85157 0.99706 0.25169 0.0
O566 O 0.84624 0.06594 0.30729 0.0
O567 O 0.86517 0.0662 0.27215 0.0
O568 O 0.23158 0.17735 0.48602 0.0
Cd569 Cd 0.22153 0.15155 0.51061 0.0
Cd570 Cd 0.25788 0.12829 0.4886 0.0
O571 O 0.26328 0.16065 0.47162 0.0
O572 O 0.19926 0.16726 0.53274 0.0
O573 O 0.235 0.15705 0.54443 0.0
C574 C 0.2153 0.16675 0.54954 0.0
C575 C 0.29208 0.11259 0.50378 0.0
C576 C 0.25003 0.17802 0.47244 0.0
C577 C 0.20747 0.10333 0.48554 0.0
O578 O 0.22923 0.1035 0.47831 0.0
O579 O 0.20116 0.12036 0.49923 0.0
O580 O 0.28757 0.11227 0.48094 0.0
O581 O 0.27708 0.12203 0.51827 0.0
O582 O 0.41296 0.51187 0.78519 0.0
Cd583 Cd 0.39259 0.52014 0.75616 0.0
Cd584 Cd 0.36271 0.53125 0.7929 0.0
O585 O 0.39043 0.52312 0.81547 0.0
O586 O 0.4155 0.51539 0.72924 0.0
O587 O 0.40231 0.55063 0.73847 0.0
C588 C 0.41587 0.53798 0.72524 0.0
C589 C 0.34862 0.56928 0.79343 0.0
C590 C 0.40952 0.51453 0.80773 0.0
C591 C 0.34385 0.4913 0.75833 0.0
O592 O 0.34021 0.50279 0.77802 0.0
O593 O 0.36311 0.49636 0.74641 0.0
O594 O 0.34224 0.55405 0.80974 0.0
O595 O 0.36365 0.56306 0.77706 0.0
O596 O 0.73877 0.36061 0.48559 0.0
Cd597 Cd 0.74925 0.37416 0.51957 0.0
Cd598 Cd 0.73189 0.41648 0.4973 0.0
O599 O 0.7284 0.39285 0.4676 0.0
O600 O 0.76546 0.34634 0.53088 0.0
O601 O 0.73434 0.3597 0.54992 0.0
C602 C 0.75074 0.34478 0.5487 0.0
C603 C 0.70039 0.43954 0.50828 0.0
C604 C 0.7318 0.37062 0.46692 0.0
C605 C 0.78255 0.42136 0.51701 0.0
O606 O 0.76617 0.4316 0.50651 0.0
O607 O 0.77868 0.39962 0.52307 0.0
O608 O 0.71377 0.44443 0.48978 0.0
O609 O 0.70438 0.42085 0.52023 0.0
O610 O 0.65108 0.05029 0.81246 0.0
Cd611 Cd 0.63719 0.01789 0.82605 0.0
Cd612 Cd 0.5949 0.03339 0.80099 0.0
O613 O 0.62023 0.06045 0.79098 0.0
O614 O 0.66589 0.0093 0.84423 0.0
O615 O 0.65009 0.98703 0.81335 0.0
C616 C 0.66646 0.99058 0.83007 0.0
C617 C 0.56958 0.01636 0.76999 0.0
C618 C 0.64206 0.0644 0.79822 0.0
C619 C 0.59094 0.02475 0.85405 0.0
O620 O 0.58164 0.03336 0.8357 0.0
O621 O 0.61167 0.01684 0.85302 0.0
O622 O 0.56626 0.03688 0.78024 0.0
O623 O 0.5872 0.00507 0.77775 0.0
O624 O 0.95798 0.304 0.92693 0.0
Cd625 Cd 0.9623 0.27313 0.90602 0.0
Cd626 Cd 0.98437 0.30504 0.87482 0.0
O627 O 0.98129 0.32798 0.9042 0.0
O628 O 0.95973 0.24579 0.9281 0.0
O629 O 0.99372 0.25841 0.90954 0.0
C630 C 0.98246 0.24388 0.92431 0.0
C631 C 0.01995 0.31128 0.85251 0.0
C632 C 0.9689 0.32461 0.9232 0.0
C633 C 0.93888 0.27535 0.85766 0.0
O634 O 0.95406 0.29345 0.85439 0.0
O635 O 0.93973 0.26351 0.87673 0.0
O636 O 0.0035 0.32606 0.85236 0.0
O637 O 0.01642 0.29276 0.86577 0.0
O638 O 0.44899 0.79771 0.43999 0.0
Cd639 Cd 0.45521 0.76704 0.41958 0.0
Cd640 Cd 0.47707 0.79804 0.38834 0.0
O641 O 0.46893 0.82227 0.41515 0.0
O642 O 0.45587 0.73962 0.44139 0.0
O643 O 0.48818 0.75538 0.42196 0.0
C644 C 0.47872 0.73979 0.43675 0.0
C645 C 0.51502 0.8052 0.37045 0.0
C646 C 0.45701 0.81889 0.43444 0.0
C647 C 0.43361 0.76613 0.3699 0.0
O648 O 0.44947 0.78347 0.36585 0.0
O649 O 0.43297 0.75627 0.39023 0.0
O650 O 0.49803 0.81894 0.36716 0.0
O651 O 0.51059 0.78709 0.3841 0.0
O652 O 0.98269 0.78149 0.68781 0.0
Cd653 Cd 0.00814 0.76444 0.66863 0.0
Cd654 Cd 0.98158 0.77718 0.62928 0.0
O655 O 0.96064 0.79045 0.65673 0.0
O656 O 0.03317 0.75766 0.69254 0.0
O657 O 0.04132 0.7808 0.66152 0.0
C658 C 0.04889 0.77046 0.68018 0.0
C659 C 0.99219 0.80238 0.59762 0.0
C660 C 0.96438 0.79053 0.67938 0.0
C661 C 0.98687 0.72462 0.63447 0.0
O662 O 0.97941 0.74049 0.6212 0.0
O663 O 0.99786 0.73066 0.6542 0.0
O664 O 0.97061 0.79168 0.59942 0.0
O665 O 0.00791 0.7989 0.6141 0.0
O666 O 0.48151 0.29234 0.19074 0.0
Cd667 Cd 0.50559 0.27624 0.16863 0.0
Cd668 Cd 0.47954 0.29596 0.1328 0.0
O669 O 0.46122 0.30868 0.1623 0.0
O670 O 0.53076 0.26561 0.19044 0.0
O671 O 0.53908 0.29229 0.16243 0.0
C672 C 0.54662 0.27954 0.17938 0.0
C673 C 0.49271 0.32296 0.10352 0.0
C674 C 0.46473 0.30486 0.18444 0.0
C675 C 0.48042 0.24228 0.13075 0.0
O676 O 0.47273 0.26036 0.12102 0.0
O677 O 0.4935 0.24504 0.14969 0.0
O678 O 0.47013 0.31519 0.10543 0.0
O679 O 0.50796 0.31563 0.11864 0.0
H680 H 0.2275 0.84216 0.85031 0.0
H681 H 0.24346 0.77735 0.88463 0.0
H682 H 0.23473 0.79539 0.92411 0.0
H683 H 0.22497 0.83028 0.94897 0.0
H684 H 0.20938 0.89543 0.91488 0.0
H685 H 0.2153 0.87642 0.8752 0.0
C686 C 0.2291 0.83204 0.86647 0.0
C687 C 0.23632 0.80855 0.8646 0.0
C688 C 0.22407 0.84253 0.88911 0.0
C689 C 0.23787 0.79544 0.8856 0.0
C690 C 0.23295 0.80576 0.90817 0.0
C691 C 0.2226 0.8403 0.93288 0.0
C692 C 0.21691 0.86435 0.93498 0.0
C693 C 0.22632 0.82939 0.91015 0.0
C694 C 0.21378 0.87692 0.91386 0.0
C695 C 0.21729 0.86611 0.89114 0.0
H696 H 0.02468 0.53284 0.43963 0.0
H697 H 0.07563 0.48789 0.46953 0.0
H698 H 0.09763 0.48788 0.43152 0.0
H699 H 0.10253 0.50065 0.38996 0.0
H700 H 0.05075 0.54424 0.35936 0.0
H701 H 0.02863 0.54425 0.3974 0.0
C702 C 0.04039 0.52275 0.43777 0.0
C703 C 0.04852 0.51049 0.45752 0.0
C704 C 0.05278 0.5225 0.41573 0.0
C705 C 0.06919 0.49786 0.45482 0.0
C706 C 0.0817 0.49769 0.43302 0.0
C707 C 0.08639 0.51016 0.39156 0.0
C708 C 0.07839 0.52251 0.37185 0.0
C709 C 0.07371 0.51002 0.41341 0.0
C710 C 0.05732 0.53455 0.37422 0.0
C711 C 0.04468 0.53463 0.39599 0.0
H712 H 0.76674 0.7749 0.91865 0.0
H713 H 0.83642 0.74935 0.90371 0.0
H714 H 0.82629 0.7148 0.92885 0.0
H715 H 0.79787 0.69222 0.95555 0.0
H716 H 0.72834 0.7182 0.97082 0.0
H717 H 0.73809 0.75202 0.94483 0.0
C718 C 0.77959 0.76163 0.92071 0.0
C719 C 0.80229 0.76468 0.90936 0.0
C720 C 0.77369 0.74188 0.93523 0.0
C721 C 0.81893 0.74754 0.91248 0.0
C722 C 0.81311 0.72773 0.92676 0.0
C723 C 0.78478 0.70519 0.9531 0.0
C724 C 0.76241 0.70263 0.96515 0.0
C725 C 0.79058 0.72478 0.93831 0.0
C726 C 0.74573 0.71972 0.96184 0.0
C727 C 0.75128 0.7391 0.94697 0.0
H728 H 0.97361 0.98433 0.3908 0.0
H729 H 0.99767 0.94011 0.33171 0.0
H730 H 0.96922 0.95625 0.30456 0.0
H731 H 0.93779 0.98267 0.29738 0.0
H732 H 0.91295 0.02724 0.35577 0.0
H733 H 0.94169 0.01143 0.38333 0.0
C734 C 0.97267 0.97833 0.37196 0.0
C735 C 0.98763 0.96085 0.36338 0.0
C736 C 0.95625 0.9878 0.3563 0.0
C737 C 0.98607 0.95316 0.33893 0.0
C738 C 0.96993 0.96252 0.32332 0.0
C739 C 0.93862 0.98907 0.31611 0.0
C740 C 0.92321 0.00618 0.32444 0.0
C741 C 0.95495 0.9798 0.3318 0.0
C742 C 0.9246 0.01411 0.34883 0.0
C743 C 0.94102 0.00504 0.36461 0.0
H744 H 0.18041 0.22711 0.63789 0.0
H745 H 0.25749 0.24511 0.6467 0.0
H746 H 0.26517 0.21561 0.61445 0.0
H747 H 0.24959 0.1879 0.58087 0.0
H748 H 0.17229 0.17253 0.57093 0.0
H749 H 0.16505 0.19734 0.60686 0.0
C750 C 0.19892 0.22414 0.63321 0.0
C751 C 0.21835 0.23823 0.64467 0.0
C752 C 0.20312 0.20769 0.61433 0.0
C753 C 0.24222 0.23455 0.63802 0.0
C754 C 0.24661 0.21771 0.61959 0.0
C755 C 0.23121 0.18962 0.58693 0.0
C756 C 0.21149 0.17852 0.5733 0.0
C757 C 0.22716 0.20463 0.60718 0.0
C758 C 0.18774 0.18105 0.5811 0.0
C759 C 0.18358 0.19527 0.60159 0.0
H760 H 0.48607 0.59908 0.65612 0.0
H761 H 0.50812 0.52833 0.63889 0.0
H762 H 0.4778 0.51056 0.6664 0.0
H763 H 0.44579 0.51504 0.69585 0.0
H764 H 0.42323 0.58547 0.71349 0.0
H765 H 0.45269 0.60339 0.68489 0.0
C766 C 0.48406 0.57975 0.6582 0.0
C767 C 0.4995 0.56509 0.64557 0.0
C768 C 0.46647 0.56958 0.67403 0.0
C769 C 0.4968 0.54009 0.64869 0.0
C770 C 0.47935 0.52988 0.66429 0.0
C771 C 0.44716 0.53431 0.69338 0.0
C772 C 0.43235 0.54889 0.70683 0.0
C773 C 0.46422 0.54446 0.67716 0.0
C774 C 0.4344 0.57382 0.70335 0.0
C775 C 0.45129 0.58408 0.68705 0.0
H776 H 0.75106 0.27353 0.6349 0.0
H777 H 0.81532 0.25491 0.5975 0.0
H778 H 0.8092 0.28414 0.5671 0.0
H779 H 0.7859 0.31473 0.55108 0.0
H780 H 0.72198 0.33467 0.58813 0.0
H781 H 0.72775 0.30522 0.61886 0.0
C782 C 0.76381 0.27605 0.6202 0.0
C783 C 0.78353 0.26192 0.61839 0.0
C784 C 0.76023 0.29303 0.60273 0.0
C785 C 0.79978 0.26524 0.59912 0.0
C786 C 0.79637 0.28204 0.58178 0.0
C787 C 0.77312 0.31266 0.56582 0.0
C788 C 0.75348 0.32683 0.56725 0.0
C789 C 0.77663 0.29591 0.58335 0.0
C790 C 0.73723 0.32394 0.58657 0.0
C791 C 0.74054 0.30714 0.60415 0.0
H792 H 0.52224 0.97288 0.67233 0.0
H793 H 0.4757 0.02942 0.6868 0.0
H794 H 0.4958 0.03893 0.72564 0.0
H795 H 0.52879 0.0337 0.75375 0.0
H796 H 0.57632 0.97805 0.7392 0.0
H797 H 0.55365 0.96571 0.7021 0.0
C798 C 0.51645 0.98721 0.68405 0.0
C799 C 0.49759 0.0005 0.67658 0.0
C800 C 0.52837 0.99288 0.70623 0.0
C801 C 0.49 0.01874 0.69216 0.0
C802 C 0.50162 0.02435 0.7143 0.0
C803 C 0.5341 0.01872 0.74259 0.0
C804 C 0.55437 0.00698 0.74909 0.0
C805 C 0.52115 0.01189 0.72126 0.0
C806 C 0.56082 0.98744 0.73456 0.0
C807 C 0.54792 0.98043 0.71331 0.0
H808 H 0.86778 0.25805 0.76839 0.0
H809 H 0.86799 0.18443 0.78978 0.0
H810 H 0.8938 0.19776 0.8243 0.0
H811 H 0.91762 0.23013 0.84775 0.0
H812 H 0.92028 0.30317 0.82432 0.0
H813 H 0.89233 0.29019 0.79113 0.0
C814 C 0.87367 0.24483 0.78038 0.0
C815 C 0.86575 0.22026 0.7764 0.0
C816 C 0.88908 0.25252 0.7999 0.0
C817 C 0.87332 0.20352 0.79253 0.0
C818 C 0.88828 0.2111 0.81225 0.0
C819 C 0.91188 0.24321 0.83551 0.0
C820 C 0.92087 0.26757 0.83854 0.0
C821 C 0.89632 0.23554 0.81607 0.0
C822 C 0.9136 0.2843 0.82233 0.0
C823 C 0.89764 0.2769 0.80335 0.0
H824 H 0.44948 0.91951 0.4874 0.0
H825 H 0.43344 0.87478 0.54814 0.0
H826 H 0.43567 0.83855 0.52207 0.0
H827 H 0.44376 0.8198 0.48203 0.0
H828 H 0.46089 0.86565 0.42216 0.0
H829 H 0.45626 0.90117 0.44783 0.0
C830 C 0.44601 0.90183 0.49488 0.0
C831 C 0.44109 0.89982 0.5196 0.0
C832 C 0.4476 0.88126 0.47994 0.0
C833 C 0.43731 0.87678 0.52915 0.0
C834 C 0.43854 0.85609 0.51425 0.0
C835 C 0.44627 0.83756 0.47461 0.0
C836 C 0.45276 0.84003 0.45023 0.0
C837 C 0.44392 0.85813 0.48962 0.0
C838 C 0.45608 0.86319 0.44089 0.0
C839 C 0.45341 0.88357 0.45554 0.0
H840 H 0.09971 0.34164 0.77626 0.0
H841 H 0.12071 0.27091 0.78952 0.0
H842 H 0.08961 0.26574 0.8208 0.0
H843 H 0.05447 0.2805 0.84229 0.0
H844 H 0.03371 0.35121 0.8277 0.0
H845 H 0.06665 0.35717 0.79902 0.0
C846 C 0.09745 0.32507 0.78599 0.0
C847 C 0.11218 0.30655 0.78041 0.0
C848 C 0.07951 0.3222 0.80365 0.0
C849 C 0.10952 0.28541 0.79353 0.0
C850 C 0.09168 0.28243 0.81131 0.0
C851 C 0.05735 0.29729 0.83301 0.0
C852 C 0.0415 0.31528 0.83699 0.0
C853 C 0.07629 0.30057 0.81624 0.0
C854 C 0.04548 0.33696 0.82485 0.0
C855 C 0.06432 0.34042 0.80841 0.0
H856 H 0.55574 0.68242 0.48842 0.0
H857 H 0.49024 0.64278 0.51297 0.0
H858 H 0.46579 0.6672 0.48889 0.0
H859 H 0.46289 0.70119 0.4627 0.0
H860 H 0.5282 0.74099 0.43785 0.0
H861 H 0.55284 0.71517 0.46023 0.0
C862 C 0.53611 0.67913 0.48842 0.0
C863 C 0.52482 0.66086 0.50251 0.0
C864 C 0.52214 0.69333 0.4746 0.0
C865 C 0.49939 0.65656 0.5021 0.0
C866 C 0.48538 0.67063 0.48847 0.0
C867 C 0.48252 0.70417 0.46207 0.0
C868 C 0.49368 0.72311 0.44879 0.0
C869 C 0.49655 0.68926 0.47491 0.0
C870 C 0.51914 0.72655 0.44797 0.0
C871 C 0.53325 0.71183 0.46081 0.0
H872 H 0.88252 0.83806 0.73835 0.0
H873 H 0.90868 0.79461 0.79366 0.0
H874 H 0.93912 0.78065 0.76612 0.0
H875 H 0.958 0.78042 0.72638 0.0
H876 H 0.93091 0.82209 0.67002 0.0
H877 H 0.90121 0.83723 0.69789 0.0
C878 C 0.89497 0.82559 0.74429 0.0
C879 C 0.89338 0.81729 0.76791 0.0
C880 C 0.91223 0.81737 0.72822 0.0
C881 C 0.90943 0.80101 0.77545 0.0
C882 C 0.92689 0.79312 0.75977 0.0
C883 C 0.94571 0.79295 0.72021 0.0
C884 C 0.94676 0.80024 0.69622 0.0
C885 C 0.92842 0.80114 0.73613 0.0
C886 C 0.93046 0.81619 0.68842 0.0
C887 C 0.91349 0.82486 0.70434 0.0
H888 H 0.0027 0.86074 0.50239 0.0
H889 H 0.07698 0.87233 0.52719 0.0
H890 H 0.06656 0.84936 0.56298 0.0
H891 H 0.03643 0.82523 0.58685 0.0
H892 H 0.96217 0.81389 0.56176 0.0
H893 H 0.97247 0.83779 0.52672 0.0
C894 C 0.01655 0.85852 0.51578 0.0
C895 C 0.04058 0.8682 0.51207 0.0
C896 C 0.01045 0.8453 0.53629 0.0
C897 C 0.05839 0.8648 0.52944 0.0
C898 C 0.05243 0.85176 0.54997 0.0
C899 C 0.02249 0.82808 0.57378 0.0
C900 C 0.99859 0.81772 0.57694 0.0
C901 C 0.02855 0.84178 0.55351 0.0
C902 C 0.98074 0.82159 0.55979 0.0
C903 C 0.98659 0.83526 0.5397 0.0
H904 H 0.16138 0.79107 0.70146 0.0
H905 H 0.14721 0.72471 0.73864 0.0
H906 H 0.10451 0.72229 0.72677 0.0
H907 H 0.07109 0.7395 0.70683 0.0
H908 H 0.08498 0.80492 0.66806 0.0
H909 H 0.12794 0.80739 0.67966 0.0
C910 C 0.14889 0.77608 0.70688 0.0
C911 C 0.15737 0.7581 0.72092 0.0
C912 C 0.12437 0.77475 0.69986 0.0
C913 C 0.14114 0.73863 0.72763 0.0
C914 C 0.11671 0.73733 0.721 0.0
C915 C 0.0835 0.75437 0.70099 0.0
C916 C 0.07486 0.77217 0.68686 0.0
C917 C 0.10811 0.75538 0.7073 0.0
C918 C 0.09121 0.79106 0.67903 0.0
C919 C 0.11574 0.79246 0.68565 0.0
H920 H 0.98489 0.61234 0.61903 0.0
H921 H 0.98681 0.63155 0.54433 0.0
H922 H 0.98369 0.67368 0.55647 0.0
H923 H 0.98326 0.70552 0.58854 0.0
H924 H 0.9845 0.68616 0.66313 0.0
H925 H 0.98376 0.64368 0.65079 0.0
C926 C 0.98485 0.62574 0.60537 0.0
C927 C 0.98631 0.61877 0.58083 0.0
C928 C 0.98367 0.64995 0.61248 0.0
C929 C 0.98554 0.63634 0.56337 0.0
C930 C 0.98391 0.66048 0.57029 0.0
C931 C 0.98304 0.69194 0.60205 0.0
C932 C 0.98396 0.69893 0.62669 0.0
C933 C 0.98328 0.66755 0.59482 0.0
C934 C 0.98392 0.68121 0.64404 0.0
C935 C 0.98352 0.65693 0.63701 0.0
H936 H 0.73589 0.92829 0.26082 0.0
H937 H 0.77517 0.89336 0.20469 0.0
H938 H 0.81 0.92329 0.21127 0.0
H939 H 0.82918 0.95939 0.2328 0.0
H940 H 0.79 0.99424 0.28915 0.0
H941 H 0.7551 0.9645 0.28237 0.0
C942 C 0.75201 0.92734 0.24991 0.0
C943 C 0.75293 0.90864 0.23228 0.0
C944 C 0.77193 0.94463 0.25374 0.0
C945 C 0.7741 0.90742 0.21856 0.0
C946 C 0.79396 0.92461 0.2222 0.0
C947 C 0.81298 0.96058 0.24354 0.0
C948 C 0.81222 0.97909 0.26142 0.0
C949 C 0.79306 0.9433 0.23972 0.0
C950 C 0.79111 0.9802 0.27528 0.0
C951 C 0.77113 0.96319 0.27142 0.0
H952 H 0.81991 0.17474 0.25088 0.0
H953 H 0.78258 0.17326 0.31914 0.0
H954 H 0.79954 0.13589 0.32838 0.0
H955 H 0.82436 0.10322 0.31687 0.0
H956 H 0.86218 0.10489 0.24891 0.0
H957 H 0.84611 0.1429 0.24011 0.0
C958 C 0.8157 0.16644 0.26793 0.0
C959 C 0.79982 0.17684 0.28419 0.0
C960 C 0.82571 0.14502 0.27326 0.0
C961 C 0.79435 0.16552 0.30603 0.0
C962 C 0.8042 0.14421 0.31144 0.0
C963 C 0.82927 0.11197 0.3002 0.0
C964 C 0.84446 0.10115 0.28357 0.0
C965 C 0.8198 0.13373 0.29515 0.0
C966 C 0.85056 0.11278 0.26206 0.0
C967 C 0.8413 0.1345 0.25696 0.0
H968 H 0.36732 0.96421 0.05568 0.0
H969 H 0.36527 0.00758 0.99318 0.0
H970 H 0.32406 0.98966 0.98364 0.0
H971 H 0.28929 0.96052 0.99234 0.0
H972 H 0.29266 0.91515 0.05334 0.0
H973 H 0.33261 0.93504 0.06434 0.0
C974 C 0.35768 0.96983 0.04012 0.0
C975 C 0.36908 0.98716 0.02517 0.0
C976 C 0.33432 0.95905 0.03448 0.0
C977 C 0.35672 0.99416 0.00484 0.0
C978 C 0.33322 0.98396 -0.00057 0.0
C979 C 0.2987 0.95516 0.00815 0.0
C980 C 0.28807 0.93646 0.02204 0.0
C981 C 0.32192 0.96624 0.01401 0.0
C982 C 0.30056 0.92945 0.04231 0.0
C983 C 0.32337 0.94082 0.04863 0.0
H984 H 0.23672 0.40408 0.31913 0.0
H985 H 0.27279 0.45027 0.37519 0.0
H986 H 0.24217 0.47847 0.37198 0.0
H987 H 0.20528 0.49002 0.35372 0.0
H988 H 0.16894 0.44505 0.297 0.0
H989 H 0.19968 0.41645 0.29986 0.0
C990 C 0.23795 0.42042 0.33047 0.0
C991 C 0.2569 0.4249 0.34756 0.0
C992 C 0.22026 0.43675 0.32846 0.0
C993 C 0.25816 0.44611 0.36223 0.0
C994 C 0.24073 0.46234 0.36033 0.0
C995 C 0.20398 0.47396 0.34196 0.0
C996 C 0.18477 0.46963 0.32525 0.0
C997 C 0.22166 0.45777 0.34363 0.0
C998 C 0.18352 0.44878 0.31007 0.0
C999 C 0.2011 0.43244 0.31169 0.0
H1000 H 0.11865 0.02554 0.46504 0.0
H1001 H 0.17384 0.98953 0.42753 0.0
H1002 H 0.20388 0.0234 0.43787 0.0
H1003 H 0.21461 0.06287 0.45834 0.0
H1004 H 0.15929 0.0983 0.49648 0.0
H1005 H 0.12927 0.06487 0.48534 0.0
C1006 C 0.1373 0.02499 0.45931 0.0
C1007 C 0.144 0.005 0.44562 0.0
C1008 C 0.15448 0.0444 0.46547 0.0
C1009 C 0.16814 0.0048 0.43791 0.0
C1010 C 0.18536 0.02411 0.44392 0.0
C1011 C 0.19599 0.06332 0.46418 0.0
C1012 C 0.18929 0.08309 0.47827 0.0
C1013 C 0.17875 0.04397 0.45778 0.0
C1014 C 0.16503 0.08333 0.48567 0.0
C1015 C 0.1478 0.0642 0.47931 0.0
H1016 H 0.7255 0.14088 0.76648 0.0
H1017 H 0.68349 0.13433 0.70059 0.0
H1018 H 0.65176 0.10833 0.72017 0.0
H1019 H 0.63793 0.08471 0.75495 0.0
H1020 H 0.68202 0.0886 0.81955 0.0
H1021 H 0.71091 0.11866 0.80172 0.0
C1022 C 0.70914 0.13412 0.75661 0.0
C1023 C 0.70663 0.13952 0.73226 0.0
C1024 C 0.6915 0.11861 0.76772 0.0
C1025 C 0.68568 0.13033 0.71939 0.0
C1026 C 0.66763 0.11548 0.73056 0.0
C1027 C 0.65365 0.09247 0.76525 0.0
C1028 C 0.65788 0.0845 0.78851 0.0
C1029 C 0.6706 0.10909 0.75456 0.0
C1030 C 0.67847 0.09441 0.80156 0.0
C1031 C 0.69499 0.11156 0.79138 0.0
H1032 H 0.38853 0.065 0.52273 0.0
H1033 H 0.35461 0.0524 0.59155 0.0
H1034 H 0.32034 0.07406 0.57938 0.0
H1035 H 0.29948 0.09547 0.54839 0.0
H1036 H 0.33305 0.10577 0.47893 0.0
H1037 H 0.36814 0.08642 0.49221 0.0
C1038 C 0.37377 0.06728 0.53518 0.0
C1039 C 0.37412 0.05731 0.55805 0.0
C1040 C 0.35407 0.07932 0.52791 0.0
C1041 C 0.35466 0.05991 0.57382 0.0
C1042 C 0.33513 0.07231 0.56688 0.0
C1043 C 0.3146 0.09365 0.5363 0.0
C1044 C 0.3137 0.10205 0.51273 0.0
C1045 C 0.33455 0.08195 0.54387 0.0
C1046 C 0.33327 0.09935 0.49712 0.0
C1047 C 0.35335 0.0883 0.50469 0.0
H1048 H 0.62404 0.50222 0.55832 0.0
H1049 H 0.64929 0.55044 0.50277 0.0
H1050 H 0.67512 0.52071 0.48656 0.0
H1051 H 0.69192 0.48198 0.48923 0.0
H1052 H 0.66791 0.43388 0.54535 0.0
H1053 H 0.63996 0.46246 0.56008 0.0
C1054 C 0.63498 0.50605 0.54249 0.0
C1055 C 0.63485 0.52854 0.53183 0.0
C1056 C 0.65003 0.48894 0.5334 0.0
C1057 C 0.64931 0.53338 0.51147 0.0
C1058 C 0.66402 0.51636 0.50215 0.0
C1059 C 0.68044 0.47759 0.50456 0.0
C1060 C 0.68206 0.45581 0.51619 0.0
C1061 C 0.66475 0.49423 0.51314 0.0
C1062 C 0.66706 0.45052 0.53608 0.0
C1063 C 0.65111 0.46688 0.54454 0.0
H1064 H 0.73552 0.29625 0.37905 0.0
H1065 H 0.74658 0.36202 0.34041 0.0
H1066 H 0.74095 0.38564 0.37766 0.0
H1067 H 0.73499 0.38765 0.4216 0.0
H1068 H 0.72538 0.32179 0.46032 0.0
H1069 H 0.72774 0.29817 0.42258 0.0
C1070 C 0.73639 0.31574 0.37873 0.0
C1071 C 0.74159 0.32736 0.35703 0.0
C1072 C 0.7333 0.32919 0.40022 0.0
C1073 C 0.74296 0.35266 0.35697 0.0
C1074 C 0.7396 0.36616 0.37822 0.0
C1075 C 0.733 0.36812 0.42172 0.0
C1076 C 0.73001 0.35651 0.44374 0.0
C1077 C 0.73503 0.35464 0.40002 0.0
C1078 C 0.72776 0.33119 0.44362 0.0
C1079 C 0.72919 0.31765 0.42206 0.0
H1080 H 0.5439 0.00761 0.95574 0.0
H1081 H 0.51418 0.07424 0.94041 0.0
H1082 H 0.53371 0.07446 0.90105 0.0
H1083 H 0.56 0.05614 0.87121 0.0
H1084 H 0.59268 0.99177 0.88856 0.0
H1085 H 0.57158 0.99056 0.92717 0.0
C1086 C 0.54199 0.02248 0.94408 0.0
C1087 C 0.5275 0.04085 0.9512 0.0
C1088 C 0.55383 0.02291 0.92178 0.0
C1089 C 0.52485 0.05959 0.93538 0.0
C1090 C 0.53616 0.05985 0.91288 0.0
C1091 C 0.56236 0.04181 0.88343 0.0
C1092 C 0.57771 0.024 0.87706 0.0
C1093 C 0.55069 0.04159 0.90589 0.0
C1094 C 0.58095 0.0057 0.89314 0.0
C1095 C 0.56889 0.00499 0.91518 0.0
H1096 H 0.26676 0.27811 0.42257 0.0
H1097 H 0.33367 0.24926 0.40244 0.0
H1098 H 0.32078 0.21194 0.42239 0.0
H1099 H 0.29105 0.18796 0.44639 0.0
H1100 H 0.22426 0.21693 0.46704 0.0
H1101 H 0.23643 0.25359 0.44572 0.0
C1102 C 0.27838 0.26354 0.42234 0.0
C1103 C 0.30117 0.26648 0.41115 0.0
C1104 C 0.27089 0.24215 0.43391 0.0
C1105 C 0.31619 0.24756 0.41124 0.0
C1106 C 0.30878 0.22618 0.42253 0.0
C1107 C 0.27905 0.2022 0.44612 0.0
C1108 C 0.25679 0.19966 0.45835 0.0
C1109 C 0.28626 0.22335 0.43407 0.0
C1110 C 0.24153 0.21838 0.45783 0.0
C1111 C 0.24847 0.23939 0.44566 0.0
H1112 H 0.47574 0.48021 0.89066 0.0
H1113 H 0.51928 0.46396 0.82883 0.0
H1114 H 0.48996 0.47951 0.80213 0.0
H1115 H 0.45214 0.49727 0.79616 0.0
H1116 H 0.40773 0.51364 0.85733 0.0
H1117 H 0.43727 0.49854 0.8845 0.0
C1118 C 0.47867 0.47997 0.87133 0.0
C1119 C 0.49971 0.47104 0.86175 0.0
C1120 C 0.46168 0.48901 0.856 0.0
C1121 C 0.50341 0.47103 0.83668 0.0
C1122 C 0.48662 0.47983 0.82139 0.0
C1123 C 0.44884 0.49764 0.81544 0.0
C1124 C 0.42768 0.50657 0.82465 0.0
C1125 C 0.46575 0.48888 0.83084 0.0
C1126 C 0.42386 0.50691 0.84972 0.0
C1127 C 0.44072 0.49821 0.86526 0.0
H1128 H 0.71931 0.74905 0.15183 0.0
H1129 H 0.64845 0.75804 0.12289 0.0
H1130 H 0.65391 0.72801 0.09081 0.0
H1131 H 0.6795 0.70116 0.06964 0.0
H1132 H 0.7507 0.69196 0.09754 0.0
H1133 H 0.74425 0.71978 0.13166 0.0
C1134 C 0.70498 0.74417 0.13866 0.0
C1135 C 0.68364 0.75598 0.13953 0.0
C1136 C 0.7083 0.72691 0.1201 0.0
C1137 C 0.66523 0.74955 0.12232 0.0
C1138 C 0.66828 0.73231 0.10404 0.0
C1139 C 0.69359 0.70505 0.08326 0.0
C1140 C 0.71562 0.69465 0.08094 0.0
C1141 C 0.68988 0.72121 0.10252 0.0
C1142 C 0.73358 0.69977 0.09888 0.0
C1143 C 0.72993 0.71574 0.11833 0.0
H1144 H 0.98334 0.04278 0.13904 0.0
H1145 H 0.9787 0.11756 0.15941 0.0
H1146 H 0.9477 0.10602 0.18919 0.0
H1147 H 0.92318 0.07451 0.21073 0.0
H1148 H 0.92864 -0.00027 0.19061 0.0
H1149 H 0.95801 0.01146 0.15957 0.0
C1150 C 0.97562 0.05654 0.15008 0.0
C1151 C 0.9834 0.08096 0.14708 0.0
C1152 C 0.95793 0.04978 0.16725 0.0
C1153 C 0.97289 0.09862 0.16122 0.0
C1154 C 0.95525 0.09204 0.17834 0.0
C1155 C 0.93063 0.0608 0.1994 0.0
C1156 C 0.92376 0.03629 0.20308 0.0
C1157 C 0.94775 0.06765 0.18165 0.0
C1158 C 0.93364 0.01874 0.18826 0.0
C1159 C 0.95049 0.02541 0.17049 0.0
H1160 H 0.25618 0.75817 0.09841 0.0
H1161 H 0.24933 0.80924 0.15782 0.0
H1162 H 0.2336 0.83734 0.13029 0.0
H1163 H 0.22585 0.84903 0.08853 0.0
H1164 H 0.2367 0.79904 0.02926 0.0
H1165 H 0.24672 0.76885 0.05746 0.0
C1166 C 0.25138 0.7755 0.10537 0.0
C1167 C 0.2543 0.78171 0.13009 0.0
C1168 C 0.24299 0.79175 0.0894 0.0
C1169 C 0.24725 0.80396 0.13888 0.0
C1170 C 0.23835 0.82009 0.12312 0.0
C1171 C 0.22982 0.8313 0.08194 0.0
C1172 C 0.23042 0.82608 0.05697 0.0
C1173 C 0.23661 0.81439 0.09826 0.0
C1174 C 0.23608 0.8033 0.04847 0.0
C1175 C 0.24194 0.78613 0.06455 0.0
H1176 H 0.00197 0.52684 0.17335 0.0
H1177 H 0.03951 0.46569 0.15062 0.0
H1178 H 0.06052 0.46716 0.18958 0.0
H1179 H 0.0706 0.48798 0.22887 0.0
H1180 H 0.03302 0.54939 0.25092 0.0
H1181 H 0.00932 0.54528 0.21369 0.0
C1182 C 0.01431 0.51346 0.17709 0.0
C1183 C 0.01926 0.49628 0.15902 0.0
C1184 C 0.02645 0.51453 0.1994 0.0
C1185 C 0.03563 0.47933 0.16409 0.0
C1186 C 0.04761 0.48012 0.18639 0.0
C1187 C 0.057 0.50025 0.22566 0.0
C1188 C 0.05378 0.51909 0.24258 0.0
C1189 C 0.04357 0.498 0.20398 0.0
C1190 C 0.03604 0.53483 0.23815 0.0
C1191 C 0.02246 0.53253 0.21682 0.0
H1192 H 0.35829 0.71409 0.29443 0.0
H1193 H 0.37418 0.78126 0.2591 0.0
H1194 H 0.40202 0.79607 0.29188 0.0
H1195 H 0.42223 0.78965 0.33015 0.0
H1196 H 0.4054 0.72306 0.36642 0.0
H1197 H 0.37748 0.70826 0.3337 0.0
C1198 C 0.36794 0.73193 0.29395 0.0
C1199 C 0.36436 0.74656 0.2744 0.0
C1200 C 0.38368 0.7404 0.31298 0.0
C1201 C 0.37662 0.76977 0.27406 0.0
C1202 C 0.39257 0.77818 0.29273 0.0
C1203 C 0.41247 0.77188 0.33092 0.0
C1204 C 0.41601 0.75742 0.35062 0.0
C1205 C 0.3963 0.76362 0.31222 0.0
C1206 C 0.40299 0.73457 0.35147 0.0
C1207 C 0.38707 0.72607 0.33274 0.0
H1208 H 0.95363 0.40207 0.00675 0.0
H1209 H 0.00738 0.44326 0.96492 0.0
H1210 H 0.00822 0.40955 0.93586 0.0
H1211 H 0.99409 0.36859 0.92237 0.0
H1212 H 0.94127 0.32631 0.96424 0.0
H1213 H 0.93992 0.3602 0.99342 0.0
C1214 C 0.96568 0.40358 0.99139 0.0
C1215 C 0.98028 0.42527 0.98796 0.0
C1216 C 0.96627 0.38396 0.97478 0.0
C1217 C 0.9956 0.42698 0.9678 0.0
C1218 C 0.99623 0.40765 0.95123 0.0
C1219 C 0.9822 0.3667 0.93783 0.0
C1220 C 0.96774 0.34492 0.94104 0.0
C1221 C 0.98162 0.38611 0.95452 0.0
C1222 C 0.95259 0.34286 0.9613 0.0
C1223 C 0.95181 0.36224 0.978 0.0
H1224 H 0.60336 0.84169 0.30687 0.0
H1225 H 0.61287 0.76588 0.30301 0.0
H1226 H 0.58019 0.75819 0.33228 0.0
H1227 H 0.54635 0.7728 0.35596 0.0
H1228 H 0.53572 0.84841 0.35686 0.0
H1229 H 0.57168 0.85651 0.33213 0.0
C1230 C 0.59871 0.82356 0.31289 0.0
C1231 C 0.61055 0.8044 0.30292 0.0
C1232 C 0.57956 0.81925 0.32907 0.0
C1233 C 0.60393 0.78091 0.31043 0.0
C1234 C 0.58525 0.77652 0.32712 0.0
C1235 C 0.55222 0.79107 0.35104 0.0
C1236 C 0.53842 0.80998 0.35809 0.0
C1237 C 0.57254 0.7955 0.33612 0.0
C1238 C 0.54599 0.83355 0.35146 0.0
C1239 C 0.56653 0.8382 0.33733 0.0
H1240 H 0.05152 0.18225 0.98172 0.0
H1241 H 0.98248 0.15155 0.00793 0.0
H1242 H 0.96137 0.17636 0.98115 0.0
H1243 H 0.96248 0.2085 0.95227 0.0
H1244 H 0.0313 0.23983 0.92613 0.0
H1245 H 0.05252 0.21307 0.95091 0.0
C1246 C 0.03185 0.18099 0.98152 0.0
C1247 C 0.01861 0.16512 0.99686 0.0
C1248 C 0.01979 0.19549 0.96618 0.0
C1249 C 0.99312 0.16341 0.99614 0.0
C1250 C 0.98102 0.17772 0.98095 0.0
C1251 C 0.98212 0.2094 0.95184 0.0
C1252 C 0.99529 0.22628 0.93751 0.0
C1253 C 0.99417 0.19406 0.96617 0.0
C1254 C 0.02072 0.22703 0.93703 0.0
C1255 C 0.03288 0.21178 0.95125 0.0
H1256 H 0.38882 0.35288 0.25102 0.0
H1257 H 0.4115 0.30108 0.30006 0.0
H1258 H 0.44008 0.28759 0.27024 0.0
H1259 H 0.4582 0.29006 0.23015 0.0
H1260 H 0.43464 0.3406 0.18016 0.0
H1261 H 0.40697 0.35517 0.21045 0.0
C1262 C 0.40012 0.33873 0.25513 0.0
C1263 C 0.39803 0.32791 0.27762 0.0
C1264 C 0.41636 0.33087 0.23778 0.0
C1265 C 0.4126 0.30946 0.28273 0.0
C1266 C 0.42902 0.30182 0.26575 0.0
C1267 C 0.44715 0.30438 0.22591 0.0
C1268 C 0.44856 0.31429 0.20297 0.0
C1269 C 0.43099 0.31234 0.24321 0.0
C1270 C 0.43388 0.33264 0.19769 0.0
C1271 C 0.41805 0.34098 0.21499 0.0
H1272 H 0.50834 0.38724 0.01278 0.0
H1273 H 0.58227 0.37159 0.02353 0.0
H1274 H 0.57043 0.3497 0.05969 0.0
H1275 H 0.53868 0.3335 0.08723 0.0
H1276 H 0.46452 0.34809 0.07543 0.0
H1277 H 0.47688 0.37216 0.04096 0.0
C1278 C 0.52189 0.37929 0.02323 0.0
C1279 C 0.5461 0.38096 0.01549 0.0
C1280 C 0.51491 0.36651 0.0438 0.0
C1281 C 0.56344 0.3703 0.02901 0.0
C1282 C 0.55671 0.35787 0.04971 0.0
C1283 C 0.52529 0.34216 0.07726 0.0
C1284 C 0.50073 0.33898 0.08386 0.0
C1285 C 0.53244 0.35562 0.05713 0.0
C1286 C 0.48354 0.35017 0.07066 0.0
C1287 C 0.49058 0.36393 0.05093 0.0
H1288 H 0.6597 0.29615 0.19877 0.0
H1289 H 0.6434 0.23186 0.23887 0.0
H1290 H 0.60076 0.2305 0.22714 0.0
H1291 H 0.56793 0.24821 0.20668 0.0
H1292 H 0.58384 0.31223 0.16608 0.0
H1293 H 0.6268 0.31323 0.17705 0.0
C1294 C 0.64678 0.28187 0.20494 0.0
C1295 C 0.65472 0.26414 0.2197 0.0
C1296 C 0.62223 0.28125 0.1982 0.0
C1297 C 0.63784 0.24555 0.22727 0.0
C1298 C 0.61342 0.24487 0.22073 0.0
C1299 C 0.58077 0.26244 0.20025 0.0
C1300 C 0.57267 0.28025 0.18575 0.0
C1301 C 0.60539 0.26273 0.2064 0.0
C1302 C 0.5896 0.29835 0.17733 0.0
C1303 C 0.61416 0.29892 0.18359 0.0
H1304 H 0.46213 0.14653 0.06649 0.0
H1305 H 0.48607 0.11649 0.13208 0.0
H1306 H 0.48959 0.15634 0.15205 0.0
H1307 H 0.48724 0.19977 0.15055 0.0
H1308 H 0.46217 0.22994 0.08553 0.0
H1309 H 0.45708 0.18978 0.06589 0.0
C1310 C 0.46773 0.1486 0.08527 0.0
C1311 C 0.47407 0.12851 0.09765 0.0
C1312 C 0.46946 0.17156 0.09677 0.0
C1313 C 0.48158 0.13167 0.12192 0.0
C1314 C 0.48344 0.15444 0.13343 0.0
C1315 C 0.48054 0.19759 0.13211 0.0
C1316 C 0.47528 0.21786 0.11947 0.0
C1317 C 0.4777 0.17453 0.12095 0.0
C1318 C 0.46636 0.21464 0.09568 0.0
C1319 C 0.46354 0.1917 0.0844 0.0
H1320 H 0.28244 0.39994 0.71157 0.0
H1321 H 0.23154 0.41937 0.76586 0.0
H1322 H 0.2597 0.45373 0.77961 0.0
H1323 H 0.29888 0.47811 0.77618 0.0
H1324 H 0.34923 0.45905 0.72097 0.0
H1325 H 0.32118 0.42477 0.70758 0.0
C1326 C 0.27766 0.41162 0.72654 0.0
C1327 C 0.2551 0.40712 0.73782 0.0
C1328 C 0.29376 0.43146 0.73409 0.0
C1329 C 0.24883 0.42258 0.75689 0.0
C1330 C 0.26492 0.44217 0.76476 0.0
C1331 C 0.30371 0.4665 0.76119 0.0
C1332 C 0.32618 0.47117 0.74966 0.0
C1333 C 0.28743 0.44681 0.75346 0.0
C1334 C 0.33205 0.45596 0.73017 0.0
C1335 C 0.31605 0.43627 0.72252 0.0
H1336 H 0.29239 0.66232 0.80476 0.0
H1337 H 0.32796 0.67755 0.73716 0.0
H1338 H 0.34812 0.64063 0.73908 0.0
H1339 H 0.35485 0.60338 0.75941 0.0
H1340 H 0.31856 0.58786 0.82663 0.0
H1341 H 0.29945 0.62537 0.82529 0.0
C1342 C 0.3044 0.65747 0.79035 0.0
C1343 C 0.30859 0.67271 0.77083 0.0
C1344 C 0.31585 0.63612 0.79148 0.0
C1345 C 0.32458 0.66633 0.75253 0.0
C1346 C 0.33604 0.64513 0.75354 0.0
C1347 C 0.34288 0.60826 0.77384 0.0
C1348 C 0.33816 0.59276 0.79307 0.0
C1349 C 0.33175 0.62984 0.77289 0.0
C1350 C 0.32253 0.59939 0.81158 0.0
C1351 C 0.31153 0.62086 0.81083 0.0
H1352 H 0.87915 0.49046 0.53154 0.0
H1353 H 0.90534 0.42418 0.55335 0.0
H1354 H 0.86509 0.40294 0.54639 0.0
H1355 H 0.82279 0.40315 0.53378 0.0
H1356 H 0.7965 0.46926 0.5113 0.0
H1357 H 0.83652 0.4907 0.51907 0.0
C1358 C 0.87594 0.47142 0.53498 0.0
C1359 C 0.89513 0.45889 0.54297 0.0
C1360 C 0.85282 0.45932 0.53082 0.0
C1361 C 0.89088 0.43414 0.547 0.0
C1362 C 0.86788 0.42203 0.54311 0.0
C1363 C 0.82572 0.42227 0.53064 0.0
C1364 C 0.80663 0.43456 0.52198 0.0
C1365 C 0.84876 0.43443 0.53494 0.0
C1366 C 0.81087 0.45933 0.51791 0.0
C1367 C 0.83374 0.47162 0.52237 0.0
H1368 H 0.75414 0.9331 0.85796 0.0
H1369 H 0.7284 0.88876 0.79599 0.0
H1370 H 0.69608 0.91499 0.7897 0.0
H1371 H 0.67485 0.95048 0.80236 0.0
H1372 H 0.70124 0.9939 0.86489 0.0
H1373 H 0.73327 0.9678 0.87059 0.0
C1374 C 0.74129 0.92895 0.84323 0.0
C1375 C 0.74355 0.90887 0.82762 0.0
C1376 C 0.72279 0.94393 0.83985 0.0
C1377 C 0.72713 0.90418 0.80822 0.0
C1378 C 0.70858 0.9191 0.80469 0.0
C1379 C 0.68759 0.95416 0.81724 0.0
C1380 C 0.68557 0.97413 0.83317 0.0
C1381 C 0.70618 0.93902 0.82046 0.0
C1382 C 0.70229 0.97869 0.85233 0.0
C1383 C 0.72068 0.96378 0.85564 0.0
H1384 H 0.62814 0.52846 0.98395 0.0
H1385 H 0.67932 0.50299 0.93271 0.0
H1386 H 0.70901 0.53642 0.94489 0.0
H1387 H 0.72006 0.57348 0.96917 0.0
H1388 H 0.6682 0.60008 0.01899 0.0
H1389 H 0.63899 0.56581 0.00788 0.0
C1390 C 0.64569 0.53032 0.97525 0.0
C1391 C 0.65142 0.51317 0.95743 0.0
C1392 C 0.66253 0.54986 0.98198 0.0
C1393 C 0.67448 0.51567 0.94673 0.0
C1394 C 0.69144 0.53491 0.95354 0.0
C1395 C 0.7024 0.57177 0.97767 0.0
C1396 C 0.69636 0.58935 0.99489 0.0
C1397 C 0.68561 0.55216 0.97106 0.0
C1398 C 0.67333 0.58688 0.00563 0.0
C1399 C 0.65661 0.56726 -0.00069 0.0
H1400 H 0.22758 0.64541 0.27252 0.0
H1401 H 0.19442 0.63403 0.2018 0.0
H1402 H 0.16297 0.60582 0.21808 0.0
H1403 H 0.14641 0.5821 0.25169 0.0
H1404 H 0.18249 0.58963 0.32098 0.0
H1405 H 0.21156 0.62128 0.30584 0.0
C1406 C 0.2137 0.63661 0.26052 0.0
C1407 C 0.21357 0.64199 0.2359 0.0
C1408 C 0.1962 0.61957 0.26974 0.0
C1409 C 0.19491 0.63072 0.2209 0.0
C1410 C 0.17696 0.61434 0.23014 0.0
C1411 C 0.16047 0.59092 0.26352 0.0
C1412 C 0.1623 0.58374 0.28741 0.0
C1413 C 0.17761 0.60841 0.25445 0.0
C1414 C 0.1808 0.59493 0.3025 0.0
C1415 C 0.1974 0.61297 0.29385 0.0
H1416 H 0.88579 0.57959 0.07342 0.0
H1417 H 0.88299 0.53334 0.00908 0.0
H1418 H 0.8485 0.55249 0.99407 0.0
H1419 H 0.82001 0.583 0.99846 0.0
H1420 H 0.82139 0.62897 0.06287 0.0
H1421 H 0.85567 0.60943 0.07859 0.0
C1422 C 0.87754 0.57372 0.05616 0.0
C1423 C 0.88688 0.55502 0.04242 0.0
C1424 C 0.85762 0.58484 0.04759 0.0
C1425 C 0.87593 0.54744 0.02017 0.0
C1426 C 0.85633 0.5585 0.01147 0.0
C1427 C 0.82783 0.58882 0.01593 0.0
C1428 C 0.81837 0.60757 0.02938 0.0
C1429 C 0.84718 0.57733 0.02492 0.0
C1430 C 0.82843 0.61462 0.05215 0.0
C1431 C 0.84801 0.60346 0.06112 0.0
H1432 H 0.10833 0.00503 0.05662 0.0
H1433 H 0.13558 0.05581 0.00411 0.0
H1434 H 0.16078 0.02626 0.98646 0.0
H1435 H 0.17661 0.98697 0.98716 0.0
H1436 H 0.15078 0.9362 0.04027 0.0
H1437 H 0.12327 0.96463 0.05628 0.0
C1438 C 0.11958 0.00946 0.04113 0.0
C1439 C 0.12023 0.03261 0.03176 0.0
C1440 C 0.13431 0.99243 0.03123 0.0
C1441 C 0.13502 0.03821 0.01182 0.0
C1442 C 0.14937 0.02131 0.00168 0.0
C1443 C 0.16483 0.98197 0.00211 0.0
C1444 C 0.16581 0.95949 0.01252 0.0
C1445 C 0.14942 0.99851 0.01144 0.0
C1446 C 0.15042 0.9534 0.03193 0.0
C1447 C 0.13472 0.96968 0.04112 0.0
loop_
_geom_bond_atom_site_label_1
_geom_bond_atom_site_label_2
_geom_bond_distance
_geom_bond_site_symmetry_2
_ccdc_geom_bond_type
P0 O11 1.490 . S
P0 C14 1.812 . S
P0 C20 1.803 . S
P0 C26 1.819 . S
H1 C15 0.941 . S
H2 C16 0.939 . S
H3 C18 0.940 . S
H4 C19 0.940 . S
H5 C21 0.939 . S
H6 C22 0.942 . S
H7 C24 0.940 . S
H8 C25 0.939 . S
H9 C27 0.941 . S
H10 C31 0.939 . S
O11 P0 1.490 . S
H12 C28 0.939 . S
H13 C30 0.940 . S
C14 P0 1.812 . S
C14 C15 1.389 . S
C14 C19 1.391 . S
C15 H1 0.941 . S
C15 C14 1.389 . S
C15 C16 1.397 . S
C16 H2 0.939 . S
C16 C15 1.397 . S
C16 C17 1.378 . S
C17 C16 1.378 . S
C17 C18 1.378 . S
C18 H3 0.940 . S
C18 C17 1.378 . S
C18 C19 1.396 . S
C19 H4 0.940 . S
C19 C14 1.391 . S
C19 C18 1.396 . S
C20 P0 1.803 . S
C20 C21 1.378 . S
C20 C25 1.400 . S
C21 H5 0.939 . S
C21 C20 1.378 . S
C21 C22 1.361 . S
C22 H6 0.942 . S
C22 C21 1.361 . S
C22 C23 1.369 . S
C23 C22 1.369 . S
C23 C24 1.404 . S
C24 H7 0.940 . S
C24 C23 1.404 . S
C24 C25 1.389 . S
C25 H8 0.939 . S
C25 C20 1.400 . S
C25 C24 1.389 . S
C26 P0 1.819 . S
C26 C27 1.391 . S
C26 C31 1.391 . S
C27 H9 0.941 . S
C27 C26 1.391 . S
C27 C28 1.396 . S
C28 H12 0.939 . S
C28 C27 1.396 . S
C28 C29 1.397 . S
C29 C28 1.397 . S
C29 C30 1.385 . S
C30 H13 0.940 . S
C30 C29 1.385 . S
C30 C31 1.388 . S
C31 H10 0.939 . S
C31 C26 1.391 . S
C31 C30 1.388 . S
P32 O43 1.490 . S
P32 C46 1.812 . S
P32 C52 1.803 . S
P32 C58 1.819 . S
H33 C47 0.941 . S
H34 C48 0.939 . S
H35 C50 0.940 . S
H36 C51 0.940 . S
H37 C53 0.939 . S
H38 C54 0.942 . S
H39 C56 0.940 . S
H40 C57 0.939 . S
H41 C59 0.941 . S
H42 C63 0.939 . S
O43 P32 1.490 . S
H44 C60 0.939 . S
H45 C62 0.940 . S
C46 P32 1.812 . S
C46 C47 1.389 . S
C46 C51 1.391 . S
C47 H33 0.941 . S
C47 C46 1.389 . S
C47 C48 1.397 . S
C48 H34 0.939 . S
C48 C47 1.397 . S
C48 C49 1.378 . S
C49 C48 1.378 . S
C49 C50 1.378 . S
C50 H35 0.940 . S
C50 C49 1.378 . S
C50 C51 1.396 . S
C51 H36 0.940 . S
C51 C46 1.391 . S
C51 C50 1.396 . S
C52 P32 1.803 . S
C52 C53 1.378 . S
C52 C57 1.400 . S
C53 H37 0.939 . S
C53 C52 1.378 . S
C53 C54 1.361 . S
C54 H38 0.942 . S
C54 C53 1.361 . S
C54 C55 1.369 . S
C55 C54 1.369 . S
C55 C56 1.404 . S
C56 H39 0.940 . S
C56 C55 1.404 . S
C56 C57 1.389 . S
C57 H40 0.939 . S
C57 C52 1.400 . S
C57 C56 1.389 . S
C58 P32 1.819 . S
C58 C59 1.391 . S
C58 C63 1.391 . S
C59 H41 0.941 . S
C59 C58 1.391 . S
C59 C60 1.396 . S
C60 H44 0.939 . S
C60 C59 1.396 . S
C60 C61 1.397 . S
C61 C60 1.397 . S
C61 C62 1.385 . S
C62 H45 0.940 . S
C62 C61 1.385 . S
C62 C63 1.388 . S
C63 H42 0.939 . S
C63 C58 1.391 . S
C63 C62 1.388 . S
P64 O75 1.490 . S
P64 C78 1.812 . S
P64 C84 1.803 . S
P64 C90 1.819 . S
H65 C79 0.941 . S
H66 C80 0.939 . S
H67 C82 0.940 . S
H68 C83 0.940 . S
H69 C85 0.939 . S
H70 C86 0.942 . S
H71 C88 0.940 . S
H72 C89 0.939 . S
H73 C91 0.941 . S
H74 C95 0.939 . S
O75 P64 1.490 . S
H76 C92 0.939 . S
H77 C94 0.940 . S
C78 P64 1.812 . S
C78 C79 1.389 . S
C78 C83 1.391 . S
C79 H65 0.941 . S
C79 C78 1.389 . S
C79 C80 1.397 . S
C80 H66 0.939 . S
C80 C79 1.397 . S
C80 C81 1.378 . S
C81 C80 1.378 . S
C81 C82 1.378 . S
C82 H67 0.940 . S
C82 C81 1.378 . S
C82 C83 1.396 . S
C83 H68 0.940 . S
C83 C78 1.391 . S
C83 C82 1.396 . S
C84 P64 1.803 . S
C84 C85 1.378 . S
C84 C89 1.400 . S
C85 H69 0.939 . S
C85 C84 1.378 . S
C85 C86 1.361 . S
C86 H70 0.942 . S
C86 C85 1.361 . S
C86 C87 1.369 . S
C87 C86 1.369 . S
C87 C88 1.404 . S
C88 H71 0.940 . S
C88 C87 1.404 . S
C88 C89 1.389 . S
C89 H72 0.939 . S
C89 C84 1.400 . S
C89 C88 1.389 . S
C90 P64 1.819 . S
C90 C91 1.391 . S
C90 C95 1.391 . S
C91 H73 0.941 . S
C91 C90 1.391 . S
C91 C92 1.396 . S
C92 H76 0.939 . S
C92 C91 1.396 . S
C92 C93 1.397 . S
C93 C92 1.397 . S
C93 C94 1.385 . S
C94 H77 0.940 . S
C94 C93 1.385 . S
C94 C95 1.388 . S
C95 H74 0.939 . S
C95 C90 1.391 . S
C95 C94 1.388 . S
P96 O107 1.490 . S
P96 C110 1.812 . S
P96 C116 1.803 . S
P96 C122 1.819 . S
H97 C111 0.941 . S
H98 C112 0.939 . S
H99 C114 0.940 . S
H100 C115 0.940 . S
H101 C117 0.939 . S
H102 C118 0.942 . S
H103 C120 0.940 . S
H104 C121 0.939 . S
H105 C123 0.941 . S
H106 C127 0.939 . S
O107 P96 1.490 . S
H108 C124 0.939 . S
H109 C126 0.940 . S
C110 P96 1.812 . S
C110 C111 1.389 . S
C110 C115 1.391 . S
C111 H97 0.941 . S
C111 C110 1.389 . S
C111 C112 1.397 . S
C112 H98 0.939 . S
C112 C111 1.397 . S
C112 C113 1.378 . S
C113 C112 1.378 . S
C113 C114 1.378 . S
C114 H99 0.940 . S
C114 C113 1.378 . S
C114 C115 1.396 . S
C115 H100 0.940 . S
C115 C110 1.391 . S
C115 C114 1.396 . S
C116 P96 1.803 . S
C116 C117 1.378 . S
C116 C121 1.400 . S
C117 H101 0.939 . S
C117 C116 1.378 . S
C117 C118 1.361 . S
C118 H102 0.942 . S
C118 C117 1.361 . S
C118 C119 1.369 . S
C119 C118 1.369 . S
C119 C120 1.404 . S
C120 H103 0.940 . S
C120 C119 1.404 . S
C120 C121 1.389 . S
C121 H104 0.939 . S
C121 C116 1.400 . S
C121 C120 1.389 . S
C122 P96 1.819 . S
C122 C123 1.391 . S
C122 C127 1.391 . S
C123 H105 0.941 . S
C123 C122 1.391 . S
C123 C124 1.396 . S
C124 H108 0.939 . S
C124 C123 1.396 . S
C124 C125 1.397 . S
C125 C124 1.397 . S
C125 C126 1.385 . S
C126 H109 0.940 . S
C126 C125 1.385 . S
C126 C127 1.388 . S
C127 H106 0.939 . S
C127 C122 1.391 . S
C127 C126 1.388 . S
P128 O139 1.490 . S
P128 C142 1.812 . S
P128 C148 1.803 . S
P128 C154 1.819 . S
H129 C143 0.941 . S
H130 C144 0.939 . S
H131 C146 0.940 1_545 S
H132 C147 0.940 . S
H133 C149 0.939 . S
H134 C150 0.942 . S
H135 C152 0.940 . S
H136 C153 0.939 . S
H137 C155 0.941 . S
H138 C159 0.939 . S
O139 P128 1.490 . S
H140 C156 0.939 . S
H141 C158 0.940 . S
C142 P128 1.812 . S
C142 C143 1.389 . S
C142 C147 1.391 . S
C143 H129 0.941 . S
C143 C142 1.389 . S
C143 C144 1.397 . S
C144 H130 0.939 . S
C144 C143 1.397 . S
C144 C145 1.378 . S
C145 C144 1.378 . S
C145 C146 1.378 . S
C146 H131 0.940 1_565 S
C146 C145 1.378 . S
C146 C147 1.396 . S
C147 H132 0.940 . S
C147 C142 1.391 . S
C147 C146 1.396 . S
C148 P128 1.803 . S
C148 C149 1.378 . S
C148 C153 1.400 . S
C149 H133 0.939 . S
C149 C148 1.378 . S
C149 C150 1.361 . S
C150 H134 0.942 . S
C150 C149 1.361 . S
C150 C151 1.369 . S
C151 C150 1.369 . S
C151 C152 1.404 . S
C152 H135 0.940 . S
C152 C151 1.404 . S
C152 C153 1.389 . S
C153 H136 0.939 . S
C153 C148 1.400 . S
C153 C152 1.389 . S
C154 P128 1.819 . S
C154 C155 1.391 . S
C154 C159 1.391 . S
C155 H137 0.941 . S
C155 C154 1.391 . S
C155 C156 1.396 . S
C156 H140 0.939 . S
C156 C155 1.396 . S
C156 C157 1.397 . S
C157 C156 1.397 . S
C157 C158 1.385 . S
C158 H141 0.940 . S
C158 C157 1.385 . S
C158 C159 1.388 . S
C159 H138 0.939 . S
C159 C154 1.391 . S
C159 C158 1.388 . S
P160 O171 1.490 . S
P160 C174 1.812 . S
P160 C180 1.803 . S
P160 C186 1.819 . S
H161 C175 0.941 . S
H162 C176 0.939 . S
H163 C178 0.940 . S
H164 C179 0.940 . S
H165 C181 0.939 . S
H166 C182 0.942 . S
H167 C184 0.940 . S
H168 C185 0.939 . S
H169 C187 0.941 . S
H170 C191 0.939 . S
O171 P160 1.490 . S
H172 C188 0.939 . S
H173 C190 0.940 . S
C174 P160 1.812 . S
C174 C175 1.389 . S
C174 C179 1.391 . S
C175 H161 0.941 . S
C175 C174 1.389 . S
C175 C176 1.397 . S
C176 H162 0.939 . S
C176 C175 1.397 . S
C176 C177 1.378 . S
C177 C176 1.378 . S
C177 C178 1.378 . S
C178 H163 0.940 . S
C178 C177 1.378 . S
C178 C179 1.396 . S
C179 H164 0.940 . S
C179 C174 1.391 . S
C179 C178 1.396 . S
C180 P160 1.803 . S
C180 C181 1.378 . S
C180 C185 1.400 . S
C181 H165 0.939 . S
C181 C180 1.378 . S
C181 C182 1.361 . S
C182 H166 0.942 . S
C182 C181 1.361 . S
C182 C183 1.369 . S
C183 C182 1.369 . S
C183 C184 1.404 . S
C184 H167 0.940 . S
C184 C183 1.404 . S
C184 C185 1.389 . S
C185 H168 0.939 . S
C185 C180 1.400 . S
C185 C184 1.389 . S
C186 P160 1.819 . S
C186 C187 1.391 . S
C186 C191 1.391 . S
C187 H169 0.941 . S
C187 C186 1.391 . S
C187 C188 1.396 . S
C188 H172 0.939 . S
C188 C187 1.396 . S
C188 C189 1.397 . S
C189 C188 1.397 . S
C189 C190 1.385 . S
C190 H173 0.940 . S
C190 C189 1.385 . S
C190 C191 1.388 . S
C191 H170 0.939 . S
C191 C186 1.391 . S
C191 C190 1.388 . S
P192 O203 1.490 . S
P192 C206 1.812 . S
P192 C212 1.803 . S
P192 C218 1.819 . S
H193 C207 0.941 . S
H194 C208 0.943 1_455 S
H195 C210 0.940 . S
H196 C211 0.940 . S
H197 C213 0.939 . S
H198 C214 0.942 . S
H199 C216 0.940 . S
H200 C217 0.939 . S
H201 C219 0.941 . S
H202 C223 0.939 . S
O203 P192 1.490 . S
H204 C220 0.939 . S
H205 C222 0.940 . S
C206 P192 1.812 . S
C206 C207 1.389 . S
C206 C211 1.391 . S
C207 H193 0.941 . S
C207 C206 1.389 . S
C207 C208 1.397 . S
C208 H194 0.943 1_655 S
C208 C207 1.397 . S
C208 C209 1.378 . S
C209 C208 1.378 . S
C209 C210 1.378 . S
C210 H195 0.940 . S
C210 C209 1.378 . S
C210 C211 1.396 . S
C211 H196 0.940 . S
C211 C206 1.391 . S
C211 C210 1.396 . S
C212 P192 1.803 . S
C212 C213 1.378 . S
C212 C217 1.400 . S
C213 H197 0.939 . S
C213 C212 1.378 . S
C213 C214 1.361 . S
C214 H198 0.942 . S
C214 C213 1.361 . S
C214 C215 1.369 . S
C215 C214 1.369 . S
C215 C216 1.404 . S
C216 H199 0.940 . S
C216 C215 1.404 . S
C216 C217 1.389 . S
C217 H200 0.939 . S
C217 C212 1.400 . S
C217 C216 1.389 . S
C218 P192 1.819 . S
C218 C219 1.391 . S
C218 C223 1.391 . S
C219 H201 0.941 . S
C219 C218 1.391 . S
C219 C220 1.396 . S
C220 H204 0.939 . S
C220 C219 1.396 . S
C220 C221 1.397 . S
C221 C220 1.397 . S
C221 C222 1.385 . S
C222 H205 0.940 . S
C222 C221 1.385 . S
C222 C223 1.388 . S
C223 H202 0.939 . S
C223 C218 1.391 . S
C223 C222 1.388 . S
P224 O235 1.490 . S
P224 C238 1.812 . S
P224 C244 1.803 . S
P224 C250 1.819 . S
H225 C239 0.941 . S
H226 C240 0.939 . S
H227 C242 0.940 . S
H228 C243 0.940 . S
H229 C245 0.939 . S
H230 C246 0.942 . S
H231 C248 0.940 . S
H232 C249 0.939 . S
H233 C251 0.941 . S
H234 C255 0.939 . S
O235 P224 1.490 . S
H236 C252 0.939 . S
H237 C254 0.940 . S
C238 P224 1.812 . S
C238 C239 1.389 . S
C238 C243 1.391 . S
C239 H225 0.941 . S
C239 C238 1.389 . S
C239 C240 1.397 . S
C240 H226 0.939 . S
C240 C239 1.397 . S
C240 C241 1.378 . S
C241 C240 1.378 . S
C241 C242 1.378 . S
C242 H227 0.940 . S
C242 C241 1.378 . S
C242 C243 1.396 . S
C243 H228 0.940 . S
C243 C238 1.391 . S
C243 C242 1.396 . S
C244 P224 1.803 . S
C244 C245 1.378 . S
C244 C249 1.400 . S
C245 H229 0.939 . S
C245 C244 1.378 . S
C245 C246 1.361 . S
C246 H230 0.942 . S
C246 C245 1.361 . S
C246 C247 1.369 . S
C247 C246 1.369 . S
C247 C248 1.404 . S
C248 H231 0.940 . S
C248 C247 1.404 . S
C248 C249 1.389 . S
C249 H232 0.939 . S
C249 C244 1.400 . S
C249 C248 1.389 . S
C250 P224 1.819 . S
C250 C251 1.391 . S
C250 C255 1.391 . S
C251 H233 0.941 . S
C251 C250 1.391 . S
C251 C252 1.396 . S
C252 H236 0.939 . S
C252 C251 1.396 . S
C252 C253 1.397 . S
C253 C252 1.397 . S
C253 C254 1.385 . S
C254 H237 0.940 . S
C254 C253 1.385 . S
C254 C255 1.388 . S
C255 H234 0.939 . S
C255 C250 1.391 . S
C255 C254 1.388 . S
P256 O267 1.490 . S
P256 C270 1.812 . S
P256 C276 1.803 . S
P256 C282 1.819 . S
H257 C271 0.941 . S
H258 C272 0.939 . S
H259 C274 0.940 . S
H260 C275 0.940 . S
H261 C277 0.939 . S
H262 C278 0.942 . S
H263 C280 0.940 . S
H264 C281 0.939 . S
H265 C283 0.941 . S
H266 C287 0.939 . S
O267 P256 1.490 . S
H268 C284 0.939 . S
H269 C286 0.940 . S
C270 P256 1.812 . S
C270 C271 1.389 . S
C270 C275 1.391 . S
C271 H257 0.941 . S
C271 C270 1.389 . S
C271 C272 1.397 . S
C272 H258 0.939 . S
C272 C271 1.397 . S
C272 C273 1.378 . S
C273 C272 1.378 . S
C273 C274 1.378 . S
C274 H259 0.940 . S
C274 C273 1.378 . S
C274 C275 1.396 . S
C275 H260 0.940 . S
C275 C270 1.391 . S
C275 C274 1.396 . S
C276 P256 1.803 . S
C276 C277 1.378 . S
C276 C281 1.400 . S
C277 H261 0.939 . S
C277 C276 1.378 . S
C277 C278 1.361 . S
C278 H262 0.942 . S
C278 C277 1.361 . S
C278 C279 1.369 . S
C279 C278 1.369 . S
C279 C280 1.404 . S
C280 H263 0.940 . S
C280 C279 1.404 . S
C280 C281 1.389 . S
C281 H264 0.939 . S
C281 C276 1.400 . S
C281 C280 1.389 . S
C282 P256 1.819 . S
C282 C283 1.391 . S
C282 C287 1.391 . S
C283 H265 0.941 . S
C283 C282 1.391 . S
C283 C284 1.396 . S
C284 H268 0.939 . S
C284 C283 1.396 . S
C284 C285 1.397 . S
C285 C284 1.397 . S
C285 C286 1.385 . S
C286 H269 0.940 . S
C286 C285 1.385 . S
C286 C287 1.388 . S
C287 H266 0.939 . S
C287 C282 1.391 . S
C287 C286 1.388 . S
P288 O299 1.490 . S
P288 C302 1.812 . S
P288 C308 1.803 . S
P288 C314 1.819 . S
H289 C303 0.941 . S
H290 C304 0.939 . S
H291 C306 0.940 . S
H292 C307 0.940 . S
H293 C309 0.939 . S
H294 C310 0.942 1_545 S
H295 C312 0.940 . S
H296 C313 0.939 . S
H297 C315 0.941 . S
H298 C319 0.939 . S
O299 P288 1.490 . S
H300 C316 0.939 . S
H301 C318 0.940 . S
C302 P288 1.812 . S
C302 C303 1.389 . S
C302 C307 1.391 . S
C303 H289 0.941 . S
C303 C302 1.389 . S
C303 C304 1.397 . S
C304 H290 0.939 . S
C304 C303 1.397 . S
C304 C305 1.378 . S
C305 C304 1.378 . S
C305 C306 1.378 . S
C306 H291 0.940 . S
C306 C305 1.378 . S
C306 C307 1.396 . S
C307 H292 0.940 . S
C307 C302 1.391 . S
C307 C306 1.396 . S
C308 P288 1.803 . S
C308 C309 1.378 . S
C308 C313 1.400 . S
C309 H293 0.939 . S
C309 C308 1.378 . S
C309 C310 1.361 . S
C310 H294 0.942 1_565 S
C310 C309 1.361 . S
C310 C311 1.369 . S
C311 C310 1.369 . S
C311 C312 1.404 . S
C312 H295 0.940 . S
C312 C311 1.404 . S
C312 C313 1.389 . S
C313 H296 0.939 . S
C313 C308 1.400 . S
C313 C312 1.389 . S
C314 P288 1.819 . S
C314 C315 1.391 . S
C314 C319 1.391 . S
C315 H297 0.941 . S
C315 C314 1.391 . S
C315 C316 1.396 . S
C316 H300 0.939 . S
C316 C315 1.396 . S
C316 C317 1.397 . S
C317 C316 1.397 . S
C317 C318 1.385 . S
C318 H301 0.940 . S
C318 C317 1.385 . S
C318 C319 1.388 . S
C319 H298 0.939 . S
C319 C314 1.391 . S
C319 C318 1.388 . S
P320 O331 1.490 . S
P320 C334 1.812 . S
P320 C340 1.803 . S
P320 C346 1.819 . S
H321 C335 0.941 . S
H322 C336 0.939 . S
H323 C338 0.940 . S
H324 C339 0.940 . S
H325 C341 0.939 . S
H326 C342 0.942 . S
H327 C344 0.940 . S
H328 C345 0.939 . S
H329 C347 0.941 . S
H330 C351 0.939 . S
O331 P320 1.490 . S
H332 C348 0.939 . S
H333 C350 0.940 . S
C334 P320 1.812 . S
C334 C335 1.389 . S
C334 C339 1.391 . S
C335 H321 0.941 . S
C335 C334 1.389 . S
C335 C336 1.397 . S
C336 H322 0.939 . S
C336 C335 1.397 . S
C336 C337 1.378 . S
C337 C336 1.378 . S
C337 C338 1.378 . S
C338 H323 0.940 . S
C338 C337 1.378 . S
C338 C339 1.396 . S
C339 H324 0.940 . S
C339 C334 1.391 . S
C339 C338 1.396 . S
C340 P320 1.803 . S
C340 C341 1.378 . S
C340 C345 1.400 . S
C341 H325 0.939 . S
C341 C340 1.378 . S
C341 C342 1.361 . S
C342 H326 0.942 . S
C342 C341 1.361 . S
C342 C343 1.369 . S
C343 C342 1.369 . S
C343 C344 1.404 . S
C344 H327 0.940 . S
C344 C343 1.404 . S
C344 C345 1.389 . S
C345 H328 0.939 . S
C345 C340 1.400 . S
C345 C344 1.389 . S
C346 P320 1.819 . S
C346 C347 1.391 . S
C346 C351 1.391 . S
C347 H329 0.941 . S
C347 C346 1.391 . S
C347 C348 1.396 . S
C348 H332 0.939 . S
C348 C347 1.396 . S
C348 C349 1.397 . S
C349 C348 1.397 . S
C349 C350 1.385 . S
C350 H333 0.940 . S
C350 C349 1.385 . S
C350 C351 1.388 . S
C351 H330 0.939 . S
C351 C346 1.391 . S
C351 C350 1.388 . S
P352 O363 1.490 . S
P352 C366 1.812 . S
P352 C372 1.803 . S
P352 C378 1.819 . S
H353 C367 0.941 . S
H354 C368 0.939 . S
H355 C370 0.940 . S
H356 C371 0.940 . S
H357 C373 0.939 . S
H358 C374 0.942 . S
H359 C376 0.940 . S
H360 C377 0.939 . S
H361 C379 0.941 . S
H362 C383 0.939 . S
O363 P352 1.490 . S
H364 C380 0.939 . S
H365 C382 0.940 . S
C366 P352 1.812 . S
C366 C367 1.389 . S
C366 C371 1.391 . S
C367 H353 0.941 . S
C367 C366 1.389 . S
C367 C368 1.397 . S
C368 H354 0.939 . S
C368 C367 1.397 . S
C368 C369 1.378 . S
C369 C368 1.378 . S
C369 C370 1.378 . S
C370 H355 0.940 . S
C370 C369 1.378 . S
C370 C371 1.396 . S
C371 H356 0.940 . S
C371 C366 1.391 . S
C371 C370 1.396 . S
C372 P352 1.803 . S
C372 C373 1.378 . S
C372 C377 1.400 . S
C373 H357 0.939 . S
C373 C372 1.378 . S
C373 C374 1.361 . S
C374 H358 0.942 . S
C374 C373 1.361 . S
C374 C375 1.369 . S
C375 C374 1.369 . S
C375 C376 1.404 . S
C376 H359 0.940 . S
C376 C375 1.404 . S
C376 C377 1.389 . S
C377 H360 0.939 . S
C377 C372 1.400 . S
C377 C376 1.389 . S
C378 P352 1.819 . S
C378 C379 1.391 . S
C378 C383 1.391 . S
C379 H361 0.941 . S
C379 C378 1.391 . S
C379 C380 1.396 . S
C380 H364 0.939 . S
C380 C379 1.396 . S
C380 C381 1.397 . S
C381 C380 1.397 . S
C381 C382 1.385 . S
C382 H365 0.940 . S
C382 C381 1.385 . S
C382 C383 1.388 . S
C383 H362 0.939 . S
C383 C378 1.391 . S
C383 C382 1.388 . S
P384 O395 1.490 . S
P384 C398 1.812 . S
P384 C404 1.803 . S
P384 C410 1.819 . S
H385 C399 0.941 . S
H386 C400 0.939 . S
H387 C402 0.940 . S
H388 C403 0.940 . S
H389 C405 0.939 . S
H390 C406 0.942 . S
H391 C408 0.940 . S
H392 C409 0.939 . S
H393 C411 0.941 . S
H394 C415 0.939 . S
O395 P384 1.490 . S
H396 C412 0.939 . S
H397 C414 0.940 . S
C398 P384 1.812 . S
C398 C399 1.389 . S
C398 C403 1.391 . S
C399 H385 0.941 . S
C399 C398 1.389 . S
C399 C400 1.397 . S
C400 H386 0.939 . S
C400 C399 1.397 . S
C400 C401 1.378 . S
C401 C400 1.378 . S
C401 C402 1.378 . S
C402 H387 0.940 . S
C402 C401 1.378 . S
C402 C403 1.396 . S
C403 H388 0.940 . S
C403 C398 1.391 . S
C403 C402 1.396 . S
C404 P384 1.803 . S
C404 C405 1.378 . S
C404 C409 1.400 . S
C405 H389 0.939 . S
C405 C404 1.378 . S
C405 C406 1.361 . S
C406 H390 0.942 . S
C406 C405 1.361 . S
C406 C407 1.369 . S
C407 C406 1.369 . S
C407 C408 1.404 . S
C408 H391 0.940 . S
C408 C407 1.404 . S
C408 C409 1.389 . S
C409 H392 0.939 . S
C409 C404 1.400 . S
C409 C408 1.389 . S
C410 P384 1.819 . S
C410 C411 1.391 . S
C410 C415 1.391 . S
C411 H393 0.941 . S
C411 C410 1.391 . S
C411 C412 1.396 . S
C412 H396 0.939 . S
C412 C411 1.396 . S
C412 C413 1.397 . S
C413 C412 1.397 . S
C413 C414 1.385 . S
C414 H397 0.940 . S
C414 C413 1.385 . S
C414 C415 1.388 . S
C415 H394 0.939 . S
C415 C410 1.391 . S
C415 C414 1.388 . S
P416 O427 1.490 . S
P416 C430 1.812 . S
P416 C436 1.803 . S
P416 C442 1.819 . S
H417 C431 0.941 . S
H418 C432 0.939 . S
H419 C434 0.940 . S
H420 C435 0.940 . S
H421 C437 0.939 . S
H422 C438 0.942 . S
H423 C440 0.940 . S
H424 C441 0.939 . S
H425 C443 0.941 . S
H426 C447 0.939 . S
O427 P416 1.490 . S
H428 C444 0.939 . S
H429 C446 0.940 . S
C430 P416 1.812 . S
C430 C431 1.389 . S
C430 C435 1.391 . S
C431 H417 0.941 . S
C431 C430 1.389 . S
C431 C432 1.397 . S
C432 H418 0.939 . S
C432 C431 1.397 . S
C432 C433 1.378 . S
C433 C432 1.378 . S
C433 C434 1.378 . S
C434 H419 0.940 . S
C434 C433 1.378 . S
C434 C435 1.396 . S
C435 H420 0.940 . S
C435 C430 1.391 . S
C435 C434 1.396 . S
C436 P416 1.803 . S
C436 C437 1.378 . S
C436 C441 1.400 . S
C437 H421 0.939 . S
C437 C436 1.378 . S
C437 C438 1.361 . S
C438 H422 0.942 . S
C438 C437 1.361 . S
C438 C439 1.369 . S
C439 C438 1.369 . S
C439 C440 1.404 . S
C440 H423 0.940 . S
C440 C439 1.404 . S
C440 C441 1.389 . S
C441 H424 0.939 . S
C441 C436 1.400 . S
C441 C440 1.389 . S
C442 P416 1.819 . S
C442 C443 1.391 . S
C442 C447 1.391 . S
C443 H425 0.941 . S
C443 C442 1.391 . S
C443 C444 1.396 . S
C444 H428 0.939 . S
C444 C443 1.396 . S
C444 C445 1.397 . S
C445 C444 1.397 . S
C445 C446 1.385 . S
C446 H429 0.940 . S
C446 C445 1.385 . S
C446 C447 1.388 . S
C447 H426 0.939 . S
C447 C442 1.391 . S
C447 C446 1.388 . S
P448 O459 1.490 . S
P448 C462 1.812 . S
P448 C468 1.803 . S
P448 C474 1.819 . S
H449 C463 0.941 . S
H450 C464 0.939 . S
H451 C466 0.940 . S
H452 C467 0.940 . S
H453 C469 0.939 . S
H454 C470 0.942 . S
H455 C472 0.940 . S
H456 C473 0.939 . S
H457 C475 0.941 . S
H458 C479 0.939 . S
O459 P448 1.490 . S
H460 C476 0.939 . S
H461 C478 0.940 . S
C462 P448 1.812 . S
C462 C463 1.389 . S
C462 C467 1.391 . S
C463 H449 0.941 . S
C463 C462 1.389 . S
C463 C464 1.397 . S
C464 H450 0.939 . S
C464 C463 1.397 . S
C464 C465 1.378 . S
C465 C464 1.378 . S
C465 C466 1.378 . S
C466 H451 0.940 . S
C466 C465 1.378 . S
C466 C467 1.396 . S
C467 H452 0.940 . S
C467 C462 1.391 . S
C467 C466 1.396 . S
C468 P448 1.803 . S
C468 C469 1.378 . S
C468 C473 1.400 . S
C469 H453 0.939 . S
C469 C468 1.378 . S
C469 C470 1.361 . S
C470 H454 0.942 . S
C470 C469 1.361 . S
C470 C471 1.369 . S
C471 C470 1.369 . S
C471 C472 1.404 . S
C472 H455 0.940 . S
C472 C471 1.404 . S
C472 C473 1.389 . S
C473 H456 0.939 . S
C473 C468 1.400 . S
C473 C472 1.389 . S
C474 P448 1.819 . S
C474 C475 1.391 . S
C474 C479 1.391 . S
C475 H457 0.941 . S
C475 C474 1.391 . S
C475 C476 1.396 . S
C476 H460 0.939 . S
C476 C475 1.396 . S
C476 C477 1.397 . S
C477 C476 1.397 . S
C477 C478 1.385 . S
C478 H461 0.940 . S
C478 C477 1.385 . S
C478 C479 1.388 . S
C479 H458 0.939 . S
C479 C474 1.391 . S
C479 C478 1.388 . S
P480 O491 1.490 . S
P480 C494 1.812 . S
P480 C500 1.803 . S
P480 C506 1.819 . S
H481 C495 0.941 . S
H482 C496 0.939 . S
H483 C498 0.940 . S
H484 C499 0.940 . S
H485 C501 0.909 1_554 S
H486 C502 0.942 . S
H487 C504 0.940 . S
H488 C505 0.939 . S
H489 C507 0.941 . S
H490 C511 0.939 . S
O491 P480 1.490 . S
H492 C508 0.939 . S
H493 C510 0.940 . S
C494 P480 1.812 . S
C494 C495 1.389 . S
C494 C499 1.391 . S
C495 H481 0.941 . S
C495 C494 1.389 . S
C495 C496 1.397 . S
C496 H482 0.939 . S
C496 C495 1.397 . S
C496 C497 1.378 . S
C497 C496 1.378 . S
C497 C498 1.378 . S
C498 H483 0.940 . S
C498 C497 1.378 . S
C498 C499 1.396 . S
C499 H484 0.940 . S
C499 C494 1.391 . S
C499 C498 1.396 . S
C500 P480 1.803 . S
C500 C501 1.421 . S
C500 C505 1.400 . S
C501 H485 0.909 1_556 S
C501 C500 1.421 . S
C501 C502 1.347 1_556 S
C502 H486 0.942 . S
C502 C501 1.347 1_554 S
C502 C503 1.369 1_554 S
C503 C502 1.369 1_556 S
C503 C504 1.404 . S
C504 H487 0.940 . S
C504 C503 1.404 . S
C504 C505 1.389 . S
C505 H488 0.939 . S
C505 C500 1.400 . S
C505 C504 1.389 . S
C506 P480 1.819 . S
C506 C507 1.391 . S
C506 C511 1.391 . S
C507 H489 0.941 . S
C507 C506 1.391 . S
C507 C508 1.396 . S
C508 H492 0.939 . S
C508 C507 1.396 . S
C508 C509 1.397 . S
C509 C508 1.397 . S
C509 C510 1.385 . S
C510 H493 0.940 . S
C510 C509 1.385 . S
C510 C511 1.388 . S
C511 H490 0.939 . S
C511 C506 1.391 . S
C511 C510 1.388 . S
O512 Cd513 2.223 . S
O512 C520 1.315 . S
Cd513 O512 2.223 . S
Cd513 O516 2.297 . S
Cd513 O517 2.439 . S
Cd513 O523 2.240 . S
Cd514 O515 2.240 . S
Cd514 O522 2.223 . S
Cd514 O524 2.297 . S
Cd514 O525 2.439 . S
O515 Cd514 2.240 . S
O515 C520 1.279 . S
O516 Cd513 2.297 . S
O516 C518 1.247 . S
O517 Cd513 2.439 . S
O517 C518 1.208 . S
C518 O516 1.247 . S
C518 O517 1.208 . S
C519 O524 1.247 . S
C519 O525 1.208 . S
C520 O512 1.315 . S
C520 O515 1.279 . S
C521 O522 1.315 . S
C521 O523 1.279 . S
O522 Cd514 2.223 . S
O522 C521 1.315 . S
O523 Cd513 2.240 . S
O523 C521 1.279 . S
O524 Cd514 2.297 . S
O524 C519 1.247 . S
O525 Cd514 2.439 . S
O525 C519 1.208 . S
O526 Cd527 2.223 . S
O526 C534 1.315 . S
Cd527 O526 2.223 . S
Cd527 O530 2.297 . S
Cd527 O531 2.439 . S
Cd527 O537 2.240 . S
Cd528 O529 2.240 . S
Cd528 O536 2.223 . S
Cd528 O538 2.297 . S
Cd528 O539 2.439 . S
O529 Cd528 2.240 . S
O529 C534 1.279 . S
O530 Cd527 2.297 . S
O530 C532 1.247 . S
O531 Cd527 2.439 . S
O531 C532 1.208 . S
C532 O530 1.247 . S
C532 O531 1.208 . S
C533 O538 1.247 . S
C533 O539 1.208 . S
C534 O526 1.315 . S
C534 O529 1.279 . S
C535 O536 1.315 . S
C535 O537 1.279 . S
O536 Cd528 2.223 . S
O536 C535 1.315 . S
O537 Cd527 2.240 . S
O537 C535 1.279 . S
O538 Cd528 2.297 . S
O538 C533 1.247 . S
O539 Cd528 2.439 . S
O539 C533 1.208 . S
O540 Cd541 2.223 1_556 S
O540 C548 1.315 . S
Cd541 O540 2.223 1_554 S
Cd541 O544 2.297 . S
Cd541 O545 2.439 . S
Cd541 O551 2.240 . S
Cd542 O543 2.240 . S
Cd542 O550 2.223 . S
Cd542 O552 2.297 1_556 S
Cd542 O553 2.439 1_556 S
O543 Cd542 2.240 . S
O543 C548 1.279 . S
O544 Cd541 2.297 . S
O544 C546 1.247 . S
O545 Cd541 2.439 . S
O545 C546 1.208 . S
C546 O544 1.247 . S
C546 O545 1.208 . S
C547 O552 1.247 . S
C547 O553 1.208 . S
C548 O540 1.315 . S
C548 O543 1.279 . S
C549 O550 1.315 . S
C549 O551 1.279 1_556 S
O550 Cd542 2.223 . S
O550 C549 1.315 . S
O551 Cd541 2.240 . S
O551 C549 1.279 1_554 S
O552 Cd542 2.297 1_554 S
O552 C547 1.247 . S
O553 Cd542 2.439 1_554 S
O553 C547 1.208 . S
O554 Cd555 2.223 . S
O554 C562 1.315 . S
Cd555 O554 2.223 . S
Cd555 O558 2.297 . S
Cd555 O559 2.439 . S
Cd555 O565 2.240 . S
Cd556 O557 2.240 . S
Cd556 O564 2.223 . S
Cd556 O566 2.297 . S
Cd556 O567 2.439 . S
O557 Cd556 2.240 . S
O557 C562 1.279 . S
O558 Cd555 2.297 . S
O558 C560 1.247 . S
O559 Cd555 2.439 . S
O559 C560 1.208 . S
C560 O558 1.247 . S
C560 O559 1.208 . S
C561 O566 1.247 . S
C561 O567 1.208 . S
C562 O554 1.315 . S
C562 O557 1.279 . S
C563 O564 1.315 . S
C563 O565 1.279 . S
O564 Cd556 2.223 . S
O564 C563 1.315 . S
O565 Cd555 2.240 . S
O565 C563 1.279 . S
O566 Cd556 2.297 . S
O566 C561 1.247 . S
O567 Cd556 2.439 . S
O567 C561 1.208 . S
O568 Cd569 2.223 . S
O568 C576 1.315 . S
Cd569 O568 2.223 . S
Cd569 O572 2.297 . S
Cd569 O573 2.439 . S
Cd569 O579 2.240 . S
Cd570 O571 2.240 . S
Cd570 O578 2.223 . S
Cd570 O580 2.297 . S
Cd570 O581 2.439 . S
O571 Cd570 2.240 . S
O571 C576 1.279 . S
O572 Cd569 2.297 . S
O572 C574 1.247 . S
O573 Cd569 2.439 . S
O573 C574 1.208 . S
C574 O572 1.247 . S
C574 O573 1.208 . S
C575 O580 1.247 . S
C575 O581 1.208 . S
C576 O568 1.315 . S
C576 O571 1.279 . S
C577 O578 1.315 . S
C577 O579 1.279 . S
O578 Cd570 2.223 . S
O578 C577 1.315 . S
O579 Cd569 2.240 . S
O579 C577 1.279 . S
O580 Cd570 2.297 . S
O580 C575 1.247 . S
O581 Cd570 2.439 . S
O581 C575 1.208 . S
O582 Cd583 2.223 . S
O582 C590 1.315 . S
Cd583 O582 2.223 . S
Cd583 O586 2.297 . S
Cd583 O587 2.439 . S
Cd583 O593 2.240 . S
Cd584 O585 2.240 . S
Cd584 O592 2.223 . S
Cd584 O594 2.297 . S
Cd584 O595 2.439 . S
O585 Cd584 2.240 . S
O585 C590 1.279 . S
O586 Cd583 2.297 . S
O586 C588 1.247 . S
O587 Cd583 2.439 . S
O587 C588 1.208 . S
C588 O586 1.247 . S
C588 O587 1.208 . S
C589 O594 1.247 . S
C589 O595 1.208 . S
C590 O582 1.315 . S
C590 O585 1.279 . S
C591 O592 1.315 . S
C591 O593 1.279 . S
O592 Cd584 2.223 . S
O592 C591 1.315 . S
O593 Cd583 2.240 . S
O593 C591 1.279 . S
O594 Cd584 2.297 . S
O594 C589 1.247 . S
O595 Cd584 2.439 . S
O595 C589 1.208 . S
O596 Cd597 2.223 . S
O596 C604 1.315 . S
Cd597 O596 2.223 . S
Cd597 O600 2.297 . S
Cd597 O601 2.439 . S
Cd597 O607 2.240 . S
Cd598 O599 2.240 . S
Cd598 O606 2.223 . S
Cd598 O608 2.297 . S
Cd598 O609 2.439 . S
O599 Cd598 2.240 . S
O599 C604 1.279 . S
O600 Cd597 2.297 . S
O600 C602 1.247 . S
O601 Cd597 2.439 . S
O601 C602 1.208 . S
C602 O600 1.247 . S
C602 O601 1.208 . S
C603 O608 1.247 . S
C603 O609 1.208 . S
C604 O596 1.315 . S
C604 O599 1.279 . S
C605 O606 1.315 . S
C605 O607 1.279 . S
O606 Cd598 2.223 . S
O606 C605 1.315 . S
O607 Cd597 2.240 . S
O607 C605 1.279 . S
O608 Cd598 2.297 . S
O608 C603 1.247 . S
O609 Cd598 2.439 . S
O609 C603 1.208 . S
O610 Cd611 2.223 1_545 S
O610 C618 1.315 . S
Cd611 O610 2.223 1_565 S
Cd611 O614 2.297 . S
Cd611 O615 2.439 . S
Cd611 O621 2.240 1_565 S
Cd612 O613 2.240 . S
Cd612 O620 2.223 . S
Cd612 O622 2.297 . S
Cd612 O623 2.439 1_545 S
O613 Cd612 2.240 . S
O613 C618 1.279 . S
O614 Cd611 2.297 . S
O614 C616 1.247 . S
O615 Cd611 2.439 . S
O615 C616 1.208 . S
C616 O614 1.247 . S
C616 O615 1.208 . S
C617 O622 1.247 1_565 S
C617 O623 1.208 . S
C618 O610 1.315 . S
C618 O613 1.279 . S
C619 O620 1.315 . S
C619 O621 1.279 . S
O620 Cd612 2.223 . S
O620 C619 1.315 . S
O621 Cd611 2.240 1_545 S
O621 C619 1.279 . S
O622 Cd612 2.297 . S
O622 C617 1.247 1_545 S
O623 Cd612 2.439 1_565 S
O623 C617 1.208 . S
O624 Cd625 2.223 . S
O624 C632 1.315 . S
Cd625 O624 2.223 . S
Cd625 O628 2.297 1_655 S
Cd625 O629 2.439 1_655 S
Cd625 O635 2.240 . S
Cd626 O627 2.240 . S
Cd626 O634 2.223 1_455 S
Cd626 O636 2.297 . S
Cd626 O637 2.439 . S
O627 Cd626 2.240 . S
O627 C632 1.279 1_455 S
O628 Cd625 2.297 1_455 S
O628 C630 1.247 . S
O629 Cd625 2.439 1_455 S
O629 C630 1.208 . S
C630 O628 1.247 . S
C630 O629 1.208 . S
C631 O636 1.247 . S
C631 O637 1.208 . S
C632 O624 1.315 . S
C632 O627 1.279 1_655 S
C633 O634 1.315 . S
C633 O635 1.279 . S
O634 Cd626 2.223 1_655 S
O634 C633 1.315 . S
O635 Cd625 2.240 . S
O635 C633 1.279 . S
O636 Cd626 2.297 . S
O636 C631 1.247 . S
O637 Cd626 2.439 . S
O637 C631 1.208 . S
O638 Cd639 2.223 . S
O638 C646 1.315 . S
Cd639 O638 2.223 . S
Cd639 O642 2.297 . S
Cd639 O643 2.439 . S
Cd639 O649 2.240 . S
Cd640 O641 2.240 . S
Cd640 O648 2.223 . S
Cd640 O650 2.297 . S
Cd640 O651 2.439 . S
O641 Cd640 2.240 . S
O641 C646 1.279 . S
O642 Cd639 2.297 . S
O642 C644 1.247 . S
O643 Cd639 2.439 . S
O643 C644 1.208 . S
C644 O642 1.247 . S
C644 O643 1.208 . S
C645 O650 1.247 . S
C645 O651 1.208 . S
C646 O638 1.315 . S
C646 O641 1.279 . S
C647 O648 1.315 . S
C647 O649 1.279 . S
O648 Cd640 2.223 . S
O648 C647 1.315 . S
O649 Cd639 2.240 . S
O649 C647 1.279 . S
O650 Cd640 2.297 . S
O650 C645 1.247 . S
O651 Cd640 2.439 . S
O651 C645 1.208 . S
O652 Cd653 2.223 1_655 S
O652 C660 1.315 . S
Cd653 O652 2.223 1_455 S
Cd653 O656 2.297 . S
Cd653 O657 2.439 . S
Cd653 O663 2.240 . S
Cd654 O655 2.240 . S
Cd654 O662 2.223 . S
Cd654 O664 2.290 1_655 S
Cd654 O665 2.439 1_655 S
O655 Cd654 2.240 . S
O655 C660 1.279 . S
O656 Cd653 2.297 . S
O656 C658 1.247 . S
O657 Cd653 2.439 . S
O657 C658 1.208 . S
C658 O656 1.247 . S
C658 O657 1.208 . S
C659 O664 1.272 . S
C659 O665 1.208 . S
C660 O652 1.315 . S
C660 O655 1.279 . S
C661 O662 1.315 . S
C661 O663 1.279 1_655 S
O662 Cd654 2.223 . S
O662 C661 1.315 . S
O663 Cd653 2.240 . S
O663 C661 1.279 1_455 S
O664 Cd654 2.290 1_455 S
O664 C659 1.272 . S
O665 Cd654 2.439 1_455 S
O665 C659 1.208 . S
O666 Cd667 2.223 . S
O666 C674 1.315 . S
Cd667 O666 2.223 . S
Cd667 O670 2.297 . S
Cd667 O671 2.439 . S
Cd667 O677 2.240 . S
Cd668 O669 2.240 . S
Cd668 O676 2.223 . S
Cd668 O678 2.297 . S
Cd668 O679 2.439 . S
O669 Cd668 2.240 . S
O669 C674 1.279 . S
O670 Cd667 2.297 . S
O670 C672 1.247 . S
O671 Cd667 2.439 . S
O671 C672 1.208 . S
C672 O670 1.247 . S
C672 O671 1.208 . S
C673 O678 1.247 . S
C673 O679 1.208 . S
C674 O666 1.315 . S
C674 O669 1.279 . S
C675 O676 1.315 . S
C675 O677 1.279 . S
O676 Cd668 2.223 . S
O676 C675 1.315 . S
O677 Cd667 2.240 . S
O677 C675 1.279 . S
O678 Cd668 2.297 . S
O678 C673 1.247 . S
O679 Cd668 2.439 . S
O679 C673 1.208 . S
H680 C686 0.930 . S
H681 C689 0.930 . S
H682 C690 0.930 . S
H683 C691 0.930 . S
H684 C694 0.930 . S
H685 C695 0.930 . S
C686 H680 0.930 . S
C686 C687 1.355 . S
C686 C688 1.415 . S
C687 C686 1.355 . S
C687 C689 1.419 . S
C688 C686 1.415 . S
C688 C693 1.425 . S
C688 C695 1.409 . S
C689 H681 0.930 . S
C689 C687 1.419 . S
C689 C690 1.362 . S
C690 H682 0.930 . S
C690 C689 1.362 . S
C690 C693 1.409 . S
C691 H683 0.930 . S
C691 C692 1.355 . S
C691 C693 1.415 . S
C692 C691 1.355 . S
C692 C694 1.419 . S
C693 C688 1.425 . S
C693 C690 1.409 . S
C693 C691 1.415 . S
C694 H684 0.930 . S
C694 C692 1.419 . S
C694 C695 1.362 . S
C695 H685 0.930 . S
C695 C688 1.409 . S
C695 C694 1.362 . S
H696 C702 0.930 . S
H697 C705 0.933 . S
H698 C706 0.930 . S
H699 C707 0.930 . S
H700 C710 0.930 . S
H701 C711 0.930 . S
C702 H696 0.930 . S
C702 C703 1.355 . S
C702 C704 1.415 1_655 S
C703 C702 1.355 . S
C703 C705 1.426 . S
C704 C702 1.415 1_455 S
C704 C709 1.425 . S
C704 C711 1.409 . S
C705 H697 0.933 . S
C705 C703 1.426 . S
C705 C706 1.353 1_655 S
C706 H698 0.930 . S
C706 C705 1.353 1_455 S
C706 C709 1.409 . S
C707 H699 0.930 . S
C707 C708 1.355 . S
C707 C709 1.415 . S
C708 C707 1.355 . S
C708 C710 1.419 . S
C709 C704 1.425 . S
C709 C706 1.409 . S
C709 C707 1.415 . S
C710 H700 0.930 . S
C710 C708 1.419 . S
C710 C711 1.362 . S
C711 H701 0.930 . S
C711 C704 1.409 . S
C711 C710 1.362 . S
H712 C718 0.930 . S
H713 C721 0.930 . S
H714 C722 0.930 . S
H715 C723 0.930 . S
H716 C726 0.930 . S
H717 C727 0.930 . S
C718 H712 0.930 . S
C718 C719 1.355 . S
C718 C720 1.415 . S
C719 C718 1.355 . S
C719 C721 1.419 . S
C720 C718 1.415 . S
C720 C725 1.425 . S
C720 C727 1.409 . S
C721 H713 0.930 . S
C721 C719 1.419 . S
C721 C722 1.362 . S
C722 H714 0.930 . S
C722 C721 1.362 . S
C722 C725 1.409 . S
C723 H715 0.930 . S
C723 C724 1.355 . S
C723 C725 1.415 . S
C724 C723 1.355 . S
C724 C726 1.419 . S
C725 C720 1.425 . S
C725 C722 1.409 . S
C725 C723 1.415 . S
C726 H716 0.930 . S
C726 C724 1.419 . S
C726 C727 1.362 . S
C727 H717 0.930 . S
C727 C720 1.409 . S
C727 C726 1.362 . S
H728 C734 0.930 1_545 S
H729 C737 0.930 . S
H730 C738 0.930 . S
H731 C739 0.930 . S
H732 C742 0.930 . S
H733 C743 0.930 . S
C734 H728 0.930 1_565 S
C734 C735 1.355 . S
C734 C736 1.415 1_465 S
C735 C734 1.355 . S
C735 C737 1.419 1_455 S
C736 C734 1.415 1_645 S
C736 C741 1.425 1_545 S
C736 C743 1.409 . S
C737 H729 0.930 . S
C737 C735 1.419 1_655 S
C737 C738 1.362 . S
C738 H730 0.930 . S
C738 C737 1.362 . S
C738 C741 1.409 . S
C739 H731 0.930 . S
C739 C740 1.355 1_565 S
C739 C741 1.415 . S
C740 C739 1.355 1_545 S
C740 C742 1.419 . S
C741 C736 1.425 1_565 S
C741 C738 1.409 . S
C741 C739 1.415 . S
C742 H732 0.930 . S
C742 C740 1.419 . S
C742 C743 1.362 . S
C743 H733 0.930 . S
C743 C736 1.409 . S
C743 C742 1.362 . S
H744 C750 0.930 . S
H745 C753 0.930 . S
H746 C754 0.930 . S
H747 C755 0.930 . S
H748 C758 0.930 . S
H749 C759 0.930 . S
C750 H744 0.930 . S
C750 C751 1.355 . S
C750 C752 1.415 . S
C751 C750 1.355 . S
C751 C753 1.419 . S
C752 C750 1.415 . S
C752 C757 1.425 . S
C752 C759 1.409 . S
C753 H745 0.930 . S
C753 C751 1.419 . S
C753 C754 1.362 . S
C754 H746 0.930 . S
C754 C753 1.362 . S
C754 C757 1.409 . S
C755 H747 0.930 . S
C755 C756 1.355 . S
C755 C757 1.415 . S
C756 C755 1.355 . S
C756 C758 1.419 . S
C757 C752 1.425 . S
C757 C754 1.409 . S
C757 C755 1.415 . S
C758 H748 0.930 . S
C758 C756 1.419 . S
C758 C759 1.362 . S
C759 H749 0.930 . S
C759 C752 1.409 . S
C759 C758 1.362 . S
H760 C766 0.930 . S
H761 C769 0.930 . S
H762 C770 0.930 . S
H763 C771 0.930 . S
H764 C774 0.930 . S
H765 C775 0.930 . S
C766 H760 0.930 . S
C766 C767 1.355 . S
C766 C768 1.415 . S
C767 C766 1.355 . S
C767 C769 1.419 . S
C768 C766 1.415 . S
C768 C773 1.425 . S
C768 C775 1.409 . S
C769 H761 0.930 . S
C769 C767 1.419 . S
C769 C770 1.362 . S
C770 H762 0.930 . S
C770 C769 1.362 . S
C770 C773 1.409 . S
C771 H763 0.930 . S
C771 C772 1.355 . S
C771 C773 1.415 . S
C772 C771 1.355 . S
C772 C774 1.419 . S
C773 C768 1.425 . S
C773 C770 1.409 . S
C773 C771 1.415 . S
C774 H764 0.930 . S
C774 C772 1.419 . S
C774 C775 1.362 . S
C775 H765 0.930 . S
C775 C768 1.409 . S
C775 C774 1.362 . S
H776 C782 0.930 . S
H777 C785 0.930 . S
H778 C786 0.930 . S
H779 C787 0.930 . S
H780 C790 0.930 . S
H781 C791 0.930 . S
C782 H776 0.930 . S
C782 C783 1.355 . S
C782 C784 1.415 . S
C783 C782 1.355 . S
C783 C785 1.419 . S
C784 C782 1.415 . S
C784 C789 1.425 . S
C784 C791 1.409 . S
C785 H777 0.930 . S
C785 C783 1.419 . S
C785 C786 1.362 . S
C786 H778 0.930 . S
C786 C785 1.362 . S
C786 C789 1.409 . S
C787 H779 0.930 . S
C787 C788 1.355 . S
C787 C789 1.415 . S
C788 C787 1.355 . S
C788 C790 1.419 . S
C789 C784 1.425 . S
C789 C786 1.409 . S
C789 C787 1.415 . S
C790 H780 0.930 . S
C790 C788 1.419 . S
C790 C791 1.362 . S
C791 H781 0.930 . S
C791 C784 1.409 . S
C791 C790 1.362 . S
H792 C798 0.930 . S
H793 C801 0.930 . S
H794 C802 0.930 . S
H795 C803 0.930 . S
H796 C806 0.930 . S
H797 C807 0.930 . S
C798 H792 0.930 . S
C798 C799 1.355 . S
C798 C800 1.415 . S
C799 C798 1.355 . S
C799 C801 1.419 . S
C800 C798 1.415 . S
C800 C805 1.425 . S
C800 C807 1.409 . S
C801 H793 0.930 . S
C801 C799 1.419 . S
C801 C802 1.362 . S
C802 H794 0.930 . S
C802 C801 1.362 . S
C802 C805 1.409 . S
C803 H795 0.930 . S
C803 C804 1.355 . S
C803 C805 1.415 . S
C804 C803 1.355 . S
C804 C806 1.419 . S
C805 C800 1.425 . S
C805 C802 1.409 . S
C805 C803 1.415 . S
C806 H796 0.930 . S
C806 C804 1.419 . S
C806 C807 1.362 . S
C807 H797 0.930 . S
C807 C800 1.409 . S
C807 C806 1.362 . S
H808 C814 0.930 . S
H809 C817 0.930 . S
H810 C818 0.930 . S
H811 C819 0.930 . S
H812 C822 0.930 . S
H813 C823 0.930 . S
C814 H808 0.930 . S
C814 C815 1.355 . S
C814 C816 1.415 . S
C815 C814 1.355 . S
C815 C817 1.419 . S
C816 C814 1.415 . S
C816 C821 1.425 . S
C816 C823 1.409 . S
C817 H809 0.930 . S
C817 C815 1.419 . S
C817 C818 1.362 . S
C818 H810 0.930 . S
C818 C817 1.362 . S
C818 C821 1.409 . S
C819 H811 0.930 . S
C819 C820 1.355 . S
C819 C821 1.415 . S
C820 C819 1.355 . S
C820 C822 1.419 . S
C821 C816 1.425 . S
C821 C818 1.409 . S
C821 C819 1.415 . S
C822 H812 0.930 . S
C822 C820 1.419 . S
C822 C823 1.362 . S
C823 H813 0.930 . S
C823 C816 1.409 . S
C823 C822 1.362 . S
H824 C830 0.930 . S
H825 C833 0.930 . S
H826 C834 0.930 . S
H827 C835 0.930 . S
H828 C838 0.930 . S
H829 C839 0.930 . S
C830 H824 0.930 . S
C830 C831 1.355 . S
C830 C832 1.415 . S
C831 C830 1.355 . S
C831 C833 1.419 . S
C832 C830 1.415 . S
C832 C837 1.425 . S
C832 C839 1.409 . S
C833 H825 0.930 . S
C833 C831 1.419 . S
C833 C834 1.362 . S
C834 H826 0.930 . S
C834 C833 1.362 . S
C834 C837 1.409 . S
C835 H827 0.930 . S
C835 C836 1.355 . S
C835 C837 1.415 . S
C836 C835 1.355 . S
C836 C838 1.419 . S
C837 C832 1.425 . S
C837 C834 1.409 . S
C837 C835 1.415 . S
C838 H828 0.930 . S
C838 C836 1.419 . S
C838 C839 1.362 . S
C839 H829 0.930 . S
C839 C832 1.409 . S
C839 C838 1.362 . S
H840 C846 0.930 . S
H841 C849 0.930 . S
H842 C850 0.930 . S
H843 C851 0.930 . S
H844 C854 0.930 . S
H845 C855 0.930 . S
C846 H840 0.930 . S
C846 C847 1.355 . S
C846 C848 1.415 . S
C847 C846 1.355 . S
C847 C849 1.419 . S
C848 C846 1.415 . S
C848 C853 1.425 . S
C848 C855 1.409 . S
C849 H841 0.930 . S
C849 C847 1.419 . S
C849 C850 1.362 . S
C850 H842 0.930 . S
C850 C849 1.362 . S
C850 C853 1.409 . S
C851 H843 0.930 . S
C851 C852 1.355 . S
C851 C853 1.415 . S
C852 C851 1.355 . S
C852 C854 1.419 . S
C853 C848 1.425 . S
C853 C850 1.409 . S
C853 C851 1.415 . S
C854 H844 0.930 . S
C854 C852 1.419 . S
C854 C855 1.362 . S
C855 H845 0.930 . S
C855 C848 1.409 . S
C855 C854 1.362 . S
H856 C862 0.930 . S
H857 C865 0.930 . S
H858 C866 0.930 . S
H859 C867 0.930 . S
H860 C870 0.930 . S
H861 C871 0.930 . S
C862 H856 0.930 . S
C862 C863 1.355 . S
C862 C864 1.415 . S
C863 C862 1.355 . S
C863 C865 1.419 . S
C864 C862 1.415 . S
C864 C869 1.425 . S
C864 C871 1.409 . S
C865 H857 0.930 . S
C865 C863 1.419 . S
C865 C866 1.362 . S
C866 H858 0.930 . S
C866 C865 1.362 . S
C866 C869 1.409 . S
C867 H859 0.930 . S
C867 C868 1.355 . S
C867 C869 1.415 . S
C868 C867 1.355 . S
C868 C870 1.419 . S
C869 C864 1.425 . S
C869 C866 1.409 . S
C869 C867 1.415 . S
C870 H860 0.930 . S
C870 C868 1.419 . S
C870 C871 1.362 . S
C871 H861 0.930 . S
C871 C864 1.409 . S
C871 C870 1.362 . S
H872 C878 0.930 . S
H873 C881 0.930 . S
H874 C882 0.930 . S
H875 C883 0.930 . S
H876 C886 0.930 . S
H877 C887 0.930 . S
C878 H872 0.930 . S
C878 C879 1.355 . S
C878 C880 1.415 . S
C879 C878 1.355 . S
C879 C881 1.419 . S
C880 C878 1.415 . S
C880 C885 1.425 . S
C880 C887 1.409 . S
C881 H873 0.930 . S
C881 C879 1.419 . S
C881 C882 1.362 . S
C882 H874 0.930 . S
C882 C881 1.362 . S
C882 C885 1.409 . S
C883 H875 0.930 . S
C883 C884 1.355 . S
C883 C885 1.415 . S
C884 C883 1.355 . S
C884 C886 1.419 . S
C885 C880 1.425 . S
C885 C882 1.409 . S
C885 C883 1.415 . S
C886 H876 0.930 . S
C886 C884 1.419 . S
C886 C887 1.362 . S
C887 H877 0.930 . S
C887 C880 1.409 . S
C887 C886 1.362 . S
H888 C894 0.930 . S
H889 C897 0.930 . S
H890 C898 0.930 . S
H891 C899 0.930 . S
H892 C902 0.930 . S
H893 C903 0.930 . S
C894 H888 0.930 . S
C894 C895 1.355 . S
C894 C896 1.415 . S
C895 C894 1.355 . S
C895 C897 1.419 . S
C896 C894 1.415 . S
C896 C901 1.425 . S
C896 C903 1.409 . S
C897 H889 0.930 . S
C897 C895 1.419 . S
C897 C898 1.362 . S
C898 H890 0.930 . S
C898 C897 1.362 . S
C898 C901 1.409 . S
C899 H891 0.930 . S
C899 C900 1.355 . S
C899 C901 1.415 . S
C900 C899 1.355 . S
C900 C902 1.419 . S
C901 C896 1.425 . S
C901 C898 1.409 . S
C901 C899 1.415 . S
C902 H892 0.930 . S
C902 C900 1.419 . S
C902 C903 1.362 . S
C903 H893 0.930 . S
C903 C896 1.409 . S
C903 C902 1.362 . S
H904 C910 0.930 . S
H905 C913 0.930 . S
H906 C914 0.930 . S
H907 C915 0.930 . S
H908 C918 0.930 . S
H909 C919 0.930 . S
C910 H904 0.930 . S
C910 C911 1.355 . S
C910 C912 1.415 . S
C911 C910 1.355 . S
C911 C913 1.419 . S
C912 C910 1.415 . S
C912 C917 1.425 . S
C912 C919 1.409 . S
C913 H905 0.930 . S
C913 C911 1.419 . S
C913 C914 1.362 . S
C914 H906 0.930 . S
C914 C913 1.362 . S
C914 C917 1.409 . S
C915 H907 0.930 . S
C915 C916 1.355 . S
C915 C917 1.415 . S
C916 C915 1.355 . S
C916 C918 1.419 . S
C917 C912 1.425 . S
C917 C914 1.409 . S
C917 C915 1.415 . S
C918 H908 0.930 . S
C918 C916 1.419 . S
C918 C919 1.362 . S
C919 H909 0.930 . S
C919 C912 1.409 . S
C919 C918 1.362 . S
H920 C926 0.930 . S
H921 C929 0.930 . S
H922 C930 0.930 . S
H923 C931 0.930 . S
H924 C934 0.930 . S
H925 C935 0.930 . S
C926 H920 0.930 . S
C926 C927 1.355 . S
C926 C928 1.415 . S
C927 C926 1.355 . S
C927 C929 1.419 . S
C928 C926 1.415 . S
C928 C933 1.425 . S
C928 C935 1.409 . S
C929 H921 0.930 . S
C929 C927 1.419 . S
C929 C930 1.362 . S
C930 H922 0.930 . S
C930 C929 1.362 . S
C930 C933 1.409 . S
C931 H923 0.930 . S
C931 C932 1.355 . S
C931 C933 1.415 . S
C932 C931 1.355 . S
C932 C934 1.419 . S
C933 C928 1.425 . S
C933 C930 1.409 . S
C933 C931 1.415 . S
C934 H924 0.930 . S
C934 C932 1.419 . S
C934 C935 1.362 . S
C935 H925 0.930 . S
C935 C928 1.409 . S
C935 C934 1.362 . S
H936 C942 0.930 . S
H937 C945 0.930 . S
H938 C946 0.930 . S
H939 C947 0.930 . S
H940 C950 0.943 . S
H941 C951 0.930 . S
C942 H936 0.930 . S
C942 C943 1.355 . S
C942 C944 1.415 . S
C943 C942 1.355 . S
C943 C945 1.419 . S
C944 C942 1.415 . S
C944 C949 1.425 . S
C944 C951 1.409 . S
C945 H937 0.930 . S
C945 C943 1.419 . S
C945 C946 1.362 . S
C946 H938 0.930 . S
C946 C945 1.362 . S
C946 C949 1.409 . S
C947 H939 0.930 . S
C947 C948 1.355 . S
C947 C949 1.415 . S
C948 C947 1.355 . S
C948 C950 1.414 1_565 S
C949 C944 1.425 . S
C949 C946 1.409 . S
C949 C947 1.415 . S
C950 H940 0.943 . S
C950 C948 1.414 1_545 S
C950 C951 1.355 1_545 S
C951 H941 0.930 . S
C951 C944 1.409 . S
C951 C950 1.355 1_565 S
H952 C958 0.930 . S
H953 C961 0.930 . S
H954 C962 0.930 . S
H955 C963 0.930 . S
H956 C966 0.930 . S
H957 C967 0.930 . S
C958 H952 0.930 . S
C958 C959 1.355 . S
C958 C960 1.415 . S
C959 C958 1.355 . S
C959 C961 1.419 . S
C960 C958 1.415 . S
C960 C965 1.425 . S
C960 C967 1.409 . S
C961 H953 0.930 . S
C961 C959 1.419 . S
C961 C962 1.362 . S
C962 H954 0.930 . S
C962 C961 1.362 . S
C962 C965 1.409 . S
C963 H955 0.930 . S
C963 C964 1.355 . S
C963 C965 1.415 . S
C964 C963 1.355 . S
C964 C966 1.419 . S
C965 C960 1.425 . S
C965 C962 1.409 . S
C965 C963 1.415 . S
C966 H956 0.930 . S
C966 C964 1.419 . S
C966 C967 1.362 . S
C967 H957 0.930 . S
C967 C960 1.409 . S
C967 C966 1.362 . S
H968 C974 0.930 . S
H969 C977 0.930 . S
H970 C978 0.930 . S
H971 C979 0.930 . S
H972 C982 0.930 . S
H973 C983 0.930 . S
C974 H968 0.930 . S
C974 C975 1.355 . S
C974 C976 1.415 . S
C975 C974 1.355 . S
C975 C977 1.419 . S
C976 C974 1.415 . S
C976 C981 1.425 1_545 S
C976 C983 1.409 1_556 S
C977 H969 0.930 . S
C977 C975 1.419 . S
C977 C978 1.362 1_545 S
C978 H970 0.930 . S
C978 C977 1.362 1_565 S
C978 C981 1.409 . S
C979 H971 0.930 . S
C979 C980 1.355 1_556 S
C979 C981 1.415 . S
C980 C979 1.355 1_554 S
C980 C982 1.419 . S
C981 C976 1.425 1_565 S
C981 C978 1.409 . S
C981 C979 1.415 . S
C982 H972 0.930 . S
C982 C980 1.419 . S
C982 C983 1.362 1_565 S
C983 H973 0.930 . S
C983 C976 1.409 1_554 S
C983 C982 1.362 1_545 S
H984 C990 0.930 . S
H985 C993 0.930 . S
H986 C994 0.930 . S
H987 C995 0.930 . S
H988 C998 0.930 . S
H989 C999 0.930 . S
C990 H984 0.930 . S
C990 C991 1.355 . S
C990 C992 1.415 . S
C991 C990 1.355 . S
C991 C993 1.419 . S
C992 C990 1.415 . S
C992 C997 1.425 . S
C992 C999 1.409 . S
C993 H985 0.930 . S
C993 C991 1.419 . S
C993 C994 1.362 . S
C994 H986 0.930 . S
C994 C993 1.362 . S
C994 C997 1.409 . S
C995 H987 0.930 . S
C995 C996 1.355 . S
C995 C997 1.415 . S
C996 C995 1.355 . S
C996 C998 1.419 . S
C997 C992 1.425 . S
C997 C994 1.409 . S
C997 C995 1.415 . S
C998 H988 0.930 . S
C998 C996 1.419 . S
C998 C999 1.362 . S
C999 H989 0.930 . S
C999 C992 1.409 . S
C999 C998 1.362 . S
H1000 C1006 0.930 . S
H1001 C1009 0.930 1_565 S
H1002 C1010 0.930 . S
H1003 C1011 0.930 . S
H1004 C1014 0.930 . S
H1005 C1015 0.930 . S
C1006 H1000 0.930 . S
C1006 C1007 1.355 . S
C1006 C1008 1.415 . S
C1007 C1006 1.355 . S
C1007 C1009 1.419 . S
C1008 C1006 1.415 . S
C1008 C1013 1.425 . S
C1008 C1015 1.409 . S
C1009 H1001 0.930 1_545 S
C1009 C1007 1.419 . S
C1009 C1010 1.362 . S
C1010 H1002 0.930 . S
C1010 C1009 1.362 . S
C1010 C1013 1.409 . S
C1011 H1003 0.930 . S
C1011 C1012 1.355 . S
C1011 C1013 1.415 . S
C1012 C1011 1.355 . S
C1012 C1014 1.419 . S
C1013 C1008 1.425 . S
C1013 C1010 1.409 . S
C1013 C1011 1.415 . S
C1014 H1004 0.930 . S
C1014 C1012 1.419 . S
C1014 C1015 1.362 . S
C1015 H1005 0.930 . S
C1015 C1008 1.409 . S
C1015 C1014 1.362 . S
H1016 C1022 0.930 . S
H1017 C1025 0.930 . S
H1018 C1026 0.930 . S
H1019 C1027 0.930 . S
H1020 C1030 0.930 . S
H1021 C1031 0.930 . S
C1022 H1016 0.930 . S
C1022 C1023 1.355 . S
C1022 C1024 1.415 . S
C1023 C1022 1.355 . S
C1023 C1025 1.419 . S
C1024 C1022 1.415 . S
C1024 C1029 1.425 . S
C1024 C1031 1.409 . S
C1025 H1017 0.930 . S
C1025 C1023 1.419 . S
C1025 C1026 1.362 . S
C1026 H1018 0.930 . S
C1026 C1025 1.362 . S
C1026 C1029 1.409 . S
C1027 H1019 0.930 . S
C1027 C1028 1.355 . S
C1027 C1029 1.415 . S
C1028 C1027 1.355 . S
C1028 C1030 1.419 . S
C1029 C1024 1.425 . S
C1029 C1026 1.409 . S
C1029 C1027 1.415 . S
C1030 H1020 0.930 . S
C1030 C1028 1.419 . S
C1030 C1031 1.362 . S
C1031 H1021 0.930 . S
C1031 C1024 1.409 . S
C1031 C1030 1.362 . S
H1032 C1038 0.930 . S
H1033 C1041 0.948 . S
H1034 C1042 0.930 . S
H1035 C1043 0.930 . S
H1036 C1046 0.930 . S
H1037 C1047 0.930 . S
C1038 H1032 0.930 . S
C1038 C1039 1.355 1_545 S
C1038 C1040 1.415 . S
C1039 C1038 1.355 1_565 S
C1039 C1041 1.427 . S
C1040 C1038 1.415 . S
C1040 C1045 1.425 . S
C1040 C1047 1.409 . S
C1041 H1033 0.948 . S
C1041 C1039 1.427 . S
C1041 C1042 1.337 1_565 S
C1042 H1034 0.930 . S
C1042 C1041 1.337 1_545 S
C1042 C1045 1.409 . S
C1043 H1035 0.930 . S
C1043 C1044 1.355 . S
C1043 C1045 1.415 . S
C1044 C1043 1.355 . S
C1044 C1046 1.419 . S
C1045 C1040 1.425 . S
C1045 C1042 1.409 . S
C1045 C1043 1.415 . S
C1046 H1036 0.930 . S
C1046 C1044 1.419 . S
C1046 C1047 1.362 . S
C1047 H1037 0.930 . S
C1047 C1040 1.409 . S
C1047 C1046 1.362 . S
H1048 C1054 0.930 . S
H1049 C1057 0.930 . S
H1050 C1058 0.930 . S
H1051 C1059 0.930 . S
H1052 C1062 0.930 . S
H1053 C1063 0.930 . S
C1054 H1048 0.930 . S
C1054 C1055 1.355 . S
C1054 C1056 1.415 . S
C1055 C1054 1.355 . S
C1055 C1057 1.419 . S
C1056 C1054 1.415 . S
C1056 C1061 1.425 . S
C1056 C1063 1.409 . S
C1057 H1049 0.930 . S
C1057 C1055 1.419 . S
C1057 C1058 1.362 . S
C1058 H1050 0.930 . S
C1058 C1057 1.362 . S
C1058 C1061 1.409 . S
C1059 H1051 0.930 . S
C1059 C1060 1.355 . S
C1059 C1061 1.415 . S
C1060 C1059 1.355 . S
C1060 C1062 1.419 . S
C1061 C1056 1.425 . S
C1061 C1058 1.409 . S
C1061 C1059 1.415 . S
C1062 H1052 0.930 . S
C1062 C1060 1.419 . S
C1062 C1063 1.362 . S
C1063 H1053 0.930 . S
C1063 C1056 1.409 . S
C1063 C1062 1.362 . S
H1064 C1070 0.930 . S
H1065 C1073 0.930 . S
H1066 C1074 0.930 . S
H1067 C1075 0.930 . S
H1068 C1078 0.930 . S
H1069 C1079 0.930 . S
C1070 H1064 0.930 . S
C1070 C1071 1.355 . S
C1070 C1072 1.415 . S
C1071 C1070 1.355 . S
C1071 C1073 1.419 . S
C1072 C1070 1.415 . S
C1072 C1077 1.425 . S
C1072 C1079 1.409 . S
C1073 H1065 0.930 . S
C1073 C1071 1.419 . S
C1073 C1074 1.362 . S
C1074 H1066 0.930 . S
C1074 C1073 1.362 . S
C1074 C1077 1.409 . S
C1075 H1067 0.930 . S
C1075 C1076 1.355 . S
C1075 C1077 1.415 . S
C1076 C1075 1.355 . S
C1076 C1078 1.419 . S
C1077 C1072 1.425 . S
C1077 C1074 1.409 . S
C1077 C1075 1.415 . S
C1078 H1068 0.930 . S
C1078 C1076 1.419 . S
C1078 C1079 1.362 . S
C1079 H1069 0.930 . S
C1079 C1072 1.409 . S
C1079 C1078 1.362 . S
H1080 C1086 0.930 . S
H1081 C1089 0.930 . S
H1082 C1090 0.930 . S
H1083 C1091 0.930 . S
H1084 C1094 0.930 1_565 S
H1085 C1095 0.930 . S
C1086 H1080 0.930 . S
C1086 C1087 1.355 . S
C1086 C1088 1.415 . S
C1087 C1086 1.355 . S
C1087 C1089 1.419 . S
C1088 C1086 1.415 . S
C1088 C1093 1.425 . S
C1088 C1095 1.409 . S
C1089 H1081 0.930 . S
C1089 C1087 1.419 . S
C1089 C1090 1.362 . S
C1090 H1082 0.930 . S
C1090 C1089 1.362 . S
C1090 C1093 1.409 . S
C1091 H1083 0.930 . S
C1091 C1092 1.355 . S
C1091 C1093 1.415 . S
C1092 C1091 1.355 . S
C1092 C1094 1.419 . S
C1093 C1088 1.425 . S
C1093 C1090 1.409 . S
C1093 C1091 1.415 . S
C1094 H1084 0.930 1_545 S
C1094 C1092 1.419 . S
C1094 C1095 1.362 . S
C1095 H1085 0.930 . S
C1095 C1088 1.409 . S
C1095 C1094 1.362 . S
H1096 C1102 0.930 . S
H1097 C1105 0.930 . S
H1098 C1106 0.930 . S
H1099 C1107 0.930 . S
H1100 C1110 0.930 . S
H1101 C1111 0.930 . S
C1102 H1096 0.930 . S
C1102 C1103 1.355 . S
C1102 C1104 1.415 . S
C1103 C1102 1.355 . S
C1103 C1105 1.419 . S
C1104 C1102 1.415 . S
C1104 C1109 1.425 . S
C1104 C1111 1.409 . S
C1105 H1097 0.930 . S
C1105 C1103 1.419 . S
C1105 C1106 1.362 . S
C1106 H1098 0.930 . S
C1106 C1105 1.362 . S
C1106 C1109 1.409 . S
C1107 H1099 0.930 . S
C1107 C1108 1.355 . S
C1107 C1109 1.415 . S
C1108 C1107 1.355 . S
C1108 C1110 1.419 . S
C1109 C1104 1.425 . S
C1109 C1106 1.409 . S
C1109 C1107 1.415 . S
C1110 H1100 0.930 . S
C1110 C1108 1.419 . S
C1110 C1111 1.362 . S
C1111 H1101 0.930 . S
C1111 C1104 1.409 . S
C1111 C1110 1.362 . S
H1112 C1118 0.930 . S
H1113 C1121 0.930 . S
H1114 C1122 0.930 . S
H1115 C1123 0.930 . S
H1116 C1126 0.930 . S
H1117 C1127 0.930 . S
C1118 H1112 0.930 . S
C1118 C1119 1.355 . S
C1118 C1120 1.415 . S
C1119 C1118 1.355 . S
C1119 C1121 1.419 . S
C1120 C1118 1.415 . S
C1120 C1125 1.425 . S
C1120 C1127 1.409 . S
C1121 H1113 0.930 . S
C1121 C1119 1.419 . S
C1121 C1122 1.362 . S
C1122 H1114 0.930 . S
C1122 C1121 1.362 . S
C1122 C1125 1.409 . S
C1123 H1115 0.930 . S
C1123 C1124 1.355 . S
C1123 C1125 1.415 . S
C1124 C1123 1.355 . S
C1124 C1126 1.419 . S
C1125 C1120 1.425 . S
C1125 C1122 1.409 . S
C1125 C1123 1.415 . S
C1126 H1116 0.930 . S
C1126 C1124 1.419 . S
C1126 C1127 1.362 . S
C1127 H1117 0.930 . S
C1127 C1120 1.409 . S
C1127 C1126 1.362 . S
H1128 C1134 0.930 . S
H1129 C1137 0.930 . S
H1130 C1138 0.930 . S
H1131 C1139 0.930 . S
H1132 C1142 0.930 . S
H1133 C1143 0.930 . S
C1134 H1128 0.930 . S
C1134 C1135 1.355 . S
C1134 C1136 1.415 . S
C1135 C1134 1.355 . S
C1135 C1137 1.419 . S
C1136 C1134 1.415 . S
C1136 C1141 1.425 . S
C1136 C1143 1.409 . S
C1137 H1129 0.930 . S
C1137 C1135 1.419 . S
C1137 C1138 1.362 . S
C1138 H1130 0.930 . S
C1138 C1137 1.362 . S
C1138 C1141 1.409 . S
C1139 H1131 0.930 . S
C1139 C1140 1.355 . S
C1139 C1141 1.415 . S
C1140 C1139 1.355 . S
C1140 C1142 1.419 . S
C1141 C1136 1.425 . S
C1141 C1138 1.409 . S
C1141 C1139 1.415 . S
C1142 H1132 0.930 . S
C1142 C1140 1.419 . S
C1142 C1143 1.362 . S
C1143 H1133 0.930 . S
C1143 C1136 1.409 . S
C1143 C1142 1.362 . S
H1144 C1150 0.930 . S
H1145 C1153 0.930 . S
H1146 C1154 0.930 . S
H1147 C1155 0.930 . S
H1148 C1158 0.930 . S
H1149 C1159 0.917 1_455 S
C1150 H1144 0.930 . S
C1150 C1151 1.355 . S
C1150 C1152 1.415 . S
C1151 C1150 1.355 . S
C1151 C1153 1.419 . S
C1152 C1150 1.415 . S
C1152 C1157 1.425 1_455 S
C1152 C1159 1.405 1_455 S
C1153 H1145 0.930 . S
C1153 C1151 1.419 . S
C1153 C1154 1.362 1_455 S
C1154 H1146 0.930 . S
C1154 C1153 1.362 1_655 S
C1154 C1157 1.409 . S
C1155 H1147 0.930 . S
C1155 C1156 1.355 . S
C1155 C1157 1.415 . S
C1156 C1155 1.355 . S
C1156 C1158 1.419 . S
C1157 C1152 1.425 1_655 S
C1157 C1154 1.409 . S
C1157 C1155 1.415 . S
C1158 H1148 0.930 . S
C1158 C1156 1.419 . S
C1158 C1159 1.380 . S
C1159 H1149 0.917 1_655 S
C1159 C1152 1.405 1_655 S
C1159 C1158 1.380 . S
H1160 C1166 0.930 . S
H1161 C1169 0.930 . S
H1162 C1170 0.930 . S
H1163 C1171 0.930 . S
H1164 C1174 0.930 . S
H1165 C1175 0.930 . S
C1166 H1160 0.930 . S
C1166 C1167 1.355 . S
C1166 C1168 1.415 . S
C1167 C1166 1.355 . S
C1167 C1169 1.419 . S
C1168 C1166 1.415 . S
C1168 C1173 1.425 . S
C1168 C1175 1.409 . S
C1169 H1161 0.930 . S
C1169 C1167 1.419 . S
C1169 C1170 1.362 . S
C1170 H1162 0.930 . S
C1170 C1169 1.362 . S
C1170 C1173 1.409 . S
C1171 H1163 0.930 . S
C1171 C1172 1.355 . S
C1171 C1173 1.415 . S
C1172 C1171 1.355 . S
C1172 C1174 1.419 . S
C1173 C1168 1.425 . S
C1173 C1170 1.409 . S
C1173 C1171 1.415 . S
C1174 H1164 0.930 . S
C1174 C1172 1.419 . S
C1174 C1175 1.362 . S
C1175 H1165 0.930 . S
C1175 C1168 1.409 . S
C1175 C1174 1.362 . S
H1176 C1182 0.930 . S
H1177 C1185 0.930 . S
H1178 C1186 0.930 . S
H1179 C1187 0.930 . S
H1180 C1190 0.930 . S
H1181 C1191 0.930 . S
C1182 H1176 0.930 . S
C1182 C1183 1.355 . S
C1182 C1184 1.436 . S
C1183 C1182 1.355 . S
C1183 C1185 1.419 . S
C1184 C1182 1.436 . S
C1184 C1189 1.421 1_655 S
C1184 C1191 1.392 1_655 S
C1185 H1177 0.930 . S
C1185 C1183 1.419 . S
C1185 C1186 1.362 . S
C1186 H1178 0.930 . S
C1186 C1185 1.362 . S
C1186 C1189 1.409 1_655 S
C1187 H1179 0.930 . S
C1187 C1188 1.355 . S
C1187 C1189 1.415 . S
C1188 C1187 1.355 . S
C1188 C1190 1.419 . S
C1189 C1184 1.421 1_455 S
C1189 C1186 1.409 1_455 S
C1189 C1187 1.415 . S
C1190 H1180 0.930 . S
C1190 C1188 1.419 . S
C1190 C1191 1.362 . S
C1191 H1181 0.930 . S
C1191 C1184 1.392 1_455 S
C1191 C1190 1.362 . S
H1192 C1198 0.930 . S
H1193 C1201 0.930 . S
H1194 C1202 0.930 . S
H1195 C1203 0.930 . S
H1196 C1206 0.930 . S
H1197 C1207 0.930 . S
C1198 H1192 0.930 . S
C1198 C1199 1.355 . S
C1198 C1200 1.415 . S
C1199 C1198 1.355 . S
C1199 C1201 1.419 . S
C1200 C1198 1.415 . S
C1200 C1205 1.425 . S
C1200 C1207 1.409 . S
C1201 H1193 0.930 . S
C1201 C1199 1.419 . S
C1201 C1202 1.362 . S
C1202 H1194 0.930 . S
C1202 C1201 1.362 . S
C1202 C1205 1.409 . S
C1203 H1195 0.930 . S
C1203 C1204 1.355 . S
C1203 C1205 1.415 . S
C1204 C1203 1.355 . S
C1204 C1206 1.419 . S
C1205 C1200 1.425 . S
C1205 C1202 1.409 . S
C1205 C1203 1.415 . S
C1206 H1196 0.930 . S
C1206 C1204 1.419 . S
C1206 C1207 1.362 . S
C1207 H1197 0.930 . S
C1207 C1200 1.409 . S
C1207 C1206 1.362 . S
H1208 C1214 0.930 . S
H1209 C1217 0.930 . S
H1210 C1218 0.925 1_556 S
H1211 C1219 0.930 . S
H1212 C1222 0.930 . S
H1213 C1223 0.930 . S
C1214 H1208 0.930 . S
C1214 C1215 1.355 . S
C1214 C1216 1.415 1_554 S
C1215 C1214 1.355 . S
C1215 C1217 1.419 . S
C1216 C1214 1.415 1_556 S
C1216 C1221 1.425 . S
C1216 C1223 1.409 . S
C1217 H1209 0.930 . S
C1217 C1215 1.419 . S
C1217 C1218 1.390 . S
C1218 H1210 0.925 1_554 S
C1218 C1217 1.390 . S
C1218 C1221 1.388 1_554 S
C1219 H1211 0.930 . S
C1219 C1220 1.355 . S
C1219 C1221 1.415 . S
C1220 C1219 1.355 . S
C1220 C1222 1.419 . S
C1221 C1216 1.425 . S
C1221 C1218 1.388 1_556 S
C1221 C1219 1.415 . S
C1222 H1212 0.930 . S
C1222 C1220 1.419 . S
C1222 C1223 1.362 . S
C1223 H1213 0.930 . S
C1223 C1216 1.409 . S
C1223 C1222 1.362 . S
H1224 C1230 0.930 . S
H1225 C1233 0.930 . S
H1226 C1234 0.930 . S
H1227 C1235 0.930 . S
H1228 C1238 0.930 . S
H1229 C1239 0.930 . S
C1230 H1224 0.930 . S
C1230 C1231 1.355 . S
C1230 C1232 1.415 . S
C1231 C1230 1.355 . S
C1231 C1233 1.419 . S
C1232 C1230 1.415 . S
C1232 C1237 1.425 . S
C1232 C1239 1.409 . S
C1233 H1225 0.930 . S
C1233 C1231 1.419 . S
C1233 C1234 1.362 . S
C1234 H1226 0.930 . S
C1234 C1233 1.362 . S
C1234 C1237 1.409 . S
C1235 H1227 0.930 . S
C1235 C1236 1.355 . S
C1235 C1237 1.415 . S
C1236 C1235 1.355 . S
C1236 C1238 1.419 . S
C1237 C1232 1.425 . S
C1237 C1234 1.409 . S
C1237 C1235 1.415 . S
C1238 H1228 0.930 . S
C1238 C1236 1.419 . S
C1238 C1239 1.362 . S
C1239 H1229 0.930 . S
C1239 C1232 1.409 . S
C1239 C1238 1.362 . S
H1240 C1246 0.930 . S
H1241 C1249 0.930 . S
H1242 C1250 0.930 . S
H1243 C1251 0.930 . S
H1244 C1254 0.930 . S
H1245 C1255 0.930 . S
C1246 H1240 0.930 . S
C1246 C1247 1.355 . S
C1246 C1248 1.415 . S
C1247 C1246 1.355 . S
C1247 C1249 1.419 . S
C1248 C1246 1.415 . S
C1248 C1253 1.425 . S
C1248 C1255 1.409 1_554 S
C1249 H1241 0.930 . S
C1249 C1247 1.419 . S
C1249 C1250 1.362 . S
C1250 H1242 0.930 . S
C1250 C1249 1.362 . S
C1250 C1253 1.409 . S
C1251 H1243 0.930 . S
C1251 C1252 1.355 . S
C1251 C1253 1.415 1_556 S
C1252 C1251 1.355 . S
C1252 C1254 1.419 . S
C1253 C1248 1.425 . S
C1253 C1250 1.409 . S
C1253 C1251 1.415 1_554 S
C1254 H1244 0.930 . S
C1254 C1252 1.419 . S
C1254 C1255 1.362 . S
C1255 H1245 0.930 . S
C1255 C1248 1.409 1_556 S
C1255 C1254 1.362 . S
H1256 C1262 0.930 . S
H1257 C1265 0.930 . S
H1258 C1266 0.930 . S
H1259 C1267 0.930 . S
H1260 C1270 0.930 . S
H1261 C1271 0.930 . S
C1262 H1256 0.930 . S
C1262 C1263 1.355 . S
C1262 C1264 1.415 . S
C1263 C1262 1.355 . S
C1263 C1265 1.419 . S
C1264 C1262 1.415 . S
C1264 C1269 1.425 . S
C1264 C1271 1.409 . S
C1265 H1257 0.930 . S
C1265 C1263 1.419 . S
C1265 C1266 1.362 . S
C1266 H1258 0.930 . S
C1266 C1265 1.362 . S
C1266 C1269 1.409 . S
C1267 H1259 0.930 . S
C1267 C1268 1.355 . S
C1267 C1269 1.415 . S
C1268 C1267 1.355 . S
C1268 C1270 1.419 . S
C1269 C1264 1.425 . S
C1269 C1266 1.409 . S
C1269 C1267 1.415 . S
C1270 H1260 0.930 . S
C1270 C1268 1.419 . S
C1270 C1271 1.362 . S
C1271 H1261 0.930 . S
C1271 C1264 1.409 . S
C1271 C1270 1.362 . S
H1272 C1278 0.930 . S
H1273 C1281 0.930 . S
H1274 C1282 0.930 . S
H1275 C1283 0.930 . S
H1276 C1286 0.930 . S
H1277 C1287 0.930 . S
C1278 H1272 0.930 . S
C1278 C1279 1.355 . S
C1278 C1280 1.415 1_556 S
C1279 C1278 1.355 . S
C1279 C1281 1.419 . S
C1280 C1278 1.415 1_554 S
C1280 C1285 1.425 . S
C1280 C1287 1.409 . S
C1281 H1273 0.930 . S
C1281 C1279 1.419 . S
C1281 C1282 1.362 1_556 S
C1282 H1274 0.930 . S
C1282 C1281 1.362 1_554 S
C1282 C1285 1.409 . S
C1283 H1275 0.930 . S
C1283 C1284 1.355 . S
C1283 C1285 1.415 . S
C1284 C1283 1.355 . S
C1284 C1286 1.419 . S
C1285 C1280 1.425 . S
C1285 C1282 1.409 . S
C1285 C1283 1.415 . S
C1286 H1276 0.930 . S
C1286 C1284 1.419 . S
C1286 C1287 1.362 . S
C1287 H1277 0.930 . S
C1287 C1280 1.409 . S
C1287 C1286 1.362 . S
H1288 C1294 0.930 . S
H1289 C1297 0.930 . S
H1290 C1298 0.930 . S
H1291 C1299 0.930 . S
H1292 C1302 0.930 . S
H1293 C1303 0.930 . S
C1294 H1288 0.930 . S
C1294 C1295 1.355 . S
C1294 C1296 1.415 . S
C1295 C1294 1.355 . S
C1295 C1297 1.419 . S
C1296 C1294 1.415 . S
C1296 C1301 1.425 . S
C1296 C1303 1.409 . S
C1297 H1289 0.930 . S
C1297 C1295 1.419 . S
C1297 C1298 1.362 . S
C1298 H1290 0.930 . S
C1298 C1297 1.362 . S
C1298 C1301 1.409 . S
C1299 H1291 0.930 . S
C1299 C1300 1.355 . S
C1299 C1301 1.415 . S
C1300 C1299 1.355 . S
C1300 C1302 1.419 . S
C1301 C1296 1.425 . S
C1301 C1298 1.409 . S
C1301 C1299 1.415 . S
C1302 H1292 0.930 . S
C1302 C1300 1.419 . S
C1302 C1303 1.362 . S
C1303 H1293 0.930 . S
C1303 C1296 1.409 . S
C1303 C1302 1.362 . S
H1304 C1310 0.930 1_556 S
H1305 C1313 0.930 . S
H1306 C1314 0.930 . S
H1307 C1315 0.930 . S
H1308 C1318 0.930 . S
H1309 C1319 0.930 . S
C1310 H1304 0.930 1_554 S
C1310 C1311 1.355 . S
C1310 C1312 1.415 . S
C1311 C1310 1.355 . S
C1311 C1313 1.419 . S
C1312 C1310 1.415 . S
C1312 C1317 1.425 . S
C1312 C1319 1.409 . S
C1313 H1305 0.930 . S
C1313 C1311 1.419 . S
C1313 C1314 1.362 . S
C1314 H1306 0.930 . S
C1314 C1313 1.362 . S
C1314 C1317 1.409 . S
C1315 H1307 0.930 . S
C1315 C1316 1.355 . S
C1315 C1317 1.415 . S
C1316 C1315 1.355 . S
C1316 C1318 1.419 . S
C1317 C1312 1.425 . S
C1317 C1314 1.409 . S
C1317 C1315 1.415 . S
C1318 H1308 0.930 . S
C1318 C1316 1.419 . S
C1318 C1319 1.362 . S
C1319 H1309 0.930 . S
C1319 C1312 1.409 . S
C1319 C1318 1.362 . S
H1320 C1326 0.930 . S
H1321 C1329 0.930 . S
H1322 C1330 0.930 . S
H1323 C1331 0.930 . S
H1324 C1334 0.930 . S
H1325 C1335 0.930 . S
C1326 H1320 0.930 . S
C1326 C1327 1.355 . S
C1326 C1328 1.415 . S
C1327 C1326 1.355 . S
C1327 C1329 1.419 . S
C1328 C1326 1.415 . S
C1328 C1333 1.425 . S
C1328 C1335 1.409 . S
C1329 H1321 0.930 . S
C1329 C1327 1.419 . S
C1329 C1330 1.362 . S
C1330 H1322 0.930 . S
C1330 C1329 1.362 . S
C1330 C1333 1.409 . S
C1331 H1323 0.930 . S
C1331 C1332 1.355 . S
C1331 C1333 1.415 . S
C1332 C1331 1.355 . S
C1332 C1334 1.419 . S
C1333 C1328 1.425 . S
C1333 C1330 1.409 . S
C1333 C1331 1.415 . S
C1334 H1324 0.930 . S
C1334 C1332 1.419 . S
C1334 C1335 1.362 . S
C1335 H1325 0.930 . S
C1335 C1328 1.409 . S
C1335 C1334 1.362 . S
H1336 C1342 0.930 . S
H1337 C1345 0.930 . S
H1338 C1346 0.930 . S
H1339 C1347 0.930 . S
H1340 C1350 0.930 . S
H1341 C1351 0.930 . S
C1342 H1336 0.930 . S
C1342 C1343 1.355 . S
C1342 C1344 1.415 . S
C1343 C1342 1.355 . S
C1343 C1345 1.419 . S
C1344 C1342 1.415 . S
C1344 C1349 1.425 . S
C1344 C1351 1.409 . S
C1345 H1337 0.930 . S
C1345 C1343 1.419 . S
C1345 C1346 1.362 . S
C1346 H1338 0.930 . S
C1346 C1345 1.362 . S
C1346 C1349 1.409 . S
C1347 H1339 0.930 . S
C1347 C1348 1.355 . S
C1347 C1349 1.415 . S
C1348 C1347 1.355 . S
C1348 C1350 1.419 . S
C1349 C1344 1.425 . S
C1349 C1346 1.409 . S
C1349 C1347 1.415 . S
C1350 H1340 0.930 . S
C1350 C1348 1.419 . S
C1350 C1351 1.362 . S
C1351 H1341 0.930 . S
C1351 C1344 1.409 . S
C1351 C1350 1.362 . S
H1352 C1358 0.930 . S
H1353 C1361 0.930 . S
H1354 C1362 0.930 . S
H1355 C1363 0.930 . S
H1356 C1366 0.930 . S
H1357 C1367 0.930 . S
C1358 H1352 0.930 . S
C1358 C1359 1.355 . S
C1358 C1360 1.415 . S
C1359 C1358 1.355 . S
C1359 C1361 1.419 . S
C1360 C1358 1.415 . S
C1360 C1365 1.425 . S
C1360 C1367 1.409 . S
C1361 H1353 0.930 . S
C1361 C1359 1.419 . S
C1361 C1362 1.362 . S
C1362 H1354 0.930 . S
C1362 C1361 1.362 . S
C1362 C1365 1.409 . S
C1363 H1355 0.930 . S
C1363 C1364 1.355 . S
C1363 C1365 1.415 . S
C1364 C1363 1.355 . S
C1364 C1366 1.419 . S
C1365 C1360 1.425 . S
C1365 C1362 1.409 . S
C1365 C1363 1.415 . S
C1366 H1356 0.930 . S
C1366 C1364 1.419 . S
C1366 C1367 1.362 . S
C1367 H1357 0.930 . S
C1367 C1360 1.409 . S
C1367 C1366 1.362 . S
H1368 C1374 0.930 . S
H1369 C1377 0.930 . S
H1370 C1378 0.930 . S
H1371 C1379 0.930 . S
H1372 C1382 0.930 . S
H1373 C1383 0.930 . S
C1374 H1368 0.930 . S
C1374 C1375 1.355 . S
C1374 C1376 1.415 . S
C1375 C1374 1.355 . S
C1375 C1377 1.419 . S
C1376 C1374 1.415 . S
C1376 C1381 1.425 . S
C1376 C1383 1.409 . S
C1377 H1369 0.930 . S
C1377 C1375 1.419 . S
C1377 C1378 1.362 . S
C1378 H1370 0.930 . S
C1378 C1377 1.362 . S
C1378 C1381 1.409 . S
C1379 H1371 0.930 . S
C1379 C1380 1.355 . S
C1379 C1381 1.415 . S
C1380 C1379 1.355 . S
C1380 C1382 1.419 . S
C1381 C1376 1.425 . S
C1381 C1378 1.409 . S
C1381 C1379 1.415 . S
C1382 H1372 0.930 . S
C1382 C1380 1.419 . S
C1382 C1383 1.362 . S
C1383 H1373 0.930 . S
C1383 C1376 1.409 . S
C1383 C1382 1.362 . S
H1384 C1390 0.930 . S
H1385 C1393 0.930 . S
H1386 C1394 0.930 . S
H1387 C1395 0.930 . S
H1388 C1398 0.930 1_554 S
H1389 C1399 0.930 . S
C1390 H1384 0.930 . S
C1390 C1391 1.355 . S
C1390 C1392 1.415 . S
C1391 C1390 1.355 . S
C1391 C1393 1.419 . S
C1392 C1390 1.415 . S
C1392 C1397 1.425 . S
C1392 C1399 1.409 . S
C1393 H1385 0.930 . S
C1393 C1391 1.419 . S
C1393 C1394 1.362 . S
C1394 H1386 0.930 . S
C1394 C1393 1.362 . S
C1394 C1397 1.409 . S
C1395 H1387 0.930 . S
C1395 C1396 1.355 . S
C1395 C1397 1.415 . S
C1396 C1395 1.355 . S
C1396 C1398 1.419 . S
C1397 C1392 1.425 . S
C1397 C1394 1.409 . S
C1397 C1395 1.415 . S
C1398 H1388 0.930 1_556 S
C1398 C1396 1.419 . S
C1398 C1399 1.362 . S
C1399 H1389 0.930 . S
C1399 C1392 1.409 . S
C1399 C1398 1.362 . S
H1400 C1406 0.930 . S
H1401 C1409 0.930 . S
H1402 C1410 0.930 . S
H1403 C1411 0.930 . S
H1404 C1414 0.930 . S
H1405 C1415 0.930 . S
C1406 H1400 0.930 . S
C1406 C1407 1.355 . S
C1406 C1408 1.415 . S
C1407 C1406 1.355 . S
C1407 C1409 1.419 . S
C1408 C1406 1.415 . S
C1408 C1413 1.425 . S
C1408 C1415 1.409 . S
C1409 H1401 0.930 . S
C1409 C1407 1.419 . S
C1409 C1410 1.362 . S
C1410 H1402 0.930 . S
C1410 C1409 1.362 . S
C1410 C1413 1.409 . S
C1411 H1403 0.930 . S
C1411 C1412 1.355 . S
C1411 C1413 1.415 . S
C1412 C1411 1.355 . S
C1412 C1414 1.419 . S
C1413 C1408 1.425 . S
C1413 C1410 1.409 . S
C1413 C1411 1.415 . S
C1414 H1404 0.930 . S
C1414 C1412 1.419 . S
C1414 C1415 1.362 . S
C1415 H1405 0.930 . S
C1415 C1408 1.409 . S
C1415 C1414 1.362 . S
H1416 C1422 0.930 . S
H1417 C1425 0.930 . S
H1418 C1426 0.930 . S
H1419 C1427 0.930 . S
H1420 C1430 0.930 . S
H1421 C1431 0.930 . S
C1422 H1416 0.930 . S
C1422 C1423 1.355 . S
C1422 C1424 1.415 . S
C1423 C1422 1.355 . S
C1423 C1425 1.419 . S
C1424 C1422 1.415 . S
C1424 C1429 1.425 . S
C1424 C1431 1.409 . S
C1425 H1417 0.930 . S
C1425 C1423 1.419 . S
C1425 C1426 1.362 . S
C1426 H1418 0.930 . S
C1426 C1425 1.362 . S
C1426 C1429 1.409 . S
C1427 H1419 0.930 . S
C1427 C1428 1.355 . S
C1427 C1429 1.415 . S
C1428 C1427 1.355 . S
C1428 C1430 1.419 . S
C1429 C1424 1.425 . S
C1429 C1426 1.409 . S
C1429 C1427 1.415 . S
C1430 H1420 0.930 . S
C1430 C1428 1.419 . S
C1430 C1431 1.362 . S
C1431 H1421 0.930 . S
C1431 C1424 1.409 . S
C1431 C1430 1.362 . S
H1432 C1438 0.930 . S
H1433 C1441 0.930 . S
H1434 C1442 0.930 . S
H1435 C1443 0.930 . S
H1436 C1446 0.930 . S
H1437 C1447 0.930 . S
C1438 H1432 0.930 . S
C1438 C1439 1.355 . S
C1438 C1440 1.415 . S
C1439 C1438 1.355 . S
C1439 C1441 1.419 . S
C1440 C1438 1.415 . S
C1440 C1445 1.425 . S
C1440 C1447 1.409 1_545 S
C1441 H1433 0.930 . S
C1441 C1439 1.419 . S
C1441 C1442 1.362 . S
C1442 H1434 0.930 . S
C1442 C1441 1.362 . S
C1442 C1445 1.409 . S
C1443 H1435 0.930 . S
C1443 C1444 1.355 1_545 S
C1443 C1445 1.415 . S
C1444 C1443 1.355 1_565 S
C1444 C1446 1.419 . S
C1445 C1440 1.425 . S
C1445 C1442 1.409 . S
C1445 C1443 1.415 . S
C1446 H1436 0.930 . S
C1446 C1444 1.419 . S
C1446 C1447 1.362 . S
C1447 H1437 0.930 . S
C1447 C1440 1.409 1_565 S
C1447 C1446 1.362 . S
C692 C520 1.573 1_556 S
C687 C177 1.533 . S
C708 C535 1.693 . S
C703 C209 1.629 . S
C719 C253 1.575 . S
C724 C548 1.619 . S
C740 C562 1.533 . S
C735 C157 1.630 . S
C756 C574 1.603 . S
C751 C343 1.678 . S
C772 C588 1.398 . S
C767 C401 1.384 . S
C783 C369 1.681 . S
C788 C602 1.726 . S
C804 C617 1.496 . S
C799 C317 1.333 . S
C815 C375 1.569 . S
C820 C633 1.640 . S
C836 C646 1.552 . S
C831 C305 1.494 . S
C847 C349 1.568 . S
C852 C631 1.516 . S
C868 C644 1.572 . S
C863 C413 1.569 . S
C879 C241 1.726 . S
C884 C660 1.788 . S
C895 C151 1.587 . S
C900 C659 1.553 . S
C911 C189 1.697 . S
C916 C658 1.677 . S
C927 C215 1.588 . S
C932 C661 1.633 . S
C943 C113 1.669 . S
C948 C563 1.645 1_565 S
C959 C471 1.450 . S
C964 C561 1.476 . S
C980 C521 1.514 . S
C975 C509 1.452 . S
C996 C532 1.693 . S
C991 C279 1.632 . S
C1007 C145 1.610 1_545 S
C1012 C577 1.598 . S
C1028 C618 1.855 . S
C1023 C381 1.803 . S
C1044 C575 1.527 . S
C1039 C311 1.482 . S
C1060 C603 1.561 . S
C1055 C407 1.586 . S
C1076 C604 1.566 . S
C1071 C465 1.554 . S
C1087 C497 1.672 . S
C1092 C619 1.715 . S
C1103 C285 1.606 . S
C1108 C576 1.621 . S
C1124 C590 1.593 . S
C1119 C445 1.642 . S
C1135 C119 1.663 . S
C1140 C546 1.643 . S
C1156 C560 1.381 . S
C1151 C17 1.382 . S
C1172 C518 1.688 . S
C1167 C49 1.722 . S
C1188 C533 1.459 . S
C1183 C93 1.428 . S
C1199 C55 1.583 . S
C1204 C647 1.652 . S
C1215 C81 1.452 . S
C1220 C632 1.550 . S
C1231 C125 1.594 . S
C1236 C645 1.549 . S
C1247 C29 1.574 . S
C1252 C630 1.576 . S
C1268 C674 1.789 . S
C1263 C273 1.741 . S
C1284 C673 1.523 . S
C1279 C439 1.578 . S
C1300 C672 1.679 . S
C1295 C477 1.696 . S
C1311 C503 1.512 1_554 S
C1316 C675 1.570 . S
C1327 C337 1.654 . S
C1332 C591 1.673 . S
C1348 C589 1.442 . S
C1343 C183 1.434 . S
C1364 C605 1.513 . S
C1359 C221 1.429 . S
C1380 C616 1.716 . S
C1375 C247 1.685 . S
C1391 C433 1.618 . S
C1396 C549 1.574 . S
C1412 C534 1.860 . S
C1407 C61 1.792 . S
C1423 C87 1.488 . S
C1428 C547 1.556 . S
C1444 C519 1.551 . S
C1439 C23 1.584 . S
