# Generated by pormake.
# Topology zzz, (3,6)-cn, num edge types: 1
# Building blocks:
#     Node 0, Type 0, BuildingBlock: QEWDON_clean_linker_0, # of connection points: 3
#     Node 1, Type 0, BuildingBlock: QEWDON_clean_linker_0, # of connection points: 3
#     Node 2, Type 0, BuildingBlock: QEWDON_clean_linker_0, # of connection points: 3
#     Node 3, Type 0, BuildingBlock: QEWDON_clean_linker_0, # of connection points: 3
#     Node 4, Type 0, BuildingBlock: QEWDON_clean_linker_0, # of connection points: 3
#     Node 5, Type 0, BuildingBlock: QEWDON_clean_linker_0, # of connection points: 3
#     Node 6, Type 0, BuildingBlock: QEWDON_clean_linker_0, # of connection points: 3
#     Node 7, Type 0, BuildingBlock: QEWDON_clean_linker_0, # of connection points: 3
#     Node 8, Type 1, BuildingBlock: PAMTUU_clean_sbu_0, # of connection points: 6
#     Node 9, Type 1, BuildingBlock: PAMTUU_clean_sbu_0, # of connection points: 6
#     Node 10, Type 1, BuildingBlock: PAMTUU_clean_sbu_0, # of connection points: 6
#     Node 11, Type 1, BuildingBlock: PAMTUU_clean_sbu_0, # of connection points: 6
#     Edge 12, Type (0, 1), BuildingBlock: AJUNOK_clean_linker_0, # of connection points: 2
#     Edge 13, Type (0, 1), BuildingBlock: AJUNOK_clean_linker_0, # of connection points: 2
#     Edge 14, Type (0, 1), BuildingBlock: AJUNOK_clean_linker_0, # of connection points: 2
#     Edge 15, Type (0, 1), BuildingBlock: AJUNOK_clean_linker_0, # of connection points: 2
#     Edge 16, Type (0, 1), BuildingBlock: AJUNOK_clean_linker_0, # of connection points: 2
#     Edge 17, Type (0, 1), BuildingBlock: AJUNOK_clean_linker_0, # of connection points: 2
#     Edge 18, Type (0, 1), BuildingBlock: AJUNOK_clean_linker_0, # of connection points: 2
#     Edge 19, Type (0, 1), BuildingBlock: AJUNOK_clean_linker_0, # of connection points: 2
#     Edge 20, Type (0, 1), BuildingBlock: AJUNOK_clean_linker_0, # of connection points: 2
#     Edge 21, Type (0, 1), BuildingBlock: AJUNOK_clean_linker_0, # of connection points: 2
#     Edge 22, Type (0, 1), BuildingBlock: AJUNOK_clean_linker_0, # of connection points: 2
#     Edge 23, Type (0, 1), BuildingBlock: AJUNOK_clean_linker_0, # of connection points: 2
#     Edge 24, Type (0, 1), BuildingBlock: AJUNOK_clean_linker_0, # of connection points: 2
#     Edge 25, Type (0, 1), BuildingBlock: AJUNOK_clean_linker_0, # of connection points: 2
#     Edge 26, Type (0, 1), BuildingBlock: AJUNOK_clean_linker_0, # of connection points: 2
#     Edge 27, Type (0, 1), BuildingBlock: AJUNOK_clean_linker_0, # of connection points: 2
#     Edge 28, Type (0, 1), BuildingBlock: AJUNOK_clean_linker_0, # of connection points: 2
#     Edge 29, Type (0, 1), BuildingBlock: AJUNOK_clean_linker_0, # of connection points: 2
#     Edge 30, Type (0, 1), BuildingBlock: AJUNOK_clean_linker_0, # of connection points: 2
#     Edge 31, Type (0, 1), BuildingBlock: AJUNOK_clean_linker_0, # of connection points: 2
#     Edge 32, Type (0, 1), BuildingBlock: AJUNOK_clean_linker_0, # of connection points: 2
#     Edge 33, Type (0, 1), BuildingBlock: AJUNOK_clean_linker_0, # of connection points: 2
#     Edge 34, Type (0, 1), BuildingBlock: AJUNOK_clean_linker_0, # of connection points: 2
#     Edge 35, Type (0, 1), BuildingBlock: AJUNOK_clean_linker_0, # of connection points: 2
# Relax obj value: 0.181
# Max RMSD: 0.227
# Mean RMSD: 0.080
data_MOF--net-zzz--node1-PAMTUU_clean_sbu_0--node2-QEWDON_clean_linker_0--edge1-AJUNOK_clean_linker_0
_symmetry_space_group_name_H-M    P1
_symmetry_Int_Tables_number       1
_symmetry_cell_setting            triclinic
loop_
_symmetry_equiv_pos_as_xyz
'x, y, z'
_cell_length_a     38.860524
_cell_length_b     43.342318
_cell_length_c     11.835259
_cell_angle_alpha  102.74152
_cell_angle_beta   90.297655
_cell_angle_gamma 90.240692
loop_
_atom_site_label
_atom_site_type_symbol
_atom_site_fract_x
_atom_site_fract_y
_atom_site_fract_z
_atom_type_partial_charge
H0 H 0.79202 0.46828 0.38076 0.0
C1 C 0.81142 0.47838 0.44414 0.0
C2 C 0.8414 0.46089 0.44962 0.0
C3 C 0.80684 0.50841 0.51832 0.0
H4 H 0.89049 0.45979 0.53423 0.0
C5 C 0.86676 0.47282 0.53254 0.0
C6 C 0.86378 0.50252 0.60657 0.0
C7 C 0.83405 0.52063 0.59804 0.0
C8 C 0.77348 0.52618 0.51423 0.0
H9 H 0.83248 0.54406 0.65319 0.0
C10 C 0.7515 0.52089 0.41418 0.0
C11 C 0.71911 0.53602 0.4173 0.0
C12 C 0.7622 0.54759 0.61466 0.0
H13 H 0.77695 0.5518 0.69433 0.0
C14 C 0.731 0.56339 0.61591 0.0
H15 H 0.75896 0.50492 0.33452 0.0
C16 C 0.70973 0.55767 0.5185 0.0
H17 H 0.68567 0.57014 0.52214 0.0
H18 H 0.72293 0.57983 0.69385 0.0
H19 H 0.06502 0.76672 0.31154 0.0
C20 C 0.06152 0.78255 0.39531 0.0
C21 C 0.08176 0.81007 0.4245 0.0
C22 C 1.03542 0.77658 0.47069 0.0
H23 H 0.08974 0.85388 0.54889 0.0
C24 C 0.07581 0.83155 0.52921 0.0
C25 C 1.04927 0.82686 0.60247 0.0
C26 C 1.02921 0.7993 0.57417 0.0
C27 C 1.01332 0.74778 0.43723 0.0
H28 H 1.00871 0.79594 0.63199 0.0
C29 C 1.02726 0.71891 0.37663 0.0
C30 C 1.00623 0.692 0.34082 0.0
C31 C 0.97795 0.74909 0.46302 0.0
H32 H 0.96605 0.77097 0.50687 0.0
C33 C 0.95718 0.72223 0.42996 0.0
H34 H 1.05454 0.71718 0.35812 0.0
C35 C 0.97115 0.69385 0.36919 0.0
H36 H 0.95438 0.67349 0.34232 0.0
H37 H 0.93001 0.72355 0.45007 0.0
H38 H 0.82967 0.07307 0.47318 0.0
C39 C 0.81006 0.06394 0.52186 0.0
C40 C 0.7784 0.07953 0.5382 0.0
C41 C 0.81616 0.03684 0.56644 0.0
H42 H 0.7278 0.08044 0.61245 0.0
C43 C 0.7527 0.06891 0.6034 0.0
C44 C 0.75714 0.04205 0.64841 0.0
C45 C 0.78891 0.02571 0.62892 0.0
C46 C 0.8511 0.0211 0.54939 0.0
H47 H 0.79197 1.00426 0.66041 0.0
C48 C 0.87281 0.02241 0.45299 0.0
C49 C 0.90656 1.00938 0.44368 0.0
C50 C 0.86394 1.00598 0.6343 0.0
H51 H 0.84914 1.00511 0.71073 0.0
C52 C 0.89659 0.99252 0.62435 0.0
H53 H 0.86335 0.03297 0.38425 0.0
C54 C 0.91758 0.99415 0.53071 0.0
H55 H 0.94303 0.984 0.52832 0.0
H56 H 0.906 0.98116 0.69116 0.0
H57 H 0.54342 0.74868 0.03651 0.0
C58 C 0.54829 0.74761 0.12582 0.0
C59 C 0.5384 0.72024 0.16506 0.0
C60 C 0.56764 0.77207 0.19863 0.0
H61 H 0.54117 0.69673 0.30652 0.0
C62 C 0.54687 0.71839 0.27827 0.0
C63 C 0.56936 0.74009 0.34579 0.0
C64 C 0.57924 0.76725 0.30711 0.0
C65 C 0.58417 0.79775 0.15083 0.0
H66 H 0.59793 0.78338 0.35713 0.0
C67 C 0.56677 0.82548 0.13574 0.0
C68 C 0.58507 0.84952 0.0957 0.0
C69 C 0.61934 0.79455 0.12438 0.0
H70 H 0.63323 0.77375 0.13524 0.0
C71 C 0.63709 0.81799 0.08453 0.0
H72 H 0.53969 0.82847 0.15618 0.0
C73 C 0.62021 0.84519 0.07056 0.0
H74 H 0.63471 0.86307 0.03969 0.0
H75 H 0.66421 0.8151 0.06473 0.0
H76 H 0.34112 0.46245 0.31495 0.0
C77 C 0.32101 0.47097 0.26611 0.0
C78 C 0.28832 0.45722 0.26356 0.0
C79 C 0.32677 0.49752 0.21844 0.0
H80 H 0.23676 0.45669 0.19267 0.0
C81 C 0.26236 0.46685 0.19571 0.0
C82 C 0.26682 0.49267 0.14481 0.0
C83 C 0.29917 0.50844 0.15712 0.0
C84 C 0.36138 0.51374 0.23816 0.0
H85 H 0.3024 0.52937 0.12239 0.0
C86 C 0.38099 0.51459 0.3413 0.0
C87 C 0.41505 0.52686 0.35453 0.0
C88 C 0.37607 0.52677 0.15103 0.0
H89 H 0.36235 0.52626 0.07078 0.0
C90 C 0.40919 0.53968 0.1645 0.0
H91 H 0.3696 0.50611 0.41201 0.0
C92 C 0.42851 0.53959 0.26428 0.0
H93 H 0.4544 0.54911 0.26955 0.0
H94 H 0.4203 0.54935 0.09593 0.0
H95 H 1.00494 0.26778 0.45789 0.0
C96 C 1.0185 0.25061 0.39311 0.0
C97 C 1.01982 0.21917 0.40323 0.0
C98 C 1.03359 0.2595 0.29688 0.0
H99 H 1.03655 0.17214 0.32646 0.0
C100 C 1.03649 0.1967 0.31917 0.0
C101 C 1.05085 0.20475 0.2219 0.0
C102 C 1.04926 0.23621 0.20985 0.0
C103 C 1.03123 0.29279 0.28565 0.0
H104 H 0.06003 0.24243 0.13352 0.0
C105 C 1.03774 0.31775 0.38206 0.0
C106 C 1.0334 0.34945 0.37441 0.0
C107 C 1.02113 0.29978 0.18007 0.0
H108 H 1.01556 0.28103 0.10507 0.0
C109 C 1.01728 0.3311 0.17114 0.0
H110 H 1.04682 0.31236 0.46216 0.0
C111 C 1.0233 0.35569 0.26722 0.0
H112 H 1.01993 0.37962 0.2572 0.0
H113 H 1.00933 0.33636 0.08966 0.0
H114 H 0.28315 0.97254 0.36511 0.0
C115 C 0.30211 0.98173 0.31423 0.0
C116 C 0.334 0.96666 0.29587 0.0
C117 C 0.29461 1.00796 0.26639 0.0
H118 H 0.38383 0.966 0.21667 0.0
C119 C 0.35883 0.97733 0.22765 0.0
C120 C 0.3531 1.00358 0.17978 0.0
C121 C 0.32087 0.01918 0.20021 0.0
C122 C 0.25866 0.02164 0.27963 0.0
H123 H 0.31635 0.03974 0.16441 0.0
C124 C 0.23743 0.02119 0.37806 0.0
C125 C 0.20245 0.03122 0.38234 0.0
C126 C 0.24413 0.03277 0.18735 0.0
H127 H 0.25868 0.03281 0.10966 0.0
C128 C 0.20997 0.0425 0.19066 0.0
H129 H 0.24805 1.01327 0.4514 0.0
C130 C 0.18936 0.04144 0.28573 0.0
H131 H 0.16267 0.04798 0.28136 0.0
H132 H 0.19907 0.05027 0.11734 0.0
H133 H 0.58806 0.29823 0.72067 0.0
C134 C 0.56909 0.3024 0.65837 0.0
C135 C 0.561 0.33376 0.65222 0.0
C136 C 0.55449 0.2765 0.57708 0.0
H137 H 0.53113 0.36315 0.56621 0.0
C138 C 0.53723 0.33894 0.5702 0.0
C139 C 0.52446 0.3143 0.48434 0.0
C140 C 0.53313 0.28291 0.48709 0.0
C141 C 0.5682 0.24373 0.56699 0.0
H142 H 0.52456 0.26374 0.41737 0.0
C143 C 0.55682 0.22245 0.63576 0.0
C144 C 0.57018 0.1911 0.61594 0.0
C145 C 0.59309 0.23344 0.48169 0.0
H146 H 0.60217 0.24909 0.42822 0.0
C147 C 0.60657 0.20305 0.46396 0.0
H148 H 0.53741 0.22987 0.70133 0.0
C149 C 0.59522 0.1822 0.53012 0.0
H150 H 0.6062 0.15883 0.51473 0.0
H151 H 0.62585 0.19553 0.39805 0.0
Tb152 Tb 1.02399 0.02197 0.82909 0.0
Tb153 Tb 0.08635 1.01013 0.99874 0.0
C154 C 1.0098 0.016 0.08309 0.0
C155 C 0.97316 0.06175 0.64744 0.0
C156 C 0.97623 0.12194 0.59645 0.0
C157 C 0.94627 0.11213 0.64447 0.0
C158 C 0.94474 0.08209 0.66971 0.0
C159 C 1.00194 0.07073 0.59107 0.0
C160 C 1.00335 0.10048 0.56533 0.0
C161 C 0.97576 0.03518 0.70533 0.0
O162 O 1.05126 0.06673 0.87296 0.0
O163 O 0.078 0.06103 0.04076 0.0
O164 O 0.11348 0.02382 0.85607 0.0
O165 O 0.07014 1.01524 0.71866 0.0
O166 O 0.10638 1.0142 0.16679 0.0
O167 O 0.13431 0.98957 0.01711 0.0
O168 O 0.07462 0.96528 0.88329 0.0
O169 O 1.0185 0.97262 0.83906 0.0
O170 O 1.0044 0.03313 0.00635 0.0
O171 O 1.03794 0.99899 0.07743 0.0
C172 C 0.06679 0.07881 0.97147 0.0
O173 O 0.99895 1.01377 0.66693 0.0
O174 O 0.97652 0.04383 0.81769 0.0
C175 C 0.10291 0.02009 0.74809 0.0
C176 C 0.1315 0.96504 0.17313 0.0
C177 C 0.12867 0.90357 0.21469 0.0
C178 C 0.15998 0.9159 0.18459 0.0
C179 C 0.16135 0.94649 0.16369 0.0
C180 C 0.10058 0.95299 0.20699 0.0
C181 C 0.09925 0.9227 0.22793 0.0
C182 C 0.13098 0.99419 0.12891 0.0
C183 C 1.04415 0.95386 0.84947 0.0
H184 H 0.92495 0.12822 0.66842 0.0
H185 H 0.9224 0.0756 0.7139 0.0
H186 H 1.02433 0.05565 0.57343 0.0
H187 H 1.02638 0.10723 0.5253 0.0
H188 H 0.18303 0.90162 0.17406 0.0
H189 H 0.18532 0.95521 0.1359 0.0
H190 H 0.07702 0.96651 0.21347 0.0
H191 H 0.07493 0.91408 0.25357 0.0
Tb192 Tb 0.5421 1.00626 0.7745 0.0
Tb193 Tb 0.56368 0.04573 0.02867 0.0
C194 C 0.55626 0.97099 0.97863 0.0
C195 C 0.49979 0.9479 0.54262 0.0
C196 C 0.43684 0.91673 0.48361 0.0
C197 C 0.45058 0.9196 0.59561 0.0
C198 C 0.4818 0.93555 0.62548 0.0
C199 C 0.48894 0.94062 0.42721 0.0
C200 C 0.45777 0.92493 0.39755 0.0
C201 C 0.52496 0.97333 0.57903 0.0
O202 O 0.49601 1.00409 0.8796 0.0
O203 O 0.50714 0.04694 0.02659 0.0
O204 O 0.57011 0.07934 0.91682 0.0
O205 O 0.53465 0.05611 0.76755 0.0
O206 O 0.58816 0.04863 0.18873 0.0
O207 O 0.55993 0.08832 0.15346 0.0
O208 O 0.61344 0.0315 0.944 0.0
O209 O 0.59551 0.01988 0.75437 0.0
O210 O 0.5582 0.97043 0.86746 0.0
O211 O 0.55301 0.99795 0.05484 0.0
C212 C 0.48567 0.02515 0.97099 0.0
O213 O 0.51154 1.00067 0.62519 0.0
O214 O 0.55128 0.96702 0.63826 0.0
C215 C 0.55204 0.08095 0.82425 0.0
C216 C 0.61067 0.09874 0.26518 0.0
C217 C 0.6759 0.12435 0.33368 0.0
C218 C 0.65442 0.11367 0.41277 0.0
C219 C 0.62213 0.1009 0.37858 0.0
C220 C 0.63068 0.11168 0.18827 0.0
C221 C 0.66313 0.12462 0.22266 0.0
C222 C 0.58094 0.07852 0.22404 0.0
C223 C 0.6204 0.02503 0.83212 0.0
H224 H 0.4355 0.91278 0.66293 0.0
H225 H 0.49018 0.94078 0.71519 0.0
H226 H 0.50263 0.94989 0.36226 0.0
H227 H 0.44824 0.92306 0.31011 0.0
H228 H 0.66368 0.11261 0.49834 0.0
H229 H 0.60707 0.09086 0.43863 0.0
H230 H 0.62229 0.10985 0.0996 0.0
H231 H 0.67921 0.13254 0.16003 0.0
Tb232 Tb 0.53178 0.5159 0.98946 0.0
Tb233 Tb 0.58859 0.5361 0.81404 0.0
C234 C 0.51152 0.52592 0.74204 0.0
C235 C 0.49026 0.46399 0.15943 0.0
C236 C 0.49251 0.40531 0.22933 0.0
C237 C 0.46139 0.41665 0.19262 0.0
C238 C 0.46028 0.44573 0.1588 0.0
C239 C 0.52134 0.45279 0.19569 0.0
C240 C 0.5224 0.424 0.23102 0.0
C241 C 0.48943 0.49269 0.11055 0.0
O242 O 0.56582 0.47608 0.93997 0.0
O243 O 0.58464 0.48404 0.76558 0.0
O244 O 0.62038 0.52431 0.95079 0.0
O245 O 0.57922 0.52835 0.09304 0.0
O246 O 0.60173 0.53846 0.64363 0.0
O247 O 0.63425 0.55965 0.78806 0.0
O248 O 0.57372 0.57891 0.93643 0.0
O249 O 0.52045 0.56583 0.99481 0.0
O250 O 0.50907 0.50686 0.81407 0.0
O251 O 0.53782 0.54525 0.74996 0.0
C252 C 0.57874 0.46514 0.83729 0.0
O253 O 0.51075 0.51572 0.15346 0.0
O254 O 0.48868 0.48711 0.99806 0.0
C255 C 0.61177 0.52637 0.05966 0.0
C256 C 0.625 0.58924 0.64365 0.0
C257 C 0.6177 0.64758 0.57538 0.0
C258 C 0.61511 0.61872 0.49342 0.0
C259 C 0.61838 0.58988 0.52737 0.0
C260 C 0.62838 0.61824 0.72512 0.0
C261 C 0.62426 0.64708 0.69159 0.0
C262 C 0.62672 0.55847 0.67972 0.0
C263 C 0.54303 0.58718 0.97796 0.0
H264 H 0.43796 0.40281 0.1876 0.0
H265 H 0.43609 0.45363 0.12934 0.0
H266 H 0.54497 0.46605 0.195 0.0
H267 H 0.54677 0.41642 0.26017 0.0
H268 H 0.60958 0.61846 0.40339 0.0
H269 H 0.61546 0.56806 0.46278 0.0
H270 H 0.63357 0.61873 0.81546 0.0
H271 H 0.62615 0.669 0.75641 0.0
Tb272 Tb 0.07566 0.53059 0.81689 0.0
Tb273 Tb 1.0499 0.49667 0.01585 0.0
C274 C 1.05163 0.57167 0.05811 0.0
C275 C 0.13513 0.52709 0.60033 0.0
C276 C 0.19101 0.48651 0.53121 0.0
C277 C 0.19284 0.51862 0.52463 0.0
C278 C 0.16504 0.53888 0.55959 0.0
C279 C 0.13337 0.49491 0.60374 0.0
C280 C 0.16078 0.47477 0.56896 0.0
C281 C 0.1085 0.5481 0.66193 0.0
O282 O 0.11758 0.50374 0.87428 0.0
O283 O 0.10257 0.51347 0.06094 0.0
O284 O 0.0594 0.45802 0.86528 0.0
O285 O 1.05528 0.48585 0.72315 0.0
O286 O 1.01939 0.49466 0.15903 0.0
O287 O 0.05717 0.45863 0.09724 0.0
O288 O 1.00404 0.49952 0.90873 0.0
O289 O 1.02024 0.53968 0.82046 0.0
O290 O 0.06924 0.57033 0.96275 0.0
O291 O 1.03975 0.54621 0.08794 0.0
C292 C 0.12688 0.5085 0.98316 0.0
O293 O 0.07709 0.53713 0.64586 0.0
O294 O 0.11539 0.55861 0.77164 0.0
C295 C 1.05567 0.45901 0.75573 0.0
C296 C 1.00546 0.44359 0.17416 0.0
C297 C 0.94397 0.41143 0.19777 0.0
C298 C 0.95593 0.41285 0.08708 0.0
C299 C 0.98645 0.42904 0.07543 0.0
C300 C 0.99538 0.43969 0.28315 0.0
C301 C 0.96501 0.4236 0.29499 0.0
C302 C 1.03168 0.46741 0.16793 0.0
C303 C 0.99633 0.5208 0.84771 0.0
H304 H 0.21593 0.52809 0.49375 0.0
H305 H 0.16737 0.56376 0.55894 0.0
H306 H 0.11151 0.48552 0.64 0.0
H307 H 0.15882 0.45038 0.57667 0.0
H308 H 0.94011 0.40408 0.01105 0.0
H309 H 0.99369 0.43243 0.99077 0.0
H310 H 1.00962 0.45107 0.36019 0.0
H311 H 0.9564 0.42372 0.38197 0.0
C312 C 0.17939 1.00421 0.53853 0.0
C313 C 0.1786 0.02992 0.48283 0.0
C314 C 0.15517 1.00124 0.62474 0.0
C315 C 0.12859 0.02343 0.65746 0.0
H316 H 0.19831 0.98575 0.51343 0.0
H317 H 0.15681 0.98101 0.66431 0.0
S318 S 0.11655 0.09682 0.5508 0.0
N319 N 0.15038 0.07993 0.47924 0.0
N320 N 0.10414 0.07283 0.63359 0.0
C321 C 0.12779 0.04943 0.60498 0.0
C322 C 0.15288 0.05305 0.51994 0.0
C323 C 0.5447 0.13759 0.61674 0.0
C324 C 0.55907 0.16628 0.67962 0.0
C325 C 0.54134 0.11076 0.66533 0.0
C326 C 0.55281 0.11097 0.77887 0.0
H327 H 0.53728 0.13545 0.52695 0.0
H328 H 0.53093 0.08925 0.61126 0.0
S329 S 0.59125 0.18064 0.98224 0.0
N330 N 0.58378 0.19353 0.86309 0.0
N331 N 0.57778 0.14351 0.95478 0.0
C332 C 0.56624 0.13993 0.84408 0.0
C333 C 0.56928 0.16737 0.79458 0.0
C334 C 0.45943 0.55231 0.50464 0.0
C335 C 0.43719 0.52658 0.46015 0.0
C336 C 0.48273 0.55189 0.59581 0.0
C337 C 0.48483 0.52593 0.6493 0.0
H338 H 0.45911 0.57313 0.46818 0.0
H339 H 0.49937 0.57227 0.62439 0.0
S340 S 0.43216 0.45263 0.56961 0.0
N341 N 0.41908 0.47412 0.47864 0.0
N342 N 0.46182 0.47395 0.65249 0.0
C343 C 0.46213 0.50037 0.60858 0.0
C344 C 0.43863 0.50057 0.51402 0.0
C345 C 0.05664 0.40368 0.45891 0.0
C346 C 1.04012 0.37616 0.47609 0.0
C347 C 0.06176 0.42992 0.55011 0.0
C348 C 1.05168 0.42966 0.66402 0.0
H349 H 0.06554 0.4052 0.37373 0.0
H350 H 0.07353 0.45069 0.53007 0.0
S351 S 1.00647 0.36403 0.75683 0.0
N352 N 1.01229 0.35082 0.61634 0.0
N353 N 1.02407 0.39966 0.78922 0.0
C354 C 1.03581 0.40215 0.68371 0.0
C355 C 1.02961 0.37555 0.58968 0.0
C356 C 0.95311 0.98572 0.30051 0.0
C357 C 0.93114 1.01139 0.34622 0.0
C358 C 0.97857 0.98758 0.21763 0.0
C359 C 0.98303 1.01496 0.17371 0.0
H360 H 0.95075 0.96375 0.32917 0.0
H361 H 0.9946 0.96711 0.18648 0.0
S362 S 0.93361 0.08939 0.26462 0.0
N363 N 0.91704 0.06575 0.34237 0.0
N364 N 0.96354 0.06864 0.18333 0.0
C365 C 0.9611 0.04071 0.21693 0.0
C366 C 0.93555 0.03906 0.30331 0.0
C367 C 0.55971 0.88165 0.96391 0.0
C368 C 0.56928 0.8795 0.07674 0.0
C369 C 0.55431 0.91113 0.93478 0.0
C370 C 0.55846 0.94004 0.01689 0.0
H371 H 0.55822 0.86038 0.89583 0.0
H372 H 0.54791 0.9112 0.84564 0.0
S373 S 0.58257 0.94731 0.32606 0.0
N374 N 0.58197 0.90876 0.27188 0.0
N375 N 0.57155 0.96402 0.21856 0.0
C376 C 0.56662 0.9381 0.13157 0.0
C377 C 0.5722 0.90797 0.16091 0.0
C378 C 0.69933 0.53987 0.2164 0.0
C379 C 0.69367 0.52923 0.31894 0.0
C380 C 0.67304 0.53829 0.13211 0.0
C381 C 0.63986 0.52639 0.14754 0.0
H382 H 0.72381 0.55054 0.20318 0.0
H383 H 0.67846 0.54742 0.0559 0.0
S384 S 0.61348 0.49169 0.39409 0.0
N385 N 0.65349 0.50369 0.42583 0.0
N386 N 0.60435 0.50103 0.26943 0.0
C387 C 0.63448 0.51458 0.2478 0.0
C388 C 0.66126 0.51592 0.33272 0.0
C389 C 1.01359 0.63333 0.30417 0.0
C390 C 1.02049 0.66203 0.27185 0.0
C391 C 1.02469 0.60446 0.23634 0.0
C392 C 1.04301 0.60303 0.13275 0.0
H393 H 0.9992 0.63316 0.38222 0.0
H394 H 1.01824 0.58307 0.26482 0.0
S395 S 0.06787 0.67193 0.01083 0.0
N396 N 1.04697 0.68757 0.1307 0.0
N397 N 0.06811 0.63343 0.00297 0.0
C398 C 1.05074 0.63177 0.10085 0.0
C399 C 1.03943 0.6612 0.17038 0.0
C400 C 1.02195 0.19688 0.57589 0.0
C401 C 1.00168 0.20739 0.49369 0.0
C402 C 1.01166 0.17078 0.61883 0.0
C403 C 0.9807 0.15467 0.58144 0.0
H404 H 1.04778 0.20614 0.59519 0.0
H405 H 1.02958 0.16133 0.67283 0.0
S406 S 0.91509 0.17814 0.38907 0.0
N407 N 0.94686 0.2038 0.39263 0.0
N408 N 0.92699 0.15489 0.47554 0.0
C409 C 0.958 0.16791 0.51289 0.0
C410 C 0.96863 0.19444 0.46868 0.0
C411 C 0.36013 0.91483 0.30062 0.0
C412 C 0.34462 0.94285 0.36097 0.0
C413 C 0.38673 0.90092 0.35195 0.0
C414 C 0.39905 0.91542 0.46319 0.0
H415 H 0.35519 0.90636 0.20878 0.0
H416 H 0.4014 0.8822 0.29761 0.0
S417 S 0.3572 0.98132 0.67006 0.0
N418 N 0.33561 0.97836 0.54762 0.0
N419 N 0.38607 0.95285 0.64392 0.0
C420 C 0.37848 0.93898 0.5319 0.0
C421 C 0.35114 0.95282 0.48002 0.0
C422 C 0.56534 0.37741 0.82749 0.0
C423 C 0.57846 0.36272 0.71894 0.0
C424 C 0.56798 0.41035 0.86854 0.0
C425 C 0.58321 0.43006 0.8015 0.0
H426 H 0.55001 0.36388 0.87581 0.0
H427 H 0.55549 0.42054 0.94973 0.0
S428 S 0.6263 0.40215 0.51896 0.0
N429 N 0.61143 0.36954 0.55232 0.0
N430 N 0.61567 0.43142 0.62776 0.0
C431 C 0.59927 0.41521 0.69783 0.0
C432 C 0.59722 0.38159 0.65741 0.0
C433 C 0.28253 0.46341 0.47043 0.0
C434 C 0.2776 0.44289 0.36122 0.0
C435 C 0.25379 0.47617 0.53408 0.0
C436 C 0.22063 0.46548 0.4965 0.0
H437 H 0.30691 0.47548 0.49274 0.0
H438 H 0.25724 0.49654 0.60511 0.0
S439 S 0.19994 0.39485 0.26591 0.0
N440 N 0.24186 0.40005 0.25545 0.0
N441 N 0.18708 0.42284 0.37588 0.0
C442 C 0.21757 0.43735 0.41095 0.0
C443 C 0.24713 0.42488 0.34648 0.0
C444 C 0.08641 0.82741 0.24015 0.0
C445 C 0.10313 0.82135 0.33842 0.0
C446 C 0.09752 0.85213 0.19037 0.0
C447 C 0.12575 0.87134 0.23698 0.0
H448 H 0.06207 0.816 0.21129 0.0
H449 H 0.08175 0.85831 0.123 0.0
S450 S 0.18365 0.85891 0.47228 0.0
N451 N 0.15365 0.83133 0.46298 0.0
N452 N 0.17423 0.87834 0.37086 0.0
C453 C 0.14579 0.86219 0.32285 0.0
C454 C 0.13462 0.83683 0.37286 0.0
C455 C 0.75102 0.13033 0.52727 0.0
C456 C 0.76837 0.10291 0.47027 0.0
C457 C 0.72373 0.14233 0.47255 0.0
C458 C 0.71321 0.127 0.36016 0.0
H459 H 0.75484 0.13934 0.61944 0.0
H460 H 0.7075 0.16022 0.52446 0.0
S461 S 0.75949 0.06267 0.16132 0.0
N462 N 0.78033 0.06726 0.2859 0.0
N463 N 0.72896 0.08966 0.18289 0.0
C464 C 0.73533 0.10434 0.29495 0.0
C465 C 0.76314 0.09221 0.35059 0.0
C466 C 0.55439 0.67582 0.00321 0.0
C467 C 0.5297 0.6893 0.08546 0.0
C468 C 0.55702 0.64288 0.96488 0.0
C469 C 0.53513 0.62182 0.00653 0.0
H470 H 0.57408 0.69054 0.97727 0.0
H471 H 0.57782 0.63389 0.90649 0.0
S472 S 0.46133 0.64545 0.2036 0.0
N473 N 0.4792 0.67933 0.19262 0.0
N474 N 0.48423 0.61739 0.12048 0.0
C475 C 0.50784 0.63508 0.07845 0.0
C476 C 0.50505 0.66876 0.1173 0.0
C477 C 0.85602 0.44054 0.24518 0.0
C478 C 0.85083 0.4339 0.3548 0.0
C479 C 0.88378 0.42716 0.17702 0.0
C480 C 0.9068 0.40697 0.21772 0.0
H481 H 0.84266 0.46006 0.22109 0.0
H482 H 0.89041 0.43705 0.10348 0.0
S483 S 0.89352 0.37104 0.47009 0.0
N484 N 0.86256 0.3975 0.47942 0.0
N485 N 0.91474 0.37205 0.35031 0.0
C486 C 0.89631 0.39421 0.31132 0.0
C487 C 0.86813 0.40789 0.38078 0.0
C488 C 0.08961 0.15915 0.15662 0.0
C489 C 0.063 0.17832 0.12995 0.0
C490 C 0.09234 0.12738 0.09851 0.0
C491 C 0.06862 0.11372 0.01142 0.0
H492 H 0.10633 0.16793 0.23037 0.0
H493 H 0.11179 0.11295 0.12732 0.0
S494 S 0.99636 0.15512 0.90235 0.0
N495 N 1.01443 0.18244 0.00516 0.0
N496 N 1.01961 0.12291 0.89391 0.0
C497 C 1.04392 0.13355 0.97651 0.0
C498 C 1.04114 0.16588 0.03625 0.0
C499 C 0.39487 0.99333 0.01282 0.0
C500 C 0.38251 1.01395 0.11371 0.0
C501 C 0.42726 0.99792 0.96483 0.0
C502 C 0.44942 0.02312 0.01632 0.0
H503 H 0.37996 0.97252 0.97341 0.0
H504 H 0.43551 0.98069 0.88912 0.0
S505 S 0.42875 0.0846 0.28018 0.0
N506 N 0.39462 0.06114 0.26128 0.0
N507 N 0.45514 0.06997 0.17294 0.0
C508 C 0.4367 0.04462 0.11511 0.0
C509 C 0.40352 0.03999 0.1632 0.0
C510 C 0.52965 0.33004 0.29707 0.0
C511 C 0.5079 0.32436 0.38503 0.0
C512 C 0.52303 0.35473 0.24035 0.0
C513 C 0.49431 0.37471 0.26905 0.0
H514 H 0.55405 0.31786 0.28177 0.0
H515 H 0.54185 0.35952 0.17915 0.0
S516 S 0.42596 0.36527 0.47733 0.0
N517 N 0.45393 0.33725 0.48518 0.0
N518 N 0.44116 0.38349 0.37926 0.0
C519 C 0.47023 0.36667 0.3467 0.0
C520 C 0.47703 0.34144 0.40402 0.0
C521 C 0.2099 0.52067 0.1669 0.0
C522 C 0.23501 0.50367 0.09285 0.0
C523 C 0.17541 0.52259 0.13034 0.0
C524 C 0.16425 0.50754 0.01786 0.0
H525 H 0.21652 0.53099 0.25633 0.0
H526 H 0.15715 0.53537 0.19199 0.0
S527 S 0.21944 0.4588 0.79227 0.0
N528 N 0.24588 0.47084 0.90301 0.0
N529 N 0.18174 0.47476 0.83329 0.0
C530 C 0.18936 0.49114 0.94215 0.0
C531 C 0.22441 0.48907 0.97986 0.0
C532 C 1.01351 0.87389 0.67866 0.0
C533 C 1.04048 0.85399 0.69687 0.0
C534 C 1.01323 0.90596 0.73552 0.0
C535 C 1.04009 0.91905 0.81164 0.0
H536 H 0.99448 0.86546 0.61157 0.0
H537 H 0.99341 0.92099 0.71238 0.0
S538 S 0.11293 0.87488 0.90404 0.0
N539 N 0.09173 0.84816 0.80743 0.0
N540 N 0.09123 0.9081 0.91625 0.0
C541 C 0.06505 0.89839 0.83986 0.0
C542 C 0.0652 0.86589 0.78207 0.0
C543 C 0.717 0.04501 0.81855 0.0
C544 C 0.7261 0.03073 0.70359 0.0
C545 C 0.68348 0.04183 0.86166 0.0
C546 C 0.6572 0.02493 0.79067 0.0
H547 H 0.73543 0.06014 0.87387 0.0
H548 H 0.67769 0.05413 0.94944 0.0
S549 S 0.66824 0.98202 0.48411 0.0
N550 N 0.70638 0.99809 0.52156 0.0
N551 N 0.64391 0.9922 0.60023 0.0
C552 C 0.66651 1.00964 0.67673 0.0
C553 C 0.70067 1.01256 0.63389 0.0
C554 C 0.57145 0.72073 0.52911 0.0
C555 C 0.58907 0.72775 0.43402 0.0
C556 C 0.58264 0.69638 0.5817 0.0
C557 C 0.61141 0.67786 0.53935 0.0
H558 H 0.54705 0.73199 0.5554 0.0
H559 H 0.567 0.69025 0.64913 0.0
S560 S 0.6688 0.6893 0.30292 0.0
N561 N 0.63888 0.71656 0.30906 0.0
N562 N 0.65945 0.67052 0.4062 0.0
C563 C 0.63085 0.68644 0.45135 0.0
C564 C 0.61989 0.71158 0.39955 0.0
C565 C 0.9028 0.49624 0.76955 0.0
C566 C 0.89354 0.51366 0.68675 0.0
C567 C 0.93521 0.49995 0.82499 0.0
C568 C 0.96031 0.52104 0.79945 0.0
H569 H 0.88542 0.47829 0.78721 0.0
H570 H 0.94106 0.48502 0.88479 0.0
S571 S 0.94818 0.57349 0.59235 0.0
N572 N 0.91147 0.55377 0.58528 0.0
N573 N 0.97224 0.56104 0.68867 0.0
C574 C 0.95068 0.53975 0.7205 0.0
C575 C 0.91746 0.53598 0.66445 0.0
loop_
_geom_bond_atom_site_label_1
_geom_bond_atom_site_label_2
_geom_bond_distance
_geom_bond_site_symmetry_2
_ccdc_geom_bond_type
H0 C1 0.949 . S
C1 H0 0.949 . S
C1 C2 1.395 . S
C1 C3 1.391 . S
C2 C1 1.395 . S
C2 C5 1.390 . S
C3 C1 1.391 . S
C3 C7 1.387 . S
C3 C8 1.491 . S
H4 C5 0.950 . S
C5 C2 1.390 . S
C5 H4 0.950 . S
C5 C6 1.378 . S
C6 C5 1.378 . S
C6 C7 1.409 . S
C7 C3 1.387 . S
C7 C6 1.409 . S
C7 H9 0.951 . S
C8 C3 1.491 . S
C8 C10 1.382 . S
C8 C12 1.404 . S
H9 C7 0.951 . S
C10 C8 1.382 . S
C10 C11 1.390 . S
C10 H15 0.949 . S
C11 C10 1.390 . S
C11 C16 1.399 . S
C12 C8 1.404 . S
C12 H13 0.950 . S
C12 C14 1.375 . S
H13 C12 0.950 . S
C14 C12 1.375 . S
C14 C16 1.382 . S
C14 H18 0.950 . S
H15 C10 0.949 . S
C16 C11 1.399 . S
C16 C14 1.382 . S
C16 H17 0.952 . S
H17 C16 0.952 . S
H18 C14 0.950 . S
H19 C20 0.949 . S
C20 H19 0.949 . S
C20 C21 1.395 . S
C20 C22 1.391 . S
C21 C20 1.395 . S
C21 C24 1.390 1_655 S
C22 C20 1.391 . S
C22 C26 1.387 . S
C22 C27 1.491 . S
H23 C24 0.950 . S
C24 C21 1.390 1_455 S
C24 H23 0.950 . S
C24 C25 1.377 1_455 S
C25 C24 1.377 1_655 S
C25 C26 1.412 . S
C26 C22 1.387 . S
C26 C25 1.412 . S
C26 H28 0.951 . S
C27 C22 1.491 . S
C27 C29 1.382 . S
C27 C31 1.404 . S
H28 C26 0.951 . S
C29 C27 1.382 . S
C29 C30 1.390 . S
C29 H34 0.949 1_655 S
C30 C29 1.390 . S
C30 C35 1.399 . S
C31 C27 1.404 . S
C31 H32 0.950 . S
C31 C33 1.375 . S
H32 C31 0.950 . S
C33 C31 1.375 . S
C33 C35 1.382 . S
C33 H37 0.950 . S
H34 C29 0.949 1_455 S
C35 C30 1.399 . S
C35 C33 1.382 . S
C35 H36 0.952 . S
H36 C35 0.952 . S
H37 C33 0.950 . S
H38 C39 0.949 . S
C39 H38 0.949 . S
C39 C40 1.395 . S
C39 C41 1.391 . S
C40 C39 1.395 . S
C40 C43 1.391 1_565 S
C41 C39 1.391 . S
C41 C45 1.387 . S
C41 C46 1.491 . S
H42 C43 0.950 . S
C43 C40 1.391 1_545 S
C43 H42 0.950 . S
C43 C44 1.372 1_545 S
C44 C43 1.372 1_565 S
C44 C45 1.412 . S
C45 C41 1.387 . S
C45 C44 1.412 . S
C45 H47 0.951 . S
C46 C41 1.491 . S
C46 C48 1.382 . S
C46 C50 1.404 . S
H47 C45 0.951 . S
C48 C46 1.382 . S
C48 C49 1.390 . S
C48 H53 0.949 1_565 S
C49 C48 1.390 . S
C49 C54 1.399 . S
C50 C46 1.404 . S
C50 H51 0.950 . S
C50 C52 1.375 . S
H51 C50 0.950 . S
C52 C50 1.375 . S
C52 C54 1.382 . S
C52 H56 0.950 . S
H53 C48 0.949 1_545 S
C54 C49 1.399 . S
C54 C52 1.382 . S
C54 H55 0.952 . S
H55 C54 0.952 . S
H56 C52 0.950 . S
H57 C58 0.949 . S
C58 H57 0.949 . S
C58 C59 1.395 . S
C58 C60 1.391 1_556 S
C59 C58 1.395 . S
C59 C62 1.390 1_556 S
C60 C58 1.391 1_554 S
C60 C64 1.387 . S
C60 C65 1.491 . S
H61 C62 0.950 . S
C62 C59 1.390 1_554 S
C62 H61 0.950 . S
C62 C63 1.378 . S
C63 C62 1.378 . S
C63 C64 1.409 . S
C64 C60 1.387 . S
C64 C63 1.409 . S
C64 H66 0.951 . S
C65 C60 1.491 . S
C65 C67 1.382 1_554 S
C65 C69 1.404 . S
H66 C64 0.951 . S
C67 C65 1.382 1_556 S
C67 C68 1.390 . S
C67 H72 0.949 . S
C68 C67 1.390 . S
C68 C73 1.399 1_556 S
C69 C65 1.404 . S
C69 H70 0.950 . S
C69 C71 1.375 . S
H70 C69 0.950 . S
C71 C69 1.375 . S
C71 C73 1.382 . S
C71 H75 0.950 . S
H72 C67 0.949 . S
C73 C68 1.399 1_554 S
C73 C71 1.382 . S
C73 H74 0.952 . S
H74 C73 0.952 . S
H75 C71 0.950 . S
H76 C77 0.949 . S
C77 H76 0.949 . S
C77 C78 1.395 . S
C77 C79 1.391 . S
C78 C77 1.395 . S
C78 C81 1.390 . S
C79 C77 1.391 . S
C79 C83 1.387 . S
C79 C84 1.491 . S
H80 C81 0.950 . S
C81 C78 1.390 . S
C81 H80 0.950 . S
C81 C82 1.378 . S
C82 C81 1.378 . S
C82 C83 1.409 . S
C83 C79 1.387 . S
C83 C82 1.409 . S
C83 H85 0.951 . S
C84 C79 1.491 . S
C84 C86 1.382 . S
C84 C88 1.404 . S
H85 C83 0.951 . S
C86 C84 1.382 . S
C86 C87 1.390 . S
C86 H91 0.949 . S
C87 C86 1.390 . S
C87 C92 1.399 . S
C88 C84 1.404 . S
C88 H89 0.950 . S
C88 C90 1.375 . S
H89 C88 0.950 . S
C90 C88 1.375 . S
C90 C92 1.382 . S
C90 H94 0.950 . S
H91 C86 0.949 . S
C92 C87 1.399 . S
C92 C90 1.382 . S
C92 H93 0.952 . S
H93 C92 0.952 . S
H94 C90 0.950 . S
H95 C96 0.949 . S
C96 H95 0.949 . S
C96 C97 1.394 . S
C96 C98 1.391 . S
C97 C96 1.394 . S
C97 C100 1.390 1_655 S
C98 C96 1.391 . S
C98 C102 1.387 . S
C98 C103 1.491 . S
H99 C100 0.950 . S
C100 C97 1.390 1_455 S
C100 H99 0.950 . S
C100 C101 1.377 1_455 S
C101 C100 1.377 1_655 S
C101 C102 1.411 . S
C102 C98 1.387 . S
C102 C101 1.411 . S
C102 H104 0.951 . S
C103 C98 1.491 . S
C103 C105 1.382 . S
C103 C107 1.404 . S
H104 C102 0.951 . S
C105 C103 1.382 . S
C105 C106 1.390 . S
C105 H110 0.949 1_655 S
C106 C105 1.390 . S
C106 C111 1.399 . S
C107 C103 1.404 . S
C107 H108 0.950 . S
C107 C109 1.375 . S
H108 C107 0.950 . S
C109 C107 1.375 . S
C109 C111 1.382 . S
C109 H113 0.950 . S
H110 C105 0.949 1_455 S
C111 C106 1.399 . S
C111 C109 1.382 . S
C111 H112 0.952 . S
H112 C111 0.952 . S
H113 C109 0.950 . S
H114 C115 0.949 . S
C115 H114 0.949 . S
C115 C116 1.394 . S
C115 C117 1.391 . S
C116 C115 1.394 . S
C116 C119 1.391 1_565 S
C117 C115 1.391 . S
C117 C121 1.387 . S
C117 C122 1.491 . S
H118 C119 0.950 . S
C119 C116 1.391 1_545 S
C119 H118 0.950 . S
C119 C120 1.380 1_545 S
C120 C119 1.380 1_565 S
C120 C121 1.411 . S
C121 C117 1.387 . S
C121 C120 1.411 . S
C121 H123 0.951 . S
C122 C117 1.491 . S
C122 C124 1.382 . S
C122 C126 1.404 . S
H123 C121 0.951 . S
C124 C122 1.382 . S
C124 C125 1.390 . S
C124 H129 0.949 1_565 S
C125 C124 1.390 . S
C125 C130 1.399 . S
C126 C122 1.404 . S
C126 H127 0.950 . S
C126 C128 1.375 . S
H127 C126 0.950 . S
C128 C126 1.375 . S
C128 C130 1.382 . S
C128 H132 0.950 . S
H129 C124 0.949 1_545 S
C130 C125 1.399 . S
C130 C128 1.382 . S
C130 H131 0.952 . S
H131 C130 0.952 . S
H132 C128 0.950 . S
H133 C134 0.949 . S
C134 H133 0.949 . S
C134 C135 1.395 . S
C134 C136 1.391 . S
C135 C134 1.395 . S
C135 C138 1.390 . S
C136 C134 1.391 . S
C136 C140 1.387 . S
C136 C141 1.491 . S
H137 C138 0.950 . S
C138 C135 1.390 . S
C138 H137 0.950 . S
C138 C139 1.378 . S
C139 C138 1.378 . S
C139 C140 1.409 . S
C140 C136 1.387 . S
C140 C139 1.409 . S
C140 H142 0.951 . S
C141 C136 1.491 . S
C141 C143 1.382 . S
C141 C145 1.404 . S
H142 C140 0.951 . S
C143 C141 1.382 . S
C143 C144 1.390 . S
C143 H148 0.949 . S
C144 C143 1.390 . S
C144 C149 1.399 . S
C145 C141 1.404 . S
C145 H146 0.950 . S
C145 C147 1.375 . S
H146 C145 0.950 . S
C147 C145 1.375 . S
C147 C149 1.382 . S
C147 H151 0.950 . S
H148 C143 0.949 . S
C149 C144 1.399 . S
C149 C147 1.382 . S
C149 H150 0.952 . S
H150 C149 0.952 . S
H151 C147 0.950 . S
Tb152 C161 2.764 . S
Tb152 O162 2.325 . S
Tb152 O165 2.303 1_655 S
Tb152 O169 2.322 1_545 S
Tb152 O170 2.349 . S
Tb152 O173 2.415 . S
Tb152 O174 2.399 . S
Tb153 O163 2.322 1_565 S
Tb153 O164 2.349 1_554 S
Tb153 O166 2.415 . S
Tb153 O167 2.399 . S
Tb153 O168 2.325 1_554 S
Tb153 O171 2.303 1_454 S
Tb153 C182 2.764 . S
C154 O170 1.281 . S
C154 O171 1.252 1_545 S
C155 C158 1.358 . S
C155 C159 1.332 . S
C155 C161 1.504 . S
C156 C157 1.373 . S
C156 C160 1.308 . S
C157 C156 1.373 . S
C157 C158 1.429 . S
C157 H184 0.932 . S
C158 C155 1.358 . S
C158 C157 1.429 . S
C158 H185 0.930 . S
C159 C155 1.332 . S
C159 C160 1.394 . S
C159 H186 0.932 1_655 S
C160 C156 1.308 . S
C160 C159 1.394 . S
C160 H187 0.930 1_655 S
C161 Tb152 2.764 . S
C161 C155 1.504 . S
C161 O173 1.239 . S
C161 O174 1.263 . S
O162 Tb152 2.325 . S
O162 C172 1.236 1_655 S
O163 Tb153 2.322 1_545 S
O163 C172 1.257 1_554 S
O164 Tb153 2.349 1_556 S
O164 C175 1.276 . S
O165 Tb152 2.303 1_455 S
O165 C175 1.253 1_545 S
O166 Tb153 2.415 . S
O166 C182 1.239 . S
O167 Tb153 2.399 . S
O167 C182 1.263 . S
O168 Tb153 2.325 1_556 S
O168 C183 1.236 1_455 S
O169 Tb152 2.322 1_565 S
O169 C183 1.257 . S
O170 Tb152 2.349 . S
O170 C154 1.281 . S
O171 Tb153 2.303 1_656 S
O171 C154 1.252 1_565 S
C172 O162 1.236 1_455 S
C172 O163 1.257 1_556 S
O173 Tb152 2.415 . S
O173 C161 1.239 . S
O174 Tb152 2.399 . S
O174 C161 1.263 . S
C175 O164 1.276 . S
C175 O165 1.253 1_565 S
C176 C179 1.358 . S
C176 C180 1.332 . S
C176 C182 1.504 . S
C177 C178 1.373 . S
C177 C181 1.308 . S
C178 C177 1.373 . S
C178 C179 1.429 . S
C178 H188 0.932 . S
C179 C176 1.358 . S
C179 C178 1.429 . S
C179 H189 0.930 . S
C180 C176 1.332 . S
C180 C181 1.394 . S
C180 H190 0.932 1_455 S
C181 C177 1.308 . S
C181 C180 1.394 . S
C181 H191 0.930 . S
C182 Tb153 2.764 . S
C182 O166 1.239 . S
C182 O167 1.263 . S
C182 C176 1.504 . S
C183 O168 1.236 1_655 S
C183 O169 1.257 . S
H184 C157 0.932 . S
H185 C158 0.930 . S
H186 C159 0.932 1_455 S
H187 C160 0.930 1_455 S
H188 C178 0.932 . S
H189 C179 0.930 . S
H190 C180 0.932 1_655 S
H191 C181 0.930 . S
Tb192 C201 2.764 . S
Tb192 O202 2.325 . S
Tb192 O205 2.303 1_565 S
Tb192 O209 2.322 . S
Tb192 O210 2.349 . S
Tb192 O213 2.415 1_565 S
Tb192 O214 2.399 . S
Tb193 O203 2.322 . S
Tb193 O204 2.349 . S
Tb193 O206 2.415 1_545 S
Tb193 O207 2.399 . S
Tb193 O208 2.325 1_554 S
Tb193 O211 2.303 1_544 S
Tb193 C222 2.764 . S
C194 O210 1.261 . S
C194 O211 1.257 . S
C195 C198 1.358 . S
C195 C199 1.332 1_565 S
C195 C201 1.504 . S
C196 C197 1.373 . S
C196 C200 1.308 1_565 S
C197 C196 1.373 . S
C197 C198 1.429 . S
C197 H224 0.932 . S
C198 C195 1.358 . S
C198 C197 1.429 . S
C198 H225 0.930 . S
C199 C195 1.332 1_545 S
C199 C200 1.394 . S
C199 H226 0.932 . S
C200 C196 1.308 1_545 S
C200 C199 1.394 . S
C200 H227 0.929 . S
C201 Tb192 2.764 . S
C201 C195 1.504 . S
C201 O213 1.239 1_565 S
C201 O214 1.263 . S
O202 Tb192 2.325 . S
O202 C212 1.236 1_565 S
O203 Tb193 2.322 . S
O203 C212 1.257 1_554 S
O204 Tb193 2.349 . S
O204 C215 1.261 1_554 S
O205 Tb192 2.303 1_545 S
O205 C215 1.257 . S
O206 Tb193 2.415 1_565 S
O206 C222 1.239 1_565 S
O207 Tb193 2.399 . S
O207 C222 1.263 . S
O208 Tb193 2.325 1_556 S
O208 C223 1.236 1_545 S
O209 Tb192 2.322 . S
O209 C223 1.257 . S
O210 Tb192 2.349 . S
O210 C194 1.261 . S
O211 Tb193 2.303 1_566 S
O211 C194 1.257 . S
C212 O202 1.236 1_545 S
C212 O203 1.257 1_556 S
O213 Tb192 2.415 1_545 S
O213 C201 1.239 1_545 S
O214 Tb192 2.399 . S
O214 C201 1.263 . S
C215 O204 1.261 1_556 S
C215 O205 1.257 . S
C216 C219 1.358 . S
C216 C220 1.332 1_545 S
C216 C222 1.504 . S
C217 C218 1.373 . S
C217 C221 1.308 1_545 S
C218 C217 1.373 . S
C218 C219 1.429 . S
C218 H228 0.932 . S
C219 C216 1.358 . S
C219 C218 1.429 . S
C219 H229 0.930 . S
C220 C216 1.332 1_565 S
C220 C221 1.394 . S
C220 H230 0.932 . S
C221 C217 1.308 1_565 S
C221 C220 1.394 . S
C221 H231 0.929 . S
C222 Tb193 2.764 . S
C222 O206 1.239 1_545 S
C222 O207 1.263 . S
C222 C216 1.504 . S
C223 O208 1.236 1_565 S
C223 O209 1.257 . S
H224 C197 0.932 . S
H225 C198 0.930 . S
H226 C199 0.932 . S
H227 C200 0.929 . S
H228 C218 0.932 . S
H229 C219 0.930 . S
H230 C220 0.932 . S
H231 C221 0.929 . S
Tb232 C241 2.764 . S
Tb232 O242 2.325 1_554 S
Tb232 O245 2.303 1_554 S
Tb232 O249 2.322 . S
Tb232 O250 2.349 1_554 S
Tb232 O253 2.415 . S
Tb232 O254 2.399 . S
Tb233 O243 2.322 . S
Tb233 O244 2.349 . S
Tb233 O246 2.415 . S
Tb233 O247 2.399 . S
Tb233 O248 2.325 . S
Tb233 O251 2.303 . S
Tb233 C262 2.764 . S
C234 O250 1.261 . S
C234 O251 1.257 . S
C235 C238 1.358 . S
C235 C239 1.332 . S
C235 C241 1.504 . S
C236 C237 1.373 . S
C236 C240 1.308 . S
C237 C236 1.373 . S
C237 C238 1.429 . S
C237 H264 0.932 . S
C238 C235 1.358 . S
C238 C237 1.429 . S
C238 H265 0.930 . S
C239 C235 1.332 . S
C239 C240 1.394 . S
C239 H266 0.932 . S
C240 C236 1.308 . S
C240 C239 1.394 . S
C240 H267 0.929 . S
C241 Tb232 2.764 . S
C241 C235 1.504 . S
C241 O253 1.239 . S
C241 O254 1.263 . S
O242 Tb232 2.325 1_556 S
O242 C252 1.236 . S
O243 Tb233 2.322 . S
O243 C252 1.257 . S
O244 Tb233 2.349 . S
O244 C255 1.261 . S
O245 Tb232 2.303 1_556 S
O245 C255 1.257 . S
O246 Tb233 2.415 . S
O246 C262 1.239 . S
O247 Tb233 2.399 . S
O247 C262 1.263 . S
O248 Tb233 2.325 . S
O248 C263 1.236 . S
O249 Tb232 2.322 . S
O249 C263 1.257 1_554 S
O250 Tb232 2.349 1_556 S
O250 C234 1.261 . S
O251 Tb233 2.303 . S
O251 C234 1.257 . S
C252 O242 1.236 . S
C252 O243 1.257 . S
O253 Tb232 2.415 . S
O253 C241 1.239 . S
O254 Tb232 2.399 . S
O254 C241 1.263 . S
C255 O244 1.261 . S
C255 O245 1.257 . S
C256 C259 1.358 . S
C256 C260 1.332 . S
C256 C262 1.504 . S
C257 C258 1.373 . S
C257 C261 1.308 . S
C258 C257 1.373 . S
C258 C259 1.429 . S
C258 H268 0.932 . S
C259 C256 1.358 . S
C259 C258 1.429 . S
C259 H269 0.930 . S
C260 C256 1.332 . S
C260 C261 1.394 . S
C260 H270 0.932 . S
C261 C257 1.308 . S
C261 C260 1.394 . S
C261 H271 0.929 . S
C262 Tb233 2.764 . S
C262 O246 1.239 . S
C262 O247 1.263 . S
C262 C256 1.504 . S
C263 O248 1.236 . S
C263 O249 1.257 1_556 S
H264 C237 0.932 . S
H265 C238 0.930 . S
H266 C239 0.932 . S
H267 C240 0.929 . S
H268 C258 0.932 . S
H269 C259 0.930 . S
H270 C260 0.932 . S
H271 C261 0.929 . S
Tb272 C281 2.764 . S
Tb272 O282 2.325 . S
Tb272 O285 2.303 . S
Tb272 O289 2.322 1_455 S
Tb272 O290 2.349 . S
Tb272 O293 2.415 . S
Tb272 O294 2.399 . S
Tb273 O283 2.322 1_655 S
Tb273 O284 2.349 1_554 S
Tb273 O286 2.415 . S
Tb273 O287 2.399 . S
Tb273 O288 2.325 1_554 S
Tb273 O291 2.303 . S
Tb273 C302 2.764 . S
C274 O290 1.261 . S
C274 O291 1.257 1_456 S
C275 C278 1.358 . S
C275 C279 1.332 . S
C275 C281 1.504 . S
C276 C277 1.373 . S
C276 C280 1.308 . S
C277 C276 1.373 . S
C277 C278 1.429 . S
C277 H304 0.932 . S
C278 C275 1.358 . S
C278 C277 1.429 . S
C278 H305 0.930 . S
C279 C275 1.332 . S
C279 C280 1.394 . S
C279 H306 0.932 . S
C280 C276 1.308 . S
C280 C279 1.394 . S
C280 H307 0.929 . S
C281 Tb272 2.764 . S
C281 C275 1.504 . S
C281 O293 1.239 . S
C281 O294 1.263 . S
O282 Tb272 2.325 . S
O282 C292 1.236 . S
O283 Tb273 2.322 1_455 S
O283 C292 1.257 1_554 S
O284 Tb273 2.349 1_556 S
O284 C295 1.261 . S
O285 Tb272 2.303 . S
O285 C295 1.257 1_455 S
O286 Tb273 2.415 . S
O286 C302 1.239 . S
O287 Tb273 2.399 . S
O287 C302 1.263 . S
O288 Tb273 2.325 1_556 S
O288 C303 1.236 . S
O289 Tb272 2.322 1_655 S
O289 C303 1.257 . S
O290 Tb272 2.349 . S
O290 C274 1.261 . S
O291 Tb273 2.303 . S
O291 C274 1.257 1_654 S
C292 O282 1.236 . S
C292 O283 1.257 1_556 S
O293 Tb272 2.415 . S
O293 C281 1.239 . S
O294 Tb272 2.399 . S
O294 C281 1.263 . S
C295 O284 1.261 . S
C295 O285 1.257 1_655 S
C296 C299 1.358 . S
C296 C300 1.332 . S
C296 C302 1.504 . S
C297 C298 1.373 . S
C297 C301 1.308 . S
C298 C297 1.373 . S
C298 C299 1.429 . S
C298 H308 0.932 . S
C299 C296 1.358 . S
C299 C298 1.429 . S
C299 H309 0.930 . S
C300 C296 1.332 . S
C300 C301 1.394 . S
C300 H310 0.932 . S
C301 C297 1.308 . S
C301 C300 1.394 . S
C301 H311 0.929 . S
C302 Tb273 2.764 . S
C302 O286 1.239 . S
C302 O287 1.263 . S
C302 C296 1.504 . S
C303 O288 1.236 . S
C303 O289 1.257 . S
H304 C277 0.932 . S
H305 C278 0.930 . S
H306 C279 0.932 . S
H307 C280 0.929 . S
H308 C298 0.932 . S
H309 C299 0.930 . S
H310 C300 0.932 . S
H311 C301 0.929 . S
C312 C313 1.369 1_565 S
C312 C314 1.419 . S
C312 H316 0.930 . S
C313 C312 1.369 1_545 S
C313 C322 1.429 . S
C314 C312 1.419 . S
C314 C315 1.363 1_565 S
C314 H317 0.929 . S
C315 C314 1.363 1_545 S
C315 C321 1.428 . S
H316 C312 0.930 . S
H317 C314 0.929 . S
S318 N319 1.613 . S
S318 N320 1.610 . S
N319 S318 1.613 . S
N319 C322 1.350 . S
N320 S318 1.610 . S
N320 C321 1.351 . S
C321 C315 1.428 . S
C321 N320 1.351 . S
C321 C322 1.434 . S
C322 C313 1.429 . S
C322 N319 1.350 . S
C322 C321 1.434 . S
C323 C324 1.369 . S
C323 C325 1.419 . S
C323 H327 0.930 . S
C324 C323 1.369 . S
C324 C333 1.429 . S
C325 C323 1.419 . S
C325 C326 1.363 . S
C325 H328 0.929 . S
C326 C325 1.363 . S
C326 C332 1.428 . S
H327 C323 0.930 . S
H328 C325 0.929 . S
S329 N330 1.613 . S
S329 N331 1.610 . S
N330 S329 1.613 . S
N330 C333 1.350 . S
N331 S329 1.610 . S
N331 C332 1.351 . S
C332 C326 1.428 . S
C332 N331 1.351 . S
C332 C333 1.434 . S
C333 C324 1.429 . S
C333 N330 1.350 . S
C333 C332 1.434 . S
C334 C335 1.369 . S
C334 C336 1.419 . S
C334 H338 0.930 . S
C335 C334 1.369 . S
C335 C344 1.429 . S
C336 C334 1.419 . S
C336 C337 1.363 . S
C336 H339 0.929 . S
C337 C336 1.363 . S
C337 C343 1.428 . S
H338 C334 0.930 . S
H339 C336 0.929 . S
S340 N341 1.613 . S
S340 N342 1.610 . S
N341 S340 1.613 . S
N341 C344 1.350 . S
N342 S340 1.610 . S
N342 C343 1.351 . S
C343 C337 1.428 . S
C343 N342 1.351 . S
C343 C344 1.434 . S
C344 C335 1.429 . S
C344 N341 1.350 . S
C344 C343 1.434 . S
C345 C346 1.369 . S
C345 C347 1.419 . S
C345 H349 0.930 . S
C346 C345 1.369 . S
C346 C355 1.429 1_455 S
C347 C345 1.419 . S
C347 C348 1.367 . S
C347 H350 0.929 . S
C348 C347 1.367 . S
C348 C354 1.425 1_455 S
H349 C345 0.930 . S
H350 C347 0.929 . S
S351 N352 1.613 . S
S351 N353 1.610 . S
N352 S351 1.613 . S
N352 C355 1.350 . S
N353 S351 1.610 . S
N353 C354 1.351 . S
C354 C348 1.425 1_655 S
C354 N353 1.351 . S
C354 C355 1.434 . S
C355 C346 1.429 1_655 S
C355 N352 1.350 . S
C355 C354 1.434 . S
C356 C357 1.380 . S
C356 C358 1.419 . S
C356 H360 0.930 . S
C357 C356 1.380 . S
C357 C366 1.414 1_565 S
C358 C356 1.419 . S
C358 C359 1.363 . S
C358 H361 0.929 . S
C359 C358 1.363 . S
C359 C365 1.428 1_565 S
H360 C356 0.930 . S
H361 C358 0.929 . S
S362 N363 1.613 . S
S362 N364 1.610 . S
N363 S362 1.613 . S
N363 C366 1.350 . S
N364 S362 1.610 . S
N364 C365 1.351 . S
C365 C359 1.428 1_545 S
C365 N364 1.351 . S
C365 C366 1.434 . S
C366 C357 1.414 1_545 S
C366 N363 1.350 . S
C366 C365 1.434 . S
C367 C368 1.369 . S
C367 C369 1.419 . S
C367 H371 0.930 . S
C368 C367 1.369 . S
C368 C377 1.429 . S
C369 C367 1.419 . S
C369 C370 1.363 . S
C369 H372 0.929 . S
C370 C369 1.363 . S
C370 C376 1.428 . S
H371 C367 0.930 . S
H372 C369 0.929 . S
S373 N374 1.613 1_554 S
S373 N375 1.610 1_554 S
N374 S373 1.613 1_556 S
N374 C377 1.350 . S
N375 S373 1.610 1_556 S
N375 C376 1.351 . S
C376 C370 1.428 . S
C376 N375 1.351 . S
C376 C377 1.434 . S
C377 C368 1.429 . S
C377 N374 1.350 . S
C377 C376 1.434 . S
C378 C379 1.369 . S
C378 C380 1.419 . S
C378 H382 0.930 . S
C379 C378 1.369 . S
C379 C388 1.429 . S
C380 C378 1.419 . S
C380 C381 1.363 . S
C380 H383 0.929 . S
C381 C380 1.363 . S
C381 C387 1.428 . S
H382 C378 0.930 . S
H383 C380 0.929 . S
S384 N385 1.613 . S
S384 N386 1.610 . S
N385 S384 1.613 . S
N385 C388 1.350 . S
N386 S384 1.610 . S
N386 C387 1.351 . S
C387 C381 1.428 . S
C387 N386 1.351 . S
C387 C388 1.434 . S
C388 C379 1.429 . S
C388 N385 1.350 . S
C388 C387 1.434 . S
C389 C390 1.366 1_455 S
C389 C391 1.419 . S
C389 H393 0.930 . S
C390 C389 1.366 1_655 S
C390 C399 1.432 . S
C391 C389 1.419 . S
C391 C392 1.358 1_455 S
C391 H394 0.929 . S
C392 C391 1.358 1_655 S
C392 C398 1.436 . S
H393 C389 0.930 . S
H394 C391 0.929 . S
S395 N396 1.613 . S
S395 N397 1.610 . S
N396 S395 1.613 . S
N396 C399 1.350 . S
N397 S395 1.610 . S
N397 C398 1.351 . S
C398 C392 1.436 . S
C398 N397 1.351 . S
C398 C399 1.434 . S
C399 C390 1.432 . S
C399 N396 1.350 . S
C399 C398 1.434 . S
C400 C401 1.369 . S
C400 C402 1.419 . S
C400 H404 0.930 1_655 S
C401 C400 1.369 . S
C401 C410 1.429 . S
C402 C400 1.419 . S
C402 C403 1.363 . S
C402 H405 0.929 . S
C403 C402 1.363 . S
C403 C409 1.428 . S
H404 C400 0.930 1_455 S
H405 C402 0.929 . S
S406 N407 1.613 . S
S406 N408 1.610 . S
N407 S406 1.613 . S
N407 C410 1.350 . S
N408 S406 1.610 . S
N408 C409 1.351 . S
C409 C403 1.428 . S
C409 N408 1.351 . S
C409 C410 1.434 . S
C410 C401 1.429 . S
C410 N407 1.350 . S
C410 C409 1.434 . S
C411 C412 1.369 1_565 S
C411 C413 1.419 . S
C411 H415 0.930 . S
C412 C411 1.369 1_545 S
C412 C421 1.429 . S
C413 C411 1.419 . S
C413 C414 1.363 . S
C413 H416 0.929 . S
C414 C413 1.363 . S
C414 C420 1.410 1_565 S
H415 C411 0.930 . S
H416 C413 0.929 . S
S417 N418 1.613 . S
S417 N419 1.610 . S
N418 S417 1.613 . S
N418 C421 1.350 . S
N419 S417 1.610 . S
N419 C420 1.361 . S
C420 C414 1.410 1_545 S
C420 N419 1.361 . S
C420 C421 1.444 . S
C421 C412 1.429 . S
C421 N418 1.350 . S
C421 C420 1.444 . S
C422 C423 1.369 . S
C422 C424 1.419 . S
C422 H426 0.930 1_556 S
C423 C422 1.369 . S
C423 C432 1.429 . S
C424 C422 1.419 . S
C424 C425 1.363 . S
C424 H427 0.929 1_556 S
C425 C424 1.363 . S
C425 C431 1.428 . S
H426 C422 0.930 1_554 S
H427 C424 0.929 1_554 S
S428 N429 1.613 . S
S428 N430 1.610 . S
N429 S428 1.613 . S
N429 C432 1.350 . S
N430 S428 1.610 . S
N430 C431 1.351 . S
C431 C425 1.428 . S
C431 N430 1.351 . S
C431 C432 1.434 . S
C432 C423 1.429 . S
C432 N429 1.350 . S
C432 C431 1.434 . S
C433 C434 1.369 . S
C433 C435 1.419 . S
C433 H437 0.930 . S
C434 C433 1.369 . S
C434 C443 1.429 . S
C435 C433 1.419 . S
C435 C436 1.363 . S
C435 H438 0.929 . S
C436 C435 1.363 . S
C436 C442 1.428 . S
H437 C433 0.930 . S
H438 C435 0.929 . S
S439 N440 1.613 . S
S439 N441 1.610 . S
N440 S439 1.613 . S
N440 C443 1.350 . S
N441 S439 1.610 . S
N441 C442 1.351 . S
C442 C436 1.428 . S
C442 N441 1.351 . S
C442 C443 1.434 . S
C443 C434 1.429 . S
C443 N440 1.350 . S
C443 C442 1.434 . S
C444 C445 1.369 1_655 S
C444 C446 1.419 1_655 S
C444 H448 0.930 . S
C445 C444 1.369 1_455 S
C445 C454 1.429 . S
C446 C444 1.419 1_455 S
C446 C447 1.363 . S
C446 H449 0.929 . S
C447 C446 1.363 . S
C447 C453 1.428 . S
H448 C444 0.930 . S
H449 C446 0.929 . S
S450 N451 1.613 . S
S450 N452 1.610 . S
N451 S450 1.613 . S
N451 C454 1.350 . S
N452 S450 1.610 . S
N452 C453 1.351 . S
C453 C447 1.428 . S
C453 N452 1.351 . S
C453 C454 1.434 . S
C454 C445 1.429 . S
C454 N451 1.350 . S
C454 C453 1.434 . S
C455 C456 1.369 1_545 S
C455 C457 1.419 . S
C455 H459 0.930 . S
C456 C455 1.369 1_565 S
C456 C465 1.429 . S
C457 C455 1.419 . S
C457 C458 1.363 . S
C457 H460 0.929 . S
C458 C457 1.363 . S
C458 C464 1.428 . S
H459 C455 0.930 . S
H460 C457 0.929 . S
S461 N462 1.613 . S
S461 N463 1.610 1_565 S
N462 S461 1.613 . S
N462 C465 1.350 . S
N463 S461 1.610 1_545 S
N463 C464 1.351 . S
C464 C458 1.428 . S
C464 N463 1.351 . S
C464 C465 1.434 1_545 S
C465 C456 1.429 . S
C465 N462 1.350 . S
C465 C464 1.434 1_565 S
C466 C467 1.369 . S
C466 C468 1.419 . S
C466 H470 0.930 . S
C467 C466 1.369 . S
C467 C476 1.429 . S
C468 C466 1.419 . S
C468 C469 1.363 . S
C468 H471 0.929 . S
C469 C468 1.363 . S
C469 C475 1.428 1_556 S
H470 C466 0.930 . S
H471 C468 0.929 . S
S472 N473 1.613 . S
S472 N474 1.610 . S
N473 S472 1.613 . S
N473 C476 1.350 1_554 S
N474 S472 1.610 . S
N474 C475 1.351 . S
C475 C469 1.428 1_554 S
C475 N474 1.351 . S
C475 C476 1.434 1_554 S
C476 C467 1.429 . S
C476 N473 1.350 1_556 S
C476 C475 1.434 1_556 S
C477 C478 1.369 . S
C477 C479 1.419 . S
C477 H481 0.930 . S
C478 C477 1.369 . S
C478 C487 1.429 . S
C479 C477 1.419 . S
C479 C480 1.363 . S
C479 H482 0.929 . S
C480 C479 1.363 . S
C480 C486 1.428 . S
H481 C477 0.930 . S
H482 C479 0.929 . S
S483 N484 1.613 . S
S483 N485 1.610 . S
N484 S483 1.613 . S
N484 C487 1.350 . S
N485 S483 1.610 . S
N485 C486 1.351 . S
C486 C480 1.428 . S
C486 N485 1.351 . S
C486 C487 1.434 . S
C487 C478 1.429 . S
C487 N484 1.350 . S
C487 C486 1.434 . S
C488 C489 1.369 . S
C488 C490 1.419 . S
C488 H492 0.930 . S
C489 C488 1.369 . S
C489 C498 1.429 1_554 S
C490 C488 1.419 . S
C490 C491 1.363 . S
C490 H493 0.929 . S
C491 C490 1.363 . S
C491 C497 1.428 1_554 S
H492 C488 0.930 . S
H493 C490 0.929 . S
S494 N495 1.613 . S
S494 N496 1.610 1_655 S
N495 S494 1.613 . S
N495 C498 1.350 1_655 S
N496 S494 1.610 1_455 S
N496 C497 1.351 . S
C497 C491 1.428 1_556 S
C497 N496 1.351 . S
C497 C498 1.434 . S
C498 C489 1.429 1_556 S
C498 N495 1.350 1_455 S
C498 C497 1.434 . S
C499 C500 1.369 1_566 S
C499 C501 1.419 . S
C499 H503 0.930 . S
C500 C499 1.369 1_544 S
C500 C509 1.429 . S
C501 C499 1.419 . S
C501 C502 1.363 1_566 S
C501 H504 0.929 . S
C502 C501 1.363 1_544 S
C502 C508 1.428 . S
H503 C499 0.930 . S
H504 C501 0.929 . S
S505 N506 1.613 . S
S505 N507 1.610 . S
N506 S505 1.613 . S
N506 C509 1.350 . S
N507 S505 1.610 . S
N507 C508 1.351 . S
C508 C502 1.428 . S
C508 N507 1.351 . S
C508 C509 1.434 . S
C509 C500 1.429 . S
C509 N506 1.350 . S
C509 C508 1.434 . S
C510 C511 1.369 . S
C510 C512 1.419 . S
C510 H514 0.930 . S
C511 C510 1.369 . S
C511 C520 1.429 . S
C512 C510 1.419 . S
C512 C513 1.363 . S
C512 H515 0.929 . S
C513 C512 1.363 . S
C513 C519 1.428 . S
H514 C510 0.930 . S
H515 C512 0.929 . S
S516 N517 1.613 . S
S516 N518 1.610 . S
N517 S516 1.613 . S
N517 C520 1.350 . S
N518 S516 1.610 . S
N518 C519 1.351 . S
C519 C513 1.428 . S
C519 N518 1.351 . S
C519 C520 1.434 . S
C520 C511 1.429 . S
C520 N517 1.350 . S
C520 C519 1.434 . S
C521 C522 1.369 . S
C521 C523 1.419 . S
C521 H525 0.930 . S
C522 C521 1.369 . S
C522 C531 1.429 1_554 S
C523 C521 1.419 . S
C523 C524 1.363 1_554 S
C523 H526 0.929 . S
C524 C523 1.363 1_556 S
C524 C530 1.428 . S
H525 C521 0.930 . S
H526 C523 0.929 . S
S527 N528 1.613 . S
S527 N529 1.610 . S
N528 S527 1.613 . S
N528 C531 1.350 . S
N529 S527 1.610 . S
N529 C530 1.351 . S
C530 C524 1.428 . S
C530 N529 1.351 . S
C530 C531 1.434 . S
C531 C522 1.429 1_556 S
C531 N528 1.350 . S
C531 C530 1.434 . S
C532 C533 1.369 . S
C532 C534 1.419 . S
C532 H536 0.930 . S
C533 C532 1.369 . S
C533 C542 1.429 1_655 S
C534 C532 1.419 . S
C534 C535 1.363 . S
C534 H537 0.929 . S
C535 C534 1.363 . S
C535 C541 1.428 1_655 S
H536 C532 0.930 . S
H537 C534 0.929 . S
S538 N539 1.613 . S
S538 N540 1.610 . S
N539 S538 1.613 . S
N539 C542 1.350 . S
N540 S538 1.610 . S
N540 C541 1.351 . S
C541 C535 1.428 1_455 S
C541 N540 1.351 . S
C541 C542 1.434 . S
C542 C533 1.429 1_455 S
C542 N539 1.350 . S
C542 C541 1.434 . S
C543 C544 1.369 1_545 S
C543 C545 1.419 . S
C543 H547 0.930 . S
C544 C543 1.369 1_565 S
C544 C553 1.429 . S
C545 C543 1.419 . S
C545 C546 1.363 1_545 S
C545 H548 0.929 . S
C546 C545 1.363 1_565 S
C546 C552 1.428 . S
H547 C543 0.930 . S
H548 C545 0.929 . S
S549 N550 1.613 . S
S549 N551 1.610 . S
N550 S549 1.613 . S
N550 C553 1.350 . S
N551 S549 1.610 . S
N551 C552 1.351 . S
C552 C546 1.428 . S
C552 N551 1.351 . S
C552 C553 1.434 . S
C553 C544 1.429 . S
C553 N550 1.350 . S
C553 C552 1.434 . S
C554 C555 1.369 . S
C554 C556 1.419 . S
C554 H558 0.930 . S
C555 C554 1.369 . S
C555 C564 1.429 . S
C556 C554 1.419 . S
C556 C557 1.363 . S
C556 H559 0.929 . S
C557 C556 1.363 . S
C557 C563 1.428 . S
H558 C554 0.930 . S
H559 C556 0.929 . S
S560 N561 1.613 . S
S560 N562 1.610 . S
N561 S560 1.613 . S
N561 C564 1.350 . S
N562 S560 1.610 . S
N562 C563 1.351 . S
C563 C557 1.428 . S
C563 N562 1.351 . S
C563 C564 1.434 . S
C564 C555 1.429 . S
C564 N561 1.350 . S
C564 C563 1.434 . S
C565 C566 1.369 . S
C565 C567 1.419 . S
C565 H569 0.930 . S
C566 C565 1.369 . S
C566 C575 1.429 . S
C567 C565 1.419 . S
C567 C568 1.363 . S
C567 H570 0.929 . S
C568 C567 1.363 . S
C568 C574 1.428 . S
H569 C565 0.930 . S
H570 C567 0.929 . S
S571 N572 1.613 . S
S571 N573 1.610 . S
N572 S571 1.613 . S
N572 C575 1.350 . S
N573 S571 1.610 . S
N573 C574 1.351 . S
C574 C568 1.428 . S
C574 N573 1.351 . S
C574 C575 1.434 . S
C575 C566 1.429 . S
C575 N572 1.350 . S
C575 C574 1.434 . S
C313 C125 2.190 1_545 S
C315 C175 2.213 1_545 S
C326 C215 1.866 . S
C324 C144 1.670 . S
C337 C234 2.223 . S
C335 C87 2.125 . S
C348 C295 1.532 1_455 S
C346 C106 1.508 1_455 S
C359 C154 2.211 1_564 S
C357 C49 2.187 . S
C368 C68 1.772 . S
C370 C194 1.869 . S
C379 C11 2.232 . S
C381 C255 2.226 1_554 S
C390 C30 1.509 . S
C392 C274 1.534 1_654 S
C403 C156 1.140 . S
C401 C97 1.147 . S
C414 C196 0.606 . S
C412 C116 0.610 1_545 S
C425 C252 1.497 . S
C423 C135 1.244 . S
C434 C78 0.683 . S
C436 C276 0.686 . S
C445 C21 1.152 1_455 S
C447 C177 1.143 . S
C458 C217 0.605 . S
C456 C40 0.612 . S
C469 C263 1.497 . S
C467 C59 1.247 . S
C478 C2 0.678 . S
C480 C297 0.698 . S
C489 C101 1.598 1_455 S
C491 C172 1.780 1_554 S
C500 C120 2.307 1_545 S
C502 C212 2.549 1_554 S
C513 C236 1.560 . S
C511 C139 1.587 . S
C524 C292 2.541 . S
C522 C82 2.303 . S
C533 C25 1.587 . S
C535 C183 1.790 . S
C546 C223 2.548 . S
C544 C44 2.306 . S
C557 C257 1.561 . S
C555 C63 1.578 . S
C566 C6 2.300 . S
C568 C303 2.547 . S
