# Generated by pormake.
# Topology zzz, (3,6)-cn, num edge types: 1
# Building blocks:
#     Node 0, Type 0, BuildingBlock: QEWDON_clean_linker_0, # of connection points: 3
#     Node 1, Type 0, BuildingBlock: QEWDON_clean_linker_0, # of connection points: 3
#     Node 2, Type 0, BuildingBlock: QEWDON_clean_linker_0, # of connection points: 3
#     Node 3, Type 0, BuildingBlock: QEWDON_clean_linker_0, # of connection points: 3
#     Node 4, Type 0, BuildingBlock: QEWDON_clean_linker_0, # of connection points: 3
#     Node 5, Type 0, BuildingBlock: QEWDON_clean_linker_0, # of connection points: 3
#     Node 6, Type 0, BuildingBlock: QEWDON_clean_linker_0, # of connection points: 3
#     Node 7, Type 0, BuildingBlock: QEWDON_clean_linker_0, # of connection points: 3
#     Node 8, Type 1, BuildingBlock: HISSIN_clean_sbu_0, # of connection points: 6
#     Node 9, Type 1, BuildingBlock: HISSIN_clean_sbu_0, # of connection points: 6
#     Node 10, Type 1, BuildingBlock: HISSIN_clean_sbu_0, # of connection points: 6
#     Node 11, Type 1, BuildingBlock: HISSIN_clean_sbu_0, # of connection points: 6
#     Edge 12, Type (0, 1), BuildingBlock: CIFDUS_clean_linker_0, # of connection points: 2
#     Edge 13, Type (0, 1), BuildingBlock: CIFDUS_clean_linker_0, # of connection points: 2
#     Edge 14, Type (0, 1), BuildingBlock: CIFDUS_clean_linker_0, # of connection points: 2
#     Edge 15, Type (0, 1), BuildingBlock: CIFDUS_clean_linker_0, # of connection points: 2
#     Edge 16, Type (0, 1), BuildingBlock: CIFDUS_clean_linker_0, # of connection points: 2
#     Edge 17, Type (0, 1), BuildingBlock: CIFDUS_clean_linker_0, # of connection points: 2
#     Edge 18, Type (0, 1), BuildingBlock: CIFDUS_clean_linker_0, # of connection points: 2
#     Edge 19, Type (0, 1), BuildingBlock: CIFDUS_clean_linker_0, # of connection points: 2
#     Edge 20, Type (0, 1), BuildingBlock: CIFDUS_clean_linker_0, # of connection points: 2
#     Edge 21, Type (0, 1), BuildingBlock: CIFDUS_clean_linker_0, # of connection points: 2
#     Edge 22, Type (0, 1), BuildingBlock: CIFDUS_clean_linker_0, # of connection points: 2
#     Edge 23, Type (0, 1), BuildingBlock: CIFDUS_clean_linker_0, # of connection points: 2
#     Edge 24, Type (0, 1), BuildingBlock: CIFDUS_clean_linker_0, # of connection points: 2
#     Edge 25, Type (0, 1), BuildingBlock: CIFDUS_clean_linker_0, # of connection points: 2
#     Edge 26, Type (0, 1), BuildingBlock: CIFDUS_clean_linker_0, # of connection points: 2
#     Edge 27, Type (0, 1), BuildingBlock: CIFDUS_clean_linker_0, # of connection points: 2
#     Edge 28, Type (0, 1), BuildingBlock: CIFDUS_clean_linker_0, # of connection points: 2
#     Edge 29, Type (0, 1), BuildingBlock: CIFDUS_clean_linker_0, # of connection points: 2
#     Edge 30, Type (0, 1), BuildingBlock: CIFDUS_clean_linker_0, # of connection points: 2
#     Edge 31, Type (0, 1), BuildingBlock: CIFDUS_clean_linker_0, # of connection points: 2
#     Edge 32, Type (0, 1), BuildingBlock: CIFDUS_clean_linker_0, # of connection points: 2
#     Edge 33, Type (0, 1), BuildingBlock: CIFDUS_clean_linker_0, # of connection points: 2
#     Edge 34, Type (0, 1), BuildingBlock: CIFDUS_clean_linker_0, # of connection points: 2
#     Edge 35, Type (0, 1), BuildingBlock: CIFDUS_clean_linker_0, # of connection points: 2
# Relax obj value: 0.215
# Max RMSD: 0.201
# Mean RMSD: 0.068
data_MOF--net-zzz--node1-HISSIN_clean_sbu_0--node2-QEWDON_clean_linker_0--edge1-CIFDUS_clean_linker_0
_symmetry_space_group_name_H-M    P1
_symmetry_Int_Tables_number       1
_symmetry_cell_setting            triclinic
loop_
_symmetry_equiv_pos_as_xyz
'x, y, z'
_cell_length_a     47.138023
_cell_length_b     47.16624
_cell_length_c     14.078395
_cell_angle_alpha  90.184901
_cell_angle_beta   91.612117
_cell_angle_gamma 90.426385
loop_
_atom_site_label
_atom_site_type_symbol
_atom_site_fract_x
_atom_site_fract_y
_atom_site_fract_z
_atom_type_partial_charge
H0 H 0.77311 0.52306 0.20541 0.0
C1 C 0.78688 0.52436 0.26808 0.0
C2 C 0.81314 0.51066 0.26628 0.0
C3 C 0.77902 0.54033 0.3481 0.0
H4 H 0.8532 0.50401 0.33982 0.0
C5 C 0.83234 0.5135 0.34338 0.0
C6 C 0.82611 0.52999 0.42223 0.0
C7 C 0.79922 0.54302 0.42564 0.0
C8 C 0.75061 0.55524 0.34731 0.0
H9 H 0.79441 0.55513 0.48842 0.0
C10 C 0.72687 0.54578 0.28974 0.0
C11 C 0.70078 0.56056 0.28883 0.0
C12 C 0.74724 0.57994 0.40236 0.0
H13 H 0.76465 0.5889 0.44436 0.0
C14 C 0.72141 0.59419 0.4026 0.0
H15 H 0.7282 0.52678 0.24696 0.0
C16 C 0.6984 0.5846 0.34684 0.0
H17 H 0.67876 0.59637 0.34761 0.0
H18 H 0.71934 0.61309 0.44559 0.0
H19 H 0.06331 0.7736 0.19399 0.0
C20 C 0.06014 0.787 0.25518 0.0
C21 C 0.07476 0.81292 0.25997 0.0
C22 C 0.0408 0.77915 0.32504 0.0
H23 H 0.08018 0.85263 0.33422 0.0
C24 C 0.06968 0.83207 0.3337 0.0
C25 C 0.05015 0.82595 0.40375 0.0
C26 C 0.03623 0.79905 0.40084 0.0
C27 C 1.02409 0.75149 0.31271 0.0
H28 H 1.02164 0.7942 0.45646 0.0
C29 C 0.03338 0.72827 0.25491 0.0
C30 C 1.0163 0.70349 0.24019 0.0
C31 C 0.99743 0.74874 0.35456 0.0
H32 H 0.98861 0.7657 0.39588 0.0
C33 C 0.98089 0.72436 0.34138 0.0
H34 H 0.05388 0.72892 0.2225 0.0
C35 C 0.99009 0.70211 0.28505 0.0
H36 H 0.97626 0.68382 0.27517 0.0
H37 H 0.96041 0.72288 0.37404 0.0
H38 H 0.79699 0.06878 0.18953 0.0
C39 C 0.78228 0.06191 0.24259 0.0
C40 C 0.75459 0.07229 0.23713 0.0
C41 C 0.79115 0.04384 0.317 0.0
H42 H 0.71351 0.07247 0.29897 0.0
C43 C 0.73503 0.06452 0.30546 0.0
C44 C 0.74218 0.04608 0.37986 0.0
C45 C 0.77061 0.03596 0.38626 0.0
C46 C 0.8222 0.0353 0.32402 0.0
H47 H 0.77637 1.02161 0.44331 0.0
C48 C 0.83991 0.03336 0.2428 0.0
C49 C 0.86988 0.02894 0.2523 0.0
C50 C 0.83509 0.03154 0.41417 0.0
H51 H 0.82299 0.03337 0.47804 0.0
C52 C 0.86416 0.02687 0.42433 0.0
H53 H 0.83039 0.03517 0.17238 0.0
C54 C 0.88134 0.02603 0.34532 0.0
H55 H 0.90391 0.02383 0.35862 0.0
H56 H 0.87368 0.02467 0.49479 0.0
H57 H 0.50497 0.79116 0.2102 0.0
C58 C 0.51071 0.77797 0.27028 0.0
C59 C 0.49374 0.75406 0.2875 0.0
C60 C 0.53591 0.78343 0.32371 0.0
H61 H 0.48909 0.71634 0.37174 0.0
C62 C 0.50136 0.7356 0.36178 0.0
C63 C 0.52644 0.73943 0.41582 0.0
C64 C 0.54364 0.76355 0.39696 0.0
C65 C 0.55521 0.80777 0.29434 0.0
H66 H 0.56296 0.76639 0.43915 0.0
C67 C 0.54519 0.83175 0.24058 0.0
C68 C 0.56432 0.85223 0.20383 0.0
C69 C 0.58466 0.80603 0.31324 0.0
H70 H 0.59385 0.78821 0.35065 0.0
C71 C 0.60328 0.82671 0.28086 0.0
H72 H 0.52277 0.83436 0.22506 0.0
C73 C 0.59336 0.84935 0.22642 0.0
H74 H 0.6086 0.86475 0.20163 0.0
H75 H 0.62581 0.82482 0.2964 0.0
H76 H 0.30644 0.5749 0.21692 0.0
C77 C 0.29025 0.56612 0.16902 0.0
C78 C 0.26381 0.57957 0.1612 0.0
C79 C 0.29603 0.54193 0.11397 0.0
H80 H 0.22213 0.57834 0.09326 0.0
C81 C 0.24299 0.56879 0.09722 0.0
C82 C 0.24767 0.54473 0.04215 0.0
C83 C 0.27418 0.53103 0.05133 0.0
C84 C 0.32536 0.52945 0.11767 0.0
H85 H 0.27773 0.51211 1.00967 0.0
C86 C 0.34256 0.52861 0.20279 0.0
C87 C 0.37064 0.51784 0.20218 0.0
C88 C 0.33702 0.51967 0.0329 0.0
H89 H 0.32508 0.52063 0.96619 0.0
C90 C 0.36465 0.50946 0.0318 0.0
H91 H 0.33402 0.53569 0.26933 0.0
C92 C 0.38129 0.50862 0.11504 0.0
H93 H 0.4028 0.5009 0.11083 0.0
H94 H 0.37336 0.50237 0.96556 0.0
H95 H 0.07692 0.30705 0.24219 0.0
C96 C 0.07211 0.29129 0.18806 0.0
C97 C 0.077 0.263 0.21093 0.0
C98 C 0.06012 0.29906 0.09953 0.0
H99 H 0.07536 0.21991 0.16076 0.0
C100 C 0.07269 0.24196 0.14121 0.0
C101 C 0.0624 0.24821 0.04943 0.0
C102 C 0.05523 0.27703 0.02957 0.0
C103 C 0.05324 0.33017 0.08333 0.0
H104 H 0.04585 0.28202 0.96073 0.0
C105 C 0.0482 0.34953 0.16018 0.0
C106 C 0.0437 0.37891 0.14407 0.0
C107 C 0.05307 0.34123 0.99074 0.0
H108 H 0.0574 0.32789 0.9303 0.0
C109 C 0.0482 0.36998 0.9744 0.0
H110 H 0.04709 0.34201 0.23243 0.0
C111 C 0.04368 0.38857 0.0497 0.0
H112 H 0.04047 0.4108 0.03387 0.0
H113 H 0.04832 0.37804 0.9025 0.0
H114 H 0.27476 0.9936 0.2382 0.0
C115 C 0.28993 1.00147 0.18825 0.0
C116 C 0.31552 0.98695 0.18101 0.0
C117 C 0.28385 0.02538 0.13186 0.0
H118 H 0.35541 0.98448 0.11145 0.0
C119 C 0.33531 0.99547 0.11424 0.0
C120 C 0.33077 1.01908 0.05596 0.0
C121 C 0.30501 0.03444 0.06627 0.0
C122 C 0.25484 0.03921 0.1394 0.0
H123 H 0.3016 0.05309 0.02309 0.0
C124 C 0.23792 0.03707 0.22263 0.0
C125 C 0.20944 0.04727 0.22404 0.0
C126 C 0.24269 0.05274 0.05951 0.0
H127 H 0.254 0.05443 0.99397 0.0
C128 C 0.21512 0.06323 0.06073 0.0
H129 H 0.2468 0.0277 0.28666 0.0
C130 C 0.19863 0.06028 0.14092 0.0
H131 H 0.17696 0.06766 0.13618 0.0
H132 H 0.2061 0.07313 0.99763 0.0
H133 H 0.49326 0.26341 0.23154 0.0
C134 C 0.49941 0.27833 0.17767 0.0
C135 C 0.49334 0.30683 0.19314 0.0
C136 C 0.514 0.26941 0.09709 0.0
H137 H 0.49541 0.34903 0.13637 0.0
C138 C 0.49918 0.32677 0.12263 0.0
C139 C 0.51225 0.31934 0.03828 0.0
C140 C 0.52053 0.29046 0.02672 0.0
C141 C 0.52155 0.23814 0.08916 0.0
H142 H 0.53191 0.28469 0.96399 0.0
C143 C 0.52406 0.22 0.17078 0.0
C144 C 0.52761 0.19016 0.16212 0.0
C145 C 0.52446 0.22557 0.99935 0.0
H146 H 0.52238 0.23797 0.93508 0.0
C147 C 0.52917 0.19648 0.99041 0.0
H148 H 0.52284 0.22877 0.2415 0.0
C149 C 0.53046 0.17897 0.07026 0.0
H150 H 0.53397 0.15653 0.05977 0.0
H151 H 0.53136 0.18728 0.92047 0.0
Eu152 Eu 1.01902 0.04627 0.67534 0.0
Eu153 Eu 0.0667 1.02178 0.81869 0.0
C154 C 0.05253 0.09042 0.81724 0.0
C155 C 0.99236 0.10024 0.52211 0.0
C156 C 0.99535 0.12205 0.59058 0.0
C157 C 1.02295 0.12664 0.41867 0.0
C158 C 1.01357 0.1449 0.57564 0.0
C159 C 1.00464 0.10387 0.43337 0.0
C160 C 0.02878 0.14635 0.49182 0.0
C161 C 0.98595 0.07121 0.55351 0.0
O162 O 0.02677 0.02552 0.90738 0.0
O163 O 0.9918 0.02891 0.79193 0.0
C164 C 0.99961 0.02571 0.88143 0.0
O165 O 1.02246 1.00014 0.62906 0.0
O166 O 0.07969 0.99849 0.9454 0.0
O167 O 0.11109 1.02199 0.86761 0.0
O168 O 0.05247 0.98086 0.74262 0.0
C169 C 0.03606 0.97815 0.66551 0.0
O170 O 0.06225 0.05884 0.61731 0.0
O171 O 0.08753 1.02168 0.67497 0.0
O172 O 0.07086 0.06995 0.83492 0.0
O173 O 1.00458 0.05245 0.52841 0.0
O174 O 0.97946 0.06852 0.64253 0.0
O175 O 0.02926 0.08525 0.76649 0.0
C176 C 0.12559 0.98029 0.94649 0.0
C177 C 0.13856 0.97502 0.03503 0.0
C178 C 0.139 0.93353 0.89274 0.0
C179 C 0.15 0.94846 0.05458 0.0
C180 C 0.12722 0.96009 0.87362 0.0
C181 C 0.14849 0.9267 0.98563 0.0
C182 C 0.10656 1.00448 0.93703 0.0
C183 C 0.08461 0.0423 0.6133 0.0
H184 H 0.98591 0.12017 0.65956 0.0
H185 H 0.03356 0.12811 0.35155 0.0
H186 H 1.01717 0.16034 0.63193 0.0
H187 H 1.00255 0.08756 0.37919 0.0
H188 H 0.1376 0.99055 0.09176 0.0
H189 H 0.13819 0.91756 0.83729 0.0
H190 H 0.15701 0.94426 0.12701 0.0
H191 H 0.11746 0.96404 0.80435 0.0
Eu192 Eu 0.54159 0.04558 0.77027 0.0
Eu193 Eu 0.52466 0.99721 0.61831 0.0
C194 C 0.5472 0.98016 0.82293 0.0
C195 C 0.57967 0.10452 0.90917 0.0
C196 C 0.58455 0.11661 0.9989 0.0
C197 C 0.62555 0.12178 0.85999 0.0
C198 C 0.61046 0.12982 0.02096 0.0
C199 C 0.59962 0.10837 0.8382 0.0
C200 C 0.63198 0.13097 0.95346 0.0
C201 C 0.55637 0.08412 0.89603 0.0
O202 O 0.48566 1.00004 0.70981 0.0
O203 O 0.49315 0.04313 0.78189 0.0
C204 C 0.4765 1.02115 0.76219 0.0
O205 O 0.53923 0.06953 0.62989 0.0
O206 O 0.52264 0.95168 0.5922 0.0
O207 O 0.51047 0.98058 0.47978 0.0
O208 O 0.51185 0.03809 0.54282 0.0
C209 C 0.52385 0.06335 0.55302 0.0
O210 O 0.58453 0.03501 0.70179 0.0
O211 O 0.56726 1.01187 0.56871 0.0
O212 O 0.55296 0.9779 0.73285 0.0
O213 O 0.53837 0.08871 0.82581 0.0
O214 O 0.56387 0.05759 0.90165 0.0
O215 O 0.53637 1.00403 0.85269 0.0
C216 C 0.48651 0.93678 0.48386 0.0
C217 C 0.48124 0.92855 0.38952 0.0
C218 C 0.44042 0.91811 0.52578 0.0
C219 C 0.45512 0.91663 0.36228 0.0
C220 C 0.46648 0.93043 0.55275 0.0
C221 C 0.43376 0.91269 0.42927 0.0
C222 C 0.51166 0.95421 0.50687 0.0
C223 C 0.58845 0.02407 0.61627 0.0
H224 H 0.56931 0.11377 0.05438 0.0
H225 H 0.6414 0.12281 0.80585 0.0
H226 H 0.6145 0.1364 0.09386 0.0
H227 H 0.59602 0.09919 0.76819 0.0
H228 H 0.49661 0.93308 0.33564 0.0
H229 H 0.42476 0.91481 0.57954 0.0
H230 H 0.45094 0.91305 0.28718 0.0
H231 H 0.47029 0.93638 0.62643 0.0
Eu232 Eu 0.50631 0.5442 0.85683 0.0
Eu233 Eu 0.54775 0.52623 0.69231 0.0
C234 C 0.5746 0.54289 0.89376 0.0
C235 C 0.45128 0.57948 1.00998 0.0
C236 C 0.44274 0.5982 0.93763 0.0
C237 C 0.42952 0.60962 0.12611 0.0
C238 C 0.42867 0.62321 0.9602 0.0
C239 C 0.44325 0.58452 0.10328 0.0
C240 C 0.42365 0.63012 0.05567 0.0
C241 C 0.4716 0.55693 0.99168 0.0
O242 O 0.54294 0.48561 0.78016 0.0
O243 O 0.50054 0.49646 0.84312 0.0
C244 C 0.51987 0.47756 0.8233 0.0
O245 O 0.48119 0.55143 0.71975 0.0
O246 O 0.58614 0.50524 0.64566 0.0
O247 O 0.5568 0.52324 0.54163 0.0
O248 O 0.50265 0.51627 0.63931 0.0
C249 C 0.4813 0.53376 0.64773 0.0
O250 O 0.51684 0.58699 0.79087 0.0
O251 O 0.54284 0.57352 0.66227 0.0
O252 O 0.57684 0.54667 0.8021 0.0
O253 O 0.4651 0.5396 0.92201 0.0
O254 O 0.49818 0.56493 0.99171 0.0
O255 O 0.54976 0.53634 0.92879 0.0
C256 C 0.56899 0.476 0.52045 0.0
C257 C 0.56548 0.45349 0.58476 0.0
C258 C 0.53889 0.45093 0.40547 0.0
C259 C 0.54742 0.43088 0.56181 0.0
C260 C 0.5568 0.47372 0.42876 0.0
C261 C 0.53297 0.43005 0.47348 0.0
C262 C 0.57642 0.50431 0.55787 0.0
C263 C 0.53017 0.59325 0.7121 0.0
H264 H 0.4486 0.5944 0.86481 0.0
H265 H 0.42623 0.61401 0.20049 0.0
H266 H 0.42387 0.63816 0.9039 0.0
H267 H 0.44952 0.5701 0.15975 0.0
H268 H 0.57463 0.45444 0.65613 0.0
H269 H 0.52891 0.45018 0.33525 0.0
H270 H 0.54361 0.4149 0.61518 0.0
H271 H 0.55909 0.49077 0.37808 0.0
Eu272 Eu 0.04892 0.56372 0.61141 0.0
Eu273 Eu 0.03328 0.51844 0.77305 0.0
C274 C 0.09892 0.53819 0.75465 0.0
C275 C 0.09181 0.61394 0.46572 0.0
C276 C 0.11717 0.60124 0.4964 0.0
C277 C 0.11893 0.65199 0.39489 0.0
C278 C 0.14316 0.61293 0.47254 0.0
C279 C 0.09274 0.63989 0.41768 0.0
C280 C 0.14454 0.63798 0.41835 0.0
C281 C 0.06471 0.59933 0.48108 0.0
O282 O 0.02663 0.56114 0.84703 0.0
O283 O 0.05199 0.58946 0.7477 0.0
C284 C 0.03885 0.58568 0.82798 0.0
O285 O 1.00136 0.56757 0.61718 0.0
O286 O 1.02359 0.50449 0.91657 0.0
O287 O 1.02352 0.47414 0.80112 0.0
O288 O 0.99134 0.5257 0.69128 0.0
C289 C 0.98304 0.54804 0.64219 0.0
O290 O 0.03687 0.52218 0.53556 0.0
O291 O 0.05446 0.49464 0.65363 0.0
O292 O 0.07969 0.52696 0.80947 0.0
O293 O 0.06516 0.57183 0.47093 0.0
O294 O 0.05114 0.60701 0.55615 0.0
O295 O 0.09188 0.54972 0.67205 0.0
C296 C 0.98881 0.46859 0.9163 0.0
C297 C 0.96581 0.46791 0.85052 0.0
C298 C 0.95729 0.45465 0.04087 0.0
C299 C 0.93858 0.46119 0.8803 0.0
C300 C 0.98445 0.4615 1.01105 0.0
C301 C 0.93395 0.45509 0.97625 0.0
C302 C 1.01684 0.47887 0.8888 0.0
C303 C 0.04655 0.4975 0.56412 0.0
H304 H 0.11694 0.58135 0.53456 0.0
H305 H 0.11898 0.6716 0.35522 0.0
H306 H 0.16194 0.60089 0.49111 0.0
H307 H 0.07328 0.65027 0.39497 0.0
H308 H 0.96869 0.47356 0.77687 0.0
H309 H 0.95434 0.45074 0.11574 0.0
H310 H 0.921 0.46177 0.8291 0.0
H311 H 1.0019 0.46252 0.06268 0.0
H312 H 0.16636 0.08221 0.28502 0.0
H313 H 0.20805 1.00353 0.3555 0.0
H314 H 0.17443 0.99552 0.48204 0.0
H315 H 0.13131 1.00957 0.56933 0.0
H316 H 0.08854 0.08694 0.49029 0.0
H317 H 0.12377 0.09607 0.37022 0.0
C318 C 0.16816 0.06305 0.32687 0.0
C319 C 0.19014 0.04347 0.3084 0.0
C320 C 0.14812 0.0581 0.39845 0.0
C321 C 0.19197 1.01933 0.36713 0.0
C322 C 0.1724 1.01453 0.4395 0.0
C323 C 0.12967 0.02848 0.52606 0.0
C324 C 0.10691 0.04749 0.53995 0.0
C325 C 0.15012 0.03358 0.45534 0.0
C326 C 0.10547 0.0718 0.48216 0.0
C327 C 0.12577 0.0771 0.41307 0.0
H328 H 0.50434 0.13654 0.17651 0.0
H329 H 0.5521 0.1987 0.34124 0.0
H330 H 0.55458 0.16593 0.47573 0.0
H331 H 0.5445 0.11862 0.54629 0.0
H332 H 0.49679 0.05686 0.37921 0.0
H333 H 0.49342 0.09015 0.24726 0.0
C334 C 0.51551 0.14302 0.24143 0.0
C335 C 0.52815 0.17039 0.24717 0.0
C336 C 0.51698 0.1239 0.31894 0.0
C337 C 0.5419 0.17815 0.3337 0.0
C338 C 0.5435 0.15921 0.41093 0.0
C339 C 0.53322 0.1124 0.48127 0.0
C340 C 0.52092 0.08488 0.47398 0.0
C341 C 0.53127 0.1319 0.40444 0.0
C342 C 0.50646 0.07762 0.38826 0.0
C343 C 0.50454 0.09675 0.31211 0.0
H344 H 0.38065 0.55714 0.34641 0.0
H345 H 0.40356 0.47309 0.25597 0.0
H346 H 0.43939 0.4705 0.38349 0.0
H347 H 0.4664 0.49276 0.51653 0.0
H348 H 0.44267 0.57588 0.61331 0.0
H349 H 0.4054 0.57803 0.4891 0.0
C350 C 0.39313 0.53808 0.35562 0.0
C351 C 0.38946 0.51553 0.29004 0.0
C352 C 0.41397 0.53661 0.43023 0.0
C353 C 0.4061 0.49106 0.30365 0.0
C354 C 0.4267 0.4895 0.37693 0.0
C355 C 0.45302 0.51132 0.51084 0.0
C356 C 0.45762 0.53417 0.57439 0.0
C357 C 0.43125 0.51231 0.43969 0.0
C358 C 0.43974 0.5579 0.56587 0.0
C359 C 0.41835 0.55919 0.49448 0.0
H360 H 0.07366 0.38747 0.31538 0.0
H361 H 1.00208 0.41843 0.1509 0.0
H362 H 0.99728 0.45819 0.26082 0.0
H363 H 1.01446 0.48576 0.40157 0.0
H364 H 0.08354 0.45304 0.57445 0.0
H365 H 0.08817 0.41293 0.4652 0.0
C366 C 0.05674 0.40265 0.30442 0.0
C367 C 0.03866 0.40014 0.22273 0.0
C368 C 0.05382 0.42557 0.36959 0.0
C369 C 1.01684 0.42018 0.21092 0.0
C370 C 1.014 0.44296 0.27427 0.0
C371 C 0.03058 0.46991 0.41532 0.0
C372 C 0.04886 0.47287 0.49617 0.0
C373 C 0.03268 0.44627 0.35305 0.0
C374 C 0.06922 0.4516 0.51307 0.0
C375 C 0.07188 0.42852 0.45034 0.0
H376 H 0.92206 1.00215 0.23591 0.0
H377 H 0.86362 0.05489 0.07519 0.0
H378 H 0.89704 0.05693 0.946 0.0
H379 H 0.94455 0.04609 0.88041 0.0
H380 H 1.00434 0.99819 0.05154 0.0
H381 H 0.96925 0.99297 0.17489 0.0
C382 C 0.91645 1.0147 0.17405 0.0
C383 C 0.88977 0.02861 0.16823 0.0
C384 C 0.93645 1.01692 0.10098 0.0
C385 C 0.88338 0.04354 0.08359 0.0
C386 C 0.90281 0.04502 1.00925 0.0
C387 C 0.94988 0.03439 0.94451 0.0
C388 C 0.97733 1.02245 0.95571 0.0
C389 C 0.92962 0.03209 0.01738 0.0
C390 C 0.98367 1.00769 0.04028 0.0
C391 C 0.96347 1.00464 0.11112 0.0
H392 H 0.58758 0.86849 0.03731 0.0
H393 H 0.52085 0.89085 0.2258 0.0
H394 H 0.51016 0.93295 0.12878 0.0
H395 H 0.52087 0.9645 0.99014 0.0
H396 H 0.58693 0.93963 0.80155 0.0
H397 H 0.59694 0.89813 0.89891 0.0
C398 C 0.57062 0.8825 0.05739 0.0
C399 C 0.5552 0.87636 0.13966 0.0
C400 C 0.56465 0.90665 1.00124 0.0
C401 C 0.53301 0.89473 0.16294 0.0
C402 C 0.52705 0.91903 0.10764 0.0
C403 C 0.53759 0.9501 0.9709 0.0
C404 C 0.55331 0.95562 0.88837 0.0
C405 C 0.54294 0.92546 0.02686 0.0
C406 C 0.57451 0.93624 0.86416 0.0
C407 C 0.58026 0.91233 0.91995 0.0
H408 H 0.69678 0.55729 0.09472 0.0
H409 H 0.64782 0.54619 0.34567 0.0
H410 H 0.60461 0.53907 0.2475 0.0
H411 H 0.57996 0.53863 0.08947 0.0
H412 H 0.62909 0.55183 0.83904 0.0
H413 H 0.67238 0.55559 0.9368 0.0
C414 C 0.67673 0.55273 0.12763 0.0
C415 C 0.67566 0.55191 0.2275 0.0
C416 C 0.65169 0.54948 0.0705 0.0
C417 C 0.64932 0.54666 0.26904 0.0
C418 C 0.62453 0.54278 0.21282 0.0
C419 C 0.60012 0.54227 0.05615 0.0
C420 C 0.6009 0.54506 0.95636 0.0
C421 C 0.62529 0.54462 0.11333 0.0
C422 C 0.62747 0.54974 0.91527 0.0
C423 C 0.65245 0.55183 0.97131 0.0
H424 H 0.03546 0.70335 0.05553 0.0
H425 H 1.01478 0.64719 0.28474 0.0
H426 H 1.01947 0.60619 0.18022 0.0
H427 H 0.02665 0.58577 0.01992 0.0
H428 H 0.0487 0.64179 0.79153 0.0
H429 H 0.04623 0.68255 0.89794 0.0
C430 C 0.03255 0.68212 0.08314 0.0
C431 C 1.02455 0.67868 0.17851 0.0
C432 C 0.03509 0.65827 0.02175 0.0
C433 C 1.02067 0.65077 0.21189 0.0
C434 C 1.02326 0.62716 0.1518 0.0
C435 C 0.03095 0.60686 0.99328 0.0
C436 C 0.03764 0.61034 0.89665 0.0
C437 C 0.02986 0.63057 0.05583 0.0
C438 C 0.04344 0.63808 0.86487 0.0
C439 C 0.04204 0.66162 0.92604 0.0
H440 H 0.11181 0.22272 0.28684 0.0
H441 H 0.04827 0.28341 0.36204 0.0
H442 H 0.03209 0.25246 0.48696 0.0
H443 H 1.02399 0.2025 0.52566 0.0
H444 H 0.08244 0.13933 0.43009 0.0
H445 H 0.1122 0.17614 0.36197 0.0
C446 C 0.09526 0.22958 0.33363 0.0
C447 C 0.08005 0.25427 0.3116 0.0
C448 C 0.08414 0.21043 0.39863 0.0
C449 C 0.05974 0.26394 0.37526 0.0
C450 C 0.05002 0.24594 0.4458 0.0
C451 C 0.04383 0.19699 0.49325 0.0
C452 C 0.05053 0.16844 0.47881 0.0
C453 C 0.06005 0.2181 0.45053 0.0
C454 C 0.07646 0.16132 0.43838 0.0
C455 C 0.0935 0.18233 0.39986 0.0
H456 H 0.33629 0.93429 0.14874 0.0
H457 H 0.31449 0.99206 0.3726 0.0
H458 H 0.34499 0.96644 0.48484 0.0
H459 H 0.38771 0.93827 0.5025 0.0
H460 H 0.41173 0.88159 0.27761 0.0
H461 H 0.36999 0.89565 0.18324 0.0
C462 C 0.33743 0.94047 0.22306 0.0
C463 C 0.32399 0.96542 0.25209 0.0
C464 C 0.35588 0.92631 0.28627 0.0
C465 C 0.32494 0.97306 0.34859 0.0
C466 C 0.34263 0.95859 0.41258 0.0
C467 C 0.38329 0.9278 0.435 0.0
C468 C 0.4037 0.91003 0.39505 0.0
C469 C 0.3598 0.93664 0.38009 0.0
C470 C 0.39702 0.89635 0.30818 0.0
C471 C 0.37319 0.90445 0.25398 0.0
H472 H 0.45616 0.3478 0.24417 0.0
H473 H 0.51793 0.2897 0.36097 0.0
H474 H 0.53114 0.32362 0.48457 0.0
H475 H 0.53801 0.37425 0.51515 0.0
H476 H 0.48129 0.43462 0.38237 0.0
H477 H 0.45397 0.39604 0.30758 0.0
C478 C 0.47162 0.34221 0.29945 0.0
C479 C 0.4874 0.31727 0.28989 0.0
C480 C 0.48124 0.36298 0.36399 0.0
C481 C 0.50616 0.30929 0.36441 0.0
C482 C 0.51422 0.32899 0.43421 0.0
C483 C 0.51904 0.37894 0.47286 0.0
C484 C 0.51236 0.40713 0.45059 0.0
C485 C 0.50407 0.35677 0.42778 0.0
C486 C 0.4875 0.41296 0.39686 0.0
C487 C 0.47175 0.39093 0.35478 0.0
H488 H 0.23416 0.62718 0.11796 0.0
H489 H 0.27504 0.58375 0.35285 0.0
H490 H 0.24551 0.60903 0.46406 0.0
H491 H 0.19923 0.63081 0.48737 0.0
H492 H 0.1519 0.66284 0.24359 0.0
H493 H 0.19273 0.65646 0.1458 0.0
C494 C 0.23708 0.62386 0.19383 0.0
C495 C 0.2558 0.60273 0.22681 0.0
C496 C 0.21817 0.63627 0.25629 0.0
C497 C 0.2604 0.5995 0.32525 0.0
C498 C 0.24319 0.6137 0.38892 0.0
C499 C 0.19785 0.63666 0.41299 0.0
C500 C 0.17174 0.64567 0.37238 0.0
C501 C 0.22044 0.63009 0.35426 0.0
C502 C 0.17122 0.65519 0.27756 0.0
C503 C 0.1946 0.65114 0.22057 0.0
H504 H 0.12913 0.83207 0.27066 0.0
H505 H 0.05943 0.81529 0.07324 0.0
H506 H 0.08208 0.8442 0.95314 0.0
H507 H 0.11412 0.88354 0.92404 0.0
H508 H 0.18346 0.90204 0.12212 0.0
H509 H 0.16899 0.86241 0.22124 0.0
C510 C 0.1195 0.83404 0.2001 0.0
C511 C 0.09247 0.82226 0.18099 0.0
C512 C 0.1323 0.85129 0.13237 0.0
C513 C 0.08019 0.8244 0.08936 0.0
C514 C 0.09304 0.84109 0.02101 0.0
C515 C 0.12706 0.87828 0.98626 0.0
C516 C 0.14904 0.89669 0.01795 0.0
C517 C 0.1181 0.85607 0.04419 0.0
C518 C 0.1657 0.88892 0.09813 0.0
C519 C 0.15734 0.86634 0.15517 0.0
H520 H 0.73131 0.12451 0.24049 0.0
H521 H 0.75394 0.05682 0.0517 0.0
H522 H 0.72139 0.07515 0.9289 0.0
H523 H 0.67794 0.10155 0.89712 0.0
H524 H 0.65366 0.1684 0.08802 0.0
H525 H 0.69595 0.15974 0.18741 0.0
C526 C 0.7299 0.11458 0.17087 0.0
C527 C 0.74436 0.08913 0.15516 0.0
C528 C 0.71044 0.12469 0.10212 0.0
C529 C 0.7428 0.07639 0.06501 0.0
C530 C 0.72397 0.0867 0.9953 0.0
C531 C 0.68242 0.11526 0.95774 0.0
C532 C 0.66196 0.1348 0.98727 0.0
C533 C 0.70631 0.10961 0.01587 0.0
C534 C 0.66854 0.15248 0.06566 0.0
C535 C 0.69267 0.14747 0.12275 0.0
H536 H 0.44134 0.73154 0.31956 0.0
H537 H 0.49766 0.7539 0.0948 0.0
H538 H 0.47268 0.72141 0.98725 0.0
H539 H 0.44646 0.67707 0.97588 0.0
H540 H 0.3926 0.65116 0.20345 0.0
H541 H 0.40475 0.69466 0.29033 0.0
C542 C 0.44743 0.72998 0.24599 0.0
C543 C 0.4719 0.74437 0.21631 0.0
C544 C 0.43399 0.70995 0.18577 0.0
C545 C 0.47911 0.7429 0.12017 0.0
C546 C 0.46504 0.72396 0.05866 0.0
C547 C 0.43615 0.68135 0.04223 0.0
C548 C 0.4197 0.66016 0.08512 0.0
C549 C 0.44408 0.70581 0.09324 0.0
C550 C 0.40629 0.6666 0.17057 0.0
C551 C 0.41332 0.69145 0.2205 0.0
H552 H 0.83486 0.45805 0.25386 0.0
H553 H 0.81487 0.53211 0.08737 0.0
H554 H 0.84743 0.51679 0.9656 0.0
H555 H 0.88999 0.48957 0.93085 0.0
H556 H 0.91287 0.4178 0.10534 0.0
H557 H 0.87074 0.42479 0.19954 0.0
C558 C 0.83691 0.47019 0.18902 0.0
C559 C 0.82308 0.49636 0.17999 0.0
C560 C 0.85677 0.46205 0.12226 0.0
C561 C 0.82544 0.51191 0.09572 0.0
C562 C 0.84436 0.50335 0.02681 0.0
C563 C 0.88517 0.47475 0.98702 0.0
C564 C 0.90481 0.45361 1.01271 0.0
C565 C 0.86148 0.47952 0.04273 0.0
C566 C 0.89833 0.43461 0.08579 0.0
C567 C 0.87428 0.43863 0.13965 0.0
H568 H 0.09806 0.20373 0.01946 0.0
H569 H 1.01614 0.23514 0.92871 0.0
H570 H 1.006 0.18998 0.84582 0.0
H571 H 1.01897 0.13933 0.81084 0.0
H572 H 0.10061 0.10893 0.9114 0.0
H573 H 0.1117 0.15523 0.97967 0.0
C574 C 0.07796 0.20095 0.98104 0.0
C575 C 0.05788 0.22322 0.98163 0.0
C576 C 0.07191 0.17454 0.9364 0.0
C577 C 0.03223 0.21887 0.92958 0.0
C578 C 0.02628 0.19273 0.88301 0.0
C579 C 0.03927 0.14282 0.84719 0.0
C580 C 0.05879 0.12 0.85572 0.0
C581 C 0.04568 0.17003 0.88778 0.0
C582 C 0.08494 0.12549 0.90346 0.0
C583 C 0.09142 0.15221 0.94268 0.0
H584 H 0.35684 0.98516 0.92771 0.0
H585 H 0.35956 0.07022 0.0393 0.0
H586 H 0.40433 0.07907 0.95809 0.0
H587 H 0.44528 0.06101 0.86442 0.0
H588 H 0.44061 0.97552 0.75374 0.0
H589 H 0.39479 0.96868 0.82521 0.0
C590 C 0.36688 1.00589 0.93289 0.0
C591 C 0.35441 0.02702 0.98972 0.0
C592 C 0.39288 1.01065 0.88696 0.0
C593 C 0.36811 0.05364 0.99532 0.0
C594 C 0.39405 0.05857 0.9496 0.0
C595 C 0.43419 0.04094 0.85525 0.0
C596 C 0.4471 1.01879 0.80331 0.0
C597 C 0.40708 0.03701 0.8967 0.0
C598 C 0.43183 0.99307 0.79273 0.0
C599 C 0.40536 0.98905 0.83391 0.0
H600 H 0.47484 0.35875 0.97241 0.0
H601 H 0.56285 0.33607 0.95647 0.0
H602 H 0.57322 0.38219 0.88275 0.0
H603 H 0.55776 0.43178 0.83851 0.0
H604 H 0.46958 0.45345 0.86825 0.0
H605 H 0.45916 0.40567 0.9212 0.0
C606 C 0.49628 0.36356 0.9511 0.0
C607 C 0.51795 0.34353 0.97018 0.0
C608 C 0.50225 0.39059 0.91282 0.0
C609 C 0.54555 0.35054 0.94182 0.0
C610 C 0.55155 0.37726 0.90085 0.0
C611 C 0.53623 0.42599 0.85585 0.0
C612 C 0.51459 0.44686 0.84977 0.0
C613 C 0.5302 0.39793 0.88851 0.0
C614 C 0.48687 0.43847 0.87279 0.0
C615 C 0.48077 0.41089 0.90302 0.0
H616 H 0.22559 0.56947 0.8828 0.0
H617 H 0.21371 0.49841 0.06874 0.0
H618 H 0.16668 0.48925 0.99501 0.0
H619 H 0.12676 0.50467 0.88789 0.0
H620 H 0.13995 0.5752 0.69931 0.0
H621 H 0.18826 0.5812 0.7629 0.0
C622 C 0.21307 0.55139 0.90485 0.0
C623 C 0.22342 0.53432 0.98014 0.0
C624 C 0.18589 0.54649 0.86266 0.0
C625 C 0.20661 0.51142 1.00955 0.0
C626 C 0.1795 0.50646 0.96818 0.0
C627 C 0.14029 0.52117 0.86002 0.0
C628 C 0.12936 0.53958 0.78895 0.0
C629 C 0.16853 0.52435 0.89639 0.0
C630 C 0.14752 0.56064 0.75346 0.0
C631 C 0.17527 0.56417 0.79014 0.0
H632 H 1.02323 0.8758 0.3694 0.0
H633 H 0.06581 0.82969 0.59382 0.0
H634 H 0.06511 0.87204 0.69648 0.0
H635 H 0.05536 0.92402 0.71806 0.0
H636 H 1.01167 0.96855 0.49038 0.0
H637 H 1.0099 0.92556 0.39526 0.0
C638 C 0.03167 0.87477 0.44177 0.0
C639 C 0.04407 0.84924 0.47408 0.0
C640 C 0.03142 0.89936 0.49998 0.0
C641 C 0.05552 0.84868 0.56749 0.0
C642 C 0.05542 0.87312 0.6259 0.0
C643 C 0.04521 0.9243 0.64805 0.0
C644 C 0.03378 0.95011 0.61246 0.0
C645 C 0.04391 0.89889 0.59241 0.0
C646 C 1.0207 0.9495 0.52106 0.0
C647 C 1.01965 0.92472 0.46583 0.0
H648 H 0.69072 0.02378 0.33037 0.0
H649 H 0.73944 0.05172 0.57651 0.0
H650 H 0.69685 0.04774 0.67373 0.0
H651 H 0.64378 0.03919 0.68559 0.0
H652 H 0.59736 1.01215 0.43137 0.0
H653 H 0.64031 1.01337 0.34258 0.0
C654 C 0.69226 0.02854 0.40581 0.0
C655 C 0.71857 0.03784 0.44557 0.0
C656 C 0.66757 0.02687 0.46037 0.0
C657 C 0.7198 0.04404 0.54363 0.0
C658 C 0.6952 0.04212 0.59909 0.0
C659 C 0.64307 0.03351 0.61091 0.0
C660 C 0.61666 0.02556 0.56663 0.0
C661 C 0.66862 0.0341 0.55792 0.0
C662 C 0.61678 1.01826 0.46924 0.0
C663 C 0.64159 1.01891 0.41739 0.0
H664 H 0.49723 0.71647 0.56307 0.0
H665 H 0.57443 0.70699 0.41029 0.0
H666 H 0.58304 0.66124 0.48825 0.0
H667 H 0.5662 0.62148 0.59014 0.0
H668 H 0.48996 0.63285 0.74815 0.0
H669 H 0.48355 0.67974 0.67865 0.0
C670 C 0.51637 0.70477 0.54877 0.0
C671 C 0.53529 0.71553 0.48116 0.0
C672 C 0.52113 0.67832 0.59394 0.0
C673 C 0.55977 0.69971 0.46299 0.0
C674 C 0.56449 0.67325 0.50683 0.0
C675 C 0.54833 0.63432 0.61015 0.0
C676 C 0.52851 0.62317 0.67446 0.0
C677 C 0.54495 0.66192 0.57082 0.0
C678 C 0.50567 0.64052 0.69953 0.0
C679 C 0.5019 0.66749 0.65939 0.0
H680 H 0.86504 0.57254 0.43019 0.0
H681 H 0.8416 0.49495 0.56818 0.0
H682 H 0.88768 0.49412 0.65384 0.0
H683 H 0.93699 0.51275 0.67522 0.0
H684 H 0.96011 0.59 0.53171 0.0
H685 H 0.91233 0.59359 0.4635 0.0
C686 C 0.86964 0.55608 0.4819 0.0
C687 C 0.84953 0.53428 0.49483 0.0
C688 C 0.89662 0.55527 0.52839 0.0
C689 C 0.85631 0.51243 0.55915 0.0
C690 C 0.88289 0.51174 0.60699 0.0
C691 C 0.93154 0.53055 0.6299 0.0
C692 C 0.95262 0.55089 0.60845 0.0
C693 C 0.90363 0.53259 0.58998 0.0
C694 C 0.94475 0.57383 0.54962 0.0
C695 C 0.91724 0.57598 0.51027 0.0
loop_
_geom_bond_atom_site_label_1
_geom_bond_atom_site_label_2
_geom_bond_distance
_geom_bond_site_symmetry_2
_ccdc_geom_bond_type
H0 C1 0.949 . S
C1 H0 0.949 . S
C1 C2 1.395 . S
C1 C3 1.391 . S
C2 C1 1.395 . S
C2 C5 1.390 . S
C3 C1 1.391 . S
C3 C7 1.387 . S
C3 C8 1.491 . S
H4 C5 0.950 . S
C5 C2 1.390 . S
C5 H4 0.950 . S
C5 C6 1.378 . S
C6 C5 1.378 . S
C6 C7 1.409 . S
C7 C3 1.387 . S
C7 C6 1.409 . S
C7 H9 0.951 . S
C8 C3 1.491 . S
C8 C10 1.382 . S
C8 C12 1.404 . S
H9 C7 0.951 . S
C10 C8 1.382 . S
C10 C11 1.390 . S
C10 H15 0.949 . S
C11 C10 1.390 . S
C11 C16 1.399 . S
C12 C8 1.404 . S
C12 H13 0.950 . S
C12 C14 1.375 . S
H13 C12 0.950 . S
C14 C12 1.375 . S
C14 C16 1.382 . S
C14 H18 0.950 . S
H15 C10 0.949 . S
C16 C11 1.399 . S
C16 C14 1.382 . S
C16 H17 0.952 . S
H17 C16 0.952 . S
H18 C14 0.950 . S
H19 C20 0.949 . S
C20 H19 0.949 . S
C20 C21 1.395 . S
C20 C22 1.391 . S
C21 C20 1.395 . S
C21 C24 1.390 . S
C22 C20 1.391 . S
C22 C26 1.387 . S
C22 C27 1.491 . S
H23 C24 0.950 . S
C24 C21 1.390 . S
C24 H23 0.950 . S
C24 C25 1.378 . S
C25 C24 1.378 . S
C25 C26 1.409 . S
C26 C22 1.387 . S
C26 C25 1.409 . S
C26 H28 0.951 . S
C27 C22 1.491 . S
C27 C29 1.382 . S
C27 C31 1.404 . S
H28 C26 0.951 . S
C29 C27 1.382 . S
C29 C30 1.390 . S
C29 H34 0.949 . S
C30 C29 1.390 . S
C30 C35 1.399 . S
C31 C27 1.404 . S
C31 H32 0.950 . S
C31 C33 1.375 . S
H32 C31 0.950 . S
C33 C31 1.375 . S
C33 C35 1.382 . S
C33 H37 0.950 . S
H34 C29 0.949 . S
C35 C30 1.399 . S
C35 C33 1.382 . S
C35 H36 0.952 . S
H36 C35 0.952 . S
H37 C33 0.950 . S
H38 C39 0.949 . S
C39 H38 0.949 . S
C39 C40 1.395 . S
C39 C41 1.391 . S
C40 C39 1.395 . S
C40 C43 1.390 . S
C41 C39 1.391 . S
C41 C45 1.387 . S
C41 C46 1.491 . S
H42 C43 0.950 . S
C43 C40 1.390 . S
C43 H42 0.950 . S
C43 C44 1.378 . S
C44 C43 1.378 . S
C44 C45 1.409 . S
C45 C41 1.387 . S
C45 C44 1.409 . S
C45 H47 0.951 . S
C46 C41 1.491 . S
C46 C48 1.382 . S
C46 C50 1.404 . S
H47 C45 0.951 . S
C48 C46 1.382 . S
C48 C49 1.390 . S
C48 H53 0.949 . S
C49 C48 1.390 . S
C49 C54 1.399 . S
C50 C46 1.404 . S
C50 H51 0.950 . S
C50 C52 1.375 . S
H51 C50 0.950 . S
C52 C50 1.375 . S
C52 C54 1.382 . S
C52 H56 0.950 . S
H53 C48 0.949 . S
C54 C49 1.399 . S
C54 C52 1.382 . S
C54 H55 0.952 . S
H55 C54 0.952 . S
H56 C52 0.950 . S
H57 C58 0.949 . S
C58 H57 0.949 . S
C58 C59 1.395 . S
C58 C60 1.391 . S
C59 C58 1.395 . S
C59 C62 1.390 . S
C60 C58 1.391 . S
C60 C64 1.387 . S
C60 C65 1.491 . S
H61 C62 0.950 . S
C62 C59 1.390 . S
C62 H61 0.950 . S
C62 C63 1.378 . S
C63 C62 1.378 . S
C63 C64 1.409 . S
C64 C60 1.387 . S
C64 C63 1.409 . S
C64 H66 0.951 . S
C65 C60 1.491 . S
C65 C67 1.382 . S
C65 C69 1.404 . S
H66 C64 0.951 . S
C67 C65 1.382 . S
C67 C68 1.390 . S
C67 H72 0.949 . S
C68 C67 1.390 . S
C68 C73 1.399 . S
C69 C65 1.404 . S
C69 H70 0.950 . S
C69 C71 1.375 . S
H70 C69 0.950 . S
C71 C69 1.375 . S
C71 C73 1.382 . S
C71 H75 0.950 . S
H72 C67 0.949 . S
C73 C68 1.399 . S
C73 C71 1.382 . S
C73 H74 0.952 . S
H74 C73 0.952 . S
H75 C71 0.950 . S
H76 C77 0.949 . S
C77 H76 0.949 . S
C77 C78 1.395 . S
C77 C79 1.391 . S
C78 C77 1.395 . S
C78 C81 1.390 . S
C79 C77 1.391 . S
C79 C83 1.387 1_554 S
C79 C84 1.491 . S
H80 C81 0.950 . S
C81 C78 1.390 . S
C81 H80 0.950 . S
C81 C82 1.378 1_554 S
C82 C81 1.378 1_556 S
C82 C83 1.409 . S
C83 C79 1.387 1_556 S
C83 C82 1.409 . S
C83 H85 0.951 . S
C84 C79 1.491 . S
C84 C86 1.382 . S
C84 C88 1.404 . S
H85 C83 0.951 . S
C86 C84 1.382 . S
C86 C87 1.390 . S
C86 H91 0.949 . S
C87 C86 1.390 . S
C87 C92 1.399 . S
C88 C84 1.404 . S
C88 H89 0.950 1_554 S
C88 C90 1.375 . S
H89 C88 0.950 1_556 S
C90 C88 1.375 . S
C90 C92 1.382 . S
C90 H94 0.950 1_554 S
H91 C86 0.949 . S
C92 C87 1.399 . S
C92 C90 1.382 . S
C92 H93 0.952 . S
H93 C92 0.952 . S
H94 C90 0.950 1_556 S
H95 C96 0.949 . S
C96 H95 0.949 . S
C96 C97 1.395 . S
C96 C98 1.391 . S
C97 C96 1.395 . S
C97 C100 1.390 . S
C98 C96 1.391 . S
C98 C102 1.387 1_554 S
C98 C103 1.491 . S
H99 C100 0.950 . S
C100 C97 1.390 . S
C100 H99 0.950 . S
C100 C101 1.378 1_554 S
C101 C100 1.378 1_556 S
C101 C102 1.409 . S
C102 C98 1.387 1_556 S
C102 C101 1.409 . S
C102 H104 0.951 . S
C103 C98 1.491 . S
C103 C105 1.382 . S
C103 C107 1.404 1_554 S
H104 C102 0.951 . S
C105 C103 1.382 . S
C105 C106 1.390 . S
C105 H110 0.949 . S
C106 C105 1.390 . S
C106 C111 1.399 . S
C107 C103 1.404 1_556 S
C107 H108 0.950 . S
C107 C109 1.375 . S
H108 C107 0.950 . S
C109 C107 1.375 . S
C109 C111 1.382 1_556 S
C109 H113 0.950 1_455 S
H110 C105 0.949 . S
C111 C106 1.399 . S
C111 C109 1.382 1_554 S
C111 H112 0.952 . S
H112 C111 0.952 . S
H113 C109 0.950 1_655 S
H114 C115 0.949 . S
C115 H114 0.949 . S
C115 C116 1.395 . S
C115 C117 1.391 1_554 S
C116 C115 1.395 . S
C116 C119 1.390 1_554 S
C117 C115 1.391 1_556 S
C117 C121 1.387 . S
C117 C122 1.491 . S
H118 C119 0.950 . S
C119 C116 1.390 1_556 S
C119 H118 0.950 . S
C119 C120 1.378 . S
C120 C119 1.378 . S
C120 C121 1.409 . S
C121 C117 1.387 . S
C121 C120 1.409 . S
C121 H123 0.951 . S
C122 C117 1.491 . S
C122 C124 1.382 1_556 S
C122 C126 1.404 . S
H123 C121 0.951 . S
C124 C122 1.382 1_554 S
C124 C125 1.390 . S
C124 H129 0.949 . S
C125 C124 1.390 . S
C125 C130 1.399 1_554 S
C126 C122 1.404 . S
C126 H127 0.950 1_545 S
C126 C128 1.374 1_545 S
H127 C126 0.950 1_565 S
C128 C126 1.374 1_565 S
C128 C130 1.381 1_565 S
C128 H132 0.951 . S
H129 C124 0.949 . S
C130 C125 1.399 1_556 S
C130 C128 1.381 1_545 S
C130 H131 0.952 . S
H131 C130 0.952 . S
H132 C128 0.951 . S
H133 C134 0.949 . S
C134 H133 0.949 . S
C134 C135 1.395 . S
C134 C136 1.391 . S
C135 C134 1.395 . S
C135 C138 1.390 . S
C136 C134 1.391 . S
C136 C140 1.387 1_554 S
C136 C141 1.491 . S
H137 C138 0.950 . S
C138 C135 1.390 . S
C138 H137 0.950 . S
C138 C139 1.378 1_554 S
C139 C138 1.378 1_556 S
C139 C140 1.409 . S
C140 C136 1.387 1_556 S
C140 C139 1.409 . S
C140 H142 0.951 . S
C141 C136 1.491 . S
C141 C143 1.382 . S
C141 C145 1.404 1_554 S
H142 C140 0.951 . S
C143 C141 1.382 . S
C143 C144 1.390 . S
C143 H148 0.949 . S
C144 C143 1.390 . S
C144 C149 1.399 . S
C145 C141 1.404 1_556 S
C145 H146 0.950 . S
C145 C147 1.375 1_556 S
H146 C145 0.950 . S
C147 C145 1.375 1_554 S
C147 C149 1.382 . S
C147 H151 0.950 1_554 S
H148 C143 0.949 . S
C149 C144 1.399 . S
C149 C147 1.382 . S
C149 H150 0.952 . S
H150 C149 0.952 . S
H151 C147 0.950 1_556 S
Eu152 C161 2.828 . S
Eu152 O163 2.392 . S
Eu152 O165 2.418 1_545 S
Eu152 O170 2.373 1_655 S
Eu152 O173 2.488 . S
Eu152 O174 2.470 . S
Eu152 O175 2.349 1_655 S
Eu153 O162 2.373 1_455 S
Eu153 O166 2.488 . S
Eu153 O167 2.471 . S
Eu153 O168 2.349 . S
Eu153 O171 2.392 1_565 S
Eu153 O172 2.418 1_565 S
Eu153 C182 2.828 . S
C154 O172 1.244 . S
C154 O175 1.265 . S
C155 C156 1.354 1_655 S
C155 C159 1.389 . S
C155 C161 1.515 . S
C156 C155 1.354 1_455 S
C156 C158 1.369 . S
C156 H184 0.930 . S
C157 C159 1.383 . S
C157 C160 1.382 1_655 S
C157 H185 0.930 . S
C158 C156 1.369 . S
C158 C160 1.392 . S
C158 H186 0.930 . S
C159 C155 1.389 . S
C159 C157 1.383 . S
C159 H187 0.931 . S
C160 C157 1.382 1_455 S
C160 C158 1.392 . S
C161 Eu152 2.828 . S
C161 C155 1.515 . S
C161 O173 1.249 . S
C161 O174 1.244 . S
O162 Eu153 2.373 1_655 S
O162 C164 1.258 1_565 S
O163 Eu152 2.392 . S
O163 C164 1.242 . S
C164 O162 1.258 1_545 S
C164 O163 1.242 . S
O165 Eu152 2.418 1_565 S
O165 C169 1.244 . S
O166 Eu153 2.488 . S
O166 C182 1.249 . S
O167 Eu153 2.471 . S
O167 C182 1.244 . S
O168 Eu153 2.349 . S
O168 C169 1.265 1_455 S
C169 O165 1.244 . S
C169 O168 1.265 1_655 S
O170 Eu152 2.373 1_455 S
O170 C183 1.258 . S
O171 Eu153 2.392 1_545 S
O171 C183 1.242 . S
O172 Eu153 2.418 1_545 S
O172 C154 1.244 . S
O173 Eu152 2.488 . S
O173 C161 1.249 . S
O174 Eu152 2.470 . S
O174 C161 1.244 . S
O175 Eu152 2.349 1_455 S
O175 C154 1.265 . S
C176 C177 1.379 . S
C176 C180 1.373 . S
C176 C182 1.505 1_554 S
C177 C176 1.379 . S
C177 C179 1.361 1_455 S
C177 H188 0.930 1_454 S
C178 C180 1.383 . S
C178 C181 1.382 . S
C178 H189 0.930 . S
C179 C177 1.361 1_655 S
C179 C181 1.379 1_655 S
C179 H190 0.954 . S
C180 C176 1.373 . S
C180 C178 1.383 . S
C180 H191 0.931 . S
C181 C178 1.382 . S
C181 C179 1.379 1_455 S
C182 Eu153 2.828 . S
C182 O166 1.249 . S
C182 O167 1.244 . S
C182 C176 1.505 1_556 S
C183 O170 1.258 . S
C183 O171 1.242 . S
H184 C156 0.930 . S
H185 C157 0.930 . S
H186 C158 0.930 . S
H187 C159 0.931 . S
H188 C177 0.930 1_656 S
H189 C178 0.930 . S
H190 C179 0.954 . S
H191 C180 0.931 . S
Eu192 C201 2.828 . S
Eu192 O203 2.392 . S
Eu192 O205 2.418 . S
Eu192 O210 2.373 . S
Eu192 O213 2.488 . S
Eu192 O214 2.471 . S
Eu192 O215 2.349 1_545 S
Eu193 O202 2.373 1_565 S
Eu193 O206 2.488 . S
Eu193 O207 2.471 1_565 S
Eu193 O208 2.349 1_565 S
Eu193 O211 2.392 . S
Eu193 O212 2.418 . S
Eu193 C222 2.828 . S
C194 O212 1.244 . S
C194 O215 1.265 . S
C195 C196 1.379 . S
C195 C199 1.373 . S
C195 C201 1.505 . S
C196 C195 1.379 . S
C196 C198 1.369 1_556 S
C196 H224 0.930 1_545 S
C197 C199 1.383 1_554 S
C197 C200 1.382 . S
C197 H225 0.930 . S
C198 C196 1.369 1_554 S
C198 C200 1.392 . S
C198 H226 0.930 1_545 S
C199 C195 1.373 . S
C199 C197 1.383 1_556 S
C199 H227 0.931 . S
C200 C197 1.382 . S
C200 C198 1.392 . S
C201 Eu192 2.828 . S
C201 C195 1.505 . S
C201 O213 1.249 . S
C201 O214 1.244 . S
O202 Eu193 2.373 1_545 S
O202 C204 1.258 . S
O203 Eu192 2.392 . S
O203 C204 1.242 . S
C204 O202 1.258 . S
C204 O203 1.242 . S
O205 Eu192 2.418 . S
O205 C209 1.244 . S
O206 Eu193 2.488 . S
O206 C222 1.249 . S
O207 Eu193 2.471 1_545 S
O207 C222 1.244 1_545 S
O208 Eu193 2.349 1_545 S
O208 C209 1.265 . S
C209 O205 1.244 . S
C209 O208 1.265 . S
O210 Eu192 2.373 . S
O210 C223 1.258 1_545 S
O211 Eu193 2.392 . S
O211 C223 1.242 . S
O212 Eu193 2.418 . S
O212 C194 1.244 . S
O213 Eu192 2.488 . S
O213 C201 1.249 . S
O214 Eu192 2.471 . S
O214 C201 1.244 . S
O215 Eu192 2.349 1_565 S
O215 C194 1.265 . S
C216 C217 1.379 1_565 S
C216 C220 1.373 . S
C216 C222 1.505 . S
C217 C216 1.379 1_545 S
C217 C219 1.369 . S
C217 H228 0.930 . S
C218 C220 1.383 . S
C218 C221 1.382 . S
C218 H229 0.930 . S
C219 C217 1.369 . S
C219 C221 1.392 1_545 S
C219 H230 0.930 . S
C220 C216 1.373 . S
C220 C218 1.383 . S
C220 H231 0.931 . S
C221 C218 1.382 . S
C221 C219 1.392 1_565 S
C222 Eu193 2.828 . S
C222 O206 1.249 . S
C222 O207 1.244 1_565 S
C222 C216 1.505 . S
C223 O210 1.258 1_565 S
C223 O211 1.242 . S
H224 C196 0.930 1_565 S
H225 C197 0.930 . S
H226 C198 0.930 1_565 S
H227 C199 0.931 . S
H228 C217 0.930 . S
H229 C218 0.930 . S
H230 C219 0.930 . S
H231 C220 0.931 . S
Eu232 C241 2.828 . S
Eu232 O243 2.392 . S
Eu232 O245 2.418 . S
Eu232 O250 2.373 . S
Eu232 O253 2.488 . S
Eu232 O254 2.471 . S
Eu232 O255 2.349 . S
Eu233 O242 2.373 . S
Eu233 O246 2.488 . S
Eu233 O247 2.471 . S
Eu233 O248 2.349 . S
Eu233 O251 2.392 . S
Eu233 O252 2.418 . S
Eu233 C262 2.828 . S
C234 O252 1.244 . S
C234 O255 1.265 . S
C235 C236 1.379 . S
C235 C239 1.373 . S
C235 C241 1.505 . S
C236 C235 1.379 . S
C236 C238 1.369 1_556 S
C236 H264 0.930 . S
C237 C239 1.383 1_554 S
C237 C240 1.382 . S
C237 H265 0.930 . S
C238 C236 1.369 1_554 S
C238 C240 1.392 . S
C238 H266 0.930 . S
C239 C235 1.373 . S
C239 C237 1.383 1_556 S
C239 H267 0.931 . S
C240 C237 1.382 . S
C240 C238 1.392 . S
C241 Eu232 2.828 . S
C241 C235 1.505 . S
C241 O253 1.249 . S
C241 O254 1.244 . S
O242 Eu233 2.373 . S
O242 C244 1.258 . S
O243 Eu232 2.392 . S
O243 C244 1.242 . S
C244 O242 1.258 . S
C244 O243 1.242 . S
O245 Eu232 2.418 . S
O245 C249 1.244 . S
O246 Eu233 2.488 . S
O246 C262 1.249 . S
O247 Eu233 2.471 . S
O247 C262 1.244 . S
O248 Eu233 2.349 . S
O248 C249 1.265 . S
C249 O245 1.244 . S
C249 O248 1.265 . S
O250 Eu232 2.373 . S
O250 C263 1.258 . S
O251 Eu233 2.392 . S
O251 C263 1.242 . S
O252 Eu233 2.418 . S
O252 C234 1.244 . S
O253 Eu232 2.488 . S
O253 C241 1.249 . S
O254 Eu232 2.471 . S
O254 C241 1.244 . S
O255 Eu232 2.349 . S
O255 C234 1.265 . S
C256 C257 1.379 . S
C256 C260 1.373 . S
C256 C262 1.505 . S
C257 C256 1.379 . S
C257 C259 1.369 . S
C257 H268 0.930 . S
C258 C260 1.383 . S
C258 C261 1.382 . S
C258 H269 0.930 . S
C259 C257 1.369 . S
C259 C261 1.392 . S
C259 H270 0.930 . S
C260 C256 1.373 . S
C260 C258 1.383 . S
C260 H271 0.931 . S
C261 C258 1.382 . S
C261 C259 1.392 . S
C262 Eu233 2.828 . S
C262 O246 1.249 . S
C262 O247 1.244 . S
C262 C256 1.505 . S
C263 O250 1.258 . S
C263 O251 1.242 . S
H264 C236 0.930 . S
H265 C237 0.930 . S
H266 C238 0.930 . S
H267 C239 0.931 . S
H268 C257 0.930 . S
H269 C258 0.930 . S
H270 C259 0.930 . S
H271 C260 0.931 . S
Eu272 C281 2.828 . S
Eu272 O283 2.392 . S
Eu272 O285 2.418 1_455 S
Eu272 O290 2.373 . S
Eu272 O293 2.488 . S
Eu272 O294 2.471 . S
Eu272 O295 2.349 . S
Eu273 O282 2.373 . S
Eu273 O286 2.488 . S
Eu273 O287 2.471 . S
Eu273 O288 2.349 . S
Eu273 O291 2.392 1_655 S
Eu273 O292 2.418 1_655 S
Eu273 C302 2.828 . S
C274 O292 1.244 . S
C274 O295 1.265 . S
C275 C276 1.379 . S
C275 C279 1.373 . S
C275 C281 1.505 . S
C276 C275 1.379 . S
C276 C278 1.369 . S
C276 H304 0.930 . S
C277 C279 1.383 . S
C277 C280 1.382 . S
C277 H305 0.930 . S
C278 C276 1.369 . S
C278 C280 1.392 . S
C278 H306 0.930 . S
C279 C275 1.373 . S
C279 C277 1.383 . S
C279 H307 0.931 . S
C280 C277 1.382 . S
C280 C278 1.392 . S
C281 Eu272 2.828 . S
C281 C275 1.505 . S
C281 O293 1.249 . S
C281 O294 1.244 . S
O282 Eu273 2.373 . S
O282 C284 1.258 1_655 S
O283 Eu272 2.392 . S
O283 C284 1.242 . S
C284 O282 1.258 1_455 S
C284 O283 1.242 . S
O285 Eu272 2.418 1_655 S
O285 C289 1.244 . S
O286 Eu273 2.488 . S
O286 C302 1.249 . S
O287 Eu273 2.471 . S
O287 C302 1.244 . S
O288 Eu273 2.349 . S
O288 C289 1.265 . S
C289 O285 1.244 . S
C289 O288 1.265 . S
O290 Eu272 2.373 . S
O290 C303 1.258 . S
O291 Eu273 2.392 1_455 S
O291 C303 1.242 . S
O292 Eu273 2.418 1_455 S
O292 C274 1.244 . S
O293 Eu272 2.488 . S
O293 C281 1.249 . S
O294 Eu272 2.471 . S
O294 C281 1.244 . S
O295 Eu272 2.349 . S
O295 C274 1.265 . S
C296 C297 1.379 1_554 S
C296 C300 1.373 . S
C296 C302 1.505 1_554 S
C297 C296 1.379 1_556 S
C297 C299 1.369 1_556 S
C297 H308 0.930 . S
C298 C300 1.383 . S
C298 C301 1.382 . S
C298 H309 0.930 . S
C299 C297 1.369 1_554 S
C299 C301 1.392 . S
C299 H310 0.930 . S
C300 C296 1.373 . S
C300 C298 1.383 . S
C300 H311 0.931 . S
C301 C298 1.382 . S
C301 C299 1.392 . S
C302 Eu273 2.828 . S
C302 O286 1.249 . S
C302 O287 1.244 . S
C302 C296 1.505 1_556 S
C303 O290 1.258 . S
C303 O291 1.242 . S
H304 C276 0.930 . S
H305 C277 0.930 . S
H306 C278 0.930 . S
H307 C279 0.931 . S
H308 C297 0.930 . S
H309 C298 0.930 . S
H310 C299 0.930 . S
H311 C300 0.931 . S
H312 C318 0.930 . S
H313 C321 0.930 . S
H314 C322 0.930 . S
H315 C323 0.930 . S
H316 C326 0.930 . S
H317 C327 0.930 . S
C318 H312 0.930 . S
C318 C319 1.355 . S
C318 C320 1.415 . S
C319 C318 1.355 . S
C319 C321 1.419 . S
C320 C318 1.415 . S
C320 C325 1.425 . S
C320 C327 1.409 . S
C321 H313 0.930 . S
C321 C319 1.419 . S
C321 C322 1.362 . S
C322 H314 0.930 . S
C322 C321 1.362 . S
C322 C325 1.409 . S
C323 H315 0.930 . S
C323 C324 1.355 . S
C323 C325 1.415 . S
C324 C323 1.355 . S
C324 C326 1.419 . S
C325 C320 1.425 . S
C325 C322 1.409 . S
C325 C323 1.415 . S
C326 H316 0.930 . S
C326 C324 1.419 . S
C326 C327 1.362 . S
C327 H317 0.930 . S
C327 C320 1.409 . S
C327 C326 1.362 . S
H328 C334 0.930 . S
H329 C337 0.930 . S
H330 C338 0.930 . S
H331 C339 0.930 . S
H332 C342 0.930 . S
H333 C343 0.930 . S
C334 H328 0.930 . S
C334 C335 1.355 . S
C334 C336 1.415 . S
C335 C334 1.355 . S
C335 C337 1.419 . S
C336 C334 1.415 . S
C336 C341 1.425 . S
C336 C343 1.409 . S
C337 H329 0.930 . S
C337 C335 1.419 . S
C337 C338 1.362 . S
C338 H330 0.930 . S
C338 C337 1.362 . S
C338 C341 1.409 . S
C339 H331 0.930 . S
C339 C340 1.355 . S
C339 C341 1.415 . S
C340 C339 1.355 . S
C340 C342 1.419 . S
C341 C336 1.425 . S
C341 C338 1.409 . S
C341 C339 1.415 . S
C342 H332 0.930 . S
C342 C340 1.419 . S
C342 C343 1.362 . S
C343 H333 0.930 . S
C343 C336 1.409 . S
C343 C342 1.362 . S
H344 C350 0.930 . S
H345 C353 0.930 . S
H346 C354 0.930 . S
H347 C355 0.930 . S
H348 C358 0.930 . S
H349 C359 0.930 . S
C350 H344 0.930 . S
C350 C351 1.355 . S
C350 C352 1.415 . S
C351 C350 1.355 . S
C351 C353 1.419 . S
C352 C350 1.415 . S
C352 C357 1.425 . S
C352 C359 1.409 . S
C353 H345 0.930 . S
C353 C351 1.419 . S
C353 C354 1.362 . S
C354 H346 0.930 . S
C354 C353 1.362 . S
C354 C357 1.409 . S
C355 H347 0.930 . S
C355 C356 1.355 . S
C355 C357 1.415 . S
C356 C355 1.355 . S
C356 C358 1.419 . S
C357 C352 1.425 . S
C357 C354 1.409 . S
C357 C355 1.415 . S
C358 H348 0.930 . S
C358 C356 1.419 . S
C358 C359 1.362 . S
C359 H349 0.930 . S
C359 C352 1.409 . S
C359 C358 1.362 . S
H360 C366 0.930 . S
H361 C369 0.930 . S
H362 C370 0.930 1_655 S
H363 C371 0.930 1_655 S
H364 C374 0.930 . S
H365 C375 0.930 . S
C366 H360 0.930 . S
C366 C367 1.355 . S
C366 C368 1.415 . S
C367 C366 1.355 . S
C367 C369 1.419 . S
C368 C366 1.415 . S
C368 C373 1.425 . S
C368 C375 1.409 . S
C369 H361 0.930 . S
C369 C367 1.419 . S
C369 C370 1.362 . S
C370 H362 0.930 1_455 S
C370 C369 1.362 . S
C370 C373 1.409 . S
C371 H363 0.930 1_455 S
C371 C372 1.355 . S
C371 C373 1.415 . S
C372 C371 1.355 . S
C372 C374 1.419 . S
C373 C368 1.425 . S
C373 C370 1.409 . S
C373 C371 1.415 . S
C374 H364 0.930 . S
C374 C372 1.419 . S
C374 C375 1.362 . S
C375 H365 0.930 . S
C375 C368 1.409 . S
C375 C374 1.362 . S
H376 C382 0.930 . S
H377 C385 0.930 . S
H378 C386 0.930 . S
H379 C387 0.930 . S
H380 C390 0.930 1_556 S
H381 C391 0.930 . S
C382 H376 0.930 . S
C382 C383 1.355 1_545 S
C382 C384 1.415 . S
C383 C382 1.355 1_565 S
C383 C385 1.419 . S
C384 C382 1.415 . S
C384 C389 1.425 1_545 S
C384 C391 1.409 . S
C385 H377 0.930 . S
C385 C383 1.419 . S
C385 C386 1.362 . S
C386 H378 0.930 . S
C386 C385 1.362 . S
C386 C389 1.409 . S
C387 H379 0.930 . S
C387 C388 1.355 . S
C387 C389 1.415 1_556 S
C388 C387 1.355 . S
C388 C390 1.419 1_566 S
C389 C384 1.425 1_565 S
C389 C386 1.409 . S
C389 C387 1.415 1_554 S
C390 H380 0.930 1_554 S
C390 C388 1.419 1_544 S
C390 C391 1.362 . S
C391 H381 0.930 . S
C391 C384 1.409 . S
C391 C390 1.362 . S
H392 C398 0.930 . S
H393 C401 0.930 . S
H394 C402 0.930 . S
H395 C403 0.930 . S
H396 C406 0.930 . S
H397 C407 0.930 . S
C398 H392 0.930 . S
C398 C399 1.355 . S
C398 C400 1.415 . S
C399 C398 1.355 . S
C399 C401 1.419 . S
C400 C398 1.415 . S
C400 C405 1.425 . S
C400 C407 1.409 1_554 S
C401 H393 0.930 . S
C401 C399 1.419 . S
C401 C402 1.362 . S
C402 H394 0.930 . S
C402 C401 1.362 . S
C402 C405 1.409 . S
C403 H395 0.930 . S
C403 C404 1.355 . S
C403 C405 1.415 1_556 S
C404 C403 1.355 . S
C404 C406 1.419 . S
C405 C400 1.425 . S
C405 C402 1.409 . S
C405 C403 1.415 1_554 S
C406 H396 0.930 . S
C406 C404 1.419 . S
C406 C407 1.362 . S
C407 H397 0.930 . S
C407 C400 1.409 1_556 S
C407 C406 1.362 . S
H408 C414 0.930 . S
H409 C417 0.930 . S
H410 C418 0.930 . S
H411 C419 0.930 . S
H412 C422 0.930 . S
H413 C423 0.930 . S
C414 H408 0.930 . S
C414 C415 1.355 . S
C414 C416 1.415 . S
C415 C414 1.355 . S
C415 C417 1.419 . S
C416 C414 1.415 . S
C416 C421 1.425 . S
C416 C423 1.409 1_554 S
C417 H409 0.930 . S
C417 C415 1.419 . S
C417 C418 1.362 . S
C418 H410 0.930 . S
C418 C417 1.362 . S
C418 C421 1.409 . S
C419 H411 0.930 . S
C419 C420 1.355 . S
C419 C421 1.415 1_556 S
C420 C419 1.355 . S
C420 C422 1.419 . S
C421 C416 1.425 . S
C421 C418 1.409 . S
C421 C419 1.415 1_554 S
C422 H412 0.930 . S
C422 C420 1.419 . S
C422 C423 1.362 . S
C423 H413 0.930 . S
C423 C416 1.409 1_556 S
C423 C422 1.362 . S
H424 C430 0.930 . S
H425 C433 0.930 . S
H426 C434 0.931 1_455 S
H427 C435 0.934 . S
H428 C438 0.930 . S
H429 C439 0.930 . S
C430 H424 0.930 . S
C430 C431 1.355 . S
C430 C432 1.415 . S
C431 C430 1.355 . S
C431 C433 1.419 . S
C432 C430 1.415 . S
C432 C437 1.425 . S
C432 C439 1.409 1_554 S
C433 H425 0.930 . S
C433 C431 1.419 . S
C433 C434 1.362 . S
C434 H426 0.931 1_655 S
C434 C433 1.362 . S
C434 C437 1.409 . S
C435 H427 0.934 . S
C435 C436 1.353 1_454 S
C435 C437 1.412 1_455 S
C436 C435 1.353 1_656 S
C436 C438 1.419 . S
C437 C432 1.425 . S
C437 C434 1.409 . S
C437 C435 1.412 1_655 S
C438 H428 0.930 . S
C438 C436 1.419 . S
C438 C439 1.362 . S
C439 H429 0.930 . S
C439 C432 1.409 1_556 S
C439 C438 1.362 . S
H440 C446 0.930 . S
H441 C449 0.930 . S
H442 C450 0.930 1_655 S
H443 C451 0.930 1_655 S
H444 C454 0.930 . S
H445 C455 0.930 . S
C446 H440 0.930 . S
C446 C447 1.355 . S
C446 C448 1.415 . S
C447 C446 1.355 . S
C447 C449 1.419 . S
C448 C446 1.415 . S
C448 C453 1.425 . S
C448 C455 1.409 . S
C449 H441 0.930 . S
C449 C447 1.419 . S
C449 C450 1.362 . S
C450 H442 0.930 1_455 S
C450 C449 1.362 . S
C450 C453 1.409 . S
C451 H443 0.930 1_455 S
C451 C452 1.355 . S
C451 C453 1.415 . S
C452 C451 1.355 . S
C452 C454 1.419 . S
C453 C448 1.425 . S
C453 C450 1.409 . S
C453 C451 1.415 . S
C454 H444 0.930 . S
C454 C452 1.419 . S
C454 C455 1.362 . S
C455 H445 0.930 . S
C455 C448 1.409 . S
C455 C454 1.362 . S
H456 C462 0.929 . S
H457 C465 0.930 . S
H458 C466 0.930 . S
H459 C467 0.930 . S
H460 C470 0.930 . S
H461 C471 0.930 . S
C462 H456 0.929 . S
C462 C463 1.355 . S
C462 C464 1.415 . S
C463 C462 1.355 . S
C463 C465 1.419 . S
C464 C462 1.415 . S
C464 C469 1.425 . S
C464 C471 1.409 1_545 S
C465 H457 0.930 . S
C465 C463 1.419 . S
C465 C466 1.362 . S
C466 H458 0.930 . S
C466 C465 1.362 . S
C466 C469 1.409 . S
C467 H459 0.930 . S
C467 C468 1.355 1_545 S
C467 C469 1.415 . S
C468 C467 1.355 1_565 S
C468 C470 1.419 . S
C469 C464 1.425 . S
C469 C466 1.409 . S
C469 C467 1.415 . S
C470 H460 0.930 . S
C470 C468 1.419 . S
C470 C471 1.362 . S
C471 H461 0.930 . S
C471 C464 1.409 1_565 S
C471 C470 1.362 . S
H472 C478 0.930 . S
H473 C481 0.930 . S
H474 C482 0.930 . S
H475 C483 0.930 . S
H476 C486 0.930 . S
H477 C487 0.930 . S
C478 H472 0.930 . S
C478 C479 1.355 . S
C478 C480 1.415 . S
C479 C478 1.355 . S
C479 C481 1.419 . S
C480 C478 1.415 . S
C480 C485 1.425 . S
C480 C487 1.409 . S
C481 H473 0.930 . S
C481 C479 1.419 . S
C481 C482 1.362 . S
C482 H474 0.930 . S
C482 C481 1.362 . S
C482 C485 1.409 . S
C483 H475 0.930 . S
C483 C484 1.355 . S
C483 C485 1.415 . S
C484 C483 1.355 . S
C484 C486 1.419 . S
C485 C480 1.425 . S
C485 C482 1.409 . S
C485 C483 1.415 . S
C486 H476 0.930 . S
C486 C484 1.419 . S
C486 C487 1.362 . S
C487 H477 0.930 . S
C487 C480 1.409 . S
C487 C486 1.362 . S
H488 C494 0.930 . S
H489 C497 0.930 . S
H490 C498 0.930 . S
H491 C499 0.930 . S
H492 C502 0.930 . S
H493 C503 0.930 . S
C494 H488 0.930 . S
C494 C495 1.355 . S
C494 C496 1.415 . S
C495 C494 1.355 . S
C495 C497 1.419 . S
C496 C494 1.415 . S
C496 C501 1.425 . S
C496 C503 1.409 . S
C497 H489 0.930 . S
C497 C495 1.419 . S
C497 C498 1.362 . S
C498 H490 0.930 . S
C498 C497 1.362 . S
C498 C501 1.409 . S
C499 H491 0.930 . S
C499 C500 1.355 . S
C499 C501 1.415 . S
C500 C499 1.355 . S
C500 C502 1.419 . S
C501 C496 1.425 . S
C501 C498 1.409 . S
C501 C499 1.415 . S
C502 H492 0.930 . S
C502 C500 1.419 . S
C502 C503 1.362 . S
C503 H493 0.930 . S
C503 C496 1.409 . S
C503 C502 1.362 . S
H504 C510 0.930 . S
H505 C513 0.930 . S
H506 C514 0.930 . S
H507 C515 0.930 . S
H508 C518 0.930 . S
H509 C519 0.930 . S
C510 H504 0.930 . S
C510 C511 1.355 . S
C510 C512 1.415 . S
C511 C510 1.355 . S
C511 C513 1.419 . S
C512 C510 1.415 . S
C512 C517 1.425 . S
C512 C519 1.416 . S
C513 H505 0.930 . S
C513 C511 1.419 . S
C513 C514 1.362 . S
C514 H506 0.930 . S
C514 C513 1.362 . S
C514 C517 1.409 . S
C515 H507 0.930 . S
C515 C516 1.355 . S
C515 C517 1.415 1_455 S
C516 C515 1.355 . S
C516 C518 1.419 . S
C517 C512 1.425 . S
C517 C514 1.409 . S
C517 C515 1.415 1_655 S
C518 H508 0.930 . S
C518 C516 1.419 . S
C518 C519 1.354 1_455 S
C519 H509 0.930 . S
C519 C512 1.416 . S
C519 C518 1.354 1_655 S
H520 C526 0.930 . S
H521 C529 0.930 . S
H522 C530 0.930 . S
H523 C531 0.930 . S
H524 C534 0.930 . S
H525 C535 0.930 . S
C526 H520 0.930 . S
C526 C527 1.355 . S
C526 C528 1.415 1_565 S
C527 C526 1.355 . S
C527 C529 1.419 . S
C528 C526 1.415 1_545 S
C528 C533 1.425 . S
C528 C535 1.409 . S
C529 H521 0.930 . S
C529 C527 1.419 . S
C529 C530 1.362 . S
C530 H522 0.930 . S
C530 C529 1.362 . S
C530 C533 1.409 1_565 S
C531 H523 0.930 . S
C531 C532 1.355 . S
C531 C533 1.415 . S
C532 C531 1.355 . S
C532 C534 1.419 . S
C533 C528 1.425 . S
C533 C530 1.409 1_545 S
C533 C531 1.415 . S
C534 H524 0.930 . S
C534 C532 1.419 . S
C534 C535 1.362 . S
C535 H525 0.930 . S
C535 C528 1.409 . S
C535 C534 1.362 . S
H536 C542 0.930 . S
H537 C545 0.930 . S
H538 C546 0.930 . S
H539 C547 0.930 . S
H540 C550 0.930 1_556 S
H541 C551 0.930 . S
C542 H536 0.930 . S
C542 C543 1.355 . S
C542 C544 1.415 . S
C543 C542 1.355 . S
C543 C545 1.419 . S
C544 C542 1.415 . S
C544 C549 1.425 . S
C544 C551 1.409 . S
C545 H537 0.930 . S
C545 C543 1.419 . S
C545 C546 1.362 . S
C546 H538 0.930 . S
C546 C545 1.362 . S
C546 C549 1.409 . S
C547 H539 0.930 . S
C547 C548 1.355 . S
C547 C549 1.415 . S
C548 C547 1.355 . S
C548 C550 1.419 . S
C549 C544 1.425 . S
C549 C546 1.409 . S
C549 C547 1.415 . S
C550 H540 0.930 1_554 S
C550 C548 1.419 . S
C550 C551 1.362 . S
C551 H541 0.930 . S
C551 C544 1.409 . S
C551 C550 1.362 . S
H552 C558 0.930 . S
H553 C561 0.930 . S
H554 C562 0.930 . S
H555 C563 0.930 . S
H556 C566 0.930 . S
H557 C567 0.930 . S
C558 H552 0.930 . S
C558 C559 1.355 . S
C558 C560 1.415 . S
C559 C558 1.355 . S
C559 C561 1.419 . S
C560 C558 1.415 . S
C560 C565 1.425 . S
C560 C567 1.409 . S
C561 H553 0.930 . S
C561 C559 1.419 . S
C561 C562 1.362 . S
C562 H554 0.930 . S
C562 C561 1.362 . S
C562 C565 1.409 . S
C563 H555 0.930 . S
C563 C564 1.355 . S
C563 C565 1.415 . S
C564 C563 1.355 . S
C564 C566 1.419 . S
C565 C560 1.425 . S
C565 C562 1.409 . S
C565 C563 1.415 . S
C566 H556 0.930 . S
C566 C564 1.419 . S
C566 C567 1.362 . S
C567 H557 0.930 . S
C567 C560 1.409 . S
C567 C566 1.362 . S
H568 C574 0.930 . S
H569 C577 0.930 . S
H570 C578 0.930 1_655 S
H571 C579 0.930 1_655 S
H572 C582 0.930 . S
H573 C583 0.930 . S
C574 H568 0.930 . S
C574 C575 1.355 . S
C574 C576 1.415 . S
C575 C574 1.355 . S
C575 C577 1.419 . S
C576 C574 1.415 . S
C576 C581 1.425 . S
C576 C583 1.409 . S
C577 H569 0.930 . S
C577 C575 1.419 . S
C577 C578 1.362 . S
C578 H570 0.930 1_455 S
C578 C577 1.362 . S
C578 C581 1.409 . S
C579 H571 0.930 1_455 S
C579 C580 1.355 . S
C579 C581 1.415 . S
C580 C579 1.355 . S
C580 C582 1.419 . S
C581 C576 1.425 . S
C581 C578 1.409 . S
C581 C579 1.415 . S
C582 H572 0.930 . S
C582 C580 1.419 . S
C582 C583 1.362 . S
C583 H573 0.930 . S
C583 C576 1.409 . S
C583 C582 1.362 . S
H584 C590 0.925 1_565 S
H585 C593 0.930 . S
H586 C594 0.930 . S
H587 C595 0.930 . S
H588 C598 0.930 1_565 S
H589 C599 0.930 . S
C590 H584 0.925 1_545 S
C590 C591 1.355 . S
C590 C592 1.415 . S
C591 C590 1.355 . S
C591 C593 1.419 . S
C592 C590 1.415 . S
C592 C597 1.425 . S
C592 C599 1.409 1_545 S
C593 H585 0.930 . S
C593 C591 1.419 . S
C593 C594 1.362 . S
C594 H586 0.930 . S
C594 C593 1.362 . S
C594 C597 1.409 . S
C595 H587 0.930 . S
C595 C596 1.355 . S
C595 C597 1.415 . S
C596 C595 1.355 . S
C596 C598 1.419 . S
C597 C592 1.425 . S
C597 C594 1.409 . S
C597 C595 1.415 . S
C598 H588 0.930 1_545 S
C598 C596 1.419 . S
C598 C599 1.362 1_545 S
C599 H589 0.930 . S
C599 C592 1.409 1_565 S
C599 C598 1.362 1_565 S
H600 C606 0.930 . S
H601 C609 0.930 . S
H602 C610 0.930 . S
H603 C611 0.930 . S
H604 C614 0.930 . S
H605 C615 0.930 . S
C606 H600 0.930 . S
C606 C607 1.355 . S
C606 C608 1.415 . S
C607 C606 1.355 . S
C607 C609 1.419 . S
C608 C606 1.415 . S
C608 C613 1.425 . S
C608 C615 1.409 . S
C609 H601 0.930 . S
C609 C607 1.419 . S
C609 C610 1.362 . S
C610 H602 0.930 . S
C610 C609 1.362 . S
C610 C613 1.409 . S
C611 H603 0.930 . S
C611 C612 1.355 . S
C611 C613 1.415 . S
C612 C611 1.355 . S
C612 C614 1.419 . S
C613 C608 1.425 . S
C613 C610 1.409 . S
C613 C611 1.415 . S
C614 H604 0.930 . S
C614 C612 1.419 . S
C614 C615 1.362 . S
C615 H605 0.930 . S
C615 C608 1.409 . S
C615 C614 1.362 . S
H616 C622 0.930 . S
H617 C625 0.930 1_554 S
H618 C626 0.930 1_554 S
H619 C627 0.930 . S
H620 C630 0.930 . S
H621 C631 0.930 . S
C622 H616 0.930 . S
C622 C623 1.355 . S
C622 C624 1.415 . S
C623 C622 1.355 . S
C623 C625 1.419 . S
C624 C622 1.415 . S
C624 C629 1.425 . S
C624 C631 1.409 . S
C625 H617 0.930 1_556 S
C625 C623 1.419 . S
C625 C626 1.362 . S
C626 H618 0.930 1_556 S
C626 C625 1.362 . S
C626 C629 1.409 . S
C627 H619 0.930 . S
C627 C628 1.355 . S
C627 C629 1.415 . S
C628 C627 1.355 . S
C628 C630 1.419 . S
C629 C624 1.425 . S
C629 C626 1.409 . S
C629 C627 1.415 . S
C630 H620 0.930 . S
C630 C628 1.419 . S
C630 C631 1.362 . S
C631 H621 0.930 . S
C631 C624 1.409 . S
C631 C630 1.362 . S
H632 C638 0.930 . S
H633 C641 0.930 . S
H634 C642 0.930 . S
H635 C643 0.930 . S
H636 C646 0.930 . S
H637 C647 0.930 . S
C638 H632 0.930 . S
C638 C639 1.355 . S
C638 C640 1.415 . S
C639 C638 1.355 . S
C639 C641 1.419 1_655 S
C640 C638 1.415 . S
C640 C645 1.425 . S
C640 C647 1.409 . S
C641 H633 0.930 . S
C641 C639 1.419 1_455 S
C641 C642 1.362 . S
C642 H634 0.930 . S
C642 C641 1.362 . S
C642 C645 1.409 1_455 S
C643 H635 0.930 . S
C643 C644 1.355 1_455 S
C643 C645 1.415 1_455 S
C644 C643 1.355 1_655 S
C644 C646 1.419 . S
C645 C640 1.425 . S
C645 C642 1.409 1_655 S
C645 C643 1.415 1_655 S
C646 H636 0.930 . S
C646 C644 1.419 . S
C646 C647 1.362 . S
C647 H637 0.930 . S
C647 C640 1.409 . S
C647 C646 1.362 . S
H648 C654 0.930 . S
H649 C657 0.930 . S
H650 C658 0.930 . S
H651 C659 0.930 . S
H652 C662 0.930 . S
H653 C663 0.930 . S
C654 H648 0.930 . S
C654 C655 1.355 . S
C654 C656 1.415 . S
C655 C654 1.355 . S
C655 C657 1.419 1_565 S
C656 C654 1.415 . S
C656 C661 1.457 . S
C656 C663 1.409 . S
C657 H649 0.930 . S
C657 C655 1.419 1_545 S
C657 C658 1.362 . S
C658 H650 0.930 . S
C658 C657 1.362 . S
C658 C661 1.388 1_545 S
C659 H651 0.930 . S
C659 C660 1.355 1_545 S
C659 C661 1.406 1_545 S
C660 C659 1.355 1_565 S
C660 C662 1.419 . S
C661 C656 1.457 . S
C661 C658 1.388 1_565 S
C661 C659 1.406 1_565 S
C662 H652 0.930 . S
C662 C660 1.419 . S
C662 C663 1.362 . S
C663 H653 0.930 . S
C663 C656 1.409 . S
C663 C662 1.362 . S
H664 C670 0.930 . S
H665 C673 0.930 . S
H666 C674 0.930 . S
H667 C675 0.930 . S
H668 C678 0.930 . S
H669 C679 0.930 . S
C670 H664 0.930 . S
C670 C671 1.355 . S
C670 C672 1.415 . S
C671 C670 1.355 . S
C671 C673 1.419 . S
C672 C670 1.415 . S
C672 C677 1.425 . S
C672 C679 1.409 . S
C673 H665 0.930 . S
C673 C671 1.419 . S
C673 C674 1.362 . S
C674 H666 0.930 . S
C674 C673 1.362 . S
C674 C677 1.409 . S
C675 H667 0.930 . S
C675 C676 1.355 . S
C675 C677 1.415 . S
C676 C675 1.355 . S
C676 C678 1.419 . S
C677 C672 1.425 . S
C677 C674 1.409 . S
C677 C675 1.415 . S
C678 H668 0.930 . S
C678 C676 1.419 . S
C678 C679 1.362 . S
C679 H669 0.930 . S
C679 C672 1.409 . S
C679 C678 1.362 . S
H680 C686 0.930 . S
H681 C689 0.930 . S
H682 C690 0.930 . S
H683 C691 0.930 . S
H684 C694 0.930 . S
H685 C695 0.930 . S
C686 H680 0.930 . S
C686 C687 1.355 . S
C686 C688 1.415 . S
C687 C686 1.355 . S
C687 C689 1.419 . S
C688 C686 1.415 . S
C688 C693 1.425 . S
C688 C695 1.409 . S
C689 H681 0.930 . S
C689 C687 1.419 . S
C689 C690 1.362 . S
C690 H682 0.930 . S
C690 C689 1.362 . S
C690 C693 1.409 . S
C691 H683 0.930 . S
C691 C692 1.355 . S
C691 C693 1.415 . S
C692 C691 1.355 . S
C692 C694 1.419 . S
C693 C688 1.425 . S
C693 C690 1.409 . S
C693 C691 1.415 . S
C694 H684 0.930 . S
C694 C692 1.419 . S
C694 C695 1.362 . S
C695 H685 0.930 . S
C695 C688 1.409 . S
C695 C694 1.362 . S
C319 C125 2.296 . S
C324 C183 2.345 . S
C340 C209 1.984 . S
C335 C144 1.934 . S
C356 C249 2.014 . S
C351 C87 1.931 . S
C372 C303 2.387 . S
C367 C106 2.274 . S
C388 C164 2.344 1_565 S
C383 C49 2.340 . S
C399 C68 1.910 . S
C404 C194 1.977 . S
C415 C11 1.993 . S
C420 C234 2.015 . S
C431 C30 2.382 . S
C436 C284 2.397 1_655 S
C452 C160 0.660 . S
C447 C97 0.636 . S
C468 C221 0.806 . S
C463 C116 0.839 . S
C484 C261 0.604 . S
C479 C135 0.662 . S
C495 C78 0.767 . S
C500 C280 0.725 . S
C511 C21 0.827 . S
C516 C181 0.802 . S
C532 C200 0.770 . S
C527 C40 0.830 . S
C548 C240 0.704 . S
C543 C59 0.622 . S
C559 C2 0.579 . S
C564 C301 0.560 . S
C575 C101 2.010 . S
C580 C154 2.238 . S
C591 C120 2.388 . S
C596 C204 2.620 . S
C612 C244 2.416 . S
C607 C139 2.203 . S
C628 C274 1.996 . S
C623 C82 1.745 . S
C639 C25 1.980 . S
C644 C169 2.234 . S
C660 C223 2.628 . S
C655 C44 2.376 . S
C676 C263 2.405 . S
C671 C63 2.216 . S
C687 C6 1.752 . S
C692 C289 1.992 . S
