# Generated by pormake.
# Topology pts, (4,4)-cn, num edge types: 1
# Building blocks:
#     Node 0, Type 0, BuildingBlock: AZAVOO_clean_linker_0, # of connection points: 4
#     Node 1, Type 0, BuildingBlock: AZAVOO_clean_linker_0, # of connection points: 4
#     Node 2, Type 1, BuildingBlock: QUQFOY_clean_sbu_1, # of connection points: 4
#     Node 3, Type 1, BuildingBlock: QUQFOY_clean_sbu_1, # of connection points: 4
#     Edge 4, Type (0, 1), BuildingBlock: AJUNOK_clean_linker_0, # of connection points: 2
#     Edge 5, Type (0, 1), BuildingBlock: AJUNOK_clean_linker_0, # of connection points: 2
#     Edge 6, Type (0, 1), BuildingBlock: AJUNOK_clean_linker_0, # of connection points: 2
#     Edge 7, Type (0, 1), BuildingBlock: AJUNOK_clean_linker_0, # of connection points: 2
#     Edge 8, Type (0, 1), BuildingBlock: AJUNOK_clean_linker_0, # of connection points: 2
#     Edge 9, Type (0, 1), BuildingBlock: AJUNOK_clean_linker_0, # of connection points: 2
#     Edge 10, Type (0, 1), BuildingBlock: AJUNOK_clean_linker_0, # of connection points: 2
#     Edge 11, Type (0, 1), BuildingBlock: AJUNOK_clean_linker_0, # of connection points: 2
# Relax obj value: 0.211
# Max RMSD: 0.244
# Mean RMSD: 0.235
data_MOF--net-pts--node1-QUQFOY_clean_sbu_1--node2-AZAVOO_clean_linker_0--edge1-AJUNOK_clean_linker_0
_symmetry_space_group_name_H-M    P1
_symmetry_Int_Tables_number       1
_symmetry_cell_setting            triclinic
loop_
_symmetry_equiv_pos_as_xyz
'x, y, z'
_cell_length_a     19.527663
_cell_length_b     21.989317
_cell_length_c     38.366165
_cell_angle_alpha  91.035913
_cell_angle_beta   93.712809
_cell_angle_gamma 90.185976
loop_
_atom_site_label
_atom_site_type_symbol
_atom_site_fract_x
_atom_site_fract_y
_atom_site_fract_z
_atom_type_partial_charge
H0 H 0.36896 0.1405 0.76329 0.0
H1 H -0.00076 0.07176 0.03781 0.0
H2 H 0.38223 0.18353 0.96063 0.0
H3 H 0.28363 0.17169 0.91844 0.0
H4 H 0.31886 0.9779 0.91407 0.0
H5 H 0.41477 0.98993 0.95748 0.0
H6 H 0.47728 0.19468 0.90626 0.0
H7 H 0.43017 0.19058 0.84554 0.0
H8 H 0.46739 0.99687 0.84173 0.0
H9 H 0.51463 1.00179 0.90243 0.0
H10 H 0.62523 0.20301 0.91602 0.0
H11 H 0.68689 0.20399 0.86229 0.0
H12 H 0.73183 0.01289 0.87436 0.0
H13 H 0.66729 0.01178 0.92684 0.0
H14 H 0.69381 0.20472 0.01084 0.0
H15 H 0.81612 0.21215 0.02911 0.0
H16 H 0.83859 0.01996 0.00694 0.0
H17 H 0.71616 0.01315 0.98915 0.0
H18 H 0.58291 0.19019 0.06585 0.0
H19 H 0.65368 0.19074 0.12119 0.0
H20 H 0.70763 0.00317 0.10201 0.0
H21 H 0.63522 0.00256 0.04785 0.0
H22 H 0.41642 0.1855 0.02681 0.0
H23 H 0.33706 0.18363 0.07363 0.0
H24 H 0.40598 0.00296 0.1005 0.0
H25 H 0.48357 0.00435 0.05268 0.0
O26 O 0.3894 0.14137 0.78698 0.0
O27 O 0.41134 0.0422 0.78604 0.0
O28 O 0.93651 0.16889 0.04144 0.0
O29 O 0.95084 0.07031 0.03029 0.0
C30 C 0.47897 0.09673 0.97274 0.0
C31 C 0.52509 0.1007 0.94593 0.0
C32 C 0.59613 0.10456 0.95426 0.0
C33 C 0.62161 0.10371 0.98941 0.0
C34 C 0.57561 0.09949 0.01635 0.0
C35 C 0.50398 0.09697 0.00809 0.0
C36 C 0.40542 0.08756 0.9622 0.0
C37 C 0.36569 0.13814 0.95238 0.0
C38 C 0.3103 0.13139 0.9277 0.0
C39 C 0.29433 0.07402 0.91244 0.0
C40 C 0.32916 0.02259 0.92555 0.0
C41 C 0.38386 0.02932 0.95062 0.0
C42 C 0.49886 0.09849 0.90867 0.0
C43 C 0.4754 0.15151 0.89217 0.0
C44 C 0.44855 0.14899 0.85752 0.0
C45 C 0.44469 0.09333 0.83883 0.0
C46 C 0.4694 0.04043 0.85539 0.0
C47 C 0.49645 0.04308 0.89 0.0
C48 C 0.64293 0.10755 0.92553 0.0
C49 C 0.64922 0.16165 0.90718 0.0
C50 C 0.68387 0.162 0.87646 0.0
C51 C 0.71278 0.1082 0.86371 0.0
C52 C 0.70822 0.0546 0.8829 0.0
C53 C 0.67292 0.05417 0.91335 0.0
C54 C 0.69651 0.10861 -0.00173 0.0
C55 C 0.72546 0.16446 0.00966 0.0
C56 C 0.79523 0.16849 0.02017 0.0
C57 C 0.83719 0.11662 0.01943 0.0
C58 C 0.80787 0.06079 0.00774 0.0
C59 C 0.73805 0.05684 -0.00268 0.0
C60 C 0.6041 0.09633 0.05299 0.0
C61 C 0.60796 0.14868 0.07442 0.0
C62 C 0.6487 0.149 0.10579 0.0
C63 C 0.68609 0.09696 0.11603 0.0
C64 C 0.67831 0.04354 0.09543 0.0
C65 C 0.63731 0.04317 0.06431 0.0
C66 C 0.45558 0.09502 0.03629 0.0
C67 C 0.41404 0.14538 0.04266 0.0
C68 C 0.36947 0.14456 0.06971 0.0
C69 C 0.36613 0.09351 0.0911 0.0
C70 C 0.40755 0.04292 0.08447 0.0
C71 C 0.45194 0.0437 0.05729 0.0
C72 C 0.41433 0.09053 0.80235 0.0
C73 C 0.91114 0.12044 0.03105 0.0
H74 H 0.04732 0.43248 0.26475 0.0
H75 H 0.1615 0.97176 0.53458 0.0
H76 H 0.96989 0.45023 0.45782 0.0
H77 H 0.96401 0.35882 0.42047 0.0
H78 H 0.18492 0.34708 0.4288 0.0
H79 H 0.19055 0.43878 0.46628 0.0
H80 H 0.98407 0.52991 0.40168 0.0
H81 H 0.98972 0.49038 0.34192 0.0
H82 H 0.21129 0.5009 0.35306 0.0
H83 H 0.20472 0.54096 0.41277 0.0
H84 H 0.99036 0.65055 0.40898 0.0
H85 H 0.98963 0.73104 0.36567 0.0
H86 H 0.199 0.77708 0.39923 0.0
H87 H 0.1999 0.69542 0.44221 0.0
H88 H 0.98651 0.72351 0.47888 0.0
H89 H -0.00841 0.83396 0.48816 0.0
H90 H 0.20072 0.81851 0.53146 0.0
H91 H 0.1953 0.70832 0.5214 0.0
H92 H 0.95819 0.63069 0.53998 0.0
H93 H 0.9385 0.70398 0.58706 0.0
H94 H 0.15369 0.69888 0.62033 0.0
H95 H 0.17327 0.62567 0.57294 0.0
H96 H 0.97082 0.46565 0.52425 0.0
H97 H 0.96795 0.38479 0.56746 0.0
H98 H 0.17897 0.42408 0.60115 0.0
H99 H 0.1816 0.50451 0.55776 0.0
O100 O 0.04625 0.44993 0.28804 0.0
O101 O 0.15987 0.45879 0.29443 0.0
O102 O 0.05322 0.93428 0.50475 0.0
O103 O 0.1577 0.92819 0.53115 0.0
C104 C 0.0845 0.51624 0.47495 0.0
C105 C 0.09038 0.55911 0.44824 0.0
C106 C 0.09308 0.62166 0.45649 0.0
C107 C 0.0891 0.64171 0.49137 0.0
C108 C 0.08159 0.5991 0.51807 0.0
C109 C 0.08031 0.53611 0.50999 0.0
C110 C 0.08061 0.45088 0.46489 0.0
C111 C 0.01681 0.42602 0.45327 0.0
C112 C 0.01353 0.37417 0.43171 0.0
C113 C 0.07403 0.34633 0.42174 0.0
C114 C 0.13761 0.36737 0.43651 0.0
C115 C 0.14087 0.41955 0.45797 0.0
C116 C 0.09398 0.53816 0.41143 0.0
C117 C 0.03371 0.52403 0.39103 0.0
C118 C 0.03713 0.5014 0.35695 0.0
C119 C 0.10098 0.49216 0.34277 0.0
C120 C 0.1613 0.50732 0.36321 0.0
C121 C 0.15774 0.53029 0.39725 0.0
C122 C 0.09541 0.66682 0.42838 0.0
C123 C 0.0365 0.67716 0.40649 0.0
C124 C 0.03599 0.72327 0.38202 0.0
C125 C 0.09407 0.7603 0.37945 0.0
C126 C 0.15339 0.74947 0.4011 0.0
C127 C 0.15412 0.70278 0.42535 0.0
C128 C 0.09047 0.70805 0.49958 0.0
C129 C 0.03321 0.74412 0.49052 0.0
C130 C 0.03634 0.80714 0.49575 0.0
C131 C 0.09674 0.83509 0.51038 0.0
C132 C 0.15349 0.79849 0.5201 0.0
C133 C 0.15045 0.73554 0.51457 0.0
C134 C 0.06708 0.6227 0.55318 0.0
C135 C 0.00049 0.64313 0.55843 0.0
C136 C 0.98948 0.68554 0.58496 0.0
C137 C 0.04488 0.70768 0.60671 0.0
C138 C 0.11028 0.68239 0.60378 0.0
C139 C 0.12139 0.6402 0.57701 0.0
C140 C 0.07639 0.4909 0.53795 0.0
C141 C 0.01628 0.45689 0.54106 0.0
C142 C 0.0148 0.4107 0.56558 0.0
C143 C 0.0732 0.39835 0.58763 0.0
C144 C 0.13301 0.43318 0.58477 0.0
C145 C 0.13457 0.47907 0.56009 0.0
C146 C 0.10443 0.4661 0.30697 0.0
C147 C 0.10094 0.90214 0.51521 0.0
O148 O 0.95572 0.0417 0.2159 0.0
Cd149 Cd 0.05519 0.02546 0.23456 0.0
Cd150 Cd 0.06221 0.14514 0.24172 0.0
O151 O 0.96566 0.14143 0.21635 0.0
O152 O 0.0577 0.93744 0.24515 0.0
O153 O 0.07696 0.00962 0.28547 0.0
C154 C 0.0719 0.95242 0.27746 0.0
C155 C 0.07162 0.19799 0.29498 0.0
C156 C 0.93033 0.09365 0.20936 0.0
C157 C 0.16409 0.08891 0.19648 0.0
O158 O 0.14568 0.13768 0.21146 0.0
O159 O 0.13312 0.03921 0.20155 0.0
O160 O 0.06679 0.22596 0.26566 0.0
O161 O 0.07294 0.13927 0.29411 0.0
O162 O 0.94221 0.13124 0.75013 0.0
Cd163 Cd 0.03709 0.12956 0.72966 0.0
Cd164 Cd 0.01154 0.00495 0.73413 0.0
O165 O 0.91668 0.03333 0.74773 0.0
O166 O 0.05352 0.21751 0.72111 0.0
O167 O 0.04842 0.14837 0.67878 0.0
C168 C 0.05602 0.20468 0.6884 0.0
C169 C 0.01858 0.92141 0.69602 0.0
C170 C 0.901 0.08787 0.75514 0.0
C171 C 0.12421 0.06061 0.78225 0.0
O172 O 0.08747 0.01437 0.77359 0.0
O173 O 0.11644 0.10989 0.76566 0.0
O174 O 0.00402 0.91477 0.72798 0.0
O175 O 0.0287 0.97593 0.68539 0.0
C176 C 0.2744 0.04187 0.12257 0.0
C177 C 0.31794 0.09228 0.11954 0.0
C178 C 0.22605 0.04076 0.14801 0.0
C179 C 0.21908 0.09011 0.17145 0.0
H180 H 0.27647 0.00351 0.10455 0.0
H181 H 0.19279 1.00134 0.14868 0.0
S182 S 0.32609 0.23034 0.17674 0.0
N183 N 0.35496 0.19072 0.14384 0.0
N184 N 0.26354 0.18919 0.19139 0.0
C185 C 0.2638 0.14012 0.16935 0.0
C186 C 0.31326 0.14108 0.14348 0.0
C187 C 0.04994 0.29012 0.60289 0.0
C188 C 0.07161 0.34907 0.6135 0.0
C189 C 0.04695 0.24314 0.62707 0.0
C190 C 0.06458 0.25365 0.66285 0.0
H191 H 0.03529 0.28023 0.57565 0.0
H192 H 0.02925 0.19866 0.61774 0.0
S193 S 0.1253 0.40028 0.70376 0.0
N194 N 0.1116 0.41538 0.66191 0.0
N195 N 0.10605 0.32761 0.70742 0.0
C196 C 0.08708 0.31241 0.67365 0.0
C197 C 0.09061 0.35996 0.64899 0.0
C198 C 0.78845 0.14859 0.14588 0.0
C199 C 0.74064 0.10045 0.14485 0.0
C200 C 0.84785 0.14764 0.16837 0.0
C201 C 0.86213 0.09815 0.19037 0.0
H202 H 0.78207 0.18567 0.12776 0.0
H203 H 0.88466 0.18435 0.167 0.0
S204 S 0.74753 0.96616 0.20209 0.0
N205 N 0.70678 0.00624 0.17128 0.0
N206 N 0.81946 0.00359 0.21296 0.0
C207 C 0.8126 0.05171 0.19129 0.0
C208 C 0.75165 0.05306 0.16868 0.0
C209 C 0.05327 0.75997 0.66539 0.0
C210 C 0.03619 0.76197 0.62933 0.0
C211 C 0.04661 0.81174 0.68682 0.0
C212 C 0.02444 0.86761 0.67274 0.0
H213 H 0.07142 0.71805 0.6771 0.0
H214 H 0.06001 0.80822 0.71456 0.0
S215 S 0.97394 0.89632 0.57972 0.0
N216 N -0.00411 0.82388 0.58039 0.0
N217 N 0.98504 0.92151 0.62051 0.0
C218 C 0.00781 0.87021 0.63665 0.0
C219 C 0.01323 0.81726 0.61498 0.0
C220 C 0.25933 0.10993 0.85251 0.0
C221 C 0.24957 0.06925 0.8797 0.0
C222 C 0.22039 0.10539 0.82064 0.0
C223 C 0.17019 0.0598 0.81454 0.0
H224 H 0.29784 0.14546 0.85573 0.0
H225 H 0.22941 0.13828 0.80073 0.0
S226 S 0.12315 0.94288 0.8777 0.0
N227 N 0.18508 0.9827 0.89879 0.0
N228 N 0.11223 0.97334 0.83873 0.0
C229 C 0.16033 0.0183 0.84141 0.0
C230 C 0.19983 0.02326 0.874 0.0
C231 C 0.04252 0.32658 0.35895 0.0
C232 C 0.07139 0.30502 0.39084 0.0
C233 C 0.0435 0.2916 0.32825 0.0
C234 C 0.0722 0.23303 0.32829 0.0
H235 H 0.02014 0.37151 0.35757 0.0
H236 H 0.02107 0.31064 0.30431 0.0
S237 S 0.15273 0.15491 0.40541 0.0
N238 N 0.1292 0.22168 0.42099 0.0
N239 N 0.12916 0.1544 0.36324 0.0
C240 C 0.10013 0.21026 0.36019 0.0
C241 C 0.10036 0.24669 0.39147 0.0
C242 C 0.80031 0.15366 0.82719 0.0
C243 C 0.75082 0.10835 0.83149 0.0
C244 C 0.84485 0.14949 0.80013 0.0
C245 C 0.84205 0.09946 0.77662 0.0
H246 H 0.80759 0.1907 0.84608 0.0
H247 H 0.88494 0.18351 0.79935 0.0
S248 S 0.71166 0.9761 0.77203 0.0
N249 N 0.69349 0.01782 0.80642 0.0
N250 N 0.77882 0.0089 0.75608 0.0
C251 C 0.78889 0.05673 0.77878 0.0
C252 C 0.74298 0.06138 0.80614 0.0
C253 C 0.07282 0.79722 0.3188 0.0
C254 C 0.09207 0.81004 0.35404 0.0
C255 C 0.0675 0.84358 0.29433 0.0
C256 C 0.08057 0.90476 0.3042 0.0
H257 H 0.06169 0.75087 0.31008 0.0
H258 H 0.05214 0.83119 0.2675 0.0
S259 S 0.13187 0.96195 0.39385 0.0
N260 N 0.12395 0.88768 0.398 0.0
N261 N 0.11382 0.97542 0.35204 0.0
C262 C 0.10026 0.91815 0.33949 0.0
C263 C 0.10613 0.87064 0.36439 0.0
loop_
_geom_bond_atom_site_label_1
_geom_bond_atom_site_label_2
_geom_bond_distance
_geom_bond_site_symmetry_2
_ccdc_geom_bond_type
H0 O26 0.856 . S
H1 O29 0.854 1_455 S
H2 C37 0.930 . S
H3 C38 0.930 . S
H4 C40 0.930 . S
H5 C41 0.930 . S
H6 C43 0.931 . S
H7 C44 0.930 . S
H8 C46 0.930 1_565 S
H9 C47 0.929 1_565 S
H10 C49 0.930 . S
H11 C50 0.931 . S
H12 C52 0.930 1_565 S
H13 C53 0.929 1_565 S
H14 C55 0.931 . S
H15 C56 0.930 . S
H16 C58 0.930 1_565 S
H17 C59 0.932 1_565 S
H18 C61 0.930 . S
H19 C62 0.929 . S
H20 C64 0.931 . S
H21 C65 0.930 . S
H22 C67 0.929 . S
H23 C68 0.931 . S
H24 C70 0.930 1_565 S
H25 C71 0.929 . S
O26 H0 0.856 . S
O26 C72 1.300 . S
O27 C72 1.209 . S
O28 C73 1.199 . S
O29 H1 0.854 1_655 S
O29 C73 1.297 . S
C30 C31 1.404 . S
C30 C35 1.397 1_556 S
C30 C36 1.492 . S
C31 C30 1.404 . S
C31 C32 1.396 . S
C31 C42 1.492 . S
C32 C31 1.396 . S
C32 C33 1.397 . S
C32 C48 1.509 . S
C33 C32 1.397 . S
C33 C34 1.412 1_556 S
C33 C54 1.485 1_556 S
C34 C33 1.412 1_554 S
C34 C35 1.388 . S
C34 C60 1.490 . S
C35 C30 1.397 1_554 S
C35 C34 1.388 . S
C35 C66 1.519 . S
C36 C30 1.492 . S
C36 C37 1.363 . S
C36 C41 1.390 . S
C37 H2 0.930 . S
C37 C36 1.363 . S
C37 C38 1.372 . S
C38 H3 0.930 . S
C38 C37 1.372 . S
C38 C39 1.383 . S
C39 C38 1.383 . S
C39 C40 1.395 . S
C40 H4 0.930 . S
C40 C39 1.395 . S
C40 C41 1.362 . S
C41 H5 0.930 . S
C41 C36 1.390 . S
C41 C40 1.362 . S
C42 C31 1.492 . S
C42 C43 1.377 . S
C42 C47 1.397 . S
C43 H6 0.931 . S
C43 C42 1.377 . S
C43 C44 1.376 . S
C44 H7 0.930 . S
C44 C43 1.376 . S
C44 C45 1.376 . S
C45 C44 1.376 . S
C45 C46 1.378 . S
C45 C72 1.486 . S
C46 H8 0.930 1_545 S
C46 C45 1.378 . S
C46 C47 1.376 . S
C47 H9 0.929 1_545 S
C47 C42 1.397 . S
C47 C46 1.376 . S
C48 C32 1.509 . S
C48 C49 1.391 . S
C48 C53 1.386 . S
C49 H10 0.930 . S
C49 C48 1.391 . S
C49 C50 1.375 . S
C50 H11 0.931 . S
C50 C49 1.375 . S
C50 C51 1.375 . S
C51 C50 1.375 . S
C51 C52 1.361 . S
C52 H12 0.930 1_545 S
C52 C51 1.361 . S
C52 C53 1.399 . S
C53 H13 0.929 1_545 S
C53 C48 1.386 . S
C53 C52 1.399 . S
C54 C33 1.485 1_554 S
C54 C55 1.394 . S
C54 C59 1.360 1_554 S
C55 H14 0.931 . S
C55 C54 1.394 . S
C55 C56 1.372 . S
C56 H15 0.930 . S
C56 C55 1.372 . S
C56 C57 1.397 . S
C57 C56 1.397 . S
C57 C58 1.390 . S
C57 C73 1.476 . S
C58 H16 0.930 1_545 S
C58 C57 1.390 . S
C58 C59 1.366 1_554 S
C59 H17 0.932 1_545 S
C59 C54 1.360 1_556 S
C59 C58 1.366 1_556 S
C60 C34 1.490 . S
C60 C61 1.380 . S
C60 C65 1.386 . S
C61 H18 0.930 . S
C61 C60 1.380 . S
C61 C62 1.381 . S
C62 H19 0.929 . S
C62 C61 1.381 . S
C62 C63 1.371 . S
C63 C62 1.371 . S
C63 C64 1.380 . S
C64 H20 0.931 . S
C64 C63 1.380 . S
C64 C65 1.387 . S
C65 H21 0.930 . S
C65 C60 1.386 . S
C65 C64 1.387 . S
C66 C35 1.519 . S
C66 C67 1.377 . S
C66 C71 1.361 . S
C67 H22 0.929 . S
C67 C66 1.377 . S
C67 C68 1.386 . S
C68 H23 0.931 . S
C68 C67 1.386 . S
C68 C69 1.363 . S
C69 C68 1.363 . S
C69 C70 1.385 . S
C70 H24 0.930 1_545 S
C70 C69 1.385 . S
C70 C71 1.396 . S
C71 H25 0.929 . S
C71 C66 1.361 . S
C71 C70 1.396 . S
C72 O26 1.300 . S
C72 O27 1.209 . S
C72 C45 1.486 . S
C73 O28 1.199 . S
C73 O29 1.297 . S
C73 C57 1.476 . S
H74 O100 0.856 . S
H75 O103 0.854 . S
H76 C111 0.930 . S
H77 C112 0.930 . S
H78 C114 0.930 . S
H79 C115 0.930 . S
H80 C117 0.931 1_655 S
H81 C118 0.930 1_655 S
H82 C120 0.930 . S
H83 C121 0.929 . S
H84 C123 0.930 1_655 S
H85 C124 0.931 1_655 S
H86 C126 0.930 . S
H87 C127 0.929 . S
H88 C129 0.931 1_655 S
H89 C130 0.930 1_655 S
H90 C132 0.930 . S
H91 C133 0.932 . S
H92 C135 0.930 . S
H93 C136 0.929 . S
H94 C138 0.931 . S
H95 C139 0.930 . S
H96 C141 0.929 1_655 S
H97 C142 0.931 1_655 S
H98 C144 0.930 . S
H99 C145 0.929 . S
O100 H74 0.856 . S
O100 C146 1.300 . S
O101 C146 1.209 . S
O102 C147 1.199 . S
O103 H75 0.854 . S
O103 C147 1.297 . S
C104 C105 1.404 . S
C104 C109 1.397 . S
C104 C110 1.492 . S
C105 C104 1.404 . S
C105 C106 1.396 . S
C105 C116 1.492 . S
C106 C105 1.396 . S
C106 C107 1.397 . S
C106 C122 1.509 . S
C107 C106 1.397 . S
C107 C108 1.412 . S
C107 C128 1.485 . S
C108 C107 1.412 . S
C108 C109 1.388 . S
C108 C134 1.490 . S
C109 C104 1.397 . S
C109 C108 1.388 . S
C109 C140 1.519 . S
C110 C104 1.492 . S
C110 C111 1.363 1_455 S
C110 C115 1.390 . S
C111 H76 0.930 . S
C111 C110 1.363 1_655 S
C111 C112 1.372 . S
C112 H77 0.930 . S
C112 C111 1.372 . S
C112 C113 1.383 1_655 S
C113 C112 1.383 1_455 S
C113 C114 1.395 . S
C114 H78 0.930 . S
C114 C113 1.395 . S
C114 C115 1.362 . S
C115 H79 0.930 . S
C115 C110 1.390 . S
C115 C114 1.362 . S
C116 C105 1.492 . S
C116 C117 1.377 . S
C116 C121 1.397 . S
C117 H80 0.931 1_455 S
C117 C116 1.377 . S
C117 C118 1.376 . S
C118 H81 0.930 1_455 S
C118 C117 1.376 . S
C118 C119 1.376 . S
C119 C118 1.376 . S
C119 C120 1.378 . S
C119 C146 1.486 . S
C120 H82 0.930 . S
C120 C119 1.378 . S
C120 C121 1.376 . S
C121 H83 0.929 . S
C121 C116 1.397 . S
C121 C120 1.376 . S
C122 C106 1.509 . S
C122 C123 1.391 . S
C122 C127 1.386 . S
C123 H84 0.930 1_455 S
C123 C122 1.391 . S
C123 C124 1.375 . S
C124 H85 0.931 1_455 S
C124 C123 1.375 . S
C124 C125 1.375 . S
C125 C124 1.375 . S
C125 C126 1.361 . S
C126 H86 0.930 . S
C126 C125 1.361 . S
C126 C127 1.399 . S
C127 H87 0.929 . S
C127 C122 1.386 . S
C127 C126 1.399 . S
C128 C107 1.485 . S
C128 C129 1.394 . S
C128 C133 1.360 . S
C129 H88 0.931 1_455 S
C129 C128 1.394 . S
C129 C130 1.372 . S
C130 H89 0.930 1_455 S
C130 C129 1.372 . S
C130 C131 1.397 . S
C131 C130 1.397 . S
C131 C132 1.390 . S
C131 C147 1.476 . S
C132 H90 0.930 . S
C132 C131 1.390 . S
C132 C133 1.366 . S
C133 H91 0.932 . S
C133 C128 1.360 . S
C133 C132 1.366 . S
C134 C108 1.490 . S
C134 C135 1.380 1_455 S
C134 C139 1.386 . S
C135 H92 0.930 . S
C135 C134 1.380 1_655 S
C135 C136 1.381 . S
C136 H93 0.929 . S
C136 C135 1.381 . S
C136 C137 1.371 1_655 S
C137 C136 1.371 1_455 S
C137 C138 1.380 . S
C138 H94 0.931 . S
C138 C137 1.380 . S
C138 C139 1.387 . S
C139 H95 0.930 . S
C139 C134 1.386 . S
C139 C138 1.387 . S
C140 C109 1.519 . S
C140 C141 1.377 . S
C140 C145 1.361 . S
C141 H96 0.929 1_455 S
C141 C140 1.377 . S
C141 C142 1.386 . S
C142 H97 0.931 1_455 S
C142 C141 1.386 . S
C142 C143 1.363 . S
C143 C142 1.363 . S
C143 C144 1.385 . S
C144 H98 0.930 . S
C144 C143 1.385 . S
C144 C145 1.396 . S
C145 H99 0.929 . S
C145 C140 1.361 . S
C145 C144 1.396 . S
C146 O100 1.300 . S
C146 O101 1.209 . S
C146 C119 1.486 . S
C147 O102 1.199 . S
C147 O103 1.297 . S
C147 C131 1.476 . S
O148 Cd149 2.223 . S
O148 C156 1.315 1_455 S
Cd149 O148 2.223 . S
Cd149 O152 2.297 1_545 S
Cd149 O153 2.439 . S
Cd149 O159 2.240 . S
Cd150 O151 2.240 1_455 S
Cd150 O158 2.223 . S
Cd150 O160 2.297 . S
Cd150 O161 2.439 . S
O151 Cd150 2.240 1_655 S
O151 C156 1.279 . S
O152 Cd149 2.297 1_565 S
O152 C154 1.247 . S
O153 Cd149 2.439 . S
O153 C154 1.208 1_545 S
C154 O152 1.247 . S
C154 O153 1.208 1_565 S
C155 O160 1.247 . S
C155 O161 1.208 . S
C156 O148 1.315 1_655 S
C156 O151 1.279 . S
C157 O158 1.315 . S
C157 O159 1.279 . S
O158 Cd150 2.223 . S
O158 C157 1.315 . S
O159 Cd149 2.240 . S
O159 C157 1.279 . S
O160 Cd150 2.297 . S
O160 C155 1.247 . S
O161 Cd150 2.439 . S
O161 C155 1.208 . S
O162 Cd163 2.223 . S
O162 C170 1.315 1_455 S
Cd163 O162 2.223 . S
Cd163 O166 2.297 . S
Cd163 O167 2.439 . S
Cd163 O173 2.240 . S
Cd164 O165 2.240 1_465 S
Cd164 O172 2.223 . S
Cd164 O174 2.297 . S
Cd164 O175 2.439 . S
O165 Cd164 2.240 1_645 S
O165 C170 1.279 . S
O166 Cd163 2.297 . S
O166 C168 1.247 . S
O167 Cd163 2.439 . S
O167 C168 1.208 . S
C168 O166 1.247 . S
C168 O167 1.208 . S
C169 O174 1.247 . S
C169 O175 1.208 . S
C170 O162 1.315 1_655 S
C170 O165 1.279 . S
C171 O172 1.315 1_545 S
C171 O173 1.279 . S
O172 Cd164 2.223 . S
O172 C171 1.315 1_565 S
O173 Cd163 2.240 . S
O173 C171 1.279 . S
O174 Cd164 2.297 . S
O174 C169 1.247 . S
O175 Cd164 2.439 . S
O175 C169 1.208 . S
C176 C177 1.369 . S
C176 C178 1.419 . S
C176 H180 0.930 . S
C177 C176 1.369 . S
C177 C186 1.429 . S
C178 C176 1.419 . S
C178 C179 1.363 . S
C178 H181 0.929 . S
C179 C178 1.363 . S
C179 C185 1.428 . S
H180 C176 0.930 . S
H181 C178 0.929 . S
S182 N183 1.613 . S
S182 N184 1.610 . S
N183 S182 1.613 . S
N183 C186 1.350 . S
N184 S182 1.610 . S
N184 C185 1.351 . S
C185 C179 1.428 . S
C185 N184 1.351 . S
C185 C186 1.434 . S
C186 C177 1.429 . S
C186 N183 1.350 . S
C186 C185 1.434 . S
C187 C188 1.369 . S
C187 C189 1.419 1_455 S
C187 H191 0.930 1_455 S
C188 C187 1.369 . S
C188 C197 1.429 . S
C189 C187 1.419 1_655 S
C189 C190 1.363 1_655 S
C189 H192 0.929 . S
C190 C189 1.363 1_455 S
C190 C196 1.428 . S
H191 C187 0.930 1_655 S
H192 C189 0.929 . S
S193 N194 1.613 . S
S193 N195 1.610 . S
N194 S193 1.613 . S
N194 C197 1.350 . S
N195 S193 1.610 . S
N195 C196 1.351 . S
C196 C190 1.428 . S
C196 N195 1.351 . S
C196 C197 1.434 . S
C197 C188 1.429 . S
C197 N194 1.350 . S
C197 C196 1.434 . S
C198 C199 1.369 . S
C198 C200 1.419 . S
C198 H202 0.930 . S
C199 C198 1.369 . S
C199 C208 1.429 . S
C200 C198 1.419 . S
C200 C201 1.363 . S
C200 H203 0.929 . S
C201 C200 1.363 . S
C201 C207 1.428 . S
H202 C198 0.930 . S
H203 C200 0.929 . S
S204 N205 1.613 1_565 S
S204 N206 1.610 . S
N205 S204 1.613 1_545 S
N205 C208 1.350 . S
N206 S204 1.610 . S
N206 C207 1.351 1_565 S
C207 C201 1.428 . S
C207 N206 1.351 1_545 S
C207 C208 1.434 . S
C208 C199 1.429 . S
C208 N205 1.350 . S
C208 C207 1.434 . S
C209 C210 1.369 . S
C209 C211 1.419 . S
C209 H213 0.930 . S
C210 C209 1.369 . S
C210 C219 1.429 . S
C211 C209 1.419 . S
C211 C212 1.363 . S
C211 H214 0.929 . S
C212 C211 1.363 . S
C212 C218 1.428 . S
H213 C209 0.930 . S
H214 C211 0.929 . S
S215 N216 1.613 . S
S215 N217 1.610 . S
N216 S215 1.613 . S
N216 C219 1.350 . S
N217 S215 1.610 . S
N217 C218 1.351 . S
C218 C212 1.428 . S
C218 N217 1.351 . S
C218 C219 1.434 . S
C219 C210 1.429 . S
C219 N216 1.350 . S
C219 C218 1.434 . S
C220 C221 1.369 . S
C220 C222 1.419 . S
C220 H224 0.930 . S
C221 C220 1.369 . S
C221 C230 1.429 . S
C222 C220 1.419 . S
C222 C223 1.363 . S
C222 H225 0.929 . S
C223 C222 1.363 . S
C223 C229 1.428 . S
H224 C220 0.930 . S
H225 C222 0.929 . S
S226 N227 1.613 1_565 S
S226 N228 1.610 . S
N227 S226 1.613 1_545 S
N227 C230 1.350 . S
N228 S226 1.610 . S
N228 C229 1.351 1_565 S
C229 C223 1.428 . S
C229 N228 1.351 1_545 S
C229 C230 1.434 . S
C230 C221 1.429 . S
C230 N227 1.350 . S
C230 C229 1.434 . S
C231 C232 1.369 . S
C231 C233 1.419 . S
C231 H235 0.930 . S
C232 C231 1.369 . S
C232 C241 1.429 . S
C233 C231 1.419 . S
C233 C234 1.363 . S
C233 H236 0.929 . S
C234 C233 1.363 . S
C234 C240 1.428 . S
H235 C231 0.930 . S
H236 C233 0.929 . S
S237 N238 1.613 . S
S237 N239 1.610 . S
N238 S237 1.613 . S
N238 C241 1.350 . S
N239 S237 1.610 . S
N239 C240 1.351 . S
C240 C234 1.428 . S
C240 N239 1.351 . S
C240 C241 1.434 . S
C241 C232 1.429 . S
C241 N238 1.350 . S
C241 C240 1.434 . S
C242 C243 1.369 . S
C242 C244 1.419 . S
C242 H246 0.930 . S
C243 C242 1.369 . S
C243 C252 1.429 . S
C244 C242 1.419 . S
C244 C245 1.363 . S
C244 H247 0.929 . S
C245 C244 1.363 . S
C245 C251 1.428 . S
H246 C242 0.930 . S
H247 C244 0.929 . S
S248 N249 1.613 . S
S248 N250 1.610 . S
N249 S248 1.613 . S
N249 C252 1.350 . S
N250 S248 1.610 . S
N250 C251 1.351 . S
C251 C245 1.428 . S
C251 N250 1.351 . S
C251 C252 1.434 . S
C252 C243 1.429 . S
C252 N249 1.350 . S
C252 C251 1.434 . S
C253 C254 1.369 . S
C253 C255 1.419 1_455 S
C253 H257 0.930 1_455 S
C254 C253 1.369 . S
C254 C263 1.429 . S
C255 C253 1.419 1_655 S
C255 C256 1.363 1_655 S
C255 H258 0.929 . S
C256 C255 1.363 1_455 S
C256 C262 1.428 . S
H257 C253 0.930 1_655 S
H258 C255 0.929 . S
S259 N260 1.613 . S
S259 N261 1.610 . S
N260 S259 1.613 . S
N260 C263 1.350 . S
N261 S259 1.610 . S
N261 C262 1.351 . S
C262 C256 1.428 . S
C262 N261 1.351 . S
C262 C263 1.434 . S
C263 C254 1.429 . S
C263 N260 1.350 . S
C263 C262 1.434 . S
C179 C157 2.132 . S
C177 C69 2.116 . S
C190 C168 2.144 . S
C188 C143 2.239 . S
C201 C156 1.881 . S
C199 C63 1.669 . S
C212 C169 1.711 . S
C210 C137 1.638 . S
C223 C171 1.847 . S
C221 C39 1.652 . S
C234 C155 1.659 . S
C232 C113 1.572 . S
C245 C170 1.044 . S
C243 C51 1.034 . S
C254 C125 1.149 . S
C256 C154 1.078 . S
