# Generated by pormake.
# Topology ptr, (4,4)-cn, num edge types: 1
# Building blocks:
#     Node 0, Type 0, BuildingBlock: QUQFOY_clean_sbu_3, # of connection points: 4
#     Node 1, Type 0, BuildingBlock: QUQFOY_clean_sbu_3, # of connection points: 4
#     Node 2, Type 0, BuildingBlock: QUQFOY_clean_sbu_3, # of connection points: 4
#     Node 3, Type 0, BuildingBlock: QUQFOY_clean_sbu_3, # of connection points: 4
#     Node 4, Type 0, BuildingBlock: QUQFOY_clean_sbu_3, # of connection points: 4
#     Node 5, Type 0, BuildingBlock: QUQFOY_clean_sbu_3, # of connection points: 4
#     Node 6, Type 0, BuildingBlock: QUQFOY_clean_sbu_3, # of connection points: 4
#     Node 7, Type 0, BuildingBlock: QUQFOY_clean_sbu_3, # of connection points: 4
#     Node 8, Type 0, BuildingBlock: QUQFOY_clean_sbu_3, # of connection points: 4
#     Node 9, Type 0, BuildingBlock: QUQFOY_clean_sbu_3, # of connection points: 4
#     Node 10, Type 0, BuildingBlock: QUQFOY_clean_sbu_3, # of connection points: 4
#     Node 11, Type 0, BuildingBlock: QUQFOY_clean_sbu_3, # of connection points: 4
#     Node 12, Type 0, BuildingBlock: QUQFOY_clean_sbu_3, # of connection points: 4
#     Node 13, Type 0, BuildingBlock: QUQFOY_clean_sbu_3, # of connection points: 4
#     Node 14, Type 0, BuildingBlock: QUQFOY_clean_sbu_3, # of connection points: 4
#     Node 15, Type 0, BuildingBlock: QUQFOY_clean_sbu_3, # of connection points: 4
#     Node 16, Type 0, BuildingBlock: QUQFOY_clean_sbu_3, # of connection points: 4
#     Node 17, Type 0, BuildingBlock: QUQFOY_clean_sbu_3, # of connection points: 4
#     Node 18, Type 1, BuildingBlock: MUDLON_clean_linker_0, # of connection points: 4
#     Node 19, Type 1, BuildingBlock: MUDLON_clean_linker_0, # of connection points: 4
#     Node 20, Type 1, BuildingBlock: MUDLON_clean_linker_0, # of connection points: 4
#     Node 21, Type 1, BuildingBlock: MUDLON_clean_linker_0, # of connection points: 4
#     Node 22, Type 1, BuildingBlock: MUDLON_clean_linker_0, # of connection points: 4
#     Node 23, Type 1, BuildingBlock: MUDLON_clean_linker_0, # of connection points: 4
#     Node 24, Type 1, BuildingBlock: MUDLON_clean_linker_0, # of connection points: 4
#     Node 25, Type 1, BuildingBlock: MUDLON_clean_linker_0, # of connection points: 4
#     Node 26, Type 1, BuildingBlock: MUDLON_clean_linker_0, # of connection points: 4
#     Node 27, Type 1, BuildingBlock: MUDLON_clean_linker_0, # of connection points: 4
#     Node 28, Type 1, BuildingBlock: MUDLON_clean_linker_0, # of connection points: 4
#     Node 29, Type 1, BuildingBlock: MUDLON_clean_linker_0, # of connection points: 4
#     Node 30, Type 1, BuildingBlock: MUDLON_clean_linker_0, # of connection points: 4
#     Node 31, Type 1, BuildingBlock: MUDLON_clean_linker_0, # of connection points: 4
#     Node 32, Type 1, BuildingBlock: MUDLON_clean_linker_0, # of connection points: 4
#     Node 33, Type 1, BuildingBlock: MUDLON_clean_linker_0, # of connection points: 4
#     Node 34, Type 1, BuildingBlock: MUDLON_clean_linker_0, # of connection points: 4
#     Node 35, Type 1, BuildingBlock: MUDLON_clean_linker_0, # of connection points: 4
#     Edge 36, Type (0, 1), BuildingBlock: AJUNOK_clean_linker_0, # of connection points: 2
#     Edge 37, Type (0, 1), BuildingBlock: AJUNOK_clean_linker_0, # of connection points: 2
#     Edge 38, Type (0, 1), BuildingBlock: AJUNOK_clean_linker_0, # of connection points: 2
#     Edge 39, Type (0, 1), BuildingBlock: AJUNOK_clean_linker_0, # of connection points: 2
#     Edge 40, Type (0, 1), BuildingBlock: AJUNOK_clean_linker_0, # of connection points: 2
#     Edge 41, Type (0, 1), BuildingBlock: AJUNOK_clean_linker_0, # of connection points: 2
#     Edge 42, Type (0, 1), BuildingBlock: AJUNOK_clean_linker_0, # of connection points: 2
#     Edge 43, Type (0, 1), BuildingBlock: AJUNOK_clean_linker_0, # of connection points: 2
#     Edge 44, Type (0, 1), BuildingBlock: AJUNOK_clean_linker_0, # of connection points: 2
#     Edge 45, Type (0, 1), BuildingBlock: AJUNOK_clean_linker_0, # of connection points: 2
#     Edge 46, Type (0, 1), BuildingBlock: AJUNOK_clean_linker_0, # of connection points: 2
#     Edge 47, Type (0, 1), BuildingBlock: AJUNOK_clean_linker_0, # of connection points: 2
#     Edge 48, Type (0, 1), BuildingBlock: AJUNOK_clean_linker_0, # of connection points: 2
#     Edge 49, Type (0, 1), BuildingBlock: AJUNOK_clean_linker_0, # of connection points: 2
#     Edge 50, Type (0, 1), BuildingBlock: AJUNOK_clean_linker_0, # of connection points: 2
#     Edge 51, Type (0, 1), BuildingBlock: AJUNOK_clean_linker_0, # of connection points: 2
#     Edge 52, Type (0, 1), BuildingBlock: AJUNOK_clean_linker_0, # of connection points: 2
#     Edge 53, Type (0, 1), BuildingBlock: AJUNOK_clean_linker_0, # of connection points: 2
#     Edge 54, Type (0, 1), BuildingBlock: AJUNOK_clean_linker_0, # of connection points: 2
#     Edge 55, Type (0, 1), BuildingBlock: AJUNOK_clean_linker_0, # of connection points: 2
#     Edge 56, Type (0, 1), BuildingBlock: AJUNOK_clean_linker_0, # of connection points: 2
#     Edge 57, Type (0, 1), BuildingBlock: AJUNOK_clean_linker_0, # of connection points: 2
#     Edge 58, Type (0, 1), BuildingBlock: AJUNOK_clean_linker_0, # of connection points: 2
#     Edge 59, Type (0, 1), BuildingBlock: AJUNOK_clean_linker_0, # of connection points: 2
#     Edge 60, Type (0, 1), BuildingBlock: AJUNOK_clean_linker_0, # of connection points: 2
#     Edge 61, Type (0, 1), BuildingBlock: AJUNOK_clean_linker_0, # of connection points: 2
#     Edge 62, Type (0, 1), BuildingBlock: AJUNOK_clean_linker_0, # of connection points: 2
#     Edge 63, Type (0, 1), BuildingBlock: AJUNOK_clean_linker_0, # of connection points: 2
#     Edge 64, Type (0, 1), BuildingBlock: AJUNOK_clean_linker_0, # of connection points: 2
#     Edge 65, Type (0, 1), BuildingBlock: AJUNOK_clean_linker_0, # of connection points: 2
#     Edge 66, Type (0, 1), BuildingBlock: AJUNOK_clean_linker_0, # of connection points: 2
#     Edge 67, Type (0, 1), BuildingBlock: AJUNOK_clean_linker_0, # of connection points: 2
#     Edge 68, Type (0, 1), BuildingBlock: AJUNOK_clean_linker_0, # of connection points: 2
#     Edge 69, Type (0, 1), BuildingBlock: AJUNOK_clean_linker_0, # of connection points: 2
#     Edge 70, Type (0, 1), BuildingBlock: AJUNOK_clean_linker_0, # of connection points: 2
#     Edge 71, Type (0, 1), BuildingBlock: AJUNOK_clean_linker_0, # of connection points: 2
#     Edge 72, Type (0, 1), BuildingBlock: AJUNOK_clean_linker_0, # of connection points: 2
#     Edge 73, Type (0, 1), BuildingBlock: AJUNOK_clean_linker_0, # of connection points: 2
#     Edge 74, Type (0, 1), BuildingBlock: AJUNOK_clean_linker_0, # of connection points: 2
#     Edge 75, Type (0, 1), BuildingBlock: AJUNOK_clean_linker_0, # of connection points: 2
#     Edge 76, Type (0, 1), BuildingBlock: AJUNOK_clean_linker_0, # of connection points: 2
#     Edge 77, Type (0, 1), BuildingBlock: AJUNOK_clean_linker_0, # of connection points: 2
#     Edge 78, Type (0, 1), BuildingBlock: AJUNOK_clean_linker_0, # of connection points: 2
#     Edge 79, Type (0, 1), BuildingBlock: AJUNOK_clean_linker_0, # of connection points: 2
#     Edge 80, Type (0, 1), BuildingBlock: AJUNOK_clean_linker_0, # of connection points: 2
#     Edge 81, Type (0, 1), BuildingBlock: AJUNOK_clean_linker_0, # of connection points: 2
#     Edge 82, Type (0, 1), BuildingBlock: AJUNOK_clean_linker_0, # of connection points: 2
#     Edge 83, Type (0, 1), BuildingBlock: AJUNOK_clean_linker_0, # of connection points: 2
#     Edge 84, Type (0, 1), BuildingBlock: AJUNOK_clean_linker_0, # of connection points: 2
#     Edge 85, Type (0, 1), BuildingBlock: AJUNOK_clean_linker_0, # of connection points: 2
#     Edge 86, Type (0, 1), BuildingBlock: AJUNOK_clean_linker_0, # of connection points: 2
#     Edge 87, Type (0, 1), BuildingBlock: AJUNOK_clean_linker_0, # of connection points: 2
#     Edge 88, Type (0, 1), BuildingBlock: AJUNOK_clean_linker_0, # of connection points: 2
#     Edge 89, Type (0, 1), BuildingBlock: AJUNOK_clean_linker_0, # of connection points: 2
#     Edge 90, Type (0, 1), BuildingBlock: AJUNOK_clean_linker_0, # of connection points: 2
#     Edge 91, Type (0, 1), BuildingBlock: AJUNOK_clean_linker_0, # of connection points: 2
#     Edge 92, Type (0, 1), BuildingBlock: AJUNOK_clean_linker_0, # of connection points: 2
#     Edge 93, Type (0, 1), BuildingBlock: AJUNOK_clean_linker_0, # of connection points: 2
#     Edge 94, Type (0, 1), BuildingBlock: AJUNOK_clean_linker_0, # of connection points: 2
#     Edge 95, Type (0, 1), BuildingBlock: AJUNOK_clean_linker_0, # of connection points: 2
#     Edge 96, Type (0, 1), BuildingBlock: AJUNOK_clean_linker_0, # of connection points: 2
#     Edge 97, Type (0, 1), BuildingBlock: AJUNOK_clean_linker_0, # of connection points: 2
#     Edge 98, Type (0, 1), BuildingBlock: AJUNOK_clean_linker_0, # of connection points: 2
#     Edge 99, Type (0, 1), BuildingBlock: AJUNOK_clean_linker_0, # of connection points: 2
#     Edge 100, Type (0, 1), BuildingBlock: AJUNOK_clean_linker_0, # of connection points: 2
#     Edge 101, Type (0, 1), BuildingBlock: AJUNOK_clean_linker_0, # of connection points: 2
#     Edge 102, Type (0, 1), BuildingBlock: AJUNOK_clean_linker_0, # of connection points: 2
#     Edge 103, Type (0, 1), BuildingBlock: AJUNOK_clean_linker_0, # of connection points: 2
#     Edge 104, Type (0, 1), BuildingBlock: AJUNOK_clean_linker_0, # of connection points: 2
#     Edge 105, Type (0, 1), BuildingBlock: AJUNOK_clean_linker_0, # of connection points: 2
#     Edge 106, Type (0, 1), BuildingBlock: AJUNOK_clean_linker_0, # of connection points: 2
#     Edge 107, Type (0, 1), BuildingBlock: AJUNOK_clean_linker_0, # of connection points: 2
# Relax obj value: 0.029
# Max RMSD: 0.100
# Mean RMSD: 0.063
data_MOF--net-ptr--node1-QUQFOY_clean_sbu_3--node2-MUDLON_clean_linker_0--edge1-AJUNOK_clean_linker_0
_symmetry_space_group_name_H-M    P1
_symmetry_Int_Tables_number       1
_symmetry_cell_setting            triclinic
loop_
_symmetry_equiv_pos_as_xyz
'x, y, z'
_cell_length_a     85.34167
_cell_length_b     85.83123
_cell_length_c     51.843038
_cell_angle_alpha  90.238644
_cell_angle_beta   89.602514
_cell_angle_gamma 120.503
loop_
_atom_site_label
_atom_site_type_symbol
_atom_site_fract_x
_atom_site_fract_y
_atom_site_fract_z
_atom_type_partial_charge
C0 C 0.96095 0.32689 0.00306 0.0
O1 O 0.95092 0.33271 0.01172 0.0
Cd2 Cd 0.96434 0.36256 0.03014 0.0
O3 O 0.97812 0.33613 0.00593 0.0
Cd4 Cd 0.002 0.36438 0.0262 0.0
C5 C 0.99432 0.38804 0.98168 0.0
O6 O 0.98444 0.36466 0.06384 0.0
O7 O 0.00962 0.38931 0.05594 0.0
O8 O 0.01345 0.34474 0.03885 0.0
C9 C 0.99609 0.38058 0.07085 0.0
O10 O 0.98007 0.38404 0.99477 0.0
C11 C 0.03015 0.35636 0.03565 0.0
O12 O 0.0044 0.38165 0.98769 0.0
O13 O 0.03398 0.37189 0.02769 0.0
C14 C 0.63151 0.67393 0.03567 0.0
O15 O 0.61454 0.66528 0.03134 0.0
Cd16 Cd 0.59978 0.63575 0.01192 0.0
O17 O 0.64125 0.66717 0.02925 0.0
Cd18 Cd 0.63835 0.64005 0.00764 0.0
C19 C 0.61094 0.6126 0.05472 0.0
O20 O 0.61718 0.63769 0.97432 0.0
O21 O 0.6208 0.61471 0.978 0.0
O22 O 0.66676 0.66144 0.98692 0.0
C23 C 0.61421 0.62267 0.96543 0.0
O24 O 0.59851 0.61442 0.04423 0.0
C25 C 0.67497 0.65282 0.99077 0.0
O26 O 0.62732 0.62159 0.04671 0.0
O27 O 0.66614 0.63797 0.00294 0.0
C28 C 0.32646 0.95526 0.02589 0.0
O29 O 0.33275 0.94586 0.01648 0.0
Cd30 Cd 0.36306 0.95988 -0.00074 0.0
O31 O 0.33574 0.97246 0.02486 0.0
Cd32 Cd 0.36453 0.99729 0.00683 0.0
C33 C 0.38729 0.98764 0.05045 0.0
O34 O 0.36547 0.98153 0.96845 0.0
O35 O 0.39051 0.00604 0.97756 0.0
O36 O 0.34506 0.00692 0.98876 0.0
C37 C 0.38151 0.99324 0.96179 0.0
O38 O 0.38328 0.9741 0.03598 0.0
C39 C 0.35403 0.02331 0.99579 0.0
O40 O 0.38125 0.9982 0.04566 0.0
O41 O 0.36826 0.02798 0.00902 0.0
C42 C 0.95938 0.63566 0.00812 0.0
O43 O 0.94955 0.61969 0.01667 0.0
Cd44 Cd 0.96338 0.60224 0.02876 0.0
O45 O 0.97657 0.64278 0.00749 0.0
Cd46 Cd 0.00069 0.63638 0.01925 0.0
C47 C 0.98687 0.60425 0.97349 0.0
O48 O 0.98806 0.6183 0.05845 0.0
O49 O 0.01085 0.61795 0.04046 0.0
O50 O 0.0167 0.66366 0.04425 0.0
C51 C 0.00012 0.6138 0.05963 0.0
O52 O 0.97364 0.59502 0.98887 0.0
C53 C 0.03033 0.6718 0.02937 0.0
O54 O -0.00125 0.62054 0.97891 0.0
O55 O 0.03046 0.66361 0.00896 0.0
C56 C 0.33491 0.37261 0.03135 0.0
O57 O 0.34233 0.38924 0.02557 0.0
Cd58 Cd 0.37243 0.4051 0.00762 0.0
O59 O 0.34288 0.36385 0.02594 0.0
Cd60 Cd 0.37046 0.36758 0.00394 0.0
C61 C 0.39588 0.39492 0.05213 0.0
O62 O 0.37235 0.38826 0.97049 0.0
O63 O 0.39578 0.38512 0.97392 0.0
O64 O 0.3495 0.33968 0.98255 0.0
C65 C 0.38758 0.39154 0.9615 0.0
O66 O 0.3922 0.40631 0.04247 0.0
C67 C 0.35783 0.33132 0.98742 0.0
O68 O 0.38927 0.37918 0.04245 0.0
O69 O 0.37233 0.33984 0.00055 0.0
C70 C 0.67319 0.04152 -0.00017 0.0
O71 O 0.66375 0.04879 0.00483 0.0
Cd72 Cd 0.63367 0.03198 0.02333 0.0
O73 O 0.667 0.02489 0.00483 0.0
Cd74 Cd 0.63947 0.9987 0.02312 0.0
C75 C 0.61295 0.00015 0.97606 0.0
O76 O 0.63408 0.01428 0.05876 0.0
O77 O 0.61246 0.98713 0.05057 0.0
O78 O 0.66052 0.99157 0.04368 0.0
C79 C 0.61875 0.00091 0.0651 0.0
O80 O 0.61375 0.01333 0.98855 0.0
C81 C 0.65291 0.97523 0.03631 0.0
O82 O 0.62214 0.99298 0.98314 0.0
O83 O 0.63883 0.9696 0.02242 0.0
C84 C 0.62897 0.66132 0.3293 0.0
O85 O 0.61887 0.66781 0.33456 0.0
Cd86 Cd 0.63249 0.69832 0.35061 0.0
O87 O 0.64583 0.67034 0.33457 0.0
Cd88 Cd 0.66887 0.69855 0.35554 0.0
C89 C 0.66651 0.72224 0.30582 0.0
O90 O 0.64982 0.7014 0.38874 0.0
O91 O 0.67661 0.72461 0.38271 0.0
O92 O 0.67581 0.67873 0.37905 0.0
C93 C 0.66199 0.71712 0.39582 0.0
O94 O 0.65101 0.718 0.31524 0.0
C95 C 0.6926 0.68658 0.37349 0.0
O96 O 0.67608 0.71641 0.31604 0.0
O97 O 0.69879 0.70058 0.35933 0.0
C98 C 0.29674 0.00877 0.3684 0.0
O99 O 0.27984 0.00105 0.36386 0.0
Cd100 Cd 0.26274 0.9708 0.3479 0.0
O101 O 0.30547 0.00064 0.36359 0.0
Cd102 Cd 0.29937 0.97146 0.3442 0.0
C103 C 0.27147 0.9473 0.39332 0.0
O104 O 0.27867 0.96944 0.31028 0.0
O105 O 0.27997 0.94534 0.31675 0.0
O106 O 0.32824 0.98813 0.32095 0.0
C107 C 0.27446 0.95371 0.30288 0.0
O108 O 0.26005 0.95095 0.3836 0.0
C109 C 0.33445 0.97817 0.32799 0.0
O110 O 0.28726 0.95372 0.38348 0.0
O111 O 0.32446 0.96526 0.34318 0.0
C112 C 0.99655 0.29307 0.35552 0.0
O113 O 0.00314 0.28374 0.34685 0.0
Cd114 Cd 0.03391 0.29773 0.33187 0.0
O115 O 0.0058 0.31029 0.35476 0.0
Cd116 Cd 0.03509 0.3352 0.33758 0.0
C117 C 0.05679 0.32599 0.38349 0.0
O118 O 0.03683 0.31909 0.30032 0.0
O119 O 0.06147 0.34406 0.30867 0.0
O120 O 0.01586 0.34448 0.31791 0.0
C121 C 0.05287 0.3307 0.29358 0.0
O122 O 0.05271 0.31214 0.36968 0.0
C123 C 0.0246 0.36094 0.32469 0.0
O124 O 0.05142 0.33686 0.37721 0.0
O125 O 0.0385 0.36578 0.33874 0.0
C126 C 0.62825 0.958 0.33174 0.0
O127 O 0.62018 0.94164 0.33903 0.0
Cd128 Cd 0.63811 0.92885 0.35302 0.0
O129 O 0.64543 0.96784 0.3339 0.0
Cd130 Cd 0.67176 0.96646 0.35074 0.0
C131 C 0.66735 0.93906 0.30171 0.0
O132 O 0.65723 0.94674 0.38826 0.0
O133 O 0.68295 0.95011 0.37581 0.0
O134 O 0.68013 0.99637 0.36667 0.0
C135 C 0.67043 0.94429 0.39267 0.0
O136 O 0.65425 0.92672 0.31476 0.0
C137 C 0.69706 0.00342 0.36264 0.0
O138 O 0.67567 0.95534 0.3096 0.0
O139 O 0.70244 0.99338 0.35271 0.0
C140 C 0.99235 0.70357 0.36525 0.0
O141 O -0.00042 0.72032 0.36053 0.0
Cd142 Cd 0.02972 0.73802 0.34359 0.0
O143 O 0.00101 0.69539 0.36034 0.0
Cd144 Cd 0.03077 0.7029 0.34077 0.0
C145 C 0.05455 0.73142 0.38911 0.0
O146 O 0.03127 0.72243 0.3057 0.0
O147 O 0.05615 0.72245 0.31226 0.0
O148 O 0.01452 0.67232 0.32228 0.0
C149 C 0.04721 0.72713 0.2981 0.0
O150 O 0.05059 0.74245 0.37894 0.0
C151 C 0.02709 0.66895 0.3269 0.0
O152 O 0.04824 0.71563 0.37985 0.0
O153 O 0.04098 0.68109 0.33858 0.0
C154 C 0.34662 0.38096 0.32827 0.0
O155 O 0.33868 0.38953 0.33472 0.0
Cd156 Cd 0.30893 0.37436 0.35447 0.0
O157 O 0.33914 0.36412 0.33302 0.0
Cd158 Cd 0.31192 0.33903 0.35381 0.0
C159 C 0.28477 0.34159 0.30896 0.0
O160 O 0.30958 0.35649 0.38936 0.0
O161 O 0.2866 0.3296 0.38424 0.0
O162 O 0.3336 0.33218 0.37247 0.0
C163 C 0.29434 0.34396 0.39762 0.0
O164 O 0.28747 0.35572 0.32095 0.0
C165 C 0.32533 0.31549 0.36691 0.0
O166 O 0.29304 0.33335 0.31546 0.0
O167 O 0.31045 0.30941 0.35475 0.0
C168 C 0.29447 0.99714 0.66227 0.0
O169 O 0.28523 0.00456 0.66767 0.0
Cd170 Cd 0.29972 0.03456 0.6861 0.0
O171 O 0.31133 0.00519 0.66758 0.0
Cd172 Cd 0.33535 0.03304 0.68803 0.0
C173 C 0.33333 0.05918 0.64158 0.0
O174 O 0.31703 0.03531 0.72289 0.0
O175 O 0.34368 0.05867 0.71683 0.0
O176 O 0.34314 0.01296 0.7092 0.0
C177 C 0.32933 0.05082 0.73046 0.0
O178 O 0.31875 0.05623 0.65282 0.0
C179 C 0.35988 0.02131 0.70326 0.0
O180 O 0.34169 0.05122 0.64893 0.0
O181 O 0.36556 0.03552 0.68971 0.0
C182 C 0.96396 0.33865 0.69582 0.0
O183 O 0.94729 0.33074 0.68965 0.0
Cd184 Cd 0.93169 0.30079 0.67192 0.0
O185 O 0.97322 0.33105 0.69139 0.0
Cd186 Cd 0.9693 0.30304 0.67125 0.0
C187 C 0.94039 0.27776 0.71856 0.0
O188 O 0.94902 0.2999 0.63598 0.0
O189 O 0.95136 0.27651 0.64387 0.0
O190 O 0.99786 0.32161 0.64864 0.0
C191 C 0.9454 0.28418 0.62936 0.0
O192 O 0.92897 0.28065 0.70709 0.0
C193 C 0.00548 0.313 0.65603 0.0
O194 O 0.95677 0.2852 0.71055 0.0
O195 O 0.99637 0.29982 0.67127 0.0
C196 C 0.66836 0.62819 0.69633 0.0
O197 O 0.67616 0.61943 0.69022 0.0
Cd198 Cd 0.70671 0.63457 0.67413 0.0
O199 O 0.67625 0.64522 0.69265 0.0
Cd200 Cd 0.70421 0.67085 0.67335 0.0
C201 C 0.72899 0.66735 0.72112 0.0
O202 O 0.70557 0.65206 0.6391 0.0
O203 O 0.72787 0.67959 0.64009 0.0
O204 O 0.68141 0.67847 0.66108 0.0
C205 C 0.72015 0.66435 0.62892 0.0
O206 O 0.72535 0.6524 0.71075 0.0
C207 C 0.69192 0.69547 0.66207 0.0
O208 O 0.72278 0.67681 0.71177 0.0
O209 O 0.70831 0.70122 0.66846 0.0
C210 C 0.29593 0.29519 0.66022 0.0
O211 O 0.28795 0.27819 0.66341 0.0
Cd212 Cd 0.30381 0.26416 0.68061 0.0
O213 O 0.31268 0.30513 0.66583 0.0
Cd214 Cd 0.33827 0.3024 0.6827 0.0
C215 C 0.33593 0.27545 0.63342 0.0
O216 O 0.32019 0.28207 0.71753 0.0
O217 O 0.34689 0.28564 0.71233 0.0
O218 O 0.34633 0.33253 0.69705 0.0
C219 C 0.33254 0.27941 0.72588 0.0
O220 O 0.3222 0.26283 0.6451 0.0
C221 C 0.36339 0.33931 0.69541 0.0
O222 O 0.34377 0.29157 0.64201 0.0
O223 O 0.36906 0.32891 0.68797 0.0
C224 C 0.66031 0.03575 0.69515 0.0
O225 O 0.66677 0.0522 0.68889 0.0
Cd226 Cd 0.69712 0.07012 0.67197 0.0
O227 O 0.66965 0.02817 0.69148 0.0
Cd228 Cd 0.69907 0.03454 0.67327 0.0
C229 C 0.72171 0.06527 0.72028 0.0
O230 O 0.70049 0.05344 0.63721 0.0
O231 O 0.72505 0.053 0.64507 0.0
O232 O 0.68222 0.00514 0.65262 0.0
C233 C 0.71658 0.05803 0.63048 0.0
O234 O 0.71755 0.07552 0.70816 0.0
C235 C 0.69194 -0.00101 0.66106 0.0
O236 O 0.71591 0.04914 0.71259 0.0
O237 O 0.70509 0.00941 0.67562 0.0
C238 C 0.00462 0.70935 0.66142 0.0
O239 O 0.99642 0.71801 0.66559 0.0
Cd240 Cd 0.96653 0.70398 0.68515 0.0
O241 O 0.99727 0.69283 0.66805 0.0
Cd242 Cd 0.96912 0.6692 0.68893 0.0
C243 C 0.94179 0.66989 0.64257 0.0
O244 O 0.96689 0.68804 0.72288 0.0
O245 O 0.94399 0.66091 0.7192 0.0
O246 O 0.98731 0.65902 0.71123 0.0
C247 C 0.95184 0.67559 0.7318 0.0
O248 O 0.94425 0.68438 0.65309 0.0
C249 C 0.97814 0.64269 0.70386 0.0
O250 O 0.95035 0.66226 0.65038 0.0
O251 O 0.96497 0.63873 0.68876 0.0
H252 H 0.22816 0.34367 0.17262 0.0
N253 N 0.2209 0.31608 0.13908 0.0
H254 H 0.24196 0.34825 0.21501 0.0
H255 H 0.22684 0.29301 0.16509 0.0
H256 H 0.23961 0.29688 0.20845 0.0
H257 H 0.22691 0.29984 0.0997 0.0
H258 H 0.25327 0.31278 0.0704 0.0
H259 H 0.24825 0.35171 0.13691 0.0
H260 H 0.2746 0.36445 0.10843 0.0
H261 H 0.21866 0.34605 0.12624 0.0
H262 H 0.18697 0.28888 0.14182 0.0
H263 H 0.19091 0.3468 0.11887 0.0
H264 H 0.15904 0.28961 0.1357 0.0
H265 H 0.1096 0.3467 0.14785 0.0
H266 H 0.09832 0.35035 0.18962 0.0
H267 H 0.07747 0.29389 0.20623 0.0
H268 H 0.08839 0.29022 0.16402 0.0
H269 H 0.06992 0.29677 0.11111 0.0
H270 H 0.05435 0.30786 0.08434 0.0
H271 H 0.1055 0.35706 0.07006 0.0
H272 H 0.12073 0.34626 0.09859 0.0
H273 H 0.13679 0.34412 0.14063 0.0
H274 H 0.1658 0.34507 0.14125 0.0
H275 H 0.14057 0.29248 0.10476 0.0
N276 N 0.10389 0.31488 0.12707 0.0
H277 H 0.11134 0.29129 0.10563 0.0
C278 C 0.2266 0.31801 0.16559 0.0
C279 C 0.23047 0.33333 0.18033 0.0
C280 C 0.23818 0.33581 0.20478 0.0
C281 C 0.24175 0.32284 0.21528 0.0
C282 C 0.23716 0.30719 0.20087 0.0
C283 C 0.22974 0.30488 0.17623 0.0
C284 C 0.23558 0.32466 0.12062 0.0
C285 C 0.23718 0.31401 0.10141 0.0
C286 C 0.25227 0.32137 0.0849 0.0
C287 C 0.26612 0.33954 0.08748 0.0
C288 C 0.26413 0.3504 0.106 0.0
C289 C 0.24904 0.34306 0.12242 0.0
C290 C 0.2049 0.31726 0.13434 0.0
C291 C 0.20576 0.33362 0.12804 0.0
C292 C 0.18979 0.33407 0.12401 0.0
C293 C 0.17265 0.31825 0.1265 0.0
C294 C 0.17193 0.30199 0.13296 0.0
C295 C 0.18787 0.30153 0.13672 0.0
C296 C 0.09958 0.31806 0.15276 0.0
C297 C 0.10278 0.33515 0.16058 0.0
C298 C 0.0964 0.33725 0.18446 0.0
C299 C 0.08674 0.32232 0.20088 0.0
C300 C 0.08451 0.30552 0.19365 0.0
C301 C 0.09082 0.30342 0.16973 0.0
C302 C 0.0964 0.32059 0.10687 0.0
C303 C 0.0778 0.3098 0.10179 0.0
C304 C 0.06895 0.31619 0.08641 0.0
C305 C 0.07858 0.33352 0.07531 0.0
C306 C 0.09754 0.34389 0.07894 0.0
C307 C 0.10636 0.3376 0.0949 0.0
C308 C 0.12179 0.31741 0.12348 0.0
C309 C 0.13751 0.33286 0.13258 0.0
C310 C 0.15419 0.33343 0.13274 0.0
C311 C 0.15552 0.3187 0.12348 0.0
C312 C 0.13998 0.30385 0.11273 0.0
C313 C 0.12331 0.30321 0.11289 0.0
H314 H 0.71334 0.77242 0.15688 0.0
N315 N 0.69694 0.789 0.13742 0.0
H316 H 0.70776 0.75742 0.19875 0.0
H317 H 0.67686 0.79146 0.17782 0.0
H318 H 0.67209 0.77744 0.21977 0.0
H319 H 0.66082 0.76328 0.14152 0.0
H320 H 0.64443 0.73642 0.11458 0.0
H321 H 0.70871 0.78158 0.09412 0.0
H322 H 0.69215 0.75487 0.06647 0.0
H323 H 0.72606 0.8214 0.13014 0.0
H324 H 0.66758 0.79389 0.13434 0.0
H325 H 0.72724 0.85018 0.12418 0.0
H326 H 0.66855 0.82254 0.13035 0.0
H327 H 0.72086 0.93598 0.15848 0.0
H328 H 0.71407 0.94376 0.20098 0.0
H329 H 0.66237 0.89371 0.20165 0.0
H330 H 0.66981 0.88559 0.15991 0.0
H331 H 0.66399 0.8958 0.12088 0.0
H332 H 0.65303 0.91089 0.09296 0.0
H333 H 0.70789 0.94693 0.06631 0.0
H334 H 0.71892 0.93192 0.09499 0.0
H335 H 0.72479 0.90005 0.1474 0.0
H336 H 0.72411 0.87138 0.14734 0.0
H337 H 0.67346 0.84683 0.10527 0.0
N338 N 0.69982 0.9069 0.13026 0.0
H339 H 0.67367 0.8752 0.10705 0.0
C340 C 0.69569 0.78319 0.16391 0.0
C341 C 0.70462 0.77388 0.17076 0.0
C342 C 0.70149 0.7654 0.19476 0.0
C343 C 0.68954 0.76631 0.21265 0.0
C344 C 0.68126 0.77636 0.2063 0.0
C345 C 0.68415 0.78457 0.18217 0.0
C346 C 0.68608 0.77444 0.11981 0.0
C347 C 0.66768 0.76177 0.1249 0.0
C348 C 0.65827 0.74644 0.10938 0.0
C349 C 0.66699 0.74358 0.08835 0.0
C350 C 0.68512 0.75668 0.08265 0.0
C351 C 0.69455 0.77196 0.09826 0.0
C352 C 0.69685 0.80555 0.13306 0.0
C353 C 0.71349 0.82162 0.12994 0.0
C354 C 0.71409 0.83808 0.12676 0.0
C355 C 0.698 0.83887 0.12715 0.0
C356 C 0.68125 0.82258 0.1296 0.0
C357 C 0.68066 0.80609 0.13218 0.0
C358 C 0.69578 0.91042 0.15592 0.0
C359 C 0.70815 0.92667 0.16798 0.0
C360 C 0.70414 0.93115 0.19207 0.0
C361 C 0.68746 0.91957 0.20436 0.0
C362 C 0.6753 0.90296 0.19262 0.0
C363 C 0.67945 0.89836 0.16868 0.0
C364 C 0.6924 0.91277 0.1101 0.0
C365 C 0.67367 0.90661 0.10862 0.0
C366 C 0.66735 0.91519 0.09244 0.0
C367 C 0.67959 0.93007 0.07739 0.0
C368 C 0.69815 0.93551 0.07775 0.0
C369 C 0.70446 0.92691 0.09396 0.0
C370 C 0.69942 0.88997 0.12725 0.0
C371 C 0.71361 0.88848 0.13802 0.0
C372 C 0.71324 0.87204 0.13775 0.0
C373 C 0.69874 0.85663 0.12621 0.0
C374 C 0.6847 0.85825 0.11476 0.0
C375 C 0.68491 0.87466 0.11553 0.0
H376 H 0.09775 0.75864 0.14799 0.0
N377 N 0.09393 0.78517 0.1243 0.0
H378 H 0.08647 0.74571 0.19032 0.0
H379 H 0.0752 0.79336 0.15753 0.0
H380 H 0.06423 0.78065 0.2008 0.0
H381 H 0.06448 0.77179 0.09513 0.0
H382 H 0.05337 0.74633 0.06496 0.0
H383 H 0.11324 0.76957 0.10706 0.0
H384 H 0.1019 0.74369 0.0775 0.0
H385 H 0.12356 0.79214 0.15413 0.0
H386 H 0.10586 0.81319 0.09259 0.0
H387 H 0.15247 0.81995 0.15532 0.0
H388 H 0.13568 0.84067 0.09185 0.0
H389 H 0.2355 0.89339 0.16112 0.0
H390 H 0.24883 0.9057 0.20301 0.0
H391 H 0.21786 0.93277 0.20775 0.0
H392 H 0.20521 0.92106 0.16495 0.0
H393 H 0.22625 0.93131 0.10588 0.0
H394 H 0.25224 0.94374 0.07603 0.0
H395 H 0.2577 0.89704 0.08899 0.0
H396 H 0.2315 0.88444 0.11749 0.0
H397 H 0.20805 0.86781 0.14438 0.0
H398 H 0.18034 0.83896 0.13831 0.0
H399 H 0.15278 0.86704 0.11388 0.0
N400 N 0.21303 0.90135 0.13369 0.0
H401 H 0.18127 0.89573 0.1175 0.0
C402 C 0.08721 0.77699 0.14933 0.0
C403 C 0.0903 0.76348 0.15903 0.0
C404 C 0.08405 0.75623 0.18351 0.0
C405 C 0.07474 0.76239 0.19899 0.0
C406 C 0.07142 0.77569 0.18925 0.0
C407 C 0.07768 0.78296 0.16464 0.0
C408 C 0.08948 0.77238 0.10355 0.0
C409 C 0.07295 0.76607 0.09072 0.0
C410 C 0.0667 0.75164 0.07344 0.0
C411 C 0.07685 0.74316 0.06892 0.0
C412 C 0.09392 0.75012 0.08062 0.0
C413 C 0.10033 0.7648 0.09756 0.0
C414 C 0.11216 0.80067 0.12364 0.0
C415 C 0.12588 0.80262 0.14056 0.0
C416 C 0.14273 0.81863 0.14096 0.0
C417 C 0.14656 0.83287 0.12389 0.0
C418 C 0.13316 0.83036 0.10593 0.0
C419 C 0.11613 0.81456 0.10605 0.0
C420 C 0.21957 0.90663 0.15963 0.0
C421 C 0.23152 0.90194 0.17104 0.0
C422 C 0.23908 0.90891 0.19516 0.0
C423 C 0.2347 0.92052 0.20845 0.0
C424 C 0.22194 0.92432 0.19763 0.0
C425 C 0.21457 0.91752 0.17336 0.0
C426 C 0.22685 0.907 0.11399 0.0
C427 C 0.23283 0.9236 0.10172 0.0
C428 C 0.24771 0.93071 0.08486 0.0
C429 C 0.25697 0.92133 0.08007 0.0
C430 C 0.25062 0.90441 0.09178 0.0
C431 C 0.23563 0.89724 0.1084 0.0
C432 C 0.19684 0.88396 0.1307 0.0
C433 C 0.19623 0.86775 0.13695 0.0
C434 C 0.18013 0.85117 0.13394 0.0
C435 C 0.1641 0.85044 0.12553 0.0
C436 C 0.16482 0.86682 0.11969 0.0
C437 C 0.18105 0.88332 0.12201 0.0
H438 H 0.34993 0.2337 0.86463 0.0
N439 N 0.31907 0.21593 0.89402 0.0
H440 H 0.35265 0.24843 0.82326 0.0
H441 H 0.29202 0.21193 0.86446 0.0
H442 H 0.29434 0.22531 0.82197 0.0
H443 H 0.29729 0.22113 0.925 0.0
H444 H 0.30578 0.24741 0.95277 0.0
H445 H 0.35387 0.24162 0.90735 0.0
H446 H 0.36235 0.26807 0.93415 0.0
H447 H 0.34951 0.21329 0.90001 0.0
H448 H 0.29103 0.18269 0.89691 0.0
H449 H 0.35017 0.18545 0.90633 0.0
H450 H 0.29143 0.15467 0.9016 0.0
H451 H 0.3469 0.10387 0.87847 0.0
H452 H 0.34962 0.09311 0.83624 0.0
H453 H 0.29209 0.07063 0.82396 0.0
H454 H 0.28931 0.08102 0.86709 0.0
H455 H 0.29369 0.06878 0.92818 0.0
H456 H 0.30261 0.05243 0.95751 0.0
H457 H 0.35884 0.09478 0.94957 0.0
H458 H 0.34951 0.11168 0.92193 0.0
H459 H 0.34409 0.13047 0.88388 0.0
H460 H 0.34583 0.15964 0.88441 0.0
H461 H 0.29623 0.13648 0.92962 0.0
N462 N 0.31547 0.09838 0.90171 0.0
H463 H 0.29397 0.107 0.92724 0.0
C464 C 0.32079 0.22219 0.86792 0.0
C465 C 0.33778 0.23194 0.85557 0.0
C466 C 0.33928 0.2402 0.83175 0.0
C467 C 0.32377 0.23852 0.81967 0.0
C468 C 0.30664 0.22752 0.83124 0.0
C469 C 0.30523 0.21965 0.85529 0.0
C470 C 0.32483 0.22947 0.91388 0.0
C471 C 0.31153 0.2311 0.92754 0.0
C472 C 0.31639 0.24616 0.94314 0.0
C473 C 0.33469 0.25998 0.94505 0.0
C474 C 0.34814 0.25766 0.93295 0.0
C475 C 0.34326 0.2425 0.91749 0.0
C476 C 0.32013 0.2 0.8984 0.0
C477 C 0.3368 0.20059 0.90085 0.0
C478 C 0.33714 0.18458 0.90418 0.0
C479 C 0.32085 0.1677 0.90466 0.0
C480 C 0.30425 0.16734 0.90206 0.0
C481 C 0.30395 0.18332 0.89913 0.0
C482 C 0.31779 0.09319 0.87609 0.0
C483 C 0.33483 0.09669 0.86686 0.0
C484 C 0.33643 0.09069 0.84247 0.0
C485 C 0.32111 0.08123 0.82665 0.0
C486 C 0.30413 0.07789 0.83576 0.0
C487 C 0.30252 0.08385 0.86026 0.0
C488 C 0.32094 0.09112 0.92244 0.0
C489 C 0.30785 0.07476 0.9335 0.0
C490 C 0.31301 0.06543 0.95008 0.0
C491 C 0.33147 0.07214 0.95554 0.0
C492 C 0.34449 0.08927 0.94598 0.0
C493 C 0.33922 0.09883 0.92982 0.0
C494 C 0.31855 0.11639 0.90495 0.0
C495 C 0.33358 0.13162 0.89389 0.0
C496 C 0.33467 0.14844 0.89447 0.0
C497 C 0.32098 0.15044 0.90664 0.0
C498 C 0.30672 0.1354 0.91933 0.0
C499 C 0.30547 0.11856 0.91827 0.0
H500 H 0.76218 0.10969 0.87254 0.0
N501 N 0.7863 0.10039 0.89098 0.0
H502 H 0.7479 0.10223 0.83011 0.0
H503 H 0.79281 0.08402 0.85226 0.0
H504 H 0.77871 0.07671 0.80942 0.0
H505 H 0.7656 0.06601 0.90424 0.0
H506 H 0.73919 0.05278 0.93308 0.0
H507 H 0.77603 0.11938 0.92386 0.0
H508 H 0.75037 0.1063 0.95336 0.0
H509 H 0.79101 0.13437 0.88613 0.0
H510 H 0.81877 0.10536 0.90233 0.0
H511 H 0.81927 0.16289 0.89055 0.0
H512 H 0.84765 0.13385 0.90434 0.0
H513 H 0.8994 0.24153 0.87085 0.0
H514 H 0.90777 0.25472 0.82813 0.0
H515 H 0.93256 0.22273 0.8114 0.0
H516 H 0.92423 0.20944 0.85494 0.0
H517 H 0.93741 0.22937 0.91681 0.0
H518 H 0.95038 0.25455 0.94747 0.0
H519 H 0.90164 0.2579 0.94253 0.0
H520 H 0.88829 0.23183 0.91347 0.0
H521 H 0.8744 0.20938 0.86796 0.0
H522 H 0.84552 0.1817 0.86967 0.0
H523 H 0.8671 0.16012 0.92537 0.0
N524 N 0.90627 0.21613 0.89157 0.0
H525 H 0.89682 0.18762 0.92156 0.0
C526 C 0.77864 0.09742 0.86549 0.0
C527 C 0.76609 0.10274 0.85878 0.0
C528 C 0.75797 0.09852 0.83448 0.0
C529 C 0.76232 0.08903 0.8164 0.0
C530 C 0.77509 0.084 0.82301 0.0
C531 C 0.78319 0.08822 0.84733 0.0
C532 C 0.77288 0.09365 0.9115 0.0
C533 C 0.76249 0.07489 0.91519 0.0
C534 C 0.74742 0.06736 0.93168 0.0
C535 C 0.74247 0.07849 0.9451 0.0
C536 C 0.7535 0.09734 0.94266 0.0
C537 C 0.76842 0.10487 0.92584 0.0
C538 C 0.8027 0.11765 0.89448 0.0
C539 C 0.80321 0.13412 0.89078 0.0
C540 C 0.81958 0.15053 0.8929 0.0
C541 C 0.83601 0.15091 0.89766 0.0
C542 C 0.83537 0.13433 0.90126 0.0
C543 C 0.81888 0.11794 0.89991 0.0
C544 C 0.91118 0.22437 0.86628 0.0
C545 C 0.90673 0.23732 0.85832 0.0
C546 C 0.91136 0.24478 0.83369 0.0
C547 C 0.92056 0.23953 0.81642 0.0
C548 C 0.92538 0.22691 0.82441 0.0
C549 C 0.92062 0.21932 0.84913 0.0
C550 C 0.91212 0.229 0.91246 0.0
C551 C 0.92942 0.23532 0.92284 0.0
C552 C 0.93688 0.24986 0.94003 0.0
C553 C 0.92732 0.25869 0.94664 0.0
C554 C 0.90943 0.25152 0.93764 0.0
C555 C 0.90182 0.23668 0.92089 0.0
C556 C 0.88816 0.20055 0.89419 0.0
C557 C 0.87317 0.19878 0.88042 0.0
C558 C 0.85633 0.18281 0.88175 0.0
C559 C 0.85376 0.16838 0.89755 0.0
C560 C 0.86854 0.17062 0.91238 0.0
C561 C 0.88554 0.18643 0.91049 0.0
H562 H 0.77629 0.71421 0.87098 0.0
N563 N 0.79125 0.69726 0.89372 0.0
H564 H 0.76205 0.70813 0.82853 0.0
H565 H 0.79099 0.67364 0.85694 0.0
H566 H 0.77805 0.6685 0.81421 0.0
H567 H 0.76268 0.66242 0.89573 0.0
H568 H 0.73572 0.65147 0.92338 0.0
H569 H 0.78768 0.71391 0.93463 0.0
H570 H 0.76108 0.70282 0.9631 0.0
H571 H 0.82453 0.72555 0.89803 0.0
H572 H 0.79439 0.6674 0.90137 0.0
H573 H 0.85287 0.7256 0.90392 0.0
H574 H 0.82266 0.66704 0.90485 0.0
H575 H 0.94102 0.71406 0.88177 0.0
H576 H 0.95093 0.70872 0.83991 0.0
H577 H 0.89567 0.66695 0.82357 0.0
H578 H 0.88612 0.6717 0.866 0.0
H579 H 0.89676 0.66014 0.90515 0.0
H580 H 0.90832 0.64624 0.93466 0.0
H581 H 0.93915 0.69714 0.97472 0.0
H582 H 0.9281 0.71119 0.94429 0.0
H583 H 0.90142 0.72062 0.88241 0.0
H584 H 0.87298 0.72064 0.88175 0.0
H585 H 0.84758 0.67174 0.92759 0.0
N586 N 0.90794 0.69617 0.90256 0.0
H587 H 0.8756 0.67102 0.9262 0.0
C588 C 0.78495 0.69465 0.86734 0.0
C589 C 0.77692 0.70439 0.8585 0.0
C590 C 0.76892 0.70099 0.83413 0.0
C591 C 0.76912 0.68798 0.81776 0.0
C592 C 0.77757 0.67854 0.82637 0.0
C593 C 0.7852 0.68165 0.85094 0.0
C594 C 0.77702 0.68916 0.91287 0.0
C595 C 0.76256 0.6712 0.91068 0.0
C596 C 0.74719 0.66494 0.92654 0.0
C597 C 0.74613 0.67647 0.94492 0.0
C598 C 0.76132 0.69382 0.94859 0.0
C599 C 0.77656 0.70012 0.93256 0.0
C600 C 0.80746 0.69655 0.89876 0.0
C601 C 0.82411 0.71278 0.89985 0.0
C602 C 0.84032 0.71271 0.9029 0.0
C603 C 0.84029 0.6963 0.90427 0.0
C604 C 0.8234 0.67999 0.90408 0.0
C605 C 0.80714 0.68013 0.9018 0.0
C606 C 0.9129 0.69341 0.87696 0.0
C607 C 0.93109 0.7038 0.86907 0.0
C608 C 0.93668 0.70076 0.84515 0.0
C609 C 0.92413 0.68728 0.8285 0.0
C610 C 0.90577 0.67712 0.83618 0.0
C611 C 0.90023 0.67999 0.86031 0.0
C612 C 0.91186 0.68684 0.92231 0.0
C613 C 0.90587 0.66828 0.92041 0.0
C614 C 0.9124 0.66031 0.9374 0.0
C615 C 0.92495 0.6707 0.95665 0.0
C616 C 0.92988 0.68892 0.95963 0.0
C617 C 0.92345 0.69692 0.94249 0.0
C618 C 0.89089 0.69596 0.9043 0.0
C619 C 0.88969 0.70991 0.89231 0.0
C620 C 0.87338 0.70997 0.89224 0.0
C621 C 0.8578 0.69626 0.90483 0.0
C622 C 0.85909 0.68239 0.91729 0.0
C623 C 0.87534 0.68209 0.91675 0.0
H624 H 0.7282 0.61898 0.48393 0.0
N625 N 0.76044 0.63658 0.46076 0.0
H626 H 0.71938 0.62612 0.52534 0.0
H627 H 0.78326 0.6626 0.4949 0.0
H628 H 0.7748 0.66923 0.53694 0.0
H629 H 0.77256 0.67268 0.45482 0.0
H630 H 0.75763 0.68517 0.42898 0.0
H631 H 0.73678 0.61977 0.42313 0.0
H632 H 0.72198 0.63228 0.39688 0.0
H633 H 0.76703 0.61191 0.47961 0.0
H634 H 0.79246 0.66185 0.43666 0.0
H635 H 0.79573 0.61235 0.48038 0.0
H636 H 0.82081 0.66174 0.43567 0.0
H637 H 0.886 0.6171 0.49885 0.0
H638 H 0.89835 0.62157 0.54262 0.0
H639 H 0.8969 0.67104 0.54878 0.0
H640 H 0.88372 0.66598 0.5063 0.0
H641 H 0.90388 0.67534 0.47093 0.0
H642 H 0.92995 0.69019 0.44226 0.0
H643 H 0.91314 0.63938 0.40391 0.0
H644 H 0.88692 0.6243 0.43337 0.0
H645 H 0.84602 0.60993 0.46566 0.0
H646 H 0.81714 0.60866 0.45847 0.0
H647 H 0.84503 0.66711 0.46122 0.0
N648 N 0.87853 0.63897 0.47237 0.0
H649 H 0.87374 0.66816 0.46612 0.0
C650 C 0.75632 0.64012 0.48641 0.0
C651 C 0.73843 0.62987 0.49555 0.0
C652 C 0.73345 0.63396 0.51919 0.0
C653 C 0.74635 0.64838 0.53429 0.0
C654 C 0.76445 0.65834 0.52547 0.0
C655 C 0.76937 0.65439 0.50161 0.0
C656 C 0.75561 0.64518 0.44103 0.0
C657 C 0.76193 0.66387 0.44162 0.0
C658 C 0.75342 0.67101 0.42683 0.0
C659 C 0.73848 0.65959 0.41137 0.0
C660 C 0.73334 0.64129 0.40897 0.0
C661 C 0.74183 0.63416 0.42375 0.0
C662 C 0.7774 0.63675 0.45821 0.0
C663 C 0.77873 0.62277 0.46986 0.0
C664 C 0.79518 0.62299 0.47006 0.0
C665 C 0.81076 0.63708 0.45806 0.0
C666 C 0.80927 0.65084 0.44559 0.0
C667 C 0.79286 0.65081 0.44592 0.0
C668 C 0.8839 0.6411 0.4991 0.0
C669 C 0.88796 0.62865 0.50998 0.0
C670 C 0.89511 0.6313 0.53488 0.0
C671 C 0.89848 0.64659 0.54932 0.0
C672 C 0.89401 0.65884 0.53858 0.0
C673 C 0.88662 0.65604 0.51392 0.0
C674 C 0.8933 0.64857 0.45432 0.0
C675 C 0.9055 0.66731 0.45626 0.0
C676 C 0.92043 0.67588 0.43966 0.0
C677 C 0.92346 0.66598 0.42065 0.0
C678 C 0.91111 0.64733 0.4184 0.0
C679 C 0.89615 0.63874 0.43507 0.0
C680 C 0.862 0.63903 0.46695 0.0
C681 C 0.84583 0.62243 0.4644 0.0
C682 C 0.82932 0.62177 0.46054 0.0
C683 C 0.82856 0.63778 0.45965 0.0
C684 C 0.84495 0.65446 0.46151 0.0
C685 C 0.8615 0.65509 0.46477 0.0
H686 H 0.38314 0.11707 0.49728 0.0
N687 N 0.35984 0.12321 0.47197 0.0
H688 H 0.37953 0.1043 0.54068 0.0
H689 H 0.33243 0.11613 0.50664 0.0
H690 H 0.32827 0.10262 0.54882 0.0
H691 H 0.32314 0.09901 0.46903 0.0
H692 H 0.30841 0.07263 0.44126 0.0
H693 H 0.37502 0.11433 0.43422 0.0
H694 H 0.36012 0.08796 0.4055 0.0
H695 H 0.3893 0.15474 0.46192 0.0
H696 H 0.33112 0.12928 0.46962 0.0
H697 H 0.39146 0.18386 0.45484 0.0
H698 H 0.33316 0.15835 0.46499 0.0
H699 H 0.38943 0.27211 0.48931 0.0
H700 H 0.38359 0.28025 0.5322 0.0
H701 H 0.33095 0.23129 0.53357 0.0
H702 H 0.33742 0.22278 0.49152 0.0
H703 H 0.33214 0.23485 0.45369 0.0
H704 H 0.32267 0.25127 0.42578 0.0
H705 H 0.37705 0.28147 0.39427 0.0
H706 H 0.38675 0.26558 0.42345 0.0
H707 H 0.39225 0.23554 0.47664 0.0
H708 H 0.39027 0.20628 0.4773 0.0
H709 H 0.33802 0.18238 0.43949 0.0
N710 N 0.36743 0.24315 0.46141 0.0
H711 H 0.33963 0.2115 0.44072 0.0
C712 C 0.35817 0.11763 0.49855 0.0
C713 C 0.37137 0.11433 0.50877 0.0
C714 C 0.36921 0.10693 0.53344 0.0
C715 C 0.35368 0.10258 0.54833 0.0
C716 C 0.34065 0.10626 0.53824 0.0
C717 C 0.34294 0.11386 0.51377 0.0
C718 C 0.3503 0.10874 0.45372 0.0
C719 C 0.33137 0.097 0.45504 0.0
C720 C 0.32288 0.08189 0.43895 0.0
C721 C 0.33308 0.0783 0.42102 0.0
C722 C 0.35192 0.09036 0.41919 0.0
C723 C 0.36042 0.10544 0.43541 0.0
C724 C 0.3602 0.13989 0.46694 0.0
C725 C 0.37702 0.1555 0.46236 0.0
C726 C 0.37819 0.17216 0.45856 0.0
C727 C 0.36252 0.17369 0.45981 0.0
C728 C 0.34556 0.15784 0.46368 0.0
C729 C 0.34438 0.1411 0.46685 0.0
C730 C 0.36382 0.24704 0.48712 0.0
C731 C 0.37671 0.26312 0.49904 0.0
C732 C 0.37326 0.26782 0.52336 0.0
C733 C 0.35662 0.25662 0.53603 0.0
C734 C 0.34389 0.24023 0.52432 0.0
C735 C 0.34749 0.23541 0.50018 0.0
C736 C 0.36037 0.24931 0.44113 0.0
C737 C 0.34204 0.24481 0.44063 0.0
C738 C 0.33656 0.25415 0.42446 0.0
C739 C 0.34923 0.26803 0.40835 0.0
C740 C 0.36711 0.27124 0.40708 0.0
C741 C 0.37263 0.26206 0.42349 0.0
C742 C 0.36626 0.22586 0.45852 0.0
C743 C 0.38046 0.22398 0.46829 0.0
C744 C 0.37932 0.20719 0.46845 0.0
C745 C 0.364 0.19178 0.45833 0.0
C746 C 0.34992 0.19379 0.44786 0.0
C747 C 0.35091 0.21059 0.44824 0.0
H748 H 0.76707 0.09279 0.4799 0.0
N749 N 0.76248 0.1194 0.45889 0.0
H750 H 0.75697 0.07923 0.5225 0.0
H751 H 0.74701 0.12896 0.49563 0.0
H752 H 0.73723 0.11569 0.53883 0.0
H753 H 0.72847 0.10088 0.44273 0.0
H754 H 0.71474 0.07409 0.41544 0.0
H755 H 0.78121 0.10664 0.4309 0.0
H756 H 0.76783 0.0807 0.40167 0.0
H757 H 0.79399 0.12569 0.48289 0.0
H758 H 0.77264 0.14723 0.42722 0.0
H759 H 0.8231 0.15322 0.48123 0.0
H760 H 0.80256 0.17443 0.42335 0.0
H761 H 0.90486 0.22588 0.485 0.0
H762 H 0.91881 0.23672 0.52696 0.0
H763 H 0.88869 0.26435 0.53699 0.0
H764 H 0.87532 0.25404 0.49412 0.0
H765 H 0.89513 0.26588 0.43532 0.0
H766 H 0.92121 0.27977 0.40564 0.0
H767 H 0.92666 0.23259 0.4123 0.0
H768 H 0.9004 0.21862 0.44057 0.0
H769 H 0.87767 0.20108 0.46744 0.0
H770 H 0.84982 0.17235 0.46192 0.0
H771 H 0.82126 0.20071 0.44444 0.0
N772 N 0.88212 0.23484 0.46041 0.0
H773 H 0.84984 0.22937 0.44724 0.0
C774 C 0.75768 0.11188 0.48456 0.0
C775 C 0.76063 0.09793 0.49263 0.0
C776 C 0.75503 0.09031 0.51709 0.0
C777 C 0.74649 0.09655 0.53405 0.0
C778 C 0.74377 0.11063 0.5261 0.0
C779 C 0.74937 0.11824 0.50157 0.0
C780 C 0.75578 0.10579 0.4389 0.0
C781 C 0.73715 0.09667 0.43352 0.0
C782 C 0.72936 0.08137 0.41782 0.0
C783 C 0.74011 0.07498 0.40661 0.0
C784 C 0.75903 0.08485 0.41064 0.0
C785 C 0.76678 0.09993 0.427 0.0
C786 C 0.78078 0.13453 0.4557 0.0
C787 C 0.79556 0.13622 0.46994 0.0
C788 C 0.8125 0.15207 0.46864 0.0
C789 C 0.81537 0.1664 0.45238 0.0
C790 C 0.80086 0.16407 0.43679 0.0
C791 C 0.78376 0.14842 0.43869 0.0
C792 C 0.8891 0.23931 0.48627 0.0
C793 C 0.90108 0.23412 0.49617 0.0
C794 C 0.90895 0.24019 0.5204 0.0
C795 C 0.90475 0.25129 0.5354 0.0
C796 C 0.89227 0.25591 0.52581 0.0
C797 C 0.88456 0.24998 0.50146 0.0
C798 C 0.8957 0.24124 0.44025 0.0
C799 C 0.90169 0.25839 0.42975 0.0
C800 C 0.91664 0.26632 0.413 0.0
C801 C 0.92596 0.25724 0.40654 0.0
C802 C 0.91955 0.23978 0.41636 0.0
C803 C 0.9045 0.2318 0.43287 0.0
C804 C 0.86595 0.21745 0.45703 0.0
C805 C 0.86561 0.20115 0.4615 0.0
C806 C 0.84942 0.1846 0.45887 0.0
C807 C 0.83303 0.18396 0.45277 0.0
C808 C 0.83353 0.20041 0.44847 0.0
C809 C 0.84983 0.2169 0.45033 0.0
H810 H 0.04796 0.59612 0.19434 0.0
N811 N 0.0247 0.56959 0.22501 0.0
H812 H 0.04148 0.60546 0.153 0.0
H813 H 0.99267 0.55153 0.19786 0.0
H814 H 0.98632 0.56053 0.15661 0.0
H815 H 0.997 0.57693 0.23095 0.0
H816 H 0.99736 0.59944 0.25984 0.0
H817 H 0.04597 0.58415 0.26588 0.0
H818 H 0.0453 0.60535 0.29693 0.0
H819 H 0.04709 0.55678 0.22332 0.0
H820 H 0.99164 0.54145 0.24013 0.0
H821 H 0.03977 0.52568 0.22996 0.0
H822 H 0.98359 0.50993 0.24444 0.0
H823 H 0.0179 0.4392 0.21359 0.0
H824 H 0.01821 0.42471 0.1735 0.0
H825 H 0.96196 0.40831 0.16085 0.0
H826 H 0.96155 0.42266 0.20184 0.0
H827 H 0.96588 0.41031 0.26274 0.0
H828 H 0.97405 0.39259 0.29056 0.0
H829 H 0.03077 0.43345 0.28297 0.0
H830 H 0.0224 0.45158 0.25625 0.0
H831 H 0.01746 0.46714 0.20922 0.0
H832 H 0.02595 0.49849 0.20923 0.0
H833 H 0.98461 0.48731 0.26684 0.0
N834 N 0.98855 0.43934 0.23568 0.0
H835 H 0.97511 0.45526 0.26505 0.0
C836 C 0.02094 0.57314 0.19926 0.0
C837 C 0.03457 0.58815 0.18597 0.0
C838 C 0.03085 0.59345 0.16244 0.0
C839 C 0.01333 0.58384 0.15184 0.0
C840 C -0.00015 0.56836 0.1646 0.0
C841 C 0.00357 0.56307 0.18812 0.0
C842 C 0.02199 0.57943 0.2455 0.0
C843 C 0.00765 0.58305 0.24518 0.0
C844 C 0.00775 0.59585 0.26201 0.0
C845 C 0.0218 0.6048 0.28008 0.0
C846 C 0.03482 0.59945 0.28237 0.0
C847 C 0.03507 0.58712 0.26495 0.0
C848 C 0.01987 0.55128 0.2306 0.0
C849 C 0.03327 0.54657 0.22824 0.0
C850 C 0.02895 0.52872 0.23177 0.0
C851 C 0.01094 0.51503 0.23715 0.0
C852 C 0.99762 0.51998 0.24046 0.0
C853 C 0.00211 0.53799 0.2376 0.0
C854 C 0.98958 0.43201 0.21093 0.0
C855 C 0.00555 0.43252 0.20243 0.0
C856 C 0.00579 0.42429 0.17932 0.0
C857 C 0.99009 0.41526 0.16417 0.0
C858 C 0.97419 0.41494 0.17238 0.0
C859 C 0.97397 0.42325 0.1956 0.0
C860 C 0.9935 0.43196 0.25694 0.0
C861 C 0.98 0.41573 0.26789 0.0
C862 C 0.9847 0.4056 0.28357 0.0
C863 C 0.00308 0.41141 0.28814 0.0
C864 C 0.01651 0.4286 0.27953 0.0
C865 C 0.01174 0.43891 0.26415 0.0
C866 C 0.99525 0.45854 0.23682 0.0
C867 C 0.01004 0.47119 0.22181 0.0
C868 C 0.01513 0.48942 0.22211 0.0
C869 C 0.00599 0.49566 0.23799 0.0
C870 C 0.99173 0.48308 0.25386 0.0
C871 C 0.98638 0.46474 0.25309 0.0
H872 H 0.60987 0.55804 0.1978 0.0
N873 N 0.57931 0.54747 0.22437 0.0
H874 H 0.61751 0.57138 0.15451 0.0
H875 H 0.5566 0.5517 0.19192 0.0
H876 H 0.56448 0.56613 0.1497 0.0
H877 H 0.56695 0.57145 0.22766 0.0
H878 H 0.57872 0.59774 0.25565 0.0
H879 H 0.60221 0.55564 0.26354 0.0
H880 H 0.6135 0.5817 0.29275 0.0
H881 H 0.57206 0.51549 0.20667 0.0
H882 H 0.54783 0.5411 0.24991 0.0
H883 H 0.54335 0.48694 0.2082 0.0
H884 H 0.51966 0.51249 0.25316 0.0
H885 H 0.44326 0.39728 0.20213 0.0
H886 H 0.4287 0.38812 0.15991 0.0
H887 H 0.45042 0.44424 0.13999 0.0
H888 H 0.46391 0.45323 0.18225 0.0
H889 H 0.43494 0.44026 0.21887 0.0
H890 H 0.40841 0.42998 0.24692 0.0
H891 H 0.42721 0.40146 0.29415 0.0
H892 H 0.45362 0.41149 0.2655 0.0
H893 H 0.49351 0.43429 0.22729 0.0
H894 H 0.52262 0.46238 0.23199 0.0
H895 H 0.49465 0.4926 0.22951 0.0
N896 N 0.46077 0.43037 0.22215 0.0
H897 H 0.46577 0.4645 0.22676 0.0
C898 C 0.58278 0.55399 0.19812 0.0
C899 C 0.59983 0.55948 0.18708 0.0
C900 C 0.60418 0.56718 0.16247 0.0
C901 C 0.59157 0.56973 0.14852 0.0
C902 C 0.57435 0.56394 0.15951 0.0
C903 C 0.56991 0.55592 0.18388 0.0
C904 C 0.58398 0.56166 0.24314 0.0
C905 C 0.57711 0.57349 0.2417 0.0
C906 C 0.58373 0.58849 0.25796 0.0
C907 C 0.59729 0.59199 0.27607 0.0
C908 C 0.60339 0.57961 0.2785 0.0
C909 C 0.59684 0.56464 0.26206 0.0
C910 C 0.56234 0.5306 0.22795 0.0
C911 C 0.56066 0.51489 0.21691 0.0
C912 C 0.54421 0.49849 0.21805 0.0
C913 C 0.52901 0.49725 0.23083 0.0
C914 C 0.53087 0.51291 0.24265 0.0
C915 C 0.54722 0.52942 0.24098 0.0
C916 C 0.45481 0.42589 0.19567 0.0
C917 C 0.44513 0.4076 0.18845 0.0
C918 C 0.43692 0.4024 0.16424 0.0
C919 C 0.43851 0.41547 0.1465 0.0
C920 C 0.44883 0.43383 0.15331 0.0
C921 C 0.45674 0.439 0.17764 0.0
C922 C 0.44626 0.42655 0.24011 0.0
C923 C 0.43357 0.43208 0.23551 0.0
C924 C 0.41844 0.42628 0.25166 0.0
C925 C 0.41579 0.41498 0.2728 0.0
C926 C 0.42888 0.41009 0.27792 0.0
C927 C 0.44397 0.41585 0.26172 0.0
C928 C 0.4775 0.44722 0.22639 0.0
C929 C 0.49374 0.44701 0.22812 0.0
C930 C 0.51038 0.46314 0.23054 0.0
C931 C 0.51117 0.47994 0.23078 0.0
C932 C 0.49472 0.48003 0.22979 0.0
C933 C 0.47808 0.46387 0.22797 0.0
H934 H 0.5576 0.97452 0.20751 0.0
N935 N 0.56006 0.00406 0.23243 0.0
H936 H 0.57077 0.97441 0.16602 0.0
H937 H 0.57712 0.03152 0.1996 0.0
H938 H 0.59003 0.03134 0.15714 0.0
H939 H 0.58976 0.02462 0.25971 0.0
H940 H 0.60573 0.01455 0.28801 0.0
H941 H 0.54637 0.96942 0.25062 0.0
H942 H 0.56279 0.95916 0.2773 0.0
H943 H 0.52967 0.97301 0.21577 0.0
H944 H 0.54793 0.02415 0.25367 0.0
H945 H 0.49859 0.96684 0.21684 0.0
H946 H 0.51651 0.01782 0.25555 0.0
H947 H 0.41974 0.9537 0.18391 0.0
H948 H 0.41157 0.95878 0.14089 0.0
H949 H 0.42815 0.01373 0.16205 0.0
H950 H 0.43584 0.00838 0.20526 0.0
H951 H 0.43891 0.00624 0.25207 0.0
H952 H 0.41768 0.0083 0.28207 0.0
H953 H 0.37869 0.95182 0.26907 0.0
H954 H 0.40007 0.94986 0.23946 0.0
H955 H 0.44214 0.95366 0.23822 0.0
H956 H 0.4732 0.95983 0.24429 0.0
H957 H 0.49388 0.01613 0.22629 0.0
N958 N 0.43183 0.97655 0.22325 0.0
H959 H 0.46281 0.00989 0.22119 0.0
C960 C 0.56637 0.00314 0.20685 0.0
C961 C 0.56445 0.987 0.19677 0.0
C962 C 0.57189 0.98689 0.17278 0.0
C963 C 0.58124 0.00281 0.15816 0.0
C964 C 0.58289 0.01886 0.16801 0.0
C965 C 0.57548 0.01898 0.19213 0.0
C966 C 0.56709 0.99785 0.25264 0.0
C967 C 0.5836 0.01036 0.26406 0.0
C968 C 0.59281 0.00455 0.27988 0.0
C969 C 0.58585 0.98599 0.28408 0.0
C970 C 0.56861 0.97353 0.27424 0.0
C971 C 0.55923 0.97941 0.25883 0.0
C972 C 0.54125 -0.00081 0.23454 0.0
C973 C 0.52702 0.98286 0.22465 0.0
C974 C 0.50912 0.97927 0.22545 0.0
C975 C 0.505 0.99185 0.23625 0.0
C976 C 0.51921 0.00794 0.24676 0.0
C977 C 0.53713 0.01154 0.24588 0.0
C978 C 0.42847 0.9806 0.19768 0.0
C979 C 0.42181 0.96689 0.1791 0.0
C980 C 0.41729 0.96987 0.15453 0.0
C981 C 0.41951 0.98677 0.14797 0.0
C982 C 0.42637 0.00062 0.16655 0.0
C983 C 0.43085 0.99758 0.19121 0.0
C984 C 0.42096 0.97784 0.2435 0.0
C985 C 0.42592 0.99426 0.256 0.0
C986 C 0.41374 0.99545 0.273 0.0
C987 C 0.39644 0.98027 0.27764 0.0
C988 C 0.39194 0.96371 0.266 0.0
C989 C 0.40408 0.96256 0.24908 0.0
C990 C 0.45016 0.98121 0.22909 0.0
C991 C 0.45341 0.96736 0.236 0.0
C992 C 0.47116 0.9709 0.23923 0.0
C993 C 0.48608 0.98844 0.23547 0.0
C994 C 0.48273 0.00249 0.22954 0.0
C995 C 0.46493 -0.00107 0.22645 0.0
H996 H 0.4108 0.9547 0.82336 0.0
N997 N 0.43516 0.98181 0.79449 0.0
H998 H 0.39818 0.95672 0.86507 0.0
H999 H 0.44604 0.01262 0.82287 0.0
H1000 H 0.43321 0.01478 0.86385 0.0
H1001 H 0.44703 0.01659 0.77925 0.0
H1002 H 0.42953 0.0258 0.75264 0.0
H1003 H 0.40882 0.96069 0.76233 0.0
H1004 H 0.39209 0.96982 0.73395 0.0
H1005 H 0.43961 0.95479 0.77962 0.0
H1006 H 0.46921 0.01045 0.80391 0.0
H1007 H 0.46765 0.95371 0.77992 0.0
H1008 H 0.49708 0.00926 0.80619 0.0
H1009 H 0.55527 0.95201 0.83043 0.0
H1010 H 0.5688 0.95534 0.87312 0.0
H1011 H 0.5699 0.00587 0.88352 0.0
H1012 H 0.55541 0.00185 0.84168 0.0
H1013 H 0.57679 0.01037 0.80658 0.0
H1014 H 0.60219 0.02377 0.77651 0.0
H1015 H 0.57821 0.97391 0.73317 0.0
H1016 H 0.55279 0.9602 0.76412 0.0
H1017 H 0.51407 0.94979 0.81456 0.0
H1018 H 0.48689 0.95207 0.80995 0.0
H1019 H 0.52035 0.00759 0.785 0.0
N1020 N 0.54838 0.97519 0.80651 0.0
H1021 H 0.54736 0.00553 0.79137 0.0
C1022 C 0.42925 0.98342 0.8199 0.0
C1023 C 0.41586 0.9678 0.83231 0.0
C1024 C 0.40858 0.96901 0.85594 0.0
C1025 C 0.4145 0.98596 0.86743 0.0
C1026 C 0.4284 0.00156 0.85542 0.0
C1027 C 0.43572 0.00031 0.83187 0.0
C1028 C 0.42874 0.98789 0.77348 0.0
C1029 C 0.43514 0.00633 0.76931 0.0
C1030 C 0.42523 0.01159 0.75386 0.0
C1031 C 0.40905 0.99847 0.74202 0.0
C1032 C 0.4041 0.98018 0.74365 0.0
C1033 C 0.41374 0.97495 0.75955 0.0
C1034 C 0.45228 0.98254 0.79207 0.0
C1035 C 0.45224 0.96679 0.78495 0.0
C1036 C 0.46825 0.96616 0.78551 0.0
C1037 C 0.48466 0.98127 0.79365 0.0
C1038 C 0.48478 0.99736 0.79972 0.0
C1039 C 0.46876 0.99804 0.79868 0.0
C1040 C 0.55451 0.97671 0.83275 0.0
C1041 C 0.55819 0.96363 0.84218 0.0
C1042 C 0.56613 0.96569 0.86638 0.0
C1043 C 0.57087 0.98112 0.88143 0.0
C1044 C 0.56644 0.99384 0.87241 0.0
C1045 C 0.55823 0.99161 0.8484 0.0
C1046 C 0.5629 0.98407 0.78784 0.0
C1047 C 0.57687 0.00221 0.79074 0.0
C1048 C 0.59137 0.00997 0.77335 0.0
C1049 C 0.59227 -0.00018 0.75269 0.0
C1050 C 0.57802 0.98192 0.74923 0.0
C1051 C 0.56348 0.97413 0.76673 0.0
C1052 C 0.53276 0.97728 0.80305 0.0
C1053 C 0.51548 0.96244 0.80812 0.0
C1054 C 0.49995 0.96375 0.8052 0.0
C1055 C 0.50131 0.97997 0.79673 0.0
C1056 C 0.51871 0.99492 0.79176 0.0
C1057 C 0.53427 0.99368 0.79516 0.0
H1058 H 0.95296 0.54441 0.83158 0.0
N1059 N 0.97885 0.54482 0.80267 0.0
H1060 H 0.95632 0.55915 0.87341 0.0
H1061 H 0.01038 0.56342 0.83005 0.0
H1062 H 0.01387 0.5781 0.87207 0.0
H1063 H 0.01068 0.57466 0.78699 0.0
H1064 H 0.01329 0.59778 0.75729 0.0
H1065 H 0.95317 0.54278 0.77211 0.0
H1066 H 0.95542 0.56651 0.7437 0.0
H1067 H 0.95762 0.51027 0.81393 0.0
H1068 H 0.01136 0.54859 0.7861 0.0
H1069 H 0.96548 0.48664 0.81411 0.0
H1070 H 0.0191 0.52494 0.78492 0.0
H1071 H 0.98313 0.4379 0.84366 0.0
H1072 H 0.98028 0.42497 0.88632 0.0
H1073 H 0.03472 0.43384 0.87935 0.0
H1074 H 0.03702 0.44583 0.83575 0.0
H1075 H 0.02912 0.44663 0.76822 0.0
H1076 H 0.01869 0.42153 0.73731 0.0
H1077 H 0.96822 0.39193 0.77969 0.0
H1078 H 0.97835 0.41688 0.80979 0.0
H1079 H 0.97879 0.44401 0.79395 0.0
H1080 H 0.97146 0.46761 0.78873 0.0
H1081 H 0.02571 0.50748 0.81308 0.0
N1082 N 0.01164 0.4484 0.80988 0.0
H1083 H 0.0333 0.48369 0.81686 0.0
C1084 C 0.98134 0.55281 0.82783 0.0
C1085 C 0.96625 0.55167 0.84044 0.0
C1086 C 0.96821 0.56006 0.86424 0.0
C1087 C 0.98538 0.56986 0.87584 0.0
C1088 C 0.00054 0.57087 0.86333 0.0
C1089 C -0.00145 0.56241 0.83945 0.0
C1090 C 0.98168 0.55681 0.78155 0.0
C1091 C -0.00131 0.57233 0.77677 0.0
C1092 C 0.0001 0.58577 0.76014 0.0
C1093 C 0.98448 0.58421 0.74869 0.0
C1094 C 0.96773 0.56813 0.75216 0.0
C1095 C 0.9664 0.55456 0.76838 0.0
C1096 C 0.98373 0.53113 0.79981 0.0
C1097 C 0.971 0.51346 0.80732 0.0
C1098 C 0.97552 0.49996 0.80726 0.0
C1099 C 0.99294 0.5038 0.79943 0.0
C1100 C 0.00564 0.52151 0.7914 0.0
C1101 C 0.00114 0.53508 0.79178 0.0
C1102 C 0.01032 0.44275 0.83639 0.0
C1103 C 0.99453 0.43723 0.85132 0.0
C1104 C 0.99299 0.43 0.87593 0.0
C1105 C 0.00735 0.42854 0.88641 0.0
C1106 C 0.02337 0.43468 0.87178 0.0
C1107 C 0.02477 0.44163 0.84699 0.0
C1108 C 0.00471 0.43371 0.79148 0.0
C1109 C 0.01578 0.43474 0.77068 0.0
C1110 C 0.00987 0.42039 0.7532 0.0
C1111 C 0.99272 0.40472 0.7563 0.0
C1112 C 0.98147 0.40387 0.77678 0.0
C1113 C 0.98737 0.41816 0.79419 0.0
C1114 C 0.0068 0.46206 0.80559 0.0
C1115 C 0.98928 0.45779 0.79779 0.0
C1116 C 0.985 0.47138 0.79506 0.0
C1117 C 0.99794 0.48952 0.80057 0.0
C1118 C 0.01547 0.49375 0.80821 0.0
C1119 C 0.01981 0.48016 0.81058 0.0
H1120 H 0.43938 0.42862 0.81195 0.0
N1121 N 0.4339 0.45479 0.79152 0.0
H1122 H 0.42908 0.41454 0.85441 0.0
H1123 H 0.41995 0.46508 0.82924 0.0
H1124 H 0.41025 0.45156 0.87218 0.0
H1125 H 0.39939 0.43775 0.77785 0.0
H1126 H 0.38358 0.41119 0.75038 0.0
H1127 H 0.4503 0.44053 0.76099 0.0
H1128 H 0.43475 0.41466 0.73214 0.0
H1129 H 0.46699 0.45728 0.79734 0.0
H1130 H 0.44085 0.4874 0.77832 0.0
H1131 H 0.49668 0.48479 0.79432 0.0
H1132 H 0.47027 0.51526 0.77712 0.0
H1133 H 0.57561 0.56474 0.82263 0.0
H1134 H 0.58903 0.57685 0.86438 0.0
H1135 H 0.55557 0.6011 0.8722 0.0
H1136 H 0.54275 0.58962 0.82933 0.0
H1137 H 0.56617 0.60218 0.77037 0.0
H1138 H 0.59298 0.61497 0.74217 0.0
H1139 H 0.59663 0.567 0.75315 0.0
H1140 H 0.56907 0.55385 0.7796 0.0
H1141 H 0.54304 0.53966 0.82155 0.0
H1142 H 0.51507 0.5109 0.81726 0.0
H1143 H 0.49774 0.53326 0.75669 0.0
N1144 N 0.55167 0.57141 0.79649 0.0
H1145 H 0.52531 0.56256 0.76269 0.0
C1146 C 0.4301 0.4477 0.81738 0.0
C1147 C 0.43315 0.43377 0.82505 0.0
C1148 C 0.42732 0.42579 0.84934 0.0
C1149 C 0.4185 0.4317 0.86635 0.0
C1150 C 0.41652 0.44638 0.85917 0.0
C1151 C 0.42218 0.45422 0.83483 0.0
C1152 C 0.426 0.44131 0.77146 0.0
C1153 C 0.40724 0.43302 0.76745 0.0
C1154 C 0.39825 0.4179 0.75152 0.0
C1155 C 0.40793 0.41093 0.73864 0.0
C1156 C 0.4269 0.41968 0.74181 0.0
C1157 C 0.43585 0.43464 0.75823 0.0
C1158 C 0.45172 0.4703 0.78755 0.0
C1159 C 0.46767 0.46981 0.79215 0.0
C1160 C 0.48467 0.48566 0.79082 0.0
C1161 C 0.48603 0.50241 0.78557 0.0
C1162 C 0.46996 0.50268 0.78063 0.0
C1163 C 0.45305 0.48678 0.78144 0.0
C1164 C 0.55835 0.57659 0.82249 0.0
C1165 C 0.57114 0.57271 0.83309 0.0
C1166 C 0.57872 0.57951 0.8572 0.0
C1167 C 0.57361 0.5902 0.8714 0.0
C1168 C 0.56016 0.59332 0.86139 0.0
C1169 C 0.55269 0.58664 0.83708 0.0
C1170 C 0.56578 0.57723 0.77722 0.0
C1171 C 0.57252 0.59428 0.76603 0.0
C1172 C 0.5879 0.60159 0.75016 0.0
C1173 C 0.59703 0.59206 0.74549 0.0
C1174 C 0.58977 0.57459 0.75588 0.0
C1175 C 0.57412 0.56712 0.77129 0.0
C1176 C 0.5361 0.55355 0.79287 0.0
C1177 C 0.53326 0.53852 0.80745 0.0
C1178 C 0.51722 0.52185 0.80468 0.0
C1179 C 0.50388 0.51966 0.78681 0.0
C1180 C 0.50735 0.53448 0.77121 0.0
C1181 C 0.52319 0.55123 0.77441 0.0
H1182 H 0.70862 0.91377 0.52771 0.0
N1183 N 0.68296 0.89577 0.5628 0.0
H1184 H 0.70529 0.92462 0.4857 0.0
H1185 H 0.65101 0.8894 0.54121 0.0
H1186 H 0.64734 0.89908 0.49868 0.0
H1187 H 0.65348 0.89365 0.58726 0.0
H1188 H 0.65414 0.91626 0.61702 0.0
H1189 H 0.71201 0.92308 0.58417 0.0
H1190 H 0.71285 0.94583 0.61357 0.0
H1191 H 0.7051 0.88335 0.57208 0.0
H1192 H 0.64837 0.86639 0.56536 0.0
H1193 H 0.69715 0.85187 0.57702 0.0
H1194 H 0.64029 0.8349 0.56847 0.0
H1195 H 0.67797 0.76618 0.54592 0.0
H1196 H 0.68076 0.75556 0.50344 0.0
H1197 H 0.62609 0.74243 0.4853 0.0
H1198 H 0.62325 0.753 0.52833 0.0
H1199 H 0.62919 0.73169 0.58136 0.0
H1200 H 0.63955 0.71581 0.6088 0.0
H1201 H 0.68912 0.7662 0.62418 0.0
H1202 H 0.67929 0.78173 0.59512 0.0
H1203 H 0.67962 0.79534 0.54842 0.0
H1204 H 0.68748 0.82662 0.55065 0.0
H1205 H 0.63798 0.81095 0.59346 0.0
N1206 N 0.64793 0.76576 0.56585 0.0
H1207 H 0.62961 0.77918 0.58968 0.0
C1208 C 0.6801 0.90047 0.53737 0.0
C1209 C 0.6952 0.91035 0.52126 0.0
C1210 C 0.69322 0.91639 0.4972 0.0
C1211 C 0.67597 0.91238 0.48857 0.0
C1212 C 0.6608 0.90234 0.50472 0.0
C1213 C 0.66285 0.89657 0.52898 0.0
C1214 C 0.68276 0.90678 0.58356 0.0
C1215 C 0.66646 0.90474 0.59343 0.0
C1216 C 0.66686 0.91768 0.61038 0.0
C1217 C 0.68355 0.93275 0.61775 0.0
C1218 C 0.6998 0.93418 0.60877 0.0
C1219 C 0.69937 0.92128 0.59188 0.0
C1220 C 0.67744 0.87722 0.56786 0.0
C1221 C 0.69092 0.87278 0.57166 0.0
C1222 C 0.68633 0.85476 0.57421 0.0
C1223 C 0.66807 0.84071 0.57262 0.0
C1224 C 0.65448 0.84529 0.56991 0.0
C1225 C 0.65911 0.86338 0.56778 0.0
C1226 C 0.65033 0.76044 0.54031 0.0
C1227 C 0.66661 0.7612 0.53281 0.0
C1228 C 0.66825 0.75522 0.50844 0.0
C1229 C 0.65372 0.74839 0.491 0.0
C1230 C 0.6375 0.74768 0.4984 0.0
C1231 C 0.63588 0.75374 0.52283 0.0
C1232 C 0.65325 0.75789 0.58614 0.0
C1233 C 0.6421 0.73937 0.59113 0.0
C1234 C 0.64802 0.73034 0.60706 0.0
C1235 C 0.6651 0.73975 0.61908 0.0
C1236 C 0.67592 0.75852 0.61514 0.0
C1237 C 0.67019 0.76748 0.59864 0.0
C1238 C 0.65373 0.78472 0.56849 0.0
C1239 C 0.67031 0.79847 0.55814 0.0
C1240 C 0.67497 0.81654 0.55979 0.0
C1241 C 0.66339 0.82144 0.57224 0.0
C1242 C 0.6471 0.80771 0.58332 0.0
C1243 C 0.64234 0.78956 0.58137 0.0
H1244 H 0.27211 0.89738 0.5391 0.0
N1245 N 0.23987 0.88098 0.56258 0.0
H1246 H 0.27979 0.91246 0.49715 0.0
H1247 H 0.21573 0.88066 0.52755 0.0
H1248 H 0.22309 0.89466 0.48495 0.0
H1249 H 0.22795 0.9052 0.5646 0.0
H1250 H 0.24057 0.93234 0.59134 0.0
H1251 H 0.26232 0.88903 0.6023 0.0
H1252 H 0.27449 0.91588 0.63004 0.0
H1253 H 0.23215 0.84902 0.5441 0.0
H1254 H 0.20875 0.87468 0.5891 0.0
H1255 H 0.20323 0.82071 0.5453 0.0
H1256 H 0.18037 0.84624 0.5921 0.0
H1257 H 0.10393 0.73263 0.5362 0.0
H1258 H 0.08909 0.72443 0.49413 0.0
H1259 H 0.10833 0.78075 0.47873 0.0
H1260 H 0.12209 0.78871 0.52103 0.0
H1261 H 0.09454 0.77482 0.55828 0.0
H1262 H 0.06747 0.7622 0.58578 0.0
H1263 H 0.08703 0.73237 0.62838 0.0
H1264 H 0.11382 0.74456 0.60008 0.0
H1265 H 0.15296 0.76824 0.56258 0.0
H1266 H 0.18229 0.79593 0.56806 0.0
H1267 H 0.15506 0.82691 0.56882 0.0
N1268 N 0.12047 0.76496 0.55843 0.0
H1269 H 0.12591 0.79906 0.5655 0.0
C1270 C 0.24339 0.88769 0.53639 0.0
C1271 C 0.26134 0.89652 0.52715 0.0
C1272 C 0.26566 0.905 0.50309 0.0
C1273 C 0.252 0.90453 0.4875 0.0
C1274 C 0.23392 0.8953 0.49651 0.0
C1275 C 0.22966 0.88711 0.52078 0.0
C1276 C 0.24446 0.89521 0.58122 0.0
C1277 C 0.23797 0.90732 0.57898 0.0
C1278 C 0.24513 0.92279 0.59438 0.0
C1279 C 0.25882 0.92644 0.61235 0.0
C1280 C 0.26432 0.91367 0.61583 0.0
C1281 C 0.25726 0.89825 0.60026 0.0
C1282 C 0.22286 0.86414 0.56627 0.0
C1283 C 0.22089 0.84845 0.5547 0.0
C1284 C 0.20431 0.83219 0.55564 0.0
C1285 C 0.18926 0.83102 0.5688 0.0
C1286 C 0.19144 0.84661 0.58126 0.0
C1287 C 0.20792 0.86301 0.57976 0.0
C1288 C 0.11434 0.76124 0.53197 0.0
C1289 C 0.10521 0.74322 0.52352 0.0
C1290 C 0.09684 0.73858 0.4994 0.0
C1291 C 0.0977 0.75197 0.48294 0.0
C1292 C 0.10735 0.77011 0.49102 0.0
C1293 C 0.11543 0.7747 0.51532 0.0
C1294 C 0.10609 0.76038 0.57695 0.0
C1295 C 0.09316 0.76578 0.57375 0.0
C1296 C 0.07769 0.75858 0.58952 0.0
C1297 C 0.07493 0.74597 0.60882 0.0
C1298 C 0.08854 0.74166 0.61317 0.0
C1299 C 0.10392 0.74873 0.59726 0.0
C1300 C 0.13731 0.78156 0.56324 0.0
C1301 C 0.15341 0.78104 0.5643 0.0
C1302 C 0.17018 0.79695 0.56716 0.0
C1303 C 0.17125 0.81386 0.56846 0.0
C1304 C 0.15493 0.81424 0.56822 0.0
C1305 C 0.13814 0.79826 0.56603 0.0
H1306 H 0.23773 0.32396 0.54339 0.0
N1307 N 0.23837 0.35373 0.56411 0.0
H1308 H 0.25071 0.32239 0.50211 0.0
H1309 H 0.25305 0.37927 0.52793 0.0
H1310 H 0.26578 0.37763 0.48606 0.0
H1311 H 0.27278 0.36821 0.57863 0.0
H1312 H 0.2859 0.35423 0.60495 0.0
H1313 H 0.21893 0.32382 0.59653 0.0
H1314 H 0.23197 0.31044 0.62344 0.0
H1315 H 0.20879 0.321 0.55108 0.0
H1316 H 0.22511 0.37478 0.57751 0.0
H1317 H 0.1773 0.31336 0.55051 0.0
H1318 H 0.19344 0.36759 0.57559 0.0
H1319 H 0.08234 0.29436 0.52481 0.0
H1320 H 0.07169 0.29818 0.48288 0.0
H1321 H 0.1089 0.35581 0.4872 0.0
H1322 H 0.1195 0.35181 0.52939 0.0
H1323 H 0.10937 0.35043 0.57394 0.0
H1324 H 0.08773 0.35143 0.60416 0.0
H1325 H 0.06013 0.29329 0.61171 0.0
H1326 H 0.08239 0.2926 0.58254 0.0
H1327 H 0.12584 0.30978 0.52426 0.0
H1328 H 0.15768 0.31861 0.52654 0.0
H1329 H 0.16398 0.35109 0.59395 0.0
N1330 N 0.10736 0.31976 0.55467 0.0
H1331 H 0.13239 0.34311 0.59064 0.0
C1332 C 0.24455 0.35187 0.53885 0.0
C1333 C 0.24364 0.3357 0.53095 0.0
C1334 C 0.25107 0.3348 0.50732 0.0
C1335 C 0.25949 0.34996 0.49106 0.0
C1336 C 0.25974 0.36586 0.49849 0.0
C1337 C 0.25237 0.36679 0.52223 0.0
C1338 C 0.2449 0.347 0.58458 0.0
C1339 C 0.26375 0.35573 0.58867 0.0
C1340 C 0.27124 0.34772 0.60374 0.0
C1341 C 0.25998 0.3309 0.61554 0.0
C1342 C 0.24103 0.32302 0.61364 0.0
C1343 C 0.23353 0.33085 0.59818 0.0
C1344 C 0.21939 0.34851 0.56456 0.0
C1345 C 0.20562 0.33125 0.55664 0.0
C1346 C 0.18752 0.32694 0.55612 0.0
C1347 C 0.18273 0.33991 0.56271 0.0
C1348 C 0.19653 0.35716 0.5707 0.0
C1349 C 0.21465 0.36135 0.57169 0.0
C1350 C 0.10163 0.32273 0.53005 0.0
C1351 C 0.08816 0.30779 0.51667 0.0
C1352 C 0.08216 0.31 0.4928 0.0
C1353 C 0.08948 0.32729 0.48188 0.0
C1354 C 0.10292 0.34237 0.49537 0.0
C1355 C 0.109 0.34011 0.51934 0.0
C1356 C 0.09746 0.32138 0.57612 0.0
C1357 C 0.09899 0.33799 0.58274 0.0
C1358 C 0.08648 0.33851 0.59976 0.0
C1359 C 0.07194 0.32239 0.60982 0.0
C1360 C 0.07119 0.30596 0.60439 0.0
C1361 C 0.08387 0.30551 0.58774 0.0
C1362 C 0.12651 0.32583 0.55692 0.0
C1363 C 0.13412 0.319 0.53936 0.0
C1364 C 0.15234 0.3239 0.54092 0.0
C1365 C 0.16346 0.33543 0.56063 0.0
C1366 C 0.15592 0.34236 0.5783 0.0
C1367 C 0.13766 0.33768 0.57644 0.0
C1368 C 0.00643 0.40729 0.09994 0.0
C1369 C 0.9937 0.38907 0.09441 0.0
C1370 C 0.0049 0.4157 0.12222 0.0
C1371 C 0.99058 0.40627 0.1399 0.0
H1372 H 0.01778 0.41516 0.08703 0.0
H1373 H 0.01509 0.42971 0.12569 0.0
S1374 S 0.95374 0.35833 0.13483 0.0
N1375 N 0.96621 0.36186 0.10861 0.0
N1376 N 0.9635 0.37771 0.15066 0.0
C1377 C 0.97763 0.38813 0.13458 0.0
C1378 C 0.97917 0.37951 0.11183 0.0
C1379 C 0.61866 0.60559 0.09787 0.0
C1380 C 0.60634 0.60061 0.07735 0.0
C1381 C 0.61392 0.5953 0.12055 0.0
C1382 C 0.59679 0.57947 0.12339 0.0
H1383 H 0.63179 0.61791 0.09682 0.0
H1384 H 0.62354 0.60014 0.13628 0.0
S1385 S 0.5608 0.55924 0.07355 0.0
N1386 N 0.57696 0.5781 0.06029 0.0
N1387 N 0.56831 0.55831 0.10244 0.0
C1388 C 0.58474 0.57387 0.1024 0.0
C1389 C 0.58945 0.58453 0.07951 0.0
C1390 C 0.3943 0.99692 0.09674 0.0
C1391 C 0.39781 0.98999 0.07419 0.0
C1392 C 0.40202 0.99658 0.12041 0.0
C1393 C 0.41361 0.98942 0.12228 0.0
H1394 H 0.3848 0.00177 0.0964 0.0
H1395 H 0.39819 0.00115 0.13755 0.0
S1396 S 0.42968 0.97272 0.06803 0.0
N1397 N 0.41534 0.97782 0.05465 0.0
N1398 N 0.4301 0.97754 0.09897 0.0
C1399 C 0.4182 0.98365 0.09954 0.0
C1400 C 0.41025 0.98385 0.07554 0.0
C1401 C 0.40866 0.00015 0.93468 0.0
C1402 C 0.38965 0.99132 0.93758 0.0
C1403 C 0.41661 0.99824 0.91203 0.0
C1404 C 0.40583 0.98751 0.89143 0.0
H1405 H 0.41748 0.00843 0.95012 0.0
H1406 H 0.4313 0.0051 0.91071 0.0
S1407 S 0.35544 0.96298 0.88841 0.0
N1408 N 0.36026 0.97222 0.9174 0.0
N1409 N 0.37522 0.96896 0.8747 0.0
C1410 C 0.38682 0.97891 0.89389 0.0
C1411 C 0.37872 0.98074 0.91699 0.0
C1412 C 0.00747 0.39683 0.9373 0.0
C1413 C -0.00133 0.3995 0.95843 0.0
C1414 C 0.01055 0.40655 0.91434 0.0
C1415 C 0.00516 0.41949 0.9117 0.0
H1416 H 0.01148 0.38673 0.93818 0.0
H1417 H 0.0167 0.40348 0.89826 0.0
S1418 S 0.98378 0.43322 0.96264 0.0
N1419 N 0.98584 0.41693 0.97604 0.0
N1420 N 0.99219 0.43565 0.93318 0.0
C1421 C 0.99706 0.42284 0.93312 0.0
C1422 C 0.99369 0.41274 0.95639 0.0
C1423 C 0.59594 0.59609 0.93668 0.0
C1424 C 0.60314 0.61457 0.94201 0.0
C1425 C 0.58595 0.58822 0.91421 0.0
C1426 C 0.5829 0.59854 0.89608 0.0
H1427 H 0.59805 0.58761 0.94994 0.0
H1428 H 0.58068 0.57394 0.91091 0.0
S1429 S 0.59942 0.64766 0.90047 0.0
N1430 N 0.60663 0.64304 0.92723 0.0
N1431 N 0.58829 0.62833 0.88468 0.0
C1432 C 0.58994 0.61702 0.90123 0.0
C1433 C 0.59997 0.62501 0.92425 0.0
C1434 C 0.97556 0.57728 0.9447 0.0
C1435 C 0.98787 0.59582 0.9489 0.0
C1436 C 0.97521 0.56897 0.92128 0.0
C1437 C 0.98717 0.5788 0.90106 0.0
H1438 H 0.96588 0.56905 0.9595 0.0
H1439 H 0.96535 0.55473 0.9189 0.0
S1440 S 0.02225 0.62754 0.9019 0.0
N1441 N 0.01265 0.62369 0.93074 0.0
N1442 N 0.01182 0.60797 0.88658 0.0
C1443 C -0.00015 0.59722 0.90504 0.0
C1444 C 0.00023 0.60575 0.92896 0.0
C1445 C 0.41337 0.40791 0.93023 0.0
C1446 C 0.39533 0.40221 0.93758 0.0
C1447 C 0.42085 0.41761 0.90735 0.0
C1448 C 0.41058 0.42197 0.89094 0.0
H1449 H 0.4218 0.40485 0.94222 0.0
H1450 H 0.4348 0.42177 0.90248 0.0
S1451 S 0.36243 0.40942 0.90054 0.0
N1452 N 0.36726 0.40132 0.92617 0.0
N1453 N 0.38124 0.41923 0.88302 0.0
C1454 C 0.39252 0.41629 0.89797 0.0
C1455 C 0.38492 0.4065 0.9213 0.0
C1456 C 0.58628 0.99561 0.95045 0.0
C1457 C 0.60164 0.99369 0.95255 0.0
C1458 C 0.57609 0.99095 0.92773 0.0
C1459 C 0.58098 0.9844 0.90604 0.0
H1460 H 0.58215 0.00088 0.96647 0.0
H1461 H 0.56438 0.99269 0.92705 0.0
S1462 S 0.62046 0.97744 0.90133 0.0
N1463 N 0.62128 0.98476 0.93107 0.0
N1464 N 0.60252 0.97659 0.88801 0.0
C1465 C 0.59622 0.98223 0.90798 0.0
C1466 C 0.60645 0.98674 0.9313 0.0
C1467 C 0.61743 0.01534 0.10644 0.0
C1468 C 0.60857 0.00158 0.08794 0.0
C1469 C 0.60836 0.01591 0.12876 0.0
C1470 C 0.59006 0.00277 0.13339 0.0
H1471 H 0.63163 0.02557 0.10398 0.0
H1472 H 0.61591 0.02643 0.14284 0.0
S1473 S 0.56007 0.96503 0.08975 0.0
N1474 N 0.58003 0.97517 0.07498 0.0
N1475 N 0.56295 0.97646 0.11671 0.0
C1476 C 0.58084 0.98931 0.11465 0.0
C1477 C 0.59009 0.98865 0.09199 0.0
C1478 C 0.01704 0.60191 0.08402 0.0
C1479 C 0.00242 0.60511 0.08284 0.0
C1480 C 0.02032 0.59479 0.10624 0.0
C1481 C 0.00902 0.59044 0.12808 0.0
H1482 H 0.02627 0.60521 0.06781 0.0
H1483 H 0.03184 0.59274 0.10638 0.0
S1484 S 0.96887 0.59606 0.13512 0.0
N1485 N 0.9764 0.60313 0.10557 0.0
N1486 N 0.98268 0.58984 0.14734 0.0
C1487 C 0.99419 0.59328 0.1271 0.0
C1488 C 0.99086 0.60059 0.1045 0.0
C1489 C 0.40838 0.41371 0.09174 0.0
C1490 C 0.40723 0.39995 0.07562 0.0
C1491 C 0.41856 0.4186 0.11443 0.0
C1492 C 0.42822 0.4101 0.12188 0.0
H1493 H 0.40105 0.42058 0.08709 0.0
H1494 H 0.41857 0.42895 0.12648 0.0
S1495 S 0.43081 0.37412 0.08551 0.0
N1496 N 0.41715 0.37827 0.06819 0.0
N1497 N 0.43676 0.38785 0.11061 0.0
C1498 C 0.42748 0.39651 0.10574 0.0
C1499 C 0.4169 0.39136 0.08268 0.0
C1500 C 0.64419 0.71623 0.43497 0.0
C1501 C 0.65957 0.72592 0.41897 0.0
C1502 C 0.64211 0.7238 0.45784 0.0
C1503 C 0.65534 0.74133 0.46559 0.0
H1504 H 0.63384 0.70252 0.43014 0.0
H1505 H 0.63035 0.71565 0.46996 0.0
S1506 S 0.69711 0.77314 0.42942 0.0
N1507 N 0.6876 0.75458 0.41172 0.0
N1508 N 0.68356 0.76873 0.45461 0.0
C1509 C 0.67042 0.75142 0.44936 0.0
C1510 C 0.67256 0.74375 0.42608 0.0
C1511 C 0.25365 0.9356 0.43418 0.0
C1512 C 0.26643 0.93585 0.41667 0.0
C1513 C 0.24899 0.92533 0.45683 0.0
C1514 C 0.25671 0.91467 0.46272 0.0
H1515 H 0.24749 0.94375 0.43068 0.0
H1516 H 0.23951 0.92606 0.47009 0.0
S1517 S 0.28948 0.90917 0.42183 0.0
N1518 N 0.28604 0.92381 0.40598 0.0
N1519 N 0.27679 0.90398 0.44815 0.0
C1520 C 0.26913 0.91438 0.44498 0.0
C1521 C 0.27409 0.92508 0.42207 0.0
C1522 C 0.0748 0.31774 0.41219 0.0
C1523 C 0.06698 0.32852 0.40777 0.0
C1524 C 0.08267 0.31802 0.43587 0.0
C1525 C 0.08313 0.32914 0.45615 0.0
H1526 H 0.07447 0.30859 0.39746 0.0
H1527 H 0.08809 0.30914 0.43852 0.0
S1528 S 0.06565 0.36081 0.45443 0.0
N1529 N 0.0611 0.35141 0.42551 0.0
N1530 N 0.07592 0.35182 0.47017 0.0
C1531 C 0.07616 0.34062 0.45179 0.0
C1532 C 0.06808 0.34034 0.42758 0.0
C1533 C 0.07985 0.34021 0.26456 0.0
C1534 C 0.06131 0.32826 0.27 0.0
C1535 C 0.08806 0.33816 0.24228 0.0
C1536 C 0.07804 0.32405 0.22471 0.0
H1537 H 0.0881 0.35121 0.27757 0.0
H1538 H 0.10235 0.34761 0.23884 0.0
S1539 S 0.0289 0.28978 0.22906 0.0
N1540 N 0.03306 0.30214 0.25536 0.0
N1541 N 0.0485 0.29849 0.21351 0.0
C1542 C 0.05949 0.31212 0.22976 0.0
C1543 C 0.05114 0.31419 0.25239 0.0
C1544 C 0.66036 0.73471 0.2663 0.0
C1545 C 0.67303 0.73371 0.28239 0.0
C1546 C 0.66589 0.74532 0.24398 0.0
C1547 C 0.68436 0.75556 0.23688 0.0
H1548 H 0.64596 0.72702 0.27074 0.0
H1549 H 0.65553 0.74526 0.23196 0.0
S1550 S 0.72313 0.7586 0.27321 0.0
N1551 N 0.705 0.74432 0.29008 0.0
N1552 N 0.71544 0.76466 0.24835 0.0
C1553 C 0.69724 0.75489 0.25292 0.0
C1554 C 0.69157 0.7439 0.27561 0.0
C1555 C 0.25581 0.9268 0.2748 0.0
C1556 C 0.26365 0.94547 0.27927 0.0
C1557 C 0.24614 0.91878 0.25214 0.0
C1558 C 0.24401 0.92912 0.23301 0.0
H1559 H 0.25719 0.91828 0.28887 0.0
H1560 H 0.24033 0.90435 0.24955 0.0
S1561 S 0.26253 0.9787 0.23483 0.0
N1562 N 0.26878 0.97414 0.26251 0.0
N1563 N 0.25102 0.95914 0.21969 0.0
C1564 C 0.25174 0.94781 0.23726 0.0
C1565 C 0.26146 0.95596 0.26042 0.0
C1566 C 0.66992 0.91701 0.27283 0.0
C1567 C 0.67273 0.93446 0.2769 0.0
C1568 C 0.67484 0.91234 0.24944 0.0
C1569 C 0.68258 0.92489 0.22914 0.0
H1570 H 0.66406 0.90692 0.28793 0.0
H1571 H 0.67269 0.89883 0.24733 0.0
S1572 S 0.69115 0.97185 0.22921 0.0
N1573 N 0.68296 0.96408 0.25828 0.0
N1574 N 0.69168 0.95516 0.2141 0.0
C1575 C 0.68514 0.94229 0.23281 0.0
C1576 C 0.68034 0.9471 0.25673 0.0
C1577 C 0.04351 0.73943 0.25632 0.0
C1578 C 0.05486 0.73727 0.27374 0.0
C1579 C 0.05014 0.74799 0.23245 0.0
C1580 C 0.06835 0.75469 0.22512 0.0
H1581 H 0.02928 0.73412 0.26087 0.0
H1582 H 0.04081 0.7489 0.21933 0.0
S1583 S 0.10417 0.7543 0.26474 0.0
N1584 N 0.08558 0.74376 0.28264 0.0
N1585 N 0.098 0.75998 0.23793 0.0
C1586 C 0.08 0.75324 0.24271 0.0
C1587 C 0.07328 0.7445 0.26697 0.0
C1588 C 0.27623 0.32731 0.26529 0.0
C1589 C 0.27258 0.33538 0.28633 0.0
C1590 C 0.26593 0.32292 0.24265 0.0
C1591 C 0.25141 0.3262 0.24032 0.0
H1592 H 0.28758 0.325 0.2659 0.0
H1593 H 0.26979 0.31747 0.22655 0.0
S1594 S 0.23468 0.34466 0.29143 0.0
N1595 N 0.25252 0.34507 0.30433 0.0
N1596 N 0.23275 0.33623 0.26216 0.0
C1597 C 0.24705 0.33343 0.26176 0.0
C1598 C 0.25772 0.33814 0.28466 0.0
C1599 C 0.26769 0.3329 0.4276 0.0
C1600 C 0.28566 0.34615 0.42116 0.0
C1601 C 0.25924 0.33439 0.44998 0.0
C1602 C 0.26841 0.3492 0.46679 0.0
H1603 H 0.26006 0.32121 0.41532 0.0
H1604 H 0.2454 0.32385 0.45416 0.0
S1605 S 0.31581 0.38729 0.45935 0.0
N1606 N 0.31243 0.37451 0.43371 0.0
N1607 N 0.29659 0.37712 0.47592 0.0
C1608 C 0.28635 0.36257 0.4606 0.0
C1609 C 0.29497 0.36109 0.43778 0.0
C1610 C 0.6617 0.93508 0.43862 0.0
C1611 C 0.67124 0.93516 0.41636 0.0
C1612 C 0.6631 0.92747 0.46174 0.0
C1613 C 0.67394 0.91945 0.46341 0.0
H1614 H 0.65346 0.9414 0.43841 0.0
H1615 H 0.656 0.92831 0.4786 0.0
S1616 S 0.6999 0.91424 0.40967 0.0
N1617 N 0.69092 0.9255 0.39688 0.0
N1618 N 0.69307 0.91065 0.44006 0.0
C1619 C 0.68299 0.91884 0.44097 0.0
C1620 C 0.68176 0.92681 0.41753 0.0
C1621 C 0.06674 0.75 0.42909 0.0
C1622 C 0.06622 0.73686 0.41227 0.0
C1623 C 0.07708 0.75489 0.45168 0.0
C1624 C 0.08752 0.74701 0.45822 0.0
H1625 H 0.05874 0.75627 0.42511 0.0
H1626 H 0.07656 0.76466 0.46442 0.0
S1627 S 0.09231 0.71327 0.41926 0.0
N1628 N 0.07783 0.71675 0.4029 0.0
N1629 N 0.09773 0.72637 0.44499 0.0
C1630 C 0.08755 0.73423 0.44117 0.0
C1631 C 0.07681 0.72907 0.4183 0.0
C1632 C 0.3128 0.04867 0.77154 0.0
C1633 C 0.32701 0.05921 0.75412 0.0
C1634 C 0.31074 0.056 0.79465 0.0
C1635 C 0.32278 0.07418 0.8012 0.0
H1636 H 0.30338 0.03451 0.76759 0.0
H1637 H 0.29993 0.04723 0.8078 0.0
S1638 S 0.36106 0.10807 0.76111 0.0
N1639 N 0.3526 0.08914 0.74432 0.0
N1640 N 0.34852 0.10293 0.78756 0.0
C1641 C 0.33667 0.08504 0.7836 0.0
C1642 C 0.33883 0.07756 0.76012 0.0
C1643 C 0.94796 0.26587 0.75784 0.0
C1644 C 0.93478 0.26641 0.74222 0.0
C1645 C 0.94319 0.25654 0.78141 0.0
C1646 C 0.9251 0.24745 0.79021 0.0
H1647 H 0.96218 0.27315 0.75226 0.0
H1648 H 0.95383 0.257 0.79325 0.0
S1649 S 0.88505 0.24263 0.75548 0.0
N1650 N 0.90249 0.25549 0.73648 0.0
N1651 N 0.89371 0.23806 0.78071 0.0
C1652 C 0.91167 0.24713 0.77435 0.0
C1653 C 0.91646 0.25657 0.75038 0.0
C1654 C 0.73914 0.6601 0.76203 0.0
C1655 C 0.73981 0.67319 0.74512 0.0
C1656 C 0.74868 0.66505 0.78532 0.0
C1657 C 0.75954 0.68333 0.79252 0.0
H1658 H 0.73082 0.64584 0.75756 0.0
H1659 H 0.74723 0.6544 0.798 0.0
S1660 S 0.76717 0.72293 0.75383 0.0
N1661 N 0.75277 0.70525 0.73654 0.0
N1662 N 0.7713 0.71464 0.77991 0.0
C1663 C 0.76068 0.6966 0.77546 0.0
C1664 C 0.7507 0.69152 0.75188 0.0
C1665 C 0.72269 0.64303 0.59874 0.0
C1666 C 0.72772 0.66088 0.60531 0.0
C1667 C 0.72912 0.63919 0.57608 0.0
C1668 C 0.74068 0.65303 0.55894 0.0
H1669 H 0.71372 0.6319 0.61123 0.0
H1670 H 0.72495 0.62524 0.57193 0.0
S1671 S 0.75718 0.70198 0.56667 0.0
N1672 N 0.74478 0.69254 0.59277 0.0
N1673 N 0.75641 0.68528 0.54974 0.0
C1674 C 0.74583 0.67096 0.56529 0.0
C1675 C 0.73945 0.67489 0.58856 0.0
C1676 C 0.34812 0.06766 0.59809 0.0
C1677 C 0.34011 0.07146 0.61911 0.0
C1678 C 0.35302 0.07815 0.57557 0.0
C1679 C 0.35033 0.09299 0.57341 0.0
H1680 H 0.34994 0.05605 0.59861 0.0
H1681 H 0.35832 0.07417 0.5594 0.0
S1682 S 0.33256 0.11026 0.62478 0.0
N1683 N 0.3313 0.09203 0.63742 0.0
N1684 N 0.34114 0.11216 0.59553 0.0
C1685 C 0.3433 0.09752 0.59494 0.0
C1686 C 0.33804 0.08667 0.61767 0.0
C1687 C 0.93159 0.2855 0.58772 0.0
C1688 C 0.93443 0.2752 0.60613 0.0
C1689 C 0.92176 0.27759 0.56517 0.0
C1690 C 0.91426 0.25902 0.56017 0.0
H1691 H 0.93729 0.2999 0.59047 0.0
H1692 H 0.92038 0.28619 0.55125 0.0
S1693 S 0.91638 0.22572 0.60323 0.0
N1694 N 0.92815 0.24523 0.61845 0.0
N1695 N 0.90932 0.23029 0.57629 0.0
C1696 C 0.91658 0.24845 0.57871 0.0
C1697 C 0.92673 0.25654 0.60163 0.0
C1698 C 0.33917 0.25382 0.60456 0.0
C1699 C 0.34229 0.27135 0.60906 0.0
C1700 C 0.34418 0.2493 0.58115 0.0
C1701 C 0.35232 0.26206 0.56118 0.0
H1702 H 0.33279 0.24348 0.61926 0.0
H1703 H 0.34161 0.23566 0.57867 0.0
S1704 S 0.36246 0.30956 0.5627 0.0
N1705 N 0.35373 0.30146 0.59144 0.0
N1706 N 0.36261 0.29281 0.54715 0.0
C1707 C 0.35549 0.27965 0.56542 0.0
C1708 C 0.35061 0.28432 0.58941 0.0
C1709 C 0.71435 0.07244 0.58995 0.0
C1710 C 0.72492 0.06864 0.60667 0.0
C1711 C 0.72157 0.08181 0.5668 0.0
C1712 C 0.73962 0.08773 0.55945 0.0
H1713 H 0.70027 0.0679 0.59452 0.0
H1714 H 0.71279 0.08403 0.55425 0.0
S1715 S 0.7735 0.08262 0.59718 0.0
N1716 N 0.75474 0.07243 0.61479 0.0
N1717 N 0.76828 0.0902 0.57134 0.0
C1718 C 0.7505 0.08447 0.57624 0.0
C1719 C 0.74316 0.07491 0.59983 0.0
C1720 C 0.93394 0.65451 0.59968 0.0
C1721 C 0.92952 0.66238 0.62019 0.0
C1722 C 0.92346 0.64887 0.57718 0.0
C1723 C 0.90801 0.65064 0.57452 0.0
H1724 H 0.94601 0.65339 0.60057 0.0
H1725 H 0.92793 0.64375 0.56138 0.0
S1726 S 0.88908 0.66766 0.62456 0.0
N1727 N 0.9078 0.67008 0.63756 0.0
N1728 N 0.88765 0.6588 0.59572 0.0
C1729 C 0.90287 0.65751 0.59558 0.0
C1730 C 0.91373 0.66354 0.61829 0.0
C1731 C 0.9493 0.69563 0.76457 0.0
C1732 C 0.94399 0.67809 0.75593 0.0
C1733 C 0.94254 0.69844 0.78776 0.0
C1734 C 0.93036 0.68382 0.80338 0.0
H1735 H 0.95872 0.70732 0.7533 0.0
H1736 H 0.94691 0.7122 0.7935 0.0
S1737 S 0.91305 0.63523 0.79009 0.0
N1738 N 0.9261 0.64588 0.76499 0.0
N1739 N 0.91385 0.65116 0.80896 0.0
C1740 C 0.92499 0.6662 0.79498 0.0
C1741 C 0.9317 0.66333 0.77119 0.0
C1742 C 0.33959 0.25979 0.75321 0.0
C1743 C 0.33001 0.26897 0.74973 0.0
C1744 C 0.33733 0.24978 0.77567 0.0
C1745 C 0.32558 0.24877 0.79565 0.0
H1746 H 0.34876 0.26016 0.73833 0.0
H1747 H 0.34478 0.24271 0.77733 0.0
S1748 S 0.29866 0.27181 0.79686 0.0
N1749 N 0.30891 0.27704 0.76846 0.0
N1750 N 0.3052 0.2589 0.81106 0.0
C1751 C 0.31619 0.2582 0.79255 0.0
C1752 C 0.31828 0.26814 0.76952 0.0
C1753 C 0.73504 0.05982 0.7598 0.0
C1754 C 0.73292 0.07195 0.74403 0.0
C1755 C 0.74483 0.06554 0.78289 0.0
C1756 C 0.7529 0.0836 0.79117 0.0
H1757 H 0.72883 0.04569 0.75456 0.0
H1758 H 0.74573 0.05562 0.79466 0.0
S1759 S 0.75287 0.12117 0.75617 0.0
N1760 N 0.74072 0.10324 0.73786 0.0
N1761 N 0.75919 0.11386 0.78118 0.0
C1762 C 0.75133 0.09599 0.77538 0.0
C1763 C 0.74136 0.09021 0.75184 0.0
C1764 C 0.04148 0.33477 0.03692 0.0
C1765 C 0.04431 0.35205 0.04234 0.0
C1766 C 0.0534 0.32939 0.04612 0.0
C1767 C 0.06834 0.34088 0.06177 0.0
H1768 H 0.02972 0.32518 0.02594 0.0
H1769 H 0.05049 0.31583 0.04167 0.0
S1770 S 0.08165 0.38774 0.08116 0.0
N1771 N 0.06345 0.381 0.06312 0.0
N1772 N 0.08535 0.37064 0.08177 0.0
C1773 C 0.07164 0.35849 0.06655 0.0
C1774 C 0.05971 0.36411 0.05657 0.0
C1775 C 0.65825 0.69986 0.05712 0.0
C1776 C 0.6402 0.69194 0.0484 0.0
C1777 C 0.66683 0.71666 0.06957 0.0
C1778 C 0.65777 0.7263 0.07377 0.0
H1779 H 0.66582 0.69294 0.05467 0.0
H1780 H 0.68058 0.72195 0.07646 0.0
S1781 S 0.61091 0.71235 0.05315 0.0
N1782 N 0.61381 0.69554 0.04392 0.0
N1783 N 0.63012 0.72726 0.06709 0.0
C1784 C 0.63986 0.71878 0.06476 0.0
C1785 C 0.63105 0.7016 0.05212 0.0
C1786 C 0.30425 0.95604 0.05665 0.0
C1787 C 0.30836 0.94636 0.03855 0.0
C1788 C 0.28749 0.94792 0.06955 0.0
C1789 C 0.27408 0.92984 0.06471 0.0
H1790 H 0.31421 0.96992 0.06137 0.0
H1791 H 0.28521 0.95577 0.08394 0.0
S1792 S 0.2773 0.89914 0.01717 0.0
N1793 N 0.29722 0.91801 0.0153 0.0
N1794 N 0.2655 0.90288 0.03917 0.0
C1795 C 0.27777 0.92015 0.04609 0.0
C1796 C 0.29495 0.92837 0.03311 0.0
C1797 C 0.33448 0.03041 0.96887 0.0
C1798 C 0.34831 0.03618 0.9874 0.0
C1799 C 0.32907 0.04209 0.95921 0.0
C1800 C 0.33707 0.06008 0.96779 0.0
H1801 H 0.32795 0.01679 0.96118 0.0
H1802 H 0.31879 0.03703 0.94432 0.0
S1803 S 0.37304 0.08173 0.0174 0.0
N1804 N 0.36952 0.061 0.01476 0.0
N1805 N 0.35898 0.08296 0.99689 0.0
C1806 C 0.35068 0.06603 0.98673 0.0
C1807 C 0.35634 0.05408 0.99651 0.0
C1808 C 0.93491 0.2956 0.99468 0.0
C1809 C 0.95275 0.30947 0.98899 0.0
C1810 C 0.92689 0.27909 0.98129 0.0
C1811 C 0.93633 0.27593 0.9615 0.0
H1812 H 0.92713 0.29744 0.00974 0.0
H1813 H 0.91319 0.26872 0.98652 0.0
S1814 S 0.98282 0.30862 0.93765 0.0
N1815 N 0.97936 0.31927 0.96159 0.0
N1816 N 0.96411 0.28863 0.93581 0.0
C1817 C 0.95409 0.28985 0.95539 0.0
C1818 C 0.96234 0.30651 0.96927 0.0
C1819 C 0.70142 0.64845 0.9813 0.0
C1820 C 0.69366 0.65953 0.98064 0.0
C1821 C 0.71855 0.65409 0.97018 0.0
C1822 C 0.72863 0.6711 0.95824 0.0
H1823 H 0.69407 0.63514 0.98999 0.0
H1824 H 0.72389 0.64503 0.97076 0.0
S1825 S 0.71458 0.70532 0.95144 0.0
N1826 N 0.69765 0.68852 0.96731 0.0
N1827 N 0.72957 0.69891 0.94624 0.0
C1828 C 0.72116 0.68241 0.95781 0.0
C1829 C 0.70376 0.67669 0.96904 0.0
C1830 C 0.93178 0.63715 0.99559 0.0
C1831 C 0.95086 0.64562 0.99727 0.0
C1832 C 0.92347 0.64556 0.98316 0.0
C1833 C 0.93387 0.66282 0.97206 0.0
H1834 H 0.92315 0.62371 0.00334 0.0
H1835 H 0.90877 0.63838 0.9819 0.0
S1836 S 0.98425 0.69114 0.97165 0.0
N1837 N 0.97989 0.67268 0.9874 0.0
N1838 N 0.96423 0.68821 0.96374 0.0
C1839 C 0.95291 0.67167 0.97419 0.0
C1840 C 0.9614 0.66315 0.98685 0.0
C1841 C 0.35977 0.30313 0.98473 0.0
C1842 C 0.35115 0.31274 0.97756 0.0
C1843 C 0.35413 0.28587 0.97467 0.0
C1844 C 0.33961 0.27757 0.95718 0.0
H1845 H 0.37109 0.30903 -0.00199 0.0
H1846 H 0.36125 0.27901 0.98048 0.0
S1847 S 0.31287 0.29715 0.93143 0.0
N1848 N 0.32741 0.31262 0.95153 0.0
N1849 N 0.3171 0.28042 0.93249 0.0
C1850 C 0.33082 0.28697 0.94996 0.0
C1851 C 0.33651 0.30448 0.96017 0.0
C1852 C 0.70411 0.04653 0.9898 0.0
C1853 C 0.69128 0.05212 0.9873 0.0
C1854 C 0.72084 0.05548 0.97677 0.0
C1855 C 0.72535 0.07028 0.96051 0.0
H1856 H 0.70117 0.03505 0.00181 0.0
H1857 H 0.73025 0.05064 0.97923 0.0
S1858 S 0.69624 0.08987 0.94665 0.0
N1859 N 0.6842 0.07338 0.96729 0.0
N1860 N 0.71541 0.08987 0.94219 0.0
C1861 C 0.71272 0.07613 0.95802 0.0
C1862 C 0.69575 0.06713 0.97155 0.0
C1863 C 0.67606 0.97085 0.0591 0.0
C1864 C 0.66001 0.96341 0.04445 0.0
C1865 C 0.68261 0.96004 0.06873 0.0
C1866 C 0.67339 0.9413 0.06419 0.0
H1867 H 0.6835 0.98514 0.06371 0.0
H1868 H 0.69465 0.96634 0.08067 0.0
S1869 S 0.63166 0.91523 0.02517 0.0
N1870 N 0.63563 0.93618 0.02454 0.0
N1871 N 0.64807 0.91587 0.04267 0.0
C1872 C 0.65768 0.93372 0.04885 0.0
C1873 C 0.65099 0.94476 0.03894 0.0
C1874 C 0.0534 0.69267 0.06038 0.0
C1875 C 0.04514 0.68997 0.03616 0.0
C1876 C 0.06492 0.71011 0.06989 0.0
C1877 C 0.06816 0.72542 0.05577 0.0
H1878 H 0.05033 0.68119 0.0725 0.0
H1879 H 0.07034 0.7116 0.08917 0.0
S1880 S 0.05045 0.72552 0.99074 0.0
N1881 N 0.04175 0.70386 -0.00246 0.0
N1882 N 0.06302 0.73681 0.0158 0.0
C1883 C 0.06058 0.72291 0.03104 0.0
C1884 C 0.04915 0.7051 0.02112 0.0
C1885 C 0.30665 0.372 0.04645 0.0
C1886 C 0.31699 0.36343 0.04469 0.0
C1887 C 0.29002 0.36399 0.05975 0.0
C1888 C 0.28305 0.34709 0.07184 0.0
H1889 H 0.31147 0.38508 0.0376 0.0
H1890 H 0.2826 0.37114 0.06072 0.0
S1891 S 0.30486 0.31915 0.07372 0.0
N1892 N 0.31895 0.33702 0.05646 0.0
N1893 N 0.28784 0.32217 0.08174 0.0
C1894 C 0.2931 0.33827 0.0701 0.0
C1895 C 0.31003 0.34639 0.05649 0.0
C1896 C 0.72277 0.6881 0.37631 0.0
C1897 C 0.70418 0.67952 0.38301 0.0
C1898 C 0.73386 0.68156 0.38527 0.0
C1899 C 0.72669 0.66608 0.40094 0.0
H1900 H 0.72883 0.70001 0.36415 0.0
H1901 H 0.74812 0.6886 0.37986 0.0
S1902 S 0.6793 0.63917 0.42526 0.0
N1903 N 0.67937 0.65497 0.40715 0.0
N1904 N 0.70023 0.64285 0.42382 0.0
C1905 C 0.70823 0.65746 0.40792 0.0
C1906 C 0.69698 0.66412 0.39899 0.0
C1907 C 0.32319 0.03349 0.39219 0.0
C1908 C 0.30627 0.02709 0.38011 0.0
C1909 C 0.33197 0.05027 0.40476 0.0
C1910 C 0.32425 0.06136 0.40564 0.0
H1911 H 0.3295 0.02527 0.39258 0.0
H1912 H 0.34465 0.05432 0.41456 0.0
S1913 S 0.28132 0.05197 0.37448 0.0
N1914 N 0.28282 0.03389 0.3682 0.0
N1915 N 0.29954 0.06553 0.39151 0.0
C1916 C 0.30772 0.05549 0.3928 0.0
C1917 C 0.2987 0.03835 0.38012 0.0
C1918 C 0.97368 0.29291 0.38597 0.0
C1919 C 0.97809 0.28397 0.36701 0.0
C1920 C 0.95663 0.28432 0.39813 0.0
C1921 C 0.94324 0.26653 0.39159 0.0
H1922 H 0.98366 0.30647 0.39204 0.0
H1923 H 0.95413 0.2915 0.41335 0.0
S1924 S 0.94716 0.23811 0.34077 0.0
N1925 N 0.96723 0.25687 0.34082 0.0
N1926 N 0.93497 0.24091 0.36319 0.0
C1927 C 0.94721 0.25773 0.37188 0.0
C1928 C 0.96466 0.2664 0.35971 0.0
C1929 C 0.02592 0.39091 0.32712 0.0
C1930 C 0.01894 0.37373 0.3157 0.0
C1931 C 0.02066 0.40309 0.31843 0.0
C1932 C 0.00821 0.39844 0.29811 0.0
H1933 H 0.03547 0.39496 0.3429 0.0
H1934 H 0.0263 0.41617 0.32769 0.0
S1935 S 0.98736 0.35595 0.26 0.0
N1936 N -0.00031 0.35324 0.28192 0.0
N1937 N 0.99012 0.37612 0.26558 0.0
C1938 C 0.00143 0.38148 0.28625 0.0
C1939 C 0.0067 0.36913 0.29506 0.0
C1940 C 0.60225 0.63173 0.31542 0.0
C1941 C 0.62123 0.64331 0.31677 0.0
C1942 C 0.59463 0.61494 0.3029 0.0
C1943 C 0.60566 0.60908 0.29117 0.0
H1944 H 0.59316 0.63567 0.32398 0.0
H1945 H 0.57995 0.60654 0.30223 0.0
S1946 S 0.65611 0.63442 0.28852 0.0
N1947 N 0.6509 0.64764 0.3051 0.0
N1948 N 0.63651 0.61631 0.2812 0.0
C1949 C 0.62464 0.62042 0.29254 0.0
C1950 C 0.63243 0.63747 0.30539 0.0
C1951 C 0.35715 0.96802 0.32378 0.0
C1952 C 0.35178 0.98056 0.31749 0.0
C1953 C 0.37215 0.96853 0.31169 0.0
C1954 C 0.38245 0.98168 0.29297 0.0
H1955 H 0.34936 0.95729 0.3375 0.0
H1956 H 0.37543 0.95825 0.31654 0.0
S1957 S 0.37488 0.01835 0.27067 0.0
N1958 N 0.35869 0.00722 0.29229 0.0
N1959 N 0.38671 0.00799 0.26943 0.0
C1960 C 0.37776 0.99481 0.28733 0.0
C1961 C 0.36247 0.99429 0.29961 0.0
C1962 C 0.59937 0.95861 0.32651 0.0
C1963 C 0.6178 0.96563 0.32006 0.0
C1964 C 0.58921 0.9655 0.31525 0.0
C1965 C 0.59706 0.97954 0.29695 0.0
H1966 H 0.59276 0.94778 0.34046 0.0
H1967 H 0.57511 0.95977 0.32093 0.0
S1968 S 0.64441 0.00147 0.27179 0.0
N1969 N 0.64328 0.98691 0.29346 0.0
N1970 N 0.6241 -0.0006 0.27173 0.0
C1971 C 0.61542 0.98649 0.2901 0.0
C1972 C 0.62581 0.97965 0.30179 0.0
C1973 C 0.00935 0.63616 0.31517 0.0
C1974 C 0.02619 0.65226 0.31743 0.0
C1975 C 0.00813 0.6206 0.30423 0.0
C1976 C 0.02367 0.62069 0.29462 0.0
H1977 H 0.99699 0.63562 0.32171 0.0
H1978 H 0.99485 0.60851 0.30287 0.0
S1979 S 0.07092 0.65999 0.29494 0.0
N1980 N 0.05871 0.6675 0.3093 0.0
N1981 N 0.05641 0.63871 0.28749 0.0
C1982 C 0.04063 0.63678 0.29699 0.0
C1983 C 0.04189 0.65245 0.30867 0.0
C1984 C 0.37211 0.38009 0.30557 0.0
C1985 C 0.36457 0.39032 0.31493 0.0
C1986 C 0.38878 0.38826 0.29243 0.0
C1987 C 0.39867 0.40701 0.28809 0.0
H1988 H 0.365 0.36555 0.30807 0.0
H1989 H 0.39377 0.37972 0.28511 0.0
S1990 S 0.38578 0.4402 0.30999 0.0
N1991 N 0.36883 0.42048 0.31977 0.0
N1992 N 0.4003 0.43579 0.29521 0.0
C1993 C 0.39155 0.41751 0.2977 0.0
C1994 C 0.37451 0.40919 0.3111 0.0
C1995 C 0.3219 0.28479 0.37215 0.0
C1996 C 0.33241 0.30368 0.37533 0.0
C1997 C 0.32768 0.27333 0.38206 0.0
C1998 C 0.34425 0.28032 0.39534 0.0
H1999 H 0.30888 0.27874 0.36254 0.0
H2000 H 0.31897 0.25886 0.37967 0.0
S2001 S 0.37708 0.32881 0.40832 0.0
N2002 N 0.36056 0.32886 0.39204 0.0
N2003 N 0.37114 0.30736 0.41097 0.0
C2004 C 0.3551 0.2992 0.39804 0.0
C2005 C 0.34925 0.31085 0.38798 0.0
C2006 C 0.70548 0.03565 0.36611 0.0
C2007 C 0.70982 0.02217 0.37061 0.0
C2008 C 0.71609 0.05304 0.37641 0.0
C2009 C 0.73113 0.05747 0.39231 0.0
H2010 H 0.69358 0.03263 0.35493 0.0
H2011 H 0.7121 0.06294 0.37254 0.0
S2012 S 0.74795 0.02657 0.40986 0.0
N2013 N 0.73038 0.01431 0.39095 0.0
N2014 N 0.74977 0.04663 0.41176 0.0
C2015 C 0.73587 0.04413 0.39632 0.0
C2016 C 0.72532 0.02655 0.38517 0.0
C2017 C 0.96803 0.67665 0.38896 0.0
C2018 C 0.97405 0.69362 0.37744 0.0
C2019 C 0.95138 0.66753 0.40219 0.0
C2020 C 0.94008 0.67499 0.40434 0.0
H2021 H 0.97646 0.67056 0.38843 0.0
H2022 H 0.94762 0.65483 0.41154 0.0
S2023 S 0.94834 0.71787 0.37502 0.0
N2024 N 0.96655 0.71677 0.36733 0.0
N2025 N 0.9352 0.69946 0.39196 0.0
C2026 C 0.94552 0.69153 0.39201 0.0
C2027 C 0.9625 0.70087 0.37862 0.0
C2028 C 0.39059 0.02395 0.70494 0.0
C2029 C 0.37211 0.01489 0.71229 0.0
C2030 C 0.40246 0.01842 0.71414 0.0
C2031 C 0.39625 0.00357 0.73093 0.0
H2032 H 0.39599 0.03552 0.69216 0.0
H2033 H 0.41659 0.02585 0.70816 0.0
S2034 S 0.34933 0.97562 0.75683 0.0
N2035 N 0.3483 0.99037 0.73768 0.0
N2036 N 0.3706 0.98032 0.75528 0.0
C2037 C 0.37783 0.99439 0.73839 0.0
C2038 C 0.36577 -5e-05 0.729 0.0
C2039 C 0.962 0.36471 0.71389 0.0
C2040 C 0.97235 0.35639 0.70931 0.0
C2041 C 0.96892 0.38065 0.72837 0.0
C2042 C 0.98651 0.38897 0.7388 0.0
H2043 H 0.94824 0.35871 0.70669 0.0
H2044 H 0.96032 0.38637 0.73175 0.0
S2045 S 0.01952 0.37318 0.732 0.0
N2046 N 0.00149 0.35818 0.71584 0.0
N2047 N 0.01433 0.38802 0.74329 0.0
C2048 C 0.99726 0.38117 0.73381 0.0
C2049 C 0.99022 0.36491 0.71904 0.0
C2050 C 0.64499 0.62779 0.72582 0.0
C2051 C 0.65 0.61868 0.70803 0.0
C2052 C 0.62783 0.61909 0.73761 0.0
C2053 C 0.61484 0.60101 0.73174 0.0
H2054 H 0.65456 0.64167 0.73113 0.0
H2055 H 0.62487 0.62653 0.75184 0.0
S2056 S 0.62065 0.57176 0.68435 0.0
N2057 N 0.64039 0.59089 0.68404 0.0
N2058 N 0.6078 0.57471 0.70546 0.0
C2059 C 0.61951 0.59188 0.71341 0.0
C2060 C 0.63715 0.60068 0.70172 0.0
C2061 C 0.69695 0.72329 0.63963 0.0
C2062 C 0.68556 0.70785 0.65432 0.0
C2063 C 0.69041 0.73392 0.62912 0.0
C2064 C 0.67233 0.7297 0.63336 0.0
H2065 H 0.71074 0.72666 0.6351 0.0
H2066 H 0.69939 0.74504 0.61664 0.0
S2067 S 0.63814 0.69239 0.67446 0.0
N2068 N 0.65603 0.68981 0.67482 0.0
N2069 N 0.64397 0.71031 0.65631 0.0
C2070 C 0.66122 0.71496 0.64956 0.0
C2071 C 0.66778 0.70391 0.65974 0.0
C2072 C 0.26657 0.96817 0.64927 0.0
C2073 C 0.28567 0.979 0.64992 0.0
C2074 C 0.25798 0.95105 0.63757 0.0
C2075 C 0.26814 0.9441 0.62604 0.0
H2076 H 0.25815 0.9729 0.65792 0.0
H2077 H 0.24326 0.94319 0.63754 0.0
S2078 S 0.31846 0.96737 0.62113 0.0
N2079 N 0.31446 0.98161 0.6373 0.0
N2080 N 0.29828 0.94966 0.61499 0.0
C2081 C 0.28722 0.95479 0.62643 0.0
C2082 C 0.29598 0.97217 0.63842 0.0
C2083 C 0.03251 0.30887 0.65643 0.0
C2084 C 0.02358 0.31737 0.64597 0.0
C2085 C 0.04867 0.31128 0.64545 0.0
C2086 C 0.05648 0.32222 0.62352 0.0
H2087 H 0.02678 0.29993 0.67287 0.0
H2088 H 0.05484 0.30415 0.65381 0.0
S2089 S 0.03866 0.34778 0.58896 0.0
N2090 N 0.02416 0.33773 0.61291 0.0
N2091 N 0.05413 0.34179 0.59191 0.0
C2092 C 0.04799 0.33125 0.61335 0.0
C2093 C 0.03165 0.32893 0.62465 0.0
C2094 C 0.292 0.32195 0.65495 0.0
C2095 C 0.2859 0.30364 0.64974 0.0
C2096 C 0.28322 0.33052 0.64449 0.0
C2097 C 0.2681 0.32116 0.62822 0.0
H2098 H 0.30368 0.32977 0.6672 0.0
H2099 H 0.28841 0.34463 0.64903 0.0
S2100 S 0.24735 0.27325 0.60748 0.0
N2101 N 0.26396 0.27648 0.62695 0.0
N2102 N 0.24782 0.2927 0.60664 0.0
C2103 C 0.26184 0.30282 0.62289 0.0
C2104 C 0.27065 0.29404 0.63379 0.0
C2105 C 0.67586 0.97151 0.63327 0.0
C2106 C 0.68863 0.98099 0.6528 0.0
C2107 C 0.67366 0.95541 0.623 0.0
C2108 C 0.68411 0.9481 0.63189 0.0
H2109 H 0.66791 0.97687 0.6251 0.0
H2110 H 0.66431 0.94912 0.60713 0.0
S2111 S 0.71754 0.96617 0.68517 0.0
N2112 N 0.71062 0.98089 0.68235 0.0
N2113 N 0.7063 0.95048 0.66316 0.0
C2114 C 0.69619 0.95686 0.65238 0.0
C2115 C 0.69848 0.97332 0.66282 0.0
C2116 C 0.03273 0.7374 0.64614 0.0
C2117 C 0.02274 0.71842 0.64855 0.0
C2118 C 0.04971 0.74624 0.63367 0.0
C2119 C 0.05738 0.73647 0.62311 0.0
H2120 H 0.02742 0.74553 0.65396 0.0
H2121 H 0.05691 0.76086 0.63229 0.0
S2122 S 0.03641 0.68655 0.62279 0.0
N2123 N 0.02167 0.69014 0.63857 0.0
N2124 N 0.05336 0.70677 0.61484 0.0
C2125 C 0.04753 0.71752 0.62525 0.0
C2126 C 0.03029 0.7085 0.63802 0.0
C2127 C 0.97361 0.61149 0.7021 0.0
C2128 C 0.98179 0.62866 0.71379 0.0
C2129 C 0.97527 0.59741 0.71277 0.0
C2130 C 0.98507 0.59991 0.73565 0.0
H2131 H 0.96553 0.60877 0.68484 0.0
H2132 H 0.96845 0.58432 0.70337 0.0
S2133 S 0.00908 0.64234 0.77384 0.0
N2134 N 0.00045 0.64751 0.74919 0.0
N2135 N 0.00306 0.62095 0.76965 0.0
C2136 C 0.9937 0.61717 0.74717 0.0
C2137 C 0.99218 0.63155 0.73615 0.0
C2138 C 0.39166 0.36267 0.71723 0.0
C2139 C 0.37593 0.35821 0.70314 0.0
C2140 C 0.4024 0.38001 0.72774 0.0
C2141 C 0.39796 0.39359 0.72412 0.0
H2142 H 0.39517 0.35244 0.7213 0.0
H2143 H 0.41376 0.3825 0.73979 0.0
S2144 S 0.35993 0.38943 0.68451 0.0
N2145 N 0.35745 0.36906 0.68368 0.0
N2146 N 0.37811 0.40192 0.70225 0.0
C2147 C 0.38296 0.38957 0.70842 0.0
C2148 C 0.37183 0.37182 0.69823 0.0
C2149 C 0.6319 0.03405 0.71202 0.0
C2150 C 0.64217 0.02559 0.7078 0.0
C2151 C 0.61545 0.02536 0.72575 0.0
C2152 C 0.60857 0.00786 0.73574 0.0
H2153 H 0.63675 0.04766 0.70516 0.0
H2154 H 0.6082 0.03253 0.72895 0.0
S2155 S 0.6297 0.97944 0.72953 0.0
N2156 N 0.64376 0.99829 0.71409 0.0
N2157 N 0.61299 0.98219 0.74019 0.0
C2158 C 0.61835 -0.001 0.73106 0.0
C2159 C 0.6351 0.00781 0.71705 0.0
loop_
_geom_bond_atom_site_label_1
_geom_bond_atom_site_label_2
_geom_bond_distance
_geom_bond_site_symmetry_2
_ccdc_geom_bond_type
C0 O1 1.306 1_556 S
C0 O3 1.160 . S
O1 C0 1.306 1_554 S
O1 Cd2 2.228 . S
Cd2 O1 2.228 . S
Cd2 O6 2.273 . S
Cd2 O10 2.277 1_554 S
O3 C0 1.160 . S
O3 Cd4 2.203 1_656 S
Cd4 O3 2.203 1_454 S
Cd4 O6 2.411 1_455 S
Cd4 O7 2.333 . S
Cd4 O8 2.352 . S
Cd4 O12 2.277 1_554 S
Cd4 O13 2.356 . S
C5 O10 1.209 1_455 S
C5 O12 1.226 . S
O6 Cd2 2.273 . S
O6 Cd4 2.411 1_655 S
O6 C9 1.320 1_655 S
O7 Cd4 2.333 . S
O7 C9 1.214 . S
O8 Cd4 2.352 . S
O8 C11 1.258 . S
C9 O6 1.320 1_455 S
C9 O7 1.214 . S
O10 Cd2 2.277 1_556 S
O10 C5 1.209 1_655 S
C11 O8 1.258 . S
C11 O13 1.282 . S
O12 Cd4 2.277 1_556 S
O12 C5 1.226 . S
O13 Cd4 2.356 . S
O13 C11 1.282 . S
C14 O15 1.306 . S
C14 O17 1.160 . S
O15 C14 1.306 . S
O15 Cd16 2.228 . S
Cd16 O15 2.228 . S
Cd16 O20 2.273 1_554 S
Cd16 O24 2.277 . S
O17 C14 1.160 . S
O17 Cd18 2.203 . S
Cd18 O17 2.203 . S
Cd18 O20 2.411 1_554 S
Cd18 O21 2.333 1_554 S
Cd18 O22 2.352 1_554 S
Cd18 O26 2.277 . S
Cd18 O27 2.356 . S
C19 O24 1.209 . S
C19 O26 1.226 . S
O20 Cd16 2.273 1_556 S
O20 Cd18 2.411 1_556 S
O20 C23 1.320 . S
O21 Cd18 2.333 1_556 S
O21 C23 1.214 . S
O22 Cd18 2.352 1_556 S
O22 C25 1.258 . S
C23 O20 1.320 . S
C23 O21 1.214 . S
O24 Cd16 2.277 . S
O24 C19 1.209 . S
C25 O22 1.258 . S
C25 O27 1.282 1_556 S
O26 Cd18 2.277 . S
O26 C19 1.226 . S
O27 Cd18 2.356 . S
O27 C25 1.282 1_554 S
C28 O29 1.306 . S
C28 O31 1.160 . S
O29 C28 1.306 . S
O29 Cd30 2.228 . S
Cd30 O29 2.228 . S
Cd30 O34 2.273 1_554 S
Cd30 O38 2.277 . S
O31 C28 1.160 . S
O31 Cd32 2.203 1_565 S
Cd32 O31 2.203 1_545 S
Cd32 O34 2.411 1_544 S
Cd32 O35 2.333 1_554 S
Cd32 O36 2.352 1_554 S
Cd32 O40 2.277 . S
Cd32 O41 2.356 . S
C33 O38 1.209 1_545 S
C33 O40 1.226 . S
O34 Cd30 2.273 1_556 S
O34 Cd32 2.411 1_566 S
O34 C37 1.320 1_565 S
O35 Cd32 2.333 1_556 S
O35 C37 1.214 . S
O36 Cd32 2.352 1_556 S
O36 C39 1.258 . S
C37 O34 1.320 1_545 S
C37 O35 1.214 . S
O38 Cd30 2.277 . S
O38 C33 1.209 1_565 S
C39 O36 1.258 . S
C39 O41 1.282 1_556 S
O40 Cd32 2.277 . S
O40 C33 1.226 . S
O41 Cd32 2.356 . S
O41 C39 1.282 1_554 S
C42 O43 1.306 1_556 S
C42 O45 1.160 . S
O43 C42 1.306 1_554 S
O43 Cd44 2.228 . S
Cd44 O43 2.228 . S
Cd44 O48 2.273 . S
Cd44 O52 2.277 1_554 S
O45 C42 1.160 . S
O45 Cd46 2.203 1_656 S
Cd46 O45 2.203 1_454 S
Cd46 O48 2.411 1_455 S
Cd46 O49 2.333 . S
Cd46 O50 2.352 . S
Cd46 O54 2.277 1_554 S
Cd46 O55 2.356 . S
C47 O52 1.209 1_455 S
C47 O54 1.226 . S
O48 Cd44 2.273 . S
O48 Cd46 2.411 1_655 S
O48 C51 1.320 1_655 S
O49 Cd46 2.333 . S
O49 C51 1.214 . S
O50 Cd46 2.352 . S
O50 C53 1.258 . S
C51 O48 1.320 1_455 S
C51 O49 1.214 . S
O52 Cd44 2.277 1_556 S
O52 C47 1.209 1_655 S
C53 O50 1.258 . S
C53 O55 1.282 . S
O54 Cd46 2.277 1_556 S
O54 C47 1.226 . S
O55 Cd46 2.356 . S
O55 C53 1.282 . S
C56 O57 1.306 . S
C56 O59 1.160 . S
O57 C56 1.306 . S
O57 Cd58 2.228 . S
Cd58 O57 2.228 . S
Cd58 O62 2.273 1_554 S
Cd58 O66 2.277 . S
O59 C56 1.160 . S
O59 Cd60 2.203 . S
Cd60 O59 2.203 . S
Cd60 O62 2.411 1_554 S
Cd60 O63 2.333 1_554 S
Cd60 O64 2.352 1_554 S
Cd60 O68 2.277 . S
Cd60 O69 2.356 . S
C61 O66 1.209 . S
C61 O68 1.226 . S
O62 Cd58 2.273 1_556 S
O62 Cd60 2.411 1_556 S
O62 C65 1.320 . S
O63 Cd60 2.333 1_556 S
O63 C65 1.214 . S
O64 Cd60 2.352 1_556 S
O64 C67 1.258 . S
C65 O62 1.320 . S
C65 O63 1.214 . S
O66 Cd58 2.277 . S
O66 C61 1.209 . S
C67 O64 1.258 . S
C67 O69 1.282 1_556 S
O68 Cd60 2.277 . S
O68 C61 1.226 . S
O69 Cd60 2.356 . S
O69 C67 1.282 1_554 S
C70 O71 1.306 1_556 S
C70 O73 1.160 . S
O71 C70 1.306 1_554 S
O71 Cd72 2.228 . S
Cd72 O71 2.228 . S
Cd72 O76 2.273 . S
Cd72 O80 2.277 1_554 S
O73 C70 1.160 . S
O73 Cd74 2.203 1_546 S
Cd74 O73 2.203 1_564 S
Cd74 O76 2.411 1_565 S
Cd74 O77 2.333 . S
Cd74 O78 2.352 . S
Cd74 O82 2.277 1_554 S
Cd74 O83 2.356 . S
C75 O80 1.192 1_565 S
C75 O82 1.250 . S
O76 Cd72 2.273 . S
O76 Cd74 2.411 1_545 S
O76 C79 1.332 . S
O77 Cd74 2.333 . S
O77 C79 1.189 1_565 S
O78 Cd74 2.352 . S
O78 C81 1.258 . S
C79 O76 1.332 . S
C79 O77 1.189 1_545 S
O80 Cd72 2.277 1_556 S
O80 C75 1.192 1_545 S
C81 O78 1.258 . S
C81 O83 1.282 . S
O82 Cd74 2.277 1_556 S
O82 C75 1.250 . S
O83 Cd74 2.356 . S
O83 C81 1.282 . S
C84 O85 1.306 . S
C84 O87 1.160 . S
O85 C84 1.306 . S
O85 Cd86 2.228 . S
Cd86 O85 2.228 . S
Cd86 O90 2.273 . S
Cd86 O94 2.277 . S
O87 C84 1.160 . S
O87 Cd88 2.203 . S
Cd88 O87 2.203 . S
Cd88 O90 2.411 . S
Cd88 O91 2.333 . S
Cd88 O92 2.352 . S
Cd88 O96 2.277 . S
Cd88 O97 2.356 . S
C89 O94 1.209 . S
C89 O96 1.226 . S
O90 Cd86 2.273 . S
O90 Cd88 2.411 . S
O90 C93 1.320 . S
O91 Cd88 2.333 . S
O91 C93 1.214 . S
O92 Cd88 2.352 . S
O92 C95 1.258 . S
C93 O90 1.320 . S
C93 O91 1.214 . S
O94 Cd86 2.277 . S
O94 C89 1.209 . S
C95 O92 1.258 . S
C95 O97 1.282 . S
O96 Cd88 2.277 . S
O96 C89 1.226 . S
O97 Cd88 2.356 . S
O97 C95 1.282 . S
C98 O99 1.304 . S
C98 O101 1.160 1_545 S
O99 C98 1.304 . S
O99 Cd100 2.219 1_545 S
Cd100 O99 2.219 1_565 S
Cd100 O104 2.273 . S
Cd100 O108 2.277 . S
O101 C98 1.160 1_565 S
O101 Cd102 2.203 . S
Cd102 O101 2.203 . S
Cd102 O104 2.411 . S
Cd102 O105 2.333 . S
Cd102 O106 2.352 . S
Cd102 O110 2.277 . S
Cd102 O111 2.356 . S
C103 O108 1.209 . S
C103 O110 1.226 . S
O104 Cd100 2.273 . S
O104 Cd102 2.411 . S
O104 C107 1.320 . S
O105 Cd102 2.333 . S
O105 C107 1.214 . S
O106 Cd102 2.352 . S
O106 C109 1.258 . S
C107 O104 1.320 . S
C107 O105 1.214 . S
O108 Cd100 2.277 . S
O108 C103 1.209 . S
C109 O106 1.258 . S
C109 O111 1.282 . S
O110 Cd102 2.277 . S
O110 C103 1.226 . S
O111 Cd102 2.356 . S
O111 C109 1.282 . S
C112 O113 1.287 1_655 S
C112 O115 1.160 1_655 S
O113 C112 1.287 1_455 S
O113 Cd114 2.228 . S
Cd114 O113 2.228 . S
Cd114 O118 2.273 . S
Cd114 O122 2.277 . S
O115 C112 1.160 1_455 S
O115 Cd116 2.203 . S
Cd116 O115 2.203 . S
Cd116 O118 2.411 . S
Cd116 O119 2.333 . S
Cd116 O120 2.352 . S
Cd116 O124 2.277 . S
Cd116 O125 2.356 . S
C117 O122 1.209 . S
C117 O124 1.226 . S
O118 Cd114 2.273 . S
O118 Cd116 2.411 . S
O118 C121 1.320 . S
O119 Cd116 2.333 . S
O119 C121 1.214 . S
O120 Cd116 2.352 . S
O120 C123 1.258 . S
C121 O118 1.320 . S
C121 O119 1.214 . S
O122 Cd114 2.277 . S
O122 C117 1.209 . S
C123 O120 1.258 . S
C123 O125 1.282 . S
O124 Cd116 2.277 . S
O124 C117 1.226 . S
O125 Cd116 2.356 . S
O125 C123 1.282 . S
C126 O127 1.306 . S
C126 O129 1.160 . S
O127 C126 1.306 . S
O127 Cd128 2.228 . S
Cd128 O127 2.228 . S
Cd128 O132 2.273 . S
Cd128 O136 2.277 . S
O129 C126 1.160 . S
O129 Cd130 2.203 . S
Cd130 O129 2.203 . S
Cd130 O132 2.411 . S
Cd130 O133 2.333 . S
Cd130 O134 2.296 1_565 S
Cd130 O138 2.277 . S
Cd130 O139 2.356 1_565 S
C131 O136 1.209 . S
C131 O138 1.226 . S
O132 Cd128 2.273 . S
O132 Cd130 2.411 . S
O132 C135 1.320 . S
O133 Cd130 2.333 . S
O133 C135 1.214 . S
O134 Cd130 2.296 1_545 S
O134 C137 1.263 . S
C135 O132 1.320 . S
C135 O133 1.214 . S
O136 Cd128 2.277 . S
O136 C131 1.209 . S
C137 O134 1.263 . S
C137 O139 1.282 . S
O138 Cd130 2.277 . S
O138 C131 1.226 . S
O139 Cd130 2.356 1_545 S
O139 C137 1.282 . S
C140 O141 1.306 1_655 S
C140 O143 1.160 1_655 S
O141 C140 1.306 1_455 S
O141 Cd142 2.228 . S
Cd142 O141 2.228 . S
Cd142 O146 2.273 . S
Cd142 O150 2.277 . S
O143 C140 1.160 1_455 S
O143 Cd144 2.203 . S
Cd144 O143 2.203 . S
Cd144 O146 2.411 . S
Cd144 O147 2.333 . S
Cd144 O148 2.352 . S
Cd144 O152 2.277 . S
Cd144 O153 2.356 . S
C145 O150 1.209 . S
C145 O152 1.226 . S
O146 Cd142 2.273 . S
O146 Cd144 2.411 . S
O146 C149 1.320 . S
O147 Cd144 2.333 . S
O147 C149 1.214 . S
O148 Cd144 2.352 . S
O148 C151 1.258 . S
C149 O146 1.320 . S
C149 O147 1.214 . S
O150 Cd142 2.277 . S
O150 C145 1.209 . S
C151 O148 1.258 . S
C151 O153 1.282 . S
O152 Cd144 2.277 . S
O152 C145 1.226 . S
O153 Cd144 2.356 . S
O153 C151 1.282 . S
C154 O155 1.306 . S
C154 O157 1.160 . S
O155 C154 1.306 . S
O155 Cd156 2.228 . S
Cd156 O155 2.228 . S
Cd156 O160 2.273 . S
Cd156 O164 2.277 . S
O157 C154 1.160 . S
O157 Cd158 2.203 . S
Cd158 O157 2.203 . S
Cd158 O160 2.411 . S
Cd158 O161 2.333 . S
Cd158 O162 2.352 . S
Cd158 O166 2.277 . S
Cd158 O167 2.356 . S
C159 O164 1.209 . S
C159 O166 1.226 . S
O160 Cd156 2.273 . S
O160 Cd158 2.411 . S
O160 C163 1.320 . S
O161 Cd158 2.333 . S
O161 C163 1.214 . S
O162 Cd158 2.352 . S
O162 C165 1.258 . S
C163 O160 1.320 . S
C163 O161 1.214 . S
O164 Cd156 2.277 . S
O164 C159 1.209 . S
C165 O162 1.258 . S
C165 O167 1.282 . S
O166 Cd158 2.277 . S
O166 C159 1.226 . S
O167 Cd158 2.356 . S
O167 C165 1.282 . S
C168 O169 1.306 1_565 S
C168 O171 1.160 1_565 S
O169 C168 1.306 1_545 S
O169 Cd170 2.228 . S
Cd170 O169 2.228 . S
Cd170 O174 2.273 . S
Cd170 O178 2.277 . S
O171 C168 1.160 1_545 S
O171 Cd172 2.203 . S
Cd172 O171 2.203 . S
Cd172 O174 2.411 . S
Cd172 O175 2.333 . S
Cd172 O176 2.352 . S
Cd172 O180 2.277 . S
Cd172 O181 2.356 . S
C173 O178 1.209 . S
C173 O180 1.226 . S
O174 Cd170 2.273 . S
O174 Cd172 2.411 . S
O174 C177 1.320 . S
O175 Cd172 2.333 . S
O175 C177 1.214 . S
O176 Cd172 2.352 . S
O176 C179 1.258 . S
C177 O174 1.320 . S
C177 O175 1.214 . S
O178 Cd170 2.277 . S
O178 C173 1.209 . S
C179 O176 1.258 . S
C179 O181 1.282 . S
O180 Cd172 2.277 . S
O180 C173 1.226 . S
O181 Cd172 2.356 . S
O181 C179 1.282 . S
C182 O183 1.306 . S
C182 O185 1.160 . S
O183 C182 1.306 . S
O183 Cd184 2.228 . S
Cd184 O183 2.228 . S
Cd184 O188 2.273 . S
Cd184 O192 2.277 . S
O185 C182 1.160 . S
O185 Cd186 2.203 . S
Cd186 O185 2.203 . S
Cd186 O188 2.411 . S
Cd186 O189 2.333 . S
Cd186 O190 2.352 1_655 S
Cd186 O194 2.277 . S
Cd186 O195 2.356 1_655 S
C187 O192 1.209 . S
C187 O194 1.226 . S
O188 Cd184 2.273 . S
O188 Cd186 2.411 . S
O188 C191 1.320 . S
O189 Cd186 2.333 . S
O189 C191 1.214 . S
O190 Cd186 2.352 1_455 S
O190 C193 1.258 . S
C191 O188 1.320 . S
C191 O189 1.214 . S
O192 Cd184 2.277 . S
O192 C187 1.209 . S
C193 O190 1.258 . S
C193 O195 1.282 . S
O194 Cd186 2.277 . S
O194 C187 1.226 . S
O195 Cd186 2.356 1_455 S
O195 C193 1.282 . S
C196 O197 1.306 . S
C196 O199 1.160 . S
O197 C196 1.306 . S
O197 Cd198 2.228 . S
Cd198 O197 2.228 . S
Cd198 O202 2.273 . S
Cd198 O206 2.277 . S
O199 C196 1.160 . S
O199 Cd200 2.203 . S
Cd200 O199 2.203 . S
Cd200 O202 2.411 . S
Cd200 O203 2.333 . S
Cd200 O204 2.352 . S
Cd200 O208 2.277 . S
Cd200 O209 2.356 . S
C201 O206 1.209 . S
C201 O208 1.226 . S
O202 Cd198 2.273 . S
O202 Cd200 2.411 . S
O202 C205 1.320 . S
O203 Cd200 2.333 . S
O203 C205 1.214 . S
O204 Cd200 2.352 . S
O204 C207 1.258 . S
C205 O202 1.320 . S
C205 O203 1.214 . S
O206 Cd198 2.277 . S
O206 C201 1.209 . S
C207 O204 1.258 . S
C207 O209 1.282 . S
O208 Cd200 2.277 . S
O208 C201 1.226 . S
O209 Cd200 2.356 . S
O209 C207 1.282 . S
C210 O211 1.306 . S
C210 O213 1.160 . S
O211 C210 1.306 . S
O211 Cd212 2.228 . S
Cd212 O211 2.228 . S
Cd212 O216 2.273 . S
Cd212 O220 2.277 . S
O213 C210 1.160 . S
O213 Cd214 2.203 . S
Cd214 O213 2.203 . S
Cd214 O216 2.411 . S
Cd214 O217 2.333 . S
Cd214 O218 2.352 . S
Cd214 O222 2.277 . S
Cd214 O223 2.356 . S
C215 O220 1.209 . S
C215 O222 1.226 . S
O216 Cd212 2.273 . S
O216 Cd214 2.411 . S
O216 C219 1.320 . S
O217 Cd214 2.333 . S
O217 C219 1.214 . S
O218 Cd214 2.352 . S
O218 C221 1.258 . S
C219 O216 1.320 . S
C219 O217 1.214 . S
O220 Cd212 2.277 . S
O220 C215 1.209 . S
C221 O218 1.258 . S
C221 O223 1.282 . S
O222 Cd214 2.277 . S
O222 C215 1.226 . S
O223 Cd214 2.356 . S
O223 C221 1.282 . S
C224 O225 1.306 . S
C224 O227 1.160 . S
O225 C224 1.306 . S
O225 Cd226 2.228 . S
Cd226 O225 2.228 . S
Cd226 O230 2.273 . S
Cd226 O234 2.277 . S
O227 C224 1.160 . S
O227 Cd228 2.203 . S
Cd228 O227 2.203 . S
Cd228 O230 2.411 . S
Cd228 O231 2.333 . S
Cd228 O232 2.352 . S
Cd228 O236 2.277 . S
Cd228 O237 2.356 1_545 S
C229 O234 1.209 . S
C229 O236 1.226 . S
O230 Cd226 2.273 . S
O230 Cd228 2.411 . S
O230 C233 1.320 . S
O231 Cd228 2.333 . S
O231 C233 1.214 . S
O232 Cd228 2.352 . S
O232 C235 1.258 1_545 S
C233 O230 1.320 . S
C233 O231 1.214 . S
O234 Cd226 2.277 . S
O234 C229 1.209 . S
C235 O232 1.258 1_565 S
C235 O237 1.282 . S
O236 Cd228 2.277 . S
O236 C229 1.226 . S
O237 Cd228 2.356 1_565 S
O237 C235 1.282 . S
C238 O239 1.325 . S
C238 O241 1.160 1_455 S
O239 C238 1.325 . S
O239 Cd240 2.202 1_455 S
Cd240 O239 2.202 1_655 S
Cd240 O244 2.273 . S
Cd240 O248 2.277 . S
O241 C238 1.160 1_655 S
O241 Cd242 2.203 . S
Cd242 O241 2.203 . S
Cd242 O244 2.411 . S
Cd242 O245 2.333 . S
Cd242 O246 2.352 . S
Cd242 O250 2.277 . S
Cd242 O251 2.356 . S
C243 O248 1.209 . S
C243 O250 1.226 . S
O244 Cd240 2.273 . S
O244 Cd242 2.411 . S
O244 C247 1.320 . S
O245 Cd242 2.333 . S
O245 C247 1.214 . S
O246 Cd242 2.352 . S
O246 C249 1.258 . S
C247 O244 1.320 . S
C247 O245 1.214 . S
O248 Cd240 2.277 . S
O248 C243 1.209 . S
C249 O246 1.258 . S
C249 O251 1.282 . S
O250 Cd242 2.277 . S
O250 C243 1.226 . S
O251 Cd242 2.356 . S
O251 C249 1.282 . S
H252 C279 0.929 . S
N253 C278 1.433 . S
N253 C284 1.435 . S
N253 C290 1.423 . S
H254 C280 0.930 . S
H255 C283 0.931 . S
H256 C282 0.929 . S
H257 C285 0.930 . S
H258 C286 0.932 . S
H259 C289 0.929 . S
H260 C288 0.931 . S
H261 C291 0.929 . S
H262 C295 0.932 . S
H263 C292 0.931 . S
H264 C294 0.929 . S
H265 C297 0.929 . S
H266 C298 0.930 . S
H267 C300 0.929 . S
H268 C301 0.931 . S
H269 C303 0.930 . S
H270 C304 0.932 . S
H271 C306 0.931 . S
H272 C307 0.929 . S
H273 C309 0.929 . S
H274 C310 0.931 . S
H275 C312 0.929 . S
N276 C296 1.433 . S
N276 C302 1.435 . S
N276 C308 1.423 . S
H277 C313 0.932 . S
C278 N253 1.433 . S
C278 C279 1.363 . S
C278 C283 1.370 . S
C279 H252 0.929 . S
C279 C278 1.363 . S
C279 C280 1.385 . S
C280 H254 0.930 . S
C280 C279 1.385 . S
C280 C281 1.357 . S
C281 C280 1.357 . S
C281 C282 1.406 . S
C282 H256 0.929 . S
C282 C281 1.406 . S
C282 C283 1.391 . S
C283 H255 0.931 . S
C283 C278 1.370 . S
C283 C282 1.391 . S
C284 N253 1.435 . S
C284 C285 1.358 . S
C284 C289 1.371 . S
C285 H257 0.930 . S
C285 C284 1.358 . S
C285 C286 1.405 . S
C286 H258 0.932 . S
C286 C285 1.405 . S
C286 C287 1.383 . S
C287 C286 1.383 . S
C287 C288 1.393 . S
C288 H260 0.931 . S
C288 C287 1.393 . S
C288 C289 1.382 . S
C289 H259 0.929 . S
C289 C284 1.371 . S
C289 C288 1.382 . S
C290 N253 1.423 . S
C290 C291 1.362 . S
C290 C295 1.388 . S
C291 H261 0.929 . S
C291 C290 1.362 . S
C291 C292 1.376 . S
C292 H263 0.931 . S
C292 C291 1.376 . S
C292 C293 1.396 . S
C293 C292 1.396 . S
C293 C294 1.348 . S
C293 C311 1.472 . S
C294 H264 0.929 . S
C294 C293 1.348 . S
C294 C295 1.443 . S
C295 H262 0.932 . S
C295 C290 1.388 . S
C295 C294 1.443 . S
C296 N276 1.433 . S
C296 C297 1.363 . S
C296 C301 1.370 . S
C297 H265 0.929 . S
C297 C296 1.363 . S
C297 C298 1.385 . S
C298 H266 0.930 . S
C298 C297 1.385 . S
C298 C299 1.357 . S
C299 C298 1.357 . S
C299 C300 1.406 . S
C300 H267 0.929 . S
C300 C299 1.406 . S
C300 C301 1.391 . S
C301 H268 0.931 . S
C301 C296 1.370 . S
C301 C300 1.391 . S
C302 N276 1.435 . S
C302 C303 1.358 . S
C302 C307 1.371 . S
C303 H269 0.930 . S
C303 C302 1.358 . S
C303 C304 1.405 . S
C304 H270 0.932 . S
C304 C303 1.405 . S
C304 C305 1.383 . S
C305 C304 1.383 . S
C305 C306 1.393 . S
C306 H271 0.931 . S
C306 C305 1.393 . S
C306 C307 1.382 . S
C307 H272 0.929 . S
C307 C302 1.371 . S
C307 C306 1.382 . S
C308 N276 1.423 . S
C308 C309 1.362 . S
C308 C313 1.388 . S
C309 H273 0.929 . S
C309 C308 1.362 . S
C309 C310 1.376 . S
C310 H274 0.931 . S
C310 C309 1.376 . S
C310 C311 1.396 . S
C311 C293 1.472 . S
C311 C310 1.396 . S
C311 C312 1.348 . S
C312 H275 0.929 . S
C312 C311 1.348 . S
C312 C313 1.443 . S
C313 H277 0.932 . S
C313 C308 1.388 . S
C313 C312 1.443 . S
H314 C341 0.929 . S
N315 C340 1.433 . S
N315 C346 1.435 . S
N315 C352 1.423 . S
H316 C342 0.930 . S
H317 C345 0.931 . S
H318 C344 0.929 . S
H319 C347 0.930 . S
H320 C348 0.932 . S
H321 C351 0.929 . S
H322 C350 0.931 . S
H323 C353 0.929 . S
H324 C357 0.932 . S
H325 C354 0.931 . S
H326 C356 0.929 . S
H327 C359 0.929 . S
H328 C360 0.930 . S
H329 C362 0.929 . S
H330 C363 0.931 . S
H331 C365 0.930 . S
H332 C366 0.932 . S
H333 C368 0.931 . S
H334 C369 0.929 . S
H335 C371 0.929 . S
H336 C372 0.931 . S
H337 C374 0.929 . S
N338 C358 1.433 . S
N338 C364 1.435 . S
N338 C370 1.423 . S
H339 C375 0.932 . S
C340 N315 1.433 . S
C340 C341 1.363 . S
C340 C345 1.370 . S
C341 H314 0.929 . S
C341 C340 1.363 . S
C341 C342 1.385 . S
C342 H316 0.930 . S
C342 C341 1.385 . S
C342 C343 1.357 . S
C343 C342 1.357 . S
C343 C344 1.406 . S
C344 H318 0.929 . S
C344 C343 1.406 . S
C344 C345 1.391 . S
C345 H317 0.931 . S
C345 C340 1.370 . S
C345 C344 1.391 . S
C346 N315 1.435 . S
C346 C347 1.358 . S
C346 C351 1.371 . S
C347 H319 0.930 . S
C347 C346 1.358 . S
C347 C348 1.405 . S
C348 H320 0.932 . S
C348 C347 1.405 . S
C348 C349 1.383 . S
C349 C348 1.383 . S
C349 C350 1.393 . S
C350 H322 0.931 . S
C350 C349 1.393 . S
C350 C351 1.382 . S
C351 H321 0.929 . S
C351 C346 1.371 . S
C351 C350 1.382 . S
C352 N315 1.423 . S
C352 C353 1.362 . S
C352 C357 1.388 . S
C353 H323 0.929 . S
C353 C352 1.362 . S
C353 C354 1.376 . S
C354 H325 0.931 . S
C354 C353 1.376 . S
C354 C355 1.396 . S
C355 C354 1.396 . S
C355 C356 1.348 . S
C355 C373 1.472 . S
C356 H326 0.929 . S
C356 C355 1.348 . S
C356 C357 1.443 . S
C357 H324 0.932 . S
C357 C352 1.388 . S
C357 C356 1.443 . S
C358 N338 1.433 . S
C358 C359 1.363 . S
C358 C363 1.370 . S
C359 H327 0.929 . S
C359 C358 1.363 . S
C359 C360 1.385 . S
C360 H328 0.930 . S
C360 C359 1.385 . S
C360 C361 1.357 . S
C361 C360 1.357 . S
C361 C362 1.406 . S
C362 H329 0.929 . S
C362 C361 1.406 . S
C362 C363 1.391 . S
C363 H330 0.931 . S
C363 C358 1.370 . S
C363 C362 1.391 . S
C364 N338 1.435 . S
C364 C365 1.358 . S
C364 C369 1.371 . S
C365 H331 0.930 . S
C365 C364 1.358 . S
C365 C366 1.405 . S
C366 H332 0.932 . S
C366 C365 1.405 . S
C366 C367 1.383 . S
C367 C366 1.383 . S
C367 C368 1.393 . S
C368 H333 0.931 . S
C368 C367 1.393 . S
C368 C369 1.382 . S
C369 H334 0.929 . S
C369 C364 1.371 . S
C369 C368 1.382 . S
C370 N338 1.423 . S
C370 C371 1.362 . S
C370 C375 1.388 . S
C371 H335 0.929 . S
C371 C370 1.362 . S
C371 C372 1.376 . S
C372 H336 0.931 . S
C372 C371 1.376 . S
C372 C373 1.396 . S
C373 C355 1.472 . S
C373 C372 1.396 . S
C373 C374 1.348 . S
C374 H337 0.929 . S
C374 C373 1.348 . S
C374 C375 1.443 . S
C375 H339 0.932 . S
C375 C370 1.388 . S
C375 C374 1.443 . S
H376 C403 0.929 . S
N377 C402 1.433 . S
N377 C408 1.435 . S
N377 C414 1.423 . S
H378 C404 0.930 . S
H379 C407 0.931 . S
H380 C406 0.929 . S
H381 C409 0.930 . S
H382 C410 0.932 . S
H383 C413 0.929 . S
H384 C412 0.931 . S
H385 C415 0.929 . S
H386 C419 0.932 . S
H387 C416 0.931 . S
H388 C418 0.929 . S
H389 C421 0.929 . S
H390 C422 0.930 . S
H391 C424 0.929 . S
H392 C425 0.931 . S
H393 C427 0.930 . S
H394 C428 0.932 . S
H395 C430 0.931 . S
H396 C431 0.929 . S
H397 C433 0.929 . S
H398 C434 0.931 . S
H399 C436 0.929 . S
N400 C420 1.433 . S
N400 C426 1.435 . S
N400 C432 1.423 . S
H401 C437 0.932 . S
C402 N377 1.433 . S
C402 C403 1.363 . S
C402 C407 1.370 . S
C403 H376 0.929 . S
C403 C402 1.363 . S
C403 C404 1.385 . S
C404 H378 0.930 . S
C404 C403 1.385 . S
C404 C405 1.357 . S
C405 C404 1.357 . S
C405 C406 1.406 . S
C406 H380 0.929 . S
C406 C405 1.406 . S
C406 C407 1.391 . S
C407 H379 0.931 . S
C407 C402 1.370 . S
C407 C406 1.391 . S
C408 N377 1.435 . S
C408 C409 1.358 . S
C408 C413 1.371 . S
C409 H381 0.930 . S
C409 C408 1.358 . S
C409 C410 1.405 . S
C410 H382 0.932 . S
C410 C409 1.405 . S
C410 C411 1.383 . S
C411 C410 1.383 . S
C411 C412 1.393 . S
C412 H384 0.931 . S
C412 C411 1.393 . S
C412 C413 1.382 . S
C413 H383 0.929 . S
C413 C408 1.371 . S
C413 C412 1.382 . S
C414 N377 1.423 . S
C414 C415 1.362 . S
C414 C419 1.388 . S
C415 H385 0.929 . S
C415 C414 1.362 . S
C415 C416 1.376 . S
C416 H387 0.931 . S
C416 C415 1.376 . S
C416 C417 1.396 . S
C417 C416 1.396 . S
C417 C418 1.348 . S
C417 C435 1.472 . S
C418 H388 0.929 . S
C418 C417 1.348 . S
C418 C419 1.443 . S
C419 H386 0.932 . S
C419 C414 1.388 . S
C419 C418 1.443 . S
C420 N400 1.433 . S
C420 C421 1.363 . S
C420 C425 1.370 . S
C421 H389 0.929 . S
C421 C420 1.363 . S
C421 C422 1.385 . S
C422 H390 0.930 . S
C422 C421 1.385 . S
C422 C423 1.357 . S
C423 C422 1.357 . S
C423 C424 1.406 . S
C424 H391 0.929 . S
C424 C423 1.406 . S
C424 C425 1.391 . S
C425 H392 0.931 . S
C425 C420 1.370 . S
C425 C424 1.391 . S
C426 N400 1.435 . S
C426 C427 1.358 . S
C426 C431 1.371 . S
C427 H393 0.930 . S
C427 C426 1.358 . S
C427 C428 1.405 . S
C428 H394 0.932 . S
C428 C427 1.405 . S
C428 C429 1.383 . S
C429 C428 1.383 . S
C429 C430 1.393 . S
C430 H395 0.931 . S
C430 C429 1.393 . S
C430 C431 1.382 . S
C431 H396 0.929 . S
C431 C426 1.371 . S
C431 C430 1.382 . S
C432 N400 1.423 . S
C432 C433 1.362 . S
C432 C437 1.388 . S
C433 H397 0.929 . S
C433 C432 1.362 . S
C433 C434 1.376 . S
C434 H398 0.931 . S
C434 C433 1.376 . S
C434 C435 1.396 . S
C435 C417 1.472 . S
C435 C434 1.396 . S
C435 C436 1.348 . S
C436 H399 0.929 . S
C436 C435 1.348 . S
C436 C437 1.443 . S
C437 H401 0.932 . S
C437 C432 1.388 . S
C437 C436 1.443 . S
H438 C465 0.929 . S
N439 C464 1.433 . S
N439 C470 1.435 . S
N439 C476 1.423 . S
H440 C466 0.930 . S
H441 C469 0.931 . S
H442 C468 0.929 . S
H443 C471 0.930 . S
H444 C472 0.932 . S
H445 C475 0.929 . S
H446 C474 0.931 . S
H447 C477 0.929 . S
H448 C481 0.932 . S
H449 C478 0.931 . S
H450 C480 0.929 . S
H451 C483 0.929 . S
H452 C484 0.930 . S
H453 C486 0.929 . S
H454 C487 0.931 . S
H455 C489 0.930 . S
H456 C490 0.932 . S
H457 C492 0.931 . S
H458 C493 0.929 . S
H459 C495 0.929 . S
H460 C496 0.931 . S
H461 C498 0.929 . S
N462 C482 1.433 . S
N462 C488 1.435 . S
N462 C494 1.423 . S
H463 C499 0.932 . S
C464 N439 1.433 . S
C464 C465 1.363 . S
C464 C469 1.370 . S
C465 H438 0.929 . S
C465 C464 1.363 . S
C465 C466 1.385 . S
C466 H440 0.930 . S
C466 C465 1.385 . S
C466 C467 1.357 . S
C467 C466 1.357 . S
C467 C468 1.406 . S
C468 H442 0.929 . S
C468 C467 1.406 . S
C468 C469 1.391 . S
C469 H441 0.931 . S
C469 C464 1.370 . S
C469 C468 1.391 . S
C470 N439 1.435 . S
C470 C471 1.358 . S
C470 C475 1.371 . S
C471 H443 0.930 . S
C471 C470 1.358 . S
C471 C472 1.405 . S
C472 H444 0.932 . S
C472 C471 1.405 . S
C472 C473 1.383 . S
C473 C472 1.383 . S
C473 C474 1.393 . S
C474 H446 0.931 . S
C474 C473 1.393 . S
C474 C475 1.382 . S
C475 H445 0.929 . S
C475 C470 1.371 . S
C475 C474 1.382 . S
C476 N439 1.423 . S
C476 C477 1.362 . S
C476 C481 1.388 . S
C477 H447 0.929 . S
C477 C476 1.362 . S
C477 C478 1.376 . S
C478 H449 0.931 . S
C478 C477 1.376 . S
C478 C479 1.396 . S
C479 C478 1.396 . S
C479 C480 1.348 . S
C479 C497 1.472 . S
C480 H450 0.929 . S
C480 C479 1.348 . S
C480 C481 1.443 . S
C481 H448 0.932 . S
C481 C476 1.388 . S
C481 C480 1.443 . S
C482 N462 1.433 . S
C482 C483 1.363 . S
C482 C487 1.370 . S
C483 H451 0.929 . S
C483 C482 1.363 . S
C483 C484 1.385 . S
C484 H452 0.930 . S
C484 C483 1.385 . S
C484 C485 1.357 . S
C485 C484 1.357 . S
C485 C486 1.406 . S
C486 H453 0.929 . S
C486 C485 1.406 . S
C486 C487 1.391 . S
C487 H454 0.931 . S
C487 C482 1.370 . S
C487 C486 1.391 . S
C488 N462 1.435 . S
C488 C489 1.358 . S
C488 C493 1.371 . S
C489 H455 0.930 . S
C489 C488 1.358 . S
C489 C490 1.405 . S
C490 H456 0.932 . S
C490 C489 1.405 . S
C490 C491 1.383 . S
C491 C490 1.383 . S
C491 C492 1.393 . S
C492 H457 0.931 . S
C492 C491 1.393 . S
C492 C493 1.382 . S
C493 H458 0.929 . S
C493 C488 1.371 . S
C493 C492 1.382 . S
C494 N462 1.423 . S
C494 C495 1.362 . S
C494 C499 1.388 . S
C495 H459 0.929 . S
C495 C494 1.362 . S
C495 C496 1.376 . S
C496 H460 0.931 . S
C496 C495 1.376 . S
C496 C497 1.396 . S
C497 C479 1.472 . S
C497 C496 1.396 . S
C497 C498 1.348 . S
C498 H461 0.929 . S
C498 C497 1.348 . S
C498 C499 1.443 . S
C499 H463 0.932 . S
C499 C494 1.388 . S
C499 C498 1.443 . S
H500 C527 0.929 . S
N501 C526 1.433 . S
N501 C532 1.435 . S
N501 C538 1.423 . S
H502 C528 0.930 . S
H503 C531 0.931 . S
H504 C530 0.929 . S
H505 C533 0.930 . S
H506 C534 0.932 . S
H507 C537 0.929 . S
H508 C536 0.931 . S
H509 C539 0.929 . S
H510 C543 0.932 . S
H511 C540 0.931 . S
H512 C542 0.929 . S
H513 C545 0.929 . S
H514 C546 0.930 . S
H515 C548 0.929 . S
H516 C549 0.931 . S
H517 C551 0.930 . S
H518 C552 0.932 . S
H519 C554 0.931 . S
H520 C555 0.929 . S
H521 C557 0.929 . S
H522 C558 0.931 . S
H523 C560 0.929 . S
N524 C544 1.433 . S
N524 C550 1.435 . S
N524 C556 1.423 . S
H525 C561 0.932 . S
C526 N501 1.433 . S
C526 C527 1.363 . S
C526 C531 1.370 . S
C527 H500 0.929 . S
C527 C526 1.363 . S
C527 C528 1.385 . S
C528 H502 0.930 . S
C528 C527 1.385 . S
C528 C529 1.357 . S
C529 C528 1.357 . S
C529 C530 1.406 . S
C530 H504 0.929 . S
C530 C529 1.406 . S
C530 C531 1.391 . S
C531 H503 0.931 . S
C531 C526 1.370 . S
C531 C530 1.391 . S
C532 N501 1.435 . S
C532 C533 1.358 . S
C532 C537 1.371 . S
C533 H505 0.930 . S
C533 C532 1.358 . S
C533 C534 1.405 . S
C534 H506 0.932 . S
C534 C533 1.405 . S
C534 C535 1.383 . S
C535 C534 1.383 . S
C535 C536 1.393 . S
C536 H508 0.931 . S
C536 C535 1.393 . S
C536 C537 1.382 . S
C537 H507 0.929 . S
C537 C532 1.371 . S
C537 C536 1.382 . S
C538 N501 1.423 . S
C538 C539 1.362 . S
C538 C543 1.388 . S
C539 H509 0.929 . S
C539 C538 1.362 . S
C539 C540 1.376 . S
C540 H511 0.931 . S
C540 C539 1.376 . S
C540 C541 1.396 . S
C541 C540 1.396 . S
C541 C542 1.348 . S
C541 C559 1.472 . S
C542 H512 0.929 . S
C542 C541 1.348 . S
C542 C543 1.443 . S
C543 H510 0.932 . S
C543 C538 1.388 . S
C543 C542 1.443 . S
C544 N524 1.433 . S
C544 C545 1.363 . S
C544 C549 1.370 . S
C545 H513 0.929 . S
C545 C544 1.363 . S
C545 C546 1.385 . S
C546 H514 0.930 . S
C546 C545 1.385 . S
C546 C547 1.357 . S
C547 C546 1.357 . S
C547 C548 1.406 . S
C548 H515 0.929 . S
C548 C547 1.406 . S
C548 C549 1.391 . S
C549 H516 0.931 . S
C549 C544 1.370 . S
C549 C548 1.391 . S
C550 N524 1.435 . S
C550 C551 1.358 . S
C550 C555 1.371 . S
C551 H517 0.930 . S
C551 C550 1.358 . S
C551 C552 1.405 . S
C552 H518 0.932 . S
C552 C551 1.405 . S
C552 C553 1.383 . S
C553 C552 1.383 . S
C553 C554 1.393 . S
C554 H519 0.931 . S
C554 C553 1.393 . S
C554 C555 1.382 . S
C555 H520 0.929 . S
C555 C550 1.371 . S
C555 C554 1.382 . S
C556 N524 1.423 . S
C556 C557 1.362 . S
C556 C561 1.388 . S
C557 H521 0.929 . S
C557 C556 1.362 . S
C557 C558 1.376 . S
C558 H522 0.931 . S
C558 C557 1.376 . S
C558 C559 1.396 . S
C559 C541 1.472 . S
C559 C558 1.396 . S
C559 C560 1.348 . S
C560 H523 0.929 . S
C560 C559 1.348 . S
C560 C561 1.443 . S
C561 H525 0.932 . S
C561 C556 1.388 . S
C561 C560 1.443 . S
H562 C589 0.929 . S
N563 C588 1.433 . S
N563 C594 1.435 . S
N563 C600 1.423 . S
H564 C590 0.930 . S
H565 C593 0.931 . S
H566 C592 0.929 . S
H567 C595 0.930 . S
H568 C596 0.932 . S
H569 C599 0.929 . S
H570 C598 0.931 . S
H571 C601 0.929 . S
H572 C605 0.932 . S
H573 C602 0.931 . S
H574 C604 0.929 . S
H575 C607 0.929 . S
H576 C608 0.930 . S
H577 C610 0.929 . S
H578 C611 0.931 . S
H579 C613 0.930 . S
H580 C614 0.932 . S
H581 C616 0.931 . S
H582 C617 0.929 . S
H583 C619 0.929 . S
H584 C620 0.931 . S
H585 C622 0.929 . S
N586 C606 1.433 . S
N586 C612 1.435 . S
N586 C618 1.423 . S
H587 C623 0.932 . S
C588 N563 1.433 . S
C588 C589 1.363 . S
C588 C593 1.370 . S
C589 H562 0.929 . S
C589 C588 1.363 . S
C589 C590 1.385 . S
C590 H564 0.930 . S
C590 C589 1.385 . S
C590 C591 1.357 . S
C591 C590 1.357 . S
C591 C592 1.406 . S
C592 H566 0.929 . S
C592 C591 1.406 . S
C592 C593 1.391 . S
C593 H565 0.931 . S
C593 C588 1.370 . S
C593 C592 1.391 . S
C594 N563 1.435 . S
C594 C595 1.358 . S
C594 C599 1.371 . S
C595 H567 0.930 . S
C595 C594 1.358 . S
C595 C596 1.405 . S
C596 H568 0.932 . S
C596 C595 1.405 . S
C596 C597 1.383 . S
C597 C596 1.383 . S
C597 C598 1.393 . S
C598 H570 0.931 . S
C598 C597 1.393 . S
C598 C599 1.382 . S
C599 H569 0.929 . S
C599 C594 1.371 . S
C599 C598 1.382 . S
C600 N563 1.423 . S
C600 C601 1.362 . S
C600 C605 1.388 . S
C601 H571 0.929 . S
C601 C600 1.362 . S
C601 C602 1.376 . S
C602 H573 0.931 . S
C602 C601 1.376 . S
C602 C603 1.396 . S
C603 C602 1.396 . S
C603 C604 1.348 . S
C603 C621 1.472 . S
C604 H574 0.929 . S
C604 C603 1.348 . S
C604 C605 1.443 . S
C605 H572 0.932 . S
C605 C600 1.388 . S
C605 C604 1.443 . S
C606 N586 1.433 . S
C606 C607 1.363 . S
C606 C611 1.370 . S
C607 H575 0.929 . S
C607 C606 1.363 . S
C607 C608 1.385 . S
C608 H576 0.930 . S
C608 C607 1.385 . S
C608 C609 1.357 . S
C609 C608 1.357 . S
C609 C610 1.406 . S
C610 H577 0.929 . S
C610 C609 1.406 . S
C610 C611 1.391 . S
C611 H578 0.931 . S
C611 C606 1.370 . S
C611 C610 1.391 . S
C612 N586 1.435 . S
C612 C613 1.358 . S
C612 C617 1.371 . S
C613 H579 0.930 . S
C613 C612 1.358 . S
C613 C614 1.405 . S
C614 H580 0.932 . S
C614 C613 1.405 . S
C614 C615 1.383 . S
C615 C614 1.383 . S
C615 C616 1.393 . S
C616 H581 0.931 . S
C616 C615 1.393 . S
C616 C617 1.382 . S
C617 H582 0.929 . S
C617 C612 1.371 . S
C617 C616 1.382 . S
C618 N586 1.423 . S
C618 C619 1.362 . S
C618 C623 1.388 . S
C619 H583 0.929 . S
C619 C618 1.362 . S
C619 C620 1.376 . S
C620 H584 0.931 . S
C620 C619 1.376 . S
C620 C621 1.396 . S
C621 C603 1.472 . S
C621 C620 1.396 . S
C621 C622 1.348 . S
C622 H585 0.929 . S
C622 C621 1.348 . S
C622 C623 1.443 . S
C623 H587 0.932 . S
C623 C618 1.388 . S
C623 C622 1.443 . S
H624 C651 0.929 . S
N625 C650 1.433 . S
N625 C656 1.435 . S
N625 C662 1.423 . S
H626 C652 0.930 . S
H627 C655 0.931 . S
H628 C654 0.929 . S
H629 C657 0.930 . S
H630 C658 0.932 . S
H631 C661 0.929 . S
H632 C660 0.931 . S
H633 C663 0.929 . S
H634 C667 0.932 . S
H635 C664 0.931 . S
H636 C666 0.929 . S
H637 C669 0.929 . S
H638 C670 0.930 . S
H639 C672 0.929 . S
H640 C673 0.931 . S
H641 C675 0.930 . S
H642 C676 0.932 . S
H643 C678 0.931 . S
H644 C679 0.929 . S
H645 C681 0.929 . S
H646 C682 0.931 . S
H647 C684 0.929 . S
N648 C668 1.433 . S
N648 C674 1.435 . S
N648 C680 1.423 . S
H649 C685 0.932 . S
C650 N625 1.433 . S
C650 C651 1.363 . S
C650 C655 1.370 . S
C651 H624 0.929 . S
C651 C650 1.363 . S
C651 C652 1.385 . S
C652 H626 0.930 . S
C652 C651 1.385 . S
C652 C653 1.357 . S
C653 C652 1.357 . S
C653 C654 1.406 . S
C654 H628 0.929 . S
C654 C653 1.406 . S
C654 C655 1.391 . S
C655 H627 0.931 . S
C655 C650 1.370 . S
C655 C654 1.391 . S
C656 N625 1.435 . S
C656 C657 1.358 . S
C656 C661 1.371 . S
C657 H629 0.930 . S
C657 C656 1.358 . S
C657 C658 1.405 . S
C658 H630 0.932 . S
C658 C657 1.405 . S
C658 C659 1.383 . S
C659 C658 1.383 . S
C659 C660 1.393 . S
C660 H632 0.931 . S
C660 C659 1.393 . S
C660 C661 1.382 . S
C661 H631 0.929 . S
C661 C656 1.371 . S
C661 C660 1.382 . S
C662 N625 1.423 . S
C662 C663 1.362 . S
C662 C667 1.388 . S
C663 H633 0.929 . S
C663 C662 1.362 . S
C663 C664 1.376 . S
C664 H635 0.931 . S
C664 C663 1.376 . S
C664 C665 1.396 . S
C665 C664 1.396 . S
C665 C666 1.348 . S
C665 C683 1.472 . S
C666 H636 0.929 . S
C666 C665 1.348 . S
C666 C667 1.443 . S
C667 H634 0.932 . S
C667 C662 1.388 . S
C667 C666 1.443 . S
C668 N648 1.433 . S
C668 C669 1.363 . S
C668 C673 1.370 . S
C669 H637 0.929 . S
C669 C668 1.363 . S
C669 C670 1.385 . S
C670 H638 0.930 . S
C670 C669 1.385 . S
C670 C671 1.357 . S
C671 C670 1.357 . S
C671 C672 1.406 . S
C672 H639 0.929 . S
C672 C671 1.406 . S
C672 C673 1.391 . S
C673 H640 0.931 . S
C673 C668 1.370 . S
C673 C672 1.391 . S
C674 N648 1.435 . S
C674 C675 1.358 . S
C674 C679 1.371 . S
C675 H641 0.930 . S
C675 C674 1.358 . S
C675 C676 1.405 . S
C676 H642 0.932 . S
C676 C675 1.405 . S
C676 C677 1.383 . S
C677 C676 1.383 . S
C677 C678 1.393 . S
C678 H643 0.931 . S
C678 C677 1.393 . S
C678 C679 1.382 . S
C679 H644 0.929 . S
C679 C674 1.371 . S
C679 C678 1.382 . S
C680 N648 1.423 . S
C680 C681 1.362 . S
C680 C685 1.388 . S
C681 H645 0.929 . S
C681 C680 1.362 . S
C681 C682 1.376 . S
C682 H646 0.931 . S
C682 C681 1.376 . S
C682 C683 1.396 . S
C683 C665 1.472 . S
C683 C682 1.396 . S
C683 C684 1.348 . S
C684 H647 0.929 . S
C684 C683 1.348 . S
C684 C685 1.443 . S
C685 H649 0.932 . S
C685 C680 1.388 . S
C685 C684 1.443 . S
H686 C713 0.929 . S
N687 C712 1.433 . S
N687 C718 1.435 . S
N687 C724 1.423 . S
H688 C714 0.930 . S
H689 C717 0.931 . S
H690 C716 0.929 . S
H691 C719 0.930 . S
H692 C720 0.932 . S
H693 C723 0.929 . S
H694 C722 0.931 . S
H695 C725 0.929 . S
H696 C729 0.932 . S
H697 C726 0.931 . S
H698 C728 0.929 . S
H699 C731 0.929 . S
H700 C732 0.930 . S
H701 C734 0.929 . S
H702 C735 0.931 . S
H703 C737 0.930 . S
H704 C738 0.932 . S
H705 C740 0.931 . S
H706 C741 0.929 . S
H707 C743 0.929 . S
H708 C744 0.931 . S
H709 C746 0.929 . S
N710 C730 1.433 . S
N710 C736 1.435 . S
N710 C742 1.423 . S
H711 C747 0.932 . S
C712 N687 1.433 . S
C712 C713 1.363 . S
C712 C717 1.370 . S
C713 H686 0.929 . S
C713 C712 1.363 . S
C713 C714 1.385 . S
C714 H688 0.930 . S
C714 C713 1.385 . S
C714 C715 1.357 . S
C715 C714 1.357 . S
C715 C716 1.406 . S
C716 H690 0.929 . S
C716 C715 1.406 . S
C716 C717 1.391 . S
C717 H689 0.931 . S
C717 C712 1.370 . S
C717 C716 1.391 . S
C718 N687 1.435 . S
C718 C719 1.358 . S
C718 C723 1.371 . S
C719 H691 0.930 . S
C719 C718 1.358 . S
C719 C720 1.405 . S
C720 H692 0.932 . S
C720 C719 1.405 . S
C720 C721 1.383 . S
C721 C720 1.383 . S
C721 C722 1.393 . S
C722 H694 0.931 . S
C722 C721 1.393 . S
C722 C723 1.382 . S
C723 H693 0.929 . S
C723 C718 1.371 . S
C723 C722 1.382 . S
C724 N687 1.423 . S
C724 C725 1.362 . S
C724 C729 1.388 . S
C725 H695 0.929 . S
C725 C724 1.362 . S
C725 C726 1.376 . S
C726 H697 0.931 . S
C726 C725 1.376 . S
C726 C727 1.396 . S
C727 C726 1.396 . S
C727 C728 1.348 . S
C727 C745 1.472 . S
C728 H698 0.929 . S
C728 C727 1.348 . S
C728 C729 1.443 . S
C729 H696 0.932 . S
C729 C724 1.388 . S
C729 C728 1.443 . S
C730 N710 1.433 . S
C730 C731 1.363 . S
C730 C735 1.370 . S
C731 H699 0.929 . S
C731 C730 1.363 . S
C731 C732 1.385 . S
C732 H700 0.930 . S
C732 C731 1.385 . S
C732 C733 1.357 . S
C733 C732 1.357 . S
C733 C734 1.406 . S
C734 H701 0.929 . S
C734 C733 1.406 . S
C734 C735 1.391 . S
C735 H702 0.931 . S
C735 C730 1.370 . S
C735 C734 1.391 . S
C736 N710 1.435 . S
C736 C737 1.358 . S
C736 C741 1.371 . S
C737 H703 0.930 . S
C737 C736 1.358 . S
C737 C738 1.405 . S
C738 H704 0.932 . S
C738 C737 1.405 . S
C738 C739 1.383 . S
C739 C738 1.383 . S
C739 C740 1.393 . S
C740 H705 0.931 . S
C740 C739 1.393 . S
C740 C741 1.382 . S
C741 H706 0.929 . S
C741 C736 1.371 . S
C741 C740 1.382 . S
C742 N710 1.423 . S
C742 C743 1.362 . S
C742 C747 1.388 . S
C743 H707 0.929 . S
C743 C742 1.362 . S
C743 C744 1.376 . S
C744 H708 0.931 . S
C744 C743 1.376 . S
C744 C745 1.396 . S
C745 C727 1.472 . S
C745 C744 1.396 . S
C745 C746 1.348 . S
C746 H709 0.929 . S
C746 C745 1.348 . S
C746 C747 1.443 . S
C747 H711 0.932 . S
C747 C742 1.388 . S
C747 C746 1.443 . S
H748 C775 0.929 . S
N749 C774 1.433 . S
N749 C780 1.435 . S
N749 C786 1.423 . S
H750 C776 0.930 . S
H751 C779 0.931 . S
H752 C778 0.929 . S
H753 C781 0.930 . S
H754 C782 0.932 . S
H755 C785 0.929 . S
H756 C784 0.931 . S
H757 C787 0.929 . S
H758 C791 0.932 . S
H759 C788 0.931 . S
H760 C790 0.929 . S
H761 C793 0.929 . S
H762 C794 0.930 . S
H763 C796 0.929 . S
H764 C797 0.931 . S
H765 C799 0.930 . S
H766 C800 0.932 . S
H767 C802 0.931 . S
H768 C803 0.929 . S
H769 C805 0.929 . S
H770 C806 0.931 . S
H771 C808 0.929 . S
N772 C792 1.433 . S
N772 C798 1.435 . S
N772 C804 1.423 . S
H773 C809 0.932 . S
C774 N749 1.433 . S
C774 C775 1.363 . S
C774 C779 1.370 . S
C775 H748 0.929 . S
C775 C774 1.363 . S
C775 C776 1.385 . S
C776 H750 0.930 . S
C776 C775 1.385 . S
C776 C777 1.357 . S
C777 C776 1.357 . S
C777 C778 1.406 . S
C778 H752 0.929 . S
C778 C777 1.406 . S
C778 C779 1.391 . S
C779 H751 0.931 . S
C779 C774 1.370 . S
C779 C778 1.391 . S
C780 N749 1.435 . S
C780 C781 1.358 . S
C780 C785 1.371 . S
C781 H753 0.930 . S
C781 C780 1.358 . S
C781 C782 1.405 . S
C782 H754 0.932 . S
C782 C781 1.405 . S
C782 C783 1.383 . S
C783 C782 1.383 . S
C783 C784 1.393 . S
C784 H756 0.931 . S
C784 C783 1.393 . S
C784 C785 1.382 . S
C785 H755 0.929 . S
C785 C780 1.371 . S
C785 C784 1.382 . S
C786 N749 1.423 . S
C786 C787 1.362 . S
C786 C791 1.388 . S
C787 H757 0.929 . S
C787 C786 1.362 . S
C787 C788 1.376 . S
C788 H759 0.931 . S
C788 C787 1.376 . S
C788 C789 1.396 . S
C789 C788 1.396 . S
C789 C790 1.348 . S
C789 C807 1.472 . S
C790 H760 0.929 . S
C790 C789 1.348 . S
C790 C791 1.443 . S
C791 H758 0.932 . S
C791 C786 1.388 . S
C791 C790 1.443 . S
C792 N772 1.433 . S
C792 C793 1.363 . S
C792 C797 1.370 . S
C793 H761 0.929 . S
C793 C792 1.363 . S
C793 C794 1.385 . S
C794 H762 0.930 . S
C794 C793 1.385 . S
C794 C795 1.357 . S
C795 C794 1.357 . S
C795 C796 1.406 . S
C796 H763 0.929 . S
C796 C795 1.406 . S
C796 C797 1.391 . S
C797 H764 0.931 . S
C797 C792 1.370 . S
C797 C796 1.391 . S
C798 N772 1.435 . S
C798 C799 1.358 . S
C798 C803 1.371 . S
C799 H765 0.930 . S
C799 C798 1.358 . S
C799 C800 1.405 . S
C800 H766 0.932 . S
C800 C799 1.405 . S
C800 C801 1.383 . S
C801 C800 1.383 . S
C801 C802 1.393 . S
C802 H767 0.931 . S
C802 C801 1.393 . S
C802 C803 1.382 . S
C803 H768 0.929 . S
C803 C798 1.371 . S
C803 C802 1.382 . S
C804 N772 1.423 . S
C804 C805 1.362 . S
C804 C809 1.388 . S
C805 H769 0.929 . S
C805 C804 1.362 . S
C805 C806 1.376 . S
C806 H770 0.931 . S
C806 C805 1.376 . S
C806 C807 1.396 . S
C807 C789 1.472 . S
C807 C806 1.396 . S
C807 C808 1.348 . S
C808 H771 0.929 . S
C808 C807 1.348 . S
C808 C809 1.443 . S
C809 H773 0.932 . S
C809 C804 1.388 . S
C809 C808 1.443 . S
H810 C837 0.929 . S
N811 C836 1.433 . S
N811 C842 1.435 . S
N811 C848 1.423 . S
H812 C838 0.930 . S
H813 C841 0.931 . S
H814 C840 0.929 . S
H815 C843 0.930 . S
H816 C844 0.932 . S
H817 C847 0.929 . S
H818 C846 0.931 . S
H819 C849 0.929 . S
H820 C853 0.932 1_655 S
H821 C850 0.931 . S
H822 C852 0.929 . S
H823 C855 0.929 . S
H824 C856 0.930 . S
H825 C858 0.929 . S
H826 C859 0.931 . S
H827 C861 0.930 . S
H828 C862 0.932 . S
H829 C864 0.931 . S
H830 C865 0.929 . S
H831 C867 0.929 . S
H832 C868 0.931 . S
H833 C870 0.929 . S
N834 C854 1.433 . S
N834 C860 1.435 . S
N834 C866 1.423 . S
H835 C871 0.932 1_655 S
C836 N811 1.433 . S
C836 C837 1.363 . S
C836 C841 1.370 1_455 S
C837 H810 0.929 . S
C837 C836 1.363 . S
C837 C838 1.385 . S
C838 H812 0.930 . S
C838 C837 1.385 . S
C838 C839 1.357 1_455 S
C839 C838 1.357 1_655 S
C839 C840 1.406 . S
C840 H814 0.929 . S
C840 C839 1.406 . S
C840 C841 1.391 . S
C841 H813 0.931 . S
C841 C836 1.370 1_655 S
C841 C840 1.391 . S
C842 N811 1.435 . S
C842 C843 1.358 1_455 S
C842 C847 1.371 . S
C843 H815 0.930 . S
C843 C842 1.358 1_655 S
C843 C844 1.405 . S
C844 H816 0.932 . S
C844 C843 1.405 . S
C844 C845 1.383 1_655 S
C845 C844 1.383 1_455 S
C845 C846 1.393 . S
C846 H818 0.931 . S
C846 C845 1.393 . S
C846 C847 1.382 . S
C847 H817 0.929 . S
C847 C842 1.371 . S
C847 C846 1.382 . S
C848 N811 1.423 . S
C848 C849 1.362 . S
C848 C853 1.388 . S
C849 H819 0.929 . S
C849 C848 1.362 . S
C849 C850 1.376 . S
C850 H821 0.931 . S
C850 C849 1.376 . S
C850 C851 1.396 . S
C851 C850 1.396 . S
C851 C852 1.348 . S
C851 C869 1.472 . S
C852 H822 0.929 . S
C852 C851 1.348 . S
C852 C853 1.443 . S
C853 H820 0.932 1_455 S
C853 C848 1.388 . S
C853 C852 1.443 . S
C854 N834 1.433 . S
C854 C855 1.363 . S
C854 C859 1.370 1_455 S
C855 H823 0.929 . S
C855 C854 1.363 . S
C855 C856 1.385 . S
C856 H824 0.930 . S
C856 C855 1.385 . S
C856 C857 1.357 1_455 S
C857 C856 1.357 1_655 S
C857 C858 1.406 . S
C858 H825 0.929 . S
C858 C857 1.406 . S
C858 C859 1.391 . S
C859 H826 0.931 . S
C859 C854 1.370 1_655 S
C859 C858 1.391 . S
C860 N834 1.435 . S
C860 C861 1.358 1_455 S
C860 C865 1.371 . S
C861 H827 0.930 . S
C861 C860 1.358 1_655 S
C861 C862 1.405 . S
C862 H828 0.932 . S
C862 C861 1.405 . S
C862 C863 1.383 1_655 S
C863 C862 1.383 1_455 S
C863 C864 1.393 . S
C864 H829 0.931 . S
C864 C863 1.393 . S
C864 C865 1.382 . S
C865 H830 0.929 . S
C865 C860 1.371 . S
C865 C864 1.382 . S
C866 N834 1.423 . S
C866 C867 1.362 . S
C866 C871 1.388 . S
C867 H831 0.929 . S
C867 C866 1.362 . S
C867 C868 1.376 . S
C868 H832 0.931 . S
C868 C867 1.376 . S
C868 C869 1.396 . S
C869 C851 1.472 . S
C869 C868 1.396 . S
C869 C870 1.348 . S
C870 H833 0.929 . S
C870 C869 1.348 . S
C870 C871 1.443 . S
C871 H835 0.932 1_455 S
C871 C866 1.388 . S
C871 C870 1.443 . S
H872 C899 0.929 . S
N873 C898 1.433 . S
N873 C904 1.435 . S
N873 C910 1.423 . S
H874 C900 0.930 . S
H875 C903 0.931 . S
H876 C902 0.929 . S
H877 C905 0.930 . S
H878 C906 0.932 . S
H879 C909 0.929 . S
H880 C908 0.931 . S
H881 C911 0.929 . S
H882 C915 0.932 . S
H883 C912 0.931 . S
H884 C914 0.929 . S
H885 C917 0.929 . S
H886 C918 0.930 . S
H887 C920 0.929 . S
H888 C921 0.931 . S
H889 C923 0.930 . S
H890 C924 0.932 . S
H891 C926 0.931 . S
H892 C927 0.929 . S
H893 C929 0.929 . S
H894 C930 0.931 . S
H895 C932 0.929 . S
N896 C916 1.433 . S
N896 C922 1.435 . S
N896 C928 1.423 . S
H897 C933 0.932 . S
C898 N873 1.433 . S
C898 C899 1.363 . S
C898 C903 1.370 . S
C899 H872 0.929 . S
C899 C898 1.363 . S
C899 C900 1.385 . S
C900 H874 0.930 . S
C900 C899 1.385 . S
C900 C901 1.357 . S
C901 C900 1.357 . S
C901 C902 1.406 . S
C902 H876 0.929 . S
C902 C901 1.406 . S
C902 C903 1.391 . S
C903 H875 0.931 . S
C903 C898 1.370 . S
C903 C902 1.391 . S
C904 N873 1.435 . S
C904 C905 1.358 . S
C904 C909 1.371 . S
C905 H877 0.930 . S
C905 C904 1.358 . S
C905 C906 1.405 . S
C906 H878 0.932 . S
C906 C905 1.405 . S
C906 C907 1.383 . S
C907 C906 1.383 . S
C907 C908 1.393 . S
C908 H880 0.931 . S
C908 C907 1.393 . S
C908 C909 1.382 . S
C909 H879 0.929 . S
C909 C904 1.371 . S
C909 C908 1.382 . S
C910 N873 1.423 . S
C910 C911 1.362 . S
C910 C915 1.388 . S
C911 H881 0.929 . S
C911 C910 1.362 . S
C911 C912 1.376 . S
C912 H883 0.931 . S
C912 C911 1.376 . S
C912 C913 1.396 . S
C913 C912 1.396 . S
C913 C914 1.348 . S
C913 C931 1.472 . S
C914 H884 0.929 . S
C914 C913 1.348 . S
C914 C915 1.443 . S
C915 H882 0.932 . S
C915 C910 1.388 . S
C915 C914 1.443 . S
C916 N896 1.433 . S
C916 C917 1.363 . S
C916 C921 1.370 . S
C917 H885 0.929 . S
C917 C916 1.363 . S
C917 C918 1.385 . S
C918 H886 0.930 . S
C918 C917 1.385 . S
C918 C919 1.357 . S
C919 C918 1.357 . S
C919 C920 1.406 . S
C920 H887 0.929 . S
C920 C919 1.406 . S
C920 C921 1.391 . S
C921 H888 0.931 . S
C921 C916 1.370 . S
C921 C920 1.391 . S
C922 N896 1.435 . S
C922 C923 1.358 . S
C922 C927 1.371 . S
C923 H889 0.930 . S
C923 C922 1.358 . S
C923 C924 1.405 . S
C924 H890 0.932 . S
C924 C923 1.405 . S
C924 C925 1.383 . S
C925 C924 1.383 . S
C925 C926 1.393 . S
C926 H891 0.931 . S
C926 C925 1.393 . S
C926 C927 1.382 . S
C927 H892 0.929 . S
C927 C922 1.371 . S
C927 C926 1.382 . S
C928 N896 1.423 . S
C928 C929 1.362 . S
C928 C933 1.388 . S
C929 H893 0.929 . S
C929 C928 1.362 . S
C929 C930 1.376 . S
C930 H894 0.931 . S
C930 C929 1.376 . S
C930 C931 1.396 . S
C931 C913 1.472 . S
C931 C930 1.396 . S
C931 C932 1.348 . S
C932 H895 0.929 . S
C932 C931 1.348 . S
C932 C933 1.443 . S
C933 H897 0.932 . S
C933 C928 1.388 . S
C933 C932 1.443 . S
H934 C961 0.929 . S
N935 C960 1.433 . S
N935 C966 1.435 . S
N935 C972 1.423 . S
H936 C962 0.930 . S
H937 C965 0.931 . S
H938 C964 0.929 . S
H939 C967 0.930 . S
H940 C968 0.932 . S
H941 C971 0.929 . S
H942 C970 0.931 . S
H943 C973 0.929 . S
H944 C977 0.932 1_545 S
H945 C974 0.931 . S
H946 C976 0.929 . S
H947 C979 0.929 . S
H948 C980 0.930 . S
H949 C982 0.929 . S
H950 C983 0.931 . S
H951 C985 0.930 . S
H952 C986 0.932 . S
H953 C988 0.931 . S
H954 C989 0.929 . S
H955 C991 0.929 . S
H956 C992 0.931 . S
H957 C994 0.929 . S
N958 C978 1.433 . S
N958 C984 1.435 . S
N958 C990 1.423 . S
H959 C995 0.932 1_545 S
C960 N935 1.433 . S
C960 C961 1.363 . S
C960 C965 1.370 1_565 S
C961 H934 0.929 . S
C961 C960 1.363 . S
C961 C962 1.385 . S
C962 H936 0.930 . S
C962 C961 1.385 . S
C962 C963 1.357 1_565 S
C963 C962 1.357 1_545 S
C963 C964 1.406 . S
C964 H938 0.929 . S
C964 C963 1.406 . S
C964 C965 1.391 . S
C965 H937 0.931 . S
C965 C960 1.370 1_545 S
C965 C964 1.391 . S
C966 N935 1.435 . S
C966 C967 1.358 1_565 S
C966 C971 1.371 . S
C967 H939 0.930 . S
C967 C966 1.358 1_545 S
C967 C968 1.405 . S
C968 H940 0.932 . S
C968 C967 1.405 . S
C968 C969 1.383 1_545 S
C969 C968 1.383 1_565 S
C969 C970 1.393 . S
C970 H942 0.931 . S
C970 C969 1.393 . S
C970 C971 1.382 . S
C971 H941 0.929 . S
C971 C966 1.371 . S
C971 C970 1.382 . S
C972 N935 1.423 . S
C972 C973 1.362 . S
C972 C977 1.388 . S
C973 H943 0.929 . S
C973 C972 1.362 . S
C973 C974 1.376 . S
C974 H945 0.931 . S
C974 C973 1.376 . S
C974 C975 1.396 . S
C975 C974 1.396 . S
C975 C976 1.348 . S
C975 C993 1.472 . S
C976 H946 0.929 . S
C976 C975 1.348 . S
C976 C977 1.443 . S
C977 H944 0.932 1_565 S
C977 C972 1.388 . S
C977 C976 1.443 . S
C978 N958 1.433 . S
C978 C979 1.363 . S
C978 C983 1.370 1_565 S
C979 H947 0.929 . S
C979 C978 1.363 . S
C979 C980 1.385 . S
C980 H948 0.930 . S
C980 C979 1.385 . S
C980 C981 1.357 1_565 S
C981 C980 1.357 1_545 S
C981 C982 1.406 . S
C982 H949 0.929 . S
C982 C981 1.406 . S
C982 C983 1.391 . S
C983 H950 0.931 . S
C983 C978 1.370 1_545 S
C983 C982 1.391 . S
C984 N958 1.435 . S
C984 C985 1.358 1_565 S
C984 C989 1.371 . S
C985 H951 0.930 . S
C985 C984 1.358 1_545 S
C985 C986 1.405 . S
C986 H952 0.932 . S
C986 C985 1.405 . S
C986 C987 1.383 1_545 S
C987 C986 1.383 1_565 S
C987 C988 1.393 . S
C988 H953 0.931 . S
C988 C987 1.393 . S
C988 C989 1.382 . S
C989 H954 0.929 . S
C989 C984 1.371 . S
C989 C988 1.382 . S
C990 N958 1.423 . S
C990 C991 1.362 . S
C990 C995 1.388 . S
C991 H955 0.929 . S
C991 C990 1.362 . S
C991 C992 1.376 . S
C992 H956 0.931 . S
C992 C991 1.376 . S
C992 C993 1.396 . S
C993 C975 1.472 . S
C993 C992 1.396 . S
C993 C994 1.348 . S
C994 H957 0.929 . S
C994 C993 1.348 . S
C994 C995 1.443 . S
C995 H959 0.932 1_565 S
C995 C990 1.388 . S
C995 C994 1.443 . S
H996 C1023 0.929 . S
N997 C1022 1.433 . S
N997 C1028 1.435 . S
N997 C1034 1.423 . S
H998 C1024 0.930 . S
H999 C1027 0.931 . S
H1000 C1026 0.929 . S
H1001 C1029 0.930 . S
H1002 C1030 0.932 . S
H1003 C1033 0.929 . S
H1004 C1032 0.931 . S
H1005 C1035 0.929 . S
H1006 C1039 0.932 . S
H1007 C1036 0.931 . S
H1008 C1038 0.919 1_545 S
H1009 C1041 0.929 . S
H1010 C1042 0.930 . S
H1011 C1044 0.929 . S
H1012 C1045 0.984 . S
H1013 C1047 0.930 . S
H1014 C1048 0.932 . S
H1015 C1050 0.931 . S
H1016 C1051 0.929 . S
H1017 C1053 0.929 . S
H1018 C1054 0.931 . S
H1019 C1056 0.884 1_545 S
N1020 C1040 1.433 . S
N1020 C1046 1.435 . S
N1020 C1052 1.423 . S
H1021 C1057 0.932 . S
C1022 N997 1.433 . S
C1022 C1023 1.363 . S
C1022 C1027 1.370 1_565 S
C1023 H996 0.929 . S
C1023 C1022 1.363 . S
C1023 C1024 1.385 . S
C1024 H998 0.930 . S
C1024 C1023 1.385 . S
C1024 C1025 1.357 . S
C1025 C1024 1.357 . S
C1025 C1026 1.406 1_565 S
C1026 H1000 0.929 . S
C1026 C1025 1.406 1_545 S
C1026 C1027 1.391 . S
C1027 H999 0.931 . S
C1027 C1022 1.370 1_545 S
C1027 C1026 1.391 . S
C1028 N997 1.435 . S
C1028 C1029 1.358 1_565 S
C1028 C1033 1.371 . S
C1029 H1001 0.930 . S
C1029 C1028 1.358 1_545 S
C1029 C1030 1.405 . S
C1030 H1002 0.932 . S
C1030 C1029 1.405 . S
C1030 C1031 1.383 . S
C1031 C1030 1.383 . S
C1031 C1032 1.393 1_545 S
C1032 H1004 0.931 . S
C1032 C1031 1.393 1_565 S
C1032 C1033 1.382 . S
C1033 H1003 0.929 . S
C1033 C1028 1.371 . S
C1033 C1032 1.382 . S
C1034 N997 1.423 . S
C1034 C1035 1.362 . S
C1034 C1039 1.388 1_565 S
C1035 H1005 0.929 . S
C1035 C1034 1.362 . S
C1035 C1036 1.376 . S
C1036 H1007 0.931 . S
C1036 C1035 1.376 . S
C1036 C1037 1.396 . S
C1037 C1036 1.396 . S
C1037 C1038 1.392 . S
C1037 C1055 1.472 . S
C1038 H1008 0.919 1_565 S
C1038 C1037 1.392 . S
C1038 C1039 1.411 1_565 S
C1039 H1006 0.932 . S
C1039 C1034 1.388 1_545 S
C1039 C1038 1.411 1_545 S
C1040 N1020 1.433 . S
C1040 C1041 1.363 . S
C1040 C1045 1.329 1_565 S
C1041 H1009 0.929 . S
C1041 C1040 1.363 . S
C1041 C1042 1.385 . S
C1042 H1010 0.930 . S
C1042 C1041 1.385 . S
C1042 C1043 1.357 . S
C1043 C1042 1.357 . S
C1043 C1044 1.406 1_565 S
C1044 H1011 0.929 . S
C1044 C1043 1.406 1_545 S
C1044 C1045 1.382 . S
C1045 H1012 0.984 . S
C1045 C1040 1.329 1_545 S
C1045 C1044 1.382 . S
C1046 N1020 1.435 . S
C1046 C1047 1.358 1_565 S
C1046 C1051 1.371 . S
C1047 H1013 0.930 . S
C1047 C1046 1.358 1_545 S
C1047 C1048 1.405 . S
C1048 H1014 0.932 . S
C1048 C1047 1.405 . S
C1048 C1049 1.383 . S
C1049 C1048 1.383 . S
C1049 C1050 1.393 1_545 S
C1050 H1015 0.931 . S
C1050 C1049 1.393 1_565 S
C1050 C1051 1.382 . S
C1051 H1016 0.929 . S
C1051 C1046 1.371 . S
C1051 C1050 1.382 . S
C1052 N1020 1.423 . S
C1052 C1053 1.362 . S
C1052 C1057 1.388 1_565 S
C1053 H1017 0.929 . S
C1053 C1052 1.362 . S
C1053 C1054 1.376 . S
C1054 H1018 0.931 . S
C1054 C1053 1.376 . S
C1054 C1055 1.396 . S
C1055 C1037 1.472 . S
C1055 C1054 1.396 . S
C1055 C1056 1.366 . S
C1056 H1019 0.884 1_565 S
C1056 C1055 1.366 . S
C1056 C1057 1.471 1_565 S
C1057 H1021 0.932 . S
C1057 C1052 1.388 1_545 S
C1057 C1056 1.471 1_545 S
H1058 C1085 0.929 . S
N1059 C1084 1.433 . S
N1059 C1090 1.435 . S
N1059 C1096 1.423 . S
H1060 C1086 0.930 . S
H1061 C1089 0.931 . S
H1062 C1088 0.929 . S
H1063 C1091 0.930 . S
H1064 C1092 0.932 . S
H1065 C1095 0.929 . S
H1066 C1094 0.931 . S
H1067 C1097 0.929 . S
H1068 C1101 0.932 1_455 S
H1069 C1098 0.931 . S
H1070 C1100 0.929 . S
H1071 C1103 0.929 . S
H1072 C1104 0.930 . S
H1073 C1106 0.929 . S
H1074 C1107 0.931 . S
H1075 C1109 0.930 . S
H1076 C1110 0.932 . S
H1077 C1112 0.931 . S
H1078 C1113 0.929 . S
H1079 C1115 0.929 . S
H1080 C1116 0.931 . S
H1081 C1118 0.929 . S
N1082 C1102 1.433 . S
N1082 C1108 1.435 . S
N1082 C1114 1.423 . S
H1083 C1119 0.932 1_455 S
C1084 N1059 1.433 . S
C1084 C1085 1.363 . S
C1084 C1089 1.370 1_655 S
C1085 H1058 0.929 . S
C1085 C1084 1.363 . S
C1085 C1086 1.385 . S
C1086 H1060 0.930 . S
C1086 C1085 1.385 . S
C1086 C1087 1.357 1_655 S
C1087 C1086 1.357 1_455 S
C1087 C1088 1.406 . S
C1088 H1062 0.929 . S
C1088 C1087 1.406 . S
C1088 C1089 1.391 . S
C1089 H1061 0.931 . S
C1089 C1084 1.370 1_455 S
C1089 C1088 1.391 . S
C1090 N1059 1.435 . S
C1090 C1091 1.358 1_655 S
C1090 C1095 1.371 . S
C1091 H1063 0.930 . S
C1091 C1090 1.358 1_455 S
C1091 C1092 1.405 . S
C1092 H1064 0.932 . S
C1092 C1091 1.405 . S
C1092 C1093 1.383 1_455 S
C1093 C1092 1.383 1_655 S
C1093 C1094 1.393 . S
C1094 H1066 0.931 . S
C1094 C1093 1.393 . S
C1094 C1095 1.382 . S
C1095 H1065 0.929 . S
C1095 C1090 1.371 . S
C1095 C1094 1.382 . S
C1096 N1059 1.423 . S
C1096 C1097 1.362 . S
C1096 C1101 1.388 . S
C1097 H1067 0.929 . S
C1097 C1096 1.362 . S
C1097 C1098 1.376 . S
C1098 H1069 0.931 . S
C1098 C1097 1.376 . S
C1098 C1099 1.396 . S
C1099 C1098 1.396 . S
C1099 C1100 1.348 . S
C1099 C1117 1.472 . S
C1100 H1070 0.929 . S
C1100 C1099 1.348 . S
C1100 C1101 1.443 . S
C1101 H1068 0.932 1_655 S
C1101 C1096 1.388 . S
C1101 C1100 1.443 . S
C1102 N1082 1.433 . S
C1102 C1103 1.363 . S
C1102 C1107 1.370 1_655 S
C1103 H1071 0.929 . S
C1103 C1102 1.363 . S
C1103 C1104 1.385 . S
C1104 H1072 0.930 . S
C1104 C1103 1.385 . S
C1104 C1105 1.357 1_655 S
C1105 C1104 1.357 1_455 S
C1105 C1106 1.406 . S
C1106 H1073 0.929 . S
C1106 C1105 1.406 . S
C1106 C1107 1.391 . S
C1107 H1074 0.931 . S
C1107 C1102 1.370 1_455 S
C1107 C1106 1.391 . S
C1108 N1082 1.435 . S
C1108 C1109 1.358 1_655 S
C1108 C1113 1.371 . S
C1109 H1075 0.930 . S
C1109 C1108 1.358 1_455 S
C1109 C1110 1.405 . S
C1110 H1076 0.932 . S
C1110 C1109 1.405 . S
C1110 C1111 1.383 1_455 S
C1111 C1110 1.383 1_655 S
C1111 C1112 1.393 . S
C1112 H1077 0.931 . S
C1112 C1111 1.393 . S
C1112 C1113 1.382 . S
C1113 H1078 0.929 . S
C1113 C1108 1.371 . S
C1113 C1112 1.382 . S
C1114 N1082 1.423 . S
C1114 C1115 1.362 . S
C1114 C1119 1.388 . S
C1115 H1079 0.929 . S
C1115 C1114 1.362 . S
C1115 C1116 1.376 . S
C1116 H1080 0.931 . S
C1116 C1115 1.376 . S
C1116 C1117 1.396 . S
C1117 C1099 1.472 . S
C1117 C1116 1.396 . S
C1117 C1118 1.348 . S
C1118 H1081 0.929 . S
C1118 C1117 1.348 . S
C1118 C1119 1.443 . S
C1119 H1083 0.932 1_655 S
C1119 C1114 1.388 . S
C1119 C1118 1.443 . S
H1120 C1147 0.929 . S
N1121 C1146 1.433 . S
N1121 C1152 1.435 . S
N1121 C1158 1.423 . S
H1122 C1148 0.930 . S
H1123 C1151 0.931 . S
H1124 C1150 0.929 . S
H1125 C1153 0.930 . S
H1126 C1154 0.932 . S
H1127 C1157 0.929 . S
H1128 C1156 0.931 . S
H1129 C1159 0.929 . S
H1130 C1163 0.932 . S
H1131 C1160 0.931 . S
H1132 C1162 0.929 . S
H1133 C1165 0.929 . S
H1134 C1166 0.930 . S
H1135 C1168 0.929 . S
H1136 C1169 0.931 . S
H1137 C1171 0.930 . S
H1138 C1172 0.932 . S
H1139 C1174 0.931 . S
H1140 C1175 0.929 . S
H1141 C1177 0.929 . S
H1142 C1178 0.931 . S
H1143 C1180 0.929 . S
N1144 C1164 1.433 . S
N1144 C1170 1.435 . S
N1144 C1176 1.423 . S
H1145 C1181 0.932 . S
C1146 N1121 1.433 . S
C1146 C1147 1.363 . S
C1146 C1151 1.370 . S
C1147 H1120 0.929 . S
C1147 C1146 1.363 . S
C1147 C1148 1.385 . S
C1148 H1122 0.930 . S
C1148 C1147 1.385 . S
C1148 C1149 1.357 . S
C1149 C1148 1.357 . S
C1149 C1150 1.406 . S
C1150 H1124 0.929 . S
C1150 C1149 1.406 . S
C1150 C1151 1.391 . S
C1151 H1123 0.931 . S
C1151 C1146 1.370 . S
C1151 C1150 1.391 . S
C1152 N1121 1.435 . S
C1152 C1153 1.358 . S
C1152 C1157 1.371 . S
C1153 H1125 0.930 . S
C1153 C1152 1.358 . S
C1153 C1154 1.405 . S
C1154 H1126 0.932 . S
C1154 C1153 1.405 . S
C1154 C1155 1.383 . S
C1155 C1154 1.383 . S
C1155 C1156 1.393 . S
C1156 H1128 0.931 . S
C1156 C1155 1.393 . S
C1156 C1157 1.382 . S
C1157 H1127 0.929 . S
C1157 C1152 1.371 . S
C1157 C1156 1.382 . S
C1158 N1121 1.423 . S
C1158 C1159 1.362 . S
C1158 C1163 1.388 . S
C1159 H1129 0.929 . S
C1159 C1158 1.362 . S
C1159 C1160 1.376 . S
C1160 H1131 0.931 . S
C1160 C1159 1.376 . S
C1160 C1161 1.396 . S
C1161 C1160 1.396 . S
C1161 C1162 1.348 . S
C1161 C1179 1.472 . S
C1162 H1132 0.929 . S
C1162 C1161 1.348 . S
C1162 C1163 1.443 . S
C1163 H1130 0.932 . S
C1163 C1158 1.388 . S
C1163 C1162 1.443 . S
C1164 N1144 1.433 . S
C1164 C1165 1.363 . S
C1164 C1169 1.370 . S
C1165 H1133 0.929 . S
C1165 C1164 1.363 . S
C1165 C1166 1.385 . S
C1166 H1134 0.930 . S
C1166 C1165 1.385 . S
C1166 C1167 1.357 . S
C1167 C1166 1.357 . S
C1167 C1168 1.406 . S
C1168 H1135 0.929 . S
C1168 C1167 1.406 . S
C1168 C1169 1.391 . S
C1169 H1136 0.931 . S
C1169 C1164 1.370 . S
C1169 C1168 1.391 . S
C1170 N1144 1.435 . S
C1170 C1171 1.358 . S
C1170 C1175 1.371 . S
C1171 H1137 0.930 . S
C1171 C1170 1.358 . S
C1171 C1172 1.405 . S
C1172 H1138 0.932 . S
C1172 C1171 1.405 . S
C1172 C1173 1.383 . S
C1173 C1172 1.383 . S
C1173 C1174 1.393 . S
C1174 H1139 0.931 . S
C1174 C1173 1.393 . S
C1174 C1175 1.382 . S
C1175 H1140 0.929 . S
C1175 C1170 1.371 . S
C1175 C1174 1.382 . S
C1176 N1144 1.423 . S
C1176 C1177 1.362 . S
C1176 C1181 1.388 . S
C1177 H1141 0.929 . S
C1177 C1176 1.362 . S
C1177 C1178 1.376 . S
C1178 H1142 0.931 . S
C1178 C1177 1.376 . S
C1178 C1179 1.396 . S
C1179 C1161 1.472 . S
C1179 C1178 1.396 . S
C1179 C1180 1.348 . S
C1180 H1143 0.929 . S
C1180 C1179 1.348 . S
C1180 C1181 1.443 . S
C1181 H1145 0.932 . S
C1181 C1176 1.388 . S
C1181 C1180 1.443 . S
H1182 C1209 0.929 . S
N1183 C1208 1.433 . S
N1183 C1214 1.435 . S
N1183 C1220 1.423 . S
H1184 C1210 0.930 . S
H1185 C1213 0.931 . S
H1186 C1212 0.929 . S
H1187 C1215 0.930 . S
H1188 C1216 0.932 . S
H1189 C1219 0.929 . S
H1190 C1218 0.931 . S
H1191 C1221 0.929 . S
H1192 C1225 0.932 . S
H1193 C1222 0.931 . S
H1194 C1224 0.929 . S
H1195 C1227 0.929 . S
H1196 C1228 0.930 . S
H1197 C1230 0.929 . S
H1198 C1231 0.931 . S
H1199 C1233 0.930 . S
H1200 C1234 0.932 . S
H1201 C1236 0.931 . S
H1202 C1237 0.929 . S
H1203 C1239 0.929 . S
H1204 C1240 0.931 . S
H1205 C1242 0.929 . S
N1206 C1226 1.433 . S
N1206 C1232 1.435 . S
N1206 C1238 1.423 . S
H1207 C1243 0.932 . S
C1208 N1183 1.433 . S
C1208 C1209 1.363 . S
C1208 C1213 1.370 . S
C1209 H1182 0.929 . S
C1209 C1208 1.363 . S
C1209 C1210 1.385 . S
C1210 H1184 0.930 . S
C1210 C1209 1.385 . S
C1210 C1211 1.357 . S
C1211 C1210 1.357 . S
C1211 C1212 1.406 . S
C1212 H1186 0.929 . S
C1212 C1211 1.406 . S
C1212 C1213 1.391 . S
C1213 H1185 0.931 . S
C1213 C1208 1.370 . S
C1213 C1212 1.391 . S
C1214 N1183 1.435 . S
C1214 C1215 1.358 . S
C1214 C1219 1.371 . S
C1215 H1187 0.930 . S
C1215 C1214 1.358 . S
C1215 C1216 1.405 . S
C1216 H1188 0.932 . S
C1216 C1215 1.405 . S
C1216 C1217 1.383 . S
C1217 C1216 1.383 . S
C1217 C1218 1.393 . S
C1218 H1190 0.931 . S
C1218 C1217 1.393 . S
C1218 C1219 1.382 . S
C1219 H1189 0.929 . S
C1219 C1214 1.371 . S
C1219 C1218 1.382 . S
C1220 N1183 1.423 . S
C1220 C1221 1.362 . S
C1220 C1225 1.388 . S
C1221 H1191 0.929 . S
C1221 C1220 1.362 . S
C1221 C1222 1.376 . S
C1222 H1193 0.931 . S
C1222 C1221 1.376 . S
C1222 C1223 1.396 . S
C1223 C1222 1.396 . S
C1223 C1224 1.348 . S
C1223 C1241 1.472 . S
C1224 H1194 0.929 . S
C1224 C1223 1.348 . S
C1224 C1225 1.443 . S
C1225 H1192 0.932 . S
C1225 C1220 1.388 . S
C1225 C1224 1.443 . S
C1226 N1206 1.433 . S
C1226 C1227 1.363 . S
C1226 C1231 1.370 . S
C1227 H1195 0.929 . S
C1227 C1226 1.363 . S
C1227 C1228 1.385 . S
C1228 H1196 0.930 . S
C1228 C1227 1.385 . S
C1228 C1229 1.357 . S
C1229 C1228 1.357 . S
C1229 C1230 1.406 . S
C1230 H1197 0.929 . S
C1230 C1229 1.406 . S
C1230 C1231 1.391 . S
C1231 H1198 0.931 . S
C1231 C1226 1.370 . S
C1231 C1230 1.391 . S
C1232 N1206 1.435 . S
C1232 C1233 1.358 . S
C1232 C1237 1.371 . S
C1233 H1199 0.930 . S
C1233 C1232 1.358 . S
C1233 C1234 1.405 . S
C1234 H1200 0.932 . S
C1234 C1233 1.405 . S
C1234 C1235 1.383 . S
C1235 C1234 1.383 . S
C1235 C1236 1.393 . S
C1236 H1201 0.931 . S
C1236 C1235 1.393 . S
C1236 C1237 1.382 . S
C1237 H1202 0.929 . S
C1237 C1232 1.371 . S
C1237 C1236 1.382 . S
C1238 N1206 1.423 . S
C1238 C1239 1.362 . S
C1238 C1243 1.388 . S
C1239 H1203 0.929 . S
C1239 C1238 1.362 . S
C1239 C1240 1.376 . S
C1240 H1204 0.931 . S
C1240 C1239 1.376 . S
C1240 C1241 1.396 . S
C1241 C1223 1.472 . S
C1241 C1240 1.396 . S
C1241 C1242 1.348 . S
C1242 H1205 0.929 . S
C1242 C1241 1.348 . S
C1242 C1243 1.443 . S
C1243 H1207 0.932 . S
C1243 C1238 1.388 . S
C1243 C1242 1.443 . S
H1244 C1271 0.929 . S
N1245 C1270 1.433 . S
N1245 C1276 1.435 . S
N1245 C1282 1.423 . S
H1246 C1272 0.930 . S
H1247 C1275 0.931 . S
H1248 C1274 0.929 . S
H1249 C1277 0.930 . S
H1250 C1278 0.932 . S
H1251 C1281 0.929 . S
H1252 C1280 0.931 . S
H1253 C1283 0.929 . S
H1254 C1287 0.932 . S
H1255 C1284 0.931 . S
H1256 C1286 0.929 . S
H1257 C1289 0.929 . S
H1258 C1290 0.930 . S
H1259 C1292 0.929 . S
H1260 C1293 0.931 . S
H1261 C1295 0.930 . S
H1262 C1296 0.932 . S
H1263 C1298 0.931 . S
H1264 C1299 0.929 . S
H1265 C1301 0.929 . S
H1266 C1302 0.931 . S
H1267 C1304 0.929 . S
N1268 C1288 1.433 . S
N1268 C1294 1.435 . S
N1268 C1300 1.423 . S
H1269 C1305 0.932 . S
C1270 N1245 1.433 . S
C1270 C1271 1.363 . S
C1270 C1275 1.370 . S
C1271 H1244 0.929 . S
C1271 C1270 1.363 . S
C1271 C1272 1.385 . S
C1272 H1246 0.930 . S
C1272 C1271 1.385 . S
C1272 C1273 1.357 . S
C1273 C1272 1.357 . S
C1273 C1274 1.406 . S
C1274 H1248 0.929 . S
C1274 C1273 1.406 . S
C1274 C1275 1.391 . S
C1275 H1247 0.931 . S
C1275 C1270 1.370 . S
C1275 C1274 1.391 . S
C1276 N1245 1.435 . S
C1276 C1277 1.358 . S
C1276 C1281 1.371 . S
C1277 H1249 0.930 . S
C1277 C1276 1.358 . S
C1277 C1278 1.405 . S
C1278 H1250 0.932 . S
C1278 C1277 1.405 . S
C1278 C1279 1.383 . S
C1279 C1278 1.383 . S
C1279 C1280 1.393 . S
C1280 H1252 0.931 . S
C1280 C1279 1.393 . S
C1280 C1281 1.382 . S
C1281 H1251 0.929 . S
C1281 C1276 1.371 . S
C1281 C1280 1.382 . S
C1282 N1245 1.423 . S
C1282 C1283 1.362 . S
C1282 C1287 1.388 . S
C1283 H1253 0.929 . S
C1283 C1282 1.362 . S
C1283 C1284 1.376 . S
C1284 H1255 0.931 . S
C1284 C1283 1.376 . S
C1284 C1285 1.396 . S
C1285 C1284 1.396 . S
C1285 C1286 1.348 . S
C1285 C1303 1.472 . S
C1286 H1256 0.929 . S
C1286 C1285 1.348 . S
C1286 C1287 1.443 . S
C1287 H1254 0.932 . S
C1287 C1282 1.388 . S
C1287 C1286 1.443 . S
C1288 N1268 1.433 . S
C1288 C1289 1.363 . S
C1288 C1293 1.370 . S
C1289 H1257 0.929 . S
C1289 C1288 1.363 . S
C1289 C1290 1.385 . S
C1290 H1258 0.930 . S
C1290 C1289 1.385 . S
C1290 C1291 1.357 . S
C1291 C1290 1.357 . S
C1291 C1292 1.406 . S
C1292 H1259 0.929 . S
C1292 C1291 1.406 . S
C1292 C1293 1.391 . S
C1293 H1260 0.931 . S
C1293 C1288 1.370 . S
C1293 C1292 1.391 . S
C1294 N1268 1.435 . S
C1294 C1295 1.358 . S
C1294 C1299 1.371 . S
C1295 H1261 0.930 . S
C1295 C1294 1.358 . S
C1295 C1296 1.405 . S
C1296 H1262 0.932 . S
C1296 C1295 1.405 . S
C1296 C1297 1.383 . S
C1297 C1296 1.383 . S
C1297 C1298 1.393 . S
C1298 H1263 0.931 . S
C1298 C1297 1.393 . S
C1298 C1299 1.382 . S
C1299 H1264 0.929 . S
C1299 C1294 1.371 . S
C1299 C1298 1.382 . S
C1300 N1268 1.423 . S
C1300 C1301 1.362 . S
C1300 C1305 1.388 . S
C1301 H1265 0.929 . S
C1301 C1300 1.362 . S
C1301 C1302 1.376 . S
C1302 H1266 0.931 . S
C1302 C1301 1.376 . S
C1302 C1303 1.396 . S
C1303 C1285 1.472 . S
C1303 C1302 1.396 . S
C1303 C1304 1.348 . S
C1304 H1267 0.929 . S
C1304 C1303 1.348 . S
C1304 C1305 1.443 . S
C1305 H1269 0.932 . S
C1305 C1300 1.388 . S
C1305 C1304 1.443 . S
H1306 C1333 0.929 . S
N1307 C1332 1.433 . S
N1307 C1338 1.435 . S
N1307 C1344 1.423 . S
H1308 C1334 0.930 . S
H1309 C1337 0.931 . S
H1310 C1336 0.929 . S
H1311 C1339 0.930 . S
H1312 C1340 0.932 . S
H1313 C1343 0.929 . S
H1314 C1342 0.931 . S
H1315 C1345 0.929 . S
H1316 C1349 0.932 . S
H1317 C1346 0.931 . S
H1318 C1348 0.929 . S
H1319 C1351 0.929 . S
H1320 C1352 0.930 . S
H1321 C1354 0.929 . S
H1322 C1355 0.931 . S
H1323 C1357 0.930 . S
H1324 C1358 0.932 . S
H1325 C1360 0.931 . S
H1326 C1361 0.929 . S
H1327 C1363 0.929 . S
H1328 C1364 0.931 . S
H1329 C1366 0.929 . S
N1330 C1350 1.433 . S
N1330 C1356 1.435 . S
N1330 C1362 1.423 . S
H1331 C1367 0.932 . S
C1332 N1307 1.433 . S
C1332 C1333 1.363 . S
C1332 C1337 1.370 . S
C1333 H1306 0.929 . S
C1333 C1332 1.363 . S
C1333 C1334 1.385 . S
C1334 H1308 0.930 . S
C1334 C1333 1.385 . S
C1334 C1335 1.357 . S
C1335 C1334 1.357 . S
C1335 C1336 1.406 . S
C1336 H1310 0.929 . S
C1336 C1335 1.406 . S
C1336 C1337 1.391 . S
C1337 H1309 0.931 . S
C1337 C1332 1.370 . S
C1337 C1336 1.391 . S
C1338 N1307 1.435 . S
C1338 C1339 1.358 . S
C1338 C1343 1.371 . S
C1339 H1311 0.930 . S
C1339 C1338 1.358 . S
C1339 C1340 1.405 . S
C1340 H1312 0.932 . S
C1340 C1339 1.405 . S
C1340 C1341 1.383 . S
C1341 C1340 1.383 . S
C1341 C1342 1.393 . S
C1342 H1314 0.931 . S
C1342 C1341 1.393 . S
C1342 C1343 1.382 . S
C1343 H1313 0.929 . S
C1343 C1338 1.371 . S
C1343 C1342 1.382 . S
C1344 N1307 1.423 . S
C1344 C1345 1.362 . S
C1344 C1349 1.388 . S
C1345 H1315 0.929 . S
C1345 C1344 1.362 . S
C1345 C1346 1.376 . S
C1346 H1317 0.931 . S
C1346 C1345 1.376 . S
C1346 C1347 1.396 . S
C1347 C1346 1.396 . S
C1347 C1348 1.348 . S
C1347 C1365 1.472 . S
C1348 H1318 0.929 . S
C1348 C1347 1.348 . S
C1348 C1349 1.443 . S
C1349 H1316 0.932 . S
C1349 C1344 1.388 . S
C1349 C1348 1.443 . S
C1350 N1330 1.433 . S
C1350 C1351 1.363 . S
C1350 C1355 1.370 . S
C1351 H1319 0.929 . S
C1351 C1350 1.363 . S
C1351 C1352 1.385 . S
C1352 H1320 0.930 . S
C1352 C1351 1.385 . S
C1352 C1353 1.357 . S
C1353 C1352 1.357 . S
C1353 C1354 1.406 . S
C1354 H1321 0.929 . S
C1354 C1353 1.406 . S
C1354 C1355 1.391 . S
C1355 H1322 0.931 . S
C1355 C1350 1.370 . S
C1355 C1354 1.391 . S
C1356 N1330 1.435 . S
C1356 C1357 1.358 . S
C1356 C1361 1.371 . S
C1357 H1323 0.930 . S
C1357 C1356 1.358 . S
C1357 C1358 1.405 . S
C1358 H1324 0.932 . S
C1358 C1357 1.405 . S
C1358 C1359 1.383 . S
C1359 C1358 1.383 . S
C1359 C1360 1.393 . S
C1360 H1325 0.931 . S
C1360 C1359 1.393 . S
C1360 C1361 1.382 . S
C1361 H1326 0.929 . S
C1361 C1356 1.371 . S
C1361 C1360 1.382 . S
C1362 N1330 1.423 . S
C1362 C1363 1.362 . S
C1362 C1367 1.388 . S
C1363 H1327 0.929 . S
C1363 C1362 1.362 . S
C1363 C1364 1.376 . S
C1364 H1328 0.931 . S
C1364 C1363 1.376 . S
C1364 C1365 1.396 . S
C1365 C1347 1.472 . S
C1365 C1364 1.396 . S
C1365 C1366 1.348 . S
C1366 H1329 0.929 . S
C1366 C1365 1.348 . S
C1366 C1367 1.443 . S
C1367 H1331 0.932 . S
C1367 C1362 1.388 . S
C1367 C1366 1.443 . S
C1368 C1369 1.369 . S
C1368 C1370 1.419 . S
C1368 H1372 0.930 . S
C1369 C1368 1.369 . S
C1369 C1378 1.429 1_655 S
C1370 C1368 1.419 . S
C1370 C1371 1.363 . S
C1370 H1373 0.929 . S
C1371 C1370 1.363 . S
C1371 C1377 1.428 1_655 S
H1372 C1368 0.930 . S
H1373 C1370 0.929 . S
S1374 N1375 1.613 . S
S1374 N1376 1.610 . S
N1375 S1374 1.613 . S
N1375 C1378 1.350 . S
N1376 S1374 1.610 . S
N1376 C1377 1.351 . S
C1377 C1371 1.428 1_455 S
C1377 N1376 1.351 . S
C1377 C1378 1.434 . S
C1378 C1369 1.429 1_455 S
C1378 N1375 1.350 . S
C1378 C1377 1.434 . S
C1379 C1380 1.369 . S
C1379 C1381 1.419 . S
C1379 H1383 0.930 . S
C1380 C1379 1.369 . S
C1380 C1389 1.429 . S
C1381 C1379 1.419 . S
C1381 C1382 1.363 . S
C1381 H1384 0.929 . S
C1382 C1381 1.363 . S
C1382 C1388 1.428 . S
H1383 C1379 0.930 . S
H1384 C1381 0.929 . S
S1385 N1386 1.613 . S
S1385 N1387 1.610 . S
N1386 S1385 1.613 . S
N1386 C1389 1.350 . S
N1387 S1385 1.610 . S
N1387 C1388 1.351 . S
C1388 C1382 1.428 . S
C1388 N1387 1.351 . S
C1388 C1389 1.434 . S
C1389 C1380 1.429 . S
C1389 N1386 1.350 . S
C1389 C1388 1.434 . S
C1390 C1391 1.369 . S
C1390 C1392 1.419 . S
C1390 H1394 0.930 . S
C1391 C1390 1.369 . S
C1391 C1400 1.429 . S
C1392 C1390 1.419 . S
C1392 C1393 1.363 . S
C1392 H1395 0.929 . S
C1393 C1392 1.363 . S
C1393 C1399 1.428 . S
H1394 C1390 0.930 . S
H1395 C1392 0.929 . S
S1396 N1397 1.613 . S
S1396 N1398 1.610 . S
N1397 S1396 1.613 . S
N1397 C1400 1.350 1_565 S
N1398 S1396 1.610 . S
N1398 C1399 1.351 1_565 S
C1399 C1393 1.428 . S
C1399 N1398 1.351 1_545 S
C1399 C1400 1.434 . S
C1400 C1391 1.429 . S
C1400 N1397 1.350 1_545 S
C1400 C1399 1.434 . S
C1401 C1402 1.369 . S
C1401 C1403 1.419 . S
C1401 H1405 0.930 . S
C1402 C1401 1.369 . S
C1402 C1411 1.441 . S
C1403 C1401 1.419 . S
C1403 C1404 1.363 . S
C1403 H1406 0.929 . S
C1404 C1403 1.363 . S
C1404 C1410 1.428 . S
H1405 C1401 0.930 . S
H1406 C1403 0.929 . S
S1407 N1408 1.610 1_565 S
S1407 N1409 1.646 . S
N1408 S1407 1.610 1_545 S
N1408 C1411 1.304 1_545 S
N1409 S1407 1.646 . S
N1409 C1410 1.351 . S
C1410 C1404 1.428 . S
C1410 N1409 1.351 . S
C1410 C1411 1.465 . S
C1411 C1402 1.441 . S
C1411 N1408 1.304 1_565 S
C1411 C1410 1.465 . S
C1412 C1413 1.369 1_655 S
C1412 C1414 1.419 . S
C1412 H1416 0.930 . S
C1413 C1412 1.369 1_455 S
C1413 C1422 1.429 . S
C1414 C1412 1.419 . S
C1414 C1415 1.363 1_655 S
C1414 H1417 0.929 . S
C1415 C1414 1.363 1_455 S
C1415 C1421 1.428 . S
H1416 C1412 0.930 . S
H1417 C1414 0.929 . S
S1418 N1419 1.613 . S
S1418 N1420 1.610 . S
N1419 S1418 1.613 . S
N1419 C1422 1.350 . S
N1420 S1418 1.610 . S
N1420 C1421 1.351 . S
C1421 C1415 1.428 . S
C1421 N1420 1.351 . S
C1421 C1422 1.434 . S
C1422 C1413 1.429 . S
C1422 N1419 1.350 . S
C1422 C1421 1.434 . S
C1423 C1424 1.369 . S
C1423 C1425 1.419 . S
C1423 H1427 0.930 . S
C1424 C1423 1.369 . S
C1424 C1433 1.429 . S
C1425 C1423 1.419 . S
C1425 C1426 1.363 . S
C1425 H1428 0.929 . S
C1426 C1425 1.363 . S
C1426 C1432 1.428 . S
H1427 C1423 0.930 . S
H1428 C1425 0.929 . S
S1429 N1430 1.613 . S
S1429 N1431 1.610 . S
N1430 S1429 1.613 . S
N1430 C1433 1.350 . S
N1431 S1429 1.610 . S
N1431 C1432 1.351 . S
C1432 C1426 1.428 . S
C1432 N1431 1.351 . S
C1432 C1433 1.434 . S
C1433 C1424 1.429 . S
C1433 N1430 1.350 . S
C1433 C1432 1.434 . S
C1434 C1435 1.369 1_655 S
C1434 C1436 1.419 . S
C1434 H1438 0.930 . S
C1435 C1434 1.369 1_455 S
C1435 C1444 1.429 . S
C1436 C1434 1.419 . S
C1436 C1437 1.363 1_655 S
C1436 H1439 0.929 . S
C1437 C1436 1.363 1_455 S
C1437 C1443 1.428 . S
H1438 C1434 0.930 . S
H1439 C1436 0.929 . S
S1440 N1441 1.613 . S
S1440 N1442 1.610 . S
N1441 S1440 1.613 . S
N1441 C1444 1.350 . S
N1442 S1440 1.610 . S
N1442 C1443 1.351 . S
C1443 C1437 1.428 . S
C1443 N1442 1.351 . S
C1443 C1444 1.434 . S
C1444 C1435 1.429 . S
C1444 N1441 1.350 . S
C1444 C1443 1.434 . S
C1445 C1446 1.369 . S
C1445 C1447 1.419 . S
C1445 H1449 0.930 . S
C1446 C1445 1.369 . S
C1446 C1455 1.429 . S
C1447 C1445 1.419 . S
C1447 C1448 1.363 . S
C1447 H1450 0.929 . S
C1448 C1447 1.363 . S
C1448 C1454 1.428 . S
H1449 C1445 0.930 . S
H1450 C1447 0.929 . S
S1451 N1452 1.613 . S
S1451 N1453 1.610 . S
N1452 S1451 1.613 . S
N1452 C1455 1.350 . S
N1453 S1451 1.610 . S
N1453 C1454 1.351 . S
C1454 C1448 1.428 . S
C1454 N1453 1.351 . S
C1454 C1455 1.434 . S
C1455 C1446 1.429 . S
C1455 N1452 1.350 . S
C1455 C1454 1.434 . S
C1456 C1457 1.379 . S
C1456 C1458 1.414 . S
C1456 H1460 0.925 1_565 S
C1457 C1456 1.379 . S
C1457 C1466 1.429 . S
C1458 C1456 1.414 . S
C1458 C1459 1.363 . S
C1458 H1461 0.941 . S
C1459 C1458 1.363 . S
C1459 C1465 1.428 . S
H1460 C1456 0.925 1_545 S
H1461 C1458 0.941 . S
S1462 N1463 1.613 . S
S1462 N1464 1.610 . S
N1463 S1462 1.613 . S
N1463 C1466 1.350 . S
N1464 S1462 1.610 . S
N1464 C1465 1.351 . S
C1465 C1459 1.428 . S
C1465 N1464 1.351 . S
C1465 C1466 1.434 . S
C1466 C1457 1.429 . S
C1466 N1463 1.350 . S
C1466 C1465 1.434 . S
C1467 C1468 1.369 . S
C1467 C1469 1.419 . S
C1467 H1471 0.930 . S
C1468 C1467 1.369 . S
C1468 C1477 1.429 . S
C1469 C1467 1.419 . S
C1469 C1470 1.363 . S
C1469 H1472 0.929 . S
C1470 C1469 1.363 . S
C1470 C1476 1.428 . S
H1471 C1467 0.930 . S
H1472 C1469 0.929 . S
S1473 N1474 1.613 . S
S1473 N1475 1.610 . S
N1474 S1473 1.613 . S
N1474 C1477 1.350 . S
N1475 S1473 1.610 . S
N1475 C1476 1.351 . S
C1476 C1470 1.428 . S
C1476 N1475 1.351 . S
C1476 C1477 1.434 . S
C1477 C1468 1.429 . S
C1477 N1474 1.350 . S
C1477 C1476 1.434 . S
C1478 C1479 1.369 1_455 S
C1478 C1480 1.419 . S
C1478 H1482 0.930 . S
C1479 C1478 1.369 1_655 S
C1479 C1488 1.429 . S
C1480 C1478 1.419 . S
C1480 C1481 1.363 1_455 S
C1480 H1483 0.929 . S
C1481 C1480 1.363 1_655 S
C1481 C1487 1.428 . S
H1482 C1478 0.930 . S
H1483 C1480 0.929 . S
S1484 N1485 1.613 . S
S1484 N1486 1.610 . S
N1485 S1484 1.613 . S
N1485 C1488 1.350 . S
N1486 S1484 1.610 . S
N1486 C1487 1.351 . S
C1487 C1481 1.428 . S
C1487 N1486 1.351 . S
C1487 C1488 1.434 . S
C1488 C1479 1.429 . S
C1488 N1485 1.350 . S
C1488 C1487 1.434 . S
C1489 C1490 1.369 . S
C1489 C1491 1.419 . S
C1489 H1493 0.930 . S
C1490 C1489 1.369 . S
C1490 C1499 1.429 . S
C1491 C1489 1.419 . S
C1491 C1492 1.363 . S
C1491 H1494 0.929 . S
C1492 C1491 1.363 . S
C1492 C1498 1.428 . S
H1493 C1489 0.930 . S
H1494 C1491 0.929 . S
S1495 N1496 1.613 . S
S1495 N1497 1.610 . S
N1496 S1495 1.613 . S
N1496 C1499 1.350 . S
N1497 S1495 1.610 . S
N1497 C1498 1.351 . S
C1498 C1492 1.428 . S
C1498 N1497 1.351 . S
C1498 C1499 1.434 . S
C1499 C1490 1.429 . S
C1499 N1496 1.350 . S
C1499 C1498 1.434 . S
C1500 C1501 1.369 . S
C1500 C1502 1.419 . S
C1500 H1504 0.930 . S
C1501 C1500 1.369 . S
C1501 C1510 1.429 . S
C1502 C1500 1.419 . S
C1502 C1503 1.363 . S
C1502 H1505 0.929 . S
C1503 C1502 1.363 . S
C1503 C1509 1.428 . S
H1504 C1500 0.930 . S
H1505 C1502 0.929 . S
S1506 N1507 1.613 . S
S1506 N1508 1.610 . S
N1507 S1506 1.613 . S
N1507 C1510 1.350 . S
N1508 S1506 1.610 . S
N1508 C1509 1.351 . S
C1509 C1503 1.428 . S
C1509 N1508 1.351 . S
C1509 C1510 1.434 . S
C1510 C1501 1.429 . S
C1510 N1507 1.350 . S
C1510 C1509 1.434 . S
C1511 C1512 1.369 . S
C1511 C1513 1.419 . S
C1511 H1515 0.930 . S
C1512 C1511 1.369 . S
C1512 C1521 1.429 . S
C1513 C1511 1.419 . S
C1513 C1514 1.363 . S
C1513 H1516 0.929 . S
C1514 C1513 1.363 . S
C1514 C1520 1.428 . S
H1515 C1511 0.930 . S
H1516 C1513 0.929 . S
S1517 N1518 1.613 . S
S1517 N1519 1.610 . S
N1518 S1517 1.613 . S
N1518 C1521 1.350 . S
N1519 S1517 1.610 . S
N1519 C1520 1.351 . S
C1520 C1514 1.428 . S
C1520 N1519 1.351 . S
C1520 C1521 1.434 . S
C1521 C1512 1.429 . S
C1521 N1518 1.350 . S
C1521 C1520 1.434 . S
C1522 C1523 1.369 . S
C1522 C1524 1.419 . S
C1522 H1526 0.930 . S
C1523 C1522 1.369 . S
C1523 C1532 1.429 . S
C1524 C1522 1.419 . S
C1524 C1525 1.363 . S
C1524 H1527 0.929 . S
C1525 C1524 1.363 . S
C1525 C1531 1.428 . S
H1526 C1522 0.930 . S
H1527 C1524 0.929 . S
S1528 N1529 1.613 . S
S1528 N1530 1.610 . S
N1529 S1528 1.613 . S
N1529 C1532 1.350 . S
N1530 S1528 1.610 . S
N1530 C1531 1.351 . S
C1531 C1525 1.428 . S
C1531 N1530 1.351 . S
C1531 C1532 1.434 . S
C1532 C1523 1.429 . S
C1532 N1529 1.350 . S
C1532 C1531 1.434 . S
C1533 C1534 1.369 . S
C1533 C1535 1.419 . S
C1533 H1537 0.930 . S
C1534 C1533 1.369 . S
C1534 C1543 1.429 . S
C1535 C1533 1.419 . S
C1535 C1536 1.363 . S
C1535 H1538 0.929 . S
C1536 C1535 1.363 . S
C1536 C1542 1.428 . S
H1537 C1533 0.930 . S
H1538 C1535 0.929 . S
S1539 N1540 1.613 . S
S1539 N1541 1.610 . S
N1540 S1539 1.613 . S
N1540 C1543 1.350 . S
N1541 S1539 1.610 . S
N1541 C1542 1.351 . S
C1542 C1536 1.428 . S
C1542 N1541 1.351 . S
C1542 C1543 1.434 . S
C1543 C1534 1.429 . S
C1543 N1540 1.350 . S
C1543 C1542 1.434 . S
C1544 C1545 1.369 . S
C1544 C1546 1.419 . S
C1544 H1548 0.930 . S
C1545 C1544 1.369 . S
C1545 C1554 1.429 . S
C1546 C1544 1.419 . S
C1546 C1547 1.363 . S
C1546 H1549 0.929 . S
C1547 C1546 1.363 . S
C1547 C1553 1.428 . S
H1548 C1544 0.930 . S
H1549 C1546 0.929 . S
S1550 N1551 1.613 . S
S1550 N1552 1.610 . S
N1551 S1550 1.613 . S
N1551 C1554 1.350 . S
N1552 S1550 1.610 . S
N1552 C1553 1.351 . S
C1553 C1547 1.428 . S
C1553 N1552 1.351 . S
C1553 C1554 1.434 . S
C1554 C1545 1.429 . S
C1554 N1551 1.350 . S
C1554 C1553 1.434 . S
C1555 C1556 1.369 . S
C1555 C1557 1.419 . S
C1555 H1559 0.930 . S
C1556 C1555 1.369 . S
C1556 C1565 1.429 . S
C1557 C1555 1.419 . S
C1557 C1558 1.363 . S
C1557 H1560 0.929 . S
C1558 C1557 1.363 . S
C1558 C1564 1.428 . S
H1559 C1555 0.930 . S
H1560 C1557 0.929 . S
S1561 N1562 1.613 . S
S1561 N1563 1.610 . S
N1562 S1561 1.613 . S
N1562 C1565 1.350 . S
N1563 S1561 1.610 . S
N1563 C1564 1.351 . S
C1564 C1558 1.428 . S
C1564 N1563 1.351 . S
C1564 C1565 1.434 . S
C1565 C1556 1.429 . S
C1565 N1562 1.350 . S
C1565 C1564 1.434 . S
C1566 C1567 1.369 . S
C1566 C1568 1.419 . S
C1566 H1570 0.930 . S
C1567 C1566 1.369 . S
C1567 C1576 1.429 . S
C1568 C1566 1.419 . S
C1568 C1569 1.363 . S
C1568 H1571 0.929 . S
C1569 C1568 1.363 . S
C1569 C1575 1.428 . S
H1570 C1566 0.930 . S
H1571 C1568 0.929 . S
S1572 N1573 1.613 . S
S1572 N1574 1.610 . S
N1573 S1572 1.613 . S
N1573 C1576 1.350 . S
N1574 S1572 1.610 . S
N1574 C1575 1.351 . S
C1575 C1569 1.428 . S
C1575 N1574 1.351 . S
C1575 C1576 1.434 . S
C1576 C1567 1.429 . S
C1576 N1573 1.350 . S
C1576 C1575 1.434 . S
C1577 C1578 1.369 . S
C1577 C1579 1.419 . S
C1577 H1581 0.930 . S
C1578 C1577 1.369 . S
C1578 C1587 1.429 . S
C1579 C1577 1.419 . S
C1579 C1580 1.363 . S
C1579 H1582 0.929 . S
C1580 C1579 1.363 . S
C1580 C1586 1.428 . S
H1581 C1577 0.930 . S
H1582 C1579 0.929 . S
S1583 N1584 1.613 . S
S1583 N1585 1.610 . S
N1584 S1583 1.613 . S
N1584 C1587 1.350 . S
N1585 S1583 1.610 . S
N1585 C1586 1.351 . S
C1586 C1580 1.428 . S
C1586 N1585 1.351 . S
C1586 C1587 1.434 . S
C1587 C1578 1.429 . S
C1587 N1584 1.350 . S
C1587 C1586 1.434 . S
C1588 C1589 1.369 . S
C1588 C1590 1.419 . S
C1588 H1592 0.930 . S
C1589 C1588 1.369 . S
C1589 C1598 1.429 . S
C1590 C1588 1.419 . S
C1590 C1591 1.363 . S
C1590 H1593 0.929 . S
C1591 C1590 1.363 . S
C1591 C1597 1.428 . S
H1592 C1588 0.930 . S
H1593 C1590 0.929 . S
S1594 N1595 1.613 . S
S1594 N1596 1.610 . S
N1595 S1594 1.613 . S
N1595 C1598 1.350 . S
N1596 S1594 1.610 . S
N1596 C1597 1.351 . S
C1597 C1591 1.428 . S
C1597 N1596 1.351 . S
C1597 C1598 1.434 . S
C1598 C1589 1.429 . S
C1598 N1595 1.350 . S
C1598 C1597 1.434 . S
C1599 C1600 1.369 . S
C1599 C1601 1.419 . S
C1599 H1603 0.930 . S
C1600 C1599 1.369 . S
C1600 C1609 1.429 . S
C1601 C1599 1.419 . S
C1601 C1602 1.363 . S
C1601 H1604 0.929 . S
C1602 C1601 1.363 . S
C1602 C1608 1.428 . S
H1603 C1599 0.930 . S
H1604 C1601 0.929 . S
S1605 N1606 1.613 . S
S1605 N1607 1.610 . S
N1606 S1605 1.613 . S
N1606 C1609 1.350 . S
N1607 S1605 1.610 . S
N1607 C1608 1.351 . S
C1608 C1602 1.428 . S
C1608 N1607 1.351 . S
C1608 C1609 1.434 . S
C1609 C1600 1.429 . S
C1609 N1606 1.350 . S
C1609 C1608 1.434 . S
C1610 C1611 1.369 . S
C1610 C1612 1.419 . S
C1610 H1614 0.930 . S
C1611 C1610 1.369 . S
C1611 C1620 1.429 . S
C1612 C1610 1.419 . S
C1612 C1613 1.363 . S
C1612 H1615 0.929 . S
C1613 C1612 1.363 . S
C1613 C1619 1.428 . S
H1614 C1610 0.930 . S
H1615 C1612 0.929 . S
S1616 N1617 1.613 . S
S1616 N1618 1.610 . S
N1617 S1616 1.613 . S
N1617 C1620 1.350 . S
N1618 S1616 1.610 . S
N1618 C1619 1.351 . S
C1619 C1613 1.428 . S
C1619 N1618 1.351 . S
C1619 C1620 1.434 . S
C1620 C1611 1.429 . S
C1620 N1617 1.350 . S
C1620 C1619 1.434 . S
C1621 C1622 1.369 . S
C1621 C1623 1.419 . S
C1621 H1625 0.930 . S
C1622 C1621 1.369 . S
C1622 C1631 1.429 . S
C1623 C1621 1.419 . S
C1623 C1624 1.363 . S
C1623 H1626 0.929 . S
C1624 C1623 1.363 . S
C1624 C1630 1.428 . S
H1625 C1621 0.930 . S
H1626 C1623 0.929 . S
S1627 N1628 1.613 . S
S1627 N1629 1.610 . S
N1628 S1627 1.613 . S
N1628 C1631 1.350 . S
N1629 S1627 1.610 . S
N1629 C1630 1.351 . S
C1630 C1624 1.428 . S
C1630 N1629 1.351 . S
C1630 C1631 1.434 . S
C1631 C1622 1.429 . S
C1631 N1628 1.350 . S
C1631 C1630 1.434 . S
C1632 C1633 1.369 . S
C1632 C1634 1.419 . S
C1632 H1636 0.930 . S
C1633 C1632 1.369 . S
C1633 C1642 1.429 . S
C1634 C1632 1.419 . S
C1634 C1635 1.363 . S
C1634 H1637 0.929 . S
C1635 C1634 1.363 . S
C1635 C1641 1.428 . S
H1636 C1632 0.930 . S
H1637 C1634 0.929 . S
S1638 N1639 1.613 . S
S1638 N1640 1.610 . S
N1639 S1638 1.613 . S
N1639 C1642 1.350 . S
N1640 S1638 1.610 . S
N1640 C1641 1.351 . S
C1641 C1635 1.428 . S
C1641 N1640 1.351 . S
C1641 C1642 1.434 . S
C1642 C1633 1.429 . S
C1642 N1639 1.350 . S
C1642 C1641 1.434 . S
C1643 C1644 1.369 . S
C1643 C1645 1.419 . S
C1643 H1647 0.930 . S
C1644 C1643 1.369 . S
C1644 C1653 1.429 . S
C1645 C1643 1.419 . S
C1645 C1646 1.363 . S
C1645 H1648 0.929 . S
C1646 C1645 1.363 . S
C1646 C1652 1.428 . S
H1647 C1643 0.930 . S
H1648 C1645 0.929 . S
S1649 N1650 1.613 . S
S1649 N1651 1.610 . S
N1650 S1649 1.613 . S
N1650 C1653 1.350 . S
N1651 S1649 1.610 . S
N1651 C1652 1.351 . S
C1652 C1646 1.428 . S
C1652 N1651 1.351 . S
C1652 C1653 1.434 . S
C1653 C1644 1.429 . S
C1653 N1650 1.350 . S
C1653 C1652 1.434 . S
C1654 C1655 1.369 . S
C1654 C1656 1.419 . S
C1654 H1658 0.930 . S
C1655 C1654 1.369 . S
C1655 C1664 1.429 . S
C1656 C1654 1.419 . S
C1656 C1657 1.363 . S
C1656 H1659 0.929 . S
C1657 C1656 1.363 . S
C1657 C1663 1.428 . S
H1658 C1654 0.930 . S
H1659 C1656 0.929 . S
S1660 N1661 1.613 . S
S1660 N1662 1.610 . S
N1661 S1660 1.613 . S
N1661 C1664 1.350 . S
N1662 S1660 1.610 . S
N1662 C1663 1.351 . S
C1663 C1657 1.428 . S
C1663 N1662 1.351 . S
C1663 C1664 1.434 . S
C1664 C1655 1.429 . S
C1664 N1661 1.350 . S
C1664 C1663 1.434 . S
C1665 C1666 1.369 . S
C1665 C1667 1.419 . S
C1665 H1669 0.930 . S
C1666 C1665 1.369 . S
C1666 C1675 1.429 . S
C1667 C1665 1.419 . S
C1667 C1668 1.363 . S
C1667 H1670 0.929 . S
C1668 C1667 1.363 . S
C1668 C1674 1.428 . S
H1669 C1665 0.930 . S
H1670 C1667 0.929 . S
S1671 N1672 1.613 . S
S1671 N1673 1.610 . S
N1672 S1671 1.613 . S
N1672 C1675 1.350 . S
N1673 S1671 1.610 . S
N1673 C1674 1.351 . S
C1674 C1668 1.428 . S
C1674 N1673 1.351 . S
C1674 C1675 1.434 . S
C1675 C1666 1.429 . S
C1675 N1672 1.350 . S
C1675 C1674 1.434 . S
C1676 C1677 1.369 . S
C1676 C1678 1.419 . S
C1676 H1680 0.930 . S
C1677 C1676 1.369 . S
C1677 C1686 1.429 . S
C1678 C1676 1.419 . S
C1678 C1679 1.363 . S
C1678 H1681 0.929 . S
C1679 C1678 1.363 . S
C1679 C1685 1.428 . S
H1680 C1676 0.930 . S
H1681 C1678 0.929 . S
S1682 N1683 1.613 . S
S1682 N1684 1.610 . S
N1683 S1682 1.613 . S
N1683 C1686 1.350 . S
N1684 S1682 1.610 . S
N1684 C1685 1.351 . S
C1685 C1679 1.428 . S
C1685 N1684 1.351 . S
C1685 C1686 1.434 . S
C1686 C1677 1.429 . S
C1686 N1683 1.350 . S
C1686 C1685 1.434 . S
C1687 C1688 1.369 . S
C1687 C1689 1.419 . S
C1687 H1691 0.930 . S
C1688 C1687 1.369 . S
C1688 C1697 1.429 . S
C1689 C1687 1.419 . S
C1689 C1690 1.363 . S
C1689 H1692 0.929 . S
C1690 C1689 1.363 . S
C1690 C1696 1.428 . S
H1691 C1687 0.930 . S
H1692 C1689 0.929 . S
S1693 N1694 1.613 . S
S1693 N1695 1.610 . S
N1694 S1693 1.613 . S
N1694 C1697 1.350 . S
N1695 S1693 1.610 . S
N1695 C1696 1.351 . S
C1696 C1690 1.428 . S
C1696 N1695 1.351 . S
C1696 C1697 1.434 . S
C1697 C1688 1.429 . S
C1697 N1694 1.350 . S
C1697 C1696 1.434 . S
C1698 C1699 1.369 . S
C1698 C1700 1.419 . S
C1698 H1702 0.930 . S
C1699 C1698 1.369 . S
C1699 C1708 1.429 . S
C1700 C1698 1.419 . S
C1700 C1701 1.363 . S
C1700 H1703 0.929 . S
C1701 C1700 1.363 . S
C1701 C1707 1.428 . S
H1702 C1698 0.930 . S
H1703 C1700 0.929 . S
S1704 N1705 1.613 . S
S1704 N1706 1.610 . S
N1705 S1704 1.613 . S
N1705 C1708 1.350 . S
N1706 S1704 1.610 . S
N1706 C1707 1.351 . S
C1707 C1701 1.428 . S
C1707 N1706 1.351 . S
C1707 C1708 1.434 . S
C1708 C1699 1.429 . S
C1708 N1705 1.350 . S
C1708 C1707 1.434 . S
C1709 C1710 1.369 . S
C1709 C1711 1.419 . S
C1709 H1713 0.930 . S
C1710 C1709 1.369 . S
C1710 C1719 1.429 . S
C1711 C1709 1.419 . S
C1711 C1712 1.363 . S
C1711 H1714 0.929 . S
C1712 C1711 1.363 . S
C1712 C1718 1.428 . S
H1713 C1709 0.930 . S
H1714 C1711 0.929 . S
S1715 N1716 1.613 . S
S1715 N1717 1.610 . S
N1716 S1715 1.613 . S
N1716 C1719 1.350 . S
N1717 S1715 1.610 . S
N1717 C1718 1.351 . S
C1718 C1712 1.428 . S
C1718 N1717 1.351 . S
C1718 C1719 1.434 . S
C1719 C1710 1.429 . S
C1719 N1716 1.350 . S
C1719 C1718 1.434 . S
C1720 C1721 1.369 . S
C1720 C1722 1.419 . S
C1720 H1724 0.930 . S
C1721 C1720 1.369 . S
C1721 C1730 1.429 . S
C1722 C1720 1.419 . S
C1722 C1723 1.363 . S
C1722 H1725 0.929 . S
C1723 C1722 1.363 . S
C1723 C1729 1.428 . S
H1724 C1720 0.930 . S
H1725 C1722 0.929 . S
S1726 N1727 1.613 . S
S1726 N1728 1.610 . S
N1727 S1726 1.613 . S
N1727 C1730 1.350 . S
N1728 S1726 1.610 . S
N1728 C1729 1.351 . S
C1729 C1723 1.428 . S
C1729 N1728 1.351 . S
C1729 C1730 1.434 . S
C1730 C1721 1.429 . S
C1730 N1727 1.350 . S
C1730 C1729 1.434 . S
C1731 C1732 1.369 . S
C1731 C1733 1.419 . S
C1731 H1735 0.930 . S
C1732 C1731 1.369 . S
C1732 C1741 1.429 . S
C1733 C1731 1.419 . S
C1733 C1734 1.363 . S
C1733 H1736 0.929 . S
C1734 C1733 1.363 . S
C1734 C1740 1.428 . S
H1735 C1731 0.930 . S
H1736 C1733 0.929 . S
S1737 N1738 1.613 . S
S1737 N1739 1.610 . S
N1738 S1737 1.613 . S
N1738 C1741 1.350 . S
N1739 S1737 1.610 . S
N1739 C1740 1.351 . S
C1740 C1734 1.428 . S
C1740 N1739 1.351 . S
C1740 C1741 1.434 . S
C1741 C1732 1.429 . S
C1741 N1738 1.350 . S
C1741 C1740 1.434 . S
C1742 C1743 1.369 . S
C1742 C1744 1.419 . S
C1742 H1746 0.930 . S
C1743 C1742 1.369 . S
C1743 C1752 1.429 . S
C1744 C1742 1.419 . S
C1744 C1745 1.363 . S
C1744 H1747 0.929 . S
C1745 C1744 1.363 . S
C1745 C1751 1.428 . S
H1746 C1742 0.930 . S
H1747 C1744 0.929 . S
S1748 N1749 1.613 . S
S1748 N1750 1.610 . S
N1749 S1748 1.613 . S
N1749 C1752 1.350 . S
N1750 S1748 1.610 . S
N1750 C1751 1.351 . S
C1751 C1745 1.428 . S
C1751 N1750 1.351 . S
C1751 C1752 1.434 . S
C1752 C1743 1.429 . S
C1752 N1749 1.350 . S
C1752 C1751 1.434 . S
C1753 C1754 1.369 . S
C1753 C1755 1.419 . S
C1753 H1757 0.930 . S
C1754 C1753 1.369 . S
C1754 C1763 1.429 . S
C1755 C1753 1.419 . S
C1755 C1756 1.363 . S
C1755 H1758 0.929 . S
C1756 C1755 1.363 . S
C1756 C1762 1.428 . S
H1757 C1753 0.930 . S
H1758 C1755 0.929 . S
S1759 N1760 1.613 . S
S1759 N1761 1.610 . S
N1760 S1759 1.613 . S
N1760 C1763 1.350 . S
N1761 S1759 1.610 . S
N1761 C1762 1.351 . S
C1762 C1756 1.428 . S
C1762 N1761 1.351 . S
C1762 C1763 1.434 . S
C1763 C1754 1.429 . S
C1763 N1760 1.350 . S
C1763 C1762 1.434 . S
C1764 C1765 1.369 . S
C1764 C1766 1.419 . S
C1764 H1768 0.930 . S
C1765 C1764 1.369 . S
C1765 C1774 1.429 . S
C1766 C1764 1.419 . S
C1766 C1767 1.363 . S
C1766 H1769 0.929 . S
C1767 C1766 1.363 . S
C1767 C1773 1.428 . S
H1768 C1764 0.930 . S
H1769 C1766 0.929 . S
S1770 N1771 1.613 . S
S1770 N1772 1.610 . S
N1771 S1770 1.613 . S
N1771 C1774 1.350 . S
N1772 S1770 1.610 . S
N1772 C1773 1.351 . S
C1773 C1767 1.428 . S
C1773 N1772 1.351 . S
C1773 C1774 1.434 . S
C1774 C1765 1.429 . S
C1774 N1771 1.350 . S
C1774 C1773 1.434 . S
C1775 C1776 1.369 . S
C1775 C1777 1.419 . S
C1775 H1779 0.930 . S
C1776 C1775 1.369 . S
C1776 C1785 1.429 . S
C1777 C1775 1.419 . S
C1777 C1778 1.363 . S
C1777 H1780 0.929 . S
C1778 C1777 1.363 . S
C1778 C1784 1.428 . S
H1779 C1775 0.930 . S
H1780 C1777 0.929 . S
S1781 N1782 1.613 . S
S1781 N1783 1.610 . S
N1782 S1781 1.613 . S
N1782 C1785 1.350 . S
N1783 S1781 1.610 . S
N1783 C1784 1.351 . S
C1784 C1778 1.428 . S
C1784 N1783 1.351 . S
C1784 C1785 1.434 . S
C1785 C1776 1.429 . S
C1785 N1782 1.350 . S
C1785 C1784 1.434 . S
C1786 C1787 1.369 . S
C1786 C1788 1.419 . S
C1786 H1790 0.930 . S
C1787 C1786 1.369 . S
C1787 C1796 1.429 . S
C1788 C1786 1.419 . S
C1788 C1789 1.363 . S
C1788 H1791 0.929 . S
C1789 C1788 1.363 . S
C1789 C1795 1.428 . S
H1790 C1786 0.930 . S
H1791 C1788 0.929 . S
S1792 N1793 1.613 . S
S1792 N1794 1.610 . S
N1793 S1792 1.613 . S
N1793 C1796 1.350 . S
N1794 S1792 1.610 . S
N1794 C1795 1.351 . S
C1795 C1789 1.428 . S
C1795 N1794 1.351 . S
C1795 C1796 1.434 . S
C1796 C1787 1.429 . S
C1796 N1793 1.350 . S
C1796 C1795 1.434 . S
C1797 C1798 1.369 . S
C1797 C1799 1.419 . S
C1797 H1801 0.930 . S
C1798 C1797 1.369 . S
C1798 C1807 1.429 1_556 S
C1799 C1797 1.419 . S
C1799 C1800 1.363 . S
C1799 H1802 0.929 . S
C1800 C1799 1.363 . S
C1800 C1806 1.428 . S
H1801 C1797 0.930 . S
H1802 C1799 0.929 . S
S1803 N1804 1.613 . S
S1803 N1805 1.610 . S
N1804 S1803 1.613 . S
N1804 C1807 1.350 . S
N1805 S1803 1.610 . S
N1805 C1806 1.351 1_554 S
C1806 C1800 1.428 . S
C1806 N1805 1.351 1_556 S
C1806 C1807 1.434 1_556 S
C1807 C1798 1.429 1_554 S
C1807 N1804 1.350 . S
C1807 C1806 1.434 1_554 S
C1808 C1809 1.385 . S
C1808 C1810 1.431 . S
C1808 H1812 0.902 1_556 S
C1809 C1808 1.385 . S
C1809 C1818 1.429 . S
C1810 C1808 1.431 . S
C1810 C1811 1.363 . S
C1810 H1813 0.929 . S
C1811 C1810 1.363 . S
C1811 C1817 1.428 . S
H1812 C1808 0.902 1_554 S
H1813 C1810 0.929 . S
S1814 N1815 1.613 . S
S1814 N1816 1.610 . S
N1815 S1814 1.613 . S
N1815 C1818 1.350 . S
N1816 S1814 1.610 . S
N1816 C1817 1.351 . S
C1817 C1811 1.428 . S
C1817 N1816 1.351 . S
C1817 C1818 1.434 . S
C1818 C1809 1.429 . S
C1818 N1815 1.350 . S
C1818 C1817 1.434 . S
C1819 C1820 1.369 . S
C1819 C1821 1.419 . S
C1819 H1823 0.930 . S
C1820 C1819 1.369 . S
C1820 C1829 1.429 . S
C1821 C1819 1.419 . S
C1821 C1822 1.363 . S
C1821 H1824 0.929 . S
C1822 C1821 1.363 . S
C1822 C1828 1.428 . S
H1823 C1819 0.930 . S
H1824 C1821 0.929 . S
S1825 N1826 1.613 . S
S1825 N1827 1.610 1_554 S
N1826 S1825 1.613 . S
N1826 C1829 1.350 1_554 S
N1827 S1825 1.610 1_556 S
N1827 C1828 1.351 . S
C1828 C1822 1.428 . S
C1828 N1827 1.351 . S
C1828 C1829 1.434 . S
C1829 C1820 1.429 . S
C1829 N1826 1.350 1_556 S
C1829 C1828 1.434 . S
C1830 C1831 1.369 . S
C1830 C1832 1.419 . S
C1830 H1834 0.930 1_556 S
C1831 C1830 1.369 . S
C1831 C1840 1.429 . S
C1832 C1830 1.419 . S
C1832 C1833 1.363 . S
C1832 H1835 0.929 . S
C1833 C1832 1.363 . S
C1833 C1839 1.428 . S
H1834 C1830 0.930 1_554 S
H1835 C1832 0.929 . S
S1836 N1837 1.613 . S
S1836 N1838 1.610 . S
N1837 S1836 1.613 . S
N1837 C1840 1.350 . S
N1838 S1836 1.610 . S
N1838 C1839 1.351 . S
C1839 C1833 1.428 . S
C1839 N1838 1.351 . S
C1839 C1840 1.434 . S
C1840 C1831 1.429 . S
C1840 N1837 1.350 . S
C1840 C1839 1.434 . S
C1841 C1842 1.396 . S
C1841 C1843 1.431 . S
C1841 H1845 0.890 1_556 S
C1842 C1841 1.396 . S
C1842 C1851 1.429 . S
C1843 C1841 1.431 . S
C1843 C1844 1.363 . S
C1843 H1846 0.929 1_556 S
C1844 C1843 1.363 . S
C1844 C1850 1.428 . S
H1845 C1841 0.890 1_554 S
H1846 C1843 0.929 1_554 S
S1847 N1848 1.613 . S
S1847 N1849 1.610 . S
N1848 S1847 1.613 . S
N1848 C1851 1.350 . S
N1849 S1847 1.610 . S
N1849 C1850 1.351 . S
C1850 C1844 1.428 . S
C1850 N1849 1.351 . S
C1850 C1851 1.434 . S
C1851 C1842 1.429 . S
C1851 N1848 1.350 . S
C1851 C1850 1.434 . S
C1852 C1853 1.369 1_554 S
C1852 C1854 1.419 1_554 S
C1852 H1856 0.930 . S
C1853 C1852 1.369 1_556 S
C1853 C1862 1.429 . S
C1854 C1852 1.419 1_556 S
C1854 C1855 1.363 . S
C1854 H1857 0.929 1_556 S
C1855 C1854 1.363 . S
C1855 C1861 1.428 . S
H1856 C1852 0.930 . S
H1857 C1854 0.929 1_554 S
S1858 N1859 1.613 . S
S1858 N1860 1.610 . S
N1859 S1858 1.613 . S
N1859 C1862 1.350 . S
N1860 S1858 1.610 . S
N1860 C1861 1.351 . S
C1861 C1855 1.428 . S
C1861 N1860 1.351 . S
C1861 C1862 1.434 . S
C1862 C1853 1.429 . S
C1862 N1859 1.350 . S
C1862 C1861 1.434 . S
C1863 C1864 1.369 . S
C1863 C1865 1.419 . S
C1863 H1867 0.930 . S
C1864 C1863 1.369 . S
C1864 C1873 1.429 . S
C1865 C1863 1.419 . S
C1865 C1866 1.363 . S
C1865 H1868 0.929 . S
C1866 C1865 1.363 . S
C1866 C1872 1.428 . S
H1867 C1863 0.930 . S
H1868 C1865 0.929 . S
S1869 N1870 1.613 1_556 S
S1869 N1871 1.610 1_556 S
N1870 S1869 1.613 1_554 S
N1870 C1873 1.350 . S
N1871 S1869 1.610 1_554 S
N1871 C1872 1.351 . S
C1872 C1866 1.428 . S
C1872 N1871 1.351 . S
C1872 C1873 1.434 . S
C1873 C1864 1.429 . S
C1873 N1870 1.350 . S
C1873 C1872 1.434 . S
C1874 C1875 1.369 . S
C1874 C1876 1.419 . S
C1874 H1878 0.930 . S
C1875 C1874 1.369 . S
C1875 C1884 1.429 . S
C1876 C1874 1.419 . S
C1876 C1877 1.363 . S
C1876 H1879 0.929 . S
C1877 C1876 1.363 . S
C1877 C1883 1.428 . S
H1878 C1874 0.930 . S
H1879 C1876 0.929 . S
S1880 N1881 1.613 1_556 S
S1880 N1882 1.610 1_556 S
N1881 S1880 1.613 1_554 S
N1881 C1884 1.350 . S
N1882 S1880 1.610 1_554 S
N1882 C1883 1.351 . S
C1883 C1877 1.428 . S
C1883 N1882 1.351 . S
C1883 C1884 1.434 . S
C1884 C1875 1.429 . S
C1884 N1881 1.350 . S
C1884 C1883 1.434 . S
C1885 C1886 1.369 . S
C1885 C1887 1.419 . S
C1885 H1889 0.930 . S
C1886 C1885 1.369 . S
C1886 C1895 1.429 . S
C1887 C1885 1.419 . S
C1887 C1888 1.363 . S
C1887 H1890 0.929 . S
C1888 C1887 1.363 . S
C1888 C1894 1.428 . S
H1889 C1885 0.930 . S
H1890 C1887 0.929 . S
S1891 N1892 1.613 . S
S1891 N1893 1.610 . S
N1892 S1891 1.613 . S
N1892 C1895 1.350 . S
N1893 S1891 1.610 . S
N1893 C1894 1.351 . S
C1894 C1888 1.428 . S
C1894 N1893 1.351 . S
C1894 C1895 1.434 . S
C1895 C1886 1.429 . S
C1895 N1892 1.350 . S
C1895 C1894 1.434 . S
C1896 C1897 1.369 . S
C1896 C1898 1.419 . S
C1896 H1900 0.930 . S
C1897 C1896 1.369 . S
C1897 C1906 1.429 . S
C1898 C1896 1.419 . S
C1898 C1899 1.363 . S
C1898 H1901 0.929 . S
C1899 C1898 1.363 . S
C1899 C1905 1.428 . S
H1900 C1896 0.930 . S
H1901 C1898 0.929 . S
S1902 N1903 1.613 . S
S1902 N1904 1.610 . S
N1903 S1902 1.613 . S
N1903 C1906 1.350 . S
N1904 S1902 1.610 . S
N1904 C1905 1.351 . S
C1905 C1899 1.428 . S
C1905 N1904 1.351 . S
C1905 C1906 1.434 . S
C1906 C1897 1.429 . S
C1906 N1903 1.350 . S
C1906 C1905 1.434 . S
C1907 C1908 1.369 . S
C1907 C1909 1.419 . S
C1907 H1911 0.930 . S
C1908 C1907 1.369 . S
C1908 C1917 1.429 . S
C1909 C1907 1.419 . S
C1909 C1910 1.363 . S
C1909 H1912 0.929 . S
C1910 C1909 1.363 . S
C1910 C1916 1.428 . S
H1911 C1907 0.930 . S
H1912 C1909 0.929 . S
S1913 N1914 1.613 . S
S1913 N1915 1.610 . S
N1914 S1913 1.613 . S
N1914 C1917 1.350 . S
N1915 S1913 1.610 . S
N1915 C1916 1.351 . S
C1916 C1910 1.428 . S
C1916 N1915 1.351 . S
C1916 C1917 1.434 . S
C1917 C1908 1.429 . S
C1917 N1914 1.350 . S
C1917 C1916 1.434 . S
C1918 C1919 1.369 . S
C1918 C1920 1.419 . S
C1918 H1922 0.930 . S
C1919 C1918 1.369 . S
C1919 C1928 1.429 . S
C1920 C1918 1.419 . S
C1920 C1921 1.363 . S
C1920 H1923 0.929 . S
C1921 C1920 1.363 . S
C1921 C1927 1.428 . S
H1922 C1918 0.930 . S
H1923 C1920 0.929 . S
S1924 N1925 1.613 . S
S1924 N1926 1.610 . S
N1925 S1924 1.613 . S
N1925 C1928 1.350 . S
N1926 S1924 1.610 . S
N1926 C1927 1.351 . S
C1927 C1921 1.428 . S
C1927 N1926 1.351 . S
C1927 C1928 1.434 . S
C1928 C1919 1.429 . S
C1928 N1925 1.350 . S
C1928 C1927 1.434 . S
C1929 C1930 1.369 . S
C1929 C1931 1.419 . S
C1929 H1933 0.930 . S
C1930 C1929 1.369 . S
C1930 C1939 1.429 . S
C1931 C1929 1.419 . S
C1931 C1932 1.363 . S
C1931 H1934 0.957 . S
C1932 C1931 1.363 . S
C1932 C1938 1.428 . S
H1933 C1929 0.930 . S
H1934 C1931 0.957 . S
S1935 N1936 1.613 . S
S1935 N1937 1.610 . S
N1936 S1935 1.613 . S
N1936 C1939 1.350 . S
N1937 S1935 1.610 . S
N1937 C1938 1.351 . S
C1938 C1932 1.428 . S
C1938 N1937 1.351 . S
C1938 C1939 1.434 . S
C1939 C1930 1.429 . S
C1939 N1936 1.350 . S
C1939 C1938 1.434 . S
C1940 C1941 1.369 . S
C1940 C1942 1.419 . S
C1940 H1944 0.930 . S
C1941 C1940 1.369 . S
C1941 C1950 1.429 . S
C1942 C1940 1.419 . S
C1942 C1943 1.363 . S
C1942 H1945 0.929 . S
C1943 C1942 1.363 . S
C1943 C1949 1.428 . S
H1944 C1940 0.930 . S
H1945 C1942 0.929 . S
S1946 N1947 1.613 . S
S1946 N1948 1.610 . S
N1947 S1946 1.613 . S
N1947 C1950 1.350 . S
N1948 S1946 1.610 . S
N1948 C1949 1.351 . S
C1949 C1943 1.428 . S
C1949 N1948 1.351 . S
C1949 C1950 1.434 . S
C1950 C1941 1.429 . S
C1950 N1947 1.350 . S
C1950 C1949 1.434 . S
C1951 C1952 1.369 . S
C1951 C1953 1.419 . S
C1951 H1955 0.930 . S
C1952 C1951 1.369 . S
C1952 C1961 1.429 . S
C1953 C1951 1.419 . S
C1953 C1954 1.363 . S
C1953 H1956 0.929 . S
C1954 C1953 1.363 . S
C1954 C1960 1.428 . S
H1955 C1951 0.930 . S
H1956 C1953 0.929 . S
S1957 N1958 1.613 . S
S1957 N1959 1.610 . S
N1958 S1957 1.613 . S
N1958 C1961 1.350 . S
N1959 S1957 1.610 . S
N1959 C1960 1.351 . S
C1960 C1954 1.428 . S
C1960 N1959 1.351 . S
C1960 C1961 1.434 . S
C1961 C1952 1.429 . S
C1961 N1958 1.350 . S
C1961 C1960 1.434 . S
C1962 C1963 1.369 . S
C1962 C1964 1.419 . S
C1962 H1966 0.930 . S
C1963 C1962 1.369 . S
C1963 C1972 1.429 . S
C1964 C1962 1.419 . S
C1964 C1965 1.363 . S
C1964 H1967 0.929 . S
C1965 C1964 1.363 . S
C1965 C1971 1.428 . S
H1966 C1962 0.930 . S
H1967 C1964 0.929 . S
S1968 N1969 1.636 . S
S1968 N1970 1.591 . S
N1969 S1968 1.636 . S
N1969 C1972 1.350 . S
N1970 S1968 1.591 . S
N1970 C1971 1.351 . S
C1971 C1965 1.428 . S
C1971 N1970 1.351 . S
C1971 C1972 1.434 . S
C1972 C1963 1.429 . S
C1972 N1969 1.350 . S
C1972 C1971 1.434 . S
C1973 C1974 1.400 . S
C1973 C1975 1.437 1_455 S
C1973 H1977 0.882 1_455 S
C1974 C1973 1.400 . S
C1974 C1983 1.429 . S
C1975 C1973 1.437 1_655 S
C1975 C1976 1.363 1_655 S
C1975 H1978 0.929 . S
C1976 C1975 1.363 1_455 S
C1976 C1982 1.428 . S
H1977 C1973 0.882 1_655 S
H1978 C1975 0.929 . S
S1979 N1980 1.613 . S
S1979 N1981 1.610 . S
N1980 S1979 1.613 . S
N1980 C1983 1.350 . S
N1981 S1979 1.610 . S
N1981 C1982 1.351 . S
C1982 C1976 1.428 . S
C1982 N1981 1.351 . S
C1982 C1983 1.434 . S
C1983 C1974 1.429 . S
C1983 N1980 1.350 . S
C1983 C1982 1.434 . S
C1984 C1985 1.369 . S
C1984 C1986 1.419 . S
C1984 H1988 0.930 . S
C1985 C1984 1.369 . S
C1985 C1994 1.429 . S
C1986 C1984 1.419 . S
C1986 C1987 1.363 . S
C1986 H1989 0.929 . S
C1987 C1986 1.363 . S
C1987 C1993 1.428 . S
H1988 C1984 0.930 . S
H1989 C1986 0.929 . S
S1990 N1991 1.613 . S
S1990 N1992 1.610 . S
N1991 S1990 1.613 . S
N1991 C1994 1.350 . S
N1992 S1990 1.610 . S
N1992 C1993 1.351 . S
C1993 C1987 1.428 . S
C1993 N1992 1.351 . S
C1993 C1994 1.434 . S
C1994 C1985 1.429 . S
C1994 N1991 1.350 . S
C1994 C1993 1.434 . S
C1995 C1996 1.369 . S
C1995 C1997 1.419 . S
C1995 H1999 0.930 . S
C1996 C1995 1.369 . S
C1996 C2005 1.429 . S
C1997 C1995 1.419 . S
C1997 C1998 1.363 . S
C1997 H2000 0.929 . S
C1998 C1997 1.363 . S
C1998 C2004 1.428 . S
H1999 C1995 0.930 . S
H2000 C1997 0.929 . S
S2001 N2002 1.613 . S
S2001 N2003 1.610 . S
N2002 S2001 1.613 . S
N2002 C2005 1.350 . S
N2003 S2001 1.610 . S
N2003 C2004 1.351 . S
C2004 C1998 1.428 . S
C2004 N2003 1.351 . S
C2004 C2005 1.434 . S
C2005 C1996 1.429 . S
C2005 N2002 1.350 . S
C2005 C2004 1.434 . S
C2006 C2007 1.369 . S
C2006 C2008 1.419 . S
C2006 H2010 0.930 . S
C2007 C2006 1.369 . S
C2007 C2016 1.429 . S
C2008 C2006 1.419 . S
C2008 C2009 1.363 . S
C2008 H2011 0.929 . S
C2009 C2008 1.363 . S
C2009 C2015 1.428 . S
H2010 C2006 0.930 . S
H2011 C2008 0.929 . S
S2012 N2013 1.613 . S
S2012 N2014 1.610 . S
N2013 S2012 1.613 . S
N2013 C2016 1.350 . S
N2014 S2012 1.610 . S
N2014 C2015 1.351 . S
C2015 C2009 1.428 . S
C2015 N2014 1.351 . S
C2015 C2016 1.434 . S
C2016 C2007 1.429 . S
C2016 N2013 1.350 . S
C2016 C2015 1.434 . S
C2017 C2018 1.369 . S
C2017 C2019 1.419 . S
C2017 H2021 0.930 . S
C2018 C2017 1.369 . S
C2018 C2027 1.429 . S
C2019 C2017 1.419 . S
C2019 C2020 1.363 . S
C2019 H2022 0.929 . S
C2020 C2019 1.363 . S
C2020 C2026 1.428 . S
H2021 C2017 0.930 . S
H2022 C2019 0.929 . S
S2023 N2024 1.613 . S
S2023 N2025 1.610 . S
N2024 S2023 1.613 . S
N2024 C2027 1.350 . S
N2025 S2023 1.610 . S
N2025 C2026 1.351 . S
C2026 C2020 1.428 . S
C2026 N2025 1.351 . S
C2026 C2027 1.434 . S
C2027 C2018 1.429 . S
C2027 N2024 1.350 . S
C2027 C2026 1.434 . S
C2028 C2029 1.369 . S
C2028 C2030 1.419 . S
C2028 H2032 0.930 . S
C2029 C2028 1.369 . S
C2029 C2038 1.429 1_545 S
C2030 C2028 1.419 . S
C2030 C2031 1.363 . S
C2030 H2033 0.929 . S
C2031 C2030 1.363 . S
C2031 C2037 1.428 1_545 S
H2032 C2028 0.930 . S
H2033 C2030 0.929 . S
S2034 N2035 1.613 . S
S2034 N2036 1.610 . S
N2035 S2034 1.613 . S
N2035 C2038 1.350 . S
N2036 S2034 1.610 . S
N2036 C2037 1.351 . S
C2037 C2031 1.428 1_565 S
C2037 N2036 1.351 . S
C2037 C2038 1.434 . S
C2038 C2029 1.429 1_565 S
C2038 N2035 1.350 . S
C2038 C2037 1.434 . S
C2039 C2040 1.369 . S
C2039 C2041 1.419 . S
C2039 H2043 0.930 . S
C2040 C2039 1.369 . S
C2040 C2049 1.429 . S
C2041 C2039 1.419 . S
C2041 C2042 1.363 . S
C2041 H2044 0.929 . S
C2042 C2041 1.363 . S
C2042 C2048 1.428 . S
H2043 C2039 0.930 . S
H2044 C2041 0.929 . S
S2045 N2046 1.613 . S
S2045 N2047 1.610 . S
N2046 S2045 1.613 . S
N2046 C2049 1.350 . S
N2047 S2045 1.610 . S
N2047 C2048 1.351 . S
C2048 C2042 1.428 . S
C2048 N2047 1.351 . S
C2048 C2049 1.434 . S
C2049 C2040 1.429 . S
C2049 N2046 1.350 . S
C2049 C2048 1.434 . S
C2050 C2051 1.369 . S
C2050 C2052 1.419 . S
C2050 H2054 0.930 . S
C2051 C2050 1.369 . S
C2051 C2060 1.429 . S
C2052 C2050 1.419 . S
C2052 C2053 1.363 . S
C2052 H2055 0.929 . S
C2053 C2052 1.363 . S
C2053 C2059 1.428 . S
H2054 C2050 0.930 . S
H2055 C2052 0.929 . S
S2056 N2057 1.613 . S
S2056 N2058 1.610 . S
N2057 S2056 1.613 . S
N2057 C2060 1.350 . S
N2058 S2056 1.610 . S
N2058 C2059 1.351 . S
C2059 C2053 1.428 . S
C2059 N2058 1.351 . S
C2059 C2060 1.434 . S
C2060 C2051 1.429 . S
C2060 N2057 1.350 . S
C2060 C2059 1.434 . S
C2061 C2062 1.369 . S
C2061 C2063 1.419 . S
C2061 H2065 0.930 . S
C2062 C2061 1.369 . S
C2062 C2071 1.429 . S
C2063 C2061 1.419 . S
C2063 C2064 1.363 . S
C2063 H2066 0.929 . S
C2064 C2063 1.363 . S
C2064 C2070 1.428 . S
H2065 C2061 0.930 . S
H2066 C2063 0.929 . S
S2067 N2068 1.613 . S
S2067 N2069 1.610 . S
N2068 S2067 1.613 . S
N2068 C2071 1.350 . S
N2069 S2067 1.610 . S
N2069 C2070 1.351 . S
C2070 C2064 1.428 . S
C2070 N2069 1.351 . S
C2070 C2071 1.434 . S
C2071 C2062 1.429 . S
C2071 N2068 1.350 . S
C2071 C2070 1.434 . S
C2072 C2073 1.369 . S
C2072 C2074 1.419 . S
C2072 H2076 0.930 . S
C2073 C2072 1.369 . S
C2073 C2082 1.429 . S
C2074 C2072 1.419 . S
C2074 C2075 1.363 . S
C2074 H2077 0.929 . S
C2075 C2074 1.363 . S
C2075 C2081 1.428 . S
H2076 C2072 0.930 . S
H2077 C2074 0.929 . S
S2078 N2079 1.613 . S
S2078 N2080 1.610 . S
N2079 S2078 1.613 . S
N2079 C2082 1.350 . S
N2080 S2078 1.610 . S
N2080 C2081 1.351 . S
C2081 C2075 1.428 . S
C2081 N2080 1.351 . S
C2081 C2082 1.434 . S
C2082 C2073 1.429 . S
C2082 N2079 1.350 . S
C2082 C2081 1.434 . S
C2083 C2084 1.369 . S
C2083 C2085 1.419 . S
C2083 H2087 0.930 . S
C2084 C2083 1.369 . S
C2084 C2093 1.429 . S
C2085 C2083 1.419 . S
C2085 C2086 1.363 . S
C2085 H2088 0.929 . S
C2086 C2085 1.363 . S
C2086 C2092 1.428 . S
H2087 C2083 0.930 . S
H2088 C2085 0.929 . S
S2089 N2090 1.613 . S
S2089 N2091 1.610 . S
N2090 S2089 1.613 . S
N2090 C2093 1.350 . S
N2091 S2089 1.610 . S
N2091 C2092 1.351 . S
C2092 C2086 1.428 . S
C2092 N2091 1.351 . S
C2092 C2093 1.434 . S
C2093 C2084 1.429 . S
C2093 N2090 1.350 . S
C2093 C2092 1.434 . S
C2094 C2095 1.369 . S
C2094 C2096 1.419 . S
C2094 H2098 0.930 . S
C2095 C2094 1.369 . S
C2095 C2104 1.429 . S
C2096 C2094 1.419 . S
C2096 C2097 1.363 . S
C2096 H2099 0.929 . S
C2097 C2096 1.363 . S
C2097 C2103 1.428 . S
H2098 C2094 0.930 . S
H2099 C2096 0.929 . S
S2100 N2101 1.613 . S
S2100 N2102 1.610 . S
N2101 S2100 1.613 . S
N2101 C2104 1.350 . S
N2102 S2100 1.610 . S
N2102 C2103 1.351 . S
C2103 C2097 1.428 . S
C2103 N2102 1.351 . S
C2103 C2104 1.434 . S
C2104 C2095 1.429 . S
C2104 N2101 1.350 . S
C2104 C2103 1.434 . S
C2105 C2106 1.369 . S
C2105 C2107 1.419 . S
C2105 H2109 0.930 . S
C2106 C2105 1.369 . S
C2106 C2115 1.429 . S
C2107 C2105 1.419 . S
C2107 C2108 1.363 . S
C2107 H2110 0.929 . S
C2108 C2107 1.363 . S
C2108 C2114 1.428 . S
H2109 C2105 0.930 . S
H2110 C2107 0.929 . S
S2111 N2112 1.613 . S
S2111 N2113 1.610 . S
N2112 S2111 1.613 . S
N2112 C2115 1.350 . S
N2113 S2111 1.610 . S
N2113 C2114 1.351 . S
C2114 C2108 1.428 . S
C2114 N2113 1.351 . S
C2114 C2115 1.434 . S
C2115 C2106 1.429 . S
C2115 N2112 1.350 . S
C2115 C2114 1.434 . S
C2116 C2117 1.369 . S
C2116 C2118 1.419 . S
C2116 H2120 0.930 . S
C2117 C2116 1.369 . S
C2117 C2126 1.429 . S
C2118 C2116 1.419 . S
C2118 C2119 1.363 . S
C2118 H2121 0.929 . S
C2119 C2118 1.363 . S
C2119 C2125 1.428 . S
H2120 C2116 0.930 . S
H2121 C2118 0.929 . S
S2122 N2123 1.613 . S
S2122 N2124 1.610 . S
N2123 S2122 1.613 . S
N2123 C2126 1.350 . S
N2124 S2122 1.610 . S
N2124 C2125 1.351 . S
C2125 C2119 1.428 . S
C2125 N2124 1.351 . S
C2125 C2126 1.434 . S
C2126 C2117 1.429 . S
C2126 N2123 1.350 . S
C2126 C2125 1.434 . S
C2127 C2128 1.369 . S
C2127 C2129 1.419 . S
C2127 H2131 0.930 . S
C2128 C2127 1.369 . S
C2128 C2137 1.447 . S
C2129 C2127 1.419 . S
C2129 C2130 1.363 . S
C2129 H2132 0.929 . S
C2130 C2129 1.363 . S
C2130 C2136 1.428 1_655 S
H2131 C2127 0.930 . S
H2132 C2129 0.929 . S
S2133 N2134 1.613 . S
S2133 N2135 1.610 . S
N2134 S2133 1.613 . S
N2134 C2137 1.344 1_455 S
N2135 S2133 1.610 . S
N2135 C2136 1.351 . S
C2136 C2130 1.428 1_455 S
C2136 N2135 1.351 . S
C2136 C2137 1.419 1_455 S
C2137 C2128 1.447 . S
C2137 N2134 1.344 1_655 S
C2137 C2136 1.419 1_655 S
C2138 C2139 1.369 . S
C2138 C2140 1.419 . S
C2138 H2142 0.930 . S
C2139 C2138 1.369 . S
C2139 C2148 1.429 . S
C2140 C2138 1.419 . S
C2140 C2141 1.363 . S
C2140 H2143 0.929 . S
C2141 C2140 1.363 . S
C2141 C2147 1.428 . S
H2142 C2138 0.930 . S
H2143 C2140 0.929 . S
S2144 N2145 1.613 . S
S2144 N2146 1.610 . S
N2145 S2144 1.613 . S
N2145 C2148 1.350 . S
N2146 S2144 1.610 . S
N2146 C2147 1.351 . S
C2147 C2141 1.428 . S
C2147 N2146 1.351 . S
C2147 C2148 1.434 . S
C2148 C2139 1.429 . S
C2148 N2145 1.350 . S
C2148 C2147 1.434 . S
C2149 C2150 1.369 . S
C2149 C2151 1.419 . S
C2149 H2153 0.930 . S
C2150 C2149 1.369 . S
C2150 C2159 1.429 . S
C2151 C2149 1.419 . S
C2151 C2152 1.363 . S
C2151 H2154 0.929 . S
C2152 C2151 1.363 . S
C2152 C2158 1.428 . S
H2153 C2149 0.930 . S
H2154 C2151 0.929 . S
S2155 N2156 1.613 1_565 S
S2155 N2157 1.610 . S
N2156 S2155 1.613 1_545 S
N2156 C2159 1.350 . S
N2157 S2155 1.610 . S
N2157 C2158 1.351 1_565 S
C2158 C2152 1.428 . S
C2158 N2157 1.351 1_545 S
C2158 C2159 1.434 . S
C2159 C2150 1.429 . S
C2159 N2156 1.350 . S
C2159 C2158 1.434 . S
C1369 C9 1.596 1_655 S
C1371 C857 1.527 . S
C1380 C19 1.624 . S
C1382 C901 1.591 . S
C1393 C981 1.556 . S
C1391 C33 1.618 . S
C1402 C37 1.615 1_565 S
C1404 C1025 1.573 . S
C1413 C5 1.586 . S
C1415 C1105 1.535 . S
C1424 C23 1.666 . S
C1426 C1167 1.582 . S
C1435 C47 1.598 . S
C1437 C1087 1.536 . S
C1448 C1149 1.584 . S
C1446 C65 1.672 . S
C1459 C1043 1.556 . S
C1457 C75 1.592 . S
C1468 C79 1.575 . S
C1470 C963 1.509 . S
C1481 C839 1.558 . S
C1479 C51 1.626 1_655 S
C1490 C61 1.646 . S
C1492 C919 1.614 . S
C1501 C93 1.717 . S
C1503 C1229 1.615 . S
C1512 C103 1.662 . S
C1514 C1273 1.634 . S
C1525 C1353 1.612 . S
C1523 C117 1.697 . S
C1534 C121 1.691 . S
C1536 C299 1.600 . S
C1545 C89 1.682 . S
C1547 C343 1.650 . S
C1556 C107 1.700 . S
C1558 C423 1.614 . S
C1567 C131 1.671 . S
C1569 C361 1.629 . S
C1578 C149 1.700 . S
C1580 C405 1.615 . S
C1591 C281 1.581 . S
C1589 C159 1.668 . S
C1602 C1335 1.605 . S
C1600 C163 1.690 . S
C1613 C1211 1.627 . S
C1611 C135 1.732 . S
C1624 C1291 1.658 . S
C1622 C145 1.687 . S
C1633 C177 1.687 . S
C1635 C485 1.593 . S
C1644 C187 1.648 . S
C1646 C547 1.572 . S
C1655 C201 1.695 . S
C1657 C591 1.657 . S
C1666 C205 1.723 . S
C1668 C653 1.681 . S
C1679 C715 1.654 . S
C1677 C173 1.687 . S
C1690 C795 1.619 . S
C1688 C191 1.714 . S
C1701 C733 1.663 . S
C1699 C215 1.706 . S
C1712 C777 1.632 . S
C1710 C233 1.719 . S
C1721 C243 1.664 . S
C1723 C671 1.632 . S
C1734 C609 1.616 . S
C1732 C247 1.654 . S
C1743 C219 1.730 . S
C1745 C467 1.628 . S
C1756 C529 1.604 . S
C1754 C229 1.682 . S
C1767 C305 1.470 . S
C1765 C11 1.564 . S
C1776 C14 1.569 . S
C1778 C349 1.492 . S
C1789 C429 1.539 . S
C1787 C28 1.639 . S
C1800 C491 1.537 . S
C1798 C39 1.631 . S
C1811 C553 1.482 . S
C1809 C0 1.588 . S
C1822 C597 1.454 . S
C1820 C25 1.527 . S
C1831 C42 1.630 . S
C1833 C615 1.556 . S
C1842 C67 1.575 . S
C1844 C473 1.475 . S
C1853 C70 1.541 . S
C1855 C535 1.436 . S
C1864 C81 1.562 . S
C1866 C367 1.495 . S
C1877 C411 1.513 . S
C1875 C53 1.607 . S
C1886 C56 1.603 . S
C1888 C287 1.492 . S
C1899 C659 1.481 . S
C1897 C95 1.560 . S
C1908 C98 1.609 . S
C1910 C721 1.527 . S
C1919 C112 1.689 . S
C1921 C801 1.567 . S
C1932 C863 1.437 . S
C1930 C123 1.510 . S
C1941 C84 1.574 . S
C1943 C907 1.491 . S
C1952 C109 1.451 . S
C1954 C987 1.379 . S
C1963 C126 1.530 . S
C1965 C969 1.448 . S
C1974 C151 1.487 . S
C1976 C845 1.416 . S
C1987 C925 1.465 . S
C1985 C154 1.544 . S
C1996 C165 1.554 . S
C1998 C739 1.476 . S
C2007 C137 1.626 . S
C2009 C783 1.522 . S
C2020 C677 1.560 . S
C2018 C140 1.644 . S
C2031 C1031 1.420 . S
C2029 C179 1.480 . S
C2040 C182 1.482 . S
C2042 C1111 1.409 . S
C2051 C196 1.622 . S
C2053 C1173 1.529 . S
C2064 C1235 1.524 . S
C2062 C207 1.625 . S
C2075 C1279 1.523 . S
C2073 C168 1.612 . S
C2084 C193 1.575 . S
C2086 C1359 1.472 . S
C2095 C210 1.631 . S
C2097 C1341 1.523 . S
C2106 C235 1.616 . S
C2108 C1217 1.520 . S
C2119 C1297 1.495 . S
C2117 C238 1.580 . S
C2130 C1093 1.378 . S
C2128 C249 1.447 . S
C2141 C1155 1.497 . S
C2139 C221 1.587 . S
C2150 C224 1.524 . S
C2152 C1049 1.458 . S
