# Generated by pormake.
# Topology sqc, (4,8)-cn, num edge types: 1
# Building blocks:
#     Node 0, Type 0, BuildingBlock: GIZVER_clean_linker_0, # of connection points: 4
#     Node 1, Type 0, BuildingBlock: GIZVER_clean_linker_0, # of connection points: 4
#     Node 2, Type 0, BuildingBlock: GIZVER_clean_linker_0, # of connection points: 4
#     Node 3, Type 0, BuildingBlock: GIZVER_clean_linker_0, # of connection points: 4
#     Node 4, Type 0, BuildingBlock: GIZVER_clean_linker_0, # of connection points: 4
#     Node 5, Type 0, BuildingBlock: GIZVER_clean_linker_0, # of connection points: 4
#     Node 6, Type 0, BuildingBlock: GIZVER_clean_linker_0, # of connection points: 4
#     Node 7, Type 0, BuildingBlock: GIZVER_clean_linker_0, # of connection points: 4
#     Node 8, Type 1, BuildingBlock: VETTIZ_charged_sbu_0, # of connection points: 8
#     Node 9, Type 1, BuildingBlock: VETTIZ_charged_sbu_0, # of connection points: 8
#     Node 10, Type 1, BuildingBlock: VETTIZ_charged_sbu_0, # of connection points: 8
#     Node 11, Type 1, BuildingBlock: VETTIZ_charged_sbu_0, # of connection points: 8
#     Edge 12, Type (0, 1), BuildingBlock: XIVTED_clean_linker_0, # of connection points: 2
#     Edge 13, Type (0, 1), BuildingBlock: XIVTED_clean_linker_0, # of connection points: 2
#     Edge 14, Type (0, 1), BuildingBlock: XIVTED_clean_linker_0, # of connection points: 2
#     Edge 15, Type (0, 1), BuildingBlock: XIVTED_clean_linker_0, # of connection points: 2
#     Edge 16, Type (0, 1), BuildingBlock: XIVTED_clean_linker_0, # of connection points: 2
#     Edge 17, Type (0, 1), BuildingBlock: XIVTED_clean_linker_0, # of connection points: 2
#     Edge 18, Type (0, 1), BuildingBlock: XIVTED_clean_linker_0, # of connection points: 2
#     Edge 19, Type (0, 1), BuildingBlock: XIVTED_clean_linker_0, # of connection points: 2
#     Edge 20, Type (0, 1), BuildingBlock: XIVTED_clean_linker_0, # of connection points: 2
#     Edge 21, Type (0, 1), BuildingBlock: XIVTED_clean_linker_0, # of connection points: 2
#     Edge 22, Type (0, 1), BuildingBlock: XIVTED_clean_linker_0, # of connection points: 2
#     Edge 23, Type (0, 1), BuildingBlock: XIVTED_clean_linker_0, # of connection points: 2
#     Edge 24, Type (0, 1), BuildingBlock: XIVTED_clean_linker_0, # of connection points: 2
#     Edge 25, Type (0, 1), BuildingBlock: XIVTED_clean_linker_0, # of connection points: 2
#     Edge 26, Type (0, 1), BuildingBlock: XIVTED_clean_linker_0, # of connection points: 2
#     Edge 27, Type (0, 1), BuildingBlock: XIVTED_clean_linker_0, # of connection points: 2
#     Edge 28, Type (0, 1), BuildingBlock: XIVTED_clean_linker_0, # of connection points: 2
#     Edge 29, Type (0, 1), BuildingBlock: XIVTED_clean_linker_0, # of connection points: 2
#     Edge 30, Type (0, 1), BuildingBlock: XIVTED_clean_linker_0, # of connection points: 2
#     Edge 31, Type (0, 1), BuildingBlock: XIVTED_clean_linker_0, # of connection points: 2
#     Edge 32, Type (0, 1), BuildingBlock: XIVTED_clean_linker_0, # of connection points: 2
#     Edge 33, Type (0, 1), BuildingBlock: XIVTED_clean_linker_0, # of connection points: 2
#     Edge 34, Type (0, 1), BuildingBlock: XIVTED_clean_linker_0, # of connection points: 2
#     Edge 35, Type (0, 1), BuildingBlock: XIVTED_clean_linker_0, # of connection points: 2
#     Edge 36, Type (0, 1), BuildingBlock: XIVTED_clean_linker_0, # of connection points: 2
#     Edge 37, Type (0, 1), BuildingBlock: XIVTED_clean_linker_0, # of connection points: 2
#     Edge 38, Type (0, 1), BuildingBlock: XIVTED_clean_linker_0, # of connection points: 2
#     Edge 39, Type (0, 1), BuildingBlock: XIVTED_clean_linker_0, # of connection points: 2
#     Edge 40, Type (0, 1), BuildingBlock: XIVTED_clean_linker_0, # of connection points: 2
#     Edge 41, Type (0, 1), BuildingBlock: XIVTED_clean_linker_0, # of connection points: 2
#     Edge 42, Type (0, 1), BuildingBlock: XIVTED_clean_linker_0, # of connection points: 2
#     Edge 43, Type (0, 1), BuildingBlock: XIVTED_clean_linker_0, # of connection points: 2
# Relax obj value: 0.167
# Max RMSD: 0.279
# Mean RMSD: 0.219
data_MOF--net-sqc--node1-VETTIZ_charged_sbu_0--node2-GIZVER_clean_linker_0--edge1-XIVTED_clean_linker_0
_symmetry_space_group_name_H-M    P1
_symmetry_Int_Tables_number       1
_symmetry_cell_setting            triclinic
loop_
_symmetry_equiv_pos_as_xyz
'x, y, z'
_cell_length_a     25.185774
_cell_length_b     25.014079
_cell_length_c     68.24524
_cell_angle_alpha  90.200043
_cell_angle_beta   90.326984
_cell_angle_gamma 90.101474
loop_
_atom_site_label
_atom_site_type_symbol
_atom_site_fract_x
_atom_site_fract_y
_atom_site_fract_z
_atom_type_partial_charge
H0 H 0.96503 0.98387 0.48405 0.0
H1 H 0.93251 0.07467 0.53644 0.0
H2 H 0.82367 0.95334 0.51708 0.0
H3 H 0.00376 0.07588 0.49084 0.0
H4 H 0.99968 0.10451 0.51461 0.0
H5 H 0.07406 0.01513 0.48259 0.0
H6 H 0.20296 1.00203 0.52373 0.0
H7 H 0.05448 0.068 0.54232 0.0
C8 C 0.94134 0.99049 0.49703 0.0
C9 C 0.89336 0.96236 0.49935 0.0
C10 C 0.95706 0.02962 0.5109 0.0
C11 C 0.92305 0.04164 0.52671 0.0
C12 C 0.87419 0.01502 0.52866 0.0
C13 C 0.86163 0.97348 0.51564 0.0
C14 C 0.00394 0.06578 0.50671 0.0
C15 C 0.0571 0.04149 0.51212 0.0
C16 C 0.08927 0.01882 0.49742 0.0
C17 C 0.14194 1.00387 0.50156 0.0
C18 C 0.16145 0.01022 0.52072 0.0
C19 C 0.13055 0.03293 0.53556 0.0
C20 C 0.07803 0.04824 0.53121 0.0
H21 H 0.31905 0.81553 0.74261 0.0
H22 H 0.22765 0.80376 0.79545 0.0
H23 H 0.19688 0.93058 0.75487 0.0
H24 H 0.35557 0.77185 0.77228 0.0
H25 H 0.31598 0.7643 0.79358 0.0
H26 H 0.34028 0.71336 0.74277 0.0
H27 H 0.27805 0.55809 0.75565 0.0
H28 H 0.26645 0.68386 0.79856 0.0
C29 C 0.28672 0.82975 0.75161 0.0
C30 C 0.25786 0.87553 0.74598 0.0
C31 C 0.27634 0.80391 0.76951 0.0
C32 C 0.23501 0.82275 0.78147 0.0
C33 C 0.20519 0.86772 0.77594 0.0
C34 C 0.21699 0.8935 0.75825 0.0
C35 C 0.31465 0.76241 0.77729 0.0
C36 C 0.30082 0.70624 0.77078 0.0
C37 C 0.31822 0.6873 0.75243 0.0
C38 C 0.3098 0.6338 0.74707 0.0
C39 C 0.28375 0.5995 0.75995 0.0
C40 C 0.26988 0.61614 0.77886 0.0
C41 C 0.27667 0.67033 0.78397 0.0
H42 H 0.56366 0.03916 0.04214 0.0
H43 H 0.55993 0.08393 0.9812 0.0
H44 H 0.69601 1.00334 0.0052 0.0
H45 H 0.50144 0.10696 0.03031 0.0
H46 H 0.50063 0.12647 0.00519 0.0
H47 H 0.46127 0.01842 0.04021 0.0
H48 H 0.33201 0.96462 0.00415 0.0
H49 H 0.43673 0.08927 0.98381 0.0
C50 C 0.5812 0.03828 0.02767 0.0
C51 C 0.63228 0.01741 0.02525 0.0
C52 C 0.55458 0.06198 0.01175 0.0
C53 C 0.57927 0.06356 0.99327 0.0
C54 C 0.63028 0.04187 0.99071 0.0
C55 C 0.65567 0.01787 0.00671 0.0
C56 C 0.50307 0.09121 0.01505 0.0
C57 C 0.45611 0.05484 0.01164 0.0
C58 C 0.43991 0.01953 0.02638 0.0
C59 C 0.39477 0.98752 0.02371 0.0
C60 C 0.36657 0.98995 0.00595 0.0
C61 C 0.37966 0.02788 0.99151 0.0
C62 C 0.42577 0.0591 0.99436 0.0
H63 H 0.15854 0.21359 0.24806 0.0
H64 H 0.25814 0.21173 0.29975 0.0
H65 H 0.25569 0.07723 0.26028 0.0
H66 H 0.14567 0.27995 0.27262 0.0
H67 H 0.17375 0.26984 0.29624 0.0
H68 H 0.19164 0.33643 0.24799 0.0
H69 H 0.30344 0.45043 0.27182 0.0
H70 H 0.24567 0.32379 0.30773 0.0
C71 C 0.1889 0.19467 0.25695 0.0
C72 C 0.20647 0.14324 0.25196 0.0
C73 C 0.20841 0.22052 0.27393 0.0
C74 C 0.24495 0.19338 0.28616 0.0
C75 C 0.26289 0.14178 0.28114 0.0
C76 C 0.24411 0.11789 0.26381 0.0
C77 C 0.1839 0.27292 0.28044 0.0
C78 C 0.21984 0.32087 0.27739 0.0
C79 C 0.21806 0.34981 0.25958 0.0
C80 C 0.2463 0.3984 0.25761 0.0
C81 C 0.27976 0.4144 0.27308 0.0
C82 C 0.27722 0.38979 0.29137 0.0
C83 C 0.2486 0.34214 0.29341 0.0
H84 H 0.6608 0.30011 0.27481 0.0
H85 H 0.72907 0.34078 0.21888 0.0
H86 H 0.71992 0.45839 0.26474 0.0
H87 H 0.63921 0.24884 0.24278 0.0
H88 H 0.67968 0.25939 0.22181 0.0
H89 H 0.67131 0.19843 0.27085 0.0
H90 H 0.80777 0.09896 0.26204 0.0
H91 H 0.7682 0.21913 0.21963 0.0
C92 C 0.68038 0.3286 0.26534 0.0
C93 C 0.69104 0.3805 0.27225 0.0
C94 C 0.69457 0.31378 0.24608 0.0
C95 C 0.71861 0.35177 0.23373 0.0
C96 C 0.72846 0.40401 0.24045 0.0
C97 C 0.7145 0.41759 0.25967 0.0
C98 C 0.68023 0.25916 0.23812 0.0
C99 C 0.71801 0.21642 0.24528 0.0
C100 C 0.70677 0.18862 0.26268 0.0
C101 C 0.73828 0.14519 0.2685 0.0
C102 C 0.78339 0.13243 0.25752 0.0
C103 C 0.79379 0.15737 0.23959 0.0
C104 C 0.76129 0.20013 0.23364 0.0
H105 H 0.64942 0.71592 0.74567 0.0
H106 H 0.76433 0.736 0.79223 0.0
H107 H 0.76522 0.59408 0.75637 0.0
H108 H 0.64339 0.79296 0.76567 0.0
H109 H 0.66224 0.77781 0.79014 0.0
H110 H 0.70526 0.84799 0.74457 0.0
H111 H 0.79928 0.96287 0.77694 0.0
H112 H 0.72052 0.83659 0.80719 0.0
C113 C 0.68432 0.70226 0.75354 0.0
C114 C 0.70622 0.65225 0.74884 0.0
C115 C 0.70605 0.73365 0.76885 0.0
C116 C 0.74912 0.71342 0.77983 0.0
C117 C 0.77125 0.66329 0.77526 0.0
C118 C 0.75009 0.63377 0.75949 0.0
C119 C 0.67835 0.78456 0.77521 0.0
C120 C 0.71431 0.83329 0.77549 0.0
C121 C 0.7237 0.86189 0.75803 0.0
C122 C 0.75232 0.91054 0.75838 0.0
C123 C 0.77514 0.92703 0.77624 0.0
C124 C 0.76144 0.90256 0.79386 0.0
C125 C 0.73202 0.85499 0.7935 0.0
H126 H 0.43034 0.51668 0.04728 0.0
H127 H 0.45655 0.47748 0.98651 0.0
H128 H 0.3101 0.55004 0.00446 0.0
H129 H 0.50399 0.46365 0.03925 0.0
H130 H 0.49946 0.42762 0.01691 0.0
H131 H 0.56604 0.53952 0.04291 0.0
H132 H 0.6944 0.54193 0.00168 0.0
H133 H 0.55422 0.45056 0.98881 0.0
C134 C 0.41799 0.51851 0.03206 0.0
C135 C 0.36649 0.53601 0.02746 0.0
C136 C 0.45156 0.49835 0.01727 0.0
C137 C 0.4327 0.49641 0.99771 0.0
C138 C 0.38161 0.51557 0.9929 0.0
C139 C 0.35011 0.53692 0.00784 0.0
C140 C 0.50181 0.46879 0.02308 0.0
C141 C 0.55276 0.49473 0.01611 0.0
C142 C 0.58206 0.52877 0.02873 0.0
C143 C 0.63312 0.54659 0.02349 0.0
C144 C 0.65401 0.53085 0.00534 0.0
C145 C 0.62611 0.4963 0.99278 0.0
C146 C 0.57519 0.4788 0.99814 0.0
H147 H 0.05812 0.52475 0.55219 0.0
H148 H 0.06967 0.60938 0.49762 0.0
H149 H 0.17846 0.48221 0.51065 0.0
H150 H 0.01574 0.6123 0.54807 0.0
H151 H 0.02097 0.64779 0.52544 0.0
H152 H 0.9579 0.5291 0.5496 0.0
H153 H 0.82341 0.53 0.5105 0.0
H154 H 0.95274 0.6384 0.50095 0.0
C155 C 0.07638 0.52972 0.53797 0.0
C156 C 0.11907 0.497 0.53258 0.0
C157 C 0.05824 0.57008 0.52535 0.0
C158 C 0.08287 0.57738 0.50713 0.0
C159 C 0.12612 0.54537 0.50162 0.0
C160 C 0.14314 0.50476 0.51429 0.0
C161 C 0.01489 0.60742 0.53186 0.0
C162 C 0.96162 0.58552 0.52577 0.0
C163 C 0.9379 0.54444 0.5367 0.0
C164 C 0.88826 0.52363 0.53116 0.0
C165 C 0.86286 0.54398 0.51442 0.0
C166 C 0.88568 0.58539 0.50357 0.0
C167 C 0.93523 0.60599 0.50922 0.0
Fe168 Fe 1.00313 0.73953 0.18399 0.0
O169 O 0.00635 0.7345 0.15524 0.0
Fe170 Fe 0.94625 0.77115 0.13859 0.0
Fe171 Fe 0.06915 0.76051 0.14023 0.0
O172 O 1.00087 0.73415 0.15505 0.0
O173 O 0.00914 0.79799 0.12386 0.0
O174 O 0.01451 0.79808 0.12402 0.0
Fe175 Fe 0.01396 0.7975 0.09533 0.0
C176 C 0.079 0.83053 0.17586 0.0
O177 O 0.05786 0.67898 0.18148 0.0
O178 O 0.11753 0.7147 0.15939 0.0
O179 O 0.95134 0.74542 0.09174 0.0
O180 O 0.93723 0.70538 0.12039 0.0
O181 O 0.88751 0.73646 0.15653 0.0
O182 O 0.93569 0.69418 0.18097 0.0
O183 O 0.06652 0.69433 0.1225 0.0
O184 O 0.06644 0.73428 0.0933 0.0
C185 C 0.89268 0.70256 0.17091 0.0
O186 O 0.95555 0.85557 0.09813 0.0
O187 O 0.89773 0.81519 0.11974 0.0
O188 O 0.06695 0.79112 0.18669 0.0
O189 O 0.0751 0.82785 0.15736 0.0
C190 C 0.10291 0.67921 0.17232 0.0
C191 C 0.07818 0.69507 0.1044 0.0
C192 C 0.12465 0.83036 0.10875 0.0
O193 O 0.12804 0.79388 0.1223 0.0
O194 O 0.08121 0.84416 0.09967 0.0
C195 C 0.92955 0.70895 0.10193 0.0
O196 O 0.95058 0.83856 0.15564 0.0
O197 O 0.95361 0.80556 0.18584 0.0
C198 C 0.90933 0.85048 0.10645 0.0
C199 C 0.94584 0.84411 0.17402 0.0
Fe200 Fe 0.48247 0.78392 0.43699 0.0
O201 O 0.47483 0.77609 0.40844 0.0
Fe202 Fe 0.50822 0.83596 0.3908 0.0
Fe203 Fe 0.50071 0.712 0.39378 0.0
O204 O 0.47457 0.78157 0.40822 0.0
O205 O 0.53482 0.77178 0.37627 0.0
O206 O 0.53453 0.76626 0.3764 0.0
Fe207 Fe 0.52962 0.7633 0.34776 0.0
C208 C 0.57512 0.70951 0.42843 0.0
O209 O 0.42694 0.7242 0.43658 0.0
O210 O 0.45955 0.66362 0.41399 0.0
O211 O 0.4762 0.82488 0.34437 0.0
O212 O 0.44069 0.84097 0.37358 0.0
O213 O 0.47259 0.89573 0.40857 0.0
O214 O 0.43253 0.84735 0.43335 0.0
O215 O 0.43274 0.71125 0.37725 0.0
O216 O 0.46832 0.70799 0.34749 0.0
C217 C 0.43846 0.88992 0.4228 0.0
O218 O 0.58588 0.82389 0.34881 0.0
O219 O 0.54868 0.88393 0.37065 0.0
O220 O 0.53827 0.72432 0.43988 0.0
O221 O 0.56954 0.70962 0.40994 0.0
C222 C 0.42809 0.67753 0.42825 0.0
C223 C 0.43149 0.69621 0.35946 0.0
C224 C 0.56684 0.65409 0.36166 0.0
O225 O 0.533 0.65157 0.376 0.0
O226 O 0.57821 0.69721 0.35188 0.0
C227 C 0.44165 0.84766 0.35507 0.0
O228 O 0.57737 0.83513 0.40725 0.0
O229 O 0.54323 0.83921 0.43707 0.0
C230 C 0.58147 0.8713 0.35666 0.0
C231 C 0.5826 0.84262 0.42557 0.0
Fe232 Fe 0.51574 0.22864 0.68574 0.0
O233 O 0.5171 0.22383 0.65704 0.0
Fe234 Fe 0.45019 0.25037 0.64131 0.0
Fe235 Fe 0.57396 0.25714 0.64086 0.0
O236 O 0.51164 0.22254 0.6569 0.0
O237 O 0.50694 0.28477 0.62524 0.0
O238 O 0.51258 0.28544 0.62527 0.0
Fe239 Fe 0.50776 0.28082 0.59656 0.0
C240 C 0.57844 0.33007 0.67613 0.0
O241 O 0.57963 0.17819 0.68271 0.0
O242 O 0.63062 0.22053 0.6593 0.0
O243 O 0.4497 0.22328 0.59498 0.0
O244 O 0.44852 0.18299 0.62377 0.0
O245 O 0.39938 0.20744 0.66031 0.0
O246 O 0.45744 0.17173 0.68315 0.0
O247 O 0.57889 0.18913 0.62393 0.0
O248 O 0.56588 0.22358 0.59419 0.0
C249 C 0.41304 0.17192 0.67341 0.0
O250 O 0.44405 0.33193 0.59981 0.0
O251 O 0.39384 0.28712 0.62293 0.0
O252 O 0.56993 0.29077 0.68753 0.0
O253 O 0.57336 0.32591 0.65763 0.0
C254 C 0.62295 0.18451 0.67278 0.0
C255 C 0.58525 0.18806 0.60545 0.0
C256 C 0.61594 0.32817 0.60688 0.0
O257 O 0.62545 0.29643 0.62159 0.0
O258 O 0.56992 0.33458 0.59848 0.0
C259 C 0.43282 0.18629 0.60606 0.0
O260 O 0.44754 0.31814 0.65802 0.0
O261 O 0.45591 0.2851 0.68806 0.0
C262 C 0.39962 0.32151 0.60875 0.0
C263 C 0.44352 0.32285 0.67643 0.0
Fe264 Fe 0.01938 0.27333 0.93375 0.0
O265 O 1.00134 0.26977 0.90623 0.0
Fe266 Fe 0.01298 0.33761 0.88753 0.0
Fe267 Fe 0.99682 0.20596 0.88869 0.0
O268 O 0.02081 0.27512 0.90543 0.0
O269 O 0.99009 0.27642 0.87057 0.0
O270 O 0.00987 0.26529 0.86985 0.0
Fe271 Fe 0.99176 0.26917 0.84227 0.0
C272 C 0.09793 0.19365 0.91479 0.0
O273 O 0.96408 0.21274 0.93571 0.0
O274 O 0.97191 0.15457 0.91043 0.0
O275 O 0.95514 0.34372 0.84307 0.0
O276 O 0.99228 0.39508 0.8672 0.0
O277 O 0.94057 0.34976 0.90234 0.0
O278 O 0.95811 0.32841 0.93439 0.0
O279 O 0.9175 0.21342 0.87972 0.0
O280 O 0.92132 0.22719 0.84665 0.0
C281 C 0.92839 0.34844 0.92076 0.0
O282 O 0.0632 0.31085 0.84089 0.0
O283 O 0.08523 0.33062 0.87274 0.0
O284 O 0.07885 0.21732 0.93006 0.0
O285 O 0.07572 0.19237 0.89765 0.0
C286 C 0.95116 0.16939 0.92673 0.0
C287 C 0.89862 0.2083 0.86214 0.0
C288 C 0.02324 0.15025 0.85064 0.0
O289 O 0.00408 0.1466 0.86799 0.0
O290 O 0.02849 0.19454 0.84121 0.0
C291 C 0.96508 0.3892 0.8513 0.0
O292 O 0.0501 0.39096 0.90668 0.0
O293 O 0.07449 0.33387 0.93089 0.0
C294 C 0.09444 0.33114 0.85411 0.0
C295 C 0.08066 0.37696 0.92097 0.0
H296 H 0.21843 0.92675 0.50326 0.0
H297 H 0.34753 0.9182 0.40392 0.0
H298 H 0.15315 0.04579 0.46433 0.0
H299 H 0.44251 0.95152 0.45515 0.0
H300 H 0.26938 0.95396 0.42087 0.0
H301 H 0.29323 0.91564 0.48106 0.0
C302 C 0.21942 0.95012 0.48993 0.0
C303 C 0.17989 0.9881 0.4859 0.0
C304 C 0.30788 0.95567 0.42801 0.0
C305 C 0.26511 0.97471 0.46032 0.0
C306 C 0.3527 0.93634 0.41821 0.0
C307 C 0.40179 0.93316 0.428 0.0
C308 C 0.31241 0.97002 0.44781 0.0
C309 C 0.40558 0.95422 0.44701 0.0
C310 C 0.26222 0.9439 0.47736 0.0
C311 C 0.1827 0.01609 0.46804 0.0
N312 N 0.36115 0.97021 0.45653 0.0
N313 N 0.22487 0.00894 0.45584 0.0
H314 H 0.19544 0.93796 0.72151 0.0
H315 H 0.44561 0.07071 0.66973 0.0
H316 H 0.35874 0.89237 0.73174 0.0
H317 H 0.30747 0.16375 0.68439 0.0
H318 H 0.40211 0.99088 0.68237 0.0
H319 H 0.22618 0.00721 0.69893 0.0
C320 C 0.23764 0.94186 0.71894 0.0
C321 C 0.27451 0.90955 0.72906 0.0
C322 C 0.3808 0.02846 0.68249 0.0
C323 C 0.30934 0.98753 0.70257 0.0
C324 C 0.40541 0.07395 0.6752 0.0
C325 C 0.38018 0.12381 0.67625 0.0
C326 C 0.33051 0.03268 0.69097 0.0
C327 C 0.32811 0.12593 0.68335 0.0
C328 C 0.25492 0.98131 0.70595 0.0
C329 C 0.32847 0.91559 0.7244 0.0
N330 N 0.30507 0.0809 0.69077 0.0
N331 N 0.34413 0.95395 0.71162 0.0
H332 H 0.27059 0.01424 0.99076 0.0
H333 H 0.2001 0.22889 0.91793 0.0
H334 H 0.39958 0.0717 0.95471 0.0
H335 H 0.10287 0.08733 0.92057 0.0
H336 H 0.27491 0.17784 0.93176 0.0
H337 H 0.20829 0.04397 0.9662 0.0
C338 C 0.28658 0.03167 0.97758 0.0
C339 C 0.3415 0.0401 0.97515 0.0
C340 C 0.23769 0.15763 0.92869 0.0
C341 C 0.26842 0.07731 0.94723 0.0
C342 C 0.19525 0.18661 0.92083 0.0
C343 C 0.14589 0.16179 0.91802 0.0
C344 C 0.22962 0.10436 0.93439 0.0
C345 C 0.14073 0.10741 0.92238 0.0
C346 C 0.25037 0.04919 0.96356 0.0
C347 C 0.35797 0.06539 0.95775 0.0
N348 N 0.18178 0.0807 0.93081 0.0
N349 N 0.32153 0.08429 0.94468 0.0
H350 H 0.10472 0.10764 0.25116 0.0
H351 H 0.13933 0.91082 0.15993 0.0
H352 H 0.25071 0.1026 0.21863 0.0
H353 H 0.05693 0.86641 0.21271 0.0
H354 H 0.16541 0.9956 0.17568 0.0
H355 H 0.06952 0.03486 0.23057 0.0
C356 C 0.12853 0.09247 0.2392 0.0
C357 C 0.1804 0.11118 0.23641 0.0
C358 C 0.14139 0.96724 0.18369 0.0
C359 C 0.14099 0.02791 0.21314 0.0
C360 C 0.12661 0.91895 0.17478 0.0
C361 C 0.09632 0.88131 0.18511 0.0
C362 C 0.1244 0.9785 0.2028 0.0
C363 C 0.08073 0.894 0.20428 0.0
C364 C 0.10879 0.05061 0.22767 0.0
C365 C 0.21033 0.08938 0.22106 0.0
N366 N 0.09462 0.94165 0.21246 0.0
N367 N 0.19027 0.04864 0.21 0.0
H368 H 0.19525 0.97302 0.55948 0.0
H369 H 0.35707 0.22961 0.58301 0.0
H370 H 0.1319 0.13182 0.5525 0.0
H371 H 0.39167 0.08581 0.6154 0.0
H372 H 0.27368 0.19154 0.57238 0.0
H373 H 0.26367 0.00901 0.58167 0.0
C374 C 0.19457 0.01516 0.56319 0.0
C375 C 0.15822 0.04964 0.55391 0.0
C376 C 0.29903 0.16812 0.58192 0.0
C377 C 0.23696 0.09102 0.57885 0.0
C378 C 0.34728 0.18967 0.58787 0.0
C379 C 0.38217 0.16058 0.5999 0.0
C380 C 0.28532 0.11613 0.5875 0.0
C381 C 0.36628 0.10936 0.60594 0.0
C382 C 0.23375 0.03564 0.57579 0.0
C383 C 0.15904 0.10377 0.55925 0.0
N384 N 0.3193 0.08818 0.59933 0.0
N385 N 0.19857 0.12294 0.57097 0.0
H386 H 0.21538 0.88526 0.81561 0.0
H387 H 0.02008 0.12786 0.81163 0.0
H388 H 0.10812 0.91041 0.76699 0.0
H389 H 0.06645 0.06031 0.86722 0.0
H390 H 0.05403 0.04836 0.7951 0.0
H391 H 0.16188 0.94643 0.83546 0.0
C392 C 0.17978 0.90238 0.80927 0.0
C393 C 0.16671 0.89339 0.78948 0.0
C394 C 0.05628 0.05057 0.81093 0.0
C395 C 0.10647 0.96445 0.81191 0.0
C396 C 0.0373 0.09612 0.82035 0.0
C397 C 0.04089 0.10077 0.84079 0.0
C398 C 0.08024 0.00981 0.82196 0.0
C399 C 0.06301 0.05819 0.85142 0.0
C400 C 0.1495 0.9376 0.82057 0.0
C401 C 0.12036 0.91716 0.78203 0.0
N402 N 0.08273 0.01475 0.84184 0.0
N403 N 0.09258 0.95241 0.7931 0.0
H404 H 0.36749 0.88162 0.02638 0.0
H405 H 0.1449 0.93513 0.10115 0.0
H406 H 0.36436 0.03042 0.05838 0.0
H407 H 0.21564 0.77843 0.09893 0.0
H408 H 0.22258 0.97149 0.08421 0.0
H409 H 0.31046 0.84135 0.05151 0.0
C410 C 0.35584 0.90527 0.03897 0.0
C411 C 0.37068 0.95919 0.04045 0.0
C412 C 0.22155 0.92934 0.08778 0.0
C413 C 0.30447 0.91434 0.06865 0.0
C414 C 0.17731 0.90867 0.09737 0.0
C415 C 0.17427 0.85394 0.10145 0.0
C416 C 0.26199 0.89464 0.08164 0.0
C417 C 0.21697 0.82103 0.09617 0.0
C418 C 0.32342 0.88242 0.05324 0.0
C419 C 0.35412 0.98854 0.05686 0.0
N420 N 0.25872 0.8417 0.08611 0.0
N421 N 0.3209 0.96609 0.07012 0.0
H422 H 0.35138 0.08535 0.27163 0.0
H423 H 0.38373 0.92845 0.37266 0.0
H424 H 0.24949 0.12109 0.32048 0.0
H425 H 0.42718 0.86569 0.31603 0.0
H426 H 0.34277 1.00583 0.3563 0.0
H427 H 0.39301 0.01449 0.29074 0.0
C428 C 0.3385 0.07891 0.28656 0.0
C429 C 0.29661 0.10888 0.2944 0.0
C430 C 0.36088 0.97471 0.34754 0.0
C431 C 0.34363 0.02696 0.31636 0.0
C432 C 0.38367 0.93022 0.35684 0.0
C433 C 0.40878 0.89012 0.34577 0.0
C434 C 0.36414 0.97947 0.32707 0.0
C435 C 0.40857 0.89542 0.32527 0.0
C436 C 0.36191 0.0381 0.2974 0.0
C437 C 0.2818 0.09904 0.3139 0.0
N438 N 0.38721 0.9393 0.31667 0.0
N439 N 0.30496 0.05848 0.3242 0.0
H440 H 0.77246 0.035 0.51807 0.0
H441 H 0.67459 0.14371 0.62214 0.0
H442 H 0.87803 0.04467 0.56798 0.0
H443 H 0.58328 0.1479 0.5685 0.0
H444 H 0.74597 0.09684 0.60459 0.0
H445 H 0.70033 0.06702 0.53813 0.0
C446 C 0.78038 0.04338 0.5334 0.0
C447 C 0.83131 0.03619 0.54142 0.0
C448 C 0.70995 0.10741 0.59679 0.0
C449 C 0.74817 0.07449 0.56465 0.0
C450 C 0.66899 0.13354 0.60682 0.0
C451 C 0.62304 0.14982 0.5967 0.0
C452 C 0.70445 0.09725 0.57661 0.0
C453 C 0.61811 0.13636 0.57684 0.0
C454 C 0.73903 0.06204 0.54487 0.0
C455 C 0.83933 0.04946 0.56124 0.0
N456 N 0.65833 0.11123 0.56747 0.0
N457 N 0.79805 0.06798 0.57225 0.0
H458 H 0.74246 0.03652 0.26712 0.0
H459 H 0.56862 0.98016 0.36081 0.0
H460 H 0.69005 0.1662 0.30423 0.0
H461 H 0.66509 0.86186 0.33162 0.0
H462 H 0.61199 0.05004 0.34149 0.0
H463 H 0.71269 0.97326 0.29122 0.0
C464 C 0.72569 0.05198 0.28057 0.0
C465 C 0.72015 0.10718 0.2838 0.0
C466 C 0.62406 0.00883 0.33958 0.0
C467 C 0.68357 0.03371 0.31144 0.0
C468 C 0.59946 0.96888 0.35061 0.0
C469 C 0.61258 0.91483 0.3476 0.0
C470 C 0.66171 0.99443 0.32545 0.0
C471 C 0.65288 0.90273 0.33422 0.0
C472 C 0.70821 0.0155 0.29434 0.0
C473 C 0.69538 0.12408 0.30116 0.0
N474 N 0.67549 0.94209 0.32353 0.0
N475 N 0.67769 0.08737 0.31435 0.0
H476 H 0.61406 0.93842 0.05229 0.0
H477 H 0.91643 0.94447 0.08624 0.0
H478 H 0.72579 0.06123 0.03631 0.0
H479 H 0.80232 0.83295 0.10967 0.0
H480 H 0.84405 0.99335 0.07074 0.0
H481 H 0.67854 0.90467 0.07649 0.0
C482 C 0.65173 0.95878 0.05421 0.0
C483 C 0.66532 1.0019 0.0422 0.0
C484 C 0.83466 0.95854 0.07945 0.0
C485 C 0.73892 0.9638 0.06943 0.0
C486 C 0.87609 0.93052 0.08826 0.0
C487 C 0.86553 0.88418 0.09905 0.0
C488 C 0.78228 0.93966 0.08116 0.0
C489 C 0.81234 0.86839 0.1014 0.0
C490 C 0.68854 0.93956 0.06791 0.0
C491 C 0.71442 0.02721 0.04514 0.0
N492 N 0.77273 0.89561 0.09226 0.0
N493 N 0.74968 0.0074 0.05827 0.0
H494 H 0.8429 0.90349 0.82083 0.0
H495 H 0.81957 0.20434 0.83434 0.0
H496 H 0.69524 0.97998 0.80578 0.0
H497 H 0.89069 0.11358 0.88121 0.0
H498 H 0.77345 0.12316 0.82319 0.0
H499 H 0.86328 0.97823 0.84329 0.0
C500 C 0.81389 0.93489 0.82292 0.0
C501 C 0.76705 0.93546 0.81177 0.0
C502 C 0.79797 0.12148 0.83626 0.0
C503 C 0.79102 0.02171 0.8364 0.0
C504 C 0.82402 0.16781 0.84266 0.0
C505 C 0.8586 0.16583 0.85881 0.0
C506 C 0.80825 0.07258 0.84562 0.0
C507 C 0.86377 0.11707 0.86886 0.0
C508 C 0.82559 0.97763 0.83556 0.0
C509 C 0.73141 0.97794 0.81442 0.0
N510 N 0.84013 0.07199 0.86178 0.0
N511 N 0.74469 0.02006 0.82607 0.0
H512 H 0.87618 0.99016 0.46107 0.0
H513 H 0.61347 0.83064 0.46355 0.0
H514 H 0.85118 0.86208 0.50208 0.0
H515 H 0.67331 0.87937 0.40722 0.0
H516 H 0.70082 0.84626 0.47784 0.0
H517 H 0.80623 0.95225 0.43994 0.0
C518 C 0.8577 0.95275 0.4652 0.0
C519 C 0.86907 0.9295 0.48346 0.0
C520 C 0.6951 0.85316 0.46231 0.0
C521 C 0.7879 0.88743 0.45984 0.0
C522 C 0.64501 0.84466 0.45415 0.0
C523 C 0.63588 0.85364 0.43413 0.0
C524 C 0.73638 0.87265 0.45061 0.0
C525 C 0.67858 0.8719 0.42273 0.0
C526 C 0.81736 0.9315 0.45325 0.0
C527 C 0.84324 0.88151 0.48822 0.0
N528 N 0.72688 0.88171 0.4312 0.0
N529 N 0.80291 0.86291 0.47678 0.0
H530 H 0.89408 0.12043 0.24758 0.0
H531 H 0.89986 0.92723 0.15412 0.0
H532 H 0.77744 0.12922 0.2012 0.0
H533 H 0.95756 0.88293 0.21148 0.0
H534 H 0.87383 0.01458 0.16728 0.0
H535 H 0.93925 0.04892 0.22968 0.0
C536 C 0.87893 0.10851 0.23333 0.0
C537 C 0.8313 0.13019 0.22605 0.0
C538 C 0.89264 0.98582 0.17689 0.0
C539 C 0.88261 0.04823 0.2056 0.0
C540 C 0.90744 0.93594 0.16944 0.0
C541 C 0.93061 0.89741 0.18176 0.0
C542 C 0.902 0.99777 0.19671 0.0
C543 C 0.93949 0.91111 0.20148 0.0
C544 C 0.90443 0.06737 0.22324 0.0
C545 C 0.8139 0.11365 0.20739 0.0
N546 N 0.92528 0.96016 0.20832 0.0
N547 N 0.83905 0.07298 0.19794 0.0
H548 H 0.64143 0.13786 0.9726 0.0
H549 H 0.90764 0.07162 0.91526 0.0
H550 H 0.69553 0.97446 0.96985 0.0
H551 H 0.88244 0.2059 0.95416 0.0
H552 H 0.82005 0.03597 0.92503 0.0
H553 H 0.71692 0.16458 0.95265 0.0
C554 C 0.66789 0.10722 0.96713 0.0
C555 C 0.66275 0.05401 0.97319 0.0
C556 C 0.83424 0.07324 0.93127 0.0
C557 C 0.74984 0.08461 0.9508 0.0
C558 C 0.88418 0.09336 0.92587 0.0
C559 C 0.90279 0.14184 0.9339 0.0
C560 C 0.80257 0.10279 0.94425 0.0
C561 C 0.87041 0.16841 0.94753 0.0
C562 C 0.71138 0.12262 0.95597 0.0
C563 C 0.69876 0.01611 0.96575 0.0
N564 N 0.82196 0.14887 0.95206 0.0
N565 N 0.74165 0.03226 0.95524 0.0
H566 H 0.7434 0.89049 0.71814 0.0
H567 H 0.71029 0.20211 0.69541 0.0
H568 H 0.75459 0.02068 0.75996 0.0
H569 H 0.62802 0.08032 0.66237 0.0
H570 H 0.75997 0.13216 0.71265 0.0
H571 H 0.72921 0.95691 0.69215 0.0
C572 C 0.74395 0.93251 0.72195 0.0
C573 C 0.75081 0.94912 0.74156 0.0
C574 C 0.73229 0.12077 0.70116 0.0
C575 C 0.73655 0.02511 0.7117 0.0
C576 C 0.70452 0.16069 0.6912 0.0
C577 C 0.66542 0.14662 0.67752 0.0
C578 C 0.72024 0.06666 0.69749 0.0
C579 C 0.65824 0.09239 0.67285 0.0
C580 C 0.73632 0.97034 0.70704 0.0
C581 C 0.7516 1.00468 0.74528 0.0
N582 N 0.68475 0.05412 0.68307 0.0
N583 N 0.74454 0.04019 0.73059 0.0
H584 H 0.63776 0.39041 0.98428 0.0
H585 H 0.8722 0.43539 0.90715 0.0
H586 H 0.6826 0.54712 0.96402 0.0
H587 H 0.86447 0.30513 0.94828 0.0
H588 H 0.78751 0.46951 0.92019 0.0
H589 H 0.70396 0.35105 0.96245 0.0
C590 C 0.66029 0.41641 0.97475 0.0
C591 C 0.65499 0.4721 0.97604 0.0
C592 C 0.80425 0.43312 0.92613 0.0
C593 C 0.73134 0.42746 0.95131 0.0
C594 C 0.85235 0.41369 0.91871 0.0
C595 C 0.87562 0.36791 0.92689 0.0
C596 C 0.77891 0.40565 0.94141 0.0
C597 C 0.84831 0.34108 0.9418 0.0
C598 C 0.69848 0.39399 0.96247 0.0
C599 C 0.68584 0.50398 0.96354 0.0
N600 N 0.80153 0.36033 0.94857 0.0
N601 N 0.72319 0.48126 0.95184 0.0
H602 H 0.80257 0.479 0.25028 0.0
H603 H 0.84664 0.62012 0.15075 0.0
H604 H 0.70602 0.42549 0.20151 0.0
H605 H 0.84251 0.70591 0.20551 0.0
H606 H 0.79932 0.5453 0.16622 0.0
H607 H 0.82866 0.55696 0.23146 0.0
C608 C 0.78687 0.48358 0.23556 0.0
C609 C 0.7511 0.44616 0.22764 0.0
C610 C 0.80706 0.58138 0.17458 0.0
C611 C 0.78162 0.53533 0.20587 0.0
C612 C 0.83318 0.62435 0.16569 0.0
C613 C 0.84754 0.66939 0.17684 0.0
C614 C 0.79694 0.58349 0.19477 0.0
C615 C 0.83152 0.67202 0.19642 0.0
C616 C 0.80163 0.52824 0.22488 0.0
C617 C 0.73362 0.4534 0.2082 0.0
N618 N 0.80809 0.62918 0.20488 0.0
N619 N 0.7491 0.49734 0.19789 0.0
H620 H 0.8529 0.68859 0.50193 0.0
H621 H 0.65523 0.65122 0.41141 0.0
H622 H 0.84376 0.5387 0.47072 0.0
H623 H 0.61242 0.73179 0.46509 0.0
H624 H 0.74069 0.62649 0.4265 0.0
H625 H 0.7822 0.72406 0.48077 0.0
C626 C 0.83717 0.66385 0.49019 0.0
C627 C 0.85374 0.61075 0.48801 0.0
C628 C 0.71253 0.65006 0.43478 0.0
C629 C 0.77335 0.65061 0.46404 0.0
C630 C 0.66389 0.66402 0.42627 0.0
C631 C 0.62659 0.69347 0.43705 0.0
C632 C 0.72428 0.66709 0.45393 0.0
C633 C 0.63986 0.70901 0.45625 0.0
C634 C 0.79666 0.68384 0.4783 0.0
C635 C 0.83171 0.57986 0.4728 0.0
N636 N 0.68775 0.69596 0.46402 0.0
N637 N 0.7922 0.60014 0.46141 0.0
H638 H 0.60704 0.60926 0.75106 0.0
H639 H 0.63183 0.41375 0.65886 0.0
H640 H 0.74763 0.60874 0.7154 0.0
H641 H 0.56137 0.36525 0.71349 0.0
H642 H 0.65837 0.49887 0.67435 0.0
H643 H 0.57174 0.53405 0.73164 0.0
C644 C 0.62971 0.59428 0.73878 0.0
C645 C 0.6801 0.61525 0.73471 0.0
C646 C 0.63671 0.46957 0.68281 0.0
C647 C 0.64032 0.52943 0.71261 0.0
C648 C 0.62154 0.42111 0.67402 0.0
C649 C 0.59442 0.38218 0.68491 0.0
C650 C 0.62327 0.47973 0.70242 0.0
C651 C 0.58226 0.39393 0.70453 0.0
C652 C 0.60988 0.55113 0.72787 0.0
C653 C 0.70847 0.59373 0.71888 0.0
N654 N 0.59639 0.44169 0.7126 0.0
N655 N 0.68822 0.55191 0.70838 0.0
H656 H 0.69493 0.63341 0.01566 0.0
H657 H 0.84704 0.65117 0.1183 0.0
H658 H 0.65336 0.52652 0.06261 0.0
H659 H 0.9145 0.69551 0.06271 0.0
H660 H 0.76986 0.61307 0.10075 0.0
H661 H 0.76677 0.66954 0.03582 0.0
C662 C 0.70046 0.61807 0.03036 0.0
C663 C 0.66842 0.57643 0.03734 0.0
C664 C 0.80198 0.63069 0.09249 0.0
C665 C 0.75128 0.61745 0.06057 0.0
C666 C 0.84628 0.65186 0.10247 0.0
C667 C 0.88749 0.67665 0.09203 0.0
C668 C 0.79868 0.63523 0.07198 0.0
C669 C 0.88374 0.67728 0.07148 0.0
C670 C 0.74176 0.63844 0.04182 0.0
C671 C 0.67703 0.55869 0.05665 0.0
N672 N 0.84007 0.65757 0.06222 0.0
N673 N 0.718 0.579 0.06758 0.0
H674 H 0.59181 0.38079 0.28865 0.0
H675 H 0.66651 0.63794 0.34753 0.0
H676 H 0.75412 0.42676 0.29989 0.0
H677 H 0.51904 0.55606 0.35874 0.0
H678 H 0.69973 0.55783 0.33111 0.0
H679 H 0.56361 0.43878 0.31583 0.0
C680 C 0.62163 0.40146 0.29733 0.0
C681 C 0.67526 0.39952 0.29197 0.0
C682 C 0.66044 0.5569 0.33747 0.0
C683 C 0.64342 0.46692 0.32246 0.0
C684 C 0.64148 0.60272 0.34677 0.0
C685 C 0.59004 0.60356 0.35445 0.0
C686 C 0.62718 0.51205 0.33528 0.0
C687 C 0.55912 0.55684 0.35309 0.0
C688 C 0.60555 0.4349 0.31271 0.0
C689 C 0.71231 0.42765 0.30349 0.0
N690 N 0.57775 0.51324 0.3433 0.0
N691 N 0.69563 0.46107 0.31789 0.0
H692 H 0.83174 0.43613 0.51913 0.0
H693 H 0.71039 0.36257 0.62337 0.0
H694 H 0.87977 0.5219 0.5713 0.0
H695 H 0.62555 0.35108 0.56836 0.0
H696 H 0.78592 0.40304 0.60588 0.0
H697 H 0.77076 0.38303 0.5388 0.0
C698 C 0.82994 0.44332 0.53477 0.0
C699 C 0.86 0.48425 0.54352 0.0
C700 C 0.75062 0.39146 0.59777 0.0
C701 C 0.79057 0.42347 0.5661 0.0
C702 C 0.70769 0.36858 0.60769 0.0
C703 C 0.66148 0.35421 0.59732 0.0
C704 C 0.74747 0.39833 0.57738 0.0
C705 C 0.65998 0.36244 0.577 0.0
C706 C 0.79516 0.41305 0.54597 0.0
C707 C 0.85714 0.49086 0.56396 0.0
N708 N 0.70239 0.38364 0.56772 0.0
N709 N 0.82237 0.46117 0.57459 0.0
H710 H 0.77478 0.65815 0.81554 0.0
H711 H 0.95803 0.40364 0.81211 0.0
H712 H 0.85988 0.60867 0.76391 0.0
H713 H 0.92757 0.48382 0.86694 0.0
H714 H 0.92127 0.47977 0.7946 0.0
H715 H 0.83081 0.59857 0.8353 0.0
C716 C 0.80615 0.63591 0.80843 0.0
C717 C 0.81213 0.63777 0.78798 0.0
C718 C 0.92294 0.48118 0.81045 0.0
C719 C 0.87528 0.56878 0.8104 0.0
C720 C 0.94358 0.43748 0.82047 0.0
C721 C 0.94535 0.43723 0.841 0.0
C722 C 0.9027 0.52485 0.82098 0.0
C723 C 0.9268 0.48249 0.85108 0.0
C724 C 0.83785 0.60165 0.81971 0.0
C725 C 0.85313 0.60767 0.77956 0.0
N726 N 0.90537 0.52428 0.84097 0.0
N727 N 0.88244 0.57384 0.79073 0.0
H728 H 0.26614 0.49644 0.02918 0.0
H729 H 0.17049 0.6639 0.1218 0.0
H730 H 0.37495 0.59899 0.06081 0.0
H731 H 0.07577 0.642 0.06956 0.0
H732 H 0.24395 0.61577 0.10593 0.0
H733 H 0.19479 0.52471 0.05083 0.0
C734 C 0.27511 0.52474 0.0408 0.0
C735 C 0.32622 0.54681 0.04281 0.0
C736 C 0.20663 0.62061 0.09819 0.0
C737 C 0.24476 0.57808 0.06795 0.0
C738 C 0.16462 0.64736 0.10725 0.0
C739 C 0.11704 0.65631 0.09695 0.0
C740 C 0.20021 0.60174 0.07895 0.0
C741 C 0.11174 0.63548 0.07798 0.0
C742 C 0.23439 0.54057 0.05316 0.0
C743 C 0.33596 0.58165 0.0586 0.0
N744 N 0.15284 0.60903 0.06959 0.0
N745 N 0.29528 0.5968 0.07051 0.0
H746 H 0.30996 0.51521 0.78321 0.0
H747 H 0.12618 0.42463 0.87099 0.0
H748 H 0.19475 0.62295 0.80831 0.0
H749 H 0.15462 0.32315 0.82086 0.0
H750 H 0.17646 0.49626 0.85514 0.0
H751 H 0.27682 0.44395 0.80407 0.0
C752 C 0.27751 0.52404 0.79305 0.0
C753 C 0.25372 0.57495 0.79342 0.0
C754 C 0.17256 0.45786 0.84788 0.0
C755 C 0.21773 0.49364 0.81806 0.0
C756 C 0.14458 0.41669 0.85696 0.0
C757 C 0.13631 0.36775 0.84719 0.0
C758 C 0.19353 0.44946 0.82917 0.0
C759 C 0.16015 0.36019 0.82888 0.0
C760 C 0.25915 0.48332 0.80507 0.0
C761 C 0.21384 0.58432 0.80731 0.0
N762 N 0.18769 0.40072 0.82043 0.0
N763 N 0.19678 0.54384 0.81904 0.0
H764 H 0.15762 0.3967 0.52552 0.0
H765 H 0.30903 0.35733 0.62703 0.0
H766 H 0.13861 0.51297 0.57185 0.0
H767 H 0.37986 0.33444 0.5702 0.0
H768 H 0.22824 0.39201 0.6107 0.0
H769 H 0.21906 0.34701 0.54646 0.0
C770 C 0.16547 0.41116 0.54024 0.0
C771 C 0.14406 0.45976 0.54676 0.0
C772 C 0.26162 0.37905 0.60196 0.0
C773 C 0.21354 0.40282 0.57075 0.0
C774 C 0.30747 0.35959 0.61119 0.0
C775 C 0.35124 0.34403 0.5999 0.0
C776 C 0.25938 0.38073 0.58141 0.0
C777 C 0.34738 0.34712 0.57944 0.0
C778 C 0.20041 0.38281 0.55213 0.0
C779 C 0.15449 0.47588 0.56618 0.0
N780 N 0.30215 0.36474 0.57086 0.0
N781 N 0.18932 0.44785 0.57745 0.0
H782 H 0.3693 0.38945 0.3134 0.0
H783 H 0.36001 0.69079 0.32934 0.0
H784 H 0.21911 0.46943 0.30633 0.0
H785 H 0.4276 0.59893 0.37657 0.0
H786 H 0.31462 0.60966 0.31739 0.0
H787 H 0.39982 0.46387 0.33458 0.0
C788 C 0.34223 0.42162 0.31694 0.0
C789 C 0.29153 0.42334 0.30843 0.0
C790 C 0.33863 0.60767 0.33059 0.0
C791 C 0.32661 0.50875 0.33148 0.0
C792 C 0.36422 0.65377 0.33739 0.0
C793 C 0.39651 0.65138 0.3541 0.0
C794 C 0.34742 0.55874 0.34012 0.0
C795 C 0.40204 0.60228 0.36382 0.0
C796 C 0.35964 0.46406 0.32883 0.0
C797 C 0.25827 0.46662 0.31289 0.0
N798 N 0.37862 0.55741 0.35645 0.0
N799 N 0.27681 0.50831 0.32371 0.0
H800 H 0.38351 0.42241 0.97174 0.0
H801 H 0.10077 0.48602 0.92486 0.0
H802 H 0.31666 0.58101 0.97095 0.0
H803 H 0.17647 0.3316 0.92504 0.0
H804 H 0.18548 0.52652 0.93585 0.0
H805 H 0.31692 0.39406 0.94785 0.0
C806 C 0.35604 0.45186 0.96604 0.0
C807 C 0.35509 0.50389 0.97374 0.0
C808 C 0.18363 0.48388 0.93314 0.0
C809 C 0.27676 0.47104 0.94691 0.0
C810 C 0.13536 0.46093 0.92687 0.0
C811 C 0.13145 0.40537 0.92451 0.0
C812 C 0.22793 0.45085 0.93685 0.0
C813 C 0.17746 0.37453 0.92716 0.0
C814 C 0.31728 0.43544 0.95256 0.0
C815 C 0.31803 0.54008 0.96577 0.0
N816 N 0.22337 0.3975 0.93335 0.0
N817 N 0.27947 0.52268 0.95321 0.0
H818 H 0.41413 0.61129 0.74455 0.0
H819 H 0.3826 0.39864 0.65822 0.0
H820 H 0.26591 0.59384 0.71338 0.0
H821 H 0.46391 0.36546 0.71266 0.0
H822 H 0.35592 0.48602 0.67141 0.0
H823 H 0.45184 0.5391 0.7246 0.0
C824 C 0.39046 0.59405 0.73281 0.0
C825 C 0.33713 0.60864 0.73039 0.0
C826 C 0.37999 0.45961 0.68032 0.0
C827 C 0.37929 0.52575 0.70801 0.0
C828 C 0.39506 0.40981 0.6729 0.0
C829 C 0.42541 0.37467 0.68443 0.0
C830 C 0.39672 0.47487 0.69914 0.0
C831 C 0.44043 0.39119 0.70332 0.0
C832 C 0.41162 0.55236 0.72172 0.0
C833 C 0.30742 0.58402 0.71543 0.0
N834 N 0.42627 0.4403 0.71004 0.0
N835 N 0.32876 0.54323 0.70487 0.0
H836 H 0.15829 0.645 0.49099 0.0
H837 H 0.35885 0.61198 0.40784 0.0
H838 H 0.17358 0.47893 0.47449 0.0
H839 H 0.40657 0.65967 0.46614 0.0
H840 H 0.27706 0.57245 0.42173 0.0
H841 H 0.23181 0.66674 0.46931 0.0
C842 C 0.17569 0.61333 0.48229 0.0
C843 C 0.16009 0.55995 0.48473 0.0
C844 C 0.30642 0.5904 0.43138 0.0
C845 C 0.24446 0.5848 0.46013 0.0
C846 C 0.35308 0.61231 0.42356 0.0
C847 C 0.38907 0.63925 0.43593 0.0
C848 C 0.29635 0.59656 0.45146 0.0
C849 C 0.37951 0.63962 0.45613 0.0
C850 C 0.2179 0.62577 0.47007 0.0
C851 C 0.18503 0.52051 0.47323 0.0
N852 N 0.33354 0.61971 0.46322 0.0
N853 N 0.22684 0.53355 0.46159 0.0
H854 H 0.24632 0.50823 0.25996 0.0
H855 H 0.08792 0.57324 0.16631 0.0
H856 H 0.21623 0.38012 0.21858 0.0
H857 H 0.19719 0.6863 0.19204 0.0
H858 H 0.13339 0.50055 0.1837 0.0
H859 H 0.22705 0.57242 0.23486 0.0
C860 C 0.23732 0.49298 0.24546 0.0
C861 C 0.23496 0.43763 0.24148 0.0
C862 C 0.14849 0.54097 0.18505 0.0
C863 C 0.20907 0.51317 0.21253 0.0
C864 C 0.12276 0.58237 0.17511 0.0
C865 C 0.13926 0.63558 0.17771 0.0
C866 C 0.18983 0.5533 0.19816 0.0
C867 C 0.18375 0.64571 0.18951 0.0
C868 C 0.22568 0.53033 0.23108 0.0
C869 C 0.21895 0.42199 0.22249 0.0
N870 N 0.20683 0.60505 0.19964 0.0
N871 N 0.20593 0.45957 0.20878 0.0
loop_
_geom_bond_atom_site_label_1
_geom_bond_atom_site_label_2
_geom_bond_distance
_geom_bond_site_symmetry_2
_ccdc_geom_bond_type
H0 C8 0.930 . S
H1 C11 0.930 . S
H2 C13 0.930 1_565 S
H3 C14 0.970 . S
H4 C14 0.970 . S
H5 C16 0.930 . S
H6 C18 0.930 1_565 S
H7 C20 0.930 . S
C8 H0 0.930 . S
C8 C9 1.382 . S
C8 C10 1.426 . S
C9 C8 1.382 . S
C9 C13 1.389 . S
C10 C8 1.426 . S
C10 C11 1.375 . S
C10 C14 1.532 1_655 S
C11 H1 0.930 . S
C11 C10 1.375 . S
C11 C12 1.416 . S
C12 C11 1.416 . S
C12 C13 1.371 . S
C13 H2 0.930 1_545 S
C13 C9 1.389 . S
C13 C12 1.371 . S
C14 H3 0.970 . S
C14 H4 0.970 . S
C14 C10 1.532 1_455 S
C14 C15 1.499 . S
C15 C14 1.499 . S
C15 C16 1.370 . S
C15 C20 1.415 . S
C16 H5 0.930 . S
C16 C15 1.370 . S
C16 C17 1.407 1_545 S
C17 C16 1.407 1_565 S
C17 C18 1.365 1_565 S
C18 H6 0.930 1_545 S
C18 C17 1.365 1_545 S
C18 C19 1.393 . S
C19 C18 1.393 . S
C19 C20 1.387 . S
C20 H7 0.930 . S
C20 C15 1.415 . S
C20 C19 1.387 . S
H21 C29 0.930 . S
H22 C32 0.930 . S
H23 C34 0.930 . S
H24 C35 0.970 . S
H25 C35 0.970 . S
H26 C37 0.930 . S
H27 C39 0.930 . S
H28 C41 0.930 . S
C29 H21 0.930 . S
C29 C30 1.382 . S
C29 C31 1.426 . S
C30 C29 1.382 . S
C30 C34 1.389 . S
C31 C29 1.426 . S
C31 C32 1.375 . S
C31 C35 1.532 . S
C32 H22 0.930 . S
C32 C31 1.375 . S
C32 C33 1.416 . S
C33 C32 1.416 . S
C33 C34 1.371 . S
C34 H23 0.930 . S
C34 C30 1.389 . S
C34 C33 1.371 . S
C35 H24 0.970 . S
C35 H25 0.970 . S
C35 C31 1.532 . S
C35 C36 1.499 . S
C36 C35 1.499 . S
C36 C37 1.370 . S
C36 C41 1.415 . S
C37 H26 0.930 . S
C37 C36 1.370 . S
C37 C38 1.407 . S
C38 C37 1.407 . S
C38 C39 1.365 . S
C39 H27 0.930 . S
C39 C38 1.365 . S
C39 C40 1.393 . S
C40 C39 1.393 . S
C40 C41 1.387 . S
C41 H28 0.930 . S
C41 C36 1.415 . S
C41 C40 1.387 . S
H42 C50 0.930 1_565 S
H43 C53 0.917 1_556 S
H44 C55 0.930 . S
H45 C56 0.970 . S
H46 C56 0.970 . S
H47 C58 0.930 1_565 S
H48 C60 0.930 . S
H49 C62 0.930 . S
C50 H42 0.930 1_545 S
C50 C51 1.382 1_545 S
C50 C52 1.426 . S
C51 C50 1.382 1_565 S
C51 C55 1.389 . S
C52 C50 1.426 . S
C52 C53 1.375 . S
C52 C56 1.532 . S
C53 H43 0.917 1_554 S
C53 C52 1.375 . S
C53 C54 1.435 . S
C54 C53 1.435 . S
C54 C55 1.404 1_545 S
C55 H44 0.930 . S
C55 C51 1.389 . S
C55 C54 1.404 1_565 S
C56 H45 0.970 . S
C56 H46 0.970 . S
C56 C52 1.532 . S
C56 C57 1.499 . S
C57 C56 1.499 . S
C57 C58 1.370 . S
C57 C62 1.415 . S
C58 H47 0.930 1_545 S
C58 C57 1.370 . S
C58 C59 1.407 1_545 S
C59 C58 1.407 1_565 S
C59 C60 1.365 . S
C60 H48 0.930 . S
C60 C59 1.365 . S
C60 C61 1.393 1_565 S
C61 C60 1.393 1_545 S
C61 C62 1.387 . S
C62 H49 0.930 . S
C62 C57 1.415 . S
C62 C61 1.387 . S
H63 C71 0.930 . S
H64 C74 0.930 . S
H65 C76 0.930 . S
H66 C77 0.970 . S
H67 C77 0.970 . S
H68 C79 0.930 . S
H69 C81 0.930 . S
H70 C83 0.930 . S
C71 H63 0.930 . S
C71 C72 1.382 . S
C71 C73 1.426 . S
C72 C71 1.382 . S
C72 C76 1.389 . S
C73 C71 1.426 . S
C73 C74 1.375 . S
C73 C77 1.532 . S
C74 H64 0.930 . S
C74 C73 1.375 . S
C74 C75 1.416 . S
C75 C74 1.416 . S
C75 C76 1.371 . S
C76 H65 0.930 . S
C76 C72 1.389 . S
C76 C75 1.371 . S
C77 H66 0.970 . S
C77 H67 0.970 . S
C77 C73 1.532 . S
C77 C78 1.499 . S
C78 C77 1.499 . S
C78 C79 1.370 . S
C78 C83 1.415 . S
C79 H68 0.930 . S
C79 C78 1.370 . S
C79 C80 1.407 . S
C80 C79 1.407 . S
C80 C81 1.365 . S
C81 H69 0.930 . S
C81 C80 1.365 . S
C81 C82 1.393 . S
C82 C81 1.393 . S
C82 C83 1.387 . S
C83 H70 0.930 . S
C83 C78 1.415 . S
C83 C82 1.387 . S
H84 C92 0.930 . S
H85 C95 0.930 . S
H86 C97 0.930 . S
H87 C98 0.970 . S
H88 C98 0.970 . S
H89 C100 0.930 . S
H90 C102 0.930 . S
H91 C104 0.930 . S
C92 H84 0.930 . S
C92 C93 1.382 . S
C92 C94 1.426 . S
C93 C92 1.382 . S
C93 C97 1.389 . S
C94 C92 1.426 . S
C94 C95 1.375 . S
C94 C98 1.532 . S
C95 H85 0.930 . S
C95 C94 1.375 . S
C95 C96 1.416 . S
C96 C95 1.416 . S
C96 C97 1.371 . S
C97 H86 0.930 . S
C97 C93 1.389 . S
C97 C96 1.371 . S
C98 H87 0.970 . S
C98 H88 0.970 . S
C98 C94 1.532 . S
C98 C99 1.499 . S
C99 C98 1.499 . S
C99 C100 1.370 . S
C99 C104 1.415 . S
C100 H89 0.930 . S
C100 C99 1.370 . S
C100 C101 1.407 . S
C101 C100 1.407 . S
C101 C102 1.365 . S
C102 H90 0.930 . S
C102 C101 1.365 . S
C102 C103 1.393 . S
C103 C102 1.393 . S
C103 C104 1.387 . S
C104 H91 0.930 . S
C104 C99 1.415 . S
C104 C103 1.387 . S
H105 C113 0.930 . S
H106 C116 0.930 . S
H107 C118 0.930 . S
H108 C119 0.970 . S
H109 C119 0.970 . S
H110 C121 0.930 . S
H111 C123 0.930 . S
H112 C125 0.930 . S
C113 H105 0.930 . S
C113 C114 1.382 . S
C113 C115 1.426 . S
C114 C113 1.382 . S
C114 C118 1.389 . S
C115 C113 1.426 . S
C115 C116 1.375 . S
C115 C119 1.532 . S
C116 H106 0.930 . S
C116 C115 1.375 . S
C116 C117 1.416 . S
C117 C116 1.416 . S
C117 C118 1.371 . S
C118 H107 0.930 . S
C118 C114 1.389 . S
C118 C117 1.371 . S
C119 H108 0.970 . S
C119 H109 0.970 . S
C119 C115 1.532 . S
C119 C120 1.499 . S
C120 C119 1.499 . S
C120 C121 1.370 . S
C120 C125 1.415 . S
C121 H110 0.930 . S
C121 C120 1.370 . S
C121 C122 1.407 . S
C122 C121 1.407 . S
C122 C123 1.365 . S
C123 H111 0.930 . S
C123 C122 1.365 . S
C123 C124 1.393 . S
C124 C123 1.393 . S
C124 C125 1.387 . S
C125 H112 0.930 . S
C125 C120 1.415 . S
C125 C124 1.387 . S
H126 C134 0.930 . S
H127 C137 0.933 . S
H128 C139 0.930 . S
H129 C140 0.970 . S
H130 C140 0.970 . S
H131 C142 0.930 . S
H132 C144 0.930 . S
H133 C146 0.930 . S
C134 H126 0.930 . S
C134 C135 1.382 . S
C134 C136 1.426 . S
C135 C134 1.382 . S
C135 C139 1.389 . S
C136 C134 1.426 . S
C136 C137 1.375 . S
C136 C140 1.532 . S
C137 H127 0.933 . S
C137 C136 1.375 . S
C137 C138 1.416 . S
C138 C137 1.416 . S
C138 C139 1.371 . S
C139 H128 0.930 . S
C139 C135 1.389 . S
C139 C138 1.371 . S
C140 H129 0.970 . S
C140 H130 0.970 . S
C140 C136 1.532 . S
C140 C141 1.499 . S
C141 C140 1.499 . S
C141 C142 1.370 . S
C141 C146 1.415 . S
C142 H131 0.930 . S
C142 C141 1.370 . S
C142 C143 1.407 . S
C143 C142 1.407 . S
C143 C144 1.365 . S
C144 H132 0.930 . S
C144 C143 1.365 . S
C144 C145 1.393 . S
C145 C144 1.393 . S
C145 C146 1.387 . S
C146 H133 0.930 . S
C146 C141 1.415 . S
C146 C145 1.387 . S
H147 C155 0.930 . S
H148 C158 0.930 . S
H149 C160 0.930 . S
H150 C161 0.970 . S
H151 C161 0.970 . S
H152 C163 0.930 . S
H153 C165 0.930 . S
H154 C167 0.930 . S
C155 H147 0.930 . S
C155 C156 1.382 . S
C155 C157 1.426 . S
C156 C155 1.382 . S
C156 C160 1.389 . S
C157 C155 1.426 . S
C157 C158 1.375 . S
C157 C161 1.532 . S
C158 H148 0.930 . S
C158 C157 1.375 . S
C158 C159 1.416 . S
C159 C158 1.416 . S
C159 C160 1.371 . S
C160 H149 0.930 . S
C160 C156 1.389 . S
C160 C159 1.371 . S
C161 H150 0.970 . S
C161 H151 0.970 . S
C161 C157 1.532 . S
C161 C162 1.499 1_455 S
C162 C161 1.499 1_655 S
C162 C163 1.370 . S
C162 C167 1.415 . S
C163 H152 0.930 . S
C163 C162 1.370 . S
C163 C164 1.407 . S
C164 C163 1.407 . S
C164 C165 1.365 . S
C165 H153 0.930 . S
C165 C164 1.365 . S
C165 C166 1.393 . S
C166 C165 1.393 . S
C166 C167 1.387 . S
C167 H154 0.930 . S
C167 C162 1.415 . S
C167 C166 1.387 . S
Fe168 O169 1.886 . S
Fe168 O172 1.715 1_455 S
Fe168 O177 2.077 . S
Fe168 O182 1.935 1_455 S
Fe168 O188 2.077 . S
Fe168 O197 1.935 1_455 S
O169 Fe168 1.886 . S
O169 Fe171 1.715 . S
Fe170 O172 1.886 . S
Fe170 O173 1.715 . S
Fe170 O180 1.935 . S
Fe170 O181 2.077 . S
Fe170 O187 1.935 . S
Fe170 O196 2.077 . S
Fe171 O169 1.715 . S
Fe171 O174 1.886 . S
Fe171 O178 1.935 . S
Fe171 O183 2.077 . S
Fe171 O189 1.935 . S
Fe171 O193 2.077 . S
O172 Fe168 1.715 1_655 S
O172 Fe170 1.886 . S
O173 Fe170 1.715 . S
O173 Fe175 1.877 1_655 S
O174 Fe171 1.886 . S
O174 Fe175 1.724 . S
Fe175 O173 1.877 1_455 S
Fe175 O174 1.724 . S
Fe175 O179 2.069 1_455 S
Fe175 O184 1.942 . S
Fe175 O186 2.069 1_455 S
Fe175 O194 1.942 . S
C176 O188 1.381 . S
C176 O189 1.421 . S
O177 Fe168 2.077 . S
O177 C190 1.381 . S
O178 Fe171 1.935 . S
O178 C190 1.421 . S
O179 Fe175 2.069 1_655 S
O179 C195 1.381 . S
O180 Fe170 1.935 . S
O180 C195 1.421 . S
O181 Fe170 2.077 . S
O181 C185 1.381 . S
O182 Fe168 1.935 1_655 S
O182 C185 1.421 . S
O183 Fe171 2.077 . S
O183 C191 1.381 . S
O184 Fe175 1.942 . S
O184 C191 1.421 . S
C185 O181 1.381 . S
C185 O182 1.421 . S
O186 Fe175 2.069 1_655 S
O186 C198 1.381 . S
O187 Fe170 1.935 . S
O187 C198 1.421 . S
O188 Fe168 2.077 . S
O188 C176 1.381 . S
O189 Fe171 1.935 . S
O189 C176 1.421 . S
C190 O177 1.381 . S
C190 O178 1.421 . S
C191 O183 1.381 . S
C191 O184 1.421 . S
C192 O193 1.381 . S
C192 O194 1.421 . S
O193 Fe171 2.077 . S
O193 C192 1.381 . S
O194 Fe175 1.942 . S
O194 C192 1.421 . S
C195 O179 1.381 . S
C195 O180 1.421 . S
O196 Fe170 2.077 . S
O196 C199 1.381 . S
O197 Fe168 1.935 1_655 S
O197 C199 1.421 . S
C198 O186 1.381 . S
C198 O187 1.421 . S
C199 O196 1.381 . S
C199 O197 1.421 . S
Fe200 O201 1.886 . S
Fe200 O204 1.715 . S
Fe200 O209 2.077 . S
Fe200 O214 1.935 . S
Fe200 O220 2.077 . S
Fe200 O229 1.935 . S
O201 Fe200 1.886 . S
O201 Fe203 1.715 . S
Fe202 O204 1.886 . S
Fe202 O205 1.715 . S
Fe202 O212 1.935 . S
Fe202 O213 2.077 . S
Fe202 O219 1.935 . S
Fe202 O228 2.077 . S
Fe203 O201 1.715 . S
Fe203 O206 1.886 . S
Fe203 O210 1.935 . S
Fe203 O215 2.077 . S
Fe203 O221 1.935 . S
Fe203 O225 2.077 . S
O204 Fe200 1.715 . S
O204 Fe202 1.886 . S
O205 Fe202 1.715 . S
O205 Fe207 1.886 . S
O206 Fe203 1.886 . S
O206 Fe207 1.715 . S
Fe207 O205 1.886 . S
Fe207 O206 1.715 . S
Fe207 O211 2.077 . S
Fe207 O216 1.935 . S
Fe207 O218 2.077 . S
Fe207 O226 1.935 . S
C208 O220 1.381 . S
C208 O221 1.421 . S
O209 Fe200 2.077 . S
O209 C222 1.381 . S
O210 Fe203 1.935 . S
O210 C222 1.421 . S
O211 Fe207 2.077 . S
O211 C227 1.381 . S
O212 Fe202 1.935 . S
O212 C227 1.421 . S
O213 Fe202 2.077 . S
O213 C217 1.381 . S
O214 Fe200 1.935 . S
O214 C217 1.421 . S
O215 Fe203 2.077 . S
O215 C223 1.381 . S
O216 Fe207 1.935 . S
O216 C223 1.421 . S
C217 O213 1.381 . S
C217 O214 1.421 . S
O218 Fe207 2.077 . S
O218 C230 1.381 . S
O219 Fe202 1.935 . S
O219 C230 1.421 . S
O220 Fe200 2.077 . S
O220 C208 1.381 . S
O221 Fe203 1.935 . S
O221 C208 1.421 . S
C222 O209 1.381 . S
C222 O210 1.421 . S
C223 O215 1.381 . S
C223 O216 1.421 . S
C224 O225 1.381 . S
C224 O226 1.421 . S
O225 Fe203 2.077 . S
O225 C224 1.381 . S
O226 Fe207 1.935 . S
O226 C224 1.421 . S
C227 O211 1.381 . S
C227 O212 1.421 . S
O228 Fe202 2.077 . S
O228 C231 1.381 . S
O229 Fe200 1.935 . S
O229 C231 1.421 . S
C230 O218 1.381 . S
C230 O219 1.421 . S
C231 O228 1.381 . S
C231 O229 1.421 . S
Fe232 O233 1.886 . S
Fe232 O236 1.715 . S
Fe232 O241 2.077 . S
Fe232 O246 1.935 . S
Fe232 O252 2.077 . S
Fe232 O261 1.935 . S
O233 Fe232 1.886 . S
O233 Fe235 1.715 . S
Fe234 O236 1.886 . S
Fe234 O237 1.715 . S
Fe234 O244 1.935 . S
Fe234 O245 2.077 . S
Fe234 O251 1.935 . S
Fe234 O260 2.077 . S
Fe235 O233 1.715 . S
Fe235 O238 1.886 . S
Fe235 O242 1.935 . S
Fe235 O247 2.077 . S
Fe235 O253 1.935 . S
Fe235 O257 2.077 . S
O236 Fe232 1.715 . S
O236 Fe234 1.886 . S
O237 Fe234 1.715 . S
O237 Fe239 1.886 . S
O238 Fe235 1.886 . S
O238 Fe239 1.715 . S
Fe239 O237 1.886 . S
Fe239 O238 1.715 . S
Fe239 O243 2.077 . S
Fe239 O248 1.935 . S
Fe239 O250 2.077 . S
Fe239 O258 1.935 . S
C240 O252 1.381 . S
C240 O253 1.421 . S
O241 Fe232 2.077 . S
O241 C254 1.381 . S
O242 Fe235 1.935 . S
O242 C254 1.421 . S
O243 Fe239 2.077 . S
O243 C259 1.381 . S
O244 Fe234 1.935 . S
O244 C259 1.421 . S
O245 Fe234 2.077 . S
O245 C249 1.381 . S
O246 Fe232 1.935 . S
O246 C249 1.421 . S
O247 Fe235 2.077 . S
O247 C255 1.381 . S
O248 Fe239 1.935 . S
O248 C255 1.421 . S
C249 O245 1.381 . S
C249 O246 1.421 . S
O250 Fe239 2.077 . S
O250 C262 1.381 . S
O251 Fe234 1.935 . S
O251 C262 1.421 . S
O252 Fe232 2.077 . S
O252 C240 1.381 . S
O253 Fe235 1.935 . S
O253 C240 1.421 . S
C254 O241 1.381 . S
C254 O242 1.421 . S
C255 O247 1.381 . S
C255 O248 1.421 . S
C256 O257 1.381 . S
C256 O258 1.421 . S
O257 Fe235 2.077 . S
O257 C256 1.381 . S
O258 Fe239 1.935 . S
O258 C256 1.421 . S
C259 O243 1.381 . S
C259 O244 1.421 . S
O260 Fe234 2.077 . S
O260 C263 1.381 . S
O261 Fe232 1.935 . S
O261 C263 1.421 . S
C262 O250 1.381 . S
C262 O251 1.421 . S
C263 O260 1.381 . S
C263 O261 1.421 . S
Fe264 O265 1.886 . S
Fe264 O268 1.715 . S
Fe264 O273 2.077 1_455 S
Fe264 O278 1.935 1_455 S
Fe264 O284 2.077 . S
Fe264 O293 1.935 . S
O265 Fe264 1.886 . S
O265 Fe267 1.715 . S
Fe266 O268 1.886 . S
Fe266 O269 1.715 . S
Fe266 O276 1.935 1_455 S
Fe266 O277 2.077 1_455 S
Fe266 O283 1.935 . S
Fe266 O292 2.077 . S
Fe267 O265 1.715 . S
Fe267 O270 1.886 . S
Fe267 O274 1.935 1_455 S
Fe267 O279 2.077 1_455 S
Fe267 O285 1.935 . S
Fe267 O289 2.077 . S
O268 Fe264 1.715 . S
O268 Fe266 1.886 . S
O269 Fe266 1.715 . S
O269 Fe271 1.886 . S
O270 Fe267 1.886 . S
O270 Fe271 1.715 . S
Fe271 O269 1.886 . S
Fe271 O270 1.715 . S
Fe271 O275 2.077 1_455 S
Fe271 O280 1.935 1_455 S
Fe271 O282 2.077 . S
Fe271 O290 1.935 . S
C272 O284 1.381 . S
C272 O285 1.421 . S
O273 Fe264 2.077 1_655 S
O273 C286 1.381 . S
O274 Fe267 1.935 1_655 S
O274 C286 1.421 . S
O275 Fe271 2.077 1_655 S
O275 C291 1.381 . S
O276 Fe266 1.935 1_655 S
O276 C291 1.421 . S
O277 Fe266 2.077 1_655 S
O277 C281 1.381 . S
O278 Fe264 1.935 1_655 S
O278 C281 1.421 . S
O279 Fe267 2.077 1_655 S
O279 C287 1.381 . S
O280 Fe271 1.935 1_655 S
O280 C287 1.421 . S
C281 O277 1.381 . S
C281 O278 1.421 . S
O282 Fe271 2.077 . S
O282 C294 1.381 . S
O283 Fe266 1.935 . S
O283 C294 1.421 . S
O284 Fe264 2.077 . S
O284 C272 1.381 . S
O285 Fe267 1.935 . S
O285 C272 1.421 . S
C286 O273 1.381 . S
C286 O274 1.421 . S
C287 O279 1.381 . S
C287 O280 1.421 . S
C288 O289 1.381 . S
C288 O290 1.421 . S
O289 Fe267 2.077 . S
O289 C288 1.381 . S
O290 Fe271 1.935 . S
O290 C288 1.421 . S
C291 O275 1.381 . S
C291 O276 1.421 . S
O292 Fe266 2.077 . S
O292 C295 1.381 . S
O293 Fe264 1.935 . S
O293 C295 1.421 . S
C294 O282 1.381 . S
C294 O283 1.421 . S
C295 O292 1.381 . S
C295 O293 1.421 . S
H296 C302 0.930 . S
H297 C306 0.930 . S
H298 C311 0.929 . S
H299 C309 0.929 . S
H300 C304 0.929 . S
H301 C310 0.929 . S
C302 H296 0.930 . S
C302 C303 1.367 . S
C302 C310 1.378 . S
C303 C302 1.367 . S
C303 C311 1.433 . S
C304 H300 0.929 . S
C304 C306 1.378 . S
C304 C308 1.350 . S
C305 C308 1.463 . S
C305 C310 1.350 . S
C305 N313 1.427 . S
C306 H297 0.930 . S
C306 C304 1.378 . S
C306 C307 1.367 . S
C307 C306 1.367 . S
C307 C309 1.433 . S
C308 C304 1.350 . S
C308 C305 1.463 . S
C308 N312 1.427 . S
C309 H299 0.929 . S
C309 C307 1.433 . S
C309 N312 1.384 . S
C310 H301 0.929 . S
C310 C302 1.378 . S
C310 C305 1.350 . S
C311 H298 0.929 . S
C311 C303 1.433 . S
C311 N313 1.384 . S
N312 C308 1.427 . S
N312 C309 1.384 . S
N313 C305 1.427 . S
N313 C311 1.384 . S
H314 C320 0.930 . S
H315 C324 0.930 . S
H316 C329 0.929 . S
H317 C327 0.929 . S
H318 C322 0.929 . S
H319 C328 0.929 1_545 S
C320 H314 0.930 . S
C320 C321 1.367 . S
C320 C328 1.378 . S
C321 C320 1.367 . S
C321 C329 1.433 . S
C322 H318 0.929 . S
C322 C324 1.378 . S
C322 C326 1.350 . S
C323 C326 1.463 . S
C323 C328 1.350 1_545 S
C323 N331 1.427 1_545 S
C324 H315 0.930 . S
C324 C322 1.378 . S
C324 C325 1.367 . S
C325 C324 1.367 . S
C325 C327 1.433 . S
C326 C322 1.350 . S
C326 C323 1.463 . S
C326 N330 1.427 . S
C327 H317 0.929 . S
C327 C325 1.433 . S
C327 N330 1.384 . S
C328 H319 0.929 1_565 S
C328 C320 1.378 . S
C328 C323 1.350 1_565 S
C329 H316 0.929 . S
C329 C321 1.433 . S
C329 N331 1.384 . S
N330 C326 1.427 . S
N330 C327 1.384 . S
N331 C323 1.427 1_565 S
N331 C329 1.384 . S
H332 C338 0.925 1_554 S
H333 C342 0.930 . S
H334 C347 0.929 . S
H335 C345 0.929 . S
H336 C340 0.929 . S
H337 C346 0.929 . S
C338 H332 0.925 1_556 S
C338 C339 1.367 . S
C338 C346 1.378 . S
C339 C338 1.367 . S
C339 C347 1.433 . S
C340 H336 0.929 . S
C340 C342 1.378 . S
C340 C344 1.350 . S
C341 C344 1.463 . S
C341 C346 1.350 . S
C341 N349 1.427 . S
C342 H333 0.930 . S
C342 C340 1.378 . S
C342 C343 1.367 . S
C343 C342 1.367 . S
C343 C345 1.433 . S
C344 C340 1.350 . S
C344 C341 1.463 . S
C344 N348 1.427 . S
C345 H335 0.929 . S
C345 C343 1.433 . S
C345 N348 1.384 . S
C346 H337 0.929 . S
C346 C338 1.378 . S
C346 C341 1.350 . S
C347 H334 0.929 . S
C347 C339 1.433 . S
C347 N349 1.384 . S
N348 C344 1.427 . S
N348 C345 1.384 . S
N349 C341 1.427 . S
N349 C347 1.384 . S
H350 C356 0.930 . S
H351 C360 0.930 . S
H352 C365 0.929 . S
H353 C363 0.929 . S
H354 C358 0.929 1_545 S
H355 C364 0.929 1_565 S
C356 H350 0.930 . S
C356 C357 1.367 . S
C356 C364 1.378 . S
C357 C356 1.367 . S
C357 C365 1.433 . S
C358 H354 0.929 1_565 S
C358 C360 1.378 . S
C358 C362 1.350 . S
C359 C362 1.463 1_545 S
C359 C364 1.350 . S
C359 N367 1.427 . S
C360 H351 0.930 . S
C360 C358 1.378 . S
C360 C361 1.367 . S
C361 C360 1.367 . S
C361 C363 1.433 . S
C362 C358 1.350 . S
C362 C359 1.463 1_565 S
C362 N366 1.427 . S
C363 H353 0.929 . S
C363 C361 1.433 . S
C363 N366 1.384 . S
C364 H355 0.929 1_545 S
C364 C356 1.378 . S
C364 C359 1.350 . S
C365 H352 0.929 . S
C365 C357 1.433 . S
C365 N367 1.384 . S
N366 C362 1.427 . S
N366 C363 1.384 . S
N367 C359 1.427 . S
N367 C365 1.384 . S
H368 C374 0.930 . S
H369 C378 0.930 . S
H370 C383 0.929 . S
H371 C381 0.929 . S
H372 C376 0.929 . S
H373 C382 0.929 . S
C374 H368 0.930 . S
C374 C375 1.367 . S
C374 C382 1.378 . S
C375 C374 1.367 . S
C375 C383 1.433 . S
C376 H372 0.929 . S
C376 C378 1.378 . S
C376 C380 1.350 . S
C377 C380 1.463 . S
C377 C382 1.350 . S
C377 N385 1.427 . S
C378 H369 0.930 . S
C378 C376 1.378 . S
C378 C379 1.367 . S
C379 C378 1.367 . S
C379 C381 1.433 . S
C380 C376 1.350 . S
C380 C377 1.463 . S
C380 N384 1.427 . S
C381 H371 0.929 . S
C381 C379 1.433 . S
C381 N384 1.384 . S
C382 H373 0.929 . S
C382 C374 1.378 . S
C382 C377 1.350 . S
C383 H370 0.929 . S
C383 C375 1.433 . S
C383 N385 1.384 . S
N384 C380 1.427 . S
N384 C381 1.384 . S
N385 C377 1.427 . S
N385 C383 1.384 . S
H386 C392 0.930 . S
H387 C396 0.930 . S
H388 C401 0.929 . S
H389 C399 0.929 . S
H390 C394 0.929 . S
H391 C400 0.929 . S
C392 H386 0.930 . S
C392 C393 1.367 . S
C392 C400 1.378 . S
C393 C392 1.367 . S
C393 C401 1.433 . S
C394 H390 0.929 . S
C394 C396 1.378 . S
C394 C398 1.350 . S
C395 C398 1.463 1_565 S
C395 C400 1.350 . S
C395 N403 1.427 . S
C396 H387 0.930 . S
C396 C394 1.378 . S
C396 C397 1.367 . S
C397 C396 1.367 . S
C397 C399 1.433 . S
C398 C394 1.350 . S
C398 C395 1.463 1_545 S
C398 N402 1.427 . S
C399 H389 0.929 . S
C399 C397 1.433 . S
C399 N402 1.384 . S
C400 H391 0.929 . S
C400 C392 1.378 . S
C400 C395 1.350 . S
C401 H388 0.929 . S
C401 C393 1.433 . S
C401 N403 1.384 . S
N402 C398 1.427 . S
N402 C399 1.384 . S
N403 C395 1.427 . S
N403 C401 1.384 . S
H404 C410 0.930 . S
H405 C414 0.930 . S
H406 C419 0.929 1_545 S
H407 C417 0.929 . S
H408 C412 0.929 . S
H409 C418 0.929 . S
C410 H404 0.930 . S
C410 C411 1.367 . S
C410 C418 1.378 . S
C411 C410 1.367 . S
C411 C419 1.433 . S
C412 H408 0.929 . S
C412 C414 1.378 . S
C412 C416 1.350 . S
C413 C416 1.463 . S
C413 C418 1.350 . S
C413 N421 1.427 . S
C414 H405 0.930 . S
C414 C412 1.378 . S
C414 C415 1.367 . S
C415 C414 1.367 . S
C415 C417 1.433 . S
C416 C412 1.350 . S
C416 C413 1.463 . S
C416 N420 1.427 . S
C417 H407 0.929 . S
C417 C415 1.433 . S
C417 N420 1.384 . S
C418 H409 0.929 . S
C418 C410 1.378 . S
C418 C413 1.350 . S
C419 H406 0.929 1_565 S
C419 C411 1.433 . S
C419 N421 1.384 . S
N420 C416 1.427 . S
N420 C417 1.384 . S
N421 C413 1.427 . S
N421 C419 1.384 . S
H422 C428 0.930 . S
H423 C432 0.930 . S
H424 C437 0.929 . S
H425 C435 0.929 . S
H426 C430 0.929 . S
H427 C436 0.929 . S
C428 H422 0.930 . S
C428 C429 1.367 . S
C428 C436 1.378 . S
C429 C428 1.367 . S
C429 C437 1.433 . S
C430 H426 0.929 . S
C430 C432 1.378 . S
C430 C434 1.350 . S
C431 C434 1.463 1_545 S
C431 C436 1.350 . S
C431 N439 1.427 . S
C432 H423 0.930 . S
C432 C430 1.378 . S
C432 C433 1.367 . S
C433 C432 1.367 . S
C433 C435 1.433 . S
C434 C430 1.350 . S
C434 C431 1.463 1_565 S
C434 N438 1.427 . S
C435 H425 0.929 . S
C435 C433 1.433 . S
C435 N438 1.384 . S
C436 H427 0.929 . S
C436 C428 1.378 . S
C436 C431 1.350 . S
C437 H424 0.929 . S
C437 C429 1.433 . S
C437 N439 1.384 . S
N438 C434 1.427 . S
N438 C435 1.384 . S
N439 C431 1.427 . S
N439 C437 1.384 . S
H440 C446 0.930 . S
H441 C450 0.930 . S
H442 C455 0.929 . S
H443 C453 0.929 . S
H444 C448 0.929 . S
H445 C454 0.929 . S
C446 H440 0.930 . S
C446 C447 1.367 . S
C446 C454 1.378 . S
C447 C446 1.367 . S
C447 C455 1.433 . S
C448 H444 0.929 . S
C448 C450 1.378 . S
C448 C452 1.350 . S
C449 C452 1.463 . S
C449 C454 1.350 . S
C449 N457 1.427 . S
C450 H441 0.930 . S
C450 C448 1.378 . S
C450 C451 1.367 . S
C451 C450 1.367 . S
C451 C453 1.433 . S
C452 C448 1.350 . S
C452 C449 1.463 . S
C452 N456 1.427 . S
C453 H443 0.929 . S
C453 C451 1.433 . S
C453 N456 1.384 . S
C454 H445 0.929 . S
C454 C446 1.378 . S
C454 C449 1.350 . S
C455 H442 0.929 . S
C455 C447 1.433 . S
C455 N457 1.384 . S
N456 C452 1.427 . S
N456 C453 1.384 . S
N457 C449 1.427 . S
N457 C455 1.384 . S
H458 C464 0.930 . S
H459 C468 0.930 . S
H460 C473 0.929 . S
H461 C471 0.929 . S
H462 C466 0.929 1_545 S
H463 C472 0.929 1_565 S
C464 H458 0.930 . S
C464 C465 1.367 . S
C464 C472 1.378 . S
C465 C464 1.367 . S
C465 C473 1.433 . S
C466 H462 0.929 1_565 S
C466 C468 1.378 . S
C466 C470 1.350 . S
C467 C470 1.463 1_545 S
C467 C472 1.350 . S
C467 N475 1.427 . S
C468 H459 0.930 . S
C468 C466 1.378 . S
C468 C469 1.367 . S
C469 C468 1.367 . S
C469 C471 1.433 . S
C470 C466 1.350 . S
C470 C467 1.463 1_565 S
C470 N474 1.427 . S
C471 H461 0.929 . S
C471 C469 1.433 . S
C471 N474 1.384 . S
C472 H463 0.929 1_545 S
C472 C464 1.378 . S
C472 C467 1.350 . S
C473 H460 0.929 . S
C473 C465 1.433 . S
C473 N475 1.384 . S
N474 C470 1.427 . S
N474 C471 1.384 . S
N475 C467 1.427 . S
N475 C473 1.384 . S
H476 C482 0.930 . S
H477 C486 0.930 . S
H478 C491 0.929 . S
H479 C489 0.929 . S
H480 C484 0.929 . S
H481 C490 0.929 . S
C482 H476 0.930 . S
C482 C483 1.367 . S
C482 C490 1.378 . S
C483 C482 1.367 . S
C483 C491 1.433 . S
C484 H480 0.929 . S
C484 C486 1.378 . S
C484 C488 1.350 . S
C485 C488 1.463 . S
C485 C490 1.350 . S
C485 N493 1.427 . S
C486 H477 0.930 . S
C486 C484 1.378 . S
C486 C487 1.367 . S
C487 C486 1.367 . S
C487 C489 1.433 . S
C488 C484 1.350 . S
C488 C485 1.463 . S
C488 N492 1.427 . S
C489 H479 0.929 . S
C489 C487 1.433 . S
C489 N492 1.384 . S
C490 H481 0.929 . S
C490 C482 1.378 . S
C490 C485 1.350 . S
C491 H478 0.929 . S
C491 C483 1.433 . S
C491 N493 1.384 . S
N492 C488 1.427 . S
N492 C489 1.384 . S
N493 C485 1.427 . S
N493 C491 1.384 . S
H494 C500 0.930 . S
H495 C504 0.930 . S
H496 C509 0.929 . S
H497 C507 0.929 . S
H498 C502 0.929 . S
H499 C508 0.929 . S
C500 H494 0.930 . S
C500 C501 1.367 . S
C500 C508 1.378 . S
C501 C500 1.367 . S
C501 C509 1.433 . S
C502 H498 0.929 . S
C502 C504 1.378 . S
C502 C506 1.350 . S
C503 C506 1.461 . S
C503 C508 1.351 1_545 S
C503 N511 1.427 . S
C504 H495 0.930 . S
C504 C502 1.378 . S
C504 C505 1.367 . S
C505 C504 1.367 . S
C505 C507 1.433 . S
C506 C502 1.350 . S
C506 C503 1.461 . S
C506 N510 1.427 . S
C507 H497 0.929 . S
C507 C505 1.433 . S
C507 N510 1.384 . S
C508 H499 0.929 . S
C508 C500 1.378 . S
C508 C503 1.351 1_565 S
C509 H496 0.929 . S
C509 C501 1.433 . S
C509 N511 1.384 1_565 S
N510 C506 1.427 . S
N510 C507 1.384 . S
N511 C503 1.427 . S
N511 C509 1.384 1_545 S
H512 C518 0.930 1_545 S
H513 C522 0.930 . S
H514 C527 0.929 . S
H515 C525 0.929 . S
H516 C520 0.929 . S
H517 C526 0.929 . S
C518 H512 0.930 1_565 S
C518 C519 1.367 . S
C518 C526 1.378 . S
C519 C518 1.367 . S
C519 C527 1.433 . S
C520 H516 0.929 . S
C520 C522 1.378 . S
C520 C524 1.350 . S
C521 C524 1.463 . S
C521 C526 1.350 . S
C521 N529 1.427 . S
C522 H513 0.930 . S
C522 C520 1.378 . S
C522 C523 1.367 . S
C523 C522 1.367 . S
C523 C525 1.433 . S
C524 C520 1.350 . S
C524 C521 1.463 . S
C524 N528 1.427 . S
C525 H515 0.929 . S
C525 C523 1.433 . S
C525 N528 1.384 . S
C526 H517 0.929 . S
C526 C518 1.378 . S
C526 C521 1.350 . S
C527 H514 0.929 . S
C527 C519 1.433 . S
C527 N529 1.384 . S
N528 C524 1.427 . S
N528 C525 1.384 . S
N529 C521 1.427 . S
N529 C527 1.384 . S
H530 C536 0.930 . S
H531 C540 0.930 . S
H532 C545 0.929 . S
H533 C543 0.929 . S
H534 C538 0.929 . S
H535 C544 0.929 . S
C536 H530 0.930 . S
C536 C537 1.367 . S
C536 C544 1.378 . S
C537 C536 1.367 . S
C537 C545 1.433 . S
C538 H534 0.929 . S
C538 C540 1.378 . S
C538 C542 1.350 . S
C539 C542 1.463 1_545 S
C539 C544 1.350 . S
C539 N547 1.427 . S
C540 H531 0.930 . S
C540 C538 1.378 . S
C540 C541 1.367 . S
C541 C540 1.367 . S
C541 C543 1.433 . S
C542 C538 1.350 . S
C542 C539 1.463 1_565 S
C542 N546 1.427 . S
C543 H533 0.929 . S
C543 C541 1.433 . S
C543 N546 1.384 . S
C544 H535 0.929 . S
C544 C536 1.378 . S
C544 C539 1.350 . S
C545 H532 0.929 . S
C545 C537 1.433 . S
C545 N547 1.384 . S
N546 C542 1.427 . S
N546 C543 1.384 . S
N547 C539 1.427 . S
N547 C545 1.384 . S
H548 C554 0.902 1_554 S
H549 C558 0.930 . S
H550 C563 0.929 1_565 S
H551 C561 0.929 . S
H552 C556 0.929 . S
H553 C562 0.929 . S
C554 H548 0.902 1_556 S
C554 C555 1.367 . S
C554 C562 1.378 . S
C555 C554 1.367 . S
C555 C563 1.433 . S
C556 H552 0.929 . S
C556 C558 1.378 . S
C556 C560 1.350 . S
C557 C560 1.463 . S
C557 C562 1.350 . S
C557 N565 1.427 . S
C558 H549 0.930 . S
C558 C556 1.378 . S
C558 C559 1.367 . S
C559 C558 1.367 . S
C559 C561 1.433 . S
C560 C556 1.350 . S
C560 C557 1.463 . S
C560 N564 1.427 . S
C561 H551 0.929 . S
C561 C559 1.433 . S
C561 N564 1.384 . S
C562 H553 0.929 . S
C562 C554 1.378 . S
C562 C557 1.350 . S
C563 H550 0.929 1_545 S
C563 C555 1.433 . S
C563 N565 1.384 . S
N564 C560 1.427 . S
N564 C561 1.384 . S
N565 C557 1.427 . S
N565 C563 1.384 . S
H566 C572 0.930 . S
H567 C576 0.930 . S
H568 C581 0.929 . S
H569 C579 0.929 . S
H570 C574 0.929 . S
H571 C580 0.929 . S
C572 H566 0.930 . S
C572 C573 1.367 . S
C572 C580 1.378 . S
C573 C572 1.367 . S
C573 C581 1.433 . S
C574 H570 0.929 . S
C574 C576 1.378 . S
C574 C578 1.350 . S
C575 C578 1.463 1_565 S
C575 C580 1.350 . S
C575 N583 1.427 1_565 S
C576 H567 0.930 . S
C576 C574 1.378 . S
C576 C577 1.367 . S
C577 C576 1.367 . S
C577 C579 1.433 . S
C578 C574 1.350 . S
C578 C575 1.463 1_545 S
C578 N582 1.427 . S
C579 H569 0.929 . S
C579 C577 1.433 . S
C579 N582 1.384 . S
C580 H571 0.929 . S
C580 C572 1.378 . S
C580 C575 1.350 . S
C581 H568 0.929 . S
C581 C573 1.433 . S
C581 N583 1.384 1_565 S
N582 C578 1.427 . S
N582 C579 1.384 . S
N583 C575 1.427 1_545 S
N583 C581 1.384 1_545 S
H584 C590 0.930 1_554 S
H585 C594 0.930 . S
H586 C599 0.929 . S
H587 C597 0.929 . S
H588 C592 0.929 . S
H589 C598 0.929 . S
C590 H584 0.930 1_556 S
C590 C591 1.367 . S
C590 C598 1.378 . S
C591 C590 1.367 . S
C591 C599 1.433 . S
C592 H588 0.929 . S
C592 C594 1.378 . S
C592 C596 1.350 . S
C593 C596 1.463 . S
C593 C598 1.350 . S
C593 N601 1.427 . S
C594 H585 0.930 . S
C594 C592 1.378 . S
C594 C595 1.367 . S
C595 C594 1.367 . S
C595 C597 1.433 . S
C596 C592 1.350 . S
C596 C593 1.463 . S
C596 N600 1.427 . S
C597 H587 0.929 . S
C597 C595 1.433 . S
C597 N600 1.384 . S
C598 H589 0.929 . S
C598 C590 1.378 . S
C598 C593 1.350 . S
C599 H586 0.929 . S
C599 C591 1.433 . S
C599 N601 1.384 . S
N600 C596 1.427 . S
N600 C597 1.384 . S
N601 C593 1.427 . S
N601 C599 1.384 . S
H602 C608 0.930 . S
H603 C612 0.930 . S
H604 C617 0.929 . S
H605 C615 0.929 . S
H606 C610 0.929 . S
H607 C616 0.929 . S
C608 H602 0.930 . S
C608 C609 1.367 . S
C608 C616 1.378 . S
C609 C608 1.367 . S
C609 C617 1.433 . S
C610 H606 0.929 . S
C610 C612 1.378 . S
C610 C614 1.350 . S
C611 C614 1.463 . S
C611 C616 1.350 . S
C611 N619 1.427 . S
C612 H603 0.930 . S
C612 C610 1.378 . S
C612 C613 1.367 . S
C613 C612 1.367 . S
C613 C615 1.433 . S
C614 C610 1.350 . S
C614 C611 1.463 . S
C614 N618 1.427 . S
C615 H605 0.929 . S
C615 C613 1.433 . S
C615 N618 1.384 . S
C616 H607 0.929 . S
C616 C608 1.378 . S
C616 C611 1.350 . S
C617 H604 0.929 . S
C617 C609 1.433 . S
C617 N619 1.384 . S
N618 C614 1.427 . S
N618 C615 1.384 . S
N619 C611 1.427 . S
N619 C617 1.384 . S
H620 C626 0.930 . S
H621 C630 0.930 . S
H622 C635 0.929 . S
H623 C633 0.929 . S
H624 C628 0.929 . S
H625 C634 0.929 . S
C626 H620 0.930 . S
C626 C627 1.367 . S
C626 C634 1.378 . S
C627 C626 1.367 . S
C627 C635 1.433 . S
C628 H624 0.929 . S
C628 C630 1.378 . S
C628 C632 1.350 . S
C629 C632 1.463 . S
C629 C634 1.350 . S
C629 N637 1.427 . S
C630 H621 0.930 . S
C630 C628 1.378 . S
C630 C631 1.367 . S
C631 C630 1.367 . S
C631 C633 1.433 . S
C632 C628 1.350 . S
C632 C629 1.463 . S
C632 N636 1.427 . S
C633 H623 0.929 . S
C633 C631 1.433 . S
C633 N636 1.384 . S
C634 H625 0.929 . S
C634 C626 1.378 . S
C634 C629 1.350 . S
C635 H622 0.929 . S
C635 C627 1.433 . S
C635 N637 1.384 . S
N636 C632 1.427 . S
N636 C633 1.384 . S
N637 C629 1.427 . S
N637 C635 1.384 . S
H638 C644 0.930 . S
H639 C648 0.930 . S
H640 C653 0.929 . S
H641 C651 0.929 . S
H642 C646 0.929 . S
H643 C652 0.929 . S
C644 H638 0.930 . S
C644 C645 1.367 . S
C644 C652 1.378 . S
C645 C644 1.367 . S
C645 C653 1.433 . S
C646 H642 0.929 . S
C646 C648 1.378 . S
C646 C650 1.350 . S
C647 C650 1.463 . S
C647 C652 1.350 . S
C647 N655 1.427 . S
C648 H639 0.930 . S
C648 C646 1.378 . S
C648 C649 1.367 . S
C649 C648 1.367 . S
C649 C651 1.433 . S
C650 C646 1.350 . S
C650 C647 1.463 . S
C650 N654 1.427 . S
C651 H641 0.929 . S
C651 C649 1.433 . S
C651 N654 1.384 . S
C652 H643 0.929 . S
C652 C644 1.378 . S
C652 C647 1.350 . S
C653 H640 0.929 . S
C653 C645 1.433 . S
C653 N655 1.384 . S
N654 C650 1.427 . S
N654 C651 1.384 . S
N655 C647 1.427 . S
N655 C653 1.384 . S
H656 C662 0.930 . S
H657 C666 0.930 . S
H658 C671 0.929 . S
H659 C669 0.929 . S
H660 C664 0.929 . S
H661 C670 0.929 . S
C662 H656 0.930 . S
C662 C663 1.367 . S
C662 C670 1.378 . S
C663 C662 1.367 . S
C663 C671 1.433 . S
C664 H660 0.929 . S
C664 C666 1.378 . S
C664 C668 1.350 . S
C665 C668 1.463 . S
C665 C670 1.350 . S
C665 N673 1.427 . S
C666 H657 0.930 . S
C666 C664 1.378 . S
C666 C667 1.367 . S
C667 C666 1.367 . S
C667 C669 1.433 . S
C668 C664 1.350 . S
C668 C665 1.463 . S
C668 N672 1.427 . S
C669 H659 0.929 . S
C669 C667 1.433 . S
C669 N672 1.384 . S
C670 H661 0.929 . S
C670 C662 1.378 . S
C670 C665 1.350 . S
C671 H658 0.929 . S
C671 C663 1.433 . S
C671 N673 1.384 . S
N672 C668 1.427 . S
N672 C669 1.384 . S
N673 C665 1.427 . S
N673 C671 1.384 . S
H674 C680 0.930 . S
H675 C684 0.930 . S
H676 C689 0.929 . S
H677 C687 0.929 . S
H678 C682 0.929 . S
H679 C688 0.929 . S
C680 H674 0.930 . S
C680 C681 1.367 . S
C680 C688 1.378 . S
C681 C680 1.367 . S
C681 C689 1.433 . S
C682 H678 0.929 . S
C682 C684 1.378 . S
C682 C686 1.350 . S
C683 C686 1.463 . S
C683 C688 1.350 . S
C683 N691 1.427 . S
C684 H675 0.930 . S
C684 C682 1.378 . S
C684 C685 1.367 . S
C685 C684 1.367 . S
C685 C687 1.433 . S
C686 C682 1.350 . S
C686 C683 1.463 . S
C686 N690 1.427 . S
C687 H677 0.929 . S
C687 C685 1.433 . S
C687 N690 1.384 . S
C688 H679 0.929 . S
C688 C680 1.378 . S
C688 C683 1.350 . S
C689 H676 0.929 . S
C689 C681 1.433 . S
C689 N691 1.384 . S
N690 C686 1.427 . S
N690 C687 1.384 . S
N691 C683 1.427 . S
N691 C689 1.384 . S
H692 C698 0.930 . S
H693 C702 0.930 . S
H694 C707 0.929 . S
H695 C705 0.929 . S
H696 C700 0.929 . S
H697 C706 0.929 . S
C698 H692 0.930 . S
C698 C699 1.367 . S
C698 C706 1.378 . S
C699 C698 1.367 . S
C699 C707 1.433 . S
C700 H696 0.929 . S
C700 C702 1.378 . S
C700 C704 1.350 . S
C701 C704 1.463 . S
C701 C706 1.350 . S
C701 N709 1.427 . S
C702 H693 0.930 . S
C702 C700 1.378 . S
C702 C703 1.367 . S
C703 C702 1.367 . S
C703 C705 1.433 . S
C704 C700 1.350 . S
C704 C701 1.463 . S
C704 N708 1.427 . S
C705 H695 0.929 . S
C705 C703 1.433 . S
C705 N708 1.384 . S
C706 H697 0.929 . S
C706 C698 1.378 . S
C706 C701 1.350 . S
C707 H694 0.929 . S
C707 C699 1.433 . S
C707 N709 1.384 . S
N708 C704 1.427 . S
N708 C705 1.384 . S
N709 C701 1.427 . S
N709 C707 1.384 . S
H710 C716 0.930 . S
H711 C720 0.930 . S
H712 C725 0.929 . S
H713 C723 0.929 . S
H714 C718 0.929 . S
H715 C724 0.929 . S
C716 H710 0.930 . S
C716 C717 1.367 . S
C716 C724 1.378 . S
C717 C716 1.367 . S
C717 C725 1.433 . S
C718 H714 0.929 . S
C718 C720 1.378 . S
C718 C722 1.350 . S
C719 C722 1.463 . S
C719 C724 1.350 . S
C719 N727 1.427 . S
C720 H711 0.930 . S
C720 C718 1.378 . S
C720 C721 1.367 . S
C721 C720 1.367 . S
C721 C723 1.433 . S
C722 C718 1.350 . S
C722 C719 1.463 . S
C722 N726 1.427 . S
C723 H713 0.929 . S
C723 C721 1.433 . S
C723 N726 1.384 . S
C724 H715 0.929 . S
C724 C716 1.378 . S
C724 C719 1.350 . S
C725 H712 0.929 . S
C725 C717 1.433 . S
C725 N727 1.384 . S
N726 C722 1.427 . S
N726 C723 1.384 . S
N727 C719 1.427 . S
N727 C725 1.384 . S
H728 C734 0.930 . S
H729 C738 0.930 . S
H730 C743 0.929 . S
H731 C741 0.929 . S
H732 C736 0.929 . S
H733 C742 0.929 . S
C734 H728 0.930 . S
C734 C735 1.367 . S
C734 C742 1.378 . S
C735 C734 1.367 . S
C735 C743 1.433 . S
C736 H732 0.929 . S
C736 C738 1.378 . S
C736 C740 1.350 . S
C737 C740 1.463 . S
C737 C742 1.350 . S
C737 N745 1.427 . S
C738 H729 0.930 . S
C738 C736 1.378 . S
C738 C739 1.367 . S
C739 C738 1.367 . S
C739 C741 1.433 . S
C740 C736 1.350 . S
C740 C737 1.463 . S
C740 N744 1.427 . S
C741 H731 0.929 . S
C741 C739 1.433 . S
C741 N744 1.384 . S
C742 H733 0.929 . S
C742 C734 1.378 . S
C742 C737 1.350 . S
C743 H730 0.929 . S
C743 C735 1.433 . S
C743 N745 1.384 . S
N744 C740 1.427 . S
N744 C741 1.384 . S
N745 C737 1.427 . S
N745 C743 1.384 . S
H746 C752 0.930 . S
H747 C756 0.930 . S
H748 C761 0.929 . S
H749 C759 0.929 . S
H750 C754 0.929 . S
H751 C760 0.929 . S
C752 H746 0.930 . S
C752 C753 1.367 . S
C752 C760 1.378 . S
C753 C752 1.367 . S
C753 C761 1.433 . S
C754 H750 0.929 . S
C754 C756 1.378 . S
C754 C758 1.350 . S
C755 C758 1.463 . S
C755 C760 1.350 . S
C755 N763 1.427 . S
C756 H747 0.930 . S
C756 C754 1.378 . S
C756 C757 1.367 . S
C757 C756 1.367 . S
C757 C759 1.433 . S
C758 C754 1.350 . S
C758 C755 1.463 . S
C758 N762 1.427 . S
C759 H749 0.929 . S
C759 C757 1.433 . S
C759 N762 1.384 . S
C760 H751 0.929 . S
C760 C752 1.378 . S
C760 C755 1.350 . S
C761 H748 0.929 . S
C761 C753 1.433 . S
C761 N763 1.384 . S
N762 C758 1.427 . S
N762 C759 1.384 . S
N763 C755 1.427 . S
N763 C761 1.384 . S
H764 C770 0.930 . S
H765 C774 0.930 . S
H766 C779 0.929 . S
H767 C777 0.929 . S
H768 C772 0.929 . S
H769 C778 0.929 . S
C770 H764 0.930 . S
C770 C771 1.367 . S
C770 C778 1.378 . S
C771 C770 1.367 . S
C771 C779 1.433 . S
C772 H768 0.929 . S
C772 C774 1.378 . S
C772 C776 1.350 . S
C773 C776 1.463 . S
C773 C778 1.350 . S
C773 N781 1.427 . S
C774 H765 0.930 . S
C774 C772 1.378 . S
C774 C775 1.367 . S
C775 C774 1.367 . S
C775 C777 1.433 . S
C776 C772 1.350 . S
C776 C773 1.463 . S
C776 N780 1.427 . S
C777 H767 0.929 . S
C777 C775 1.433 . S
C777 N780 1.384 . S
C778 H769 0.929 . S
C778 C770 1.378 . S
C778 C773 1.350 . S
C779 H766 0.929 . S
C779 C771 1.433 . S
C779 N781 1.384 . S
N780 C776 1.427 . S
N780 C777 1.384 . S
N781 C773 1.427 . S
N781 C779 1.384 . S
H782 C788 0.930 . S
H783 C792 0.930 . S
H784 C797 0.929 . S
H785 C795 0.929 . S
H786 C790 0.929 . S
H787 C796 0.929 . S
C788 H782 0.930 . S
C788 C789 1.367 . S
C788 C796 1.378 . S
C789 C788 1.367 . S
C789 C797 1.433 . S
C790 H786 0.929 . S
C790 C792 1.378 . S
C790 C794 1.350 . S
C791 C794 1.463 . S
C791 C796 1.350 . S
C791 N799 1.427 . S
C792 H783 0.930 . S
C792 C790 1.378 . S
C792 C793 1.367 . S
C793 C792 1.367 . S
C793 C795 1.433 . S
C794 C790 1.350 . S
C794 C791 1.463 . S
C794 N798 1.427 . S
C795 H785 0.929 . S
C795 C793 1.433 . S
C795 N798 1.384 . S
C796 H787 0.929 . S
C796 C788 1.378 . S
C796 C791 1.350 . S
C797 H784 0.929 . S
C797 C789 1.433 . S
C797 N799 1.384 . S
N798 C794 1.427 . S
N798 C795 1.384 . S
N799 C791 1.427 . S
N799 C797 1.384 . S
H800 C806 0.937 . S
H801 C810 0.930 . S
H802 C815 0.929 . S
H803 C813 0.929 . S
H804 C808 0.929 . S
H805 C814 0.929 . S
C806 H800 0.937 . S
C806 C807 1.367 . S
C806 C814 1.378 . S
C807 C806 1.367 . S
C807 C815 1.433 . S
C808 H804 0.929 . S
C808 C810 1.378 . S
C808 C812 1.350 . S
C809 C812 1.463 . S
C809 C814 1.350 . S
C809 N817 1.427 . S
C810 H801 0.930 . S
C810 C808 1.378 . S
C810 C811 1.367 . S
C811 C810 1.367 . S
C811 C813 1.433 . S
C812 C808 1.350 . S
C812 C809 1.463 . S
C812 N816 1.427 . S
C813 H803 0.929 . S
C813 C811 1.433 . S
C813 N816 1.384 . S
C814 H805 0.929 . S
C814 C806 1.378 . S
C814 C809 1.350 . S
C815 H802 0.929 . S
C815 C807 1.433 . S
C815 N817 1.384 . S
N816 C812 1.427 . S
N816 C813 1.384 . S
N817 C809 1.427 . S
N817 C815 1.384 . S
H818 C824 0.930 . S
H819 C828 0.930 . S
H820 C833 0.929 . S
H821 C831 0.929 . S
H822 C826 0.929 . S
H823 C832 0.929 . S
C824 H818 0.930 . S
C824 C825 1.367 . S
C824 C832 1.378 . S
C825 C824 1.367 . S
C825 C833 1.433 . S
C826 H822 0.929 . S
C826 C828 1.378 . S
C826 C830 1.350 . S
C827 C830 1.463 . S
C827 C832 1.350 . S
C827 N835 1.427 . S
C828 H819 0.930 . S
C828 C826 1.378 . S
C828 C829 1.367 . S
C829 C828 1.367 . S
C829 C831 1.433 . S
C830 C826 1.350 . S
C830 C827 1.463 . S
C830 N834 1.427 . S
C831 H821 0.929 . S
C831 C829 1.433 . S
C831 N834 1.384 . S
C832 H823 0.929 . S
C832 C824 1.378 . S
C832 C827 1.350 . S
C833 H820 0.929 . S
C833 C825 1.433 . S
C833 N835 1.384 . S
N834 C830 1.427 . S
N834 C831 1.384 . S
N835 C827 1.427 . S
N835 C833 1.384 . S
H836 C842 0.930 . S
H837 C846 0.930 . S
H838 C851 0.929 . S
H839 C849 0.929 . S
H840 C844 0.929 . S
H841 C850 0.929 . S
C842 H836 0.930 . S
C842 C843 1.367 . S
C842 C850 1.378 . S
C843 C842 1.367 . S
C843 C851 1.433 . S
C844 H840 0.929 . S
C844 C846 1.378 . S
C844 C848 1.350 . S
C845 C848 1.463 . S
C845 C850 1.350 . S
C845 N853 1.427 . S
C846 H837 0.930 . S
C846 C844 1.378 . S
C846 C847 1.367 . S
C847 C846 1.367 . S
C847 C849 1.433 . S
C848 C844 1.350 . S
C848 C845 1.463 . S
C848 N852 1.427 . S
C849 H839 0.929 . S
C849 C847 1.433 . S
C849 N852 1.384 . S
C850 H841 0.929 . S
C850 C842 1.378 . S
C850 C845 1.350 . S
C851 H838 0.929 . S
C851 C843 1.433 . S
C851 N853 1.384 . S
N852 C848 1.427 . S
N852 C849 1.384 . S
N853 C845 1.427 . S
N853 C851 1.384 . S
H854 C860 0.930 . S
H855 C864 0.930 . S
H856 C869 0.929 . S
H857 C867 0.929 . S
H858 C862 0.929 . S
H859 C868 0.929 . S
C860 H854 0.930 . S
C860 C861 1.367 . S
C860 C868 1.378 . S
C861 C860 1.367 . S
C861 C869 1.433 . S
C862 H858 0.929 . S
C862 C864 1.378 . S
C862 C866 1.350 . S
C863 C866 1.463 . S
C863 C868 1.350 . S
C863 N871 1.427 . S
C864 H855 0.930 . S
C864 C862 1.378 . S
C864 C865 1.367 . S
C865 C864 1.367 . S
C865 C867 1.433 . S
C866 C862 1.350 . S
C866 C863 1.463 . S
C866 N870 1.427 . S
C867 H857 0.929 . S
C867 C865 1.433 . S
C867 N870 1.384 . S
C868 H859 0.929 . S
C868 C860 1.378 . S
C868 C863 1.350 . S
C869 H856 0.929 . S
C869 C861 1.433 . S
C869 N871 1.384 . S
N870 C866 1.427 . S
N870 C867 1.384 . S
N871 C863 1.427 . S
N871 C869 1.384 . S
C307 C217 1.567 . S
C303 C17 1.496 . S
C321 C30 1.488 . S
C325 C249 1.526 . S
C339 C61 1.480 1_556 S
C343 C272 1.526 . S
C361 C176 1.571 . S
C357 C72 1.512 . S
C379 C259 1.385 . S
C375 C19 1.495 . S
C397 C288 1.437 . S
C393 C33 1.471 . S
C415 C192 1.455 . S
C411 C59 1.496 . S
C433 C227 1.408 . S
C429 C75 1.452 . S
C447 C12 1.459 . S
C451 C255 1.409 . S
C465 C101 1.465 . S
C469 C230 1.396 . S
C483 C51 1.438 . S
C487 C198 1.374 . S
C505 C287 1.387 . S
C501 C124 1.447 . S
C523 C231 1.551 . S
C519 C9 1.504 1_565 S
C537 C103 1.506 . S
C541 C199 1.546 . S
C555 C54 1.475 1_556 S
C559 C286 1.593 . S
C577 C254 1.596 . S
C573 C122 1.538 . S
C591 C145 1.486 1_556 S
C595 C281 1.523 . S
C609 C96 1.484 . S
C613 C185 1.556 . S
C627 C166 1.513 . S
C631 C208 1.560 . S
C645 C114 1.484 . S
C649 C240 1.540 . S
C667 C195 1.442 . S
C663 C143 1.497 . S
C681 C93 1.483 . S
C685 C224 1.417 . S
C699 C164 1.456 . S
C703 C256 1.419 . S
C721 C291 1.428 . S
C717 C117 1.475 . S
C735 C135 1.431 . S
C739 C191 1.380 . S
C753 C40 1.429 . S
C757 C294 1.350 . S
C771 C156 1.468 . S
C775 C262 1.405 . S
C793 C223 1.415 . S
C789 C82 1.477 . S
C811 C295 1.589 . S
C807 C138 1.520 1_556 S
C829 C263 1.586 . S
C825 C38 1.529 . S
C847 C222 1.561 . S
C843 C159 1.483 . S
C865 C190 1.571 . S
C861 C80 1.500 . S
