# Generated by pormake.
# Topology rtl, (3,6)-cn, num edge types: 1
# Building blocks:
#     Node 0, Type 0, BuildingBlock: VETTIZ_charged_linker_0, # of connection points: 3
#     Node 1, Type 0, BuildingBlock: VETTIZ_charged_linker_0, # of connection points: 3
#     Node 2, Type 0, BuildingBlock: VETTIZ_charged_linker_0, # of connection points: 3
#     Node 3, Type 0, BuildingBlock: VETTIZ_charged_linker_0, # of connection points: 3
#     Node 4, Type 1, BuildingBlock: KUMBUR_clean_sbu_1, # of connection points: 6
#     Node 5, Type 1, BuildingBlock: KUMBUR_clean_sbu_1, # of connection points: 6
#     Edge 6, Type (0, 1), BuildingBlock: EZIPEK_clean_linker_0, # of connection points: 2
#     Edge 7, Type (0, 1), BuildingBlock: EZIPEK_clean_linker_0, # of connection points: 2
#     Edge 8, Type (0, 1), BuildingBlock: EZIPEK_clean_linker_0, # of connection points: 2
#     Edge 9, Type (0, 1), BuildingBlock: EZIPEK_clean_linker_0, # of connection points: 2
#     Edge 10, Type (0, 1), BuildingBlock: EZIPEK_clean_linker_0, # of connection points: 2
#     Edge 11, Type (0, 1), BuildingBlock: EZIPEK_clean_linker_0, # of connection points: 2
#     Edge 12, Type (0, 1), BuildingBlock: EZIPEK_clean_linker_0, # of connection points: 2
#     Edge 13, Type (0, 1), BuildingBlock: EZIPEK_clean_linker_0, # of connection points: 2
#     Edge 14, Type (0, 1), BuildingBlock: EZIPEK_clean_linker_0, # of connection points: 2
#     Edge 15, Type (0, 1), BuildingBlock: EZIPEK_clean_linker_0, # of connection points: 2
#     Edge 16, Type (0, 1), BuildingBlock: EZIPEK_clean_linker_0, # of connection points: 2
#     Edge 17, Type (0, 1), BuildingBlock: EZIPEK_clean_linker_0, # of connection points: 2
# Relax obj value: 0.018
# Max RMSD: 0.113
# Mean RMSD: 0.067
data_MOF--net-rtl--node1-KUMBUR_clean_sbu_1--node2-VETTIZ_charged_linker_0--edge1-EZIPEK_clean_linker_0
_symmetry_space_group_name_H-M    P1
_symmetry_Int_Tables_number       1
_symmetry_cell_setting            triclinic
loop_
_symmetry_equiv_pos_as_xyz
'x, y, z'
_cell_length_a     30.693594
_cell_length_b     31.535084
_cell_length_c     27.918895
_cell_angle_alpha  77.41674
_cell_angle_beta   99.045346
_cell_angle_gamma 90.556511
loop_
_atom_site_label
_atom_site_type_symbol
_atom_site_fract_x
_atom_site_fract_y
_atom_site_fract_z
_atom_type_partial_charge
C0 C 0.19537 0.91748 0.84131 0.0
C1 C 0.15613 0.94261 0.82966 0.0
C2 C 0.14093 0.95955 0.86688 0.0
C3 C 0.2015 0.92283 0.92758 0.0
C4 C 0.21692 0.90712 0.89066 0.0
C5 C 0.25641 0.87696 0.91066 0.0
H6 H 0.35528 0.7254 0.10053 0.0
C7 C 0.22822 0.90216 0.9756 0.0
C8 C 0.25963 0.87436 0.9662 0.0
H9 H 0.39084 0.76482 0.9535 0.0
H10 H 0.34176 0.82749 0.93591 0.0
H11 H 0.3661 0.83421 0.11041 0.0
H12 H 0.25465 0.75249 0.08401 0.0
H13 H 0.24547 0.78291 0.12768 0.0
H14 H 0.29046 0.74359 0.14296 0.0
H15 H 0.35437 0.78808 0.15658 0.0
H16 H 0.32706 0.83995 0.14866 0.0
C17 C 0.29716 0.89873 0.88995 0.0
C18 C 0.24537 0.83276 0.89666 0.0
C19 C 0.19422 0.9363 0.13515 0.0
C20 C 0.2003 0.9124 0.18454 0.0
C21 C 0.22639 0.87373 0.19718 0.0
C22 C 0.24547 0.85887 0.16115 0.0
C23 C 0.23703 0.88199 0.11147 0.0
C24 C 0.21054 0.91926 0.09902 0.0
C25 C 0.19632 0.93363 0.04385 0.0
C26 C 0.224 0.90298 0.02524 0.0
C27 C 0.24802 0.8728 0.06497 0.0
C28 C 0.20885 0.98152 0.02686 0.0
C29 C 0.14608 0.92544 0.03207 0.0
C30 C 0.35264 0.74756 0.06458 0.0
C31 C 0.37512 0.73858 0.02727 0.0
C32 C 0.37219 0.76955 0.98189 0.0
C33 C 0.34382 0.80588 0.97161 0.0
C34 C 0.31881 0.81213 1.00743 0.0
C35 C 0.32612 0.78559 0.05436 0.0
C36 C 0.30324 0.80352 0.09013 0.0
C37 C 0.27803 0.84271 0.05535 0.0
C38 C 0.28593 0.84592 1.00655 0.0
C39 C 0.3393 0.81704 0.12886 0.0
C40 C 0.2719 0.76889 0.11285 0.0
H41 H 0.15117 0.96479 0.94214 0.0
H42 H 0.20802 0.90507 0.81281 0.0
H43 H 0.21406 0.82045 0.90926 0.0
H44 H 0.27095 0.80736 0.91335 0.0
H45 H 0.24133 0.83606 0.85577 0.0
H46 H 0.29132 0.93412 0.87399 0.0
H47 H 0.30607 0.88385 0.8601 0.0
H48 H 0.32628 0.89674 0.91952 0.0
H49 H 0.17354 0.96554 0.1241 0.0
H50 H 0.23109 0.85438 0.23486 0.0
H51 H 0.2643 0.82891 0.1729 0.0
H52 H 0.24379 0.98631 0.04225 0.0
H53 H 0.18765 0.00354 0.03997 0.0
H54 H 0.20584 0.99191 0.98603 0.0
H55 H 0.13379 0.90306 0.06344 0.0
H56 H 0.13803 0.90903 1.00062 0.0
H57 H 0.12625 0.95619 0.02394 0.0
H58 H 0.1113 0.97997 0.85804 0.0
C59 C 0.16383 0.95036 0.91562 0.0
C60 C 0.63494 0.66933 0.7978 0.0
C61 C 0.59746 0.64363 0.80329 0.0
C62 C 0.56887 0.63801 0.76064 0.0
C63 C 0.61665 0.68002 0.70811 0.0
C64 C 0.64317 0.68823 0.74973 0.0
C65 C 0.68014 0.71814 0.7361 0.0
H66 H 0.77564 0.84456 0.55219 0.0
C67 C 0.63525 0.70183 0.66388 0.0
C68 C 0.67165 0.72565 0.67961 0.0
H69 H 0.82247 0.82045 0.71006 0.0
H70 H 0.76023 0.77429 0.72579 0.0
H71 H 0.77287 0.75073 0.55708 0.0
H72 H 0.66725 0.84142 0.54679 0.0
H73 H 0.65142 0.80829 0.50372 0.0
H74 H 0.70017 0.84021 0.49923 0.0
H75 H 0.74341 0.77757 0.49792 0.0
H76 H 0.72662 0.72581 0.53118 0.0
C77 C 0.72459 0.69371 0.75891 0.0
C78 C 0.67395 0.76036 0.75408 0.0
C79 C 0.58684 0.65809 0.49933 0.0
C80 C 0.60298 0.66918 0.45394 0.0
C81 C 0.63125 0.70447 0.44559 0.0
C82 C 0.64567 0.72674 0.48307 0.0
C83 C 0.6325 0.71295 0.52982 0.0
C84 C 0.60255 0.68004 0.53704 0.0
C85 C 0.59233 0.67014 0.58931 0.0
C86 C 0.6242 0.69982 0.61311 0.0
C87 C 0.64725 0.7249 0.57792 0.0
C88 C 0.60346 0.62147 0.61246 0.0
C89 C 0.5434 0.68336 0.58738 0.0
C90 C 0.77209 0.82993 0.59023 0.0
C91 C 0.80347 0.83695 0.62992 0.0
C92 C 0.79834 0.81614 0.67884 0.0
C93 C 0.7624 0.7891 0.68784 0.0
C94 C 0.73231 0.78118 0.6474 0.0
C95 C 0.73833 0.80071 0.59959 0.0
C96 C 0.70924 0.78246 0.56097 0.0
C97 C 0.68183 0.75164 0.59301 0.0
C98 C 0.69485 0.75133 0.64367 0.0
C99 C 0.73925 0.75808 0.5351 0.0
C100 C 0.68052 0.81995 0.52542 0.0
H101 H 0.55585 0.6498 0.68213 0.0
H102 H 0.65717 0.6744 0.83013 0.0
H103 H 0.63908 0.77245 0.74312 0.0
H104 H 0.69416 0.78708 0.73775 0.0
H105 H 0.68211 0.75456 0.79522 0.0
H106 H 0.72222 0.65869 0.75783 0.0
H107 H 0.73434 0.69585 0.79833 0.0
H108 H 0.75158 0.70571 0.73807 0.0
H109 H 0.56443 0.63149 0.50599 0.0
H110 H 0.64328 0.71389 0.4104 0.0
H111 H 0.66747 0.75309 0.47459 0.0
H112 H 0.63715 0.61294 0.60703 0.0
H113 H 0.57971 0.60046 0.59479 0.0
H114 H 0.60306 0.61268 0.65279 0.0
H115 H 0.52975 0.70567 0.55155 0.0
H116 H 0.53941 0.70163 0.61622 0.0
H117 H 0.52214 0.6545 0.59175 0.0
H118 H 0.5398 0.61854 0.76427 0.0
C119 C 0.57831 0.65598 0.71314 0.0
C120 C 0.82009 0.0898 0.26168 0.0
C121 C 0.85449 0.05847 0.27532 0.0
C122 C 0.8671 0.03827 0.2392 0.0
C123 C 0.81377 0.08364 0.17565 0.0
C124 C 0.80034 0.10196 0.21181 0.0
C125 C 0.76607 0.13761 0.19045 0.0
H126 H 0.65964 0.27887 0.98957 0.0
C127 C 0.78991 0.10694 0.12681 0.0
C128 C 0.76196 0.13864 0.13536 0.0
H129 H 0.65411 0.2738 0.14419 0.0
H130 H 0.69882 0.20738 0.16818 0.0
H131 H 0.75678 0.25791 0.99989 0.0
H132 H 0.64823 0.17074 0.99935 0.0
H133 H 0.68428 0.1558 0.96236 0.0
H134 H 0.65861 0.20935 0.94506 0.0
H135 H 0.72235 0.25284 0.94334 0.0
H136 H 0.77064 0.21832 0.96923 0.0
C137 C 0.78482 0.18027 0.20352 0.0
C138 C 0.72276 0.12316 0.21049 0.0
C139 C 0.83056 0.07679 0.9673 0.0
C140 C 0.82047 0.09959 0.91751 0.0
C141 C 0.78737 0.1325 0.90443 0.0
C142 C 0.76635 0.14438 0.94066 0.0
C143 C 0.77927 0.12387 0.99081 0.0
C144 C 0.81035 0.09018 1.00346 0.0
C145 C 0.82236 0.07461 0.05893 0.0
C146 C 0.79308 0.10423 0.07729 0.0
C147 C 0.76798 0.13304 0.03713 0.0
C148 C 0.87215 0.08267 0.07361 0.0
C149 C 0.80946 0.02648 0.07296 0.0
C150 C 0.66788 0.26303 0.0285 0.0
C151 C 0.65408 0.28145 0.06528 0.0
C152 C 0.6649 0.2601 0.11553 0.0
C153 C 0.69084 0.22169 0.12922 0.0
C154 C 0.70627 0.20462 0.09225 0.0
C155 C 0.69365 0.22455 0.04277 0.0
C156 C 0.71285 0.20161 1.00863 0.0
C157 C 0.74005 0.16534 0.04581 0.0
C158 C 0.73639 0.16753 0.09468 0.0
C159 C 0.74198 0.23412 0.97827 0.0
C160 C 0.67421 0.18355 0.97673 0.0
H161 H 0.8582 0.03462 0.16328 0.0
H162 H 0.81025 0.10592 0.28897 0.0
H163 H 0.71862 0.08752 0.21455 0.0
H164 H 0.69299 0.13806 0.18494 0.0
H165 H 0.72266 0.13065 0.24754 0.0
H166 H 0.82101 0.18166 0.20307 0.0
H167 H 0.77925 0.18275 0.24118 0.0
H168 H 0.77105 0.20979 0.17651 0.0
H169 H 0.85594 0.05136 0.97819 0.0
H170 H 0.77885 0.15008 0.86616 0.0
H171 H 0.74214 0.17033 0.92835 0.0
H172 H 0.88272 0.11214 0.04862 0.0
H173 H 0.89285 0.05477 0.07111 0.0
H174 H 0.8804 0.08927 0.11116 0.0
H175 H 0.7769 0.02122 0.05145 0.0
H176 H 0.80558 0.01593 0.11241 0.0
H177 H 0.83417 0.00474 0.06464 0.0
H178 H 0.89373 0.01413 0.24934 0.0
C179 C 0.84666 0.05048 0.1894 0.0
C180 C 0.38904 0.33019 0.31072 0.0
C181 C 0.42328 0.36015 0.30512 0.0
C182 C 0.446 0.37288 0.34729 0.0
C183 C 0.39887 0.32879 0.39927 0.0
C184 C 0.37765 0.3146 0.3583 0.0
C185 C 0.3424 0.28239 0.37198 0.0
H186 H 0.21581 0.19024 0.54579 0.0
C187 C 0.37739 0.30943 0.44251 0.0
C188 C 0.34402 0.28209 0.42693 0.0
H189 H 0.21222 0.16268 0.40054 0.0
H190 H 0.27188 0.21282 0.38486 0.0
H191 H 0.32082 0.18003 0.57086 0.0
H192 H 0.22946 0.28839 0.52101 0.0
H193 H 0.27282 0.30646 0.55984 0.0
H194 H 0.24128 0.26067 0.58506 0.0
H195 H 0.28774 0.1979 0.6106 0.0
H196 H 0.34157 0.21945 0.60344 0.0
C197 C 0.35672 0.23785 0.36414 0.0
C198 C 0.29768 0.3001 0.34064 0.0
C199 C 0.42458 0.35333 0.60863 0.0
C200 C 0.4098 0.34185 0.65542 0.0
C201 C 0.3716 0.31617 0.65751 0.0
C202 C 0.35201 0.29916 0.61738 0.0
C203 C 0.36924 0.3086 0.57285 0.0
C204 C 0.4044 0.33585 0.56859 0.0
C205 C 0.41642 0.34419 0.51699 0.0
C206 C 0.38346 0.31618 0.4919 0.0
C207 C 0.35588 0.29577 0.52492 0.0
C208 C 0.46466 0.32793 0.52123 0.0
C209 C 0.40821 0.39325 0.49343 0.0
C210 C 0.22769 0.19519 0.51047 0.0
C211 C 0.20892 0.17313 0.47411 0.0
C212 C 0.22591 0.17981 0.42891 0.0
C213 C 0.26064 0.20868 0.42006 0.0
C214 C 0.27927 0.23032 0.45725 0.0
C215 C 0.26312 0.22242 0.50185 0.0
C216 C 0.28862 0.24464 0.5391 0.0
C217 C 0.32224 0.26828 0.50951 0.0
C218 C 0.31658 0.26061 0.46116 0.0
C219 C 0.31072 0.20898 0.58365 0.0
C220 C 0.25663 0.27654 0.55245 0.0
H221 H 0.45232 0.36891 0.42464 0.0
H222 H 0.37126 0.31986 0.27872 0.0
H223 H 0.29249 0.33472 0.34167 0.0
H224 H 0.26933 0.28258 0.35441 0.0
H225 H 0.29658 0.29817 0.3012 0.0
H226 H 0.39289 0.23206 0.37606 0.0
H227 H 0.34899 0.23631 0.32432 0.0
H228 H 0.34136 0.21036 0.38665 0.0
H229 H 0.45044 0.3758 0.60144 0.0
H230 H 0.35567 0.30945 0.69017 0.0
H231 H 0.32373 0.27955 0.6227 0.0
H232 H 0.47269 0.29919 0.55256 0.0
H233 H 0.48844 0.35356 0.52802 0.0
H234 H 0.4708 0.31655 0.48809 0.0
H235 H 0.37771 0.40532 0.50356 0.0
H236 H 0.40266 0.40065 0.45245 0.0
H237 H 0.43608 0.4127 0.5067 0.0
H238 H 0.47237 0.39589 0.34355 0.0
C239 C 0.43406 0.3574 0.3942 0.0
Tb240 Tb 0.04071 0.9586 0.52554 0.0
C241 C 0.94553 0.1419 0.51675 0.0
N242 N 0.98268 0.12278 0.54637 0.0
C243 C 0.01946 0.19089 0.53222 0.0
C244 C 0.94449 0.18603 0.4921 0.0
C245 C 0.01891 0.14703 0.5559 0.0
C246 C 0.9823 0.21036 0.49969 0.0
C247 C 0.86894 0.13587 0.48123 0.0
C248 C 0.90818 0.11722 0.51155 0.0
C249 C 0.86807 0.17952 0.45567 0.0
C250 C 0.90574 0.20455 0.46111 0.0
Tb251 Tb 0.97845 0.05012 0.57954 0.0
N252 N 0.91046 0.07483 0.53604 0.0
C253 C 0.83167 0.11018 0.47772 0.0
C254 C 0.87347 0.05025 0.53449 0.0
C255 C 0.83385 0.06735 0.50494 0.0
H256 H 0.04757 0.13287 0.58195 0.0
H257 H 0.80494 0.04746 0.5033 0.0
H258 H 0.98706 0.86341 0.54599 0.0
H259 H 0.21522 0.98606 0.55835 0.0
H260 H 0.8737 0.0174 0.55585 0.0
H261 H 0.80091 0.12329 0.4548 0.0
H262 H 0.1379 1.00173 0.51666 0.0
H263 H 0.04851 0.20971 0.53926 0.0
H264 H 0.8383 0.19433 0.43196 0.0
H265 H 0.90444 0.23831 0.44157 0.0
H266 H 1.00011 0.79118 0.60066 0.0
H267 H 0.98284 0.24435 0.48139 0.0
H268 H 0.23409 0.918 0.62196 0.0
N269 N 0.0492 0.88805 0.57198 0.0
C270 C 0.09021 0.87678 0.59801 0.0
C271 C 0.02552 0.81521 0.60119 0.0
C272 C 0.09979 0.83502 0.62872 0.0
C273 C 0.01781 0.85684 0.57102 0.0
C274 C 0.06643 0.80448 0.631 0.0
N275 N 0.11321 0.94534 0.55948 0.0
C276 C 0.14584 0.97269 0.54533 0.0
C277 C 0.16704 0.89535 0.6152 0.0
C278 C 0.12346 0.90627 0.5912 0.0
C279 C 0.20014 0.92511 0.60429 0.0
C280 C 0.18962 0.96358 0.56844 0.0
H281 H 0.0725 0.77201 0.65395 0.0
H282 H 0.15056 0.79285 0.67883 0.0
H283 H 0.2095 0.84583 0.66717 0.0
O284 O 0.06487 0.97393 0.45558 0.0
O285 O 0.0741 0.97579 0.59429 0.0
O286 O 0.01314 0.99106 0.6235 0.0
O287 O 0.03894 0.91093 0.48461 0.0
O288 O 0.05271 0.02776 0.49925 0.0
O289 O 0.04662 0.06196 0.56347 0.0
O290 O 0.93605 0.04892 0.63212 0.0
O291 O 0.96639 0.05488 0.4995 0.0
O292 O 0.97439 0.98485 0.48852 0.0
O293 O 0.99969 0.07779 0.64105 0.0
O294 O 0.94467 0.98859 0.58477 0.0
O295 O 0.9806 0.93615 0.55628 0.0
C296 C 0.05572 0.98498 0.6302 0.0
C297 C 0.06228 0.91778 0.40552 0.0
C298 C 0.09903 0.91595 0.33469 0.0
C299 C 0.07605 0.87829 0.32834 0.0
C300 C 0.03921 0.88049 0.39767 0.0
C301 C 0.0461 0.86098 0.35934 0.0
C302 C 0.09186 0.93611 0.37326 0.0
C303 C 0.06533 0.05705 0.52537 0.0
C304 C 0.0563 0.93491 0.44918 0.0
C305 C 0.14271 0.82459 0.65466 0.0
C306 C 0.17629 0.85473 0.64797 0.0
C307 C 0.95972 0.0256 0.47232 0.0
C308 C 0.94522 0.1 0.68296 0.0
C309 C 0.90896 0.11362 0.74993 0.0
C310 C 0.91312 0.15845 0.73239 0.0
C311 C 0.9488 0.14489 0.66549 0.0
C312 C 0.92509 0.08445 0.72511 0.0
C313 C 0.9328 0.17395 0.69028 0.0
C314 C 0.94853 0.94931 0.57654 0.0
C315 C 0.96375 0.06827 0.65984 0.0
H316 H 0.08105 0.86246 0.29877 0.0
H317 H 0.01596 0.86598 0.42156 0.0
H318 H 0.02832 0.83218 0.3538 0.0
H319 H 0.10955 0.96509 0.37848 0.0
H320 H 0.90122 0.18139 0.75145 0.0
H321 H 0.96428 0.15743 0.63318 0.0
H322 H 0.92252 0.04976 0.73904 0.0
H323 H 0.93593 0.20857 0.67706 0.0
Tb324 Tb 0.45406 0.48466 1.00391 0.0
C325 C 0.65236 0.54402 0.09313 0.0
N326 N 0.62983 0.50803 0.10998 0.0
C327 C 0.698 0.46648 0.13518 0.0
C328 C 0.69844 0.54238 0.0947 0.0
C329 C 0.65219 0.46973 0.13243 0.0
C330 C 0.7211 0.5027 0.11514 0.0
C331 C 0.65208 0.62246 0.06687 0.0
C332 C 0.62979 0.58341 0.07996 0.0
C333 C 0.6974 0.62086 0.0646 0.0
C334 C 0.72061 0.58083 0.07865 0.0
Tb335 Tb 0.55499 0.51739 0.10471 0.0
N336 N 0.58639 0.58351 0.08399 0.0
C337 C 0.62859 0.66186 0.05901 0.0
C338 C 0.5645 0.62171 0.08088 0.0
C339 C 0.5848 0.66146 0.06712 0.0
H340 H 0.63458 0.44147 0.14799 0.0
H341 H 0.56676 0.69167 0.06316 0.0
H342 H 0.37839 0.56511 0.98222 0.0
H343 H 0.44852 0.31225 0.08197 0.0
H344 H 0.53125 0.62155 0.08832 0.0
H345 H 0.64444 0.69264 0.04886 0.0
H346 H 0.48342 0.37944 0.04626 0.0
H347 H 0.7154 0.43596 0.15246 0.0
H348 H 0.71513 0.65046 0.05414 0.0
H349 H 0.75594 0.5802 0.07895 0.0
H350 H 0.30244 0.57351 0.99657 0.0
H351 H 0.75657 0.5001 0.1174 0.0
H352 H 0.37129 0.31429 0.09675 0.0
N353 N 0.38393 0.49757 0.01583 0.0
C354 C 0.36216 0.46169 0.03514 0.0
C355 C 0.31902 0.54195 1.00818 0.0
C356 C 0.3181 0.46482 0.04282 0.0
C357 C 0.36262 0.53722 1.00107 0.0
C358 C 0.29671 0.50566 0.02942 0.0
N359 N 0.427 0.41991 0.04025 0.0
C360 C 0.44981 0.38116 0.05189 0.0
C361 C 0.36297 0.38378 0.0682 0.0
C362 C 0.38426 0.42159 0.04745 0.0
C363 C 0.38646 0.34408 0.0807 0.0
C364 C 0.43004 0.34279 0.07241 0.0
H365 H 0.26283 0.5094 0.03463 0.0
H366 H 0.26285 0.42896 0.06936 0.0
H367 H 0.30217 0.35807 0.09175 0.0
O368 O 0.44368 0.44636 0.9499 0.0
O369 O 0.44927 0.47323 0.0834 0.0
O370 O 0.52063 0.45632 0.11904 0.0
O371 O 0.41544 0.512 0.93464 0.0
O372 O 0.51515 0.44725 0.01329 0.0
O373 O 0.57055 0.45994 0.0762 0.0
O374 O 0.53523 0.54444 0.16108 0.0
O375 O 0.55565 0.55341 0.02841 0.0
O376 O 0.50924 0.51979 0.97326 0.0
O377 O 0.586 0.49524 0.17863 0.0
O378 O 0.4886 0.54867 0.08824 0.0
O379 O 0.45698 0.55257 1.00771 0.0
C380 C 0.47845 0.45418 0.12144 0.0
C381 C 0.40108 0.47313 0.8674 0.0
C382 C 0.40063 0.44094 0.79521 0.0
C383 C 0.36479 0.46845 0.76995 0.0
C384 C 0.3653 0.50041 0.84131 0.0
C385 C 0.34729 0.49798 0.79291 0.0
C386 C 0.4189 0.44341 0.84406 0.0
C387 C 0.55482 0.44016 0.03983 0.0
C388 C 0.42069 0.47736 0.91785 0.0
C389 C 0.29672 0.42719 0.06326 0.0
C390 C 0.3191 0.3868 0.07594 0.0
C391 C 0.54115 0.5464 0.98385 0.0
C392 C 0.59444 0.55001 0.22461 0.0
C393 C 0.60691 0.58871 0.29198 0.0
C394 C 0.6496 0.59835 0.28162 0.0
C395 C 0.63757 0.5597 0.21528 0.0
C396 C 0.57912 0.56473 0.26322 0.0
C397 C 0.66476 0.58396 0.24335 0.0
C398 C 0.46631 0.57071 0.04604 0.0
C399 C 0.566 0.52371 0.19519 0.0
H400 H 0.35045 0.46708 0.7323 0.0
H401 H 0.35124 0.52371 0.85831 0.0
H402 H 0.31973 0.51917 0.77306 0.0
H403 H 0.44695 0.42257 0.86346 0.0
H404 H 0.67134 0.61669 0.3036 0.0
H405 H 0.65072 0.54801 0.18691 0.0
H406 H 0.54618 0.5571 0.27135 0.0
H407 H 0.6979 0.59115 0.23581 0.0
C408 C 0.13074 0.14756 0.45478 0.0
C409 C 0.17281 0.14192 0.4851 0.0
C410 C 0.14366 0.08327 0.54399 0.0
C411 C 0.10276 0.08582 0.51115 0.0
N412 N 0.06376 0.11294 0.42781 0.0
N413 N 0.22207 0.09597 0.55161 0.0
C414 C 0.09824 0.11561 0.46421 0.0
C415 C 0.18004 0.1074 0.52783 0.0
N416 N 0.12088 0.18423 0.41822 0.0
N417 N 0.14855 0.05701 0.59029 0.0
H418 H 0.24986 0.11125 0.53939 0.0
H419 H 0.22972 0.06832 0.57993 0.0
H420 H 0.12502 0.03503 0.60163 0.0
H421 H 0.17532 0.05842 0.61791 0.0
H422 H 0.08915 0.19187 0.39857 0.0
H423 H 0.14311 0.20915 0.41109 0.0
H424 H 0.06113 0.13161 0.3917 0.0
H425 H 0.04089 0.08849 0.43176 0.0
C426 C 0.39318 0.67383 0.99465 0.0
C427 C 0.39971 0.69631 0.03351 0.0
C428 C 0.44357 0.63375 0.08491 0.0
C429 C 0.44425 0.6147 0.04255 0.0
N430 N 0.43108 0.63244 0.95109 0.0
N431 N 0.44412 0.70209 0.11106 0.0
C432 C 0.42243 0.63918 0.99547 0.0
C433 C 0.42911 0.67784 0.07722 0.0
N434 N 0.35854 0.68586 0.9572 0.0
N435 N 0.45386 0.61043 0.1326 0.0
H436 H 0.43623 0.73511 0.10527 0.0
H437 H 0.4685 0.69052 0.14158 0.0
H438 H 0.45785 0.57704 0.14222 0.0
H439 H 0.45122 0.62369 0.16318 0.0
H440 H 0.34972 0.66898 0.92898 0.0
H441 H 0.34972 0.66898 0.92898 0.0
H442 H 0.41759 0.65255 0.91721 0.0
H443 H 0.456 0.61206 0.9472 0.0
C444 C 0.86759 0.85543 0.58302 0.0
C445 C 0.84294 0.86359 0.61924 0.0
C446 C 0.89558 0.91939 0.63561 0.0
C447 C 0.91387 0.91776 0.59216 0.0
N448 N 0.90681 0.88893 0.51725 0.0
N449 N 0.82877 0.912 0.67178 0.0
C450 C 0.89709 0.88708 0.5637 0.0
C451 C 0.85551 0.89808 0.6433 0.0
N452 N 0.86412 0.81695 0.568 0.0
N453 N 0.91716 0.93939 0.6709 0.0
H454 H 0.79777 0.89929 0.67591 0.0
H455 H 0.83545 0.93951 0.68648 0.0
H456 H 0.94886 0.95128 0.66972 0.0
H457 H 0.90606 0.93865 0.7045 0.0
H458 H 0.88413 0.80867 0.54433 0.0
H459 H 0.84541 0.79147 0.58389 0.0
H460 H 0.89127 0.86957 0.49408 0.0
H461 H 0.92686 0.91212 0.49986 0.0
C462 C 0.58502 0.32687 0.02875 0.0
C463 C 0.62994 0.32412 0.05125 0.0
C464 C 0.62883 0.40302 0.04478 0.0
C465 C 0.58246 0.40379 0.03163 0.0
N466 N 0.52784 0.37465 0.97595 0.0
N467 N 0.69635 0.36025 0.07749 0.0
C468 C 0.56322 0.36816 0.01323 0.0
C469 C 0.65256 0.36252 0.0578 0.0
N470 N 0.56271 0.29014 0.02312 0.0
N471 N 0.65034 0.44136 0.03821 0.0
H472 H 0.71544 0.33167 0.08514 0.0
H473 H 0.71312 0.38629 0.08846 0.0
H474 H 0.63339 0.47118 0.02483 0.0
H475 H 0.68446 0.44328 0.04034 0.0
H476 H 0.52867 0.29032 0.01179 0.0
H477 H 0.57752 0.25917 0.03359 0.0
H478 H 0.51439 0.34996 0.95922 0.0
H479 H 0.51727 0.40559 0.95587 0.0
C480 C 0.12978 0.93379 0.21134 0.0
C481 C 0.17623 0.92523 0.22206 0.0
C482 C 0.17461 0.9252 0.30966 0.0
C483 C 0.12847 0.93362 0.29807 0.0
N484 N 0.06716 0.96443 0.23629 0.0
N485 N 0.24408 0.92884 0.27803 0.0
C486 C 0.10829 0.94541 0.24798 0.0
C487 C 0.19918 0.92641 0.27019 0.0
N488 N 0.10507 0.92609 0.16907 0.0
N489 N 0.1945 0.91371 0.35805 0.0
H490 H 0.26269 0.9315 0.24933 0.0
H491 H 0.26208 0.93288 0.31156 0.0
H492 H 0.17759 0.91376 0.38763 0.0
H493 H 0.22708 0.9022 0.36857 0.0
H494 H 0.07073 0.92898 0.16219 0.0
H495 H 0.11775 0.91129 0.14419 0.0
H496 H 0.05195 0.97627 0.19971 0.0
H497 H 0.05082 0.97227 0.26346 0.0
C498 C 0.57416 0.6423 0.88644 0.0
C499 C 0.58883 0.61969 0.85301 0.0
C500 C 0.57797 0.54966 0.90847 0.0
C501 C 0.56068 0.57199 0.94086 0.0
N502 N 0.53829 0.63968 0.95823 0.0
N503 N 0.61449 0.55321 0.83659 0.0
C504 C 0.55866 0.61841 0.9298 0.0
C505 C 0.59333 0.5737 0.86525 0.0
N506 N 0.5748 0.68673 0.87649 0.0
N507 N 0.57892 0.50524 0.91855 0.0
H508 H 0.6273 0.56984 0.8055 0.0
H509 H 0.62292 0.52026 0.84543 0.0
H510 H 0.57311 0.48631 0.95222 0.0
H511 H 0.58391 0.4868 0.89311 0.0
H512 H 0.57074 0.70529 0.90212 0.0
H513 H 0.58218 0.7055 0.84329 0.0
H514 H 0.53122 0.6729 0.9497 0.0
H515 H 0.52456 0.62376 0.98869 0.0
C516 C 0.87056 0.01518 0.36352 0.0
C517 C 0.88024 0.05063 0.32627 0.0
C518 C 0.93471 0.07606 0.38736 0.0
C519 C 0.92894 0.03771 0.42365 0.0
N520 N 0.87843 0.98237 0.45136 0.0
N521 N 0.92527 0.1117 0.30019 0.0
C522 C 0.89339 0.01017 0.41303 0.0
C523 C 0.91315 0.0803 0.33759 0.0
N524 N 0.84022 0.98572 0.35125 0.0
N525 N 0.95798 0.1101 0.40036 0.0
H526 H 0.9099 0.1166 0.26327 0.0
H527 H 0.9532 0.13033 0.30485 0.0
H528 H 0.97301 0.11068 0.43608 0.0
H529 H 0.95818 0.1405 0.37655 0.0
H530 H 0.83546 0.95626 0.37501 0.0
H531 H 0.82177 0.98931 0.31581 0.0
H532 H 0.84999 0.9644 0.44733 0.0
H533 H 0.89156 0.98127 0.48832 0.0
C534 C 0.41842 0.33893 0.74815 0.0
C535 C 0.42928 0.35889 0.70109 0.0
C536 C 0.44229 0.42662 0.72931 0.0
C537 C 0.4187 0.41029 0.76912 0.0
N538 N 0.38818 0.34877 0.82008 0.0
N539 N 0.48578 0.40649 0.67236 0.0
C540 C 0.40906 0.36541 0.78061 0.0
C541 C 0.4512 0.39885 0.69795 0.0
N542 N 0.41894 0.29469 0.76203 0.0
N543 N 0.45583 0.46857 0.72125 0.0
H544 H 0.50001 0.38147 0.66049 0.0
H545 H 0.50499 0.43401 0.67128 0.0
H546 H 0.45248 0.48884 0.74551 0.0
H547 H 0.46873 0.48342 0.68952 0.0
H548 H 0.41479 0.27779 0.79742 0.0
H549 H 0.42819 0.27538 0.73908 0.0
H550 H 0.3758 0.31751 0.82643 0.0
H551 H 0.38094 0.36703 0.84491 0.0
C552 C 0.5685 0.66232 0.36869 0.0
C553 C 0.59316 0.64286 0.41559 0.0
C554 C 0.60993 0.57969 0.38321 0.0
C555 C 0.59313 0.60308 0.33461 0.0
N556 N 0.55567 0.66624 0.27978 0.0
N557 N 0.63967 0.58361 0.46761 0.0
C558 C 0.5714 0.644 0.32701 0.0
C559 C 0.61374 0.6012 0.42331 0.0
N560 N 0.54255 0.69836 0.36428 0.0
N561 N 0.62291 0.53713 0.3906 0.0
H562 H 0.64395 0.59827 0.49798 0.0
H563 H 0.65964 0.55591 0.47323 0.0
H564 H 0.62064 0.52084 0.36154 0.0
H565 H 0.63172 0.51698 0.42567 0.0
H566 H 0.52092 0.71218 0.33214 0.0
H567 H 0.53976 0.71212 0.39449 0.0
H568 H 0.54441 0.69846 0.27111 0.0
H569 H 0.55587 0.65294 0.2487 0.0
C570 C 0.82353 0.08038 0.83547 0.0
C571 C 0.84617 0.09212 0.87892 0.0
C572 C 0.91398 0.09984 0.84206 0.0
C573 C 0.88898 0.09796 0.79554 0.0
N574 N 0.81979 0.08579 0.74689 0.0
N575 N 0.91303 0.11723 0.92185 0.0
C576 C 0.84378 0.08731 0.79203 0.0
C577 C 0.89173 0.1021 0.88232 0.0
N578 N 0.7828 0.06258 0.83602 0.0
N579 N 0.95898 0.09994 0.84745 0.0
H580 H 0.89793 0.12179 0.95127 0.0
H581 H 0.94484 0.12923 0.92325 0.0
H582 H 0.97601 0.09835 0.81831 0.0
H583 H 0.97917 0.09694 0.88178 0.0
H584 H 0.76607 0.05004 0.80694 0.0
H585 H 0.76765 0.05655 0.86772 0.0
H586 H 0.7856 0.08336 0.74088 0.0
H587 H 0.83393 0.08942 0.71466 0.0
C588 C 0.46077 0.3605 0.23058 0.0
C589 C 0.43358 0.3818 0.25516 0.0
C590 C 0.43386 0.44908 0.19125 0.0
C591 C 0.46254 0.42857 0.16711 0.0
N592 N 0.50563 0.36518 0.16539 0.0
N593 N 0.38668 0.44263 0.25449 0.0
C594 C 0.47645 0.38427 0.18709 0.0
C595 C 0.41806 0.42505 0.23419 0.0
N596 N 0.4705 0.31711 0.24825 0.0
N597 N 0.42381 0.49247 0.17502 0.0
H598 H 0.37431 0.4261 0.28593 0.0
H599 H 0.36989 0.47198 0.2381 0.0
H600 H 0.43241 0.51111 0.14262 0.0
H601 H 0.40942 0.51104 0.19521 0.0
H602 H 0.48557 0.29777 0.22949 0.0
H603 H 0.4607 0.29928 0.28069 0.0
H604 H 0.52124 0.33512 0.18093 0.0
H605 H 0.51616 0.37997 0.13225 0.0
C606 C 0.13065 0.99571 0.74985 0.0
C607 C 0.13131 0.95263 0.77818 0.0
C608 C 0.0818 0.93064 0.70995 0.0
C609 C 0.08077 0.97411 0.6818 0.0
N610 N 0.09536 0.04979 0.6805 0.0
N611 N 0.1115 0.87761 0.78498 0.0
C612 C 0.10277 0.00709 0.70325 0.0
C613 C 0.10806 0.91959 0.75809 0.0
N614 N 0.15859 0.02543 0.76638 0.0
N615 N 0.05518 0.90074 0.69194 0.0
H616 H 0.12728 0.86883 0.82173 0.0
H617 H 0.10065 0.85092 0.77057 0.0
H618 H 0.03412 0.90824 0.65798 0.0
H619 H 0.05116 0.86932 0.71157 0.0
H620 H 0.16375 0.05582 0.74468 0.0
H621 H 0.1801 0.01839 0.8001 0.0
H622 H 0.10491 0.07541 0.69756 0.0
H623 H 0.07653 0.05979 0.64583 0.0
loop_
_geom_bond_atom_site_label_1
_geom_bond_atom_site_label_2
_geom_bond_distance
_geom_bond_site_symmetry_2
_ccdc_geom_bond_type
C0 C1 1.391 . S
C0 C4 1.391 . S
C0 H42 0.948 . S
C1 C0 1.391 . S
C1 C2 1.391 . S
C2 C1 1.391 . S
C2 H58 0.947 . S
C2 C59 1.392 . S
C3 C4 1.391 . S
C3 C7 1.397 . S
C3 C59 1.419 . S
C4 C0 1.391 . S
C4 C3 1.391 . S
C4 C5 1.399 . S
C5 C4 1.399 . S
C5 C8 1.396 . S
C5 C17 1.453 . S
C5 C18 1.684 . S
H6 C30 0.948 . S
C7 C3 1.397 . S
C7 C8 1.394 . S
C7 C26 1.723 1_556 S
C8 C5 1.396 . S
C8 C7 1.394 . S
C8 C38 1.723 1_556 S
H9 C32 0.947 . S
H10 C33 0.948 . S
H11 C39 0.982 . S
H12 C40 0.979 . S
H13 C40 0.980 . S
H14 C40 0.983 . S
H15 C39 0.979 . S
H16 C39 0.977 . S
C17 C5 1.453 . S
C17 H46 0.982 . S
C17 H47 0.979 . S
C17 H48 0.977 . S
C18 C5 1.684 . S
C18 H43 0.979 . S
C18 H44 0.980 . S
C18 H45 0.983 . S
C19 C20 1.391 . S
C19 C24 1.391 . S
C19 H49 0.948 . S
C20 C19 1.391 . S
C20 C21 1.391 . S
C21 C20 1.391 . S
C21 C22 1.392 . S
C21 H50 0.947 . S
C22 C21 1.392 . S
C22 C23 1.419 . S
C22 H51 0.948 . S
C23 C22 1.419 . S
C23 C24 1.391 . S
C23 C27 1.397 . S
C24 C19 1.391 . S
C24 C23 1.391 . S
C24 C25 1.399 . S
C25 C24 1.399 . S
C25 C26 1.396 . S
C25 C28 1.453 . S
C25 C29 1.684 . S
C26 C7 1.723 1_554 S
C26 C25 1.396 . S
C26 C27 1.394 . S
C27 C23 1.397 . S
C27 C26 1.394 . S
C27 C37 1.723 . S
C28 C25 1.453 . S
C28 H52 0.982 . S
C28 H53 0.979 . S
C28 H54 0.977 1_554 S
C29 C25 1.684 . S
C29 H55 0.979 . S
C29 H56 0.980 1_554 S
C29 H57 0.983 . S
C30 H6 0.948 . S
C30 C31 1.391 . S
C30 C35 1.391 . S
C31 C30 1.391 . S
C31 C32 1.391 1_554 S
C32 H9 0.947 . S
C32 C31 1.391 1_556 S
C32 C33 1.392 . S
C33 H10 0.948 . S
C33 C32 1.392 . S
C33 C34 1.419 1_556 S
C34 C33 1.419 1_554 S
C34 C35 1.391 . S
C34 C38 1.397 . S
C35 C30 1.391 . S
C35 C34 1.391 . S
C35 C36 1.399 . S
C36 C35 1.399 . S
C36 C37 1.396 . S
C36 C39 1.453 . S
C36 C40 1.684 . S
C37 C27 1.723 . S
C37 C36 1.396 . S
C37 C38 1.394 . S
C38 C8 1.723 1_554 S
C38 C34 1.397 . S
C38 C37 1.394 . S
C39 H11 0.982 . S
C39 H15 0.979 . S
C39 H16 0.977 . S
C39 C36 1.453 . S
C40 H12 0.979 . S
C40 H13 0.980 . S
C40 H14 0.983 . S
C40 C36 1.684 . S
H41 C59 0.948 . S
H42 C0 0.948 . S
H43 C18 0.979 . S
H44 C18 0.980 . S
H45 C18 0.983 . S
H46 C17 0.982 . S
H47 C17 0.979 . S
H48 C17 0.977 . S
H49 C19 0.948 . S
H50 C21 0.947 . S
H51 C22 0.948 . S
H52 C28 0.982 . S
H53 C28 0.979 . S
H54 C28 0.977 1_556 S
H55 C29 0.979 . S
H56 C29 0.980 1_556 S
H57 C29 0.983 . S
H58 C2 0.947 . S
C59 C2 1.392 . S
C59 C3 1.419 . S
C59 H41 0.948 . S
C60 C61 1.391 . S
C60 C64 1.391 . S
C60 H102 0.948 . S
C61 C60 1.391 . S
C61 C62 1.391 . S
C62 C61 1.391 . S
C62 H118 0.947 . S
C62 C119 1.392 . S
C63 C64 1.391 . S
C63 C67 1.397 . S
C63 C119 1.419 . S
C64 C60 1.391 . S
C64 C63 1.391 . S
C64 C65 1.399 . S
C65 C64 1.399 . S
C65 C68 1.396 . S
C65 C77 1.453 . S
C65 C78 1.684 . S
H66 C90 0.948 . S
C67 C63 1.397 . S
C67 C68 1.394 . S
C67 C86 1.723 . S
C68 C65 1.396 . S
C68 C67 1.394 . S
C68 C98 1.723 . S
H69 C92 0.947 . S
H70 C93 0.948 . S
H71 C99 0.982 . S
H72 C100 0.979 . S
H73 C100 0.980 . S
H74 C100 0.983 . S
H75 C99 0.979 . S
H76 C99 0.977 . S
C77 C65 1.453 . S
C77 H106 0.982 . S
C77 H107 0.979 . S
C77 H108 0.977 . S
C78 C65 1.684 . S
C78 H103 0.979 . S
C78 H104 0.980 . S
C78 H105 0.983 . S
C79 C80 1.391 . S
C79 C84 1.391 . S
C79 H109 0.948 . S
C80 C79 1.391 . S
C80 C81 1.391 . S
C81 C80 1.391 . S
C81 C82 1.392 . S
C81 H110 0.947 . S
C82 C81 1.392 . S
C82 C83 1.419 . S
C82 H111 0.948 . S
C83 C82 1.419 . S
C83 C84 1.391 . S
C83 C87 1.397 . S
C84 C79 1.391 . S
C84 C83 1.391 . S
C84 C85 1.399 . S
C85 C84 1.399 . S
C85 C86 1.396 . S
C85 C88 1.453 . S
C85 C89 1.684 . S
C86 C67 1.723 . S
C86 C85 1.396 . S
C86 C87 1.394 . S
C87 C83 1.397 . S
C87 C86 1.394 . S
C87 C97 1.723 . S
C88 C85 1.453 . S
C88 H112 0.982 . S
C88 H113 0.979 . S
C88 H114 0.977 . S
C89 C85 1.684 . S
C89 H115 0.979 . S
C89 H116 0.980 . S
C89 H117 0.983 . S
C90 H66 0.948 . S
C90 C91 1.391 . S
C90 C95 1.391 . S
C91 C90 1.391 . S
C91 C92 1.391 . S
C92 H69 0.947 . S
C92 C91 1.391 . S
C92 C93 1.392 . S
C93 H70 0.948 . S
C93 C92 1.392 . S
C93 C94 1.419 . S
C94 C93 1.419 . S
C94 C95 1.391 . S
C94 C98 1.397 . S
C95 C90 1.391 . S
C95 C94 1.391 . S
C95 C96 1.399 . S
C96 C95 1.399 . S
C96 C97 1.396 . S
C96 C99 1.453 . S
C96 C100 1.684 . S
C97 C87 1.723 . S
C97 C96 1.396 . S
C97 C98 1.394 . S
C98 C68 1.723 . S
C98 C94 1.397 . S
C98 C97 1.394 . S
C99 H71 0.982 . S
C99 H75 0.979 . S
C99 H76 0.977 . S
C99 C96 1.453 . S
C100 H72 0.979 . S
C100 H73 0.980 . S
C100 H74 0.983 . S
C100 C96 1.684 . S
H101 C119 0.948 . S
H102 C60 0.948 . S
H103 C78 0.979 . S
H104 C78 0.980 . S
H105 C78 0.983 . S
H106 C77 0.982 . S
H107 C77 0.979 . S
H108 C77 0.977 . S
H109 C79 0.948 . S
H110 C81 0.947 . S
H111 C82 0.948 . S
H112 C88 0.982 . S
H113 C88 0.979 . S
H114 C88 0.977 . S
H115 C89 0.979 . S
H116 C89 0.980 . S
H117 C89 0.983 . S
H118 C62 0.947 . S
C119 C62 1.392 . S
C119 C63 1.419 . S
C119 H101 0.948 . S
C120 C121 1.391 . S
C120 C124 1.391 . S
C120 H162 0.948 . S
C121 C120 1.391 . S
C121 C122 1.391 . S
C122 C121 1.391 . S
C122 H178 0.947 . S
C122 C179 1.392 . S
C123 C124 1.391 . S
C123 C127 1.397 . S
C123 C179 1.419 . S
C124 C120 1.391 . S
C124 C123 1.391 . S
C124 C125 1.399 . S
C125 C124 1.399 . S
C125 C128 1.396 . S
C125 C137 1.453 . S
C125 C138 1.684 . S
H126 C150 0.948 1_556 S
C127 C123 1.397 . S
C127 C128 1.394 . S
C127 C146 1.723 . S
C128 C125 1.396 . S
C128 C127 1.394 . S
C128 C158 1.723 . S
H129 C152 0.947 . S
H130 C153 0.948 . S
H131 C159 0.982 . S
H132 C160 0.979 . S
H133 C160 0.980 . S
H134 C160 0.983 . S
H135 C159 0.979 . S
H136 C159 0.977 . S
C137 C125 1.453 . S
C137 H166 0.982 . S
C137 H167 0.979 . S
C137 H168 0.977 . S
C138 C125 1.684 . S
C138 H163 0.979 . S
C138 H164 0.980 . S
C138 H165 0.983 . S
C139 C140 1.391 . S
C139 C144 1.391 . S
C139 H169 0.948 . S
C140 C139 1.391 . S
C140 C141 1.391 . S
C141 C140 1.391 . S
C141 C142 1.392 . S
C141 H170 0.947 . S
C142 C141 1.392 . S
C142 C143 1.419 . S
C142 H171 0.948 . S
C143 C142 1.419 . S
C143 C144 1.391 . S
C143 C147 1.397 1_556 S
C144 C139 1.391 . S
C144 C143 1.391 . S
C144 C145 1.399 1_556 S
C145 C144 1.399 1_554 S
C145 C146 1.396 . S
C145 C148 1.453 . S
C145 C149 1.684 . S
C146 C127 1.723 . S
C146 C145 1.396 . S
C146 C147 1.394 . S
C147 C143 1.397 1_554 S
C147 C146 1.394 . S
C147 C157 1.723 . S
C148 C145 1.453 . S
C148 H172 0.982 . S
C148 H173 0.979 . S
C148 H174 0.977 . S
C149 C145 1.684 . S
C149 H175 0.979 . S
C149 H176 0.980 . S
C149 H177 0.983 . S
C150 H126 0.948 1_554 S
C150 C151 1.391 . S
C150 C155 1.391 . S
C151 C150 1.391 . S
C151 C152 1.391 . S
C152 H129 0.947 . S
C152 C151 1.391 . S
C152 C153 1.392 . S
C153 H130 0.948 . S
C153 C152 1.392 . S
C153 C154 1.419 . S
C154 C153 1.419 . S
C154 C155 1.391 . S
C154 C158 1.397 . S
C155 C150 1.391 . S
C155 C154 1.391 . S
C155 C156 1.399 1_554 S
C156 C155 1.399 1_556 S
C156 C157 1.396 1_556 S
C156 C159 1.453 . S
C156 C160 1.684 . S
C157 C147 1.723 . S
C157 C156 1.396 1_554 S
C157 C158 1.394 . S
C158 C128 1.723 . S
C158 C154 1.397 . S
C158 C157 1.394 . S
C159 H131 0.982 . S
C159 H135 0.979 . S
C159 H136 0.977 . S
C159 C156 1.453 . S
C160 H132 0.979 . S
C160 H133 0.980 . S
C160 H134 0.983 . S
C160 C156 1.684 . S
H161 C179 0.948 . S
H162 C120 0.948 . S
H163 C138 0.979 . S
H164 C138 0.980 . S
H165 C138 0.983 . S
H166 C137 0.982 . S
H167 C137 0.979 . S
H168 C137 0.977 . S
H169 C139 0.948 . S
H170 C141 0.947 . S
H171 C142 0.948 . S
H172 C148 0.982 . S
H173 C148 0.979 . S
H174 C148 0.977 . S
H175 C149 0.979 . S
H176 C149 0.980 . S
H177 C149 0.983 . S
H178 C122 0.947 . S
C179 C122 1.392 . S
C179 C123 1.419 . S
C179 H161 0.948 . S
C180 C181 1.391 . S
C180 C184 1.391 . S
C180 H222 0.948 . S
C181 C180 1.391 . S
C181 C182 1.391 . S
C182 C181 1.391 . S
C182 H238 0.947 . S
C182 C239 1.392 . S
C183 C184 1.391 . S
C183 C187 1.397 . S
C183 C239 1.419 . S
C184 C180 1.391 . S
C184 C183 1.391 . S
C184 C185 1.399 . S
C185 C184 1.399 . S
C185 C188 1.396 . S
C185 C197 1.453 . S
C185 C198 1.684 . S
H186 C210 0.948 . S
C187 C183 1.397 . S
C187 C188 1.394 . S
C187 C206 1.723 . S
C188 C185 1.396 . S
C188 C187 1.394 . S
C188 C218 1.723 . S
H189 C212 0.947 . S
H190 C213 0.948 . S
H191 C219 0.982 . S
H192 C220 0.979 . S
H193 C220 0.980 . S
H194 C220 0.983 . S
H195 C219 0.979 . S
H196 C219 0.977 . S
C197 C185 1.453 . S
C197 H226 0.982 . S
C197 H227 0.979 . S
C197 H228 0.977 . S
C198 C185 1.684 . S
C198 H223 0.979 . S
C198 H224 0.980 . S
C198 H225 0.983 . S
C199 C200 1.391 . S
C199 C204 1.391 . S
C199 H229 0.948 . S
C200 C199 1.391 . S
C200 C201 1.391 . S
C201 C200 1.391 . S
C201 C202 1.392 . S
C201 H230 0.947 . S
C202 C201 1.392 . S
C202 C203 1.419 . S
C202 H231 0.948 . S
C203 C202 1.419 . S
C203 C204 1.391 . S
C203 C207 1.397 . S
C204 C199 1.391 . S
C204 C203 1.391 . S
C204 C205 1.399 . S
C205 C204 1.399 . S
C205 C206 1.396 . S
C205 C208 1.453 . S
C205 C209 1.684 . S
C206 C187 1.723 . S
C206 C205 1.396 . S
C206 C207 1.394 . S
C207 C203 1.397 . S
C207 C206 1.394 . S
C207 C217 1.723 . S
C208 C205 1.453 . S
C208 H232 0.982 . S
C208 H233 0.979 . S
C208 H234 0.977 . S
C209 C205 1.684 . S
C209 H235 0.979 . S
C209 H236 0.980 . S
C209 H237 0.983 . S
C210 H186 0.948 . S
C210 C211 1.391 . S
C210 C215 1.391 . S
C211 C210 1.391 . S
C211 C212 1.391 . S
C212 H189 0.947 . S
C212 C211 1.391 . S
C212 C213 1.392 . S
C213 H190 0.948 . S
C213 C212 1.392 . S
C213 C214 1.419 . S
C214 C213 1.419 . S
C214 C215 1.391 . S
C214 C218 1.397 . S
C215 C210 1.391 . S
C215 C214 1.391 . S
C215 C216 1.399 . S
C216 C215 1.399 . S
C216 C217 1.396 . S
C216 C219 1.453 . S
C216 C220 1.684 . S
C217 C207 1.723 . S
C217 C216 1.396 . S
C217 C218 1.394 . S
C218 C188 1.723 . S
C218 C214 1.397 . S
C218 C217 1.394 . S
C219 H191 0.982 . S
C219 H195 0.979 . S
C219 H196 0.977 . S
C219 C216 1.453 . S
C220 H192 0.979 . S
C220 H193 0.980 . S
C220 H194 0.983 . S
C220 C216 1.684 . S
H221 C239 0.948 . S
H222 C180 0.948 . S
H223 C198 0.979 . S
H224 C198 0.980 . S
H225 C198 0.983 . S
H226 C197 0.982 . S
H227 C197 0.979 . S
H228 C197 0.977 . S
H229 C199 0.948 . S
H230 C201 0.947 . S
H231 C202 0.948 . S
H232 C208 0.982 . S
H233 C208 0.979 . S
H234 C208 0.977 . S
H235 C209 0.979 . S
H236 C209 0.980 . S
H237 C209 0.983 . S
H238 C182 0.947 . S
C239 C182 1.392 . S
C239 C183 1.419 . S
C239 H221 0.948 . S
Tb240 N269 2.617 . S
Tb240 N275 2.572 . S
Tb240 O284 2.465 . S
Tb240 O285 2.387 . S
Tb240 O287 2.428 . S
Tb240 O288 2.308 1_565 S
Tb240 O292 2.349 1_465 S
Tb240 O295 2.393 1_455 S
Tb240 C304 2.802 . S
C241 N242 1.379 . S
C241 C244 1.416 . S
C241 C248 1.424 . S
N242 C241 1.379 . S
N242 C245 1.334 . S
N242 Tb251 2.617 . S
C243 C245 1.390 . S
C243 C246 1.339 . S
C243 H263 0.930 1_655 S
C244 C241 1.416 . S
C244 C246 1.416 . S
C244 C250 1.448 . S
C245 N242 1.334 . S
C245 C243 1.390 . S
C245 H256 0.930 1_655 S
C246 C243 1.339 . S
C246 C244 1.416 . S
C246 H267 0.930 . S
C247 C248 1.413 . S
C247 C249 1.427 . S
C247 C253 1.416 . S
C248 C241 1.424 . S
C248 C247 1.413 . S
C248 N252 1.361 . S
C249 C247 1.427 . S
C249 C250 1.328 . S
C249 H264 0.929 . S
C250 C244 1.448 . S
C250 C249 1.328 . S
C250 H265 0.930 . S
Tb251 N242 2.617 . S
Tb251 N252 2.572 . S
Tb251 O286 2.349 1_655 S
Tb251 O289 2.393 1_655 S
Tb251 O290 2.465 . S
Tb251 O291 2.387 . S
Tb251 O293 2.428 . S
Tb251 O294 2.308 1_545 S
Tb251 C315 2.802 . S
N252 C248 1.361 . S
N252 Tb251 2.572 . S
N252 C254 1.340 . S
C253 C247 1.416 . S
C253 C255 1.332 . S
C253 H261 0.931 . S
C254 N252 1.340 . S
C254 C255 1.407 . S
C254 H260 0.930 . S
C255 C253 1.332 . S
C255 C254 1.407 . S
C255 H257 0.929 . S
H256 C245 0.930 1_455 S
H257 C255 0.929 . S
H258 C273 0.930 1_655 S
H259 C280 0.929 . S
H260 C254 0.930 . S
H261 C253 0.931 . S
H262 C276 0.930 . S
H263 C243 0.930 1_455 S
H264 C249 0.929 . S
H265 C250 0.930 . S
H266 C271 0.930 1_655 S
H267 C246 0.930 . S
H268 C279 0.931 . S
N269 Tb240 2.617 . S
N269 C270 1.379 . S
N269 C273 1.334 . S
C270 N269 1.379 . S
C270 C272 1.416 . S
C270 C278 1.424 . S
C271 H266 0.930 1_455 S
C271 C273 1.390 . S
C271 C274 1.339 . S
C272 C270 1.416 . S
C272 C274 1.416 . S
C272 C305 1.448 . S
C273 H258 0.930 1_455 S
C273 N269 1.334 . S
C273 C271 1.390 . S
C274 C271 1.339 . S
C274 C272 1.416 . S
C274 H281 0.930 . S
N275 Tb240 2.572 . S
N275 C276 1.340 . S
N275 C278 1.361 . S
C276 H262 0.930 . S
C276 N275 1.340 . S
C276 C280 1.407 . S
C277 C278 1.413 . S
C277 C279 1.416 . S
C277 C306 1.427 . S
C278 C270 1.424 . S
C278 N275 1.361 . S
C278 C277 1.413 . S
C279 H268 0.931 . S
C279 C277 1.416 . S
C279 C280 1.332 . S
C280 H259 0.929 . S
C280 C276 1.407 . S
C280 C279 1.332 . S
H281 C274 0.930 . S
H282 C305 0.930 . S
H283 C306 0.929 . S
O284 Tb240 2.465 . S
O284 C304 1.264 . S
O285 Tb240 2.387 . S
O285 C296 1.264 . S
O286 Tb251 2.349 1_455 S
O286 C296 1.243 1_545 S
O287 Tb240 2.428 . S
O287 C304 1.256 . S
O288 Tb240 2.308 1_545 S
O288 C303 1.266 . S
O289 Tb251 2.393 1_455 S
O289 C303 1.248 . S
O290 Tb251 2.465 . S
O290 C315 1.264 . S
O291 Tb251 2.387 . S
O291 C307 1.264 . S
O292 Tb240 2.349 1_645 S
O292 C307 1.243 . S
O293 Tb251 2.428 . S
O293 C315 1.256 . S
O294 Tb251 2.308 1_565 S
O294 C314 1.266 . S
O295 Tb240 2.393 1_655 S
O295 C314 1.248 . S
C296 O285 1.264 . S
C296 O286 1.243 1_565 S
C297 C300 1.399 . S
C297 C302 1.383 . S
C297 C304 1.496 . S
C298 C299 1.399 . S
C298 C302 1.389 . S
C299 C298 1.399 . S
C299 C301 1.380 . S
C299 H316 0.929 . S
C300 C297 1.399 . S
C300 C301 1.392 . S
C300 H317 0.929 . S
C301 C299 1.380 . S
C301 C300 1.392 . S
C301 H318 0.929 . S
C302 C297 1.383 . S
C302 C298 1.389 . S
C302 H319 0.931 . S
C303 O288 1.266 . S
C303 O289 1.248 . S
C304 Tb240 2.802 . S
C304 O284 1.264 . S
C304 O287 1.256 . S
C304 C297 1.496 . S
C305 C272 1.448 . S
C305 H282 0.930 . S
C305 C306 1.328 . S
C306 C277 1.427 . S
C306 H283 0.929 . S
C306 C305 1.328 . S
C307 O291 1.264 . S
C307 O292 1.243 . S
C308 C311 1.399 . S
C308 C312 1.383 . S
C308 C315 1.496 . S
C309 C310 1.399 . S
C309 C312 1.389 . S
C310 C309 1.399 . S
C310 C313 1.380 . S
C310 H320 0.929 . S
C311 C308 1.399 . S
C311 C313 1.392 . S
C311 H321 0.929 . S
C312 C308 1.383 . S
C312 C309 1.389 . S
C312 H322 0.931 . S
C313 C310 1.380 . S
C313 C311 1.392 . S
C313 H323 0.929 . S
C314 O294 1.266 . S
C314 O295 1.248 . S
C315 Tb251 2.802 . S
C315 O290 1.264 . S
C315 O293 1.256 . S
C315 C308 1.496 . S
H316 C299 0.929 . S
H317 C300 0.929 . S
H318 C301 0.929 . S
H319 C302 0.931 . S
H320 C310 0.929 . S
H321 C311 0.929 . S
H322 C312 0.931 . S
H323 C313 0.929 . S
Tb324 N353 2.617 . S
Tb324 N359 2.572 1_556 S
Tb324 O368 2.465 . S
Tb324 O369 2.387 1_556 S
Tb324 O371 2.428 . S
Tb324 O372 2.308 1_556 S
Tb324 O376 2.349 . S
Tb324 O379 2.393 1_556 S
Tb324 C388 2.802 . S
C325 N326 1.379 . S
C325 C328 1.416 . S
C325 C332 1.424 . S
N326 C325 1.379 . S
N326 C329 1.334 . S
N326 Tb335 2.617 . S
C327 C329 1.390 . S
C327 C330 1.339 . S
C327 H347 0.930 . S
C328 C325 1.416 . S
C328 C330 1.416 . S
C328 C334 1.448 . S
C329 N326 1.334 . S
C329 C327 1.390 . S
C329 H340 0.930 . S
C330 C327 1.339 . S
C330 C328 1.416 . S
C330 H351 0.930 . S
C331 C332 1.413 . S
C331 C333 1.427 . S
C331 C337 1.416 . S
C332 C325 1.424 . S
C332 C331 1.413 . S
C332 N336 1.361 . S
C333 C331 1.427 . S
C333 C334 1.328 . S
C333 H348 0.929 . S
C334 C328 1.448 . S
C334 C333 1.328 . S
C334 H349 0.930 . S
Tb335 N326 2.617 . S
Tb335 N336 2.572 . S
Tb335 O370 2.349 . S
Tb335 O373 2.393 . S
Tb335 O374 2.465 . S
Tb335 O375 2.387 . S
Tb335 O377 2.428 . S
Tb335 O378 2.308 . S
Tb335 C399 2.802 . S
N336 C332 1.361 . S
N336 Tb335 2.572 . S
N336 C338 1.340 . S
C337 C331 1.416 . S
C337 C339 1.332 . S
C337 H345 0.931 . S
C338 N336 1.340 . S
C338 C339 1.407 . S
C338 H344 0.930 . S
C339 C337 1.332 . S
C339 C338 1.407 . S
C339 H341 0.929 . S
H340 C329 0.930 . S
H341 C339 0.929 . S
H342 C357 0.930 . S
H343 C364 0.929 . S
H344 C338 0.930 . S
H345 C337 0.931 . S
H346 C360 0.930 . S
H347 C327 0.930 . S
H348 C333 0.929 . S
H349 C334 0.930 . S
H350 C355 0.930 . S
H351 C330 0.930 . S
H352 C363 0.931 . S
N353 Tb324 2.617 . S
N353 C354 1.379 1_556 S
N353 C357 1.334 . S
C354 N353 1.379 1_554 S
C354 C356 1.416 . S
C354 C362 1.424 . S
C355 H350 0.930 . S
C355 C357 1.390 . S
C355 C358 1.339 1_556 S
C356 C354 1.416 . S
C356 C358 1.416 . S
C356 C389 1.448 . S
C357 H342 0.930 . S
C357 N353 1.334 . S
C357 C355 1.390 . S
C358 C355 1.339 1_554 S
C358 C356 1.416 . S
C358 H365 0.930 . S
N359 Tb324 2.572 1_554 S
N359 C360 1.340 . S
N359 C362 1.361 . S
C360 H346 0.930 . S
C360 N359 1.340 . S
C360 C364 1.407 . S
C361 C362 1.413 . S
C361 C363 1.416 . S
C361 C390 1.427 . S
C362 C354 1.424 . S
C362 N359 1.361 . S
C362 C361 1.413 . S
C363 H352 0.931 . S
C363 C361 1.416 . S
C363 C364 1.332 . S
C364 H343 0.929 . S
C364 C360 1.407 . S
C364 C363 1.332 . S
H365 C358 0.930 . S
H366 C389 0.930 . S
H367 C390 0.929 . S
O368 Tb324 2.465 . S
O368 C388 1.264 . S
O369 Tb324 2.387 1_554 S
O369 C380 1.264 . S
O370 Tb335 2.349 . S
O370 C380 1.243 . S
O371 Tb324 2.428 . S
O371 C388 1.256 . S
O372 Tb324 2.308 1_554 S
O372 C387 1.266 . S
O373 Tb335 2.393 . S
O373 C387 1.248 . S
O374 Tb335 2.465 . S
O374 C399 1.264 . S
O375 Tb335 2.387 . S
O375 C391 1.264 1_554 S
O376 Tb324 2.349 . S
O376 C391 1.243 . S
O377 Tb335 2.428 . S
O377 C399 1.256 . S
O378 Tb335 2.308 . S
O378 C398 1.266 . S
O379 Tb324 2.393 1_554 S
O379 C398 1.248 . S
C380 O369 1.264 . S
C380 O370 1.243 . S
C381 C384 1.399 . S
C381 C386 1.383 . S
C381 C388 1.496 . S
C382 C383 1.399 . S
C382 C386 1.389 . S
C383 C382 1.399 . S
C383 C385 1.380 . S
C383 H400 0.929 . S
C384 C381 1.399 . S
C384 C385 1.392 . S
C384 H401 0.929 . S
C385 C383 1.380 . S
C385 C384 1.392 . S
C385 H402 0.929 . S
C386 C381 1.383 . S
C386 C382 1.389 . S
C386 H403 0.931 . S
C387 O372 1.266 . S
C387 O373 1.248 . S
C388 Tb324 2.802 . S
C388 O368 1.264 . S
C388 O371 1.256 . S
C388 C381 1.496 . S
C389 C356 1.448 . S
C389 H366 0.930 . S
C389 C390 1.328 . S
C390 C361 1.427 . S
C390 H367 0.929 . S
C390 C389 1.328 . S
C391 O375 1.264 1_556 S
C391 O376 1.243 . S
C392 C395 1.399 . S
C392 C396 1.383 . S
C392 C399 1.496 . S
C393 C394 1.399 . S
C393 C396 1.389 . S
C394 C393 1.399 . S
C394 C397 1.380 . S
C394 H404 0.929 . S
C395 C392 1.399 . S
C395 C397 1.392 . S
C395 H405 0.929 . S
C396 C392 1.383 . S
C396 C393 1.389 . S
C396 H406 0.931 . S
C397 C394 1.380 . S
C397 C395 1.392 . S
C397 H407 0.929 . S
C398 O378 1.266 . S
C398 O379 1.248 . S
C399 Tb335 2.802 . S
C399 O374 1.264 . S
C399 O377 1.256 . S
C399 C392 1.496 . S
H400 C383 0.929 . S
H401 C384 0.929 . S
H402 C385 0.929 . S
H403 C386 0.931 . S
H404 C394 0.929 . S
H405 C395 0.929 . S
H406 C396 0.931 . S
H407 C397 0.929 . S
C408 C409 1.363 . S
C408 C414 1.379 . S
C408 N416 1.356 . S
C409 C408 1.363 . S
C409 C415 1.363 . S
C410 C411 1.363 . S
C410 C415 1.379 . S
C410 N417 1.356 . S
C411 C410 1.363 . S
C411 C414 1.363 . S
N412 C414 1.356 . S
N412 H424 0.984 . S
N412 H425 0.985 . S
N413 C415 1.356 . S
N413 H418 0.984 . S
N413 H419 0.985 . S
C414 C408 1.379 . S
C414 C411 1.363 . S
C414 N412 1.356 . S
C415 C409 1.363 . S
C415 C410 1.379 . S
C415 N413 1.356 . S
N416 C408 1.356 . S
N416 H422 0.984 . S
N416 H423 0.984 . S
N417 C410 1.356 . S
N417 H420 0.984 . S
N417 H421 0.985 . S
H418 N413 0.984 . S
H419 N413 0.985 . S
H420 N417 0.984 . S
H421 N417 0.985 . S
H422 N416 0.984 . S
H423 N416 0.984 . S
H424 N412 0.984 . S
H425 N412 0.985 . S
C426 C427 1.363 . S
C426 C432 1.379 . S
C426 N434 1.356 1_554 S
C427 C426 1.363 . S
C427 C433 1.363 . S
C428 C429 1.363 . S
C428 C433 1.379 . S
C428 N435 1.356 . S
C429 C428 1.363 . S
C429 C432 1.363 . S
N430 C432 1.356 1_556 S
N430 H442 0.984 . S
N430 H443 0.985 . S
N431 C433 1.356 . S
N431 H436 0.984 . S
N431 H437 0.985 . S
C432 C426 1.379 . S
C432 C429 1.363 . S
C432 N430 1.356 1_554 S
C433 C427 1.363 . S
C433 C428 1.379 . S
C433 N431 1.356 . S
N434 C426 1.356 1_556 S
N434 H440 0.984 . S
N434 H441 0.984 . S
N435 C428 1.356 . S
N435 H438 0.984 . S
N435 H439 0.985 . S
H436 N431 0.984 . S
H437 N431 0.985 . S
H438 N435 0.984 . S
H439 N435 0.985 . S
H440 N434 0.984 . S
H441 N434 0.984 . S
H442 N430 0.984 . S
H443 N430 0.985 . S
C444 C445 1.363 . S
C444 C450 1.379 . S
C444 N452 1.356 . S
C445 C444 1.363 . S
C445 C451 1.363 . S
C446 C447 1.363 . S
C446 C451 1.379 . S
C446 N453 1.356 . S
C447 C446 1.363 . S
C447 C450 1.363 . S
N448 C450 1.356 . S
N448 H460 0.984 . S
N448 H461 0.985 . S
N449 C451 1.356 . S
N449 H454 0.984 . S
N449 H455 0.985 . S
C450 C444 1.379 . S
C450 C447 1.363 . S
C450 N448 1.356 . S
C451 C445 1.363 . S
C451 C446 1.379 . S
C451 N449 1.356 . S
N452 C444 1.356 . S
N452 H458 0.984 . S
N452 H459 0.984 . S
N453 C446 1.356 . S
N453 H456 0.984 . S
N453 H457 0.985 . S
H454 N449 0.984 . S
H455 N449 0.985 . S
H456 N453 0.984 . S
H457 N453 0.985 . S
H458 N452 0.984 . S
H459 N452 0.984 . S
H460 N448 0.984 . S
H461 N448 0.985 . S
C462 C463 1.363 . S
C462 C468 1.379 . S
C462 N470 1.356 . S
C463 C462 1.363 . S
C463 C469 1.363 . S
C464 C465 1.363 . S
C464 C469 1.379 . S
C464 N471 1.356 . S
C465 C464 1.363 . S
C465 C468 1.363 . S
N466 C468 1.356 . S
N466 H478 0.984 . S
N466 H479 0.985 . S
N467 C469 1.356 . S
N467 H472 0.984 . S
N467 H473 0.985 . S
C468 C462 1.379 . S
C468 C465 1.363 . S
C468 N466 1.356 . S
C469 C463 1.363 . S
C469 C464 1.379 . S
C469 N467 1.356 . S
N470 C462 1.356 . S
N470 H476 0.984 . S
N470 H477 0.984 . S
N471 C464 1.356 . S
N471 H474 0.984 . S
N471 H475 0.985 . S
H472 N467 0.984 . S
H473 N467 0.985 . S
H474 N471 0.984 . S
H475 N471 0.985 . S
H476 N470 0.984 . S
H477 N470 0.984 . S
H478 N466 0.984 . S
H479 N466 0.985 . S
C480 C481 1.363 . S
C480 C486 1.379 . S
C480 N488 1.356 . S
C481 C480 1.363 . S
C481 C487 1.363 . S
C482 C483 1.363 . S
C482 C487 1.379 . S
C482 N489 1.356 . S
C483 C482 1.363 . S
C483 C486 1.363 . S
N484 C486 1.356 . S
N484 H496 0.984 . S
N484 H497 0.985 . S
N485 C487 1.356 . S
N485 H490 0.984 . S
N485 H491 0.985 . S
C486 C480 1.379 . S
C486 C483 1.363 . S
C486 N484 1.356 . S
C487 C481 1.363 . S
C487 C482 1.379 . S
C487 N485 1.356 . S
N488 C480 1.356 . S
N488 H494 0.984 . S
N488 H495 0.984 . S
N489 C482 1.356 . S
N489 H492 0.984 . S
N489 H493 0.985 . S
H490 N485 0.984 . S
H491 N485 0.985 . S
H492 N489 0.984 . S
H493 N489 0.985 . S
H494 N488 0.984 . S
H495 N488 0.984 . S
H496 N484 0.984 . S
H497 N484 0.985 . S
C498 C499 1.363 . S
C498 C504 1.379 . S
C498 N506 1.356 . S
C499 C498 1.363 . S
C499 C505 1.363 . S
C500 C501 1.363 . S
C500 C505 1.379 . S
C500 N507 1.356 . S
C501 C500 1.363 . S
C501 C504 1.363 . S
N502 C504 1.356 . S
N502 H514 0.984 . S
N502 H515 0.985 . S
N503 C505 1.356 . S
N503 H508 0.984 . S
N503 H509 0.985 . S
C504 C498 1.379 . S
C504 C501 1.363 . S
C504 N502 1.356 . S
C505 C499 1.363 . S
C505 C500 1.379 . S
C505 N503 1.356 . S
N506 C498 1.356 . S
N506 H512 0.984 . S
N506 H513 0.984 . S
N507 C500 1.356 . S
N507 H510 0.984 . S
N507 H511 0.985 . S
H508 N503 0.984 . S
H509 N503 0.985 . S
H510 N507 0.984 . S
H511 N507 0.985 . S
H512 N506 0.984 . S
H513 N506 0.984 . S
H514 N502 0.984 . S
H515 N502 0.985 . S
C516 C517 1.363 . S
C516 C522 1.379 . S
C516 N524 1.356 1_545 S
C517 C516 1.363 . S
C517 C523 1.363 . S
C518 C519 1.363 . S
C518 C523 1.379 . S
C518 N525 1.356 . S
C519 C518 1.363 . S
C519 C522 1.363 . S
N520 C522 1.356 1_565 S
N520 H532 0.984 . S
N520 H533 0.985 . S
N521 C523 1.356 . S
N521 H526 0.984 . S
N521 H527 0.985 . S
C522 C516 1.379 . S
C522 C519 1.363 . S
C522 N520 1.356 1_545 S
C523 C517 1.363 . S
C523 C518 1.379 . S
C523 N521 1.356 . S
N524 C516 1.356 1_565 S
N524 H530 0.984 . S
N524 H531 0.984 . S
N525 C518 1.356 . S
N525 H528 0.984 . S
N525 H529 0.985 . S
H526 N521 0.984 . S
H527 N521 0.985 . S
H528 N525 0.984 . S
H529 N525 0.985 . S
H530 N524 0.984 . S
H531 N524 0.984 . S
H532 N520 0.984 . S
H533 N520 0.985 . S
C534 C535 1.363 . S
C534 C540 1.379 . S
C534 N542 1.356 . S
C535 C534 1.363 . S
C535 C541 1.363 . S
C536 C537 1.363 . S
C536 C541 1.379 . S
C536 N543 1.356 . S
C537 C536 1.363 . S
C537 C540 1.363 . S
N538 C540 1.356 . S
N538 H550 0.984 . S
N538 H551 0.985 . S
N539 C541 1.356 . S
N539 H544 0.984 . S
N539 H545 0.985 . S
C540 C534 1.379 . S
C540 C537 1.363 . S
C540 N538 1.356 . S
C541 C535 1.363 . S
C541 C536 1.379 . S
C541 N539 1.356 . S
N542 C534 1.356 . S
N542 H548 0.984 . S
N542 H549 0.984 . S
N543 C536 1.356 . S
N543 H546 0.984 . S
N543 H547 0.985 . S
H544 N539 0.984 . S
H545 N539 0.985 . S
H546 N543 0.984 . S
H547 N543 0.985 . S
H548 N542 0.984 . S
H549 N542 0.984 . S
H550 N538 0.984 . S
H551 N538 0.985 . S
C552 C553 1.363 . S
C552 C558 1.379 . S
C552 N560 1.356 . S
C553 C552 1.363 . S
C553 C559 1.363 . S
C554 C555 1.363 . S
C554 C559 1.379 . S
C554 N561 1.356 . S
C555 C554 1.363 . S
C555 C558 1.363 . S
N556 C558 1.356 . S
N556 H568 0.984 . S
N556 H569 0.985 . S
N557 C559 1.356 . S
N557 H562 0.984 . S
N557 H563 0.985 . S
C558 C552 1.379 . S
C558 C555 1.363 . S
C558 N556 1.356 . S
C559 C553 1.363 . S
C559 C554 1.379 . S
C559 N557 1.356 . S
N560 C552 1.356 . S
N560 H566 0.984 . S
N560 H567 0.984 . S
N561 C554 1.356 . S
N561 H564 0.984 . S
N561 H565 0.985 . S
H562 N557 0.984 . S
H563 N557 0.985 . S
H564 N561 0.984 . S
H565 N561 0.985 . S
H566 N560 0.984 . S
H567 N560 0.984 . S
H568 N556 0.984 . S
H569 N556 0.985 . S
C570 C571 1.363 . S
C570 C576 1.379 . S
C570 N578 1.356 . S
C571 C570 1.363 . S
C571 C577 1.363 . S
C572 C573 1.363 . S
C572 C577 1.379 . S
C572 N579 1.356 . S
C573 C572 1.363 . S
C573 C576 1.363 . S
N574 C576 1.356 . S
N574 H586 0.984 . S
N574 H587 0.985 . S
N575 C577 1.356 . S
N575 H580 0.984 . S
N575 H581 0.985 . S
C576 C570 1.379 . S
C576 C573 1.363 . S
C576 N574 1.356 . S
C577 C571 1.363 . S
C577 C572 1.379 . S
C577 N575 1.356 . S
N578 C570 1.356 . S
N578 H584 0.984 . S
N578 H585 0.984 . S
N579 C572 1.356 . S
N579 H582 0.984 . S
N579 H583 0.985 . S
H580 N575 0.984 . S
H581 N575 0.985 . S
H582 N579 0.984 . S
H583 N579 0.985 . S
H584 N578 0.984 . S
H585 N578 0.984 . S
H586 N574 0.984 . S
H587 N574 0.985 . S
C588 C589 1.363 . S
C588 C594 1.379 . S
C588 N596 1.356 . S
C589 C588 1.363 . S
C589 C595 1.363 . S
C590 C591 1.363 . S
C590 C595 1.379 . S
C590 N597 1.356 . S
C591 C590 1.363 . S
C591 C594 1.363 . S
N592 C594 1.356 . S
N592 H604 0.984 . S
N592 H605 0.985 . S
N593 C595 1.356 . S
N593 H598 0.984 . S
N593 H599 0.985 . S
C594 C588 1.379 . S
C594 C591 1.363 . S
C594 N592 1.356 . S
C595 C589 1.363 . S
C595 C590 1.379 . S
C595 N593 1.356 . S
N596 C588 1.356 . S
N596 H602 0.984 . S
N596 H603 0.984 . S
N597 C590 1.356 . S
N597 H600 0.984 . S
N597 H601 0.985 . S
H598 N593 0.984 . S
H599 N593 0.985 . S
H600 N597 0.984 . S
H601 N597 0.985 . S
H602 N596 0.984 . S
H603 N596 0.984 . S
H604 N592 0.984 . S
H605 N592 0.985 . S
C606 C607 1.361 1_545 S
C606 C612 1.378 . S
C606 N614 1.359 . S
C607 C606 1.361 1_565 S
C607 C613 1.363 . S
C608 C609 1.363 . S
C608 C613 1.379 . S
C608 N615 1.356 . S
C609 C608 1.363 . S
C609 C612 1.363 1_565 S
N610 C612 1.356 . S
N610 H622 0.984 . S
N610 H623 0.985 . S
N611 C613 1.356 . S
N611 H616 0.984 . S
N611 H617 0.985 . S
C612 C606 1.378 . S
C612 C609 1.363 1_545 S
C612 N610 1.356 . S
C613 C607 1.363 . S
C613 C608 1.379 . S
C613 N611 1.356 . S
N614 C606 1.359 . S
N614 H620 0.984 . S
N614 H621 0.984 . S
N615 C608 1.356 . S
N615 H618 0.984 . S
N615 H619 0.985 . S
H616 N611 0.984 . S
H617 N611 0.985 . S
H618 N615 0.984 . S
H619 N615 0.985 . S
H620 N614 0.984 . S
H621 N614 0.984 . S
H622 N610 0.984 . S
H623 N610 0.985 . S
C411 C303 1.669 . S
C409 C211 1.642 . S
C427 C31 1.553 . S
C429 C398 1.664 . S
C445 C91 1.680 . S
C447 C314 1.669 . S
C463 C151 1.621 . S
C465 C387 1.664 . S
C483 C298 1.431 . S
C481 C20 1.517 . S
C501 C391 1.630 . S
C499 C61 1.572 . S
C517 C121 1.651 . S
C519 C307 1.668 . S
C535 C200 1.482 . S
C537 C382 1.410 . S
C555 C393 1.410 . S
C553 C80 1.502 . S
C573 C309 1.431 . S
C571 C140 1.552 . S
C591 C380 1.630 . S
C589 C181 1.532 . S
C607 C1 1.579 . S
C609 C296 1.668 . S
