# Generated by pormake.
# Topology zzz, (3,6)-cn, num edge types: 1
# Building blocks:
#     Node 0, Type 0, BuildingBlock: BELTOD_clean_linker_0, # of connection points: 3
#     Node 1, Type 0, BuildingBlock: BELTOD_clean_linker_0, # of connection points: 3
#     Node 2, Type 0, BuildingBlock: BELTOD_clean_linker_0, # of connection points: 3
#     Node 3, Type 0, BuildingBlock: BELTOD_clean_linker_0, # of connection points: 3
#     Node 4, Type 0, BuildingBlock: BELTOD_clean_linker_0, # of connection points: 3
#     Node 5, Type 0, BuildingBlock: BELTOD_clean_linker_0, # of connection points: 3
#     Node 6, Type 0, BuildingBlock: BELTOD_clean_linker_0, # of connection points: 3
#     Node 7, Type 0, BuildingBlock: BELTOD_clean_linker_0, # of connection points: 3
#     Node 8, Type 1, BuildingBlock: KUMBUR_clean_sbu_0, # of connection points: 6
#     Node 9, Type 1, BuildingBlock: KUMBUR_clean_sbu_0, # of connection points: 6
#     Node 10, Type 1, BuildingBlock: KUMBUR_clean_sbu_0, # of connection points: 6
#     Node 11, Type 1, BuildingBlock: KUMBUR_clean_sbu_0, # of connection points: 6
#     Edge 12, Type (0, 1), BuildingBlock: XUDNAN_clean_linker_2, # of connection points: 2
#     Edge 13, Type (0, 1), BuildingBlock: XUDNAN_clean_linker_2, # of connection points: 2
#     Edge 14, Type (0, 1), BuildingBlock: XUDNAN_clean_linker_2, # of connection points: 2
#     Edge 15, Type (0, 1), BuildingBlock: XUDNAN_clean_linker_2, # of connection points: 2
#     Edge 16, Type (0, 1), BuildingBlock: XUDNAN_clean_linker_2, # of connection points: 2
#     Edge 17, Type (0, 1), BuildingBlock: XUDNAN_clean_linker_2, # of connection points: 2
#     Edge 18, Type (0, 1), BuildingBlock: XUDNAN_clean_linker_2, # of connection points: 2
#     Edge 19, Type (0, 1), BuildingBlock: XUDNAN_clean_linker_2, # of connection points: 2
#     Edge 20, Type (0, 1), BuildingBlock: XUDNAN_clean_linker_2, # of connection points: 2
#     Edge 21, Type (0, 1), BuildingBlock: XUDNAN_clean_linker_2, # of connection points: 2
#     Edge 22, Type (0, 1), BuildingBlock: XUDNAN_clean_linker_2, # of connection points: 2
#     Edge 23, Type (0, 1), BuildingBlock: XUDNAN_clean_linker_2, # of connection points: 2
#     Edge 24, Type (0, 1), BuildingBlock: XUDNAN_clean_linker_2, # of connection points: 2
#     Edge 25, Type (0, 1), BuildingBlock: XUDNAN_clean_linker_2, # of connection points: 2
#     Edge 26, Type (0, 1), BuildingBlock: XUDNAN_clean_linker_2, # of connection points: 2
#     Edge 27, Type (0, 1), BuildingBlock: XUDNAN_clean_linker_2, # of connection points: 2
#     Edge 28, Type (0, 1), BuildingBlock: XUDNAN_clean_linker_2, # of connection points: 2
#     Edge 29, Type (0, 1), BuildingBlock: XUDNAN_clean_linker_2, # of connection points: 2
#     Edge 30, Type (0, 1), BuildingBlock: XUDNAN_clean_linker_2, # of connection points: 2
#     Edge 31, Type (0, 1), BuildingBlock: XUDNAN_clean_linker_2, # of connection points: 2
#     Edge 32, Type (0, 1), BuildingBlock: XUDNAN_clean_linker_2, # of connection points: 2
#     Edge 33, Type (0, 1), BuildingBlock: XUDNAN_clean_linker_2, # of connection points: 2
#     Edge 34, Type (0, 1), BuildingBlock: XUDNAN_clean_linker_2, # of connection points: 2
#     Edge 35, Type (0, 1), BuildingBlock: XUDNAN_clean_linker_2, # of connection points: 2
# Relax obj value: 0.288
# Max RMSD: 0.211
# Mean RMSD: 0.202
data_MOF--net-zzz--node1-KUMBUR_clean_sbu_0--node2-BELTOD_clean_linker_0--edge1-XUDNAN_clean_linker_2
_symmetry_space_group_name_H-M    P1
_symmetry_Int_Tables_number       1
_symmetry_cell_setting            triclinic
loop_
_symmetry_equiv_pos_as_xyz
'x, y, z'
_cell_length_a     53.483669
_cell_length_b     53.36912
_cell_length_c     18.486791
_cell_angle_alpha  90.608795
_cell_angle_beta   90.196677
_cell_angle_gamma 89.997685
loop_
_atom_site_label
_atom_site_type_symbol
_atom_site_fract_x
_atom_site_fract_y
_atom_site_fract_z
_atom_type_partial_charge
P0 P 0.72992 0.50343 0.23732 0.0
H1 H 0.75334 0.47861 0.36045 0.0
H2 H 0.7919 0.48878 0.42268 0.0
H3 H 0.78738 0.56455 0.34399 0.0
H4 H 0.74865 0.55398 0.28011 0.0
H5 H 0.68554 0.47671 0.18935 0.0
H6 H 0.64894 0.48885 0.12174 0.0
H7 H 0.66968 0.56668 0.14571 0.0
H8 H 0.70672 0.55425 0.21604 0.0
H9 H 0.76794 0.47092 0.17462 0.0
H10 H 0.74225 0.54693 0.14763 0.0
O11 O 0.72699 0.47257 0.24902 0.0
H12 H 0.80652 0.48124 0.11247 0.0
H13 H 0.78117 0.55743 0.08715 0.0
C14 C 0.74785 0.51537 0.31423 0.0
C15 C 0.75984 0.49779 0.35873 0.0
C16 C 0.78228 0.50363 0.39448 0.0
C17 C 0.79343 0.52733 0.38701 0.0
C18 C 0.77986 0.54583 0.34942 0.0
C19 C 0.75729 0.53993 0.31373 0.0
C20 C 0.6993 0.51447 0.20808 0.0
C21 C 0.68208 0.49652 0.18259 0.0
C22 C 0.66088 0.50352 0.14341 0.0
C23 C 0.65626 0.52877 0.12743 0.0
C24 C 0.67279 0.547 0.15613 0.0
C25 C 0.694 0.53991 0.19664 0.0
C26 C 0.75198 0.50804 0.16562 0.0
C27 C 0.77001 0.48952 0.15261 0.0
C28 C 0.79218 0.49549 0.11741 0.0
C29 C 0.79682 0.52021 0.09588 0.0
C30 C 0.77801 0.53828 0.10373 0.0
C31 C 0.75561 0.53215 0.13775 0.0
P32 P 1.00459 0.75416 0.1612 0.0
H33 H 0.03545 0.79583 0.21141 0.0
H34 H 0.0296 0.82856 0.29959 0.0
H35 H 0.9645 0.79013 0.38137 0.0
H36 H 0.96976 0.75768 0.28739 0.0
H37 H 0.04518 0.71783 0.15799 0.0
H38 H 0.04657 0.6764 0.10654 0.0
H39 H 0.96581 0.67203 0.11612 0.0
H40 H 0.96476 0.71507 0.16329 0.0
H41 H 0.9742 0.7999 0.14969 0.0
H42 H 0.98585 0.73174 0.0264 0.0
O43 O 0.03147 0.76165 0.12108 0.0
H44 H 0.95618 0.81935 0.04412 0.0
H45 H 0.96628 0.75065 0.92194 0.0
C46 C 1.00334 0.77372 0.24282 0.0
C47 C 0.02017 0.79386 0.24911 0.0
C48 C 0.01681 0.81289 0.30072 0.0
C49 C 0.99653 0.81251 0.34911 0.0
C50 C 0.98017 0.79164 0.34485 0.0
C51 C 0.98338 0.77264 0.29182 0.0
C52 C 1.00487 0.72004 0.16335 0.0
C53 C 0.0277 0.70782 0.15126 0.0
C54 C 0.02841 0.68365 0.12136 0.0
C55 C 1.00624 0.6704 0.10456 0.0
C56 C 0.98337 0.68162 0.12537 0.0
C57 C 0.9827 0.70617 0.15441 0.0
C58 C 0.98142 0.76422 0.09674 0.0
C59 C 0.97162 0.78854 0.10142 0.0
C60 C 0.961 0.79967 0.0406 0.0
C61 C 0.96019 0.78669 0.97392 0.0
C62 C 0.96695 0.76126 0.97221 0.0
C63 C 0.97799 0.75031 0.03259 0.0
P64 P 0.76123 1.00538 0.17462 0.0
H65 H 0.747 0.04541 0.27547 0.0
H66 H 0.71712 0.04646 0.37451 0.0
H67 H 0.71297 0.96556 0.36742 0.0
H68 H 0.74406 0.96477 0.27093 0.0
H69 H 0.79745 0.04588 0.18911 0.0
H70 H 0.83818 0.05066 0.13254 0.0
H71 H 0.84029 0.97113 0.08741 0.0
H72 H 0.80013 0.96629 0.14897 0.0
H73 H 0.71243 0.98031 0.17177 0.0
H74 H 0.77801 0.9826 0.03677 0.0
O75 O 0.75204 0.03236 0.13812 0.0
H76 H 0.69052 0.95712 0.07906 0.0
H77 H 0.75656 0.95798 0.94508 0.0
C78 C 0.74722 1.00504 0.26401 0.0
C79 C 0.74026 0.02783 0.29663 0.0
C80 C 0.72276 0.02841 0.35282 0.0
C81 C 0.71164 1.00617 0.37756 0.0
C82 C 0.7208 0.98317 0.34995 0.0
C83 C 0.7387 0.98264 0.29445 0.0
C84 C 0.79512 1.00593 0.16993 0.0
C85 C 0.80712 0.02926 0.17001 0.0
C86 C 0.83035 0.03201 0.13658 0.0
C87 C 0.84191 0.0115 0.10166 0.0
C88 C 0.83175 0.98746 0.11225 0.0
C89 C 0.80867 0.98467 0.1475 0.0
C90 C 0.74765 0.98206 0.11442 0.0
C91 C 0.72286 0.97439 0.12464 0.0
C92 C 0.71018 0.96095 0.07078 0.0
C93 C 0.72179 0.95529 1.00435 0.0
C94 C 0.74704 0.96184 0.99558 0.0
C95 C 0.75958 0.97564 0.04916 0.0
P96 P 0.50859 0.77668 0.182 0.0
H97 H 0.47239 0.74988 0.27165 0.0
H98 H 0.47865 0.71656 0.35836 0.0
H99 H 0.55713 0.73521 0.37104 0.0
H100 H 0.55081 0.76813 0.28169 0.0
H101 H 0.47705 0.8194 0.14371 0.0
H102 H 0.4876 0.85923 0.0895 0.0
H103 H 0.56528 0.84754 0.14415 0.0
H104 H 0.55452 0.80712 0.19755 0.0
H105 H 0.52297 0.72406 0.17423 0.0
H106 H 0.53705 0.7908 0.05081 0.0
O107 O 0.47957 0.7718 0.15139 0.0
H108 H 0.54695 0.69964 0.08869 0.0
H109 H 0.56234 0.76645 0.9661 0.0
C110 C 0.51116 0.76164 0.26949 0.0
C111 C 0.49083 0.74756 0.29493 0.0
C112 C 0.49444 0.72829 0.3449 0.0
C113 C 0.51852 0.7226 0.37075 0.0
C114 C 0.53839 0.73856 0.35104 0.0
C115 C 0.53475 0.75781 0.30081 0.0
C116 C 0.51502 0.80996 0.17415 0.0
C117 C 0.49627 0.82568 0.14664 0.0
C118 C 0.50236 0.84867 0.11537 0.0
C119 C 0.5274 0.85648 0.11071 0.0
C120 C 0.54584 0.8419 0.14532 0.0
C121 C 0.53967 0.81891 0.17707 0.0
C122 C 0.52884 0.75954 0.12106 0.0
C123 C 0.53199 0.73373 0.13026 0.0
C124 C 0.54606 0.71972 0.0812 0.0
C125 C 0.55727 0.73111 0.02104 0.0
C126 C 0.55424 0.75708 0.0121 0.0
C127 C 0.53989 0.7711 0.06114 0.0
P128 P 0.29357 0.4577 0.03315 0.0
H129 H 0.27699 0.45479 0.88143 0.0
H130 H 0.23793 0.46918 0.82737 0.0
H131 H 0.22586 0.51796 0.01147 0.0
H132 H 0.26473 0.50329 0.06579 0.0
H133 H 0.33797 0.43246 0.08486 0.0
H134 H 0.37269 0.44497 0.16252 0.0
H135 H 0.34378 0.52056 0.17027 0.0
H136 H 0.30933 0.5079 0.08994 0.0
H137 H 0.25049 0.425 0.02066 0.0
H138 H 0.28622 0.46936 0.18791 0.0
O139 O 0.30221 0.43301 0.98301 0.0
H140 H 0.21263 0.42272 0.09396 0.0
H141 H 0.24863 0.46699 0.26108 0.0
C142 C 0.27414 0.47796 0.97796 0.0
C143 C 0.26669 0.46954 0.90875 0.0
C144 C 0.24413 0.4777 0.87774 0.0
C145 C 0.22844 0.49434 0.91565 0.0
C146 C 0.23732 0.50485 0.98116 0.0
C147 C 0.25991 0.49678 0.01186 0.0
C148 C 0.32121 0.46931 0.08004 0.0
C149 C 0.33935 0.4519 0.10176 0.0
C150 C 0.35909 0.45902 0.14741 0.0
C151 C 0.36111 0.48377 0.17368 0.0
C152 C 0.3431 0.50138 0.1507 0.0
C153 C 0.32331 0.4942 0.10453 0.0
C154 C 0.27128 0.44721 0.09878 0.0
C155 C 0.25065 0.43322 0.07449 0.0
C156 C 0.22895 0.43213 0.11605 0.0
C157 C 0.22767 0.44489 0.18277 0.0
C158 C 0.24918 0.45681 0.2101 0.0
C159 C 0.27077 0.45814 0.16811 0.0
P160 P 0.06134 0.28415 0.05671 0.0
H161 H 0.05618 0.27828 0.89966 0.0
H162 H 0.04518 0.24269 0.82321 0.0
H163 H 0.02162 0.20196 0.01224 0.0
H164 H 0.03034 0.23891 0.08715 0.0
H165 H 0.06774 0.33847 0.04593 0.0
H166 H 0.0535 0.37276 0.12335 0.0
H167 H 1.00266 0.32255 0.23002 0.0
H168 H 0.01728 0.28792 0.15218 0.0
H169 H 0.07806 0.23249 0.08856 0.0
H170 H 0.07988 0.30471 0.19497 0.0
O171 O 0.08479 0.29551 1.00755 0.0
H172 H 0.08675 0.21232 0.20169 0.0
H173 H 0.09166 0.28497 0.3078 0.0
C174 C 0.04513 0.26107 0.99987 0.0
C175 C 0.048 0.26196 0.92459 0.0
C176 C 0.04212 0.24115 0.8808 0.0
C177 C 0.03375 0.21847 0.91114 0.0
C178 C 0.02837 0.21865 0.98596 0.0
C179 C 0.03348 0.23991 0.02943 0.0
C180 C 0.04342 0.31048 0.09225 0.0
C181 C 0.0529 0.33484 0.08404 0.0
C182 C 0.04498 0.35448 0.12929 0.0
C183 C 0.02725 0.35037 0.18386 0.0
C184 C 0.01632 0.32641 0.18849 0.0
C185 C 0.02446 0.30661 0.1434 0.0
C186 C 0.07571 0.26986 0.13472 0.0
C187 C 0.08038 0.24409 0.13639 0.0
C188 C 0.08623 0.23257 0.20167 0.0
C189 C 0.08892 0.24683 0.26603 0.0
C190 C 0.08834 0.27313 0.26086 0.0
C191 C 0.08162 0.28451 0.19593 0.0
P192 P 0.2473 0.07764 0.04411 0.0
H193 H 0.2488 0.0654 0.8891 0.0
H194 H 0.28267 0.04988 0.8127 0.0
H195 H 0.32596 0.03244 1.00331 0.0
H196 H 0.29165 0.04737 0.07946 0.0
H197 H 0.19321 0.08485 0.0567 0.0
H198 H 0.16172 0.0674 0.13569 0.0
H199 H 0.21789 0.01922 0.23027 0.0
H200 H 0.24866 0.03533 0.14575 0.0
H201 H 0.28434 0.11575 0.01244 0.0
H202 H 0.25702 0.07843 0.20218 0.0
O203 O 0.23324 0.09785 0.98894 0.0
H204 H 0.32052 0.13084 0.08109 0.0
H205 H 0.2934 0.09172 0.26908 0.0
C206 C 0.26774 0.05792 0.99012 0.0
C207 C 0.2652 0.05749 0.91463 0.0
C208 C 0.28478 0.04883 0.87088 0.0
C209 C 0.30739 0.0405 0.9017 0.0
C210 C 0.3089 0.03872 0.97753 0.0
C211 C 0.2892 0.04727 0.02129 0.0
C212 C 0.22342 0.06149 0.09524 0.0
C213 C 0.19865 0.0701 0.09329 0.0
C214 C 0.18062 0.06032 0.13987 0.0
C215 C 0.18699 0.0421 0.19142 0.0
C216 C 0.2118 0.03293 0.19132 0.0
C217 C 0.22965 0.04224 0.14301 0.0
C218 C 0.26813 0.09555 0.10156 0.0
C219 C 0.28572 0.11138 0.0694 0.0
C220 C 0.30657 0.11979 0.10859 0.0
C221 C 0.31037 0.11211 0.1804 0.0
C222 C 0.29131 0.0983 0.21422 0.0
C223 C 0.27038 0.09022 0.17526 0.0
P224 P 0.43196 0.23969 0.02873 0.0
H225 H 0.42294 0.24103 0.87236 0.0
H226 H 0.43334 0.27329 0.78493 0.0
H227 H 0.48631 0.3054 0.9364 0.0
H228 H 0.47645 0.27252 0.02258 0.0
H229 H 0.40243 0.19528 0.05926 0.0
H230 H 0.41041 0.15931 0.13489 0.0
H231 H 0.48834 0.17965 0.14925 0.0
H232 H 0.48033 0.2158 0.07047 0.0
H233 H 0.41152 0.2897 0.04539 0.0
H234 H 0.45596 0.23942 0.17432 0.0
O235 O 0.40198 0.2383 1.00346 0.0
H236 H 0.42008 0.32361 0.1318 0.0
H237 H 0.46526 0.27313 0.25855 0.0
C238 C 0.44849 0.25451 0.95489 0.0
C239 C 0.43758 0.25433 0.88578 0.0
C240 C 0.44328 0.27313 0.83606 0.0
C241 C 0.46003 0.2926 0.85437 0.0
C242 C 0.47319 0.29092 0.92029 0.0
C243 C 0.46759 0.27195 0.96983 0.0
C244 C 0.44071 0.2086 0.05943 0.0
C245 C 0.4215 0.19169 0.0759 0.0
C246 C 0.42604 0.17107 0.11987 0.0
C247 C 0.44988 0.16693 0.14962 0.0
C248 C 0.46975 0.18232 0.12723 0.0
C249 C 0.4652 0.20298 0.08202 0.0
C250 C 0.43322 0.26199 0.10265 0.0
C251 C 0.42263 0.28576 0.09304 0.0
C252 C 0.42773 0.30519 0.14209 0.0
C253 C 0.44363 0.30117 0.20158 0.0
C254 C 0.45279 0.27688 0.21367 0.0
C255 C 0.44764 0.25748 0.16465 0.0
Tb256 Tb 0.03228 1.00222 0.70086 0.0
C257 C 0.94089 1.00034 0.51736 0.0
C258 C 0.94838 0.96486 0.43806 0.0
C259 C 0.90588 0.9755 0.47241 0.0
C260 C 0.95746 0.98489 0.48134 0.0
C261 C 0.91487 0.9964 0.51118 0.0
C262 C 0.92263 0.95975 0.43584 0.0
C263 C 0.90847 0.03613 0.57178 0.0
N264 N 0.95018 0.02063 0.55282 0.0
C265 C 0.93438 0.03935 0.57546 0.0
C266 C 0.89865 0.01427 0.54094 0.0
Tb267 Tb 0.99288 0.02345 0.5617 0.0
N268 N 0.98226 0.99056 0.48453 0.0
C269 C 0.99859 0.97778 0.44034 0.0
C270 C 0.96529 0.95108 0.39631 0.0
C271 C 0.99037 0.95794 0.39633 0.0
H272 H 0.94177 0.05657 0.59791 0.0
H273 H 1.00349 0.94797 0.36224 0.0
H274 H 0.91542 0.9442 0.40388 0.0
H275 H 0.89611 0.05061 0.59215 0.0
H276 H 0.01817 0.98206 0.43798 0.0
H277 H 1.00246 0.95901 0.94971 0.0
H278 H 0.95907 0.93562 0.36231 0.0
H279 H 0.07531 0.04889 0.68269 0.0
H280 H 0.01332 0.95976 0.82055 0.0
H281 H 0.0903 0.08423 0.755 0.0
H282 H 0.88599 0.97195 0.46791 0.0
H283 H 0.00889 0.9968 0.0262 0.0
H284 H 0.02649 0.04035 0.03849 0.0
H285 H 0.87856 0.01193 0.53733 0.0
H286 H 0.05067 0.07464 0.98493 0.0
N287 N 0.02433 0.99818 0.82206 0.0
C288 C 0.01594 0.9765 0.85277 0.0
C289 C 0.01349 0.99732 0.9692 0.0
C290 C 0.02435 0.01862 0.93895 0.0
C291 C 0.00987 0.97594 0.92625 0.0
C292 C 0.02994 0.01831 0.86445 0.0
H293 H 0.07496 0.09098 0.87956 0.0
N294 N 0.05017 0.03533 0.76349 0.0
C295 C 0.07684 0.0714 0.77772 0.0
C296 C 0.04329 0.03763 0.83401 0.0
C297 C 0.068 0.0511 0.73646 0.0
C298 C 0.06809 0.07521 0.84789 0.0
C299 C 0.05171 0.05779 0.87773 0.0
O300 O 0.05425 0.9746 0.64994 0.0
O301 O 0.0109 0.99092 0.6052 0.0
O302 O 0.96857 0.016 0.65586 0.0
O303 O 0.99553 1.00717 0.75255 0.0
O304 O 1.00659 0.97023 0.69609 0.0
O305 O 0.06353 0.98725 0.75609 0.0
O306 O 0.01347 0.05207 0.51268 0.0
O307 O 0.0188 0.03524 0.64657 0.0
O308 O 0.05473 0.01922 0.61542 0.0
O309 O 0.02911 0.01248 0.51651 0.0
O310 O 0.98549 0.05379 0.63928 0.0
O311 O 0.97693 0.04323 0.47442 0.0
C312 C 0.99971 0.97192 0.62974 0.0
C313 C 0.07086 0.94475 0.72863 0.0
C314 C 0.05208 0.9037 0.74824 0.0
C315 C 0.05065 0.92816 0.7219 0.0
C316 C 0.07482 0.89551 0.77855 0.0
C317 C 0.09333 0.93634 0.75893 0.0
C318 C 0.09534 0.9117 0.78314 0.0
C319 C 0.97303 0.0115 0.72536 0.0
C320 C 0.06831 0.97092 0.70575 0.0
C321 C 0.04466 0.05913 0.95081 0.0
C322 C 0.03093 0.03959 0.98136 0.0
C323 C 1.00619 0.05299 0.67469 0.0
C324 C 0.98837 0.08621 0.48208 0.0
C325 C 0.00755 0.10376 0.49399 0.0
C326 C 1.00217 0.12929 0.50484 0.0
C327 C 0.97697 0.13699 0.5047 0.0
C328 C 0.9634 0.09434 0.48167 0.0
C329 C 0.9578 0.11959 0.49344 0.0
C330 C 0.05144 0.01622 0.54511 0.0
C331 C 0.99491 0.05948 0.47356 0.0
H332 H 0.03361 0.93427 0.69676 0.0
H333 H 0.07658 0.8769 0.80075 0.0
H334 H 0.10919 0.94885 0.7643 0.0
H335 H 0.11268 0.9053 0.807 0.0
H336 H 0.02677 0.09739 0.49503 0.0
H337 H 0.97197 0.15654 0.51084 0.0
H338 H 0.94821 0.08126 0.47267 0.0
H339 H 0.93853 0.12576 0.49291 0.0
Tb340 Tb 0.51155 0.04675 0.70445 0.0
C341 C 0.54482 0.94796 0.56236 0.0
C342 C 0.57402 0.95964 0.46922 0.0
C343 C 0.5787 0.91971 0.52985 0.0
C344 C 0.55312 0.9651 0.51298 0.0
C345 C 0.55714 0.92482 0.57063 0.0
C346 C 0.58713 0.93711 0.4791 0.0
C347 C 0.5248 0.91285 0.65433 0.0
N348 N 0.52394 0.95363 0.60032 0.0
C349 C 0.51318 0.93601 0.64376 0.0
C350 C 0.54707 0.90734 0.61831 0.0
Tb351 Tb 0.5073 0.99287 0.58449 0.0
N352 N 0.54004 0.9867 0.50577 0.0
C353 C 0.54583 1.0028 0.45111 0.0
C354 C 0.58069 0.97666 0.4157 0.0
C355 C 0.56617 0.99806 0.40566 0.0
H356 H 0.49614 0.94025 0.67263 0.0
H357 H 0.57061 0.011 0.36297 0.0
H358 H 0.60342 0.93271 0.44668 0.0
H359 H 0.51662 0.89931 0.69044 0.0
H360 H 0.53523 0.01961 0.44219 0.0
H361 H 0.45066 0.02893 0.93168 0.0
H362 H 0.59657 0.97317 0.38079 0.0
H363 H 0.51992 0.09892 0.61089 0.0
H364 H 0.48601 0.02097 0.85186 0.0
H365 H 0.49729 0.13859 0.58979 0.0
H366 H 0.58862 0.90215 0.53587 0.0
H367 H 0.42248 0.06487 0.90979 0.0
H368 H 0.41297 0.10362 0.83867 0.0
H369 H 0.55602 0.88937 0.62642 0.0
H370 H 0.42577 0.13365 0.74555 0.0
N371 N 0.47882 0.05218 0.78342 0.0
C372 C 0.47429 0.03682 0.84073 0.0
C373 C 0.43827 0.06159 0.87436 0.0
C374 C 0.44363 0.07798 0.81804 0.0
C375 C 0.45405 0.04127 0.88672 0.0
C376 C 0.46455 0.07293 0.77392 0.0
H377 H 0.45745 0.14706 0.65322 0.0
N378 N 0.49279 0.08482 0.68418 0.0
C379 C 0.48985 0.125 0.62705 0.0
C380 C 0.47177 0.08984 0.72232 0.0
C381 C 0.50268 0.1026 0.63945 0.0
C382 C 0.46733 0.12967 0.66275 0.0
C383 C 0.45826 0.11222 0.71217 0.0
O384 O 0.5371 0.07519 0.73053 0.0
O385 O 0.53083 0.02048 0.63526 0.0
O386 O 0.52937 0.98197 0.6785 0.0
O387 O 0.51601 0.0111 0.76525 0.0
O388 O 0.54332 0.05613 0.63298 0.0
O389 O 0.52841 0.04624 0.80735 0.0
O390 O 0.47834 0.96788 0.55752 0.0
O391 O 0.48838 0.01866 0.65558 0.0
O392 O 0.4883 0.05622 0.61166 0.0
O393 O 0.50349 0.02869 0.52431 0.0
O394 O 0.47601 0.98298 0.65717 0.0
O395 O 0.49149 0.9949 0.48046 0.0
C396 C 0.54739 0.03402 0.60785 0.0
C397 C 0.56991 0.06125 0.80189 0.0
C398 C 0.60702 0.03501 0.7914 0.0
C399 C 0.58102 0.03803 0.7857 0.0
C400 C 0.62177 0.05578 0.81221 0.0
C401 C 0.58486 0.08167 0.82236 0.0
C402 C 0.61072 0.07893 0.82724 0.0
C403 C 0.52598 0.98909 0.74657 0.0
C404 C 0.54304 0.06501 0.79178 0.0
C405 C 0.43659 0.11671 0.75305 0.0
C406 C 0.4293 0.09961 0.80602 0.0
C407 C 0.47209 1.00492 0.68383 0.0
C408 C 0.44764 0.98932 0.49078 0.0
C409 C 0.44283 0.01181 0.45414 0.0
C410 C 0.41875 0.02235 0.45372 0.0
C411 C 0.39936 0.0099 0.49011 0.0
C412 C 0.42789 0.97717 0.52602 0.0
C413 C 0.40396 0.98749 0.52586 0.0
C414 C 0.4918 0.0497 0.54332 0.0
C415 C 0.47344 0.97965 0.49774 0.0
H416 H 0.56947 0.02237 0.76867 0.0
H417 H 0.64181 0.05402 0.81918 0.0
H418 H 0.57654 0.09979 0.83382 0.0
H419 H 0.62223 0.09472 0.84341 0.0
H420 H 0.45792 0.02137 0.42699 0.0
H421 H 0.38043 0.0171 0.48957 0.0
H422 H 0.43102 0.95987 0.55485 0.0
H423 H 0.38889 0.97807 0.5535 0.0
Tb424 Tb 0.53634 0.49913 0.62436 0.0
C425 C 0.42618 0.49005 0.69169 0.0
C426 C 0.4011 0.50627 0.59377 0.0
C427 C 0.38462 0.47319 0.66944 0.0
C428 C 0.42359 0.50592 0.63377 0.0
C429 C 0.40665 0.47371 0.71095 0.0
C430 C 0.38181 0.48951 0.61111 0.0
C431 C 0.43136 0.46105 0.81393 0.0
N432 N 0.44779 0.49109 0.73034 0.0
C433 C 0.45011 0.47774 0.79314 0.0
C434 C 0.40965 0.45882 0.77222 0.0
Tb435 Tb 0.47703 0.51981 0.69312 0.0
N436 N 0.44253 0.52206 0.61942 0.0
C437 C 0.43919 0.54041 0.56924 0.0
C438 C 0.39833 0.52398 0.53915 0.0
C439 C 0.41731 0.54137 0.52765 0.0
H440 H 0.46686 0.47931 0.82566 0.0
H441 H 0.41511 0.5556 0.48683 0.0
H442 H 0.36447 0.48937 0.58063 0.0
H443 H 0.43365 0.44998 0.86221 0.0
H444 H 0.45337 0.55435 0.5601 0.0
H445 H 0.5356 0.43788 0.86292 0.0
H446 H 0.38138 0.52483 0.50701 0.0
H447 H 0.57723 0.54437 0.58601 0.0
H448 H 0.51597 0.46371 0.77229 0.0
H449 H 0.61889 0.55766 0.62355 0.0
H450 H 0.36944 0.46065 0.68298 0.0
H451 H 0.58101 0.44074 0.88447 0.0
H452 H 0.62061 0.46437 0.86437 0.0
H453 H 0.39511 0.44596 0.78864 0.0
H454 H 0.64247 0.49896 0.80508 0.0
N455 N 0.55018 0.47804 0.72823 0.0
C456 C 0.536 0.46372 0.77418 0.0
C457 C 0.57257 0.45142 0.84125 0.0
C458 C 0.58639 0.4689 0.80264 0.0
C459 C 0.54702 0.44958 0.82884 0.0
C460 C 0.57451 0.4822 0.74632 0.0
H461 H 0.64157 0.53445 0.71813 0.0
N462 N 0.57406 0.51523 0.66368 0.0
C463 C 0.60998 0.54207 0.65015 0.0
C464 C 0.58671 0.50176 0.71373 0.0
C465 C 0.58584 0.53472 0.63016 0.0
C466 C 0.62279 0.52881 0.70298 0.0
C467 C 0.6113 0.50827 0.73512 0.0
O468 O 0.55242 0.50933 0.52505 0.0
O469 O 0.49874 0.5111 0.59995 0.0
O470 O 0.47553 0.47855 0.67202 0.0
O471 O 0.51595 0.46411 0.64317 0.0
O472 O 0.51295 0.48399 0.53481 0.0
O473 O 0.56297 0.47505 0.57794 0.0
O474 O 0.46272 0.53177 0.79278 0.0
O475 O 0.51734 0.52011 0.70675 0.0
O476 O 0.53407 0.54037 0.61095 0.0
O477 O 0.49174 0.55046 0.62442 0.0
O478 O 0.49683 0.51394 0.79682 0.0
O479 O 0.46404 0.557 0.70286 0.0
C480 C 0.49369 0.49777 0.54535 0.0
C481 C 0.56311 0.47499 0.45013 0.0
C482 C 0.54454 0.44197 0.37442 0.0
C483 C 0.54727 0.45414 0.44186 0.0
C484 C 0.55879 0.45054 0.31566 0.0
C485 C 0.57687 0.48335 0.39078 0.0
C486 C 0.57482 0.47106 0.32399 0.0
C487 C 0.49199 0.46028 0.65879 0.0
C488 C 0.56504 0.48852 0.51978 0.0
C489 C 0.62358 0.4943 0.78835 0.0
C490 C 0.61119 0.47453 0.82177 0.0
C491 C 0.51905 0.51748 0.77385 0.0
C492 C 0.4728 0.57279 0.82051 0.0
C493 C 0.49608 0.58326 0.80274 0.0
C494 C 0.50922 0.59768 0.85405 0.0
C495 C 0.49887 0.60142 0.92331 0.0
C496 C 0.46269 0.57691 0.88948 0.0
C497 C 0.47574 0.59112 0.94068 0.0
C498 C 0.515 0.55635 0.60503 0.0
C499 C 0.46041 0.55479 0.77215 0.0
H500 H 0.53667 0.44774 0.48781 0.0
H501 H 0.55783 0.44129 0.26334 0.0
H502 H 0.58918 0.49939 0.39614 0.0
H503 H 0.58562 0.4775 0.2784 0.0
H504 H 0.50414 0.57998 0.74979 0.0
H505 H 0.50831 0.61297 0.96346 0.0
H506 H 0.44498 0.56857 0.90426 0.0
H507 H 0.4679 0.5942 0.99395 0.0
Tb508 Tb 0.02635 0.53747 0.58684 0.0
C509 C 1.00132 0.43345 0.61917 0.0
C510 C 0.95855 0.41985 0.60214 0.0
C511 C 0.99253 0.39311 0.5616 0.0
C512 C 0.97613 0.43798 0.62556 0.0
C513 C 0.00986 0.41066 0.5885 0.0
C514 C 0.96688 0.39771 0.56835 0.0
C515 C 0.05193 0.42363 0.61628 0.0
N516 N 0.01746 0.45109 0.6447 0.0
C517 C 0.04258 0.44597 0.6457 0.0
C518 C 0.03552 0.40597 0.58698 0.0
Tb519 Tb 1.00006 0.48742 0.69201 0.0
N520 N 0.96889 0.45952 0.65866 0.0
C521 C 0.94424 0.4626 0.67745 0.0
C522 C 0.93321 0.42405 0.61596 0.0
C523 C 0.9261 0.44528 0.6553 0.0
H524 H 0.05588 0.4589 0.66803 0.0
H525 H 0.90669 0.44818 0.6694 0.0
H526 H 0.95367 0.38373 0.54919 0.0
H527 H 0.07185 0.42004 0.61637 0.0
H528 H 0.93849 0.47874 0.70922 0.0
H529 H 0.1196 0.57226 0.65298 0.0
H530 H 0.91915 0.41056 0.59916 0.0
H531 H 0.97242 0.57142 0.58338 0.0
H532 H 0.08902 0.54611 0.5876 0.0
H533 H 0.95647 0.60992 0.63516 0.0
H534 H 0.99876 0.3757 0.53691 0.0
H535 H 0.10524 0.60651 0.73362 0.0
H536 H 0.06975 0.6332 0.77759 0.0
H537 H 0.04278 0.38858 0.56486 0.0
H538 H 0.02524 0.64436 0.76914 0.0
N539 N 0.05706 0.5632 0.63711 0.0
C540 C 0.08227 0.56043 0.62455 0.0
C541 C 0.09164 0.59465 0.70638 0.0
C542 C 0.06605 0.59956 0.71166 0.0
C543 C 0.09981 0.57539 0.66091 0.0
C544 C 0.04908 0.58345 0.67528 0.0
H545 H 0.98362 0.63705 0.70991 0.0
N546 N 0.00882 0.57414 0.63245 0.0
C547 C 0.97545 0.60419 0.64696 0.0
C548 C 0.02415 0.58948 0.67138 0.0
C549 C 0.9848 0.58178 0.61819 0.0
C550 C 0.99076 0.61936 0.68964 0.0
C551 C 0.0154 0.6121 0.70268 0.0
O552 O 0.00958 0.54829 0.48863 0.0
O553 O 0.01335 0.49914 0.58732 0.0
O554 O 0.03876 0.49467 0.72674 0.0
O555 O 0.05817 0.51901 0.63978 0.0
O556 O 0.04469 0.50629 0.52857 0.0
O557 O 0.0486 0.55417 0.50737 0.0
O558 O 0.01972 0.47511 0.78452 0.0
O559 O 0.01199 0.52608 0.69073 0.0
O560 O 0.98664 0.5325 0.55695 0.0
O561 O 0.96824 0.50211 0.62964 0.0
O562 O 0.9797 0.51859 0.74391 0.0
O563 O 0.97967 0.47497 0.78093 0.0
C564 C 0.02877 0.48908 0.54427 0.0
C565 C 0.03658 0.53997 0.39091 0.0
C566 C 0.0648 0.5129 0.32179 0.0
C567 C 0.06025 0.52917 0.38037 0.0
C568 C 0.04559 0.50861 0.27092 0.0
C569 C 0.01773 0.53567 0.33921 0.0
C570 C 0.02233 0.5202 0.27927 0.0
C571 C 0.05875 0.50568 0.69939 0.0
C572 C 0.03093 0.55347 0.45911 0.0
C573 C 0.03178 0.62725 0.74341 0.0
C574 C 0.05708 0.62087 0.74838 0.0
C575 C 0.99542 0.53621 0.72998 0.0
C576 C 0.99836 0.48596 0.89271 0.0
C577 C 0.97665 0.49884 0.91303 0.0
C578 C 0.97347 0.50809 0.98367 0.0
C579 C 0.99363 0.50682 0.0324 0.0
C580 C 0.01824 0.48444 0.94225 0.0
C581 C 0.01603 0.49534 0.01122 0.0
C582 C 0.96701 0.51934 0.5787 0.0
C583 C 0.99932 0.47291 0.82184 0.0
H584 H 0.07509 0.53294 0.41897 0.0
H585 H 0.04832 0.49594 0.22549 0.0
H586 H 0.99931 0.54377 0.34609 0.0
H587 H 0.00763 0.5167 0.24005 0.0
H588 H 0.96152 0.50079 0.8744 0.0
H589 H 0.99182 0.51376 0.08738 0.0
H590 H 0.03525 0.47457 0.92806 0.0
H591 H 0.03139 0.49406 0.04927 0.0
H592 H 0.14631 0.06803 0.24914 0.0
H593 H 0.18417 0.99597 0.25859 0.0
H594 H 0.15471 0.98249 0.35212 0.0
H595 H 0.13056 0.07455 0.4342 0.0
H596 H 0.09977 0.08713 0.41841 0.0
H597 H 0.12422 0.09211 0.35337 0.0
H598 H 0.09691 0.07241 0.25214 0.0
H599 H 0.07211 0.06789 0.31638 0.0
H600 H 0.08377 0.04164 0.26439 0.0
H601 H 0.12186 0.97711 0.44859 0.0
H602 H 0.08567 0.97904 0.53182 0.0
H603 H 0.06645 0.05244 0.45075 0.0
C604 C 0.14836 0.04922 0.26946 0.0
C605 C 0.16815 0.03332 0.24599 0.0
C606 C 0.16991 0.00901 0.27622 0.0
C607 C 0.15303 1.00099 0.32926 0.0
C608 C 0.13402 0.01722 0.35107 0.0
C609 C 0.13132 0.04067 0.32126 0.0
C610 C 0.10865 0.05412 0.35223 0.0
C611 C 0.11629 0.07842 0.39189 0.0
C612 C 0.08921 0.05931 0.29274 0.0
C613 C 0.09921 0.03467 0.40482 0.0
C614 C 0.11428 0.0136 0.40381 0.0
C615 C 0.10983 0.99341 0.44934 0.0
C616 C 0.08934 0.99469 0.49659 0.0
C617 C 0.07343 0.01583 0.49729 0.0
C618 C 0.07838 0.03603 0.45078 0.0
H619 H 0.48561 0.12957 0.17451 0.0
H620 H 0.42013 0.16544 0.26746 0.0
H621 H 0.42337 0.13849 0.37385 0.0
H622 H 0.47081 0.06631 0.23895 0.0
H623 H 0.50284 0.05831 0.25816 0.0
H624 H 0.49566 0.0802 0.18744 0.0
H625 H 0.52459 0.11316 0.24855 0.0
H626 H 0.5318 0.09132 0.31931 0.0
H627 H 0.51944 0.12183 0.34185 0.0
H628 H 0.4341 0.10997 0.47252 0.0
H629 H 0.4511 0.07954 0.55802 0.0
H630 H 0.50878 0.05895 0.40369 0.0
C631 C 0.47195 0.1316 0.21725 0.0
C632 C 0.45247 0.14958 0.21217 0.0
C633 C 0.43497 0.15164 0.26934 0.0
C634 C 0.43668 0.13646 0.33032 0.0
C635 C 0.45587 0.11894 0.33368 0.0
C636 C 0.47311 0.11613 0.27871 0.0
C637 C 0.49178 0.09554 0.29717 0.0
C638 C 0.49017 0.07381 0.24214 0.0
C639 C 0.51849 0.1061 0.30201 0.0
C640 C 0.4824 0.08758 0.3712 0.0
C641 C 0.46174 0.10157 0.3909 0.0
C642 C 0.45018 0.09877 0.45758 0.0
C643 C 0.46001 0.08133 0.50587 0.0
C644 C 0.48118 0.06661 0.48762 0.0
C645 C 0.49235 0.06961 0.41879 0.0
H646 H 0.38117 0.45576 0.28515 0.0
H647 H 0.38788 0.52789 0.18043 0.0
H648 H 0.42167 0.53958 0.2657 0.0
H649 H 0.39041 0.47645 0.46129 0.0
H650 H 0.40995 0.45135 0.49362 0.0
H651 H 0.38746 0.4456 0.42251 0.0
H652 H 0.42012 0.42955 0.33261 0.0
H653 H 0.44316 0.4321 0.40362 0.0
H654 H 0.44834 0.44734 0.31849 0.0
H655 H 0.45647 0.54265 0.35895 0.0
H656 H 0.4873 0.53783 0.45837 0.0
H657 H 0.45731 0.46441 0.50462 0.0
C658 C 0.38988 0.47393 0.27933 0.0
C659 C 0.38167 0.49088 0.2255 0.0
C660 C 0.39344 0.51464 0.2214 0.0
C661 C 0.41284 0.5214 0.26937 0.0
C662 C 0.42042 0.50423 0.32145 0.0
C663 C 0.40932 0.48096 0.32666 0.0
C664 C 0.4208 0.46604 0.38801 0.0
C665 C 0.40101 0.45947 0.44483 0.0
C666 C 0.43387 0.44235 0.35893 0.0
C667 C 0.43975 0.48473 0.41738 0.0
C668 C 0.43955 0.50649 0.37736 0.0
C669 C 0.45646 0.52588 0.39132 0.0
C670 C 0.47381 0.52307 0.44798 0.0
C671 C 0.4738 0.50129 0.4909 0.0
C672 C 0.45691 0.48169 0.47441 0.0
H673 H 0.06085 0.38016 0.25695 0.0
H674 H 0.98137 0.36596 0.23583 0.0
H675 H 0.97285 0.39986 0.3254 0.0
H676 H 0.06059 0.39169 0.44617 0.0
H677 H 0.08354 0.41644 0.4461 0.0
H678 H 0.0844 0.39214 0.37773 0.0
H679 H 0.0806 0.4234 0.27145 0.0
H680 H 0.08365 0.44714 0.33993 0.0
H681 H 0.05768 0.44815 0.27757 0.0
H682 H 0.97334 0.43727 0.41411 0.0
H683 H 0.98273 0.4719 0.50015 0.0
H684 H 0.06203 0.46024 0.46698 0.0
C685 C 0.0416 0.3843 0.27064 0.0
C686 C 0.02175 0.37055 0.2385 0.0
C687 C 0.99689 0.37621 0.25951 0.0
C688 C 0.99189 0.39551 0.31019 0.0
C689 C 0.01196 0.40884 0.34024 0.0
C690 C 0.03632 0.40324 0.3216 0.0
C691 C 0.05466 0.41984 0.36242 0.0
C692 C 0.07181 0.40411 0.41105 0.0
C693 C 0.06998 0.4356 0.30954 0.0
C694 C 0.0369 0.43599 0.40685 0.0
C695 C 0.0123 0.42944 0.39297 0.0
C696 C 0.99255 0.44223 0.42599 0.0
C697 C 0.99805 0.46182 0.47513 0.0
C698 C 0.02311 0.46817 0.49244 0.0
C699 C 0.04271 0.45539 0.45629 0.0
H700 H 0.88445 0.98317 0.0674 0.0
H701 H 0.84274 0.04937 1.00436 0.0
H702 H 0.872 0.05631 0.90496 0.0
H703 H 0.94689 0.00819 0.02267 0.0
H704 H 0.95802 0.97842 0.98908 0.0
H705 H 0.93454 0.97947 0.0586 0.0
H706 H 0.90599 0.95148 0.97751 0.0
H707 H 0.92937 0.95111 0.90755 0.0
H708 H 0.89811 0.96169 0.8876 0.0
H709 H 0.90381 0.05565 0.80901 0.0
H710 H 0.93846 0.0484 0.72435 0.0
H711 H 0.96083 0.98271 0.84435 0.0
C712 C 0.88164 0.99924 0.03307 0.0
C713 C 0.86139 0.01597 0.04517 0.0
C714 C 0.85838 0.03665 0.99827 0.0
C715 C 0.87481 0.04067 0.94086 0.0
C716 C 0.89437 0.0239 0.93033 0.0
C717 C 0.89811 1.00369 0.97517 0.0
C718 C 0.9207 0.98851 0.95034 0.0
C719 C 0.94125 0.98868 1.00866 0.0
C720 C 0.91307 0.9616 0.92952 0.0
C721 C 0.92869 1.00323 0.8842 0.0
C722 C 0.91308 0.02351 0.87394 0.0
C723 C 0.91611 0.03977 0.81627 0.0
C724 C 0.93566 0.03529 0.76771 0.0
C725 C 0.95199 0.01471 0.7766 0.0
C726 C 0.94859 0.99857 0.83616 0.0
H727 H 0.50296 0.90185 0.08929 0.0
H728 H 0.56695 0.85826 0.01744 0.0
H729 H 0.57566 0.88963 0.92423 0.0
H730 H 0.48196 0.91898 0.91705 0.0
H731 H 0.47242 0.95029 0.94191 0.0
H732 H 0.47265 0.926 1.0087 0.0
H733 H 0.5017 0.95298 0.0905 0.0
H734 H 0.50148 0.9774 0.02384 0.0
H735 H 0.53076 0.96456 0.0547 0.0
H736 H 0.57401 0.92207 0.82772 0.0
H737 H 0.5643 0.95566 0.74144 0.0
H738 H 0.50259 0.97992 0.8766 0.0
C739 C 0.51907 0.89911 0.0548 0.0
C740 C 0.5344 0.87753 0.06166 0.0
C741 C 0.55522 0.87476 0.0149 0.0
C742 C 0.56023 0.89244 0.96116 0.0
C743 C 0.54446 0.91308 0.95485 0.0
C744 C 0.52449 0.91675 1.001 0.0
C745 C 0.50984 0.94005 0.98028 0.0
C746 C 0.48261 0.93342 0.96083 0.0
C747 C 0.51102 0.95993 0.04095 0.0
C748 C 0.52426 0.94843 0.91412 0.0
C749 C 0.54415 0.93254 0.90047 0.0
C750 C 0.55889 0.935 0.83893 0.0
C751 C 0.55318 0.95412 0.79009 0.0
C752 C 0.5331 0.97087 0.80316 0.0
C753 C 0.51862 0.96806 0.8665 0.0
H754 H 0.6087 0.50874 0.11909 0.0
H755 H 0.65737 0.56265 0.01626 0.0
H756 H 0.62604 0.56821 0.91912 0.0
H757 H 0.59046 0.47804 0.96892 0.0
H758 H 0.5579 0.47299 0.98979 0.0
H759 H 0.58052 0.47634 0.06146 0.0
H760 H 0.5575 0.51329 0.11979 0.0
H761 H 0.5331 0.50961 0.05299 0.0
H762 H 0.54819 0.53956 0.06544 0.0
H763 H 0.59031 0.56542 0.82741 0.0
H764 H 0.55426 0.55375 0.74949 0.0
H765 H 0.53037 0.49989 0.90847 0.0
C766 C 0.61262 0.52209 0.07691 0.0
C767 C 0.63562 0.5353 0.07579 0.0
C768 C 0.63983 0.5526 0.01937 0.0
C769 C 0.62214 0.55579 0.96359 0.0
C770 C 0.6001 0.5418 0.96514 0.0
C771 C 0.59515 0.52555 0.02103 0.0
C772 C 0.57084 0.51151 1.00795 0.0
C773 C 0.57517 0.48303 1.00684 0.0
C774 C 0.55125 0.51895 0.06493 0.0
C775 C 0.56361 0.52126 0.93394 0.0
C776 C 0.58034 0.53924 0.911 0.0
C777 C 0.5773 0.55117 0.8447 0.0
C778 C 0.55695 0.54424 0.80034 0.0
C779 C 0.54028 0.52507 0.82137 0.0
C780 C 0.54328 0.51408 0.89011 0.0
H781 H 0.9702 0.64964 0.01089 0.0
H782 H 0.04464 0.63535 0.09683 0.0
H783 H 0.04984 0.6011 1.00904 0.0
H784 H 0.95619 0.58122 0.98555 0.0
H785 H 0.93737 0.58651 0.90618 0.0
H786 H 0.93882 0.60991 0.97721 0.0
H787 H 0.95184 0.64217 0.88514 0.0
H788 H 0.95318 0.6199 0.81144 0.0
H789 H 0.98043 0.63832 0.83568 0.0
H790 H 0.04909 0.57109 0.90352 0.0
H791 H 0.03965 0.54266 0.80109 0.0
H792 H 0.96405 0.57174 0.79146 0.0
C793 C 0.98741 0.63904 0.01325 0.0
C794 C 0.00731 0.64635 0.06034 0.0
C795 C 0.02939 0.63146 0.05986 0.0
C796 C 0.0325 0.61155 0.01041 0.0
C797 C 0.01304 0.60576 0.96299 0.0
C798 C 0.99054 0.61839 0.96587 0.0
C799 C 0.97238 0.60777 0.90978 0.0
C800 C 0.94982 0.59563 0.94684 0.0
C801 C 0.96396 0.62822 0.85721 0.0
C802 C 0.98865 0.58804 0.87273 0.0
C803 C 0.01205 0.58729 0.90454 0.0
C804 C 0.0307 0.57127 0.8789 0.0
C805 C 0.02523 0.55527 0.82021 0.0
C806 C 1.00124 0.55514 0.78753 0.0
C807 C 0.98263 0.5716 0.81491 0.0
H808 H 0.10495 0.19934 0.30217 0.0
H809 H 0.06905 0.26541 0.39335 0.0
H810 H 0.0547 0.24088 0.49531 0.0
H811 H 0.05634 0.16537 0.30908 0.0
H812 H 0.0703 0.13559 0.33093 0.0
H813 H 0.08859 0.15895 0.28739 0.0
H814 H 0.12119 0.15672 0.39078 0.0
H815 H 0.10259 0.13348 0.43599 0.0
H816 H 0.11159 0.16177 0.48319 0.0
H817 H 0.03246 0.20888 0.56318 0.0
H818 H 1.00356 0.17376 0.58262 0.0
H819 H 0.04733 0.12775 0.43531 0.0
C820 C 0.09467 0.20886 0.34454 0.0
C821 C 0.0879 0.23434 0.33804 0.0
C822 C 0.07501 0.24608 0.39622 0.0
C823 C 0.06661 0.23215 0.45507 0.0
C824 C 0.071 0.20643 0.45529 0.0
C825 C 0.08504 0.19487 0.40166 0.0
C826 C 0.08172 0.16668 0.40287 0.0
C827 C 0.07372 0.15608 0.32823 0.0
C828 C 0.10571 0.15392 0.42982 0.0
C829 C 0.0611 0.16462 0.4584 0.0
C830 C 0.05644 0.18745 0.49168 0.0
C831 C 0.03624 0.19083 0.53834 0.0
C832 C 0.01963 0.17085 0.54809 0.0
C833 C 0.02278 0.14805 0.50928 0.0
C834 C 0.04452 0.14466 0.46693 0.0
H835 H 0.3216 0.11809 0.32496 0.0
H836 H 0.35618 0.10839 0.11466 0.0
H837 H 0.39523 0.09599 0.17297 0.0
H838 H 0.38385 0.13073 0.43549 0.0
H839 H 0.37187 0.11209 0.50824 0.0
H840 H 0.35095 0.13131 0.45582 0.0
H841 H 0.3236 0.0925 0.42777 0.0
H842 H 0.34427 0.07311 0.47885 0.0
H843 H 0.33764 0.06532 0.38559 0.0
H844 H 0.4229 0.06974 0.24387 0.0
H845 H 0.43785 0.03597 0.32209 0.0
H846 H 0.38688 0.06063 0.4904 0.0
C847 C 0.33774 0.11436 0.29141 0.0
C848 C 0.33553 0.11393 0.21518 0.0
C849 C 0.35718 0.10921 0.17311 0.0
C850 C 0.37962 0.10199 0.20598 0.0
C851 C 0.38027 0.09966 0.28096 0.0
C852 C 0.36007 0.10641 0.32362 0.0
C853 C 0.36334 0.09712 0.40036 0.0
C854 C 0.36778 0.11913 0.45307 0.0
C855 C 0.3409 0.08105 0.42439 0.0
C856 C 0.3868 0.08154 0.39163 0.0
C857 C 0.39684 0.08405 0.32326 0.0
C858 C 0.41584 0.0683 0.29844 0.0
C859 C 0.42421 0.04906 0.34341 0.0
C860 C 0.41341 0.04552 0.41241 0.0
C861 C 0.39536 0.06278 0.43776 0.0
H862 H 0.45803 0.34717 0.15338 0.0
H863 H 0.45186 0.30314 0.34858 0.0
H864 H 0.47424 0.33627 0.41705 0.0
H865 H 0.51797 0.36808 0.18136 0.0
H866 H 0.51316 0.39908 0.14612 0.0
H867 H 0.49398 0.37352 0.11458 0.0
H868 H 0.45468 0.39831 0.14959 0.0
H869 H 0.47297 0.42409 0.18484 0.0
H870 H 0.45033 0.40879 0.24143 0.0
H871 H 0.50275 0.37081 0.45883 0.0
H872 H 0.53221 0.40579 0.47403 0.0
H873 H 0.51648 0.42929 0.25396 0.0
C874 C 0.46052 0.34485 0.21106 0.0
C875 C 0.45311 0.32257 0.24566 0.0
C876 C 0.45751 0.31997 0.32084 0.0
C877 C 0.4701 0.33874 0.36023 0.0
C878 C 0.47787 0.36008 0.32379 0.0
C879 C 0.47291 0.36339 0.25113 0.0
C880 C 0.48466 0.38724 0.22357 0.0
C881 C 0.50356 0.38163 0.16285 0.0
C882 C 0.46447 0.40573 0.19841 0.0
C883 C 0.49768 0.39645 0.29162 0.0
C884 C 0.49353 0.38054 0.3488 0.0
C885 C 0.50557 0.38382 0.41509 0.0
C886 C 0.52226 0.4039 0.42319 0.0
C887 C 0.52664 0.4207 0.36552 0.0
C888 C 0.51384 0.41688 0.29921 0.0
H889 H 0.18515 0.46103 0.11768 0.0
H890 H 0.21571 0.44076 0.32659 0.0
H891 H 0.17622 0.45414 0.38529 0.0
H892 H 0.15506 0.51656 0.18069 0.0
H893 H 0.12941 0.51312 0.1178 0.0
H894 H 0.1596 0.50032 0.0962 0.0
H895 H 0.13789 0.45667 0.07583 0.0
H896 H 0.1082 0.47001 0.10108 0.0
H897 H 0.12022 0.4433 0.14886 0.0
H898 H 0.13495 0.47336 0.42125 0.0
H899 H 0.09415 0.49443 0.43173 0.0
H900 H 0.0913 0.50243 0.19817 0.0
C901 C 0.18324 0.45863 0.17551 0.0
C902 C 0.20322 0.44944 0.21764 0.0
C903 C 0.20045 0.44755 0.2935 0.0
C904 C 0.17815 0.4551 0.32713 0.0
C905 C 0.15898 0.46458 0.28401 0.0
C906 C 0.1613 0.46628 0.20982 0.0
C907 C 0.13878 0.47881 0.17623 0.0
C908 C 0.14613 0.50367 0.14061 0.0
C909 C 0.12549 0.46113 0.12232 0.0
C910 C 0.12319 0.48355 0.24285 0.0
C911 C 0.13525 0.4755 0.30462 0.0
C912 C 0.12525 0.47953 0.37315 0.0
C913 C 0.10218 0.49185 0.3785 0.0
C914 C 0.08932 0.50001 0.31559 0.0
C915 C 0.10018 0.49581 0.2471 0.0
H916 H 0.99084 0.78083 0.85908 0.0
H917 H 0.92996 0.82674 0.93901 0.0
H918 H 0.94153 0.85976 0.8534 0.0
H919 H 0.03239 0.82029 0.86838 0.0
H920 H 0.05038 0.81387 0.78797 0.0
H921 H 0.03151 0.78973 0.82568 0.0
H922 H 0.00753 0.78389 0.70499 0.0
H923 H 0.02701 0.80764 0.66525 0.0
H924 H 0.99347 0.81058 0.66186 0.0
H925 H 0.96755 0.89173 0.79747 0.0
H926 H 1.00363 0.91849 0.77349 0.0
H927 H 0.0489 0.85276 0.72859 0.0
C928 C 0.9788 0.79704 0.855 0.0
C929 C 0.95955 0.80123 0.90587 0.0
C930 C 0.94482 0.82315 0.90063 0.0
C931 C 0.95123 0.84197 0.85174 0.0
C932 C 0.97214 0.8384 0.80775 0.0
C933 C 0.98532 0.81606 0.80734 0.0
C934 C 0.01007 0.81866 0.76833 0.0
C935 C 0.03235 0.81017 0.81549 0.0
C936 C 0.00947 0.80435 0.69579 0.0
C937 C 0.01034 0.8466 0.75621 0.0
C938 C 0.98779 0.85744 0.77564 0.0
C939 C 0.98492 0.88335 0.77955 0.0
C940 C 1.00571 0.89848 0.76599 0.0
C941 C 0.0293 0.88772 0.74951 0.0
C942 C 0.0312 0.86149 0.74161 0.0
H943 H 0.72551 0.97318 0.86784 0.0
H944 H 0.68142 0.92316 0.99864 0.0
H945 H 0.64619 0.92776 0.9145 0.0
H946 H 0.69075 0.01555 0.85132 0.0
H947 H 0.69365 0.02475 0.7581 0.0
H948 H 0.71836 0.00778 0.79971 0.0
H949 H 0.71577 0.97306 0.70114 0.0
H950 H 0.69147 0.99087 0.65755 0.0
H951 H 0.68614 0.95855 0.6803 0.0
H952 H 0.61342 0.95248 0.86211 0.0
H953 H 0.589 0.99045 0.84042 0.0
H954 H 0.65178 0.02336 0.7294 0.0
C955 C 0.70911 0.96173 0.8758 0.0
C956 C 0.706 0.94836 0.9407 0.0
C957 C 0.68406 0.93398 0.95002 0.0
C958 C 0.66397 0.93632 0.90185 0.0
C959 C 0.66635 0.95252 0.84344 0.0
C960 C 0.6889 0.96409 0.82798 0.0
C961 C 0.68537 0.98469 0.77287 0.0
C962 C 0.6977 0.00962 0.79717 0.0
C963 C 0.69525 0.97626 0.69855 0.0
C964 C 0.65711 0.9863 0.77168 0.0
C965 C 0.64643 0.96663 0.80905 0.0
C966 C 0.62135 0.96724 0.82973 0.0
C967 C 0.60749 0.98901 0.8171 0.0
C968 C 0.61864 0.00988 0.78357 0.0
C969 C 0.64301 1.00761 0.75556 0.0
H970 H 0.58537 0.68885 0.03761 0.0
H971 H 0.55318 0.73649 0.874 0.0
H972 H 0.55667 0.70261 0.78505 0.0
H973 H 0.61795 0.63937 0.89505 0.0
H974 H 0.60918 0.61459 0.95537 0.0
H975 H 0.61992 0.64425 0.99151 0.0
H976 H 0.5796 0.64781 0.06756 0.0
H977 H 0.56907 0.61855 0.03193 0.0
H978 H 0.54959 0.64599 0.0227 0.0
H979 H 0.54438 0.66322 0.73443 0.0
H980 H 0.51632 0.62693 0.73628 0.0
H981 H 0.55258 0.60041 0.92988 0.0
C982 C 0.58018 0.69228 0.98199 0.0
C983 C 0.56851 0.71505 0.96333 0.0
C984 C 0.5623 0.71931 0.89011 0.0
C985 C 0.56427 0.69996 0.83876 0.0
C986 C 0.57235 0.67638 0.86124 0.0
C987 C 0.58096 0.67261 0.93125 0.0
C988 C 0.58175 0.64489 0.94867 0.0
C989 C 0.60881 0.63521 0.94752 0.0
C990 C 0.56919 0.63903 0.02185 0.0
C991 C 0.56726 0.63443 0.88456 0.0
C992 C 0.56413 0.65241 0.83158 0.0
C993 C 0.54728 0.64884 0.77439 0.0
C994 C 0.53132 0.62808 0.77571 0.0
C995 C 0.53216 0.61142 0.83439 0.0
C996 C 0.55184 0.61323 0.88496 0.0
H997 H 0.82616 0.49728 0.99554 0.0
H998 H 0.82519 0.55824 0.15212 0.0
H999 H 0.8706 0.56463 0.13447 0.0
H1000 H 0.88008 0.47054 0.0534 0.0
H1001 H 0.8915 0.46129 0.96546 0.0
H1002 H 0.85849 0.46475 0.97997 0.0
H1003 H 0.85569 0.49655 0.87499 0.0
H1004 H 0.88873 0.49288 0.85935 0.0
H1005 H 0.87585 0.52362 0.8756 0.0
H1006 H 0.91748 0.55998 0.11154 0.0
H1007 H 0.96044 0.54665 0.07832 0.0
H1008 H 0.92903 0.48746 0.94311 0.0
C1009 C 0.83541 0.51247 0.02428 0.0
C1010 C 0.82232 0.52743 0.07444 0.0
C1011 C 0.83494 0.54693 0.11221 0.0
C1012 C 0.86071 0.55059 0.10287 0.0
C1013 C 0.87336 0.53476 0.05501 0.0
C1014 C 0.86097 0.51635 0.01551 0.0
C1015 C 0.87885 0.50034 0.97246 0.0
C1016 C 0.87712 0.47261 0.99419 0.0
C1017 C 0.87452 0.50355 0.89077 0.0
C1018 C 0.90331 0.51189 0.99612 0.0
C1019 C 0.89997 0.53193 0.04281 0.0
C1020 C 0.92028 0.54457 0.07392 0.0
C1021 C 0.94458 0.53673 0.05539 0.0
C1022 C 0.94819 0.51648 1.00639 0.0
C1023 C 0.92712 0.50375 0.97805 0.0
H1024 H 1.00353 0.1758 0.92807 0.0
H1025 H 0.06226 0.20582 0.79169 0.0
H1026 H 0.06153 0.16736 0.71842 0.0
H1027 H 0.02846 0.11331 0.93021 0.0
H1028 H 0.99857 0.09768 0.92826 0.0
H1029 H 1.00145 0.12836 0.96912 0.0
H1030 H 0.96712 0.14596 0.88537 0.0
H1031 H 0.96323 0.11528 0.84538 0.0
H1032 H 0.96983 0.14176 0.78881 0.0
H1033 H 0.05453 0.12543 0.65743 0.0
H1034 H 0.04222 0.08274 0.61726 0.0
H1035 H 0.99047 0.07807 0.79615 0.0
C1036 C 0.01639 0.17444 0.88319 0.0
C1037 C 0.03259 0.19465 0.86587 0.0
C1038 C 0.04891 0.19148 0.80575 0.0
C1039 C 0.04894 0.16937 0.76382 0.0
C1040 C 0.03289 0.15001 0.78269 0.0
C1041 C 0.01698 0.15222 0.84111 0.0
C1042 C 1.00207 0.12818 0.85063 0.0
C1043 C 0.00798 0.11616 0.92392 0.0
C1044 C 0.97389 0.1331 0.84202 0.0
C1045 C 0.01204 0.11226 0.78838 0.0
C1046 C 0.02976 0.12529 0.74967 0.0
C1047 C 0.041 0.11492 0.6882 0.0
C1048 C 0.03402 0.09062 0.66591 0.0
C1049 C 0.01623 0.07674 0.70537 0.0
C1050 C 1.00487 0.08791 0.76678 0.0
H1051 H 0.34438 1.00397 0.9118 0.0
H1052 H 0.32248 0.06936 0.7889 0.0
H1053 H 0.3611 0.06603 0.71767 0.0
H1054 H 0.40645 0.0182 0.92776 0.0
H1055 H 0.42012 0.98763 0.91303 0.0
H1056 H 0.38918 0.99055 0.9504 0.0
H1057 H 0.3687 0.96408 0.85124 0.0
H1058 H 0.39933 0.95804 0.8146 0.0
H1059 H 0.37504 0.97054 0.75758 0.0
H1060 H 0.40234 0.05677 0.66147 0.0
H1061 H 0.4443 0.04253 0.62607 0.0
H1062 H 0.44154 0.98415 0.78665 0.0
C1063 C 0.34758 0.01741 0.86936 0.0
C1064 C 0.33006 0.03676 0.85558 0.0
C1065 C 0.33515 0.054 0.79963 0.0
C1066 C 0.35717 0.05238 0.75899 0.0
C1067 C 0.37405 0.03329 0.77428 0.0
C1068 C 0.36949 0.01593 0.82757 0.0
C1069 C 0.39126 0.99775 0.83413 0.0
C1070 C 0.40247 0.99858 0.9108 0.0
C1071 C 0.38309 0.97102 0.81313 0.0
C1072 C 0.40913 0.00829 0.7783 0.0
C1073 C 0.39852 0.02853 0.74365 0.0
C1074 C 0.41097 0.04118 0.68899 0.0
C1075 C 0.43504 0.03322 0.6699 0.0
C1076 C 0.44674 0.01314 0.70608 0.0
C1077 C 0.43328 1.00004 0.75955 0.0
H1078 H 0.50121 0.32244 0.82215 0.0
H1079 H 0.42105 0.31654 0.78824 0.0
H1080 H 0.42127 0.35668 0.7241 0.0
H1081 H 0.50265 0.38766 0.85842 0.0
H1082 H 0.53173 0.39298 0.812 0.0
H1083 H 0.52535 0.3628 0.85019 0.0
H1084 H 0.53307 0.34229 0.72409 0.0
H1085 H 0.53894 0.3727 0.68617 0.0
H1086 H 0.51518 0.35272 0.64723 0.0
H1087 H 0.42919 0.39962 0.67393 0.0
H1088 H 0.44474 0.44142 0.63961 0.0
H1089 H 0.51982 0.41956 0.70195 0.0
C1090 C 0.48375 0.32942 0.80046 0.0
C1091 C 0.46115 0.31592 0.80977 0.0
C1092 C 0.43874 0.32598 0.78059 0.0
C1093 C 0.43862 0.34895 0.74432 0.0
C1094 C 0.46109 0.36183 0.73675 0.0
C1095 C 0.48331 0.35235 0.7634 0.0
C1096 C 0.50468 0.3705 0.75021 0.0
C1097 C 0.51679 0.37899 0.82199 0.0
C1098 C 0.52412 0.35885 0.69887 0.0
C1099 C 0.49084 0.39192 0.71418 0.0
C1100 C 0.46572 0.38648 0.70664 0.0
C1101 C 0.44889 0.40395 0.67894 0.0
C1102 C 0.45786 0.42773 0.65991 0.0
C1103 C 0.48343 0.43397 0.66865 0.0
C1104 C 0.50018 0.41545 0.69421 0.0
H1105 H 0.20774 0.50297 0.77876 0.0
H1106 H 0.18818 0.49093 1.00318 0.0
H1107 H 0.14344 0.49319 0.97152 0.0
H1108 H 0.15657 0.54691 0.7387 0.0
H1109 H 0.15146 0.5346 0.64869 0.0
H1110 H 0.18213 0.53306 0.68903 0.0
H1111 H 0.18267 0.48503 0.6664 0.0
H1112 H 0.15186 0.48659 0.62695 0.0
H1113 H 0.15775 0.46608 0.70194 0.0
H1114 H 0.10123 0.49536 0.91758 0.0
H1115 H 0.06313 0.49831 0.84368 0.0
H1116 H 0.1082 0.50908 0.65162 0.0
C1117 C 0.19401 0.50109 0.82124 0.0
C1118 C 0.20158 0.49737 0.89412 0.0
C1119 C 0.18294 0.49465 0.94774 0.0
C1120 C 0.15746 0.49568 0.93017 0.0
C1121 C 0.15063 0.49951 0.85843 0.0
C1122 C 0.16824 0.5023 0.80461 0.0
C1123 C 0.15542 0.50589 0.73161 0.0
C1124 C 0.16178 0.53165 0.70017 0.0
C1125 C 0.16234 0.48463 0.6786 0.0
C1126 C 0.12798 0.50446 0.7531 0.0
C1127 C 0.12583 0.50071 0.82664 0.0
C1128 C 0.10267 0.49831 0.85991 0.0
C1129 C 0.08107 0.49983 0.81718 0.0
C1130 C 0.08249 0.50378 0.74159 0.0
C1131 C 0.10639 0.50623 0.70924 0.0
H1132 H 0.03114 0.84597 0.40992 0.0
H1133 H 0.95138 0.83031 0.40314 0.0
H1134 H 0.9437 0.86807 0.4774 0.0
H1135 H 0.03328 0.87338 0.59041 0.0
H1136 H 0.05565 0.89718 0.56693 0.0
H1137 H 0.05573 0.86739 0.52001 0.0
H1138 H 0.0517 0.8896 0.39896 0.0
H1139 H 0.05047 0.92004 0.44182 0.0
H1140 H 0.0256 0.90996 0.38209 0.0
H1141 H 0.94474 0.90855 0.55411 0.0
H1142 H 0.95435 0.94899 0.61593 0.0
H1143 H 0.03217 0.9411 0.55651 0.0
C1144 C 0.01194 0.85029 0.42325 0.0
C1145 C 0.99194 0.83456 0.39972 0.0
C1146 C 0.96728 0.84128 0.42098 0.0
C1147 C 0.96264 0.86299 0.46297 0.0
C1148 C 0.98274 0.87822 0.48328 0.0
C1149 C 0.0069 0.87216 0.46374 0.0
C1150 C 0.02512 0.89237 0.48863 0.0
C1151 C 0.04355 0.88197 0.54483 0.0
C1152 C 0.03904 0.90369 0.42408 0.0
C1153 C 0.00737 0.91115 0.52321 0.0
C1154 C 0.98307 0.90232 0.52164 0.0
C1155 C 0.96366 0.91574 0.55446 0.0
C1156 C 0.96921 0.93875 0.58909 0.0
C1157 C 0.99373 0.94866 0.58824 0.0
C1158 C 0.01305 0.93445 0.55551 0.0
H1159 H 0.67393 0.04154 0.38115 0.0
H1160 H 0.69774 0.97272 0.48419 0.0
H1161 H 0.65878 0.97265 0.55561 0.0
H1162 H 0.64466 0.06945 0.54445 0.0
H1163 H 0.62022 0.08382 0.49184 0.0
H1164 H 0.6507 0.07896 0.45288 0.0
H1165 H 0.62984 0.05558 0.34736 0.0
H1166 H 0.59909 0.05769 0.38634 0.0
H1167 H 0.61228 0.02749 0.36355 0.0
H1168 H 0.61619 0.97961 0.61386 0.0
H1169 H 0.57408 0.99288 0.65247 0.0
H1170 H 0.57851 0.05744 0.5131 0.0
C1171 C 0.67149 0.02675 0.42008 0.0
C1172 C 0.68926 1.00713 0.42656 0.0
C1173 C 0.6845 0.98783 0.477 0.0
C1174 C 0.66244 0.98772 0.51839 0.0
C1175 C 0.64533 1.0072 0.50978 0.0
C1176 C 0.64977 0.02651 0.46241 0.0
C1177 C 0.62811 0.04487 0.46137 0.0
C1178 C 0.63642 0.07081 0.48931 0.0
C1179 C 0.61661 0.0465 0.38519 0.0
C1180 C 0.61041 0.03256 0.51414 0.0
C1181 C 0.62079 0.01097 0.54209 0.0
C1182 C 0.60791 0.9964 0.59185 0.0
C1183 C 0.58381 1.00396 0.61301 0.0
C1184 C 0.57262 0.02574 0.58395 0.0
C1185 C 0.58642 0.04046 0.53516 0.0
H1186 H 0.48919 0.698 0.47313 0.0
H1187 H 0.5584 0.69121 0.35204 0.0
H1188 H 0.5653 0.64954 0.40322 0.0
H1189 H 0.51119 0.66429 0.6347 0.0
H1190 H 0.48172 0.64882 0.64941 0.0
H1191 H 0.48246 0.67921 0.60779 0.0
H1192 H 0.45783 0.66177 0.49769 0.0
H1193 H 0.45686 0.63133 0.53875 0.0
H1194 H 0.46963 0.63477 0.4493 0.0
H1195 H 0.56308 0.60725 0.45593 0.0
H1196 H 0.5535 0.56756 0.51477 0.0
H1197 H 0.48664 0.60029 0.6087 0.0
C1198 C 0.50594 0.68787 0.45797 0.0
C1199 C 0.52342 0.69835 0.40892 0.0
C1200 C 0.54501 0.68422 0.3907 0.0
C1201 C 0.54902 0.66029 0.41904 0.0
C1202 C 0.53136 0.65048 0.46612 0.0
C1203 C 0.51035 0.66381 0.48625 0.0
C1204 C 0.49412 0.64832 0.53666 0.0
C1205 C 0.49226 0.66091 0.6116 0.0
C1206 C 0.46807 0.64378 0.50361 0.0
C1207 C 0.50908 0.62407 0.54018 0.0
C1208 C 0.53048 0.62592 0.49895 0.0
C1209 C 0.54675 0.60581 0.49005 0.0
C1210 C 0.54128 0.58329 0.52476 0.0
C1211 C 0.51989 0.58084 0.56919 0.0
C1212 C 0.5034 0.60158 0.57628 0.0
H1213 H 0.81845 0.50881 0.50787 0.0
H1214 H 0.82966 0.55446 0.31754 0.0
H1215 H 0.87434 0.55834 0.34798 0.0
H1216 H 0.86356 0.54099 0.62578 0.0
H1217 H 0.8741 0.51242 0.6672 0.0
H1218 H 0.84253 0.51476 0.63359 0.0
H1219 H 0.84957 0.47518 0.55375 0.0
H1220 H 0.88114 0.47291 0.58704 0.0
H1221 H 0.87536 0.47445 0.49116 0.0
H1222 H 0.91862 0.55545 0.39507 0.0
H1223 H 0.95854 0.54701 0.45668 0.0
H1224 H 0.91932 0.50292 0.61641 0.0
C1225 C 0.83019 0.51981 0.47275 0.0
C1226 C 0.8201 0.53159 0.41053 0.0
C1227 C 0.83645 0.54577 0.36649 0.0
C1228 C 0.86205 0.5479 0.38296 0.0
C1229 C 0.87134 0.53577 0.44384 0.0
C1230 C 0.8559 0.52212 0.48836 0.0
C1231 C 0.87086 0.51022 0.54917 0.0
C1232 C 0.86225 0.5202 0.62333 0.0
C1233 C 0.86912 0.48148 0.54498 0.0
C1234 C 0.89712 0.51921 0.53166 0.0
C1235 C 0.89693 0.53393 0.47067 0.0
C1236 C 0.91891 0.54406 0.44314 0.0
C1237 C 0.94161 0.53913 0.47882 0.0
C1238 C 0.94245 0.52413 0.54182 0.0
C1239 C 0.91968 0.51415 0.56827 0.0
loop_
_geom_bond_atom_site_label_1
_geom_bond_atom_site_label_2
_geom_bond_distance
_geom_bond_site_symmetry_2
_ccdc_geom_bond_type
P0 O11 1.490 . S
P0 C14 1.812 . S
P0 C20 1.803 . S
P0 C26 1.819 . S
H1 C15 0.941 . S
H2 C16 0.939 . S
H3 C18 0.940 . S
H4 C19 0.940 . S
H5 C21 0.939 . S
H6 C22 0.942 . S
H7 C24 0.940 . S
H8 C25 0.939 . S
H9 C27 0.941 . S
H10 C31 0.939 . S
O11 P0 1.490 . S
H12 C28 0.939 . S
H13 C30 0.940 . S
C14 P0 1.812 . S
C14 C15 1.389 . S
C14 C19 1.391 . S
C15 H1 0.941 . S
C15 C14 1.389 . S
C15 C16 1.397 . S
C16 H2 0.939 . S
C16 C15 1.397 . S
C16 C17 1.378 . S
C17 C16 1.378 . S
C17 C18 1.378 . S
C18 H3 0.940 . S
C18 C17 1.378 . S
C18 C19 1.396 . S
C19 H4 0.940 . S
C19 C14 1.391 . S
C19 C18 1.396 . S
C20 P0 1.803 . S
C20 C21 1.378 . S
C20 C25 1.400 . S
C21 H5 0.939 . S
C21 C20 1.378 . S
C21 C22 1.361 . S
C22 H6 0.942 . S
C22 C21 1.361 . S
C22 C23 1.369 . S
C23 C22 1.369 . S
C23 C24 1.404 . S
C24 H7 0.940 . S
C24 C23 1.404 . S
C24 C25 1.389 . S
C25 H8 0.939 . S
C25 C20 1.400 . S
C25 C24 1.389 . S
C26 P0 1.819 . S
C26 C27 1.391 . S
C26 C31 1.391 . S
C27 H9 0.941 . S
C27 C26 1.391 . S
C27 C28 1.396 . S
C28 H12 0.939 . S
C28 C27 1.396 . S
C28 C29 1.397 . S
C29 C28 1.397 . S
C29 C30 1.385 . S
C30 H13 0.940 . S
C30 C29 1.385 . S
C30 C31 1.388 . S
C31 H10 0.939 . S
C31 C26 1.391 . S
C31 C30 1.388 . S
P32 O43 1.453 1_655 S
P32 C46 1.812 . S
P32 C52 1.803 . S
P32 C58 1.819 . S
H33 C47 0.941 . S
H34 C48 0.939 . S
H35 C50 0.940 . S
H36 C51 0.940 . S
H37 C53 0.939 . S
H38 C54 0.942 . S
H39 C56 0.940 . S
H40 C57 0.939 . S
H41 C59 0.941 . S
H42 C63 0.939 . S
O43 P32 1.453 1_455 S
H44 C60 0.939 . S
H45 C62 0.940 . S
C46 P32 1.812 . S
C46 C47 1.389 . S
C46 C51 1.391 . S
C47 H33 0.941 . S
C47 C46 1.389 . S
C47 C48 1.397 . S
C48 H34 0.939 . S
C48 C47 1.397 . S
C48 C49 1.378 . S
C49 C48 1.378 . S
C49 C50 1.378 . S
C50 H35 0.940 . S
C50 C49 1.378 . S
C50 C51 1.396 . S
C51 H36 0.940 . S
C51 C46 1.391 . S
C51 C50 1.396 . S
C52 P32 1.803 . S
C52 C53 1.378 . S
C52 C57 1.400 . S
C53 H37 0.939 . S
C53 C52 1.378 . S
C53 C54 1.361 . S
C54 H38 0.942 . S
C54 C53 1.361 . S
C54 C55 1.369 . S
C55 C54 1.369 . S
C55 C56 1.404 . S
C56 H39 0.940 . S
C56 C55 1.404 . S
C56 C57 1.389 . S
C57 H40 0.939 . S
C57 C52 1.400 . S
C57 C56 1.389 . S
C58 P32 1.819 . S
C58 C59 1.391 . S
C58 C63 1.391 . S
C59 H41 0.941 . S
C59 C58 1.391 . S
C59 C60 1.396 . S
C60 H44 0.939 . S
C60 C59 1.396 . S
C60 C61 1.397 . S
C61 C60 1.397 . S
C61 C62 1.385 . S
C62 H45 0.940 . S
C62 C61 1.385 . S
C62 C63 1.388 . S
C63 H42 0.939 . S
C63 C58 1.391 . S
C63 C62 1.388 . S
P64 O75 1.490 1_565 S
P64 C78 1.812 . S
P64 C84 1.803 . S
P64 C90 1.819 . S
H65 C79 0.941 . S
H66 C80 0.939 . S
H67 C82 0.940 . S
H68 C83 0.940 . S
H69 C85 0.939 . S
H70 C86 0.942 . S
H71 C88 0.940 . S
H72 C89 0.939 . S
H73 C91 0.941 . S
H74 C95 0.939 . S
O75 P64 1.490 1_545 S
H76 C92 0.939 . S
H77 C94 0.940 . S
C78 P64 1.812 . S
C78 C79 1.389 . S
C78 C83 1.391 . S
C79 H65 0.941 . S
C79 C78 1.389 . S
C79 C80 1.397 . S
C80 H66 0.939 . S
C80 C79 1.397 . S
C80 C81 1.378 . S
C81 C80 1.378 . S
C81 C82 1.378 . S
C82 H67 0.940 . S
C82 C81 1.378 . S
C82 C83 1.396 . S
C83 H68 0.940 . S
C83 C78 1.391 . S
C83 C82 1.396 . S
C84 P64 1.803 . S
C84 C85 1.378 . S
C84 C89 1.400 . S
C85 H69 0.939 . S
C85 C84 1.378 . S
C85 C86 1.361 . S
C86 H70 0.942 . S
C86 C85 1.361 . S
C86 C87 1.369 . S
C87 C86 1.369 . S
C87 C88 1.404 . S
C88 H71 0.940 . S
C88 C87 1.404 . S
C88 C89 1.389 . S
C89 H72 0.939 . S
C89 C84 1.400 . S
C89 C88 1.389 . S
C90 P64 1.819 . S
C90 C91 1.391 . S
C90 C95 1.391 . S
C91 H73 0.941 . S
C91 C90 1.391 . S
C91 C92 1.396 . S
C92 H76 0.939 . S
C92 C91 1.396 . S
C92 C93 1.397 . S
C93 C92 1.397 . S
C93 C94 1.385 . S
C94 H77 0.940 . S
C94 C93 1.385 . S
C94 C95 1.388 . S
C95 H74 0.939 . S
C95 C90 1.391 . S
C95 C94 1.388 . S
P96 O107 1.490 . S
P96 C110 1.812 . S
P96 C116 1.803 . S
P96 C122 1.819 . S
H97 C111 0.941 . S
H98 C112 0.939 . S
H99 C114 0.940 . S
H100 C115 0.940 . S
H101 C117 0.939 . S
H102 C118 0.942 . S
H103 C120 0.940 . S
H104 C121 0.939 . S
H105 C123 0.941 . S
H106 C127 0.939 . S
O107 P96 1.490 . S
H108 C124 0.939 . S
H109 C126 0.940 . S
C110 P96 1.812 . S
C110 C111 1.389 . S
C110 C115 1.391 . S
C111 H97 0.941 . S
C111 C110 1.389 . S
C111 C112 1.397 . S
C112 H98 0.939 . S
C112 C111 1.397 . S
C112 C113 1.378 . S
C113 C112 1.378 . S
C113 C114 1.378 . S
C114 H99 0.940 . S
C114 C113 1.378 . S
C114 C115 1.396 . S
C115 H100 0.940 . S
C115 C110 1.391 . S
C115 C114 1.396 . S
C116 P96 1.803 . S
C116 C117 1.378 . S
C116 C121 1.400 . S
C117 H101 0.939 . S
C117 C116 1.378 . S
C117 C118 1.361 . S
C118 H102 0.942 . S
C118 C117 1.361 . S
C118 C119 1.369 . S
C119 C118 1.369 . S
C119 C120 1.404 . S
C120 H103 0.940 . S
C120 C119 1.404 . S
C120 C121 1.389 . S
C121 H104 0.939 . S
C121 C116 1.400 . S
C121 C120 1.389 . S
C122 P96 1.819 . S
C122 C123 1.391 . S
C122 C127 1.391 . S
C123 H105 0.941 . S
C123 C122 1.391 . S
C123 C124 1.396 . S
C124 H108 0.939 . S
C124 C123 1.396 . S
C124 C125 1.397 . S
C125 C124 1.397 . S
C125 C126 1.385 . S
C126 H109 0.940 . S
C126 C125 1.385 . S
C126 C127 1.388 . S
C127 H106 0.939 . S
C127 C122 1.391 . S
C127 C126 1.388 . S
P128 O139 1.490 . S
P128 C142 1.812 1_554 S
P128 C148 1.803 . S
P128 C154 1.819 . S
H129 C143 0.941 . S
H130 C144 0.939 . S
H131 C146 0.940 . S
H132 C147 0.940 . S
H133 C149 0.939 . S
H134 C150 0.942 . S
H135 C152 0.940 . S
H136 C153 0.939 1_556 S
H137 C155 0.941 . S
H138 C159 0.939 . S
O139 P128 1.490 . S
H140 C156 0.939 . S
H141 C158 0.940 . S
C142 P128 1.812 1_556 S
C142 C143 1.389 . S
C142 C147 1.391 . S
C143 H129 0.941 . S
C143 C142 1.389 . S
C143 C144 1.397 . S
C144 H130 0.939 . S
C144 C143 1.397 . S
C144 C145 1.378 . S
C145 C144 1.378 . S
C145 C146 1.378 . S
C146 H131 0.940 . S
C146 C145 1.378 . S
C146 C147 1.396 . S
C147 H132 0.940 . S
C147 C142 1.391 . S
C147 C146 1.396 . S
C148 P128 1.803 . S
C148 C149 1.378 . S
C148 C153 1.400 . S
C149 H133 0.939 . S
C149 C148 1.378 . S
C149 C150 1.361 . S
C150 H134 0.942 . S
C150 C149 1.361 . S
C150 C151 1.369 . S
C151 C150 1.369 . S
C151 C152 1.404 . S
C152 H135 0.940 . S
C152 C151 1.404 . S
C152 C153 1.389 . S
C153 H136 0.939 1_554 S
C153 C148 1.400 . S
C153 C152 1.389 . S
C154 P128 1.819 . S
C154 C155 1.391 . S
C154 C159 1.391 . S
C155 H137 0.941 . S
C155 C154 1.391 . S
C155 C156 1.396 . S
C156 H140 0.939 . S
C156 C155 1.396 . S
C156 C157 1.397 . S
C157 C156 1.397 . S
C157 C158 1.385 . S
C158 H141 0.940 . S
C158 C157 1.385 . S
C158 C159 1.388 . S
C159 H138 0.939 . S
C159 C154 1.391 . S
C159 C158 1.388 . S
P160 O171 1.490 . S
P160 C174 1.812 1_554 S
P160 C180 1.803 . S
P160 C186 1.819 . S
H161 C175 0.941 . S
H162 C176 0.939 . S
H163 C178 0.940 . S
H164 C179 0.940 . S
H165 C181 0.939 . S
H166 C182 0.942 . S
H167 C184 0.940 . S
H168 C185 0.939 1_556 S
H169 C187 0.941 . S
H170 C191 0.939 . S
O171 P160 1.490 . S
H172 C188 0.939 . S
H173 C190 0.940 . S
C174 P160 1.812 1_556 S
C174 C175 1.389 . S
C174 C179 1.391 . S
C175 H161 0.941 . S
C175 C174 1.389 . S
C175 C176 1.397 . S
C176 H162 0.939 . S
C176 C175 1.397 . S
C176 C177 1.378 . S
C177 C176 1.378 . S
C177 C178 1.378 . S
C178 H163 0.940 . S
C178 C177 1.378 . S
C178 C179 1.396 . S
C179 H164 0.940 . S
C179 C174 1.391 . S
C179 C178 1.396 . S
C180 P160 1.803 . S
C180 C181 1.378 . S
C180 C185 1.400 . S
C181 H165 0.939 . S
C181 C180 1.378 . S
C181 C182 1.361 . S
C182 H166 0.942 . S
C182 C181 1.361 . S
C182 C183 1.369 . S
C183 C182 1.369 . S
C183 C184 1.404 . S
C184 H167 0.940 . S
C184 C183 1.404 . S
C184 C185 1.389 . S
C185 H168 0.939 1_554 S
C185 C180 1.400 . S
C185 C184 1.389 . S
C186 P160 1.819 . S
C186 C187 1.391 . S
C186 C191 1.391 . S
C187 H169 0.941 . S
C187 C186 1.391 . S
C187 C188 1.396 . S
C188 H172 0.939 . S
C188 C187 1.396 . S
C188 C189 1.397 . S
C189 C188 1.397 . S
C189 C190 1.385 . S
C190 H173 0.940 . S
C190 C189 1.385 . S
C190 C191 1.388 . S
C191 H170 0.939 . S
C191 C186 1.391 . S
C191 C190 1.388 . S
P192 O203 1.490 . S
P192 C206 1.812 1_554 S
P192 C212 1.803 . S
P192 C218 1.819 . S
H193 C207 0.941 . S
H194 C208 0.939 . S
H195 C210 0.940 . S
H196 C211 0.940 . S
H197 C213 0.939 . S
H198 C214 0.942 . S
H199 C216 0.940 . S
H200 C217 0.939 1_556 S
H201 C219 0.941 . S
H202 C223 0.939 . S
O203 P192 1.490 . S
H204 C220 0.939 . S
H205 C222 0.940 . S
C206 P192 1.812 1_556 S
C206 C207 1.389 . S
C206 C211 1.391 . S
C207 H193 0.941 . S
C207 C206 1.389 . S
C207 C208 1.397 . S
C208 H194 0.939 . S
C208 C207 1.397 . S
C208 C209 1.378 . S
C209 C208 1.378 . S
C209 C210 1.378 . S
C210 H195 0.940 . S
C210 C209 1.378 . S
C210 C211 1.396 . S
C211 H196 0.940 . S
C211 C206 1.391 . S
C211 C210 1.396 . S
C212 P192 1.803 . S
C212 C213 1.378 . S
C212 C217 1.400 . S
C213 H197 0.939 . S
C213 C212 1.378 . S
C213 C214 1.361 . S
C214 H198 0.942 . S
C214 C213 1.361 . S
C214 C215 1.369 . S
C215 C214 1.369 . S
C215 C216 1.404 . S
C216 H199 0.940 . S
C216 C215 1.404 . S
C216 C217 1.389 . S
C217 H200 0.939 1_554 S
C217 C212 1.400 . S
C217 C216 1.389 . S
C218 P192 1.819 . S
C218 C219 1.391 . S
C218 C223 1.391 . S
C219 H201 0.941 . S
C219 C218 1.391 . S
C219 C220 1.396 . S
C220 H204 0.939 . S
C220 C219 1.396 . S
C220 C221 1.397 . S
C221 C220 1.397 . S
C221 C222 1.385 . S
C222 H205 0.940 . S
C222 C221 1.385 . S
C222 C223 1.388 . S
C223 H202 0.939 . S
C223 C218 1.391 . S
C223 C222 1.388 . S
P224 O235 1.490 . S
P224 C238 1.812 1_554 S
P224 C244 1.803 . S
P224 C250 1.819 . S
H225 C239 0.941 . S
H226 C240 0.939 . S
H227 C242 0.940 . S
H228 C243 0.940 . S
H229 C245 0.939 . S
H230 C246 0.942 . S
H231 C248 0.940 . S
H232 C249 0.939 1_556 S
H233 C251 0.941 . S
H234 C255 0.939 . S
O235 P224 1.490 . S
H236 C252 0.939 . S
H237 C254 0.940 . S
C238 P224 1.812 1_556 S
C238 C239 1.389 . S
C238 C243 1.391 . S
C239 H225 0.941 . S
C239 C238 1.389 . S
C239 C240 1.397 . S
C240 H226 0.939 . S
C240 C239 1.397 . S
C240 C241 1.378 . S
C241 C240 1.378 . S
C241 C242 1.378 . S
C242 H227 0.940 . S
C242 C241 1.378 . S
C242 C243 1.396 . S
C243 H228 0.940 . S
C243 C238 1.391 . S
C243 C242 1.396 . S
C244 P224 1.803 . S
C244 C245 1.378 . S
C244 C249 1.400 . S
C245 H229 0.939 . S
C245 C244 1.378 . S
C245 C246 1.361 . S
C246 H230 0.942 . S
C246 C245 1.361 . S
C246 C247 1.369 . S
C247 C246 1.369 . S
C247 C248 1.404 . S
C248 H231 0.940 . S
C248 C247 1.404 . S
C248 C249 1.389 . S
C249 H232 0.939 1_554 S
C249 C244 1.400 . S
C249 C248 1.389 . S
C250 P224 1.819 . S
C250 C251 1.391 . S
C250 C255 1.391 . S
C251 H233 0.941 . S
C251 C250 1.391 . S
C251 C252 1.396 . S
C252 H236 0.939 . S
C252 C251 1.396 . S
C252 C253 1.397 . S
C253 C252 1.397 . S
C253 C254 1.385 . S
C254 H237 0.940 . S
C254 C253 1.385 . S
C254 C255 1.388 . S
C255 H234 0.939 . S
C255 C250 1.391 . S
C255 C254 1.388 . S
Tb256 N287 2.660 1_565 S
Tb256 N294 2.600 . S
Tb256 O300 2.546 . S
Tb256 O301 2.610 1_455 S
Tb256 O303 2.320 1_455 S
Tb256 O304 2.552 . S
Tb256 O305 2.413 . S
Tb256 O307 2.362 1_565 S
Tb256 O308 2.421 . S
Tb256 C320 2.833 . S
C257 C260 1.432 1_545 S
C257 C261 1.419 . S
C257 N264 1.359 . S
C258 C260 1.417 . S
C258 C262 1.432 . S
C258 C270 1.410 . S
C259 C261 1.426 1_565 S
C259 C262 1.317 . S
C259 H282 0.929 . S
C260 C257 1.432 1_565 S
C260 C258 1.417 . S
C260 N268 1.369 . S
C261 C257 1.419 . S
C261 C259 1.426 1_545 S
C261 C266 1.400 . S
C262 C258 1.432 . S
C262 C259 1.317 . S
C262 H274 0.930 . S
C263 C265 1.392 . S
C263 C266 1.370 . S
C263 H275 0.931 . S
N264 C257 1.359 . S
N264 C265 1.327 . S
N264 Tb267 2.600 . S
C265 C263 1.392 . S
C265 N264 1.327 . S
C265 H272 0.930 . S
C266 C261 1.400 . S
C266 C263 1.370 . S
C266 H285 0.930 . S
Tb267 N264 2.600 . S
Tb267 N268 2.635 1_545 S
Tb267 O301 2.362 1_545 S
Tb267 O302 2.421 . S
Tb267 O306 2.546 . S
Tb267 O307 2.610 1_655 S
Tb267 O309 2.320 1_655 S
Tb267 O310 2.552 1_655 S
Tb267 O311 2.413 . S
Tb267 C331 2.833 . S
N268 C260 1.369 . S
N268 Tb267 2.635 1_565 S
N268 C269 1.304 1_655 S
C269 N268 1.304 1_455 S
C269 C271 1.406 1_455 S
C269 H276 0.954 . S
C270 C258 1.410 . S
C270 C271 1.373 . S
C270 H278 0.930 . S
C271 C269 1.406 1_655 S
C271 C270 1.373 . S
C271 H273 0.904 1_655 S
H272 C265 0.930 . S
H273 C271 0.904 1_455 S
H274 C262 0.930 . S
H275 C263 0.931 . S
H276 C269 0.954 . S
H277 C291 0.930 1_655 S
H278 C270 0.930 . S
H279 C297 0.930 . S
H280 C288 0.930 1_655 S
H281 C295 0.931 . S
H282 C259 0.929 . S
H283 C289 0.930 . S
H284 C322 0.930 . S
H285 C266 0.930 . S
H286 C321 0.929 . S
N287 Tb256 2.660 1_545 S
N287 C288 1.305 . S
N287 C292 1.360 . S
C288 H280 0.930 1_455 S
C288 N287 1.305 . S
C288 C291 1.407 . S
C289 H283 0.930 . S
C289 C290 1.410 . S
C289 C291 1.345 . S
C290 C289 1.410 . S
C290 C292 1.417 . S
C290 C322 1.432 . S
C291 H277 0.930 1_455 S
C291 C288 1.407 . S
C291 C289 1.345 . S
C292 N287 1.360 . S
C292 C290 1.417 . S
C292 C296 1.432 . S
H293 C298 0.932 . S
N294 Tb256 2.600 . S
N294 C296 1.359 1_565 S
N294 C297 1.327 . S
C295 H281 0.931 . S
C295 C297 1.392 . S
C295 C298 1.358 1_565 S
C296 C292 1.432 . S
C296 N294 1.359 1_545 S
C296 C299 1.414 . S
C297 H279 0.930 . S
C297 N294 1.327 . S
C297 C295 1.392 . S
C298 H293 0.932 . S
C298 C295 1.358 1_545 S
C298 C299 1.395 . S
C299 C296 1.414 . S
C299 C298 1.395 . S
C299 C321 1.444 . S
O300 Tb256 2.546 . S
O300 C320 1.251 . S
O301 Tb256 2.610 1_655 S
O301 Tb267 2.362 1_565 S
O301 C312 1.283 . S
O302 Tb267 2.421 . S
O302 C319 1.262 . S
O303 Tb256 2.320 1_655 S
O303 C319 1.260 1_565 S
O304 Tb256 2.552 . S
O304 C312 1.243 1_455 S
O305 Tb256 2.413 . S
O305 C320 1.256 . S
O306 Tb267 2.546 . S
O306 C331 1.251 . S
O307 Tb256 2.362 1_545 S
O307 Tb267 2.610 1_455 S
O307 C323 1.283 . S
O308 Tb256 2.421 . S
O308 C330 1.262 1_565 S
O309 Tb267 2.320 1_455 S
O309 C330 1.260 . S
O310 Tb267 2.552 1_455 S
O310 C323 1.243 . S
O311 Tb267 2.413 . S
O311 C331 1.256 . S
C312 O301 1.283 . S
C312 O304 1.243 1_655 S
C313 C315 1.382 . S
C313 C317 1.393 . S
C313 C320 1.500 . S
C314 C315 1.400 . S
C314 C316 1.384 . S
C315 C313 1.382 . S
C315 C314 1.400 . S
C315 H332 0.929 . S
C316 C314 1.384 . S
C316 C318 1.392 . S
C316 H333 0.931 . S
C317 C313 1.393 . S
C317 C318 1.401 . S
C317 H334 0.930 . S
C318 C316 1.392 . S
C318 C317 1.401 . S
C318 H335 0.930 . S
C319 O302 1.262 . S
C319 O303 1.260 1_545 S
C320 Tb256 2.833 . S
C320 O300 1.251 . S
C320 O305 1.256 . S
C320 C313 1.500 . S
C321 H286 0.929 . S
C321 C299 1.444 . S
C321 C322 1.317 . S
C322 H284 0.930 . S
C322 C290 1.432 . S
C322 C321 1.317 . S
C323 O307 1.283 . S
C323 O310 1.243 . S
C324 C325 1.382 . S
C324 C328 1.393 . S
C324 C331 1.500 . S
C325 C324 1.382 . S
C325 C326 1.400 . S
C325 H336 0.930 1_655 S
C326 C325 1.400 . S
C326 C327 1.384 . S
C327 C326 1.384 . S
C327 C329 1.392 . S
C327 H337 0.931 . S
C328 C324 1.393 . S
C328 C329 1.401 . S
C328 H338 0.930 . S
C329 C327 1.392 . S
C329 C328 1.401 . S
C329 H339 0.930 . S
C330 O308 1.262 1_545 S
C330 O309 1.260 . S
C331 Tb267 2.833 . S
C331 O306 1.251 . S
C331 O311 1.256 . S
C331 C324 1.500 . S
H332 C315 0.929 . S
H333 C316 0.931 . S
H334 C317 0.930 . S
H335 C318 0.930 . S
H336 C325 0.930 1_455 S
H337 C327 0.931 . S
H338 C328 0.930 . S
H339 C329 0.930 . S
Tb340 N371 2.660 . S
Tb340 N378 2.600 . S
Tb340 O384 2.546 . S
Tb340 O385 2.610 1_545 S
Tb340 O387 2.320 1_545 S
Tb340 O388 2.552 . S
Tb340 O389 2.413 . S
Tb340 O391 2.362 . S
Tb340 O392 2.421 . S
Tb340 C404 2.833 . S
C341 C344 1.432 . S
C341 C345 1.414 . S
C341 N348 1.359 . S
C342 C344 1.417 . S
C342 C346 1.432 . S
C342 C354 1.410 . S
C343 C345 1.444 . S
C343 C346 1.317 . S
C343 H366 0.929 . S
C344 C341 1.432 . S
C344 C342 1.417 . S
C344 N352 1.360 . S
C345 C341 1.414 . S
C345 C343 1.444 . S
C345 C350 1.385 . S
C346 C342 1.432 . S
C346 C343 1.317 . S
C346 H358 0.930 . S
C347 C349 1.392 . S
C347 C350 1.370 . S
C347 H359 0.931 . S
N348 C341 1.359 . S
N348 C349 1.327 . S
N348 Tb351 2.600 . S
C349 C347 1.392 . S
C349 N348 1.327 . S
C349 H356 0.930 . S
C350 C345 1.385 . S
C350 C347 1.370 . S
C350 H369 0.930 . S
Tb351 N348 2.600 . S
Tb351 N352 2.660 . S
Tb351 O385 2.362 . S
Tb351 O386 2.421 . S
Tb351 O390 2.546 . S
Tb351 O391 2.610 1_565 S
Tb351 O393 2.320 1_565 S
Tb351 O394 2.552 1_565 S
Tb351 O395 2.413 . S
Tb351 C415 2.833 . S
N352 C344 1.360 . S
N352 Tb351 2.660 . S
N352 C353 1.305 1_565 S
C353 N352 1.305 1_545 S
C353 C355 1.407 . S
C353 H360 0.930 . S
C354 C342 1.410 . S
C354 C355 1.345 1_565 S
C354 H362 0.930 . S
C355 C353 1.407 . S
C355 C354 1.345 1_545 S
C355 H357 0.930 . S
H356 C349 0.930 . S
H357 C355 0.930 . S
H358 C346 0.930 . S
H359 C347 0.931 . S
H360 C353 0.930 . S
H361 C375 0.930 1_565 S
H362 C354 0.930 . S
H363 C381 0.930 . S
H364 C372 0.930 1_565 S
H365 C379 0.931 . S
H366 C343 0.929 . S
H367 C373 0.930 . S
H368 C406 0.930 . S
H369 C350 0.930 . S
H370 C405 0.929 . S
N371 Tb340 2.660 . S
N371 C372 1.305 . S
N371 C376 1.360 . S
C372 H364 0.930 1_545 S
C372 N371 1.305 . S
C372 C375 1.407 . S
C373 H367 0.930 . S
C373 C374 1.410 . S
C373 C375 1.345 . S
C374 C373 1.410 . S
C374 C376 1.417 . S
C374 C406 1.432 . S
C375 H361 0.930 1_545 S
C375 C372 1.407 . S
C375 C373 1.345 . S
C376 N371 1.360 . S
C376 C374 1.417 . S
C376 C380 1.432 . S
H377 C382 0.930 . S
N378 Tb340 2.600 . S
N378 C380 1.359 . S
N378 C381 1.327 . S
C379 H365 0.931 . S
C379 C381 1.392 . S
C379 C382 1.370 . S
C380 C376 1.432 . S
C380 N378 1.359 . S
C380 C383 1.414 . S
C381 H363 0.930 . S
C381 N378 1.327 . S
C381 C379 1.392 . S
C382 H377 0.930 . S
C382 C379 1.370 . S
C382 C383 1.385 . S
C383 C380 1.414 . S
C383 C382 1.385 . S
C383 C405 1.444 . S
O384 Tb340 2.546 . S
O384 C404 1.251 . S
O385 Tb340 2.610 1_565 S
O385 Tb351 2.362 . S
O385 C396 1.283 . S
O386 Tb351 2.421 . S
O386 C403 1.262 . S
O387 Tb340 2.320 1_565 S
O387 C403 1.260 . S
O388 Tb340 2.552 . S
O388 C396 1.243 1_545 S
O389 Tb340 2.413 . S
O389 C404 1.256 . S
O390 Tb351 2.546 . S
O390 C415 1.251 . S
O391 Tb340 2.362 . S
O391 Tb351 2.610 1_545 S
O391 C407 1.283 . S
O392 Tb340 2.421 . S
O392 C414 1.262 . S
O393 Tb351 2.320 1_545 S
O393 C414 1.260 . S
O394 Tb351 2.552 1_545 S
O394 C407 1.243 . S
O395 Tb351 2.413 . S
O395 C415 1.256 . S
C396 O385 1.283 . S
C396 O388 1.243 1_565 S
C397 C399 1.382 . S
C397 C401 1.393 . S
C397 C404 1.500 . S
C398 C399 1.400 . S
C398 C400 1.384 . S
C399 C397 1.382 . S
C399 C398 1.400 . S
C399 H416 0.930 . S
C400 C398 1.384 . S
C400 C402 1.392 . S
C400 H417 0.931 . S
C401 C397 1.393 . S
C401 C402 1.401 . S
C401 H418 0.930 . S
C402 C400 1.392 . S
C402 C401 1.401 . S
C402 H419 0.930 . S
C403 O386 1.262 . S
C403 O387 1.260 . S
C404 Tb340 2.833 . S
C404 O384 1.251 . S
C404 O389 1.256 . S
C404 C397 1.500 . S
C405 H370 0.929 . S
C405 C383 1.444 . S
C405 C406 1.317 . S
C406 H368 0.930 . S
C406 C374 1.432 . S
C406 C405 1.317 . S
C407 O391 1.283 . S
C407 O394 1.243 . S
C408 C409 1.382 . S
C408 C412 1.393 . S
C408 C415 1.500 . S
C409 C408 1.382 . S
C409 C410 1.400 . S
C409 H420 0.930 1_565 S
C410 C409 1.400 . S
C410 C411 1.384 . S
C411 C410 1.384 . S
C411 C413 1.392 . S
C411 H421 0.931 . S
C412 C408 1.393 . S
C412 C413 1.401 . S
C412 H422 0.930 . S
C413 C411 1.392 . S
C413 C412 1.401 . S
C413 H423 0.930 . S
C414 O392 1.262 . S
C414 O393 1.260 . S
C415 Tb351 2.833 . S
C415 O390 1.251 . S
C415 O395 1.256 . S
C415 C408 1.500 . S
H416 C399 0.930 . S
H417 C400 0.931 . S
H418 C401 0.930 . S
H419 C402 0.930 . S
H420 C409 0.930 1_545 S
H421 C411 0.931 . S
H422 C412 0.930 . S
H423 C413 0.930 . S
Tb424 N455 2.660 . S
Tb424 N462 2.600 . S
Tb424 O468 2.546 . S
Tb424 O469 2.610 . S
Tb424 O471 2.320 . S
Tb424 O472 2.552 . S
Tb424 O473 2.413 . S
Tb424 O475 2.362 . S
Tb424 O476 2.421 . S
Tb424 C488 2.833 . S
C425 C428 1.432 . S
C425 C429 1.414 . S
C425 N432 1.359 . S
C426 C428 1.417 . S
C426 C430 1.432 . S
C426 C438 1.410 . S
C427 C429 1.444 . S
C427 C430 1.317 . S
C427 H450 0.929 . S
C428 C425 1.432 . S
C428 C426 1.417 . S
C428 N436 1.360 . S
C429 C425 1.414 . S
C429 C427 1.444 . S
C429 C434 1.385 . S
C430 C426 1.432 . S
C430 C427 1.317 . S
C430 H442 0.930 . S
C431 C433 1.392 . S
C431 C434 1.370 . S
C431 H443 0.931 . S
N432 C425 1.359 . S
N432 C433 1.327 . S
N432 Tb435 2.600 . S
C433 C431 1.392 . S
C433 N432 1.327 . S
C433 H440 0.930 . S
C434 C429 1.385 . S
C434 C431 1.370 . S
C434 H453 0.930 . S
Tb435 N432 2.600 . S
Tb435 N436 2.660 . S
Tb435 O469 2.362 . S
Tb435 O470 2.421 . S
Tb435 O474 2.546 . S
Tb435 O475 2.610 . S
Tb435 O477 2.320 . S
Tb435 O478 2.552 . S
Tb435 O479 2.413 . S
Tb435 C499 2.833 . S
N436 C428 1.360 . S
N436 Tb435 2.660 . S
N436 C437 1.305 . S
C437 N436 1.305 . S
C437 C439 1.407 . S
C437 H444 0.930 . S
C438 C426 1.410 . S
C438 C439 1.345 . S
C438 H446 0.930 . S
C439 C437 1.407 . S
C439 C438 1.345 . S
C439 H441 0.930 . S
H440 C433 0.930 . S
H441 C439 0.930 . S
H442 C430 0.930 . S
H443 C431 0.931 . S
H444 C437 0.930 . S
H445 C459 0.930 . S
H446 C438 0.930 . S
H447 C465 0.930 . S
H448 C456 0.930 . S
H449 C463 0.931 . S
H450 C427 0.929 . S
H451 C457 0.930 . S
H452 C490 0.930 . S
H453 C434 0.930 . S
H454 C489 0.929 . S
N455 Tb424 2.660 . S
N455 C456 1.305 . S
N455 C460 1.360 . S
C456 H448 0.930 . S
C456 N455 1.305 . S
C456 C459 1.407 . S
C457 H451 0.930 . S
C457 C458 1.410 . S
C457 C459 1.345 . S
C458 C457 1.410 . S
C458 C460 1.417 . S
C458 C490 1.432 . S
C459 H445 0.930 . S
C459 C456 1.407 . S
C459 C457 1.345 . S
C460 N455 1.360 . S
C460 C458 1.417 . S
C460 C464 1.432 . S
H461 C466 0.930 . S
N462 Tb424 2.600 . S
N462 C464 1.359 . S
N462 C465 1.327 . S
C463 H449 0.931 . S
C463 C465 1.392 . S
C463 C466 1.370 . S
C464 C460 1.432 . S
C464 N462 1.359 . S
C464 C467 1.414 . S
C465 H447 0.930 . S
C465 N462 1.327 . S
C465 C463 1.392 . S
C466 H461 0.930 . S
C466 C463 1.370 . S
C466 C467 1.385 . S
C467 C464 1.414 . S
C467 C466 1.385 . S
C467 C489 1.444 . S
O468 Tb424 2.546 . S
O468 C488 1.251 . S
O469 Tb424 2.610 . S
O469 Tb435 2.362 . S
O469 C480 1.283 . S
O470 Tb435 2.421 . S
O470 C487 1.262 . S
O471 Tb424 2.320 . S
O471 C487 1.260 . S
O472 Tb424 2.552 . S
O472 C480 1.243 . S
O473 Tb424 2.413 . S
O473 C488 1.256 . S
O474 Tb435 2.546 . S
O474 C499 1.251 . S
O475 Tb424 2.362 . S
O475 Tb435 2.610 . S
O475 C491 1.283 . S
O476 Tb424 2.421 . S
O476 C498 1.262 . S
O477 Tb435 2.320 . S
O477 C498 1.260 . S
O478 Tb435 2.552 . S
O478 C491 1.243 . S
O479 Tb435 2.413 . S
O479 C499 1.256 . S
C480 O469 1.283 . S
C480 O472 1.243 . S
C481 C483 1.382 . S
C481 C485 1.393 . S
C481 C488 1.500 . S
C482 C483 1.400 . S
C482 C484 1.384 . S
C483 C481 1.382 . S
C483 C482 1.400 . S
C483 H500 0.930 . S
C484 C482 1.384 . S
C484 C486 1.392 . S
C484 H501 0.931 . S
C485 C481 1.393 . S
C485 C486 1.401 . S
C485 H502 0.930 . S
C486 C484 1.392 . S
C486 C485 1.401 . S
C486 H503 0.930 . S
C487 O470 1.262 . S
C487 O471 1.260 . S
C488 Tb424 2.833 . S
C488 O468 1.251 . S
C488 O473 1.256 . S
C488 C481 1.500 . S
C489 H454 0.929 . S
C489 C467 1.444 . S
C489 C490 1.317 . S
C490 H452 0.930 . S
C490 C458 1.432 . S
C490 C489 1.317 . S
C491 O475 1.283 . S
C491 O478 1.243 . S
C492 C493 1.382 . S
C492 C496 1.393 . S
C492 C499 1.500 . S
C493 C492 1.382 . S
C493 C494 1.400 . S
C493 H504 0.930 . S
C494 C493 1.400 . S
C494 C495 1.384 . S
C495 C494 1.384 . S
C495 C497 1.392 . S
C495 H505 0.931 1_556 S
C496 C492 1.393 . S
C496 C497 1.401 . S
C496 H506 0.930 . S
C497 C495 1.392 . S
C497 C496 1.401 . S
C497 H507 0.930 1_556 S
C498 O476 1.262 . S
C498 O477 1.260 . S
C499 Tb435 2.833 . S
C499 O474 1.251 . S
C499 O479 1.256 . S
C499 C492 1.500 . S
H500 C483 0.930 . S
H501 C484 0.931 . S
H502 C485 0.930 . S
H503 C486 0.930 . S
H504 C493 0.930 . S
H505 C495 0.931 1_554 S
H506 C496 0.930 . S
H507 C497 0.930 1_554 S
Tb508 N539 2.660 . S
Tb508 N546 2.600 . S
Tb508 O552 2.546 . S
Tb508 O553 2.610 . S
Tb508 O555 2.320 . S
Tb508 O556 2.552 . S
Tb508 O557 2.413 . S
Tb508 O559 2.360 . S
Tb508 O560 2.421 1_455 S
Tb508 C572 2.833 . S
C509 C512 1.432 . S
C509 C513 1.414 . S
C509 N516 1.359 . S
C510 C512 1.417 . S
C510 C514 1.432 . S
C510 C522 1.410 . S
C511 C513 1.444 . S
C511 C514 1.317 . S
C511 H534 0.929 . S
C512 C509 1.432 . S
C512 C510 1.417 . S
C512 N520 1.360 . S
C513 C509 1.414 . S
C513 C511 1.444 . S
C513 C518 1.385 . S
C514 C510 1.432 . S
C514 C511 1.317 . S
C514 H526 0.930 . S
C515 C517 1.392 . S
C515 C518 1.370 1_455 S
C515 H527 0.931 . S
N516 C509 1.359 . S
N516 C517 1.327 1_655 S
N516 Tb519 2.600 . S
C517 C515 1.392 . S
C517 N516 1.327 1_455 S
C517 H524 0.930 . S
C518 C513 1.385 . S
C518 C515 1.370 1_655 S
C518 H537 0.930 . S
Tb519 N516 2.600 . S
Tb519 N520 2.660 . S
Tb519 O553 2.362 1_655 S
Tb519 O554 2.421 1_655 S
Tb519 O558 2.546 . S
Tb519 O559 2.611 1_655 S
Tb519 O561 2.320 . S
Tb519 O562 2.552 . S
Tb519 O563 2.413 . S
Tb519 C583 2.833 . S
N520 C512 1.360 . S
N520 Tb519 2.660 . S
N520 C521 1.305 . S
C521 N520 1.305 . S
C521 C523 1.407 . S
C521 H528 0.930 . S
C522 C510 1.410 . S
C522 C523 1.345 . S
C522 H530 0.930 . S
C523 C521 1.407 . S
C523 C522 1.345 . S
C523 H525 0.930 . S
H524 C517 0.930 . S
H525 C523 0.930 . S
H526 C514 0.930 . S
H527 C515 0.931 . S
H528 C521 0.930 . S
H529 C543 0.930 . S
H530 C522 0.930 . S
H531 C549 0.930 1_655 S
H532 C540 0.930 . S
H533 C547 0.931 . S
H534 C511 0.929 . S
H535 C541 0.930 . S
H536 C574 0.930 . S
H537 C518 0.930 . S
H538 C573 0.929 . S
N539 Tb508 2.660 . S
N539 C540 1.305 . S
N539 C544 1.360 . S
C540 H532 0.930 . S
C540 N539 1.305 . S
C540 C543 1.407 . S
C541 H535 0.930 . S
C541 C542 1.410 . S
C541 C543 1.345 . S
C542 C541 1.410 . S
C542 C544 1.417 . S
C542 C574 1.432 . S
C543 H529 0.930 . S
C543 C540 1.407 . S
C543 C541 1.345 . S
C544 N539 1.360 . S
C544 C542 1.417 . S
C544 C548 1.432 . S
H545 C550 0.930 . S
N546 Tb508 2.600 . S
N546 C548 1.359 . S
N546 C549 1.327 . S
C547 H533 0.931 . S
C547 C549 1.392 1_655 S
C547 C550 1.370 1_655 S
C548 C544 1.432 . S
C548 N546 1.359 . S
C548 C551 1.414 . S
C549 H531 0.930 1_455 S
C549 N546 1.327 . S
C549 C547 1.392 1_455 S
C550 H545 0.930 . S
C550 C547 1.370 1_455 S
C550 C551 1.385 . S
C551 C548 1.414 . S
C551 C550 1.385 . S
C551 C573 1.444 . S
O552 Tb508 2.546 . S
O552 C572 1.251 . S
O553 Tb508 2.610 . S
O553 Tb519 2.362 1_455 S
O553 C564 1.283 . S
O554 Tb519 2.421 1_455 S
O554 C571 1.262 . S
O555 Tb508 2.320 . S
O555 C571 1.260 . S
O556 Tb508 2.552 . S
O556 C564 1.243 . S
O557 Tb508 2.413 . S
O557 C572 1.256 . S
O558 Tb519 2.546 . S
O558 C583 1.251 . S
O559 Tb508 2.360 . S
O559 Tb519 2.611 1_455 S
O559 C575 1.284 1_455 S
O560 Tb508 2.421 1_655 S
O560 C582 1.262 . S
O561 Tb519 2.320 . S
O561 C582 1.260 . S
O562 Tb519 2.552 . S
O562 C575 1.243 . S
O563 Tb519 2.413 . S
O563 C583 1.256 . S
C564 O553 1.283 . S
C564 O556 1.243 . S
C565 C567 1.382 . S
C565 C569 1.393 . S
C565 C572 1.500 . S
C566 C567 1.400 . S
C566 C568 1.384 . S
C567 C565 1.382 . S
C567 C566 1.400 . S
C567 H584 0.930 . S
C568 C566 1.384 . S
C568 C570 1.392 . S
C568 H585 0.931 . S
C569 C565 1.393 . S
C569 C570 1.401 . S
C569 H586 0.930 . S
C570 C568 1.392 . S
C570 C569 1.401 . S
C570 H587 0.930 . S
C571 O554 1.262 . S
C571 O555 1.260 . S
C572 Tb508 2.833 . S
C572 O552 1.251 . S
C572 O557 1.256 . S
C572 C565 1.500 . S
C573 H538 0.929 . S
C573 C551 1.444 . S
C573 C574 1.317 . S
C574 H536 0.930 . S
C574 C542 1.432 . S
C574 C573 1.317 . S
C575 O559 1.284 1_655 S
C575 O562 1.243 . S
C576 C577 1.382 . S
C576 C580 1.393 . S
C576 C583 1.500 . S
C577 C576 1.382 . S
C577 C578 1.400 . S
C577 H588 0.930 . S
C578 C577 1.400 . S
C578 C579 1.384 . S
C579 C578 1.384 . S
C579 C581 1.392 . S
C579 H589 0.931 1_556 S
C580 C576 1.393 . S
C580 C581 1.401 . S
C580 H590 0.930 . S
C581 C579 1.392 . S
C581 C580 1.401 . S
C581 H591 0.930 1_556 S
C582 O560 1.262 . S
C582 O561 1.260 . S
C583 Tb519 2.833 . S
C583 O558 1.251 . S
C583 O563 1.256 . S
C583 C576 1.500 . S
H584 C567 0.930 . S
H585 C568 0.931 . S
H586 C569 0.930 . S
H587 C570 0.930 . S
H588 C577 0.930 . S
H589 C579 0.931 1_554 S
H590 C580 0.930 . S
H591 C581 0.930 1_554 S
H592 C604 0.930 . S
H593 C606 0.930 . S
H594 C607 0.930 . S
H595 C611 0.959 . S
H596 C611 0.959 . S
H597 C611 0.961 . S
H598 C612 0.960 . S
H599 C612 0.961 . S
H600 C612 0.959 . S
H601 C615 0.929 1_565 S
H602 C616 0.931 1_565 S
H603 C618 0.930 . S
C604 H592 0.930 . S
C604 C605 1.399 . S
C604 C609 1.399 . S
C605 C604 1.399 . S
C605 C606 1.376 . S
C606 H593 0.930 . S
C606 C605 1.376 . S
C606 C607 1.388 . S
C607 H594 0.930 . S
C607 C606 1.388 . S
C607 C608 1.390 . S
C608 C607 1.390 . S
C608 C609 1.394 . S
C608 C614 1.465 . S
C609 C604 1.399 . S
C609 C608 1.394 . S
C609 C610 1.516 . S
C610 C609 1.516 . S
C610 C611 1.502 . S
C610 C612 1.561 . S
C610 C613 1.526 . S
C611 H595 0.959 . S
C611 H596 0.959 . S
C611 H597 0.961 . S
C611 C610 1.502 . S
C612 H598 0.960 . S
C612 H599 0.961 . S
C612 H600 0.959 . S
C612 C610 1.561 . S
C613 C610 1.526 . S
C613 C614 1.396 . S
C613 C618 1.390 . S
C614 C608 1.465 . S
C614 C613 1.396 . S
C614 C615 1.399 . S
C615 H601 0.929 1_545 S
C615 C614 1.399 . S
C615 C616 1.385 . S
C616 H602 0.931 1_545 S
C616 C615 1.385 . S
C616 C617 1.389 . S
C617 C616 1.389 . S
C617 C618 1.387 . S
C618 H603 0.930 . S
C618 C613 1.390 . S
C618 C617 1.387 . S
H619 C631 0.930 . S
H620 C633 0.930 . S
H621 C634 0.930 . S
H622 C638 0.959 . S
H623 C638 0.959 . S
H624 C638 0.961 . S
H625 C639 0.960 . S
H626 C639 0.961 . S
H627 C639 0.959 . S
H628 C642 0.929 . S
H629 C643 0.931 . S
H630 C645 0.930 . S
C631 H619 0.930 . S
C631 C632 1.399 . S
C631 C636 1.399 . S
C632 C631 1.399 . S
C632 C633 1.376 . S
C633 H620 0.930 . S
C633 C632 1.376 . S
C633 C634 1.388 . S
C634 H621 0.930 . S
C634 C633 1.388 . S
C634 C635 1.390 . S
C635 C634 1.390 . S
C635 C636 1.394 . S
C635 C641 1.465 . S
C636 C631 1.399 . S
C636 C635 1.394 . S
C636 C637 1.516 . S
C637 C636 1.516 . S
C637 C638 1.502 . S
C637 C639 1.561 . S
C637 C640 1.526 . S
C638 H622 0.959 . S
C638 H623 0.959 . S
C638 H624 0.961 . S
C638 C637 1.502 . S
C639 H625 0.960 . S
C639 H626 0.961 . S
C639 H627 0.959 . S
C639 C637 1.561 . S
C640 C637 1.526 . S
C640 C641 1.396 . S
C640 C645 1.390 . S
C641 C635 1.465 . S
C641 C640 1.396 . S
C641 C642 1.399 . S
C642 H628 0.929 . S
C642 C641 1.399 . S
C642 C643 1.385 . S
C643 H629 0.931 . S
C643 C642 1.385 . S
C643 C644 1.389 . S
C644 C643 1.389 . S
C644 C645 1.387 . S
C645 H630 0.930 . S
C645 C640 1.390 . S
C645 C644 1.387 . S
H646 C658 0.930 . S
H647 C660 0.930 . S
H648 C661 0.930 . S
H649 C665 0.959 . S
H650 C665 0.959 . S
H651 C665 0.961 . S
H652 C666 0.960 . S
H653 C666 0.961 . S
H654 C666 0.959 . S
H655 C669 0.929 . S
H656 C670 0.931 . S
H657 C672 0.930 . S
C658 H646 0.930 . S
C658 C659 1.399 . S
C658 C663 1.399 . S
C659 C658 1.399 . S
C659 C660 1.376 . S
C660 H647 0.930 . S
C660 C659 1.376 . S
C660 C661 1.388 . S
C661 H648 0.930 . S
C661 C660 1.388 . S
C661 C662 1.390 . S
C662 C661 1.390 . S
C662 C663 1.394 . S
C662 C668 1.465 . S
C663 C658 1.399 . S
C663 C662 1.394 . S
C663 C664 1.516 . S
C664 C663 1.516 . S
C664 C665 1.502 . S
C664 C666 1.561 . S
C664 C667 1.526 . S
C665 H649 0.959 . S
C665 H650 0.959 . S
C665 H651 0.961 . S
C665 C664 1.502 . S
C666 H652 0.960 . S
C666 H653 0.961 . S
C666 H654 0.959 . S
C666 C664 1.561 . S
C667 C664 1.526 . S
C667 C668 1.396 . S
C667 C672 1.390 . S
C668 C662 1.465 . S
C668 C667 1.396 . S
C668 C669 1.399 . S
C669 H655 0.929 . S
C669 C668 1.399 . S
C669 C670 1.385 . S
C670 H656 0.931 . S
C670 C669 1.385 . S
C670 C671 1.389 . S
C671 C670 1.389 . S
C671 C672 1.387 . S
C672 H657 0.930 . S
C672 C667 1.390 . S
C672 C671 1.387 . S
H673 C685 0.930 . S
H674 C687 0.930 . S
H675 C688 0.930 . S
H676 C692 0.959 . S
H677 C692 0.959 . S
H678 C692 0.961 . S
H679 C693 0.960 . S
H680 C693 0.961 . S
H681 C693 0.959 . S
H682 C696 0.929 1_655 S
H683 C697 0.931 1_655 S
H684 C699 0.930 . S
C685 H673 0.930 . S
C685 C686 1.399 . S
C685 C690 1.399 . S
C686 C685 1.399 . S
C686 C687 1.376 . S
C687 H674 0.930 . S
C687 C686 1.376 . S
C687 C688 1.388 . S
C688 H675 0.930 . S
C688 C687 1.388 . S
C688 C689 1.390 . S
C689 C688 1.390 . S
C689 C690 1.394 . S
C689 C695 1.465 . S
C690 C685 1.399 . S
C690 C689 1.394 . S
C690 C691 1.516 . S
C691 C690 1.516 . S
C691 C692 1.502 . S
C691 C693 1.561 . S
C691 C694 1.526 . S
C692 H676 0.959 . S
C692 H677 0.959 . S
C692 H678 0.961 . S
C692 C691 1.502 . S
C693 H679 0.960 . S
C693 H680 0.961 . S
C693 H681 0.959 . S
C693 C691 1.561 . S
C694 C691 1.526 . S
C694 C695 1.396 . S
C694 C699 1.390 . S
C695 C689 1.465 . S
C695 C694 1.396 . S
C695 C696 1.399 . S
C696 H682 0.929 1_455 S
C696 C695 1.399 . S
C696 C697 1.385 . S
C697 H683 0.931 1_455 S
C697 C696 1.385 . S
C697 C698 1.389 . S
C698 C697 1.389 . S
C698 C699 1.387 . S
C699 H684 0.930 . S
C699 C694 1.390 . S
C699 C698 1.387 . S
H700 C712 0.930 . S
H701 C714 0.930 . S
H702 C715 0.930 1_545 S
H703 C719 0.959 . S
H704 C719 0.959 . S
H705 C719 0.961 1_554 S
H706 C720 0.960 . S
H707 C720 0.961 . S
H708 C720 0.959 . S
H709 C723 0.929 . S
H710 C724 0.931 . S
H711 C726 0.930 . S
C712 H700 0.930 . S
C712 C713 1.399 . S
C712 C717 1.399 1_554 S
C713 C712 1.399 . S
C713 C714 1.376 . S
C714 H701 0.930 . S
C714 C713 1.376 . S
C714 C715 1.388 . S
C715 H702 0.930 1_565 S
C715 C714 1.388 . S
C715 C716 1.390 1_554 S
C716 C715 1.390 1_556 S
C716 C717 1.394 . S
C716 C722 1.465 . S
C717 C712 1.399 1_556 S
C717 C716 1.394 . S
C717 C718 1.516 . S
C718 C717 1.516 . S
C718 C719 1.502 . S
C718 C720 1.561 . S
C718 C721 1.526 . S
C719 H703 0.959 . S
C719 H704 0.959 . S
C719 H705 0.961 1_556 S
C719 C718 1.502 . S
C720 H706 0.960 . S
C720 H707 0.961 . S
C720 H708 0.959 . S
C720 C718 1.561 . S
C721 C718 1.526 . S
C721 C722 1.396 . S
C721 C726 1.390 . S
C722 C716 1.465 . S
C722 C721 1.396 . S
C722 C723 1.399 1_565 S
C723 H709 0.929 . S
C723 C722 1.399 1_545 S
C723 C724 1.385 . S
C724 H710 0.931 . S
C724 C723 1.385 . S
C724 C725 1.389 1_545 S
C725 C724 1.389 1_565 S
C725 C726 1.387 . S
C726 H711 0.930 . S
C726 C721 1.390 . S
C726 C725 1.387 . S
H727 C739 0.930 . S
H728 C741 0.930 . S
H729 C742 0.930 . S
H730 C746 0.959 . S
H731 C746 0.959 . S
H732 C746 0.961 1_554 S
H733 C747 0.960 . S
H734 C747 0.961 . S
H735 C747 0.959 . S
H736 C750 0.929 . S
H737 C751 0.931 . S
H738 C753 0.930 . S
C739 H727 0.930 . S
C739 C740 1.399 . S
C739 C744 1.399 . S
C740 C739 1.399 . S
C740 C741 1.376 . S
C741 H728 0.930 . S
C741 C740 1.376 . S
C741 C742 1.388 1_554 S
C742 H729 0.930 . S
C742 C741 1.388 1_556 S
C742 C743 1.390 . S
C743 C742 1.390 . S
C743 C744 1.394 1_556 S
C743 C749 1.465 . S
C744 C739 1.399 . S
C744 C743 1.394 1_554 S
C744 C745 1.516 1_554 S
C745 C744 1.516 1_556 S
C745 C746 1.502 . S
C745 C747 1.561 1_556 S
C745 C748 1.526 . S
C746 H730 0.959 . S
C746 H731 0.959 . S
C746 H732 0.961 1_556 S
C746 C745 1.502 . S
C747 H733 0.960 . S
C747 H734 0.961 . S
C747 H735 0.959 . S
C747 C745 1.561 1_554 S
C748 C745 1.526 . S
C748 C749 1.396 . S
C748 C753 1.390 . S
C749 C743 1.465 . S
C749 C748 1.396 . S
C749 C750 1.399 . S
C750 H736 0.929 . S
C750 C749 1.399 . S
C750 C751 1.385 . S
C751 H737 0.931 . S
C751 C750 1.385 . S
C751 C752 1.389 . S
C752 C751 1.389 . S
C752 C753 1.387 . S
C753 H738 0.930 . S
C753 C748 1.390 . S
C753 C752 1.387 . S
H754 C766 0.930 . S
H755 C768 0.930 . S
H756 C769 0.930 1_556 S
H757 C773 0.959 . S
H758 C773 0.959 . S
H759 C773 0.961 . S
H760 C774 0.951 1_554 S
H761 C774 0.967 . S
H762 C774 0.956 1_554 S
H763 C777 0.929 . S
H764 C778 0.931 . S
H765 C780 0.930 . S
C766 H754 0.930 . S
C766 C767 1.399 . S
C766 C771 1.399 1_554 S
C767 C766 1.399 . S
C767 C768 1.376 . S
C768 H755 0.930 . S
C768 C767 1.376 . S
C768 C769 1.388 . S
C769 H756 0.930 1_554 S
C769 C768 1.388 . S
C769 C770 1.390 1_554 S
C770 C769 1.390 1_556 S
C770 C771 1.394 . S
C770 C776 1.465 . S
C771 C766 1.399 1_556 S
C771 C770 1.394 . S
C771 C772 1.516 . S
C772 C771 1.516 . S
C772 C773 1.502 . S
C772 C774 1.567 . S
C772 C775 1.526 . S
C773 H757 0.959 . S
C773 H758 0.959 . S
C773 H759 0.961 . S
C773 C772 1.502 . S
C774 H760 0.951 1_556 S
C774 H761 0.967 . S
C774 H762 0.956 1_556 S
C774 C772 1.567 . S
C775 C772 1.526 . S
C775 C776 1.396 . S
C775 C780 1.390 . S
C776 C770 1.465 . S
C776 C775 1.396 . S
C776 C777 1.399 . S
C777 H763 0.929 . S
C777 C776 1.399 . S
C777 C778 1.385 . S
C778 H764 0.931 . S
C778 C777 1.385 . S
C778 C779 1.389 . S
C779 C778 1.389 . S
C779 C780 1.387 . S
C780 H765 0.930 . S
C780 C775 1.390 . S
C780 C779 1.387 . S
H781 C793 0.930 . S
H782 C795 0.930 . S
H783 C796 0.930 . S
H784 C800 0.959 . S
H785 C800 0.959 . S
H786 C800 0.961 . S
H787 C801 0.960 . S
H788 C801 0.961 . S
H789 C801 0.959 . S
H790 C804 0.929 . S
H791 C805 0.922 1_455 S
H792 C807 0.930 . S
C793 H781 0.930 . S
C793 C794 1.399 . S
C793 C798 1.399 1_554 S
C794 C793 1.399 . S
C794 C795 1.376 . S
C795 H782 0.930 . S
C795 C794 1.376 . S
C795 C796 1.388 . S
C796 H783 0.930 . S
C796 C795 1.388 . S
C796 C797 1.390 1_554 S
C797 C796 1.390 1_556 S
C797 C798 1.394 . S
C797 C803 1.465 . S
C798 C793 1.399 1_556 S
C798 C797 1.394 . S
C798 C799 1.516 . S
C799 C798 1.516 . S
C799 C800 1.502 . S
C799 C801 1.561 . S
C799 C802 1.526 . S
C800 H784 0.959 . S
C800 H785 0.959 . S
C800 H786 0.961 . S
C800 C799 1.502 . S
C801 H787 0.960 . S
C801 H788 0.961 . S
C801 H789 0.959 . S
C801 C799 1.561 . S
C802 C799 1.526 . S
C802 C803 1.396 . S
C802 C807 1.390 . S
C803 C797 1.465 . S
C803 C802 1.396 . S
C803 C804 1.399 . S
C804 H790 0.929 . S
C804 C803 1.399 . S
C804 C805 1.385 . S
C805 H791 0.922 1_655 S
C805 C804 1.385 . S
C805 C806 1.389 . S
C806 C805 1.389 . S
C806 C807 1.387 . S
C807 H792 0.930 . S
C807 C802 1.390 . S
C807 C806 1.387 . S
H808 C820 0.930 . S
H809 C822 0.930 . S
H810 C823 0.930 . S
H811 C827 0.959 . S
H812 C827 0.959 . S
H813 C827 0.961 . S
H814 C828 0.960 . S
H815 C828 0.961 . S
H816 C828 0.959 . S
H817 C831 0.929 . S
H818 C832 0.931 . S
H819 C834 0.930 . S
C820 H808 0.930 . S
C820 C821 1.399 . S
C820 C825 1.399 . S
C821 C820 1.399 . S
C821 C822 1.376 . S
C822 H809 0.930 . S
C822 C821 1.376 . S
C822 C823 1.388 . S
C823 H810 0.930 . S
C823 C822 1.388 . S
C823 C824 1.390 . S
C824 C823 1.390 . S
C824 C825 1.394 . S
C824 C830 1.465 . S
C825 C820 1.399 . S
C825 C824 1.394 . S
C825 C826 1.516 . S
C826 C825 1.516 . S
C826 C827 1.502 . S
C826 C828 1.561 . S
C826 C829 1.526 . S
C827 H811 0.959 . S
C827 H812 0.959 . S
C827 H813 0.961 . S
C827 C826 1.502 . S
C828 H814 0.960 . S
C828 H815 0.961 . S
C828 H816 0.959 . S
C828 C826 1.561 . S
C829 C826 1.526 . S
C829 C830 1.396 . S
C829 C834 1.390 . S
C830 C824 1.465 . S
C830 C829 1.396 . S
C830 C831 1.399 1_455 S
C831 H817 0.929 . S
C831 C830 1.399 1_655 S
C831 C832 1.385 . S
C832 H818 0.931 . S
C832 C831 1.385 . S
C832 C833 1.389 . S
C833 C832 1.389 . S
C833 C834 1.387 1_655 S
C834 H819 0.930 . S
C834 C829 1.390 . S
C834 C833 1.387 1_455 S
H835 C847 0.930 . S
H836 C849 0.930 . S
H837 C850 0.930 . S
H838 C854 0.959 . S
H839 C854 0.959 . S
H840 C854 0.961 . S
H841 C855 0.960 . S
H842 C855 0.961 . S
H843 C855 0.959 . S
H844 C858 0.929 . S
H845 C859 0.931 . S
H846 C861 0.930 . S
C847 H835 0.930 . S
C847 C848 1.399 . S
C847 C852 1.399 . S
C848 C847 1.399 . S
C848 C849 1.376 . S
C849 H836 0.930 . S
C849 C848 1.376 . S
C849 C850 1.388 . S
C850 H837 0.930 . S
C850 C849 1.388 . S
C850 C851 1.390 . S
C851 C850 1.390 . S
C851 C852 1.394 . S
C851 C857 1.465 . S
C852 C847 1.399 . S
C852 C851 1.394 . S
C852 C853 1.516 . S
C853 C852 1.516 . S
C853 C854 1.502 . S
C853 C855 1.561 . S
C853 C856 1.526 . S
C854 H838 0.959 . S
C854 H839 0.959 . S
C854 H840 0.961 . S
C854 C853 1.502 . S
C855 H841 0.960 . S
C855 H842 0.961 . S
C855 H843 0.959 . S
C855 C853 1.561 . S
C856 C853 1.526 . S
C856 C857 1.396 . S
C856 C861 1.390 . S
C857 C851 1.465 . S
C857 C856 1.396 . S
C857 C858 1.399 1_545 S
C858 H844 0.929 . S
C858 C857 1.399 1_565 S
C858 C859 1.385 . S
C859 H845 0.931 . S
C859 C858 1.385 . S
C859 C860 1.389 . S
C860 C859 1.389 . S
C860 C861 1.387 1_565 S
C861 H846 0.930 . S
C861 C856 1.390 . S
C861 C860 1.387 1_545 S
H862 C874 0.930 . S
H863 C876 0.930 . S
H864 C877 0.930 . S
H865 C881 0.959 . S
H866 C881 0.959 . S
H867 C881 0.961 . S
H868 C882 0.960 . S
H869 C882 0.961 . S
H870 C882 0.959 . S
H871 C885 0.929 . S
H872 C886 0.931 . S
H873 C888 0.930 . S
C874 H862 0.930 . S
C874 C875 1.399 . S
C874 C879 1.399 . S
C875 C874 1.399 . S
C875 C876 1.376 . S
C876 H863 0.930 . S
C876 C875 1.376 . S
C876 C877 1.388 . S
C877 H864 0.930 . S
C877 C876 1.388 . S
C877 C878 1.390 . S
C878 C877 1.390 . S
C878 C879 1.394 . S
C878 C884 1.465 . S
C879 C874 1.399 . S
C879 C878 1.394 . S
C879 C880 1.516 . S
C880 C879 1.516 . S
C880 C881 1.502 . S
C880 C882 1.561 . S
C880 C883 1.526 . S
C881 H865 0.959 . S
C881 H866 0.959 . S
C881 H867 0.961 . S
C881 C880 1.502 . S
C882 H868 0.960 . S
C882 H869 0.961 . S
C882 H870 0.959 . S
C882 C880 1.561 . S
C883 C880 1.526 . S
C883 C884 1.396 . S
C883 C888 1.390 . S
C884 C878 1.465 . S
C884 C883 1.396 . S
C884 C885 1.399 . S
C885 H871 0.929 . S
C885 C884 1.399 . S
C885 C886 1.385 . S
C886 H872 0.931 . S
C886 C885 1.385 . S
C886 C887 1.389 . S
C887 C886 1.389 . S
C887 C888 1.387 . S
C888 H873 0.930 . S
C888 C883 1.390 . S
C888 C887 1.387 . S
H889 C901 0.930 . S
H890 C903 0.930 . S
H891 C904 0.930 . S
H892 C908 0.959 . S
H893 C908 0.959 . S
H894 C908 0.961 . S
H895 C909 0.960 . S
H896 C909 0.961 . S
H897 C909 0.959 . S
H898 C912 0.929 . S
H899 C913 0.931 . S
H900 C915 0.930 . S
C901 H889 0.930 . S
C901 C902 1.399 . S
C901 C906 1.399 . S
C902 C901 1.399 . S
C902 C903 1.376 . S
C903 H890 0.930 . S
C903 C902 1.376 . S
C903 C904 1.388 . S
C904 H891 0.930 . S
C904 C903 1.388 . S
C904 C905 1.390 . S
C905 C904 1.390 . S
C905 C906 1.394 . S
C905 C911 1.465 . S
C906 C901 1.399 . S
C906 C905 1.394 . S
C906 C907 1.516 . S
C907 C906 1.516 . S
C907 C908 1.502 . S
C907 C909 1.561 . S
C907 C910 1.526 . S
C908 H892 0.959 . S
C908 H893 0.959 . S
C908 H894 0.961 . S
C908 C907 1.502 . S
C909 H895 0.960 . S
C909 H896 0.961 . S
C909 H897 0.959 . S
C909 C907 1.561 . S
C910 C907 1.526 . S
C910 C911 1.396 . S
C910 C915 1.390 . S
C911 C905 1.465 . S
C911 C910 1.396 . S
C911 C912 1.399 . S
C912 H898 0.929 . S
C912 C911 1.399 . S
C912 C913 1.385 . S
C913 H899 0.931 . S
C913 C912 1.385 . S
C913 C914 1.389 . S
C914 C913 1.389 . S
C914 C915 1.387 . S
C915 H900 0.930 . S
C915 C910 1.390 . S
C915 C914 1.387 . S
H916 C928 0.930 1_556 S
H917 C930 0.930 . S
H918 C931 0.930 . S
H919 C935 0.959 . S
H920 C935 0.959 . S
H921 C935 0.961 . S
H922 C936 0.960 . S
H923 C936 0.961 . S
H924 C936 0.959 . S
H925 C939 0.929 . S
H926 C940 0.931 . S
H927 C942 0.930 . S
C928 H916 0.930 1_554 S
C928 C929 1.399 . S
C928 C933 1.399 1_554 S
C929 C928 1.399 . S
C929 C930 1.376 . S
C930 H917 0.930 . S
C930 C929 1.376 . S
C930 C931 1.388 . S
C931 H918 0.930 . S
C931 C930 1.388 . S
C931 C932 1.390 1_554 S
C932 C931 1.390 1_556 S
C932 C933 1.394 . S
C932 C938 1.465 . S
C933 C928 1.399 1_556 S
C933 C932 1.394 . S
C933 C934 1.516 . S
C934 C933 1.516 . S
C934 C935 1.502 1_655 S
C934 C936 1.561 . S
C934 C937 1.526 . S
C935 H919 0.959 . S
C935 H920 0.959 . S
C935 H921 0.961 . S
C935 C934 1.502 1_455 S
C936 H922 0.960 . S
C936 H923 0.961 . S
C936 H924 0.959 . S
C936 C934 1.561 . S
C937 C934 1.526 . S
C937 C938 1.396 . S
C937 C942 1.390 1_655 S
C938 C932 1.465 . S
C938 C937 1.396 . S
C938 C939 1.399 . S
C939 H925 0.929 . S
C939 C938 1.399 . S
C939 C940 1.385 . S
C940 H926 0.931 . S
C940 C939 1.385 . S
C940 C941 1.389 1_655 S
C941 C940 1.389 1_455 S
C941 C942 1.387 . S
C942 H927 0.930 . S
C942 C937 1.390 1_455 S
C942 C941 1.387 . S
H943 C955 0.930 1_556 S
H944 C957 0.930 . S
H945 C958 0.930 . S
H946 C962 0.959 . S
H947 C962 0.959 . S
H948 C962 0.961 . S
H949 C963 0.960 . S
H950 C963 0.961 . S
H951 C963 0.959 . S
H952 C966 0.929 1_554 S
H953 C967 0.929 1_545 S
H954 C969 0.930 . S
C955 H943 0.930 1_554 S
C955 C956 1.399 . S
C955 C960 1.399 1_554 S
C956 C955 1.399 . S
C956 C957 1.376 . S
C957 H944 0.930 . S
C957 C956 1.376 . S
C957 C958 1.388 . S
C958 H945 0.930 . S
C958 C957 1.388 . S
C958 C959 1.390 . S
C959 C958 1.390 . S
C959 C960 1.394 1_554 S
C959 C965 1.465 1_554 S
C960 C955 1.399 1_556 S
C960 C959 1.394 1_556 S
C960 C961 1.516 . S
C961 C960 1.516 . S
C961 C962 1.502 1_565 S
C961 C963 1.561 . S
C961 C964 1.526 . S
C962 H946 0.959 . S
C962 H947 0.959 . S
C962 H948 0.961 . S
C962 C961 1.502 1_545 S
C963 H949 0.960 . S
C963 H950 0.961 . S
C963 H951 0.959 . S
C963 C961 1.561 . S
C964 C961 1.526 . S
C964 C965 1.396 . S
C964 C969 1.390 1_565 S
C965 C959 1.465 1_556 S
C965 C964 1.396 . S
C965 C966 1.399 . S
C966 H952 0.929 1_556 S
C966 C965 1.399 . S
C966 C967 1.385 . S
C967 H953 0.929 1_565 S
C967 C966 1.385 . S
C967 C968 1.389 1_565 S
C968 C967 1.389 1_545 S
C968 C969 1.387 . S
C969 H954 0.930 . S
C969 C964 1.390 1_545 S
C969 C968 1.387 . S
H970 C982 0.930 . S
H971 C984 0.930 . S
H972 C985 0.930 . S
H973 C989 0.959 . S
H974 C989 0.959 . S
H975 C989 0.961 . S
H976 C990 0.960 . S
H977 C990 0.961 . S
H978 C990 0.959 . S
H979 C993 0.929 . S
H980 C994 0.931 . S
H981 C996 0.930 . S
C982 H970 0.930 . S
C982 C983 1.399 . S
C982 C987 1.399 . S
C983 C982 1.399 . S
C983 C984 1.376 1_554 S
C984 H971 0.930 . S
C984 C983 1.376 1_556 S
C984 C985 1.388 . S
C985 H972 0.930 . S
C985 C984 1.388 . S
C985 C986 1.390 . S
C986 C985 1.390 . S
C986 C987 1.394 1_556 S
C986 C992 1.465 . S
C987 C982 1.399 . S
C987 C986 1.394 1_554 S
C987 C988 1.516 . S
C988 C987 1.516 . S
C988 C989 1.502 . S
C988 C990 1.561 . S
C988 C991 1.526 1_554 S
C989 H973 0.959 . S
C989 H974 0.959 . S
C989 H975 0.961 . S
C989 C988 1.502 . S
C990 H976 0.960 . S
C990 H977 0.961 . S
C990 H978 0.959 . S
C990 C988 1.561 . S
C991 C988 1.526 1_556 S
C991 C992 1.396 . S
C991 C996 1.390 . S
C992 C986 1.465 . S
C992 C991 1.396 . S
C992 C993 1.399 . S
C993 H979 0.929 . S
C993 C992 1.399 . S
C993 C994 1.385 . S
C994 H980 0.931 . S
C994 C993 1.385 . S
C994 C995 1.389 . S
C995 C994 1.389 . S
C995 C996 1.387 . S
C996 H981 0.930 . S
C996 C991 1.390 . S
C996 C995 1.387 . S
H997 C1009 0.930 1_556 S
H998 C1011 0.930 . S
H999 C1012 0.930 . S
H1000 C1016 0.948 1_554 S
H1001 C1016 0.959 . S
H1002 C1016 0.961 . S
H1003 C1017 0.960 . S
H1004 C1017 0.961 . S
H1005 C1017 0.959 . S
H1006 C1020 0.929 . S
H1007 C1021 0.931 . S
H1008 C1023 0.930 . S
C1009 H997 0.930 1_554 S
C1009 C1010 1.399 . S
C1009 C1014 1.399 1_554 S
C1010 C1009 1.399 . S
C1010 C1011 1.376 . S
C1011 H998 0.930 . S
C1011 C1010 1.376 . S
C1011 C1012 1.388 . S
C1012 H999 0.930 . S
C1012 C1011 1.388 . S
C1012 C1013 1.390 1_554 S
C1013 C1012 1.390 1_556 S
C1013 C1014 1.394 . S
C1013 C1019 1.465 . S
C1014 C1009 1.399 1_556 S
C1014 C1013 1.394 . S
C1014 C1015 1.516 . S
C1015 C1014 1.516 . S
C1015 C1016 1.502 . S
C1015 C1017 1.561 . S
C1015 C1018 1.526 . S
C1016 H1000 0.948 1_556 S
C1016 H1001 0.959 . S
C1016 H1002 0.961 . S
C1016 C1015 1.502 . S
C1017 H1003 0.960 . S
C1017 H1004 0.961 . S
C1017 H1005 0.959 . S
C1017 C1015 1.561 . S
C1018 C1015 1.526 . S
C1018 C1019 1.396 . S
C1018 C1023 1.390 . S
C1019 C1013 1.465 . S
C1019 C1018 1.396 . S
C1019 C1020 1.399 . S
C1020 H1006 0.929 . S
C1020 C1019 1.399 . S
C1020 C1021 1.385 . S
C1021 H1007 0.931 . S
C1021 C1020 1.385 . S
C1021 C1022 1.389 . S
C1022 C1021 1.389 . S
C1022 C1023 1.387 . S
C1023 H1008 0.930 . S
C1023 C1018 1.390 . S
C1023 C1022 1.387 . S
H1024 C1036 0.930 . S
H1025 C1038 0.930 . S
H1026 C1039 0.930 . S
H1027 C1043 0.959 . S
H1028 C1043 0.959 . S
H1029 C1043 0.961 . S
H1030 C1044 0.960 . S
H1031 C1044 0.961 . S
H1032 C1044 0.959 . S
H1033 C1047 0.929 . S
H1034 C1048 0.931 . S
H1035 C1050 0.930 . S
C1036 H1024 0.930 . S
C1036 C1037 1.399 . S
C1036 C1041 1.399 . S
C1037 C1036 1.399 . S
C1037 C1038 1.376 . S
C1038 H1025 0.930 . S
C1038 C1037 1.376 . S
C1038 C1039 1.388 . S
C1039 H1026 0.930 . S
C1039 C1038 1.388 . S
C1039 C1040 1.390 . S
C1040 C1039 1.390 . S
C1040 C1041 1.394 . S
C1040 C1046 1.465 . S
C1041 C1036 1.399 . S
C1041 C1040 1.394 . S
C1041 C1042 1.516 . S
C1042 C1041 1.516 . S
C1042 C1043 1.502 . S
C1042 C1044 1.561 . S
C1042 C1045 1.526 . S
C1043 H1027 0.959 . S
C1043 H1028 0.959 . S
C1043 H1029 0.961 . S
C1043 C1042 1.502 . S
C1044 H1030 0.960 . S
C1044 H1031 0.961 . S
C1044 H1032 0.959 . S
C1044 C1042 1.561 . S
C1045 C1042 1.526 . S
C1045 C1046 1.396 . S
C1045 C1050 1.390 . S
C1046 C1040 1.465 . S
C1046 C1045 1.396 . S
C1046 C1047 1.399 . S
C1047 H1033 0.929 . S
C1047 C1046 1.399 . S
C1047 C1048 1.385 . S
C1048 H1034 0.931 . S
C1048 C1047 1.385 . S
C1048 C1049 1.389 . S
C1049 C1048 1.389 . S
C1049 C1050 1.387 . S
C1050 H1035 0.930 . S
C1050 C1045 1.390 . S
C1050 C1049 1.387 . S
H1051 C1063 0.930 . S
H1052 C1065 0.930 . S
H1053 C1066 0.930 . S
H1054 C1070 0.959 . S
H1055 C1070 0.959 . S
H1056 C1070 0.961 . S
H1057 C1071 0.960 . S
H1058 C1071 0.961 1_565 S
H1059 C1071 0.959 1_565 S
H1060 C1074 0.929 . S
H1061 C1075 0.931 . S
H1062 C1077 0.930 . S
C1063 H1051 0.930 . S
C1063 C1064 1.399 . S
C1063 C1068 1.399 . S
C1064 C1063 1.399 . S
C1064 C1065 1.376 . S
C1065 H1052 0.930 . S
C1065 C1064 1.376 . S
C1065 C1066 1.388 . S
C1066 H1053 0.930 . S
C1066 C1065 1.388 . S
C1066 C1067 1.390 . S
C1067 C1066 1.390 . S
C1067 C1068 1.394 . S
C1067 C1073 1.465 . S
C1068 C1063 1.399 . S
C1068 C1067 1.394 . S
C1068 C1069 1.516 . S
C1069 C1068 1.516 . S
C1069 C1070 1.502 . S
C1069 C1071 1.561 . S
C1069 C1072 1.526 . S
C1070 H1054 0.959 . S
C1070 H1055 0.959 . S
C1070 H1056 0.961 . S
C1070 C1069 1.502 . S
C1071 H1057 0.960 . S
C1071 H1058 0.961 1_545 S
C1071 H1059 0.959 1_545 S
C1071 C1069 1.561 . S
C1072 C1069 1.526 . S
C1072 C1073 1.396 . S
C1072 C1077 1.390 . S
C1073 C1067 1.465 . S
C1073 C1072 1.396 . S
C1073 C1074 1.399 . S
C1074 H1060 0.929 . S
C1074 C1073 1.399 . S
C1074 C1075 1.385 . S
C1075 H1061 0.931 . S
C1075 C1074 1.385 . S
C1075 C1076 1.389 . S
C1076 C1075 1.389 . S
C1076 C1077 1.387 . S
C1077 H1062 0.930 . S
C1077 C1072 1.390 . S
C1077 C1076 1.387 . S
H1078 C1090 0.930 . S
H1079 C1092 0.930 . S
H1080 C1093 0.930 . S
H1081 C1097 0.959 . S
H1082 C1097 0.959 . S
H1083 C1097 0.961 . S
H1084 C1098 0.960 . S
H1085 C1098 0.961 . S
H1086 C1098 0.959 . S
H1087 C1101 0.929 . S
H1088 C1102 0.931 . S
H1089 C1104 0.930 . S
C1090 H1078 0.930 . S
C1090 C1091 1.399 . S
C1090 C1095 1.399 . S
C1091 C1090 1.399 . S
C1091 C1092 1.376 . S
C1092 H1079 0.930 . S
C1092 C1091 1.376 . S
C1092 C1093 1.388 . S
C1093 H1080 0.930 . S
C1093 C1092 1.388 . S
C1093 C1094 1.390 . S
C1094 C1093 1.390 . S
C1094 C1095 1.394 . S
C1094 C1100 1.465 . S
C1095 C1090 1.399 . S
C1095 C1094 1.394 . S
C1095 C1096 1.516 . S
C1096 C1095 1.516 . S
C1096 C1097 1.502 . S
C1096 C1098 1.561 . S
C1096 C1099 1.526 . S
C1097 H1081 0.959 . S
C1097 H1082 0.959 . S
C1097 H1083 0.961 . S
C1097 C1096 1.502 . S
C1098 H1084 0.960 . S
C1098 H1085 0.961 . S
C1098 H1086 0.959 . S
C1098 C1096 1.561 . S
C1099 C1096 1.526 . S
C1099 C1100 1.396 . S
C1099 C1104 1.390 . S
C1100 C1094 1.465 . S
C1100 C1099 1.396 . S
C1100 C1101 1.399 . S
C1101 H1087 0.929 . S
C1101 C1100 1.399 . S
C1101 C1102 1.385 . S
C1102 H1088 0.931 . S
C1102 C1101 1.385 . S
C1102 C1103 1.389 . S
C1103 C1102 1.389 . S
C1103 C1104 1.387 . S
C1104 H1089 0.930 . S
C1104 C1099 1.390 . S
C1104 C1103 1.387 . S
H1105 C1117 0.930 . S
H1106 C1119 0.930 . S
H1107 C1120 0.930 . S
H1108 C1124 0.959 . S
H1109 C1124 0.959 . S
H1110 C1124 0.961 . S
H1111 C1125 0.960 . S
H1112 C1125 0.961 . S
H1113 C1125 0.959 . S
H1114 C1128 0.929 . S
H1115 C1129 0.931 . S
H1116 C1131 0.930 . S
C1117 H1105 0.930 . S
C1117 C1118 1.399 . S
C1117 C1122 1.399 . S
C1118 C1117 1.399 . S
C1118 C1119 1.376 . S
C1119 H1106 0.930 . S
C1119 C1118 1.376 . S
C1119 C1120 1.388 . S
C1120 H1107 0.930 . S
C1120 C1119 1.388 . S
C1120 C1121 1.390 . S
C1121 C1120 1.390 . S
C1121 C1122 1.394 . S
C1121 C1127 1.465 . S
C1122 C1117 1.399 . S
C1122 C1121 1.394 . S
C1122 C1123 1.516 . S
C1123 C1122 1.516 . S
C1123 C1124 1.502 . S
C1123 C1125 1.561 . S
C1123 C1126 1.526 . S
C1124 H1108 0.959 . S
C1124 H1109 0.959 . S
C1124 H1110 0.961 . S
C1124 C1123 1.502 . S
C1125 H1111 0.960 . S
C1125 H1112 0.961 . S
C1125 H1113 0.959 . S
C1125 C1123 1.561 . S
C1126 C1123 1.526 . S
C1126 C1127 1.396 . S
C1126 C1131 1.390 . S
C1127 C1121 1.465 . S
C1127 C1126 1.396 . S
C1127 C1128 1.399 . S
C1128 H1114 0.929 . S
C1128 C1127 1.399 . S
C1128 C1129 1.385 . S
C1129 H1115 0.931 . S
C1129 C1128 1.385 . S
C1129 C1130 1.389 . S
C1130 C1129 1.389 . S
C1130 C1131 1.387 . S
C1131 H1116 0.930 . S
C1131 C1126 1.390 . S
C1131 C1130 1.387 . S
H1132 C1144 0.930 . S
H1133 C1146 0.930 . S
H1134 C1147 0.930 . S
H1135 C1151 0.959 . S
H1136 C1151 0.959 . S
H1137 C1151 0.961 . S
H1138 C1152 0.963 . S
H1139 C1152 0.974 . S
H1140 C1152 0.974 . S
H1141 C1155 0.929 . S
H1142 C1156 0.931 . S
H1143 C1158 0.930 . S
C1144 H1132 0.930 . S
C1144 C1145 1.399 . S
C1144 C1149 1.399 . S
C1145 C1144 1.399 . S
C1145 C1146 1.376 . S
C1146 H1133 0.930 . S
C1146 C1145 1.376 . S
C1146 C1147 1.388 . S
C1147 H1134 0.930 . S
C1147 C1146 1.388 . S
C1147 C1148 1.390 . S
C1148 C1147 1.390 . S
C1148 C1149 1.394 . S
C1148 C1154 1.465 . S
C1149 C1144 1.399 . S
C1149 C1148 1.394 . S
C1149 C1150 1.516 . S
C1150 C1149 1.516 . S
C1150 C1151 1.502 . S
C1150 C1152 1.531 1_655 S
C1150 C1153 1.526 . S
C1151 H1135 0.959 . S
C1151 H1136 0.959 . S
C1151 H1137 0.961 . S
C1151 C1150 1.502 . S
C1152 H1138 0.963 . S
C1152 H1139 0.974 . S
C1152 H1140 0.974 . S
C1152 C1150 1.531 1_455 S
C1153 C1150 1.526 . S
C1153 C1154 1.396 . S
C1153 C1158 1.390 . S
C1154 C1148 1.465 . S
C1154 C1153 1.396 . S
C1154 C1155 1.399 . S
C1155 H1141 0.929 . S
C1155 C1154 1.399 . S
C1155 C1156 1.385 . S
C1156 H1142 0.931 . S
C1156 C1155 1.385 . S
C1156 C1157 1.389 . S
C1157 C1156 1.389 . S
C1157 C1158 1.387 . S
C1158 H1143 0.930 . S
C1158 C1153 1.390 . S
C1158 C1157 1.387 . S
H1159 C1171 0.930 . S
H1160 C1173 0.930 . S
H1161 C1174 0.930 . S
H1162 C1178 0.959 1_545 S
H1163 C1178 0.959 1_545 S
H1164 C1178 0.961 . S
H1165 C1179 0.960 . S
H1166 C1179 0.961 . S
H1167 C1179 0.959 . S
H1168 C1182 0.929 . S
H1169 C1183 0.931 . S
H1170 C1185 0.930 . S
C1171 H1159 0.930 . S
C1171 C1172 1.399 . S
C1171 C1176 1.399 . S
C1172 C1171 1.399 . S
C1172 C1173 1.376 . S
C1173 H1160 0.930 . S
C1173 C1172 1.376 . S
C1173 C1174 1.388 . S
C1174 H1161 0.930 . S
C1174 C1173 1.388 . S
C1174 C1175 1.390 . S
C1175 C1174 1.390 . S
C1175 C1176 1.394 . S
C1175 C1181 1.465 . S
C1176 C1171 1.399 . S
C1176 C1175 1.394 . S
C1176 C1177 1.516 . S
C1177 C1176 1.516 . S
C1177 C1178 1.502 . S
C1177 C1179 1.561 . S
C1177 C1180 1.526 . S
C1178 H1162 0.959 1_565 S
C1178 H1163 0.959 1_565 S
C1178 H1164 0.961 . S
C1178 C1177 1.502 . S
C1179 H1165 0.960 . S
C1179 H1166 0.961 . S
C1179 H1167 0.959 . S
C1179 C1177 1.561 . S
C1180 C1177 1.526 . S
C1180 C1181 1.396 . S
C1180 C1185 1.390 . S
C1181 C1175 1.465 . S
C1181 C1180 1.396 . S
C1181 C1182 1.399 . S
C1182 H1168 0.929 . S
C1182 C1181 1.399 . S
C1182 C1183 1.385 . S
C1183 H1169 0.931 . S
C1183 C1182 1.385 . S
C1183 C1184 1.389 . S
C1184 C1183 1.389 . S
C1184 C1185 1.387 . S
C1185 H1170 0.930 . S
C1185 C1180 1.390 . S
C1185 C1184 1.387 . S
H1186 C1198 0.930 . S
H1187 C1200 0.930 . S
H1188 C1201 0.930 . S
H1189 C1205 0.959 . S
H1190 C1205 0.959 . S
H1191 C1205 0.961 . S
H1192 C1206 0.960 . S
H1193 C1206 0.961 . S
H1194 C1206 0.959 . S
H1195 C1209 0.929 . S
H1196 C1210 0.931 . S
H1197 C1212 0.930 . S
C1198 H1186 0.930 . S
C1198 C1199 1.399 . S
C1198 C1203 1.399 . S
C1199 C1198 1.399 . S
C1199 C1200 1.376 . S
C1200 H1187 0.930 . S
C1200 C1199 1.376 . S
C1200 C1201 1.388 . S
C1201 H1188 0.930 . S
C1201 C1200 1.388 . S
C1201 C1202 1.390 . S
C1202 C1201 1.390 . S
C1202 C1203 1.394 . S
C1202 C1208 1.465 . S
C1203 C1198 1.399 . S
C1203 C1202 1.394 . S
C1203 C1204 1.516 . S
C1204 C1203 1.516 . S
C1204 C1205 1.502 . S
C1204 C1206 1.561 . S
C1204 C1207 1.526 . S
C1205 H1189 0.959 . S
C1205 H1190 0.959 . S
C1205 H1191 0.961 . S
C1205 C1204 1.502 . S
C1206 H1192 0.960 . S
C1206 H1193 0.961 . S
C1206 H1194 0.959 . S
C1206 C1204 1.561 . S
C1207 C1204 1.526 . S
C1207 C1208 1.396 . S
C1207 C1212 1.390 . S
C1208 C1202 1.465 . S
C1208 C1207 1.396 . S
C1208 C1209 1.399 . S
C1209 H1195 0.929 . S
C1209 C1208 1.399 . S
C1209 C1210 1.385 . S
C1210 H1196 0.931 . S
C1210 C1209 1.385 . S
C1210 C1211 1.389 . S
C1211 C1210 1.389 . S
C1211 C1212 1.387 . S
C1212 H1197 0.930 . S
C1212 C1207 1.390 . S
C1212 C1211 1.387 . S
H1213 C1225 0.930 . S
H1214 C1227 0.930 . S
H1215 C1228 0.930 . S
H1216 C1232 0.959 . S
H1217 C1232 0.959 . S
H1218 C1232 0.961 . S
H1219 C1233 0.960 . S
H1220 C1233 0.961 . S
H1221 C1233 0.959 . S
H1222 C1236 0.929 . S
H1223 C1237 0.931 . S
H1224 C1239 0.930 . S
C1225 H1213 0.930 . S
C1225 C1226 1.399 . S
C1225 C1230 1.399 . S
C1226 C1225 1.399 . S
C1226 C1227 1.376 . S
C1227 H1214 0.930 . S
C1227 C1226 1.376 . S
C1227 C1228 1.388 . S
C1228 H1215 0.930 . S
C1228 C1227 1.388 . S
C1228 C1229 1.390 . S
C1229 C1228 1.390 . S
C1229 C1230 1.394 . S
C1229 C1235 1.465 . S
C1230 C1225 1.399 . S
C1230 C1229 1.394 . S
C1230 C1231 1.516 . S
C1231 C1230 1.516 . S
C1231 C1232 1.502 . S
C1231 C1233 1.561 . S
C1231 C1234 1.526 . S
C1232 H1216 0.959 . S
C1232 H1217 0.959 . S
C1232 H1218 0.961 . S
C1232 C1231 1.502 . S
C1233 H1219 0.960 . S
C1233 H1220 0.961 . S
C1233 H1221 0.959 . S
C1233 C1231 1.561 . S
C1234 C1231 1.526 . S
C1234 C1235 1.396 . S
C1234 C1239 1.390 . S
C1235 C1229 1.465 . S
C1235 C1234 1.396 . S
C1235 C1236 1.399 . S
C1236 H1222 0.929 . S
C1236 C1235 1.399 . S
C1236 C1237 1.385 . S
C1237 H1223 0.931 . S
C1237 C1236 1.385 . S
C1237 C1238 1.389 . S
C1238 C1237 1.389 . S
C1238 C1239 1.387 . S
C1239 H1224 0.930 . S
C1239 C1234 1.390 . S
C1239 C1238 1.387 . S
C605 C215 2.170 . S
C617 C330 2.126 . S
C644 C414 2.194 . S
C632 C247 2.139 . S
C671 C480 2.085 . S
C659 C151 2.292 . S
C698 C564 2.106 . S
C686 C183 2.259 . S
C725 C319 2.156 1_565 S
C713 C87 1.986 . S
C740 C119 2.072 . S
C752 C403 2.199 . S
C767 C23 2.183 . S
C779 C491 2.076 . S
C794 C55 2.133 . S
C806 C575 2.054 . S
C833 C326 0.579 . S
C821 C189 0.616 . S
C860 C410 0.519 . S
C848 C221 0.553 . S
C887 C482 0.652 . S
C875 C253 0.584 . S
C902 C157 0.613 . S
C914 C566 0.644 . S
C929 C61 0.804 . S
C941 C314 0.678 . S
C968 C398 0.619 . S
C956 C93 0.759 . S
C995 C494 0.663 . S
C983 C125 0.708 . S
C1010 C29 0.797 . S
C1022 C578 0.582 . S
C1037 C177 2.477 . S
C1049 C323 2.589 . S
C1064 C209 2.502 . S
C1076 C407 2.505 . S
C1103 C487 2.584 . S
C1091 C241 2.372 . S
C1130 C571 2.592 . S
C1118 C145 2.359 . S
C1145 C49 2.374 . S
C1157 C312 2.584 . S
C1184 C396 2.513 . S
C1172 C81 2.423 . S
C1211 C498 2.564 . S
C1199 C113 2.225 . S
C1226 C17 2.261 . S
C1238 C582 2.605 . S
