# Generated by pormake.
# Topology pth, (4,4)-cn, num edge types: 1
# Building blocks:
#     Node 0, Type 0, BuildingBlock: QUQFOY_clean_sbu_3, # of connection points: 4
#     Node 1, Type 0, BuildingBlock: QUQFOY_clean_sbu_3, # of connection points: 4
#     Node 2, Type 0, BuildingBlock: QUQFOY_clean_sbu_3, # of connection points: 4
#     Node 3, Type 1, BuildingBlock: AZAVOO_clean_linker_0, # of connection points: 4
#     Node 4, Type 1, BuildingBlock: AZAVOO_clean_linker_0, # of connection points: 4
#     Node 5, Type 1, BuildingBlock: AZAVOO_clean_linker_0, # of connection points: 4
#     Edge 6, Type (0, 1), BuildingBlock: CIFDUS_clean_linker_0, # of connection points: 2
#     Edge 7, Type (0, 1), BuildingBlock: CIFDUS_clean_linker_0, # of connection points: 2
#     Edge 8, Type (0, 1), BuildingBlock: CIFDUS_clean_linker_0, # of connection points: 2
#     Edge 9, Type (0, 1), BuildingBlock: CIFDUS_clean_linker_0, # of connection points: 2
#     Edge 10, Type (0, 1), BuildingBlock: CIFDUS_clean_linker_0, # of connection points: 2
#     Edge 11, Type (0, 1), BuildingBlock: CIFDUS_clean_linker_0, # of connection points: 2
#     Edge 12, Type (0, 1), BuildingBlock: CIFDUS_clean_linker_0, # of connection points: 2
#     Edge 13, Type (0, 1), BuildingBlock: CIFDUS_clean_linker_0, # of connection points: 2
#     Edge 14, Type (0, 1), BuildingBlock: CIFDUS_clean_linker_0, # of connection points: 2
#     Edge 15, Type (0, 1), BuildingBlock: CIFDUS_clean_linker_0, # of connection points: 2
#     Edge 16, Type (0, 1), BuildingBlock: CIFDUS_clean_linker_0, # of connection points: 2
#     Edge 17, Type (0, 1), BuildingBlock: CIFDUS_clean_linker_0, # of connection points: 2
# Relax obj value: 0.115
# Max RMSD: 0.224
# Mean RMSD: 0.148
data_MOF--net-pth--node1-QUQFOY_clean_sbu_3--node2-AZAVOO_clean_linker_0--edge1-CIFDUS_clean_linker_0
_symmetry_space_group_name_H-M    P1
_symmetry_Int_Tables_number       1
_symmetry_cell_setting            triclinic
loop_
_symmetry_equiv_pos_as_xyz
'x, y, z'
_cell_length_a     23.711491
_cell_length_b     24.003963
_cell_length_c     65.720697
_cell_angle_alpha  92.752415
_cell_angle_beta   89.451819
_cell_angle_gamma 120.70478
loop_
_atom_site_label
_atom_site_type_symbol
_atom_site_fract_x
_atom_site_fract_y
_atom_site_fract_z
_atom_type_partial_charge
C0 C 0.9784 0.11507 0.09981 0.0
O1 O 0.94051 0.10339 0.08464 0.0
Cd2 Cd 0.95631 0.06613 0.05177 0.0
O3 O 0.02452 0.1026 0.09863 0.0
Cd4 Cd 0.07376 0.05409 0.07622 0.0
C5 C 0.12286 0.18192 0.04714 0.0
O6 O 0.97651 0.98126 0.05711 0.0
O7 O 0.06527 -0.00995 0.04495 0.0
O8 O 0.05694 -0.00878 0.10494 0.0
C9 C 0.00387 0.96612 0.04302 0.0
O10 O 0.0623 0.15606 0.0423 0.0
C11 C 0.11356 -0.002 0.10565 0.0
O12 O 0.14218 0.15699 0.06012 0.0
O13 O 0.1545 0.03307 0.09245 0.0
C14 C 0.15845 0.0866 0.42004 0.0
O15 O 0.18466 0.10661 0.40292 0.0
Cd16 Cd 0.12084 0.1039 0.37406 0.0
O17 O 0.09758 0.06506 0.42247 0.0
Cd18 Cd -0.00273 0.04424 0.40532 0.0
C19 C 0.00931 0.93994 0.37165 0.0
O20 O 0.05347 0.14347 0.38772 0.0
O21 O 0.95048 0.08343 0.38017 0.0
O22 O 0.97516 0.07172 0.43921 0.0
C23 C 0.00454 0.13524 0.37755 0.0
O24 O 0.05522 -0.01095 0.36322 0.0
C25 C 0.91581 0.02578 0.43926 0.0
O26 O 0.98282 0.94596 0.38787 0.0
O27 O 0.89379 -0.01113 0.42323 0.0
C28 C 0.9371 0.1264 0.72618 0.0
O29 O 0.94796 0.16198 0.74231 0.0
Cd30 Cd 0.02141 0.17199 0.7687 0.0
O31 O 0.96908 0.09747 0.72276 0.0
Cd32 Cd 0.0589 0.08825 0.73834 0.0
C33 C 0.95707 0.00919 0.77629 0.0
O34 O 0.12249 0.20016 0.75228 0.0
O35 O 0.15432 0.13461 0.7609 0.0
O36 O 0.10151 0.09863 0.70412 0.0
C37 C 0.16465 0.19185 0.76118 0.0
O38 O 0.96408 0.06388 0.78191 0.0
C39 C 0.11619 0.05488 0.70527 0.0
O40 O 0.98567 0.00281 0.76064 0.0
O41 O 0.10055 0.02376 0.72146 0.0
H42 H 0.07546 0.41651 0.11055 0.0
H43 H 0.09798 0.93114 0.28164 0.0
H44 H 0.92717 0.37866 0.22398 0.0
H45 H 0.91314 0.28228 0.20521 0.0
H46 H 0.12362 0.3667 0.20502 0.0
H47 H 0.13681 0.46142 0.22495 0.0
H48 H 0.97344 0.45457 0.188 0.0
H49 H -0.0031 0.42643 0.15398 0.0
H50 H 0.20378 0.56197 0.16491 0.0
H51 H 0.17965 0.5887 0.1991 0.0
H52 H 0.98526 0.5849 0.19146 0.0
H53 H -0.00272 0.66938 0.16942 0.0
H54 H 0.18899 0.80132 0.19588 0.0
H55 H 0.17666 0.71608 0.21806 0.0
H56 H 0.96129 0.64351 0.23063 0.0
H57 H 0.96136 0.74349 0.24002 0.0
H58 H 0.14193 0.81461 0.27441 0.0
H59 H 0.14185 0.71491 0.26457 0.0
H60 H 0.90588 0.5375 0.26273 0.0
H61 H 0.87478 0.59417 0.28822 0.0
H62 H 0.063 0.67261 0.31841 0.0
H63 H 0.09422 0.61658 0.29266 0.0
H64 H 0.91159 0.39179 0.2592 0.0
H65 H 0.89373 0.31321 0.28449 0.0
H66 H 0.09148 0.44088 0.30787 0.0
H67 H 0.11021 0.51567 0.28134 0.0
O68 O 0.06727 0.42877 0.124 0.0
O69 O 0.17283 0.50084 0.13006 0.0
O70 O 0.00746 0.85527 0.25817 0.0
O71 O 0.09785 0.89205 0.27718 0.0
C72 C 0.04134 0.49065 0.23202 0.0
C73 C 0.06085 0.53752 0.2171 0.0
C74 C 0.06614 0.5977 0.22217 0.0
C75 C 0.05003 0.61034 0.24187 0.0
C76 C 0.02893 0.56285 0.25656 0.0
C77 C 0.0263 0.5038 0.25185 0.0
C78 C 0.03293 0.42659 0.22606 0.0
C79 C 0.96999 0.3747 0.22096 0.0
C80 C 0.96217 0.32021 0.20987 0.0
C81 C 0.01732 0.31745 0.2033 0.0
C82 C 0.08013 0.3671 0.20997 0.0
C83 C 0.08783 0.4213 0.22134 0.0
C84 C 0.07492 0.52319 0.19605 0.0
C85 C 0.0238 0.47796 0.18303 0.0
C86 C 0.03734 0.4621 0.16359 0.0
C87 C 0.10225 0.49181 0.15674 0.0
C88 C 0.15326 0.53808 0.16973 0.0
C89 C 0.13964 0.5536 0.18922 0.0
C90 C 0.0801 0.64452 0.20629 0.0
C91 C 0.03064 0.63136 0.19209 0.0
C92 C 0.03735 0.67965 0.17966 0.0
C93 C 0.09377 0.7417 0.18119 0.0
C94 C 0.14524 0.75366 0.19445 0.0
C95 C 0.13826 0.70526 0.20705 0.0
C96 C 0.05161 0.67217 0.24691 0.0
C97 C 0.00115 0.68109 0.24 0.0
C98 C 0.00124 0.73812 0.24543 0.0
C99 C 0.05164 0.78702 0.258 0.0
C100 C 0.1024 0.77797 0.26473 0.0
C101 C 0.10249 0.72112 0.25915 0.0
C102 C 0.00237 0.57339 0.27585 0.0
C103 C 0.93899 0.56406 0.27547 0.0
C104 C 0.92145 0.59669 0.28993 0.0
C105 C 0.96686 0.63815 0.30505 0.0
C106 C 0.02702 0.64048 0.30696 0.0
C107 C 0.04487 0.60838 0.29232 0.0
C108 C 0.01278 0.4583 0.26809 0.0
C109 C 0.95126 0.40194 0.26957 0.0
C110 C 0.94089 0.35765 0.28429 0.0
C111 C -0.00854 0.37 0.29813 0.0
C112 C 0.05201 0.42845 0.29712 0.0
C113 C 0.0627 0.47174 0.28211 0.0
C114 C 0.11651 0.47431 0.13615 0.0
C115 C 0.05085 0.84679 0.26436 0.0
H116 H 0.64705 0.97667 0.44692 0.0
H117 H 0.22158 0.15524 0.59128 0.0
H118 H 0.58325 0.93331 0.55757 0.0
H119 H 0.67016 0.92561 0.53979 0.0
H120 H 0.79899 0.13287 0.54935 0.0
H121 H 0.71246 0.13944 0.56774 0.0
H122 H 0.50348 0.94874 0.5223 0.0
H123 H 0.54879 0.94181 0.48926 0.0
H124 H 0.7039 0.14208 0.49836 0.0
H125 H 0.6576 0.14844 0.53124 0.0
H126 H 0.37852 0.97109 0.53617 0.0
H127 H 0.32357 0.98388 0.50695 0.0
H128 H 0.49098 0.17535 0.49936 0.0
H129 H 0.54554 0.16219 0.52872 0.0
H130 H 0.35047 0.96479 0.58262 0.0
H131 H 0.25705 0.97841 0.59055 0.0
H132 H 0.37241 0.17999 0.57589 0.0
H133 H 0.46581 0.16592 0.56834 0.0
H134 H 0.43778 0.94637 0.61206 0.0
H135 H 0.36422 0.93597 0.64001 0.0
H136 H 0.43492 0.14115 0.63939 0.0
H137 H 0.50844 0.15119 0.61159 0.0
H138 H 0.56841 0.94447 0.60059 0.0
H139 H 0.63977 0.94834 0.62807 0.0
H140 H 0.71105 0.15286 0.63939 0.0
H141 H 0.63859 0.14789 0.6123 0.0
O142 O 0.62897 0.98094 0.45976 0.0
O143 O 0.70994 0.08273 0.46581 0.0
O144 O 0.20034 0.04437 0.59534 0.0
O145 O 0.25725 0.14813 0.58777 0.0
C146 C 0.58426 0.04467 0.56699 0.0
C147 C 0.55296 0.05122 0.54986 0.0
C148 C 0.498 0.0584 0.55247 0.0
C149 C 0.47339 0.05761 0.57214 0.0
C150 C 0.50519 0.05149 0.58929 0.0
C151 C 0.56109 0.04577 0.58671 0.0
C152 C 0.64167 0.03699 0.56369 0.0
C153 C 0.63138 0.9764 0.55673 0.0
C154 C 0.68077 0.97229 0.54636 0.0
C155 C 0.74068 0.02891 0.54267 0.0
C156 C 0.75344 0.08837 0.55194 0.0
C157 C 0.70412 0.09229 0.5625 0.0
C158 C 0.57734 0.04902 0.52911 0.0
C159 C 0.54676 -0.00878 0.51699 0.0
C160 C 0.57293 0.98736 0.49818 0.0
C161 C 0.63015 0.04133 0.49121 0.0
C162 C 0.65989 0.09958 0.50329 0.0
C163 C 0.63351 0.10341 0.52204 0.0
C164 C 0.4657 0.06581 0.53453 0.0
C165 C 0.40319 0.01574 0.52819 0.0
C166 C 0.372 0.02319 0.51157 0.0
C167 C 0.40305 0.08074 0.50099 0.0
C168 C 0.46628 0.13035 0.50716 0.0
C169 C 0.49729 0.12301 0.5239 0.0
C170 C 0.41487 0.0644 0.57496 0.0
C171 C 0.35529 0.01173 0.58102 0.0
C172 C 0.30206 0.01967 0.58556 0.0
C173 C 0.30737 0.08041 0.58394 0.0
C174 C 0.36671 0.13264 0.57734 0.0
C175 C 0.42002 0.12468 0.5729 0.0
C176 C 0.47781 0.0494 0.60975 0.0
C177 C 0.43926 -0.01054 0.61855 0.0
C178 C 0.39709 0.98353 0.63439 0.0
C179 C 0.39306 0.03753 0.64147 0.0
C180 C 0.43639 0.09862 0.63391 0.0
C181 C 0.47879 0.10458 0.61823 0.0
C182 C 0.59845 0.04587 0.60458 0.0
C183 C 0.59885 -0.01026 0.60926 0.0
C184 C 0.63992 -0.00778 0.62481 0.0
C185 C 0.68128 0.05098 0.63585 0.0
C186 C 0.67917 0.10665 0.6314 0.0
C187 C 0.638 0.10403 0.61591 0.0
C188 C 0.6589 0.03655 0.47151 0.0
C189 C 0.2516 0.08959 0.58934 0.0
H190 H 0.70182 0.77974 0.03512 0.0
H191 H 0.19091 0.19377 0.8942 0.0
H192 H 0.62651 0.76692 0.92234 0.0
H193 H 0.71511 0.85339 0.94316 0.0
H194 H 0.81352 0.74329 0.94262 0.0
H195 H 0.72734 0.65997 0.92046 0.0
H196 H 0.55737 0.69259 0.95738 0.0
H197 H 0.6079 0.73877 0.99096 0.0
H198 H 0.70195 0.62459 0.98799 0.0
H199 H 0.65089 0.57873 0.95442 0.0
H200 H 0.4311 0.56752 0.95277 0.0
H201 H 0.37071 0.50658 0.98209 0.0
H202 H 0.45838 0.38715 0.9743 0.0
H203 H 0.52101 0.45085 0.94567 0.0
H204 H 0.37339 0.51719 0.90007 0.0
H205 H 0.26681 0.41817 0.89387 0.0
H206 H 0.35486 0.30289 0.90529 0.0
H207 H 0.46121 0.40226 0.91118 0.0
H208 H 0.47424 0.6133 0.86603 0.0
H209 H 0.41255 0.56014 0.83442 0.0
H210 H 0.44546 0.40083 0.84258 0.0
H211 H 0.51151 0.45722 0.87278 0.0
H212 H 0.59086 0.73723 0.88729 0.0
H213 H 0.65393 0.81026 0.86085 0.0
H214 H 0.70859 0.6728 0.8376 0.0
H215 H 0.649 0.60217 0.8654 0.0
O216 O 0.68072 0.75934 0.02213 0.0
O217 O 0.72899 0.70062 0.01968 0.0
O218 O 0.18958 0.29517 0.89083 0.0
O219 O 0.23239 0.23369 0.89666 0.0
C220 C 0.60782 0.64613 0.91578 0.0
C221 C 0.57423 0.60874 0.9325 0.0
C222 C 0.51526 0.5495 0.92929 0.0
C223 C 0.48953 0.52712 0.9094 0.0
C224 C 0.52365 0.56408 0.89258 0.0
C225 C 0.58242 0.62427 0.89581 0.0
C226 C 0.67062 0.70726 0.91991 0.0
C227 C 0.66949 0.76373 0.92549 0.0
C228 C 0.71953 0.81241 0.93783 0.0
C229 C 0.77012 0.80412 0.94523 0.0
C230 C 0.77544 0.75151 0.93729 0.0
C231 C 0.72619 0.70367 0.92451 0.0
C232 C 0.6007 0.63255 0.95353 0.0
C233 C 0.58842 0.67723 0.96413 0.0
C234 C 0.61747 0.70361 0.98326 0.0
C235 C 0.65925 0.68563 -0.00788 0.0
C236 C 0.67019 0.63963 0.98158 0.0
C237 C 0.64094 0.61317 0.96247 0.0
C238 C 0.47917 0.51252 0.94699 0.0
C239 C 0.43729 0.52834 0.95753 0.0
C240 C 0.40286 0.49341 0.97421 0.0
C241 C 0.40926 0.44156 0.98044 0.0
C242 C 0.45284 0.42716 0.97007 0.0
C243 C 0.4879 0.46276 0.95355 0.0
C244 C 0.42475 0.4668 0.90626 0.0
C245 C 0.36941 0.47046 0.90129 0.0
C246 C 0.30867 0.41386 0.89775 0.0
C247 C 0.30228 0.35256 0.89913 0.0
C248 C 0.35798 0.34924 0.90416 0.0
C249 C 0.41871 0.4059 0.90765 0.0
C250 C 0.49677 0.53873 0.87174 0.0
C251 C 0.46993 0.56804 0.86048 0.0
C252 C 0.43382 0.53699 0.84259 0.0
C253 C 0.42277 0.47543 0.83596 0.0
C254 C 0.45333 0.44844 0.8468 0.0
C255 C 0.49072 0.48029 0.86429 0.0
C256 C 0.61665 0.66525 0.87853 0.0
C257 C 0.61716 0.72332 0.87664 0.0
C258 C 0.65238 0.76447 0.86122 0.0
C259 C 0.68657 0.74763 0.84696 0.0
C260 C 0.68395 0.688 0.8485 0.0
C261 C 0.6495 0.64729 0.86424 0.0
C262 C 0.69176 0.71538 0.01214 0.0
C263 C 0.23794 0.29227 0.89528 0.0
H264 H 0.04217 0.13568 0.13606 0.0
H265 H 0.89873 0.16531 0.10616 0.0
H266 H 0.89473 0.22625 0.13635 0.0
H267 H 0.93861 0.27862 0.16983 0.0
H268 H 0.08181 0.24965 0.20004 0.0
H269 H 0.07955 0.18101 0.17091 0.0
C270 C 0.00961 0.155 0.13618 0.0
C271 C 0.97129 0.14646 0.11878 0.0
C272 C 0.0078 0.19033 0.15354 0.0
C273 C 0.92893 0.17131 0.11929 0.0
C274 C 0.92669 0.20631 0.13653 0.0
C275 C 0.96803 0.25588 0.17034 0.0
C276 C 0.01012 0.26897 0.18713 0.0
C277 C 0.96672 0.21701 0.15357 0.0
C278 C 0.04928 0.24057 0.18724 0.0
C279 C 0.04796 0.20136 0.17061 0.0
H280 H 0.956 0.08006 0.47739 0.0
H281 H 0.78303 0.94843 0.44137 0.0
H282 H 0.71426 0.93407 0.47085 0.0
H283 H 0.7029 0.96428 0.50596 0.0
H284 H 0.87528 0.0941 0.54246 0.0
H285 H 0.94499 0.10417 0.51349 0.0
C286 C 0.90324 0.04821 0.476 0.0
C287 C 0.87451 0.01581 0.4572 0.0
C288 C 0.86406 0.03999 0.49301 0.0
C289 C 0.80623 0.97408 0.45567 0.0
C290 C 0.76691 0.9659 0.4725 0.0
C291 C 0.75581 -0.00663 0.50781 0.0
C292 C 0.78394 0.02805 0.5264 0.0
C293 C 0.79528 -0.00091 0.49116 0.0
C294 C 0.85251 0.06708 0.52829 0.0
C295 C 0.89229 0.0729 0.51174 0.0
H296 H 0.83576 0.9762 0.78779 0.0
H297 H 0.97762 0.91507 0.78982 0.0
H298 H 0.90478 0.82593 0.81137 0.0
H299 H 0.80425 0.77132 0.83155 0.0
H300 H 0.65848 0.82741 0.82642 0.0
H301 H 0.72975 0.91305 0.80419 0.0
C302 C 0.85037 0.94297 0.79289 0.0
C303 C 0.91191 0.95224 0.78762 0.0
C304 C 0.8079 0.8915 0.80479 0.0
C305 C 0.93029 0.90858 0.79385 0.0
C306 C 0.88881 0.85792 0.80617 0.0
C307 C 0.78723 0.80116 0.82524 0.0
C308 C 0.72648 0.79363 0.83115 0.0
C309 C 0.82784 0.84954 0.81198 0.0
C310 C 0.7058 0.83329 0.82278 0.0
C311 C 0.74631 0.8821 0.80991 0.0
H312 H 0.03983 0.93599 0.13741 0.0
H313 H 0.21897 0.97964 0.10707 0.0
H314 H 0.23217 0.90735 0.12918 0.0
H315 H 0.18616 0.82352 0.15509 0.0
H316 H 0.00411 0.77861 0.18364 0.0
H317 H -0.00149 0.85974 0.16424 0.0
C318 C 0.08219 0.93026 0.1357 0.0
C319 C 0.12794 0.96244 0.12049 0.0
C320 C 0.08846 0.88788 0.14803 0.0
C321 C 0.18296 0.95516 0.11866 0.0
C322 C 0.19029 0.9136 0.13121 0.0
C323 C 0.14585 0.8323 0.15712 0.0
C324 C 0.09506 0.79484 0.17045 0.0
C325 C 0.1424 0.87845 0.14562 0.0
C326 C 0.04301 0.80632 0.17314 0.0
C327 C 0.03992 0.85272 0.16213 0.0
H328 H 0.28793 0.12225 0.4207 0.0
H329 H 0.11655 0.04983 0.45842 0.0
H330 H 0.17778 0.04338 0.48671 0.0
H331 H 0.27845 0.05521 0.50063 0.0
H332 H 0.45037 0.12658 0.4635 0.0
H333 H 0.39068 0.13732 0.43517 0.0
C334 C 0.2641 0.10535 0.43513 0.0
C335 C 0.19762 0.0862 0.43733 0.0
C336 C 0.29958 0.1015 0.45145 0.0
C337 C 0.16756 0.06461 0.45619 0.0
C338 C 0.20248 0.06083 0.47244 0.0
C339 C 0.30268 0.07273 0.48628 0.0
C340 C 0.36828 0.08942 0.48401 0.0
C341 C 0.26818 0.07848 0.47017 0.0
C342 C 0.39977 0.11354 0.46555 0.0
C343 C 0.36563 0.11943 0.44936 0.0
H344 H 0.17412 0.29952 0.77971 0.0
H345 H 0.28371 0.20407 0.76659 0.0
H346 H 0.37792 0.2901 0.78601 0.0
H347 H 0.42577 0.38763 0.80854 0.0
H348 H 0.3095 0.47361 0.82593 0.0
H349 H 0.22289 0.39831 0.80225 0.0
C350 C 0.21896 0.29812 0.78097 0.0
C351 C 0.22224 0.24577 0.77187 0.0
C352 C 0.27194 0.34639 0.79278 0.0
C353 C 0.28014 0.24383 0.77367 0.0
C354 C 0.33397 0.29302 0.7847 0.0
C355 C 0.38141 0.38986 0.80734 0.0
C356 C 0.37447 0.43619 0.8193 0.0
C357 C 0.32985 0.34374 0.79468 0.0
C358 C 0.31724 0.43939 0.81683 0.0
C359 C 0.26697 0.39559 0.80346 0.0
H360 H 0.90054 0.05404 0.69039 0.0
H361 H 0.85859 0.179 0.72891 0.0
H362 H 0.77409 0.16441 0.70479 0.0
H363 H 0.71269 0.11707 0.67271 0.0
H364 H 0.75677 -0.0051 0.63366 0.0
H365 H 0.83879 0.00638 0.65832 0.0
C366 C 0.87299 0.07815 0.69353 0.0
C367 C 0.88617 0.11774 0.71142 0.0
C368 C 0.82443 0.06965 0.6796 0.0
C369 C 0.84974 0.14841 0.71524 0.0
C370 C 0.80126 0.14004 0.70147 0.0
C371 C 0.7405 0.09325 0.66953 0.0
C372 C 0.72859 0.05524 0.65136 0.0
C373 C 0.78837 0.10096 0.68359 0.0
C374 C 0.76425 0.02373 0.64766 0.0
C375 C 0.8116 0.03072 0.66166 0.0
H376 H 0.88034 0.93285 0.03241 0.0
H377 H 0.05072 0.93062 0.0098 0.0
H378 H -0.00456 0.88509 0.9768 0.0
H379 H 0.89846 0.84579 0.95449 0.0
H380 H 0.72737 0.84514 0.9781 0.0
H381 H 0.78441 0.8944 0.01026 0.0
C382 C 0.90533 0.92211 0.02031 0.0
C383 C 0.96934 0.9348 0.02355 0.0
C384 C 0.87368 0.89667 0.0014 0.0
C385 C 0.00123 0.92102 0.00768 0.0
C386 C 0.96982 0.8953 0.98879 0.0
C387 C 0.87368 0.85651 0.96665 0.0
C388 C 0.80882 0.84211 0.96368 0.0
C389 C 0.90605 0.88308 0.98547 0.0
C390 C 0.77781 0.85707 0.97961 0.0
C391 C 0.81001 0.88439 -0.0018 0.0
H392 H 0.97633 0.89595 0.33266 0.0
H393 H 0.00061 0.83981 0.39171 0.0
H394 H 0.9848 0.73725 0.3766 0.0
H395 H 0.97472 0.66886 0.34582 0.0
H396 H 0.94227 0.72261 0.28733 0.0
H397 H 0.9497 0.82041 0.3029 0.0
C398 C 0.97706 0.86061 0.34218 0.0
C399 C 0.99013 0.875 0.36311 0.0
C400 C 0.96665 0.80162 0.33348 0.0
C401 C 0.99043 0.82914 0.3755 0.0
C402 C 0.98173 0.77084 0.36688 0.0
C403 C 0.96791 0.70145 0.33666 0.0
C404 C 0.95843 0.68911 0.31551 0.0
C405 C 0.97128 0.75723 0.34579 0.0
C406 C 0.94942 0.73126 0.30368 0.0
C407 C 0.95405 0.78734 0.31253 0.0
H408 H 0.18313 -0.00852 0.70839 0.0
H409 H 0.14151 0.10135 0.66723 0.0
H410 H 0.22206 0.10306 0.64347 0.0
H411 H 0.31002 0.08083 0.63566 0.0
H412 H 0.3547 0.97391 0.67699 0.0
H413 H 0.26695 0.9633 0.69948 0.0
C414 C 0.19089 0.01482 0.69407 0.0
C415 C 0.15666 0.04652 0.68961 0.0
C416 C 0.23845 0.017 0.6807 0.0
C417 C 0.16745 0.07684 0.67104 0.0
C418 C 0.2137 0.07812 0.65749 0.0
C419 C 0.30074 0.05558 0.64968 0.0
C420 C 0.33939 0.02933 0.65496 0.0
C421 C 0.25063 0.04989 0.66244 0.0
C422 C 0.32575 -0.00507 0.67278 0.0
C423 C 0.2757 -0.01109 0.68559 0.0
H424 H 0.25625 0.23794 0.04696 0.0
H425 H 0.09713 0.25464 0.02263 0.0
H426 H 0.17289 0.33956 0.00096 0.0
H427 H 0.28124 0.40102 0.98648 0.0
H428 H 0.44201 0.38691 0.01053 0.0
H429 H 0.36829 0.30838 0.0346 0.0
C430 C 0.23835 0.26083 0.03715 0.0
C431 C 0.17097 0.23927 0.03625 0.0
C432 C 0.28217 0.30942 0.02447 0.0
C433 C 0.14861 0.26964 0.02347 0.0
C434 C 0.19187 0.31825 0.01103 0.0
C435 C 0.30075 0.38216 -0.00269 0.0
C436 C 0.36698 0.39961 -0.00339 0.0
C437 C 0.25834 0.33736 0.01105 0.0
C438 C 0.39092 0.37347 0.01051 0.0
C439 C 0.34889 0.32881 0.02435 0.0
H440 H 0.91033 0.15624 0.36315 0.0
H441 H 0.11521 0.21727 0.35785 0.0
H442 H 0.12836 0.29329 0.33227 0.0
H443 H 0.08185 0.34154 0.31139 0.0
H444 H 0.87963 0.2891 0.31886 0.0
H445 H 0.86486 0.20936 0.34324 0.0
C446 C 0.95773 0.18621 0.35633 0.0
C447 C 0.01168 0.18123 0.36228 0.0
C448 C 0.96533 0.23095 0.34197 0.0
C449 C 0.07306 0.22059 0.35355 0.0
C450 C 0.08058 0.26389 0.3389 0.0
C451 C 0.03475 0.31375 0.31858 0.0
C452 C 0.98208 0.32178 0.31323 0.0
C453 C 0.02713 0.26961 0.33307 0.0
C454 C 0.92094 0.28353 0.32237 0.0
C455 C 0.91251 0.23818 0.33647 0.0
loop_
_geom_bond_atom_site_label_1
_geom_bond_atom_site_label_2
_geom_bond_distance
_geom_bond_site_symmetry_2
_ccdc_geom_bond_type
C0 O1 1.306 . S
C0 O3 1.160 . S
O1 C0 1.306 . S
O1 Cd2 2.228 . S
Cd2 O1 2.228 . S
Cd2 O6 2.273 1_455 S
Cd2 O10 2.277 . S
O3 C0 1.160 . S
O3 Cd4 2.203 . S
Cd4 O3 2.203 . S
Cd4 O6 2.411 1_455 S
Cd4 O7 2.333 1_545 S
Cd4 O8 2.352 1_545 S
Cd4 O12 2.277 . S
Cd4 O13 2.362 . S
C5 O10 1.209 . S
C5 O12 1.226 . S
O6 Cd2 2.273 1_655 S
O6 Cd4 2.411 1_655 S
O6 C9 1.320 1_545 S
O7 Cd4 2.333 1_565 S
O7 C9 1.214 1_455 S
O8 Cd4 2.352 1_565 S
O8 C11 1.258 . S
C9 O6 1.320 1_565 S
C9 O7 1.214 1_655 S
O10 Cd2 2.277 . S
O10 C5 1.209 . S
C11 O8 1.258 . S
C11 O13 1.282 1_565 S
O12 Cd4 2.277 . S
O12 C5 1.226 . S
O13 Cd4 2.362 . S
O13 C11 1.282 1_545 S
C14 O15 1.306 . S
C14 O17 1.160 . S
O15 C14 1.306 . S
O15 Cd16 2.228 . S
Cd16 O15 2.228 . S
Cd16 O20 2.273 . S
Cd16 O24 2.277 1_545 S
O17 C14 1.160 . S
O17 Cd18 2.203 . S
Cd18 O17 2.203 . S
Cd18 O20 2.411 . S
Cd18 O21 2.333 1_455 S
Cd18 O22 2.352 1_455 S
Cd18 O26 2.277 1_445 S
Cd18 O27 2.356 1_445 S
C19 O24 1.209 . S
C19 O26 1.226 1_455 S
O20 Cd16 2.273 . S
O20 Cd18 2.411 . S
O20 C23 1.320 . S
O21 Cd18 2.333 1_655 S
O21 C23 1.214 1_655 S
O22 Cd18 2.352 1_655 S
O22 C25 1.258 . S
C23 O20 1.320 . S
C23 O21 1.214 1_455 S
O24 Cd16 2.277 1_565 S
O24 C19 1.209 . S
C25 O22 1.258 . S
C25 O27 1.282 1_545 S
O26 Cd18 2.277 1_665 S
O26 C19 1.226 1_655 S
O27 Cd18 2.356 1_665 S
O27 C25 1.282 1_565 S
C28 O29 1.306 . S
C28 O31 1.160 . S
O29 C28 1.306 . S
O29 Cd30 2.228 . S
Cd30 O29 2.228 . S
Cd30 O34 2.273 . S
Cd30 O38 2.277 . S
O31 C28 1.160 . S
O31 Cd32 2.203 . S
Cd32 O31 2.203 . S
Cd32 O34 2.411 . S
Cd32 O35 2.333 . S
Cd32 O36 2.352 . S
Cd32 O40 2.277 . S
Cd32 O41 2.356 . S
C33 O38 1.209 . S
C33 O40 1.226 . S
O34 Cd30 2.273 . S
O34 Cd32 2.411 . S
O34 C37 1.320 . S
O35 Cd32 2.333 . S
O35 C37 1.214 . S
O36 Cd32 2.352 . S
O36 C39 1.258 . S
C37 O34 1.320 . S
C37 O35 1.214 . S
O38 Cd30 2.277 . S
O38 C33 1.209 . S
C39 O36 1.258 . S
C39 O41 1.282 . S
O40 Cd32 2.277 . S
O40 C33 1.226 . S
O41 Cd32 2.356 . S
O41 C39 1.282 . S
H42 O68 0.856 . S
H43 O71 0.854 . S
H44 C79 0.930 . S
H45 C80 0.930 . S
H46 C82 0.930 . S
H47 C83 0.930 . S
H48 C85 0.931 1_655 S
H49 C86 0.930 1_655 S
H50 C88 0.930 . S
H51 C89 0.929 . S
H52 C91 0.930 1_655 S
H53 C92 0.931 1_655 S
H54 C94 0.930 . S
H55 C95 0.929 . S
H56 C97 0.925 1_655 S
H57 C98 0.930 1_655 S
H58 C100 0.930 . S
H59 C101 0.932 . S
H60 C103 0.930 . S
H61 C104 0.929 . S
H62 C106 0.931 . S
H63 C107 0.930 . S
H64 C109 0.929 . S
H65 C110 0.931 . S
H66 C112 0.930 . S
H67 C113 0.929 . S
O68 H42 0.856 . S
O68 C114 1.300 . S
O69 C114 1.209 . S
O70 C115 1.199 . S
O71 H43 0.854 . S
O71 C115 1.297 . S
C72 C73 1.404 . S
C72 C77 1.397 . S
C72 C78 1.492 . S
C73 C72 1.404 . S
C73 C74 1.396 . S
C73 C84 1.492 . S
C74 C73 1.396 . S
C74 C75 1.397 . S
C74 C90 1.509 . S
C75 C74 1.397 . S
C75 C76 1.412 . S
C75 C96 1.485 . S
C76 C75 1.412 . S
C76 C77 1.388 . S
C76 C102 1.490 . S
C77 C72 1.397 . S
C77 C76 1.388 . S
C77 C108 1.519 . S
C78 C72 1.492 . S
C78 C79 1.363 1_455 S
C78 C83 1.390 . S
C79 H44 0.930 . S
C79 C78 1.363 1_655 S
C79 C80 1.372 . S
C80 H45 0.930 . S
C80 C79 1.372 . S
C80 C81 1.383 1_655 S
C81 C80 1.383 1_455 S
C81 C82 1.395 . S
C82 H46 0.930 . S
C82 C81 1.395 . S
C82 C83 1.362 . S
C83 H47 0.930 . S
C83 C78 1.390 . S
C83 C82 1.362 . S
C84 C73 1.492 . S
C84 C85 1.377 . S
C84 C89 1.397 . S
C85 H48 0.931 1_455 S
C85 C84 1.377 . S
C85 C86 1.376 . S
C86 H49 0.930 1_455 S
C86 C85 1.376 . S
C86 C87 1.376 . S
C87 C86 1.376 . S
C87 C88 1.378 . S
C87 C114 1.486 . S
C88 H50 0.930 . S
C88 C87 1.378 . S
C88 C89 1.376 . S
C89 H51 0.929 . S
C89 C84 1.397 . S
C89 C88 1.376 . S
C90 C74 1.509 . S
C90 C91 1.391 . S
C90 C95 1.386 . S
C91 H52 0.930 1_455 S
C91 C90 1.391 . S
C91 C92 1.375 . S
C92 H53 0.931 1_455 S
C92 C91 1.375 . S
C92 C93 1.375 . S
C93 C92 1.375 . S
C93 C94 1.361 . S
C94 H54 0.930 . S
C94 C93 1.361 . S
C94 C95 1.399 . S
C95 H55 0.929 . S
C95 C90 1.386 . S
C95 C94 1.399 . S
C96 C75 1.485 . S
C96 C97 1.407 . S
C96 C101 1.360 . S
C97 H56 0.925 1_455 S
C97 C96 1.407 . S
C97 C98 1.365 . S
C98 H57 0.930 1_455 S
C98 C97 1.365 . S
C98 C99 1.397 . S
C99 C98 1.397 . S
C99 C100 1.390 . S
C99 C115 1.476 . S
C100 H58 0.930 . S
C100 C99 1.390 . S
C100 C101 1.366 . S
C101 H59 0.932 . S
C101 C96 1.360 . S
C101 C100 1.366 . S
C102 C76 1.490 . S
C102 C103 1.380 1_455 S
C102 C107 1.386 . S
C103 H60 0.930 . S
C103 C102 1.380 1_655 S
C103 C104 1.381 . S
C104 H61 0.929 . S
C104 C103 1.381 . S
C104 C105 1.371 1_655 S
C105 C104 1.371 1_455 S
C105 C106 1.380 . S
C106 H62 0.931 . S
C106 C105 1.380 . S
C106 C107 1.387 . S
C107 H63 0.930 . S
C107 C102 1.386 . S
C107 C106 1.387 . S
C108 C77 1.519 . S
C108 C109 1.377 1_455 S
C108 C113 1.361 . S
C109 H64 0.929 . S
C109 C108 1.377 1_655 S
C109 C110 1.386 . S
C110 H65 0.931 . S
C110 C109 1.386 . S
C110 C111 1.363 1_655 S
C111 C110 1.363 1_455 S
C111 C112 1.385 . S
C112 H66 0.930 . S
C112 C111 1.385 . S
C112 C113 1.396 . S
C113 H67 0.929 . S
C113 C108 1.361 . S
C113 C112 1.396 . S
C114 O68 1.300 . S
C114 O69 1.209 . S
C114 C87 1.486 . S
C115 O70 1.199 . S
C115 O71 1.297 . S
C115 C99 1.476 . S
H116 O142 0.856 . S
H117 O145 0.854 . S
H118 C153 0.930 1_565 S
H119 C154 0.931 1_565 S
H120 C156 0.930 . S
H121 C157 0.930 . S
H122 C159 0.931 1_565 S
H123 C160 0.930 1_565 S
H124 C162 0.930 . S
H125 C163 0.929 . S
H126 C165 0.930 1_565 S
H127 C166 0.931 . S
H128 C168 0.930 . S
H129 C169 0.929 . S
H130 C171 0.931 . S
H131 C172 0.930 . S
H132 C174 0.930 . S
H133 C175 0.932 . S
H134 C177 0.930 1_565 S
H135 C178 0.929 1_565 S
H136 C180 0.931 . S
H137 C181 0.930 . S
H138 C183 0.929 1_565 S
H139 C184 0.931 . S
H140 C186 0.930 . S
H141 C187 0.929 . S
O142 H116 0.856 . S
O142 C188 1.300 . S
O143 C188 1.209 . S
O144 C189 1.199 . S
O145 H117 0.854 . S
O145 C189 1.297 . S
C146 C147 1.404 . S
C146 C151 1.397 . S
C146 C152 1.492 . S
C147 C146 1.404 . S
C147 C148 1.396 . S
C147 C158 1.492 . S
C148 C147 1.396 . S
C148 C149 1.397 . S
C148 C164 1.509 . S
C149 C148 1.397 . S
C149 C150 1.412 . S
C149 C170 1.485 . S
C150 C149 1.412 . S
C150 C151 1.388 . S
C150 C176 1.490 . S
C151 C146 1.397 . S
C151 C150 1.388 . S
C151 C182 1.519 . S
C152 C146 1.492 . S
C152 C153 1.363 . S
C152 C157 1.390 . S
C153 H118 0.930 1_545 S
C153 C152 1.363 . S
C153 C154 1.372 . S
C154 H119 0.931 1_545 S
C154 C153 1.372 . S
C154 C155 1.383 . S
C155 C154 1.383 . S
C155 C156 1.395 . S
C156 H120 0.930 . S
C156 C155 1.395 . S
C156 C157 1.362 . S
C157 H121 0.930 . S
C157 C152 1.390 . S
C157 C156 1.362 . S
C158 C147 1.492 . S
C158 C159 1.377 . S
C158 C163 1.397 . S
C159 H122 0.931 1_545 S
C159 C158 1.377 . S
C159 C160 1.376 . S
C160 H123 0.930 1_545 S
C160 C159 1.376 . S
C160 C161 1.376 . S
C161 C160 1.376 . S
C161 C162 1.378 . S
C161 C188 1.486 . S
C162 H124 0.930 . S
C162 C161 1.378 . S
C162 C163 1.376 . S
C163 H125 0.929 . S
C163 C158 1.397 . S
C163 C162 1.376 . S
C164 C148 1.509 . S
C164 C165 1.391 . S
C164 C169 1.386 . S
C165 H126 0.930 1_545 S
C165 C164 1.391 . S
C165 C166 1.375 . S
C166 H127 0.931 . S
C166 C165 1.375 . S
C166 C167 1.375 . S
C167 C166 1.375 . S
C167 C168 1.361 . S
C168 H128 0.930 . S
C168 C167 1.361 . S
C168 C169 1.399 . S
C169 H129 0.929 . S
C169 C164 1.386 . S
C169 C168 1.399 . S
C170 C149 1.485 . S
C170 C171 1.394 . S
C170 C175 1.360 . S
C171 H130 0.931 . S
C171 C170 1.394 . S
C171 C172 1.372 . S
C172 H131 0.930 . S
C172 C171 1.372 . S
C172 C173 1.397 . S
C173 C172 1.397 . S
C173 C174 1.390 . S
C173 C189 1.476 . S
C174 H132 0.930 . S
C174 C173 1.390 . S
C174 C175 1.366 . S
C175 H133 0.932 . S
C175 C170 1.360 . S
C175 C174 1.366 . S
C176 C150 1.490 . S
C176 C177 1.380 . S
C176 C181 1.386 . S
C177 H134 0.930 1_545 S
C177 C176 1.380 . S
C177 C178 1.381 . S
C178 H135 0.929 1_545 S
C178 C177 1.381 . S
C178 C179 1.371 . S
C179 C178 1.371 . S
C179 C180 1.380 . S
C180 H136 0.931 . S
C180 C179 1.380 . S
C180 C181 1.387 . S
C181 H137 0.930 . S
C181 C176 1.386 . S
C181 C180 1.387 . S
C182 C151 1.519 . S
C182 C183 1.377 . S
C182 C187 1.361 . S
C183 H138 0.929 1_545 S
C183 C182 1.377 . S
C183 C184 1.386 . S
C184 H139 0.931 . S
C184 C183 1.386 . S
C184 C185 1.363 . S
C185 C184 1.363 . S
C185 C186 1.385 . S
C186 H140 0.930 . S
C186 C185 1.385 . S
C186 C187 1.396 . S
C187 H141 0.929 . S
C187 C182 1.361 . S
C187 C186 1.396 . S
C188 O142 1.300 . S
C188 O143 1.209 . S
C188 C161 1.486 . S
C189 O144 1.199 . S
C189 O145 1.297 . S
C189 C173 1.476 . S
H190 O216 0.856 . S
H191 O219 0.854 . S
H192 C227 0.930 . S
H193 C228 0.930 . S
H194 C230 0.930 . S
H195 C231 0.930 . S
H196 C233 0.931 . S
H197 C234 0.930 . S
H198 C236 0.930 . S
H199 C237 0.929 . S
H200 C239 0.930 . S
H201 C240 0.931 . S
H202 C242 0.930 . S
H203 C243 0.929 . S
H204 C245 0.931 . S
H205 C246 0.930 . S
H206 C248 0.930 . S
H207 C249 0.932 . S
H208 C251 0.930 . S
H209 C252 0.929 . S
H210 C254 0.931 . S
H211 C255 0.930 . S
H212 C257 0.929 . S
H213 C258 0.931 . S
H214 C260 0.930 . S
H215 C261 0.929 . S
O216 H190 0.856 . S
O216 C262 1.300 . S
O217 C262 1.209 . S
O218 C263 1.199 . S
O219 H191 0.854 . S
O219 C263 1.297 . S
C220 C221 1.404 . S
C220 C225 1.397 . S
C220 C226 1.492 . S
C221 C220 1.404 . S
C221 C222 1.396 . S
C221 C232 1.492 . S
C222 C221 1.396 . S
C222 C223 1.397 . S
C222 C238 1.509 . S
C223 C222 1.397 . S
C223 C224 1.412 . S
C223 C244 1.485 . S
C224 C223 1.412 . S
C224 C225 1.388 . S
C224 C250 1.490 . S
C225 C220 1.397 . S
C225 C224 1.388 . S
C225 C256 1.519 . S
C226 C220 1.492 . S
C226 C227 1.363 . S
C226 C231 1.390 . S
C227 H192 0.930 . S
C227 C226 1.363 . S
C227 C228 1.372 . S
C228 H193 0.930 . S
C228 C227 1.372 . S
C228 C229 1.383 . S
C229 C228 1.383 . S
C229 C230 1.395 . S
C230 H194 0.930 . S
C230 C229 1.395 . S
C230 C231 1.362 . S
C231 H195 0.930 . S
C231 C226 1.390 . S
C231 C230 1.362 . S
C232 C221 1.492 . S
C232 C233 1.377 . S
C232 C237 1.397 . S
C233 H196 0.931 . S
C233 C232 1.377 . S
C233 C234 1.376 1_556 S
C234 H197 0.930 . S
C234 C233 1.376 1_554 S
C234 C235 1.376 . S
C235 C234 1.376 . S
C235 C236 1.378 . S
C235 C262 1.486 . S
C236 H198 0.930 . S
C236 C235 1.378 . S
C236 C237 1.376 1_554 S
C237 H199 0.929 . S
C237 C232 1.397 . S
C237 C236 1.376 1_556 S
C238 C222 1.509 . S
C238 C239 1.391 . S
C238 C243 1.386 . S
C239 H200 0.930 . S
C239 C238 1.391 . S
C239 C240 1.375 . S
C240 H201 0.931 . S
C240 C239 1.375 . S
C240 C241 1.375 . S
C241 C240 1.375 . S
C241 C242 1.361 . S
C242 H202 0.930 . S
C242 C241 1.361 . S
C242 C243 1.399 . S
C243 H203 0.929 . S
C243 C238 1.386 . S
C243 C242 1.399 . S
C244 C223 1.485 . S
C244 C245 1.394 . S
C244 C249 1.360 . S
C245 H204 0.931 . S
C245 C244 1.394 . S
C245 C246 1.372 . S
C246 H205 0.930 . S
C246 C245 1.372 . S
C246 C247 1.397 . S
C247 C246 1.397 . S
C247 C248 1.390 . S
C247 C263 1.476 . S
C248 H206 0.930 . S
C248 C247 1.390 . S
C248 C249 1.366 . S
C249 H207 0.932 . S
C249 C244 1.360 . S
C249 C248 1.366 . S
C250 C224 1.490 . S
C250 C251 1.380 . S
C250 C255 1.386 . S
C251 H208 0.930 . S
C251 C250 1.380 . S
C251 C252 1.381 . S
C252 H209 0.929 . S
C252 C251 1.381 . S
C252 C253 1.371 . S
C253 C252 1.371 . S
C253 C254 1.380 . S
C254 H210 0.931 . S
C254 C253 1.380 . S
C254 C255 1.387 . S
C255 H211 0.930 . S
C255 C250 1.386 . S
C255 C254 1.387 . S
C256 C225 1.519 . S
C256 C257 1.377 . S
C256 C261 1.361 . S
C257 H212 0.929 . S
C257 C256 1.377 . S
C257 C258 1.386 . S
C258 H213 0.931 . S
C258 C257 1.386 . S
C258 C259 1.363 . S
C259 C258 1.363 . S
C259 C260 1.385 . S
C260 H214 0.930 . S
C260 C259 1.385 . S
C260 C261 1.396 . S
C261 H215 0.929 . S
C261 C256 1.361 . S
C261 C260 1.396 . S
C262 O216 1.300 . S
C262 O217 1.209 . S
C262 C235 1.486 . S
C263 O218 1.199 . S
C263 O219 1.297 . S
C263 C247 1.476 . S
H264 C270 0.930 . S
H265 C273 0.930 . S
H266 C274 0.930 . S
H267 C275 0.930 . S
H268 C278 0.930 . S
H269 C279 0.930 . S
C270 H264 0.930 . S
C270 C271 1.355 . S
C270 C272 1.415 . S
C271 C270 1.355 . S
C271 C273 1.419 1_455 S
C272 C270 1.415 . S
C272 C277 1.425 . S
C272 C279 1.409 . S
C273 H265 0.930 . S
C273 C271 1.419 1_655 S
C273 C274 1.362 . S
C274 H266 0.930 . S
C274 C273 1.362 . S
C274 C277 1.409 1_655 S
C275 H267 0.930 . S
C275 C276 1.355 1_655 S
C275 C277 1.415 1_655 S
C276 C275 1.355 1_455 S
C276 C278 1.419 . S
C277 C272 1.425 . S
C277 C274 1.409 1_455 S
C277 C275 1.415 1_455 S
C278 H268 0.930 . S
C278 C276 1.419 . S
C278 C279 1.362 . S
C279 H269 0.930 . S
C279 C272 1.409 . S
C279 C278 1.362 . S
H280 C286 0.930 . S
H281 C289 0.930 . S
H282 C290 0.930 . S
H283 C291 0.931 1_565 S
H284 C294 0.930 . S
H285 C295 0.930 . S
C286 H280 0.930 . S
C286 C287 1.355 . S
C286 C288 1.415 . S
C287 C286 1.355 . S
C287 C289 1.419 1_545 S
C288 C286 1.415 . S
C288 C293 1.425 . S
C288 C295 1.409 . S
C289 H281 0.930 . S
C289 C287 1.419 1_565 S
C289 C290 1.362 . S
C290 H282 0.930 . S
C290 C289 1.362 . S
C290 C293 1.409 1_565 S
C291 H283 0.931 1_545 S
C291 C292 1.355 . S
C291 C293 1.415 . S
C292 C291 1.355 . S
C292 C294 1.419 . S
C293 C288 1.425 . S
C293 C290 1.409 1_545 S
C293 C291 1.415 . S
C294 H284 0.930 . S
C294 C292 1.419 . S
C294 C295 1.362 . S
C295 H285 0.930 . S
C295 C288 1.409 . S
C295 C294 1.362 . S
H296 C302 0.930 . S
H297 C305 0.930 1_455 S
H298 C306 0.930 . S
H299 C307 0.930 . S
H300 C310 0.930 . S
H301 C311 0.930 . S
C302 H296 0.930 . S
C302 C303 1.355 . S
C302 C304 1.415 . S
C303 C302 1.355 . S
C303 C305 1.419 . S
C304 C302 1.415 . S
C304 C309 1.425 . S
C304 C311 1.409 . S
C305 H297 0.930 1_655 S
C305 C303 1.419 . S
C305 C306 1.362 . S
C306 H298 0.930 . S
C306 C305 1.362 . S
C306 C309 1.409 . S
C307 H299 0.930 . S
C307 C308 1.355 . S
C307 C309 1.415 . S
C308 C307 1.355 . S
C308 C310 1.419 . S
C309 C304 1.425 . S
C309 C306 1.409 . S
C309 C307 1.415 . S
C310 H300 0.930 . S
C310 C308 1.419 . S
C310 C311 1.362 . S
C311 H301 0.930 . S
C311 C304 1.409 . S
C311 C310 1.362 . S
H312 C318 0.930 . S
H313 C321 0.930 . S
H314 C322 0.930 . S
H315 C323 0.930 . S
H316 C326 0.930 1_655 S
H317 C327 0.930 1_655 S
C318 H312 0.930 . S
C318 C319 1.355 . S
C318 C320 1.415 . S
C319 C318 1.355 . S
C319 C321 1.419 . S
C320 C318 1.415 . S
C320 C325 1.425 . S
C320 C327 1.409 . S
C321 H313 0.930 . S
C321 C319 1.419 . S
C321 C322 1.362 . S
C322 H314 0.930 . S
C322 C321 1.362 . S
C322 C325 1.409 . S
C323 H315 0.930 . S
C323 C324 1.355 . S
C323 C325 1.415 . S
C324 C323 1.355 . S
C324 C326 1.419 . S
C325 C320 1.425 . S
C325 C322 1.409 . S
C325 C323 1.415 . S
C326 H316 0.930 1_455 S
C326 C324 1.419 . S
C326 C327 1.362 . S
C327 H317 0.930 1_455 S
C327 C320 1.409 . S
C327 C326 1.362 . S
H328 C334 0.930 . S
H329 C337 0.930 . S
H330 C338 0.930 . S
H331 C339 0.930 . S
H332 C342 0.930 . S
H333 C343 0.930 . S
C334 H328 0.930 . S
C334 C335 1.355 . S
C334 C336 1.415 . S
C335 C334 1.355 . S
C335 C337 1.419 . S
C336 C334 1.415 . S
C336 C341 1.425 . S
C336 C343 1.409 . S
C337 H329 0.930 . S
C337 C335 1.419 . S
C337 C338 1.362 . S
C338 H330 0.930 . S
C338 C337 1.362 . S
C338 C341 1.409 . S
C339 H331 0.930 . S
C339 C340 1.355 . S
C339 C341 1.415 . S
C340 C339 1.355 . S
C340 C342 1.419 . S
C341 C336 1.425 . S
C341 C338 1.409 . S
C341 C339 1.415 . S
C342 H332 0.930 . S
C342 C340 1.419 . S
C342 C343 1.362 . S
C343 H333 0.930 . S
C343 C336 1.409 . S
C343 C342 1.362 . S
H344 C350 0.930 . S
H345 C353 0.930 . S
H346 C354 0.930 . S
H347 C355 0.930 . S
H348 C358 0.930 . S
H349 C359 0.930 . S
C350 H344 0.930 . S
C350 C351 1.355 . S
C350 C352 1.415 . S
C351 C350 1.355 . S
C351 C353 1.419 . S
C352 C350 1.415 . S
C352 C357 1.425 . S
C352 C359 1.409 . S
C353 H345 0.930 . S
C353 C351 1.419 . S
C353 C354 1.362 . S
C354 H346 0.930 . S
C354 C353 1.362 . S
C354 C357 1.409 . S
C355 H347 0.930 . S
C355 C356 1.355 . S
C355 C357 1.415 . S
C356 C355 1.355 . S
C356 C358 1.419 . S
C357 C352 1.425 . S
C357 C354 1.409 . S
C357 C355 1.415 . S
C358 H348 0.930 . S
C358 C356 1.419 . S
C358 C359 1.362 . S
C359 H349 0.930 . S
C359 C352 1.409 . S
C359 C358 1.362 . S
H360 C366 0.930 . S
H361 C369 0.930 . S
H362 C370 0.930 . S
H363 C371 0.930 . S
H364 C374 0.930 . S
H365 C375 0.930 . S
C366 H360 0.930 . S
C366 C367 1.355 . S
C366 C368 1.415 . S
C367 C366 1.355 . S
C367 C369 1.419 . S
C368 C366 1.415 . S
C368 C373 1.425 . S
C368 C375 1.409 . S
C369 H361 0.930 . S
C369 C367 1.419 . S
C369 C370 1.362 . S
C370 H362 0.930 . S
C370 C369 1.362 . S
C370 C373 1.409 . S
C371 H363 0.930 . S
C371 C372 1.355 . S
C371 C373 1.415 . S
C372 C371 1.355 . S
C372 C374 1.419 . S
C373 C368 1.425 . S
C373 C370 1.409 . S
C373 C371 1.415 . S
C374 H364 0.930 . S
C374 C372 1.419 . S
C374 C375 1.362 . S
C375 H365 0.930 . S
C375 C368 1.409 . S
C375 C374 1.362 . S
H376 C382 0.930 . S
H377 C385 0.930 1_455 S
H378 C386 0.944 . S
H379 C387 0.930 . S
H380 C390 0.930 . S
H381 C391 0.930 . S
C382 H376 0.930 . S
C382 C383 1.355 . S
C382 C384 1.415 . S
C383 C382 1.355 . S
C383 C385 1.419 . S
C384 C382 1.415 . S
C384 C389 1.425 1_554 S
C384 C391 1.409 . S
C385 H377 0.930 1_655 S
C385 C383 1.419 . S
C385 C386 1.346 1_554 S
C386 H378 0.944 . S
C386 C385 1.346 1_556 S
C386 C389 1.412 . S
C387 H379 0.930 . S
C387 C388 1.355 . S
C387 C389 1.415 . S
C388 C387 1.355 . S
C388 C390 1.419 . S
C389 C384 1.425 1_556 S
C389 C386 1.412 . S
C389 C387 1.415 . S
C390 H380 0.930 . S
C390 C388 1.419 . S
C390 C391 1.362 1_556 S
C391 H381 0.930 . S
C391 C384 1.409 . S
C391 C390 1.362 1_554 S
H392 C398 0.930 . S
H393 C401 0.930 . S
H394 C402 0.930 . S
H395 C403 0.930 . S
H396 C406 0.930 . S
H397 C407 0.930 . S
C398 H392 0.930 . S
C398 C399 1.355 . S
C398 C400 1.415 . S
C399 C398 1.355 . S
C399 C401 1.419 . S
C400 C398 1.415 . S
C400 C405 1.425 . S
C400 C407 1.409 . S
C401 H393 0.930 . S
C401 C399 1.419 . S
C401 C402 1.362 . S
C402 H394 0.930 . S
C402 C401 1.362 . S
C402 C405 1.409 . S
C403 H395 0.930 . S
C403 C404 1.355 . S
C403 C405 1.415 . S
C404 C403 1.355 . S
C404 C406 1.419 . S
C405 C400 1.425 . S
C405 C402 1.409 . S
C405 C403 1.415 . S
C406 H396 0.930 . S
C406 C404 1.419 . S
C406 C407 1.362 . S
C407 H397 0.930 . S
C407 C400 1.409 . S
C407 C406 1.362 . S
H408 C414 0.930 . S
H409 C417 0.930 . S
H410 C418 0.930 . S
H411 C419 0.930 . S
H412 C422 0.930 . S
H413 C423 0.930 . S
C414 H408 0.930 . S
C414 C415 1.355 . S
C414 C416 1.415 . S
C415 C414 1.355 . S
C415 C417 1.419 . S
C416 C414 1.415 . S
C416 C421 1.425 . S
C416 C423 1.409 . S
C417 H409 0.930 . S
C417 C415 1.419 . S
C417 C418 1.362 . S
C418 H410 0.930 . S
C418 C417 1.362 . S
C418 C421 1.409 . S
C419 H411 0.930 . S
C419 C420 1.355 . S
C419 C421 1.415 . S
C420 C419 1.355 . S
C420 C422 1.419 . S
C421 C416 1.425 . S
C421 C418 1.409 . S
C421 C419 1.415 . S
C422 H412 0.930 . S
C422 C420 1.419 . S
C422 C423 1.362 . S
C423 H413 0.930 . S
C423 C416 1.409 . S
C423 C422 1.362 . S
H424 C430 0.930 . S
H425 C433 0.930 . S
H426 C434 0.930 . S
H427 C435 0.919 1_556 S
H428 C438 0.930 . S
H429 C439 0.930 . S
C430 H424 0.930 . S
C430 C431 1.355 . S
C430 C432 1.415 . S
C431 C430 1.355 . S
C431 C433 1.419 . S
C432 C430 1.415 . S
C432 C437 1.425 . S
C432 C439 1.409 . S
C433 H425 0.930 . S
C433 C431 1.419 . S
C433 C434 1.362 . S
C434 H426 0.930 . S
C434 C433 1.362 . S
C434 C437 1.409 . S
C435 H427 0.919 1_554 S
C435 C436 1.361 . S
C435 C437 1.415 . S
C436 C435 1.361 . S
C436 C438 1.429 . S
C437 C432 1.425 . S
C437 C434 1.409 . S
C437 C435 1.415 . S
C438 H428 0.930 . S
C438 C436 1.429 . S
C438 C439 1.362 . S
C439 H429 0.930 . S
C439 C432 1.409 . S
C439 C438 1.362 . S
H440 C446 0.930 1_655 S
H441 C449 0.930 . S
H442 C450 0.930 . S
H443 C451 0.930 . S
H444 C454 0.930 . S
H445 C455 0.930 1_655 S
C446 H440 0.930 1_455 S
C446 C447 1.355 . S
C446 C448 1.415 . S
C447 C446 1.355 . S
C447 C449 1.419 . S
C448 C446 1.415 . S
C448 C453 1.425 . S
C448 C455 1.409 . S
C449 H441 0.930 . S
C449 C447 1.419 . S
C449 C450 1.362 . S
C450 H442 0.930 . S
C450 C449 1.362 . S
C450 C453 1.409 . S
C451 H443 0.930 . S
C451 C452 1.355 . S
C451 C453 1.415 . S
C452 C451 1.355 . S
C452 C454 1.419 . S
C453 C448 1.425 . S
C453 C450 1.409 . S
C453 C451 1.415 . S
C454 H444 0.930 . S
C454 C452 1.419 . S
C454 C455 1.362 . S
C455 H445 0.930 1_455 S
C455 C448 1.409 . S
C455 C454 1.362 . S
C276 C81 1.434 . S
C271 C0 1.558 . S
C287 C25 1.523 . S
C292 C155 1.432 . S
C303 C33 2.083 1_665 S
C308 C259 2.084 . S
C319 C11 0.849 . S
C324 C93 0.833 . S
C340 C167 0.889 . S
C335 C14 0.894 . S
C351 C37 1.650 . S
C356 C253 1.525 . S
C372 C185 2.072 . S
C367 C28 2.081 1_655 S
C383 C9 1.605 . S
C388 C229 1.476 . S
C404 C105 1.494 . S
C399 C19 1.673 . S
C420 C179 1.498 . S
C415 C39 1.582 . S
C436 C241 0.880 1_554 S
C431 C5 0.878 . S
C447 C23 2.182 . S
C452 C111 2.177 . S
