# Generated by pormake.
# Topology ssa, (4,4)-cn, num edge types: 1
# Building blocks:
#     Node 0, Type 0, BuildingBlock: IZENUY_clean_linker_0, # of connection points: 4
#     Node 1, Type 0, BuildingBlock: IZENUY_clean_linker_0, # of connection points: 4
#     Node 2, Type 0, BuildingBlock: IZENUY_clean_linker_0, # of connection points: 4
#     Node 3, Type 0, BuildingBlock: IZENUY_clean_linker_0, # of connection points: 4
#     Node 4, Type 0, BuildingBlock: IZENUY_clean_linker_0, # of connection points: 4
#     Node 5, Type 0, BuildingBlock: IZENUY_clean_linker_0, # of connection points: 4
#     Node 6, Type 1, BuildingBlock: KOZSID_clean_sbu_0, # of connection points: 4
#     Node 7, Type 1, BuildingBlock: KOZSID_clean_sbu_0, # of connection points: 4
#     Node 8, Type 1, BuildingBlock: KOZSID_clean_sbu_0, # of connection points: 4
#     Node 9, Type 1, BuildingBlock: KOZSID_clean_sbu_0, # of connection points: 4
#     Node 10, Type 1, BuildingBlock: KOZSID_clean_sbu_0, # of connection points: 4
#     Node 11, Type 1, BuildingBlock: KOZSID_clean_sbu_0, # of connection points: 4
#     Edge 12, Type (0, 1), None
#     Edge 13, Type (0, 1), None
#     Edge 14, Type (0, 1), None
#     Edge 15, Type (0, 1), None
#     Edge 16, Type (0, 1), None
#     Edge 17, Type (0, 1), None
#     Edge 18, Type (0, 1), None
#     Edge 19, Type (0, 1), None
#     Edge 20, Type (0, 1), None
#     Edge 21, Type (0, 1), None
#     Edge 22, Type (0, 1), None
#     Edge 23, Type (0, 1), None
#     Edge 24, Type (0, 1), None
#     Edge 25, Type (0, 1), None
#     Edge 26, Type (0, 1), None
#     Edge 27, Type (0, 1), None
#     Edge 28, Type (0, 1), None
#     Edge 29, Type (0, 1), None
#     Edge 30, Type (0, 1), None
#     Edge 31, Type (0, 1), None
#     Edge 32, Type (0, 1), None
#     Edge 33, Type (0, 1), None
#     Edge 34, Type (0, 1), None
#     Edge 35, Type (0, 1), None
# Relax obj value: 0.004
# Max RMSD: 0.053
# Mean RMSD: 0.023
data_MOF--net-ssa--node1-KOZSID_clean_sbu_0--node2-IZENUY_clean_linker_0--edge1-none
_symmetry_space_group_name_H-M    P1
_symmetry_Int_Tables_number       1
_symmetry_cell_setting            triclinic
loop_
_symmetry_equiv_pos_as_xyz
'x, y, z'
_cell_length_a     30.237064
_cell_length_b     30.218099
_cell_length_c     22.082463
_cell_angle_alpha  96.715418
_cell_angle_beta   96.388277
_cell_angle_gamma 119.57592
loop_
_atom_site_label
_atom_site_type_symbol
_atom_site_fract_x
_atom_site_fract_y
_atom_site_fract_z
_atom_type_partial_charge
H0 H 0.92918 0.41489 0.98272 0.0
H1 H 0.9212 0.55006 0.96631 0.0
H2 H 0.90313 0.44586 0.8061 0.0
H3 H 0.07859 0.60039 0.07281 0.0
H4 H 0.05286 0.45243 0.10559 0.0
H5 H 0.2052 0.57506 0.12397 0.0
N6 N 0.98731 0.52025 0.02278 0.0
N7 N 1.00847 0.49755 0.0458 0.0
C8 C 0.9231 0.43842 0.95323 0.0
C9 C 0.8998 0.41704 0.89126 0.0
C10 C 0.94085 0.49105 0.97605 0.0
C11 C 0.918 0.51518 0.94231 0.0
C12 C 0.89207 0.4927 0.87833 0.0
C13 C 0.89974 0.45207 0.85403 0.0
C14 C 0.0945 0.57713 0.08565 0.0
C15 C 0.14849 0.59973 0.10462 0.0
C16 C 0.06034 0.52311 0.0805 0.0
C17 C 0.07964 0.49224 0.1029 0.0
C18 C 0.13338 0.51298 0.12105 0.0
C19 C 0.16574 0.56408 0.11369 0.0
H20 H 0.60449 0.0832 0.54689 0.0
H21 H 0.47214 0.09761 0.55743 0.0
H22 H 0.57153 0.11314 0.72134 0.0
H23 H 0.42127 0.95532 0.42419 0.0
H24 H 0.56329 0.95286 0.43751 0.0
H25 H 0.42589 0.83691 0.30513 0.0
N26 N 0.50203 0.0333 0.49731 0.0
N27 N 0.52214 0.00772 0.47859 0.0
C28 C 0.58065 0.08987 0.57552 0.0
C29 C 0.60145 0.11445 0.63705 0.0
C30 C 0.52934 0.0748 0.55048 0.0
C31 C 0.50544 0.09892 0.58283 0.0
C32 C 0.52627 0.12404 0.64732 0.0
C33 C 0.56601 0.11573 0.67308 0.0
C34 C 0.44315 0.93913 0.40594 0.0
C35 C 0.41701 0.89237 0.36286 0.0
C36 C 0.49653 0.9623 0.4305 0.0
C37 C 0.52371 0.93643 0.41405 0.0
C38 C 0.49903 0.88892 0.37027 0.0
C39 C 0.44659 0.87103 0.3416 0.0
H40 H 0.45423 0.41534 0.93711 0.0
H41 H 0.60914 0.5394 0.94261 0.0
H42 H 0.53934 0.40101 0.80137 0.0
H43 H 0.55961 0.60658 0.06965 0.0
H44 H 0.40735 0.47906 0.06976 0.0
H45 H 0.47742 0.61683 0.21084 0.0
N46 N 0.52714 0.51697 0.99216 0.0
N47 N 0.48796 0.50391 0.0163 0.0
C48 C 0.48745 0.43275 0.91496 0.0
C49 C 0.49172 0.40165 0.86525 0.0
C50 C 0.52901 0.48424 0.94073 0.0
C51 C 0.57602 0.50233 0.91887 0.0
C52 C 0.58114 0.47186 0.86954 0.0
C53 C 0.53639 0.42481 0.83902 0.0
C54 C 0.52714 0.5885 0.09283 0.0
C55 C 0.52368 0.6186 0.1444 0.0
C56 C 0.48617 0.53642 0.06803 0.0
C57 C 0.44005 0.51683 0.09228 0.0
C58 C 0.43535 0.54636 0.14304 0.0
C59 C 0.47975 0.59429 0.17177 0.0
H60 H 0.05367 0.46503 0.45784 0.0
H61 H 0.05369 0.60446 0.43272 0.0
H62 H 0.18674 0.59104 0.41412 0.0
H63 H 0.94061 0.53602 0.52803 0.0
H64 H 0.93299 0.3922 0.54861 0.0
H65 H 0.81998 0.42557 0.6069 0.0
N66 N 1.00464 0.51866 0.47986 0.0
N67 N 0.98401 0.47813 0.50166 0.0
C68 C 0.07361 0.50429 0.44957 0.0
C69 C 0.12188 0.5238 0.43185 0.0
C70 C 0.05074 0.53515 0.45511 0.0
C71 C 0.07366 0.58301 0.43467 0.0
C72 C 0.1223 0.60298 0.41683 0.0
C73 C 0.14794 0.57505 0.42252 0.0
C74 C 0.92043 0.49769 0.53901 0.0
C75 C 0.87765 0.48391 0.56748 0.0
C76 C 0.93926 0.46357 0.52891 0.0
C77 C 0.91616 0.4166 0.55142 0.0
C78 C 0.87246 0.40234 0.57951 0.0
C79 C 0.85227 0.43518 0.58382 0.0
H80 H 0.4743 0.06504 0.98429 0.0
H81 H 0.62196 0.08045 0.96802 0.0
H82 H 0.58666 0.19362 0.91624 0.0
H83 H 0.562 0.96642 0.05318 0.0
H84 H 0.40744 0.93374 0.06859 0.0
H85 H 0.47864 0.86208 0.16578 0.0
N86 N 0.53618 0.02541 0.0114 0.0
N87 N 0.494 0.99841 0.02796 0.0
C88 C 0.51298 0.08704 0.97477 0.0
C89 C 0.5272 0.132 0.95042 0.0
C90 C 0.54817 0.06958 0.98419 0.0
C91 C 0.59637 0.09591 0.9651 0.0
C92 C 0.61081 0.14118 0.9407 0.0
C93 C 0.57686 0.16002 0.93683 0.0
C94 C 0.5263 0.94565 0.07006 0.0
C95 C 0.52165 0.90985 0.10669 0.0
C96 C 0.48604 0.95639 0.05819 0.0
C97 C 0.43899 0.92682 0.07962 0.0
C98 C 0.43385 0.8892 0.116 0.0
C99 C 0.47754 0.88486 0.13196 0.0
H100 H 0.41096 0.46215 0.45367 0.0
H101 H 0.54597 0.60857 0.45242 0.0
H102 H 0.41524 0.53762 0.30012 0.0
H103 H 0.60144 0.5616 0.58721 0.0
H104 H 0.47741 0.40639 0.58067 0.0
H105 H 0.61437 0.47713 0.72362 0.0
N106 N 0.5152 0.52831 0.50724 0.0
N107 N 0.50076 0.48882 0.53092 0.0
C108 C 0.43225 0.4926 0.42889 0.0
C109 C 0.40595 0.49664 0.37423 0.0
C110 C 0.48516 0.53109 0.45408 0.0
C111 C 0.50832 0.57639 0.42868 0.0
C112 C 0.48216 0.58091 0.37493 0.0
C113 C 0.43487 0.53665 0.34356 0.0
C114 C 0.58367 0.52844 0.60933 0.0
C115 C 0.61429 0.52426 0.65917 0.0
C116 C 0.53241 0.48681 0.58313 0.0
C117 C 0.51414 0.43971 0.60485 0.0
C118 C 0.54431 0.43484 0.65458 0.0
C119 C 0.59086 0.47985 0.68562 0.0
C120 C 0.18577 0.52896 0.22695 0.0
C121 C 0.17155 0.56345 0.2506 0.0
C122 C 0.20562 0.59171 0.30411 0.0
C123 C 0.23781 0.57266 0.3113 0.0
N124 N 0.22711 0.5336 0.26489 0.0
Co125 Co 0.2448 0.47978 0.27736 0.0
N126 N 0.30226 0.52744 0.34939 0.0
C127 C 0.31015 0.57247 0.38054 0.0
C128 C 0.35026 0.59559 0.43088 0.0
C129 C 0.36926 0.56299 0.43179 0.0
C130 C 0.33929 0.52187 0.38175 0.0
N131 N 0.26115 0.42551 0.2943 0.0
C132 C 0.30553 0.43089 0.32639 0.0
C133 C 0.30267 0.38347 0.32108 0.0
C134 C 0.2552 0.34741 0.28404 0.0
C135 C 0.23146 0.37465 0.26878 0.0
N136 N 0.18843 0.43387 0.20261 0.0
C137 C 0.16892 0.38252 0.18565 0.0
C138 C 0.13037 0.3604 0.13317 0.0
C139 C 0.12452 0.40012 0.11669 0.0
C140 C 0.15969 0.44452 0.16009 0.0
N141 N 0.29619 0.50078 0.22155 0.0
C142 C 0.38436 0.5298 0.165 0.0
C143 C 0.34703 0.47757 0.16118 0.0
C144 C 0.30281 0.4641 0.18748 0.0
C145 C 0.37242 0.56659 0.19136 0.0
C146 C 0.32991 0.55176 0.2217 0.0
N147 N 0.19364 0.45863 0.33375 0.0
C148 C 0.11575 0.4592 0.34637 0.0
C149 C 0.13938 0.4886 0.40653 0.0
C150 C 0.18579 0.49294 0.43365 0.0
C151 C 0.21067 0.47444 0.39698 0.0
C152 C 0.14319 0.44385 0.311 0.0
H153 H 0.24689 0.47924 0.41868 0.0
H154 H 0.12507 0.42587 0.26333 0.0
H155 H 0.27547 0.42348 0.18252 0.0
H156 H 0.32526 0.58146 0.24713 0.0
C157 C 0.27743 0.59007 0.36252 0.0
C158 C 0.15847 0.49346 0.16723 0.0
C159 C 0.34931 0.47997 0.36485 0.0
C160 C 0.18919 0.35744 0.21938 0.0
H161 H 0.13998 0.56781 0.23063 0.0
H162 H 0.20908 0.62462 0.3334 0.0
H163 H 0.36372 0.6315 0.46323 0.0
H164 H 0.40148 0.56867 0.46532 0.0
H165 H 0.33206 0.37602 0.34126 0.0
H166 H 0.24127 0.30681 0.26694 0.0
H167 H 0.10844 0.31997 0.11011 0.0
H168 H 0.09576 0.39633 0.07929 0.0
H169 H 0.35229 0.44688 0.13963 0.0
H170 H 0.39641 0.60687 0.18959 0.0
H171 H 0.07902 0.45353 0.32415 0.0
H172 H 0.20452 0.5137 0.48103 0.0
C173 C 0.66322 0.2105 0.66015 0.0
C174 C 0.6308 0.22328 0.62698 0.0
C175 C 0.64116 0.26992 0.65895 0.0
C176 C 0.67977 0.28297 0.70867 0.0
N177 N 0.69543 0.24824 0.70949 0.0
Co178 Co 0.75881 0.25818 0.76246 0.0
N179 N 0.7674 0.32152 0.81474 0.0
C180 C 0.73238 0.33689 0.81402 0.0
C181 C 0.7443 0.37563 0.86328 0.0
C182 C 0.79052 0.3865 0.89657 0.0
C183 C 0.80423 0.35414 0.86469 0.0
N184 N 0.82404 0.27194 0.81542 0.0
C185 C 0.85996 0.3151 0.85874 0.0
C186 C 0.90286 0.31165 0.8793 0.0
C187 C 0.89348 0.26478 0.84782 0.0
C188 C 0.84564 0.24247 0.80939 0.0
N189 N 0.74654 0.19309 0.71012 0.0
C190 C 0.77696 0.1726 0.71628 0.0
C191 C 0.75555 0.12461 0.67812 0.0
C192 C 0.7083 0.11399 0.64671 0.0
C193 C 0.70377 0.15638 0.66699 0.0
N194 N 0.80052 0.29824 0.70142 0.0
C195 C 0.85292 0.36004 0.61602 0.0
C196 C 0.87714 0.37033 0.67773 0.0
C197 C 0.85096 0.33884 0.71882 0.0
C198 C 0.80432 0.31482 0.59596 0.0
C199 C 0.78004 0.28363 0.63857 0.0
N200 N 0.71844 0.21626 0.82329 0.0
C201 C 0.64689 0.13842 0.84554 0.0
C202 C 0.65434 0.16299 0.90626 0.0
C203 C 0.69831 0.21247 0.92731 0.0
C204 C 0.73088 0.2372 0.88595 0.0
C205 C 0.67938 0.16506 0.80572 0.0
H206 H 0.76514 0.27379 0.9055 0.0
H207 H 0.66944 0.14346 0.76027 0.0
H208 H 0.87174 0.35078 0.76512 0.0
H209 H 0.74409 0.24845 0.61968 0.0
C210 C 0.69471 0.32121 0.76101 0.0
C211 C 0.65646 0.15916 0.65106 0.0
C212 C 0.85582 0.3616 0.87559 0.0
C213 C 0.82207 0.19721 0.76286 0.0
H214 H 0.6005 0.19965 0.58656 0.0
H215 H 0.62045 0.28989 0.64971 0.0
H216 H 0.72387 0.3961 0.8714 0.0
H217 H 0.81341 0.41721 0.93694 0.0
H218 H 0.93774 0.34067 0.91195 0.0
H219 H 0.91956 0.24995 0.85058 0.0
H220 H 0.77119 0.09919 0.67563 0.0
H221 H 0.67972 0.07857 0.61448 0.0
H222 H 0.91488 0.40487 0.69557 0.0
H223 H 0.7842 0.3046 0.54821 0.0
H224 H 0.61375 0.09978 0.82727 0.0
H225 H 0.70656 0.23271 0.97469 0.0
C226 C 0.51081 0.69179 0.13192 0.0
C227 C 0.47146 0.66481 0.07959 0.0
C228 C 0.43428 0.677 0.08775 0.0
C229 C 0.45355 0.71121 0.14371 0.0
N230 N 0.5007 0.72196 0.17095 0.0
Co231 Co 0.54553 0.77536 0.24735 0.0
N232 N 0.48847 0.78613 0.26432 0.0
C233 C 0.43856 0.75179 0.23962 0.0
C234 C 0.41118 0.73448 0.2856 0.0
C235 C 0.44212 0.7673 0.33991 0.0
C236 C 0.48698 0.80101 0.32317 0.0
N237 N 0.58856 0.83065 0.32458 0.0
C238 C 0.57622 0.86179 0.36191 0.0
C239 C 0.62046 0.90083 0.40279 0.0
C240 C 0.66113 0.89476 0.38976 0.0
C241 C 0.64009 0.85234 0.34166 0.0
N242 N 0.60118 0.76228 0.2292 0.0
C243 C 0.65105 0.791 0.2584 0.0
C244 C 0.67836 0.76699 0.24406 0.0
C245 C 0.64316 0.72041 0.20401 0.0
C246 C 0.59601 0.71811 0.19607 0.0
N247 N 0.56771 0.83053 0.19606 0.0
C248 C 0.56258 0.89837 0.12451 0.0
C249 C 0.58737 0.91694 0.18656 0.0
C250 C 0.58825 0.88205 0.22189 0.0
C251 C 0.55475 0.85075 0.09558 0.0
C252 C 0.55928 0.81798 0.13239 0.0
N253 N 0.52604 0.7204 0.29908 0.0
C254 C 0.55075 0.67289 0.36381 0.0
C255 C 0.49901 0.63204 0.35443 0.0
C256 C 0.46154 0.64021 0.32335 0.0
C257 C 0.47597 0.6814 0.29248 0.0
C258 C 0.563 0.71737 0.33787 0.0
H259 H 0.44653 0.67755 0.25827 0.0
H260 H 0.60295 0.74772 0.34695 0.0
H261 H 0.60278 0.89789 0.27008 0.0
H262 H 0.55207 0.78145 0.10852 0.0
C263 C 0.42427 0.72267 0.17942 0.0
C264 C 0.54819 0.67686 0.15162 0.0
C265 C 0.52229 0.85334 0.35648 0.0
C266 C 0.66653 0.83274 0.30871 0.0
H267 H 0.46763 0.63521 0.04308 0.0
H268 H 0.39584 0.65907 0.05952 0.0
H269 H 0.38108 0.69517 0.28188 0.0
H270 H 0.43575 0.76545 0.38678 0.0
H271 H 0.6236 0.93074 0.43796 0.0
H272 H 0.70156 0.91932 0.4119 0.0
H273 H 0.71834 0.78016 0.26325 0.0
H274 H 0.6511 0.69149 0.18313 0.0
H275 H 0.59635 0.95476 0.21028 0.0
H276 H 0.53805 0.83584 0.04645 0.0
H277 H 0.58177 0.6704 0.38959 0.0
H278 H 0.4206 0.61282 0.31823 0.0
C279 C 0.7156 0.59072 0.70263 0.0
C280 C 0.72192 0.63965 0.71393 0.0
C281 C 0.77121 0.67233 0.74891 0.0
C282 C 0.79238 0.64159 0.75669 0.0
N283 N 0.75955 0.59194 0.72869 0.0
Co284 Co 0.77043 0.53287 0.73778 0.0
N285 N 0.82912 0.5725 0.81192 0.0
C286 C 0.85342 0.62458 0.83002 0.0
C287 C 0.8975 0.64467 0.87425 0.0
C288 C 0.90219 0.60316 0.88426 0.0
C289 C 0.85973 0.55869 0.84693 0.0
N290 N 0.78087 0.47346 0.74294 0.0
C291 C 0.8159 0.46768 0.78105 0.0
C292 C 0.81106 0.42064 0.75648 0.0
C293 C 0.77646 0.39866 0.70304 0.0
C294 C 0.75899 0.43092 0.69669 0.0
N295 N 0.71157 0.49231 0.66441 0.0
C296 C 0.69928 0.44766 0.62797 0.0
C297 C 0.66321 0.43284 0.57488 0.0
C298 C 0.65134 0.4709 0.57773 0.0
C299 C 0.68103 0.50613 0.63281 0.0
N300 N 0.8205 0.55378 0.68028 0.0
C301 C 0.86799 0.52357 0.5977 0.0
C302 C 0.82427 0.52586 0.57531 0.0
C303 C 0.8031 0.5447 0.61746 0.0
C304 C 0.8938 0.54777 0.65889 0.0
C305 C 0.86957 0.56306 0.69942 0.0
N306 N 0.72046 0.51258 0.7954 0.0
C307 C 0.64382 0.44839 0.8266 0.0
C308 C 0.63291 0.48644 0.85137 0.0
C309 C 0.67188 0.53821 0.85655 0.0
C310 C 0.71608 0.55012 0.83112 0.0
C311 C 0.68648 0.46191 0.79679 0.0
H312 H 0.74513 0.59041 0.83777 0.0
H313 H 0.6904 0.43125 0.77262 0.0
H314 H 0.7693 0.54588 0.59937 0.0
H315 H 0.88914 0.5771 0.74681 0.0
C316 C 0.83535 0.65373 0.80184 0.0
C317 C 0.67093 0.54522 0.66003 0.0
C318 C 0.85611 0.50659 0.83701 0.0
C319 C 0.72286 0.42152 0.64551 0.0
H320 H 0.69398 0.65041 0.69827 0.0
H321 H 0.78822 0.71295 0.76938 0.0
H322 H 0.92504 0.68523 0.8939 0.0
H323 H 0.93649 0.60708 0.91073 0.0
H324 H 0.82663 0.39949 0.7735 0.0
H325 H 0.76419 0.36243 0.67261 0.0
H326 H 0.64706 0.39829 0.53907 0.0
H327 H 0.62242 0.47155 0.54486 0.0
H328 H 0.80428 0.5094 0.52733 0.0
H329 H 0.92891 0.54842 0.67742 0.0
H330 H 0.61824 0.40804 0.82755 0.0
H331 H 0.66786 0.56976 0.87804 0.0
C332 C 0.3143 0.86234 0.32993 0.0
C333 C 0.3117 0.90699 0.33875 0.0
C334 C 0.26214 0.89299 0.30995 0.0
C335 C 0.23674 0.84041 0.28518 0.0
N336 N 0.26748 0.82115 0.29805 0.0
Co337 Co 0.25606 0.75406 0.25596 0.0
N338 N 0.19903 0.74033 0.18877 0.0
C339 C 0.1743 0.76693 0.18915 0.0
C340 C 0.13445 0.74694 0.13836 0.0
C341 C 0.13379 0.70465 0.10527 0.0
C342 C 0.17298 0.70022 0.13777 0.0
N343 N 0.24972 0.69011 0.21368 0.0
C344 C 0.23971 0.67723 0.15164 0.0
C345 C 0.2714 0.65986 0.13182 0.0
C346 C 0.294 0.65248 0.18458 0.0
C347 C 0.27806 0.67004 0.23325 0.0
N348 N 0.30995 0.76333 0.32263 0.0
C349 C 0.31223 0.72436 0.34227 0.0
C350 C 0.34328 0.7396 0.40003 0.0
C351 C 0.36382 0.7925 0.41533 0.0
C352 C 0.34266 0.80519 0.3662 0.0
N353 N 0.20393 0.7147 0.3071 0.0
C354 C 0.14313 0.64679 0.38199 0.0
C355 C 0.18697 0.69539 0.40886 0.0
C356 C 0.21522 0.72959 0.3708 0.0
C357 C 0.1268 0.63608 0.31725 0.0
C358 C 0.15822 0.6696 0.28074 0.0
N359 N 0.30754 0.79463 0.20575 0.0
C360 C 0.38078 0.80971 0.15998 0.0
C361 C 0.3859 0.85449 0.14063 0.0
C362 C 0.3469 0.86556 0.14984 0.0
C363 C 0.30705 0.83388 0.18012 0.0
C364 C 0.34527 0.78411 0.19661 0.0
H365 H 0.27712 0.84275 0.18431 0.0
H366 H 0.3486 0.75577 0.21769 0.0
H367 H 0.24863 0.76658 0.39336 0.0
H368 H 0.14714 0.65638 0.23125 0.0
C369 C 0.19315 0.81252 0.23525 0.0
C370 C 0.35889 0.85662 0.35534 0.0
C371 C 0.18693 0.6593 0.11999 0.0
C372 C 0.29978 0.68203 0.29669 0.0
H373 H 0.34241 0.94553 0.36207 0.0
H374 H 0.24808 0.91913 0.3033 0.0
H375 H 0.10961 0.76204 0.12573 0.0
H376 H 0.10858 0.68134 0.06125 0.0
H377 H 0.27052 0.64487 0.08443 0.0
H378 H 0.31988 0.63754 0.18666 0.0
H379 H 0.35493 0.71671 0.42417 0.0
H380 H 0.39355 0.81901 0.45515 0.0
H381 H 0.20089 0.70589 0.4587 0.0
H382 H 0.09318 0.59901 0.29428 0.0
H383 H 0.40528 0.7948 0.14888 0.0
H384 H 0.34719 0.89848 0.13476 0.0
C385 C 0.42521 0.30005 0.82026 0.0
C386 C 0.37633 0.29359 0.80796 0.0
C387 C 0.34418 0.24436 0.77231 0.0
C388 C 0.37509 0.22325 0.76514 0.0
N389 N 0.42438 0.25612 0.79417 0.0
Co390 Co 0.48377 0.24559 0.78583 0.0
N391 N 0.44544 0.18726 0.71094 0.0
C392 C 0.39358 0.16311 0.69148 0.0
C393 C 0.37429 0.11939 0.64656 0.0
C394 C 0.41606 0.11477 0.63759 0.0
C395 C 0.45991 0.15684 0.67636 0.0
N396 N 0.5436 0.23566 0.78148 0.0
C397 C 0.55 0.2006 0.74389 0.0
C398 C 0.59704 0.20589 0.76896 0.0
C399 C 0.61844 0.24094 0.82218 0.0
C400 C 0.58588 0.25809 0.82791 0.0
N401 N 0.52319 0.3043 0.85988 0.0
C402 C 0.56777 0.31708 0.89653 0.0
C403 C 0.58172 0.35274 0.94997 0.0
C404 C 0.54321 0.3639 0.94712 0.0
C405 C 0.50861 0.33427 0.89166 0.0
N406 N 0.46201 0.19478 0.84248 0.0
C407 C 0.48814 0.14314 0.92245 0.0
C408 C 0.48843 0.18818 0.94637 0.0
C409 C 0.47176 0.2116 0.9056 0.0
C410 C 0.46333 0.11848 0.86111 0.0
C411 C 0.45017 0.14481 0.82192 0.0
N412 N 0.50451 0.29591 0.72874 0.0
C413 C 0.56846 0.37289 0.69796 0.0
C414 C 0.53019 0.3832 0.67268 0.0
C415 C 0.47864 0.34374 0.66691 0.0
C416 C 0.46702 0.29969 0.69236 0.0
C417 C 0.55512 0.33032 0.72781 0.0
H418 H 0.4269 0.27022 0.68502 0.0
H419 H 0.58579 0.32674 0.75225 0.0
H420 H 0.47237 0.24617 0.92516 0.0
H421 H 0.43516 0.12557 0.77441 0.0
C422 C 0.36382 0.18073 0.71937 0.0
C423 C 0.47006 0.34469 0.864 0.0
C424 C 0.51184 0.16026 0.68764 0.0
C425 C 0.59452 0.29412 0.87902 0.0
H426 H 0.36527 0.32142 0.82337 0.0
H427 H 0.30384 0.22738 0.75093 0.0
H428 H 0.33399 0.092 0.62574 0.0
H429 H 0.41266 0.08078 0.61058 0.0
H430 H 0.61842 0.19017 0.75255 0.0
H431 H 0.65448 0.25378 0.85294 0.0
H432 H 0.61604 0.36912 0.98599 0.0
H433 H 0.54198 0.39252 0.98011 0.0
H434 H 0.50549 0.20747 0.99453 0.0
H435 H 0.46073 0.08251 0.84133 0.0
H436 H 0.60878 0.39886 0.69737 0.0
H437 H 0.44701 0.34722 0.64489 0.0
loop_
_geom_bond_atom_site_label_1
_geom_bond_atom_site_label_2
_geom_bond_distance
_geom_bond_site_symmetry_2
_ccdc_geom_bond_type
H0 C8 0.940 . S
H1 C11 0.940 . S
H2 C13 0.940 . S
H3 C14 0.940 . S
H4 C17 0.940 . S
H5 C19 0.940 . S
N6 N7 1.189 1_655 S
N6 C10 1.477 1_554 S
N7 N6 1.189 1_455 S
N7 C16 1.477 . S
C8 H0 0.940 . S
C8 C9 1.390 . S
C8 C10 1.322 . S
C9 C8 1.390 . S
C9 C13 1.370 . S
C10 N6 1.477 1_556 S
C10 C8 1.322 . S
C10 C11 1.447 . S
C11 H1 0.940 . S
C11 C10 1.447 . S
C11 C12 1.373 . S
C12 C11 1.373 . S
C12 C13 1.417 . S
C13 H2 0.940 . S
C13 C9 1.370 . S
C13 C12 1.417 . S
C14 H3 0.940 . S
C14 C15 1.390 . S
C14 C16 1.322 . S
C15 C14 1.390 . S
C15 C19 1.370 . S
C16 N7 1.477 . S
C16 C14 1.322 . S
C16 C17 1.447 . S
C17 H4 0.940 . S
C17 C16 1.447 . S
C17 C18 1.373 . S
C18 C17 1.373 . S
C18 C19 1.417 . S
C19 H5 0.940 . S
C19 C15 1.370 . S
C19 C18 1.417 . S
H20 C28 0.940 . S
H21 C31 0.940 . S
H22 C33 0.940 . S
H23 C34 0.940 . S
H24 C37 0.940 . S
H25 C39 0.940 . S
N26 N27 1.206 . S
N26 C30 1.477 . S
N27 N26 1.206 . S
N27 C36 1.463 1_545 S
C28 H20 0.940 . S
C28 C29 1.390 . S
C28 C30 1.322 . S
C29 C28 1.390 . S
C29 C33 1.370 . S
C30 N26 1.477 . S
C30 C28 1.322 . S
C30 C31 1.447 . S
C31 H21 0.940 . S
C31 C30 1.447 . S
C31 C32 1.373 . S
C32 C31 1.373 . S
C32 C33 1.417 . S
C33 H22 0.940 . S
C33 C29 1.370 . S
C33 C32 1.417 . S
C34 H23 0.940 . S
C34 C35 1.390 . S
C34 C36 1.322 . S
C35 C34 1.390 . S
C35 C39 1.370 . S
C36 N27 1.463 1_565 S
C36 C34 1.322 . S
C36 C37 1.447 . S
C37 H24 0.940 . S
C37 C36 1.447 . S
C37 C38 1.373 . S
C38 C37 1.373 . S
C38 C39 1.417 . S
C39 H25 0.940 . S
C39 C35 1.370 . S
C39 C38 1.417 . S
H40 C48 0.940 . S
H41 C51 0.940 . S
H42 C53 0.940 . S
H43 C54 0.940 . S
H44 C57 0.940 . S
H45 C59 0.940 . S
N46 N47 1.190 . S
N46 C50 1.477 . S
N47 N46 1.190 . S
N47 C56 1.477 1_556 S
C48 H40 0.940 . S
C48 C49 1.390 . S
C48 C50 1.322 . S
C49 C48 1.390 . S
C49 C53 1.370 . S
C50 N46 1.477 . S
C50 C48 1.322 . S
C50 C51 1.447 . S
C51 H41 0.940 . S
C51 C50 1.447 . S
C51 C52 1.373 . S
C52 C51 1.373 . S
C52 C53 1.417 . S
C53 H42 0.940 . S
C53 C49 1.370 . S
C53 C52 1.417 . S
C54 H43 0.940 . S
C54 C55 1.390 . S
C54 C56 1.322 . S
C55 C54 1.390 . S
C55 C59 1.370 . S
C56 N47 1.477 1_554 S
C56 C54 1.322 . S
C56 C57 1.447 . S
C57 H44 0.940 . S
C57 C56 1.447 . S
C57 C58 1.373 . S
C58 C57 1.373 . S
C58 C59 1.417 . S
C59 H45 0.940 . S
C59 C55 1.370 . S
C59 C58 1.417 . S
H60 C68 0.940 . S
H61 C71 0.940 . S
H62 C73 0.940 . S
H63 C74 0.940 . S
H64 C77 0.940 . S
H65 C79 0.940 . S
N66 N67 1.190 . S
N66 C70 1.477 1_655 S
N67 N66 1.190 . S
N67 C76 1.477 . S
C68 H60 0.940 . S
C68 C69 1.390 . S
C68 C70 1.322 . S
C69 C68 1.390 . S
C69 C73 1.370 . S
C70 N66 1.477 1_455 S
C70 C68 1.322 . S
C70 C71 1.447 . S
C71 H61 0.940 . S
C71 C70 1.447 . S
C71 C72 1.373 . S
C72 C71 1.373 . S
C72 C73 1.417 . S
C73 H62 0.940 . S
C73 C69 1.370 . S
C73 C72 1.417 . S
C74 H63 0.940 . S
C74 C75 1.390 . S
C74 C76 1.322 . S
C75 C74 1.390 . S
C75 C79 1.370 . S
C76 N67 1.477 . S
C76 C74 1.322 . S
C76 C77 1.447 . S
C77 H64 0.940 . S
C77 C76 1.447 . S
C77 C78 1.373 . S
C78 C77 1.373 . S
C78 C79 1.417 . S
C79 H65 0.940 . S
C79 C75 1.370 . S
C79 C78 1.417 . S
H80 C88 0.940 . S
H81 C91 0.940 . S
H82 C93 0.940 . S
H83 C94 0.940 . S
H84 C97 0.940 . S
H85 C99 0.940 . S
N86 N87 1.190 . S
N86 C90 1.477 1_554 S
N87 N86 1.190 . S
N87 C96 1.477 1_545 S
C88 H80 0.940 . S
C88 C89 1.390 . S
C88 C90 1.322 . S
C89 C88 1.390 . S
C89 C93 1.370 . S
C90 N86 1.477 1_556 S
C90 C88 1.322 . S
C90 C91 1.447 . S
C91 H81 0.940 . S
C91 C90 1.447 . S
C91 C92 1.373 . S
C92 C91 1.373 . S
C92 C93 1.417 . S
C93 H82 0.940 . S
C93 C89 1.370 . S
C93 C92 1.417 . S
C94 H83 0.940 . S
C94 C95 1.390 . S
C94 C96 1.322 . S
C95 C94 1.390 . S
C95 C99 1.370 . S
C96 N87 1.477 1_565 S
C96 C94 1.322 . S
C96 C97 1.447 . S
C97 H84 0.940 . S
C97 C96 1.447 . S
C97 C98 1.373 . S
C98 C97 1.373 . S
C98 C99 1.417 . S
C99 H85 0.940 . S
C99 C95 1.370 . S
C99 C98 1.417 . S
H100 C108 0.940 . S
H101 C111 0.940 . S
H102 C113 0.940 . S
H103 C114 0.940 . S
H104 C117 0.940 . S
H105 C119 0.940 . S
N106 N107 1.190 . S
N106 C110 1.477 . S
N107 N106 1.190 . S
N107 C116 1.477 . S
C108 H100 0.940 . S
C108 C109 1.390 . S
C108 C110 1.322 . S
C109 C108 1.390 . S
C109 C113 1.370 . S
C110 N106 1.477 . S
C110 C108 1.322 . S
C110 C111 1.447 . S
C111 H101 0.940 . S
C111 C110 1.447 . S
C111 C112 1.373 . S
C112 C111 1.373 . S
C112 C113 1.417 . S
C113 H102 0.940 . S
C113 C109 1.370 . S
C113 C112 1.417 . S
C114 H103 0.940 . S
C114 C115 1.390 . S
C114 C116 1.322 . S
C115 C114 1.390 . S
C115 C119 1.370 . S
C116 N107 1.477 . S
C116 C114 1.322 . S
C116 C117 1.447 . S
C117 H104 0.940 . S
C117 C116 1.447 . S
C117 C118 1.373 . S
C118 C117 1.373 . S
C118 C119 1.417 . S
C119 H105 0.940 . S
C119 C115 1.370 . S
C119 C118 1.417 . S
C120 C121 1.443 . S
C120 N124 1.376 . S
C120 C158 1.389 . S
C121 C120 1.443 . S
C121 C122 1.340 . S
C121 H161 0.951 . S
C122 C121 1.340 . S
C122 C123 1.439 . S
C122 H162 0.950 . S
C123 C122 1.439 . S
C123 N124 1.374 . S
C123 C157 1.395 . S
N124 C120 1.376 . S
N124 C123 1.374 . S
N124 Co125 2.008 . S
Co125 N124 2.008 . S
Co125 N126 1.995 . S
Co125 N131 2.008 . S
Co125 N136 1.995 . S
Co125 N141 2.282 . S
Co125 N147 2.282 . S
N126 Co125 1.995 . S
N126 C127 1.376 . S
N126 C130 1.383 . S
C127 N126 1.376 . S
C127 C128 1.446 . S
C127 C157 1.391 . S
C128 C127 1.446 . S
C128 C129 1.339 . S
C128 H163 0.949 . S
C129 C128 1.339 . S
C129 C130 1.439 . S
C129 H164 0.950 . S
C130 N126 1.383 . S
C130 C129 1.439 . S
C130 C159 1.392 . S
N131 Co125 2.008 . S
N131 C132 1.376 . S
N131 C135 1.374 . S
C132 N131 1.376 . S
C132 C133 1.443 . S
C132 C159 1.389 . S
C133 C132 1.443 . S
C133 C134 1.340 . S
C133 H165 0.951 . S
C134 C133 1.340 . S
C134 C135 1.439 . S
C134 H166 0.950 . S
C135 N131 1.374 . S
C135 C134 1.439 . S
C135 C160 1.395 . S
N136 Co125 1.995 . S
N136 C137 1.376 . S
N136 C140 1.383 . S
C137 N136 1.376 . S
C137 C138 1.446 . S
C137 C160 1.391 . S
C138 C137 1.446 . S
C138 C139 1.339 . S
C138 H167 0.949 . S
C139 C138 1.339 . S
C139 C140 1.439 . S
C139 H168 0.950 . S
C140 N136 1.383 . S
C140 C139 1.439 . S
C140 C158 1.392 . S
N141 Co125 2.282 . S
N141 C144 1.332 . S
N141 C146 1.332 . S
C142 C143 1.386 . S
C142 C145 1.388 . S
C143 C142 1.386 . S
C143 C144 1.382 . S
C143 H169 0.950 . S
C144 N141 1.332 . S
C144 C143 1.382 . S
C144 H155 0.952 . S
C145 C142 1.388 . S
C145 C146 1.382 . S
C145 H170 0.950 . S
C146 N141 1.332 . S
C146 C145 1.382 . S
C146 H156 0.948 . S
N147 Co125 2.282 . S
N147 C151 1.332 . S
N147 C152 1.332 . S
C148 C149 1.388 . S
C148 C152 1.382 . S
C148 H171 0.950 . S
C149 C148 1.388 . S
C149 C150 1.386 . S
C150 C149 1.386 . S
C150 C151 1.382 . S
C150 H172 0.950 . S
C151 N147 1.332 . S
C151 C150 1.382 . S
C151 H153 0.952 . S
C152 N147 1.332 . S
C152 C148 1.382 . S
C152 H154 0.948 . S
H153 C151 0.952 . S
H154 C152 0.948 . S
H155 C144 0.952 . S
H156 C146 0.948 . S
C157 C123 1.395 . S
C157 C127 1.391 . S
C158 C120 1.389 . S
C158 C140 1.392 . S
C159 C130 1.392 . S
C159 C132 1.389 . S
C160 C135 1.395 . S
C160 C137 1.391 . S
H161 C121 0.951 . S
H162 C122 0.950 . S
H163 C128 0.949 . S
H164 C129 0.950 . S
H165 C133 0.951 . S
H166 C134 0.950 . S
H167 C138 0.949 . S
H168 C139 0.950 . S
H169 C143 0.950 . S
H170 C145 0.950 . S
H171 C148 0.950 . S
H172 C150 0.950 . S
C173 C174 1.443 . S
C173 N177 1.376 . S
C173 C211 1.389 . S
C174 C173 1.443 . S
C174 C175 1.340 . S
C174 H214 0.951 . S
C175 C174 1.340 . S
C175 C176 1.439 . S
C175 H215 0.950 . S
C176 C175 1.439 . S
C176 N177 1.374 . S
C176 C210 1.395 . S
N177 C173 1.376 . S
N177 C176 1.374 . S
N177 Co178 2.008 . S
Co178 N177 2.008 . S
Co178 N179 1.995 . S
Co178 N184 2.008 . S
Co178 N189 1.995 . S
Co178 N194 2.282 . S
Co178 N200 2.282 . S
N179 Co178 1.995 . S
N179 C180 1.376 . S
N179 C183 1.383 . S
C180 N179 1.376 . S
C180 C181 1.446 . S
C180 C210 1.391 . S
C181 C180 1.446 . S
C181 C182 1.339 . S
C181 H216 0.949 . S
C182 C181 1.339 . S
C182 C183 1.439 . S
C182 H217 0.950 . S
C183 N179 1.383 . S
C183 C182 1.439 . S
C183 C212 1.392 . S
N184 Co178 2.008 . S
N184 C185 1.376 . S
N184 C188 1.374 . S
C185 N184 1.376 . S
C185 C186 1.443 . S
C185 C212 1.389 . S
C186 C185 1.443 . S
C186 C187 1.340 . S
C186 H218 0.951 . S
C187 C186 1.340 . S
C187 C188 1.439 . S
C187 H219 0.950 . S
C188 N184 1.374 . S
C188 C187 1.439 . S
C188 C213 1.395 . S
N189 Co178 1.995 . S
N189 C190 1.376 . S
N189 C193 1.383 . S
C190 N189 1.376 . S
C190 C191 1.446 . S
C190 C213 1.391 . S
C191 C190 1.446 . S
C191 C192 1.339 . S
C191 H220 0.949 . S
C192 C191 1.339 . S
C192 C193 1.439 . S
C192 H221 0.950 . S
C193 N189 1.383 . S
C193 C192 1.439 . S
C193 C211 1.392 . S
N194 Co178 2.282 . S
N194 C197 1.332 . S
N194 C199 1.332 . S
C195 C196 1.386 . S
C195 C198 1.388 . S
C196 C195 1.386 . S
C196 C197 1.382 . S
C196 H222 0.950 . S
C197 N194 1.332 . S
C197 C196 1.382 . S
C197 H208 0.952 . S
C198 C195 1.388 . S
C198 C199 1.382 . S
C198 H223 0.950 . S
C199 N194 1.332 . S
C199 C198 1.382 . S
C199 H209 0.948 . S
N200 Co178 2.282 . S
N200 C204 1.332 . S
N200 C205 1.332 . S
C201 C202 1.388 . S
C201 C205 1.382 . S
C201 H224 0.950 . S
C202 C201 1.388 . S
C202 C203 1.386 . S
C203 C202 1.386 . S
C203 C204 1.382 . S
C203 H225 0.950 . S
C204 N200 1.332 . S
C204 C203 1.382 . S
C204 H206 0.952 . S
C205 N200 1.332 . S
C205 C201 1.382 . S
C205 H207 0.948 . S
H206 C204 0.952 . S
H207 C205 0.948 . S
H208 C197 0.952 . S
H209 C199 0.948 . S
C210 C176 1.395 . S
C210 C180 1.391 . S
C211 C173 1.389 . S
C211 C193 1.392 . S
C212 C183 1.392 . S
C212 C185 1.389 . S
C213 C188 1.395 . S
C213 C190 1.391 . S
H214 C174 0.951 . S
H215 C175 0.950 . S
H216 C181 0.949 . S
H217 C182 0.950 . S
H218 C186 0.951 . S
H219 C187 0.950 . S
H220 C191 0.949 . S
H221 C192 0.950 . S
H222 C196 0.950 . S
H223 C198 0.950 . S
H224 C201 0.950 . S
H225 C203 0.950 . S
C226 C227 1.443 . S
C226 N230 1.376 . S
C226 C264 1.389 . S
C227 C226 1.443 . S
C227 C228 1.340 . S
C227 H267 0.951 . S
C228 C227 1.340 . S
C228 C229 1.439 . S
C228 H268 0.950 . S
C229 C228 1.439 . S
C229 N230 1.374 . S
C229 C263 1.395 . S
N230 C226 1.376 . S
N230 C229 1.374 . S
N230 Co231 2.008 . S
Co231 N230 2.008 . S
Co231 N232 1.995 . S
Co231 N237 2.008 . S
Co231 N242 1.995 . S
Co231 N247 2.282 . S
Co231 N253 2.282 . S
N232 Co231 1.995 . S
N232 C233 1.376 . S
N232 C236 1.383 . S
C233 N232 1.376 . S
C233 C234 1.446 . S
C233 C263 1.391 . S
C234 C233 1.446 . S
C234 C235 1.339 . S
C234 H269 0.949 . S
C235 C234 1.339 . S
C235 C236 1.439 . S
C235 H270 0.950 . S
C236 N232 1.383 . S
C236 C235 1.439 . S
C236 C265 1.392 . S
N237 Co231 2.008 . S
N237 C238 1.376 . S
N237 C241 1.374 . S
C238 N237 1.376 . S
C238 C239 1.443 . S
C238 C265 1.389 . S
C239 C238 1.443 . S
C239 C240 1.340 . S
C239 H271 0.951 . S
C240 C239 1.340 . S
C240 C241 1.439 . S
C240 H272 0.950 . S
C241 N237 1.374 . S
C241 C240 1.439 . S
C241 C266 1.395 . S
N242 Co231 1.995 . S
N242 C243 1.376 . S
N242 C246 1.383 . S
C243 N242 1.376 . S
C243 C244 1.446 . S
C243 C266 1.391 . S
C244 C243 1.446 . S
C244 C245 1.339 . S
C244 H273 0.949 . S
C245 C244 1.339 . S
C245 C246 1.439 . S
C245 H274 0.950 . S
C246 N242 1.383 . S
C246 C245 1.439 . S
C246 C264 1.392 . S
N247 Co231 2.282 . S
N247 C250 1.332 . S
N247 C252 1.332 . S
C248 C249 1.386 . S
C248 C251 1.388 . S
C249 C248 1.386 . S
C249 C250 1.382 . S
C249 H275 0.950 . S
C250 N247 1.332 . S
C250 C249 1.382 . S
C250 H261 0.952 . S
C251 C248 1.388 . S
C251 C252 1.382 . S
C251 H276 0.950 . S
C252 N247 1.332 . S
C252 C251 1.382 . S
C252 H262 0.948 . S
N253 Co231 2.282 . S
N253 C257 1.332 . S
N253 C258 1.332 . S
C254 C255 1.388 . S
C254 C258 1.382 . S
C254 H277 0.950 . S
C255 C254 1.388 . S
C255 C256 1.386 . S
C256 C255 1.386 . S
C256 C257 1.382 . S
C256 H278 0.950 . S
C257 N253 1.332 . S
C257 C256 1.382 . S
C257 H259 0.952 . S
C258 N253 1.332 . S
C258 C254 1.382 . S
C258 H260 0.948 . S
H259 C257 0.952 . S
H260 C258 0.948 . S
H261 C250 0.952 . S
H262 C252 0.948 . S
C263 C229 1.395 . S
C263 C233 1.391 . S
C264 C226 1.389 . S
C264 C246 1.392 . S
C265 C236 1.392 . S
C265 C238 1.389 . S
C266 C241 1.395 . S
C266 C243 1.391 . S
H267 C227 0.951 . S
H268 C228 0.950 . S
H269 C234 0.949 . S
H270 C235 0.950 . S
H271 C239 0.951 . S
H272 C240 0.950 . S
H273 C244 0.949 . S
H274 C245 0.950 . S
H275 C249 0.950 . S
H276 C251 0.950 . S
H277 C254 0.950 . S
H278 C256 0.950 . S
C279 C280 1.443 . S
C279 N283 1.376 . S
C279 C317 1.389 . S
C280 C279 1.443 . S
C280 C281 1.340 . S
C280 H320 0.951 . S
C281 C280 1.340 . S
C281 C282 1.439 . S
C281 H321 0.950 . S
C282 C281 1.439 . S
C282 N283 1.374 . S
C282 C316 1.395 . S
N283 C279 1.376 . S
N283 C282 1.374 . S
N283 Co284 2.008 . S
Co284 N283 2.008 . S
Co284 N285 1.995 . S
Co284 N290 2.008 . S
Co284 N295 1.995 . S
Co284 N300 2.282 . S
Co284 N306 2.282 . S
N285 Co284 1.995 . S
N285 C286 1.376 . S
N285 C289 1.383 . S
C286 N285 1.376 . S
C286 C287 1.446 . S
C286 C316 1.391 . S
C287 C286 1.446 . S
C287 C288 1.339 . S
C287 H322 0.949 . S
C288 C287 1.339 . S
C288 C289 1.439 . S
C288 H323 0.950 . S
C289 N285 1.383 . S
C289 C288 1.439 . S
C289 C318 1.392 . S
N290 Co284 2.008 . S
N290 C291 1.376 . S
N290 C294 1.374 . S
C291 N290 1.376 . S
C291 C292 1.443 . S
C291 C318 1.389 . S
C292 C291 1.443 . S
C292 C293 1.340 . S
C292 H324 0.951 . S
C293 C292 1.340 . S
C293 C294 1.439 . S
C293 H325 0.950 . S
C294 N290 1.374 . S
C294 C293 1.439 . S
C294 C319 1.395 . S
N295 Co284 1.995 . S
N295 C296 1.376 . S
N295 C299 1.383 . S
C296 N295 1.376 . S
C296 C297 1.446 . S
C296 C319 1.391 . S
C297 C296 1.446 . S
C297 C298 1.339 . S
C297 H326 0.949 . S
C298 C297 1.339 . S
C298 C299 1.439 . S
C298 H327 0.950 . S
C299 N295 1.383 . S
C299 C298 1.439 . S
C299 C317 1.392 . S
N300 Co284 2.282 . S
N300 C303 1.332 . S
N300 C305 1.332 . S
C301 C302 1.386 . S
C301 C304 1.388 . S
C302 C301 1.386 . S
C302 C303 1.382 . S
C302 H328 0.950 . S
C303 N300 1.332 . S
C303 C302 1.382 . S
C303 H314 0.952 . S
C304 C301 1.388 . S
C304 C305 1.382 . S
C304 H329 0.950 . S
C305 N300 1.332 . S
C305 C304 1.382 . S
C305 H315 0.948 . S
N306 Co284 2.282 . S
N306 C310 1.332 . S
N306 C311 1.332 . S
C307 C308 1.388 . S
C307 C311 1.382 . S
C307 H330 0.950 . S
C308 C307 1.388 . S
C308 C309 1.386 . S
C309 C308 1.386 . S
C309 C310 1.382 . S
C309 H331 0.950 . S
C310 N306 1.332 . S
C310 C309 1.382 . S
C310 H312 0.952 . S
C311 N306 1.332 . S
C311 C307 1.382 . S
C311 H313 0.948 . S
H312 C310 0.952 . S
H313 C311 0.948 . S
H314 C303 0.952 . S
H315 C305 0.948 . S
C316 C282 1.395 . S
C316 C286 1.391 . S
C317 C279 1.389 . S
C317 C299 1.392 . S
C318 C289 1.392 . S
C318 C291 1.389 . S
C319 C294 1.395 . S
C319 C296 1.391 . S
H320 C280 0.951 . S
H321 C281 0.950 . S
H322 C287 0.949 . S
H323 C288 0.950 . S
H324 C292 0.951 . S
H325 C293 0.950 . S
H326 C297 0.949 . S
H327 C298 0.950 . S
H328 C302 0.950 . S
H329 C304 0.950 . S
H330 C307 0.950 . S
H331 C309 0.950 . S
C332 C333 1.443 . S
C332 N336 1.376 . S
C332 C370 1.389 . S
C333 C332 1.443 . S
C333 C334 1.340 . S
C333 H373 0.951 . S
C334 C333 1.340 . S
C334 C335 1.439 . S
C334 H374 0.950 . S
C335 C334 1.439 . S
C335 N336 1.374 . S
C335 C369 1.395 . S
N336 C332 1.376 . S
N336 C335 1.374 . S
N336 Co337 2.008 . S
Co337 N336 2.008 . S
Co337 N338 1.995 . S
Co337 N343 2.008 . S
Co337 N348 1.995 . S
Co337 N353 2.282 . S
Co337 N359 2.282 . S
N338 Co337 1.995 . S
N338 C339 1.376 . S
N338 C342 1.383 . S
C339 N338 1.376 . S
C339 C340 1.446 . S
C339 C369 1.391 . S
C340 C339 1.446 . S
C340 C341 1.339 . S
C340 H375 0.949 . S
C341 C340 1.339 . S
C341 C342 1.439 . S
C341 H376 0.950 . S
C342 N338 1.383 . S
C342 C341 1.439 . S
C342 C371 1.392 . S
N343 Co337 2.008 . S
N343 C344 1.376 . S
N343 C347 1.374 . S
C344 N343 1.376 . S
C344 C345 1.443 . S
C344 C371 1.389 . S
C345 C344 1.443 . S
C345 C346 1.340 . S
C345 H377 0.951 . S
C346 C345 1.340 . S
C346 C347 1.439 . S
C346 H378 0.950 . S
C347 N343 1.374 . S
C347 C346 1.439 . S
C347 C372 1.395 . S
N348 Co337 1.995 . S
N348 C349 1.376 . S
N348 C352 1.383 . S
C349 N348 1.376 . S
C349 C350 1.446 . S
C349 C372 1.391 . S
C350 C349 1.446 . S
C350 C351 1.339 . S
C350 H379 0.949 . S
C351 C350 1.339 . S
C351 C352 1.439 . S
C351 H380 0.950 . S
C352 N348 1.383 . S
C352 C351 1.439 . S
C352 C370 1.392 . S
N353 Co337 2.282 . S
N353 C356 1.332 . S
N353 C358 1.332 . S
C354 C355 1.386 . S
C354 C357 1.388 . S
C355 C354 1.386 . S
C355 C356 1.382 . S
C355 H381 0.950 . S
C356 N353 1.332 . S
C356 C355 1.382 . S
C356 H367 0.952 . S
C357 C354 1.388 . S
C357 C358 1.382 . S
C357 H382 0.950 . S
C358 N353 1.332 . S
C358 C357 1.382 . S
C358 H368 0.948 . S
N359 Co337 2.282 . S
N359 C363 1.332 . S
N359 C364 1.332 . S
C360 C361 1.388 . S
C360 C364 1.382 . S
C360 H383 0.950 . S
C361 C360 1.388 . S
C361 C362 1.386 . S
C362 C361 1.386 . S
C362 C363 1.382 . S
C362 H384 0.950 . S
C363 N359 1.332 . S
C363 C362 1.382 . S
C363 H365 0.952 . S
C364 N359 1.332 . S
C364 C360 1.382 . S
C364 H366 0.948 . S
H365 C363 0.952 . S
H366 C364 0.948 . S
H367 C356 0.952 . S
H368 C358 0.948 . S
C369 C335 1.395 . S
C369 C339 1.391 . S
C370 C332 1.389 . S
C370 C352 1.392 . S
C371 C342 1.392 . S
C371 C344 1.389 . S
C372 C347 1.395 . S
C372 C349 1.391 . S
H373 C333 0.951 . S
H374 C334 0.950 . S
H375 C340 0.949 . S
H376 C341 0.950 . S
H377 C345 0.951 . S
H378 C346 0.950 . S
H379 C350 0.949 . S
H380 C351 0.950 . S
H381 C355 0.950 . S
H382 C357 0.950 . S
H383 C360 0.950 . S
H384 C362 0.950 . S
C385 C386 1.443 . S
C385 N389 1.376 . S
C385 C423 1.389 . S
C386 C385 1.443 . S
C386 C387 1.340 . S
C386 H426 0.951 . S
C387 C386 1.340 . S
C387 C388 1.439 . S
C387 H427 0.950 . S
C388 C387 1.439 . S
C388 N389 1.374 . S
C388 C422 1.395 . S
N389 C385 1.376 . S
N389 C388 1.374 . S
N389 Co390 2.008 . S
Co390 N389 2.008 . S
Co390 N391 1.995 . S
Co390 N396 2.008 . S
Co390 N401 1.995 . S
Co390 N406 2.282 . S
Co390 N412 2.282 . S
N391 Co390 1.995 . S
N391 C392 1.376 . S
N391 C395 1.383 . S
C392 N391 1.376 . S
C392 C393 1.446 . S
C392 C422 1.391 . S
C393 C392 1.446 . S
C393 C394 1.339 . S
C393 H428 0.949 . S
C394 C393 1.339 . S
C394 C395 1.439 . S
C394 H429 0.950 . S
C395 N391 1.383 . S
C395 C394 1.439 . S
C395 C424 1.392 . S
N396 Co390 2.008 . S
N396 C397 1.376 . S
N396 C400 1.374 . S
C397 N396 1.376 . S
C397 C398 1.443 . S
C397 C424 1.389 . S
C398 C397 1.443 . S
C398 C399 1.340 . S
C398 H430 0.951 . S
C399 C398 1.340 . S
C399 C400 1.439 . S
C399 H431 0.950 . S
C400 N396 1.374 . S
C400 C399 1.439 . S
C400 C425 1.395 . S
N401 Co390 1.995 . S
N401 C402 1.376 . S
N401 C405 1.383 . S
C402 N401 1.376 . S
C402 C403 1.446 . S
C402 C425 1.391 . S
C403 C402 1.446 . S
C403 C404 1.339 . S
C403 H432 0.949 . S
C404 C403 1.339 . S
C404 C405 1.439 . S
C404 H433 0.950 . S
C405 N401 1.383 . S
C405 C404 1.439 . S
C405 C423 1.392 . S
N406 Co390 2.282 . S
N406 C409 1.332 . S
N406 C411 1.332 . S
C407 C408 1.386 . S
C407 C410 1.388 . S
C408 C407 1.386 . S
C408 C409 1.382 . S
C408 H434 0.950 . S
C409 N406 1.332 . S
C409 C408 1.382 . S
C409 H420 0.952 . S
C410 C407 1.388 . S
C410 C411 1.382 . S
C410 H435 0.950 . S
C411 N406 1.332 . S
C411 C410 1.382 . S
C411 H421 0.948 . S
N412 Co390 2.282 . S
N412 C416 1.332 . S
N412 C417 1.332 . S
C413 C414 1.388 . S
C413 C417 1.382 . S
C413 H436 0.950 . S
C414 C413 1.388 . S
C414 C415 1.386 . S
C415 C414 1.386 . S
C415 C416 1.382 . S
C415 H437 0.950 . S
C416 N412 1.332 . S
C416 C415 1.382 . S
C416 H418 0.952 . S
C417 N412 1.332 . S
C417 C413 1.382 . S
C417 H419 0.948 . S
H418 C416 0.952 . S
H419 C417 0.948 . S
H420 C409 0.952 . S
H421 C411 0.948 . S
C422 C388 1.395 . S
C422 C392 1.391 . S
C423 C385 1.389 . S
C423 C405 1.392 . S
C424 C395 1.392 . S
C424 C397 1.389 . S
C425 C400 1.395 . S
C425 C402 1.391 . S
H426 C386 0.951 . S
H427 C387 0.950 . S
H428 C393 0.949 . S
H429 C394 0.950 . S
H430 C398 0.951 . S
H431 C399 0.950 . S
H432 C403 0.949 . S
H433 C404 0.950 . S
H434 C408 0.950 . S
H435 C410 0.950 . S
H436 C413 0.950 . S
H437 C415 0.950 . S
C18 C158 1.776 . S
C29 C211 1.357 . S
C264 C55 1.702 . S
C301 C75 1.188 . S
C361 C98 1.526 . S
C414 C118 1.245 . S
C38 C265 1.788 . S
C52 C308 1.245 . S
C354 C72 1.531 . S
C407 C89 1.189 . S
C109 C159 1.713 . S
C212 C9 1.372 . S
C318 C12 1.787 . S
C35 C370 1.370 . S
C423 C49 1.708 . S
C69 C149 1.181 . S
C92 C202 1.526 . S
C112 C255 1.282 . S
C32 C424 1.787 . S
C142 C58 1.271 . S
C78 C195 1.519 . S
C95 C248 1.170 . S
C115 C317 1.708 . S
C15 C371 1.354 . S
