# Generated by pormake.
# Topology anh, (6,3)-cn, num edge types: 1
# Building blocks:
#     Node 0, Type 0, BuildingBlock: GEDQOX_clean_sbu_0, # of connection points: 6
#     Node 1, Type 0, BuildingBlock: GEDQOX_clean_sbu_0, # of connection points: 6
#     Node 2, Type 0, BuildingBlock: GEDQOX_clean_sbu_0, # of connection points: 6
#     Node 3, Type 1, BuildingBlock: ESEHIV_clean_linker_0, # of connection points: 3
#     Node 4, Type 1, BuildingBlock: ESEHIV_clean_linker_0, # of connection points: 3
#     Node 5, Type 1, BuildingBlock: ESEHIV_clean_linker_0, # of connection points: 3
#     Node 6, Type 1, BuildingBlock: ESEHIV_clean_linker_0, # of connection points: 3
#     Node 7, Type 1, BuildingBlock: ESEHIV_clean_linker_0, # of connection points: 3
#     Node 8, Type 1, BuildingBlock: ESEHIV_clean_linker_0, # of connection points: 3
#     Edge 9, Type (0, 1), BuildingBlock: AJUNOK_clean_linker_0, # of connection points: 2
#     Edge 10, Type (0, 1), BuildingBlock: AJUNOK_clean_linker_0, # of connection points: 2
#     Edge 11, Type (0, 1), BuildingBlock: AJUNOK_clean_linker_0, # of connection points: 2
#     Edge 12, Type (0, 1), BuildingBlock: AJUNOK_clean_linker_0, # of connection points: 2
#     Edge 13, Type (0, 1), BuildingBlock: AJUNOK_clean_linker_0, # of connection points: 2
#     Edge 14, Type (0, 1), BuildingBlock: AJUNOK_clean_linker_0, # of connection points: 2
#     Edge 15, Type (0, 1), BuildingBlock: AJUNOK_clean_linker_0, # of connection points: 2
#     Edge 16, Type (0, 1), BuildingBlock: AJUNOK_clean_linker_0, # of connection points: 2
#     Edge 17, Type (0, 1), BuildingBlock: AJUNOK_clean_linker_0, # of connection points: 2
#     Edge 18, Type (0, 1), BuildingBlock: AJUNOK_clean_linker_0, # of connection points: 2
#     Edge 19, Type (0, 1), BuildingBlock: AJUNOK_clean_linker_0, # of connection points: 2
#     Edge 20, Type (0, 1), BuildingBlock: AJUNOK_clean_linker_0, # of connection points: 2
#     Edge 21, Type (0, 1), BuildingBlock: AJUNOK_clean_linker_0, # of connection points: 2
#     Edge 22, Type (0, 1), BuildingBlock: AJUNOK_clean_linker_0, # of connection points: 2
#     Edge 23, Type (0, 1), BuildingBlock: AJUNOK_clean_linker_0, # of connection points: 2
#     Edge 24, Type (0, 1), BuildingBlock: AJUNOK_clean_linker_0, # of connection points: 2
#     Edge 25, Type (0, 1), BuildingBlock: AJUNOK_clean_linker_0, # of connection points: 2
#     Edge 26, Type (0, 1), BuildingBlock: AJUNOK_clean_linker_0, # of connection points: 2
# Relax obj value: 0.276
# Max RMSD: 0.260
# Mean RMSD: 0.182
data_MOF--net-anh--node1-GEDQOX_clean_sbu_0--node2-ESEHIV_clean_linker_0--edge1-AJUNOK_clean_linker_0
_symmetry_space_group_name_H-M    P1
_symmetry_Int_Tables_number       1
_symmetry_cell_setting            triclinic
loop_
_symmetry_equiv_pos_as_xyz
'x, y, z'
_cell_length_a     21.120331
_cell_length_b     19.727315
_cell_length_c     37.843383
_cell_angle_alpha  92.32921
_cell_angle_beta   90.594548
_cell_angle_gamma 98.755067
loop_
_atom_site_label
_atom_site_type_symbol
_atom_site_fract_x
_atom_site_fract_y
_atom_site_fract_z
_atom_type_partial_charge
Nd0 Nd 1.09996 0.62254 0.13032 0.0
Nd1 Nd 1.07881 0.47247 0.13244 0.0
C2 C 0.14791 0.75194 0.12134 0.0
C3 C 0.20437 0.79398 0.13905 0.0
C4 C 0.25444 0.82743 0.11902 0.0
C5 C 0.3109 0.86102 0.13569 0.0
C6 C 0.31818 0.86175 0.17272 0.0
C7 C 0.26754 0.8294 0.1927 0.0
C8 C 0.2115 0.7956 0.17611 0.0
C9 C 1.08616 0.57733 0.19786 0.0
C10 C 0.235 0.54078 0.12959 0.0
C11 C 1.04048 0.34387 0.14979 0.0
C12 C 0.98307 0.30181 0.16446 0.0
C13 C 0.97864 0.29285 0.20111 0.0
C14 C 0.92543 0.25232 0.21515 0.0
C15 C 0.87535 0.21946 0.19292 0.0
C16 C 0.88008 0.22761 0.15623 0.0
C17 C 0.9333 0.26829 0.14216 0.0
C18 C 1.10181 0.52102 0.06667 0.0
C19 C 0.94449 0.55236 0.1256 0.0
O20 O 0.16023 0.70187 0.10003 0.0
O21 O 1.09846 0.73349 0.1412 0.0
O22 O 1.06184 0.6289 0.18655 0.0
O23 O 0.11822 0.55256 0.17404 0.0
O24 O 0.20955 0.59885 0.12678 0.0
O25 O 0.19375 0.483 0.13389 0.0
O26 O 1.07272 0.39075 0.17116 0.0
O27 O 1.03655 0.36464 0.11753 0.0
O28 O 0.12476 0.46825 0.07805 0.0
O29 O 1.06493 0.54324 0.08878 0.0
O30 O 0.96957 0.49737 0.1358 0.0
O31 O 0.98661 0.60744 0.1175 0.0
H32 H 0.2504 0.82637 0.09043 0.0
H33 H 0.34889 0.88628 0.11966 0.0
H34 H 0.27196 0.82866 0.22123 0.0
H35 H 0.17441 0.76934 0.19237 0.0
H36 H 1.01642 0.31716 0.21907 0.0
H37 H 0.92318 0.24718 0.24352 0.0
H38 H 0.843 0.20175 0.13831 0.0
H39 H 0.93556 0.27309 0.11378 0.0
Nd40 Nd 0.54429 0.99389 0.53324 0.0
Nd41 Nd 0.68091 1.01353 0.52067 0.0
C42 C 0.42424 0.95043 0.54943 0.0
C43 C 0.37647 0.8992 0.53039 0.0
C44 C 0.33959 0.84707 0.54868 0.0
C45 C 0.29935 0.79421 0.53008 0.0
C46 C 0.29537 0.79291 0.49291 0.0
C47 C 0.3317 0.84575 0.4748 0.0
C48 C 0.37201 0.89811 0.49328 0.0
C49 C 0.57192 1.01101 0.46283 0.0
C50 C 0.61737 0.85508 0.52616 0.0
C51 C 0.79839 0.05274 0.49801 0.0
C52 C 0.83649 0.11479 0.48402 0.0
C53 C 0.83582 0.12662 0.44763 0.0
C54 C 0.87283 0.18465 0.4345 0.0
C55 C 0.9112 0.23194 0.45745 0.0
C56 C 0.91229 0.21998 0.49375 0.0
C57 C 0.87542 0.16191 0.5069 0.0
C58 C 0.65227 0.99527 0.59069 0.0
C59 C 0.61031 0.15042 0.5348 0.0
O60 O 0.47246 0.92629 0.56358 0.0
O61 O 0.44214 1.00751 0.53343 0.0
O62 O 0.52758 0.03703 0.47937 0.0
O63 O 0.59903 0.97446 0.48305 0.0
O64 O 0.56619 0.88187 0.53588 0.0
O65 O 0.66902 0.89531 0.51582 0.0
O66 O 0.752 1.02005 0.47783 0.0
O67 O 0.78286 0.05584 0.53131 0.0
O68 O 0.69582 0.96733 0.57412 0.0
O69 O 0.62588 0.03268 0.57061 0.0
O70 O 0.65498 0.12437 0.5167 0.0
O71 O 0.56571 0.10834 0.55057 0.0
H72 H 0.34323 0.84626 0.57723 0.0
H73 H 0.27282 0.7534 0.54468 0.0
H74 H 0.3294 0.84624 0.4462 0.0
H75 H 0.40073 0.93692 0.47836 0.0
H76 H 0.80686 0.091 0.42922 0.0
H77 H 0.87122 0.1928 0.40638 0.0
H78 H 0.94249 0.25499 0.5119 0.0
H79 H 0.87778 0.15374 0.53498 0.0
Nd80 Nd 0.54236 0.51571 0.81993 0.0
Nd81 Nd 0.67691 0.53214 0.84667 0.0
C82 C 0.44288 0.53469 0.78079 0.0
C83 C 0.41219 0.59577 0.77532 0.0
C84 C 0.44883 0.6616 0.77431 0.0
C85 C 0.41981 0.72027 0.77994 0.0
C86 C 0.354 0.71357 0.78653 0.0
C87 C 0.31654 0.64816 0.78182 0.0
C88 C 0.34551 0.5897 0.77668 0.0
C89 C 0.55364 0.51409 0.89258 0.0
C90 C 0.62249 0.67428 0.83742 0.0
C91 C 0.78114 0.51249 0.88044 0.0
C92 C 0.82694 0.46652 0.87087 0.0
C93 C 0.87521 0.45731 0.89482 0.0
C94 C 0.92863 0.43016 0.88278 0.0
C95 C 0.93487 0.41391 0.84643 0.0
C96 C 0.88187 0.41351 0.8237 0.0
C97 C 0.82795 0.43972 0.83593 0.0
C98 C 0.66683 0.53367 0.77444 0.0
C99 C 0.59749 0.37286 0.8279 0.0
O100 O 0.50058 0.53647 0.76835 0.0
O101 O 0.43724 0.51024 0.81249 0.0
O102 O 0.5087 0.47515 0.87417 0.0
O103 O 0.58776 0.5543 0.87287 0.0
O104 O 0.57405 0.63422 0.82114 0.0
O105 O 0.66736 0.6471 0.85401 0.0
O106 O 0.72417 0.48276 0.88914 0.0
O107 O 0.77973 0.56273 0.85902 0.0
O108 O 0.71266 0.5709 0.79266 0.0
O109 O 0.63228 0.494 0.7941 0.0
O110 O 0.64708 0.41244 0.84364 0.0
O111 O 0.55103 0.40089 0.81337 0.0
H112 H 0.50038 0.66782 0.77206 0.0
H113 H 0.44953 0.77005 0.78275 0.0
H114 H 0.26552 0.64101 0.78639 0.0
H115 H 0.31627 0.53956 0.77693 0.0
H116 H 0.8745 0.47685 0.92197 0.0
H117 H 0.96867 0.43142 0.90105 0.0
H118 H 0.88544 0.40138 0.79568 0.0
H119 H 0.79003 0.44542 0.81726 0.0
H120 H 0.50545 0.95624 0.30116 0.0
H121 H 0.69332 0.07567 0.30967 0.0
H122 H 0.60449 1.02292 0.20709 0.0
C123 C 0.5475 0.98276 0.28859 0.0
C124 C 0.54888 0.98522 0.25157 0.0
C125 C 0.59954 1.01472 0.30967 0.0
C126 C 0.65393 0.04923 0.29338 0.0
C127 C 0.65583 0.05342 0.25631 0.0
C128 C 0.60346 1.02016 0.23563 0.0
H129 H 0.63682 0.62751 0.61434 0.0
H130 H 0.6333 0.40999 0.6189 0.0
H131 H 0.61222 0.5001 0.51826 0.0
C132 C 0.63392 0.57746 0.60093 0.0
C133 C 0.62558 0.57179 0.56399 0.0
C134 C 0.63682 0.51955 0.62084 0.0
C135 C 0.63059 0.4547 0.6035 0.0
C136 C 0.62152 0.44617 0.56669 0.0
C137 C 0.61946 0.5055 0.54667 0.0
H138 H 0.11821 0.52155 0.91869 0.0
H139 H 0.21221 0.72919 0.93435 0.0
H140 H 0.18216 0.63611 0.82887 0.0
C141 C 0.14302 0.56778 0.9075 0.0
C142 C 0.14856 0.5718 0.87085 0.0
C143 C 0.16635 0.6236 0.93034 0.0
C144 C 0.19393 0.68608 0.91656 0.0
C145 C 0.19965 0.6914 0.87968 0.0
C146 C 0.17693 0.63366 0.85723 0.0
H147 H 1.03842 0.43755 0.34572 0.0
H148 H 0.16572 0.62884 0.35876 0.0
H149 H 0.10832 0.51184 0.44967 0.0
C150 C 1.06778 0.47555 0.36283 0.0
C151 C 1.06823 0.46821 0.39958 0.0
C152 C 1.10296 0.53325 0.3481 0.0
C153 C 0.13929 0.58371 0.37019 0.0
C154 C 0.1411 0.57652 0.40693 0.0
C155 C 0.10589 0.51836 0.4214 0.0
H156 H 0.61866 0.11832 0.74475 0.0
H157 H 0.63248 0.90445 0.75217 0.0
H158 H 0.61156 0.02769 0.84682 0.0
C159 C 0.61948 0.074 0.76071 0.0
C160 C 0.61337 0.08131 0.79757 0.0
C161 C 0.62742 1.01099 0.74415 0.0
C162 C 0.62874 0.9539 0.7649 0.0
C163 C 0.624 0.95884 0.80185 0.0
C164 C 0.61622 1.02319 0.81839 0.0
H165 H 0.48035 0.53324 0.05277 0.0
H166 H 0.68344 0.536 0.04814 0.0
H167 H 0.59285 0.5509 0.15012 0.0
C168 C 0.5256 0.53547 0.06693 0.0
C169 C 0.52573 0.54183 0.10399 0.0
C170 C 0.58128 0.53245 0.0472 0.0
C171 C 0.64166 0.53814 0.06433 0.0
C172 C 0.64996 0.54483 0.10143 0.0
C173 C 0.58978 0.54592 0.12156 0.0
C174 C 0.35602 0.6018 0.12232 0.0
C175 C 0.31098 0.54104 0.1273 0.0
C176 C 0.4246 0.60266 0.11831 0.0
C177 C 0.45589 0.54324 0.11973 0.0
H178 H 0.33791 0.65002 0.12043 0.0
H179 H 0.45345 0.65104 0.11255 0.0
S180 S 0.36337 0.3688 0.13105 0.0
N181 N 0.30689 0.41826 0.13283 0.0
N182 N 0.43159 0.4202 0.12535 0.0
C183 C 0.41147 0.48229 0.12488 0.0
C184 C 0.34153 0.4812 0.12881 0.0
C185 C 0.99123 0.28512 0.41455 0.0
C186 C 0.95103 0.29292 0.44336 0.0
C187 C 1.02931 0.34199 0.40071 0.0
C188 C 1.02838 0.4087 0.4151 0.0
H189 H 0.99376 0.23457 0.40287 0.0
H190 H 1.06009 0.33362 0.37874 0.0
S191 S 0.92771 0.457 0.48899 0.0
N192 N 0.91056 0.37253 0.4849 0.0
N193 N 0.9814 0.47965 0.45857 0.0
C194 C 0.98782 0.41725 0.44366 0.0
C195 C 0.94933 0.3593 0.45786 0.0
C196 C 0.56798 0.77887 0.83256 0.0
C197 C 0.62525 0.75088 0.83585 0.0
C198 C 0.56788 0.84859 0.82538 0.0
C199 C 0.6253 0.89385 0.82106 0.0
H200 H 0.52262 0.74558 0.8342 0.0
H201 H 0.52239 0.86609 0.82087 0.0
S202 S 0.78892 0.84819 0.82813 0.0
N203 N 0.74144 0.7758 0.83574 0.0
N204 N 0.74133 0.90584 0.82155 0.0
C205 C 0.68307 0.86741 0.82578 0.0
C206 C 0.68312 0.79646 0.83346 0.0
C207 C 0.8401 0.60501 0.10716 0.0
C208 C 0.8683 0.55176 0.12282 0.0
C209 C 0.77149 0.60416 0.10293 0.0
C210 C 0.7232 0.55107 0.11474 0.0
H211 H 0.87168 0.6479 0.09691 0.0
H212 H 0.75593 0.64579 0.08905 0.0
S213 S 0.76713 0.39747 0.1578 0.0
N214 N 0.83787 0.44268 0.15036 0.0
N215 N 0.71286 0.44184 0.14286 0.0
C216 C 0.75059 0.49783 0.13091 0.0
C217 C 0.82076 0.49815 0.13486 0.0
C218 C 0.28151 0.70398 0.4433 0.0
C219 C 0.25542 0.73573 0.47256 0.0
C220 C 0.24434 0.65225 0.42242 0.0
C221 C 0.17976 0.63 0.4301 0.0
H222 H 0.33117 0.7193 0.43646 0.0
H223 H 0.26636 0.62931 0.40012 0.0
S224 S 1.08783 0.69774 0.50293 0.0
N225 N 0.16055 0.74209 0.50764 0.0
N226 N 1.09075 0.64421 0.46849 0.0
C227 C 0.15311 0.66073 0.45942 0.0
C228 C 0.19093 0.71368 0.48064 0.0
C229 C 0.65037 0.26632 0.83565 0.0
C230 C 0.59689 0.29597 0.82448 0.0
C231 C 0.65358 0.19554 0.82961 0.0
C232 C 0.60333 0.15089 0.81232 0.0
H233 H 0.69141 0.29847 0.84803 0.0
H234 H 0.69716 0.17643 0.83686 0.0
S235 S 0.45049 0.19942 0.78019 0.0
N236 N 0.49055 0.27207 0.79716 0.0
N237 N 0.49717 0.14064 0.78582 0.0
C238 C 0.54863 0.17901 0.80245 0.0
C239 C 0.54522 0.2508 0.80853 0.0
C240 C 0.67638 0.75286 0.53212 0.0
C241 C 0.61793 0.77909 0.52965 0.0
C242 C 0.67834 0.68381 0.54024 0.0
C243 C 0.62198 0.63715 0.54548 0.0
H244 H 0.72136 0.78679 0.52963 0.0
H245 H 0.72457 0.66768 0.54426 0.0
S246 S 0.45626 0.67691 0.53919 0.0
N247 N 0.50174 0.7502 0.53102 0.0
N248 N 0.50596 0.62147 0.54598 0.0
C249 C 0.56325 0.66159 0.54136 0.0
C250 C 0.5611 0.73199 0.53347 0.0
C251 C 1.0155 0.48629 0.81346 0.0
C252 C 1.00024 0.42564 0.83203 0.0
C253 C 1.07181 0.53144 0.82169 0.0
C254 C 0.11485 0.51514 0.84745 0.0
H255 H 0.97898 0.50565 0.79815 0.0
H256 H 1.07593 0.58289 0.81209 0.0
S257 S 0.1129 0.34536 0.88602 0.0
N258 N 1.04315 0.33954 0.86501 0.0
N259 N 0.15178 0.42257 0.87863 0.0
C260 C 0.10834 0.44664 0.85765 0.0
C261 C 1.05015 0.40156 0.85001 0.0
C262 C 0.37525 0.94068 0.22031 0.0
C263 C 0.37834 0.89533 0.19092 0.0
C264 C 0.43062 0.96985 0.23941 0.0
C265 C 0.49142 0.95478 0.22998 0.0
H266 H 0.3295 0.95363 0.22868 0.0
H267 H 0.42578 1.00462 0.26179 0.0
S268 S 0.52536 0.83667 0.15618 0.0
N269 N 0.44703 0.83528 0.15383 0.0
N270 N 0.55124 0.8902 0.18976 0.0
C271 C 0.49534 0.90984 0.20052 0.0
C272 C 0.43882 0.8801 0.18101 0.0
C273 C 0.56249 0.25357 0.55773 0.0
C274 C 0.61077 0.22716 0.53841 0.0
C275 C 0.56381 0.3247 0.56412 0.0
C276 C 0.61314 0.37358 0.55136 0.0
H277 H 0.52403 0.21897 0.56908 0.0
H278 H 0.52715 0.34163 0.58065 0.0
S279 S 0.7494 0.33336 0.49752 0.0
N280 N 0.70815 0.25731 0.50489 0.0
N281 N 0.71036 0.39042 0.51724 0.0
C282 C 0.66026 0.34847 0.53072 0.0
C283 C 0.65915 0.27569 0.52421 0.0
C284 C 0.26411 0.77529 0.80236 0.0
C285 C 0.3277 0.76563 0.80905 0.0
C286 C 0.21966 0.76895 0.82978 0.0
C287 C 0.23855 0.75106 0.86361 0.0
H288 H 0.24609 0.77319 0.77537 0.0
H289 H 0.1692 0.76291 0.8227 0.0
S290 S 0.40542 0.76738 0.89727 0.0
N291 N 0.41176 0.77496 0.85413 0.0
N292 N 0.32798 0.75897 0.90524 0.0
C293 C 0.30412 0.7642 0.87214 0.0
C294 C 0.34937 0.7727 0.84447 0.0
C295 C 0.82709 0.12839 0.23357 0.0
C296 C 0.81865 0.17664 0.20816 0.0
C297 C 0.7744 0.08854 0.24885 0.0
C298 C 0.71113 0.09537 0.23936 0.0
H299 H 0.87487 0.12096 0.24155 0.0
H300 H 0.78328 0.05173 0.26808 0.0
S301 S 0.6629 0.21807 0.17616 0.0
N302 N 0.74194 0.23091 0.17539 0.0
N303 N 0.64317 0.15694 0.20432 0.0
C304 C 0.70204 0.14394 0.21426 0.0
C305 C 0.75564 0.18424 0.19862 0.0
C306 C 0.17334 0.53344 0.01494 0.0
C307 C 0.12336 0.55584 0.03422 0.0
C308 C 0.19182 0.56144 0.98264 0.0
C309 C 0.16101 0.61281 0.9685 0.0
H310 H 0.19695 0.49227 0.0242 0.0
H311 H 0.22771 0.53974 0.96747 0.0
S312 S 1.032 0.69417 0.01009 0.0
N313 N 1.04716 0.63679 0.03835 0.0
N314 N 1.08166 0.68859 0.97701 0.0
C315 C 0.11388 0.63883 0.98843 0.0
C316 C 1.095 0.61041 0.02148 0.0
C317 C 0.63016 0.98594 0.4071 0.0
C318 C 0.58004 1.01366 0.42391 0.0
C319 C 0.63744 0.98772 0.37016 0.0
C320 C 0.59426 1.01631 0.34881 0.0
H321 H 0.66382 0.96255 0.42254 0.0
H322 H 0.67621 0.96535 0.35815 0.0
S323 S 0.45693 0.09831 0.37958 0.0
N324 N 0.48813 0.07301 0.41604 0.0
N325 N 0.50155 0.07516 0.34704 0.0
C326 C 0.5447 0.04493 0.36529 0.0
C327 C 0.53766 0.04391 0.40272 0.0
C328 C 0.61254 0.48388 0.71823 0.0
C329 C 0.65985 0.53226 0.73541 0.0
C330 C 0.60511 0.48075 0.68132 0.0
C331 C 0.64472 0.52583 0.66006 0.0
H332 H 0.58105 0.44781 0.73336 0.0
H333 H 0.5678 0.44276 0.66933 0.0
S334 S 0.77602 0.66204 0.69208 0.0
N335 N 0.74656 0.62686 0.72845 0.0
N336 N 0.73343 0.62006 0.65901 0.0
C337 C 0.69201 0.57478 0.67694 0.0
C338 C 0.69945 0.5781 0.71459 0.0
C339 C 0.59819 0.02982 0.64568 0.0
C340 C 0.64532 0.9962 0.62966 0.0
C341 C 0.59246 0.03396 0.6826 0.0
C342 C 0.63376 1.00483 0.70498 0.0
H343 H 0.56556 0.05341 0.6296 0.0
H344 H 0.55514 0.05998 0.6937 0.0
S345 S 0.76605 0.91213 0.67624 0.0
N346 N 0.73389 0.93285 0.63902 0.0
N347 N 0.72437 0.94243 0.70826 0.0
C348 C 0.681 0.97088 0.68924 0.0
C349 C 0.68646 0.96614 0.65165 0.0
C350 C 0.60768 0.5654 0.94912 0.0
C351 C 0.56097 0.51606 0.93188 0.0
C352 C 0.61492 0.56948 0.9862 0.0
C353 C 0.57574 0.52441 0.00766 0.0
H354 H 0.63857 0.60182 0.93387 0.0
H355 H 0.65056 0.60928 -0.00179 0.0
S356 S 0.44988 0.38216 0.97563 0.0
N357 N 0.47725 0.41881 0.93921 0.0
N358 N 0.49128 0.42588 0.00861 0.0
C359 C 0.53002 0.47367 0.99068 0.0
C360 C 0.52257 0.46962 0.95294 0.0
C361 C 1.06354 0.60515 0.26086 0.0
C362 C 1.09035 0.56339 0.23587 0.0
C363 C 1.06832 0.59531 0.29716 0.0
C364 C 1.09908 0.54263 0.30972 0.0
H365 H 1.03915 0.64635 0.25239 0.0
H366 H 1.04741 0.6288 0.31557 0.0
S367 S 0.17759 0.41938 0.25589 0.0
N368 N 0.15013 0.46812 0.22664 0.0
N369 N 0.15669 0.44816 0.295 0.0
C370 C 0.12551 0.5 0.28526 0.0
C371 C 0.12177 0.51076 0.24827 0.0
loop_
_geom_bond_atom_site_label_1
_geom_bond_atom_site_label_2
_geom_bond_distance
_geom_bond_site_symmetry_2
_ccdc_geom_bond_type
Nd0 C2 2.836 . S
Nd0 O20 2.500 . S
Nd0 O21 2.492 . S
Nd0 O22 2.487 . S
Nd0 O23 2.682 . S
Nd0 O24 2.410 . S
Nd0 O29 2.414 . S
Nd0 O31 2.424 1_455 S
Nd1 C11 2.836 . S
Nd1 O23 2.414 1_655 S
Nd1 O25 2.424 1_655 S
Nd1 O26 2.500 . S
Nd1 O27 2.492 . S
Nd1 O28 2.487 . S
Nd1 O29 2.682 1_655 S
Nd1 O30 2.410 . S
C2 Nd0 2.836 . S
C2 C3 1.498 . S
C2 O20 1.258 . S
C2 O21 1.239 . S
C3 C2 1.498 . S
C3 C4 1.366 . S
C3 C8 1.407 . S
C4 C3 1.366 . S
C4 C5 1.392 . S
C4 H32 0.930 . S
C5 C4 1.392 . S
C5 C6 1.398 . S
C5 H33 0.929 . S
C6 C5 1.398 . S
C6 C7 1.352 . S
C7 C6 1.352 . S
C7 C8 1.384 . S
C7 H34 0.930 . S
C8 C3 1.407 . S
C8 C7 1.384 . S
C8 H35 0.929 . S
C9 O22 1.241 . S
C9 O23 1.273 . S
C10 O24 1.251 . S
C10 O25 1.268 . S
C11 Nd1 2.836 . S
C11 C12 1.498 . S
C11 O26 1.258 . S
C11 O27 1.239 . S
C12 C11 1.498 . S
C12 C13 1.366 . S
C12 C17 1.407 . S
C13 C12 1.366 . S
C13 C14 1.392 . S
C13 H36 0.930 . S
C14 C13 1.392 . S
C14 C15 1.398 . S
C14 H37 0.929 . S
C15 C14 1.398 . S
C15 C16 1.352 . S
C16 C15 1.352 . S
C16 C17 1.384 . S
C16 H38 0.930 . S
C17 C12 1.407 . S
C17 C16 1.384 . S
C17 H39 0.929 . S
C18 O28 1.241 1_455 S
C18 O29 1.273 . S
C19 O30 1.251 . S
C19 O31 1.268 . S
O20 Nd0 2.500 . S
O20 C2 1.258 . S
O21 Nd0 2.492 . S
O21 C2 1.239 . S
O22 Nd0 2.487 . S
O22 C9 1.241 . S
O23 Nd0 2.682 . S
O23 Nd1 2.414 1_455 S
O23 C9 1.273 . S
O24 Nd0 2.410 . S
O24 C10 1.251 . S
O25 Nd1 2.424 1_455 S
O25 C10 1.268 . S
O26 Nd1 2.500 . S
O26 C11 1.258 . S
O27 Nd1 2.492 . S
O27 C11 1.239 . S
O28 Nd1 2.487 . S
O28 C18 1.241 1_655 S
O29 Nd0 2.414 . S
O29 Nd1 2.682 1_455 S
O29 C18 1.273 . S
O30 Nd1 2.410 . S
O30 C19 1.251 . S
O31 Nd0 2.424 1_655 S
O31 C19 1.268 . S
H32 C4 0.930 . S
H33 C5 0.929 . S
H34 C7 0.930 . S
H35 C8 0.929 . S
H36 C13 0.930 . S
H37 C14 0.929 . S
H38 C16 0.930 . S
H39 C17 0.929 . S
Nd40 C42 2.836 1_545 S
Nd40 O60 2.500 1_545 S
Nd40 O61 2.492 1_545 S
Nd40 O62 2.487 1_545 S
Nd40 O63 2.682 . S
Nd40 O64 2.410 1_545 S
Nd40 O69 2.414 . S
Nd40 O71 2.424 . S
Nd41 C51 2.836 . S
Nd41 O63 2.414 . S
Nd41 O65 2.424 1_545 S
Nd41 O66 2.500 . S
Nd41 O67 2.492 . S
Nd41 O68 2.487 . S
Nd41 O69 2.682 . S
Nd41 O70 2.410 . S
C42 Nd40 2.836 1_565 S
C42 C43 1.498 . S
C42 O60 1.258 . S
C42 O61 1.239 . S
C43 C42 1.498 . S
C43 C44 1.366 . S
C43 C48 1.407 . S
C44 C43 1.366 . S
C44 C45 1.392 . S
C44 H72 0.930 . S
C45 C44 1.392 . S
C45 C46 1.398 . S
C45 H73 0.929 . S
C46 C45 1.398 . S
C46 C47 1.352 . S
C47 C46 1.352 . S
C47 C48 1.384 . S
C47 H74 0.930 . S
C48 C43 1.407 . S
C48 C47 1.384 . S
C48 H75 0.929 . S
C49 O62 1.241 1_545 S
C49 O63 1.273 . S
C50 O64 1.251 . S
C50 O65 1.268 . S
C51 Nd41 2.836 . S
C51 C52 1.498 . S
C51 O66 1.258 . S
C51 O67 1.239 . S
C52 C51 1.498 . S
C52 C53 1.366 . S
C52 C57 1.407 . S
C53 C52 1.366 . S
C53 C54 1.392 . S
C53 H76 0.930 . S
C54 C53 1.392 . S
C54 C55 1.398 . S
C54 H77 0.929 . S
C55 C54 1.398 . S
C55 C56 1.352 . S
C56 C55 1.352 . S
C56 C57 1.384 . S
C56 H78 0.930 . S
C57 C52 1.407 . S
C57 C56 1.384 . S
C57 H79 0.929 . S
C58 O68 1.241 . S
C58 O69 1.273 . S
C59 O70 1.251 . S
C59 O71 1.268 . S
O60 Nd40 2.500 1_565 S
O60 C42 1.258 . S
O61 Nd40 2.492 1_565 S
O61 C42 1.239 . S
O62 Nd40 2.487 1_565 S
O62 C49 1.241 1_565 S
O63 Nd40 2.682 . S
O63 Nd41 2.414 . S
O63 C49 1.273 . S
O64 Nd40 2.410 1_565 S
O64 C50 1.251 . S
O65 Nd41 2.424 1_565 S
O65 C50 1.268 . S
O66 Nd41 2.500 . S
O66 C51 1.258 . S
O67 Nd41 2.492 . S
O67 C51 1.239 . S
O68 Nd41 2.487 . S
O68 C58 1.241 . S
O69 Nd40 2.414 . S
O69 Nd41 2.682 . S
O69 C58 1.273 . S
O70 Nd41 2.410 . S
O70 C59 1.251 . S
O71 Nd40 2.424 . S
O71 C59 1.268 . S
H72 C44 0.930 . S
H73 C45 0.929 . S
H74 C47 0.930 . S
H75 C48 0.929 . S
H76 C53 0.930 . S
H77 C54 0.929 . S
H78 C56 0.930 . S
H79 C57 0.929 . S
Nd80 C82 2.836 . S
Nd80 O100 2.500 . S
Nd80 O101 2.492 . S
Nd80 O102 2.487 . S
Nd80 O103 2.682 . S
Nd80 O104 2.410 . S
Nd80 O109 2.414 . S
Nd80 O111 2.424 . S
Nd81 C91 2.836 . S
Nd81 O103 2.414 . S
Nd81 O105 2.424 . S
Nd81 O106 2.500 . S
Nd81 O107 2.492 . S
Nd81 O108 2.487 . S
Nd81 O109 2.682 . S
Nd81 O110 2.410 . S
C82 Nd80 2.836 . S
C82 C83 1.498 . S
C82 O100 1.258 . S
C82 O101 1.239 . S
C83 C82 1.498 . S
C83 C84 1.366 . S
C83 C88 1.407 . S
C84 C83 1.366 . S
C84 C85 1.392 . S
C84 H112 0.930 . S
C85 C84 1.392 . S
C85 C86 1.398 . S
C85 H113 0.929 . S
C86 C85 1.398 . S
C86 C87 1.352 . S
C87 C86 1.352 . S
C87 C88 1.384 . S
C87 H114 0.930 . S
C88 C83 1.407 . S
C88 C87 1.384 . S
C88 H115 0.929 . S
C89 O102 1.241 . S
C89 O103 1.273 . S
C90 O104 1.251 . S
C90 O105 1.268 . S
C91 Nd81 2.836 . S
C91 C92 1.498 . S
C91 O106 1.258 . S
C91 O107 1.239 . S
C92 C91 1.498 . S
C92 C93 1.366 . S
C92 C97 1.407 . S
C93 C92 1.366 . S
C93 C94 1.392 . S
C93 H116 0.930 . S
C94 C93 1.392 . S
C94 C95 1.398 . S
C94 H117 0.929 . S
C95 C94 1.398 . S
C95 C96 1.352 . S
C96 C95 1.352 . S
C96 C97 1.384 . S
C96 H118 0.930 . S
C97 C92 1.407 . S
C97 C96 1.384 . S
C97 H119 0.929 . S
C98 O108 1.241 . S
C98 O109 1.273 . S
C99 O110 1.251 . S
C99 O111 1.268 . S
O100 Nd80 2.500 . S
O100 C82 1.258 . S
O101 Nd80 2.492 . S
O101 C82 1.239 . S
O102 Nd80 2.487 . S
O102 C89 1.241 . S
O103 Nd80 2.682 . S
O103 Nd81 2.414 . S
O103 C89 1.273 . S
O104 Nd80 2.410 . S
O104 C90 1.251 . S
O105 Nd81 2.424 . S
O105 C90 1.268 . S
O106 Nd81 2.500 . S
O106 C91 1.258 . S
O107 Nd81 2.492 . S
O107 C91 1.239 . S
O108 Nd81 2.487 . S
O108 C98 1.241 . S
O109 Nd80 2.414 . S
O109 Nd81 2.682 . S
O109 C98 1.273 . S
O110 Nd81 2.410 . S
O110 C99 1.251 . S
O111 Nd80 2.424 . S
O111 C99 1.268 . S
H112 C84 0.930 . S
H113 C85 0.929 . S
H114 C87 0.930 . S
H115 C88 0.929 . S
H116 C93 0.930 . S
H117 C94 0.929 . S
H118 C96 0.930 . S
H119 C97 0.929 . S
H120 C123 0.931 . S
H121 C126 0.928 . S
H122 C128 0.930 . S
C123 H120 0.931 . S
C123 C124 1.413 . S
C123 C125 1.360 1_565 S
C124 C123 1.413 . S
C124 C128 1.429 1_565 S
C125 C123 1.360 1_545 S
C125 C126 1.372 . S
C126 H121 0.928 . S
C126 C125 1.372 . S
C126 C127 1.404 . S
C127 C126 1.404 . S
C127 C128 1.391 . S
C128 H122 0.930 . S
C128 C124 1.429 1_545 S
C128 C127 1.391 . S
H129 C132 0.931 . S
H130 C135 0.928 . S
H131 C137 0.930 . S
C132 H129 0.931 . S
C132 C133 1.413 . S
C132 C134 1.360 . S
C133 C132 1.413 . S
C133 C137 1.429 . S
C134 C132 1.360 . S
C134 C135 1.372 . S
C135 H130 0.928 . S
C135 C134 1.372 . S
C135 C136 1.404 . S
C136 C135 1.404 . S
C136 C137 1.391 . S
C137 H131 0.930 . S
C137 C133 1.429 . S
C137 C136 1.391 . S
H138 C141 0.931 . S
H139 C144 0.928 . S
H140 C146 0.930 . S
C141 H138 0.931 . S
C141 C142 1.413 . S
C141 C143 1.360 1_655 S
C142 C141 1.413 . S
C142 C146 1.429 1_655 S
C143 C141 1.360 1_455 S
C143 C144 1.372 . S
C144 H139 0.928 . S
C144 C143 1.372 . S
C144 C145 1.404 . S
C145 C144 1.404 . S
C145 C146 1.391 . S
C146 H140 0.930 . S
C146 C142 1.429 1_455 S
C146 C145 1.391 . S
H147 C150 0.931 . S
H148 C153 0.928 . S
H149 C155 0.932 . S
C150 H147 0.931 . S
C150 C151 1.413 . S
C150 C152 1.360 1_655 S
C151 C150 1.413 . S
C151 C155 1.429 1_655 S
C152 C150 1.360 1_455 S
C152 C153 1.372 . S
C153 H148 0.928 . S
C153 C152 1.372 . S
C153 C154 1.404 . S
C154 C153 1.404 . S
C154 C155 1.391 . S
C155 H149 0.932 . S
C155 C151 1.429 1_455 S
C155 C154 1.391 . S
H156 C159 0.931 . S
H157 C162 0.928 . S
H158 C164 0.930 . S
C159 H156 0.931 . S
C159 C160 1.413 . S
C159 C161 1.364 . S
C160 C159 1.413 . S
C160 C164 1.429 . S
C161 C159 1.364 . S
C161 C162 1.368 1_545 S
C162 H157 0.928 . S
C162 C161 1.368 1_565 S
C162 C163 1.404 . S
C163 C162 1.404 . S
C163 C164 1.391 1_565 S
C164 H158 0.930 . S
C164 C160 1.429 . S
C164 C163 1.391 1_545 S
H165 C168 0.931 . S
H166 C171 0.928 . S
H167 C173 0.930 . S
C168 H165 0.931 . S
C168 C169 1.413 . S
C168 C170 1.360 . S
C169 C168 1.413 . S
C169 C173 1.429 . S
C170 C168 1.360 . S
C170 C171 1.372 . S
C171 H166 0.928 . S
C171 C170 1.372 . S
C171 C172 1.404 . S
C172 C171 1.404 . S
C172 C173 1.391 . S
C173 H167 0.930 . S
C173 C169 1.429 . S
C173 C172 1.391 . S
C174 C175 1.369 . S
C174 C176 1.419 . S
C174 H178 0.930 . S
C175 C174 1.369 . S
C175 C184 1.429 . S
C176 C174 1.419 . S
C176 C177 1.363 . S
C176 H179 0.929 . S
C177 C176 1.363 . S
C177 C183 1.428 . S
H178 C174 0.930 . S
H179 C176 0.929 . S
S180 N181 1.613 . S
S180 N182 1.610 . S
N181 S180 1.613 . S
N181 C184 1.350 . S
N182 S180 1.610 . S
N182 C183 1.351 . S
C183 C177 1.428 . S
C183 N182 1.351 . S
C183 C184 1.434 . S
C184 C175 1.429 . S
C184 N181 1.350 . S
C184 C183 1.434 . S
C185 C186 1.369 . S
C185 C187 1.419 . S
C185 H189 0.930 . S
C186 C185 1.369 . S
C186 C195 1.429 . S
C187 C185 1.419 . S
C187 C188 1.363 . S
C187 H190 0.929 . S
C188 C187 1.363 . S
C188 C194 1.428 . S
H189 C185 0.930 . S
H190 C187 0.929 . S
S191 N192 1.613 . S
S191 N193 1.610 . S
N192 S191 1.613 . S
N192 C195 1.350 . S
N193 S191 1.610 . S
N193 C194 1.351 . S
C194 C188 1.428 . S
C194 N193 1.351 . S
C194 C195 1.434 . S
C195 C186 1.429 . S
C195 N192 1.350 . S
C195 C194 1.434 . S
C196 C197 1.369 . S
C196 C198 1.419 . S
C196 H200 0.930 . S
C197 C196 1.369 . S
C197 C206 1.429 . S
C198 C196 1.419 . S
C198 C199 1.363 . S
C198 H201 0.929 . S
C199 C198 1.363 . S
C199 C205 1.428 . S
H200 C196 0.930 . S
H201 C198 0.929 . S
S202 N203 1.613 . S
S202 N204 1.610 . S
N203 S202 1.613 . S
N203 C206 1.350 . S
N204 S202 1.610 . S
N204 C205 1.351 . S
C205 C199 1.428 . S
C205 N204 1.351 . S
C205 C206 1.434 . S
C206 C197 1.429 . S
C206 N203 1.350 . S
C206 C205 1.434 . S
C207 C208 1.369 . S
C207 C209 1.419 . S
C207 H211 0.930 . S
C208 C207 1.369 . S
C208 C217 1.429 . S
C209 C207 1.419 . S
C209 C210 1.363 . S
C209 H212 0.929 . S
C210 C209 1.363 . S
C210 C216 1.428 . S
H211 C207 0.930 . S
H212 C209 0.929 . S
S213 N214 1.613 . S
S213 N215 1.610 . S
N214 S213 1.613 . S
N214 C217 1.350 . S
N215 S213 1.610 . S
N215 C216 1.351 . S
C216 C210 1.428 . S
C216 N215 1.351 . S
C216 C217 1.434 . S
C217 C208 1.429 . S
C217 N214 1.350 . S
C217 C216 1.434 . S
C218 C219 1.369 . S
C218 C220 1.419 . S
C218 H222 0.930 . S
C219 C218 1.369 . S
C219 C228 1.429 . S
C220 C218 1.419 . S
C220 C221 1.363 . S
C220 H223 0.929 . S
C221 C220 1.363 . S
C221 C227 1.428 . S
H222 C218 0.930 . S
H223 C220 0.929 . S
S224 N225 1.613 . S
S224 N226 1.610 . S
N225 S224 1.613 . S
N225 C228 1.350 . S
N226 S224 1.610 . S
N226 C227 1.351 . S
C227 C221 1.428 . S
C227 N226 1.351 . S
C227 C228 1.434 . S
C228 C219 1.429 . S
C228 N225 1.350 . S
C228 C227 1.434 . S
C229 C230 1.369 . S
C229 C231 1.419 . S
C229 H233 0.930 . S
C230 C229 1.369 . S
C230 C239 1.429 . S
C231 C229 1.419 . S
C231 C232 1.363 . S
C231 H234 0.929 . S
C232 C231 1.363 . S
C232 C238 1.428 . S
H233 C229 0.930 . S
H234 C231 0.929 . S
S235 N236 1.613 . S
S235 N237 1.610 . S
N236 S235 1.613 . S
N236 C239 1.350 . S
N237 S235 1.610 . S
N237 C238 1.351 . S
C238 C232 1.428 . S
C238 N237 1.351 . S
C238 C239 1.434 . S
C239 C230 1.429 . S
C239 N236 1.350 . S
C239 C238 1.434 . S
C240 C241 1.369 . S
C240 C242 1.419 . S
C240 H244 0.930 . S
C241 C240 1.369 . S
C241 C250 1.429 . S
C242 C240 1.419 . S
C242 C243 1.363 . S
C242 H245 0.929 . S
C243 C242 1.363 . S
C243 C249 1.428 . S
H244 C240 0.930 . S
H245 C242 0.929 . S
S246 N247 1.613 . S
S246 N248 1.610 . S
N247 S246 1.613 . S
N247 C250 1.350 . S
N248 S246 1.610 . S
N248 C249 1.351 . S
C249 C243 1.428 . S
C249 N248 1.351 . S
C249 C250 1.434 . S
C250 C241 1.429 . S
C250 N247 1.350 . S
C250 C249 1.434 . S
C251 C252 1.369 . S
C251 C253 1.419 . S
C251 H255 0.930 . S
C252 C251 1.369 . S
C252 C261 1.429 . S
C253 C251 1.419 . S
C253 C254 1.363 . S
C253 H256 0.929 . S
C254 C253 1.363 . S
C254 C260 1.428 . S
H255 C251 0.930 . S
H256 C253 0.929 . S
S257 N258 1.613 . S
S257 N259 1.610 . S
N258 S257 1.613 . S
N258 C261 1.350 . S
N259 S257 1.610 . S
N259 C260 1.351 . S
C260 C254 1.428 . S
C260 N259 1.351 . S
C260 C261 1.434 . S
C261 C252 1.429 . S
C261 N258 1.350 . S
C261 C260 1.434 . S
C262 C263 1.369 . S
C262 C264 1.419 . S
C262 H266 0.930 . S
C263 C262 1.369 . S
C263 C272 1.429 . S
C264 C262 1.419 . S
C264 C265 1.363 . S
C264 H267 0.929 . S
C265 C264 1.363 . S
C265 C271 1.428 . S
H266 C262 0.930 . S
H267 C264 0.929 . S
S268 N269 1.613 . S
S268 N270 1.610 . S
N269 S268 1.613 . S
N269 C272 1.350 . S
N270 S268 1.610 . S
N270 C271 1.351 . S
C271 C265 1.428 . S
C271 N270 1.351 . S
C271 C272 1.434 . S
C272 C263 1.429 . S
C272 N269 1.350 . S
C272 C271 1.434 . S
C273 C274 1.369 . S
C273 C275 1.419 . S
C273 H277 0.930 . S
C274 C273 1.369 . S
C274 C283 1.429 . S
C275 C273 1.419 . S
C275 C276 1.363 . S
C275 H278 0.929 . S
C276 C275 1.363 . S
C276 C282 1.428 . S
H277 C273 0.930 . S
H278 C275 0.929 . S
S279 N280 1.613 . S
S279 N281 1.610 . S
N280 S279 1.613 . S
N280 C283 1.350 . S
N281 S279 1.610 . S
N281 C282 1.351 . S
C282 C276 1.428 . S
C282 N281 1.351 . S
C282 C283 1.434 . S
C283 C274 1.429 . S
C283 N280 1.350 . S
C283 C282 1.434 . S
C284 C285 1.369 . S
C284 C286 1.419 . S
C284 H288 0.930 . S
C285 C284 1.369 . S
C285 C294 1.429 . S
C286 C284 1.419 . S
C286 C287 1.363 . S
C286 H289 0.929 . S
C287 C286 1.363 . S
C287 C293 1.428 . S
H288 C284 0.930 . S
H289 C286 0.929 . S
S290 N291 1.613 . S
S290 N292 1.610 . S
N291 S290 1.613 . S
N291 C294 1.350 . S
N292 S290 1.610 . S
N292 C293 1.351 . S
C293 C287 1.428 . S
C293 N292 1.351 . S
C293 C294 1.434 . S
C294 C285 1.429 . S
C294 N291 1.350 . S
C294 C293 1.434 . S
C295 C296 1.369 . S
C295 C297 1.419 . S
C295 H299 0.930 . S
C296 C295 1.369 . S
C296 C305 1.429 . S
C297 C295 1.419 . S
C297 C298 1.363 . S
C297 H300 0.929 . S
C298 C297 1.363 . S
C298 C304 1.428 . S
H299 C295 0.930 . S
H300 C297 0.929 . S
S301 N302 1.613 . S
S301 N303 1.610 . S
N302 S301 1.613 . S
N302 C305 1.350 . S
N303 S301 1.610 . S
N303 C304 1.351 . S
C304 C298 1.428 . S
C304 N303 1.351 . S
C304 C305 1.434 . S
C305 C296 1.429 . S
C305 N302 1.350 . S
C305 C304 1.434 . S
C306 C307 1.369 1_655 S
C306 C308 1.419 1_554 S
C306 H310 0.930 . S
C307 C306 1.369 1_455 S
C307 C316 1.429 . S
C308 C306 1.419 1_556 S
C308 C309 1.363 1_655 S
C308 H311 0.929 . S
C309 C308 1.363 1_455 S
C309 C315 1.428 1_556 S
H310 C306 0.930 . S
H311 C308 0.929 . S
S312 N313 1.613 . S
S312 N314 1.610 . S
N313 S312 1.613 . S
N313 C316 1.350 . S
N314 S312 1.610 . S
N314 C315 1.351 . S
C315 C309 1.428 1_554 S
C315 N314 1.351 . S
C315 C316 1.434 . S
C316 C307 1.429 . S
C316 N313 1.350 . S
C316 C315 1.434 . S
C317 C318 1.369 . S
C317 C319 1.419 . S
C317 H321 0.930 . S
C318 C317 1.369 . S
C318 C327 1.429 . S
C319 C317 1.419 . S
C319 C320 1.363 . S
C319 H322 0.929 . S
C320 C319 1.363 . S
C320 C326 1.428 . S
H321 C317 0.930 . S
H322 C319 0.929 . S
S323 N324 1.613 . S
S323 N325 1.610 . S
N324 S323 1.613 . S
N324 C327 1.350 1_565 S
N325 S323 1.610 . S
N325 C326 1.351 1_565 S
C326 C320 1.428 . S
C326 N325 1.351 1_545 S
C326 C327 1.434 . S
C327 C318 1.429 . S
C327 N324 1.350 1_545 S
C327 C326 1.434 . S
C328 C329 1.369 . S
C328 C330 1.419 . S
C328 H332 0.930 . S
C329 C328 1.369 . S
C329 C338 1.429 . S
C330 C328 1.419 . S
C330 C331 1.363 . S
C330 H333 0.929 . S
C331 C330 1.363 . S
C331 C337 1.428 . S
H332 C328 0.930 . S
H333 C330 0.929 . S
S334 N335 1.613 . S
S334 N336 1.610 . S
N335 S334 1.613 . S
N335 C338 1.350 . S
N336 S334 1.610 . S
N336 C337 1.351 . S
C337 C331 1.428 . S
C337 N336 1.351 . S
C337 C338 1.434 . S
C338 C329 1.429 . S
C338 N335 1.350 . S
C338 C337 1.434 . S
C339 C340 1.369 . S
C339 C341 1.419 . S
C339 H343 0.930 . S
C340 C339 1.369 . S
C340 C349 1.429 1_545 S
C341 C339 1.419 . S
C341 C342 1.363 . S
C341 H344 0.929 . S
C342 C341 1.363 . S
C342 C348 1.428 1_545 S
H343 C339 0.930 . S
H344 C341 0.929 . S
S345 N346 1.613 . S
S345 N347 1.610 . S
N346 S345 1.613 . S
N346 C349 1.350 . S
N347 S345 1.610 . S
N347 C348 1.351 . S
C348 C342 1.428 1_565 S
C348 N347 1.351 . S
C348 C349 1.434 . S
C349 C340 1.429 1_565 S
C349 N346 1.350 . S
C349 C348 1.434 . S
C350 C351 1.369 . S
C350 C352 1.419 . S
C350 H354 0.930 . S
C351 C350 1.369 . S
C351 C360 1.429 . S
C352 C350 1.419 . S
C352 C353 1.363 1_556 S
C352 H355 0.929 1_556 S
C353 C352 1.363 1_554 S
C353 C359 1.428 1_554 S
H354 C350 0.930 . S
H355 C352 0.929 1_554 S
S356 N357 1.613 . S
S356 N358 1.610 . S
N357 S356 1.613 . S
N357 C360 1.350 . S
N358 S356 1.610 . S
N358 C359 1.351 . S
C359 C353 1.428 1_556 S
C359 N358 1.351 . S
C359 C360 1.434 . S
C360 C351 1.429 . S
C360 N357 1.350 . S
C360 C359 1.434 . S
C361 C362 1.369 1_655 S
C361 C363 1.419 . S
C361 H365 0.930 . S
C362 C361 1.369 1_455 S
C362 C371 1.429 . S
C363 C361 1.419 . S
C363 C364 1.363 1_655 S
C363 H366 0.929 . S
C364 C363 1.363 1_455 S
C364 C370 1.428 . S
H365 C361 0.930 . S
H366 C363 0.929 . S
S367 N368 1.613 . S
S367 N369 1.610 . S
N368 S367 1.613 . S
N368 C371 1.350 . S
N369 S367 1.610 . S
N369 C370 1.351 . S
C370 C364 1.428 . S
C370 N369 1.351 . S
C370 C371 1.434 . S
C371 C362 1.429 . S
C371 N368 1.350 . S
C371 C370 1.434 . S
C175 C10 3.037 . S
C177 C169 2.999 . S
C186 C55 1.483 . S
C188 C151 1.573 . S
C197 C90 1.869 . S
C199 C163 1.869 . S
C208 C19 2.976 . S
C210 C172 2.989 . S
C221 C154 1.620 . S
C219 C46 1.499 . S
C232 C160 1.947 . S
C230 C99 1.928 . S
C241 C50 1.871 . S
C243 C133 1.848 . S
C252 C95 1.219 . S
C254 C142 1.401 . S
C263 C6 1.467 . S
C265 C124 1.555 . S
C276 C136 1.866 . S
C274 C59 1.893 . S
C287 C145 1.103 . S
C285 C86 0.935 . S
C296 C15 1.685 . S
C298 C127 1.814 . S
C309 C143 1.022 . S
C307 C18 1.027 . S
C318 C49 1.419 . S
C320 C125 1.468 . S
C329 C98 1.279 . S
C331 C134 1.316 . S
C342 C161 1.341 . S
C340 C58 1.292 . S
C353 C170 1.811 . S
C351 C89 1.735 . S
C362 C9 1.431 . S
C364 C152 1.497 . S
