# Generated by pormake.
# Topology tsx, (6,3)-cn, num edge types: 1
# Building blocks:
#     Node 0, Type 0, BuildingBlock: JUFBIX_clean_sbu_0, # of connection points: 6
#     Node 1, Type 0, BuildingBlock: JUFBIX_clean_sbu_0, # of connection points: 6
#     Node 2, Type 1, BuildingBlock: MIDCAF_clean_linker_0, # of connection points: 3
#     Node 3, Type 1, BuildingBlock: MIDCAF_clean_linker_0, # of connection points: 3
#     Node 4, Type 1, BuildingBlock: MIDCAF_clean_linker_0, # of connection points: 3
#     Node 5, Type 1, BuildingBlock: MIDCAF_clean_linker_0, # of connection points: 3
#     Edge 6, Type (0, 1), BuildingBlock: AJUNOK_clean_linker_0, # of connection points: 2
#     Edge 7, Type (0, 1), BuildingBlock: AJUNOK_clean_linker_0, # of connection points: 2
#     Edge 8, Type (0, 1), BuildingBlock: AJUNOK_clean_linker_0, # of connection points: 2
#     Edge 9, Type (0, 1), BuildingBlock: AJUNOK_clean_linker_0, # of connection points: 2
#     Edge 10, Type (0, 1), BuildingBlock: AJUNOK_clean_linker_0, # of connection points: 2
#     Edge 11, Type (0, 1), BuildingBlock: AJUNOK_clean_linker_0, # of connection points: 2
#     Edge 12, Type (0, 1), BuildingBlock: AJUNOK_clean_linker_0, # of connection points: 2
#     Edge 13, Type (0, 1), BuildingBlock: AJUNOK_clean_linker_0, # of connection points: 2
#     Edge 14, Type (0, 1), BuildingBlock: AJUNOK_clean_linker_0, # of connection points: 2
#     Edge 15, Type (0, 1), BuildingBlock: AJUNOK_clean_linker_0, # of connection points: 2
#     Edge 16, Type (0, 1), BuildingBlock: AJUNOK_clean_linker_0, # of connection points: 2
#     Edge 17, Type (0, 1), BuildingBlock: AJUNOK_clean_linker_0, # of connection points: 2
# Relax obj value: 0.161
# Max RMSD: 0.169
# Mean RMSD: 0.138
data_MOF--net-tsx--node1-JUFBIX_clean_sbu_0--node2-MIDCAF_clean_linker_0--edge1-AJUNOK_clean_linker_0
_symmetry_space_group_name_H-M    P1
_symmetry_Int_Tables_number       1
_symmetry_cell_setting            triclinic
loop_
_symmetry_equiv_pos_as_xyz
'x, y, z'
_cell_length_a     18.862131
_cell_length_b     22.163358
_cell_length_c     34.510461
_cell_angle_alpha  92.509149
_cell_angle_beta   88.523216
_cell_angle_gamma 99.625193
loop_
_atom_site_label
_atom_site_type_symbol
_atom_site_fract_x
_atom_site_fract_y
_atom_site_fract_z
_atom_type_partial_charge
Co0 Co 0.06838 0.99345 -0.00015 0.0
C1 C 1.00994 0.02473 0.9311 0.0
Co2 Co 0.97944 0.04655 0.00756 0.0
C3 C 0.1613 0.90101 0.00522 0.0
C4 C 0.20212 0.97232 0.96665 0.0
N5 N 0.14605 0.95292 0.99057 0.0
N6 N 0.22531 0.88816 0.99178 0.0
C7 C 0.2507 0.93274 0.96731 0.0
H8 H 0.1264 0.87336 0.02539 0.0
H9 H 0.20706 0.01252 0.94946 0.0
C10 C 0.03843 0.01684 0.07628 0.0
N11 N 0.90297 0.08795 0.01746 0.0
C12 C 0.89135 0.14117 0.00328 0.0
C13 C 0.849 0.07278 0.04345 0.0
N14 N 0.8327 0.16019 0.01977 0.0
C15 C 0.80565 0.11691 0.04482 0.0
C16 C 0.93604 0.91924 0.00356 0.0
O17 O 0.07877 0.9893 0.05426 0.0
O18 O 0.99202 0.04381 0.06148 0.0
O19 O 0.91568 0.97102 0.00775 0.0
O20 O 1.00291 0.91733 -0.00061 0.0
O21 O 0.96788 0.0495 0.95366 0.0
H22 H 0.84252 0.03282 0.06093 0.0
H23 H 0.92532 0.16526 0.98123 0.0
O24 O 0.05725 0.99808 0.94553 0.0
O25 O 0.13281 0.07044 0.00052 0.0
O26 O 0.0434 0.12162 0.00713 0.0
C27 C 0.11048 0.12152 0.0036 0.0
H28 H 0.2999 0.93547 0.95014 0.0
H29 H 0.75878 0.11782 0.06348 0.0
Co30 Co 0.55518 0.4832 0.5048 0.0
C31 C 0.50221 0.51855 0.43563 0.0
Co32 Co 0.463 0.53318 0.51165 0.0
C33 C 0.65077 0.39164 0.50818 0.0
C34 C 0.69352 0.46895 0.47465 0.0
N35 N 0.63541 0.44522 0.496 0.0
N36 N 0.71654 0.38181 0.49548 0.0
C37 C 0.74335 0.43046 0.47448 0.0
H38 H 0.61486 0.36087 0.5262 0.0
H39 H 0.69918 0.51152 0.45982 0.0
C40 C 0.51651 0.49831 0.58085 0.0
N41 N 0.38342 0.57162 0.52063 0.0
C42 C 0.36835 0.62352 0.50603 0.0
C43 C 0.32882 0.55381 0.54577 0.0
N44 N 0.30648 0.63883 0.52113 0.0
C45 C 0.28196 0.59509 0.5464 0.0
C46 C 0.42475 0.40571 0.50353 0.0
O47 O 0.56188 0.47612 0.55907 0.0
O48 O 0.46996 0.52497 0.56579 0.0
O49 O 0.40181 0.45636 0.50785 0.0
O50 O 0.49232 0.40601 0.50147 0.0
O51 O 0.45706 0.54087 0.45752 0.0
H52 H 0.32402 0.51381 0.5631 0.0
H53 H 0.40232 0.64962 0.48479 0.0
O54 O 0.54807 0.49105 0.45064 0.0
O55 O 0.61642 0.56098 0.50829 0.0
O56 O 0.52505 0.60994 0.51521 0.0
C57 C 0.59259 0.61125 0.51245 0.0
H58 H 0.79488 0.43701 0.45933 0.0
H59 H 0.23484 0.59379 0.56508 0.0
C60 C 0.9294 0.20094 0.45131 0.0
C61 C 0.87775 0.1855 0.4808 0.0
C62 C 0.86833 0.12621 0.49531 0.0
C63 C 0.90905 0.08288 0.47978 0.0
H64 H 0.06741 0.9465 0.50428 0.0
H65 H 0.12612 0.86806 0.53234 0.0
H66 H 0.23315 0.84081 0.42262 0.0
H67 H 0.17335 0.91649 0.39421 0.0
H68 H 0.13753 0.97568 0.31937 0.0
H69 H 0.14229 0.97806 0.24862 0.0
H70 H 0.94336 0.05057 0.25076 0.0
H71 H 0.94015 0.05078 0.32128 0.0
H72 H 1.00693 0.17085 0.41213 0.0
H73 H 0.93757 0.24606 0.43939 0.0
H74 H 0.8291 0.1133 0.5182 0.0
H75 H 0.90002 0.03708 0.49059 0.0
N76 N 0.03232 0.0149 0.44783 0.0
N77 N 0.07364 0.97791 0.38795 0.0
N78 N 0.99867 0.05171 0.38927 0.0
C79 C 0.07196 0.97767 0.42733 0.0
C80 C 0.03679 0.01425 0.36874 0.0
C81 C 0.99607 0.05248 0.42861 0.0
C82 C 0.11346 0.93648 0.44665 0.0
C83 C 0.10299 0.92355 0.48613 0.0
C84 C 0.13693 0.87905 0.50225 0.0
C85 C 0.18354 0.84829 0.47941 0.0
C86 C 0.1974 0.86391 0.44077 0.0
C87 C 0.16257 0.90713 0.42452 0.0
C88 C 0.03889 0.01374 0.32592 0.0
C89 C 0.09496 0.9923 0.3047 0.0
C90 C 0.09764 0.99351 0.26422 0.0
C91 C 0.044 0.01564 0.2442 0.0
C92 C 0.98683 0.03524 0.26542 0.0
C93 C 0.98472 0.03495 0.30583 0.0
C94 C 0.95851 0.09816 0.44916 0.0
C95 C 0.96886 0.15778 0.43556 0.0
C96 C 0.77245 0.87485 0.56845 0.0
C97 C 0.78461 0.84415 0.53315 0.0
C98 C 0.84549 0.8666 0.51039 0.0
C99 C 0.8959 0.9162 0.52414 0.0
H100 H 0.05612 0.10186 0.50729 0.0
H101 H 0.149 0.1786 0.47862 0.0
H102 H 0.28447 0.16932 0.57644 0.0
H103 H 0.19302 0.09155 0.60401 0.0
H104 H 0.10826 0.08048 0.68655 0.0
H105 H 0.10808 0.08324 0.75733 0.0
H106 H 0.89216 0.98126 0.75883 0.0
H107 H 0.89143 0.97865 0.68819 0.0
H108 H 0.81306 0.94444 0.61051 0.0
H109 H 0.72592 0.85875 0.58654 0.0
H110 H 0.8553 0.84448 0.48261 0.0
H111 H 0.94353 0.93096 0.50673 0.0
N112 N 1.00136 0.01801 0.55958 0.0
N113 N 0.05584 0.05676 0.61813 0.0
N114 N 0.94563 0.99095 0.61944 0.0
C115 C 0.05685 0.05344 0.57874 0.0
C116 C 1.00035 0.02588 0.63869 0.0
C117 C 0.94545 0.9864 0.58009 0.0
C118 C 0.1169 0.09103 0.55786 0.0
C119 C 0.10665 0.11474 0.52178 0.0
C120 C 0.15951 0.15919 0.50574 0.0
C121 C 0.22351 0.18076 0.5257 0.0
C122 C 0.2358 0.15366 0.56036 0.0
C123 C 0.18307 0.10942 0.5763 0.0
C124 C 0.99987 0.0293 0.68161 0.0
C125 C 0.06047 0.05899 0.70188 0.0
C126 C 0.06057 0.0605 0.74237 0.0
C127 C 0.99993 0.03288 0.76335 0.0
C128 C 0.93913 1.00375 0.74326 0.0
C129 C 0.93907 1.00193 0.70279 0.0
C130 C 0.88659 0.94349 0.56105 0.0
C131 C 0.8228 0.92381 0.58225 0.0
C132 C 0.33863 0.64026 0.95029 0.0
C133 C 0.35946 0.67452 0.9845 0.0
C134 C 0.41857 0.66133 0.00474 0.0
C135 C 0.45914 0.61808 0.98934 0.0
H136 H 0.57246 0.44934 0.00679 0.0
H137 H 0.6396 0.37568 0.03337 0.0
H138 H 0.76948 0.37889 0.92848 0.0
H139 H 0.70259 0.45149 0.90178 0.0
H140 H 0.5998 0.43985 0.82388 0.0
H141 H 0.59413 0.43183 0.75318 0.0
H142 H 0.46812 0.57765 0.75512 0.0
H143 H 0.47168 0.58466 0.82559 0.0
H144 H 0.36323 0.57385 0.90761 0.0
H145 H 0.29356 0.64934 0.93393 0.0
H146 H 0.43526 0.6863 0.03155 0.0
H147 H 0.50682 0.61152 0.00409 0.0
N148 N 0.53695 0.52216 0.95246 0.0
N149 N 0.58194 0.48773 0.8928 0.0
N150 N 0.49098 0.54735 0.89372 0.0
C151 C 0.58282 0.49037 0.93219 0.0
C152 C 0.53644 0.51614 0.87336 0.0
C153 C 0.49064 0.55071 0.93309 0.0
C154 C 0.63089 0.4553 0.95182 0.0
C155 C 0.61584 0.43502 0.98964 0.0
C156 C 0.65431 0.39294 0.00488 0.0
C157 C 0.70953 0.37161 0.98289 0.0
C158 C 0.72768 0.39502 0.94621 0.0
C159 C 0.6888 0.43629 0.93084 0.0
C160 C 0.53552 0.51248 0.83046 0.0
C161 C 0.57079 0.47018 0.80925 0.0
C162 C 0.56774 0.4656 0.76878 0.0
C163 C 0.52958 0.50331 0.74876 0.0
C164 C 0.49612 0.54672 0.76987 0.0
C165 C 0.49858 0.55096 0.81026 0.0
C166 C 0.44132 0.58737 0.9536 0.0
C167 C 0.37908 0.59733 0.93501 0.0
C168 C 0.2953 0.36951 0.07072 0.0
C169 C 0.30485 0.34933 0.03224 0.0
C170 C 0.36136 0.38051 0.00968 0.0
C171 C 0.4087 0.43033 0.02598 0.0
H172 H 0.63691 0.56233 0.02023 0.0
H173 H 0.73118 0.63994 0.99221 0.0
H174 H 0.67988 0.7736 0.07859 0.0
H175 H 0.58716 0.69718 0.10619 0.0
H176 H 0.5951 0.61137 0.19385 0.0
H177 H 0.59503 0.60983 0.26454 0.0
H178 H 0.39896 0.47787 0.263 0.0
H179 H 0.39811 0.4793 0.19242 0.0
H180 H 0.33421 0.43097 0.11722 0.0
H181 H 0.25216 0.34624 0.0887 0.0
H182 H 0.36912 0.36608 0.9797 0.0
H183 H 0.45163 0.45367 0.00811 0.0
N184 N 0.50564 0.53442 0.06529 0.0
N185 N 0.54864 0.5814 0.12461 0.0
N186 N 0.45255 0.50032 0.12445 0.0
C187 C 0.55237 0.57783 0.08524 0.0
C188 C 0.49921 0.54255 0.14444 0.0
C189 C 0.45475 0.49577 0.08511 0.0
C190 C 0.60502 0.6238 0.06538 0.0
C191 C 0.64562 0.6085 0.03277 0.0
C192 C 0.69968 0.65261 0.01701 0.0
C193 C 0.71282 0.7126 0.03341 0.0
C194 C 0.67072 0.72782 0.06529 0.0
C195 C 0.61785 0.68397 0.08118 0.0
C196 C 0.497 0.545 0.18737 0.0
C197 C 0.55163 0.58231 0.20849 0.0
C198 C 0.55187 0.58131 0.24892 0.0
C199 C 0.49744 0.54319 0.26895 0.0
C200 C 0.44148 0.50762 0.24809 0.0
C201 C 0.44135 0.50831 0.20768 0.0
C202 C 0.40135 0.44829 0.06529 0.0
C203 C 0.3429 0.41804 0.08706 0.0
C204 C 0.13523 0.23534 0.01427 0.0
C205 C 0.16149 0.18039 0.00524 0.0
C206 C 0.18207 0.29078 0.02046 0.0
C207 C 0.25698 0.29373 0.01739 0.0
H208 H 0.07805 0.23536 0.01817 0.0
H209 H 0.15961 0.33131 0.02921 0.0
S210 S 0.35366 0.16497 0.99094 0.0
N211 N 0.2678 0.13371 0.99075 0.0
N212 N 0.35557 0.23835 0.00241 0.0
C213 C 0.28407 0.24018 0.00622 0.0
C214 C 0.2364 0.1834 0.00018 0.0
C215 C 0.21627 0.77622 -0.00383 0.0
C216 C 0.25768 0.83515 -0.00166 0.0
C217 C 0.24927 0.72381 -0.00549 0.0
C218 C 0.32472 0.72857 -0.00459 0.0
H219 H 0.15851 0.77075 0.99319 0.0
H220 H 0.21575 0.67933 0.99062 0.0
S221 S 0.45587 0.87278 0.00645 0.0
N222 N 0.37679 0.89529 0.00583 0.0
N223 N 0.43905 0.79728 0.00216 0.0
C224 C 0.36608 0.78726 0.00055 0.0
C225 C 0.33248 0.84042 0.00207 0.0
C226 C 0.80789 0.86789 0.00384 0.0
C227 C 0.88124 0.86277 0.00526 0.0
C228 C 0.75382 0.81782 0.01042 0.0
C229 C 0.7706 0.76037 0.01862 0.0
H230 H 0.79174 0.91154 -0.00112 0.0
H231 H 0.69827 0.82472 0.01061 0.0
S232 S 0.9535 0.72061 0.02253 0.0
N233 N 0.96757 0.79402 0.01278 0.0
N234 N 0.86529 0.69977 0.02544 0.0
C235 C 0.84335 0.75335 0.01793 0.0
C236 C 0.89882 0.80458 0.0112 0.0
C237 C 0.72886 0.21341 0.01375 0.0
C238 C 0.80375 0.21473 0.01236 0.0
C239 C 0.69906 0.26521 0.00573 0.0
C240 C 0.74303 0.32029 -0.00405 0.0
H241 H 0.69283 0.17147 0.02004 0.0
H242 H 0.64104 0.26144 0.00583 0.0
S243 S 0.9424 0.35022 0.99276 0.0
N244 N 0.92139 0.2776 0.00388 0.0
N245 N 0.86514 0.37471 0.98809 0.0
C246 C 0.81801 0.32297 -0.00435 0.0
C247 C 0.84843 0.27027 0.004 0.0
C248 C 0.61564 0.72579 0.52056 0.0
C249 C 0.64282 0.67061 0.51441 0.0
C250 C 0.66178 0.78215 0.52475 0.0
C251 C 0.73692 0.78573 0.52263 0.0
H252 H 0.55821 0.72551 0.52304 0.0
H253 H 0.63849 0.8232 0.53056 0.0
S254 S 0.83607 0.65559 0.50563 0.0
N255 N 0.75045 0.6238 0.50508 0.0
N256 N 0.83667 0.72971 0.5132 0.0
C257 C 0.76493 0.73137 0.51524 0.0
C258 C 0.71805 0.67386 0.51113 0.0
C259 C 0.82646 0.33991 0.50708 0.0
C260 C 0.752 0.33004 0.50071 0.0
C261 C 0.86589 0.29167 0.5039 0.0
C262 C 0.83246 0.23155 0.49405 0.0
H263 H 0.85497 0.38597 0.51268 0.0
H264 H 0.92373 0.30205 0.507 0.0
S265 S 0.63772 0.18055 0.47763 0.0
N266 N 0.64535 0.25508 0.48701 0.0
N267 N 0.71959 0.16402 0.48074 0.0
C268 C 0.75723 0.22023 0.49032 0.0
C269 C 0.71692 0.26959 0.49371 0.0
C270 C 0.39722 0.29132 0.50798 0.0
C271 C 0.37287 0.34728 0.50355 0.0
C272 C 0.34858 0.23681 0.51309 0.0
C273 C 0.27376 0.23602 0.51354 0.0
H274 H 0.45427 0.28989 0.50909 0.0
H275 H 0.36968 0.19525 0.5179 0.0
S276 S 0.18187 0.36906 0.5004 0.0
N277 N 0.26837 0.39746 0.49742 0.0
N278 N 0.17762 0.2954 0.50751 0.0
C279 C 0.24867 0.29098 0.50728 0.0
C280 C 0.29802 0.34647 0.5022 0.0
C281 C 0.31879 0.74672 0.50244 0.0
C282 C 0.27476 0.69182 0.51287 0.0
C283 C 0.28909 0.79809 0.49308 0.0
C284 C 0.21431 0.79679 0.49431 0.0
H285 H 0.3767 0.75002 0.50134 0.0
H286 H 0.3248 0.83892 0.4843 0.0
S287 S 0.07486 0.66436 0.51791 0.0
N288 N 0.15175 0.63917 0.52226 0.0
N289 N 0.09668 0.73645 0.50585 0.0
C290 C 0.16964 0.74284 0.50518 0.0
C291 C 0.19964 0.69019 0.51419 0.0
C292 C 0.0616 0.96793 0.1376 0.0
C293 C 0.04495 0.01857 0.11876 0.0
C294 C 0.0623 0.96757 0.17825 0.0
C295 C 0.04724 0.01814 0.20127 0.0
H296 H 0.07179 0.92762 0.12091 0.0
H297 H 0.07282 0.9268 0.19171 0.0
S298 S 0.01119 0.16534 0.16538 0.0
N299 N 0.0193 0.12243 0.12573 0.0
N300 N 0.02305 0.12265 0.20191 0.0
C301 C 0.03401 0.07014 0.18254 0.0
C302 C 0.03229 0.07014 0.14133 0.0
C303 C 0.05956 1.00818 0.86447 0.0
C304 C 1.00547 0.02759 0.88847 0.0
C305 C 0.05764 0.01074 0.8241 0.0
C306 C 1.00131 0.0323 0.80614 0.0
H307 H 0.1041 0.99102 0.87688 0.0
H308 H 0.10012 0.99491 0.80675 0.0
S309 S 0.84739 0.08996 0.85533 0.0
N310 N 0.89429 0.07015 0.89102 0.0
N311 N 0.89105 0.07474 0.81495 0.0
C312 C 0.94698 0.05206 0.82957 0.0
C313 C 0.94903 0.04984 0.87077 0.0
C314 C 0.58355 0.49453 0.64204 0.0
C315 C 0.51819 0.49478 0.62341 0.0
C316 C 0.58675 0.49619 0.68265 0.0
C317 C 0.5246 0.49767 0.70591 0.0
H318 H 0.63291 0.49504 0.6252 0.0
H319 H 0.63854 0.49803 0.69593 0.0
S320 S 0.33877 0.4899 0.671 0.0
N321 N 0.38903 0.49099 0.6311 0.0
N322 N 0.39481 0.49275 0.70724 0.0
C323 C 0.45847 0.49502 0.68752 0.0
C324 C 0.45533 0.49389 0.64631 0.0
C325 C 0.44211 0.54106 0.37537 0.0
C326 C 0.50242 0.52527 0.39317 0.0
C327 C 0.44089 0.54704 0.33514 0.0
C328 C 0.50036 0.5384 0.31143 0.0
H329 H 0.3951 0.54818 0.39254 0.0
H330 H 0.39325 0.55877 0.32249 0.0
S331 S 0.67152 0.49702 0.34336 0.0
N332 N 0.6234 0.5015 0.38369 0.0
N333 N 0.62075 0.51295 0.3082 0.0
C334 C 0.56114 0.52313 0.32876 0.0
C335 C 0.56224 0.51646 0.3696 0.0
loop_
_geom_bond_atom_site_label_1
_geom_bond_atom_site_label_2
_geom_bond_distance
_geom_bond_site_symmetry_2
_ccdc_geom_bond_type
Co0 N5 2.057 . S
Co0 O17 2.021 . S
Co0 O20 2.062 1_455 S
Co0 O24 2.117 1_554 S
Co0 O25 2.020 1_565 S
C1 O21 1.259 1_455 S
C1 O24 1.258 1_545 S
Co2 N11 2.057 . S
Co2 O18 2.117 . S
Co2 O19 2.020 1_545 S
Co2 O21 2.021 1_554 S
Co2 O26 2.062 1_655 S
C3 N5 1.316 . S
C3 N6 1.347 . S
C3 H8 0.931 . S
C4 N5 1.375 1_556 S
C4 C7 1.350 . S
C4 H9 0.930 . S
N5 Co0 2.057 . S
N5 C3 1.316 . S
N5 C4 1.375 1_554 S
N6 C3 1.347 . S
N6 C7 1.373 1_554 S
C7 C4 1.350 . S
C7 N6 1.373 1_556 S
C7 H28 0.931 . S
H8 C3 0.931 . S
H9 C4 0.930 . S
C10 O17 1.259 1_545 S
C10 O18 1.258 1_455 S
N11 Co2 2.057 . S
N11 C12 1.316 . S
N11 C13 1.375 . S
C12 N11 1.316 . S
C12 N14 1.347 . S
C12 H23 0.931 1_554 S
C13 N11 1.375 . S
C13 C15 1.350 . S
C13 H22 0.930 . S
N14 C12 1.347 . S
N14 C15 1.373 . S
C15 C13 1.350 . S
C15 N14 1.373 . S
C15 H29 0.931 . S
C16 O19 1.256 . S
C16 O20 1.255 . S
O17 Co0 2.021 . S
O17 C10 1.259 1_565 S
O18 Co2 2.117 . S
O18 C10 1.258 1_655 S
O19 Co2 2.020 1_565 S
O19 C16 1.256 . S
O20 Co0 2.062 1_655 S
O20 C16 1.255 . S
O21 C1 1.259 1_655 S
O21 Co2 2.021 1_556 S
H22 C13 0.930 . S
H23 C12 0.931 1_556 S
O24 Co0 2.117 1_556 S
O24 C1 1.258 1_565 S
O25 Co0 2.020 1_545 S
O25 C27 1.256 . S
O26 Co2 2.062 1_455 S
O26 C27 1.255 . S
C27 O25 1.256 . S
C27 O26 1.255 . S
H28 C7 0.931 . S
H29 C15 0.931 . S
Co30 N35 2.057 . S
Co30 O47 2.021 . S
Co30 O50 2.062 . S
Co30 O54 2.117 . S
Co30 O55 2.020 . S
C31 O51 1.259 . S
C31 O54 1.258 . S
Co32 N41 2.057 . S
Co32 O48 2.117 . S
Co32 O49 2.020 . S
Co32 O51 2.021 . S
Co32 O56 2.062 . S
C33 N35 1.316 . S
C33 N36 1.347 . S
C33 H38 0.931 . S
C34 N35 1.375 . S
C34 C37 1.350 . S
C34 H39 0.930 . S
N35 Co30 2.057 . S
N35 C33 1.316 . S
N35 C34 1.375 . S
N36 C33 1.347 . S
N36 C37 1.373 . S
C37 C34 1.350 . S
C37 N36 1.373 . S
C37 H58 0.931 . S
H38 C33 0.931 . S
H39 C34 0.930 . S
C40 O47 1.259 . S
C40 O48 1.258 . S
N41 Co32 2.057 . S
N41 C42 1.316 . S
N41 C43 1.375 . S
C42 N41 1.316 . S
C42 N44 1.347 . S
C42 H53 0.931 . S
C43 N41 1.375 . S
C43 C45 1.350 . S
C43 H52 0.930 . S
N44 C42 1.347 . S
N44 C45 1.373 . S
C45 C43 1.350 . S
C45 N44 1.373 . S
C45 H59 0.931 . S
C46 O49 1.256 . S
C46 O50 1.255 . S
O47 Co30 2.021 . S
O47 C40 1.259 . S
O48 Co32 2.117 . S
O48 C40 1.258 . S
O49 Co32 2.020 . S
O49 C46 1.256 . S
O50 Co30 2.062 . S
O50 C46 1.255 . S
O51 C31 1.259 . S
O51 Co32 2.021 . S
H52 C43 0.930 . S
H53 C42 0.931 . S
O54 Co30 2.117 . S
O54 C31 1.258 . S
O55 Co30 2.020 . S
O55 C57 1.256 . S
O56 Co32 2.062 . S
O56 C57 1.255 . S
C57 O55 1.256 . S
C57 O56 1.255 . S
H58 C37 0.931 . S
H59 C45 0.931 . S
C60 C61 1.384 . S
C60 H73 0.947 . S
C60 C95 1.382 . S
C61 C60 1.384 . S
C61 C62 1.378 . S
C62 C61 1.378 . S
C62 C63 1.378 . S
C62 H74 0.952 . S
C63 C62 1.378 . S
C63 H75 0.950 . S
C63 C94 1.383 . S
H64 C83 0.947 . S
H65 C84 0.946 . S
H66 C86 0.953 . S
H67 C87 0.945 . S
H68 C89 0.952 . S
H69 C90 0.949 . S
H70 C92 0.950 . S
H71 C93 0.948 . S
H72 C95 0.951 . S
H73 C60 0.947 . S
H74 C62 0.952 . S
H75 C63 0.950 . S
N76 C79 1.382 1_545 S
N76 C81 1.363 1_455 S
N77 C79 1.371 . S
N77 C80 1.372 1_565 S
N78 C80 1.361 1_655 S
N78 C81 1.377 . S
C79 N76 1.382 1_565 S
C79 N77 1.371 . S
C79 C82 1.480 . S
C80 N77 1.372 1_545 S
C80 N78 1.361 1_455 S
C80 C88 1.457 . S
C81 N76 1.363 1_655 S
C81 N78 1.377 . S
C81 C94 1.479 . S
C82 C79 1.480 . S
C82 C83 1.383 . S
C82 C87 1.385 . S
C83 H64 0.947 . S
C83 C82 1.383 . S
C83 C84 1.388 . S
C84 H65 0.946 . S
C84 C83 1.388 . S
C84 C85 1.384 . S
C85 C84 1.384 . S
C85 C86 1.377 . S
C86 H66 0.953 . S
C86 C85 1.377 . S
C86 C87 1.369 . S
C87 H67 0.945 . S
C87 C82 1.385 . S
C87 C86 1.369 . S
C88 C80 1.457 . S
C88 C89 1.372 1_545 S
C88 C93 1.364 1_455 S
C89 H68 0.952 . S
C89 C88 1.372 1_565 S
C89 C90 1.389 . S
C90 H69 0.949 . S
C90 C89 1.389 . S
C90 C91 1.387 1_565 S
C91 C90 1.387 1_545 S
C91 C92 1.372 1_455 S
C92 H70 0.950 . S
C92 C91 1.372 1_655 S
C92 C93 1.379 . S
C93 H71 0.948 . S
C93 C88 1.364 1_655 S
C93 C92 1.379 . S
C94 C63 1.383 . S
C94 C81 1.479 . S
C94 C95 1.398 . S
C95 C60 1.382 . S
C95 H72 0.951 . S
C95 C94 1.398 . S
C96 C97 1.384 . S
C96 H109 0.947 . S
C96 C131 1.382 . S
C97 C96 1.384 . S
C97 C98 1.378 . S
C98 C97 1.378 . S
C98 C99 1.378 . S
C98 H110 0.952 . S
C99 C98 1.378 . S
C99 H111 0.950 . S
C99 C130 1.383 . S
H100 C119 0.947 . S
H101 C120 0.946 . S
H102 C122 0.953 . S
H103 C123 0.945 . S
H104 C125 0.952 . S
H105 C126 0.949 . S
H106 C128 0.950 . S
H107 C129 0.948 . S
H108 C131 0.951 . S
H109 C96 0.947 . S
H110 C98 0.952 . S
H111 C99 0.950 . S
N112 C115 1.382 . S
N112 C117 1.363 1_445 S
N113 C115 1.371 . S
N113 C116 1.372 . S
N114 C116 1.361 1_665 S
N114 C117 1.377 . S
C115 N112 1.382 . S
C115 N113 1.371 . S
C115 C118 1.480 . S
C116 N113 1.372 . S
C116 N114 1.361 1_445 S
C116 C124 1.457 . S
C117 N112 1.363 1_665 S
C117 N114 1.377 . S
C117 C130 1.479 . S
C118 C115 1.480 . S
C118 C119 1.383 . S
C118 C123 1.385 . S
C119 H100 0.947 . S
C119 C118 1.383 . S
C119 C120 1.388 . S
C120 H101 0.946 . S
C120 C119 1.388 . S
C120 C121 1.384 . S
C121 C120 1.384 . S
C121 C122 1.377 . S
C122 H102 0.953 . S
C122 C121 1.377 . S
C122 C123 1.369 . S
C123 H103 0.945 . S
C123 C118 1.385 . S
C123 C122 1.369 . S
C124 C116 1.457 . S
C124 C125 1.372 . S
C124 C129 1.364 1_445 S
C125 H104 0.952 . S
C125 C124 1.372 . S
C125 C126 1.389 . S
C126 H105 0.949 . S
C126 C125 1.389 . S
C126 C127 1.387 . S
C127 C126 1.387 . S
C127 C128 1.372 1_445 S
C128 H106 0.950 . S
C128 C127 1.372 1_665 S
C128 C129 1.379 . S
C129 H107 0.948 . S
C129 C124 1.364 1_665 S
C129 C128 1.379 . S
C130 C99 1.383 . S
C130 C117 1.479 . S
C130 C131 1.398 . S
C131 C96 1.382 . S
C131 H108 0.951 . S
C131 C130 1.398 . S
C132 C133 1.384 1_556 S
C132 H145 0.947 . S
C132 C167 1.382 . S
C133 C132 1.384 1_554 S
C133 C134 1.378 . S
C134 C133 1.378 . S
C134 C135 1.378 . S
C134 H146 0.952 . S
C135 C134 1.378 . S
C135 H147 0.950 . S
C135 C166 1.383 1_554 S
H136 C155 0.951 . S
H137 C156 0.946 . S
H138 C158 0.953 . S
H139 C159 0.945 . S
H140 C161 0.952 . S
H141 C162 0.949 . S
H142 C164 0.950 . S
H143 C165 0.948 . S
H144 C167 0.951 . S
H145 C132 0.947 . S
H146 C134 0.952 . S
H147 C135 0.950 . S
N148 C151 1.382 . S
N148 C153 1.363 . S
N149 C151 1.371 . S
N149 C152 1.372 . S
N150 C152 1.361 . S
N150 C153 1.377 . S
C151 N148 1.382 . S
C151 N149 1.371 . S
C151 C154 1.480 . S
C152 N149 1.372 . S
C152 N150 1.361 . S
C152 C160 1.457 . S
C153 N148 1.363 . S
C153 N150 1.377 . S
C153 C166 1.479 . S
C154 C151 1.480 . S
C154 C155 1.374 1_556 S
C154 C159 1.385 . S
C155 H136 0.951 . S
C155 C154 1.374 1_554 S
C155 C156 1.393 . S
C156 H137 0.946 . S
C156 C155 1.393 . S
C156 C157 1.379 1_554 S
C157 C156 1.379 1_556 S
C157 C158 1.387 . S
C158 H138 0.953 . S
C158 C157 1.387 . S
C158 C159 1.369 . S
C159 H139 0.945 . S
C159 C154 1.385 . S
C159 C158 1.369 . S
C160 C152 1.457 . S
C160 C161 1.372 . S
C160 C165 1.364 . S
C161 H140 0.952 . S
C161 C160 1.372 . S
C161 C162 1.389 . S
C162 H141 0.949 . S
C162 C161 1.389 . S
C162 C163 1.387 . S
C163 C162 1.387 . S
C163 C164 1.372 . S
C164 H142 0.950 . S
C164 C163 1.372 . S
C164 C165 1.379 . S
C165 H143 0.948 . S
C165 C160 1.364 . S
C165 C164 1.379 . S
C166 C135 1.383 1_556 S
C166 C153 1.479 . S
C166 C167 1.398 . S
C167 C132 1.382 . S
C167 H144 0.951 . S
C167 C166 1.398 . S
C168 C169 1.384 . S
C168 H181 0.947 . S
C168 C203 1.382 . S
C169 C168 1.384 . S
C169 C170 1.378 1_554 S
C170 C169 1.378 1_556 S
C170 C171 1.378 1_556 S
C170 H182 0.952 . S
C171 C170 1.378 1_554 S
C171 H183 0.950 . S
C171 C202 1.383 . S
H172 C191 0.947 . S
H173 C192 0.946 1_556 S
H174 C194 0.953 . S
H175 C195 0.945 . S
H176 C197 0.952 . S
H177 C198 0.949 . S
H178 C200 0.950 . S
H179 C201 0.948 . S
H180 C203 0.951 . S
H181 C168 0.947 . S
H182 C170 0.952 . S
H183 C171 0.950 . S
N184 C187 1.382 . S
N184 C189 1.363 . S
N185 C187 1.371 . S
N185 C188 1.372 . S
N186 C188 1.361 . S
N186 C189 1.377 . S
C187 N184 1.382 . S
C187 N185 1.371 . S
C187 C190 1.480 . S
C188 N185 1.372 . S
C188 N186 1.361 . S
C188 C196 1.457 . S
C189 N184 1.363 . S
C189 N186 1.377 . S
C189 C202 1.479 . S
C190 C187 1.480 . S
C190 C191 1.383 . S
C190 C195 1.385 . S
C191 H172 0.947 . S
C191 C190 1.383 . S
C191 C192 1.388 . S
C192 H173 0.946 1_554 S
C192 C191 1.388 . S
C192 C193 1.384 . S
C193 C192 1.384 . S
C193 C194 1.377 . S
C194 H174 0.953 . S
C194 C193 1.377 . S
C194 C195 1.369 . S
C195 H175 0.945 . S
C195 C190 1.385 . S
C195 C194 1.369 . S
C196 C188 1.457 . S
C196 C197 1.372 . S
C196 C201 1.364 . S
C197 H176 0.952 . S
C197 C196 1.372 . S
C197 C198 1.389 . S
C198 H177 0.949 . S
C198 C197 1.389 . S
C198 C199 1.387 . S
C199 C198 1.387 . S
C199 C200 1.372 . S
C200 H178 0.950 . S
C200 C199 1.372 . S
C200 C201 1.379 . S
C201 H179 0.948 . S
C201 C196 1.364 . S
C201 C200 1.379 . S
C202 C171 1.383 . S
C202 C189 1.479 . S
C202 C203 1.398 . S
C203 C168 1.382 . S
C203 H180 0.951 . S
C203 C202 1.398 . S
C204 C205 1.369 . S
C204 C206 1.419 . S
C204 H208 0.930 . S
C205 C204 1.369 . S
C205 C214 1.429 . S
C206 C204 1.419 . S
C206 C207 1.363 . S
C206 H209 0.929 . S
C207 C206 1.363 . S
C207 C213 1.428 . S
H208 C204 0.930 . S
H209 C206 0.929 . S
S210 N211 1.613 . S
S210 N212 1.610 . S
N211 S210 1.613 . S
N211 C214 1.350 . S
N212 S210 1.610 . S
N212 C213 1.351 . S
C213 C207 1.428 . S
C213 N212 1.351 . S
C213 C214 1.434 . S
C214 C205 1.429 . S
C214 N211 1.350 . S
C214 C213 1.434 . S
C215 C216 1.369 . S
C215 C217 1.419 . S
C215 H219 0.930 . S
C216 C215 1.369 . S
C216 C225 1.429 1_554 S
C217 C215 1.419 . S
C217 C218 1.363 . S
C217 H220 0.929 . S
C218 C217 1.363 . S
C218 C224 1.428 1_554 S
H219 C215 0.930 . S
H220 C217 0.929 . S
S221 N222 1.613 . S
S221 N223 1.610 . S
N222 S221 1.613 . S
N222 C225 1.350 . S
N223 S221 1.610 . S
N223 C224 1.351 . S
C224 C218 1.428 1_556 S
C224 N223 1.351 . S
C224 C225 1.434 . S
C225 C216 1.429 1_556 S
C225 N222 1.350 . S
C225 C224 1.434 . S
C226 C227 1.369 1_556 S
C226 C228 1.419 . S
C226 H230 0.930 . S
C227 C226 1.369 1_554 S
C227 C236 1.429 . S
C228 C226 1.419 . S
C228 C229 1.363 1_556 S
C228 H231 0.929 . S
C229 C228 1.363 1_554 S
C229 C235 1.428 . S
H230 C226 0.930 . S
H231 C228 0.929 . S
S232 N233 1.613 . S
S232 N234 1.610 . S
N233 S232 1.613 . S
N233 C236 1.350 . S
N234 S232 1.610 . S
N234 C235 1.351 . S
C235 C229 1.428 . S
C235 N234 1.351 . S
C235 C236 1.434 . S
C236 C227 1.429 . S
C236 N233 1.350 . S
C236 C235 1.434 . S
C237 C238 1.369 . S
C237 C239 1.419 . S
C237 H241 0.930 . S
C238 C237 1.369 . S
C238 C247 1.429 1_554 S
C239 C237 1.419 . S
C239 C240 1.363 . S
C239 H242 0.929 . S
C240 C239 1.363 . S
C240 C246 1.428 1_554 S
H241 C237 0.930 . S
H242 C239 0.929 . S
S243 N244 1.613 . S
S243 N245 1.610 . S
N244 S243 1.613 . S
N244 C247 1.350 . S
N245 S243 1.610 . S
N245 C246 1.351 . S
C246 C240 1.428 1_556 S
C246 N245 1.351 . S
C246 C247 1.434 . S
C247 C238 1.429 1_556 S
C247 N244 1.350 . S
C247 C246 1.434 . S
C248 C249 1.369 . S
C248 C250 1.419 . S
C248 H252 0.930 . S
C249 C248 1.369 . S
C249 C258 1.429 . S
C250 C248 1.419 . S
C250 C251 1.363 . S
C250 H253 0.929 . S
C251 C250 1.363 . S
C251 C257 1.428 . S
H252 C248 0.930 . S
H253 C250 0.929 . S
S254 N255 1.613 . S
S254 N256 1.610 . S
N255 S254 1.613 . S
N255 C258 1.350 . S
N256 S254 1.610 . S
N256 C257 1.351 . S
C257 C251 1.428 . S
C257 N256 1.351 . S
C257 C258 1.434 . S
C258 C249 1.429 . S
C258 N255 1.350 . S
C258 C257 1.434 . S
C259 C260 1.369 . S
C259 C261 1.419 . S
C259 H263 0.930 . S
C260 C259 1.369 . S
C260 C269 1.429 . S
C261 C259 1.419 . S
C261 C262 1.363 . S
C261 H264 0.929 . S
C262 C261 1.363 . S
C262 C268 1.428 . S
H263 C259 0.930 . S
H264 C261 0.929 . S
S265 N266 1.613 . S
S265 N267 1.610 . S
N266 S265 1.613 . S
N266 C269 1.350 . S
N267 S265 1.610 . S
N267 C268 1.351 . S
C268 C262 1.428 . S
C268 N267 1.351 . S
C268 C269 1.434 . S
C269 C260 1.429 . S
C269 N266 1.350 . S
C269 C268 1.434 . S
C270 C271 1.369 . S
C270 C272 1.419 . S
C270 H274 0.930 . S
C271 C270 1.369 . S
C271 C280 1.429 . S
C272 C270 1.419 . S
C272 C273 1.363 . S
C272 H275 0.929 . S
C273 C272 1.363 . S
C273 C279 1.428 . S
H274 C270 0.930 . S
H275 C272 0.929 . S
S276 N277 1.613 . S
S276 N278 1.610 . S
N277 S276 1.613 . S
N277 C280 1.350 . S
N278 S276 1.610 . S
N278 C279 1.351 . S
C279 C273 1.428 . S
C279 N278 1.351 . S
C279 C280 1.434 . S
C280 C271 1.429 . S
C280 N277 1.350 . S
C280 C279 1.434 . S
C281 C282 1.369 . S
C281 C283 1.419 . S
C281 H285 0.930 . S
C282 C281 1.369 . S
C282 C291 1.429 . S
C283 C281 1.419 . S
C283 C284 1.363 . S
C283 H286 0.929 . S
C284 C283 1.363 . S
C284 C290 1.428 . S
H285 C281 0.930 . S
H286 C283 0.929 . S
S287 N288 1.613 . S
S287 N289 1.610 . S
N288 S287 1.613 . S
N288 C291 1.350 . S
N289 S287 1.610 . S
N289 C290 1.351 . S
C290 C284 1.428 . S
C290 N289 1.351 . S
C290 C291 1.434 . S
C291 C282 1.429 . S
C291 N288 1.350 . S
C291 C290 1.434 . S
C292 C293 1.370 1_665 S
C292 C294 1.419 . S
C292 H296 0.930 . S
C293 C292 1.370 1_445 S
C293 C302 1.429 . S
C294 C292 1.419 . S
C294 C295 1.363 1_665 S
C294 H297 0.929 . S
C295 C294 1.363 1_445 S
C295 C301 1.428 . S
H296 C292 0.930 . S
H297 C294 0.929 . S
S298 N299 1.613 . S
S298 N300 1.610 . S
N299 S298 1.613 . S
N299 C302 1.350 . S
N300 S298 1.610 . S
N300 C301 1.351 . S
C301 C295 1.428 . S
C301 N300 1.351 . S
C301 C302 1.434 . S
C302 C293 1.429 . S
C302 N299 1.350 . S
C302 C301 1.434 . S
C303 C304 1.369 . S
C303 C305 1.419 . S
C303 H307 0.930 . S
C304 C303 1.369 . S
C304 C313 1.429 1_445 S
C305 C303 1.419 . S
C305 C306 1.363 . S
C305 H308 0.929 . S
C306 C305 1.363 . S
C306 C312 1.428 1_445 S
H307 C303 0.930 . S
H308 C305 0.929 . S
S309 N310 1.613 . S
S309 N311 1.610 . S
N310 S309 1.613 . S
N310 C313 1.350 . S
N311 S309 1.610 . S
N311 C312 1.351 . S
C312 C306 1.428 1_665 S
C312 N311 1.351 . S
C312 C313 1.434 . S
C313 C304 1.429 1_665 S
C313 N310 1.350 . S
C313 C312 1.434 . S
C314 C315 1.369 . S
C314 C316 1.419 . S
C314 H318 0.930 . S
C315 C314 1.369 . S
C315 C324 1.429 . S
C316 C314 1.419 . S
C316 C317 1.363 . S
C316 H319 0.929 . S
C317 C316 1.363 . S
C317 C323 1.428 . S
H318 C314 0.930 . S
H319 C316 0.929 . S
S320 N321 1.613 . S
S320 N322 1.610 . S
N321 S320 1.613 . S
N321 C324 1.350 . S
N322 S320 1.610 . S
N322 C323 1.351 . S
C323 C317 1.428 . S
C323 N322 1.351 . S
C323 C324 1.434 . S
C324 C315 1.429 . S
C324 N321 1.350 . S
C324 C323 1.434 . S
C325 C326 1.369 . S
C325 C327 1.419 . S
C325 H329 0.930 . S
C326 C325 1.369 . S
C326 C335 1.429 . S
C327 C325 1.419 . S
C327 C328 1.363 . S
C327 H330 0.929 . S
C328 C327 1.363 . S
C328 C334 1.428 . S
H329 C325 0.930 . S
H330 C327 0.929 . S
S331 N332 1.613 . S
S331 N333 1.610 . S
N332 S331 1.613 . S
N332 C335 1.350 . S
N333 S331 1.610 . S
N333 C334 1.351 . S
C334 C328 1.428 . S
C334 N333 1.351 . S
C334 C335 1.434 . S
C335 C326 1.429 . S
C335 N332 1.350 . S
C335 C334 1.434 . S
C207 C169 1.529 . S
C205 C27 1.586 . S
C216 N6 1.483 . S
C218 C133 1.475 . S
C227 C16 1.558 . S
C229 C193 1.477 . S
C238 N14 1.467 . S
C240 C157 1.431 1_554 S
C249 C57 1.586 . S
C251 C97 1.531 . S
C260 N36 1.486 . S
C262 C61 1.478 . S
C273 C121 1.476 . S
C271 C46 1.558 . S
C284 C85 1.440 . S
C282 N44 1.459 . S
C293 C10 1.394 . S
C295 C91 1.390 . S
C304 C1 1.536 . S
C306 C127 1.535 . S
C317 C163 1.392 . S
C315 C40 1.395 . S
C326 C31 1.537 . S
C328 C199 1.536 . S
