# Generated by pormake.
# Topology cml, (3,6)-cn, num edge types: 1
# Building blocks:
#     Node 0, Type 0, BuildingBlock: INOVEN_clean_linker_0, # of connection points: 3
#     Node 1, Type 0, BuildingBlock: INOVEN_clean_linker_0, # of connection points: 3
#     Node 2, Type 0, BuildingBlock: INOVEN_clean_linker_0, # of connection points: 3
#     Node 3, Type 0, BuildingBlock: INOVEN_clean_linker_0, # of connection points: 3
#     Node 4, Type 0, BuildingBlock: INOVEN_clean_linker_0, # of connection points: 3
#     Node 5, Type 0, BuildingBlock: INOVEN_clean_linker_0, # of connection points: 3
#     Node 6, Type 0, BuildingBlock: INOVEN_clean_linker_0, # of connection points: 3
#     Node 7, Type 0, BuildingBlock: INOVEN_clean_linker_0, # of connection points: 3
#     Node 8, Type 1, BuildingBlock: IZENUY_clean_sbu_0, # of connection points: 6
#     Node 9, Type 1, BuildingBlock: IZENUY_clean_sbu_0, # of connection points: 6
#     Node 10, Type 1, BuildingBlock: IZENUY_clean_sbu_0, # of connection points: 6
#     Node 11, Type 1, BuildingBlock: IZENUY_clean_sbu_0, # of connection points: 6
#     Edge 12, Type (0, 1), BuildingBlock: CIFDUS_clean_linker_0, # of connection points: 2
#     Edge 13, Type (0, 1), BuildingBlock: CIFDUS_clean_linker_0, # of connection points: 2
#     Edge 14, Type (0, 1), BuildingBlock: CIFDUS_clean_linker_0, # of connection points: 2
#     Edge 15, Type (0, 1), BuildingBlock: CIFDUS_clean_linker_0, # of connection points: 2
#     Edge 16, Type (0, 1), BuildingBlock: CIFDUS_clean_linker_0, # of connection points: 2
#     Edge 17, Type (0, 1), BuildingBlock: CIFDUS_clean_linker_0, # of connection points: 2
#     Edge 18, Type (0, 1), BuildingBlock: CIFDUS_clean_linker_0, # of connection points: 2
#     Edge 19, Type (0, 1), BuildingBlock: CIFDUS_clean_linker_0, # of connection points: 2
#     Edge 20, Type (0, 1), BuildingBlock: CIFDUS_clean_linker_0, # of connection points: 2
#     Edge 21, Type (0, 1), BuildingBlock: CIFDUS_clean_linker_0, # of connection points: 2
#     Edge 22, Type (0, 1), BuildingBlock: CIFDUS_clean_linker_0, # of connection points: 2
#     Edge 23, Type (0, 1), BuildingBlock: CIFDUS_clean_linker_0, # of connection points: 2
#     Edge 24, Type (0, 1), BuildingBlock: CIFDUS_clean_linker_0, # of connection points: 2
#     Edge 25, Type (0, 1), BuildingBlock: CIFDUS_clean_linker_0, # of connection points: 2
#     Edge 26, Type (0, 1), BuildingBlock: CIFDUS_clean_linker_0, # of connection points: 2
#     Edge 27, Type (0, 1), BuildingBlock: CIFDUS_clean_linker_0, # of connection points: 2
#     Edge 28, Type (0, 1), BuildingBlock: CIFDUS_clean_linker_0, # of connection points: 2
#     Edge 29, Type (0, 1), BuildingBlock: CIFDUS_clean_linker_0, # of connection points: 2
#     Edge 30, Type (0, 1), BuildingBlock: CIFDUS_clean_linker_0, # of connection points: 2
#     Edge 31, Type (0, 1), BuildingBlock: CIFDUS_clean_linker_0, # of connection points: 2
#     Edge 32, Type (0, 1), BuildingBlock: CIFDUS_clean_linker_0, # of connection points: 2
#     Edge 33, Type (0, 1), BuildingBlock: CIFDUS_clean_linker_0, # of connection points: 2
#     Edge 34, Type (0, 1), BuildingBlock: CIFDUS_clean_linker_0, # of connection points: 2
#     Edge 35, Type (0, 1), BuildingBlock: CIFDUS_clean_linker_0, # of connection points: 2
# Relax obj value: 0.004
# Max RMSD: 0.063
# Mean RMSD: 0.050
data_MOF--net-cml--node1-IZENUY_clean_sbu_0--node2-INOVEN_clean_linker_0--edge1-CIFDUS_clean_linker_0
_symmetry_space_group_name_H-M    P1
_symmetry_Int_Tables_number       1
_symmetry_cell_setting            triclinic
loop_
_symmetry_equiv_pos_as_xyz
'x, y, z'
_cell_length_a     32.29825
_cell_length_b     35.6162
_cell_length_c     31.84952
_cell_angle_alpha  89.341214
_cell_angle_beta   90.828098
_cell_angle_gamma 91.281959
loop_
_atom_site_label
_atom_site_type_symbol
_atom_site_fract_x
_atom_site_fract_y
_atom_site_fract_z
_atom_type_partial_charge
H0 H 0.29911 0.3142 0.0621 0.0
H1 H 0.38891 0.40466 0.05605 0.0
H2 H 0.311 0.38031 0.94862 0.0
N3 N 0.26736 0.32374 0.98633 0.0
N4 N 0.25077 0.33176 0.95187 0.0
C5 C 0.31407 0.33692 0.04469 0.0
C6 C 0.34562 0.35854 0.06375 0.0
C7 C 0.30074 0.34524 0.00362 0.0
C8 C 0.32038 0.37456 0.9808 0.0
C9 C 0.35292 0.39572 0.99921 0.0
C10 C 0.36457 0.38795 0.04102 0.0
H11 H 0.73532 0.68886 0.57279 0.0
H12 H 0.6774 0.57934 0.56172 0.0
H13 H 0.75498 0.62243 0.46309 0.0
N14 N 0.77773 0.68765 0.50413 0.0
N15 N 0.79984 0.68571 0.47241 0.0
C16 C 0.73001 0.66294 0.5559 0.0
C17 C 0.70323 0.63491 0.57217 0.0
C18 C 0.74979 0.65843 0.51738 0.0
C19 C 0.74124 0.62572 0.49361 0.0
C20 C 0.71469 0.59718 0.50976 0.0
C21 C 0.69712 0.60171 0.54933 0.0
H22 H 0.74233 0.35471 0.06615 0.0
H23 H 0.67971 0.46025 0.05736 0.0
H24 H 0.74466 0.4197 0.9514 0.0
N25 N 0.77544 0.35787 0.99121 0.0
N26 N 0.78695 0.35901 0.95394 0.0
C27 C 0.73392 0.37985 0.04891 0.0
C28 C 0.70804 0.40637 0.06714 0.0
C29 C 0.7482 0.38481 0.00766 0.0
C30 C 0.73523 0.41615 0.98374 0.0
C31 C 0.71029 0.44324 1.00182 0.0
C32 C 0.69828 0.43874 0.04367 0.0
H33 H 0.2933 0.62737 0.43268 0.0
H34 H 0.38245 0.59215 0.52569 0.0
H35 H 0.31101 0.69032 0.54644 0.0
N36 N 0.26803 0.6864 0.4726 0.0
N37 N 0.25462 0.71226 0.49428 0.0
C38 C 0.30875 0.63113 0.46282 0.0
C39 C 0.3387 0.60571 0.47647 0.0
C40 C 0.29823 0.66133 0.48803 0.0
C41 C 0.31832 0.66656 0.52718 0.0
C42 C 0.34916 0.64186 0.54063 0.0
C43 C 0.35867 0.61132 0.51535 0.0
H44 H 0.78938 0.82306 0.06406 0.0
H45 H 0.86597 0.92324 0.05343 0.0
H46 H 0.78463 0.8912 0.95181 0.0
N47 N 0.75443 0.82817 0.98852 0.0
N48 N 0.74337 0.83052 0.9509 0.0
C49 C 0.79976 0.84764 0.04645 0.0
C50 C 0.82902 0.87285 0.06416 0.0
C51 C 0.78383 0.85401 0.00589 0.0
C52 C 0.79715 0.88591 0.98301 0.0
C53 C 0.8265 0.91114 1.00008 0.0
C54 C 0.84215 0.90452 0.0407 0.0
H55 H 0.23229 0.18911 0.58148 0.0
H56 H 0.16798 0.08266 0.56977 0.0
H57 H 0.25117 0.1207 0.4731 0.0
N58 N 0.27488 0.18614 0.51301 0.0
N59 N 0.29774 0.18313 0.48198 0.0
C60 C 0.22593 0.16335 0.56455 0.0
C61 C 0.1974 0.13668 0.58045 0.0
C62 C 0.246 0.15775 0.52642 0.0
C63 C 0.23663 0.12498 0.50305 0.0
C64 C 0.2083 0.09765 0.51881 0.0
C65 C 0.1896 0.10368 0.55765 0.0
H66 H 0.24294 0.84377 0.05657 0.0
H67 H 0.16073 0.93611 0.04108 0.0
H68 H 0.2331 0.90062 0.93689 0.0
N69 N 0.27207 0.84469 0.98019 0.0
N70 N 0.28759 0.84815 0.94466 0.0
C71 C 0.22971 0.86574 0.03712 0.0
C72 C 0.20042 0.88968 0.05391 0.0
C73 C 0.24232 0.8699 0.99535 0.0
C74 C 0.22453 0.898 0.96956 0.0
C75 C 0.19437 0.92169 0.98571 0.0
C76 C 0.18356 0.91779 0.02818 0.0
H77 H 0.82648 0.12354 0.4406 0.0
H78 H 0.8771 0.09719 0.56314 0.0
H79 H 0.79908 0.192 0.54667 0.0
N80 N 0.78242 0.18061 0.46392 0.0
N81 N 0.76548 0.20931 0.47674 0.0
C82 C 0.82952 0.12895 0.47391 0.0
C83 C 0.85503 0.1066 0.49962 0.0
C84 C 0.80877 0.15937 0.49063 0.0
C85 C 0.81415 0.16806 0.53347 0.0
C86 C 0.83875 0.14555 0.55958 0.0
C87 C 0.85819 0.11451 0.54268 0.0
Fe88 Fe 0.02699 0.84588 0.3141 0.0
Fe89 Fe 0.02641 0.88539 0.39957 0.0
O90 O 0.02494 0.88765 0.34383 0.0
Fe91 Fe 0.0213 0.9316 0.31765 0.0
O92 O 0.99058 0.91351 0.27345 0.0
O93 O 0.97694 0.85432 0.28923 0.0
O94 O 0.99962 0.81636 0.35267 0.0
C95 C 0.9752 0.82445 0.38178 0.0
C96 C 0.07676 0.8974 0.2674 0.0
O97 O 0.97959 0.85527 0.40095 0.0
C98 C 0.07647 0.94789 0.38576 0.0
O99 O 0.07698 0.83463 0.33679 0.0
O100 O 0.06031 0.84484 0.40235 0.0
O101 O 0.06963 0.92499 0.29052 0.0
O102 O 0.05488 0.86756 0.26996 0.0
C103 C 0.96826 0.94224 0.38192 0.0
O104 O 0.07315 0.91554 0.4025 0.0
O105 O 0.05129 0.95792 0.35717 0.0
C106 C 0.0845 0.83153 0.37564 0.0
O107 O 0.9932 0.92576 0.40654 0.0
O108 O 0.97269 0.94136 0.34273 0.0
C109 C 0.968 0.88423 0.26987 0.0
Fe110 Fe 1.0011 0.14323 0.91299 0.0
Fe111 Fe 0.99205 0.1005 0.83067 0.0
O112 O 0.99844 0.14352 0.85741 0.0
Fe113 Fe 1.00195 0.18646 0.82871 0.0
O114 O 0.03886 0.20897 0.86579 0.0
O115 O 0.05219 0.16459 0.91246 0.0
O116 O 0.02628 0.09752 0.91716 0.0
C117 C 0.04697 0.07911 0.89121 0.0
C118 C 0.95341 0.20736 0.89439 0.0
O119 O 0.04061 0.08293 0.85221 0.0
C120 C 0.93917 0.14419 0.78516 0.0
O121 O 0.94996 0.12142 0.91723 0.0
O122 O 0.96202 0.07713 0.87207 0.0
O123 O 0.95744 0.20511 0.85517 0.0
O124 O 0.97639 0.18878 0.91914 0.0
C125 C 0.04605 0.14219 0.77706 0.0
O126 O 0.9434 0.1152 0.80783 0.0
O127 O 0.96563 0.17108 0.78681 0.0
C128 C 0.94078 0.08993 0.90153 0.0
O129 O 0.0202 0.11576 0.78389 0.0
O130 O 0.04668 0.17122 0.79942 0.0
C131 C 0.06199 0.19502 0.89422 0.0
Fe132 Fe 0.52772 0.34142 0.32525 0.0
Fe133 Fe 0.52227 0.38397 0.40851 0.0
O134 O 0.52181 0.38418 0.35278 0.0
Fe135 Fe 0.51555 0.427 0.32471 0.0
O136 O 0.4863 0.40567 0.28149 0.0
O137 O 0.47764 0.34596 0.29874 0.0
O138 O 0.50138 0.31191 0.36481 0.0
C139 C 0.47534 0.32008 0.39247 0.0
C140 C 0.57346 0.39432 0.276 0.0
O141 O 0.47738 0.35172 0.41015 0.0
C142 C 0.56937 0.44796 0.39207 0.0
O143 O 0.57827 0.33404 0.34961 0.0
O144 O 0.55841 0.34558 0.41381 0.0
O145 O 0.56426 0.4221 0.29787 0.0
O146 O 0.55473 0.36302 0.28048 0.0
C147 C 0.46043 0.43636 0.38791 0.0
O148 O 0.56721 0.41636 0.41067 0.0
O149 O 0.54368 0.45603 0.36315 0.0
C150 C 0.58505 0.33385 0.38875 0.0
O151 O 0.48627 0.42238 0.41343 0.0
O152 O 0.46619 0.43554 0.34892 0.0
C153 C 0.4665 0.37478 0.27839 0.0
Fe154 Fe 0.50249 0.63348 0.90136 0.0
Fe155 Fe 0.49719 0.59511 0.81588 0.0
O156 O 0.50089 0.63664 0.84583 0.0
Fe157 Fe 0.50326 0.68125 0.82061 0.0
O158 O 0.55304 0.69239 0.8451 0.0
O159 O 0.53463 0.67582 0.90875 0.0
O160 O 0.55008 0.60701 0.90059 0.0
C161 C 0.55381 0.57646 0.88129 0.0
C162 C 0.45014 0.69219 0.88943 0.0
O163 O 0.52768 0.56676 0.85314 0.0
C164 C 0.44596 0.64576 0.77048 0.0
O165 O 0.47101 0.59024 0.90447 0.0
O166 O 0.44853 0.58084 0.84009 0.0
O167 O 0.47462 0.70508 0.86169 0.0
O168 O 0.45507 0.65982 0.90525 0.0
C169 C 0.55274 0.63596 0.76915 0.0
O170 O 0.46698 0.61626 0.77306 0.0
O171 O 0.45371 0.67328 0.79405 0.0
C172 C 0.44553 0.57503 0.87904 0.0
O173 O 0.54527 0.60609 0.78949 0.0
O174 O 0.53199 0.66517 0.77489 0.0
C175 C 0.55978 0.69208 0.88418 0.0
H176 H 0.21975 0.26642 0.98339 0.0
H177 H 0.20632 0.34815 0.88366 0.0
H178 H 0.14603 0.31282 0.85561 0.0
H179 H 0.09649 0.2593 0.86095 0.0
H180 H 0.11179 0.17767 0.96112 0.0
H181 H 0.17215 0.21243 0.98748 0.0
C182 C 0.20369 0.27651 0.95549 0.0
C183 C 0.21705 0.30997 0.93554 0.0
C184 C 0.16941 0.25611 0.93975 0.0
C185 C 0.19622 0.32246 0.89932 0.0
C186 C 0.16187 0.30234 0.88344 0.0
C187 C 0.11304 0.24912 0.88852 0.0
C188 C 0.09934 0.21603 0.90911 0.0
C189 C 0.14801 0.26922 0.9036 0.0
C190 C 0.12143 0.20308 0.94463 0.0
C191 C 0.15603 0.22295 0.95983 0.0
H192 H 0.85156 0.68547 0.40882 0.0
H193 H 0.81208 0.75315 0.51136 0.0
H194 H 0.86254 0.80244 0.49231 0.0
H195 H 0.91925 0.82626 0.44669 0.0
H196 H 0.9584 0.75735 0.34446 0.0
H197 H 0.9073 0.70926 0.3631 0.0
C198 C 0.85404 0.71112 0.42678 0.0
C199 C 0.82816 0.71548 0.46127 0.0
C200 C 0.88335 0.73933 0.4158 0.0
C201 C 0.83161 0.74888 0.48457 0.0
C202 C 0.86056 0.77717 0.4737 0.0
C203 C 0.9166 0.80075 0.4285 0.0
C204 C 0.94309 0.7957 0.39427 0.0
C205 C 0.88683 0.77269 0.43944 0.0
C206 C 0.93886 0.76229 0.3711 0.0
C207 C 0.90946 0.73457 0.38167 0.0
H208 H 0.83055 0.30637 0.99726 0.0
H209 H 0.80721 0.35324 0.87416 0.0
H210 H 0.85644 0.31004 0.84375 0.0
H211 H 0.90669 0.25941 0.85249 0.0
H212 H 0.93109 0.21383 0.97637 0.0
H213 H 0.88104 0.25597 0.00606 0.0
C214 C 0.8361 0.30699 0.96377 0.0
C215 C 0.81514 0.3328 0.9377 0.0
C216 C 0.86479 0.28237 0.94669 0.0
C217 C 0.82299 0.33346 0.89455 0.0
C218 C 0.85111 0.30884 0.87726 0.0
C219 C 0.90108 0.25865 0.88598 0.0
C220 C 0.92287 0.23341 0.91205 0.0
C221 C 0.87232 0.28322 0.90304 0.0
C222 C 0.91507 0.23299 0.95544 0.0
C223 C 0.88632 0.25708 0.97253 0.0
H224 H 0.22874 0.71925 0.41347 0.0
H225 H 0.21383 0.76149 0.53844 0.0
H226 H 0.1598 0.8037 0.51266 0.0
H227 H 0.11578 0.82671 0.45495 0.0
H228 H 0.13191 0.78493 0.3296 0.0
H229 H 0.18697 0.74438 0.35518 0.0
C230 C 0.21365 0.73769 0.43504 0.0
C231 C 0.22464 0.7372 0.47798 0.0
C232 C 0.18303 0.76182 0.41992 0.0
C233 C 0.2054 0.76154 0.5054 0.0
C234 C 0.17466 0.78551 0.49067 0.0
C235 C 0.13135 0.80877 0.43318 0.0
C236 C 0.11945 0.80858 0.39051 0.0
C237 C 0.163 0.78562 0.44805 0.0
C238 C 0.14035 0.78556 0.36262 0.0
C239 C 0.17178 0.76229 0.37723 0.0
H240 H 0.69849 0.77608 0.99049 0.0
H241 H 0.72037 0.83033 0.87108 0.0
H242 H 0.66606 0.79088 0.83815 0.0
H243 H 0.61078 0.74266 0.84439 0.0
H244 H 0.58834 0.68977 0.9649 0.0
H245 H 0.64461 0.72692 0.99637 0.0
C246 C 0.69152 0.77905 0.95723 0.0
C247 C 0.71316 0.80593 0.9329 0.0
C248 C 0.66012 0.75666 0.93885 0.0
C249 C 0.70383 0.80965 0.89002 0.0
C250 C 0.67288 0.78722 0.87134 0.0
C251 C 0.61833 0.73914 0.87747 0.0
C252 C 0.59515 0.71371 0.90227 0.0
C253 C 0.65054 0.76086 0.89557 0.0
C254 C 0.6054 0.70944 0.94512 0.0
C255 C 0.63764 0.73061 0.96321 0.0
H256 H 0.35339 0.18008 0.42182 0.0
H257 H 0.30705 0.25252 0.51693 0.0
H258 H 0.35779 0.30139 0.49762 0.0
H259 H 0.41626 0.3237 0.45386 0.0
H260 H 0.46292 0.25041 0.35924 0.0
H261 H 0.4117 0.20229 0.37814 0.0
C262 C 0.35448 0.20665 0.43814 0.0
C263 C 0.32654 0.21247 0.47063 0.0
C264 C 0.38405 0.23465 0.42706 0.0
C265 C 0.3282 0.24707 0.49177 0.0
C266 C 0.3573 0.27513 0.48074 0.0
C267 C 0.41531 0.2972 0.43742 0.0
C268 C 0.4438 0.29093 0.40522 0.0
C269 C 0.38556 0.26924 0.44851 0.0
C270 C 0.44174 0.25627 0.38428 0.0
C271 C 0.4123 0.22856 0.395 0.0
H272 H 0.31145 0.78246 0.98121 0.0
H273 H 0.33009 0.85634 0.87476 0.0
H274 H 0.38252 0.81452 0.84768 0.0
H275 H 0.42326 0.75748 0.85475 0.0
H276 H 0.40345 0.6824 0.96027 0.0
H277 H 0.3511 0.7241 0.98722 0.0
C278 C 0.32703 0.7894 0.95212 0.0
C279 C 0.31728 0.82264 0.92992 0.0
C280 C 0.35683 0.76501 0.93666 0.0
C281 C 0.33738 0.83098 0.89218 0.0
C282 C 0.36726 0.80712 0.87681 0.0
C283 C 0.4076 0.75019 0.88371 0.0
C284 C 0.41759 0.7169 0.90557 0.0
C285 C 0.37733 0.77414 0.89885 0.0
C286 C 0.3965 0.7078 0.94278 0.0
C287 C 0.36657 0.73169 0.95827 0.0
H288 H 0.72893 0.26965 0.50102 0.0
H289 H 0.73903 0.19515 0.39642 0.0
H290 H 0.6857 0.22974 0.3576 0.0
H291 H 0.63243 0.27882 0.35595 0.0
H292 H 0.6217 0.35135 0.46274 0.0
H293 H 0.67913 0.32037 0.49795 0.0
C294 C 0.7196 0.26145 0.46951 0.0
C295 C 0.73746 0.2302 0.45167 0.0
C296 C 0.6887 0.28103 0.44788 0.0
C297 C 0.7255 0.21928 0.41084 0.0
C298 C 0.695 0.23899 0.3887 0.0
C299 C 0.64312 0.28805 0.38665 0.0
C300 C 0.62263 0.31701 0.40692 0.0
C301 C 0.67584 0.26957 0.40723 0.0
C302 C 0.63664 0.32873 0.44677 0.0
C303 C 0.6695 0.3111 0.46694 0.0
H304 H 0.32173 0.44836 0.94417 0.0
H305 H 0.43603 0.4093 0.99967 0.0
H306 H 0.47406 0.46115 0.9669 0.0
H307 H 0.47487 0.51898 0.92564 0.0
H308 H 0.36305 0.55757 0.86566 0.0
H309 H 0.32391 0.50407 0.89642 0.0
C310 C 0.35501 0.45092 0.94856 0.0
C311 C 0.37579 0.42542 0.97523 0.0
C312 C 0.37704 0.48071 0.929 0.0
C313 C 0.41901 0.42911 0.98043 0.0
C314 C 0.4409 0.45863 0.96149 0.0
C315 C 0.44188 0.51561 0.9193 0.0
C316 C 0.42149 0.54223 0.89424 0.0
C317 C 0.42014 0.48488 0.93644 0.0
C318 C 0.3791 0.53733 0.88521 0.0
C319 C 0.35687 0.50688 0.90284 0.0
H320 H 0.67254 0.596 0.43564 0.0
H321 H 0.7234 0.52349 0.53136 0.0
H322 H 0.68457 0.4697 0.50229 0.0
H323 H 0.62967 0.44485 0.45437 0.0
H324 H 0.57773 0.51894 0.3601 0.0
H325 H 0.62305 0.56995 0.38373 0.0
C326 C 0.67618 0.56815 0.44916 0.0
C327 C 0.70112 0.56365 0.48528 0.0
C328 C 0.65261 0.53761 0.43313 0.0
C329 C 0.70474 0.52754 0.50319 0.0
C330 C 0.68214 0.49686 0.48687 0.0
C331 C 0.62846 0.47206 0.43882 0.0
C332 C 0.59962 0.47786 0.40585 0.0
C333 C 0.65481 0.50179 0.45268 0.0
C334 C 0.59905 0.51341 0.38588 0.0
C335 C 0.62515 0.54281 0.39928 0.0
H336 H 0.66501 0.43853 0.92987 0.0
H337 H 0.71417 0.5179 0.01972 0.0
H338 H 0.67185 0.56737 0.98848 0.0
H339 H 0.61521 0.58604 0.94063 0.0
H340 H 0.56452 0.50555 0.85231 0.0
H341 H 0.61297 0.45882 0.87776 0.0
C342 C 0.6673 0.46695 0.94172 0.0
C343 C 0.69267 0.47466 0.9769 0.0
C344 C 0.64193 0.49492 0.92441 0.0
C345 C 0.69486 0.51142 0.99255 0.0
C346 C 0.67045 0.53959 0.97491 0.0
C347 C 0.61495 0.55839 0.92672 0.0
C348 C 0.58575 0.54933 0.89497 0.0
C349 C 0.64284 0.53136 0.9417 0.0
C350 C 0.58629 0.51338 0.87705 0.0
C351 C 0.61408 0.48652 0.89154 0.0
H352 H 0.34926 0.53353 0.50056 0.0
H353 H 0.35666 0.60759 0.39278 0.0
H354 H 0.38954 0.55849 0.35265 0.0
H355 H 0.42554 0.49811 0.35219 0.0
H356 H 0.42226 0.42658 0.46244 0.0
H357 H 0.37826 0.4709 0.49757 0.0
C358 C 0.35767 0.53872 0.46811 0.0
C359 C 0.35122 0.57421 0.44982 0.0
C360 C 0.37766 0.51091 0.44584 0.0
C361 C 0.36136 0.58043 0.40752 0.0
C362 C 0.38045 0.55248 0.3847 0.0
C363 C 0.41431 0.49187 0.3835 0.0
C364 C 0.42744 0.45942 0.40495 0.0
C365 C 0.39011 0.5181 0.40406 0.0
C366 C 0.41289 0.45166 0.44556 0.0
C367 C 0.38783 0.47699 0.46568 0.0
H368 H 0.84068 0.98354 0.02443 0.0
H369 H 0.84909 0.91004 0.91818 0.0
H370 H 0.88032 0.9608 0.87675 0.0
H371 H 0.91057 0.02384 0.87251 0.0
H372 H 0.90568 0.09738 0.97905 0.0
H373 H 0.86717 0.04895 0.01838 0.0
C374 C 0.8493 0.97875 0.99217 0.0
C375 C 0.84273 0.94306 0.97446 0.0
C376 C 0.86783 1.00798 0.96862 0.0
C377 C 0.85344 0.93733 0.93244 0.0
C378 C 0.87152 0.96627 0.90878 0.0
C379 C 0.90073 0.02953 0.9042 0.0
C380 C 0.91147 0.06397 0.923 0.0
C381 C 0.87954 1.00142 0.9268 0.0
C382 C 0.89792 0.07104 0.96385 0.0
C383 C 0.87616 0.04327 0.98646 0.0
H384 H 0.17826 0.09413 0.43853 0.0
H385 H 0.20699 0.02478 0.54626 0.0
H386 H 0.17146 0.97098 0.5136 0.0
H387 H 0.12537 0.94542 0.45757 0.0
H388 H 0.09573 0.01596 0.35064 0.0
H389 H 0.13829 0.06682 0.3795 0.0
C390 C 0.17773 0.06696 0.45427 0.0
C391 C 0.19523 0.06354 0.49477 0.0
C392 C 0.1563 0.03628 0.4357 0.0
C393 C 0.19369 0.0282 0.51506 0.0
C394 C 0.17314 0.99744 0.49649 0.0
C395 C 0.12866 0.97171 0.44032 0.0
C396 C 0.10667 0.97674 0.40219 0.0
C397 C 0.15316 1.0014 0.45734 0.0
C398 C 0.11164 1.01117 0.38033 0.0
C399 C 0.13614 0.04046 0.39677 0.0
H400 H 0.11257 0.93642 0.98558 0.0
H401 H 0.22633 0.96971 0.92492 0.0
H402 H 0.19008 0.01984 0.88687 0.0
H403 H 0.12648 0.05769 0.87559 0.0
H404 H 0.01584 0.02618 0.94286 0.0
H405 H 0.05052 0.9724 0.97415 0.0
C406 C 0.1297 0.95479 0.96433 0.0
C407 C 0.17234 0.94969 0.95882 0.0
C408 C 0.10914 0.98418 0.94399 0.0
C409 C 0.1935 0.97296 0.92986 0.0
C410 C 0.17283 1.00183 0.90835 0.0
C411 C 0.11013 0.03875 0.89685 0.0
C412 C 0.06883 0.04585 0.9072 0.0
C413 C 0.13077 1.00824 0.91583 0.0
C414 C 0.0478 0.02138 0.93487 0.0
C415 C 0.06754 0.99061 0.95267 0.0
H416 H 0.83452 0.05827 0.43548 0.0
H417 H 0.93366 0.08772 0.52258 0.0
H418 H 0.97499 0.03748 0.49619 0.0
H419 H 0.98438 0.98636 0.44771 0.0
H420 H 0.89046 0.96061 0.35431 0.0
H421 H 0.84589 1.0087 0.38336 0.0
C422 C 0.86529 0.05398 0.44843 0.0
C423 C 0.88033 0.07641 0.48175 0.0
C424 C 0.88988 0.02573 0.43197 0.0
C425 C 0.9204 0.07021 0.49805 0.0
C426 C 0.94441 0.04166 0.48269 0.0
C427 C 0.95392 0.99098 0.43402 0.0
C428 C 0.94022 0.96973 0.39954 0.0
C429 C 0.92944 0.01926 0.44982 0.0
C430 C 0.90131 0.97661 0.38119 0.0
C431 C 0.87599 1.00406 0.39773 0.0
H432 H 0.34668 0.407 0.12767 0.0
H433 H 0.37678 0.29362 0.09656 0.0
H434 H 0.41272 0.28605 0.16453 0.0
H435 H 0.444 0.31549 0.22819 0.0
H436 H 0.4148 0.43004 0.25641 0.0
H437 H 0.36962 0.43325 0.19471 0.0
C438 C 0.36045 0.38042 0.13626 0.0
C439 C 0.35964 0.35105 0.10735 0.0
C440 C 0.38151 0.37665 0.17474 0.0
C441 C 0.37714 0.31657 0.1186 0.0
C442 C 0.39789 0.31237 0.15726 0.0
C443 C 0.42686 0.34072 0.2213 0.0
C444 C 0.43311 0.37266 0.24637 0.0
C445 C 0.40152 0.34272 0.18499 0.0
C446 C 0.41087 0.40528 0.23715 0.0
C447 C 0.38509 0.40719 0.20187 0.0
H448 H 0.62519 0.60989 0.59088 0.0
H449 H 0.72896 0.67286 0.6436 0.0
H450 H 0.69084 0.68079 0.70851 0.0
H451 H 0.62822 0.66782 0.75152 0.0
H452 H 0.52988 0.59755 0.70062 0.0
H453 H 0.5662 0.59352 0.63416 0.0
C454 C 0.64021 0.62463 0.61671 0.0
C455 C 0.68031 0.64037 0.61205 0.0
C456 C 0.619 0.62762 0.65451 0.0
C457 C 0.69803 0.66071 0.64575 0.0
C458 C 0.67638 0.665 0.68315 0.0
C459 C 0.61508 0.65161 0.72575 0.0
C460 C 0.5765 0.63318 0.73044 0.0
C461 C 0.63691 0.64833 0.68802 0.0
C462 C 0.55955 0.61201 0.69731 0.0
C463 C 0.58027 0.60971 0.65943 0.0
H464 H 0.63231 0.42846 0.09328 0.0
H465 H 0.74025 0.36905 0.13689 0.0
H466 H 0.70807 0.35915 0.20527 0.0
H467 H 0.64885 0.36831 0.25333 0.0
H468 H 0.54651 0.43502 0.21053 0.0
H469 H 0.57795 0.44269 0.14161 0.0
C470 C 0.64981 0.41435 0.11781 0.0
C471 C 0.6892 0.40005 0.10948 0.0
C472 C 0.63217 0.4104 0.15755 0.0
C473 C 0.7098 0.38015 0.14176 0.0
C474 C 0.69156 0.37476 0.18117 0.0
C475 C 0.63397 0.38489 0.22891 0.0
C476 C 0.59572 0.40139 0.23672 0.0
C477 C 0.65278 0.38991 0.1895 0.0
C478 C 0.57627 0.42258 0.2051 0.0
C479 C 0.59407 0.42673 0.16571 0.0
H480 H 0.3195 0.65735 0.61852 0.0
H481 H 0.43244 0.64035 0.5511 0.0
H482 H 0.47223 0.64213 0.61658 0.0
H483 H 0.47448 0.64377 0.69294 0.0
H484 H 0.36339 0.66153 0.76226 0.0
H485 H 0.32306 0.6649 0.69609 0.0
C486 C 0.35288 0.65468 0.61825 0.0
C487 C 0.37295 0.64801 0.58018 0.0
C488 C 0.3757 0.65564 0.65623 0.0
C489 C 0.41623 0.64466 0.58014 0.0
C490 C 0.43902 0.64578 0.6175 0.0
C491 C 0.44143 0.64846 0.69341 0.0
C492 C 0.42154 0.65173 0.73191 0.0
C493 C 0.41896 0.65033 0.65568 0.0
C494 C 0.37902 0.65874 0.73264 0.0
C495 C 0.35612 0.66054 0.69493 0.0
H496 H 0.84119 0.92302 0.12631 0.0
H497 H 0.85932 0.80695 0.09602 0.0
H498 H 0.90003 0.79846 0.16079 0.0
H499 H 0.93776 0.82655 0.22147 0.0
H500 H 0.92216 0.94389 0.24804 0.0
H501 H 0.87325 0.94938 0.18949 0.0
C502 C 0.85379 0.89578 0.13409 0.0
C503 C 0.84779 0.86583 0.10623 0.0
C504 C 0.87798 0.89145 0.17058 0.0
C505 C 0.86349 0.83046 0.11705 0.0
C506 C 0.88704 0.82568 0.1539 0.0
C507 C 0.92297 0.85305 0.21483 0.0
C508 C 0.93386 0.88489 0.23863 0.0
C509 C 0.89555 0.8563 0.18028 0.0
C510 C 0.91464 0.91914 0.22973 0.0
C511 C 0.88668 0.92232 0.19628 0.0
H512 H 0.11673 0.11968 0.59651 0.0
H513 H 0.22647 0.16944 0.65363 0.0
H514 H 0.18887 0.17829 0.71887 0.0
H515 H 0.12501 0.16879 0.76112 0.0
H516 H 0.01829 0.11414 0.70357 0.0
H517 H 0.0547 0.10974 0.63761 0.0
C518 C 0.13281 0.13198 0.62332 0.0
C519 C 0.17462 0.14342 0.62007 0.0
C520 C 0.11147 0.13597 0.66095 0.0
C521 C 0.19424 0.16051 0.65495 0.0
C522 C 0.17282 0.16537 0.69245 0.0
C523 C 0.10987 0.15612 0.734 0.0
C524 C 0.06915 0.14157 0.73732 0.0
C525 C 0.13145 0.15283 0.69601 0.0
C526 C 0.04981 0.1251 0.70201 0.0
C527 C 0.07054 0.12266 0.66417 0.0
H528 H 0.18779 0.94285 0.1129 0.0
H529 H 0.17663 0.82363 0.09159 0.0
H530 H 0.14042 0.81512 0.15796 0.0
H531 H 0.10576 0.84236 0.21811 0.0
H532 H 0.11542 0.96186 0.23879 0.0
H533 H 0.15835 0.96942 0.1766 0.0
C534 C 0.17772 0.91497 0.123 0.0
C535 C 0.18455 0.88397 0.09715 0.0
C536 C 0.15625 0.91039 0.16083 0.0
C537 C 0.172 0.84793 0.11098 0.0
C538 C 0.15095 0.84309 0.14876 0.0
C539 C 0.1175 0.87005 0.20926 0.0
C540 C 0.10679 0.90156 0.23278 0.0
C541 C 0.14194 0.87425 0.17333 0.0
C542 C 0.12289 0.93713 0.22117 0.0
C543 C 0.14738 0.94151 0.18552 0.0
H544 H 0.8302 0.10086 0.62825 0.0
H545 H 0.86851 0.21237 0.58918 0.0
H546 H 0.89863 0.2241 0.65892 0.0
H547 H 0.92323 0.19884 0.72679 0.0
H548 H 0.88567 0.08648 0.76487 0.0
H549 H 0.84569 0.07912 0.70003 0.0
C550 C 0.84436 0.12799 0.63545 0.0
C551 C 0.84764 0.15558 0.60376 0.0
C552 C 0.86222 0.13419 0.6752 0.0
C553 C 0.8656 0.19079 0.61327 0.0
C554 C 0.88314 0.19734 0.65297 0.0
C555 C 0.90569 0.17299 0.7213 0.0
C556 C 0.90833 0.14298 0.75029 0.0
C557 C 0.88307 0.16869 0.6836 0.0
C558 C 0.88479 0.10991 0.74291 0.0
C559 C 0.86194 0.10557 0.70572 0.0
loop_
_geom_bond_atom_site_label_1
_geom_bond_atom_site_label_2
_geom_bond_distance
_geom_bond_site_symmetry_2
_ccdc_geom_bond_type
H0 C5 0.929 . S
H1 C10 0.931 . S
H2 C8 0.930 . S
N3 N4 1.234 1_554 S
N3 C7 1.453 . S
N4 N3 1.234 1_556 S
C5 H0 0.929 . S
C5 C6 1.373 . S
C5 C7 1.368 . S
C6 C5 1.373 . S
C6 C10 1.397 . S
C7 N3 1.453 . S
C7 C5 1.368 . S
C7 C8 1.373 1_554 S
C8 H2 0.930 . S
C8 C7 1.373 1_556 S
C8 C9 1.371 . S
C9 C8 1.371 . S
C9 C10 1.383 1_556 S
C10 H1 0.931 . S
C10 C6 1.397 . S
C10 C9 1.383 1_554 S
H11 C16 0.929 . S
H12 C21 0.931 . S
H13 C19 0.930 . S
N14 N15 1.234 . S
N14 C18 1.453 . S
N15 N14 1.234 . S
C16 H11 0.929 . S
C16 C17 1.373 . S
C16 C18 1.368 . S
C17 C16 1.373 . S
C17 C21 1.397 . S
C18 N14 1.453 . S
C18 C16 1.368 . S
C18 C19 1.373 . S
C19 H13 0.930 . S
C19 C18 1.373 . S
C19 C20 1.371 . S
C20 C19 1.371 . S
C20 C21 1.383 . S
C21 H12 0.931 . S
C21 C17 1.397 . S
C21 C20 1.383 . S
H22 C27 0.929 . S
H23 C32 0.931 . S
H24 C30 0.930 . S
N25 N26 1.234 1_554 S
N25 C29 1.453 . S
N26 N25 1.234 1_556 S
C27 H22 0.929 . S
C27 C28 1.373 . S
C27 C29 1.368 . S
C28 C27 1.373 . S
C28 C32 1.397 . S
C29 N25 1.453 . S
C29 C27 1.368 . S
C29 C30 1.373 1_554 S
C30 H24 0.930 . S
C30 C29 1.373 1_556 S
C30 C31 1.371 . S
C31 C30 1.371 . S
C31 C32 1.383 1_556 S
C32 H23 0.931 . S
C32 C28 1.397 . S
C32 C31 1.383 1_554 S
H33 C38 0.929 . S
H34 C43 0.931 . S
H35 C41 0.930 . S
N36 N37 1.234 . S
N36 C40 1.453 . S
N37 N36 1.234 . S
C38 H33 0.929 . S
C38 C39 1.373 . S
C38 C40 1.368 . S
C39 C38 1.373 . S
C39 C43 1.397 . S
C40 N36 1.453 . S
C40 C38 1.368 . S
C40 C41 1.373 . S
C41 H35 0.930 . S
C41 C40 1.373 . S
C41 C42 1.371 . S
C42 C41 1.371 . S
C42 C43 1.383 . S
C43 H34 0.931 . S
C43 C39 1.397 . S
C43 C42 1.383 . S
H44 C49 0.929 . S
H45 C54 0.931 . S
H46 C52 0.930 . S
N47 N48 1.234 1_554 S
N47 C51 1.453 . S
N48 N47 1.234 1_556 S
C49 H44 0.929 . S
C49 C50 1.373 . S
C49 C51 1.368 . S
C50 C49 1.373 . S
C50 C54 1.397 . S
C51 N47 1.453 . S
C51 C49 1.368 . S
C51 C52 1.373 1_554 S
C52 H46 0.930 . S
C52 C51 1.373 1_556 S
C52 C53 1.371 . S
C53 C52 1.371 . S
C53 C54 1.383 1_556 S
C54 H45 0.931 . S
C54 C50 1.397 . S
C54 C53 1.383 1_554 S
H55 C60 0.929 . S
H56 C65 0.931 . S
H57 C63 0.930 . S
N58 N59 1.234 . S
N58 C62 1.453 . S
N59 N58 1.234 . S
C60 H55 0.929 . S
C60 C61 1.373 . S
C60 C62 1.368 . S
C61 C60 1.373 . S
C61 C65 1.397 . S
C62 N58 1.453 . S
C62 C60 1.368 . S
C62 C63 1.373 . S
C63 H57 0.930 . S
C63 C62 1.373 . S
C63 C64 1.371 . S
C64 C63 1.371 . S
C64 C65 1.383 . S
C65 H56 0.931 . S
C65 C61 1.397 . S
C65 C64 1.383 . S
H66 C71 0.929 . S
H67 C76 0.931 . S
H68 C74 0.930 . S
N69 N70 1.234 1_554 S
N69 C73 1.453 . S
N70 N69 1.234 1_556 S
C71 H66 0.929 . S
C71 C72 1.373 . S
C71 C73 1.368 . S
C72 C71 1.373 . S
C72 C76 1.397 . S
C73 N69 1.453 . S
C73 C71 1.368 . S
C73 C74 1.373 1_554 S
C74 H68 0.930 . S
C74 C73 1.373 1_556 S
C74 C75 1.371 . S
C75 C74 1.371 . S
C75 C76 1.383 1_556 S
C76 H67 0.931 . S
C76 C72 1.397 . S
C76 C75 1.383 1_554 S
H77 C82 0.929 . S
H78 C87 0.931 . S
H79 C85 0.930 . S
N80 N81 1.234 . S
N80 C84 1.453 . S
N81 N80 1.234 . S
C82 H77 0.929 . S
C82 C83 1.373 . S
C82 C84 1.368 . S
C83 C82 1.373 . S
C83 C87 1.397 . S
C84 N80 1.453 . S
C84 C82 1.368 . S
C84 C85 1.373 . S
C85 H79 0.930 . S
C85 C84 1.373 . S
C85 C86 1.371 . S
C86 C85 1.371 . S
C86 C87 1.383 . S
C87 H78 0.931 . S
C87 C83 1.397 . S
C87 C86 1.383 . S
Fe88 O90 1.918 . S
Fe88 O93 1.997 1_455 S
Fe88 O94 2.002 1_455 S
Fe88 O99 1.976 . S
Fe88 O102 1.996 . S
Fe89 O90 1.918 . S
Fe89 O97 1.997 1_455 S
Fe89 O100 1.996 . S
Fe89 O104 1.976 . S
Fe89 O107 2.002 1_455 S
O90 Fe88 1.918 . S
O90 Fe89 1.918 . S
O90 Fe91 1.918 . S
Fe91 O90 1.918 . S
Fe91 O92 2.002 1_455 S
Fe91 O101 1.976 . S
Fe91 O105 1.996 . S
Fe91 O108 1.997 1_455 S
O92 Fe91 2.002 1_655 S
O92 C109 1.295 . S
O93 Fe88 1.997 1_655 S
O93 C109 1.235 . S
O94 Fe88 2.002 1_655 S
O94 C95 1.295 . S
C95 O94 1.295 . S
C95 O97 1.235 . S
C96 O101 1.287 . S
C96 O102 1.255 . S
O97 Fe89 1.997 1_655 S
O97 C95 1.235 . S
C98 O104 1.287 . S
C98 O105 1.255 . S
O99 Fe88 1.976 . S
O99 C106 1.287 . S
O100 Fe89 1.996 . S
O100 C106 1.255 . S
O101 Fe91 1.976 . S
O101 C96 1.287 . S
O102 Fe88 1.996 . S
O102 C96 1.255 . S
C103 O107 1.295 . S
C103 O108 1.235 . S
O104 Fe89 1.976 . S
O104 C98 1.287 . S
O105 Fe91 1.996 . S
O105 C98 1.255 . S
C106 O99 1.287 . S
C106 O100 1.255 . S
O107 Fe89 2.002 1_655 S
O107 C103 1.295 . S
O108 Fe91 1.997 1_655 S
O108 C103 1.235 . S
C109 O92 1.295 . S
C109 O93 1.235 . S
Fe110 O112 1.918 1_455 S
Fe110 O115 2.003 . S
Fe110 O116 2.009 . S
Fe110 O121 1.969 1_455 S
Fe110 O124 1.989 1_455 S
Fe111 O112 1.918 . S
Fe111 O119 1.989 1_655 S
Fe111 O122 2.003 . S
Fe111 O126 1.983 . S
Fe111 O129 1.995 1_655 S
O112 Fe110 1.918 1_655 S
O112 Fe111 1.918 . S
O112 Fe113 1.918 1_655 S
Fe113 O112 1.918 1_455 S
Fe113 O114 2.003 . S
Fe113 O123 1.975 1_455 S
Fe113 O127 1.995 1_455 S
Fe113 O130 1.998 . S
O114 Fe113 2.003 . S
O114 C131 1.295 . S
O115 Fe110 2.003 . S
O115 C131 1.235 . S
O116 Fe110 2.009 . S
O116 C117 1.295 . S
C117 O116 1.295 . S
C117 O119 1.235 . S
C118 O123 1.287 . S
C118 O124 1.255 . S
O119 Fe111 1.989 1_455 S
O119 C117 1.235 . S
C120 O126 1.287 . S
C120 O127 1.255 . S
O121 Fe110 1.969 1_655 S
O121 C128 1.287 . S
O122 Fe111 2.003 . S
O122 C128 1.255 . S
O123 Fe113 1.975 1_655 S
O123 C118 1.287 . S
O124 Fe110 1.989 1_655 S
O124 C118 1.255 . S
C125 O129 1.295 . S
C125 O130 1.235 . S
O126 Fe111 1.983 . S
O126 C120 1.287 . S
O127 Fe113 1.995 1_655 S
O127 C120 1.255 . S
C128 O121 1.287 . S
C128 O122 1.255 . S
O129 Fe111 1.995 1_455 S
O129 C125 1.295 . S
O130 Fe113 1.998 . S
O130 C125 1.235 . S
C131 O114 1.295 . S
C131 O115 1.235 . S
Fe132 O134 1.918 . S
Fe132 O137 1.997 . S
Fe132 O138 2.002 . S
Fe132 O143 1.976 . S
Fe132 O146 1.996 . S
Fe133 O134 1.918 . S
Fe133 O141 1.997 . S
Fe133 O144 1.996 . S
Fe133 O148 1.976 . S
Fe133 O151 2.002 . S
O134 Fe132 1.918 . S
O134 Fe133 1.918 . S
O134 Fe135 1.918 . S
Fe135 O134 1.918 . S
Fe135 O136 2.002 . S
Fe135 O145 1.976 . S
Fe135 O149 1.996 . S
Fe135 O152 1.997 . S
O136 Fe135 2.002 . S
O136 C153 1.295 . S
O137 Fe132 1.997 . S
O137 C153 1.235 . S
O138 Fe132 2.002 . S
O138 C139 1.295 . S
C139 O138 1.295 . S
C139 O141 1.235 . S
C140 O145 1.287 . S
C140 O146 1.255 . S
O141 Fe133 1.997 . S
O141 C139 1.235 . S
C142 O148 1.287 . S
C142 O149 1.255 . S
O143 Fe132 1.976 . S
O143 C150 1.287 . S
O144 Fe133 1.996 . S
O144 C150 1.255 . S
O145 Fe135 1.976 . S
O145 C140 1.287 . S
O146 Fe132 1.996 . S
O146 C140 1.255 . S
C147 O151 1.295 . S
C147 O152 1.235 . S
O148 Fe133 1.976 . S
O148 C142 1.287 . S
O149 Fe135 1.996 . S
O149 C142 1.255 . S
C150 O143 1.287 . S
C150 O144 1.255 . S
O151 Fe133 2.002 . S
O151 C147 1.295 . S
O152 Fe135 1.997 . S
O152 C147 1.235 . S
C153 O136 1.295 . S
C153 O137 1.235 . S
Fe154 O156 1.918 . S
Fe154 O159 1.997 . S
Fe154 O160 2.002 . S
Fe154 O165 1.976 . S
Fe154 O168 1.996 . S
Fe155 O156 1.918 . S
Fe155 O163 1.997 . S
Fe155 O166 1.996 . S
Fe155 O170 1.976 . S
Fe155 O173 2.002 . S
O156 Fe154 1.918 . S
O156 Fe155 1.918 . S
O156 Fe157 1.918 . S
Fe157 O156 1.918 . S
Fe157 O158 2.002 . S
Fe157 O167 1.976 . S
Fe157 O171 1.996 . S
Fe157 O174 1.997 . S
O158 Fe157 2.002 . S
O158 C175 1.295 . S
O159 Fe154 1.997 . S
O159 C175 1.235 . S
O160 Fe154 2.002 . S
O160 C161 1.295 . S
C161 O160 1.295 . S
C161 O163 1.235 . S
C162 O167 1.287 . S
C162 O168 1.255 . S
O163 Fe155 1.997 . S
O163 C161 1.235 . S
C164 O170 1.287 . S
C164 O171 1.255 . S
O165 Fe154 1.976 . S
O165 C172 1.287 . S
O166 Fe155 1.996 . S
O166 C172 1.255 . S
O167 Fe157 1.976 . S
O167 C162 1.287 . S
O168 Fe154 1.996 . S
O168 C162 1.255 . S
C169 O173 1.295 . S
C169 O174 1.235 . S
O170 Fe155 1.976 . S
O170 C164 1.287 . S
O171 Fe157 1.996 . S
O171 C164 1.255 . S
C172 O165 1.287 . S
C172 O166 1.255 . S
O173 Fe155 2.002 . S
O173 C169 1.295 . S
O174 Fe157 1.997 . S
O174 C169 1.235 . S
C175 O158 1.295 . S
C175 O159 1.235 . S
H176 C182 0.940 . S
H177 C185 0.930 . S
H178 C186 0.930 . S
H179 C187 0.930 . S
H180 C190 0.930 . S
H181 C191 0.930 . S
C182 H176 0.940 . S
C182 C183 1.355 . S
C182 C184 1.415 . S
C183 C182 1.355 . S
C183 C185 1.419 . S
C184 C182 1.415 . S
C184 C189 1.425 . S
C184 C191 1.409 . S
C185 H177 0.930 . S
C185 C183 1.419 . S
C185 C186 1.362 . S
C186 H178 0.930 . S
C186 C185 1.362 . S
C186 C189 1.409 . S
C187 H179 0.930 . S
C187 C188 1.355 . S
C187 C189 1.415 . S
C188 C187 1.355 . S
C188 C190 1.419 . S
C189 C184 1.425 . S
C189 C186 1.409 . S
C189 C187 1.415 . S
C190 H180 0.930 . S
C190 C188 1.419 . S
C190 C191 1.362 . S
C191 H181 0.930 . S
C191 C184 1.409 . S
C191 C190 1.362 . S
H192 C198 0.930 . S
H193 C201 0.930 . S
H194 C202 0.930 . S
H195 C203 0.930 . S
H196 C206 0.930 . S
H197 C207 0.930 . S
C198 H192 0.930 . S
C198 C199 1.355 . S
C198 C200 1.415 . S
C199 C198 1.355 . S
C199 C201 1.419 . S
C200 C198 1.415 . S
C200 C205 1.425 . S
C200 C207 1.409 . S
C201 H193 0.930 . S
C201 C199 1.419 . S
C201 C202 1.362 . S
C202 H194 0.930 . S
C202 C201 1.362 . S
C202 C205 1.409 . S
C203 H195 0.930 . S
C203 C204 1.355 . S
C203 C205 1.415 . S
C204 C203 1.355 . S
C204 C206 1.419 . S
C205 C200 1.425 . S
C205 C202 1.409 . S
C205 C203 1.415 . S
C206 H196 0.930 . S
C206 C204 1.419 . S
C206 C207 1.362 . S
C207 H197 0.930 . S
C207 C200 1.409 . S
C207 C206 1.362 . S
H208 C214 0.930 . S
H209 C217 0.930 . S
H210 C218 0.930 . S
H211 C219 0.930 . S
H212 C222 0.930 . S
H213 C223 0.930 . S
C214 H208 0.930 . S
C214 C215 1.355 . S
C214 C216 1.415 . S
C215 C214 1.355 . S
C215 C217 1.419 . S
C216 C214 1.415 . S
C216 C221 1.425 . S
C216 C223 1.409 . S
C217 H209 0.930 . S
C217 C215 1.419 . S
C217 C218 1.362 . S
C218 H210 0.930 . S
C218 C217 1.362 . S
C218 C221 1.409 . S
C219 H211 0.930 . S
C219 C220 1.355 . S
C219 C221 1.415 . S
C220 C219 1.355 . S
C220 C222 1.419 . S
C221 C216 1.425 . S
C221 C218 1.409 . S
C221 C219 1.415 . S
C222 H212 0.930 . S
C222 C220 1.419 . S
C222 C223 1.362 . S
C223 H213 0.930 . S
C223 C216 1.409 . S
C223 C222 1.362 . S
H224 C230 0.930 . S
H225 C233 0.930 . S
H226 C234 0.930 . S
H227 C235 0.930 . S
H228 C238 0.930 . S
H229 C239 0.930 . S
C230 H224 0.930 . S
C230 C231 1.355 . S
C230 C232 1.415 . S
C231 C230 1.355 . S
C231 C233 1.419 . S
C232 C230 1.415 . S
C232 C237 1.425 . S
C232 C239 1.409 . S
C233 H225 0.930 . S
C233 C231 1.419 . S
C233 C234 1.362 . S
C234 H226 0.930 . S
C234 C233 1.362 . S
C234 C237 1.409 . S
C235 H227 0.930 . S
C235 C236 1.355 . S
C235 C237 1.415 . S
C236 C235 1.355 . S
C236 C238 1.419 . S
C237 C232 1.425 . S
C237 C234 1.409 . S
C237 C235 1.415 . S
C238 H228 0.930 . S
C238 C236 1.419 . S
C238 C239 1.362 . S
C239 H229 0.930 . S
C239 C232 1.409 . S
C239 C238 1.362 . S
H240 C246 0.930 . S
H241 C249 0.930 . S
H242 C250 0.930 . S
H243 C251 0.930 . S
H244 C254 0.930 . S
H245 C255 0.930 . S
C246 H240 0.930 . S
C246 C247 1.355 . S
C246 C248 1.415 . S
C247 C246 1.355 . S
C247 C249 1.419 . S
C248 C246 1.415 . S
C248 C253 1.425 . S
C248 C255 1.409 . S
C249 H241 0.930 . S
C249 C247 1.419 . S
C249 C250 1.362 . S
C250 H242 0.930 . S
C250 C249 1.362 . S
C250 C253 1.409 . S
C251 H243 0.930 . S
C251 C252 1.355 . S
C251 C253 1.415 . S
C252 C251 1.355 . S
C252 C254 1.419 . S
C253 C248 1.425 . S
C253 C250 1.409 . S
C253 C251 1.415 . S
C254 H244 0.930 . S
C254 C252 1.419 . S
C254 C255 1.362 . S
C255 H245 0.930 . S
C255 C248 1.409 . S
C255 C254 1.362 . S
H256 C262 0.930 . S
H257 C265 0.930 . S
H258 C266 0.930 . S
H259 C267 0.930 . S
H260 C270 0.930 . S
H261 C271 0.930 . S
C262 H256 0.930 . S
C262 C263 1.355 . S
C262 C264 1.415 . S
C263 C262 1.355 . S
C263 C265 1.419 . S
C264 C262 1.415 . S
C264 C269 1.425 . S
C264 C271 1.409 . S
C265 H257 0.930 . S
C265 C263 1.419 . S
C265 C266 1.362 . S
C266 H258 0.930 . S
C266 C265 1.362 . S
C266 C269 1.409 . S
C267 H259 0.930 . S
C267 C268 1.355 . S
C267 C269 1.415 . S
C268 C267 1.355 . S
C268 C270 1.419 . S
C269 C264 1.425 . S
C269 C266 1.409 . S
C269 C267 1.415 . S
C270 H260 0.930 . S
C270 C268 1.419 . S
C270 C271 1.362 . S
C271 H261 0.930 . S
C271 C264 1.409 . S
C271 C270 1.362 . S
H272 C278 0.930 . S
H273 C281 0.930 . S
H274 C282 0.930 . S
H275 C283 0.930 . S
H276 C286 0.930 . S
H277 C287 0.930 . S
C278 H272 0.930 . S
C278 C279 1.355 . S
C278 C280 1.415 . S
C279 C278 1.355 . S
C279 C281 1.419 . S
C280 C278 1.415 . S
C280 C285 1.425 . S
C280 C287 1.409 . S
C281 H273 0.930 . S
C281 C279 1.419 . S
C281 C282 1.362 . S
C282 H274 0.930 . S
C282 C281 1.362 . S
C282 C285 1.409 . S
C283 H275 0.930 . S
C283 C284 1.355 . S
C283 C285 1.415 . S
C284 C283 1.355 . S
C284 C286 1.419 . S
C285 C280 1.425 . S
C285 C282 1.409 . S
C285 C283 1.415 . S
C286 H276 0.930 . S
C286 C284 1.419 . S
C286 C287 1.362 . S
C287 H277 0.930 . S
C287 C280 1.409 . S
C287 C286 1.362 . S
H288 C294 0.930 . S
H289 C297 0.930 . S
H290 C298 0.930 . S
H291 C299 0.930 . S
H292 C302 0.930 . S
H293 C303 0.930 . S
C294 H288 0.930 . S
C294 C295 1.355 . S
C294 C296 1.415 . S
C295 C294 1.355 . S
C295 C297 1.419 . S
C296 C294 1.415 . S
C296 C301 1.425 . S
C296 C303 1.409 . S
C297 H289 0.930 . S
C297 C295 1.419 . S
C297 C298 1.362 . S
C298 H290 0.930 . S
C298 C297 1.362 . S
C298 C301 1.409 . S
C299 H291 0.930 . S
C299 C300 1.355 . S
C299 C301 1.415 . S
C300 C299 1.355 . S
C300 C302 1.419 . S
C301 C296 1.425 . S
C301 C298 1.409 . S
C301 C299 1.415 . S
C302 H292 0.930 . S
C302 C300 1.419 . S
C302 C303 1.362 . S
C303 H293 0.930 . S
C303 C296 1.409 . S
C303 C302 1.362 . S
H304 C310 0.930 . S
H305 C313 0.930 . S
H306 C314 0.930 . S
H307 C315 0.930 . S
H308 C318 0.930 . S
H309 C319 0.930 . S
C310 H304 0.930 . S
C310 C311 1.355 . S
C310 C312 1.415 . S
C311 C310 1.355 . S
C311 C313 1.419 . S
C312 C310 1.415 . S
C312 C317 1.425 . S
C312 C319 1.409 . S
C313 H305 0.930 . S
C313 C311 1.419 . S
C313 C314 1.362 . S
C314 H306 0.930 . S
C314 C313 1.362 . S
C314 C317 1.409 . S
C315 H307 0.930 . S
C315 C316 1.355 . S
C315 C317 1.415 . S
C316 C315 1.355 . S
C316 C318 1.419 . S
C317 C312 1.425 . S
C317 C314 1.409 . S
C317 C315 1.415 . S
C318 H308 0.930 . S
C318 C316 1.419 . S
C318 C319 1.362 . S
C319 H309 0.930 . S
C319 C312 1.409 . S
C319 C318 1.362 . S
H320 C326 0.930 . S
H321 C329 0.930 . S
H322 C330 0.930 . S
H323 C331 0.930 . S
H324 C334 0.930 . S
H325 C335 0.930 . S
C326 H320 0.930 . S
C326 C327 1.355 . S
C326 C328 1.415 . S
C327 C326 1.355 . S
C327 C329 1.419 . S
C328 C326 1.415 . S
C328 C333 1.425 . S
C328 C335 1.409 . S
C329 H321 0.930 . S
C329 C327 1.419 . S
C329 C330 1.362 . S
C330 H322 0.930 . S
C330 C329 1.362 . S
C330 C333 1.409 . S
C331 H323 0.930 . S
C331 C332 1.355 . S
C331 C333 1.415 . S
C332 C331 1.355 . S
C332 C334 1.419 . S
C333 C328 1.425 . S
C333 C330 1.409 . S
C333 C331 1.415 . S
C334 H324 0.930 . S
C334 C332 1.419 . S
C334 C335 1.362 . S
C335 H325 0.930 . S
C335 C328 1.409 . S
C335 C334 1.362 . S
H336 C342 0.930 . S
H337 C345 0.930 . S
H338 C346 0.930 . S
H339 C347 0.930 . S
H340 C350 0.930 . S
H341 C351 0.930 . S
C342 H336 0.930 . S
C342 C343 1.355 . S
C342 C344 1.415 . S
C343 C342 1.355 . S
C343 C345 1.419 . S
C344 C342 1.415 . S
C344 C349 1.425 . S
C344 C351 1.409 . S
C345 H337 0.930 . S
C345 C343 1.419 . S
C345 C346 1.362 . S
C346 H338 0.930 . S
C346 C345 1.362 . S
C346 C349 1.409 . S
C347 H339 0.930 . S
C347 C348 1.355 . S
C347 C349 1.415 . S
C348 C347 1.355 . S
C348 C350 1.419 . S
C349 C344 1.425 . S
C349 C346 1.409 . S
C349 C347 1.415 . S
C350 H340 0.930 . S
C350 C348 1.419 . S
C350 C351 1.362 . S
C351 H341 0.930 . S
C351 C344 1.409 . S
C351 C350 1.362 . S
H352 C358 0.930 . S
H353 C361 0.930 . S
H354 C362 0.930 . S
H355 C363 0.930 . S
H356 C366 0.930 . S
H357 C367 0.930 . S
C358 H352 0.930 . S
C358 C359 1.355 . S
C358 C360 1.415 . S
C359 C358 1.355 . S
C359 C361 1.419 . S
C360 C358 1.415 . S
C360 C365 1.425 . S
C360 C367 1.409 . S
C361 H353 0.930 . S
C361 C359 1.419 . S
C361 C362 1.362 . S
C362 H354 0.930 . S
C362 C361 1.362 . S
C362 C365 1.409 . S
C363 H355 0.930 . S
C363 C364 1.355 . S
C363 C365 1.415 . S
C364 C363 1.355 . S
C364 C366 1.419 . S
C365 C360 1.425 . S
C365 C362 1.409 . S
C365 C363 1.415 . S
C366 H356 0.930 . S
C366 C364 1.419 . S
C366 C367 1.362 . S
C367 H357 0.930 . S
C367 C360 1.409 . S
C367 C366 1.362 . S
H368 C374 0.930 1_554 S
H369 C377 0.930 . S
H370 C378 0.930 . S
H371 C379 0.930 . S
H372 C382 0.930 . S
H373 C383 0.930 1_554 S
C374 H368 0.930 1_556 S
C374 C375 1.355 . S
C374 C376 1.415 . S
C375 C374 1.355 . S
C375 C377 1.419 . S
C376 C374 1.415 . S
C376 C381 1.425 . S
C376 C383 1.409 1_565 S
C377 H369 0.930 . S
C377 C375 1.419 . S
C377 C378 1.362 . S
C378 H370 0.930 . S
C378 C377 1.362 . S
C378 C381 1.409 . S
C379 H371 0.930 . S
C379 C380 1.355 . S
C379 C381 1.415 1_545 S
C380 C379 1.355 . S
C380 C382 1.419 . S
C381 C376 1.425 . S
C381 C378 1.409 . S
C381 C379 1.415 1_565 S
C382 H372 0.930 . S
C382 C380 1.419 . S
C382 C383 1.362 . S
C383 H373 0.930 1_556 S
C383 C376 1.409 1_545 S
C383 C382 1.362 . S
H384 C390 0.930 . S
H385 C393 0.930 . S
H386 C394 0.930 . S
H387 C395 0.930 . S
H388 C398 0.930 . S
H389 C399 0.930 . S
C390 H384 0.930 . S
C390 C391 1.355 . S
C390 C392 1.415 . S
C391 C390 1.355 . S
C391 C393 1.419 . S
C392 C390 1.415 . S
C392 C397 1.425 1_545 S
C392 C399 1.409 . S
C393 H385 0.930 . S
C393 C391 1.419 . S
C393 C394 1.362 1_545 S
C394 H386 0.930 . S
C394 C393 1.362 1_565 S
C394 C397 1.409 . S
C395 H387 0.930 . S
C395 C396 1.355 . S
C395 C397 1.415 . S
C396 C395 1.355 . S
C396 C398 1.419 1_565 S
C397 C392 1.425 1_565 S
C397 C394 1.409 . S
C397 C395 1.415 . S
C398 H388 0.930 . S
C398 C396 1.419 1_545 S
C398 C399 1.362 . S
C399 H389 0.930 . S
C399 C392 1.409 . S
C399 C398 1.362 . S
H400 C406 0.930 . S
H401 C409 0.930 . S
H402 C410 0.930 . S
H403 C411 0.930 . S
H404 C414 0.930 . S
H405 C415 0.930 . S
C406 H400 0.930 . S
C406 C407 1.355 . S
C406 C408 1.415 . S
C407 C406 1.355 . S
C407 C409 1.419 . S
C408 C406 1.415 . S
C408 C413 1.425 1_565 S
C408 C415 1.409 . S
C409 H401 0.930 . S
C409 C407 1.419 . S
C409 C410 1.362 1_565 S
C410 H402 0.930 . S
C410 C409 1.362 1_545 S
C410 C413 1.409 . S
C411 H403 0.930 . S
C411 C412 1.355 . S
C411 C413 1.415 . S
C412 C411 1.355 . S
C412 C414 1.419 . S
C413 C408 1.425 1_545 S
C413 C410 1.409 . S
C413 C411 1.415 . S
C414 H404 0.930 . S
C414 C412 1.419 . S
C414 C415 1.362 1_545 S
C415 H405 0.930 . S
C415 C408 1.409 . S
C415 C414 1.362 1_565 S
H416 C422 0.930 . S
H417 C425 0.930 . S
H418 C426 0.930 . S
H419 C427 0.930 . S
H420 C430 0.930 . S
H421 C431 0.930 . S
C422 H416 0.930 . S
C422 C423 1.355 . S
C422 C424 1.415 1_545 S
C423 C422 1.355 . S
C423 C425 1.419 . S
C424 C422 1.415 1_565 S
C424 C429 1.425 1_565 S
C424 C431 1.409 . S
C425 H417 0.930 . S
C425 C423 1.419 . S
C425 C426 1.362 . S
C426 H418 0.930 . S
C426 C425 1.362 . S
C426 C429 1.409 . S
C427 H419 0.930 . S
C427 C428 1.355 . S
C427 C429 1.415 1_565 S
C428 C427 1.355 . S
C428 C430 1.419 . S
C429 C424 1.425 1_545 S
C429 C426 1.409 . S
C429 C427 1.415 1_545 S
C430 H420 0.930 . S
C430 C428 1.419 . S
C430 C431 1.362 . S
C431 H421 0.930 . S
C431 C424 1.409 . S
C431 C430 1.362 . S
H432 C438 0.930 . S
H433 C441 0.930 . S
H434 C442 0.930 . S
H435 C443 0.930 . S
H436 C446 0.930 . S
H437 C447 0.930 . S
C438 H432 0.930 . S
C438 C439 1.355 . S
C438 C440 1.415 . S
C439 C438 1.355 . S
C439 C441 1.419 . S
C440 C438 1.415 . S
C440 C445 1.425 . S
C440 C447 1.409 . S
C441 H433 0.930 . S
C441 C439 1.419 . S
C441 C442 1.362 . S
C442 H434 0.930 . S
C442 C441 1.362 . S
C442 C445 1.409 . S
C443 H435 0.930 . S
C443 C444 1.355 . S
C443 C445 1.415 . S
C444 C443 1.355 . S
C444 C446 1.419 . S
C445 C440 1.425 . S
C445 C442 1.409 . S
C445 C443 1.415 . S
C446 H436 0.930 . S
C446 C444 1.419 . S
C446 C447 1.362 . S
C447 H437 0.930 . S
C447 C440 1.409 . S
C447 C446 1.362 . S
H448 C454 0.930 . S
H449 C457 0.930 . S
H450 C458 0.930 . S
H451 C459 0.930 . S
H452 C462 0.930 . S
H453 C463 0.930 . S
C454 H448 0.930 . S
C454 C455 1.355 . S
C454 C456 1.415 . S
C455 C454 1.355 . S
C455 C457 1.419 . S
C456 C454 1.415 . S
C456 C461 1.425 . S
C456 C463 1.409 . S
C457 H449 0.930 . S
C457 C455 1.419 . S
C457 C458 1.362 . S
C458 H450 0.930 . S
C458 C457 1.362 . S
C458 C461 1.409 . S
C459 H451 0.930 . S
C459 C460 1.355 . S
C459 C461 1.415 . S
C460 C459 1.355 . S
C460 C462 1.419 . S
C461 C456 1.425 . S
C461 C458 1.409 . S
C461 C459 1.415 . S
C462 H452 0.930 . S
C462 C460 1.419 . S
C462 C463 1.362 . S
C463 H453 0.930 . S
C463 C456 1.409 . S
C463 C462 1.362 . S
H464 C470 0.930 . S
H465 C473 0.930 . S
H466 C474 0.930 . S
H467 C475 0.930 . S
H468 C478 0.930 . S
H469 C479 0.930 . S
C470 H464 0.930 . S
C470 C471 1.355 . S
C470 C472 1.415 . S
C471 C470 1.355 . S
C471 C473 1.419 . S
C472 C470 1.415 . S
C472 C477 1.425 . S
C472 C479 1.409 . S
C473 H465 0.930 . S
C473 C471 1.419 . S
C473 C474 1.362 . S
C474 H466 0.930 . S
C474 C473 1.362 . S
C474 C477 1.409 . S
C475 H467 0.930 . S
C475 C476 1.355 . S
C475 C477 1.415 . S
C476 C475 1.355 . S
C476 C478 1.419 . S
C477 C472 1.425 . S
C477 C474 1.409 . S
C477 C475 1.415 . S
C478 H468 0.930 . S
C478 C476 1.419 . S
C478 C479 1.362 . S
C479 H469 0.930 . S
C479 C472 1.409 . S
C479 C478 1.362 . S
H480 C486 0.930 . S
H481 C489 0.930 . S
H482 C490 0.930 . S
H483 C491 0.930 . S
H484 C494 0.930 . S
H485 C495 0.930 . S
C486 H480 0.930 . S
C486 C487 1.355 . S
C486 C488 1.415 . S
C487 C486 1.355 . S
C487 C489 1.419 . S
C488 C486 1.415 . S
C488 C493 1.425 . S
C488 C495 1.409 . S
C489 H481 0.930 . S
C489 C487 1.419 . S
C489 C490 1.362 . S
C490 H482 0.930 . S
C490 C489 1.362 . S
C490 C493 1.409 . S
C491 H483 0.930 . S
C491 C492 1.355 . S
C491 C493 1.415 . S
C492 C491 1.355 . S
C492 C494 1.419 . S
C493 C488 1.425 . S
C493 C490 1.409 . S
C493 C491 1.415 . S
C494 H484 0.930 . S
C494 C492 1.419 . S
C494 C495 1.362 . S
C495 H485 0.930 . S
C495 C488 1.409 . S
C495 C494 1.362 . S
H496 C502 0.930 . S
H497 C505 0.930 . S
H498 C506 0.930 . S
H499 C507 0.930 . S
H500 C510 0.930 . S
H501 C511 0.930 . S
C502 H496 0.930 . S
C502 C503 1.355 . S
C502 C504 1.415 . S
C503 C502 1.355 . S
C503 C505 1.419 . S
C504 C502 1.415 . S
C504 C509 1.425 . S
C504 C511 1.409 . S
C505 H497 0.930 . S
C505 C503 1.419 . S
C505 C506 1.362 . S
C506 H498 0.930 . S
C506 C505 1.362 . S
C506 C509 1.409 . S
C507 H499 0.930 . S
C507 C508 1.355 . S
C507 C509 1.415 . S
C508 C507 1.355 . S
C508 C510 1.419 . S
C509 C504 1.425 . S
C509 C506 1.409 . S
C509 C507 1.415 . S
C510 H500 0.930 . S
C510 C508 1.419 . S
C510 C511 1.362 . S
C511 H501 0.930 . S
C511 C504 1.409 . S
C511 C510 1.362 . S
H512 C518 0.930 . S
H513 C521 0.930 . S
H514 C522 0.930 . S
H515 C523 0.930 . S
H516 C526 0.930 . S
H517 C527 0.930 . S
C518 H512 0.930 . S
C518 C519 1.355 . S
C518 C520 1.415 . S
C519 C518 1.355 . S
C519 C521 1.419 . S
C520 C518 1.415 . S
C520 C525 1.425 . S
C520 C527 1.409 . S
C521 H513 0.930 . S
C521 C519 1.419 . S
C521 C522 1.362 . S
C522 H514 0.930 . S
C522 C521 1.362 . S
C522 C525 1.409 . S
C523 H515 0.930 . S
C523 C524 1.355 . S
C523 C525 1.415 . S
C524 C523 1.355 . S
C524 C526 1.419 . S
C525 C520 1.425 . S
C525 C522 1.409 . S
C525 C523 1.415 . S
C526 H516 0.930 . S
C526 C524 1.419 . S
C526 C527 1.362 . S
C527 H517 0.930 . S
C527 C520 1.409 . S
C527 C526 1.362 . S
H528 C534 0.930 . S
H529 C537 0.930 . S
H530 C538 0.930 . S
H531 C539 0.930 . S
H532 C542 0.930 . S
H533 C543 0.930 . S
C534 H528 0.930 . S
C534 C535 1.355 . S
C534 C536 1.415 . S
C535 C534 1.355 . S
C535 C537 1.419 . S
C536 C534 1.415 . S
C536 C541 1.425 . S
C536 C543 1.409 . S
C537 H529 0.930 . S
C537 C535 1.419 . S
C537 C538 1.362 . S
C538 H530 0.930 . S
C538 C537 1.362 . S
C538 C541 1.409 . S
C539 H531 0.930 . S
C539 C540 1.355 . S
C539 C541 1.415 . S
C540 C539 1.355 . S
C540 C542 1.419 . S
C541 C536 1.425 . S
C541 C538 1.409 . S
C541 C539 1.415 . S
C542 H532 0.930 . S
C542 C540 1.419 . S
C542 C543 1.362 . S
C543 H533 0.930 . S
C543 C536 1.409 . S
C543 C542 1.362 . S
H544 C550 0.930 . S
H545 C553 0.930 . S
H546 C554 0.930 . S
H547 C555 0.930 . S
H548 C558 0.930 . S
H549 C559 0.930 . S
C550 H544 0.930 . S
C550 C551 1.355 . S
C550 C552 1.415 . S
C551 C550 1.355 . S
C551 C553 1.419 . S
C552 C550 1.415 . S
C552 C557 1.425 . S
C552 C559 1.409 . S
C553 H545 0.930 . S
C553 C551 1.419 . S
C553 C554 1.362 . S
C554 H546 0.930 . S
C554 C553 1.362 . S
C554 C557 1.409 . S
C555 H547 0.930 . S
C555 C556 1.355 . S
C555 C557 1.415 . S
C556 C555 1.355 . S
C556 C558 1.419 . S
C557 C552 1.425 . S
C557 C554 1.409 . S
C557 C555 1.415 . S
C558 H548 0.930 . S
C558 C556 1.419 . S
C558 C559 1.362 . S
C559 H549 0.930 . S
C559 C552 1.409 . S
C559 C558 1.362 . S
C183 N4 1.519 . S
C188 C131 1.518 . S
C204 C95 1.545 . S
C199 N15 1.541 . S
C220 C118 1.590 . S
C215 N26 1.573 . S
C236 C106 1.488 . S
C231 N37 1.477 . S
C252 C175 1.504 . S
C247 N48 1.519 . S
C268 C139 1.507 . S
C263 N59 1.526 . S
C279 N70 1.599 . S
C284 C162 1.608 . S
C300 C150 1.468 . S
C295 N81 1.475 . S
C311 C9 1.477 . S
C316 C172 1.534 . S
C332 C142 1.504 . S
C327 C20 1.493 . S
C343 C31 1.591 . S
C348 C161 1.587 . S
C359 C39 1.432 . S
C364 C147 1.466 . S
C380 C128 1.527 . S
C375 C53 1.521 . S
C391 C64 1.483 . S
C396 C98 1.505 . S
C412 C117 1.586 . S
C407 C75 1.597 . S
C428 C103 1.468 . S
C423 C83 1.424 . S
C444 C153 1.530 . S
C439 C6 1.490 . S
C460 C169 1.496 . S
C455 C17 1.504 . S
C471 C28 1.500 . S
C476 C140 1.491 . S
C492 C164 1.496 . S
C487 C42 1.427 . S
C508 C109 1.527 . S
C503 C50 1.491 . S
C519 C61 1.498 . S
C524 C125 1.499 . S
C535 C72 1.480 . S
C540 C96 1.502 . S
C551 C86 1.478 . S
C556 C120 1.487 . S
