# Generated by pormake.
# Topology nom, (4,4)-cn, num edge types: 1
# Building blocks:
#     Node 0, Type 0, BuildingBlock: AZAVOO_clean_linker_0, # of connection points: 4
#     Node 1, Type 0, BuildingBlock: AZAVOO_clean_linker_0, # of connection points: 4
#     Node 2, Type 0, BuildingBlock: AZAVOO_clean_linker_0, # of connection points: 4
#     Node 3, Type 0, BuildingBlock: AZAVOO_clean_linker_0, # of connection points: 4
#     Node 4, Type 0, BuildingBlock: AZAVOO_clean_linker_0, # of connection points: 4
#     Node 5, Type 0, BuildingBlock: AZAVOO_clean_linker_0, # of connection points: 4
#     Node 6, Type 1, BuildingBlock: QUQFOY_clean_sbu_1, # of connection points: 4
#     Node 7, Type 1, BuildingBlock: QUQFOY_clean_sbu_1, # of connection points: 4
#     Node 8, Type 1, BuildingBlock: QUQFOY_clean_sbu_1, # of connection points: 4
#     Node 9, Type 1, BuildingBlock: QUQFOY_clean_sbu_1, # of connection points: 4
#     Node 10, Type 1, BuildingBlock: QUQFOY_clean_sbu_1, # of connection points: 4
#     Node 11, Type 1, BuildingBlock: QUQFOY_clean_sbu_1, # of connection points: 4
#     Edge 12, Type (0, 1), BuildingBlock: OJICUG_clean_linker_0, # of connection points: 2
#     Edge 13, Type (0, 1), BuildingBlock: OJICUG_clean_linker_0, # of connection points: 2
#     Edge 14, Type (0, 1), BuildingBlock: OJICUG_clean_linker_0, # of connection points: 2
#     Edge 15, Type (0, 1), BuildingBlock: OJICUG_clean_linker_0, # of connection points: 2
#     Edge 16, Type (0, 1), BuildingBlock: OJICUG_clean_linker_0, # of connection points: 2
#     Edge 17, Type (0, 1), BuildingBlock: OJICUG_clean_linker_0, # of connection points: 2
#     Edge 18, Type (0, 1), BuildingBlock: OJICUG_clean_linker_0, # of connection points: 2
#     Edge 19, Type (0, 1), BuildingBlock: OJICUG_clean_linker_0, # of connection points: 2
#     Edge 20, Type (0, 1), BuildingBlock: OJICUG_clean_linker_0, # of connection points: 2
#     Edge 21, Type (0, 1), BuildingBlock: OJICUG_clean_linker_0, # of connection points: 2
#     Edge 22, Type (0, 1), BuildingBlock: OJICUG_clean_linker_0, # of connection points: 2
#     Edge 23, Type (0, 1), BuildingBlock: OJICUG_clean_linker_0, # of connection points: 2
#     Edge 24, Type (0, 1), BuildingBlock: OJICUG_clean_linker_0, # of connection points: 2
#     Edge 25, Type (0, 1), BuildingBlock: OJICUG_clean_linker_0, # of connection points: 2
#     Edge 26, Type (0, 1), BuildingBlock: OJICUG_clean_linker_0, # of connection points: 2
#     Edge 27, Type (0, 1), BuildingBlock: OJICUG_clean_linker_0, # of connection points: 2
#     Edge 28, Type (0, 1), BuildingBlock: OJICUG_clean_linker_0, # of connection points: 2
#     Edge 29, Type (0, 1), BuildingBlock: OJICUG_clean_linker_0, # of connection points: 2
#     Edge 30, Type (0, 1), BuildingBlock: OJICUG_clean_linker_0, # of connection points: 2
#     Edge 31, Type (0, 1), BuildingBlock: OJICUG_clean_linker_0, # of connection points: 2
#     Edge 32, Type (0, 1), BuildingBlock: OJICUG_clean_linker_0, # of connection points: 2
#     Edge 33, Type (0, 1), BuildingBlock: OJICUG_clean_linker_0, # of connection points: 2
#     Edge 34, Type (0, 1), BuildingBlock: OJICUG_clean_linker_0, # of connection points: 2
#     Edge 35, Type (0, 1), BuildingBlock: OJICUG_clean_linker_0, # of connection points: 2
# Relax obj value: 0.191
# Max RMSD: 0.252
# Mean RMSD: 0.188
data_MOF--net-nom--node1-QUQFOY_clean_sbu_1--node2-AZAVOO_clean_linker_0--edge1-OJICUG_clean_linker_0
_symmetry_space_group_name_H-M    P1
_symmetry_Int_Tables_number       1
_symmetry_cell_setting            triclinic
loop_
_symmetry_equiv_pos_as_xyz
'x, y, z'
_cell_length_a     38.87962
_cell_length_b     40.365749
_cell_length_c     44.074635
_cell_angle_alpha  90.156929
_cell_angle_beta   89.709067
_cell_angle_gamma 120.96366
loop_
_atom_site_label
_atom_site_type_symbol
_atom_site_fract_x
_atom_site_fract_y
_atom_site_fract_z
_atom_type_partial_charge
H0 H 0.07412 0.46781 0.10365 0.0
H1 H 0.28228 0.67308 0.40682 0.0
H2 H 0.99413 0.42826 0.25941 0.0
H3 H 0.94219 0.39995 0.22069 0.0
H4 H 0.92399 0.49661 0.22932 0.0
H5 H 0.97708 0.5253 0.26758 0.0
H6 H 0.08549 0.46988 0.23605 0.0
H7 H 0.0851 0.46172 0.18096 0.0
H8 H 0.04299 0.54139 0.16963 0.0
H9 H 0.04406 0.54966 0.22469 0.0
H10 H 0.1604 0.51794 0.27753 0.0
H11 H 0.22853 0.56171 0.25833 0.0
H12 H 0.19426 0.645 0.23535 0.0
H13 H 0.12675 0.60076 0.25342 0.0
H14 H 0.1416 0.50913 0.34251 0.0
H15 H 0.20154 0.54362 0.37416 0.0
H16 H 0.20498 0.6507 0.35681 0.0
H17 H 0.14503 0.61578 0.32526 0.0
H18 H 0.06447 0.47648 0.37313 0.0
H19 H 0.09987 0.49754 0.42099 0.0
H20 H 0.10471 0.60668 0.41222 0.0
H21 H 0.07348 0.58673 0.36283 0.0
H22 H 0.9566 0.43646 0.32303 0.0
H23 H 0.89219 0.42624 0.34096 0.0
H24 H 0.94953 0.54811 0.36201 0.0
H25 H 0.01146 0.5584 0.34036 0.0
O26 O 0.07435 0.47168 0.12535 0.0
O27 O 0.05252 0.51267 0.12079 0.0
O28 O 0.25732 0.60344 0.40086 0.0
O29 O 0.2595 0.65898 0.39352 0.0
C30 C 0.02712 0.49972 0.28365 0.0
C31 C 0.06394 0.51424 0.2678 0.0
C32 C 0.10045 0.53429 0.28354 0.0
C33 C 0.10037 0.53843 0.31521 0.0
C34 C 0.06376 0.52455 0.33112 0.0
C35 C 0.02692 0.50626 0.31527 0.0
C36 C 0.98934 0.4788 0.2662 0.0
C37 C 0.9781 0.44274 0.25354 0.0
C38 C 0.94837 0.42661 0.23143 0.0
C39 C 0.92925 0.44624 0.22168 0.0
C40 C 0.93865 0.48111 0.23602 0.0
C41 C 0.96854 0.4973 0.25813 0.0
C42 C 0.06447 0.51006 0.23432 0.0
C43 C 0.07633 0.48562 0.22159 0.0
C44 C 0.076 0.48097 0.19014 0.0
C45 C 0.06385 0.50078 0.17089 0.0
C46 C 0.05237 0.5256 0.18379 0.0
C47 C 0.05285 0.5303 0.21523 0.0
C48 C 0.13882 0.5563 0.26676 0.0
C49 C 0.16757 0.54521 0.26744 0.0
C50 C 0.20649 0.57039 0.25672 0.0
C51 C 0.21715 0.60708 0.24539 0.0
C52 C 0.18728 0.61684 0.24326 0.0
C53 C 0.14854 0.59163 0.25374 0.0
C54 C 0.13902 0.55999 0.33176 0.0
C55 C 0.15567 0.5401 0.34532 0.0
C56 C 0.18978 0.55985 0.36346 0.0
C57 C 0.20789 0.5999 0.36819 0.0
C58 C 0.19171 0.61986 0.35375 0.0
C59 C 0.15761 0.60006 0.33562 0.0
C60 C 0.06587 0.52977 0.3645 0.0
C61 C 0.0715 0.50422 0.38226 0.0
C62 C 0.0922 0.51662 0.4097 0.0
C63 C 0.10656 0.5545 0.42028 0.0
C64 C 0.0957 0.57792 0.40435 0.0
C65 C 0.07626 0.56597 0.37646 0.0
C66 C 0.98918 0.49819 0.3307 0.0
C67 C 0.9551 0.46085 0.33163 0.0
C68 C 0.91829 0.45504 0.34219 0.0
C69 C 0.91505 0.48639 0.35269 0.0
C70 C 0.95005 0.52327 0.35334 0.0
C71 C 0.98619 0.52917 0.34178 0.0
C72 C 0.06319 0.49552 0.1375 0.0
C73 C 0.2431 0.62074 0.38845 0.0
H74 H 0.52064 0.0402 0.28823 0.0
H75 H 0.52927 0.25537 0.59629 0.0
H76 H 0.52275 0.98943 0.46751 0.0
H77 H 0.51894 0.94018 0.43334 0.0
H78 H 0.40406 0.91819 0.40118 0.0
H79 H 0.40693 0.96554 0.4374 0.0
H80 H 0.54017 0.04605 0.42 0.0
H81 H 0.5423 0.04323 0.3646 0.0
H82 H 0.43526 0.05042 0.35953 0.0
H83 H 0.4332 0.05267 0.41499 0.0
H84 H 0.56591 0.12527 0.44059 0.0
H85 H 0.59234 0.18663 0.41358 0.0
H86 H 0.48424 0.18735 0.43583 0.0
H87 H 0.45748 0.1252 0.46143 0.0
H88 H 0.56891 0.13605 0.51934 0.0
H89 H 0.59234 0.19431 0.55018 0.0
H90 H 0.47157 0.17351 0.55301 0.0
H91 H 0.44861 0.11529 0.52224 0.0
H92 H 0.54112 0.05421 0.54902 0.0
H93 H 0.56544 0.08438 0.59821 0.0
H94 H 0.45575 0.08528 0.6125 0.0
H95 H 0.43224 0.05591 0.56244 0.0
H96 H 0.49367 0.96473 0.51618 0.0
H97 H 0.45345 0.89884 0.53504 0.0
H98 H 0.35553 0.91816 0.55292 0.0
H99 H 0.39461 0.98235 0.53074 0.0
O100 O 0.51933 0.04151 0.3101 0.0
O101 O 0.46463 0.04589 0.30872 0.0
O102 O 0.58264 0.24258 0.58116 0.0
O103 O 0.52103 0.23304 0.58347 0.0
C104 C 0.47131 0.01523 0.47177 0.0
C105 C 0.48426 0.04966 0.45508 0.0
C106 C 0.49448 0.08428 0.47029 0.0
C107 C 0.49258 0.08461 0.50221 0.0
C108 C 0.47932 0.05013 0.5189 0.0
C109 C 0.46738 0.01507 0.50373 0.0
C110 C 0.46471 0.98038 0.45542 0.0
C111 C 0.4959 0.97262 0.45412 0.0
C112 C 0.494 0.94499 0.43409 0.0
C113 C 0.46148 0.92554 0.41411 0.0
C114 C 0.42932 0.93215 0.41647 0.0
C115 C 0.43088 0.95928 0.43709 0.0
C116 C 0.48638 0.04928 0.42144 0.0
C117 C 0.51715 0.04686 0.40686 0.0
C118 C 0.51833 0.04535 0.37523 0.0
C119 C 0.48889 0.04651 0.35763 0.0
C120 C 0.45835 0.0494 0.37239 0.0
C121 C 0.45714 0.05077 0.40404 0.0
C122 C 0.50981 0.12084 0.453 0.0
C123 C 0.5478 0.13853 0.43924 0.0
C124 C 0.56298 0.17375 0.42405 0.0
C125 C 0.54053 0.19212 0.42254 0.0
C126 C 0.50217 0.17387 0.43607 0.0
C127 C 0.48694 0.13852 0.45102 0.0
C128 C 0.50716 0.12167 0.51853 0.0
C129 C 0.54771 0.14444 0.52637 0.0
C130 C 0.56094 0.17756 0.54408 0.0
C131 C 0.53378 0.1885 0.55415 0.0
C132 C 0.49326 0.16591 0.54568 0.0
C133 C 0.48008 0.13277 0.528 0.0
C134 C 0.48507 0.05309 0.55216 0.0
C135 C 0.52155 0.05926 0.56337 0.0
C136 C 0.53549 0.07678 0.59154 0.0
C137 C 0.51293 0.08809 0.60911 0.0
C138 C 0.4743 0.07781 0.5992 0.0
C139 C 0.46045 0.0604 0.57087 0.0
C140 C 0.44654 0.97787 0.52072 0.0
C141 C 0.46327 0.95444 0.52362 0.0
C142 C 0.44031 0.91683 0.5351 0.0
C143 C 0.40048 0.90227 0.54494 0.0
C144 C 0.38531 0.92737 0.54447 0.0
C145 C 0.40789 0.96448 0.53219 0.0
C146 C 0.49008 0.04465 0.32402 0.0
C147 C 0.54745 0.22304 0.57369 0.0
H148 H 0.61318 0.58761 0.84432 0.0
H149 H 0.64781 0.41152 0.53938 0.0
H150 H 0.59504 0.64071 0.68893 0.0
H151 H 0.56747 0.66272 0.72863 0.0
H152 H 0.44885 0.56576 0.71025 0.0
H153 H 0.47702 0.54347 0.67091 0.0
H154 H 0.63941 0.59607 0.71301 0.0
H155 H 0.64062 0.59966 0.76849 0.0
H156 H 0.51238 0.52001 0.77089 0.0
H157 H 0.51175 0.5162 0.71548 0.0
H158 H 0.66473 0.54441 0.67271 0.0
H159 H 0.67749 0.49703 0.69708 0.0
H160 H 0.54966 0.4205 0.70956 0.0
H161 H 0.5377 0.46807 0.6863 0.0
H162 H 0.66505 0.56983 0.60253 0.0
H163 H 0.69348 0.53946 0.57127 0.0
H164 H 0.58763 0.4277 0.58785 0.0
H165 H 0.55948 0.45854 0.61886 0.0
H166 H 0.62266 0.60233 0.5709 0.0
H167 H 0.63729 0.58444 0.52142 0.0
H168 H 0.53423 0.46941 0.53197 0.0
H169 H 0.51998 0.48753 0.5809 0.0
H170 H 0.55836 0.63864 0.62313 0.0
H171 H 0.50542 0.65013 0.60669 0.0
H172 H 0.43427 0.53074 0.57835 0.0
H173 H 0.48497 0.51881 0.59794 0.0
O174 O 0.6121 0.58545 0.82243 0.0
O175 O 0.54611 0.54471 0.82237 0.0
O176 O 0.69166 0.48225 0.54465 0.0
O177 O 0.63782 0.42412 0.55236 0.0
C178 C 0.55631 0.57184 0.66005 0.0
C179 C 0.57481 0.55516 0.67654 0.0
C180 C 0.59109 0.53577 0.66112 0.0
C181 C 0.59157 0.53545 0.62924 0.0
C182 C 0.57191 0.55095 0.61269 0.0
C183 C 0.55303 0.56819 0.62807 0.0
C184 C 0.53803 0.59046 0.67728 0.0
C185 C 0.56292 0.62502 0.69278 0.0
C186 C 0.54708 0.63755 0.71541 0.0
C187 C 0.50607 0.61563 0.7228 0.0
C188 C 0.48066 0.58286 0.70529 0.0
C189 C 0.49656 0.57034 0.68264 0.0
C190 C 0.57546 0.55625 0.71026 0.0
C191 C 0.61167 0.57932 0.7256 0.0
C192 C 0.61224 0.58137 0.75727 0.0
C193 C 0.57656 0.56028 0.77413 0.0
C194 C 0.54037 0.53675 0.75861 0.0
C195 C 0.5399 0.53462 0.72697 0.0
C196 C 0.60034 0.5097 0.67808 0.0
C197 C 0.63973 0.51762 0.68127 0.0
C198 C 0.64687 0.49045 0.69498 0.0
C199 C 0.61463 0.455 0.7055 0.0
C200 C 0.57534 0.44777 0.70252 0.0
C201 C 0.56834 0.47486 0.68907 0.0
C202 C 0.61029 0.51636 0.61291 0.0
C203 C 0.64829 0.53876 0.59963 0.0
C204 C 0.66437 0.52134 0.58172 0.0
C205 C 0.64272 0.48115 0.57693 0.0
C206 C 0.60504 0.45871 0.591 0.0
C207 C 0.58899 0.47619 0.60886 0.0
C208 C 0.57002 0.54637 0.57934 0.0
C209 C 0.60201 0.574 0.56167 0.0
C210 C 0.61077 0.56348 0.53373 0.0
C211 C 0.58738 0.52529 0.52313 0.0
C212 C 0.5527 0.49911 0.53935 0.0
C213 C 0.54411 0.50959 0.56723 0.0
C214 C 0.52583 0.57784 0.61172 0.0
C215 C 0.53148 0.61512 0.61303 0.0
C216 C 0.50116 0.62167 0.60341 0.0
C217 C 0.46491 0.5912 0.59165 0.0
C218 C 0.46101 0.55473 0.58814 0.0
C219 C 0.49066 0.54799 0.5986 0.0
C220 C 0.57717 0.56289 0.80774 0.0
C221 C 0.65903 0.46269 0.55704 0.0
H222 H 0.97702 0.38954 0.02235 0.0
H223 H 0.29532 0.58134 0.75253 0.0
H224 H 0.95908 0.45212 0.84949 0.0
H225 H 0.90471 0.42737 0.8862 0.0
H226 H 0.91053 0.32373 0.89618 0.0
H227 H 0.96622 0.34974 0.8598 0.0
H228 H 0.01379 0.46491 0.90372 0.0
H229 H 0.99624 0.44194 0.95602 0.0
H230 H 0.03533 0.36062 0.93975 0.0
H231 H 0.05207 0.38343 0.88728 0.0
H232 H 0.10625 0.51766 0.89026 0.0
H233 H 0.17031 0.54784 0.91728 0.0
H234 H 0.19575 0.46486 0.87688 0.0
H235 H 0.13124 0.43428 0.85111 0.0
H236 H 0.12752 0.5513 0.82015 0.0
H237 H 0.19545 0.59615 0.80139 0.0
H238 H 0.20563 0.49923 0.77193 0.0
H239 H 0.13772 0.45481 0.79082 0.0
H240 H 0.05411 0.5235 0.77607 0.0
H241 H 0.08796 0.55913 0.72996 0.0
H242 H 0.11153 0.46869 0.70547 0.0
H243 H 0.07536 0.43254 0.7504 0.0
H244 H 0.97792 0.47015 0.78103 0.0
H245 H 0.91323 0.43779 0.75485 0.0
H246 H 0.90656 0.32818 0.76658 0.0
H247 H 0.9717 0.36105 0.79085 0.0
O248 O 0.98515 0.39886 0.00182 0.0
O249 O 0.008 0.35929 0.99296 0.0
O250 O 0.26176 0.61313 0.77583 0.0
O251 O 0.26849 0.5643 0.76026 0.0
C252 C 0.00787 0.42431 0.8394 0.0
C253 C 0.04079 0.43696 0.85923 0.0
C254 C 0.07997 0.46062 0.84817 0.0
C255 C 0.08643 0.47295 0.81771 0.0
C256 C 0.05359 0.46053 0.79784 0.0
C257 C 0.01424 0.4353 0.8085 0.0
C258 C 0.96682 0.40294 0.85234 0.0
C259 C 0.94746 0.42336 0.85861 0.0
C260 C 0.91631 0.40905 0.87975 0.0
C261 C 0.90372 0.37381 0.89474 0.0
C262 C 0.92018 0.35138 0.88565 0.0
C263 C 0.95158 0.3659 0.86457 0.0
C264 C 0.03402 0.4257 0.89175 0.0
C265 C 0.01875 0.44229 0.91157 0.0
C266 C 0.0087 0.42907 0.94141 0.0
C267 C 0.0142 0.39931 0.95203 0.0
C268 C 0.03062 0.38352 0.93227 0.0
C269 C 0.04041 0.39661 0.90237 0.0
C270 C 0.1146 0.47416 0.86862 0.0
C271 C 0.12528 0.50545 0.88808 0.0
C272 C 0.16189 0.52271 0.90329 0.0
C273 C 0.18833 0.50903 0.89897 0.0
C274 C 0.17599 0.47589 0.88106 0.0
C275 C 0.13932 0.45854 0.86607 0.0
C276 C 0.12785 0.49994 0.80675 0.0
C277 C 0.14457 0.5399 0.80968 0.0
C278 C 0.18331 0.5654 0.79893 0.0
C279 C 0.20596 0.55126 0.78511 0.0
C280 C 0.18904 0.51109 0.78241 0.0
C281 C 0.1503 0.48565 0.79318 0.0
C282 C 0.06179 0.47519 0.76631 0.0
C283 C 0.06488 0.51062 0.75987 0.0
C284 C 0.08514 0.53137 0.73384 0.0
C285 C 0.10333 0.51734 0.71408 0.0
C286 C 0.09763 0.48045 0.71971 0.0
C287 C 0.07672 0.45947 0.74542 0.0
C288 C 0.97956 0.41794 0.78764 0.0
C289 C 0.96306 0.43938 0.77683 0.0
C290 C 0.92578 0.42069 0.76228 0.0
C291 C 0.90424 0.3802 0.75874 0.0
C292 C 0.92223 0.35936 0.76825 0.0
C293 C 0.95953 0.37808 0.78237 0.0
C294 C 0.0024 0.38457 0.98348 0.0
C295 C 0.24705 0.57821 0.77351 0.0
H296 H 0.41274 0.01994 0.78758 0.0
H297 H 0.39017 0.76729 0.05129 0.0
H298 H 0.45689 0.08288 0.94101 0.0
H299 H 0.49628 0.13645 0.90621 0.0
H300 H 0.60395 0.1384 0.93369 0.0
H301 H 0.56392 0.08293 0.96623 0.0
H302 H 0.3951 0.99035 0.91828 0.0
H303 H 0.39041 0.99847 0.86373 0.0
H304 H 0.51783 0.04393 0.85446 0.0
H305 H 0.52195 0.03503 0.90886 0.0
H306 H 0.37148 0.90316 0.95311 0.0
H307 H 0.36107 0.84481 0.92692 0.0
H308 H 0.48651 0.9059 0.90139 0.0
H309 H 0.49633 0.96291 0.92725 0.0
H310 H 0.37791 0.92416 0.02731 0.0
H311 H 0.35032 0.85997 0.04988 0.0
H312 H 0.4491 0.85264 0.01213 0.0
H313 H 0.4766 0.91701 0.99009 0.0
H314 H 0.42865 0.9966 0.06501 0.0
H315 H 0.43317 0.97232 0.11502 0.0
H316 H 0.52733 0.95516 0.08093 0.0
H317 H 0.5227 0.97947 0.03152 0.0
H318 H 0.47717 0.09441 0.01963 0.0
H319 H 0.52773 0.15466 0.04419 0.0
H320 H 0.60831 0.11076 0.04798 0.0
H321 H 0.55821 0.05153 0.02374 0.0
O322 O 0.41525 0.01689 0.80909 0.0
O323 O 0.48094 0.04054 0.80563 0.0
O324 O 0.35028 0.79793 0.06161 0.0
O325 O 0.40028 0.79261 0.0425 0.0
C326 C 0.48287 0.04004 0.97008 0.0
C327 C 0.46134 0.0076 0.95083 0.0
C328 C 0.44441 0.96992 0.96269 0.0
C329 C 0.44622 0.96453 0.99413 0.0
C330 C 0.46776 0.9968 0.01333 0.0
C331 C 0.48638 0.03458 0.00137 0.0
C332 C 0.50744 0.0789 0.95615 0.0
C333 C 0.48914 0.09563 0.94009 0.0
C334 C 0.51181 0.12641 0.9203 0.0
C335 C 0.55327 0.14131 0.91672 0.0
C336 C 0.57199 0.12703 0.93533 0.0
C337 C 0.54921 0.09575 0.95449 0.0
C338 C 0.45893 0.01266 0.91762 0.0
C339 C 0.42194 0.00207 0.90441 0.0
C340 C 0.41937 0.00677 0.87326 0.0
C341 C 0.45379 0.02203 0.85475 0.0
C342 C 0.49078 0.03226 0.86806 0.0
C343 C 0.49326 0.0274 0.89918 0.0
C344 C 0.43458 0.93737 0.94181 0.0
C345 C 0.39623 0.90405 0.94096 0.0
C346 C 0.39044 0.87079 0.92619 0.0
C347 C 0.42292 0.87067 0.91197 0.0
C348 C 0.46054 0.90501 0.91138 0.0
C349 C 0.46629 0.93784 0.9262 0.0
C350 C 0.42894 0.92497 0.0068 0.0
C351 C 0.3934 0.90852 0.02385 0.0
C352 C 0.37777 0.87191 0.03673 0.0
C353 C 0.39747 0.85112 0.03274 0.0
C354 C 0.43312 0.86778 0.01558 0.0
C355 C 0.44879 0.90446 0.00284 0.0
C356 C 0.47559 0.99005 0.04487 0.0
C357 C 0.45102 0.98868 0.06876 0.0
C358 C 0.45342 0.97452 0.09711 0.0
C359 C 0.48053 0.96174 0.10182 0.0
C360 C 0.50659 0.96529 0.0782 0.0
C361 C 0.50399 0.97917 0.04995 0.0
C362 C 0.51366 0.06822 0.02051 0.0
C363 C 0.50539 0.09758 0.0266 0.0
C364 C 0.53436 0.13199 0.0404 0.0
C365 C 0.57198 0.13745 0.04826 0.0
C366 C 0.57936 0.10726 0.04306 0.0
C367 C 0.55058 0.07313 0.02928 0.0
C368 C 0.45098 0.02711 0.82169 0.0
C369 C 0.38113 0.81231 0.04652 0.0
H370 H 0.60738 0.61889 0.92929 0.0
H371 H 0.80983 0.55193 0.21595 0.0
H372 H 0.56747 0.61955 0.10695 0.0
H373 H 0.53019 0.63102 0.06871 0.0
H374 H 0.63918 0.73364 0.0397 0.0
H375 H 0.67603 0.72351 0.0801 0.0
H376 H 0.60047 0.5894 0.05966 0.0
H377 H 0.5924 0.59168 0.00481 0.0
H378 H 0.7128 0.69074 -0.00147 0.0
H379 H 0.7202 0.68836 0.05351 0.0
H380 H 0.6387 0.5425 0.10164 0.0
H381 H 0.66086 0.50105 0.08044 0.0
H382 H 0.77034 0.60218 0.04916 0.0
H383 H 0.74892 0.64342 0.07312 0.0
H384 H 0.64604 0.54442 0.16163 0.0
H385 H 0.67701 0.51335 0.18831 0.0
H386 H 0.79355 0.61628 0.17597 0.0
H387 H 0.76203 0.64721 0.14969 0.0
H388 H 0.59582 0.57764 0.18175 0.0
H389 H 0.59123 0.53911 0.22537 0.0
H390 H 0.71271 0.62544 0.25015 0.0
H391 H 0.71753 0.66267 0.20505 0.0
H392 H 0.56956 0.62741 0.15908 0.0
H393 H 0.54296 0.66296 0.18479 0.0
H394 H 0.66424 0.75647 0.20204 0.0
H395 H 0.69005 0.72202 0.17337 0.0
O396 O 0.61148 0.61808 0.95085 0.0
O397 O 0.67413 0.66794 0.94862 0.0
O398 O 0.73616 0.51141 0.21134 0.0
O399 O 0.79687 0.56333 0.20509 0.0
C400 C 0.6476 0.65632 0.1121 0.0
C401 C 0.66438 0.6391 0.09396 0.0
C402 C 0.68163 0.61977 0.10773 0.0
C403 C 0.68283 0.61807 0.13958 0.0
C404 C 0.66477 0.63396 0.15775 0.0
C405 C 0.64779 0.65374 0.14409 0.0
C406 C 0.62433 0.67108 0.0968 0.0
C407 C 0.58287 0.64605 0.09395 0.0
C408 C 0.56179 0.65212 0.07146 0.0
C409 C 0.58205 0.68261 0.05071 0.0
C410 C 0.62283 0.70991 0.0554 0.0
C411 C 0.64386 0.70424 0.07851 0.0
C412 C 0.66091 0.63868 0.06043 0.0
C413 C 0.62513 0.61136 0.04632 0.0
C414 C 0.62059 0.61281 0.01502 0.0
C415 C 0.65193 0.64145 -0.00272 0.0
C416 C 0.68807 0.66833 0.01152 0.0
C417 C 0.69247 0.66695 0.04286 0.0
C418 C 0.69254 0.59581 0.08933 0.0
C419 C 0.66731 0.5556 0.0899 0.0
C420 C 0.67994 0.53193 0.07738 0.0
C421 C 0.71777 0.54806 0.06328 0.0
C422 C 0.74155 0.58862 0.06057 0.0
C423 C 0.72922 0.61233 0.07387 0.0
C424 C 0.7018 0.59816 0.154 0.0
C425 C 0.67825 0.56018 0.1647 0.0
C426 C 0.69603 0.54249 0.17989 0.0
C427 C 0.73777 0.5624 0.18438 0.0
C428 C 0.76133 0.60018 0.17299 0.0
C429 C 0.74346 0.61788 0.1579 0.0
C430 C 0.65714 0.62264 0.19007 0.0
C431 C 0.62076 0.58916 0.19742 0.0
C432 C 0.61835 0.56692 0.2224 0.0
C433 C 0.65214 0.57835 0.24079 0.0
C434 C 0.68664 0.61493 0.23577 0.0
C435 C 0.68921 0.63683 0.21044 0.0
C436 C 0.63162 0.67285 0.16325 0.0
C437 C 0.59027 0.6559 0.16791 0.0
C438 C 0.57517 0.67608 0.18328 0.0
C439 C 0.60129 0.71317 0.19525 0.0
C440 C 0.64298 0.72871 0.1923 0.0
C441 C 0.65792 0.7089 0.1762 0.0
C442 C 0.6467 0.64339 0.96412 0.0
C443 C 0.75672 0.54403 0.20106 0.0
O444 O 0.61331 0.43768 0.40982 0.0
Cd445 Cd 0.62255 0.41233 0.37298 0.0
Cd446 Cd 0.69902 0.46691 0.38209 0.0
O447 O 0.67683 0.47716 0.42163 0.0
O448 O 0.57688 0.35797 0.37159 0.0
O449 O 0.63972 0.37394 0.38013 0.0
C450 C 0.60222 0.34746 0.37813 0.0
C451 C 0.76075 0.46984 0.38068 0.0
C452 C 0.63969 0.46335 0.42704 0.0
C453 C 0.65681 0.47266 0.32637 0.0
O454 O 0.68764 0.48773 0.34317 0.0
O455 O 0.62659 0.43982 0.33278 0.0
O456 O 0.75843 0.5003 0.38428 0.0
O457 O 0.72767 0.43686 0.37961 0.0
O458 O 0.23203 0.59331 0.60509 0.0
Cd459 Cd 0.26917 0.612 0.56797 0.0
Cd460 Cd 0.25418 0.67116 0.57253 0.0
O461 O 0.22356 0.64289 0.61201 0.0
O462 O 0.29234 0.57803 0.56875 0.0
O463 O 0.32984 0.64163 0.57111 0.0
C464 C 0.32739 0.60848 0.57127 0.0
C465 C 0.29751 0.73838 0.57098 0.0
C466 C 0.21655 0.60959 0.61972 0.0
C467 C 0.22157 0.61743 0.5181 0.0
O468 O 0.22473 0.64635 0.53224 0.0
O469 O 0.23849 0.59978 0.52786 0.0
O470 O 0.25911 0.7229 0.57207 0.0
O471 O 0.31172 0.71565 0.57206 0.0
O472 O 0.64745 0.21994 0.79104 0.0
Cd473 Cd 0.66664 0.23904 0.74761 0.0
Cd474 Cd 0.61267 0.26069 0.74923 0.0
O475 O 0.60613 0.24197 0.79351 0.0
O476 O 0.72116 0.24673 0.74254 0.0
O477 O 0.70901 0.29471 0.7419 0.0
C478 C 0.73453 0.28329 0.74066 0.0
C479 C 0.62008 0.32089 0.74094 0.0
C480 C 0.6224 0.22503 0.80581 0.0
C481 C 0.59843 0.19919 0.7042 0.0
O482 O 0.58517 0.21944 0.71563 0.0
O483 O 0.63147 0.20341 0.71316 0.0
O484 O 0.58615 0.29156 0.74905 0.0
O485 O 0.65024 0.31615 0.73737 0.0
O486 O 0.50341 0.70373 0.92646 0.0
Cd487 Cd 0.4701 0.70265 0.88952 0.0
Cd488 Cd 0.4263 0.62656 0.901 0.0
O489 O 0.4668 0.64106 0.93523 0.0
O490 O 0.4828 0.75622 0.88182 0.0
O491 O 0.42319 0.7093 0.89755 0.0
C492 C 0.44637 0.74487 0.88962 0.0
C493 C 0.35853 0.59538 0.91196 0.0
C494 C 0.49612 0.67426 0.94194 0.0
C495 C 0.46302 0.64845 0.83958 0.0
O496 O 0.4421 0.62085 0.85776 0.0
O497 O 0.47706 0.68321 0.84792 0.0
O498 O 0.37738 0.57679 0.91198 0.0
O499 O 0.37869 0.632 0.90645 0.0
O500 O 0.81548 0.33504 0.02808 0.0
Cd501 Cd 0.78411 0.33071 0.06728 0.0
Cd502 Cd 0.80409 0.40501 0.05317 0.0
O503 O 0.81959 0.38919 0.01335 0.0
O504 O 0.74851 0.27504 0.07599 0.0
O505 O 0.72591 0.31347 0.0629 0.0
C506 C 0.71861 0.2794 0.07006 0.0
C507 C 0.7779 0.44507 0.04818 0.0
C508 C 0.82423 0.36079 0.00807 0.0
C509 C 0.83508 0.39096 0.11202 0.0
O510 O 0.83643 0.41495 0.09276 0.0
O511 O 0.81429 0.35498 0.10682 0.0
O512 O 0.81554 0.45792 0.0444 0.0
O513 O 0.75451 0.4088 0.05411 0.0
O514 O 0.50536 0.87436 0.21619 0.0
Cd515 Cd 0.50647 0.84074 0.25072 0.0
Cd516 Cd 0.42643 0.80471 0.24873 0.0
O517 O 0.43951 0.84246 0.21325 0.0
O518 O 0.55672 0.83958 0.24611 0.0
O519 O 0.49582 0.78772 0.24161 0.0
C520 C 0.53432 0.80309 0.24051 0.0
C521 C 0.37195 0.74269 0.24106 0.0
C522 C 0.4735 0.86933 0.20402 0.0
C523 C 0.46649 0.84663 0.30645 0.0
O524 O 0.43383 0.82652 0.29211 0.0
O525 O 0.4998 0.85531 0.29421 0.0
O526 O 0.36752 0.77199 0.24398 0.0
O527 O 0.40762 0.74817 0.24277 0.0
C528 C 0.26917 0.66552 0.21703 0.0
C529 C 0.25974 0.63708 0.23924 0.0
H530 H 0.31247 0.72184 0.2006 0.0
C531 C 0.29052 0.64098 0.25843 0.0
H532 H 0.24667 0.66297 0.20125 0.0
C533 C 0.32875 0.67419 0.25717 0.0
C534 C 0.33641 0.70415 0.23716 0.0
H535 H 0.28443 0.61991 0.27598 0.0
H536 H 0.35117 0.67779 0.2735 0.0
C537 C 0.3069 0.69907 0.21641 0.0
C538 C 0.53273 0.24039 0.39187 0.0
C539 C 0.55752 0.23084 0.40809 0.0
H540 H 0.52747 0.28453 0.36945 0.0
C541 C 0.59824 0.2593 0.41176 0.0
H542 H 0.50147 0.21904 0.388 0.0
C543 C 0.61333 0.29675 0.40063 0.0
C544 C 0.58798 0.30668 0.3858 0.0
H545 H 0.61818 0.25319 0.42436 0.0
H546 H 0.64444 0.31831 0.40484 0.0
C547 C 0.54773 0.27789 0.38099 0.0
C548 C 0.39071 0.56541 0.59081 0.0
C549 C 0.43005 0.5962 0.58539 0.0
H550 H 0.32804 0.54512 0.59026 0.0
C551 C 0.43533 0.63157 0.57506 0.0
H552 H 0.38509 0.53811 0.59975 0.0
C553 C 0.40214 0.63591 0.57045 0.0
C554 C 0.36301 0.60479 0.57558 0.0
H555 H 0.46502 0.65589 0.57037 0.0
H556 H 0.40708 0.66345 0.56264 0.0
C557 C 0.35776 0.56952 0.58564 0.0
C558 C 0.84579 0.32359 0.73298 0.0
C559 C 0.86164 0.35899 0.74852 0.0
H560 H 0.79299 0.27171 0.71853 0.0
C561 C 0.83528 0.37145 0.75748 0.0
H562 H 0.86516 0.31349 0.72491 0.0
C563 C 0.79395 0.3479 0.75292 0.0
C564 C 0.7781 0.31116 0.73987 0.0
H565 H 0.84609 0.39825 0.76976 0.0
H566 H 0.77425 0.35739 0.76149 0.0
C567 C 0.80444 0.29971 0.7291 0.0
C568 C 0.44291 0.83496 0.87645 0.0
C569 C 0.41998 0.83435 0.90147 0.0
H570 H 0.46973 0.80706 0.85342 0.0
C571 C 0.40018 0.80076 0.9194 0.0
H572 H 0.45771 0.85998 0.86173 0.0
C573 C 0.40627 0.76998 0.91406 0.0
C574 C 0.43279 0.77274 0.89113 0.0
H575 H 0.38254 0.79939 0.93897 0.0
H576 H 0.39276 0.74546 0.92933 0.0
C577 C 0.44977 0.80471 0.87163 0.0
C578 C 0.70804 0.48415 0.04584 0.0
C579 C 0.73387 0.52285 0.05472 0.0
H580 H 0.70157 0.42886 0.03726 0.0
C581 C 0.77487 0.53612 0.05855 0.0
H582 H 0.6765 0.47303 0.04185 0.0
C583 C 0.78927 0.51109 0.0549 0.0
C584 C 0.76296 0.47198 0.04805 0.0
H585 H 0.79573 0.56533 0.06594 0.0
H586 H 0.82077 0.52199 0.05904 0.0
C587 C 0.72235 0.45882 0.04299 0.0
C588 C 0.33256 0.8412 0.54786 0.0
C589 C 0.37405 0.86066 0.55375 0.0
H590 H 0.27624 0.78805 0.5491 0.0
C591 C 0.38988 0.83936 0.56668 0.0
H592 H 0.31902 0.85582 0.53719 0.0
C593 C 0.36515 0.79973 0.57265 0.0
C594 C 0.32388 0.78062 0.56649 0.0
H595 H 0.42141 0.85315 0.57213 0.0
H596 H 0.37834 0.78405 0.58207 0.0
C597 C 0.30785 0.80197 0.55447 0.0
C598 C 0.59594 0.4 0.74119 0.0
C599 C 0.62098 0.42434 0.7179 0.0
H600 H 0.5759 0.34804 0.76647 0.0
C601 C 0.6492 0.41665 0.7047 0.0
H602 H 0.57467 0.40565 0.75249 0.0
C603 C 0.65057 0.384 0.71336 0.0
C604 C 0.62331 0.35827 0.73495 0.0
H605 H 0.66877 0.43461 0.68657 0.0
H606 H 0.67137 0.37778 0.70196 0.0
C607 C 0.59675 0.36709 0.74934 0.0
C608 C 0.25118 0.51376 0.91854 0.0
C609 C 0.23055 0.53206 0.90914 0.0
H610 H 0.30818 0.51964 0.92703 0.0
C611 C 0.25203 0.57238 0.90527 0.0
H612 H 0.23534 0.48284 0.92226 0.0
C613 C 0.29362 0.59348 0.90833 0.0
C614 C 0.31454 0.57462 0.91506 0.0
H615 H 0.23719 0.58738 0.89773 0.0
H616 H 0.3095 0.62416 0.9035 0.0
C617 C 0.29286 0.53485 0.92136 0.0
C618 C 0.63299 0.17725 0.08005 0.0
C619 C 0.60522 0.17549 0.05884 0.0
H620 H 0.69079 0.21172 0.1002 0.0
C621 C 0.61256 0.20987 0.0449 0.0
H622 H 0.62779 0.15148 0.09174 0.0
C623 C 0.64844 0.24464 0.05023 0.0
C624 C 0.67767 0.2454 0.06928 0.0
H625 H 0.59193 0.20951 0.0283 0.0
H626 H 0.65441 0.27022 0.03785 0.0
C627 C 0.66901 0.21176 0.08499 0.0
C628 C 0.54777 0.71824 0.22419 0.0
C629 C 0.5852 0.73631 0.20918 0.0
H630 H 0.50209 0.7251 0.24558 0.0
C631 C 0.60633 0.77684 0.20619 0.0
H632 H 0.53088 0.68729 0.22767 0.0
C633 C 0.59035 0.79848 0.21744 0.0
C634 C 0.55239 0.78018 0.23128 0.0
H635 H 0.63471 0.79201 0.19424 0.0
H636 H 0.60711 0.82951 0.21419 0.0
C637 C 0.53132 0.73989 0.23474 0.0
C638 C 0.86826 0.51202 0.35582 0.0
C639 C 0.87535 0.48162 0.36105 0.0
H640 H 0.82733 0.53227 0.35853 0.0
C641 C 0.84392 0.4469 0.37346 0.0
H642 H 0.89072 0.53873 0.34529 0.0
C643 C 0.80653 0.44277 0.3801 0.0
C644 C 0.80016 0.47357 0.37516 0.0
H645 H 0.8481 0.42291 0.37816 0.0
H646 H 0.78276 0.41565 0.38927 0.0
C647 C 0.83153 0.50824 0.3632 0.0
C648 C 0.13566 0.54689 0.46907 0.0
C649 C 0.13598 0.57079 0.44572 0.0
H650 H 0.16343 0.54294 0.50969 0.0
C651 C 0.16617 0.61029 0.44603 0.0
H652 H 0.11276 0.51658 0.47011 0.0
C653 C 0.1943 0.62554 0.46942 0.0
C654 C 0.1939 0.6014 0.49232 0.0
H655 H 0.16864 0.62958 0.42803 0.0
H656 H 0.21668 0.65609 0.4694 0.0
C657 C 0.16468 0.56194 0.49183 0.0
C658 C 0.55881 0.11074 0.65424 0.0
C659 C 0.53174 0.11432 0.6355 0.0
H660 H 0.60139 0.13497 0.6903 0.0
C661 C 0.52574 0.14549 0.64037 0.0
H662 H 0.56377 0.08684 0.65146 0.0
C663 C 0.54684 0.17274 0.66304 0.0
C664 C 0.57492 0.1698 0.68093 0.0
H665 H 0.50585 0.14975 0.62596 0.0
H666 H 0.54207 0.19675 0.66591 0.0
C667 C 0.5804 0.13833 0.6765 0.0
C668 C 0.46717 0.59383 0.77122 0.0
C669 C 0.49129 0.62403 0.75107 0.0
H670 H 0.43946 0.57784 0.81493 0.0
C671 C 0.50437 0.66224 0.75965 0.0
H672 H 0.45727 0.56413 0.76551 0.0
C673 C 0.49454 0.67019 0.78819 0.0
C674 C 0.47151 0.64005 0.80872 0.0
H675 H 0.52283 0.68604 0.74449 0.0
H676 H 0.50565 0.7 0.79434 0.0
C677 C 0.45734 0.60175 0.79971 0.0
C678 C 0.84851 0.37377 0.92456 0.0
C679 C 0.8781 0.36372 0.92235 0.0
H680 H 0.80872 0.38113 0.95367 0.0
C681 C 0.88659 0.34863 0.94815 0.0
H682 H 0.84054 0.38467 0.90507 0.0
C683 C 0.86744 0.34561 0.97583 0.0
C684 C 0.84021 0.35845 0.97833 0.0
H685 H 0.90969 0.34122 0.94753 0.0
H686 H 0.8757 0.33543 0.99563 0.0
C687 C 0.83019 0.37166 0.95235 0.0
C688 C 0.51446 0.94714 0.14354 0.0
C689 C 0.47902 0.94099 0.12993 0.0
H690 H 0.54062 0.92935 0.17764 0.0
C691 C 0.44188 0.91222 0.14166 0.0
H692 H 0.54351 0.9693 0.13506 0.0
C693 C 0.44019 0.88934 0.16594 0.0
C694 C 0.47561 0.89471 0.17905 0.0
H695 H 0.41407 0.90635 0.13133 0.0
H696 H 0.41103 0.86694 0.17404 0.0
C697 C 0.51279 0.92425 0.16789 0.0
C698 C 0.61791 0.52293 0.27781 0.0
C699 C 0.65293 0.55054 0.26252 0.0
H700 H 0.59148 0.47574 0.30926 0.0
C701 C 0.68849 0.54991 0.26679 0.0
H702 H 0.59006 0.52262 0.2754 0.0
C703 C 0.68937 0.52351 0.28667 0.0
C704 C 0.6545 0.49639 0.30208 0.0
H705 H 0.71577 0.56967 0.25468 0.0
H706 H 0.71745 0.5245 0.29019 0.0
C707 C 0.61861 0.49587 0.29711 0.0
C708 C 0.49979 0.91394 0.37376 0.0
C709 C 0.46322 0.90193 0.38885 0.0
H710 H 0.52958 0.90555 0.33631 0.0
C711 C 0.42825 0.86916 0.37806 0.0
H712 H 0.52725 0.93947 0.38095 0.0
C713 C 0.42953 0.85009 0.35194 0.0
C714 C 0.46587 0.86315 0.33626 0.0
H715 H 0.39971 0.85872 0.38939 0.0
H716 H 0.40185 0.82571 0.34361 0.0
C717 C 0.50114 0.89459 0.34794 0.0
C718 C 0.57377 0.48482 0.47655 0.0
C719 C 0.60133 0.51126 0.49751 0.0
H720 H 0.56415 0.4487 0.43824 0.0
C721 C 0.6418 0.52163 0.49538 0.0
H722 H 0.54246 0.4764 0.47752 0.0
C723 C 0.65438 0.50579 0.47277 0.0
C724 C 0.62668 0.4791 0.45196 0.0
H725 H 0.6636 0.54126 0.51166 0.0
H726 H 0.68571 0.51429 0.47172 0.0
C727 C 0.58626 0.46886 0.45411 0.0
C728 C 0.15505 0.58235 0.69236 0.0
C729 C 0.13048 0.5419 0.68905 0.0
H730 H 0.2014 0.63576 0.67286 0.0
C731 C 0.13387 0.52479 0.66226 0.0
H732 H 0.15395 0.59663 0.71284 0.0
C733 C 0.16204 0.54705 0.6401 0.0
C734 C 0.18688 0.58719 0.64364 0.0
H735 H 0.1149 0.49405 0.65835 0.0
H736 H 0.16409 0.53276 0.61991 0.0
C737 C 0.18261 0.60484 0.66965 0.0
C738 C 0.60274 0.16136 0.87403 0.0
C739 C 0.57553 0.16731 0.8909 0.0
H740 H 0.63921 0.17522 0.83429 0.0
C741 C 0.56703 0.19539 0.88096 0.0
H742 H 0.60948 0.13948 0.88057 0.0
C743 C 0.58366 0.2155 0.85391 0.0
C744 C 0.60933 0.2081 0.8364 0.0
H745 H 0.54667 0.20109 0.89362 0.0
H746 H 0.57543 0.23598 0.84629 0.0
C747 C 0.61963 0.18169 0.84724 0.0
C748 C 0.53925 0.64681 0.00665 0.0
C749 C 0.5619 0.682 0.02214 0.0
H750 H 0.50114 0.61698 0.9693 0.0
C751 C 0.56534 0.71565 0.00982 0.0
H752 H 0.53724 0.62062 0.01494 0.0
C753 C 0.5449 0.71366 0.98312 0.0
C754 C 0.52083 0.67798 0.96849 0.0
H755 H 0.58295 0.7432 0.02119 0.0
H756 H 0.54704 0.73973 0.97444 0.0
C757 C 0.51881 0.64478 0.98031 0.0
C758 C 0.90592 0.45824 0.17227 0.0
C759 C 0.9026 0.43214 0.19478 0.0
H760 H 0.88743 0.46579 0.12852 0.0
C761 C 0.87595 0.39241 0.19024 0.0
H762 H 0.92672 0.48897 0.17478 0.0
C763 C 0.85381 0.37904 0.16348 0.0
C764 C 0.85775 0.40511 0.14071 0.0
H765 H 0.87243 0.37159 0.20728 0.0
H766 H 0.83381 0.34822 0.16058 0.0
C767 C 0.88368 0.4449 0.14558 0.0
loop_
_geom_bond_atom_site_label_1
_geom_bond_atom_site_label_2
_geom_bond_distance
_geom_bond_site_symmetry_2
_ccdc_geom_bond_type
H0 O26 0.856 . S
H1 O29 0.854 . S
H2 C37 0.930 1_455 S
H3 C38 0.930 . S
H4 C40 0.930 . S
H5 C41 0.930 . S
H6 C43 0.931 . S
H7 C44 0.930 . S
H8 C46 0.930 . S
H9 C47 0.929 . S
H10 C49 0.930 . S
H11 C50 0.931 . S
H12 C52 0.930 . S
H13 C53 0.929 . S
H14 C55 0.931 . S
H15 C56 0.930 . S
H16 C58 0.930 . S
H17 C59 0.932 . S
H18 C61 0.930 . S
H19 C62 0.929 . S
H20 C64 0.931 . S
H21 C65 0.930 . S
H22 C67 0.929 . S
H23 C68 0.931 . S
H24 C70 0.930 . S
H25 C71 0.929 . S
O26 H0 0.856 . S
O26 C72 1.300 . S
O27 C72 1.209 . S
O28 C73 1.199 . S
O29 H1 0.854 . S
O29 C73 1.297 . S
C30 C31 1.404 . S
C30 C35 1.397 . S
C30 C36 1.492 . S
C31 C30 1.404 . S
C31 C32 1.396 . S
C31 C42 1.492 . S
C32 C31 1.396 . S
C32 C33 1.397 . S
C32 C48 1.509 . S
C33 C32 1.397 . S
C33 C34 1.412 . S
C33 C54 1.485 . S
C34 C33 1.412 . S
C34 C35 1.388 . S
C34 C60 1.490 . S
C35 C30 1.397 . S
C35 C34 1.388 . S
C35 C66 1.519 1_455 S
C36 C30 1.492 . S
C36 C37 1.363 1_455 S
C36 C41 1.390 1_455 S
C37 H2 0.930 1_655 S
C37 C36 1.363 1_655 S
C37 C38 1.372 . S
C38 H3 0.930 . S
C38 C37 1.372 . S
C38 C39 1.383 . S
C39 C38 1.383 . S
C39 C40 1.395 . S
C40 H4 0.930 . S
C40 C39 1.395 . S
C40 C41 1.362 . S
C41 H5 0.930 . S
C41 C36 1.390 1_655 S
C41 C40 1.362 . S
C42 C31 1.492 . S
C42 C43 1.377 . S
C42 C47 1.397 . S
C43 H6 0.931 . S
C43 C42 1.377 . S
C43 C44 1.376 . S
C44 H7 0.930 . S
C44 C43 1.376 . S
C44 C45 1.376 . S
C45 C44 1.376 . S
C45 C46 1.378 . S
C45 C72 1.486 . S
C46 H8 0.930 . S
C46 C45 1.378 . S
C46 C47 1.376 . S
C47 H9 0.929 . S
C47 C42 1.397 . S
C47 C46 1.376 . S
C48 C32 1.509 . S
C48 C49 1.391 . S
C48 C53 1.386 . S
C49 H10 0.930 . S
C49 C48 1.391 . S
C49 C50 1.375 . S
C50 H11 0.931 . S
C50 C49 1.375 . S
C50 C51 1.375 . S
C51 C50 1.375 . S
C51 C52 1.361 . S
C52 H12 0.930 . S
C52 C51 1.361 . S
C52 C53 1.399 . S
C53 H13 0.929 . S
C53 C48 1.386 . S
C53 C52 1.399 . S
C54 C33 1.485 . S
C54 C55 1.394 . S
C54 C59 1.360 . S
C55 H14 0.931 . S
C55 C54 1.394 . S
C55 C56 1.372 . S
C56 H15 0.930 . S
C56 C55 1.372 . S
C56 C57 1.397 . S
C57 C56 1.397 . S
C57 C58 1.390 . S
C57 C73 1.476 . S
C58 H16 0.930 . S
C58 C57 1.390 . S
C58 C59 1.366 . S
C59 H17 0.932 . S
C59 C54 1.360 . S
C59 C58 1.366 . S
C60 C34 1.490 . S
C60 C61 1.380 . S
C60 C65 1.386 . S
C61 H18 0.930 . S
C61 C60 1.380 . S
C61 C62 1.381 . S
C62 H19 0.929 . S
C62 C61 1.381 . S
C62 C63 1.371 . S
C63 C62 1.371 . S
C63 C64 1.380 . S
C64 H20 0.931 . S
C64 C63 1.380 . S
C64 C65 1.387 . S
C65 H21 0.930 . S
C65 C60 1.386 . S
C65 C64 1.387 . S
C66 C35 1.519 1_655 S
C66 C67 1.377 . S
C66 C71 1.361 . S
C67 H22 0.929 . S
C67 C66 1.377 . S
C67 C68 1.386 . S
C68 H23 0.931 . S
C68 C67 1.386 . S
C68 C69 1.363 . S
C69 C68 1.363 . S
C69 C70 1.385 . S
C70 H24 0.930 . S
C70 C69 1.385 . S
C70 C71 1.396 . S
C71 H25 0.929 . S
C71 C66 1.361 . S
C71 C70 1.396 . S
C72 O26 1.300 . S
C72 O27 1.209 . S
C72 C45 1.486 . S
C73 O28 1.199 . S
C73 O29 1.297 . S
C73 C57 1.476 . S
H74 O100 0.856 . S
H75 O103 0.854 . S
H76 C111 0.930 . S
H77 C112 0.930 . S
H78 C114 0.930 . S
H79 C115 0.930 . S
H80 C117 0.931 . S
H81 C118 0.930 . S
H82 C120 0.930 . S
H83 C121 0.929 . S
H84 C123 0.930 . S
H85 C124 0.931 . S
H86 C126 0.930 . S
H87 C127 0.929 . S
H88 C129 0.931 . S
H89 C130 0.930 . S
H90 C132 0.930 . S
H91 C133 0.932 . S
H92 C135 0.930 . S
H93 C136 0.929 . S
H94 C138 0.931 . S
H95 C139 0.930 . S
H96 C141 0.929 . S
H97 C142 0.931 . S
H98 C144 0.930 . S
H99 C145 0.914 1_545 S
O100 H74 0.856 . S
O100 C146 1.300 . S
O101 C146 1.209 . S
O102 C147 1.199 . S
O103 H75 0.854 . S
O103 C147 1.297 . S
C104 C105 1.404 . S
C104 C109 1.397 . S
C104 C110 1.492 . S
C105 C104 1.404 . S
C105 C106 1.396 . S
C105 C116 1.492 . S
C106 C105 1.396 . S
C106 C107 1.397 . S
C106 C122 1.509 . S
C107 C106 1.397 . S
C107 C108 1.412 . S
C107 C128 1.485 . S
C108 C107 1.412 . S
C108 C109 1.388 . S
C108 C134 1.490 . S
C109 C104 1.397 . S
C109 C108 1.388 . S
C109 C140 1.491 1_545 S
C110 C104 1.492 . S
C110 C111 1.363 . S
C110 C115 1.390 1_545 S
C111 H76 0.930 . S
C111 C110 1.363 . S
C111 C112 1.372 1_545 S
C112 H77 0.930 . S
C112 C111 1.372 1_565 S
C112 C113 1.383 . S
C113 C112 1.383 . S
C113 C114 1.395 . S
C114 H78 0.930 . S
C114 C113 1.395 . S
C114 C115 1.362 . S
C115 H79 0.930 . S
C115 C110 1.390 1_565 S
C115 C114 1.362 . S
C116 C105 1.492 . S
C116 C117 1.377 . S
C116 C121 1.397 . S
C117 H80 0.931 . S
C117 C116 1.377 . S
C117 C118 1.376 . S
C118 H81 0.930 . S
C118 C117 1.376 . S
C118 C119 1.376 . S
C119 C118 1.376 . S
C119 C120 1.378 . S
C119 C146 1.486 . S
C120 H82 0.930 . S
C120 C119 1.378 . S
C120 C121 1.376 . S
C121 H83 0.929 . S
C121 C116 1.397 . S
C121 C120 1.376 . S
C122 C106 1.509 . S
C122 C123 1.391 . S
C122 C127 1.386 . S
C123 H84 0.930 . S
C123 C122 1.391 . S
C123 C124 1.375 . S
C124 H85 0.931 . S
C124 C123 1.375 . S
C124 C125 1.375 . S
C125 C124 1.375 . S
C125 C126 1.361 . S
C126 H86 0.930 . S
C126 C125 1.361 . S
C126 C127 1.399 . S
C127 H87 0.929 . S
C127 C122 1.386 . S
C127 C126 1.399 . S
C128 C107 1.485 . S
C128 C129 1.394 . S
C128 C133 1.360 . S
C129 H88 0.931 . S
C129 C128 1.394 . S
C129 C130 1.372 . S
C130 H89 0.930 . S
C130 C129 1.372 . S
C130 C131 1.397 . S
C131 C130 1.397 . S
C131 C132 1.390 . S
C131 C147 1.476 . S
C132 H90 0.930 . S
C132 C131 1.390 . S
C132 C133 1.366 . S
C133 H91 0.932 . S
C133 C128 1.360 . S
C133 C132 1.366 . S
C134 C108 1.490 . S
C134 C135 1.380 . S
C134 C139 1.386 . S
C135 H92 0.930 . S
C135 C134 1.380 . S
C135 C136 1.381 . S
C136 H93 0.929 . S
C136 C135 1.381 . S
C136 C137 1.371 . S
C137 C136 1.371 . S
C137 C138 1.380 . S
C138 H94 0.931 . S
C138 C137 1.380 . S
C138 C139 1.387 . S
C139 H95 0.930 . S
C139 C134 1.386 . S
C139 C138 1.387 . S
C140 C109 1.491 1_565 S
C140 C141 1.408 . S
C140 C145 1.358 . S
C141 H96 0.929 . S
C141 C140 1.408 . S
C141 C142 1.386 . S
C142 H97 0.931 . S
C142 C141 1.386 . S
C142 C143 1.363 . S
C143 C142 1.363 . S
C143 C144 1.385 . S
C144 H98 0.930 . S
C144 C143 1.385 . S
C144 C145 1.396 . S
C145 H99 0.914 1_565 S
C145 C140 1.358 . S
C145 C144 1.396 . S
C146 O100 1.300 . S
C146 O101 1.209 . S
C146 C119 1.486 . S
C147 O102 1.199 . S
C147 O103 1.297 . S
C147 C131 1.476 . S
H148 O174 0.856 . S
H149 O177 0.854 . S
H150 C185 0.930 . S
H151 C186 0.930 . S
H152 C188 0.930 . S
H153 C189 0.930 . S
H154 C191 0.931 . S
H155 C192 0.930 . S
H156 C194 0.930 . S
H157 C195 0.929 . S
H158 C197 0.930 . S
H159 C198 0.931 . S
H160 C200 0.930 . S
H161 C201 0.929 . S
H162 C203 0.931 . S
H163 C204 0.930 . S
H164 C206 0.930 . S
H165 C207 0.932 . S
H166 C209 0.930 . S
H167 C210 0.929 . S
H168 C212 0.931 . S
H169 C213 0.930 . S
H170 C215 0.929 . S
H171 C216 0.931 . S
H172 C218 0.930 . S
H173 C219 0.929 . S
O174 H148 0.856 . S
O174 C220 1.300 . S
O175 C220 1.209 . S
O176 C221 1.199 . S
O177 H149 0.854 . S
O177 C221 1.297 . S
C178 C179 1.404 . S
C178 C183 1.397 . S
C178 C184 1.492 . S
C179 C178 1.404 . S
C179 C180 1.396 . S
C179 C190 1.492 . S
C180 C179 1.396 . S
C180 C181 1.397 . S
C180 C196 1.509 . S
C181 C180 1.397 . S
C181 C182 1.412 . S
C181 C202 1.485 . S
C182 C181 1.412 . S
C182 C183 1.388 . S
C182 C208 1.490 . S
C183 C178 1.397 . S
C183 C182 1.388 . S
C183 C214 1.519 . S
C184 C178 1.492 . S
C184 C185 1.363 . S
C184 C189 1.390 . S
C185 H150 0.930 . S
C185 C184 1.363 . S
C185 C186 1.372 . S
C186 H151 0.930 . S
C186 C185 1.372 . S
C186 C187 1.383 . S
C187 C186 1.383 . S
C187 C188 1.395 . S
C188 H152 0.930 . S
C188 C187 1.395 . S
C188 C189 1.362 . S
C189 H153 0.930 . S
C189 C184 1.390 . S
C189 C188 1.362 . S
C190 C179 1.492 . S
C190 C191 1.377 . S
C190 C195 1.397 . S
C191 H154 0.931 . S
C191 C190 1.377 . S
C191 C192 1.376 . S
C192 H155 0.930 . S
C192 C191 1.376 . S
C192 C193 1.376 . S
C193 C192 1.376 . S
C193 C194 1.378 . S
C193 C220 1.486 . S
C194 H156 0.930 . S
C194 C193 1.378 . S
C194 C195 1.376 . S
C195 H157 0.929 . S
C195 C190 1.397 . S
C195 C194 1.376 . S
C196 C180 1.509 . S
C196 C197 1.391 . S
C196 C201 1.386 . S
C197 H158 0.930 . S
C197 C196 1.391 . S
C197 C198 1.375 . S
C198 H159 0.931 . S
C198 C197 1.375 . S
C198 C199 1.375 . S
C199 C198 1.375 . S
C199 C200 1.361 . S
C200 H160 0.930 . S
C200 C199 1.361 . S
C200 C201 1.399 . S
C201 H161 0.929 . S
C201 C196 1.386 . S
C201 C200 1.399 . S
C202 C181 1.485 . S
C202 C203 1.394 . S
C202 C207 1.360 . S
C203 H162 0.931 . S
C203 C202 1.394 . S
C203 C204 1.372 . S
C204 H163 0.930 . S
C204 C203 1.372 . S
C204 C205 1.397 . S
C205 C204 1.397 . S
C205 C206 1.390 . S
C205 C221 1.476 . S
C206 H164 0.930 . S
C206 C205 1.390 . S
C206 C207 1.366 . S
C207 H165 0.932 . S
C207 C202 1.360 . S
C207 C206 1.366 . S
C208 C182 1.490 . S
C208 C209 1.380 . S
C208 C213 1.386 . S
C209 H166 0.930 . S
C209 C208 1.380 . S
C209 C210 1.381 . S
C210 H167 0.929 . S
C210 C209 1.381 . S
C210 C211 1.371 . S
C211 C210 1.371 . S
C211 C212 1.380 . S
C212 H168 0.931 . S
C212 C211 1.380 . S
C212 C213 1.387 . S
C213 H169 0.930 . S
C213 C208 1.386 . S
C213 C212 1.387 . S
C214 C183 1.519 . S
C214 C215 1.377 . S
C214 C219 1.361 . S
C215 H170 0.929 . S
C215 C214 1.377 . S
C215 C216 1.386 . S
C216 H171 0.931 . S
C216 C215 1.386 . S
C216 C217 1.363 . S
C217 C216 1.363 . S
C217 C218 1.385 . S
C218 H172 0.930 . S
C218 C217 1.385 . S
C218 C219 1.396 . S
C219 H173 0.929 . S
C219 C214 1.361 . S
C219 C218 1.396 . S
C220 O174 1.300 . S
C220 O175 1.209 . S
C220 C193 1.486 . S
C221 O176 1.199 . S
C221 O177 1.297 . S
C221 C205 1.476 . S
H222 O248 0.879 . S
H223 O251 0.854 . S
H224 C259 0.930 1_455 S
H225 C260 0.930 . S
H226 C262 0.930 . S
H227 C263 0.930 . S
H228 C265 0.931 . S
H229 C266 0.930 . S
H230 C268 0.930 . S
H231 C269 0.929 . S
H232 C271 0.930 . S
H233 C272 0.931 . S
H234 C274 0.930 . S
H235 C275 0.929 . S
H236 C277 0.931 . S
H237 C278 0.930 . S
H238 C280 0.930 . S
H239 C281 0.932 . S
H240 C283 0.930 . S
H241 C284 0.929 . S
H242 C286 0.931 . S
H243 C287 0.930 . S
H244 C289 0.929 . S
H245 C290 0.931 . S
H246 C292 0.930 . S
H247 C293 0.929 . S
O248 H222 0.879 . S
O248 C294 1.288 1_554 S
O249 C294 1.225 . S
O250 C295 1.199 . S
O251 H223 0.854 . S
O251 C295 1.297 . S
C252 C253 1.404 . S
C252 C257 1.397 . S
C252 C258 1.492 1_455 S
C253 C252 1.404 . S
C253 C254 1.396 . S
C253 C264 1.492 . S
C254 C253 1.396 . S
C254 C255 1.397 . S
C254 C270 1.509 . S
C255 C254 1.397 . S
C255 C256 1.412 . S
C255 C276 1.485 . S
C256 C255 1.412 . S
C256 C257 1.388 . S
C256 C282 1.490 . S
C257 C252 1.397 . S
C257 C256 1.388 . S
C257 C288 1.519 1_455 S
C258 C252 1.492 1_655 S
C258 C259 1.363 . S
C258 C263 1.390 . S
C259 H224 0.930 1_655 S
C259 C258 1.363 . S
C259 C260 1.372 . S
C260 H225 0.930 . S
C260 C259 1.372 . S
C260 C261 1.383 . S
C261 C260 1.383 . S
C261 C262 1.395 . S
C262 H226 0.930 . S
C262 C261 1.395 . S
C262 C263 1.362 . S
C263 H227 0.930 . S
C263 C258 1.390 . S
C263 C262 1.362 . S
C264 C253 1.492 . S
C264 C265 1.377 . S
C264 C269 1.397 . S
C265 H228 0.931 . S
C265 C264 1.377 . S
C265 C266 1.376 . S
C266 H229 0.930 . S
C266 C265 1.376 . S
C266 C267 1.376 . S
C267 C266 1.376 . S
C267 C268 1.378 . S
C267 C294 1.486 . S
C268 H230 0.930 . S
C268 C267 1.378 . S
C268 C269 1.376 . S
C269 H231 0.929 . S
C269 C264 1.397 . S
C269 C268 1.376 . S
C270 C254 1.509 . S
C270 C271 1.391 . S
C270 C275 1.386 . S
C271 H232 0.930 . S
C271 C270 1.391 . S
C271 C272 1.375 . S
C272 H233 0.931 . S
C272 C271 1.375 . S
C272 C273 1.375 . S
C273 C272 1.375 . S
C273 C274 1.361 . S
C274 H234 0.930 . S
C274 C273 1.361 . S
C274 C275 1.399 . S
C275 H235 0.929 . S
C275 C270 1.386 . S
C275 C274 1.399 . S
C276 C255 1.485 . S
C276 C277 1.394 . S
C276 C281 1.360 . S
C277 H236 0.931 . S
C277 C276 1.394 . S
C277 C278 1.372 . S
C278 H237 0.930 . S
C278 C277 1.372 . S
C278 C279 1.397 . S
C279 C278 1.397 . S
C279 C280 1.390 . S
C279 C295 1.476 . S
C280 H238 0.930 . S
C280 C279 1.390 . S
C280 C281 1.366 . S
C281 H239 0.932 . S
C281 C276 1.360 . S
C281 C280 1.366 . S
C282 C256 1.490 . S
C282 C283 1.380 . S
C282 C287 1.386 . S
C283 H240 0.930 . S
C283 C282 1.380 . S
C283 C284 1.381 . S
C284 H241 0.929 . S
C284 C283 1.381 . S
C284 C285 1.371 . S
C285 C284 1.371 . S
C285 C286 1.380 . S
C286 H242 0.931 . S
C286 C285 1.380 . S
C286 C287 1.387 . S
C287 H243 0.930 . S
C287 C282 1.386 . S
C287 C286 1.387 . S
C288 C257 1.519 1_655 S
C288 C289 1.377 . S
C288 C293 1.361 . S
C289 H244 0.929 . S
C289 C288 1.377 . S
C289 C290 1.386 . S
C290 H245 0.931 . S
C290 C289 1.386 . S
C290 C291 1.363 . S
C291 C290 1.363 . S
C291 C292 1.385 . S
C292 H246 0.930 . S
C292 C291 1.385 . S
C292 C293 1.396 . S
C293 H247 0.929 . S
C293 C288 1.361 . S
C293 C292 1.396 . S
C294 O248 1.288 1_556 S
C294 O249 1.225 . S
C294 C267 1.486 . S
C295 O250 1.199 . S
C295 O251 1.297 . S
C295 C279 1.476 . S
H296 O322 0.856 . S
H297 O325 0.854 . S
H298 C333 0.930 . S
H299 C334 0.930 . S
H300 C336 0.930 . S
H301 C337 0.930 . S
H302 C339 0.931 . S
H303 C340 0.930 . S
H304 C342 0.930 1_545 S
H305 C343 0.929 1_545 S
H306 C345 0.930 . S
H307 C346 0.931 . S
H308 C348 0.930 . S
H309 C349 0.929 . S
H310 C351 0.931 . S
H311 C352 0.930 . S
H312 C354 0.930 . S
H313 C355 0.932 . S
H314 C357 0.930 . S
H315 C358 0.929 . S
H316 C360 0.931 . S
H317 C361 0.930 . S
H318 C363 0.929 1_556 S
H319 C364 0.931 . S
H320 C366 0.930 . S
H321 C367 0.929 . S
O322 H296 0.856 . S
O322 C368 1.300 . S
O323 C368 1.209 . S
O324 C369 1.199 . S
O325 H297 0.854 . S
O325 C369 1.297 . S
C326 C327 1.404 1_545 S
C326 C331 1.397 . S
C326 C332 1.492 . S
C327 C326 1.404 1_565 S
C327 C328 1.396 . S
C327 C338 1.492 . S
C328 C327 1.396 . S
C328 C329 1.397 1_556 S
C328 C344 1.509 . S
C329 C328 1.397 1_554 S
C329 C330 1.412 . S
C329 C350 1.485 . S
C330 C329 1.412 . S
C330 C331 1.388 1_564 S
C330 C356 1.493 . S
C331 C326 1.397 . S
C331 C330 1.388 1_546 S
C331 C362 1.519 1_556 S
C332 C326 1.492 . S
C332 C333 1.363 . S
C332 C337 1.390 . S
C333 H298 0.930 . S
C333 C332 1.363 . S
C333 C334 1.372 . S
C334 H299 0.930 . S
C334 C333 1.372 . S
C334 C335 1.383 . S
C335 C334 1.383 . S
C335 C336 1.395 . S
C336 H300 0.930 . S
C336 C335 1.395 . S
C336 C337 1.362 . S
C337 H301 0.930 . S
C337 C332 1.390 . S
C337 C336 1.362 . S
C338 C327 1.492 . S
C338 C339 1.377 . S
C338 C343 1.397 . S
C339 H302 0.931 . S
C339 C338 1.377 . S
C339 C340 1.376 . S
C340 H303 0.930 . S
C340 C339 1.376 . S
C340 C341 1.376 . S
C341 C340 1.376 . S
C341 C342 1.378 . S
C341 C368 1.486 . S
C342 H304 0.930 1_565 S
C342 C341 1.378 . S
C342 C343 1.376 . S
C343 H305 0.929 1_565 S
C343 C338 1.397 . S
C343 C342 1.376 . S
C344 C328 1.509 . S
C344 C345 1.391 . S
C344 C349 1.386 . S
C345 H306 0.930 . S
C345 C344 1.391 . S
C345 C346 1.375 . S
C346 H307 0.931 . S
C346 C345 1.375 . S
C346 C347 1.375 . S
C347 C346 1.375 . S
C347 C348 1.361 . S
C348 H308 0.930 . S
C348 C347 1.361 . S
C348 C349 1.399 . S
C349 H309 0.929 . S
C349 C344 1.386 . S
C349 C348 1.399 . S
C350 C329 1.485 . S
C350 C351 1.394 . S
C350 C355 1.360 . S
C351 H310 0.931 . S
C351 C350 1.394 . S
C351 C352 1.372 . S
C352 H311 0.930 . S
C352 C351 1.372 . S
C352 C353 1.397 . S
C353 C352 1.397 . S
C353 C354 1.390 . S
C353 C369 1.476 . S
C354 H312 0.930 . S
C354 C353 1.390 . S
C354 C355 1.366 . S
C355 H313 0.932 . S
C355 C350 1.360 . S
C355 C354 1.366 . S
C356 C330 1.493 . S
C356 C357 1.368 1_565 S
C356 C361 1.395 . S
C357 H314 0.930 . S
C357 C356 1.368 1_545 S
C357 C358 1.381 . S
C358 H315 0.929 . S
C358 C357 1.381 . S
C358 C359 1.371 . S
C359 C358 1.371 . S
C359 C360 1.380 1_545 S
C360 H316 0.931 . S
C360 C359 1.380 1_565 S
C360 C361 1.387 . S
C361 H317 0.930 . S
C361 C356 1.395 . S
C361 C360 1.387 . S
C362 C331 1.519 1_554 S
C362 C363 1.377 . S
C362 C367 1.361 . S
C363 H318 0.929 1_554 S
C363 C362 1.377 . S
C363 C364 1.386 . S
C364 H319 0.931 . S
C364 C363 1.386 . S
C364 C365 1.363 . S
C365 C364 1.363 . S
C365 C366 1.385 . S
C366 H320 0.930 . S
C366 C365 1.385 . S
C366 C367 1.396 . S
C367 H321 0.929 . S
C367 C362 1.361 . S
C367 C366 1.396 . S
C368 O322 1.300 . S
C368 O323 1.209 . S
C368 C341 1.486 . S
C369 O324 1.199 . S
C369 O325 1.297 . S
C369 C353 1.476 . S
H370 O396 0.856 . S
H371 O399 0.854 . S
H372 C407 0.930 . S
H373 C408 0.930 . S
H374 C410 0.930 . S
H375 C411 0.930 . S
H376 C413 0.931 . S
H377 C414 0.930 . S
H378 C416 0.930 . S
H379 C417 0.929 . S
H380 C419 0.930 . S
H381 C420 0.931 . S
H382 C422 0.930 . S
H383 C423 0.929 . S
H384 C425 0.931 . S
H385 C426 0.930 . S
H386 C428 0.930 . S
H387 C429 0.932 . S
H388 C431 0.930 . S
H389 C432 0.929 . S
H390 C434 0.931 . S
H391 C435 0.930 . S
H392 C437 0.929 . S
H393 C438 0.931 . S
H394 C440 0.930 . S
H395 C441 0.929 . S
O396 H370 0.856 . S
O396 C442 1.300 . S
O397 C442 1.209 . S
O398 C443 1.199 . S
O399 H371 0.854 . S
O399 C443 1.297 . S
C400 C401 1.404 . S
C400 C405 1.397 . S
C400 C406 1.492 . S
C401 C400 1.404 . S
C401 C402 1.396 . S
C401 C412 1.492 . S
C402 C401 1.396 . S
C402 C403 1.397 . S
C402 C418 1.509 . S
C403 C402 1.397 . S
C403 C404 1.412 . S
C403 C424 1.485 . S
C404 C403 1.412 . S
C404 C405 1.388 . S
C404 C430 1.490 . S
C405 C400 1.397 . S
C405 C404 1.388 . S
C405 C436 1.519 . S
C406 C400 1.492 . S
C406 C407 1.363 . S
C406 C411 1.390 . S
C407 H372 0.930 . S
C407 C406 1.363 . S
C407 C408 1.372 . S
C408 H373 0.930 . S
C408 C407 1.372 . S
C408 C409 1.383 . S
C409 C408 1.383 . S
C409 C410 1.395 . S
C410 H374 0.930 . S
C410 C409 1.395 . S
C410 C411 1.362 . S
C411 H375 0.930 . S
C411 C406 1.390 . S
C411 C410 1.362 . S
C412 C401 1.492 . S
C412 C413 1.377 . S
C412 C417 1.397 . S
C413 H376 0.931 . S
C413 C412 1.377 . S
C413 C414 1.376 . S
C414 H377 0.930 . S
C414 C413 1.376 . S
C414 C415 1.376 . S
C415 C414 1.376 . S
C415 C416 1.378 . S
C415 C442 1.486 1_554 S
C416 H378 0.930 . S
C416 C415 1.378 . S
C416 C417 1.376 . S
C417 H379 0.929 . S
C417 C412 1.397 . S
C417 C416 1.376 . S
C418 C402 1.509 . S
C418 C419 1.391 . S
C418 C423 1.386 . S
C419 H380 0.930 . S
C419 C418 1.391 . S
C419 C420 1.375 . S
C420 H381 0.931 . S
C420 C419 1.375 . S
C420 C421 1.375 . S
C421 C420 1.375 . S
C421 C422 1.361 . S
C422 H382 0.930 . S
C422 C421 1.361 . S
C422 C423 1.399 . S
C423 H383 0.929 . S
C423 C418 1.386 . S
C423 C422 1.399 . S
C424 C403 1.485 . S
C424 C425 1.394 . S
C424 C429 1.360 . S
C425 H384 0.931 . S
C425 C424 1.394 . S
C425 C426 1.372 . S
C426 H385 0.930 . S
C426 C425 1.372 . S
C426 C427 1.397 . S
C427 C426 1.397 . S
C427 C428 1.390 . S
C427 C443 1.476 . S
C428 H386 0.930 . S
C428 C427 1.390 . S
C428 C429 1.366 . S
C429 H387 0.932 . S
C429 C424 1.360 . S
C429 C428 1.366 . S
C430 C404 1.490 . S
C430 C431 1.380 . S
C430 C435 1.386 . S
C431 H388 0.930 . S
C431 C430 1.380 . S
C431 C432 1.381 . S
C432 H389 0.929 . S
C432 C431 1.381 . S
C432 C433 1.371 . S
C433 C432 1.371 . S
C433 C434 1.380 . S
C434 H390 0.931 . S
C434 C433 1.380 . S
C434 C435 1.387 . S
C435 H391 0.930 . S
C435 C430 1.386 . S
C435 C434 1.387 . S
C436 C405 1.519 . S
C436 C437 1.377 . S
C436 C441 1.361 . S
C437 H392 0.929 . S
C437 C436 1.377 . S
C437 C438 1.386 . S
C438 H393 0.931 . S
C438 C437 1.386 . S
C438 C439 1.363 . S
C439 C438 1.363 . S
C439 C440 1.385 . S
C440 H394 0.930 . S
C440 C439 1.385 . S
C440 C441 1.396 . S
C441 H395 0.929 . S
C441 C436 1.361 . S
C441 C440 1.396 . S
C442 O396 1.300 . S
C442 O397 1.209 . S
C442 C415 1.486 1_556 S
C443 O398 1.199 . S
C443 O399 1.297 . S
C443 C427 1.476 . S
O444 Cd445 2.223 . S
O444 C452 1.315 . S
Cd445 O444 2.223 . S
Cd445 O448 2.297 . S
Cd445 O449 2.439 . S
Cd445 O455 2.240 . S
Cd446 O447 2.240 . S
Cd446 O454 2.223 . S
Cd446 O456 2.297 . S
Cd446 O457 2.439 . S
O447 Cd446 2.240 . S
O447 C452 1.279 . S
O448 Cd445 2.297 . S
O448 C450 1.247 . S
O449 Cd445 2.439 . S
O449 C450 1.208 . S
C450 O448 1.247 . S
C450 O449 1.208 . S
C451 O456 1.247 . S
C451 O457 1.208 . S
C452 O444 1.315 . S
C452 O447 1.279 . S
C453 O454 1.315 . S
C453 O455 1.279 . S
O454 Cd446 2.223 . S
O454 C453 1.315 . S
O455 Cd445 2.240 . S
O455 C453 1.279 . S
O456 Cd446 2.297 . S
O456 C451 1.247 . S
O457 Cd446 2.439 . S
O457 C451 1.208 . S
O458 Cd459 2.223 . S
O458 C466 1.315 . S
Cd459 O458 2.223 . S
Cd459 O462 2.297 . S
Cd459 O463 2.439 . S
Cd459 O469 2.240 . S
Cd460 O461 2.240 . S
Cd460 O468 2.223 . S
Cd460 O470 2.297 . S
Cd460 O471 2.439 . S
O461 Cd460 2.240 . S
O461 C466 1.279 . S
O462 Cd459 2.297 . S
O462 C464 1.247 . S
O463 Cd459 2.439 . S
O463 C464 1.208 . S
C464 O462 1.247 . S
C464 O463 1.208 . S
C465 O470 1.247 . S
C465 O471 1.208 . S
C466 O458 1.315 . S
C466 O461 1.279 . S
C467 O468 1.315 . S
C467 O469 1.279 . S
O468 Cd460 2.223 . S
O468 C467 1.315 . S
O469 Cd459 2.240 . S
O469 C467 1.279 . S
O470 Cd460 2.297 . S
O470 C465 1.247 . S
O471 Cd460 2.439 . S
O471 C465 1.208 . S
O472 Cd473 2.223 . S
O472 C480 1.315 . S
Cd473 O472 2.223 . S
Cd473 O476 2.297 . S
Cd473 O477 2.439 . S
Cd473 O483 2.240 . S
Cd474 O475 2.240 . S
Cd474 O482 2.223 . S
Cd474 O484 2.297 . S
Cd474 O485 2.439 . S
O475 Cd474 2.240 . S
O475 C480 1.279 . S
O476 Cd473 2.297 . S
O476 C478 1.247 . S
O477 Cd473 2.439 . S
O477 C478 1.208 . S
C478 O476 1.247 . S
C478 O477 1.208 . S
C479 O484 1.247 . S
C479 O485 1.208 . S
C480 O472 1.315 . S
C480 O475 1.279 . S
C481 O482 1.315 . S
C481 O483 1.279 . S
O482 Cd474 2.223 . S
O482 C481 1.315 . S
O483 Cd473 2.240 . S
O483 C481 1.279 . S
O484 Cd474 2.297 . S
O484 C479 1.247 . S
O485 Cd474 2.439 . S
O485 C479 1.208 . S
O486 Cd487 2.223 . S
O486 C494 1.315 . S
Cd487 O486 2.223 . S
Cd487 O490 2.297 . S
Cd487 O491 2.439 . S
Cd487 O497 2.240 . S
Cd488 O489 2.240 . S
Cd488 O496 2.223 . S
Cd488 O498 2.297 . S
Cd488 O499 2.439 . S
O489 Cd488 2.240 . S
O489 C494 1.279 . S
O490 Cd487 2.297 . S
O490 C492 1.247 . S
O491 Cd487 2.439 . S
O491 C492 1.208 . S
C492 O490 1.247 . S
C492 O491 1.208 . S
C493 O498 1.247 . S
C493 O499 1.208 . S
C494 O486 1.315 . S
C494 O489 1.279 . S
C495 O496 1.315 . S
C495 O497 1.279 . S
O496 Cd488 2.223 . S
O496 C495 1.315 . S
O497 Cd487 2.240 . S
O497 C495 1.279 . S
O498 Cd488 2.297 . S
O498 C493 1.247 . S
O499 Cd488 2.439 . S
O499 C493 1.208 . S
O500 Cd501 2.223 . S
O500 C508 1.315 . S
Cd501 O500 2.223 . S
Cd501 O504 2.297 . S
Cd501 O505 2.439 . S
Cd501 O511 2.240 . S
Cd502 O503 2.240 . S
Cd502 O510 2.223 . S
Cd502 O512 2.297 . S
Cd502 O513 2.439 . S
O503 Cd502 2.240 . S
O503 C508 1.279 . S
O504 Cd501 2.297 . S
O504 C506 1.247 . S
O505 Cd501 2.439 . S
O505 C506 1.208 . S
C506 O504 1.247 . S
C506 O505 1.208 . S
C507 O512 1.247 . S
C507 O513 1.208 . S
C508 O500 1.315 . S
C508 O503 1.279 . S
C509 O510 1.315 . S
C509 O511 1.279 . S
O510 Cd502 2.223 . S
O510 C509 1.315 . S
O511 Cd501 2.240 . S
O511 C509 1.279 . S
O512 Cd502 2.297 . S
O512 C507 1.247 . S
O513 Cd502 2.439 . S
O513 C507 1.208 . S
O514 Cd515 2.223 . S
O514 C522 1.315 . S
Cd515 O514 2.223 . S
Cd515 O518 2.297 . S
Cd515 O519 2.439 . S
Cd515 O525 2.240 . S
Cd516 O517 2.240 . S
Cd516 O524 2.223 . S
Cd516 O526 2.297 . S
Cd516 O527 2.439 . S
O517 Cd516 2.240 . S
O517 C522 1.279 . S
O518 Cd515 2.297 . S
O518 C520 1.247 . S
O519 Cd515 2.439 . S
O519 C520 1.208 . S
C520 O518 1.247 . S
C520 O519 1.208 . S
C521 O526 1.247 . S
C521 O527 1.208 . S
C522 O514 1.315 . S
C522 O517 1.279 . S
C523 O524 1.315 . S
C523 O525 1.279 . S
O524 Cd516 2.223 . S
O524 C523 1.315 . S
O525 Cd515 2.240 . S
O525 C523 1.279 . S
O526 Cd516 2.297 . S
O526 C521 1.247 . S
O527 Cd516 2.439 . S
O527 C521 1.208 . S
C528 C529 1.387 . S
C528 H532 0.950 . S
C528 C537 1.390 . S
C529 C528 1.387 . S
C529 C531 1.387 . S
H530 C537 0.950 . S
C531 C529 1.387 . S
C531 C533 1.390 . S
C531 H535 0.950 . S
H532 C528 0.950 . S
C533 C531 1.390 . S
C533 C534 1.387 . S
C533 H536 0.950 . S
C534 C533 1.387 . S
C534 C537 1.387 . S
H535 C531 0.950 . S
H536 C533 0.950 . S
C537 C528 1.390 . S
C537 H530 0.950 . S
C537 C534 1.387 . S
C538 C539 1.387 . S
C538 H542 0.950 . S
C538 C547 1.390 . S
C539 C538 1.387 . S
C539 C541 1.387 . S
H540 C547 0.950 . S
C541 C539 1.387 . S
C541 C543 1.390 . S
C541 H545 0.950 . S
H542 C538 0.950 . S
C543 C541 1.390 . S
C543 C544 1.387 . S
C543 H546 0.950 . S
C544 C543 1.387 . S
C544 C547 1.387 . S
H545 C541 0.950 . S
H546 C543 0.950 . S
C547 C538 1.390 . S
C547 H540 0.950 . S
C547 C544 1.387 . S
C548 C549 1.387 . S
C548 H552 0.950 . S
C548 C557 1.390 . S
C549 C548 1.387 . S
C549 C551 1.387 . S
H550 C557 0.950 . S
C551 C549 1.387 . S
C551 C553 1.390 . S
C551 H555 0.950 . S
H552 C548 0.950 . S
C553 C551 1.390 . S
C553 C554 1.387 . S
C553 H556 0.950 . S
C554 C553 1.387 . S
C554 C557 1.387 . S
H555 C551 0.950 . S
H556 C553 0.950 . S
C557 C548 1.390 . S
C557 H550 0.950 . S
C557 C554 1.387 . S
C558 C559 1.387 . S
C558 H562 0.950 . S
C558 C567 1.390 . S
C559 C558 1.387 . S
C559 C561 1.387 . S
H560 C567 0.950 . S
C561 C559 1.387 . S
C561 C563 1.390 . S
C561 H565 0.950 . S
H562 C558 0.950 . S
C563 C561 1.390 . S
C563 C564 1.387 . S
C563 H566 0.950 . S
C564 C563 1.387 . S
C564 C567 1.387 . S
H565 C561 0.950 . S
H566 C563 0.950 . S
C567 C558 1.390 . S
C567 H560 0.950 . S
C567 C564 1.387 . S
C568 C569 1.387 . S
C568 H572 0.950 . S
C568 C577 1.390 . S
C569 C568 1.387 . S
C569 C571 1.387 . S
H570 C577 0.950 . S
C571 C569 1.387 . S
C571 C573 1.390 . S
C571 H575 0.950 . S
H572 C568 0.950 . S
C573 C571 1.390 . S
C573 C574 1.387 . S
C573 H576 0.950 . S
C574 C573 1.387 . S
C574 C577 1.387 . S
H575 C571 0.950 . S
H576 C573 0.950 . S
C577 C568 1.390 . S
C577 H570 0.950 . S
C577 C574 1.387 . S
C578 C579 1.387 . S
C578 H582 0.950 . S
C578 C587 1.390 . S
C579 C578 1.387 . S
C579 C581 1.387 . S
H580 C587 0.950 . S
C581 C579 1.387 . S
C581 C583 1.390 . S
C581 H585 0.950 . S
H582 C578 0.950 . S
C583 C581 1.390 . S
C583 C584 1.387 . S
C583 H586 0.950 . S
C584 C583 1.387 . S
C584 C587 1.387 . S
H585 C581 0.950 . S
H586 C583 0.950 . S
C587 C578 1.390 . S
C587 H580 0.950 . S
C587 C584 1.387 . S
C588 C589 1.387 . S
C588 H592 0.950 . S
C588 C597 1.390 . S
C589 C588 1.387 . S
C589 C591 1.387 . S
H590 C597 0.950 . S
C591 C589 1.387 . S
C591 C593 1.390 . S
C591 H595 0.950 . S
H592 C588 0.950 . S
C593 C591 1.390 . S
C593 C594 1.387 . S
C593 H596 0.950 . S
C594 C593 1.387 . S
C594 C597 1.387 . S
H595 C591 0.950 . S
H596 C593 0.950 . S
C597 C588 1.390 . S
C597 H590 0.950 . S
C597 C594 1.387 . S
C598 C599 1.387 . S
C598 H602 0.950 . S
C598 C607 1.390 . S
C599 C598 1.387 . S
C599 C601 1.387 . S
H600 C607 0.950 . S
C601 C599 1.387 . S
C601 C603 1.390 . S
C601 H605 0.950 . S
H602 C598 0.950 . S
C603 C601 1.390 . S
C603 C604 1.387 . S
C603 H606 0.950 . S
C604 C603 1.387 . S
C604 C607 1.387 . S
H605 C601 0.950 . S
H606 C603 0.950 . S
C607 C598 1.390 . S
C607 H600 0.950 . S
C607 C604 1.387 . S
C608 C609 1.387 . S
C608 H612 0.950 . S
C608 C617 1.390 . S
C609 C608 1.387 . S
C609 C611 1.387 . S
H610 C617 0.950 . S
C611 C609 1.387 . S
C611 C613 1.390 . S
C611 H615 0.950 . S
H612 C608 0.950 . S
C613 C611 1.390 . S
C613 C614 1.387 . S
C613 H616 0.950 . S
C614 C613 1.387 . S
C614 C617 1.387 . S
H615 C611 0.950 . S
H616 C613 0.950 . S
C617 C608 1.390 . S
C617 H610 0.950 . S
C617 C614 1.387 . S
C618 C619 1.387 . S
C618 H622 0.950 . S
C618 C627 1.390 . S
C619 C618 1.387 . S
C619 C621 1.387 . S
H620 C627 0.950 . S
C621 C619 1.387 . S
C621 C623 1.390 . S
C621 H625 0.950 1_554 S
H622 C618 0.950 . S
C623 C621 1.390 . S
C623 C624 1.387 . S
C623 H626 0.950 1_554 S
C624 C623 1.387 . S
C624 C627 1.387 . S
H625 C621 0.950 1_556 S
H626 C623 0.950 1_556 S
C627 C618 1.390 . S
C627 H620 0.950 . S
C627 C624 1.387 . S
C628 C629 1.387 . S
C628 H632 0.950 . S
C628 C637 1.390 . S
C629 C628 1.387 . S
C629 C631 1.387 . S
H630 C637 0.950 . S
C631 C629 1.387 . S
C631 C633 1.390 . S
C631 H635 0.950 . S
H632 C628 0.950 . S
C633 C631 1.390 . S
C633 C634 1.387 . S
C633 H636 0.950 . S
C634 C633 1.387 . S
C634 C637 1.387 . S
H635 C631 0.950 . S
H636 C633 0.950 . S
C637 C628 1.390 . S
C637 H630 0.950 . S
C637 C634 1.387 . S
C638 C639 1.387 . S
C638 H642 0.950 . S
C638 C647 1.390 . S
C639 C638 1.387 . S
C639 C641 1.387 . S
H640 C647 0.950 . S
C641 C639 1.387 . S
C641 C643 1.390 . S
C641 H645 0.950 . S
H642 C638 0.950 . S
C643 C641 1.390 . S
C643 C644 1.387 . S
C643 H646 0.950 . S
C644 C643 1.387 . S
C644 C647 1.387 . S
H645 C641 0.950 . S
H646 C643 0.950 . S
C647 C638 1.390 . S
C647 H640 0.950 . S
C647 C644 1.387 . S
C648 C649 1.387 . S
C648 H652 0.950 . S
C648 C657 1.390 . S
C649 C648 1.387 . S
C649 C651 1.387 . S
H650 C657 0.950 . S
C651 C649 1.387 . S
C651 C653 1.390 . S
C651 H655 0.950 . S
H652 C648 0.950 . S
C653 C651 1.390 . S
C653 C654 1.387 . S
C653 H656 0.950 . S
C654 C653 1.387 . S
C654 C657 1.387 . S
H655 C651 0.950 . S
H656 C653 0.950 . S
C657 C648 1.390 . S
C657 H650 0.950 . S
C657 C654 1.387 . S
C658 C659 1.387 . S
C658 H662 0.950 . S
C658 C667 1.390 . S
C659 C658 1.387 . S
C659 C661 1.387 . S
H660 C667 0.950 . S
C661 C659 1.387 . S
C661 C663 1.390 . S
C661 H665 0.950 . S
H662 C658 0.950 . S
C663 C661 1.390 . S
C663 C664 1.387 . S
C663 H666 0.950 . S
C664 C663 1.387 . S
C664 C667 1.387 . S
H665 C661 0.950 . S
H666 C663 0.950 . S
C667 C658 1.390 . S
C667 H660 0.950 . S
C667 C664 1.387 . S
C668 C669 1.387 . S
C668 H672 0.950 . S
C668 C677 1.390 . S
C669 C668 1.387 . S
C669 C671 1.387 . S
H670 C677 0.950 . S
C671 C669 1.387 . S
C671 C673 1.390 . S
C671 H675 0.950 . S
H672 C668 0.950 . S
C673 C671 1.390 . S
C673 C674 1.387 . S
C673 H676 0.950 . S
C674 C673 1.387 . S
C674 C677 1.387 . S
H675 C671 0.950 . S
H676 C673 0.950 . S
C677 C668 1.390 . S
C677 H670 0.950 . S
C677 C674 1.387 . S
C678 C679 1.387 . S
C678 H682 0.950 . S
C678 C687 1.390 . S
C679 C678 1.387 . S
C679 C681 1.387 . S
H680 C687 0.950 . S
C681 C679 1.387 . S
C681 C683 1.390 . S
C681 H685 0.950 . S
H682 C678 0.950 . S
C683 C681 1.390 . S
C683 C684 1.387 . S
C683 H686 0.950 1_556 S
C684 C683 1.387 . S
C684 C687 1.387 . S
H685 C681 0.950 . S
H686 C683 0.950 1_554 S
C687 C678 1.390 . S
C687 H680 0.950 . S
C687 C684 1.387 . S
C688 C689 1.387 1_545 S
C688 H692 0.950 . S
C688 C697 1.390 1_545 S
C689 C688 1.387 1_565 S
C689 C691 1.387 . S
H690 C697 0.950 . S
C691 C689 1.387 . S
C691 C693 1.390 . S
C691 H695 0.950 . S
H692 C688 0.950 . S
C693 C691 1.390 . S
C693 C694 1.387 . S
C693 H696 0.950 . S
C694 C693 1.387 . S
C694 C697 1.387 . S
H695 C691 0.950 . S
H696 C693 0.950 . S
C697 C688 1.390 1_565 S
C697 H690 0.950 . S
C697 C694 1.387 . S
C698 C699 1.387 . S
C698 H702 0.950 . S
C698 C707 1.390 . S
C699 C698 1.387 . S
C699 C701 1.387 . S
H700 C707 0.950 . S
C701 C699 1.387 . S
C701 C703 1.390 . S
C701 H705 0.950 . S
H702 C698 0.950 . S
C703 C701 1.390 . S
C703 C704 1.387 . S
C703 H706 0.950 . S
C704 C703 1.387 . S
C704 C707 1.387 . S
H705 C701 0.950 . S
H706 C703 0.950 . S
C707 C698 1.390 . S
C707 H700 0.950 . S
C707 C704 1.387 . S
C708 C709 1.387 . S
C708 H712 0.950 . S
C708 C717 1.390 . S
C709 C708 1.387 . S
C709 C711 1.387 . S
H710 C717 0.950 . S
C711 C709 1.387 . S
C711 C713 1.390 . S
C711 H715 0.950 . S
H712 C708 0.950 . S
C713 C711 1.390 . S
C713 C714 1.387 . S
C713 H716 0.950 . S
C714 C713 1.387 . S
C714 C717 1.387 . S
H715 C711 0.950 . S
H716 C713 0.950 . S
C717 C708 1.390 . S
C717 H710 0.950 . S
C717 C714 1.387 . S
C718 C719 1.387 . S
C718 H722 0.950 . S
C718 C727 1.390 . S
C719 C718 1.387 . S
C719 C721 1.387 . S
H720 C727 0.950 . S
C721 C719 1.387 . S
C721 C723 1.390 . S
C721 H725 0.950 . S
H722 C718 0.950 . S
C723 C721 1.390 . S
C723 C724 1.387 . S
C723 H726 0.950 . S
C724 C723 1.387 . S
C724 C727 1.387 . S
H725 C721 0.950 . S
H726 C723 0.950 . S
C727 C718 1.390 . S
C727 H720 0.950 . S
C727 C724 1.387 . S
C728 C729 1.387 . S
C728 H732 0.950 . S
C728 C737 1.390 . S
C729 C728 1.387 . S
C729 C731 1.387 . S
H730 C737 0.950 . S
C731 C729 1.387 . S
C731 C733 1.390 . S
C731 H735 0.950 . S
H732 C728 0.950 . S
C733 C731 1.390 . S
C733 C734 1.387 . S
C733 H736 0.950 . S
C734 C733 1.387 . S
C734 C737 1.387 . S
H735 C731 0.950 . S
H736 C733 0.950 . S
C737 C728 1.390 . S
C737 H730 0.950 . S
C737 C734 1.387 . S
C738 C739 1.387 . S
C738 H742 0.950 . S
C738 C747 1.390 . S
C739 C738 1.387 . S
C739 C741 1.387 . S
H740 C747 0.950 . S
C741 C739 1.387 . S
C741 C743 1.390 . S
C741 H745 0.950 . S
H742 C738 0.950 . S
C743 C741 1.390 . S
C743 C744 1.387 . S
C743 H746 0.950 . S
C744 C743 1.387 . S
C744 C747 1.387 . S
H745 C741 0.950 . S
H746 C743 0.950 . S
C747 C738 1.390 . S
C747 H740 0.950 . S
C747 C744 1.387 . S
C748 C749 1.387 . S
C748 H752 0.950 . S
C748 C757 1.390 1_554 S
C749 C748 1.387 . S
C749 C751 1.387 . S
H750 C757 0.950 . S
C751 C749 1.387 . S
C751 C753 1.390 1_554 S
C751 H755 0.950 . S
H752 C748 0.950 . S
C753 C751 1.390 1_556 S
C753 C754 1.387 . S
C753 H756 0.950 . S
C754 C753 1.387 . S
C754 C757 1.387 . S
H755 C751 0.950 . S
H756 C753 0.950 . S
C757 C748 1.390 1_556 S
C757 H750 0.950 . S
C757 C754 1.387 . S
C758 C759 1.387 . S
C758 H762 0.950 . S
C758 C767 1.390 . S
C759 C758 1.387 . S
C759 C761 1.387 . S
H760 C767 0.950 . S
C761 C759 1.387 . S
C761 C763 1.390 . S
C761 H765 0.950 . S
H762 C758 0.950 . S
C763 C761 1.390 . S
C763 C764 1.387 . S
C763 H766 0.950 . S
C764 C763 1.387 . S
C764 C767 1.387 . S
H765 C761 0.950 . S
H766 C763 0.950 . S
C767 C758 1.390 . S
C767 H760 0.950 . S
C767 C764 1.387 . S
C534 C521 1.560 . S
C529 C51 1.523 . S
C539 C125 1.496 . S
C544 C450 1.488 . S
C549 C217 2.503 . S
C554 C464 2.534 . S
C559 C291 1.616 . S
C564 C478 1.588 . S
C574 C492 1.171 . S
C569 C347 1.136 . S
C579 C421 1.284 . S
C584 C507 1.243 . S
C589 C143 2.172 . S
C594 C465 2.163 . S
C599 C199 1.570 . S
C604 C479 1.598 . S
C609 C273 0.946 . S
C614 C493 0.936 . S
C624 C506 1.726 . S
C619 C365 1.685 . S
C634 C520 1.781 . S
C629 C439 1.792 . S
C644 C451 2.502 . S
C639 C69 2.438 . S
C649 C63 1.547 . S
C654 C467 1.715 . S
C659 C137 1.878 . S
C664 C481 1.985 . S
C674 C495 1.514 . S
C669 C187 1.444 . S
C679 C261 1.804 . S
C684 C508 1.808 1_556 S
C694 C522 1.752 . S
C689 C359 1.515 1_565 S
C704 C453 1.627 . S
C699 C433 1.551 . S
C714 C523 1.906 . S
C709 C113 1.965 . S
C719 C211 1.419 . S
C724 C452 1.549 . S
C734 C466 2.024 . S
C729 C285 1.915 . S
C739 C335 1.449 . S
C744 C480 1.561 . S
C749 C409 1.688 . S
C754 C494 1.667 . S
C759 C39 1.626 . S
C764 C509 1.638 . S
