# Generated by pormake.
# Topology ctn, (3,4)-cn, num edge types: 1
# Building blocks:
#     Node 0, Type 0, BuildingBlock: ESEHIV_clean_linker_0, # of connection points: 3
#     Node 1, Type 0, BuildingBlock: ESEHIV_clean_linker_0, # of connection points: 3
#     Node 2, Type 0, BuildingBlock: ESEHIV_clean_linker_0, # of connection points: 3
#     Node 3, Type 0, BuildingBlock: ESEHIV_clean_linker_0, # of connection points: 3
#     Node 4, Type 0, BuildingBlock: ESEHIV_clean_linker_0, # of connection points: 3
#     Node 5, Type 0, BuildingBlock: ESEHIV_clean_linker_0, # of connection points: 3
#     Node 6, Type 0, BuildingBlock: ESEHIV_clean_linker_0, # of connection points: 3
#     Node 7, Type 0, BuildingBlock: ESEHIV_clean_linker_0, # of connection points: 3
#     Node 8, Type 0, BuildingBlock: ESEHIV_clean_linker_0, # of connection points: 3
#     Node 9, Type 0, BuildingBlock: ESEHIV_clean_linker_0, # of connection points: 3
#     Node 10, Type 0, BuildingBlock: ESEHIV_clean_linker_0, # of connection points: 3
#     Node 11, Type 0, BuildingBlock: ESEHIV_clean_linker_0, # of connection points: 3
#     Node 12, Type 0, BuildingBlock: ESEHIV_clean_linker_0, # of connection points: 3
#     Node 13, Type 0, BuildingBlock: ESEHIV_clean_linker_0, # of connection points: 3
#     Node 14, Type 0, BuildingBlock: ESEHIV_clean_linker_0, # of connection points: 3
#     Node 15, Type 0, BuildingBlock: ESEHIV_clean_linker_0, # of connection points: 3
#     Node 16, Type 1, BuildingBlock: NAHDIM_clean_sbu_0, # of connection points: 4
#     Node 17, Type 1, BuildingBlock: NAHDIM_clean_sbu_0, # of connection points: 4
#     Node 18, Type 1, BuildingBlock: NAHDIM_clean_sbu_0, # of connection points: 4
#     Node 19, Type 1, BuildingBlock: NAHDIM_clean_sbu_0, # of connection points: 4
#     Node 20, Type 1, BuildingBlock: NAHDIM_clean_sbu_0, # of connection points: 4
#     Node 21, Type 1, BuildingBlock: NAHDIM_clean_sbu_0, # of connection points: 4
#     Node 22, Type 1, BuildingBlock: NAHDIM_clean_sbu_0, # of connection points: 4
#     Node 23, Type 1, BuildingBlock: NAHDIM_clean_sbu_0, # of connection points: 4
#     Node 24, Type 1, BuildingBlock: NAHDIM_clean_sbu_0, # of connection points: 4
#     Node 25, Type 1, BuildingBlock: NAHDIM_clean_sbu_0, # of connection points: 4
#     Node 26, Type 1, BuildingBlock: NAHDIM_clean_sbu_0, # of connection points: 4
#     Node 27, Type 1, BuildingBlock: NAHDIM_clean_sbu_0, # of connection points: 4
#     Edge 28, Type (0, 1), BuildingBlock: OJICUG_clean_linker_0, # of connection points: 2
#     Edge 29, Type (0, 1), BuildingBlock: OJICUG_clean_linker_0, # of connection points: 2
#     Edge 30, Type (0, 1), BuildingBlock: OJICUG_clean_linker_0, # of connection points: 2
#     Edge 31, Type (0, 1), BuildingBlock: OJICUG_clean_linker_0, # of connection points: 2
#     Edge 32, Type (0, 1), BuildingBlock: OJICUG_clean_linker_0, # of connection points: 2
#     Edge 33, Type (0, 1), BuildingBlock: OJICUG_clean_linker_0, # of connection points: 2
#     Edge 34, Type (0, 1), BuildingBlock: OJICUG_clean_linker_0, # of connection points: 2
#     Edge 35, Type (0, 1), BuildingBlock: OJICUG_clean_linker_0, # of connection points: 2
#     Edge 36, Type (0, 1), BuildingBlock: OJICUG_clean_linker_0, # of connection points: 2
#     Edge 37, Type (0, 1), BuildingBlock: OJICUG_clean_linker_0, # of connection points: 2
#     Edge 38, Type (0, 1), BuildingBlock: OJICUG_clean_linker_0, # of connection points: 2
#     Edge 39, Type (0, 1), BuildingBlock: OJICUG_clean_linker_0, # of connection points: 2
#     Edge 40, Type (0, 1), BuildingBlock: OJICUG_clean_linker_0, # of connection points: 2
#     Edge 41, Type (0, 1), BuildingBlock: OJICUG_clean_linker_0, # of connection points: 2
#     Edge 42, Type (0, 1), BuildingBlock: OJICUG_clean_linker_0, # of connection points: 2
#     Edge 43, Type (0, 1), BuildingBlock: OJICUG_clean_linker_0, # of connection points: 2
#     Edge 44, Type (0, 1), BuildingBlock: OJICUG_clean_linker_0, # of connection points: 2
#     Edge 45, Type (0, 1), BuildingBlock: OJICUG_clean_linker_0, # of connection points: 2
#     Edge 46, Type (0, 1), BuildingBlock: OJICUG_clean_linker_0, # of connection points: 2
#     Edge 47, Type (0, 1), BuildingBlock: OJICUG_clean_linker_0, # of connection points: 2
#     Edge 48, Type (0, 1), BuildingBlock: OJICUG_clean_linker_0, # of connection points: 2
#     Edge 49, Type (0, 1), BuildingBlock: OJICUG_clean_linker_0, # of connection points: 2
#     Edge 50, Type (0, 1), BuildingBlock: OJICUG_clean_linker_0, # of connection points: 2
#     Edge 51, Type (0, 1), BuildingBlock: OJICUG_clean_linker_0, # of connection points: 2
#     Edge 52, Type (0, 1), BuildingBlock: OJICUG_clean_linker_0, # of connection points: 2
#     Edge 53, Type (0, 1), BuildingBlock: OJICUG_clean_linker_0, # of connection points: 2
#     Edge 54, Type (0, 1), BuildingBlock: OJICUG_clean_linker_0, # of connection points: 2
#     Edge 55, Type (0, 1), BuildingBlock: OJICUG_clean_linker_0, # of connection points: 2
#     Edge 56, Type (0, 1), BuildingBlock: OJICUG_clean_linker_0, # of connection points: 2
#     Edge 57, Type (0, 1), BuildingBlock: OJICUG_clean_linker_0, # of connection points: 2
#     Edge 58, Type (0, 1), BuildingBlock: OJICUG_clean_linker_0, # of connection points: 2
#     Edge 59, Type (0, 1), BuildingBlock: OJICUG_clean_linker_0, # of connection points: 2
#     Edge 60, Type (0, 1), BuildingBlock: OJICUG_clean_linker_0, # of connection points: 2
#     Edge 61, Type (0, 1), BuildingBlock: OJICUG_clean_linker_0, # of connection points: 2
#     Edge 62, Type (0, 1), BuildingBlock: OJICUG_clean_linker_0, # of connection points: 2
#     Edge 63, Type (0, 1), BuildingBlock: OJICUG_clean_linker_0, # of connection points: 2
#     Edge 64, Type (0, 1), BuildingBlock: OJICUG_clean_linker_0, # of connection points: 2
#     Edge 65, Type (0, 1), BuildingBlock: OJICUG_clean_linker_0, # of connection points: 2
#     Edge 66, Type (0, 1), BuildingBlock: OJICUG_clean_linker_0, # of connection points: 2
#     Edge 67, Type (0, 1), BuildingBlock: OJICUG_clean_linker_0, # of connection points: 2
#     Edge 68, Type (0, 1), BuildingBlock: OJICUG_clean_linker_0, # of connection points: 2
#     Edge 69, Type (0, 1), BuildingBlock: OJICUG_clean_linker_0, # of connection points: 2
#     Edge 70, Type (0, 1), BuildingBlock: OJICUG_clean_linker_0, # of connection points: 2
#     Edge 71, Type (0, 1), BuildingBlock: OJICUG_clean_linker_0, # of connection points: 2
#     Edge 72, Type (0, 1), BuildingBlock: OJICUG_clean_linker_0, # of connection points: 2
#     Edge 73, Type (0, 1), BuildingBlock: OJICUG_clean_linker_0, # of connection points: 2
#     Edge 74, Type (0, 1), BuildingBlock: OJICUG_clean_linker_0, # of connection points: 2
#     Edge 75, Type (0, 1), BuildingBlock: OJICUG_clean_linker_0, # of connection points: 2
# Relax obj value: 0.002
# Max RMSD: 0.031
# Mean RMSD: 0.018
data_MOF--net-ctn--node1-NAHDIM_clean_sbu_0--node2-ESEHIV_clean_linker_0--edge1-OJICUG_clean_linker_0
_symmetry_space_group_name_H-M    P1
_symmetry_Int_Tables_number       1
_symmetry_cell_setting            triclinic
loop_
_symmetry_equiv_pos_as_xyz
'x, y, z'
_cell_length_a     36.544478
_cell_length_b     36.87926
_cell_length_c     36.381255
_cell_angle_alpha  91.448303
_cell_angle_beta   89.966543
_cell_angle_gamma 92.611733
loop_
_atom_site_label
_atom_site_type_symbol
_atom_site_fract_x
_atom_site_fract_y
_atom_site_fract_z
_atom_type_partial_charge
H0 H 0.98553 0.07841 0.04468 0.0
H1 H 0.05472 0.99235 0.07343 0.0
H2 H 0.07961 0.05588 0.97831 0.0
C3 C 0.00929 0.06259 0.03919 0.0
C4 C 0.0315 0.07051 0.00864 0.0
C5 C 0.01749 0.0345 0.06276 0.0
C6 C 0.04831 0.01412 0.05541 0.0
C7 C 0.07094 0.02162 0.02503 0.0
C8 C 0.06232 0.04991 0.00179 0.0
H9 H 0.30723 0.66898 0.25987 0.0
H10 H 0.34124 0.76458 0.20122 0.0
H11 H 0.2525 0.69513 0.15962 0.0
C12 C 0.30408 0.6867 0.23687 0.0
C13 C 0.27715 0.678 0.21 0.0
C14 C 0.32708 0.71811 0.23409 0.0
C15 C 0.32327 0.74057 0.20391 0.0
C16 C 0.2965 0.73244 0.17709 0.0
C17 C 0.27333 0.7013 0.18034 0.0
H18 H 0.96313 0.52039 0.07246 0.0
H19 H 0.03199 0.4323 0.04482 0.0
H20 H 0.9407 0.45389 0.9755 0.0
C21 C 0.96985 0.49792 0.05432 0.0
C22 C 0.9482 0.48973 0.02299 0.0
C23 C 1.00011 0.47732 0.06249 0.0
C24 C 0.0087 0.44829 0.03873 0.0
C25 C 0.98748 0.43959 0.00725 0.0
C26 C 0.95725 0.46046 -0.00034 0.0
H27 H 0.66745 0.75593 0.18653 0.0
H28 H 0.75966 0.82161 0.14895 0.0
H29 H 0.69932 0.85591 0.24405 0.0
C30 C 0.68577 0.77975 0.18979 0.0
C31 C 0.67984 0.8053 0.21831 0.0
C32 C 0.71422 0.78582 0.16434 0.0
C33 C 0.73728 0.81718 0.16814 0.0
C34 C 0.73234 0.84232 0.19704 0.0
C35 C 0.7035 0.83629 0.22192 0.0
H36 H 0.98234 0.92698 0.45154 0.0
H37 H 0.04657 0.02326 0.42435 0.0
H38 H 0.07253 0.96444 0.52066 0.0
C39 C 0.00468 0.9465 0.45777 0.0
C40 C 0.02648 0.94211 0.48901 0.0
C41 C 0.01159 0.97573 0.43433 0.0
C42 C 0.04056 0.00096 0.44259 0.0
C43 C 0.06293 0.99663 0.47338 0.0
C44 C 0.05573 0.96724 0.49644 0.0
H45 H 0.15359 0.75419 0.82673 0.0
H46 H 0.24454 0.69283 0.85955 0.0
H47 H 0.18755 0.66477 0.75846 0.0
C48 C 0.17176 0.73219 0.82151 0.0
C49 C 0.16701 0.71007 0.78979 0.0
C50 C 0.1996 0.72607 0.84668 0.0
C51 C 0.22274 0.69736 0.8402 0.0
C52 C 0.21885 0.67533 0.8083 0.0
C53 C 0.19113 0.68205 0.78286 0.0
H54 H 0.94822 0.54003 0.53252 0.0
H55 H 0.03145 0.58343 0.4605 0.0
H56 H 0.96975 0.4848 0.42991 0.0
C57 C 0.96404 0.53791 0.50738 0.0
C58 C 0.95624 0.50904 0.48243 0.0
C59 C 0.99074 0.56503 0.49944 0.0
C60 C 0.01027 0.56284 0.46629 0.0
C61 C 0.00331 0.5337 0.44114 0.0
C62 C 0.97592 0.50702 0.44932 0.0
H63 H 0.74564 0.7954 0.83792 0.0
H64 H 0.80672 0.82847 0.74239 0.0
H65 H 0.82838 0.72765 0.79371 0.0
C66 C 0.76664 0.7904 0.81757 0.0
C67 C 0.78604 0.75851 0.81893 0.0
C68 C 0.77398 0.81586 0.79018 0.0
C69 C 0.80105 0.80902 0.76373 0.0
C70 C 0.82082 0.77719 0.76475 0.0
C71 C 0.81319 0.75217 0.79257 0.0
H72 H 0.24099 0.29354 0.33904 0.0
H73 H 0.30456 0.3264 0.24497 0.0
H74 H 0.32552 0.22628 0.29776 0.0
C75 C 0.26255 0.28859 0.31931 0.0
C76 C 0.28229 0.25694 0.32159 0.0
C77 C 0.27044 0.3139 0.29185 0.0
C78 C 0.29832 0.30706 0.26628 0.0
C79 C 0.31827 0.27542 0.26813 0.0
C80 C 0.31012 0.25061 0.29597 0.0
H81 H 0.46319 0.0212 0.57573 0.0
H82 H 0.53247 0.93357 0.54781 0.0
H83 H 0.44221 0.95609 0.4775 0.0
C84 C 0.47018 -0.00099 0.55734 0.0
C85 C 0.44898 0.99128 0.52561 0.0
C86 C 0.50027 0.97827 0.56566 0.0
C87 C 0.50929 0.94966 0.54158 0.0
C88 C 0.4886 0.94147 0.50965 0.0
C89 C 0.45842 0.96239 0.50195 0.0
H90 H 0.16924 0.25791 0.68728 0.0
H91 H 0.26324 0.323 0.653 0.0
H92 H 0.20025 0.35731 0.74624 0.0
C93 C 0.18771 0.28152 0.69123 0.0
C94 C 0.18118 0.30689 0.71976 0.0
C95 C 0.217 0.28743 0.6667 0.0
C96 C 0.24018 0.31862 0.67138 0.0
C97 C 0.23447 0.34376 0.70011 0.0
C98 C 0.20493 0.33775 0.72417 0.0
H99 H 0.80367 0.16816 0.76043 0.0
H100 H 0.83051 0.26434 0.69963 0.0
H101 H 0.74273 0.1906 0.66318 0.0
C102 C 0.79864 0.18553 0.73756 0.0
C103 C 0.77094 0.17535 0.71205 0.0
C104 C 0.8201 0.2178 0.73345 0.0
C105 C 0.81334 0.24002 0.70362 0.0
C106 C 0.78565 0.23038 0.678 0.0
C107 C 0.7646 0.19796 0.68244 0.0
H108 H 0.48897 0.58153 0.55172 0.0
H109 H 0.55795 0.49502 0.57978 0.0
H110 H 0.5829 0.5593 0.48517 0.0
C111 C 0.51271 0.56571 0.54615 0.0
C112 C 0.5349 0.57378 0.51566 0.0
C113 C 0.52086 0.53744 0.56952 0.0
C114 C 0.55161 0.51698 0.56196 0.0
C115 C 0.57419 0.52462 0.53157 0.0
C116 C 0.56564 0.55316 0.50863 0.0
H117 H 0.48173 0.42897 0.9555 0.0
H118 H 0.54974 0.52304 0.92904 0.0
H119 H 0.57019 0.46479 0.0273 0.0
C120 C 0.50435 0.448 0.96224 0.0
C121 C 0.52486 0.44344 0.99427 0.0
C122 C 0.51302 0.47667 0.93858 0.0
C123 C 0.54266 0.50103 0.9473 0.0
C124 C 0.56341 0.49686 0.97931 0.0
C125 C 0.55417 0.46816 0.00266 0.0
H126 H 0.67468 0.27287 0.31118 0.0
H127 H 0.76504 0.2103 0.34426 0.0
H128 H 0.69171 0.16901 0.2591 0.0
C129 C 0.69039 0.2487 0.30851 0.0
C130 C 0.67958 0.22134 0.28278 0.0
C131 C 0.72114 0.24487 0.33092 0.0
C132 C 0.74126 0.21349 0.32703 0.0
C133 C 0.73101 0.18615 0.30108 0.0
C134 C 0.69997 0.19012 0.27908 0.0
H135 H 0.44283 0.04387 0.03632 0.0
H136 H 0.52826 0.08303 0.96472 0.0
H137 H 0.46437 0.98543 0.93533 0.0
C138 C 0.45884 0.04052 0.01147 0.0
C139 C 0.45046 0.01124 0.98709 0.0
C140 C 0.48664 0.0665 0.00348 0.0
C141 C 0.50638 0.06318 0.9706 0.0
C142 C 0.4988 0.03381 0.9459 0.0
C143 C 0.47068 0.00795 0.95434 0.0
C144 C 0.19413 0.93157 0.9966 0.0
O145 O 0.20278 0.92206 0.96276 0.0
O146 O 0.23772 0.85185 0.97006 0.0
Zn147 Zn 0.25185 0.8844 0.01327 0.0
O148 O 0.2988 0.91219 0.00073 0.0
C149 C 0.2849 0.83206 0.05828 0.0
O150 O 0.30898 0.83238 0.03145 0.0
O151 O 0.21179 0.91901 0.02317 0.0
C152 C 0.32239 0.92218 0.025 0.0
O153 O 0.31585 0.91476 0.05958 0.0
C154 C 0.22416 0.81986 0.97413 0.0
O155 O 0.21834 0.80782 0.00739 0.0
O156 O 0.25837 0.85311 0.05719 0.0
C157 C 0.18433 0.44177 0.28572 0.0
O158 O 0.17874 0.46155 0.31556 0.0
O159 O 0.10502 0.49525 0.2987 0.0
Zn160 Zn 0.1366 0.49266 0.25316 0.0
O161 O 0.16818 0.53883 0.24929 0.0
C162 C 0.08978 0.51039 0.19157 0.0
O163 O 0.09631 0.54412 0.20307 0.0
O164 O 0.16918 0.45006 0.25583 0.0
C165 C 0.18548 0.54615 0.21988 0.0
O166 O 0.18247 0.52326 0.19166 0.0
C167 C 0.09079 0.5248 0.30849 0.0
O168 O 0.097 0.5537 0.28862 0.0
O169 O 0.104 0.48484 0.20861 0.0
C170 C 0.82481 0.5772 0.99018 0.0
O171 O 0.8167 0.5839 0.95591 0.0
O172 O 0.77703 0.65196 0.95919 0.0
Zn173 Zn 0.76382 0.62244 0.00383 0.0
O174 O 0.71844 0.59098 0.99243 0.0
C175 C 0.7419 0.6877 0.0421 0.0
O176 O 0.73699 0.69836 0.00837 0.0
O177 O 0.80571 0.59076 0.01588 0.0
C178 C 0.69321 0.58596 0.01606 0.0
O179 O 0.69735 0.60052 0.04921 0.0
C180 C 0.75252 0.65932 0.93608 0.0
O181 O 0.71859 0.64731 0.94145 0.0
O182 O 0.75368 0.65629 0.04717 0.0
C183 C 0.82674 0.0666 0.28523 0.0
O184 O 0.83135 0.0443 0.31228 0.0
O185 O 0.9097 0.01851 0.29582 0.0
Zn186 Zn 0.87861 0.02149 0.2504 0.0
O187 O 0.84728 0.97571 0.24345 0.0
C188 C 0.92546 0.00404 0.18886 0.0
O189 O 0.9189 0.97052 0.19929 0.0
O190 O 0.84484 0.06256 0.25573 0.0
C191 C 0.82953 0.96969 0.21374 0.0
O192 O 0.83272 0.99331 0.18736 0.0
C193 C 0.92259 0.98834 0.30407 0.0
O194 O 0.91518 0.95969 0.28272 0.0
O195 O 0.91112 0.0299 0.20659 0.0
C196 C 0.32489 0.07803 0.49335 0.0
O197 O 0.31588 0.08372 0.45909 0.0
O198 O 0.27332 0.14977 0.46141 0.0
Zn199 Zn 0.2623 0.12106 0.50736 0.0
O200 O 0.21842 0.08662 0.49924 0.0
C201 C 0.24678 0.18879 0.54521 0.0
O202 O 0.24904 0.20127 0.51177 0.0
O203 O 0.30593 0.09159 0.51915 0.0
C204 C 0.18591 0.09676 0.5039 0.0
O205 O 0.18064 0.13053 0.51417 0.0
C206 C 0.2488 0.15706 0.43826 0.0
O207 O 0.21495 0.1448 0.44337 0.0
O208 O 0.25182 0.15537 0.55024 0.0
C209 C 0.32277 0.56318 0.78768 0.0
O210 O 0.32419 0.53676 0.81113 0.0
O211 O 0.41082 0.52057 0.8007 0.0
Zn212 Zn 0.37959 0.52352 0.75529 0.0
O213 O 0.34875 0.47737 0.74807 0.0
C214 C 0.42701 0.50654 0.69417 0.0
O215 O 0.4205 0.473 0.70455 0.0
O216 O 0.34506 0.56407 0.76089 0.0
C217 C 0.33109 0.47143 0.71831 0.0
O218 O 0.33417 0.49526 0.69211 0.0
C219 C 0.4244 0.49053 0.80829 0.0
O220 O 0.41733 0.46212 0.78653 0.0
O221 O 0.41227 0.53233 0.71166 0.0
C222 C 0.698 0.43616 0.5004 0.0
O223 O 0.70695 0.42825 0.46624 0.0
O224 O 0.74063 0.3584 0.46977 0.0
Zn225 Zn 0.75578 0.38864 0.51435 0.0
O226 O 0.80218 0.41754 0.50229 0.0
C227 C 0.76216 0.32158 0.55366 0.0
O228 O 0.7558 0.30665 0.52101 0.0
O229 O 0.71567 0.4226 0.5264 0.0
C230 C 0.83132 0.41667 0.52122 0.0
O231 O 0.83143 0.39709 0.55087 0.0
C232 C 0.76431 0.34757 0.44692 0.0
O233 O 0.7991 0.35649 0.4526 0.0
O234 O 0.76337 0.35601 0.55741 0.0
C235 C 0.6848 0.94156 0.78864 0.0
O236 O 0.68258 0.96307 0.81783 0.0
O237 O 0.60136 0.99219 0.80479 0.0
Zn238 Zn 0.63273 0.98992 0.75902 0.0
O239 O 0.66429 0.036 0.75529 0.0
C240 C 0.58706 0.00873 0.69709 0.0
O241 O 0.59452 0.04232 0.70856 0.0
O242 O 0.6657 0.94766 0.76048 0.0
C243 C 0.68251 0.04213 0.72615 0.0
O244 O 0.68026 0.01818 0.69879 0.0
C245 C 0.58685 0.02179 0.81389 0.0
O246 O 0.59287 0.05025 0.79336 0.0
O247 O 0.60016 0.98276 0.71443 0.0
C248 C 0.99573 0.1886 0.91498 0.0
O249 O 0.96148 0.1938 0.9064 0.0
O250 O 0.96483 0.23604 0.83865 0.0
Zn251 Zn 0.00926 0.25066 0.86938 0.0
O252 O 0.99898 0.29532 0.90043 0.0
C253 C 0.05691 0.28835 0.81744 0.0
O254 O 0.03319 0.31391 0.8212 0.0
O255 O 0.02088 0.20981 0.90249 0.0
C256 C 0.02415 0.31623 0.91442 0.0
O257 O 0.05854 0.30888 0.90857 0.0
C258 C 0.94236 0.25936 0.82903 0.0
O259 O 0.94837 0.29351 0.83933 0.0
O260 O 0.0523 0.2595 0.83556 0.0
C261 C 0.49934 0.69112 0.4211 0.0
O262 O 0.46507 0.69665 0.41286 0.0
O263 O 0.46832 0.73597 0.34353 0.0
Zn264 Zn 0.5127 0.7516 0.37384 0.0
O265 O 0.50215 0.79675 0.40401 0.0
C266 C 0.55868 0.78795 0.3199 0.0
O267 O 0.53421 0.81287 0.3229 0.0
O268 O 0.5246 0.71161 0.40772 0.0
C269 C 0.52704 0.81848 0.41722 0.0
O270 O 0.56155 0.81176 0.41112 0.0
C271 C 0.44524 0.7589 0.33448 0.0
O272 O 0.4506 0.793 0.34525 0.0
O273 O 0.55533 0.75992 0.33944 0.0
C274 C 0.99616 0.82016 0.58317 0.0
O275 O 0.96232 0.80739 0.58752 0.0
O276 O 0.96418 0.76984 0.65855 0.0
Zn277 Zn 0.00969 0.76051 0.62847 0.0
O278 O 0.0022 0.71785 0.59321 0.0
C279 C 0.04648 0.74072 0.69461 0.0
O280 O 0.01273 0.73761 0.70693 0.0
O281 O 0.02203 0.80449 0.59871 0.0
C282 C 0.00786 0.68579 0.60314 0.0
O283 O 0.01702 0.68035 0.6374 0.0
C284 C 0.93786 0.74658 0.6628 0.0
O285 O 0.93935 0.71443 0.64665 0.0
O286 O 0.0521 0.7508 0.66185 0.0
C287 C 0.49244 0.32141 0.08768 0.0
O288 O 0.45852 0.30913 0.09263 0.0
O289 O 0.4634 0.26972 0.16429 0.0
Zn290 Zn 0.50845 0.26179 0.13345 0.0
O291 O 0.50203 0.21833 0.0986 0.0
C292 C 0.54991 0.23896 0.19612 0.0
O293 O 0.51829 0.224 0.20619 0.0
O294 O 0.51839 0.30553 0.10285 0.0
C295 C 0.50904 0.18627 0.10753 0.0
O296 O 0.51998 0.18038 0.14112 0.0
C297 C 0.43797 0.24566 0.16917 0.0
O298 O 0.44042 0.2134 0.15346 0.0
O299 O 0.55201 0.2564 0.16645 0.0
C300 C 0.2078 0.78787 0.87581 0.0
C301 C 0.20487 0.75006 0.8795 0.0
H302 H 0.2165 0.83968 0.90298 0.0
C303 C 0.20746 0.73534 0.91454 0.0
H304 H 0.20608 0.79978 0.84898 0.0
C305 C 0.21296 0.75811 0.94547 0.0
C306 C 0.21659 0.79593 0.94173 0.0
H307 H 0.20505 0.70623 0.91798 0.0
H308 H 0.21505 0.74604 0.97218 0.0
C309 C 0.2139 0.81061 0.90664 0.0
C310 C 0.0327 0.56217 0.3858 0.0
C311 C 0.02487 0.53113 0.40656 0.0
H312 H 0.05943 0.5845 0.33861 0.0
C313 C 0.03844 0.49782 0.39448 0.0
H314 H 0.02229 0.58815 0.39414 0.0
C315 C 0.05975 0.49569 0.3626 0.0
C316 C 0.06781 0.5268 0.342 0.0
H317 H 0.0332 0.47349 0.41008 0.0
H318 H 0.07005 0.46967 0.35424 0.0
C319 C 0.05386 0.56002 0.35387 0.0
C320 C 0.74128 0.72114 0.85582 0.0
C321 C 0.77774 0.73189 0.84797 0.0
H322 H 0.70476 0.68953 0.88949 0.0
C323 C 0.80605 0.71765 0.8685 0.0
H324 H 0.71895 0.7314 0.84014 0.0
C325 C 0.79796 0.69375 0.89693 0.0
C326 C 0.76142 0.68336 0.90509 0.0
H327 H 0.8344 0.72567 0.86313 0.0
H328 H 0.82032 0.68364 0.91267 0.0
C329 C 0.7332 0.69701 0.88396 0.0
C330 C 0.97987 0.94858 0.37839 0.0
C331 C 0.98902 0.97925 0.40079 0.0
H332 H 0.95191 0.9274 0.33035 0.0
C333 C 0.97639 0.01311 0.39098 0.0
H334 H 0.98964 0.9222 0.38493 0.0
C335 C 0.95478 0.01614 0.35958 0.0
C336 C 0.94553 0.98539 0.33727 0.0
H337 H 0.98276 0.03717 0.40787 0.0
H338 H 0.94529 0.04257 0.35286 0.0
C339 C 0.95841 0.95161 0.34698 0.0
C340 C 0.23028 0.2749 0.60028 0.0
C341 C 0.22325 0.26169 0.63558 0.0
H342 H 0.24304 0.26234 0.54423 0.0
C343 C 0.22329 0.22409 0.64096 0.0
H344 H 0.23 0.30371 0.59523 0.0
C345 C 0.23099 0.20025 0.61168 0.0
C346 C 0.23838 0.21358 0.57642 0.0
H347 H 0.21816 0.21322 0.66795 0.0
H348 H 0.2312 0.17143 0.61668 0.0
C349 C 0.23763 0.25114 0.57103 0.0
C350 C 0.48363 0.55777 0.62357 0.0
C351 C 0.49717 0.52937 0.60176 0.0
H352 H 0.45092 0.57289 0.66972 0.0
C353 C 0.48764 0.49332 0.61081 0.0
H354 H 0.49091 0.58583 0.6177 0.0
C355 C 0.46496 0.48587 0.64089 0.0
C356 C 0.45123 0.51431 0.66248 0.0
H357 H 0.49723 0.47083 0.59429 0.0
H358 H 0.45797 0.45781 0.64701 0.0
C359 C 0.46085 0.55034 0.65351 0.0
C360 C 0.78001 0.29187 0.65081 0.0
C361 C 0.77921 0.25386 0.64625 0.0
H362 H 0.7752 0.3431 0.62525 0.0
C363 C 0.77261 0.2384 0.61104 0.0
H364 H 0.78461 0.3046 0.67767 0.0
C365 C 0.76702 0.26042 0.58107 0.0
C366 C 0.76792 0.29842 0.58559 0.0
H367 H 0.77233 0.20925 0.6065 0.0
H368 H 0.76217 0.24758 0.55431 0.0
C369 C 0.77443 0.31392 0.62081 0.0
C370 C 0.5315 0.02223 0.61085 0.0
C371 C 0.52213 0.98623 0.59963 0.0
H372 H 0.55931 0.05761 0.65034 0.0
C373 C 0.53391 0.95778 0.62106 0.0
H374 H 0.52323 0.04477 0.59475 0.0
C375 C 0.55482 0.96511 0.65274 0.0
C376 C 0.56436 0.00109 0.66384 0.0
H377 H 0.52668 0.92976 0.61355 0.0
H378 H 0.56345 0.94251 0.66853 0.0
C379 C 0.55234 0.02958 0.64263 0.0
C380 C 0.87432 0.20189 0.77129 0.0
C381 C 0.85035 0.228 0.75952 0.0
H382 H 0.92223 0.19127 0.80234 0.0
C383 C 0.85627 0.26425 0.77176 0.0
H384 H 0.87074 0.17381 0.76202 0.0
C385 C 0.88588 0.27431 0.79466 0.0
C386 C 0.91027 0.24836 0.80585 0.0
H387 H 0.838 0.28492 0.76358 0.0
H388 H 0.88978 0.30254 0.80331 0.0
C389 C 0.90398 0.21196 0.79419 0.0
C390 C 0.47097 0.88663 0.46991 0.0
C391 C 0.49834 0.9107 0.48478 0.0
H392 H 0.45848 0.83871 0.43704 0.0
C393 C 0.53519 0.90464 0.47645 0.0
H394 H 0.44235 0.89025 0.4761 0.0
C395 C 0.54449 0.87493 0.45427 0.0
C396 C 0.51715 0.85058 0.43985 0.0
H397 H 0.55693 0.92296 0.48699 0.0
H398 H 0.57315 0.87099 0.4486 0.0
C399 C 0.48026 0.85693 0.4477 0.0
C400 C 0.12677 0.33102 0.75268 0.0
C401 C 0.14911 0.30185 0.74447 0.0
H402 H 0.08008 0.34961 0.78192 0.0
C403 C 0.14076 0.2681 0.76023 0.0
H404 H 0.1323 0.35725 0.74059 0.0
C405 C 0.11092 0.26374 0.78407 0.0
C406 C 0.08858 0.29295 0.79231 0.0
H407 H 0.15765 0.24522 0.75458 0.0
H408 H 0.10532 0.23743 0.79594 0.0
C409 C 0.09675 0.32658 0.77621 0.0
C410 C 0.55356 0.62786 0.47824 0.0
C411 C 0.52586 0.60375 0.49119 0.0
H412 H 0.56695 0.6744 0.4461 0.0
C413 C 0.48939 0.60863 0.48083 0.0
H414 H 0.58186 0.62512 0.4861 0.0
C415 C 0.48078 0.63704 0.45817 0.0
C416 C 0.50847 0.66116 0.44526 0.0
H417 H 0.46748 0.59022 0.48992 0.0
H418 H 0.45241 0.63995 0.45064 0.0
C419 C 0.54496 0.65623 0.4555 0.0
C420 C 0.85203 0.73525 0.72068 0.0
C421 C 0.84969 0.76998 0.73709 0.0
H422 H 0.88142 0.70069 0.6842 0.0
C423 C 0.87579 0.79738 0.72778 0.0
H424 H 0.83204 0.7137 0.72698 0.0
C425 C 0.90416 0.78994 0.70328 0.0
C426 C 0.90687 0.75499 0.68738 0.0
H427 H 0.87485 0.82433 0.74019 0.0
H428 H 0.92419 0.81149 0.69716 0.0
C429 C 0.88023 0.72786 0.69603 0.0
C430 C 0.0476 0.89213 0.52843 0.0
C431 C 0.01878 0.91119 0.5137 0.0
H432 H 0.0631 0.84851 0.56195 0.0
C433 C 0.98252 0.90037 0.52254 0.0
H434 H 0.07582 0.89946 0.5218 0.0
C435 C 0.97522 0.87094 0.54523 0.0
C436 C 0.00402 0.85178 0.55978 0.0
H437 H 0.95972 0.91484 0.51216 0.0
H438 H 0.94696 0.86327 0.55141 0.0
C439 C 0.0403 0.8628 0.5513 0.0
C440 C 0.10077 0.71959 0.77917 0.0
C441 C 0.13612 0.71609 0.76475 0.0
H442 H 0.04481 0.72995 0.76832 0.0
C443 C 0.14181 0.7199 0.72686 0.0
H444 H 0.09564 0.71645 0.80828 0.0
C445 C 0.11272 0.72803 0.70392 0.0
C446 C 0.0774 0.73196 0.71848 0.0
H447 H 0.16889 0.71748 0.71517 0.0
H448 H 0.1179 0.73125 0.67484 0.0
C449 C 0.07168 0.72725 0.75627 0.0
C450 C 0.00102 0.58994 0.56338 0.0
C451 C 0.99722 0.59602 0.52564 0.0
H452 H 0.0075 0.61352 0.61742 0.0
C453 C 0.99768 0.63184 0.5134 0.0
H454 H 0.00097 0.56255 0.57348 0.0
C455 C 0.00105 0.66107 0.53858 0.0
C456 C 0.00446 0.65498 0.5764 0.0
H457 H 0.99445 0.63723 0.48448 0.0
H458 H 0.00091 0.6884 0.52839 0.0
C459 C 0.0048 0.61912 0.58849 0.0
C460 C 0.7662 0.89633 0.17083 0.0
C461 C 0.75733 0.87491 0.20123 0.0
H462 H 0.79583 0.94326 0.15097 0.0
C463 C 0.77258 0.88469 0.23568 0.0
H464 H 0.75459 0.8895 0.14401 0.0
C465 C 0.79635 0.91527 0.23966 0.0
C466 C 0.80501 0.9369 0.20932 0.0
H467 H 0.76645 0.86843 0.25949 0.0
H468 H 0.80769 0.92209 0.26658 0.0
C469 C 0.78967 0.92715 0.17486 0.0
C470 C 0.76394 0.13488 0.32759 0.0
C471 C 0.75347 0.15398 0.29668 0.0
H472 H 0.7951 0.09203 0.34817 0.0
C473 C 0.76629 0.14346 0.26182 0.0
H474 H 0.75422 0.1424 0.35475 0.0
C475 C 0.79002 0.11495 0.25806 0.0
C476 C 0.80094 0.09614 0.28907 0.0
H477 H 0.75881 0.15798 0.23762 0.0
H478 H 0.79993 0.10777 0.2309 0.0
C479 C 0.78725 0.10605 0.3238 0.0
C480 C 0.39348 0.97453 0.96877 0.0
C481 C 0.41956 0.98529 0.99572 0.0
H482 H 0.3422 0.94628 0.95686 0.0
C483 C 0.41441 0.97332 0.03183 0.0
H484 H 0.39651 0.98357 0.94079 0.0
C485 C 0.38319 0.95231 0.04115 0.0
C486 C 0.35644 0.94265 0.01453 0.0
H487 H 0.43431 0.98069 0.0531 0.0
H488 H 0.37981 0.94412 0.06937 0.0
C489 C 0.36223 0.95341 0.97808 0.0
C490 C 0.23609 0.35896 0.25624 0.0
C491 C 0.24939 0.34736 0.29001 0.0
H492 H 0.20498 0.3977 0.22837 0.0
C493 C 0.24182 0.36754 0.3222 0.0
H494 H 0.24121 0.3438 0.23101 0.0
C495 C 0.22108 0.3984 0.32074 0.0
C496 C 0.20726 0.40969 0.28706 0.0
H497 H 0.25208 0.35954 0.34858 0.0
H498 H 0.21562 0.4132 0.3461 0.0
C499 C 0.21516 0.38972 0.25479 0.0
C500 C 0.08965 0.05996 0.4825 0.0
C501 C 0.09435 0.02238 0.48119 0.0
H502 H 0.11492 0.113 0.49129 0.0
C503 C 0.12927 0.0094 0.48749 0.0
H504 H 0.06291 0.07056 0.4779 0.0
C505 C 0.15907 0.03359 0.4947 0.0
C506 C 0.15437 0.07119 0.49636 0.0
H507 H 0.13359 0.98052 0.48639 0.0
H508 H 0.18573 0.0228 0.49926 0.0
C509 C 0.11934 0.08415 0.49035 0.0
C510 C 0.73362 0.13145 0.75013 0.0
C511 C 0.74873 0.14096 0.71598 0.0
H512 H 0.70055 0.09293 0.78009 0.0
C513 C 0.7422 0.11755 0.68538 0.0
H514 H 0.73798 0.14912 0.77411 0.0
C515 C 0.72095 0.08536 0.68878 0.0
C516 C 0.70547 0.076 0.72281 0.0
H517 H 0.75381 0.12402 0.6588 0.0
H518 H 0.71644 0.06795 0.66463 0.0
C519 C 0.71204 0.09939 0.75347 0.0
C520 C 0.39359 0.02488 0.54561 0.0
C521 C 0.41699 0.01337 0.51731 0.0
H522 H 0.34634 0.05428 0.56034 0.0
C523 C 0.4097 0.02335 0.48107 0.0
H524 H 0.39799 0.01723 0.57375 0.0
C525 C 0.3798 0.04426 0.47334 0.0
C526 C 0.35657 0.05588 0.50167 0.0
H527 H 0.42742 0.01545 0.45867 0.0
H528 H 0.3751 0.05153 0.44513 0.0
C529 C 0.36382 0.04598 0.5379 0.0
C530 C 0.62899 0.49163 0.55221 0.0
C531 C 0.60645 0.50256 0.52358 0.0
H532 H 0.67558 0.46222 0.5674 0.0
C533 C 0.61473 0.49194 0.48724 0.0
H534 H 0.62371 0.4998 0.58045 0.0
C535 C 0.64469 0.47075 0.47973 0.0
C536 C 0.66696 0.45952 0.50839 0.0
H537 H 0.59765 0.49942 0.46459 0.0
H538 H 0.65007 0.46279 0.45145 0.0
C539 C 0.65886 0.47027 0.54471 0.0
C540 C 0.70545 0.28817 0.38203 0.0
C541 C 0.73194 0.27309 0.35902 0.0
H542 H 0.69489 0.32356 0.4279 0.0
C543 C 0.76897 0.28402 0.36402 0.0
H544 H 0.67674 0.28001 0.37901 0.0
C545 C 0.77942 0.30884 0.39209 0.0
C546 C 0.75304 0.32317 0.41576 0.0
H547 H 0.78992 0.2732 0.34634 0.0
H548 H 0.80824 0.31632 0.39555 0.0
C549 C 0.7159 0.31295 0.41016 0.0
C550 C 0.52875 0.06089 0.89023 0.0
C551 C 0.52044 0.0303 0.91147 0.0
H552 H 0.55598 0.08218 0.84286 0.0
C553 C 0.53366 0.99662 0.90003 0.0
H554 H 0.51861 0.08713 0.89807 0.0
C555 C 0.55518 0.99375 0.86832 0.0
C556 C 0.56373 0.02446 0.84727 0.0
H557 H 0.528 0.97262 0.916 0.0
H558 H 0.56523 0.9675 0.86043 0.0
C559 C 0.55006 0.058 0.85848 0.0
C560 C 0.23745 0.21934 0.3583 0.0
C561 C 0.27388 0.23054 0.35083 0.0
H562 H 0.20101 0.18703 0.39142 0.0
C563 C 0.30216 0.21661 0.37165 0.0
H564 H 0.21515 0.22935 0.3424 0.0
C565 C 0.29412 0.19242 0.39982 0.0
C566 C 0.25763 0.18144 0.4075 0.0
H567 H 0.33049 0.22499 0.36662 0.0
H568 H 0.31647 0.18253 0.41572 0.0
C569 C 0.22942 0.19492 0.38622 0.0
C570 C 0.48177 0.45013 0.88216 0.0
C571 C 0.49127 0.48067 0.9046 0.0
H572 H 0.4534 0.4293 0.83422 0.0
C573 C 0.47918 0.51473 0.89478 0.0
H574 H 0.4911 0.42359 0.88876 0.0
C575 C 0.45748 0.51805 0.86347 0.0
C576 C 0.44769 0.48739 0.84124 0.0
H577 H 0.48586 0.53869 0.91172 0.0
H578 H 0.44828 0.5446 0.8568 0.0
C579 C 0.46029 0.45345 0.85081 0.0
C580 C 0.72297 0.72286 0.13893 0.0
C581 C 0.71973 0.76009 0.13314 0.0
H582 H 0.73314 0.67066 0.11465 0.0
C583 C 0.72313 0.77309 0.0973 0.0
H584 H 0.72063 0.71226 0.16637 0.0
C585 C 0.72993 0.74943 0.06781 0.0
C586 C 0.73401 0.71231 0.07356 0.0
H587 H 0.7205 0.80166 0.0921 0.0
H588 H 0.73252 0.7604 0.04054 0.0
C589 C 0.73037 0.69919 0.10942 0.0
C590 C 0.98468 0.99056 0.10453 0.0
C591 C 0.99394 0.02658 0.09515 0.0
H592 H 0.95578 0.95517 0.14141 0.0
C593 C 0.98057 0.05506 0.11695 0.0
H594 H 0.99414 0.96801 0.08801 0.0
C595 C 0.95833 0.04772 0.14733 0.0
C596 C 0.94908 0.01171 0.1567 0.0
H597 H 0.98765 0.0831 0.11082 0.0
H598 H 0.94857 0.07032 0.16357 0.0
C599 C 0.96253 0.98321 0.13502 0.0
C600 C 0.25944 0.77201 0.13813 0.0
C601 C 0.29303 0.75684 0.14578 0.0
H602 H 0.23068 0.80834 0.10474 0.0
C603 C 0.32383 0.76631 0.12438 0.0
H604 H 0.23541 0.76526 0.15448 0.0
C605 C 0.32112 0.79058 0.09577 0.0
C606 C 0.28771 0.80635 0.0885 0.0
H607 H 0.35001 0.75484 0.12979 0.0
H608 H 0.34531 0.79737 0.07968 0.0
C609 C 0.25687 0.79683 0.10993 0.0
C610 C 0.03536 0.45794 0.11739 0.0
C611 C 0.02271 0.48595 0.09589 0.0
H612 H 0.0663 0.44362 0.16431 0.0
C613 C 0.03201 0.52217 0.10642 0.0
H614 H 0.02821 0.42978 0.11045 0.0
C615 C 0.05359 0.53014 0.13759 0.0
C616 C 0.06647 0.50209 0.15885 0.0
H617 H 0.02312 0.54439 0.09024 0.0
H618 H 0.06045 0.55831 0.14479 0.0
C619 C 0.05704 0.4659 0.14843 0.0
C620 C 0.36075 0.76375 0.27514 0.0
C621 C 0.35557 0.72767 0.26215 0.0
H622 H 0.3929 0.80184 0.30818 0.0
C623 C 0.37898 0.70144 0.27467 0.0
H624 H 0.34279 0.78446 0.26637 0.0
C625 C 0.40778 0.71139 0.29872 0.0
C626 C 0.41359 0.74774 0.3108 0.0
H627 H 0.37578 0.67347 0.26494 0.0
H628 H 0.42586 0.69072 0.30728 0.0
C629 C 0.3894 0.77367 0.2992 0.0
C630 C 0.03352 0.40213 0.97393 0.0
C631 C 0.9968 0.40849 0.9826 0.0
H632 H 0.07094 0.36821 0.94567 0.0
C633 C 0.96913 0.38456 0.96805 0.0
H634 H 0.05549 0.42033 0.98419 0.0
C635 C 0.97798 0.35481 0.94569 0.0
C636 C 0.01473 0.34823 0.93743 0.0
H637 H 0.94061 0.38837 0.97452 0.0
H638 H 0.95598 0.33676 0.93523 0.0
C639 C 0.04238 0.37233 0.95166 0.0
C640 C 0.64103 0.76706 0.26073 0.0
C641 C 0.64846 0.80043 0.24388 0.0
H642 H 0.6071 0.73703 0.29835 0.0
C643 C 0.62598 0.82952 0.25198 0.0
H644 H 0.65806 0.74427 0.25514 0.0
C645 C 0.59676 0.8254 0.27651 0.0
C646 C 0.58957 0.79219 0.29377 0.0
H647 H 0.63084 0.85545 0.23907 0.0
H648 H 0.57997 0.84835 0.28212 0.0
C649 C 0.61201 0.76304 0.28562 0.0
C650 C 0.05013 0.12468 0.97128 0.0
C651 C 0.02247 0.10045 0.98409 0.0
H652 H 0.06343 0.17156 0.93959 0.0
C653 C 0.98599 0.10533 0.97373 0.0
H654 H 0.07844 0.12193 0.97913 0.0
C655 C 0.97734 0.13393 0.9513 0.0
C656 C 0.00496 0.15826 0.93866 0.0
H657 H 0.9641 0.08684 0.98271 0.0
H658 H 0.94896 0.13687 0.94385 0.0
C659 C 0.04148 0.15326 0.94881 0.0
C660 C 0.37392 0.29594 0.23242 0.0
C661 C 0.34798 0.26829 0.2414 0.0
H662 H 0.42274 0.31049 0.20272 0.0
C663 C 0.35126 0.23342 0.22556 0.0
H664 H 0.3723 0.32299 0.24444 0.0
C665 C 0.38016 0.2262 0.2017 0.0
C666 C 0.40653 0.25366 0.19328 0.0
H667 H 0.33142 0.21167 0.23161 0.0
H668 H 0.38203 0.19897 0.1902 0.0
C669 C 0.40294 0.28869 0.20869 0.0
C670 C 0.54478 0.39293 0.03339 0.0
C671 C 0.51634 0.41237 0.0185 0.0
H672 H 0.55957 0.34913 0.06688 0.0
C673 C 0.47988 0.40173 0.02672 0.0
H674 H 0.57314 0.40002 0.02712 0.0
C675 C 0.47205 0.37223 0.04927 0.0
C676 C 0.50054 0.35287 0.06415 0.0
H677 H 0.45737 0.41641 0.01602 0.0
H678 H 0.44368 0.36472 0.0551 0.0
C679 C 0.53697 0.3636 0.05603 0.0
C680 C 0.64447 0.25525 0.23713 0.0
C681 C 0.64669 0.22542 0.26006 0.0
H682 H 0.6121 0.28265 0.19841 0.0
C683 C 0.61702 0.20004 0.26193 0.0
H684 H 0.66714 0.27512 0.23535 0.0
C685 C 0.58527 0.20471 0.2415 0.0
C686 C 0.5831 0.23441 0.21827 0.0
H687 H 0.61819 0.17695 0.27966 0.0
H688 H 0.56264 0.18486 0.24355 0.0
C689 C 0.61309 0.25949 0.21605 0.0
C690 C 0.4956 0.13316 0.0176 0.0
C691 C 0.49442 0.09726 0.02963 0.0
H692 H 0.50065 0.18964 0.03294 0.0
C693 C 0.49896 0.09083 0.0672 0.0
H694 H 0.4919 0.13878 0.98879 0.0
C695 C 0.50419 0.11977 0.09238 0.0
C696 C 0.5045 0.15576 0.08057 0.0
H697 H 0.49834 0.06334 0.0771 0.0
H698 H 0.50739 0.11391 0.1212 0.0
C699 C 0.50033 0.16219 0.04289 0.0
C700 C 0.27389 0.38631 0.7395 0.0
C701 C 0.2593 0.37642 0.70479 0.0
H702 H 0.3084 0.42387 0.77093 0.0
C703 C 0.26869 0.39781 0.6745 0.0
H704 H 0.26731 0.37009 0.76323 0.0
C705 C 0.29202 0.42869 0.67889 0.0
C706 C 0.30674 0.43854 0.71358 0.0
H707 H 0.25759 0.39091 0.64748 0.0
H708 H 0.29858 0.44477 0.65506 0.0
C709 C 0.29756 0.41695 0.74382 0.0
C710 C 0.26267 0.64172 0.76851 0.0
C711 C 0.24397 0.64543 0.80201 0.0
H712 H 0.30276 0.61304 0.73783 0.0
C713 C 0.25071 0.62143 0.83036 0.0
H714 H 0.25811 0.66006 0.74635 0.0
C715 C 0.27601 0.59449 0.8255 0.0
C716 C 0.29543 0.59127 0.79234 0.0
H717 H 0.23644 0.6236 0.85638 0.0
H718 H 0.28072 0.57655 0.84796 0.0
C719 C 0.28839 0.61502 0.76379 0.0
C720 C 0.89767 0.47498 0.46545 0.0
C721 C 0.92618 0.48227 0.49077 0.0
H722 H 0.84502 0.44877 0.45539 0.0
C723 C 0.9242 0.46632 0.52542 0.0
H724 H 0.89844 0.48722 0.43869 0.0
C725 C 0.89379 0.44424 0.53497 0.0
C726 C 0.86454 0.4381 0.51024 0.0
H727 H 0.94595 0.47146 0.54535 0.0
H728 H 0.89279 0.43282 0.56211 0.0
C729 C 0.867 0.45326 0.47517 0.0
C730 C 0.73698 0.86001 0.75634 0.0
C731 C 0.75283 0.84923 0.78925 0.0
H732 H 0.70277 0.89743 0.73037 0.0
C733 C 0.74706 0.86969 0.82169 0.0
H734 H 0.74074 0.84458 0.731 0.0
C735 C 0.72544 0.89997 0.82138 0.0
C736 C 0.70882 0.91027 0.78867 0.0
H737 H 0.75924 0.86219 0.84739 0.0
H738 H 0.72132 0.91496 0.84692 0.0
C739 C 0.71504 0.89011 0.75608 0.0
C740 C 0.62175 0.53011 0.961 0.0
C741 C 0.59558 0.52155 0.98809 0.0
H742 H 0.67332 0.55691 0.94861 0.0
C743 C 0.60129 0.53515 0.02416 0.0
H744 H 0.61823 0.5197 0.93305 0.0
C745 C 0.63282 0.55632 0.03314 0.0
C746 C 0.65944 0.56422 0.00626 0.0
H747 H 0.58139 0.52928 0.04553 0.0
H748 H 0.63648 0.56615 0.06126 0.0
C749 C 0.65342 0.55115 0.97001 0.0
C750 C 0.24674 0.62179 0.18139 0.0
C751 C 0.25339 0.64437 0.2126 0.0
H752 H 0.22033 0.57307 0.15924 0.0
C753 C 0.23739 0.63447 0.24624 0.0
H754 H 0.259 0.62849 0.15517 0.0
C755 C 0.21515 0.60271 0.2486 0.0
C756 C 0.20868 0.58001 0.21741 0.0
H757 H 0.24173 0.6515 0.27068 0.0
H758 H 0.20318 0.5959 0.27491 0.0
C759 C 0.22474 0.58992 0.18379 0.0
C760 C 0.90892 0.52148 0.97826 0.0
C761 C 0.91626 0.51185 0.01459 0.0
H762 H 0.87446 0.54954 0.9421 0.0
C763 C 0.89301 0.52373 0.04283 0.0
H764 H 0.92653 0.51327 0.9559 0.0
C765 C 0.86331 0.54489 0.03497 0.0
C766 C 0.85606 0.55454 -0.00136 0.0
H767 H 0.89751 0.51638 0.07105 0.0
H768 H 0.84598 0.55357 0.05738 0.0
C769 C 0.87915 0.54249 0.97038 0.0
C770 C 0.12576 0.98929 0.04653 0.0
C771 C 0.10334 -0.00038 0.01754 0.0
H772 H 0.17197 0.95985 0.0627 0.0
C773 C 0.11167 0.98812 0.98148 0.0
H774 H 0.12047 0.99817 0.07455 0.0
C775 C 0.14143 0.96642 0.97463 0.0
C776 C 0.16344 0.95563 0.00371 0.0
H777 H 0.09471 0.99522 0.95858 0.0
H778 H 0.1468 0.95768 0.94658 0.0
C779 C 0.15541 0.96749 0.0397 0.0
loop_
_geom_bond_atom_site_label_1
_geom_bond_atom_site_label_2
_geom_bond_distance
_geom_bond_site_symmetry_2
_ccdc_geom_bond_type
H0 C3 0.931 1_655 S
H1 C6 0.935 . S
H2 C8 0.930 1_556 S
C3 H0 0.931 1_455 S
C3 C4 1.413 . S
C3 C5 1.360 . S
C4 C3 1.413 . S
C4 C8 1.429 . S
C5 C3 1.360 . S
C5 C6 1.372 . S
C6 H1 0.935 . S
C6 C5 1.372 . S
C6 C7 1.404 . S
C7 C6 1.404 . S
C7 C8 1.391 . S
C8 H2 0.930 1_554 S
C8 C4 1.429 . S
C8 C7 1.391 . S
H9 C12 0.931 . S
H10 C15 0.928 . S
H11 C17 0.930 . S
C12 H9 0.931 . S
C12 C13 1.413 . S
C12 C14 1.360 . S
C13 C12 1.413 . S
C13 C17 1.429 . S
C14 C12 1.360 . S
C14 C15 1.372 . S
C15 H10 0.928 . S
C15 C14 1.372 . S
C15 C16 1.404 . S
C16 C15 1.404 . S
C16 C17 1.391 . S
C17 H11 0.930 . S
C17 C13 1.429 . S
C17 C16 1.391 . S
H18 C21 0.931 . S
H19 C24 0.928 1_455 S
H20 C26 0.930 1_556 S
C21 H18 0.931 . S
C21 C22 1.413 . S
C21 C23 1.360 . S
C22 C21 1.413 . S
C22 C26 1.429 . S
C23 C21 1.360 . S
C23 C24 1.372 . S
C24 H19 0.928 1_655 S
C24 C23 1.372 . S
C24 C25 1.404 . S
C25 C24 1.404 . S
C25 C26 1.391 . S
C26 H20 0.930 1_554 S
C26 C22 1.429 . S
C26 C25 1.391 . S
H27 C30 0.931 . S
H28 C33 0.928 . S
H29 C35 0.930 . S
C30 H27 0.931 . S
C30 C31 1.413 . S
C30 C32 1.360 . S
C31 C30 1.413 . S
C31 C35 1.429 . S
C32 C30 1.360 . S
C32 C33 1.372 . S
C33 H28 0.928 . S
C33 C32 1.372 . S
C33 C34 1.404 . S
C34 C33 1.404 . S
C34 C35 1.391 . S
C35 H29 0.930 . S
C35 C31 1.429 . S
C35 C34 1.391 . S
H36 C39 0.931 1_655 S
H37 C42 0.928 . S
H38 C44 0.930 . S
C39 H36 0.931 1_455 S
C39 C40 1.413 . S
C39 C41 1.360 . S
C40 C39 1.413 . S
C40 C44 1.429 . S
C41 C39 1.360 . S
C41 C42 1.372 1_565 S
C42 H37 0.928 . S
C42 C41 1.372 1_545 S
C42 C43 1.404 1_545 S
C43 C42 1.404 1_565 S
C43 C44 1.391 . S
C44 H38 0.930 . S
C44 C40 1.429 . S
C44 C43 1.391 . S
H45 C48 0.931 . S
H46 C51 0.928 . S
H47 C53 0.930 . S
C48 H45 0.931 . S
C48 C49 1.413 . S
C48 C50 1.360 . S
C49 C48 1.413 . S
C49 C53 1.429 . S
C50 C48 1.360 . S
C50 C51 1.372 . S
C51 H46 0.928 . S
C51 C50 1.372 . S
C51 C52 1.404 . S
C52 C51 1.404 . S
C52 C53 1.391 . S
C53 H47 0.930 . S
C53 C49 1.429 . S
C53 C52 1.391 . S
H54 C57 0.931 . S
H55 C60 0.928 1_455 S
H56 C62 0.930 . S
C57 H54 0.931 . S
C57 C58 1.413 . S
C57 C59 1.360 . S
C58 C57 1.413 . S
C58 C62 1.429 . S
C59 C57 1.360 . S
C59 C60 1.372 . S
C60 H55 0.928 1_655 S
C60 C59 1.372 . S
C60 C61 1.404 . S
C61 C60 1.404 . S
C61 C62 1.391 . S
C62 H56 0.930 . S
C62 C58 1.429 . S
C62 C61 1.391 . S
H63 C66 0.931 . S
H64 C69 0.928 . S
H65 C71 0.930 . S
C66 H63 0.931 . S
C66 C67 1.413 . S
C66 C68 1.360 . S
C67 C66 1.413 . S
C67 C71 1.429 . S
C68 C66 1.360 . S
C68 C69 1.372 . S
C69 H64 0.928 . S
C69 C68 1.372 . S
C69 C70 1.404 . S
C70 C69 1.404 . S
C70 C71 1.391 . S
C71 H65 0.930 . S
C71 C67 1.429 . S
C71 C70 1.391 . S
H72 C75 0.931 . S
H73 C78 0.928 . S
H74 C80 0.930 . S
C75 H72 0.931 . S
C75 C76 1.413 . S
C75 C77 1.360 . S
C76 C75 1.413 . S
C76 C80 1.429 . S
C77 C75 1.360 . S
C77 C78 1.372 . S
C78 H73 0.928 . S
C78 C77 1.372 . S
C78 C79 1.404 . S
C79 C78 1.404 . S
C79 C80 1.391 . S
C80 H74 0.930 . S
C80 C76 1.429 . S
C80 C79 1.391 . S
H81 C84 0.931 1_545 S
H82 C87 0.928 . S
H83 C89 0.930 . S
C84 H81 0.931 1_565 S
C84 C85 1.413 . S
C84 C86 1.360 . S
C85 C84 1.413 . S
C85 C89 1.429 . S
C86 C84 1.360 . S
C86 C87 1.372 . S
C87 H82 0.928 . S
C87 C86 1.372 . S
C87 C88 1.404 . S
C88 C87 1.404 . S
C88 C89 1.391 . S
C89 H83 0.930 . S
C89 C85 1.429 . S
C89 C88 1.391 . S
H90 C93 0.931 . S
H91 C96 0.928 . S
H92 C98 0.930 . S
C93 H90 0.931 . S
C93 C94 1.413 . S
C93 C95 1.360 . S
C94 C93 1.413 . S
C94 C98 1.429 . S
C95 C93 1.360 . S
C95 C96 1.372 . S
C96 H91 0.928 . S
C96 C95 1.372 . S
C96 C97 1.404 . S
C97 C96 1.404 . S
C97 C98 1.391 . S
C98 H92 0.930 . S
C98 C94 1.429 . S
C98 C97 1.391 . S
H99 C102 0.931 . S
H100 C105 0.928 . S
H101 C107 0.930 . S
C102 H99 0.931 . S
C102 C103 1.413 . S
C102 C104 1.360 . S
C103 C102 1.413 . S
C103 C107 1.429 . S
C104 C102 1.360 . S
C104 C105 1.372 . S
C105 H100 0.928 . S
C105 C104 1.372 . S
C105 C106 1.404 . S
C106 C105 1.404 . S
C106 C107 1.391 . S
C107 H101 0.930 . S
C107 C103 1.429 . S
C107 C106 1.391 . S
H108 C111 0.931 . S
H109 C114 0.928 . S
H110 C116 0.930 . S
C111 H108 0.931 . S
C111 C112 1.413 . S
C111 C113 1.360 . S
C112 C111 1.413 . S
C112 C116 1.429 . S
C113 C111 1.360 . S
C113 C114 1.372 . S
C114 H109 0.928 . S
C114 C113 1.372 . S
C114 C115 1.404 . S
C115 C114 1.404 . S
C115 C116 1.391 . S
C116 H110 0.930 . S
C116 C112 1.429 . S
C116 C115 1.391 . S
H117 C120 0.931 . S
H118 C123 0.928 . S
H119 C125 0.930 1_554 S
C120 H117 0.931 . S
C120 C121 1.413 . S
C120 C122 1.360 . S
C121 C120 1.413 . S
C121 C125 1.429 . S
C122 C120 1.360 . S
C122 C123 1.372 . S
C123 H118 0.928 . S
C123 C122 1.372 . S
C123 C124 1.404 . S
C124 C123 1.404 . S
C124 C125 1.391 . S
C125 H119 0.930 1_556 S
C125 C121 1.429 . S
C125 C124 1.391 . S
H126 C129 0.931 . S
H127 C132 0.928 . S
H128 C134 0.930 . S
C129 H126 0.931 . S
C129 C130 1.413 . S
C129 C131 1.360 . S
C130 C129 1.413 . S
C130 C134 1.429 . S
C131 C129 1.360 . S
C131 C132 1.372 . S
C132 H127 0.928 . S
C132 C131 1.372 . S
C132 C133 1.404 . S
C133 C132 1.404 . S
C133 C134 1.391 . S
C134 H128 0.930 . S
C134 C130 1.429 . S
C134 C133 1.391 . S
H135 C138 0.931 1_554 S
H136 C141 0.928 . S
H137 C143 0.930 1_565 S
C138 H135 0.931 1_556 S
C138 C139 1.413 . S
C138 C140 1.360 . S
C139 C138 1.413 . S
C139 C143 1.429 . S
C140 C138 1.360 . S
C140 C141 1.372 . S
C141 H136 0.928 . S
C141 C140 1.372 . S
C141 C142 1.404 . S
C142 C141 1.404 . S
C142 C143 1.391 . S
C143 H137 0.930 1_545 S
C143 C139 1.429 . S
C143 C142 1.391 . S
C144 O145 1.160 1_554 S
C144 O151 1.185 . S
O145 C144 1.160 1_556 S
O146 Zn147 1.899 1_556 S
O146 C154 1.284 . S
Zn147 O146 1.899 1_554 S
Zn147 O148 2.032 . S
Zn147 O151 2.086 . S
Zn147 O156 1.977 . S
O148 Zn147 2.032 . S
O148 C152 1.278 . S
C149 O150 1.203 . S
C149 O156 1.267 . S
O150 C149 1.203 . S
O151 C144 1.185 . S
O151 Zn147 2.086 . S
C152 O148 1.278 . S
C152 O153 1.211 . S
O153 C152 1.211 . S
C154 O146 1.284 . S
C154 O155 1.273 . S
O155 C154 1.273 . S
O156 Zn147 1.977 . S
O156 C149 1.267 . S
C157 O158 1.160 . S
C157 O164 1.185 . S
O158 C157 1.160 . S
O159 Zn160 1.899 . S
O159 C167 1.284 . S
Zn160 O159 1.899 . S
Zn160 O161 2.032 . S
Zn160 O164 2.086 . S
Zn160 O169 1.977 . S
O161 Zn160 2.032 . S
O161 C165 1.278 . S
C162 O163 1.203 . S
C162 O169 1.267 . S
O163 C162 1.203 . S
O164 C157 1.185 . S
O164 Zn160 2.086 . S
C165 O161 1.278 . S
C165 O166 1.211 . S
O166 C165 1.211 . S
C167 O159 1.284 . S
C167 O168 1.273 . S
O168 C167 1.273 . S
O169 Zn160 1.977 . S
O169 C162 1.267 . S
C170 O171 1.160 1_554 S
C170 O177 1.185 . S
O171 C170 1.160 1_556 S
O172 Zn173 1.899 1_556 S
O172 C180 1.284 . S
Zn173 O172 1.899 1_554 S
Zn173 O174 2.032 1_554 S
Zn173 O177 2.086 . S
Zn173 O182 1.977 . S
O174 Zn173 2.032 1_556 S
O174 C178 1.278 . S
C175 O176 1.203 . S
C175 O182 1.267 . S
O176 C175 1.203 . S
O177 C170 1.185 . S
O177 Zn173 2.086 . S
C178 O174 1.278 . S
C178 O179 1.211 1_556 S
O179 C178 1.211 1_554 S
C180 O172 1.284 . S
C180 O181 1.273 . S
O181 C180 1.273 . S
O182 Zn173 1.977 . S
O182 C175 1.267 . S
C183 O184 1.160 . S
C183 O190 1.185 . S
O184 C183 1.160 . S
O185 Zn186 1.899 . S
O185 C193 1.284 1_545 S
Zn186 O185 1.899 . S
Zn186 O187 2.032 1_545 S
Zn186 O190 2.086 . S
Zn186 O195 1.977 . S
O187 Zn186 2.032 1_565 S
O187 C191 1.278 . S
C188 O189 1.203 1_545 S
C188 O195 1.267 . S
O189 C188 1.203 1_565 S
O190 C183 1.185 . S
O190 Zn186 2.086 . S
C191 O187 1.278 . S
C191 O192 1.211 . S
O192 C191 1.211 . S
C193 O185 1.284 1_565 S
C193 O194 1.273 . S
O194 C193 1.273 . S
O195 Zn186 1.977 . S
O195 C188 1.267 . S
C196 O197 1.160 . S
C196 O203 1.185 . S
O197 C196 1.160 . S
O198 Zn199 1.899 . S
O198 C206 1.284 . S
Zn199 O198 1.899 . S
Zn199 O200 2.032 . S
Zn199 O203 2.086 . S
Zn199 O208 1.977 . S
O200 Zn199 2.032 . S
O200 C204 1.278 . S
C201 O202 1.203 . S
C201 O208 1.267 . S
O202 C201 1.203 . S
O203 C196 1.185 . S
O203 Zn199 2.086 . S
C204 O200 1.278 . S
C204 O205 1.211 . S
O205 C204 1.211 . S
C206 O198 1.284 . S
C206 O207 1.273 . S
O207 C206 1.273 . S
O208 Zn199 1.977 . S
O208 C201 1.267 . S
C209 O210 1.160 . S
C209 O216 1.185 . S
O210 C209 1.160 . S
O211 Zn212 1.899 . S
O211 C219 1.284 . S
Zn212 O211 1.899 . S
Zn212 O213 2.032 . S
Zn212 O216 2.086 . S
Zn212 O221 1.977 . S
O213 Zn212 2.032 . S
O213 C217 1.278 . S
C214 O215 1.203 . S
C214 O221 1.267 . S
O215 C214 1.203 . S
O216 C209 1.185 . S
O216 Zn212 2.086 . S
C217 O213 1.278 . S
C217 O218 1.211 . S
O218 C217 1.211 . S
C219 O211 1.284 . S
C219 O220 1.273 . S
O220 C219 1.273 . S
O221 Zn212 1.977 . S
O221 C214 1.267 . S
C222 O223 1.160 . S
C222 O229 1.185 . S
O223 C222 1.160 . S
O224 Zn225 1.899 . S
O224 C232 1.284 . S
Zn225 O224 1.899 . S
Zn225 O226 2.032 . S
Zn225 O229 2.086 . S
Zn225 O234 1.977 . S
O226 Zn225 2.032 . S
O226 C230 1.278 . S
C227 O228 1.203 . S
C227 O234 1.267 . S
O228 C227 1.203 . S
O229 C222 1.185 . S
O229 Zn225 2.086 . S
C230 O226 1.278 . S
C230 O231 1.211 . S
O231 C230 1.211 . S
C232 O224 1.284 . S
C232 O233 1.273 . S
O233 C232 1.273 . S
O234 Zn225 1.977 . S
O234 C227 1.267 . S
C235 O236 1.160 . S
C235 O242 1.185 . S
O236 C235 1.160 . S
O237 Zn238 1.899 . S
O237 C245 1.284 1_565 S
Zn238 O237 1.899 . S
Zn238 O239 2.032 1_565 S
Zn238 O242 2.086 . S
Zn238 O247 1.977 . S
O239 Zn238 2.032 1_545 S
O239 C243 1.278 . S
C240 O241 1.203 1_565 S
C240 O247 1.267 . S
O241 C240 1.203 1_545 S
O242 C235 1.185 . S
O242 Zn238 2.086 . S
C243 O239 1.278 . S
C243 O244 1.211 . S
O244 C243 1.211 . S
C245 O237 1.284 1_545 S
C245 O246 1.273 . S
O246 C245 1.273 . S
O247 Zn238 1.977 . S
O247 C240 1.267 . S
C248 O249 1.160 1_455 S
C248 O255 1.185 . S
O249 C248 1.160 1_655 S
O250 Zn251 1.899 1_655 S
O250 C258 1.284 . S
Zn251 O250 1.899 1_455 S
Zn251 O252 2.032 1_455 S
Zn251 O255 2.086 . S
Zn251 O260 1.977 . S
O252 Zn251 2.032 1_655 S
O252 C256 1.277 1_655 S
C253 O254 1.203 . S
C253 O260 1.267 . S
O254 C253 1.203 . S
O255 C248 1.185 . S
O255 Zn251 2.086 . S
C256 O252 1.277 1_455 S
C256 O257 1.218 . S
O257 C256 1.218 . S
C258 O250 1.284 . S
C258 O259 1.273 . S
O259 C258 1.273 . S
O260 Zn251 1.977 . S
O260 C253 1.267 . S
C261 O262 1.160 . S
C261 O268 1.185 . S
O262 C261 1.160 . S
O263 Zn264 1.899 . S
O263 C271 1.284 . S
Zn264 O263 1.899 . S
Zn264 O265 2.032 . S
Zn264 O268 2.086 . S
Zn264 O273 1.977 . S
O265 Zn264 2.032 . S
O265 C269 1.278 . S
C266 O267 1.203 . S
C266 O273 1.267 . S
O267 C266 1.203 . S
O268 C261 1.185 . S
O268 Zn264 2.086 . S
C269 O265 1.278 . S
C269 O270 1.211 . S
O270 C269 1.211 . S
C271 O263 1.284 . S
C271 O272 1.273 . S
O272 C271 1.273 . S
O273 Zn264 1.977 . S
O273 C266 1.267 . S
C274 O275 1.160 1_455 S
C274 O281 1.185 . S
O275 C274 1.160 1_655 S
O276 Zn277 1.899 1_655 S
O276 C284 1.284 . S
Zn277 O276 1.899 1_455 S
Zn277 O278 2.032 1_455 S
Zn277 O281 2.086 . S
Zn277 O286 1.977 . S
O278 Zn277 2.032 1_655 S
O278 C282 1.282 . S
C279 O280 1.203 . S
C279 O286 1.267 . S
O280 C279 1.203 . S
O281 C274 1.185 . S
O281 Zn277 2.086 . S
C282 O278 1.282 . S
C282 O283 1.201 1_655 S
O283 C282 1.201 1_455 S
C284 O276 1.284 . S
C284 O285 1.273 . S
O285 C284 1.273 . S
O286 Zn277 1.977 . S
O286 C279 1.267 . S
C287 O288 1.160 . S
C287 O294 1.185 . S
O288 C287 1.160 . S
O289 Zn290 1.899 . S
O289 C297 1.284 . S
Zn290 O289 1.899 . S
Zn290 O291 2.032 . S
Zn290 O294 2.086 . S
Zn290 O299 1.977 . S
O291 Zn290 2.032 . S
O291 C295 1.278 . S
C292 O293 1.203 . S
C292 O299 1.267 . S
O293 C292 1.203 . S
O294 C287 1.185 . S
O294 Zn290 2.086 . S
C295 O291 1.278 . S
C295 O296 1.211 . S
O296 C295 1.211 . S
C297 O289 1.284 . S
C297 O298 1.273 . S
O298 C297 1.273 . S
O299 Zn290 1.977 . S
O299 C292 1.267 . S
C300 C301 1.387 . S
C300 H304 0.950 . S
C300 C309 1.390 . S
C301 C300 1.387 . S
C301 C303 1.387 . S
H302 C309 0.950 . S
C303 C301 1.387 . S
C303 C305 1.390 . S
C303 H307 0.950 . S
H304 C300 0.950 . S
C305 C303 1.390 . S
C305 C306 1.387 . S
C305 H308 0.950 . S
C306 C305 1.387 . S
C306 C309 1.387 . S
H307 C303 0.950 . S
H308 C305 0.950 . S
C309 C300 1.390 . S
C309 H302 0.950 . S
C309 C306 1.387 . S
C310 C311 1.387 . S
C310 H314 0.950 . S
C310 C319 1.390 . S
C311 C310 1.387 . S
C311 C313 1.387 . S
H312 C319 0.950 . S
C313 C311 1.387 . S
C313 C315 1.390 . S
C313 H317 0.950 1_455 S
H314 C310 0.950 . S
C315 C313 1.390 . S
C315 C316 1.387 . S
C315 H318 0.950 . S
C316 C315 1.387 . S
C316 C319 1.387 . S
H317 C313 0.950 1_655 S
H318 C315 0.950 . S
C319 C310 1.390 . S
C319 H312 0.950 . S
C319 C316 1.387 . S
C320 C321 1.387 . S
C320 H324 0.950 . S
C320 C329 1.390 . S
C321 C320 1.387 . S
C321 C323 1.387 . S
H322 C329 0.950 . S
C323 C321 1.387 . S
C323 C325 1.390 . S
C323 H327 0.950 . S
H324 C320 0.950 . S
C325 C323 1.390 . S
C325 C326 1.387 . S
C325 H328 0.950 . S
C326 C325 1.387 . S
C326 C329 1.387 . S
H327 C323 0.950 . S
H328 C325 0.950 . S
C329 C320 1.390 . S
C329 H322 0.950 . S
C329 C326 1.387 . S
C330 C331 1.387 . S
C330 H334 0.950 . S
C330 C339 1.390 . S
C331 C330 1.387 . S
C331 C333 1.387 1_565 S
H332 C339 0.950 . S
C333 C331 1.387 1_545 S
C333 C335 1.390 . S
C333 H337 0.950 . S
H334 C330 0.950 . S
C335 C333 1.390 . S
C335 C336 1.387 1_545 S
C335 H338 0.950 . S
C336 C335 1.387 1_565 S
C336 C339 1.387 . S
H337 C333 0.950 . S
H338 C335 0.950 . S
C339 C330 1.390 . S
C339 H332 0.950 . S
C339 C336 1.387 . S
C340 C341 1.387 . S
C340 H344 0.950 . S
C340 C349 1.390 . S
C341 C340 1.387 . S
C341 C343 1.387 . S
H342 C349 0.950 . S
C343 C341 1.387 . S
C343 C345 1.390 . S
C343 H347 0.950 . S
H344 C340 0.950 . S
C345 C343 1.390 . S
C345 C346 1.387 . S
C345 H348 0.950 . S
C346 C345 1.387 . S
C346 C349 1.387 . S
H347 C343 0.950 . S
H348 C345 0.950 . S
C349 C340 1.390 . S
C349 H342 0.950 . S
C349 C346 1.387 . S
C350 C351 1.387 . S
C350 H354 0.950 . S
C350 C359 1.390 . S
C351 C350 1.387 . S
C351 C353 1.387 . S
H352 C359 0.950 . S
C353 C351 1.387 . S
C353 C355 1.390 . S
C353 H357 0.950 . S
H354 C350 0.950 . S
C355 C353 1.390 . S
C355 C356 1.387 . S
C355 H358 0.950 . S
C356 C355 1.387 . S
C356 C359 1.387 . S
H357 C353 0.950 . S
H358 C355 0.950 . S
C359 C350 1.390 . S
C359 H352 0.950 . S
C359 C356 1.387 . S
C360 C361 1.387 . S
C360 H364 0.950 . S
C360 C369 1.390 . S
C361 C360 1.387 . S
C361 C363 1.387 . S
H362 C369 0.950 . S
C363 C361 1.387 . S
C363 C365 1.390 . S
C363 H367 0.950 . S
H364 C360 0.950 . S
C365 C363 1.390 . S
C365 C366 1.387 . S
C365 H368 0.950 . S
C366 C365 1.387 . S
C366 C369 1.387 . S
H367 C363 0.950 . S
H368 C365 0.950 . S
C369 C360 1.390 . S
C369 H362 0.950 . S
C369 C366 1.387 . S
C370 C371 1.387 1_545 S
C370 H374 0.950 . S
C370 C379 1.390 . S
C371 C370 1.387 1_565 S
C371 C373 1.387 . S
H372 C379 0.950 . S
C373 C371 1.387 . S
C373 C375 1.390 . S
C373 H377 0.950 . S
H374 C370 0.950 . S
C375 C373 1.390 . S
C375 C376 1.387 . S
C375 H378 0.950 . S
C376 C375 1.387 . S
C376 C379 1.387 1_565 S
H377 C373 0.950 . S
H378 C375 0.950 . S
C379 C370 1.390 . S
C379 H372 0.950 . S
C379 C376 1.387 1_545 S
C380 C381 1.387 . S
C380 H384 0.950 . S
C380 C389 1.390 . S
C381 C380 1.387 . S
C381 C383 1.387 . S
H382 C389 0.950 . S
C383 C381 1.387 . S
C383 C385 1.390 . S
C383 H387 0.950 . S
H384 C380 0.950 . S
C385 C383 1.390 . S
C385 C386 1.387 . S
C385 H388 0.950 . S
C386 C385 1.387 . S
C386 C389 1.387 . S
H387 C383 0.950 . S
H388 C385 0.950 . S
C389 C380 1.390 . S
C389 H382 0.950 . S
C389 C386 1.387 . S
C390 C391 1.387 . S
C390 H394 0.950 . S
C390 C399 1.390 . S
C391 C390 1.387 . S
C391 C393 1.387 . S
H392 C399 0.950 . S
C393 C391 1.387 . S
C393 C395 1.390 . S
C393 H397 0.950 . S
H394 C390 0.950 . S
C395 C393 1.390 . S
C395 C396 1.387 . S
C395 H398 0.950 . S
C396 C395 1.387 . S
C396 C399 1.387 . S
H397 C393 0.950 . S
H398 C395 0.950 . S
C399 C390 1.390 . S
C399 H392 0.950 . S
C399 C396 1.387 . S
C400 C401 1.387 . S
C400 H404 0.950 . S
C400 C409 1.390 . S
C401 C400 1.387 . S
C401 C403 1.387 . S
H402 C409 0.950 . S
C403 C401 1.387 . S
C403 C405 1.390 . S
C403 H407 0.950 . S
H404 C400 0.950 . S
C405 C403 1.390 . S
C405 C406 1.387 . S
C405 H408 0.950 . S
C406 C405 1.387 . S
C406 C409 1.387 . S
H407 C403 0.950 . S
H408 C405 0.950 . S
C409 C400 1.390 . S
C409 H402 0.950 . S
C409 C406 1.387 . S
C410 C411 1.387 . S
C410 H414 0.950 . S
C410 C419 1.390 . S
C411 C410 1.387 . S
C411 C413 1.387 . S
H412 C419 0.950 . S
C413 C411 1.387 . S
C413 C415 1.390 . S
C413 H417 0.950 . S
H414 C410 0.950 . S
C415 C413 1.390 . S
C415 C416 1.387 . S
C415 H418 0.950 . S
C416 C415 1.387 . S
C416 C419 1.387 . S
H417 C413 0.950 . S
H418 C415 0.950 . S
C419 C410 1.390 . S
C419 H412 0.950 . S
C419 C416 1.387 . S
C420 C421 1.387 . S
C420 H424 0.950 . S
C420 C429 1.390 . S
C421 C420 1.387 . S
C421 C423 1.387 . S
H422 C429 0.950 . S
C423 C421 1.387 . S
C423 C425 1.390 . S
C423 H427 0.950 . S
H424 C420 0.950 . S
C425 C423 1.390 . S
C425 C426 1.387 . S
C425 H428 0.950 . S
C426 C425 1.387 . S
C426 C429 1.387 . S
H427 C423 0.950 . S
H428 C425 0.950 . S
C429 C420 1.390 . S
C429 H422 0.950 . S
C429 C426 1.387 . S
C430 C431 1.387 . S
C430 H434 0.950 . S
C430 C439 1.390 . S
C431 C430 1.387 . S
C431 C433 1.387 1_455 S
H432 C439 0.950 . S
C433 C431 1.387 1_655 S
C433 C435 1.390 . S
C433 H437 0.950 . S
H434 C430 0.950 . S
C435 C433 1.390 . S
C435 C436 1.387 1_655 S
C435 H438 0.950 . S
C436 C435 1.387 1_455 S
C436 C439 1.387 . S
H437 C433 0.950 . S
H438 C435 0.950 . S
C439 C430 1.390 . S
C439 H432 0.950 . S
C439 C436 1.387 . S
C440 C441 1.387 . S
C440 H444 0.950 . S
C440 C449 1.390 . S
C441 C440 1.387 . S
C441 C443 1.387 . S
H442 C449 0.950 . S
C443 C441 1.387 . S
C443 C445 1.390 . S
C443 H447 0.950 . S
H444 C440 0.950 . S
C445 C443 1.390 . S
C445 C446 1.387 . S
C445 H448 0.950 . S
C446 C445 1.387 . S
C446 C449 1.387 . S
H447 C443 0.950 . S
H448 C445 0.950 . S
C449 C440 1.390 . S
C449 H442 0.950 . S
C449 C446 1.387 . S
C450 C451 1.387 . S
C450 H454 0.950 . S
C450 C459 1.390 . S
C451 C450 1.387 . S
C451 C453 1.387 1_655 S
H452 C459 0.950 . S
C453 C451 1.387 1_455 S
C453 C455 1.390 . S
C453 H457 0.950 . S
H454 C450 0.950 . S
C455 C453 1.390 . S
C455 C456 1.387 1_455 S
C455 H458 0.950 . S
C456 C455 1.387 1_655 S
C456 C459 1.387 . S
H457 C453 0.950 . S
H458 C455 0.950 . S
C459 C450 1.390 . S
C459 H452 0.950 . S
C459 C456 1.387 . S
C460 C461 1.387 . S
C460 H464 0.950 . S
C460 C469 1.390 . S
C461 C460 1.387 . S
C461 C463 1.387 . S
H462 C469 0.950 . S
C463 C461 1.387 . S
C463 C465 1.390 . S
C463 H467 0.950 . S
H464 C460 0.950 . S
C465 C463 1.390 . S
C465 C466 1.387 . S
C465 H468 0.950 . S
C466 C465 1.387 . S
C466 C469 1.387 . S
H467 C463 0.950 . S
H468 C465 0.950 . S
C469 C460 1.390 . S
C469 H462 0.950 . S
C469 C466 1.387 . S
C470 C471 1.387 . S
C470 H474 0.950 . S
C470 C479 1.390 . S
C471 C470 1.387 . S
C471 C473 1.387 . S
H472 C479 0.950 . S
C473 C471 1.387 . S
C473 C475 1.390 . S
C473 H477 0.950 . S
H474 C470 0.950 . S
C475 C473 1.390 . S
C475 C476 1.387 . S
C475 H478 0.950 . S
C476 C475 1.387 . S
C476 C479 1.387 . S
H477 C473 0.950 . S
H478 C475 0.950 . S
C479 C470 1.390 . S
C479 H472 0.950 . S
C479 C476 1.387 . S
C480 C481 1.387 . S
C480 H484 0.950 . S
C480 C489 1.390 . S
C481 C480 1.387 . S
C481 C483 1.387 1_556 S
H482 C489 0.950 . S
C483 C481 1.387 1_554 S
C483 C485 1.390 . S
C483 H487 0.950 . S
H484 C480 0.950 . S
C485 C483 1.390 . S
C485 C486 1.387 1_554 S
C485 H488 0.950 . S
C486 C485 1.387 1_556 S
C486 C489 1.387 . S
H487 C483 0.950 . S
H488 C485 0.950 . S
C489 C480 1.390 . S
C489 H482 0.950 . S
C489 C486 1.387 . S
C490 C491 1.387 . S
C490 H494 0.950 . S
C490 C499 1.390 . S
C491 C490 1.387 . S
C491 C493 1.387 . S
H492 C499 0.950 . S
C493 C491 1.387 . S
C493 C495 1.390 . S
C493 H497 0.950 . S
H494 C490 0.950 . S
C495 C493 1.390 . S
C495 C496 1.387 . S
C495 H498 0.950 . S
C496 C495 1.387 . S
C496 C499 1.387 . S
H497 C493 0.950 . S
H498 C495 0.950 . S
C499 C490 1.390 . S
C499 H492 0.950 . S
C499 C496 1.387 . S
C500 C501 1.387 . S
C500 H504 0.950 . S
C500 C509 1.390 . S
C501 C500 1.387 . S
C501 C503 1.387 . S
H502 C509 0.950 . S
C503 C501 1.387 . S
C503 C505 1.390 . S
C503 H507 0.950 1_545 S
H504 C500 0.950 . S
C505 C503 1.390 . S
C505 C506 1.387 . S
C505 H508 0.950 . S
C506 C505 1.387 . S
C506 C509 1.387 . S
H507 C503 0.950 1_565 S
H508 C505 0.950 . S
C509 C500 1.390 . S
C509 H502 0.950 . S
C509 C506 1.387 . S
C510 C511 1.387 . S
C510 H514 0.950 . S
C510 C519 1.390 . S
C511 C510 1.387 . S
C511 C513 1.387 . S
H512 C519 0.950 . S
C513 C511 1.387 . S
C513 C515 1.390 . S
C513 H517 0.950 . S
H514 C510 0.950 . S
C515 C513 1.390 . S
C515 C516 1.387 . S
C515 H518 0.950 . S
C516 C515 1.387 . S
C516 C519 1.387 . S
H517 C513 0.950 . S
H518 C515 0.950 . S
C519 C510 1.390 . S
C519 H512 0.950 . S
C519 C516 1.387 . S
C520 C521 1.387 . S
C520 H524 0.950 . S
C520 C529 1.390 . S
C521 C520 1.387 . S
C521 C523 1.387 . S
H522 C529 0.950 . S
C523 C521 1.387 . S
C523 C525 1.390 . S
C523 H527 0.950 . S
H524 C520 0.950 . S
C525 C523 1.390 . S
C525 C526 1.387 . S
C525 H528 0.950 . S
C526 C525 1.387 . S
C526 C529 1.387 . S
H527 C523 0.950 . S
H528 C525 0.950 . S
C529 C520 1.390 . S
C529 H522 0.950 . S
C529 C526 1.387 . S
C530 C531 1.387 . S
C530 H534 0.950 . S
C530 C539 1.390 . S
C531 C530 1.387 . S
C531 C533 1.387 . S
H532 C539 0.950 . S
C533 C531 1.387 . S
C533 C535 1.390 . S
C533 H537 0.950 . S
H534 C530 0.950 . S
C535 C533 1.390 . S
C535 C536 1.387 . S
C535 H538 0.950 . S
C536 C535 1.387 . S
C536 C539 1.387 . S
H537 C533 0.950 . S
H538 C535 0.950 . S
C539 C530 1.390 . S
C539 H532 0.950 . S
C539 C536 1.387 . S
C540 C541 1.387 . S
C540 H544 0.950 . S
C540 C549 1.390 . S
C541 C540 1.387 . S
C541 C543 1.387 . S
H542 C549 0.950 . S
C543 C541 1.387 . S
C543 C545 1.390 . S
C543 H547 0.950 . S
H544 C540 0.950 . S
C545 C543 1.390 . S
C545 C546 1.387 . S
C545 H548 0.950 . S
C546 C545 1.387 . S
C546 C549 1.387 . S
H547 C543 0.950 . S
H548 C545 0.950 . S
C549 C540 1.390 . S
C549 H542 0.950 . S
C549 C546 1.387 . S
C550 C551 1.387 . S
C550 H554 0.950 . S
C550 C559 1.390 . S
C551 C550 1.387 . S
C551 C553 1.387 . S
H552 C559 0.950 . S
C553 C551 1.387 . S
C553 C555 1.390 . S
C553 H557 0.950 . S
H554 C550 0.950 . S
C555 C553 1.390 . S
C555 C556 1.387 . S
C555 H558 0.950 1_545 S
C556 C555 1.387 . S
C556 C559 1.387 . S
H557 C553 0.950 . S
H558 C555 0.950 1_565 S
C559 C550 1.390 . S
C559 H552 0.950 . S
C559 C556 1.387 . S
C560 C561 1.387 . S
C560 H564 0.950 . S
C560 C569 1.390 . S
C561 C560 1.387 . S
C561 C563 1.387 . S
H562 C569 0.950 . S
C563 C561 1.387 . S
C563 C565 1.390 . S
C563 H567 0.950 . S
H564 C560 0.950 . S
C565 C563 1.390 . S
C565 C566 1.387 . S
C565 H568 0.950 . S
C566 C565 1.387 . S
C566 C569 1.387 . S
H567 C563 0.950 . S
H568 C565 0.950 . S
C569 C560 1.390 . S
C569 H562 0.950 . S
C569 C566 1.387 . S
C570 C571 1.387 . S
C570 H574 0.950 . S
C570 C579 1.390 . S
C571 C570 1.387 . S
C571 C573 1.387 . S
H572 C579 0.950 . S
C573 C571 1.387 . S
C573 C575 1.390 . S
C573 H577 0.950 . S
H574 C570 0.950 . S
C575 C573 1.390 . S
C575 C576 1.387 . S
C575 H578 0.950 . S
C576 C575 1.387 . S
C576 C579 1.387 . S
H577 C573 0.950 . S
H578 C575 0.950 . S
C579 C570 1.390 . S
C579 H572 0.950 . S
C579 C576 1.387 . S
C580 C581 1.387 . S
C580 H584 0.950 . S
C580 C589 1.390 . S
C581 C580 1.387 . S
C581 C583 1.387 . S
H582 C589 0.950 . S
C583 C581 1.387 . S
C583 C585 1.390 . S
C583 H587 0.950 . S
H584 C580 0.950 . S
C585 C583 1.390 . S
C585 C586 1.387 . S
C585 H588 0.950 . S
C586 C585 1.387 . S
C586 C589 1.387 . S
H587 C583 0.950 . S
H588 C585 0.950 . S
C589 C580 1.390 . S
C589 H582 0.950 . S
C589 C586 1.387 . S
C590 C591 1.379 1_565 S
C590 H594 0.957 . S
C590 C599 1.391 . S
C591 C590 1.379 1_545 S
C591 C593 1.387 . S
H592 C599 0.950 . S
C593 C591 1.387 . S
C593 C595 1.390 . S
C593 H597 0.950 . S
H594 C590 0.957 . S
C595 C593 1.390 . S
C595 C596 1.387 . S
C595 H598 0.950 . S
C596 C595 1.387 . S
C596 C599 1.387 1_545 S
H597 C593 0.950 . S
H598 C595 0.950 . S
C599 C590 1.391 . S
C599 H592 0.950 . S
C599 C596 1.387 1_565 S
C600 C601 1.387 . S
C600 H604 0.950 . S
C600 C609 1.390 . S
C601 C600 1.387 . S
C601 C603 1.387 . S
H602 C609 0.950 . S
C603 C601 1.387 . S
C603 C605 1.390 . S
C603 H607 0.950 . S
H604 C600 0.950 . S
C605 C603 1.390 . S
C605 C606 1.387 . S
C605 H608 0.950 . S
C606 C605 1.387 . S
C606 C609 1.387 . S
H607 C603 0.950 . S
H608 C605 0.950 . S
C609 C600 1.390 . S
C609 H602 0.950 . S
C609 C606 1.387 . S
C610 C611 1.387 . S
C610 H614 0.950 . S
C610 C619 1.390 . S
C611 C610 1.387 . S
C611 C613 1.387 . S
H612 C619 0.950 . S
C613 C611 1.387 . S
C613 C615 1.390 . S
C613 H617 0.950 . S
H614 C610 0.950 . S
C615 C613 1.390 . S
C615 C616 1.387 . S
C615 H618 0.950 . S
C616 C615 1.387 . S
C616 C619 1.387 . S
H617 C613 0.950 . S
H618 C615 0.950 . S
C619 C610 1.390 . S
C619 H612 0.950 . S
C619 C616 1.387 . S
C620 C621 1.387 . S
C620 H624 0.950 . S
C620 C629 1.390 . S
C621 C620 1.387 . S
C621 C623 1.387 . S
H622 C629 0.950 . S
C623 C621 1.387 . S
C623 C625 1.390 . S
C623 H627 0.950 . S
H624 C620 0.950 . S
C625 C623 1.390 . S
C625 C626 1.387 . S
C625 H628 0.950 . S
C626 C625 1.387 . S
C626 C629 1.387 . S
H627 C623 0.950 . S
H628 C625 0.950 . S
C629 C620 1.390 . S
C629 H622 0.950 . S
C629 C626 1.387 . S
C630 C631 1.387 1_455 S
C630 H634 0.950 1_556 S
C630 C639 1.390 . S
C631 C630 1.387 1_655 S
C631 C633 1.387 . S
H632 C639 0.950 . S
C633 C631 1.387 . S
C633 C635 1.390 . S
C633 H637 0.950 . S
H634 C630 0.950 1_554 S
C635 C633 1.390 . S
C635 C636 1.387 . S
C635 H638 0.950 . S
C636 C635 1.387 . S
C636 C639 1.387 1_655 S
H637 C633 0.950 . S
H638 C635 0.950 . S
C639 C630 1.390 . S
C639 H632 0.950 . S
C639 C636 1.387 1_455 S
C640 C641 1.387 . S
C640 H644 0.950 . S
C640 C649 1.390 . S
C641 C640 1.387 . S
C641 C643 1.387 . S
H642 C649 0.950 . S
C643 C641 1.387 . S
C643 C645 1.390 . S
C643 H647 0.950 . S
H644 C640 0.950 . S
C645 C643 1.390 . S
C645 C646 1.387 . S
C645 H648 0.950 . S
C646 C645 1.387 . S
C646 C649 1.387 . S
H647 C643 0.950 . S
H648 C645 0.950 . S
C649 C640 1.390 . S
C649 H642 0.950 . S
C649 C646 1.387 . S
C650 C651 1.387 . S
C650 H654 0.950 . S
C650 C659 1.390 . S
C651 C650 1.387 . S
C651 C653 1.389 1_455 S
H652 C659 0.950 . S
C653 C651 1.389 1_655 S
C653 C655 1.405 . S
C653 H657 0.933 1_556 S
H654 C650 0.950 . S
C655 C653 1.405 . S
C655 C656 1.387 1_655 S
C655 H658 0.950 . S
C656 C655 1.387 1_455 S
C656 C659 1.387 . S
H657 C653 0.933 1_554 S
H658 C655 0.950 . S
C659 C650 1.390 . S
C659 H652 0.950 . S
C659 C656 1.387 . S
C660 C661 1.387 . S
C660 H664 0.950 . S
C660 C669 1.390 . S
C661 C660 1.387 . S
C661 C663 1.387 . S
H662 C669 0.950 . S
C663 C661 1.387 . S
C663 C665 1.390 . S
C663 H667 0.950 . S
H664 C660 0.950 . S
C665 C663 1.390 . S
C665 C666 1.387 . S
C665 H668 0.950 . S
C666 C665 1.387 . S
C666 C669 1.387 . S
H667 C663 0.950 . S
H668 C665 0.950 . S
C669 C660 1.390 . S
C669 H662 0.950 . S
C669 C666 1.387 . S
C670 C671 1.387 . S
C670 H674 0.950 . S
C670 C679 1.390 . S
C671 C670 1.387 . S
C671 C673 1.387 . S
H672 C679 0.950 . S
C673 C671 1.387 . S
C673 C675 1.390 . S
C673 H677 0.950 1_554 S
H674 C670 0.950 . S
C675 C673 1.390 . S
C675 C676 1.387 . S
C675 H678 0.950 . S
C676 C675 1.387 . S
C676 C679 1.387 . S
H677 C673 0.950 1_556 S
H678 C675 0.950 . S
C679 C670 1.390 . S
C679 H672 0.950 . S
C679 C676 1.387 . S
C680 C681 1.387 . S
C680 H684 0.950 . S
C680 C689 1.390 . S
C681 C680 1.387 . S
C681 C683 1.387 . S
H682 C689 0.950 . S
C683 C681 1.387 . S
C683 C685 1.390 . S
C683 H687 0.950 . S
H684 C680 0.950 . S
C685 C683 1.390 . S
C685 C686 1.387 . S
C685 H688 0.950 . S
C686 C685 1.387 . S
C686 C689 1.387 . S
H687 C683 0.950 . S
H688 C685 0.950 . S
C689 C680 1.390 . S
C689 H682 0.950 . S
C689 C686 1.387 . S
C690 C691 1.387 . S
C690 H694 0.950 1_554 S
C690 C699 1.390 . S
C691 C690 1.387 . S
C691 C693 1.387 . S
H692 C699 0.950 . S
C693 C691 1.387 . S
C693 C695 1.390 . S
C693 H697 0.950 . S
H694 C690 0.950 1_556 S
C695 C693 1.390 . S
C695 C696 1.387 . S
C695 H698 0.950 . S
C696 C695 1.387 . S
C696 C699 1.387 . S
H697 C693 0.950 . S
H698 C695 0.950 . S
C699 C690 1.390 . S
C699 H692 0.950 . S
C699 C696 1.387 . S
C700 C701 1.387 . S
C700 H704 0.950 . S
C700 C709 1.390 . S
C701 C700 1.387 . S
C701 C703 1.387 . S
H702 C709 0.950 . S
C703 C701 1.387 . S
C703 C705 1.390 . S
C703 H707 0.950 . S
H704 C700 0.950 . S
C705 C703 1.390 . S
C705 C706 1.387 . S
C705 H708 0.950 . S
C706 C705 1.387 . S
C706 C709 1.387 . S
H707 C703 0.950 . S
H708 C705 0.950 . S
C709 C700 1.390 . S
C709 H702 0.950 . S
C709 C706 1.387 . S
C710 C711 1.387 . S
C710 H714 0.950 . S
C710 C719 1.390 . S
C711 C710 1.387 . S
C711 C713 1.387 . S
H712 C719 0.950 . S
C713 C711 1.387 . S
C713 C715 1.390 . S
C713 H717 0.950 . S
H714 C710 0.950 . S
C715 C713 1.390 . S
C715 C716 1.387 . S
C715 H718 0.950 . S
C716 C715 1.387 . S
C716 C719 1.387 . S
H717 C713 0.950 . S
H718 C715 0.950 . S
C719 C710 1.390 . S
C719 H712 0.950 . S
C719 C716 1.387 . S
C720 C721 1.387 . S
C720 H724 0.950 . S
C720 C729 1.390 . S
C721 C720 1.387 . S
C721 C723 1.387 . S
H722 C729 0.950 . S
C723 C721 1.387 . S
C723 C725 1.390 . S
C723 H727 0.950 . S
H724 C720 0.950 . S
C725 C723 1.390 . S
C725 C726 1.387 . S
C725 H728 0.950 . S
C726 C725 1.387 . S
C726 C729 1.387 . S
H727 C723 0.950 . S
H728 C725 0.950 . S
C729 C720 1.390 . S
C729 H722 0.950 . S
C729 C726 1.387 . S
C730 C731 1.387 . S
C730 H734 0.950 . S
C730 C739 1.390 . S
C731 C730 1.387 . S
C731 C733 1.387 . S
H732 C739 0.950 . S
C733 C731 1.387 . S
C733 C735 1.390 . S
C733 H737 0.950 . S
H734 C730 0.950 . S
C735 C733 1.390 . S
C735 C736 1.387 . S
C735 H738 0.950 . S
C736 C735 1.387 . S
C736 C739 1.387 . S
H737 C733 0.950 . S
H738 C735 0.950 . S
C739 C730 1.390 . S
C739 H732 0.950 . S
C739 C736 1.387 . S
C740 C741 1.387 . S
C740 H744 0.950 . S
C740 C749 1.390 . S
C741 C740 1.387 . S
C741 C743 1.387 1_556 S
H742 C749 0.950 . S
C743 C741 1.387 1_554 S
C743 C745 1.390 . S
C743 H747 0.950 . S
H744 C740 0.950 . S
C745 C743 1.390 . S
C745 C746 1.387 1_554 S
C745 H748 0.950 . S
C746 C745 1.387 1_556 S
C746 C749 1.387 . S
H747 C743 0.950 . S
H748 C745 0.950 . S
C749 C740 1.390 . S
C749 H742 0.950 . S
C749 C746 1.387 . S
C750 C751 1.387 . S
C750 H754 0.950 . S
C750 C759 1.390 . S
C751 C750 1.387 . S
C751 C753 1.387 . S
H752 C759 0.950 . S
C753 C751 1.387 . S
C753 C755 1.390 . S
C753 H757 0.950 . S
H754 C750 0.950 . S
C755 C753 1.390 . S
C755 C756 1.387 . S
C755 H758 0.950 . S
C756 C755 1.387 . S
C756 C759 1.387 . S
H757 C753 0.950 . S
H758 C755 0.950 . S
C759 C750 1.390 . S
C759 H752 0.950 . S
C759 C756 1.387 . S
C760 C761 1.387 1_556 S
C760 H764 0.950 . S
C760 C769 1.390 . S
C761 C760 1.387 1_554 S
C761 C763 1.387 . S
H762 C769 0.950 . S
C763 C761 1.387 . S
C763 C765 1.390 . S
C763 H767 0.950 . S
H764 C760 0.950 . S
C765 C763 1.390 . S
C765 C766 1.387 . S
C765 H768 0.950 . S
C766 C765 1.387 . S
C766 C769 1.387 1_554 S
H767 C763 0.950 . S
H768 C765 0.950 . S
C769 C760 1.390 . S
C769 H762 0.950 . S
C769 C766 1.387 1_556 S
C770 C771 1.387 . S
C770 H774 0.950 . S
C770 C779 1.390 . S
C771 C770 1.387 . S
C771 C773 1.385 1_554 S
H772 C779 0.950 . S
C773 C771 1.385 1_556 S
C773 C775 1.390 . S
C773 H777 0.952 1_565 S
H774 C770 0.950 . S
C775 C773 1.390 . S
C775 C776 1.387 1_556 S
C775 H778 0.950 . S
C776 C775 1.387 1_554 S
C776 C779 1.387 . S
H777 C773 0.952 1_545 S
H778 C775 0.950 . S
C779 C770 1.390 . S
C779 H772 0.950 . S
C779 C776 1.387 . S
C306 C154 1.444 . S
C301 C50 1.450 . S
C316 C167 1.561 . S
C311 C61 1.573 1_455 S
C321 C67 1.481 . S
C326 C180 1.469 . S
C336 C193 1.503 . S
C331 C41 1.515 1_655 S
C346 C201 1.463 . S
C341 C95 1.491 . S
C356 C214 1.435 . S
C351 C113 1.450 . S
C361 C106 1.515 . S
C366 C227 1.488 . S
C376 C240 1.500 . S
C371 C86 1.516 . S
C381 C104 1.461 . S
C386 C258 1.450 . S
C396 C269 1.499 . S
C391 C88 1.527 . S
C401 C94 1.479 . S
C406 C253 1.456 . S
C416 C261 1.455 . S
C411 C112 1.481 . S
C421 C70 1.504 . S
C426 C284 1.495 . S
C431 C40 1.511 . S
C436 C274 1.480 . S
C441 C49 1.511 . S
C446 C279 1.483 . S
C451 C59 1.553 . S
C456 C282 1.526 . S
C461 C34 1.457 . S
C466 C191 1.435 . S
C471 C133 1.448 . S
C476 C183 1.433 . S
C486 C152 1.524 1_556 S
C481 C139 1.551 1_565 S
C496 C157 1.503 . S
C491 C77 1.524 . S
C501 C43 1.518 1_545 S
C506 C204 1.488 . S
C516 C243 1.502 . S
C511 C103 1.528 . S
C526 C196 1.485 . S
C521 C85 1.514 1_545 S
C536 C222 1.440 . S
C531 C115 1.472 . S
C546 C232 1.444 . S
C541 C131 1.450 . S
C551 C142 1.573 . S
C556 C245 1.560 . S
C561 C76 1.481 . S
C566 C206 1.468 . S
C576 C219 1.503 . S
C571 C122 1.515 . S
C581 C32 1.491 . S
C586 C175 1.463 . S
C596 C188 1.433 . S
C591 C5 1.451 1_655 S
C606 C149 1.489 . S
C601 C16 1.515 . S
C616 C162 1.501 . S
C611 C23 1.516 1_455 S
C621 C14 1.462 . S
C626 C271 1.449 . S
C631 C25 1.528 1_556 S
C636 C256 1.495 1_655 S
C641 C31 1.480 . S
C646 C266 1.458 . S
C651 C4 1.481 1_556 S
C656 C248 1.455 . S
C666 C297 1.496 . S
C661 C79 1.504 . S
C676 C287 1.479 . S
C671 C121 1.511 1_554 S
C686 C292 1.485 . S
C681 C130 1.512 . S
C691 C140 1.554 1_554 S
C696 C295 1.522 . S
C701 C97 1.458 . S
C706 C217 1.433 . S
C716 C209 1.432 . S
C711 C52 1.449 . S
C726 C230 1.524 . S
C721 C58 1.551 . S
C736 C235 1.504 . S
C731 C68 1.527 . S
C741 C124 1.518 . S
C746 C178 1.488 . S
C756 C165 1.503 . S
C751 C13 1.531 . S
C761 C22 1.514 . S
C766 C170 1.487 . S
C776 C144 1.440 . S
C771 C7 1.472 1_565 S
