# Generated by pormake.
# Topology pth, (4,4)-cn, num edge types: 1
# Building blocks:
#     Node 0, Type 0, BuildingBlock: NAHDIM_clean_sbu_0, # of connection points: 4
#     Node 1, Type 0, BuildingBlock: NAHDIM_clean_sbu_0, # of connection points: 4
#     Node 2, Type 0, BuildingBlock: NAHDIM_clean_sbu_0, # of connection points: 4
#     Node 3, Type 1, BuildingBlock: NAHDIM_clean_linker_0, # of connection points: 4
#     Node 4, Type 1, BuildingBlock: NAHDIM_clean_linker_0, # of connection points: 4
#     Node 5, Type 1, BuildingBlock: NAHDIM_clean_linker_0, # of connection points: 4
#     Edge 6, Type (0, 1), BuildingBlock: EZIPEK_clean_linker_0, # of connection points: 2
#     Edge 7, Type (0, 1), BuildingBlock: EZIPEK_clean_linker_0, # of connection points: 2
#     Edge 8, Type (0, 1), BuildingBlock: EZIPEK_clean_linker_0, # of connection points: 2
#     Edge 9, Type (0, 1), BuildingBlock: EZIPEK_clean_linker_0, # of connection points: 2
#     Edge 10, Type (0, 1), BuildingBlock: EZIPEK_clean_linker_0, # of connection points: 2
#     Edge 11, Type (0, 1), BuildingBlock: EZIPEK_clean_linker_0, # of connection points: 2
#     Edge 12, Type (0, 1), BuildingBlock: EZIPEK_clean_linker_0, # of connection points: 2
#     Edge 13, Type (0, 1), BuildingBlock: EZIPEK_clean_linker_0, # of connection points: 2
#     Edge 14, Type (0, 1), BuildingBlock: EZIPEK_clean_linker_0, # of connection points: 2
#     Edge 15, Type (0, 1), BuildingBlock: EZIPEK_clean_linker_0, # of connection points: 2
#     Edge 16, Type (0, 1), BuildingBlock: EZIPEK_clean_linker_0, # of connection points: 2
#     Edge 17, Type (0, 1), BuildingBlock: EZIPEK_clean_linker_0, # of connection points: 2
# Relax obj value: 0.060
# Max RMSD: 0.179
# Mean RMSD: 0.115
data_MOF--net-pth--node1-NAHDIM_clean_sbu_0--node2-NAHDIM_clean_linker_0--edge1-EZIPEK_clean_linker_0
_symmetry_space_group_name_H-M    P1
_symmetry_Int_Tables_number       1
_symmetry_cell_setting            triclinic
loop_
_symmetry_equiv_pos_as_xyz
'x, y, z'
_cell_length_a     25.568346
_cell_length_b     25.673835
_cell_length_c     64.104637
_cell_angle_alpha  91.715135
_cell_angle_beta   90.464993
_cell_angle_gamma 120.68769
loop_
_atom_site_label
_atom_site_type_symbol
_atom_site_fract_x
_atom_site_fract_y
_atom_site_fract_z
_atom_type_partial_charge
C0 C 0.03744 0.98986 0.10208 0.0
O1 O -0.00028 0.00816 0.1074 0.0
O2 O 0.04999 0.12741 0.09104 0.0
Zn3 Zn 0.05578 0.07006 0.07051 0.0
O4 O 0.97933 0.01853 0.05332 0.0
C5 C 0.11008 0.15493 0.04054 0.0
O6 O 0.05774 0.15198 0.04303 0.0
O7 O 0.07058 0.0121 0.08634 0.0
C8 C 0.98464 0.98359 0.04018 0.0
O9 O 0.03675 0.98529 0.03902 0.0
C10 C 0.00441 0.1333 0.09441 0.0
O11 O 0.95319 0.09992 0.08372 0.0
O12 O 0.12268 0.12148 0.05111 0.0
C13 C 0.108 0.18585 0.36907 0.0
O14 O 0.05005 0.14439 0.36988 0.0
O15 O 0.09086 0.02334 0.37466 0.0
Zn16 Zn 0.1195 0.09979 0.3925 0.0
O17 O 0.05286 0.09442 0.41084 0.0
C18 C 0.17586 0.07483 0.42594 0.0
O19 O 0.11892 0.03491 0.42939 0.0
O20 O 0.14775 0.17486 0.3762 0.0
C21 C 0.00897 0.04761 0.41855 0.0
O22 O 0.00295 0.99415 0.41501 0.0
C23 C 0.03619 0.98923 0.36817 0.0
O24 O 0.9971 0.00764 0.37042 0.0
O25 O 0.18895 0.10997 0.41084 0.0
C26 C 0.11371 0.99398 0.72459 0.0
O27 O 0.0574 0.94988 0.72098 0.0
O28 O 0.99441 0.02649 0.73313 0.0
Zn29 Zn 0.0566 0.03361 0.75411 0.0
O30 O 0.08882 0.1115 0.77132 0.0
C31 C 0.95869 0.94499 0.77633 0.0
O32 O 0.94048 0.98392 0.77372 0.0
O33 O 0.12513 0.03493 0.7385 0.0
C34 C 0.08222 0.11615 0.79078 0.0
O35 O 0.05289 0.06718 0.80162 0.0
C36 C 0.99065 0.06973 0.72574 0.0
O37 O 0.03112 0.12595 0.73131 0.0
O38 O 0.01151 0.95835 0.77065 0.0
C39 C 0.85557 0.71383 0.35718 0.0
C40 C 0.91711 0.732 0.34762 0.0
C41 C 0.93897 0.6825 0.31897 0.0
C42 C 0.00268 0.71404 0.31902 0.0
C43 C 0.03384 0.68798 0.30961 0.0
C44 C 0.0003 0.62914 0.30007 0.0
C45 C 0.93588 0.59726 0.30015 0.0
C46 C 0.90608 0.62494 0.3093 0.0
C47 C 0.10242 0.72374 0.30943 0.0
C48 C 0.8984 0.53411 0.29042 0.0
C49 C 0.26517 0.46746 0.37076 0.0
C50 C 0.20581 0.4425 0.35787 0.0
C51 C 0.18431 0.48509 0.32772 0.0
C52 C 0.12064 0.44966 0.32636 0.0
C53 C 0.08671 0.4686 0.31484 0.0
C54 C 0.11734 0.52397 0.3045 0.0
C55 C 0.18166 0.55964 0.30587 0.0
C56 C 0.21429 0.53914 0.31722 0.0
C57 C 0.01839 0.42889 0.31328 0.0
C58 C 0.21604 0.61924 0.29522 0.0
C59 C 0.11883 0.39658 0.17156 0.0
C60 C 0.05931 0.37652 0.17792 0.0
C61 C 0.04489 0.4165 0.18811 0.0
C62 C 0.09092 0.47775 0.19194 0.0
C63 C 0.15066 0.49836 0.18521 0.0
C64 C 0.16369 0.45743 0.17496 0.0
C65 C 0.98042 0.3934 0.19474 0.0
C66 C 0.20067 0.56345 0.18899 0.0
C67 C 0.98858 0.81945 0.17564 0.0
C68 C 0.02943 0.81595 0.15885 0.0
C69 C 0.02008 0.71781 0.16432 0.0
C70 C 0.97279 0.65774 0.16554 0.0
C71 C 0.97979 0.61646 0.17739 0.0
C72 C 0.03601 0.6358 0.18785 0.0
C73 C 0.0849 0.69589 0.18593 0.0
C74 C 0.07641 0.73631 0.17419 0.0
C75 C 0.92701 0.5526 0.17901 0.0
C76 C 0.14618 0.71743 0.19631 0.0
C77 C 0.03192 0.60164 0.28913 0.0
C78 C 0.05742 0.57483 0.301 0.0
C79 C 0.08306 0.54378 0.29136 0.0
C80 C 0.08011 0.53616 0.26937 0.0
C81 C 0.09995 0.5002 0.25923 0.0
C82 C 0.09773 0.49382 0.23756 0.0
C83 C 0.07745 0.52475 0.2252 0.0
C84 C 0.07641 0.51992 0.20316 0.0
C85 C 0.06089 0.55518 0.19136 0.0
C86 C 0.04417 0.59384 0.20102 0.0
C87 C 0.03995 0.5954 0.22298 0.0
C88 C 0.01882 0.63025 0.2331 0.0
C89 C 0.01542 0.63183 0.25474 0.0
C90 C 0.03467 0.60001 0.26711 0.0
C91 C 0.05739 0.56581 0.25721 0.0
C92 C 0.05802 0.56178 0.23511 0.0
C93 C 0.14991 0.2764 0.15933 0.0
C94 C 0.10331 0.29675 0.16136 0.0
O95 O 0.90801 0.70734 0.3275 0.0
O96 O 0.01022 0.75622 0.15315 0.0
O97 O 0.13435 0.35938 0.16142 0.0
O98 O 0.21837 0.46765 0.33843 0.0
H99 H 0.93439 0.70912 0.35754 0.0
H100 H 0.82695 0.66362 0.35728 0.0
H101 H 0.83019 0.73078 0.34834 0.0
H102 H 0.86243 0.73191 0.37357 0.0
H103 H 0.02793 0.7596 0.32584 0.0
H104 H 0.85681 0.60136 0.30921 0.0
H105 H 0.12082 0.70004 0.31841 0.0
H106 H 0.12162 0.77035 0.31634 0.0
H107 H 0.11804 0.72668 0.29316 0.0
H108 H 0.84971 0.5123 0.29451 0.0
H109 H 0.91639 0.50515 0.29554 0.0
H110 H 0.90132 0.53624 0.27318 0.0
H111 H 0.18118 0.46071 0.36665 0.0
H112 H 0.25519 0.44947 0.3867 0.0
H113 H 0.28842 0.5177 0.37225 0.0
H114 H 0.29704 0.45543 0.36355 0.0
H115 H 0.09757 0.40646 0.33369 0.0
H116 H 0.26355 0.56572 0.3182 0.0
H117 H 0.99716 0.454 0.31987 0.0
H118 H 0.0015 0.38627 0.32173 0.0
H119 H 0.00341 0.41731 0.29662 0.0
H120 H 0.26505 0.64489 0.29993 0.0
H121 H 0.19597 0.64782 0.29892 0.0
H122 H 0.21229 0.61066 0.27805 0.0
H123 H 0.08381 0.28235 0.17698 0.0
H124 H 0.02379 0.33008 0.17468 0.0
H125 H 0.20928 0.47263 0.1697 0.0
H126 H 0.9796 0.39806 0.21199 0.0
H127 H 0.9493 0.34511 0.18985 0.0
H128 H 0.96302 0.42113 0.18795 0.0
H129 H 0.24521 0.57188 0.18335 0.0
H130 H 0.20536 0.57573 0.20594 0.0
H131 H 0.18865 0.59373 0.1809 0.0
H132 H 0.07465 0.83801 0.16681 0.0
H133 H 0.00311 0.86754 0.17946 0.0
H134 H 0.993 0.79914 0.19013 0.0
H135 H 0.93987 0.79489 0.17084 0.0
H136 H 0.9298 0.64369 0.15757 0.0
H137 H 0.11428 0.78181 0.17249 0.0
H138 H 0.91623 0.54243 0.19568 0.0
H139 H 0.93971 0.52008 0.17253 0.0
H140 H 0.88558 0.5452 0.17051 0.0
H141 H 0.18085 0.76398 0.19197 0.0
H142 H 0.16263 0.68613 0.19196 0.0
H143 H 0.14178 0.71716 0.21353 0.0
H144 H 0.05776 0.5786 0.31791 0.0
H145 H 0.11673 0.476 0.26796 0.0
H146 H 0.11318 0.46524 0.2306 0.0
H147 H 0.06269 0.55316 0.17446 0.0
H148 H 0.00402 0.65612 0.22437 0.0
H149 H 0.9985 0.65917 0.26169 0.0
H150 H 0.12717 0.22629 0.16001 0.0
H151 H 0.18419 0.297 0.17236 0.0
H152 H 0.17394 0.29073 0.14434 0.0
C153 C 0.2432 0.9514 0.64781 0.0
C154 C 0.28424 0.989 0.66673 0.0
C155 C 0.38444 0.05033 0.65072 0.0
C156 C 0.42631 0.10864 0.64453 0.0
C157 C 0.47854 0.12042 0.63375 0.0
C158 C 0.48896 0.07241 0.62901 0.0
C159 C 0.44731 0.01333 0.63548 0.0
C160 C 0.39556 0.00287 0.64635 0.0
C161 C 0.52224 0.18401 0.62721 0.0
C162 C 0.45733 0.96116 0.63075 0.0
C163 C 0.9002 0.07473 0.68007 0.0
C164 C 0.85163 0.06215 0.66435 0.0
C165 C 0.79455 0.10711 0.65107 0.0
C166 C 0.74815 0.0527 0.64151 0.0
C167 C 0.69879 0.05049 0.63103 0.0
C168 C 0.69622 0.10404 0.62965 0.0
C169 C 0.74249 0.15882 0.63932 0.0
C170 C 0.79107 0.15954 0.65 0.0
C171 C 0.6497 0.99087 0.62121 0.0
C172 C 0.74096 0.21659 0.6381 0.0
C173 C 0.77194 0.07212 0.49163 0.0
C174 C 0.73044 0.02249 0.50276 0.0
C175 C 0.68808 0.02586 0.51557 0.0
C176 C 0.6875 0.08062 0.51729 0.0
C177 C 0.73109 0.13198 0.50679 0.0
C178 C 0.7733 0.12741 0.49415 0.0
C179 C 0.64324 0.97049 0.52695 0.0
C180 C 0.73242 0.19134 0.50875 0.0
C181 C 0.20877 0.94273 0.48353 0.0
C182 C 0.27388 0.99697 0.48517 0.0
C183 C 0.36749 0.998 0.49377 0.0
C184 C 0.38646 0.95781 0.49903 0.0
C185 C 0.44088 0.97793 0.51041 0.0
C186 C 0.47793 0.04029 0.5161 0.0
C187 C 0.46026 0.0817 0.50996 0.0
C188 C 0.40494 0.06002 0.4989 0.0
C189 C 0.45864 0.93244 0.51631 0.0
C190 C 0.49978 0.14872 0.51511 0.0
C191 C 0.5427 0.08363 0.61687 0.0
C192 C 0.595 0.09444 0.62784 0.0
C193 C 0.64612 0.10248 0.61731 0.0
C194 C 0.64613 0.10171 0.59526 0.0
C195 C 0.69742 0.1111 0.58424 0.0
C196 C 0.69564 0.10608 0.56255 0.0
C197 C 0.64254 0.09158 0.55108 0.0
C198 C 0.63899 0.08265 0.52915 0.0
C199 C 0.58576 0.0688 0.51817 0.0
C200 C 0.53487 0.06171 0.52856 0.0
C201 C 0.5371 0.06953 0.55055 0.0
C202 C 0.4862 0.06121 0.56157 0.0
C203 C 0.48821 0.06686 0.58326 0.0
C204 C 0.54101 0.08044 0.59478 0.0
C205 C 0.59302 0.08963 0.58397 0.0
C206 C 0.59116 0.08442 0.56183 0.0
C207 C 0.80852 0.10793 0.44561 0.0
C208 C 0.84581 0.10162 0.46339 0.0
O209 O 0.3343 0.04249 0.66069 0.0
O210 O 0.31337 0.97541 0.48338 0.0
O211 O 0.80888 0.06387 0.47857 0.0
O212 O 0.84266 0.11044 0.6616 0.0
H213 H 0.29889 0.95918 0.67347 0.0
H214 H 0.26596 0.93233 0.63827 0.0
H215 H 0.23248 0.97843 0.63736 0.0
H216 H 0.19994 0.91272 0.65321 0.0
H217 H 0.41756 0.14502 0.64805 0.0
H218 H 0.36426 0.95755 0.65123 0.0
H219 H 0.56886 0.19884 0.63319 0.0
H220 H 0.50922 0.21695 0.633 0.0
H221 H 0.52364 0.18474 0.60991 0.0
H222 H 0.41941 0.91738 0.63603 0.0
H223 H 0.50019 0.97022 0.6386 0.0
H224 H 0.46234 0.95688 0.61369 0.0
H225 H 0.85467 0.04151 0.64917 0.0
H226 H 0.85334 0.01511 0.70314 0.0
H227 H 0.92718 0.12534 0.68305 0.0
H228 H 0.93664 0.07276 0.67096 0.0
H229 H 0.75002 0.01162 0.64212 0.0
H230 H 0.82682 0.20122 0.65748 0.0
H231 H 0.65256 0.99277 0.60396 0.0
H232 H 0.604 0.98233 0.62539 0.0
H233 H 0.65401 0.95207 0.62613 0.0
H234 H 0.7813 0.25586 0.64596 0.0
H235 H 0.69925 0.21066 0.64551 0.0
H236 H 0.73896 0.2268 0.62149 0.0
H237 H 0.87469 0.14834 0.47005 0.0
H238 H 0.7305 0.98039 0.50098 0.0
H239 H 0.80663 0.16696 0.48625 0.0
H240 H 0.64909 0.98083 0.54404 0.0
H241 H 0.64894 0.93101 0.52357 0.0
H242 H 0.59608 0.95778 0.52247 0.0
H243 H 0.77173 0.22828 0.50079 0.0
H244 H 0.73458 0.20497 0.52549 0.0
H245 H 0.68979 0.18566 0.50181 0.0
H246 H 0.27848 0.01629 0.50126 0.0
H247 H 0.17543 0.95801 0.48542 0.0
H248 H 0.20153 0.91078 0.49602 0.0
H249 H 0.20006 0.91805 0.46817 0.0
H250 H 0.35764 0.91019 0.49459 0.0
H251 H 0.39165 0.09159 0.49398 0.0
H252 H 0.47244 0.93857 0.53309 0.0
H253 H 0.49821 0.93986 0.50706 0.0
H254 H 0.42108 0.88497 0.51324 0.0
H255 H 0.48217 0.1755 0.50768 0.0
H256 H 0.54684 0.16524 0.50989 0.0
H257 H 0.50216 0.15699 0.53228 0.0
H258 H 0.59515 0.09446 0.64477 0.0
H259 H 0.73935 0.12178 0.59227 0.0
H260 H 0.73618 0.11302 0.55489 0.0
H261 H 0.58301 0.06087 0.50136 0.0
H262 H 0.44401 0.04978 0.55357 0.0
H263 H 0.4475 0.05954 0.59088 0.0
H264 H 0.76785 0.06411 0.44069 0.0
H265 H 0.83734 0.12796 0.43186 0.0
H266 H 0.79219 0.13876 0.45065 0.0
C267 C 0.8302 0.66356 0.78263 0.0
C268 C 0.7958 0.69115 0.79321 0.0
C269 C 0.72757 0.65281 0.82242 0.0
C270 C 0.70037 0.68836 0.82236 0.0
C271 C 0.64523 0.66945 0.83245 0.0
C272 C 0.61707 0.6139 0.84275 0.0
C273 C 0.64451 0.57791 0.84266 0.0
C274 C 0.70002 0.59847 0.83278 0.0
C275 C 0.6179 0.70943 0.83263 0.0
C276 C 0.61565 0.51803 0.85324 0.0
C277 C 0.10945 0.35679 0.83478 0.0
C278 C 0.16734 0.35358 0.83191 0.0
C279 C 0.27069 0.43645 0.82742 0.0
C280 C 0.30378 0.40762 0.83099 0.0
C281 C 0.36405 0.44067 0.83871 0.0
C282 C 0.39161 0.50387 0.84278 0.0
C283 C 0.35974 0.53367 0.83767 0.0
C284 C 0.29957 0.49944 0.82988 0.0
C285 C 0.39734 0.40775 0.84341 0.0
C286 C 0.38816 0.60112 0.84151 0.0
C287 C 0.29558 0.4285 0.97606 0.0
C288 C 0.3292 0.40452 0.96719 0.0
C289 C 0.38329 0.44182 0.95687 0.0
C290 C 0.40392 0.50427 0.95534 0.0
C291 C 0.37109 0.52885 0.96482 0.0
C292 C 0.31752 0.49059 0.97526 0.0
C293 C 0.41811 0.41438 0.94743 0.0
C294 C 0.39197 0.59522 0.96356 0.0
C295 C 0.90458 0.81903 0.97265 0.0
C296 C 0.84256 0.81015 0.97831 0.0
C297 C 0.74438 0.71594 0.97305 0.0
C298 C 0.71958 0.65388 0.96903 0.0
C299 C 0.66109 0.61809 0.96001 0.0
C300 C 0.62658 0.6453 0.95518 0.0
C301 C 0.64994 0.70733 0.96043 0.0
C302 C 0.70864 0.74205 0.96941 0.0
C303 C 0.63703 0.5518 0.95493 0.0
C304 C 0.61349 0.73722 0.956 0.0
C305 C 0.5609 0.59456 0.85469 0.0
C306 C 0.50462 0.56356 0.84395 0.0
C307 C 0.4502 0.5372 0.85477 0.0
C308 C 0.45166 0.54046 0.87686 0.0
C309 C 0.39789 0.51135 0.88826 0.0
C310 C 0.39999 0.51243 0.90996 0.0
C311 C 0.45585 0.5436 0.92114 0.0
C312 C 0.45867 0.5431 0.94317 0.0
C313 C 0.51466 0.57703 0.95388 0.0
C314 C 0.56846 0.61026 0.94306 0.0
C315 C 0.56689 0.60873 0.92098 0.0
C316 C 0.62055 0.63912 0.90961 0.0
C317 C 0.61869 0.63511 0.88791 0.0
C318 C 0.56304 0.60141 0.87671 0.0
C319 C 0.5083 0.57289 0.88784 0.0
C320 C 0.51031 0.57545 0.91 0.0
C321 C 0.13804 0.31975 0.98397 0.0
C322 C 0.20306 0.33198 0.98245 0.0
O323 O 0.78146 0.67073 0.81328 0.0
O324 O 0.80271 0.74883 0.98047 0.0
O325 O 0.24262 0.39355 0.98592 0.0
O326 O 0.21067 0.40453 0.822 0.0
H327 H 0.75307 0.67096 0.78372 0.0
H328 H 0.80181 0.61329 0.78233 0.0
H329 H 0.87385 0.67701 0.79084 0.0
H330 H 0.83986 0.67801 0.76625 0.0
H331 H 0.72314 0.73165 0.81504 0.0
H332 H 0.72192 0.57179 0.83288 0.0
H333 H 0.57177 0.68445 0.82514 0.0
H334 H 0.64606 0.75193 0.82428 0.0
H335 H 0.6128 0.72125 0.84899 0.0
H336 H 0.638 0.49174 0.8492 0.0
H337 H 0.56658 0.49019 0.84878 0.0
H338 H 0.6192 0.52629 0.87042 0.0
H339 H 0.18285 0.35646 0.84823 0.0
H340 H 0.07462 0.31605 0.84273 0.0
H341 H 0.08955 0.36003 0.81982 0.0
H342 H 0.12018 0.39746 0.84471 0.0
H343 H 0.28242 0.35932 0.82795 0.0
H344 H 0.27386 0.52136 0.82663 0.0
H345 H 0.44222 0.43021 0.83588 0.0
H346 H 0.37126 0.35938 0.83795 0.0
H347 H 0.40588 0.40992 0.86052 0.0
H348 H 0.35975 0.61829 0.83491 0.0
H349 H 0.43384 0.62541 0.83455 0.0
H350 H 0.39439 0.61189 0.85858 0.0
H351 H 0.2067 0.31964 0.96602 0.0
H352 H 0.31371 0.35692 0.96846 0.0
H353 H 0.29168 0.50876 0.98247 0.0
H354 H 0.41624 0.41563 0.93016 0.0
H355 H 0.39941 0.3666 0.95176 0.0
H356 H 0.46671 0.44127 0.95257 0.0
H357 H 0.36037 0.60698 0.97127 0.0
H358 H 0.39587 0.60756 0.94695 0.0
H359 H 0.4378 0.62295 0.97111 0.0
H360 H 0.82815 0.8253 0.96452 0.0
H361 H 0.93773 0.86767 0.97021 0.0
H362 H 0.90019 0.79286 0.95795 0.0
H363 H 0.92254 0.80298 0.9852 0.0
H364 H 0.74711 0.63393 0.97233 0.0
H365 H 0.72644 0.78941 0.97347 0.0
H366 H 0.63034 0.5431 0.93777 0.0
H367 H 0.59203 0.5239 0.96207 0.0
H368 H 0.66829 0.53686 0.96059 0.0
H369 H 0.63634 0.78479 0.9623 0.0
H370 H 0.56788 0.71116 0.96292 0.0
H371 H 0.60651 0.73702 0.93888 0.0
H372 H 0.50317 0.5585 0.82706 0.0
H373 H 0.35351 0.48643 0.88056 0.0
H374 H 0.35721 0.48846 0.91786 0.0
H375 H 0.5165 0.57681 0.97079 0.0
H376 H 0.66476 0.66552 0.91734 0.0
H377 H 0.6615 0.65875 0.88001 0.0
H378 H 0.10451 0.27102 0.98048 0.0
H379 H 0.13027 0.34681 0.97247 0.0
H380 H 0.1301 0.33248 -0.00015 0.0
C381 C 0.05026 0.24169 0.10607 0.0
C382 C 0.01109 0.17968 0.11013 0.0
C383 C 0.00554 0.20662 0.14664 0.0
C384 C 0.05504 0.26601 0.14357 0.0
N385 N 0.09754 0.34598 0.11895 0.0
N386 N 0.94678 0.10209 0.13354 0.0
C387 C 0.06943 0.28571 0.12279 0.0
C388 C 0.98591 0.16199 0.13008 0.0
N389 N 0.07049 0.25801 0.08632 0.0
N390 N 0.97677 0.19361 0.16525 0.0
H391 H 0.93018 0.06857 0.12161 0.0
H392 H 0.93302 0.08504 0.14829 0.0
H393 H 0.98751 0.2266 0.17705 0.0
H394 H 0.93768 0.15253 0.1681 0.0
H395 H 0.10536 0.30102 0.08268 0.0
H396 H 0.05355 0.22735 0.07352 0.0
H397 H 0.10676 0.36322 0.10409 0.0
H398 H 0.10307 0.37837 0.13025 0.0
C399 C 0.98849 0.09442 0.44993 0.0
C400 C 0.966 0.05414 0.43213 0.0
C401 C 0.8623 0.02724 0.44072 0.0
C402 C 0.88604 0.0775 0.45526 0.0
N403 N 0.9708 0.14172 0.4793 0.0
N404 N 0.88078 0.98455 0.40958 0.0
C405 C 0.94847 0.10599 0.46155 0.0
C406 C 0.90261 0.02045 0.4274 0.0
N407 N 0.04824 0.12123 0.45619 0.0
N408 N 0.80193 0.98407 0.44043 0.0
H409 H 0.90847 0.97895 0.39903 0.0
H410 H 0.8357 0.96472 0.4043 0.0
H411 H 0.77195 0.9843 0.45128 0.0
H412 H 0.78347 0.94394 0.43135 0.0
H413 H 0.06652 0.15197 0.46896 0.0
H414 H 0.07892 0.11145 0.44906 0.0
H415 H 0.94419 0.14815 0.49014 0.0
H416 H 0.94419 0.14815 0.49014 0.0
C417 C 0.92769 0.85858 0.80019 0.0
C418 C 0.91475 0.88278 0.78268 0.0
C419 C 0.81504 0.79052 0.77839 0.0
C420 C 0.83282 0.76084 0.79282 0.0
N421 N 0.90942 0.76936 0.81784 0.0
N422 N 0.85007 0.86682 0.75254 0.0
C423 C 0.88987 0.79577 0.80402 0.0
C424 C 0.85945 0.84755 0.77111 0.0
N425 N 0.97529 0.89592 0.81348 0.0
N426 N 0.7556 0.7659 0.77205 0.0
H427 H 0.88225 0.90713 0.74599 0.0
H428 H 0.81299 0.83943 0.74254 0.0
H429 H 0.71975 0.72744 0.77831 0.0
H430 H 0.74075 0.78884 0.76281 0.0
H431 H 0.98294 0.8826 0.82783 0.0
H432 H 0.00379 0.94205 0.81112 0.0
H433 H 0.95384 0.79076 0.82388 0.0
H434 H 0.88329 0.72506 0.82252 0.0
C435 C 0.98142 0.88479 0.1154 0.0
C436 C 0.03711 0.94025 0.1134 0.0
C437 C 0.08949 0.90015 0.13363 0.0
C438 C 0.03239 0.85127 0.13957 0.0
N439 N 0.92494 0.78731 0.12959 0.0
N440 N 0.1446 0.0027 0.12181 0.0
C441 C 0.9789 0.8404 0.12855 0.0
C442 C 0.09153 0.94821 0.12256 0.0
N443 N 0.93011 0.87372 0.10463 0.0
N444 N 0.1415 0.899 0.1375 0.0
H445 H 0.14817 0.03971 0.11424 0.0
H446 H 0.1838 0.01282 0.13031 0.0
H447 H 0.1409 0.86132 0.14344 0.0
H448 H 0.18379 0.93117 0.13205 0.0
H449 H 0.88823 0.83383 0.10597 0.0
H450 H 0.92959 0.90337 0.09399 0.0
H451 H 0.91867 0.74981 0.13755 0.0
H452 H 0.91867 0.74981 0.13755 0.0
C453 C 0.2482 0.0388 0.43237 0.0
C454 C 0.22372 0.07496 0.43891 0.0
C455 C 0.26907 0.08822 0.47383 0.0
C456 C 0.2823 0.04216 0.46844 0.0
N457 N 0.31642 0.00251 0.44046 0.0
N458 N 0.21589 0.14066 0.46457 0.0
C459 C 0.28212 0.02646 0.44697 0.0
C460 C 0.23701 0.1029 0.45916 0.0
N461 N 0.23592 0.01336 0.41258 0.0
N462 N 0.28847 0.11848 0.49278 0.0
H463 H 0.19516 0.15446 0.45373 0.0
H464 H 0.21702 0.15688 0.47974 0.0
H465 H 0.31588 0.1116 0.5031 0.0
H466 H 0.28357 0.1549 0.4974 0.0
H467 H 0.24522 0.97992 0.40772 0.0
H468 H 0.21328 0.02347 0.40123 0.0
H469 H 0.3209 0.9936 0.42484 0.0
H470 H 0.3479 0.00038 0.45022 0.0
C471 C 0.0925 0.21855 0.79239 0.0
C472 C 0.10669 0.17706 0.80101 0.0
C473 C 0.16482 0.25107 0.82951 0.0
C474 C 0.15355 0.29455 0.82007 0.0
N475 N 0.12548 0.32333 0.78785 0.0
N476 N 0.16985 0.15977 0.82447 0.0
C477 C 0.12365 0.27964 0.80001 0.0
C478 C 0.14652 0.19487 0.81867 0.0
N479 N 0.04689 0.1992 0.77761 0.0
N480 N 0.19287 0.26226 0.84874 0.0
H481 H 0.15902 0.11917 0.81664 0.0
H482 H 0.20474 0.17389 0.83566 0.0
H483 H 0.21745 0.30461 0.85631 0.0
H484 H 0.19135 0.22799 0.85751 0.0
H485 H 0.03081 0.22666 0.77235 0.0
H486 H 0.02035 0.15398 0.77244 0.0
H487 H 0.10923 0.31447 0.77241 0.0
H488 H 0.14869 0.36927 0.79205 0.0
C489 C 0.89638 0.09466 0.71722 0.0
C490 C 0.9382 0.05561 0.7122 0.0
C491 C 0.84284 0.96948 0.6773 0.0
C492 C 0.81244 0.02145 0.67907 0.0
N493 N 0.79405 0.09996 0.7054 0.0
N494 N 0.94119 0.96246 0.69054 0.0
C495 C 0.82802 0.07422 0.70196 0.0
C496 C 0.91075 0.99232 0.69312 0.0
N497 N 0.91437 0.13678 0.73301 0.0
N498 N 0.82091 0.92349 0.66283 0.0
H499 H 0.9814 0.9757 0.69888 0.0
H500 H 0.92602 0.92626 0.67972 0.0
H501 H 0.78389 0.91462 0.65322 0.0
H502 H 0.83988 0.89613 0.66107 0.0
H503 H 0.89059 0.159 0.73617 0.0
H504 H 0.95187 0.14762 0.7426 0.0
H505 H 0.80424 0.13124 0.71776 0.0
H506 H 0.75634 0.08807 0.69569 0.0
C507 C 0.91038 0.9554 0.01018 0.0
C508 C 0.9319 0.93765 0.02744 0.0
C509 C 0.86113 0.83089 0.01777 0.0
C510 C 0.84993 0.84851 0.99824 0.0
N511 N 0.83863 0.92405 0.98082 0.0
N512 N 0.92752 0.85901 0.04836 0.0
C513 C 0.86647 0.90991 0.99604 0.0
C514 C 0.90659 0.8755 0.0316 0.0
N515 N 0.93513 0.01559 0.0065 0.0
N516 N 0.82558 0.77259 0.02372 0.0
H517 H 0.95887 0.89033 0.05939 0.0
H518 H 0.9167 0.81465 0.05066 0.0
H519 H 0.78595 0.74134 0.01554 0.0
H520 H 0.8292 0.75793 0.03834 0.0
H521 H 0.92726 0.03175 0.99284 0.0
H522 H 0.96663 0.05001 0.0167 0.0
H523 H 0.84518 0.96715 0.97914 0.0
H524 H 0.80301 0.89097 0.97142 0.0
C525 C 0.02813 0.88768 0.37166 0.0
C526 C 0.01468 0.92626 0.3603 0.0
C527 C 0.94486 0.83993 0.33717 0.0
C528 C 0.95916 0.80137 0.3485 0.0
N529 N 0.03658 0.79851 0.36979 0.0
N530 N 0.97603 0.94294 0.32839 0.0
C531 C 0.008 0.82836 0.36353 0.0
C532 C 0.97801 0.90356 0.34181 0.0
N533 N 0.05676 0.90555 0.39085 0.0
N534 N 0.89866 0.81645 0.32247 0.0
H535 H 0.00101 0.98985 0.33107 0.0
H536 H 0.95511 0.92969 0.31362 0.0
H537 H 0.87492 0.77131 0.31726 0.0
H538 H 0.88125 0.84163 0.31617 0.0
H539 H 0.06148 0.87607 0.40046 0.0
H540 H 0.06979 0.94716 0.39825 0.0
H541 H 0.07534 0.81894 0.37953 0.0
H542 H 0.02783 0.75738 0.36301 0.0
C543 C 0.20684 0.98773 0.71811 0.0
C544 C 0.16237 0.00041 0.71073 0.0
C545 C 0.21234 0.02758 0.67702 0.0
C546 C 0.24946 0.00369 0.68305 0.0
N547 N 0.29785 0.98603 0.71276 0.0
N548 N 0.12235 0.03382 0.68337 0.0
C549 C 0.25169 0.9914 0.70447 0.0
C550 C 0.16518 0.02105 0.69026 0.0
N551 N 0.20641 0.97146 0.73824 0.0
N552 N 0.22498 0.06049 0.65947 0.0
H553 H 0.08995 0.03416 0.69305 0.0
H554 H 0.11681 0.04081 0.66778 0.0
H555 H 0.26251 0.07125 0.6504 0.0
H556 H 0.20311 0.08364 0.65531 0.0
H557 H 0.23803 0.96097 0.7441 0.0
H558 H 0.17423 0.96783 0.74891 0.0
H559 H 0.33661 0.99441 0.70476 0.0
H560 H 0.33661 0.99441 0.70476 0.0
C561 C 0.18744 0.26246 0.03419 0.0
C562 C 0.15518 0.20102 0.02694 0.0
C563 C 0.19188 0.23162 0.99172 0.0
C564 C 0.21227 0.29266 0.99805 0.0
N565 N 0.26097 0.36632 0.02655 0.0
N566 N 0.13007 0.12514 -0.00045 0.0
C567 C 0.21979 0.30849 0.01974 0.0
C568 C 0.15973 0.18489 0.006 0.0
N569 N 0.18523 0.27671 0.05475 0.0
N570 N 0.2047 0.21901 0.97224 0.0
H571 H 0.10788 0.09005 0.00985 0.0
H572 H 0.12505 0.11025 0.98399 0.0
H573 H 0.2324 0.25309 0.96223 0.0
H574 H 0.1946 0.17607 0.96695 0.0
H575 H 0.20063 0.3206 0.06057 0.0
H576 H 0.16541 0.24384 0.06595 0.0
H577 H 0.27093 0.3801 0.04223 0.0
H578 H 0.29229 0.39826 0.0167 0.0
C579 C 0.10436 0.28082 0.37511 0.0
C580 C 0.12646 0.24846 0.36359 0.0
C581 C 0.1954 0.34041 0.3453 0.0
C582 C 0.17146 0.3727 0.35641 0.0
N583 N 0.08451 0.36279 0.37513 0.0
N584 N 0.18029 0.24245 0.33392 0.0
C585 C 0.12001 0.33959 0.36914 0.0
C586 C 0.16792 0.27671 0.34745 0.0
N587 N 0.07099 0.25714 0.39253 0.0
N588 N 0.24561 0.37006 0.33334 0.0
H589 H 0.16085 0.19572 0.3351 0.0
H590 H 0.20483 0.25912 0.32039 0.0
H591 H 0.26675 0.41567 0.33009 0.0
H592 H 0.26927 0.34982 0.32758 0.0
H593 H 0.05982 0.28221 0.40271 0.0
H594 H 0.06 0.21513 0.39812 0.0
H595 H 0.04406 0.33758 0.38298 0.0
H596 H 0.08956 0.40293 0.36981 0.0
loop_
_geom_bond_atom_site_label_1
_geom_bond_atom_site_label_2
_geom_bond_distance
_geom_bond_site_symmetry_2
_ccdc_geom_bond_type
C0 O1 1.160 . S
C0 O7 1.185 . S
O1 C0 1.160 . S
O2 Zn3 1.899 . S
O2 C10 1.284 . S
Zn3 O2 1.899 . S
Zn3 O4 2.032 1_445 S
Zn3 O7 2.086 1_545 S
Zn3 O12 1.977 . S
O4 Zn3 2.032 1_665 S
O4 C8 1.278 . S
C5 O6 1.203 . S
C5 O12 1.267 . S
O6 C5 1.203 . S
O7 C0 1.185 . S
O7 Zn3 2.086 1_565 S
C8 O4 1.278 . S
C8 O9 1.211 1_565 S
O9 C8 1.211 1_545 S
C10 O2 1.284 . S
C10 O11 1.273 1_455 S
O11 C10 1.273 1_655 S
O12 Zn3 1.977 . S
O12 C5 1.267 . S
C13 O14 1.160 . S
C13 O20 1.185 . S
O14 C13 1.160 . S
O15 Zn16 1.899 . S
O15 C23 1.284 1_545 S
Zn16 O15 1.899 . S
Zn16 O17 2.032 . S
Zn16 O20 2.086 . S
Zn16 O25 1.977 . S
O17 Zn16 2.032 . S
O17 C21 1.278 . S
C18 O19 1.203 . S
C18 O25 1.267 . S
O19 C18 1.203 . S
O20 C13 1.185 . S
O20 Zn16 2.086 . S
C21 O17 1.278 . S
C21 O22 1.210 . S
O22 C21 1.210 . S
C23 O15 1.284 1_565 S
C23 O24 1.273 . S
O24 C23 1.273 . S
O25 Zn16 1.977 . S
O25 C18 1.267 . S
C26 O27 1.160 . S
C26 O33 1.185 1_545 S
O27 C26 1.160 . S
O28 Zn29 1.899 1_655 S
O28 C36 1.284 . S
Zn29 O28 1.899 1_455 S
Zn29 O30 2.032 . S
Zn29 O33 2.086 1_545 S
Zn29 O38 1.977 1_545 S
O30 Zn29 2.032 . S
O30 C34 1.278 . S
C31 O32 1.203 . S
C31 O38 1.267 1_655 S
O32 C31 1.203 . S
O33 C26 1.185 1_565 S
O33 Zn29 2.086 1_565 S
C34 O30 1.278 . S
C34 O35 1.211 . S
O35 C34 1.211 . S
C36 O28 1.284 . S
C36 O37 1.273 . S
O37 C36 1.273 . S
O38 Zn29 1.977 1_565 S
O38 C31 1.267 1_455 S
C39 C40 1.560 1_655 S
C39 H100 0.959 . S
C39 H101 0.959 . S
C39 H102 0.960 . S
C40 C39 1.560 1_455 S
C40 O95 1.426 1_455 S
C40 H99 0.980 . S
C41 C42 1.407 . S
C41 C46 1.418 1_455 S
C41 O95 1.334 1_455 S
C42 C41 1.407 . S
C42 C43 1.360 . S
C42 H103 0.929 . S
C43 C42 1.360 . S
C43 C44 1.401 . S
C43 C47 1.527 . S
C44 C43 1.401 . S
C44 C45 1.405 1_455 S
C44 C77 1.587 . S
C45 C44 1.405 1_655 S
C45 C46 1.332 . S
C45 C48 1.496 . S
C46 C41 1.418 1_655 S
C46 C45 1.332 . S
C46 H104 0.929 . S
C47 C43 1.527 . S
C47 H105 0.959 . S
C47 H106 0.961 . S
C47 H107 0.961 . S
C48 C45 1.496 . S
C48 H108 0.960 . S
C48 H109 0.960 . S
C48 H110 0.961 . S
C49 C50 1.517 . S
C49 H112 0.961 . S
C49 H113 0.960 . S
C49 H114 0.959 . S
C50 C49 1.517 . S
C50 O98 1.468 . S
C50 H111 0.980 . S
C51 C52 1.349 . S
C51 C56 1.367 . S
C51 O98 1.408 . S
C52 C51 1.349 . S
C52 C53 1.407 . S
C52 H115 0.930 . S
C53 C52 1.407 . S
C53 C54 1.449 . S
C53 C57 1.535 1_455 S
C54 C53 1.449 . S
C54 C55 1.384 . S
C54 C79 1.553 . S
C55 C54 1.384 . S
C55 C56 1.364 . S
C55 C58 1.450 . S
C56 C51 1.367 . S
C56 C55 1.364 . S
C56 H116 0.931 . S
C57 C53 1.535 1_655 S
C57 H117 0.959 . S
C57 H118 0.961 . S
C57 H119 0.959 . S
C58 C55 1.450 . S
C58 H120 0.960 . S
C58 H121 0.960 . S
C58 H122 0.960 . S
C59 C60 1.309 . S
C59 C64 1.304 . S
C59 O97 1.435 . S
C60 C59 1.309 . S
C60 C61 1.476 . S
C60 H124 0.930 1_455 S
C61 C60 1.476 . S
C61 C62 1.400 . S
C61 C65 1.567 1_455 S
C62 C61 1.400 . S
C62 C63 1.373 . S
C62 C84 1.432 . S
C63 C62 1.373 . S
C63 C64 1.339 . S
C63 C66 1.530 . S
C64 C59 1.304 . S
C64 C63 1.339 . S
C64 H125 0.930 . S
C65 C61 1.567 1_655 S
C65 H126 0.961 . S
C65 H127 0.960 . S
C65 H128 0.958 . S
C66 C63 1.530 . S
C66 H129 0.961 . S
C66 H130 0.960 . S
C66 H131 0.960 . S
C67 C68 1.530 1_655 S
C67 H133 0.961 . S
C67 H134 0.961 . S
C67 H135 0.959 . S
C68 C67 1.530 1_455 S
C68 O96 1.412 1_455 S
C68 H132 0.980 . S
C69 C70 1.288 . S
C69 C74 1.377 1_655 S
C69 O96 1.393 . S
C70 C69 1.288 . S
C70 C71 1.369 . S
C70 H136 0.932 . S
C71 C70 1.369 . S
C71 C72 1.398 1_655 S
C71 C75 1.527 . S
C72 C71 1.398 1_455 S
C72 C73 1.380 . S
C72 C86 1.497 . S
C73 C72 1.380 . S
C73 C74 1.383 . S
C73 C76 1.603 . S
C74 C69 1.377 1_455 S
C74 C73 1.383 . S
C74 H137 0.929 . S
C75 C71 1.527 . S
C75 H138 0.961 . S
C75 H139 0.959 . S
C75 H140 0.959 . S
C76 C73 1.603 . S
C76 H141 0.960 . S
C76 H142 0.962 . S
C76 H143 0.961 . S
C77 C44 1.587 . S
C77 C78 1.360 . S
C77 C90 1.412 . S
C78 C77 1.360 . S
C78 C79 1.365 . S
C78 H144 0.929 . S
C79 C54 1.553 . S
C79 C78 1.365 . S
C79 C80 1.404 . S
C80 C79 1.404 . S
C80 C81 1.395 . S
C80 C91 1.451 . S
C81 C80 1.395 . S
C81 C82 1.322 . S
C81 H145 0.930 . S
C82 C81 1.322 . S
C82 C83 1.459 . S
C82 H146 0.929 . S
C83 C82 1.459 . S
C83 C84 1.445 . S
C83 C92 1.395 . S
C84 C62 1.432 . S
C84 C83 1.445 . S
C84 C85 1.370 . S
C85 C84 1.370 . S
C85 C86 1.438 . S
C85 H147 0.930 . S
C86 C72 1.497 . S
C86 C85 1.438 . S
C86 C87 1.360 . S
C87 C86 1.360 . S
C87 C88 1.401 . S
C87 C92 1.446 . S
C88 C87 1.401 . S
C88 C89 1.347 . S
C88 H148 0.929 . S
C89 C88 1.347 . S
C89 C90 1.455 . S
C89 H149 0.930 . S
C90 C77 1.412 . S
C90 C89 1.455 . S
C90 C91 1.331 . S
C91 C80 1.451 . S
C91 C90 1.331 . S
C91 C92 1.497 . S
C92 C83 1.395 . S
C92 C87 1.446 . S
C92 C91 1.497 . S
C93 C94 1.582 . S
C93 H150 0.962 . S
C93 H151 0.959 . S
C93 H152 0.958 . S
C94 C93 1.582 . S
C94 O97 1.458 . S
C94 H123 0.980 . S
O95 C40 1.426 1_655 S
O95 C41 1.334 1_655 S
O96 C68 1.412 1_655 S
O96 C69 1.393 . S
O97 C59 1.435 . S
O97 C94 1.458 . S
O98 C50 1.468 . S
O98 C51 1.408 . S
H99 C40 0.980 . S
H100 C39 0.959 . S
H101 C39 0.959 . S
H102 C39 0.960 . S
H103 C42 0.929 . S
H104 C46 0.929 . S
H105 C47 0.959 . S
H106 C47 0.961 . S
H107 C47 0.961 . S
H108 C48 0.960 . S
H109 C48 0.960 . S
H110 C48 0.961 . S
H111 C50 0.980 . S
H112 C49 0.961 . S
H113 C49 0.960 . S
H114 C49 0.959 . S
H115 C52 0.930 . S
H116 C56 0.931 . S
H117 C57 0.959 . S
H118 C57 0.961 . S
H119 C57 0.959 . S
H120 C58 0.960 . S
H121 C58 0.960 . S
H122 C58 0.960 . S
H123 C94 0.980 . S
H124 C60 0.930 1_655 S
H125 C64 0.930 . S
H126 C65 0.961 . S
H127 C65 0.960 . S
H128 C65 0.958 . S
H129 C66 0.961 . S
H130 C66 0.960 . S
H131 C66 0.960 . S
H132 C68 0.980 . S
H133 C67 0.961 . S
H134 C67 0.961 . S
H135 C67 0.959 . S
H136 C70 0.932 . S
H137 C74 0.929 . S
H138 C75 0.961 . S
H139 C75 0.959 . S
H140 C75 0.959 . S
H141 C76 0.960 . S
H142 C76 0.962 . S
H143 C76 0.961 . S
H144 C78 0.929 . S
H145 C81 0.930 . S
H146 C82 0.929 . S
H147 C85 0.930 . S
H148 C88 0.929 . S
H149 C89 0.930 . S
H150 C93 0.962 . S
H151 C93 0.959 . S
H152 C93 0.958 . S
C153 C154 1.560 1_565 S
C153 H214 0.959 . S
C153 H215 0.959 . S
C153 H216 0.960 . S
C154 C153 1.560 1_545 S
C154 O209 1.426 1_545 S
C154 H213 0.980 . S
C155 C156 1.407 . S
C155 C160 1.418 1_545 S
C155 O209 1.334 1_545 S
C156 C155 1.407 . S
C156 C157 1.360 . S
C156 H217 0.929 . S
C157 C156 1.360 . S
C157 C158 1.401 . S
C157 C161 1.527 . S
C158 C157 1.401 . S
C158 C159 1.405 1_545 S
C158 C191 1.587 . S
C159 C158 1.405 1_565 S
C159 C160 1.332 . S
C159 C162 1.496 . S
C160 C155 1.418 1_565 S
C160 C159 1.332 . S
C160 H218 0.929 . S
C161 C157 1.527 . S
C161 H219 0.959 . S
C161 H220 0.961 . S
C161 H221 0.961 . S
C162 C159 1.496 . S
C162 H222 0.960 . S
C162 H223 0.960 . S
C162 H224 0.961 . S
C163 C164 1.517 . S
C163 H226 0.961 . S
C163 H227 0.960 . S
C163 H228 0.959 . S
C164 C163 1.517 . S
C164 O212 1.468 . S
C164 H225 0.980 . S
C165 C166 1.349 . S
C165 C170 1.367 . S
C165 O212 1.408 . S
C166 C165 1.349 . S
C166 C167 1.407 . S
C166 H229 0.930 . S
C167 C166 1.407 . S
C167 C168 1.449 . S
C167 C171 1.535 1_545 S
C168 C167 1.449 . S
C168 C169 1.384 . S
C168 C193 1.553 . S
C169 C168 1.384 . S
C169 C170 1.364 . S
C169 C172 1.450 . S
C170 C165 1.367 . S
C170 C169 1.364 . S
C170 H230 0.931 . S
C171 C167 1.535 1_565 S
C171 H231 0.959 . S
C171 H232 0.961 . S
C171 H233 0.959 . S
C172 C169 1.450 . S
C172 H234 0.960 . S
C172 H235 0.960 . S
C172 H236 0.960 . S
C173 C174 1.309 . S
C173 C178 1.304 . S
C173 O211 1.435 . S
C174 C173 1.309 . S
C174 C175 1.476 . S
C174 H238 0.930 . S
C175 C174 1.476 . S
C175 C176 1.400 . S
C175 C179 1.567 1_545 S
C176 C175 1.400 . S
C176 C177 1.373 . S
C176 C198 1.432 . S
C177 C176 1.373 . S
C177 C178 1.339 . S
C177 C180 1.530 . S
C178 C173 1.304 . S
C178 C177 1.339 . S
C178 H239 0.930 . S
C179 C175 1.567 1_565 S
C179 H240 0.961 . S
C179 H241 0.960 . S
C179 H242 0.958 . S
C180 C177 1.530 . S
C180 H243 0.961 . S
C180 H244 0.960 . S
C180 H245 0.960 . S
C181 C182 1.530 . S
C181 H247 0.961 . S
C181 H248 0.961 1_545 S
C181 H249 0.959 1_545 S
C182 C181 1.530 . S
C182 O210 1.412 . S
C182 H246 0.980 . S
C183 C184 1.288 1_545 S
C183 C188 1.377 . S
C183 O210 1.393 . S
C184 C183 1.288 1_565 S
C184 C185 1.369 . S
C184 H250 0.932 . S
C185 C184 1.369 . S
C185 C186 1.398 1_565 S
C185 C189 1.527 . S
C186 C185 1.398 1_545 S
C186 C187 1.380 . S
C186 C200 1.497 . S
C187 C186 1.380 . S
C187 C188 1.383 . S
C187 C190 1.603 . S
C188 C183 1.377 . S
C188 C187 1.383 . S
C188 H251 0.929 . S
C189 C185 1.527 . S
C189 H252 0.961 . S
C189 H253 0.959 . S
C189 H254 0.959 . S
C190 C187 1.603 . S
C190 H255 0.960 . S
C190 H256 0.962 . S
C190 H257 0.961 . S
C191 C158 1.587 . S
C191 C192 1.360 . S
C191 C204 1.412 . S
C192 C191 1.360 . S
C192 C193 1.365 . S
C192 H258 0.929 . S
C193 C168 1.553 . S
C193 C192 1.365 . S
C193 C194 1.404 . S
C194 C193 1.404 . S
C194 C195 1.395 . S
C194 C205 1.451 . S
C195 C194 1.395 . S
C195 C196 1.322 . S
C195 H259 0.930 . S
C196 C195 1.322 . S
C196 C197 1.459 . S
C196 H260 0.929 . S
C197 C196 1.459 . S
C197 C198 1.445 . S
C197 C206 1.395 . S
C198 C176 1.432 . S
C198 C197 1.445 . S
C198 C199 1.370 . S
C199 C198 1.370 . S
C199 C200 1.438 . S
C199 H261 0.930 . S
C200 C186 1.497 . S
C200 C199 1.438 . S
C200 C201 1.360 . S
C201 C200 1.360 . S
C201 C202 1.401 . S
C201 C206 1.446 . S
C202 C201 1.401 . S
C202 C203 1.347 . S
C202 H262 0.929 . S
C203 C202 1.347 . S
C203 C204 1.455 . S
C203 H263 0.930 . S
C204 C191 1.412 . S
C204 C203 1.455 . S
C204 C205 1.331 . S
C205 C194 1.451 . S
C205 C204 1.331 . S
C205 C206 1.497 . S
C206 C197 1.395 . S
C206 C201 1.446 . S
C206 C205 1.497 . S
C207 C208 1.582 . S
C207 H264 0.962 . S
C207 H265 0.959 . S
C207 H266 0.958 . S
C208 C207 1.582 . S
C208 O211 1.458 . S
C208 H237 0.980 . S
O209 C154 1.426 1_565 S
O209 C155 1.334 1_565 S
O210 C182 1.412 . S
O210 C183 1.393 . S
O211 C173 1.435 . S
O211 C208 1.458 . S
O212 C164 1.468 . S
O212 C165 1.408 . S
H213 C154 0.980 . S
H214 C153 0.959 . S
H215 C153 0.959 . S
H216 C153 0.960 . S
H217 C156 0.929 . S
H218 C160 0.929 . S
H219 C161 0.959 . S
H220 C161 0.961 . S
H221 C161 0.961 . S
H222 C162 0.960 . S
H223 C162 0.960 . S
H224 C162 0.961 . S
H225 C164 0.980 . S
H226 C163 0.961 . S
H227 C163 0.960 . S
H228 C163 0.959 . S
H229 C166 0.930 . S
H230 C170 0.931 . S
H231 C171 0.959 . S
H232 C171 0.961 . S
H233 C171 0.959 . S
H234 C172 0.960 . S
H235 C172 0.960 . S
H236 C172 0.960 . S
H237 C208 0.980 . S
H238 C174 0.930 . S
H239 C178 0.930 . S
H240 C179 0.961 . S
H241 C179 0.960 . S
H242 C179 0.958 . S
H243 C180 0.961 . S
H244 C180 0.960 . S
H245 C180 0.960 . S
H246 C182 0.980 . S
H247 C181 0.961 . S
H248 C181 0.961 1_565 S
H249 C181 0.959 1_565 S
H250 C184 0.932 . S
H251 C188 0.929 . S
H252 C189 0.961 . S
H253 C189 0.959 . S
H254 C189 0.959 . S
H255 C190 0.960 . S
H256 C190 0.962 . S
H257 C190 0.961 . S
H258 C192 0.929 . S
H259 C195 0.930 . S
H260 C196 0.929 . S
H261 C199 0.930 . S
H262 C202 0.929 . S
H263 C203 0.930 . S
H264 C207 0.962 . S
H265 C207 0.959 . S
H266 C207 0.958 . S
C267 C268 1.560 . S
C267 H328 0.959 . S
C267 H329 0.959 . S
C267 H330 0.960 . S
C268 C267 1.560 . S
C268 O323 1.426 . S
C268 H327 0.980 . S
C269 C270 1.407 . S
C269 C274 1.418 . S
C269 O323 1.334 . S
C270 C269 1.407 . S
C270 C271 1.360 . S
C270 H331 0.929 . S
C271 C270 1.360 . S
C271 C272 1.401 . S
C271 C275 1.527 . S
C272 C271 1.401 . S
C272 C273 1.405 . S
C272 C305 1.587 . S
C273 C272 1.405 . S
C273 C274 1.332 . S
C273 C276 1.496 . S
C274 C269 1.418 . S
C274 C273 1.332 . S
C274 H332 0.929 . S
C275 C271 1.527 . S
C275 H333 0.959 . S
C275 H334 0.961 . S
C275 H335 0.961 . S
C276 C273 1.496 . S
C276 H336 0.960 . S
C276 H337 0.960 . S
C276 H338 0.961 . S
C277 C278 1.517 . S
C277 H340 0.961 . S
C277 H341 0.960 . S
C277 H342 0.959 . S
C278 C277 1.517 . S
C278 O326 1.468 . S
C278 H339 0.980 . S
C279 C280 1.349 . S
C279 C284 1.367 . S
C279 O326 1.408 . S
C280 C279 1.349 . S
C280 C281 1.407 . S
C280 H343 0.930 . S
C281 C280 1.407 . S
C281 C282 1.449 . S
C281 C285 1.535 . S
C282 C281 1.449 . S
C282 C283 1.384 . S
C282 C307 1.553 . S
C283 C282 1.384 . S
C283 C284 1.364 . S
C283 C286 1.450 . S
C284 C279 1.367 . S
C284 C283 1.364 . S
C284 H344 0.931 . S
C285 C281 1.535 . S
C285 H345 0.959 . S
C285 H346 0.961 . S
C285 H347 0.959 . S
C286 C283 1.450 . S
C286 H348 0.960 . S
C286 H349 0.960 . S
C286 H350 0.960 . S
C287 C288 1.309 . S
C287 C292 1.304 . S
C287 O325 1.435 . S
C288 C287 1.309 . S
C288 C289 1.476 . S
C288 H352 0.930 . S
C289 C288 1.476 . S
C289 C290 1.400 . S
C289 C293 1.567 . S
C290 C289 1.400 . S
C290 C291 1.373 . S
C290 C312 1.432 . S
C291 C290 1.373 . S
C291 C292 1.339 . S
C291 C294 1.530 . S
C292 C287 1.304 . S
C292 C291 1.339 . S
C292 H353 0.930 . S
C293 C289 1.567 . S
C293 H354 0.961 . S
C293 H355 0.960 . S
C293 H356 0.958 . S
C294 C291 1.530 . S
C294 H357 0.961 . S
C294 H358 0.960 . S
C294 H359 0.960 . S
C295 C296 1.530 . S
C295 H361 0.961 . S
C295 H362 0.961 1_554 S
C295 H363 0.959 . S
C296 C295 1.530 . S
C296 O324 1.412 1_554 S
C296 H360 0.981 1_554 S
C297 C298 1.288 . S
C297 C302 1.377 . S
C297 O324 1.393 . S
C298 C297 1.288 . S
C298 C299 1.369 . S
C298 H364 0.932 . S
C299 C298 1.369 . S
C299 C300 1.398 . S
C299 C303 1.527 . S
C300 C299 1.398 . S
C300 C301 1.380 . S
C300 C314 1.497 . S
C301 C300 1.380 . S
C301 C302 1.383 . S
C301 C304 1.603 . S
C302 C297 1.377 . S
C302 C301 1.383 . S
C302 H365 0.929 . S
C303 C299 1.527 . S
C303 H366 0.961 . S
C303 H367 0.959 . S
C303 H368 0.959 . S
C304 C301 1.603 . S
C304 H369 0.960 . S
C304 H370 0.962 . S
C304 H371 0.961 . S
C305 C272 1.587 . S
C305 C306 1.360 . S
C305 C318 1.412 . S
C306 C305 1.360 . S
C306 C307 1.365 . S
C306 H372 0.929 . S
C307 C282 1.553 . S
C307 C306 1.365 . S
C307 C308 1.404 . S
C308 C307 1.404 . S
C308 C309 1.395 . S
C308 C319 1.451 . S
C309 C308 1.395 . S
C309 C310 1.322 . S
C309 H373 0.930 . S
C310 C309 1.322 . S
C310 C311 1.459 . S
C310 H374 0.929 . S
C311 C310 1.459 . S
C311 C312 1.445 . S
C311 C320 1.395 . S
C312 C290 1.432 . S
C312 C311 1.445 . S
C312 C313 1.370 . S
C313 C312 1.370 . S
C313 C314 1.438 . S
C313 H375 0.930 . S
C314 C300 1.497 . S
C314 C313 1.438 . S
C314 C315 1.360 . S
C315 C314 1.360 . S
C315 C316 1.401 . S
C315 C320 1.446 . S
C316 C315 1.401 . S
C316 C317 1.347 . S
C316 H376 0.929 . S
C317 C316 1.347 . S
C317 C318 1.455 . S
C317 H377 0.930 . S
C318 C305 1.412 . S
C318 C317 1.455 . S
C318 C319 1.331 . S
C319 C308 1.451 . S
C319 C318 1.331 . S
C319 C320 1.497 . S
C320 C311 1.395 . S
C320 C315 1.446 . S
C320 C319 1.497 . S
C321 C322 1.582 1_554 S
C321 H378 0.962 . S
C321 H379 0.959 1_554 S
C321 H380 0.958 . S
C322 C321 1.582 1_556 S
C322 O325 1.458 . S
C322 H351 0.980 . S
O323 C268 1.426 . S
O323 C269 1.334 . S
O324 C296 1.412 1_556 S
O324 C297 1.393 . S
O325 C287 1.435 . S
O325 C322 1.458 . S
O326 C278 1.468 . S
O326 C279 1.408 . S
H327 C268 0.980 . S
H328 C267 0.959 . S
H329 C267 0.959 . S
H330 C267 0.960 . S
H331 C270 0.929 . S
H332 C274 0.929 . S
H333 C275 0.959 . S
H334 C275 0.961 . S
H335 C275 0.961 . S
H336 C276 0.960 . S
H337 C276 0.960 . S
H338 C276 0.961 . S
H339 C278 0.980 . S
H340 C277 0.961 . S
H341 C277 0.960 . S
H342 C277 0.959 . S
H343 C280 0.930 . S
H344 C284 0.931 . S
H345 C285 0.959 . S
H346 C285 0.961 . S
H347 C285 0.959 . S
H348 C286 0.960 . S
H349 C286 0.960 . S
H350 C286 0.960 . S
H351 C322 0.980 . S
H352 C288 0.930 . S
H353 C292 0.930 . S
H354 C293 0.961 . S
H355 C293 0.960 . S
H356 C293 0.958 . S
H357 C294 0.961 . S
H358 C294 0.960 . S
H359 C294 0.960 . S
H360 C296 0.981 1_556 S
H361 C295 0.961 . S
H362 C295 0.961 1_556 S
H363 C295 0.959 . S
H364 C298 0.932 . S
H365 C302 0.929 . S
H366 C303 0.961 . S
H367 C303 0.959 . S
H368 C303 0.959 . S
H369 C304 0.960 . S
H370 C304 0.962 . S
H371 C304 0.961 . S
H372 C306 0.929 . S
H373 C309 0.930 . S
H374 C310 0.929 . S
H375 C313 0.930 . S
H376 C316 0.929 . S
H377 C317 0.930 . S
H378 C321 0.962 . S
H379 C321 0.959 1_556 S
H380 C321 0.958 . S
C381 C382 1.363 . S
C381 C387 1.379 . S
C381 N389 1.356 . S
C382 C381 1.363 . S
C382 C388 1.363 1_455 S
C383 C384 1.363 1_655 S
C383 C388 1.379 . S
C383 N390 1.356 . S
C384 C383 1.363 1_455 S
C384 C387 1.363 . S
N385 C387 1.356 . S
N385 H397 0.984 . S
N385 H398 0.985 . S
N386 C388 1.356 . S
N386 H391 0.984 . S
N386 H392 0.985 . S
C387 C381 1.379 . S
C387 C384 1.363 . S
C387 N385 1.356 . S
C388 C382 1.363 1_655 S
C388 C383 1.379 . S
C388 N386 1.356 . S
N389 C381 1.356 . S
N389 H395 0.984 . S
N389 H396 0.984 . S
N390 C383 1.356 . S
N390 H393 0.984 . S
N390 H394 0.985 . S
H391 N386 0.984 . S
H392 N386 0.985 . S
H393 N390 0.984 . S
H394 N390 0.985 . S
H395 N389 0.984 . S
H396 N389 0.984 . S
H397 N385 0.984 . S
H398 N385 0.985 . S
C399 C400 1.363 . S
C399 C405 1.379 . S
C399 N407 1.356 1_655 S
C400 C399 1.363 . S
C400 C406 1.363 . S
C401 C402 1.363 . S
C401 C406 1.379 . S
C401 N408 1.356 1_545 S
C402 C401 1.363 . S
C402 C405 1.363 . S
N403 C405 1.356 . S
N403 H415 0.984 . S
N403 H416 0.985 . S
N404 C406 1.356 1_565 S
N404 H409 0.984 . S
N404 H410 0.985 . S
C405 C399 1.379 . S
C405 C402 1.363 . S
C405 N403 1.356 . S
C406 C400 1.363 . S
C406 C401 1.379 . S
C406 N404 1.356 1_545 S
N407 C399 1.356 1_455 S
N407 H413 0.984 . S
N407 H414 0.984 . S
N408 C401 1.356 1_565 S
N408 H411 0.984 . S
N408 H412 0.985 . S
H409 N404 0.984 . S
H410 N404 0.985 . S
H411 N408 0.984 . S
H412 N408 0.985 . S
H413 N407 0.984 . S
H414 N407 0.984 . S
H415 N403 0.984 . S
H416 N403 0.985 . S
C417 C418 1.363 . S
C417 C423 1.379 . S
C417 N425 1.356 . S
C418 C417 1.363 . S
C418 C424 1.363 . S
C419 C420 1.363 . S
C419 C424 1.379 . S
C419 N426 1.356 . S
C420 C419 1.363 . S
C420 C423 1.363 . S
N421 C423 1.356 . S
N421 H433 0.984 . S
N421 H434 0.985 . S
N422 C424 1.356 . S
N422 H427 0.984 . S
N422 H428 0.985 . S
C423 C417 1.379 . S
C423 C420 1.363 . S
C423 N421 1.356 . S
C424 C418 1.363 . S
C424 C419 1.379 . S
C424 N422 1.356 . S
N425 C417 1.356 . S
N425 H431 0.982 1_655 S
N425 H432 0.984 1_655 S
N426 C419 1.356 . S
N426 H429 0.984 . S
N426 H430 0.985 . S
H427 N422 0.984 . S
H428 N422 0.985 . S
H429 N426 0.984 . S
H430 N426 0.985 . S
H431 N425 0.982 1_455 S
H432 N425 0.984 1_455 S
H433 N421 0.984 . S
H434 N421 0.985 . S
C435 C436 1.363 . S
C435 C441 1.376 . S
C435 N443 1.356 1_455 S
C436 C435 1.363 . S
C436 C442 1.363 . S
C437 C438 1.363 . S
C437 C442 1.379 . S
C437 N444 1.356 . S
C438 C437 1.363 . S
C438 C441 1.373 . S
N439 C441 1.352 1_655 S
N439 H451 0.984 . S
N439 H452 0.985 . S
N440 C442 1.356 . S
N440 H445 0.984 . S
N440 H446 0.985 . S
C441 C435 1.376 . S
C441 C438 1.373 . S
C441 N439 1.352 1_455 S
C442 C436 1.363 . S
C442 C437 1.379 . S
C442 N440 1.356 . S
N443 C435 1.356 1_655 S
N443 H449 0.984 . S
N443 H450 0.984 1_655 S
N444 C437 1.356 . S
N444 H447 0.984 . S
N444 H448 0.985 . S
H445 N440 0.984 . S
H446 N440 0.985 . S
H447 N444 0.984 . S
H448 N444 0.985 . S
H449 N443 0.984 . S
H450 N443 0.984 1_455 S
H451 N439 0.984 . S
H452 N439 0.985 . S
C453 C454 1.363 . S
C453 C459 1.379 . S
C453 N461 1.356 . S
C454 C453 1.363 . S
C454 C460 1.363 . S
C455 C456 1.363 . S
C455 C460 1.379 . S
C455 N462 1.356 . S
C456 C455 1.363 . S
C456 C459 1.363 . S
N457 C459 1.356 . S
N457 H469 0.984 . S
N457 H470 0.985 . S
N458 C460 1.356 . S
N458 H463 0.984 . S
N458 H464 0.985 . S
C459 C453 1.379 . S
C459 C456 1.363 . S
C459 N457 1.356 . S
C460 C454 1.363 . S
C460 C455 1.379 . S
C460 N458 1.356 . S
N461 C453 1.356 . S
N461 H467 0.984 . S
N461 H468 0.984 . S
N462 C455 1.356 . S
N462 H465 0.984 . S
N462 H466 0.985 . S
H463 N458 0.984 . S
H464 N458 0.985 . S
H465 N462 0.984 . S
H466 N462 0.985 . S
H467 N461 0.984 . S
H468 N461 0.984 . S
H469 N457 0.984 . S
H470 N457 0.985 . S
C471 C472 1.363 . S
C471 C477 1.379 . S
C471 N479 1.356 . S
C472 C471 1.363 . S
C472 C478 1.363 . S
C473 C474 1.363 . S
C473 C478 1.379 . S
C473 N480 1.356 . S
C474 C473 1.363 . S
C474 C477 1.363 . S
N475 C477 1.356 . S
N475 H487 0.984 . S
N475 H488 0.985 . S
N476 C478 1.356 . S
N476 H481 0.984 . S
N476 H482 0.985 . S
C477 C471 1.379 . S
C477 C474 1.363 . S
C477 N475 1.356 . S
C478 C472 1.363 . S
C478 C473 1.379 . S
C478 N476 1.356 . S
N479 C471 1.356 . S
N479 H485 0.984 . S
N479 H486 0.984 . S
N480 C473 1.356 . S
N480 H483 0.984 . S
N480 H484 0.985 . S
H481 N476 0.984 . S
H482 N476 0.985 . S
H483 N480 0.984 . S
H484 N480 0.985 . S
H485 N479 0.984 . S
H486 N479 0.984 . S
H487 N475 0.984 . S
H488 N475 0.985 . S
C489 C490 1.363 . S
C489 C495 1.379 . S
C489 N497 1.356 . S
C490 C489 1.363 . S
C490 C496 1.363 . S
C491 C492 1.363 . S
C491 C496 1.379 . S
C491 N498 1.356 1_545 S
C492 C491 1.363 . S
C492 C495 1.363 . S
N493 C495 1.356 . S
N493 H505 0.984 . S
N493 H506 0.985 . S
N494 C496 1.356 1_565 S
N494 H499 0.984 . S
N494 H500 0.985 . S
C495 C489 1.379 . S
C495 C492 1.363 . S
C495 N493 1.356 . S
C496 C490 1.363 . S
C496 C491 1.379 . S
C496 N494 1.356 1_545 S
N497 C489 1.356 . S
N497 H503 0.984 . S
N497 H504 0.984 . S
N498 C491 1.356 1_565 S
N498 H501 0.984 . S
N498 H502 0.985 . S
H499 N494 0.984 . S
H500 N494 0.985 . S
H501 N498 0.984 . S
H502 N498 0.985 . S
H503 N497 0.984 . S
H504 N497 0.984 . S
H505 N493 0.984 . S
H506 N493 0.985 . S
C507 C508 1.363 . S
C507 C513 1.379 . S
C507 N515 1.356 1_565 S
C508 C507 1.363 . S
C508 C514 1.363 . S
C509 C510 1.363 . S
C509 C514 1.379 . S
C509 N516 1.356 . S
C510 C509 1.363 . S
C510 C513 1.363 . S
N511 C513 1.356 1_556 S
N511 H523 0.984 . S
N511 H524 0.985 . S
N512 C514 1.356 . S
N512 H517 0.984 . S
N512 H518 0.985 . S
C513 C507 1.379 . S
C513 C510 1.363 . S
C513 N511 1.356 1_554 S
C514 C508 1.363 . S
C514 C509 1.379 . S
C514 N512 1.356 . S
N515 C507 1.356 1_545 S
N515 H521 0.984 . S
N515 H522 0.984 . S
N516 C509 1.356 . S
N516 H519 0.984 . S
N516 H520 0.985 . S
H517 N512 0.984 . S
H518 N512 0.985 . S
H519 N516 0.984 . S
H520 N516 0.985 . S
H521 N515 0.984 . S
H522 N515 0.984 . S
H523 N511 0.984 . S
H524 N511 0.985 . S
C525 C526 1.363 . S
C525 C531 1.379 . S
C525 N533 1.356 . S
C526 C525 1.363 . S
C526 C532 1.363 . S
C527 C528 1.363 . S
C527 C532 1.379 . S
C527 N534 1.356 1_455 S
C528 C527 1.363 . S
C528 C531 1.363 . S
N529 C531 1.356 . S
N529 H541 0.984 . S
N529 H542 0.985 . S
N530 C532 1.356 . S
N530 H535 0.984 1_565 S
N530 H536 0.985 1_455 S
C531 C525 1.379 . S
C531 C528 1.363 . S
C531 N529 1.356 . S
C532 C526 1.363 . S
C532 C527 1.379 . S
C532 N530 1.356 . S
N533 C525 1.356 . S
N533 H539 0.984 . S
N533 H540 0.984 . S
N534 C527 1.356 1_655 S
N534 H537 0.984 . S
N534 H538 0.985 . S
H535 N530 0.984 1_545 S
H536 N530 0.985 1_655 S
H537 N534 0.984 . S
H538 N534 0.985 . S
H539 N533 0.984 . S
H540 N533 0.984 . S
H541 N529 0.984 . S
H542 N529 0.985 . S
C543 C544 1.363 1_565 S
C543 C549 1.379 . S
C543 N551 1.356 . S
C544 C543 1.363 1_545 S
C544 C550 1.363 . S
C545 C546 1.363 . S
C545 C550 1.379 . S
C545 N552 1.356 . S
C546 C545 1.363 . S
C546 C549 1.363 1_545 S
N547 C549 1.356 . S
N547 H559 0.984 . S
N547 H560 0.985 . S
N548 C550 1.356 . S
N548 H553 0.984 . S
N548 H554 0.985 . S
C549 C543 1.379 . S
C549 C546 1.363 1_565 S
C549 N547 1.356 . S
C550 C544 1.363 . S
C550 C545 1.379 . S
C550 N548 1.356 . S
N551 C543 1.356 . S
N551 H557 0.984 . S
N551 H558 0.984 . S
N552 C545 1.356 . S
N552 H555 0.984 . S
N552 H556 0.985 . S
H553 N548 0.984 . S
H554 N548 0.985 . S
H555 N552 0.984 . S
H556 N552 0.985 . S
H557 N551 0.984 . S
H558 N551 0.984 . S
H559 N547 0.984 . S
H560 N547 0.985 . S
C561 C562 1.363 . S
C561 C567 1.379 . S
C561 N569 1.356 . S
C562 C561 1.363 . S
C562 C568 1.363 . S
C563 C564 1.355 1_556 S
C563 C568 1.356 1_556 S
C563 N570 1.390 . S
C564 C563 1.355 1_554 S
C564 C567 1.363 . S
N565 C567 1.356 . S
N565 H577 0.984 . S
N565 H578 0.985 . S
N566 C568 1.356 . S
N566 H571 0.984 . S
N566 H572 0.953 1_554 S
C567 C561 1.379 . S
C567 C564 1.363 . S
C567 N565 1.356 . S
C568 C562 1.363 . S
C568 C563 1.356 1_554 S
C568 N566 1.356 . S
N569 C561 1.356 . S
N569 H575 0.984 . S
N569 H576 0.984 . S
N570 C563 1.390 . S
N570 H573 0.984 . S
N570 H574 0.985 . S
H571 N566 0.984 . S
H572 N566 0.953 1_556 S
H573 N570 0.984 . S
H574 N570 0.985 . S
H575 N569 0.984 . S
H576 N569 0.984 . S
H577 N565 0.984 . S
H578 N565 0.985 . S
C579 C580 1.363 . S
C579 C585 1.379 . S
C579 N587 1.356 . S
C580 C579 1.363 . S
C580 C586 1.363 . S
C581 C582 1.363 . S
C581 C586 1.379 . S
C581 N588 1.356 . S
C582 C581 1.363 . S
C582 C585 1.363 . S
N583 C585 1.356 . S
N583 H595 0.990 . S
N583 H596 0.985 . S
N584 C586 1.356 . S
N584 H589 0.984 . S
N584 H590 0.985 . S
C585 C579 1.379 . S
C585 C582 1.363 . S
C585 N583 1.356 . S
C586 C580 1.363 . S
C586 C581 1.379 . S
C586 N584 1.356 . S
N587 C579 1.356 . S
N587 H593 0.984 . S
N587 H594 0.984 . S
N588 C581 1.356 . S
N588 H591 0.984 . S
N588 H592 0.985 . S
H589 N584 0.984 . S
H590 N584 0.985 . S
H591 N588 0.984 . S
H592 N588 0.985 . S
H593 N587 0.984 . S
H594 N587 0.984 . S
H595 N583 0.990 . S
H596 N583 0.985 . S
C384 C94 1.087 . S
C382 C10 1.501 . S
C400 C21 1.517 1_655 S
C402 C208 1.156 . S
C418 C31 1.263 . S
C420 C268 1.021 . S
C436 C0 1.361 . S
C438 C68 1.156 . S
C456 C182 1.139 . S
C454 C18 1.339 . S
C472 C34 1.402 . S
C474 C278 0.910 . S
C492 C164 0.803 . S
C490 C36 1.424 . S
C508 C8 1.395 . S
C510 C296 1.062 . S
C528 C40 1.071 . S
C526 C23 1.303 . S
C546 C154 1.001 . S
C544 C26 1.215 . S
C564 C322 1.243 1_554 S
C562 C5 1.450 . S
C580 C13 1.371 . S
C582 C50 0.781 . S
