# Generated by pormake.
# Topology zzz, (3,6)-cn, num edge types: 1
# Building blocks:
#     Node 0, Type 0, BuildingBlock: BETDIP_clean_linker_0, # of connection points: 3
#     Node 1, Type 0, BuildingBlock: BETDIP_clean_linker_0, # of connection points: 3
#     Node 2, Type 0, BuildingBlock: BETDIP_clean_linker_0, # of connection points: 3
#     Node 3, Type 0, BuildingBlock: BETDIP_clean_linker_0, # of connection points: 3
#     Node 4, Type 0, BuildingBlock: BETDIP_clean_linker_0, # of connection points: 3
#     Node 5, Type 0, BuildingBlock: BETDIP_clean_linker_0, # of connection points: 3
#     Node 6, Type 0, BuildingBlock: BETDIP_clean_linker_0, # of connection points: 3
#     Node 7, Type 0, BuildingBlock: BETDIP_clean_linker_0, # of connection points: 3
#     Node 8, Type 1, BuildingBlock: KUMJIN_clean_sbu_1, # of connection points: 6
#     Node 9, Type 1, BuildingBlock: KUMJIN_clean_sbu_1, # of connection points: 6
#     Node 10, Type 1, BuildingBlock: KUMJIN_clean_sbu_1, # of connection points: 6
#     Node 11, Type 1, BuildingBlock: KUMJIN_clean_sbu_1, # of connection points: 6
#     Edge 12, Type (0, 1), BuildingBlock: MIFKUJ_clean_linker_0, # of connection points: 2
#     Edge 13, Type (0, 1), BuildingBlock: MIFKUJ_clean_linker_0, # of connection points: 2
#     Edge 14, Type (0, 1), BuildingBlock: MIFKUJ_clean_linker_0, # of connection points: 2
#     Edge 15, Type (0, 1), BuildingBlock: MIFKUJ_clean_linker_0, # of connection points: 2
#     Edge 16, Type (0, 1), BuildingBlock: MIFKUJ_clean_linker_0, # of connection points: 2
#     Edge 17, Type (0, 1), BuildingBlock: MIFKUJ_clean_linker_0, # of connection points: 2
#     Edge 18, Type (0, 1), BuildingBlock: MIFKUJ_clean_linker_0, # of connection points: 2
#     Edge 19, Type (0, 1), BuildingBlock: MIFKUJ_clean_linker_0, # of connection points: 2
#     Edge 20, Type (0, 1), BuildingBlock: MIFKUJ_clean_linker_0, # of connection points: 2
#     Edge 21, Type (0, 1), BuildingBlock: MIFKUJ_clean_linker_0, # of connection points: 2
#     Edge 22, Type (0, 1), BuildingBlock: MIFKUJ_clean_linker_0, # of connection points: 2
#     Edge 23, Type (0, 1), BuildingBlock: MIFKUJ_clean_linker_0, # of connection points: 2
#     Edge 24, Type (0, 1), BuildingBlock: MIFKUJ_clean_linker_0, # of connection points: 2
#     Edge 25, Type (0, 1), BuildingBlock: MIFKUJ_clean_linker_0, # of connection points: 2
#     Edge 26, Type (0, 1), BuildingBlock: MIFKUJ_clean_linker_0, # of connection points: 2
#     Edge 27, Type (0, 1), BuildingBlock: MIFKUJ_clean_linker_0, # of connection points: 2
#     Edge 28, Type (0, 1), BuildingBlock: MIFKUJ_clean_linker_0, # of connection points: 2
#     Edge 29, Type (0, 1), BuildingBlock: MIFKUJ_clean_linker_0, # of connection points: 2
#     Edge 30, Type (0, 1), BuildingBlock: MIFKUJ_clean_linker_0, # of connection points: 2
#     Edge 31, Type (0, 1), BuildingBlock: MIFKUJ_clean_linker_0, # of connection points: 2
#     Edge 32, Type (0, 1), BuildingBlock: MIFKUJ_clean_linker_0, # of connection points: 2
#     Edge 33, Type (0, 1), BuildingBlock: MIFKUJ_clean_linker_0, # of connection points: 2
#     Edge 34, Type (0, 1), BuildingBlock: MIFKUJ_clean_linker_0, # of connection points: 2
#     Edge 35, Type (0, 1), BuildingBlock: MIFKUJ_clean_linker_0, # of connection points: 2
# Relax obj value: 0.147
# Max RMSD: 0.089
# Mean RMSD: 0.075
data_MOF--net-zzz--node1-KUMJIN_clean_sbu_1--node2-BETDIP_clean_linker_0--edge1-MIFKUJ_clean_linker_0
_symmetry_space_group_name_H-M    P1
_symmetry_Int_Tables_number       1
_symmetry_cell_setting            triclinic
loop_
_symmetry_equiv_pos_as_xyz
'x, y, z'
_cell_length_a     65.655514
_cell_length_b     65.670275
_cell_length_c     20.442184
_cell_angle_alpha  89.818424
_cell_angle_beta   89.831207
_cell_angle_gamma 90.34994
loop_
_atom_site_label
_atom_site_type_symbol
_atom_site_fract_x
_atom_site_fract_y
_atom_site_fract_z
_atom_type_partial_charge
H0 H 0.75235 0.52414 0.32501 0.0
H1 H 0.74101 0.56478 0.16354 0.0
H2 H 0.79677 0.56951 0.26975 0.0
H3 H 0.70581 0.56374 0.2341 0.0
C4 C 0.70641 0.54838 0.21455 0.0
C5 C 0.75666 0.53738 0.29637 0.0
C6 C 0.77629 0.54657 0.30527 0.0
C7 C 0.74297 0.54522 0.24792 0.0
C8 C 0.75004 0.56066 0.20583 0.0
C9 C 0.77003 0.56798 0.21004 0.0
C10 C 0.78156 0.56314 0.26525 0.0
N11 N 0.72346 0.53606 0.23387 0.0
H12 H 1.00101 0.75225 0.35383 0.0
H13 H 0.97466 0.7462 0.16145 0.0
H14 H 0.96991 0.80259 0.26353 0.0
H15 H 0.96612 0.71309 0.21009 0.0
C16 C 0.9823 0.71024 0.21612 0.0
C17 C 0.99201 0.75837 0.31417 0.0
C18 C 0.98504 0.77899 0.317 0.0
C19 C 0.98707 0.74579 0.25908 0.0
C20 C 0.9767 0.75466 0.20642 0.0
C21 C 0.97087 0.77502 0.20781 0.0
C22 C 0.97401 0.78658 0.26405 0.0
N23 N 0.99392 0.72507 0.25244 0.0
H24 H 0.77733 1.00647 0.33697 0.0
H25 H 0.79051 0.97581 0.1561 0.0
H26 H 0.73205 0.96843 0.24449 0.0
H27 H 0.82598 0.97194 0.24388 0.0
C28 C 0.82466 0.98723 0.22383 0.0
C29 C 0.77305 0.99549 0.30004 0.0
C30 C 0.75277 0.98726 0.29942 0.0
C31 C 0.78744 0.98995 0.25015 0.0
C32 C 0.7808 0.97763 0.19869 0.0
C33 C 0.76062 0.97118 0.19509 0.0
C34 C 0.74767 0.97382 0.24866 0.0
N35 N 0.80735 0.99904 0.24406 0.0
H36 H 0.51963 0.78441 0.33154 0.0
H37 H 0.56241 0.7911 0.1718 0.0
H38 H 0.55956 0.73541 0.28114 0.0
H39 H 0.56298 0.8245 0.21085 0.0
C40 C 0.54664 0.82629 0.2049 0.0
C41 C 0.53222 0.77866 0.30286 0.0
C42 C 0.53966 0.75852 0.31475 0.0
C43 C 0.54118 0.79115 0.25252 0.0
C44 C 0.55647 0.78256 0.21305 0.0
C45 C 0.56251 0.76227 0.22082 0.0
C46 C 0.55515 0.75116 0.27461 0.0
N47 N 0.5337 0.81123 0.23608 0.0
H48 H 0.28293 0.50255 0.91374 0.0
H49 H 0.2881 0.47888 0.11083 0.0
H50 H 0.2308 0.4766 0.01285 0.0
H51 H 0.304 0.5176 0.10157 0.0
C52 C 0.31555 0.50811 0.07891 0.0
C53 C 0.27624 0.49495 0.95574 0.0
C54 C 0.25512 0.489 0.95468 0.0
C55 C 0.2884 0.49122 0.01311 0.0
C56 C 0.27926 0.48158 0.06695 0.0
C57 C 0.25872 0.47628 0.06663 0.0
C58 C 0.24702 0.47985 0.01092 0.0
N59 N 0.30934 0.49765 0.02023 0.0
H60 H 0.02997 0.28712 0.92982 0.0
H61 H 0.056 0.29232 0.12288 0.0
H62 H 0.05987 0.23594 0.01994 0.0
H63 H 0.01855 0.30902 0.1231 0.0
C64 C 0.02723 0.32015 0.09495 0.0
C65 C 0.03882 0.28075 0.96942 0.0
C66 C 0.04537 0.25996 0.96625 0.0
C67 C 0.04316 0.29287 0.02617 0.0
C68 C 0.05362 0.28385 0.07807 0.0
C69 C 0.05927 0.26345 0.07597 0.0
C70 C 0.05613 0.25204 0.01938 0.0
N71 N 0.03633 0.31354 0.03433 0.0
H72 H 0.24879 0.04298 0.93443 0.0
H73 H 0.24124 0.05717 0.13875 0.0
H74 H 0.2961 0.07422 0.04181 0.0
H75 H 0.22404 0.01967 0.10284 0.0
C76 C 0.21353 0.03149 0.08755 0.0
C77 C 0.25427 0.0506 0.97788 0.0
C78 C 0.27499 0.05774 0.98084 0.0
C79 C 0.24125 0.05206 0.03462 0.0
C80 C 0.24976 0.05878 0.09349 0.0
C81 C 0.26999 0.06491 0.09617 0.0
C82 C 0.28074 0.06814 0.03791 0.0
N83 N 0.22046 0.04502 0.03643 0.0
H84 H 0.48175 0.24921 0.92055 0.0
H85 H 0.48655 0.24406 0.13148 0.0
H86 H 0.48901 0.30256 0.04227 0.0
H87 H 0.51587 0.21787 0.06189 0.0
C88 C 0.50074 0.21103 0.06275 0.0
C89 C 0.48355 0.25624 0.968 0.0
C90 C 0.48441 0.27814 0.97321 0.0
C91 C 0.48511 0.24365 0.0261 0.0
C92 C 0.48631 0.25314 0.08707 0.0
C93 C 0.48732 0.27412 0.09156 0.0
C94 C 0.48732 0.28622 0.03582 0.0
N95 N 0.4853 0.2217 0.02627 0.0
Eu96 Eu 0.99446 0.02844 0.57604 0.0
C97 C 0.06823 0.03963 0.76687 0.0
N98 N 0.06598 0.02784 0.71267 0.0
C99 C 0.10089 0.03388 0.68299 0.0
C100 C 0.08709 0.04902 0.78103 0.0
C101 C 0.08201 0.02471 0.67118 0.0
C102 C 0.10347 0.04606 0.73816 0.0
C103 C 0.05368 0.05437 0.8653 0.0
C104 C 0.05162 0.04229 0.80863 0.0
C105 C 0.0725 0.06356 0.87959 0.0
C106 C 0.08914 0.06089 0.83765 0.0
Eu107 Eu 0.03427 0.01092 0.70268 0.0
N108 N 0.03352 0.0331 0.79397 0.0
C109 C 0.03684 0.05665 0.90662 0.0
C110 C 0.01736 0.03465 0.83576 0.0
C111 C 0.01865 0.04668 0.89184 0.0
H112 H 0.08059 0.01441 0.63051 0.0
H113 H 1.00571 0.04789 0.92441 0.0
H114 H 0.94786 0.01993 0.63913 0.0
H115 H 0.02828 0.99928 0.34918 0.0
H116 H 1.00362 0.02621 0.82789 0.0
H117 H 0.03784 0.06575 0.95063 0.0
H118 H 0.02606 0.02108 0.44546 0.0
H119 H 0.11356 0.03121 0.65019 0.0
H120 H 0.07436 0.07272 0.92319 0.0
H121 H 0.10357 0.06804 0.84955 0.0
H122 H 0.91709 0.99985 0.6142 0.0
H123 H 0.1182 0.05295 0.74756 0.0
H124 H 0.99982 0.97605 0.32223 0.0
N125 N 0.96487 1.00853 0.55898 0.0
C126 C 0.96469 0.99681 0.50421 0.0
C127 C 0.93044 0.99867 0.58327 0.0
C128 C 0.94726 0.98529 0.48748 0.0
C129 C 0.94803 1.0098 0.59797 0.0
C130 C 0.93005 0.98632 0.52788 0.0
N131 N 0.99846 1.00801 0.48102 0.0
C132 C 0.01445 1.0098 0.43852 0.0
C133 C 0.98203 0.98443 0.40723 0.0
C134 C 0.98198 0.99637 0.46461 0.0
C135 C 0.99921 0.98497 0.3667 0.0
C136 C 0.01537 0.99793 0.382 0.0
H137 H 0.91634 0.97782 0.51637 0.0
H138 H 0.93416 0.96439 0.41717 0.0
H139 H 0.96457 0.96362 0.34699 0.0
O140 O 0.99545 0.0499 0.49486 0.0
O141 O 0.99506 0.99402 0.599 0.0
O142 O 0.02863 0.98806 0.61988 0.0
O143 O 0.96775 0.04644 0.55105 0.0
O144 O 0.02833 0.03627 0.55464 0.0
O145 O 0.04514 1.00893 0.5973 0.0
O146 O 0.03088 0.98844 0.78081 0.0
O147 O 0.03327 0.04559 0.68505 0.0
O148 O 1.00012 0.05192 0.65728 0.0
O149 O 0.06025 0.99317 0.73519 0.0
O150 O 1.00047 1.00463 0.72978 0.0
O151 O 0.98208 0.03 0.67991 0.0
C152 C 0.01083 0.98173 0.598 0.0
C153 C 0.97529 0.07903 0.50725 0.0
C154 C 0.98451 0.11165 0.45927 0.0
C155 C 0.9731 0.1216 0.50775 0.0
C156 C 0.96405 0.08908 0.55598 0.0
C157 C 0.96293 0.11031 0.55589 0.0
C158 C 0.98535 0.09042 0.45894 0.0
C159 C 0.04439 0.02422 0.55575 0.0
C160 C 0.97721 0.05679 0.5059 0.0
C161 C 0.94743 0.97327 0.43085 0.0
C162 C 0.96477 0.9728 0.39095 0.0
C163 C 0.01764 0.05805 0.68196 0.0
C164 C 0.05412 0.96079 0.78286 0.0
C165 C 0.04654 0.9283 0.83482 0.0
C166 C 0.06444 0.92016 0.80826 0.0
C167 C 0.07182 0.95237 0.75525 0.0
C168 C 0.04149 0.94858 0.82208 0.0
C169 C 0.07688 0.93212 0.76789 0.0
C170 C 0.98385 0.01593 0.72554 0.0
C171 C 0.04983 0.98268 0.77763 0.0
H172 H 0.97249 0.13807 0.50936 0.0
H173 H 0.95624 0.08063 0.59419 0.0
H174 H 0.95437 0.11804 0.59361 0.0
H175 H 0.99403 0.08274 0.42121 0.0
H176 H 0.06853 0.90446 0.81758 0.0
H177 H 0.08198 0.96151 0.72517 0.0
H178 H 0.02797 0.95497 0.84447 0.0
H179 H 0.09056 0.92573 0.74684 0.0
Eu180 Eu 0.52273 0.03497 0.7075 0.0
C181 C 0.51069 0.9517 0.5749 0.0
N182 N 0.52039 0.96876 0.55316 0.0
C183 C 0.54714 0.9486 0.50721 0.0
C184 C 0.51938 0.93231 0.56544 0.0
C185 C 0.53805 0.96747 0.51818 0.0
C186 C 0.53785 0.93094 0.53137 0.0
C187 C 0.48184 0.93605 0.63027 0.0
C188 C 0.49194 0.9536 0.60619 0.0
C189 C 0.49065 0.91679 0.62203 0.0
C190 C 0.50929 0.91492 0.58932 0.0
Eu191 Eu 0.50324 0.99978 0.56752 0.0
N192 N 0.48349 0.97245 0.61229 0.0
C193 C 0.46299 0.93828 0.66123 0.0
C194 C 0.46459 0.97442 0.63976 0.0
C195 C 0.45431 0.95753 0.66563 0.0
H196 H 0.54489 0.9809 0.49707 0.0
H197 H 0.43949 0.95933 0.68803 0.0
H198 H 0.48313 0.05449 0.79311 0.0
H199 H 0.58959 0.07497 0.61065 0.0
H200 H 0.4569 0.98874 0.64097 0.0
H201 H 0.45482 0.9252 0.68069 0.0
H202 H 0.56945 0.0454 0.64699 0.0
H203 H 0.56116 0.94768 0.47945 0.0
H204 H 0.48303 0.9032 0.64005 0.0
H205 H 0.51574 0.89992 0.58247 0.0
H206 H 0.46831 0.08782 0.81772 0.0
H207 H 0.54488 0.91632 0.52256 0.0
H208 H 0.57574 0.10967 0.62323 0.0
N209 N 0.50707 0.06643 0.73387 0.0
C210 C 0.51723 0.08357 0.71471 0.0
C211 C 0.48185 0.08685 0.7876 0.0
C212 C 0.50964 0.10309 0.7297 0.0
C213 C 0.49002 0.06787 0.77202 0.0
C214 C 0.49156 0.10455 0.76565 0.0
N215 N 0.54345 0.0627 0.67338 0.0
C216 C 0.56278 0.06024 0.64992 0.0
C217 C 0.54731 0.09914 0.66591 0.0
C218 C 0.53595 0.08165 0.68375 0.0
C219 C 0.56657 0.09662 0.63768 0.0
C220 C 0.57443 0.07708 0.63036 0.0
H221 H 0.48534 0.11925 0.77859 0.0
H222 H 0.51501 0.1356 0.7215 0.0
H223 H 0.54791 0.13214 0.66509 0.0
O224 O 0.54719 0.02316 0.76865 0.0
O225 O 0.52218 0.04925 0.60392 0.0
O226 O 0.49436 0.03333 0.56117 0.0
O227 O 0.52548 0.04436 0.8091 0.0
O228 O 0.54711 0.01534 0.6572 0.0
O229 O 0.53514 0.01331 0.55239 0.0
O230 O 0.48246 0.98831 0.49314 0.0
O231 O 0.51972 0.98521 0.65511 0.0
O232 O 0.50638 1.00531 0.733 0.0
O233 O 0.51099 1.00233 0.4641 0.0
O234 O 0.47672 0.01736 0.61518 0.0
O235 O 0.48851 0.02763 0.71688 0.0
C236 C 0.50717 0.04878 0.56115 0.0
C237 C 0.55849 0.04415 0.85568 0.0
C238 C 0.59162 0.04149 0.90743 0.0
C239 C 0.58889 0.06067 0.93612 0.0
C240 C 0.55596 0.06349 0.88393 0.0
C241 C 0.57115 0.07167 0.92389 0.0
C242 C 0.57641 0.03334 0.86739 0.0
C243 C 0.55042 0.0129 0.59398 0.0
C244 C 0.54205 0.03411 0.81909 0.0
C245 C 0.52065 0.12052 0.71051 0.0
C246 C 0.5394 0.11855 0.67849 0.0
C247 C 0.5141 0.98773 0.71626 0.0
C248 C 0.48284 1.0079 0.39532 0.0
C249 C 0.45167 0.02171 0.34925 0.0
C250 C 0.46312 0.03126 0.29966 0.0
C251 C 0.49408 0.01747 0.34518 0.0
C252 C 0.4616 0.0102 0.39721 0.0
C253 C 0.48424 0.02915 0.29782 0.0
C254 C 0.47345 0.02425 0.67527 0.0
C255 C 0.49337 0.99545 0.44475 0.0
H256 H 0.60051 0.06715 0.96743 0.0
H257 H 0.54216 0.07212 0.87615 0.0
H258 H 0.56909 0.08648 0.94594 0.0
H259 H 0.57831 0.01824 0.84691 0.0
H260 H 0.45572 0.04026 0.26225 0.0
H261 H 0.51047 0.01585 0.3425 0.0
H262 H 0.45264 1.00266 0.43488 0.0
H263 H 0.49294 0.0364 0.25915 0.0
Eu264 Eu 0.5355 0.50904 0.57392 0.0
C265 C 0.46141 0.50249 0.77587 0.0
N266 N 0.46342 0.51365 0.72011 0.0
C267 C 0.42784 0.50892 0.69727 0.0
C268 C 0.44252 0.49361 0.79342 0.0
C269 C 0.44671 0.51787 0.68306 0.0
C270 C 0.42581 0.49644 0.75219 0.0
C271 C 0.47567 0.49143 0.87933 0.0
C272 C 0.47772 0.50155 0.81859 0.0
C273 C 0.45716 0.48188 0.89568 0.0
C274 C 0.44058 0.48316 0.85307 0.0
Eu275 Eu 0.49587 0.5286 0.70004 0.0
N276 N 0.49524 0.51151 0.80241 0.0
C277 C 0.49202 0.49191 0.92302 0.0
C278 C 0.51063 0.51319 0.84688 0.0
C279 C 0.50947 0.50308 0.90697 0.0
H280 H 0.44767 0.52917 0.64521 0.0
H281 H 0.52187 0.50424 0.94132 0.0
H282 H 0.58018 0.51879 0.64512 0.0
H283 H 0.50492 0.53848 0.34072 0.0
H284 H 0.52372 0.52257 0.83693 0.0
H285 H 0.49106 0.48433 0.9701 0.0
H286 H 0.50454 0.51789 0.4393 0.0
H287 H 0.41474 0.51223 0.66714 0.0
H288 H 0.4553 0.47408 0.94214 0.0
H289 H 0.42607 0.47665 0.8676 0.0
H290 H 0.61173 0.53793 0.62243 0.0
H291 H 0.41106 0.48989 0.76407 0.0
H292 H 0.53505 0.5595 0.31339 0.0
N293 N 0.56479 0.52955 0.56076 0.0
C294 C 0.56634 0.54015 0.50373 0.0
C295 C 0.599 0.53893 0.58908 0.0
C296 C 0.5844 0.55089 0.48783 0.0
C297 C 0.5809 0.52842 0.60255 0.0
C298 C 0.60075 0.55027 0.53153 0.0
N299 N 0.53318 0.52846 0.47502 0.0
C300 C 0.51735 0.52765 0.43174 0.0
C301 C 0.55129 0.55118 0.4014 0.0
C302 C 0.55002 0.53992 0.46038 0.0
C303 C 0.5347 0.55095 0.35882 0.0
C304 C 0.51767 0.53914 0.37412 0.0
H305 H 0.61489 0.55821 0.52079 0.0
H306 H 0.59971 0.56942 0.41474 0.0
H307 H 0.57048 0.57038 0.34032 0.0
O308 O 0.54769 0.49189 0.4918 0.0
O309 O 0.53456 0.54315 0.59845 0.0
O310 O 0.50045 0.5461 0.6042 0.0
O311 O 0.5597 0.48701 0.58894 0.0
O312 O 0.50281 0.5014 0.53976 0.0
O313 O 0.48143 0.52263 0.59898 0.0
O314 O 0.50405 0.55784 0.74483 0.0
O315 O 0.5071 0.49584 0.7175 0.0
O316 O 0.51352 0.48448 0.61372 0.0
O317 O 0.47208 0.54835 0.73815 0.0
O318 O 0.52956 0.53478 0.72493 0.0
O319 O 0.54561 0.50725 0.68075 0.0
C320 C 0.51822 0.55424 0.59006 0.0
C321 C 0.55826 0.45871 0.52023 0.0
C322 C 0.54124 0.42878 0.47787 0.0
C323 C 0.55506 0.41634 0.51121 0.0
C324 C 0.57222 0.44618 0.55295 0.0
C325 C 0.57056 0.42504 0.54851 0.0
C326 C 0.54279 0.44989 0.48235 0.0
C327 C 0.48486 0.51019 0.54914 0.0
C328 C 0.55946 0.48081 0.52858 0.0
C329 C 0.5858 0.56151 0.42837 0.0
C330 C 0.56919 0.56194 0.38581 0.0
C331 C 0.50881 0.48073 0.67547 0.0
C332 C 0.47849 0.5812 0.78714 0.0
C333 C 0.48704 0.6128 0.84199 0.0
C334 C 0.46658 0.61879 0.83855 0.0
C335 C 0.45799 0.58719 0.78463 0.0
C336 C 0.49291 0.59397 0.81661 0.0
C337 C 0.45209 0.60592 0.81036 0.0
C338 C 0.54499 0.52198 0.72416 0.0
C339 C 0.48502 0.56225 0.75594 0.0
H340 H 0.55391 0.39996 0.50792 0.0
H341 H 0.58423 0.45275 0.58254 0.0
H342 H 0.58125 0.4154 0.57405 0.0
H343 H 0.53183 0.45929 0.45685 0.0
H344 H 0.46182 0.63334 0.85804 0.0
H345 H 0.4466 0.57758 0.76181 0.0
H346 H 0.50879 0.58954 0.8185 0.0
H347 H 0.43632 0.61055 0.8079 0.0
Eu348 Eu 0.02571 0.5382 0.57568 0.0
C349 C 0.02494 0.46821 0.79558 0.0
N350 N 0.02038 0.47027 0.73109 0.0
C351 C 0.03657 0.43849 0.70745 0.0
C352 C 0.03597 0.45122 0.81824 0.0
C353 C 0.02549 0.45548 0.68731 0.0
C354 C 0.04201 0.43644 0.77307 0.0
C355 C 0.02087 0.47993 0.90736 0.0
C356 C 0.01755 0.48251 0.83965 0.0
C357 C 0.0326 0.46351 0.92969 0.0
C358 C 0.0401 0.44919 0.88527 0.0
Eu359 Eu 1.00194 0.49965 0.70228 0.0
N360 N 1.00591 0.49806 0.817 0.0
C361 C 0.01159 0.49344 0.95091 0.0
C362 C 0.99538 0.51011 0.85952 0.0
C363 C 0.9985 0.50837 0.92693 0.0
H364 H 0.02094 0.45662 0.63695 0.0
H365 H 0.99066 0.5184 0.96035 0.0
H366 H 0.02209 0.58706 0.62861 0.0
H367 H 1.00835 0.50877 0.33229 0.0
H368 H 0.98479 0.52131 0.84125 0.0
H369 H 0.01381 0.49198 1.00322 0.0
H370 H 0.0245 0.50899 0.44071 0.0
H371 H 0.04076 0.42691 0.67245 0.0
H372 H 0.03543 0.46141 0.98146 0.0
H373 H 0.04865 0.4363 0.90347 0.0
H374 H 1.00467 0.61868 0.59748 0.0
H375 H 0.05044 0.42315 0.78861 0.0
H376 H 0.9878 0.53819 0.29652 0.0
N377 N 0.0102 0.56983 0.54914 0.0
C378 C 1.0005 0.57074 0.49051 0.0
C379 C 1.00301 0.60521 0.56755 0.0
C380 C 0.99091 0.58881 0.46952 0.0
C381 C 0.01244 0.58706 0.58593 0.0
C382 C 0.9919 0.606 0.50961 0.0
N383 N 0.01164 0.53724 0.46917 0.0
C384 C 0.01489 0.52149 0.42704 0.0
C385 C 0.99237 0.55487 0.38658 0.0
C386 C 1.00136 0.55405 0.44918 0.0
C387 C 0.99449 0.53814 0.34492 0.0
C388 C 1.00603 0.52149 0.36496 0.0
H389 H 0.98483 0.62017 0.49503 0.0
H390 H 0.97383 0.60314 0.39152 0.0
H391 H 0.97498 0.57335 0.31912 0.0
O392 O 0.05383 0.53286 0.52143 0.0
O393 O 0.99395 0.52618 0.55063 0.0
O394 O 0.98294 0.52488 0.65501 0.0
O395 O 0.0469 0.56343 0.5572 0.0
O396 O 0.03247 0.50419 0.55924 0.0
O397 O 1.00333 0.48859 0.59629 0.0
O398 O 0.96952 0.50198 0.72012 0.0
O399 O 0.03691 0.49811 0.69024 0.0
O400 O 0.04386 0.53154 0.6686 0.0
O401 O 0.98308 0.47221 0.71592 0.0
O402 O 0.0103 0.5296 0.753 0.0
O403 O 0.01363 0.55359 0.66979 0.0
C404 C 0.97876 0.5257 0.59227 0.0
C405 C 0.07857 0.55953 0.49772 0.0
C406 C 0.11053 0.5525 0.44331 0.0
C407 C 0.11659 0.57285 0.45152 0.0
C408 C 0.08453 0.57998 0.50524 0.0
C409 C 0.10349 0.58659 0.48192 0.0
C410 C 0.09151 0.54598 0.46587 0.0
C411 C 0.01912 0.4891 0.55645 0.0
C412 C 0.05949 0.55185 0.52587 0.0
C413 C 0.98134 0.58943 0.40819 0.0
C414 C 0.98204 0.57249 0.36688 0.0
C415 C 0.04993 0.51352 0.68883 0.0
C416 C 0.95454 0.47682 0.78716 0.0
C417 C 0.92723 0.48493 0.8636 0.0
C418 C 0.92918 0.46558 0.89218 0.0
C419 C 0.95643 0.45755 0.81649 0.0
C420 C 0.93995 0.49047 0.8114 0.0
C421 C 0.94382 0.45203 0.86892 0.0
C422 C 0.01087 0.54868 0.73223 0.0
C423 C 0.96676 0.48258 0.72924 0.0
H424 H 0.13134 0.57806 0.43415 0.0
H425 H 0.07472 0.59075 0.52982 0.0
H426 H 0.10812 0.60232 0.48806 0.0
H427 H 0.08712 0.53013 0.46026 0.0
H428 H 0.91943 0.46101 0.93256 0.0
H429 H 0.96745 0.44668 0.79857 0.0
H430 H 0.93803 0.50526 0.78857 0.0
H431 H 0.94528 0.43714 0.8912 0.0
H432 H 0.19676 1.00264 0.16496 0.0
H433 H 0.16757 1.00451 0.23872 0.0
H434 H 0.15738 0.06661 0.17938 0.0
H435 H 0.18692 0.06467 0.10397 0.0
H436 H 0.15361 0.06103 0.31868 0.0
H437 H 0.12467 0.03139 0.12794 0.0
H438 H 0.12229 1.00782 0.0346 0.0
H439 H 0.12042 0.95684 0.1666 0.0
H440 H 0.12302 0.98011 0.26078 0.0
H441 H 0.05512 0.05873 0.48466 0.0
H442 H 0.08263 0.06284 0.40359 0.0
H443 H 0.09977 1.00026 0.43282 0.0
H444 H 0.07254 0.99617 0.51404 0.0
H445 H 0.09847 1.00931 0.30286 0.0
H446 H 0.12838 0.03933 0.49372 0.0
H447 H 0.13034 0.06308 0.58667 0.0
H448 H 0.12977 0.11391 0.45407 0.0
H449 H 0.12751 0.09045 0.36026 0.0
C450 C 0.1882 0.01669 0.16669 0.0
C451 C 0.19416 0.03337 0.12735 0.0
C452 C 0.17142 0.01776 0.20936 0.0
C453 C 0.1599 0.03565 0.21519 0.0
C454 C 0.16584 0.05254 0.17626 0.0
C455 C 0.18265 0.05137 0.13246 0.0
C456 C 0.14178 0.03615 0.26162 0.0
C457 C 0.14136 0.04997 0.31429 0.0
C458 C 0.12577 0.02156 0.25772 0.0
C459 C 0.1242 1.00748 0.20137 0.0
C460 C 0.1239 0.01514 0.13704 0.0
C461 C 0.12248 1.00184 0.08399 0.0
C462 C 0.12125 0.98084 0.09465 0.0
C463 C 0.12139 0.97311 0.15842 0.0
C464 C 0.1228 0.98635 0.21166 0.0
C465 C 0.06479 0.04585 0.4741 0.0
C466 C 0.0615 0.02712 0.50666 0.0
C467 C 0.08066 0.04824 0.42764 0.0
C468 C 0.09361 0.03191 0.41152 0.0
C469 C 0.09019 0.01319 0.44374 0.0
C470 C 0.07456 0.01088 0.49073 0.0
C471 C 0.11037 0.03399 0.36046 0.0
C472 C 0.11058 0.02055 0.30697 0.0
C473 C 0.12606 0.04899 0.36368 0.0
C474 C 0.12753 0.06313 0.41995 0.0
C475 C 0.12849 0.05557 0.48436 0.0
C476 C 0.12968 0.06898 0.53722 0.0
C477 C 0.13011 0.08999 0.52629 0.0
C478 C 0.1294 0.09763 0.46246 0.0
C479 C 0.12817 0.08428 0.40941 0.0
H480 H 0.13104 0.10035 0.56727 0.0
H481 H 0.12014 0.97056 0.05351 0.0
H482 H 0.46501 0.19094 0.10956 0.0
H483 H 0.46313 0.16332 0.19214 0.0
H484 H 0.52859 0.16436 0.20813 0.0
H485 H 0.53041 0.19109 0.12598 0.0
H486 H 0.51932 0.12778 0.21157 0.0
H487 H 0.49195 0.18495 0.32619 0.0
H488 H 0.46845 0.21301 0.35152 0.0
H489 H 0.41868 0.17051 0.36636 0.0
H490 H 0.44182 0.14221 0.33998 0.0
H491 H 0.53475 0.07888 0.5242 0.0
H492 H 0.53107 0.10527 0.43957 0.0
H493 H 0.47022 0.084 0.39959 0.0
H494 H 0.474 0.05724 0.48274 0.0
H495 H 0.47428 0.1289 0.40632 0.0
H496 H 0.50471 0.07149 0.30057 0.0
H497 H 0.53034 0.04466 0.28399 0.0
H498 H 0.57696 0.09012 0.25925 0.0
H499 H 0.55178 0.11721 0.27784 0.0
C500 C 0.47897 0.1851 0.13029 0.0
C501 C 0.4979 0.19334 0.11018 0.0
C502 C 0.47792 0.16934 0.17837 0.0
C503 C 0.49575 0.16142 0.20803 0.0
C504 C 0.51449 0.1697 0.18694 0.0
C505 C 0.51552 0.18521 0.13944 0.0
C506 C 0.49555 0.14453 0.25995 0.0
C507 C 0.50954 0.12835 0.25432 0.0
C508 C 0.48263 0.14446 0.31615 0.0
C509 C 0.46856 0.1615 0.32997 0.0
C510 C 0.47594 0.18161 0.33393 0.0
C511 C 0.4627 0.19756 0.34868 0.0
C512 C 0.44207 0.19356 0.36024 0.0
C513 C 0.43464 0.1736 0.35711 0.0
C514 C 0.44781 0.1576 0.34219 0.0
C515 C 0.52052 0.07981 0.49777 0.0
C516 C 0.50471 0.06571 0.51109 0.0
C517 C 0.51842 0.095 0.44898 0.0
C518 C 0.5003 0.09692 0.41245 0.0
C519 C 0.48433 0.08315 0.42672 0.0
C520 C 0.48657 0.06769 0.47451 0.0
C521 C 0.49835 0.11271 0.35811 0.0
C522 C 0.48397 0.12849 0.3633 0.0
C523 C 0.51117 0.11271 0.30207 0.0
C524 C 0.52637 0.09639 0.29147 0.0
C525 C 0.52047 0.07576 0.29256 0.0
C526 C 0.53492 0.0605 0.28278 0.0
C527 C 0.55527 0.06567 0.27101 0.0
C528 C 0.56121 0.08613 0.26883 0.0
C529 C 0.54687 0.10144 0.27911 0.0
H530 H 0.56642 0.05384 0.26332 0.0
H531 H 0.43186 0.20591 0.37188 0.0
H532 H 0.35269 0.48756 0.05097 0.0
H533 H 0.38263 0.48446 0.12399 0.0
H534 H 0.34998 0.51641 0.275 0.0
H535 H 0.32094 0.51991 0.203 0.0
H536 H 0.38479 0.5326 0.26741 0.0
H537 H 0.36248 0.46232 0.2736 0.0
H538 H 0.3552 0.42787 0.23171 0.0
H539 H 0.41711 0.42249 0.16612 0.0
H540 H 0.42469 0.45705 0.20663 0.0
H541 H 0.4471 0.52871 0.54166 0.0
H542 H 0.41965 0.52329 0.46617 0.0
H543 H 0.45756 0.48305 0.35337 0.0
H544 H 0.48394 0.48534 0.43799 0.0
H545 H 0.423 0.47077 0.32972 0.0
H546 H 0.44504 0.54149 0.32331 0.0
H547 H 0.4523 0.5753 0.37065 0.0
H548 H 0.39031 0.5797 0.43642 0.0
H549 H 0.38275 0.54586 0.39022 0.0
C550 C 0.35193 0.4938 0.09986 0.0
C551 C 0.33426 0.50418 0.12047 0.0
C552 C 0.3691 0.49194 0.14206 0.0
C553 C 0.36896 0.50025 0.20607 0.0
C554 C 0.351 0.50999 0.22634 0.0
C555 C 0.33419 0.51197 0.18464 0.0
C556 C 0.38736 0.50036 0.25165 0.0
C557 C 0.39296 0.51892 0.28113 0.0
C558 C 0.39889 0.48286 0.26898 0.0
C559 C 0.39406 0.46244 0.24223 0.0
C560 C 0.37447 0.45394 0.24934 0.0
C561 C 0.37031 0.43435 0.22605 0.0
C562 C 0.38566 0.42303 0.19602 0.0
C563 C 0.40521 0.43129 0.18915 0.0
C564 C 0.40944 0.45089 0.21221 0.0
C565 C 0.44949 0.51783 0.50336 0.0
C566 C 0.46797 0.50708 0.49879 0.0
C567 C 0.43378 0.5154 0.45732 0.0
C568 C 0.43635 0.50356 0.40045 0.0
C569 C 0.45478 0.49257 0.39555 0.0
C570 C 0.47012 0.49404 0.44423 0.0
C571 C 0.42005 0.50299 0.3468 0.0
C572 C 0.41495 0.48445 0.31559 0.0
C573 C 0.40888 0.52055 0.32733 0.0
C574 C 0.41338 0.54112 0.35353 0.0
C575 C 0.43298 0.54968 0.34786 0.0
C576 C 0.43715 0.56883 0.3746 0.0
C577 C 0.42178 0.57963 0.40655 0.0
C578 C 0.40219 0.57133 0.41166 0.0
C579 C 0.39796 0.55219 0.38513 0.0
H580 H 0.42505 0.59443 0.42732 0.0
H581 H 0.38243 0.40784 0.17831 0.0
H582 H 0.99697 0.34668 0.12424 0.0
H583 H 0.99833 0.37648 0.1959 0.0
H584 H 0.06318 0.36908 0.21599 0.0
H585 H 0.06177 0.33931 0.14267 0.0
H586 H 0.04654 0.3755 0.3352 0.0
H587 H 0.04407 0.41065 0.13448 0.0
H588 H 0.03293 0.42053 0.02387 0.0
H589 H 0.97399 0.43623 0.09924 0.0
H590 H 0.98471 0.42621 0.21032 0.0
H591 H 0.05456 0.47431 0.50062 0.0
H592 H 0.05831 0.44677 0.41995 0.0
H593 H 0.99322 0.43854 0.41693 0.0
H594 H 0.98945 0.46547 0.49906 0.0
H595 H 0.01317 0.44135 0.2865 0.0
H596 H 0.01774 0.40363 0.49001 0.0
H597 H 0.03199 0.39599 0.59876 0.0
H598 H 0.09122 0.38796 0.5133 0.0
H599 H 0.07729 0.39562 0.40394 0.0
C600 C 0.01166 0.35184 0.14188 0.0
C601 C 0.02935 0.34096 0.12531 0.0
C602 C 0.01243 0.3689 0.18359 0.0
C603 C 0.03089 0.37546 0.21191 0.0
C604 C 0.04869 0.36466 0.19504 0.0
C605 C 0.04795 0.34775 0.15206 0.0
C606 C 0.03116 0.3929 0.26091 0.0
C607 C 0.03951 0.38997 0.32378 0.0
C608 C 0.02194 0.41201 0.24758 0.0
C609 C 0.01512 0.41745 0.18066 0.0
C610 C 0.02865 0.41597 0.12738 0.0
C611 C 0.02243 0.42167 0.06462 0.0
C612 C 1.00275 0.42897 0.05449 0.0
C613 C 0.98923 0.43055 0.10714 0.0
C614 C 0.99537 0.42488 0.17004 0.0
C615 C 0.04103 0.46661 0.48296 0.0
C616 C 0.02168 0.47225 0.50681 0.0
C617 C 0.0432 0.45076 0.43674 0.0
C618 C 0.02606 0.44037 0.41164 0.0
C619 C 1.00674 0.44616 0.43497 0.0
C620 C 1.00461 0.4616 0.48236 0.0
C621 C 0.02814 0.42374 0.36069 0.0
C622 C 0.02023 0.42686 0.29755 0.0
C623 C 0.03812 0.40502 0.37338 0.0
C624 C 0.04652 0.40042 0.43894 0.0
C625 C 0.03383 0.4004 0.49449 0.0
C626 C 0.04184 0.39602 0.55621 0.0
C627 C 0.06252 0.39159 0.563 0.0
C628 C 0.07521 0.39143 0.50799 0.0
C629 C 0.06726 0.39574 0.4461 0.0
H630 H 0.0687 0.38823 0.61084 0.0
H631 H 0.99799 0.43344 0.0059 0.0
H632 H 0.82143 0.01204 0.11288 0.0
H633 H 0.84737 0.01745 0.02653 0.0
H634 H 0.89002 0.98148 0.1365 0.0
H635 H 0.86414 0.97565 0.22104 0.0
H636 H 0.90905 0.01523 0.08603 0.0
H637 H 0.86731 0.96135 0.00864 0.0
H638 H 0.83595 0.9434 0.97557 0.0
H639 H 0.82625 0.98751 0.82351 0.0
H640 H 0.85741 1.00597 0.85646 0.0
H641 H 0.98081 0.98834 0.82834 0.0
H642 H 0.95357 0.98481 0.91042 0.0
H643 H 0.92061 0.03355 0.81867 0.0
H644 H 0.94816 0.03794 0.73873 0.0
H645 H 0.89634 0.99379 0.85725 0.0
H646 H 0.93893 0.04801 0.94192 0.0
H647 H 0.9717 0.06334 0.97474 0.0
H648 H 0.98088 0.0149 0.11298 0.0
H649 H 0.94819 0.99919 0.08046 0.0
C650 C 0.83646 1.00564 0.11917 0.0
C651 C 0.84073 0.99367 0.17477 0.0
C652 C 0.85129 1.00854 0.06929 0.0
C653 C 0.8709 0.99986 0.07419 0.0
C654 C 0.87523 0.98847 0.13083 0.0
C655 C 0.86035 0.98519 0.17956 0.0
C656 C 0.88688 1.00221 0.02067 0.0
C657 C 0.90616 0.01041 0.03621 0.0
C658 C 0.88352 0.99601 0.95493 0.0
C659 C 0.86453 0.98525 0.93576 0.0
C660 C 0.85834 0.96741 0.96876 0.0
C661 C 0.84063 0.9571 0.94989 0.0
C662 C 0.82906 0.96436 0.89766 0.0
C663 C 0.83519 0.98194 0.86413 0.0
C664 C 0.85288 0.99235 0.8829 0.0
C665 C 0.9678 0.99834 0.82529 0.0
C666 C 0.96684 0.01327 0.77549 0.0
C667 C 0.95212 0.99625 0.87248 0.0
C668 C 0.93474 1.00875 0.87092 0.0
C669 C 0.93361 0.02349 0.82097 0.0
C670 C 0.94949 0.02593 0.77481 0.0
C671 C 0.91825 1.00703 0.92278 0.0
C672 C 0.89902 0.9988 0.90699 0.0
C673 C 0.92167 0.01294 0.98848 0.0
C674 C 0.94126 0.02233 0.00829 0.0
C675 C 0.94803 0.04054 0.9789 0.0
C676 C 0.96655 0.04933 0.99758 0.0
C677 C 0.9784 0.04006 0.04577 0.0
C678 C 0.9717 0.02204 0.07558 0.0
C679 C 0.95316 0.01321 0.05713 0.0
H680 H 0.99276 0.04688 0.06007 0.0
H681 H 0.81538 0.95633 0.88302 0.0
H682 H 0.51093 0.84959 0.19357 0.0
H683 H 0.50445 0.87731 0.11494 0.0
H684 H 0.56201 0.86525 0.02071 0.0
H685 H 0.56889 0.83884 0.10131 0.0
H686 H 0.56003 0.90208 0.01774 0.0
H687 H 0.50876 0.85313 0.95687 0.0
H688 H 0.47936 0.83014 0.9741 0.0
H689 H 0.44287 0.88073 0.0352 0.0
H690 H 0.47213 0.90399 0.01897 0.0
H691 H 0.53818 0.95333 0.71011 0.0
H692 H 0.54283 0.92672 0.79366 0.0
H693 H 0.49977 0.95682 0.91914 0.0
H694 H 0.49557 0.98379 0.83686 0.0
H695 H 0.49372 0.91253 0.90793 0.0
H696 H 0.54629 0.96147 0.95683 0.0
H697 H 0.57627 0.98316 0.93363 0.0
H698 H 0.61131 0.93023 0.88598 0.0
H699 H 0.58143 0.90823 0.9077 0.0
C700 C 0.52203 0.85272 0.15553 0.0
C701 C 0.54037 0.84171 0.15371 0.0
C702 C 0.51833 0.86865 0.10994 0.0
C703 C 0.53255 0.87367 0.05985 0.0
C704 C 0.55065 0.86225 0.05808 0.0
C705 C 0.55453 0.84684 0.10427 0.0
C706 C 0.52918 0.89079 0.01006 0.0
C707 C 0.54553 0.90398 0.99334 0.0
C708 C 0.51028 0.89414 0.97786 0.0
C709 C 0.49267 0.88024 0.98737 0.0
C710 C 0.49449 0.85932 0.97433 0.0
C711 C 0.47785 0.84625 0.98387 0.0
C712 C 0.45927 0.85396 0.00591 0.0
C713 C 0.45728 0.87477 0.01824 0.0
C714 C 0.47387 0.88791 0.00883 0.0
C715 C 0.5297 0.95435 0.7555 0.0
C716 C 0.51655 0.97094 0.76638 0.0
C717 C 0.53241 0.93906 0.80352 0.0
C718 C 0.52173 0.93958 0.86348 0.0
C719 C 0.50826 0.95589 0.87374 0.0
C720 C 0.5059 0.97141 0.82643 0.0
C721 C 0.52461 0.92327 0.91535 0.0
C722 C 0.50819 0.91039 0.93241 0.0
C723 C 0.54355 0.91994 0.94681 0.0
C724 C 0.56151 0.9332 0.93315 0.0
C725 C 0.5603 0.95445 0.94063 0.0
C726 C 0.5773 0.96681 0.92791 0.0
C727 C 0.59567 0.95808 0.90818 0.0
C728 C 0.59707 0.93698 0.90115 0.0
C729 C 0.5801 0.92456 0.91366 0.0
H730 H 0.60882 0.96767 0.89854 0.0
H731 H 0.44641 0.84382 0.0133 0.0
H732 H 0.70475 0.51669 0.1221 0.0
H733 H 0.67832 0.51107 0.03808 0.0
H734 H 0.64496 0.56253 0.11163 0.0
H735 H 0.67102 0.56802 0.19456 0.0
H736 H 0.61863 0.53453 0.08563 0.0
H737 H 0.67355 0.56422 0.96713 0.0
H738 H 0.70856 0.56821 0.92494 0.0
H739 H 0.70365 0.51073 0.82652 0.0
H740 H 0.66867 0.50624 0.86902 0.0
H741 H 0.55136 0.55237 0.81579 0.0
H742 H 0.57865 0.55543 0.89683 0.0
H743 H 0.60502 0.49964 0.82722 0.0
H744 H 0.57759 0.4963 0.74672 0.0
H745 H 0.6351 0.52875 0.84962 0.0
H746 H 0.58053 0.49887 0.9832 0.0
H747 H 0.54572 0.4967 0.02866 0.0
H748 H 0.55013 0.55869 0.09371 0.0
H749 H 0.58524 0.56098 0.05031 0.0
C750 C 0.69165 0.52661 0.12077 0.0
C751 C 0.69005 0.54274 0.1658 0.0
C752 C 0.67656 0.52354 0.0721 0.0
C753 C 0.65941 0.53645 0.06729 0.0
C754 C 0.65776 0.55222 0.11341 0.0
C755 C 0.6728 0.55536 0.16122 0.0
C756 C 0.64308 0.53383 0.01517 0.0
C757 C 0.62242 0.53346 0.03408 0.0
C758 C 0.64751 0.53226 0.9472 0.0
C759 C 0.66859 0.53475 0.92206 0.0
C760 C 0.68001 0.55231 0.9371 0.0
C761 C 0.69983 0.55469 0.913 0.0
C762 C 0.70835 0.53969 0.87329 0.0
C763 C 0.69704 0.52231 0.85746 0.0
C764 C 0.67722 0.51983 0.88155 0.0
C765 C 0.56288 0.54065 0.81764 0.0
C766 C 0.56199 0.52404 0.77402 0.0
C767 C 0.57858 0.54241 0.86449 0.0
C768 C 0.59409 0.5277 0.86935 0.0
C769 C 0.59342 0.51128 0.82517 0.0
C770 C 0.57759 0.50938 0.77885 0.0
C771 C 0.6108 0.52938 0.92047 0.0
C772 C 0.63147 0.52967 0.9013 0.0
C773 C 0.60646 0.53128 0.98818 0.0
C774 C 0.58534 0.53013 0.01314 0.0
C775 C 0.57401 0.51204 0.00698 0.0
C776 C 0.55428 0.51077 0.03259 0.0
C777 C 0.54563 0.52761 0.06349 0.0
C778 C 0.55682 0.54568 0.0696 0.0
C779 C 0.57668 0.54692 0.04498 0.0
H780 H 0.53031 0.52662 0.08293 0.0
H781 H 0.72369 0.54157 0.8546 0.0
H782 H 0.99882 0.67233 0.23898 0.0
H783 H 1.00482 0.64533 0.15829 0.0
H784 H 0.98958 0.68703 1.00276 0.0
H785 H 0.98285 0.71358 0.08376 0.0
H786 H 0.97177 0.65404 0.97609 0.0
H787 H 0.04104 0.66722 0.03819 0.0
H788 H 0.06977 0.6712 0.11466 0.0
H789 H 0.0616 0.60949 0.18018 0.0
H790 H 0.03265 0.60522 0.10466 0.0
H791 H 0.99878 0.58856 0.71326 0.0
H792 H 0.99697 0.61619 0.79201 0.0
H793 H 0.01396 0.57471 0.94615 0.0
H794 H 0.01793 0.54752 0.86564 0.0
H795 H 0.03109 0.60778 0.97343 0.0
H796 H 0.96121 0.59506 0.90922 0.0
H797 H 0.9329 0.59176 0.83069 0.0
H798 H 0.94261 0.65344 0.76703 0.0
H799 H 0.97112 0.65704 0.84456 0.0
C800 C 0.99745 0.6759 0.18743 0.0
C801 C 0.99105 0.69541 0.16788 0.0
C802 C 1.00079 0.66036 0.14088 0.0
C803 C 0.99798 0.66386 0.07317 0.0
C804 C 0.99197 0.68358 0.054 0.0
C805 C 0.98841 0.69897 0.10049 0.0
C806 C 1.00026 0.647 0.02269 0.0
C807 C 0.98494 0.64415 0.9753 0.0
C808 C 0.01709 0.63348 0.02122 0.0
C809 C 0.03456 0.63597 0.06625 0.0
C810 C 0.04529 0.65454 0.0692 0.0
C811 C 0.06162 0.65685 0.11233 0.0
C812 C 0.06747 0.64063 0.15237 0.0
C813 C 0.05704 0.62205 0.14921 0.0
C814 C 0.04068 0.61967 0.10621 0.0
C815 C 1.00273 0.58534 0.76339 0.0
C816 C 0.00885 0.5656 0.78197 0.0
C817 C 1.00113 0.60121 0.80939 0.0
C818 C 1.0048 0.59784 0.87656 0.0
C819 C 0.01089 0.57808 0.89525 0.0
C820 C 0.01294 0.56231 0.84888 0.0
C821 C 1.00257 0.61475 0.92694 0.0
C822 C 0.0179 0.61763 0.9743 0.0
C823 C 0.98576 0.62836 0.92822 0.0
C824 C 0.9684 0.62626 0.88236 0.0
C825 C 0.95736 0.60789 0.87829 0.0
C826 C 0.94128 0.60597 0.83395 0.0
C827 C 0.936 0.62236 0.79382 0.0
C828 C 0.94673 0.64074 0.7981 0.0
C829 C 0.96283 0.64274 0.84227 0.0
H830 H 0.92358 0.62086 0.7595 0.0
H831 H 0.08011 0.64244 0.18576 0.0
H832 H 0.03026 0.26023 0.16533 0.0
H833 H 0.02629 0.23292 0.24262 0.0
H834 H 0.08793 0.21334 0.20419 0.0
H835 H 0.09097 0.23986 0.11931 0.0
H836 H 0.06444 0.18349 0.19157 0.0
H837 H 0.06817 0.23257 0.36683 0.0
H838 H 0.05997 0.26535 0.41917 0.0
H839 H 0.99639 0.24969 0.41908 0.0
H840 H 1.00411 0.21702 0.36622 0.0
H841 H 0.02454 0.10679 0.4278 0.0
H842 H 0.04582 0.13024 0.36333 0.0
H843 H 0.99279 0.16611 0.3186 0.0
H844 H 0.97152 0.1429 0.3833 0.0
H845 H 0.02319 0.18527 0.3947 0.0
H846 H 0.01586 0.14352 0.20129 0.0
H847 H 0.01979 0.11373 0.12953 0.0
H848 H 0.08478 0.11733 0.14979 0.0
H849 H 0.08123 0.14706 0.22226 0.0
C850 C 0.04334 0.25073 0.17556 0.0
C851 C 0.06103 0.25222 0.13751 0.0
C852 C 0.04113 0.23511 0.2205 0.0
C853 C 0.05705 0.22135 0.23132 0.0
C854 C 0.07554 0.22394 0.19723 0.0
C855 C 0.0774 0.23914 0.14951 0.0
C856 C 0.05266 0.20253 0.26872 0.0
C857 C 0.05597 0.18382 0.23718 0.0
C858 C 0.04126 0.20298 0.32761 0.0
C859 C 0.0368 0.22221 0.36301 0.0
C860 C 0.05246 0.23607 0.37829 0.0
C861 C 0.04788 0.25467 0.4079 0.0
C862 C 0.02769 0.25957 0.4226 0.0
C863 C 0.01204 0.24585 0.40803 0.0
C864 C 0.01652 0.22724 0.37854 0.0
C865 C 0.01738 0.11935 0.40242 0.0
C866 C 0.99652 0.12342 0.41131 0.0
C867 C 0.02952 0.13261 0.36553 0.0
C868 C 0.02082 0.14987 0.33702 0.0
C869 C 0.9997 0.15285 0.34087 0.0
C870 C 0.98763 0.13976 0.37811 0.0
C871 C 0.03369 0.16687 0.31467 0.0
C872 C 0.03228 0.18498 0.35026 0.0
C873 C 0.04626 0.16594 0.25872 0.0
C874 C 0.04825 0.14728 0.21848 0.0
C875 C 0.03097 0.13771 0.19168 0.0
C876 C 0.03314 0.12092 0.1504 0.0
C877 C 0.05251 0.11355 0.13543 0.0
C878 C 0.06977 0.12298 0.16166 0.0
C879 C 0.06768 0.13981 0.20281 0.0
H880 H 0.05416 0.1006 0.10327 0.0
H881 H 0.02417 0.27402 0.44517 0.0
H882 H 0.29367 0.03255 0.09281 0.0
H883 H 0.31959 0.0232 0.16834 0.0
H884 H 0.29494 0.06529 0.31017 0.0
H885 H 0.27201 0.07872 0.22474 0.0
H886 H 0.3315 0.06785 0.3185 0.0
H887 H 0.29256 1.00537 0.3126 0.0
H888 H 0.27349 0.9787 0.25343 0.0
H889 H 0.32791 0.96156 0.15116 0.0
H890 H 0.34723 0.98818 0.20872 0.0
H891 H 0.42644 0.03184 0.45057 0.0
H892 H 0.38907 0.03436 0.44774 0.0
H893 H 0.38957 0.01604 0.24515 0.0
H894 H 0.42664 0.01359 0.24771 0.0
H895 H 0.35846 0.99749 0.31957 0.0
H896 H 0.39036 0.06416 0.28134 0.0
H897 H 0.41084 0.09406 0.31366 0.0
H898 H 0.37092 0.10422 0.47697 0.0
H899 H 0.35045 0.07408 0.44627 0.0
C900 C 0.29438 0.04047 0.13904 0.0
C901 C 0.28207 0.05734 0.15135 0.0
C902 C 0.30849 0.03421 0.18424 0.0
C903 C 0.30876 0.04259 0.24715 0.0
C904 C 0.295 0.05839 0.26215 0.0
C905 C 0.28188 0.06602 0.21385 0.0
C906 C 0.32534 0.03656 0.29245 0.0
C907 C 0.33685 0.05227 0.32099 0.0
C908 C 0.33269 0.0162 0.29543 0.0
C909 C 0.32143 0.99869 0.26601 0.0
C910 C 0.30052 0.99575 0.27819 0.0
C911 C 0.28964 0.9807 0.24454 0.0
C912 C 0.2995 0.9684 0.1988 0.0
C913 C 0.32031 0.97098 0.18697 0.0
C914 C 0.33127 0.98597 0.22045 0.0
C915 C 0.41845 0.02821 0.40575 0.0
C916 C 0.42927 0.02281 0.349 0.0
C917 C 0.39721 0.02958 0.40432 0.0
C918 C 0.38668 0.02532 0.34634 0.0
C919 C 0.39748 0.01923 0.29047 0.0
C920 C 0.41861 0.01811 0.29167 0.0
C921 C 0.36465 0.02894 0.3404 0.0
C922 C 0.35223 0.01275 0.32028 0.0
C923 C 0.35662 0.0488 0.34344 0.0
C924 C 0.36916 0.06664 0.36242 0.0
C925 C 0.38614 0.07259 0.3247 0.0
C926 C 0.39771 0.08961 0.3426 0.0
C927 C 0.39226 0.10097 0.39756 0.0
C928 C 0.3752 0.09534 0.43465 0.0
C929 C 0.36364 0.07827 0.41712 0.0
H930 H 0.4012 0.11418 0.41121 0.0
H931 H 0.291 0.95691 0.17236 0.0
H932 H 0.45553 0.28263 0.17088 0.0
H933 H 0.45522 0.31022 0.2519 0.0
H934 H 0.52017 0.31796 0.22539 0.0
H935 H 0.52044 0.29014 0.14726 0.0
H936 H 0.51145 0.324 0.34368 0.0
H937 H 0.48267 0.34374 0.13445 0.0
H938 H 0.45752 0.34351 0.04519 0.0
H939 H 0.41049 0.36087 0.17985 0.0
H940 H 0.43534 0.361 0.27022 0.0
H941 H 0.54284 0.42301 0.34751 0.0
H942 H 0.5215 0.39925 0.28549 0.0
H943 H 0.48359 0.38971 0.45564 0.0
H944 H 0.50502 0.4134 0.5178 0.0
H945 H 0.47095 0.38459 0.28071 0.0
H946 H 0.50876 0.35629 0.49199 0.0
H947 H 0.54001 0.35787 0.55903 0.0
H948 H 0.57665 0.36008 0.38473 0.0
H949 H 0.5456 0.35858 0.31695 0.0
C950 C 0.46979 0.28964 0.18546 0.0
C951 C 0.48809 0.28436 0.15445 0.0
C952 C 0.46955 0.30555 0.23047 0.0
C953 C 0.48758 0.31634 0.24345 0.0
C954 C 0.50608 0.3098 0.21616 0.0
C955 C 0.50633 0.29383 0.17211 0.0
C956 C 0.48757 0.33531 0.28145 0.0
C957 C 0.50222 0.33706 0.33061 0.0
C958 C 0.47577 0.3525 0.26359 0.0
C959 C 0.46079 0.35201 0.20937 0.0
C960 C 0.46692 0.34726 0.14523 0.0
C961 C 0.45272 0.34718 0.09437 0.0
C962 C 0.43239 0.35202 0.10688 0.0
C963 C 0.42622 0.35702 0.17028 0.0
C964 C 0.44035 0.35708 0.22134 0.0
C965 C 0.52937 0.41652 0.37042 0.0
C966 C 0.52553 0.41952 0.43709 0.0
C967 C 0.51708 0.40323 0.33493 0.0
C968 C 0.50105 0.39289 0.36633 0.0
C969 C 0.49577 0.39784 0.43076 0.0
C970 C 0.50811 0.41107 0.46632 0.0
C971 C 0.49503 0.37294 0.34107 0.0
C972 C 0.4794 0.37115 0.29505 0.0
C973 C 0.50656 0.35576 0.35877 0.0
C974 C 0.52498 0.35738 0.39978 0.0
C975 C 0.5235 0.35716 0.46822 0.0
C976 C 0.54116 0.35795 0.50625 0.0
C977 C 0.5603 0.35891 0.47617 0.0
C978 C 0.56183 0.35926 0.40799 0.0
C979 C 0.54424 0.35844 0.3698 0.0
H980 H 0.57394 0.35954 0.50573 0.0
H981 H 0.42144 0.35198 0.06741 0.0
H982 H 0.26214 0.49555 0.18291 0.0
H983 H 0.23478 0.49765 0.26308 0.0
H984 H 0.20255 0.44912 0.16563 0.0
H985 H 0.23036 0.4463 0.08639 0.0
H986 H 0.19385 0.50378 0.17664 0.0
H987 H 0.18794 0.43271 0.27186 0.0
H988 H 0.20738 0.40359 0.3153 0.0
H989 H 0.23686 0.443 0.45361 0.0
H990 H 0.21756 0.47233 0.41065 0.0
H991 H 0.10273 0.52938 0.33673 0.0
H992 H 0.12586 0.50522 0.28387 0.0
H993 H 0.17118 0.51746 0.43143 0.0
H994 H 0.14816 0.54179 0.48383 0.0
H995 H 0.16968 0.47557 0.38898 0.0
H996 H 0.17183 0.54508 0.30838 0.0
H997 H 0.15697 0.57619 0.26142 0.0
H998 H 0.14012 0.54327 0.08849 0.0
H999 H 0.15429 0.51173 0.13549 0.0
C1000 C 0.24993 0.48439 0.18101 0.0
C1001 C 0.24804 0.47105 0.12782 0.0
C1002 C 0.23424 0.48574 0.22652 0.0
C1003 C 0.21672 0.47373 0.2191 0.0
C1004 C 0.21609 0.45843 0.17176 0.0
C1005 C 0.23193 0.45685 0.12672 0.0
C1006 C 0.19786 0.48053 0.24998 0.0
C1007 C 0.18813 0.49736 0.22219 0.0
C1008 C 0.19093 0.47223 0.30939 0.0
C1009 C 0.20123 0.45454 0.33873 0.0
C1010 C 0.19844 0.43506 0.31197 0.0
C1011 C 0.20946 0.41856 0.33631 0.0
C1012 C 0.2233 0.42143 0.38733 0.0
C1013 C 0.22606 0.44079 0.41434 0.0
C1014 C 0.21503 0.45733 0.39021 0.0
C1015 C 0.11758 0.5267 0.35791 0.0
C1016 C 0.12408 0.53764 0.41295 0.0
C1017 C 0.13059 0.5128 0.32837 0.0
C1018 C 0.1501 0.50968 0.35406 0.0
C1019 C 0.15608 0.51967 0.41143 0.0
C1020 C 0.14318 0.53376 0.44045 0.0
C1021 C 0.16549 0.49892 0.31558 0.0
C1022 C 0.17476 0.48155 0.34214 0.0
C1023 C 0.17214 0.50689 0.2547 0.0
C1024 C 0.16371 0.52591 0.22614 0.0
C1025 C 0.16466 0.54437 0.26082 0.0
C1026 C 0.15639 0.5621 0.23414 0.0
C1027 C 0.14749 0.56168 0.17217 0.0
C1028 C 0.14688 0.54353 0.13671 0.0
C1029 C 0.15498 0.5257 0.16345 0.0
H1030 H 0.14115 0.57544 0.1515 0.0
H1031 H 0.23193 0.40867 0.40583 0.0
H1032 H 0.93972 0.80072 0.17628 0.0
H1033 H 0.94293 0.82877 0.0972 0.0
H1034 H 1.00007 0.804 0.03062 0.0
H1035 H 0.99636 0.7758 0.10577 0.0
H1036 H 0.97569 0.85398 0.1169 0.0
H1037 H 0.01424 0.81632 0.91289 0.0
H1038 H 0.01236 0.78538 0.84485 0.0
H1039 H 0.94713 0.78975 0.84028 0.0
H1040 H 0.94867 0.82042 0.91002 0.0
H1041 H 0.05625 0.90591 0.94241 0.0
H1042 H 0.03353 0.88317 1.00477 0.0
H1043 H 0.98347 0.89974 0.8796 0.0
H1044 H 1.00602 0.92261 0.81763 0.0
H1045 H 0.99607 0.85703 0.88333 0.0
H1046 H 0.97791 0.91262 0.02807 0.0
H1047 H 0.98471 0.94065 0.1052 0.0
H1048 H 0.0154 0.89931 0.23422 0.0
H1049 H 0.00899 0.87109 0.15764 0.0
C1050 C 0.95221 0.80068 0.1415 0.0
C1051 C 0.96769 0.78612 0.14635 0.0
C1052 C 0.95414 0.81673 0.09697 0.0
C1053 C 0.97159 0.81831 0.05746 0.0
C1054 C 0.98607 0.80271 0.05842 0.0
C1055 C 0.98394 0.78653 0.10168 0.0
C1056 C 0.97693 0.83773 0.02547 0.0
C1057 C 0.97967 0.85488 0.06544 0.0
C1058 C 0.98269 0.83861 0.95907 0.0
C1059 C 0.98156 0.82057 0.91627 0.0
C1060 C 0.99952 0.8107 0.89696 0.0
C1061 C 0.99851 0.79315 0.85863 0.0
C1062 C 0.97963 0.78561 0.83819 0.0
C1063 C 0.96173 0.79556 0.85641 0.0
C1064 C 0.96264 0.81293 0.89576 0.0
C1065 C 0.04033 0.90484 0.929 0.0
C1066 C 0.03281 0.91571 0.87515 0.0
C1067 C 0.02737 0.89215 0.965 0.0
C1068 C 1.00688 0.89008 0.94692 0.0
C1069 C 0.99921 0.90146 0.89456 0.0
C1070 C 0.01207 0.91435 0.85915 0.0
C1071 C 0.99464 0.87338 0.97454 0.0
C1072 C 0.99112 0.85656 0.93404 0.0
C1073 C 0.98888 0.87267 0.0411 0.0
C1074 C 0.99308 0.88975 0.0867 0.0
C1075 C 0.9863 0.90954 0.07252 0.0
C1076 C 0.99003 0.92546 0.11629 0.0
C1077 C 1.00053 0.92178 0.17448 0.0
C1078 C 1.00728 0.90216 0.18911 0.0
C1079 C 1.00357 0.88619 0.14557 0.0
H1080 H 1.00338 0.93411 0.2083 0.0
H1081 H 0.97888 0.77207 0.80825 0.0
H1082 H 0.75158 1.00533 0.1342 0.0
H1083 H 0.72605 1.00986 0.05106 0.0
H1084 H 0.72217 0.9446 0.02549 0.0
H1085 H 0.74657 0.94007 0.11579 0.0
H1086 H 0.71606 1.00467 0.93729 0.0
H1087 H 0.68218 0.93055 0.00981 0.0
H1088 H 0.68224 0.90599 0.10177 0.0
H1089 H 0.68397 0.9554 0.23896 0.0
H1090 H 0.68425 0.98014 0.14769 0.0
H1091 H 0.61738 0.02572 0.81713 0.0
H1092 H 0.6484 1.00609 0.83751 0.0
H1093 H 0.6378 0.01038 0.04551 0.0
H1094 H 0.6069 0.03017 0.0252 0.0
H1095 H 0.65131 0.97291 0.01252 0.0
H1096 H 0.66854 0.04133 0.98731 0.0
H1097 H 0.67002 0.07582 0.93999 0.0
H1098 H 0.70239 0.05295 0.77314 0.0
H1099 H 0.70067 0.01811 0.81894 0.0
C1100 C 0.74573 0.99195 0.10936 0.0
C1101 C 0.75077 0.97237 0.13111 0.0
C1102 C 0.73115 0.99453 0.06146 0.0
C1103 C 0.72171 0.97755 0.03288 0.0
C1104 C 0.72869 0.9579 0.04871 0.0
C1105 C 0.7428 0.95526 0.09929 0.0
C1106 C 0.70253 0.98095 0.99654 0.0
C1107 C 0.70193 0.99727 0.95195 0.0
C1108 C 0.684 0.97192 0.01787 0.0
C1109 C 0.68327 0.95707 0.07227 0.0
C1110 C 0.68245 0.9361 0.05966 0.0
C1111 C 0.68255 0.92217 0.11158 0.0
C1112 C 0.6831 0.92913 0.17616 0.0
C1113 C 0.68359 0.95002 0.18897 0.0
C1114 C 0.68369 0.96398 0.13722 0.0
C1115 C 0.6217 0.02234 0.86709 0.0
C1116 C 0.6101 0.02959 0.91979 0.0
C1117 C 0.63927 0.01109 0.87859 0.0
C1118 C 0.64526 1.00679 0.9429 0.0
C1119 C 0.63327 0.01345 0.99553 0.0
C1120 C 0.61587 0.02494 0.98404 0.0
C1121 C 0.66502 0.99708 0.95581 0.0
C1122 C 0.6655 0.97957 0.99505 0.0
C1123 C 0.68344 1.00629 0.93496 0.0
C1124 C 0.68399 0.02701 0.90568 0.0
C1125 C 0.67562 0.04356 0.93988 0.0
C1126 C 0.67658 0.0632 0.91351 0.0
C1127 C 0.68617 0.06656 0.85334 0.0
C1128 C 0.69484 0.05028 0.81952 0.0
C1129 C 0.69383 0.03056 0.84558 0.0
H1130 H 0.68698 0.08179 0.83311 0.0
H1131 H 0.68315 0.91833 0.21626 0.0
H1132 H 0.58805 0.72885 0.22264 0.0
H1133 H 0.58296 0.70091 0.14716 0.0
H1134 H 0.554 0.74178 0.01082 0.0
H1135 H 0.55617 0.76886 0.08961 0.0
H1136 H 0.52824 0.71457 0.04713 0.0
H1137 H 0.59987 0.71076 0.98005 0.0
H1138 H 0.63623 0.70917 0.00967 0.0
H1139 H 0.62547 0.65336 0.11462 0.0
H1140 H 0.58901 0.65474 0.08613 0.0
H1141 H 0.49618 0.65126 0.80423 0.0
H1142 H 0.51935 0.67514 0.85824 0.0
H1143 H 0.53515 0.62884 0.99927 0.0
H1144 H 0.5124 0.60462 0.94363 0.0
H1145 H 0.5682 0.65559 0.9683 0.0
H1146 H 0.4991 0.65802 0.04079 0.0
H1147 H 0.46196 0.65837 0.02324 0.0
H1148 H 0.46718 0.71575 0.92316 0.0
H1149 H 0.50443 0.71556 0.9391 0.0
C1150 C 0.58098 0.73203 0.17594 0.0
C1151 C 0.57113 0.75072 0.16469 0.0
C1152 C 0.57833 0.71599 0.13217 0.0
C1153 C 0.56746 0.71907 0.07399 0.0
C1154 C 0.56188 0.73893 0.05642 0.0
C1155 C 0.56351 0.75463 0.1016 0.0
C1156 C 0.55835 0.70168 0.03829 0.0
C1157 C 0.53716 0.70198 0.02857 0.0
C1158 C 0.56962 0.68448 0.01826 0.0
C1159 C 0.59175 0.68285 0.03089 0.0
C1160 C 0.6053 0.6981 0.00912 0.0
C1161 C 0.62591 0.69726 0.02588 0.0
C1162 C 0.63315 0.68117 0.06399 0.0
C1163 C 0.61984 0.66579 0.08496 0.0
C1164 C 0.59922 0.66655 0.06833 0.0
C1165 C 0.50487 0.64616 0.84613 0.0
C1166 C 0.50236 0.6264 0.87088 0.0
C1167 C 0.51817 0.65967 0.87653 0.0
C1168 C 0.52869 0.65375 0.93309 0.0
C1169 C 0.52718 0.6336 0.95553 0.0
C1170 C 0.5141 0.61992 0.92428 0.0
C1171 C 0.53859 0.66946 0.97346 0.0
C1172 C 0.55957 0.66852 0.98576 0.0
C1173 C 0.52712 0.68599 0.99735 0.0
C1174 C 0.50458 0.68671 0.99078 0.0
C1175 C 0.49233 0.6707 0.01493 0.0
C1176 C 0.47127 0.67085 1.0052 0.0
C1177 C 0.46222 0.68706 0.972 0.0
C1178 C 0.47421 0.70321 0.94885 0.0
C1179 C 0.49531 0.7031 0.9583 0.0
H1180 H 0.44592 0.68712 0.96429 0.0
H1181 H 0.64908 0.68063 0.07729 0.0
H1182 H 0.80073 0.59619 0.18833 0.0
H1183 H 0.8298 0.58904 0.11643 0.0
H1184 H 0.79565 0.5407 0.02514 0.0
H1185 H 0.76687 0.54753 0.09563 0.0
H1186 H 0.83411 0.53045 0.10498 0.0
H1187 H 0.80633 0.57073 0.92384 0.0
H1188 H 0.79141 0.60328 0.88799 0.0
H1189 H 0.84566 0.63504 0.94717 0.0
H1190 H 0.8608 0.6026 0.9839 0.0
H1191 H 0.88663 0.47784 0.87231 0.0
H1192 H 0.86055 0.50058 0.91585 0.0
H1193 H 0.90627 0.54674 0.95056 0.0
H1194 H 0.93242 0.52413 0.9048 0.0
H1195 H 0.86631 0.56245 0.9095 0.0
H1196 H 0.89653 0.51824 0.07001 0.0
H1197 H 0.90944 0.48429 0.09978 0.0
H1198 H 0.84899 0.45942 0.0861 0.0
H1199 H 0.83581 0.4931 0.05407 0.0
C1200 C 0.79907 0.58477 0.15058 0.0
C1201 C 0.78169 0.57208 0.14912 0.0
C1202 C 0.81575 0.58054 0.11024 0.0
C1203 C 0.8149 0.56392 0.06745 0.0
C1204 C 0.79657 0.55336 0.05892 0.0
C1205 C 0.77995 0.55761 0.0987 0.0
C1206 C 0.83352 0.55574 0.03751 0.0
C1207 C 0.84125 0.53745 0.06246 0.0
C1208 C 0.84291 0.56517 0.98324 0.0
C1209 C 0.83471 0.58432 0.95617 0.0
C1210 C 0.81511 0.58466 0.92869 0.0
C1211 C 0.80659 0.60307 0.90846 0.0
C1212 C 0.81759 0.62122 0.9152 0.0
C1213 C 0.83719 0.62095 0.94178 0.0
C1214 C 0.84578 0.60256 0.96213 0.0
C1215 C 0.89104 0.49291 0.88863 0.0
C1216 C 0.91147 0.49916 0.88657 0.0
C1217 C 0.87617 0.50594 0.91279 0.0
C1218 C 0.88158 0.52522 0.93693 0.0
C1219 C 0.90183 0.53195 0.93185 0.0
C1220 C 0.91671 0.51899 0.90647 0.0
C1221 C 0.86654 0.53675 0.97568 0.0
C1222 C 0.85955 0.55568 0.95293 0.0
C1223 C 0.85778 0.52789 0.03251 0.0
C1224 C 0.8652 0.50819 0.05913 0.0
C1225 C 0.88598 0.50554 0.07338 0.0
C1226 C 0.89338 0.4863 0.09009 0.0
C1227 C 0.88007 0.46966 0.09416 0.0
C1228 C 0.85929 0.4723 0.08249 0.0
C1229 C 0.85184 0.49147 0.06506 0.0
H1230 H 0.88582 0.45478 0.10708 0.0
H1231 H 0.81092 0.63549 0.89991 0.0
H1232 H 0.00913 0.2394 0.95431 0.0
H1233 H 1.00383 0.20621 0.90185 0.0
H1234 H 0.06404 0.20981 0.81819 0.0
H1235 H 0.06926 0.24299 0.87074 0.0
H1236 H 0.04041 0.19043 0.73368 0.0
H1237 H 0.05428 0.18297 0.95755 0.0
H1238 H 0.05065 0.18919 0.07576 0.0
H1239 H 0.99078 0.16256 0.07302 0.0
H1240 H 0.99381 0.15668 0.95416 0.0
H1241 H 0.05293 0.08026 0.70311 0.0
H1242 H 0.05673 0.11513 0.74471 0.0
H1243 H 0.99165 0.1196 0.76533 0.0
H1244 H 0.98768 0.08493 0.72161 0.0
H1245 H 0.01875 0.13439 0.88211 0.0
H1246 H 1.0079 0.14334 0.64797 0.0
H1247 H 0.01573 0.13766 0.53171 0.0
H1248 H 0.07666 0.15987 0.56056 0.0
H1249 H 0.06924 0.16554 0.67752 0.0
C1250 C 0.02087 0.23362 0.92213 0.0
C1251 C 0.03937 0.24444 0.91519 0.0
C1252 C 0.01801 0.21428 0.89309 0.0
C1253 C 0.03363 0.20493 0.85639 0.0
C1254 C 0.05162 0.21635 0.84587 0.0
C1255 C 0.05452 0.23561 0.87532 0.0
C1256 C 0.03169 0.183 0.83257 0.0
C1257 C 0.03578 0.17826 0.7666 0.0
C1258 C 0.02595 0.16662 0.87478 0.0
C1259 C 0.02414 0.16967 0.94658 0.0
C1260 C 0.04025 0.17859 0.98195 0.0
C1261 C 0.03831 0.18206 0.04911 0.0
C1262 C 0.02044 0.17639 0.0818 0.0
C1263 C 1.00456 0.16706 0.04749 0.0
C1264 C 1.00637 0.16367 0.98017 0.0
C1265 C 0.03935 0.0886 0.71632 0.0
C1266 C 0.01994 0.07953 0.7083 0.0
C1267 C 0.04157 0.10867 0.74032 0.0
C1268 C 0.02451 0.12031 0.75863 0.0
C1269 C 1.00514 0.11116 0.75193 0.0
C1270 C 1.00287 0.09124 0.72646 0.0
C1271 C 0.02686 0.14206 0.78301 0.0
C1272 C 0.02313 0.14667 0.8493 0.0
C1273 C 0.03356 0.15821 0.74167 0.0
C1274 C 0.03808 0.15465 0.67162 0.0
C1275 C 0.02304 0.14681 0.62972 0.0
C1276 C 0.02739 0.14364 0.56361 0.0
C1277 C 0.0467 0.14831 0.53869 0.0
C1278 C 0.06171 0.15622 0.57992 0.0
C1279 C 0.05743 0.15944 0.64612 0.0
H1280 H 0.05004 0.14589 0.48746 0.0
H1281 H 0.01893 0.17917 0.13374 0.0
H1282 H 0.31335 0.04512 0.01482 0.0
H1283 H 0.34319 0.0402 0.94975 0.0
H1284 H 0.30873 0.05121 0.77467 0.0
H1285 H 0.2776 0.0567 0.84175 0.0
H1286 H 0.3408 0.01628 0.77167 0.0
H1287 H 0.33674 0.0881 0.81895 0.0
H1288 H 0.33143 0.11771 0.89076 0.0
H1289 H 0.38115 0.09873 0.01205 0.0
H1290 H 0.38657 0.06883 0.94156 0.0
H1291 H 0.43779 0.02591 0.60259 0.0
H1292 H 0.40276 0.03126 0.64126 0.0
H1293 H 0.42442 0.03542 0.83945 0.0
H1294 H 0.45914 0.02924 0.80167 0.0
H1295 H 0.39691 0.0651 0.8175 0.0
H1296 H 0.39864 0.9933 0.79165 0.0
H1297 H 0.40476 0.96084 0.73491 0.0
H1298 H 0.36129 0.97712 0.58747 0.0
H1299 H 0.35485 1.00971 0.64365 0.0
C1300 C 0.31148 0.04645 0.96268 0.0
C1301 C 0.29245 0.05176 0.93487 0.0
C1302 C 0.32902 0.04358 0.92502 0.0
C1303 C 0.32867 0.0456 0.85697 0.0
C1304 C 0.30962 0.04967 0.82732 0.0
C1305 C 0.29171 0.05276 0.86581 0.0
C1306 C 0.34869 0.0443 0.81988 0.0
C1307 C 0.35283 0.02735 0.78001 0.0
C1308 C 0.36502 0.05801 0.83305 0.0
C1309 C 0.36199 0.07615 0.87507 0.0
C1310 C 0.34647 0.09017 0.86115 0.0
C1311 C 0.34345 0.10702 0.90161 0.0
C1312 C 0.35593 0.11009 0.95597 0.0
C1313 C 0.37149 0.09634 0.96991 0.0
C1314 C 0.37456 0.07945 0.92965 0.0
C1315 C 0.43517 0.02793 0.65449 0.0
C1316 C 0.45172 0.02756 0.69848 0.0
C1317 C 0.41498 0.03099 0.67671 0.0
C1318 C 0.4106 0.0339 0.74369 0.0
C1319 C 0.42711 0.03351 0.78753 0.0
C1320 C 0.44719 0.03014 0.76552 0.0
C1321 C 0.389 0.03725 0.7684 0.0
C1322 C 0.38471 0.05438 0.80717 0.0
C1323 C 0.37271 0.02351 0.75534 0.0
C1324 C 0.37645 1.00402 0.72133 0.0
C1325 C 0.3905 0.99002 0.74684 0.0
C1326 C 0.39401 0.97159 0.71487 0.0
C1327 C 0.38355 0.96699 0.65731 0.0
C1328 C 0.36943 0.98074 0.63193 0.0
C1329 C 0.3658 0.99917 0.66393 0.0
H1330 H 0.38632 0.95272 0.63255 0.0
H1331 H 0.35356 0.12313 0.98725 0.0
H1332 H 0.50247 0.28233 0.84688 0.0
H1333 H 0.50343 0.31322 0.7796 0.0
H1334 H 0.46556 0.3432 0.92343 0.0
H1335 H 0.46037 0.31159 0.97726 0.0
H1336 H 0.46124 0.36621 0.85316 0.0
H1337 H 0.53396 0.34318 0.86042 0.0
H1338 H 0.56231 0.32005 0.83331 0.0
H1339 H 0.5459 0.3224 0.63016 0.0
H1340 H 0.51739 0.34537 0.65631 0.0
H1341 H 0.5033 0.46632 0.80184 0.0
H1342 H 0.49772 0.43146 0.84016 0.0
H1343 H 0.50228 0.40977 0.64209 0.0
H1344 H 0.50787 0.44484 0.60337 0.0
H1345 H 0.52194 0.38389 0.72161 0.0
H1346 H 0.45404 0.41608 0.73794 0.0
H1347 H 0.42863 0.44001 0.78233 0.0
H1348 H 0.44402 0.42199 0.97805 0.0
H1349 H 0.46958 0.39817 0.935 0.0
C1350 C 0.49361 0.29536 0.86192 0.0
C1351 C 0.48176 0.29423 0.91948 0.0
C1352 C 0.49495 0.3138 0.82471 0.0
C1353 C 0.48594 0.33236 0.84651 0.0
C1354 C 0.47309 0.3303 0.90192 0.0
C1355 C 0.47028 0.3117 0.93475 0.0
C1356 C 0.48944 0.35378 0.81492 0.0
C1357 C 0.47527 0.36957 0.82752 0.0
C1358 C 0.50665 0.35969 0.77567 0.0
C1359 C 0.52347 0.3457 0.7604 0.0
C1360 C 0.5364 0.33866 0.81009 0.0
C1361 C 0.55246 0.32559 0.79488 0.0
C1362 C 0.55585 0.3197 0.7301 0.0
C1363 C 0.54321 0.3269 0.68033 0.0
C1364 C 0.52711 0.33992 0.69529 0.0
C1365 C 0.50282 0.45428 0.76596 0.0
C1366 C 0.50566 0.45888 0.69895 0.0
C1367 C 0.49961 0.43409 0.78818 0.0
C1368 C 0.49905 0.41751 0.74438 0.0
C1369 C 0.50241 0.42199 0.67753 0.0
C1370 C 0.50558 0.44224 0.65522 0.0
C1371 C 0.49513 0.39568 0.76799 0.0
C1372 C 0.50876 0.38 0.75136 0.0
C1373 C 0.47834 0.39013 0.80818 0.0
C1374 C 0.4637 0.40536 0.83319 0.0
C1375 C 0.45211 0.41737 0.79039 0.0
C1376 C 0.43764 0.43086 0.81536 0.0
C1377 C 0.43459 0.43234 0.88292 0.0
C1378 C 0.44629 0.42071 0.92575 0.0
C1379 C 0.46075 0.40723 0.90111 0.0
H1380 H 0.42312 0.44244 0.90224 0.0
H1381 H 0.56829 0.3096 0.71844 0.0
H1382 H 0.24148 0.52523 0.8979 0.0
H1383 H 0.2088 0.53011 0.84186 0.0
H1384 H 0.19852 0.46514 0.84568 0.0
H1385 H 0.23184 0.46038 0.89388 0.0
H1386 H 0.17814 0.47396 0.75788 0.0
H1387 H 0.17731 0.50731 0.96485 0.0
H1388 H 0.18804 0.5312 0.05122 0.0
H1389 H 0.17709 0.58177 0.9226 0.0
H1390 H 0.1665 0.55815 0.83521 0.0
H1391 H 0.06821 0.47983 0.74679 0.0
H1392 H 0.10349 0.476 0.78391 0.0
H1393 H 0.11706 0.53718 0.72003 0.0
H1394 H 0.08177 0.54121 0.68417 0.0
H1395 H 0.13513 0.53072 0.83537 0.0
H1396 H 0.13177 0.49033 0.633 0.0
H1397 H 0.11716 0.46241 0.56712 0.0
H1398 H 0.13212 0.41942 0.71799 0.0
H1399 H 0.14662 0.4471 0.78495 0.0
C1400 C 0.23271 0.51196 0.88368 0.0
C1401 C 0.23969 0.49236 0.90038 0.0
C1402 C 0.21345 0.51475 0.8534 0.0
C1403 C 0.2 0.49813 0.84153 0.0
C1404 C 0.20786 0.47853 0.85377 0.0
C1405 C 0.22729 0.47574 0.88138 0.0
C1406 C 0.17782 0.50077 0.81886 0.0
C1407 C 0.16891 0.48635 0.77608 0.0
C1408 C 0.16488 0.51672 0.84117 0.0
C1409 C 0.17134 0.53097 0.89331 0.0
C1410 C 0.17731 0.52352 0.9549 0.0
C1411 C 0.18335 0.53701 1.00403 0.0
C1412 C 0.18329 0.55799 0.99237 0.0
C1413 C 0.17716 0.56552 0.93154 0.0
C1414 C 0.17113 0.55209 0.88219 0.0
C1415 C 0.07864 0.49252 0.74052 0.0
C1416 C 0.07176 0.51086 0.71209 0.0
C1417 C 0.09906 0.49026 0.76159 0.0
C1418 C 0.11353 0.50617 0.75435 0.0
C1419 C 0.10657 0.52454 0.7266 0.0
C1420 C 0.08618 0.52683 0.7058 0.0
C1421 C 0.13575 0.50389 0.77545 0.0
C1422 C 0.14458 0.51841 0.81765 0.0
C1423 C 0.14826 0.48742 0.75558 0.0
C1424 C 0.14018 0.47079 0.71404 0.0
C1425 C 0.13192 0.47492 0.65207 0.0
C1426 C 0.12365 0.45914 0.61459 0.0
C1427 C 0.12368 0.43916 0.63839 0.0
C1428 C 0.1321 0.4349 0.69959 0.0
C1429 C 0.14038 0.45061 0.73725 0.0
H1430 H 0.1172 0.42698 0.60941 0.0
H1431 H 0.18793 0.56841 0.03051 0.0
H1432 H 0.95935 0.79745 0.40344 0.0
H1433 H 0.96415 0.83093 0.4539 0.0
H1434 H 0.02662 0.83174 0.3889 0.0
H1435 H 0.02178 0.79808 0.33869 0.0
H1436 H 0.02397 0.84986 0.50603 0.0
H1437 H 0.98744 0.8565 0.30404 0.0
H1438 H 0.95949 0.84903 0.22729 0.0
H1439 H 0.91602 0.87197 0.36555 0.0
H1440 H 0.94366 0.87914 0.44383 0.0
H1441 H 0.04075 0.956 0.55244 0.0
H1442 H 0.03727 0.92174 0.50751 0.0
H1443 H 0.97231 0.92403 0.53804 0.0
H1444 H 0.97572 0.95883 0.57966 0.0
H1445 H 0.97628 0.90395 0.43627 0.0
H1446 H 0.01089 0.89357 0.64182 0.0
H1447 H 0.03755 0.89768 0.72528 0.0
H1448 H 0.08326 0.88086 0.58496 0.0
H1449 H 0.05673 0.87645 0.50078 0.0
C1450 C 0.97439 0.80432 0.40248 0.0
C1451 C 0.99032 0.7946 0.36835 0.0
C1452 C 0.97702 0.82381 0.43016 0.0
C1453 C 0.99564 0.83446 0.4242 0.0
C1454 C 0.01202 0.82416 0.39428 0.0
C1455 C 0.00936 0.80462 0.36641 0.0
C1456 C 0.99783 0.85641 0.44693 0.0
C1457 C 0.01365 0.86169 0.48994 0.0
C1458 C 0.98421 0.87212 0.42772 0.0
C1459 C 0.96762 0.86819 0.3801 0.0
C1460 C 0.97192 0.85984 0.31828 0.0
C1461 C 0.95613 0.85567 0.27446 0.0
C1462 C 0.936 0.86002 0.29153 0.0
C1463 C 0.93162 0.86859 0.35241 0.0
C1464 C 0.94734 0.87271 0.39655 0.0
C1465 C 0.02569 0.94923 0.54993 0.0
C1466 C 1.00858 0.96038 0.57075 0.0
C1467 C 0.02368 0.92933 0.52453 0.0
C1468 C 1.00454 0.91942 0.52071 0.0
C1469 C 0.98737 0.9308 0.54032 0.0
C1470 C 0.98934 0.95088 0.56456 0.0
C1471 C 1.0024 0.89748 0.49638 0.0
C1472 C 0.98662 0.89218 0.45265 0.0
C1473 C 0.01592 0.88164 0.51534 0.0
C1474 C 0.0319 0.88487 0.56505 0.0
C1475 C 0.02665 0.89091 0.62873 0.0
C1476 C 0.04174 0.89324 0.67618 0.0
C1477 C 0.06214 0.88964 0.66039 0.0
C1478 C 0.06747 0.88367 0.5971 0.0
C1479 C 0.05241 0.88117 0.54959 0.0
H1480 H 0.07382 0.89132 0.6972 0.0
H1481 H 0.9238 0.85677 0.25755 0.0
H1482 H 0.74666 0.98596 0.43575 0.0
H1483 H 0.71442 0.99171 0.49503 0.0
H1484 H 0.68549 1.00792 0.31297 0.0
H1485 H 0.71763 1.00402 0.2562 0.0
H1486 H 0.66844 0.02901 0.38886 0.0
H1487 H 0.6828 0.95695 0.41196 0.0
H1488 H 0.70168 0.92654 0.44786 0.0
H1489 H 0.69734 0.94609 0.64764 0.0
H1490 H 0.67865 0.97674 0.61285 0.0
H1491 H 0.56416 0.01248 0.46595 0.0
H1492 H 0.59887 1.00852 0.42482 0.0
H1493 H 0.62111 1.00428 0.62247 0.0
H1494 H 0.58614 1.00734 0.66394 0.0
H1495 H 0.64222 0.97867 0.54966 0.0
H1496 H 0.62497 0.04958 0.5212 0.0
H1497 H 0.60338 0.07761 0.48149 0.0
H1498 H 0.6114 0.0573 0.28367 0.0
H1499 H 0.63286 0.02899 0.32228 0.0
C1500 C 0.73357 0.99141 0.40898 0.0
C1501 C 0.73502 0.99459 0.34084 0.0
C1502 C 0.71481 0.99425 0.44273 0.0
C1503 C 0.69675 0.99978 0.4091 0.0
C1504 C 0.69868 1.00371 0.34154 0.0
C1505 C 0.71733 1.00144 0.30859 0.0
C1506 C 0.67583 1.0016 0.44203 0.0
C1507 C 0.66285 0.01767 0.42325 0.0
C1508 C 0.66799 0.98746 0.48902 0.0
C1509 C 0.67959 0.96927 0.50969 0.0
C1510 C 0.68605 0.95485 0.46347 0.0
C1511 C 0.69668 0.93756 0.48364 0.0
C1512 C 0.70077 0.93442 0.54995 0.0
C1513 C 0.69422 0.94856 0.59627 0.0
C1514 C 0.68362 0.9659 0.57636 0.0
C1515 C 0.57634 0.01056 0.501 0.0
C1516 C 0.57202 0.01031 0.56867 0.0
C1517 C 0.59642 1.00846 0.47721 0.0
C1518 C 0.61313 1.0065 0.52006 0.0
C1519 C 0.6088 1.00585 0.5877 0.0
C1520 C 0.58865 1.00773 0.61156 0.0
C1521 C 0.63494 1.00555 0.49438 0.0
C1522 C 0.64801 0.98984 0.51498 0.0
C1523 C 0.64279 0.01975 0.44803 0.0
C1524 C 0.63045 0.03714 0.42467 0.0
C1525 C 0.62212 0.05109 0.46925 0.0
C1526 C 0.60989 0.067 0.44695 0.0
C1527 C 0.60603 0.06923 0.38013 0.0
C1528 C 0.61443 0.05557 0.33541 0.0
C1529 C 0.62665 0.03961 0.35746 0.0
H1530 H 0.59657 0.08157 0.36308 0.0
H1531 H 0.70897 0.921 0.56547 0.0
H1532 H 0.5112 0.73003 0.28445 0.0
H1533 H 0.50738 0.69652 0.33438 0.0
H1534 H 0.54578 0.71527 0.4942 0.0
H1535 H 0.55069 0.74858 0.44095 0.0
H1536 H 0.55718 0.67964 0.46387 0.0
H1537 H 0.48855 0.70392 0.50265 0.0
H1538 H 0.45631 0.71958 0.46727 0.0
H1539 H 0.44761 0.67193 0.32648 0.0
H1540 H 0.47985 0.65608 0.36078 0.0
H1541 H 0.54262 0.58514 0.6361 0.0
H1542 H 0.54444 0.62066 0.5999 0.0
H1543 H 0.50086 0.60749 0.44777 0.0
H1544 H 0.49765 0.5725 0.48882 0.0
H1545 H 0.49208 0.64139 0.4794 0.0
H1546 H 0.56023 0.61738 0.43388 0.0
H1547 H 0.59363 0.6024 0.45976 0.0
H1548 H 0.60425 0.6485 0.60396 0.0
H1549 H 0.571 0.66394 0.57875 0.0
C1550 C 0.51795 0.72746 0.33204 0.0
C1551 C 0.53047 0.74264 0.35984 0.0
C1552 C 0.51593 0.70797 0.36072 0.0
C1553 C 0.52588 0.70289 0.4197 0.0
C1554 C 0.53772 0.71839 0.44917 0.0
C1555 C 0.54012 0.73781 0.4195 0.0
C1556 C 0.52483 0.68131 0.44812 0.0
C1557 C 0.54283 0.67146 0.46811 0.0
C1558 C 0.5064 0.66986 0.4525 0.0
C1559 C 0.4866 0.67887 0.43415 0.0
C1560 C 0.47972 0.69678 0.46426 0.0
C1561 C 0.46147 0.7057 0.44433 0.0
C1562 C 0.44993 0.69677 0.39462 0.0
C1563 C 0.45655 0.67882 0.36503 0.0
C1564 C 0.47477 0.66983 0.38483 0.0
C1565 C 0.53341 0.58987 0.59494 0.0
C1566 C 0.51993 0.57587 0.56566 0.0
C1567 C 0.53465 0.61032 0.57328 0.0
C1568 C 0.52323 0.61735 0.51917 0.0
C1569 C 0.50992 0.60307 0.48958 0.0
C1570 C 0.50809 0.58285 0.51296 0.0
C1571 C 0.52449 0.63942 0.49456 0.0
C1572 C 0.50649 0.64944 0.47536 0.0
C1573 C 0.543 0.65088 0.49011 0.0
C1574 C 0.56303 0.64168 0.5049 0.0
C1575 C 0.56965 0.62427 0.4713 0.0
C1576 C 0.58854 0.61569 0.48587 0.0
C1577 C 0.60095 0.62434 0.53384 0.0
C1578 C 0.59459 0.64175 0.56698 0.0
C1579 C 0.57576 0.65048 0.55242 0.0
H1580 H 0.61553 0.6176 0.54508 0.0
H1581 H 0.43586 0.70375 0.37905 0.0
H1582 H 0.81164 0.53272 0.25566 0.0
H1583 H 0.84409 0.52959 0.3097 0.0
H1584 H 0.81477 0.53692 0.4972 0.0
H1585 H 0.78206 0.54287 0.44089 0.0
H1586 H 0.84823 0.55531 0.50734 0.0
H1587 H 0.83748 0.4874 0.42271 0.0
H1588 H 0.82894 0.4628 0.33578 0.0
H1589 H 0.87967 0.48434 0.22147 0.0
H1590 H 0.88821 0.50923 0.30656 0.0
H1591 H 0.94289 0.5278 0.66423 0.0
H1592 H 0.90778 0.5292 0.62438 0.0
H1593 H 0.92982 0.52917 0.42554 0.0
H1594 H 0.96481 0.52693 0.46516 0.0
H1595 H 0.89895 0.50507 0.4307 0.0
H1596 H 0.90911 0.57327 0.51159 0.0
H1597 H 0.91762 0.59896 0.59512 0.0
H1598 H 0.86878 0.57698 0.71691 0.0
H1599 H 0.86013 0.55099 0.63445 0.0
C1600 C 0.81185 0.5331 0.30868 0.0
C1601 C 0.79386 0.53765 0.34354 0.0
C1602 C 0.83069 0.53115 0.34011 0.0
C1603 C 0.83243 0.53216 0.40871 0.0
C1604 C 0.81426 0.53581 0.4444 0.0
C1605 C 0.79531 0.53876 0.41227 0.0
C1606 C 0.85325 0.53025 0.44152 0.0
C1607 C 0.85908 0.54399 0.49119 0.0
C1608 C 0.86811 0.51589 0.42074 0.0
C1609 C 0.86346 0.50019 0.37099 0.0
C1610 C 0.8468 0.48684 0.37895 0.0
C1611 C 0.84191 0.47289 0.32979 0.0
C1612 C 0.85369 0.47204 0.27281 0.0
C1613 C 0.87046 0.48502 0.26518 0.0
C1614 C 0.87538 0.49901 0.31394 0.0
C1615 C 0.94034 0.52806 0.61196 0.0
C1616 C 0.95702 0.52725 0.56824 0.0
C1617 C 0.92008 0.52907 0.58899 0.0
C1618 C 0.91571 0.52958 0.52141 0.0
C1619 C 0.93239 0.52882 0.47784 0.0
C1620 C 0.95261 0.52766 0.50074 0.0
C1621 C 0.89397 0.53024 0.49565 0.0
C1622 C 0.888 0.51623 0.44734 0.0
C1623 C 0.87906 0.54427 0.51796 0.0
C1624 C 0.88409 0.56006 0.56711 0.0
C1625 C 0.90026 0.57384 0.55635 0.0
C1626 C 0.9051 0.58846 0.60348 0.0
C1627 C 0.89377 0.58957 0.66133 0.0
C1628 C 0.87755 0.57609 0.6721 0.0
C1629 C 0.87266 0.56142 0.62516 0.0
H1630 H 0.89751 0.60089 0.69774 0.0
H1631 H 0.84985 0.46129 0.23468 0.0
loop_
_geom_bond_atom_site_label_1
_geom_bond_atom_site_label_2
_geom_bond_distance
_geom_bond_site_symmetry_2
_ccdc_geom_bond_type
H0 C5 0.930 . S
H1 C8 0.930 . S
H2 C10 0.930 . S
H3 C4 1.016 . S
C4 H3 1.016 . S
C4 N11 1.286 . S
C5 H0 0.930 . S
C5 C6 1.397 . S
C5 C7 1.361 . S
C6 C5 1.397 . S
C6 C10 1.390 . S
C7 C5 1.361 . S
C7 C8 1.393 . S
C7 N11 1.413 . S
C8 H1 0.930 . S
C8 C7 1.393 . S
C8 C9 1.399 . S
C9 C8 1.399 . S
C9 C10 1.381 . S
C10 H2 0.930 . S
C10 C6 1.390 . S
C10 C9 1.381 . S
N11 C4 1.286 . S
N11 C7 1.413 . S
H12 C17 0.930 . S
H13 C20 0.930 . S
H14 C22 0.930 . S
H15 C16 1.016 . S
C16 H15 1.016 . S
C16 N23 1.286 . S
C17 H12 0.930 . S
C17 C18 1.397 . S
C17 C19 1.361 . S
C18 C17 1.397 . S
C18 C22 1.390 . S
C19 C17 1.361 . S
C19 C20 1.393 . S
C19 N23 1.413 . S
C20 H13 0.930 . S
C20 C19 1.393 . S
C20 C21 1.399 . S
C21 C20 1.399 . S
C21 C22 1.381 . S
C22 H14 0.930 . S
C22 C18 1.390 . S
C22 C21 1.381 . S
N23 C16 1.286 . S
N23 C19 1.413 . S
H24 C29 0.930 . S
H25 C32 0.930 . S
H26 C34 0.930 . S
H27 C28 1.016 . S
C28 H27 1.016 . S
C28 N35 1.286 . S
C29 H24 0.930 . S
C29 C30 1.397 . S
C29 C31 1.361 . S
C30 C29 1.397 . S
C30 C34 1.390 . S
C31 C29 1.361 . S
C31 C32 1.393 . S
C31 N35 1.413 . S
C32 H25 0.930 . S
C32 C31 1.393 . S
C32 C33 1.399 . S
C33 C32 1.399 . S
C33 C34 1.381 . S
C34 H26 0.930 . S
C34 C30 1.390 . S
C34 C33 1.381 . S
N35 C28 1.286 . S
N35 C31 1.413 . S
H36 C41 0.930 . S
H37 C44 0.930 . S
H38 C46 0.930 . S
H39 C40 1.016 . S
C40 H39 1.016 . S
C40 N47 1.286 . S
C41 H36 0.930 . S
C41 C42 1.397 . S
C41 C43 1.361 . S
C42 C41 1.397 . S
C42 C46 1.390 . S
C43 C41 1.361 . S
C43 C44 1.393 . S
C43 N47 1.413 . S
C44 H37 0.930 . S
C44 C43 1.393 . S
C44 C45 1.399 . S
C45 C44 1.399 . S
C45 C46 1.381 . S
C46 H38 0.930 . S
C46 C42 1.390 . S
C46 C45 1.381 . S
N47 C40 1.286 . S
N47 C43 1.413 . S
H48 C53 0.930 . S
H49 C56 0.930 . S
H50 C58 0.930 . S
H51 C52 1.016 . S
C52 H51 1.016 . S
C52 N59 1.286 . S
C53 H48 0.930 . S
C53 C54 1.397 . S
C53 C55 1.361 1_556 S
C54 C53 1.397 . S
C54 C58 1.390 1_556 S
C55 C53 1.361 1_554 S
C55 C56 1.393 . S
C55 N59 1.413 . S
C56 H49 0.930 . S
C56 C55 1.393 . S
C56 C57 1.399 . S
C57 C56 1.399 . S
C57 C58 1.381 . S
C58 H50 0.930 . S
C58 C54 1.390 1_554 S
C58 C57 1.381 . S
N59 C52 1.286 . S
N59 C55 1.413 . S
H60 C65 0.930 . S
H61 C68 0.930 . S
H62 C70 0.930 . S
H63 C64 1.016 . S
C64 H63 1.016 . S
C64 N71 1.286 . S
C65 H60 0.930 . S
C65 C66 1.397 . S
C65 C67 1.361 1_556 S
C66 C65 1.397 . S
C66 C70 1.390 1_556 S
C67 C65 1.361 1_554 S
C67 C68 1.393 . S
C67 N71 1.413 . S
C68 H61 0.930 . S
C68 C67 1.393 . S
C68 C69 1.399 . S
C69 C68 1.399 . S
C69 C70 1.381 . S
C70 H62 0.930 . S
C70 C66 1.390 1_554 S
C70 C69 1.381 . S
N71 C64 1.286 . S
N71 C67 1.413 . S
H72 C77 0.930 . S
H73 C80 0.930 . S
H74 C82 0.930 . S
H75 C76 1.016 . S
C76 H75 1.016 . S
C76 N83 1.286 . S
C77 H72 0.930 . S
C77 C78 1.397 . S
C77 C79 1.361 1_556 S
C78 C77 1.397 . S
C78 C82 1.390 1_556 S
C79 C77 1.361 1_554 S
C79 C80 1.393 . S
C79 N83 1.413 . S
C80 H73 0.930 . S
C80 C79 1.393 . S
C80 C81 1.399 . S
C81 C80 1.399 . S
C81 C82 1.381 . S
C82 H74 0.930 . S
C82 C78 1.390 1_554 S
C82 C81 1.381 . S
N83 C76 1.286 . S
N83 C79 1.413 . S
H84 C89 0.930 . S
H85 C92 0.930 . S
H86 C94 0.930 . S
H87 C88 1.016 . S
C88 H87 1.016 . S
C88 N95 1.286 . S
C89 H84 0.930 . S
C89 C90 1.397 . S
C89 C91 1.361 1_556 S
C90 C89 1.397 . S
C90 C94 1.390 1_556 S
C91 C89 1.361 1_554 S
C91 C92 1.393 . S
C91 N95 1.413 . S
C92 H85 0.930 . S
C92 C91 1.393 . S
C92 C93 1.399 . S
C93 C92 1.399 . S
C93 C94 1.381 . S
C94 H86 0.930 . S
C94 C90 1.390 1_554 S
C94 C93 1.381 . S
N95 C88 1.286 . S
N95 C91 1.413 . S
Eu96 N125 2.600 . S
Eu96 N131 2.562 . S
Eu96 O140 2.462 1_655 S
Eu96 O141 2.373 1_545 S
Eu96 O143 2.432 . S
Eu96 O144 2.291 1_655 S
Eu96 O148 2.335 1_655 S
Eu96 O151 2.372 . S
Eu96 C160 2.787 . S
C97 N98 1.365 . S
C97 C100 1.405 . S
C97 C104 1.448 . S
N98 C97 1.365 . S
N98 C101 1.324 . S
N98 Eu107 2.600 1_545 S
C99 C101 1.411 . S
C99 C102 1.367 . S
C99 H119 0.931 . S
C100 C97 1.405 . S
C100 C102 1.403 . S
C100 C106 1.439 . S
C101 N98 1.324 . S
C101 C99 1.411 . S
C101 H112 0.911 1_545 S
C102 C99 1.367 . S
C102 C100 1.403 . S
C102 H123 0.929 . S
C103 C104 1.430 . S
C103 C105 1.387 . S
C103 C109 1.404 . S
C104 C97 1.448 . S
C104 C103 1.430 . S
C104 N108 1.351 . S
C105 C103 1.387 . S
C105 C106 1.374 . S
C105 H120 0.931 . S
C106 C100 1.439 . S
C106 C105 1.374 . S
C106 H121 0.931 . S
Eu107 N98 2.600 1_565 S
Eu107 N108 2.562 1_565 S
Eu107 O142 2.335 . S
Eu107 O145 2.372 . S
Eu107 O146 2.462 . S
Eu107 O147 2.373 1_565 S
Eu107 O149 2.432 . S
Eu107 O150 2.291 1_465 S
Eu107 C171 2.787 . S
N108 C104 1.351 . S
N108 Eu107 2.562 1_545 S
N108 C110 1.325 . S
C109 C103 1.404 . S
C109 C111 1.366 . S
C109 H117 0.930 . S
C110 N108 1.325 . S
C110 C111 1.416 . S
C110 H116 0.929 1_455 S
C111 C109 1.366 . S
C111 C110 1.416 . S
C111 H113 0.930 1_455 S
H112 C101 0.911 1_565 S
H113 C111 0.930 1_655 S
H114 C129 0.930 . S
H115 C136 0.934 . S
H116 C110 0.929 1_655 S
H117 C109 0.930 . S
H118 C132 0.929 . S
H119 C99 0.931 . S
H120 C105 0.931 . S
H121 C106 0.931 . S
H122 C127 0.931 . S
H123 C102 0.929 . S
H124 C135 0.930 . S
N125 Eu96 2.600 . S
N125 C126 1.365 . S
N125 C129 1.319 . S
C126 N125 1.365 . S
C126 C128 1.405 1_545 S
C126 C134 1.448 . S
C127 H122 0.931 . S
C127 C129 1.397 . S
C127 C130 1.388 . S
C128 C126 1.405 1_565 S
C128 C130 1.399 1_565 S
C128 C161 1.439 . S
C129 H114 0.930 . S
C129 N125 1.319 . S
C129 C127 1.397 . S
C130 C127 1.388 . S
C130 C128 1.399 1_545 S
C130 H137 0.916 1_545 S
N131 Eu96 2.562 . S
N131 C132 1.325 1_655 S
N131 C134 1.351 . S
C132 H118 0.929 . S
C132 N131 1.325 1_455 S
C132 C136 1.401 1_545 S
C133 C134 1.430 1_565 S
C133 C135 1.404 . S
C133 C162 1.387 . S
C134 C126 1.448 . S
C134 N131 1.351 . S
C134 C133 1.430 1_545 S
C135 H124 0.930 . S
C135 C133 1.404 . S
C135 C136 1.378 1_655 S
C136 H115 0.934 . S
C136 C132 1.401 1_565 S
C136 C135 1.378 1_455 S
H137 C130 0.916 1_565 S
H138 C161 0.931 . S
H139 C162 0.931 . S
O140 Eu96 2.462 1_455 S
O140 C160 1.252 1_455 S
O141 Eu96 2.373 1_565 S
O141 C152 1.249 . S
O142 Eu107 2.335 . S
O142 C152 1.264 1_455 S
O143 Eu96 2.432 . S
O143 C160 1.268 . S
O144 Eu96 2.291 1_455 S
O144 C159 1.255 . S
O145 Eu107 2.372 . S
O145 C159 1.257 1_565 S
O146 Eu107 2.462 . S
O146 C171 1.252 . S
O147 Eu107 2.373 1_545 S
O147 C163 1.249 . S
O148 Eu96 2.335 1_455 S
O148 C163 1.264 . S
O149 Eu107 2.432 . S
O149 C171 1.268 . S
O150 Eu107 2.291 1_645 S
O150 C170 1.255 . S
O151 Eu96 2.372 . S
O151 C170 1.257 . S
C152 O141 1.249 . S
C152 O142 1.264 1_655 S
C153 C156 1.382 . S
C153 C158 1.390 1_655 S
C153 C160 1.506 . S
C154 C155 1.438 . S
C154 C158 1.388 1_655 S
C155 C154 1.438 . S
C155 C157 1.372 . S
C155 H172 0.931 . S
C156 C153 1.382 . S
C156 C157 1.390 . S
C156 H173 0.931 . S
C157 C155 1.372 . S
C157 C156 1.390 . S
C157 H174 0.929 . S
C158 C153 1.390 1_455 S
C158 C154 1.388 1_455 S
C158 H175 0.930 . S
C159 O144 1.255 . S
C159 O145 1.257 1_545 S
C160 Eu96 2.787 . S
C160 O140 1.252 1_655 S
C160 O143 1.268 . S
C160 C153 1.506 . S
C161 C128 1.439 . S
C161 H138 0.931 . S
C161 C162 1.374 . S
C162 C133 1.387 . S
C162 H139 0.931 . S
C162 C161 1.374 . S
C163 O147 1.249 . S
C163 O148 1.264 . S
C164 C167 1.382 . S
C164 C168 1.390 . S
C164 C171 1.506 . S
C165 C166 1.398 . S
C165 C168 1.392 . S
C166 C165 1.398 . S
C166 C169 1.372 . S
C166 H176 0.931 . S
C167 C164 1.382 . S
C167 C169 1.390 . S
C167 H177 0.931 . S
C168 C164 1.390 . S
C168 C165 1.392 . S
C168 H178 0.930 1_455 S
C169 C166 1.372 . S
C169 C167 1.390 . S
C169 H179 0.929 . S
C170 O150 1.255 . S
C170 O151 1.257 . S
C171 Eu107 2.787 . S
C171 O146 1.252 . S
C171 O149 1.268 . S
C171 C164 1.506 . S
H172 C155 0.931 . S
H173 C156 0.931 . S
H174 C157 0.929 . S
H175 C158 0.930 . S
H176 C166 0.931 . S
H177 C167 0.931 . S
H178 C168 0.930 1_655 S
H179 C169 0.929 . S
Eu180 N209 2.600 . S
Eu180 N215 2.562 . S
Eu180 O224 2.462 . S
Eu180 O225 2.373 . S
Eu180 O227 2.432 . S
Eu180 O228 2.291 . S
Eu180 O232 2.335 1_545 S
Eu180 O235 2.372 . S
Eu180 C244 2.787 . S
C181 N182 1.365 . S
C181 C184 1.405 . S
C181 C188 1.448 . S
N182 C181 1.365 . S
N182 C185 1.319 . S
N182 Eu191 2.600 . S
C183 C185 1.397 . S
C183 C186 1.367 . S
C183 H203 0.931 . S
C184 C181 1.405 . S
C184 C186 1.403 . S
C184 C190 1.439 . S
C185 N182 1.319 . S
C185 C183 1.397 . S
C185 H196 0.930 . S
C186 C183 1.367 . S
C186 C184 1.403 . S
C186 H207 0.929 . S
C187 C188 1.430 . S
C187 C189 1.387 . S
C187 C193 1.404 . S
C188 C181 1.448 . S
C188 C187 1.430 . S
C188 N192 1.351 . S
C189 C187 1.387 . S
C189 C190 1.374 . S
C189 H204 0.931 . S
C190 C184 1.439 . S
C190 C189 1.374 . S
C190 H205 0.931 . S
Eu191 N182 2.600 . S
Eu191 N192 2.562 . S
Eu191 O226 2.335 1_565 S
Eu191 O229 2.372 . S
Eu191 O230 2.464 . S
Eu191 O231 2.373 . S
Eu191 O233 2.432 . S
Eu191 O234 2.291 1_565 S
Eu191 C255 2.787 . S
N192 C188 1.351 . S
N192 Eu191 2.562 . S
N192 C194 1.325 . S
C193 C187 1.404 . S
C193 C195 1.366 . S
C193 H201 0.930 . S
C194 N192 1.325 . S
C194 C195 1.416 . S
C194 H200 0.929 . S
C195 C193 1.366 . S
C195 C194 1.416 . S
C195 H197 0.930 . S
H196 C185 0.930 . S
H197 C195 0.930 . S
H198 C213 0.930 . S
H199 C220 0.930 . S
H200 C194 0.929 . S
H201 C193 0.930 . S
H202 C216 0.929 . S
H203 C183 0.931 . S
H204 C189 0.931 . S
H205 C190 0.931 . S
H206 C211 0.931 . S
H207 C186 0.929 . S
H208 C219 0.930 . S
N209 Eu180 2.600 . S
N209 C210 1.365 . S
N209 C213 1.319 . S
C210 N209 1.365 . S
C210 C212 1.405 . S
C210 C218 1.448 . S
C211 H206 0.931 . S
C211 C213 1.397 . S
C211 C214 1.367 . S
C212 C210 1.405 . S
C212 C214 1.403 . S
C212 C245 1.439 . S
C213 H198 0.930 . S
C213 N209 1.319 . S
C213 C211 1.397 . S
C214 C211 1.367 . S
C214 C212 1.403 . S
C214 H221 0.929 . S
N215 Eu180 2.562 . S
N215 C216 1.325 . S
N215 C218 1.351 . S
C216 H202 0.929 . S
C216 N215 1.325 . S
C216 C220 1.416 . S
C217 C218 1.430 . S
C217 C219 1.404 . S
C217 C246 1.387 . S
C218 C210 1.448 . S
C218 N215 1.351 . S
C218 C217 1.430 . S
C219 H208 0.930 . S
C219 C217 1.404 . S
C219 C220 1.366 . S
C220 H199 0.930 . S
C220 C216 1.416 . S
C220 C219 1.366 . S
H221 C214 0.929 . S
H222 C245 0.931 . S
H223 C246 0.931 . S
O224 Eu180 2.462 . S
O224 C244 1.252 . S
O225 Eu180 2.373 . S
O225 C236 1.249 . S
O226 Eu191 2.335 1_545 S
O226 C236 1.264 . S
O227 Eu180 2.432 . S
O227 C244 1.268 . S
O228 Eu180 2.291 . S
O228 C243 1.255 . S
O229 Eu191 2.372 . S
O229 C243 1.257 1_565 S
O230 Eu191 2.464 . S
O230 C255 1.254 . S
O231 Eu191 2.373 . S
O231 C247 1.249 . S
O232 Eu180 2.335 1_565 S
O232 C247 1.264 . S
O233 Eu191 2.432 . S
O233 C255 1.268 . S
O234 Eu191 2.291 1_545 S
O234 C254 1.255 . S
O235 Eu180 2.372 . S
O235 C254 1.257 . S
C236 O225 1.249 . S
C236 O226 1.264 . S
C237 C240 1.382 . S
C237 C242 1.390 . S
C237 C244 1.506 . S
C238 C239 1.398 . S
C238 C242 1.392 . S
C239 C238 1.398 . S
C239 C241 1.372 . S
C239 H256 0.931 . S
C240 C237 1.382 . S
C240 C241 1.390 . S
C240 H257 0.931 . S
C241 C239 1.372 . S
C241 C240 1.390 . S
C241 H258 0.929 1_556 S
C242 C237 1.390 . S
C242 C238 1.392 . S
C242 H259 0.930 . S
C243 O228 1.255 . S
C243 O229 1.257 1_545 S
C244 Eu180 2.787 . S
C244 O224 1.252 . S
C244 O227 1.268 . S
C244 C237 1.506 . S
C245 C212 1.439 . S
C245 H222 0.931 . S
C245 C246 1.374 . S
C246 C217 1.387 . S
C246 H223 0.931 . S
C246 C245 1.374 . S
C247 O231 1.249 . S
C247 O232 1.264 . S
C248 C251 1.384 . S
C248 C252 1.386 1_565 S
C248 C255 1.508 . S
C249 C250 1.398 . S
C249 C252 1.392 . S
C250 C249 1.398 . S
C250 C253 1.372 1_545 S
C250 H260 0.931 . S
C251 C248 1.384 . S
C251 C253 1.390 . S
C251 H261 0.931 . S
C252 C248 1.386 1_545 S
C252 C249 1.392 . S
C252 H262 0.930 . S
C253 C250 1.372 1_565 S
C253 C251 1.390 . S
C253 H263 0.929 . S
C254 O234 1.255 . S
C254 O235 1.257 . S
C255 Eu191 2.787 . S
C255 O230 1.254 . S
C255 O233 1.268 . S
C255 C248 1.508 . S
H256 C239 0.931 . S
H257 C240 0.931 . S
H258 C241 0.929 1_554 S
H259 C242 0.930 . S
H260 C250 0.931 . S
H261 C251 0.931 . S
H262 C252 0.930 . S
H263 C253 0.929 . S
Eu264 N293 2.600 . S
Eu264 N299 2.562 . S
Eu264 O308 2.462 . S
Eu264 O309 2.373 . S
Eu264 O311 2.432 . S
Eu264 O312 2.291 . S
Eu264 O316 2.335 . S
Eu264 O319 2.372 . S
Eu264 C328 2.787 . S
C265 N266 1.365 . S
C265 C268 1.405 . S
C265 C272 1.448 . S
N266 C265 1.365 . S
N266 C269 1.319 . S
N266 Eu275 2.600 . S
C267 C269 1.397 . S
C267 C270 1.367 . S
C267 H287 0.931 . S
C268 C265 1.405 . S
C268 C270 1.403 . S
C268 C274 1.439 . S
C269 N266 1.319 . S
C269 C267 1.397 . S
C269 H280 0.930 . S
C270 C267 1.367 . S
C270 C268 1.403 . S
C270 H291 0.929 . S
C271 C272 1.430 . S
C271 C273 1.387 . S
C271 C277 1.404 . S
C272 C265 1.448 . S
C272 C271 1.430 . S
C272 N276 1.351 . S
C273 C271 1.387 . S
C273 C274 1.374 . S
C273 H288 0.931 . S
C274 C268 1.439 . S
C274 C273 1.374 . S
C274 H289 0.931 . S
Eu275 N266 2.600 . S
Eu275 N276 2.562 . S
Eu275 O310 2.335 . S
Eu275 O313 2.372 . S
Eu275 O314 2.462 . S
Eu275 O315 2.373 . S
Eu275 O317 2.432 . S
Eu275 O318 2.291 . S
Eu275 C339 2.787 . S
N276 C272 1.351 . S
N276 Eu275 2.562 . S
N276 C278 1.325 . S
C277 C271 1.404 . S
C277 C279 1.366 . S
C277 H285 0.930 . S
C278 N276 1.325 . S
C278 C279 1.416 . S
C278 H284 0.929 . S
C279 C277 1.366 . S
C279 C278 1.416 . S
C279 H281 0.930 . S
H280 C269 0.930 . S
H281 C279 0.930 . S
H282 C297 0.930 . S
H283 C304 0.930 . S
H284 C278 0.929 . S
H285 C277 0.930 . S
H286 C300 0.929 . S
H287 C267 0.931 . S
H288 C273 0.931 . S
H289 C274 0.931 . S
H290 C295 0.931 . S
H291 C270 0.929 . S
H292 C303 0.930 . S
N293 Eu264 2.600 . S
N293 C294 1.365 . S
N293 C297 1.319 . S
C294 N293 1.365 . S
C294 C296 1.405 . S
C294 C302 1.448 . S
C295 H290 0.931 . S
C295 C297 1.397 . S
C295 C298 1.367 . S
C296 C294 1.405 . S
C296 C298 1.403 . S
C296 C329 1.439 . S
C297 H282 0.930 . S
C297 N293 1.319 . S
C297 C295 1.397 . S
C298 C295 1.367 . S
C298 C296 1.403 . S
C298 H305 0.929 . S
N299 Eu264 2.562 . S
N299 C300 1.325 . S
N299 C302 1.351 . S
C300 H286 0.929 . S
C300 N299 1.325 . S
C300 C304 1.416 . S
C301 C302 1.430 . S
C301 C303 1.404 . S
C301 C330 1.387 . S
C302 C294 1.448 . S
C302 N299 1.351 . S
C302 C301 1.430 . S
C303 H292 0.930 . S
C303 C301 1.404 . S
C303 C304 1.366 . S
C304 H283 0.930 . S
C304 C300 1.416 . S
C304 C303 1.366 . S
H305 C298 0.929 . S
H306 C329 0.931 . S
H307 C330 0.931 . S
O308 Eu264 2.462 . S
O308 C328 1.252 . S
O309 Eu264 2.373 . S
O309 C320 1.249 . S
O310 Eu275 2.335 . S
O310 C320 1.264 . S
O311 Eu264 2.432 . S
O311 C328 1.268 . S
O312 Eu264 2.291 . S
O312 C327 1.255 . S
O313 Eu275 2.372 . S
O313 C327 1.257 . S
O314 Eu275 2.462 . S
O314 C339 1.252 . S
O315 Eu275 2.373 . S
O315 C331 1.249 . S
O316 Eu264 2.335 . S
O316 C331 1.264 . S
O317 Eu275 2.432 . S
O317 C339 1.268 . S
O318 Eu275 2.291 . S
O318 C338 1.255 . S
O319 Eu264 2.372 . S
O319 C338 1.257 . S
C320 O309 1.249 . S
C320 O310 1.264 . S
C321 C324 1.382 . S
C321 C326 1.390 . S
C321 C328 1.506 . S
C322 C323 1.398 . S
C322 C326 1.392 . S
C323 C322 1.398 . S
C323 C325 1.372 . S
C323 H340 0.931 . S
C324 C321 1.382 . S
C324 C325 1.390 . S
C324 H341 0.931 . S
C325 C323 1.372 . S
C325 C324 1.390 . S
C325 H342 0.929 . S
C326 C321 1.390 . S
C326 C322 1.392 . S
C326 H343 0.930 . S
C327 O312 1.255 . S
C327 O313 1.257 . S
C328 Eu264 2.787 . S
C328 O308 1.252 . S
C328 O311 1.268 . S
C328 C321 1.506 . S
C329 C296 1.439 . S
C329 H306 0.931 . S
C329 C330 1.374 . S
C330 C301 1.387 . S
C330 H307 0.931 . S
C330 C329 1.374 . S
C331 O315 1.249 . S
C331 O316 1.264 . S
C332 C335 1.382 . S
C332 C336 1.390 . S
C332 C339 1.506 . S
C333 C334 1.398 . S
C333 C336 1.392 . S
C334 C333 1.398 . S
C334 C337 1.372 . S
C334 H344 0.931 . S
C335 C332 1.382 . S
C335 C337 1.390 . S
C335 H345 0.931 . S
C336 C332 1.390 . S
C336 C333 1.392 . S
C336 H346 0.930 . S
C337 C334 1.372 . S
C337 C335 1.390 . S
C337 H347 0.929 . S
C338 O318 1.255 . S
C338 O319 1.257 . S
C339 Eu275 2.787 . S
C339 O314 1.252 . S
C339 O317 1.268 . S
C339 C332 1.506 . S
H340 C323 0.931 . S
H341 C324 0.931 . S
H342 C325 0.929 . S
H343 C326 0.930 . S
H344 C334 0.931 . S
H345 C335 0.931 . S
H346 C336 0.930 . S
H347 C337 0.929 . S
Eu348 N377 2.600 . S
Eu348 N383 2.562 . S
Eu348 O392 2.462 . S
Eu348 O393 2.373 1_455 S
Eu348 O395 2.432 . S
Eu348 O396 2.291 . S
Eu348 O400 2.335 . S
Eu348 O403 2.372 . S
Eu348 C412 2.787 . S
C349 N350 1.358 1_455 S
C349 C352 1.405 . S
C349 C356 1.448 . S
N350 C349 1.358 1_655 S
N350 C353 1.321 . S
N350 Eu359 2.604 . S
C351 C353 1.397 1_455 S
C351 C354 1.367 . S
C351 H371 0.931 . S
C352 C349 1.405 . S
C352 C354 1.403 . S
C352 C358 1.439 . S
C353 N350 1.321 . S
C353 C351 1.397 1_655 S
C353 H364 0.930 . S
C354 C351 1.367 . S
C354 C352 1.403 . S
C354 H375 0.929 . S
C355 C356 1.430 . S
C355 C357 1.387 . S
C355 C361 1.404 . S
C356 C349 1.448 . S
C356 C355 1.430 . S
C356 N360 1.351 . S
C357 C355 1.387 . S
C357 C358 1.374 . S
C357 H372 0.931 . S
C358 C352 1.439 . S
C358 C357 1.374 . S
C358 H373 0.931 . S
Eu359 N350 2.604 . S
Eu359 N360 2.562 1_655 S
Eu359 O394 2.335 . S
Eu359 O397 2.372 . S
Eu359 O398 2.462 . S
Eu359 O399 2.373 1_655 S
Eu359 O401 2.432 . S
Eu359 O402 2.291 1_655 S
Eu359 C423 2.787 . S
N360 C356 1.351 . S
N360 Eu359 2.562 1_455 S
N360 C362 1.325 . S
C361 C355 1.404 . S
C361 C363 1.366 . S
C361 H369 0.930 . S
C362 N360 1.325 . S
C362 C363 1.416 . S
C362 H368 0.948 . S
C363 C361 1.366 . S
C363 C362 1.416 . S
C363 H365 0.930 . S
H364 C353 0.930 . S
H365 C363 0.930 . S
H366 C381 0.930 . S
H367 C388 0.930 . S
H368 C362 0.948 . S
H369 C361 0.930 . S
H370 C384 0.929 . S
H371 C351 0.931 . S
H372 C357 0.931 . S
H373 C358 0.931 . S
H374 C379 0.931 . S
H375 C354 0.929 . S
H376 C387 0.930 . S
N377 Eu348 2.600 . S
N377 C378 1.365 . S
N377 C381 1.319 . S
C378 N377 1.365 . S
C378 C380 1.405 1_455 S
C378 C386 1.448 . S
C379 H374 0.931 . S
C379 C381 1.397 . S
C379 C382 1.349 1_455 S
C380 C378 1.405 1_655 S
C380 C382 1.409 . S
C380 C413 1.439 . S
C381 H366 0.930 . S
C381 N377 1.319 . S
C381 C379 1.397 . S
C382 C379 1.349 1_655 S
C382 C380 1.409 . S
C382 H389 0.944 . S
N383 Eu348 2.562 . S
N383 C384 1.325 . S
N383 C386 1.351 . S
C384 H370 0.929 . S
C384 N383 1.325 . S
C384 C388 1.416 1_455 S
C385 C386 1.430 1_655 S
C385 C387 1.404 . S
C385 C414 1.387 . S
C386 C378 1.448 . S
C386 N383 1.351 . S
C386 C385 1.430 1_455 S
C387 H376 0.930 . S
C387 C385 1.404 . S
C387 C388 1.366 . S
C388 H367 0.930 . S
C388 C384 1.416 1_655 S
C388 C387 1.366 . S
H389 C382 0.944 . S
H390 C413 0.931 . S
H391 C414 0.931 . S
O392 Eu348 2.462 . S
O392 C412 1.252 . S
O393 Eu348 2.373 1_655 S
O393 C404 1.249 . S
O394 Eu359 2.335 . S
O394 C404 1.264 . S
O395 Eu348 2.432 . S
O395 C412 1.268 . S
O396 Eu348 2.291 . S
O396 C411 1.255 . S
O397 Eu359 2.372 . S
O397 C411 1.257 1_655 S
O398 Eu359 2.462 . S
O398 C423 1.252 . S
O399 Eu359 2.373 1_455 S
O399 C415 1.249 . S
O400 Eu348 2.335 . S
O400 C415 1.264 . S
O401 Eu359 2.432 . S
O401 C423 1.268 . S
O402 Eu359 2.291 1_455 S
O402 C422 1.255 . S
O403 Eu348 2.372 . S
O403 C422 1.257 . S
C404 O393 1.249 . S
C404 O394 1.264 . S
C405 C408 1.382 . S
C405 C410 1.390 . S
C405 C412 1.506 . S
C406 C407 1.398 . S
C406 C410 1.392 . S
C407 C406 1.398 . S
C407 C409 1.372 . S
C407 H424 0.931 . S
C408 C405 1.382 . S
C408 C409 1.390 . S
C408 H425 0.931 . S
C409 C407 1.372 . S
C409 C408 1.390 . S
C409 H426 0.929 . S
C410 C405 1.390 . S
C410 C406 1.392 . S
C410 H427 0.930 . S
C411 O396 1.255 . S
C411 O397 1.257 1_455 S
C412 Eu348 2.787 . S
C412 O392 1.252 . S
C412 O395 1.268 . S
C412 C405 1.506 . S
C413 C380 1.439 . S
C413 H390 0.931 . S
C413 C414 1.374 . S
C414 C385 1.387 . S
C414 H391 0.931 . S
C414 C413 1.374 . S
C415 O399 1.249 . S
C415 O400 1.264 . S
C416 C419 1.382 . S
C416 C420 1.390 . S
C416 C423 1.506 . S
C417 C418 1.398 . S
C417 C420 1.392 . S
C418 C417 1.398 . S
C418 C421 1.372 . S
C418 H428 0.931 . S
C419 C416 1.382 . S
C419 C421 1.390 . S
C419 H429 0.931 . S
C420 C416 1.390 . S
C420 C417 1.392 . S
C420 H430 0.930 . S
C421 C418 1.372 . S
C421 C419 1.390 . S
C421 H431 0.929 . S
C422 O402 1.255 . S
C422 O403 1.257 . S
C423 Eu359 2.787 . S
C423 O398 1.252 . S
C423 O401 1.268 . S
C423 C416 1.506 . S
H424 C407 0.931 . S
H425 C408 0.931 . S
H426 C409 0.929 . S
H427 C410 0.930 . S
H428 C418 0.931 . S
H429 C419 0.931 . S
H430 C420 0.930 . S
H431 C421 0.929 . S
H432 C450 0.951 . S
H433 C452 0.951 . S
H434 C454 0.950 . S
H435 C455 0.950 . S
H436 C457 0.950 . S
H437 C460 0.950 . S
H438 C461 0.950 1_545 S
H439 C463 0.950 . S
H440 C464 0.950 . S
H441 C465 0.951 . S
H442 C467 0.951 . S
H443 C469 0.950 1_565 S
H444 C470 0.950 1_565 S
H445 C472 0.992 . S
H446 C475 0.950 . S
H447 C476 0.950 . S
H448 C478 0.950 . S
H449 C479 0.950 . S
C450 H432 0.951 . S
C450 C451 1.366 . S
C450 C452 1.388 . S
C451 C450 1.366 . S
C451 C455 1.385 . S
C452 H433 0.951 . S
C452 C450 1.388 . S
C452 C453 1.366 . S
C453 C452 1.366 . S
C453 C454 1.414 . S
C453 C456 1.499 . S
C454 H434 0.950 . S
C454 C453 1.414 . S
C454 C455 1.374 . S
C455 H435 0.950 . S
C455 C451 1.385 . S
C455 C454 1.374 . S
C456 C453 1.499 . S
C456 C457 1.373 . S
C456 C458 1.389 . S
C457 H436 0.950 . S
C457 C456 1.373 . S
C457 C473 1.377 . S
C458 C456 1.389 . S
C458 C459 1.557 . S
C458 C472 1.377 . S
C459 C458 1.557 . S
C459 C460 1.418 . S
C459 C464 1.312 1_545 S
C460 H437 0.950 . S
C460 C459 1.418 . S
C460 C461 1.334 1_545 S
C461 H438 0.950 1_565 S
C461 C460 1.334 1_565 S
C461 C462 1.287 . S
C462 C461 1.287 . S
C462 C463 1.524 . S
C462 H481 0.913 . S
C463 H439 0.950 . S
C463 C462 1.524 . S
C463 C464 1.415 . S
C464 H440 0.950 . S
C464 C459 1.312 1_565 S
C464 C463 1.415 . S
C465 H441 0.951 . S
C465 C466 1.366 . S
C465 C467 1.388 . S
C466 C465 1.366 . S
C466 C470 1.385 . S
C467 H442 0.951 . S
C467 C465 1.388 . S
C467 C468 1.366 . S
C468 C467 1.366 . S
C468 C469 1.414 . S
C468 C471 1.499 . S
C469 H443 0.950 1_545 S
C469 C468 1.414 . S
C469 C470 1.374 . S
C470 H444 0.950 1_545 S
C470 C466 1.385 . S
C470 C469 1.374 . S
C471 C468 1.499 . S
C471 C472 1.373 . S
C471 C473 1.389 . S
C472 H445 0.992 . S
C472 C458 1.377 . S
C472 C471 1.373 . S
C473 C457 1.377 . S
C473 C471 1.389 . S
C473 C474 1.524 . S
C474 C473 1.524 . S
C474 C475 1.397 . S
C474 C479 1.363 . S
C475 H446 0.950 . S
C475 C474 1.397 . S
C475 C476 1.334 . S
C476 H447 0.950 . S
C476 C475 1.334 . S
C476 C477 1.287 . S
C477 C476 1.287 . S
C477 C478 1.524 . S
C477 H480 0.999 . S
C478 H448 0.950 . S
C478 C477 1.524 . S
C478 C479 1.415 . S
C479 H449 0.950 . S
C479 C474 1.363 . S
C479 C478 1.415 . S
H480 C477 0.999 . S
H481 C462 0.913 . S
H482 C500 0.951 . S
H483 C502 0.951 . S
H484 C504 0.950 . S
H485 C505 0.950 . S
H486 C507 0.950 . S
H487 C510 0.950 . S
H488 C511 0.950 . S
H489 C513 0.950 . S
H490 C514 0.950 . S
H491 C515 0.951 . S
H492 C517 0.951 . S
H493 C519 0.950 . S
H494 C520 0.950 . S
H495 C522 0.950 . S
H496 C525 0.950 . S
H497 C526 0.950 . S
H498 C528 0.950 . S
H499 C529 0.950 . S
C500 H482 0.951 . S
C500 C501 1.366 . S
C500 C502 1.388 . S
C501 C500 1.366 . S
C501 C505 1.385 . S
C502 H483 0.951 . S
C502 C500 1.388 . S
C502 C503 1.366 . S
C503 C502 1.366 . S
C503 C504 1.414 . S
C503 C506 1.499 . S
C504 H484 0.950 . S
C504 C503 1.414 . S
C504 C505 1.374 . S
C505 H485 0.950 . S
C505 C501 1.385 . S
C505 C504 1.374 . S
C506 C503 1.499 . S
C506 C507 1.373 . S
C506 C508 1.389 . S
C507 H486 0.950 . S
C507 C506 1.373 . S
C507 C523 1.377 . S
C508 C506 1.389 . S
C508 C509 1.524 . S
C508 C522 1.377 . S
C509 C508 1.524 . S
C509 C510 1.397 . S
C509 C514 1.363 . S
C510 H487 0.950 . S
C510 C509 1.397 . S
C510 C511 1.334 . S
C511 H488 0.950 . S
C511 C510 1.334 . S
C511 C512 1.287 . S
C512 C511 1.287 . S
C512 C513 1.524 . S
C512 H531 0.913 . S
C513 H489 0.950 . S
C513 C512 1.524 . S
C513 C514 1.415 . S
C514 H490 0.950 . S
C514 C509 1.363 . S
C514 C513 1.415 . S
C515 H491 0.951 . S
C515 C516 1.366 . S
C515 C517 1.388 . S
C516 C515 1.366 . S
C516 C520 1.385 . S
C517 H492 0.951 . S
C517 C515 1.388 . S
C517 C518 1.366 . S
C518 C517 1.366 . S
C518 C519 1.414 . S
C518 C521 1.499 . S
C519 H493 0.950 . S
C519 C518 1.414 . S
C519 C520 1.374 . S
C520 H494 0.950 . S
C520 C516 1.385 . S
C520 C519 1.374 . S
C521 C518 1.499 . S
C521 C522 1.373 . S
C521 C523 1.389 . S
C522 H495 0.950 . S
C522 C508 1.377 . S
C522 C521 1.373 . S
C523 C507 1.377 . S
C523 C521 1.389 . S
C523 C524 1.524 . S
C524 C523 1.524 . S
C524 C525 1.397 . S
C524 C529 1.363 . S
C525 H496 0.950 . S
C525 C524 1.397 . S
C525 C526 1.334 . S
C526 H497 0.950 . S
C526 C525 1.334 . S
C526 C527 1.287 . S
C527 C526 1.287 . S
C527 C528 1.524 . S
C527 H530 0.999 . S
C528 H498 0.950 . S
C528 C527 1.524 . S
C528 C529 1.415 . S
C529 H499 0.950 . S
C529 C524 1.363 . S
C529 C528 1.415 . S
H530 C527 0.999 . S
H531 C512 0.913 . S
H532 C550 0.951 . S
H533 C552 0.951 . S
H534 C554 0.950 . S
H535 C555 0.950 . S
H536 C557 0.950 . S
H537 C560 0.950 . S
H538 C561 0.950 . S
H539 C563 0.950 . S
H540 C564 0.950 . S
H541 C565 0.951 . S
H542 C567 0.951 . S
H543 C569 0.950 . S
H544 C570 0.950 . S
H545 C572 0.950 . S
H546 C575 0.950 . S
H547 C576 0.950 . S
H548 C578 0.950 . S
H549 C579 0.950 . S
C550 H532 0.951 . S
C550 C551 1.366 . S
C550 C552 1.388 . S
C551 C550 1.366 . S
C551 C555 1.385 . S
C552 H533 0.951 . S
C552 C550 1.388 . S
C552 C553 1.366 . S
C553 C552 1.366 . S
C553 C554 1.414 . S
C553 C556 1.499 . S
C554 H534 0.950 . S
C554 C553 1.414 . S
C554 C555 1.374 . S
C555 H535 0.950 . S
C555 C551 1.385 . S
C555 C554 1.374 . S
C556 C553 1.499 . S
C556 C557 1.373 . S
C556 C558 1.389 . S
C557 H536 0.950 . S
C557 C556 1.373 . S
C557 C573 1.377 . S
C558 C556 1.389 . S
C558 C559 1.524 . S
C558 C572 1.377 . S
C559 C558 1.524 . S
C559 C560 1.397 . S
C559 C564 1.363 . S
C560 H537 0.950 . S
C560 C559 1.397 . S
C560 C561 1.334 . S
C561 H538 0.950 . S
C561 C560 1.334 . S
C561 C562 1.287 . S
C562 C561 1.287 . S
C562 C563 1.524 . S
C562 H581 0.913 . S
C563 H539 0.950 . S
C563 C562 1.524 . S
C563 C564 1.415 . S
C564 H540 0.950 . S
C564 C559 1.363 . S
C564 C563 1.415 . S
C565 H541 0.951 . S
C565 C566 1.366 . S
C565 C567 1.388 . S
C566 C565 1.366 . S
C566 C570 1.385 . S
C567 H542 0.951 . S
C567 C565 1.388 . S
C567 C568 1.366 . S
C568 C567 1.366 . S
C568 C569 1.414 . S
C568 C571 1.499 . S
C569 H543 0.950 . S
C569 C568 1.414 . S
C569 C570 1.374 . S
C570 H544 0.950 . S
C570 C566 1.385 . S
C570 C569 1.374 . S
C571 C568 1.499 . S
C571 C572 1.373 . S
C571 C573 1.389 . S
C572 H545 0.950 . S
C572 C558 1.377 . S
C572 C571 1.373 . S
C573 C557 1.377 . S
C573 C571 1.389 . S
C573 C574 1.524 . S
C574 C573 1.524 . S
C574 C575 1.397 . S
C574 C579 1.363 . S
C575 H546 0.950 . S
C575 C574 1.397 . S
C575 C576 1.334 . S
C576 H547 0.950 . S
C576 C575 1.334 . S
C576 C577 1.287 . S
C577 C576 1.287 . S
C577 C578 1.524 . S
C577 H580 0.999 . S
C578 H548 0.950 . S
C578 C577 1.524 . S
C578 C579 1.415 . S
C579 H549 0.950 . S
C579 C574 1.363 . S
C579 C578 1.415 . S
H580 C577 0.999 . S
H581 C562 0.913 . S
H582 C600 0.951 . S
H583 C602 0.951 . S
H584 C604 0.950 . S
H585 C605 0.950 . S
H586 C607 0.950 . S
H587 C610 0.950 . S
H588 C611 0.950 . S
H589 C613 0.950 . S
H590 C614 0.950 . S
H591 C615 0.951 . S
H592 C617 0.951 . S
H593 C619 0.953 1_655 S
H594 C620 0.950 . S
H595 C622 0.950 . S
H596 C625 0.950 . S
H597 C626 0.950 . S
H598 C628 0.950 . S
H599 C629 0.950 . S
C600 H582 0.951 . S
C600 C601 1.366 . S
C600 C602 1.388 . S
C601 C600 1.366 . S
C601 C605 1.385 . S
C602 H583 0.951 . S
C602 C600 1.388 . S
C602 C603 1.366 . S
C603 C602 1.366 . S
C603 C604 1.414 . S
C603 C606 1.499 . S
C604 H584 0.950 . S
C604 C603 1.414 . S
C604 C605 1.374 . S
C605 H585 0.950 . S
C605 C601 1.385 . S
C605 C604 1.374 . S
C606 C603 1.499 . S
C606 C607 1.373 . S
C606 C608 1.389 . S
C607 H586 0.950 . S
C607 C606 1.373 . S
C607 C623 1.377 . S
C608 C606 1.389 . S
C608 C609 1.524 . S
C608 C622 1.377 . S
C609 C608 1.524 . S
C609 C610 1.397 . S
C609 C614 1.363 1_455 S
C610 H587 0.950 . S
C610 C609 1.397 . S
C610 C611 1.334 . S
C611 H588 0.950 . S
C611 C610 1.334 . S
C611 C612 1.258 1_455 S
C612 C611 1.258 1_655 S
C612 C613 1.546 . S
C612 H631 0.922 . S
C613 H589 0.950 . S
C613 C612 1.546 . S
C613 C614 1.415 . S
C614 H590 0.950 . S
C614 C609 1.363 1_655 S
C614 C613 1.415 . S
C615 H591 0.951 . S
C615 C616 1.366 . S
C615 C617 1.388 . S
C616 C615 1.366 . S
C616 C620 1.385 1_455 S
C617 H592 0.951 . S
C617 C615 1.388 . S
C617 C618 1.366 . S
C618 C617 1.366 . S
C618 C619 1.411 . S
C618 C621 1.499 . S
C619 H593 0.953 1_455 S
C619 C618 1.411 . S
C619 C620 1.374 1_455 S
C620 H594 0.950 . S
C620 C616 1.385 1_655 S
C620 C619 1.374 1_655 S
C621 C618 1.499 . S
C621 C622 1.373 . S
C621 C623 1.389 . S
C622 H595 0.950 . S
C622 C608 1.377 . S
C622 C621 1.373 . S
C623 C607 1.377 . S
C623 C621 1.389 . S
C623 C624 1.524 . S
C624 C623 1.524 . S
C624 C625 1.397 . S
C624 C629 1.363 . S
C625 H596 0.950 . S
C625 C624 1.397 . S
C625 C626 1.334 . S
C626 H597 0.950 . S
C626 C625 1.334 . S
C626 C627 1.287 . S
C627 C626 1.287 . S
C627 C628 1.524 . S
C627 H630 0.999 . S
C628 H598 0.950 . S
C628 C627 1.524 . S
C628 C629 1.415 . S
C629 H599 0.950 . S
C629 C624 1.363 . S
C629 C628 1.415 . S
H630 C627 0.999 . S
H631 C612 0.922 . S
H632 C650 0.951 . S
H633 C652 0.951 . S
H634 C654 0.950 . S
H635 C655 0.950 . S
H636 C657 0.950 . S
H637 C660 0.950 . S
H638 C661 0.950 . S
H639 C663 0.950 . S
H640 C664 0.950 . S
H641 C665 0.951 . S
H642 C667 0.951 . S
H643 C669 0.950 . S
H644 C670 0.950 . S
H645 C672 0.950 . S
H646 C675 0.950 . S
H647 C676 0.950 . S
H648 C678 0.950 . S
H649 C679 0.950 1_565 S
C650 H632 0.951 . S
C650 C651 1.366 . S
C650 C652 1.388 . S
C651 C650 1.366 . S
C651 C655 1.385 . S
C652 H633 0.951 . S
C652 C650 1.388 . S
C652 C653 1.366 . S
C653 C652 1.366 . S
C653 C654 1.414 . S
C653 C656 1.499 . S
C654 H634 0.950 . S
C654 C653 1.414 . S
C654 C655 1.374 . S
C655 H635 0.950 . S
C655 C651 1.385 . S
C655 C654 1.374 . S
C656 C653 1.499 . S
C656 C657 1.373 . S
C656 C658 1.389 1_554 S
C657 H636 0.950 . S
C657 C656 1.373 . S
C657 C673 1.377 1_554 S
C658 C656 1.389 1_556 S
C658 C659 1.524 . S
C658 C672 1.377 . S
C659 C658 1.524 . S
C659 C660 1.397 . S
C659 C664 1.363 . S
C660 H637 0.950 . S
C660 C659 1.397 . S
C660 C661 1.334 . S
C661 H638 0.950 . S
C661 C660 1.334 . S
C661 C662 1.287 . S
C662 C661 1.287 . S
C662 C663 1.524 . S
C662 H681 0.913 . S
C663 H639 0.950 . S
C663 C662 1.524 . S
C663 C664 1.415 . S
C664 H640 0.950 . S
C664 C659 1.363 . S
C664 C663 1.415 . S
C665 H641 0.951 . S
C665 C666 1.357 1_565 S
C665 C667 1.388 . S
C666 C665 1.357 1_545 S
C666 C670 1.391 . S
C667 H642 0.951 . S
C667 C665 1.388 . S
C667 C668 1.366 . S
C668 C667 1.366 . S
C668 C669 1.414 1_565 S
C668 C671 1.499 . S
C669 H643 0.950 . S
C669 C668 1.414 1_545 S
C669 C670 1.374 . S
C670 H644 0.950 . S
C670 C666 1.391 . S
C670 C669 1.374 . S
C671 C668 1.499 . S
C671 C672 1.373 . S
C671 C673 1.389 . S
C672 H645 0.950 . S
C672 C658 1.377 . S
C672 C671 1.373 . S
C673 C657 1.377 1_556 S
C673 C671 1.389 . S
C673 C674 1.524 1_565 S
C674 C673 1.524 1_545 S
C674 C675 1.397 . S
C674 C679 1.363 1_556 S
C675 H646 0.950 . S
C675 C674 1.397 . S
C675 C676 1.334 . S
C676 H647 0.950 . S
C676 C675 1.334 . S
C676 C677 1.287 1_556 S
C677 C676 1.287 1_554 S
C677 C678 1.524 . S
C677 H680 0.999 . S
C678 H648 0.950 . S
C678 C677 1.524 . S
C678 C679 1.415 . S
C679 H649 0.950 1_545 S
C679 C674 1.363 1_554 S
C679 C678 1.415 . S
H680 C677 0.999 . S
H681 C662 0.913 . S
H682 C700 0.951 . S
H683 C702 0.951 . S
H684 C704 0.950 . S
H685 C705 0.950 . S
H686 C707 0.950 . S
H687 C710 0.950 . S
H688 C711 0.950 . S
H689 C713 0.950 . S
H690 C714 0.950 . S
H691 C715 0.951 . S
H692 C717 0.951 . S
H693 C719 0.950 . S
H694 C720 0.950 . S
H695 C722 0.950 . S
H696 C725 0.950 . S
H697 C726 0.950 . S
H698 C728 0.950 . S
H699 C729 0.950 . S
C700 H682 0.951 . S
C700 C701 1.366 . S
C700 C702 1.388 . S
C701 C700 1.366 . S
C701 C705 1.385 . S
C702 H683 0.951 . S
C702 C700 1.388 . S
C702 C703 1.366 . S
C703 C702 1.366 . S
C703 C704 1.414 . S
C703 C706 1.499 . S
C704 H684 0.950 . S
C704 C703 1.414 . S
C704 C705 1.374 . S
C705 H685 0.950 . S
C705 C701 1.385 . S
C705 C704 1.374 . S
C706 C703 1.499 . S
C706 C707 1.373 1_554 S
C706 C708 1.389 1_554 S
C707 H686 0.950 . S
C707 C706 1.373 1_556 S
C707 C723 1.377 . S
C708 C706 1.389 1_556 S
C708 C709 1.524 . S
C708 C722 1.377 . S
C709 C708 1.524 . S
C709 C710 1.397 . S
C709 C714 1.363 1_556 S
C710 H687 0.950 . S
C710 C709 1.397 . S
C710 C711 1.334 . S
C711 H688 0.950 . S
C711 C710 1.334 . S
C711 C712 1.285 1_556 S
C712 C711 1.285 1_554 S
C712 C713 1.526 . S
C712 H731 0.915 . S
C713 H689 0.950 . S
C713 C712 1.526 . S
C713 C714 1.415 . S
C714 H690 0.950 . S
C714 C709 1.363 1_554 S
C714 C713 1.415 . S
C715 H691 0.951 . S
C715 C716 1.366 . S
C715 C717 1.388 . S
C716 C715 1.366 . S
C716 C720 1.385 . S
C717 H692 0.951 . S
C717 C715 1.388 . S
C717 C718 1.366 . S
C718 C717 1.366 . S
C718 C719 1.414 . S
C718 C721 1.499 . S
C719 H693 0.950 . S
C719 C718 1.414 . S
C719 C720 1.374 . S
C720 H694 0.950 . S
C720 C716 1.385 . S
C720 C719 1.374 . S
C721 C718 1.499 . S
C721 C722 1.373 . S
C721 C723 1.389 . S
C722 H695 0.950 . S
C722 C708 1.377 . S
C722 C721 1.373 . S
C723 C707 1.377 . S
C723 C721 1.389 . S
C723 C724 1.524 . S
C724 C723 1.524 . S
C724 C725 1.397 . S
C724 C729 1.363 . S
C725 H696 0.950 . S
C725 C724 1.397 . S
C725 C726 1.334 . S
C726 H697 0.950 . S
C726 C725 1.334 . S
C726 C727 1.287 . S
C727 C726 1.287 . S
C727 C728 1.524 . S
C727 H730 0.999 . S
C728 H698 0.950 . S
C728 C727 1.524 . S
C728 C729 1.415 . S
C729 H699 0.950 . S
C729 C724 1.363 . S
C729 C728 1.415 . S
H730 C727 0.999 . S
H731 C712 0.915 . S
H732 C750 0.951 . S
H733 C752 0.951 . S
H734 C754 0.950 . S
H735 C755 0.950 . S
H736 C757 0.950 . S
H737 C760 0.950 . S
H738 C761 0.950 . S
H739 C763 0.950 . S
H740 C764 0.950 . S
H741 C765 0.951 . S
H742 C767 0.951 . S
H743 C769 0.950 . S
H744 C770 0.950 . S
H745 C772 0.950 . S
H746 C775 0.950 . S
H747 C776 0.948 1_556 S
H748 C778 0.950 . S
H749 C779 0.950 . S
C750 H732 0.951 . S
C750 C751 1.366 . S
C750 C752 1.388 . S
C751 C750 1.366 . S
C751 C755 1.385 . S
C752 H733 0.951 . S
C752 C750 1.388 . S
C752 C753 1.366 . S
C753 C752 1.366 . S
C753 C754 1.414 . S
C753 C756 1.499 . S
C754 H734 0.950 . S
C754 C753 1.414 . S
C754 C755 1.374 . S
C755 H735 0.950 . S
C755 C751 1.385 . S
C755 C754 1.374 . S
C756 C753 1.499 . S
C756 C757 1.373 . S
C756 C758 1.389 1_554 S
C757 H736 0.950 . S
C757 C756 1.373 . S
C757 C773 1.377 1_554 S
C758 C756 1.389 1_556 S
C758 C759 1.524 . S
C758 C772 1.377 . S
C759 C758 1.524 . S
C759 C760 1.397 . S
C759 C764 1.363 . S
C760 H737 0.950 . S
C760 C759 1.397 . S
C760 C761 1.334 . S
C761 H738 0.950 . S
C761 C760 1.334 . S
C761 C762 1.287 . S
C762 C761 1.287 . S
C762 C763 1.524 . S
C762 H781 0.913 . S
C763 H739 0.950 . S
C763 C762 1.524 . S
C763 C764 1.415 . S
C764 H740 0.950 . S
C764 C759 1.363 . S
C764 C763 1.415 . S
C765 H741 0.951 . S
C765 C766 1.366 . S
C765 C767 1.388 . S
C766 C765 1.366 . S
C766 C770 1.385 . S
C767 H742 0.951 . S
C767 C765 1.388 . S
C767 C768 1.366 . S
C768 C767 1.366 . S
C768 C769 1.414 . S
C768 C771 1.499 . S
C769 H743 0.950 . S
C769 C768 1.414 . S
C769 C770 1.374 . S
C770 H744 0.950 . S
C770 C766 1.385 . S
C770 C769 1.374 . S
C771 C768 1.499 . S
C771 C772 1.373 . S
C771 C773 1.389 . S
C772 H745 0.950 . S
C772 C758 1.377 . S
C772 C771 1.373 . S
C773 C757 1.377 1_556 S
C773 C771 1.389 . S
C773 C774 1.520 1_556 S
C774 C773 1.520 1_554 S
C774 C775 1.395 1_554 S
C774 C779 1.370 . S
C775 H746 0.950 . S
C775 C774 1.395 1_556 S
C775 C776 1.334 1_556 S
C776 H747 0.948 1_554 S
C776 C775 1.334 1_554 S
C776 C777 1.287 . S
C777 C776 1.287 . S
C777 C778 1.524 . S
C777 H780 0.999 . S
C778 H748 0.950 . S
C778 C777 1.524 . S
C778 C779 1.415 . S
C779 H749 0.950 . S
C779 C774 1.370 . S
C779 C778 1.415 . S
H780 C777 0.999 . S
H781 C762 0.913 . S
H782 C800 0.951 . S
H783 C802 0.951 . S
H784 C804 0.950 1_556 S
H785 C805 0.950 . S
H786 C807 0.950 . S
H787 C810 0.950 . S
H788 C811 0.950 . S
H789 C813 0.950 . S
H790 C814 0.950 . S
H791 C815 0.951 . S
H792 C817 0.951 . S
H793 C819 0.950 . S
H794 C820 0.950 1_455 S
H795 C822 0.950 . S
H796 C825 0.950 . S
H797 C826 0.950 . S
H798 C828 0.950 . S
H799 C829 0.950 . S
C800 H782 0.951 . S
C800 C801 1.366 . S
C800 C802 1.388 . S
C801 C800 1.366 . S
C801 C805 1.385 . S
C802 H783 0.951 . S
C802 C800 1.388 . S
C802 C803 1.366 . S
C803 C802 1.366 . S
C803 C804 1.414 . S
C803 C806 1.500 1_554 S
C804 H784 0.950 1_554 S
C804 C803 1.414 . S
C804 C805 1.374 . S
C805 H785 0.950 . S
C805 C801 1.385 . S
C805 C804 1.374 . S
C806 C803 1.500 1_556 S
C806 C807 1.372 . S
C806 C808 1.349 1_656 S
C807 H786 0.950 . S
C807 C806 1.372 . S
C807 C823 1.377 . S
C808 C806 1.349 1_454 S
C808 C809 1.565 . S
C808 C822 1.382 1_554 S
C809 C808 1.565 . S
C809 C810 1.397 . S
C809 C814 1.363 . S
C810 H787 0.950 . S
C810 C809 1.397 . S
C810 C811 1.334 . S
C811 H788 0.950 . S
C811 C810 1.334 . S
C811 C812 1.287 . S
C812 C811 1.287 . S
C812 C813 1.524 . S
C812 H831 0.913 . S
C813 H789 0.950 . S
C813 C812 1.524 . S
C813 C814 1.415 . S
C814 H790 0.950 . S
C814 C809 1.363 . S
C814 C813 1.415 . S
C815 H791 0.951 . S
C815 C816 1.366 . S
C815 C817 1.388 . S
C816 C815 1.366 . S
C816 C820 1.385 . S
C817 H792 0.951 . S
C817 C815 1.388 . S
C817 C818 1.366 . S
C818 C817 1.366 . S
C818 C819 1.414 . S
C818 C821 1.499 . S
C819 H793 0.950 . S
C819 C818 1.414 . S
C819 C820 1.374 . S
C820 H794 0.950 1_655 S
C820 C816 1.385 . S
C820 C819 1.374 . S
C821 C818 1.499 . S
C821 C822 1.373 1_655 S
C821 C823 1.389 . S
C822 H795 0.950 . S
C822 C808 1.382 1_556 S
C822 C821 1.373 1_455 S
C823 C807 1.377 . S
C823 C821 1.389 . S
C823 C824 1.524 . S
C824 C823 1.524 . S
C824 C825 1.397 . S
C824 C829 1.363 . S
C825 H796 0.950 . S
C825 C824 1.397 . S
C825 C826 1.334 . S
C826 H797 0.950 . S
C826 C825 1.334 . S
C826 C827 1.287 . S
C827 C826 1.287 . S
C827 C828 1.524 . S
C827 H830 0.999 . S
C828 H798 0.950 . S
C828 C827 1.524 . S
C828 C829 1.415 . S
C829 H799 0.950 . S
C829 C824 1.363 . S
C829 C828 1.415 . S
H830 C827 0.999 . S
H831 C812 0.913 . S
H832 C850 0.951 . S
H833 C852 0.951 . S
H834 C854 0.950 . S
H835 C855 0.950 . S
H836 C857 0.950 . S
H837 C860 0.950 . S
H838 C861 0.950 . S
H839 C863 0.950 . S
H840 C864 0.950 . S
H841 C865 0.951 . S
H842 C867 0.951 . S
H843 C869 0.950 . S
H844 C870 0.950 . S
H845 C872 0.950 . S
H846 C875 0.950 . S
H847 C876 0.950 . S
H848 C878 0.950 . S
H849 C879 0.950 . S
C850 H832 0.951 . S
C850 C851 1.366 . S
C850 C852 1.388 . S
C851 C850 1.366 . S
C851 C855 1.385 . S
C852 H833 0.951 . S
C852 C850 1.388 . S
C852 C853 1.366 . S
C853 C852 1.366 . S
C853 C854 1.414 . S
C853 C856 1.499 . S
C854 H834 0.950 . S
C854 C853 1.414 . S
C854 C855 1.374 . S
C855 H835 0.950 . S
C855 C851 1.385 . S
C855 C854 1.374 . S
C856 C853 1.499 . S
C856 C857 1.373 . S
C856 C858 1.389 . S
C857 H836 0.950 . S
C857 C856 1.373 . S
C857 C873 1.377 . S
C858 C856 1.389 . S
C858 C859 1.524 . S
C858 C872 1.377 . S
C859 C858 1.524 . S
C859 C860 1.397 . S
C859 C864 1.363 1_455 S
C860 H837 0.950 . S
C860 C859 1.397 . S
C860 C861 1.334 . S
C861 H838 0.950 . S
C861 C860 1.334 . S
C861 C862 1.287 . S
C862 C861 1.287 . S
C862 C863 1.524 1_455 S
C862 H881 0.913 . S
C863 H839 0.950 . S
C863 C862 1.524 1_655 S
C863 C864 1.415 . S
C864 H840 0.950 . S
C864 C859 1.363 1_655 S
C864 C863 1.415 . S
C865 H841 0.951 . S
C865 C866 1.366 . S
C865 C867 1.388 . S
C866 C865 1.366 . S
C866 C870 1.385 1_455 S
C867 H842 0.951 . S
C867 C865 1.388 . S
C867 C868 1.366 . S
C868 C867 1.366 . S
C868 C869 1.414 1_455 S
C868 C871 1.499 . S
C869 H843 0.950 . S
C869 C868 1.414 1_655 S
C869 C870 1.374 . S
C870 H844 0.950 . S
C870 C866 1.385 1_655 S
C870 C869 1.374 . S
C871 C868 1.499 . S
C871 C872 1.373 . S
C871 C873 1.389 . S
C872 H845 0.950 . S
C872 C858 1.377 . S
C872 C871 1.373 . S
C873 C857 1.377 . S
C873 C871 1.389 . S
C873 C874 1.524 . S
C874 C873 1.524 . S
C874 C875 1.397 . S
C874 C879 1.363 . S
C875 H846 0.950 . S
C875 C874 1.397 . S
C875 C876 1.334 . S
C876 H847 0.950 . S
C876 C875 1.334 . S
C876 C877 1.287 . S
C877 C876 1.287 . S
C877 C878 1.524 . S
C877 H880 0.999 . S
C878 H848 0.950 . S
C878 C877 1.524 . S
C878 C879 1.415 . S
C879 H849 0.950 . S
C879 C874 1.363 . S
C879 C878 1.415 . S
H880 C877 0.999 . S
H881 C862 0.913 . S
H882 C900 0.951 . S
H883 C902 0.951 . S
H884 C904 0.950 . S
H885 C905 0.950 . S
H886 C907 0.950 . S
H887 C910 0.950 . S
H888 C911 0.950 . S
H889 C913 0.950 . S
H890 C914 0.950 . S
H891 C915 0.951 . S
H892 C917 0.951 . S
H893 C919 0.950 . S
H894 C920 0.950 . S
H895 C922 0.950 1_565 S
H896 C925 0.950 . S
H897 C926 0.950 . S
H898 C928 0.950 . S
H899 C929 0.950 . S
C900 H882 0.951 . S
C900 C901 1.366 . S
C900 C902 1.388 . S
C901 C900 1.366 . S
C901 C905 1.385 . S
C902 H883 0.951 . S
C902 C900 1.388 . S
C902 C903 1.366 . S
C903 C902 1.366 . S
C903 C904 1.414 . S
C903 C906 1.499 . S
C904 H884 0.950 . S
C904 C903 1.414 . S
C904 C905 1.374 . S
C905 H885 0.950 . S
C905 C901 1.385 . S
C905 C904 1.374 . S
C906 C903 1.499 . S
C906 C907 1.373 . S
C906 C908 1.389 . S
C907 H886 0.950 . S
C907 C906 1.373 . S
C907 C923 1.377 . S
C908 C906 1.389 . S
C908 C909 1.524 1_545 S
C908 C922 1.377 . S
C909 C908 1.524 1_565 S
C909 C910 1.397 . S
C909 C914 1.363 . S
C910 H887 0.950 . S
C910 C909 1.397 . S
C910 C911 1.334 . S
C911 H888 0.950 . S
C911 C910 1.334 . S
C911 C912 1.287 . S
C912 C911 1.287 . S
C912 C913 1.524 . S
C912 H931 0.913 . S
C913 H889 0.950 . S
C913 C912 1.524 . S
C913 C914 1.415 . S
C914 H890 0.950 . S
C914 C909 1.363 . S
C914 C913 1.415 . S
C915 H891 0.951 . S
C915 C916 1.366 . S
C915 C917 1.388 . S
C916 C915 1.366 . S
C916 C920 1.385 . S
C917 H892 0.951 . S
C917 C915 1.388 . S
C917 C918 1.366 . S
C918 C917 1.366 . S
C918 C919 1.414 . S
C918 C921 1.499 . S
C919 H893 0.950 . S
C919 C918 1.414 . S
C919 C920 1.374 . S
C920 H894 0.950 . S
C920 C916 1.385 . S
C920 C919 1.374 . S
C921 C918 1.499 . S
C921 C922 1.373 . S
C921 C923 1.389 . S
C922 H895 0.950 1_545 S
C922 C908 1.377 . S
C922 C921 1.373 . S
C923 C907 1.377 . S
C923 C921 1.389 . S
C923 C924 1.524 . S
C924 C923 1.524 . S
C924 C925 1.397 . S
C924 C929 1.363 . S
C925 H896 0.950 . S
C925 C924 1.397 . S
C925 C926 1.334 . S
C926 H897 0.950 . S
C926 C925 1.334 . S
C926 C927 1.287 . S
C927 C926 1.287 . S
C927 C928 1.524 . S
C927 H930 0.999 . S
C928 H898 0.950 . S
C928 C927 1.524 . S
C928 C929 1.415 . S
C929 H899 0.950 . S
C929 C924 1.363 . S
C929 C928 1.415 . S
H930 C927 0.999 . S
H931 C912 0.913 . S
H932 C950 0.951 . S
H933 C952 0.951 . S
H934 C954 0.950 . S
H935 C955 0.950 . S
H936 C957 0.950 . S
H937 C960 0.950 . S
H938 C961 0.950 . S
H939 C963 0.950 . S
H940 C964 0.950 . S
H941 C965 0.951 . S
H942 C967 0.951 . S
H943 C969 0.950 . S
H944 C970 0.950 . S
H945 C972 0.950 . S
H946 C975 0.950 . S
H947 C976 0.950 . S
H948 C978 0.950 . S
H949 C979 0.950 . S
C950 H932 0.951 . S
C950 C951 1.366 . S
C950 C952 1.388 . S
C951 C950 1.366 . S
C951 C955 1.385 . S
C952 H933 0.951 . S
C952 C950 1.388 . S
C952 C953 1.366 . S
C953 C952 1.366 . S
C953 C954 1.414 . S
C953 C956 1.499 . S
C954 H934 0.950 . S
C954 C953 1.414 . S
C954 C955 1.374 . S
C955 H935 0.950 . S
C955 C951 1.385 . S
C955 C954 1.374 . S
C956 C953 1.499 . S
C956 C957 1.373 . S
C956 C958 1.389 . S
C957 H936 0.950 . S
C957 C956 1.373 . S
C957 C973 1.377 . S
C958 C956 1.389 . S
C958 C959 1.524 . S
C958 C972 1.377 . S
C959 C958 1.524 . S
C959 C960 1.397 . S
C959 C964 1.363 . S
C960 H937 0.950 . S
C960 C959 1.397 . S
C960 C961 1.334 . S
C961 H938 0.950 . S
C961 C960 1.334 . S
C961 C962 1.287 . S
C962 C961 1.287 . S
C962 C963 1.524 . S
C962 H981 0.913 . S
C963 H939 0.950 . S
C963 C962 1.524 . S
C963 C964 1.415 . S
C964 H940 0.950 . S
C964 C959 1.363 . S
C964 C963 1.415 . S
C965 H941 0.951 . S
C965 C966 1.366 . S
C965 C967 1.388 . S
C966 C965 1.366 . S
C966 C970 1.385 . S
C967 H942 0.951 . S
C967 C965 1.388 . S
C967 C968 1.366 . S
C968 C967 1.366 . S
C968 C969 1.414 . S
C968 C971 1.499 . S
C969 H943 0.950 . S
C969 C968 1.414 . S
C969 C970 1.374 . S
C970 H944 0.950 . S
C970 C966 1.385 . S
C970 C969 1.374 . S
C971 C968 1.499 . S
C971 C972 1.373 . S
C971 C973 1.389 . S
C972 H945 0.950 . S
C972 C958 1.377 . S
C972 C971 1.373 . S
C973 C957 1.377 . S
C973 C971 1.389 . S
C973 C974 1.524 . S
C974 C973 1.524 . S
C974 C975 1.397 . S
C974 C979 1.363 . S
C975 H946 0.950 . S
C975 C974 1.397 . S
C975 C976 1.334 . S
C976 H947 0.950 . S
C976 C975 1.334 . S
C976 C977 1.287 . S
C977 C976 1.287 . S
C977 C978 1.524 . S
C977 H980 0.999 . S
C978 H948 0.950 . S
C978 C977 1.524 . S
C978 C979 1.415 . S
C979 H949 0.950 . S
C979 C974 1.363 . S
C979 C978 1.415 . S
H980 C977 0.999 . S
H981 C962 0.913 . S
H982 C1000 0.951 . S
H983 C1002 0.951 . S
H984 C1004 0.950 . S
H985 C1005 0.950 . S
H986 C1007 0.950 . S
H987 C1010 0.950 . S
H988 C1011 0.950 . S
H989 C1013 0.950 . S
H990 C1014 0.950 . S
H991 C1015 0.951 . S
H992 C1017 0.951 . S
H993 C1019 0.950 . S
H994 C1020 0.950 . S
H995 C1022 0.950 . S
H996 C1025 0.950 . S
H997 C1026 0.950 . S
H998 C1028 0.950 . S
H999 C1029 0.950 . S
C1000 H982 0.951 . S
C1000 C1001 1.366 . S
C1000 C1002 1.388 . S
C1001 C1000 1.366 . S
C1001 C1005 1.385 . S
C1002 H983 0.951 . S
C1002 C1000 1.388 . S
C1002 C1003 1.366 . S
C1003 C1002 1.366 . S
C1003 C1004 1.414 . S
C1003 C1006 1.499 . S
C1004 H984 0.950 . S
C1004 C1003 1.414 . S
C1004 C1005 1.374 . S
C1005 H985 0.950 . S
C1005 C1001 1.385 . S
C1005 C1004 1.374 . S
C1006 C1003 1.499 . S
C1006 C1007 1.373 . S
C1006 C1008 1.389 . S
C1007 H986 0.950 . S
C1007 C1006 1.373 . S
C1007 C1023 1.377 . S
C1008 C1006 1.389 . S
C1008 C1009 1.524 . S
C1008 C1022 1.377 . S
C1009 C1008 1.524 . S
C1009 C1010 1.397 . S
C1009 C1014 1.363 . S
C1010 H987 0.950 . S
C1010 C1009 1.397 . S
C1010 C1011 1.334 . S
C1011 H988 0.950 . S
C1011 C1010 1.334 . S
C1011 C1012 1.287 . S
C1012 C1011 1.287 . S
C1012 C1013 1.524 . S
C1012 H1031 0.913 . S
C1013 H989 0.950 . S
C1013 C1012 1.524 . S
C1013 C1014 1.415 . S
C1014 H990 0.950 . S
C1014 C1009 1.363 . S
C1014 C1013 1.415 . S
C1015 H991 0.951 . S
C1015 C1016 1.366 . S
C1015 C1017 1.388 . S
C1016 C1015 1.366 . S
C1016 C1020 1.385 . S
C1017 H992 0.951 . S
C1017 C1015 1.388 . S
C1017 C1018 1.366 . S
C1018 C1017 1.366 . S
C1018 C1019 1.414 . S
C1018 C1021 1.499 . S
C1019 H993 0.950 . S
C1019 C1018 1.414 . S
C1019 C1020 1.374 . S
C1020 H994 0.950 . S
C1020 C1016 1.385 . S
C1020 C1019 1.374 . S
C1021 C1018 1.499 . S
C1021 C1022 1.373 . S
C1021 C1023 1.389 . S
C1022 H995 0.950 . S
C1022 C1008 1.377 . S
C1022 C1021 1.373 . S
C1023 C1007 1.377 . S
C1023 C1021 1.389 . S
C1023 C1024 1.524 . S
C1024 C1023 1.524 . S
C1024 C1025 1.397 . S
C1024 C1029 1.363 . S
C1025 H996 0.950 . S
C1025 C1024 1.397 . S
C1025 C1026 1.334 . S
C1026 H997 0.950 . S
C1026 C1025 1.334 . S
C1026 C1027 1.287 . S
C1027 C1026 1.287 . S
C1027 C1028 1.524 . S
C1027 H1030 0.999 . S
C1028 H998 0.950 . S
C1028 C1027 1.524 . S
C1028 C1029 1.415 . S
C1029 H999 0.950 . S
C1029 C1024 1.363 . S
C1029 C1028 1.415 . S
H1030 C1027 0.999 . S
H1031 C1012 0.913 . S
H1032 C1050 0.951 . S
H1033 C1052 0.951 . S
H1034 C1054 0.950 1_455 S
H1035 C1055 0.984 . S
H1036 C1057 0.950 . S
H1037 C1060 0.950 1_455 S
H1038 C1061 0.927 1_455 S
H1039 C1063 0.950 . S
H1040 C1064 0.950 . S
H1041 C1065 0.951 . S
H1042 C1067 0.951 . S
H1043 C1069 0.950 . S
H1044 C1070 0.950 . S
H1045 C1072 0.950 . S
H1046 C1075 0.950 . S
H1047 C1076 0.950 . S
H1048 C1078 0.950 . S
H1049 C1079 0.950 . S
C1050 H1032 0.951 . S
C1050 C1051 1.366 . S
C1050 C1052 1.388 . S
C1051 C1050 1.366 . S
C1051 C1055 1.385 . S
C1052 H1033 0.951 . S
C1052 C1050 1.388 . S
C1052 C1053 1.366 . S
C1053 C1052 1.366 . S
C1053 C1054 1.414 . S
C1053 C1056 1.499 . S
C1054 H1034 0.950 1_655 S
C1054 C1053 1.414 . S
C1054 C1055 1.374 . S
C1055 H1035 0.984 . S
C1055 C1051 1.385 . S
C1055 C1054 1.374 . S
C1056 C1053 1.499 . S
C1056 C1057 1.373 . S
C1056 C1058 1.389 1_554 S
C1057 H1036 0.950 . S
C1057 C1056 1.373 . S
C1057 C1073 1.377 . S
C1058 C1056 1.389 1_556 S
C1058 C1059 1.524 . S
C1058 C1072 1.377 . S
C1059 C1058 1.524 . S
C1059 C1060 1.397 . S
C1059 C1064 1.363 . S
C1060 H1037 0.950 1_655 S
C1060 C1059 1.397 . S
C1060 C1061 1.334 . S
C1061 H1038 0.927 1_655 S
C1061 C1060 1.334 . S
C1061 C1062 1.287 . S
C1062 C1061 1.287 . S
C1062 C1063 1.524 . S
C1062 H1081 0.913 . S
C1063 H1039 0.950 . S
C1063 C1062 1.524 . S
C1063 C1064 1.415 . S
C1064 H1040 0.950 . S
C1064 C1059 1.363 . S
C1064 C1063 1.415 . S
C1065 H1041 0.951 . S
C1065 C1066 1.366 . S
C1065 C1067 1.388 . S
C1066 C1065 1.366 . S
C1066 C1070 1.385 1_455 S
C1067 H1042 0.951 . S
C1067 C1065 1.388 . S
C1067 C1068 1.366 1_455 S
C1068 C1067 1.366 1_655 S
C1068 C1069 1.414 . S
C1068 C1071 1.499 . S
C1069 H1043 0.950 . S
C1069 C1068 1.414 . S
C1069 C1070 1.374 . S
C1070 H1044 0.950 . S
C1070 C1066 1.385 1_655 S
C1070 C1069 1.374 . S
C1071 C1068 1.499 . S
C1071 C1072 1.373 . S
C1071 C1073 1.389 1_556 S
C1072 H1045 0.950 . S
C1072 C1058 1.377 . S
C1072 C1071 1.373 . S
C1073 C1057 1.377 . S
C1073 C1071 1.389 1_554 S
C1073 C1074 1.524 . S
C1074 C1073 1.524 . S
C1074 C1075 1.397 . S
C1074 C1079 1.363 1_655 S
C1075 H1046 0.950 . S
C1075 C1074 1.397 . S
C1075 C1076 1.334 . S
C1076 H1047 0.950 . S
C1076 C1075 1.334 . S
C1076 C1077 1.287 . S
C1077 C1076 1.287 . S
C1077 C1078 1.524 1_655 S
C1077 H1080 0.993 1_655 S
C1078 H1048 0.950 . S
C1078 C1077 1.524 1_455 S
C1078 C1079 1.415 . S
C1079 H1049 0.950 . S
C1079 C1074 1.363 1_455 S
C1079 C1078 1.415 . S
H1080 C1077 0.993 1_455 S
H1081 C1062 0.913 . S
H1082 C1100 0.951 . S
H1083 C1102 0.951 . S
H1084 C1104 0.950 . S
H1085 C1105 0.950 . S
H1086 C1107 0.950 . S
H1087 C1110 0.950 . S
H1088 C1111 0.950 . S
H1089 C1113 0.950 . S
H1090 C1114 0.950 . S
H1091 C1115 0.951 . S
H1092 C1117 0.956 . S
H1093 C1119 0.951 1_554 S
H1094 C1120 0.950 . S
H1095 C1122 0.950 . S
H1096 C1125 0.950 . S
H1097 C1126 0.950 . S
H1098 C1128 0.950 . S
H1099 C1129 0.950 . S
C1100 H1082 0.951 . S
C1100 C1101 1.366 . S
C1100 C1102 1.388 . S
C1101 C1100 1.366 . S
C1101 C1105 1.385 . S
C1102 H1083 0.951 . S
C1102 C1100 1.388 . S
C1102 C1103 1.366 . S
C1103 C1102 1.366 . S
C1103 C1104 1.414 . S
C1103 C1106 1.499 . S
C1104 H1084 0.950 . S
C1104 C1103 1.414 . S
C1104 C1105 1.374 . S
C1105 H1085 0.950 . S
C1105 C1101 1.385 . S
C1105 C1104 1.374 . S
C1106 C1103 1.499 . S
C1106 C1107 1.373 1_565 S
C1106 C1108 1.389 . S
C1107 H1086 0.950 . S
C1107 C1106 1.373 1_545 S
C1107 C1123 1.377 1_554 S
C1108 C1106 1.389 . S
C1108 C1109 1.524 . S
C1108 C1122 1.377 . S
C1109 C1108 1.524 . S
C1109 C1110 1.397 . S
C1109 C1114 1.363 . S
C1110 H1087 0.950 . S
C1110 C1109 1.397 . S
C1110 C1111 1.334 . S
C1111 H1088 0.950 . S
C1111 C1110 1.334 . S
C1111 C1112 1.287 . S
C1112 C1111 1.287 . S
C1112 C1113 1.524 . S
C1112 H1131 0.913 . S
C1113 H1089 0.950 . S
C1113 C1112 1.524 . S
C1113 C1114 1.415 . S
C1114 H1090 0.950 . S
C1114 C1109 1.363 . S
C1114 C1113 1.415 . S
C1115 H1091 0.951 . S
C1115 C1116 1.366 . S
C1115 C1117 1.388 . S
C1116 C1115 1.366 . S
C1116 C1120 1.385 . S
C1117 H1092 0.956 . S
C1117 C1115 1.388 . S
C1117 C1118 1.367 . S
C1118 C1117 1.367 . S
C1118 C1119 1.415 . S
C1118 C1121 1.496 1_545 S
C1119 H1093 0.951 1_556 S
C1119 C1118 1.415 . S
C1119 C1120 1.374 . S
C1120 H1094 0.950 . S
C1120 C1116 1.385 . S
C1120 C1119 1.374 . S
C1121 C1118 1.496 1_565 S
C1121 C1122 1.373 1_556 S
C1121 C1123 1.389 1_565 S
C1122 H1095 0.950 . S
C1122 C1108 1.377 . S
C1122 C1121 1.373 1_554 S
C1123 C1107 1.377 1_556 S
C1123 C1121 1.389 1_545 S
C1123 C1124 1.524 . S
C1124 C1123 1.524 . S
C1124 C1125 1.397 . S
C1124 C1129 1.363 . S
C1125 H1096 0.950 . S
C1125 C1124 1.397 . S
C1125 C1126 1.334 . S
C1126 H1097 0.950 . S
C1126 C1125 1.334 . S
C1126 C1127 1.287 . S
C1127 C1126 1.287 . S
C1127 C1128 1.524 . S
C1127 H1130 0.999 . S
C1128 H1098 0.950 . S
C1128 C1127 1.524 . S
C1128 C1129 1.415 . S
C1129 H1099 0.950 . S
C1129 C1124 1.363 . S
C1129 C1128 1.415 . S
H1130 C1127 0.999 . S
H1131 C1112 0.913 . S
H1132 C1150 0.951 . S
H1133 C1152 0.951 . S
H1134 C1154 0.950 . S
H1135 C1155 0.950 . S
H1136 C1157 0.950 . S
H1137 C1160 0.950 . S
H1138 C1161 0.950 . S
H1139 C1163 0.950 . S
H1140 C1164 0.950 . S
H1141 C1165 0.951 . S
H1142 C1167 0.951 . S
H1143 C1169 0.950 1_554 S
H1144 C1170 0.950 . S
H1145 C1172 0.950 . S
H1146 C1175 0.950 1_554 S
H1147 C1176 0.950 . S
H1148 C1178 0.950 . S
H1149 C1179 0.950 . S
C1150 H1132 0.951 . S
C1150 C1151 1.366 . S
C1150 C1152 1.388 . S
C1151 C1150 1.366 . S
C1151 C1155 1.385 . S
C1152 H1133 0.951 . S
C1152 C1150 1.388 . S
C1152 C1153 1.366 . S
C1153 C1152 1.366 . S
C1153 C1154 1.414 . S
C1153 C1156 1.499 . S
C1154 H1134 0.950 . S
C1154 C1153 1.414 . S
C1154 C1155 1.374 . S
C1155 H1135 0.950 . S
C1155 C1151 1.385 . S
C1155 C1154 1.374 . S
C1156 C1153 1.499 . S
C1156 C1157 1.373 . S
C1156 C1158 1.389 . S
C1157 H1136 0.950 . S
C1157 C1156 1.373 . S
C1157 C1173 1.373 1_554 S
C1158 C1156 1.389 . S
C1158 C1159 1.524 . S
C1158 C1172 1.377 . S
C1159 C1158 1.524 . S
C1159 C1160 1.397 . S
C1159 C1164 1.363 . S
C1160 H1137 0.950 . S
C1160 C1159 1.397 . S
C1160 C1161 1.334 . S
C1161 H1138 0.950 . S
C1161 C1160 1.334 . S
C1161 C1162 1.287 . S
C1162 C1161 1.287 . S
C1162 C1163 1.524 . S
C1162 H1181 0.913 . S
C1163 H1139 0.950 . S
C1163 C1162 1.524 . S
C1163 C1164 1.415 . S
C1164 H1140 0.950 . S
C1164 C1159 1.363 . S
C1164 C1163 1.415 . S
C1165 H1141 0.951 . S
C1165 C1166 1.366 . S
C1165 C1167 1.388 . S
C1166 C1165 1.366 . S
C1166 C1170 1.385 . S
C1167 H1142 0.951 . S
C1167 C1165 1.388 . S
C1167 C1168 1.366 . S
C1168 C1167 1.366 . S
C1168 C1169 1.414 . S
C1168 C1171 1.499 . S
C1169 H1143 0.950 1_556 S
C1169 C1168 1.414 . S
C1169 C1170 1.374 . S
C1170 H1144 0.950 . S
C1170 C1166 1.385 . S
C1170 C1169 1.374 . S
C1171 C1168 1.499 . S
C1171 C1172 1.373 1_556 S
C1171 C1173 1.390 . S
C1172 H1145 0.950 . S
C1172 C1158 1.377 . S
C1172 C1171 1.373 1_554 S
C1173 C1157 1.373 1_556 S
C1173 C1171 1.390 . S
C1173 C1174 1.527 . S
C1174 C1173 1.527 . S
C1174 C1175 1.397 . S
C1174 C1179 1.363 . S
C1175 H1146 0.950 1_556 S
C1175 C1174 1.397 . S
C1175 C1176 1.334 . S
C1176 H1147 0.950 . S
C1176 C1175 1.334 . S
C1176 C1177 1.287 . S
C1177 C1176 1.287 . S
C1177 C1178 1.524 . S
C1177 H1180 0.999 . S
C1178 H1148 0.950 . S
C1178 C1177 1.524 . S
C1178 C1179 1.415 . S
C1179 H1149 0.950 . S
C1179 C1174 1.363 . S
C1179 C1178 1.415 . S
H1180 C1177 0.999 . S
H1181 C1162 0.913 . S
H1182 C1200 0.951 . S
H1183 C1202 0.951 . S
H1184 C1204 0.950 . S
H1185 C1205 0.950 . S
H1186 C1207 0.950 . S
H1187 C1210 0.950 . S
H1188 C1211 0.950 . S
H1189 C1213 0.950 . S
H1190 C1214 0.950 . S
H1191 C1215 0.951 . S
H1192 C1217 0.951 . S
H1193 C1219 0.950 . S
H1194 C1220 0.950 . S
H1195 C1222 0.950 . S
H1196 C1225 0.950 . S
H1197 C1226 0.950 . S
H1198 C1228 0.950 . S
H1199 C1229 0.950 . S
C1200 H1182 0.951 . S
C1200 C1201 1.366 . S
C1200 C1202 1.388 . S
C1201 C1200 1.366 . S
C1201 C1205 1.385 . S
C1202 H1183 0.951 . S
C1202 C1200 1.388 . S
C1202 C1203 1.366 . S
C1203 C1202 1.366 . S
C1203 C1204 1.414 . S
C1203 C1206 1.499 . S
C1204 H1184 0.950 . S
C1204 C1203 1.414 . S
C1204 C1205 1.374 . S
C1205 H1185 0.950 . S
C1205 C1201 1.385 . S
C1205 C1204 1.374 . S
C1206 C1203 1.499 . S
C1206 C1207 1.373 . S
C1206 C1208 1.389 . S
C1207 H1186 0.950 . S
C1207 C1206 1.373 . S
C1207 C1223 1.377 . S
C1208 C1206 1.389 . S
C1208 C1209 1.524 . S
C1208 C1222 1.377 1_554 S
C1209 C1208 1.524 . S
C1209 C1210 1.397 1_554 S
C1209 C1214 1.363 . S
C1210 H1187 0.950 . S
C1210 C1209 1.397 1_556 S
C1210 C1211 1.334 . S
C1211 H1188 0.950 . S
C1211 C1210 1.334 . S
C1211 C1212 1.287 . S
C1212 C1211 1.287 . S
C1212 C1213 1.524 . S
C1212 H1231 0.913 . S
C1213 H1189 0.950 . S
C1213 C1212 1.524 . S
C1213 C1214 1.415 1_556 S
C1214 H1190 0.950 . S
C1214 C1209 1.363 . S
C1214 C1213 1.415 1_554 S
C1215 H1191 0.951 . S
C1215 C1216 1.366 . S
C1215 C1217 1.388 . S
C1216 C1215 1.366 . S
C1216 C1220 1.385 . S
C1217 H1192 0.951 . S
C1217 C1215 1.388 . S
C1217 C1218 1.366 . S
C1218 C1217 1.366 . S
C1218 C1219 1.414 . S
C1218 C1221 1.499 . S
C1219 H1193 0.950 . S
C1219 C1218 1.414 . S
C1219 C1220 1.374 . S
C1220 H1194 0.950 . S
C1220 C1216 1.385 . S
C1220 C1219 1.374 . S
C1221 C1218 1.499 . S
C1221 C1222 1.373 . S
C1221 C1223 1.389 1_556 S
C1222 H1195 0.950 . S
C1222 C1208 1.377 1_556 S
C1222 C1221 1.373 . S
C1223 C1207 1.377 . S
C1223 C1221 1.389 1_554 S
C1223 C1224 1.524 . S
C1224 C1223 1.524 . S
C1224 C1225 1.397 . S
C1224 C1229 1.363 . S
C1225 H1196 0.950 . S
C1225 C1224 1.397 . S
C1225 C1226 1.334 . S
C1226 H1197 0.950 . S
C1226 C1225 1.334 . S
C1226 C1227 1.287 . S
C1227 C1226 1.287 . S
C1227 C1228 1.524 . S
C1227 H1230 0.999 . S
C1228 H1198 0.950 . S
C1228 C1227 1.524 . S
C1228 C1229 1.415 . S
C1229 H1199 0.950 . S
C1229 C1224 1.363 . S
C1229 C1228 1.415 . S
H1230 C1227 0.999 . S
H1231 C1212 0.913 . S
H1232 C1250 0.951 . S
H1233 C1252 0.951 . S
H1234 C1254 0.950 . S
H1235 C1255 0.950 . S
H1236 C1257 0.950 . S
H1237 C1260 0.950 . S
H1238 C1261 0.950 . S
H1239 C1263 0.950 1_655 S
H1240 C1264 0.950 1_655 S
H1241 C1265 0.951 . S
H1242 C1267 0.951 . S
H1243 C1269 0.950 1_655 S
H1244 C1270 0.950 1_655 S
H1245 C1272 0.950 . S
H1246 C1275 0.950 . S
H1247 C1276 0.950 . S
H1248 C1278 0.950 . S
H1249 C1279 0.950 . S
C1250 H1232 0.951 . S
C1250 C1251 1.366 . S
C1250 C1252 1.388 . S
C1251 C1250 1.366 . S
C1251 C1255 1.385 . S
C1252 H1233 0.951 . S
C1252 C1250 1.388 . S
C1252 C1253 1.366 . S
C1253 C1252 1.366 . S
C1253 C1254 1.414 . S
C1253 C1256 1.499 . S
C1254 H1234 0.950 . S
C1254 C1253 1.414 . S
C1254 C1255 1.374 . S
C1255 H1235 0.950 . S
C1255 C1251 1.385 . S
C1255 C1254 1.374 . S
C1256 C1253 1.499 . S
C1256 C1257 1.373 . S
C1256 C1258 1.389 . S
C1257 H1236 0.950 . S
C1257 C1256 1.373 . S
C1257 C1273 1.377 . S
C1258 C1256 1.389 . S
C1258 C1259 1.524 . S
C1258 C1272 1.377 . S
C1259 C1258 1.524 . S
C1259 C1260 1.397 . S
C1259 C1264 1.363 . S
C1260 H1237 0.950 . S
C1260 C1259 1.397 . S
C1260 C1261 1.334 1_556 S
C1261 H1238 0.950 . S
C1261 C1260 1.334 1_554 S
C1261 C1262 1.287 . S
C1262 C1261 1.287 . S
C1262 C1263 1.524 . S
C1262 H1281 0.913 . S
C1263 H1239 0.950 1_455 S
C1263 C1262 1.524 . S
C1263 C1264 1.415 1_554 S
C1264 H1240 0.950 1_455 S
C1264 C1259 1.363 . S
C1264 C1263 1.415 1_556 S
C1265 H1241 0.951 . S
C1265 C1266 1.366 . S
C1265 C1267 1.388 . S
C1266 C1265 1.366 . S
C1266 C1270 1.385 . S
C1267 H1242 0.951 . S
C1267 C1265 1.388 . S
C1267 C1268 1.366 . S
C1268 C1267 1.366 . S
C1268 C1269 1.414 . S
C1268 C1271 1.499 . S
C1269 H1243 0.950 1_455 S
C1269 C1268 1.414 . S
C1269 C1270 1.374 . S
C1270 H1244 0.950 1_455 S
C1270 C1266 1.385 . S
C1270 C1269 1.374 . S
C1271 C1268 1.499 . S
C1271 C1272 1.373 . S
C1271 C1273 1.389 . S
C1272 H1245 0.950 . S
C1272 C1258 1.377 . S
C1272 C1271 1.373 . S
C1273 C1257 1.377 . S
C1273 C1271 1.389 . S
C1273 C1274 1.524 . S
C1274 C1273 1.524 . S
C1274 C1275 1.397 . S
C1274 C1279 1.363 . S
C1275 H1246 0.950 . S
C1275 C1274 1.397 . S
C1275 C1276 1.334 . S
C1276 H1247 0.950 . S
C1276 C1275 1.334 . S
C1276 C1277 1.287 . S
C1277 C1276 1.287 . S
C1277 C1278 1.524 . S
C1277 H1280 0.999 . S
C1278 H1248 0.950 . S
C1278 C1277 1.524 . S
C1278 C1279 1.415 . S
C1279 H1249 0.950 . S
C1279 C1274 1.363 . S
C1279 C1278 1.415 . S
H1280 C1277 0.999 . S
H1281 C1262 0.913 . S
H1282 C1300 0.951 . S
H1283 C1302 0.951 . S
H1284 C1304 0.950 . S
H1285 C1305 0.950 . S
H1286 C1307 0.950 . S
H1287 C1310 0.950 . S
H1288 C1311 0.950 . S
H1289 C1313 0.950 1_554 S
H1290 C1314 0.950 . S
H1291 C1315 0.951 . S
H1292 C1317 0.951 . S
H1293 C1319 0.950 . S
H1294 C1320 0.950 . S
H1295 C1322 0.950 . S
H1296 C1325 0.950 . S
H1297 C1326 0.950 . S
H1298 C1328 0.950 . S
H1299 C1329 0.937 1_545 S
C1300 H1282 0.951 . S
C1300 C1301 1.366 . S
C1300 C1302 1.388 . S
C1301 C1300 1.366 . S
C1301 C1305 1.385 . S
C1302 H1283 0.951 . S
C1302 C1300 1.388 . S
C1302 C1303 1.366 . S
C1303 C1302 1.366 . S
C1303 C1304 1.414 . S
C1303 C1306 1.499 . S
C1304 H1284 0.950 . S
C1304 C1303 1.414 . S
C1304 C1305 1.374 . S
C1305 H1285 0.950 . S
C1305 C1301 1.385 . S
C1305 C1304 1.374 . S
C1306 C1303 1.499 . S
C1306 C1307 1.373 . S
C1306 C1308 1.389 . S
C1307 H1286 0.950 . S
C1307 C1306 1.373 . S
C1307 C1323 1.377 . S
C1308 C1306 1.389 . S
C1308 C1309 1.524 . S
C1308 C1322 1.377 . S
C1309 C1308 1.524 . S
C1309 C1310 1.397 . S
C1309 C1314 1.363 . S
C1310 H1287 0.950 . S
C1310 C1309 1.397 . S
C1310 C1311 1.334 . S
C1311 H1288 0.950 . S
C1311 C1310 1.334 . S
C1311 C1312 1.287 . S
C1312 C1311 1.287 . S
C1312 C1313 1.524 . S
C1312 H1331 0.913 . S
C1313 H1289 0.950 1_556 S
C1313 C1312 1.524 . S
C1313 C1314 1.415 . S
C1314 H1290 0.950 . S
C1314 C1309 1.363 . S
C1314 C1313 1.415 . S
C1315 H1291 0.951 . S
C1315 C1316 1.366 . S
C1315 C1317 1.388 . S
C1316 C1315 1.366 . S
C1316 C1320 1.385 . S
C1317 H1292 0.951 . S
C1317 C1315 1.388 . S
C1317 C1318 1.366 . S
C1318 C1317 1.366 . S
C1318 C1319 1.414 . S
C1318 C1321 1.499 . S
C1319 H1293 0.950 . S
C1319 C1318 1.414 . S
C1319 C1320 1.374 . S
C1320 H1294 0.950 . S
C1320 C1316 1.385 . S
C1320 C1319 1.374 . S
C1321 C1318 1.499 . S
C1321 C1322 1.373 . S
C1321 C1323 1.389 . S
C1322 H1295 0.950 . S
C1322 C1308 1.377 . S
C1322 C1321 1.373 . S
C1323 C1307 1.377 . S
C1323 C1321 1.389 . S
C1323 C1324 1.524 1_545 S
C1324 C1323 1.524 1_565 S
C1324 C1325 1.397 . S
C1324 C1329 1.363 . S
C1325 H1296 0.950 . S
C1325 C1324 1.397 . S
C1325 C1326 1.334 . S
C1326 H1297 0.950 . S
C1326 C1325 1.334 . S
C1326 C1327 1.287 . S
C1327 C1326 1.287 . S
C1327 C1328 1.524 . S
C1327 H1330 0.999 . S
C1328 H1298 0.950 . S
C1328 C1327 1.524 . S
C1328 C1329 1.415 . S
C1329 H1299 0.937 1_565 S
C1329 C1324 1.363 . S
C1329 C1328 1.415 . S
H1330 C1327 0.999 . S
H1331 C1312 0.913 . S
H1332 C1350 0.951 . S
H1333 C1352 0.951 . S
H1334 C1354 0.950 . S
H1335 C1355 0.950 . S
H1336 C1357 0.950 . S
H1337 C1360 0.950 . S
H1338 C1361 0.950 . S
H1339 C1363 0.950 . S
H1340 C1364 0.950 . S
H1341 C1365 0.951 . S
H1342 C1367 0.951 . S
H1343 C1369 0.950 . S
H1344 C1370 0.950 . S
H1345 C1372 0.950 . S
H1346 C1375 0.950 . S
H1347 C1376 0.950 . S
H1348 C1378 0.950 1_554 S
H1349 C1379 0.950 . S
C1350 H1332 0.951 . S
C1350 C1351 1.366 . S
C1350 C1352 1.388 . S
C1351 C1350 1.366 . S
C1351 C1355 1.385 . S
C1352 H1333 0.951 . S
C1352 C1350 1.388 . S
C1352 C1353 1.366 . S
C1353 C1352 1.366 . S
C1353 C1354 1.414 . S
C1353 C1356 1.499 . S
C1354 H1334 0.950 . S
C1354 C1353 1.414 . S
C1354 C1355 1.374 . S
C1355 H1335 0.950 . S
C1355 C1351 1.385 . S
C1355 C1354 1.374 . S
C1356 C1353 1.499 . S
C1356 C1357 1.373 . S
C1356 C1358 1.389 . S
C1357 H1336 0.950 . S
C1357 C1356 1.373 . S
C1357 C1373 1.377 . S
C1358 C1356 1.389 . S
C1358 C1359 1.524 . S
C1358 C1372 1.377 . S
C1359 C1358 1.524 . S
C1359 C1360 1.397 . S
C1359 C1364 1.363 . S
C1360 H1337 0.950 . S
C1360 C1359 1.397 . S
C1360 C1361 1.334 . S
C1361 H1338 0.950 . S
C1361 C1360 1.334 . S
C1361 C1362 1.287 . S
C1362 C1361 1.287 . S
C1362 C1363 1.524 . S
C1362 H1381 0.913 . S
C1363 H1339 0.950 . S
C1363 C1362 1.524 . S
C1363 C1364 1.415 . S
C1364 H1340 0.950 . S
C1364 C1359 1.363 . S
C1364 C1363 1.415 . S
C1365 H1341 0.951 . S
C1365 C1366 1.366 . S
C1365 C1367 1.388 . S
C1366 C1365 1.366 . S
C1366 C1370 1.385 . S
C1367 H1342 0.951 . S
C1367 C1365 1.388 . S
C1367 C1368 1.366 . S
C1368 C1367 1.366 . S
C1368 C1369 1.414 . S
C1368 C1371 1.499 . S
C1369 H1343 0.950 . S
C1369 C1368 1.414 . S
C1369 C1370 1.374 . S
C1370 H1344 0.950 . S
C1370 C1366 1.385 . S
C1370 C1369 1.374 . S
C1371 C1368 1.499 . S
C1371 C1372 1.373 . S
C1371 C1373 1.389 . S
C1372 H1345 0.950 . S
C1372 C1358 1.377 . S
C1372 C1371 1.373 . S
C1373 C1357 1.377 . S
C1373 C1371 1.389 . S
C1373 C1374 1.524 . S
C1374 C1373 1.524 . S
C1374 C1375 1.397 . S
C1374 C1379 1.363 . S
C1375 H1346 0.950 . S
C1375 C1374 1.397 . S
C1375 C1376 1.334 . S
C1376 H1347 0.950 . S
C1376 C1375 1.334 . S
C1376 C1377 1.287 . S
C1377 C1376 1.287 . S
C1377 C1378 1.524 . S
C1377 H1380 0.999 . S
C1378 H1348 0.950 1_556 S
C1378 C1377 1.524 . S
C1378 C1379 1.415 . S
C1379 H1349 0.950 . S
C1379 C1374 1.363 . S
C1379 C1378 1.415 . S
H1380 C1377 0.999 . S
H1381 C1362 0.913 . S
H1382 C1400 0.951 . S
H1383 C1402 0.951 . S
H1384 C1404 0.950 . S
H1385 C1405 0.950 . S
H1386 C1407 0.950 . S
H1387 C1410 0.950 . S
H1388 C1411 0.950 1_554 S
H1389 C1413 0.950 . S
H1390 C1414 0.950 . S
H1391 C1415 0.951 . S
H1392 C1417 0.951 . S
H1393 C1419 0.950 . S
H1394 C1420 0.950 . S
H1395 C1422 0.950 . S
H1396 C1425 0.950 . S
H1397 C1426 0.950 . S
H1398 C1428 0.950 . S
H1399 C1429 0.950 . S
C1400 H1382 0.951 . S
C1400 C1401 1.366 . S
C1400 C1402 1.388 . S
C1401 C1400 1.366 . S
C1401 C1405 1.385 . S
C1402 H1383 0.951 . S
C1402 C1400 1.388 . S
C1402 C1403 1.366 . S
C1403 C1402 1.366 . S
C1403 C1404 1.414 . S
C1403 C1406 1.499 . S
C1404 H1384 0.950 . S
C1404 C1403 1.414 . S
C1404 C1405 1.374 . S
C1405 H1385 0.950 . S
C1405 C1401 1.385 . S
C1405 C1404 1.374 . S
C1406 C1403 1.499 . S
C1406 C1407 1.373 . S
C1406 C1408 1.389 . S
C1407 H1386 0.950 . S
C1407 C1406 1.373 . S
C1407 C1423 1.377 . S
C1408 C1406 1.389 . S
C1408 C1409 1.524 . S
C1408 C1422 1.377 . S
C1409 C1408 1.524 . S
C1409 C1410 1.397 . S
C1409 C1414 1.363 . S
C1410 H1387 0.950 . S
C1410 C1409 1.397 . S
C1410 C1411 1.334 . S
C1411 H1388 0.950 1_556 S
C1411 C1410 1.334 . S
C1411 C1412 1.287 . S
C1412 C1411 1.287 . S
C1412 C1413 1.524 . S
C1412 H1431 0.913 1_556 S
C1413 H1389 0.950 . S
C1413 C1412 1.524 . S
C1413 C1414 1.415 . S
C1414 H1390 0.950 . S
C1414 C1409 1.363 . S
C1414 C1413 1.415 . S
C1415 H1391 0.951 . S
C1415 C1416 1.366 . S
C1415 C1417 1.388 . S
C1416 C1415 1.366 . S
C1416 C1420 1.385 . S
C1417 H1392 0.951 . S
C1417 C1415 1.388 . S
C1417 C1418 1.366 . S
C1418 C1417 1.366 . S
C1418 C1419 1.414 . S
C1418 C1421 1.499 . S
C1419 H1393 0.950 . S
C1419 C1418 1.414 . S
C1419 C1420 1.374 . S
C1420 H1394 0.950 . S
C1420 C1416 1.385 . S
C1420 C1419 1.374 . S
C1421 C1418 1.499 . S
C1421 C1422 1.373 . S
C1421 C1423 1.389 . S
C1422 H1395 0.950 . S
C1422 C1408 1.377 . S
C1422 C1421 1.373 . S
C1423 C1407 1.377 . S
C1423 C1421 1.389 . S
C1423 C1424 1.524 . S
C1424 C1423 1.524 . S
C1424 C1425 1.397 . S
C1424 C1429 1.363 . S
C1425 H1396 0.950 . S
C1425 C1424 1.397 . S
C1425 C1426 1.334 . S
C1426 H1397 0.950 . S
C1426 C1425 1.334 . S
C1426 C1427 1.287 . S
C1427 C1426 1.287 . S
C1427 C1428 1.524 . S
C1427 H1430 0.999 . S
C1428 H1398 0.950 . S
C1428 C1427 1.524 . S
C1428 C1429 1.415 . S
C1429 H1399 0.950 . S
C1429 C1424 1.363 . S
C1429 C1428 1.415 . S
H1430 C1427 0.999 . S
H1431 C1412 0.913 1_554 S
H1432 C1450 0.951 . S
H1433 C1452 0.951 . S
H1434 C1454 0.950 1_455 S
H1435 C1455 0.950 1_455 S
H1436 C1457 0.933 1_455 S
H1437 C1460 0.950 . S
H1438 C1461 0.950 . S
H1439 C1463 0.950 . S
H1440 C1464 0.950 . S
H1441 C1465 0.951 . S
H1442 C1467 0.951 . S
H1443 C1469 0.950 . S
H1444 C1470 0.950 . S
H1445 C1472 0.950 . S
H1446 C1475 0.950 . S
H1447 C1476 0.950 . S
H1448 C1478 0.950 . S
H1449 C1479 0.950 . S
C1450 H1432 0.951 . S
C1450 C1451 1.366 . S
C1450 C1452 1.388 . S
C1451 C1450 1.366 . S
C1451 C1455 1.385 . S
C1452 H1433 0.951 . S
C1452 C1450 1.388 . S
C1452 C1453 1.366 . S
C1453 C1452 1.366 . S
C1453 C1454 1.414 . S
C1453 C1456 1.499 . S
C1454 H1434 0.950 1_655 S
C1454 C1453 1.414 . S
C1454 C1455 1.374 . S
C1455 H1435 0.950 1_655 S
C1455 C1451 1.385 . S
C1455 C1454 1.374 . S
C1456 C1453 1.499 . S
C1456 C1457 1.393 . S
C1456 C1458 1.389 . S
C1457 H1436 0.933 1_655 S
C1457 C1456 1.393 . S
C1457 C1473 1.374 1_655 S
C1458 C1456 1.389 . S
C1458 C1459 1.524 . S
C1458 C1472 1.377 . S
C1459 C1458 1.524 . S
C1459 C1460 1.397 . S
C1459 C1464 1.363 . S
C1460 H1437 0.950 . S
C1460 C1459 1.397 . S
C1460 C1461 1.334 . S
C1461 H1438 0.950 . S
C1461 C1460 1.334 . S
C1461 C1462 1.287 . S
C1462 C1461 1.287 . S
C1462 C1463 1.524 . S
C1462 H1481 0.913 . S
C1463 H1439 0.950 . S
C1463 C1462 1.524 . S
C1463 C1464 1.415 . S
C1464 H1440 0.950 . S
C1464 C1459 1.363 . S
C1464 C1463 1.415 . S
C1465 H1441 0.951 . S
C1465 C1466 1.366 1_455 S
C1465 C1467 1.388 . S
C1466 C1465 1.366 1_655 S
C1466 C1470 1.385 . S
C1467 H1442 0.951 . S
C1467 C1465 1.388 . S
C1467 C1468 1.366 1_455 S
C1468 C1467 1.366 1_655 S
C1468 C1469 1.414 . S
C1468 C1471 1.499 . S
C1469 H1443 0.950 . S
C1469 C1468 1.414 . S
C1469 C1470 1.374 . S
C1470 H1444 0.950 . S
C1470 C1466 1.385 . S
C1470 C1469 1.374 . S
C1471 C1468 1.499 . S
C1471 C1472 1.373 . S
C1471 C1473 1.389 1_655 S
C1472 H1445 0.950 . S
C1472 C1458 1.377 . S
C1472 C1471 1.373 . S
C1473 C1457 1.374 1_455 S
C1473 C1471 1.389 1_455 S
C1473 C1474 1.524 . S
C1474 C1473 1.524 . S
C1474 C1475 1.397 . S
C1474 C1479 1.363 . S
C1475 H1446 0.950 . S
C1475 C1474 1.397 . S
C1475 C1476 1.334 . S
C1476 H1447 0.950 . S
C1476 C1475 1.334 . S
C1476 C1477 1.287 . S
C1477 C1476 1.287 . S
C1477 C1478 1.524 . S
C1477 H1480 0.999 . S
C1478 H1448 0.950 . S
C1478 C1477 1.524 . S
C1478 C1479 1.415 . S
C1479 H1449 0.950 . S
C1479 C1474 1.363 . S
C1479 C1478 1.415 . S
H1480 C1477 0.999 . S
H1481 C1462 0.913 . S
H1482 C1500 0.951 . S
H1483 C1502 0.951 . S
H1484 C1504 0.950 . S
H1485 C1505 0.950 . S
H1486 C1507 0.950 1_545 S
H1487 C1510 0.950 . S
H1488 C1511 0.950 . S
H1489 C1513 0.950 . S
H1490 C1514 0.950 . S
H1491 C1515 0.951 . S
H1492 C1517 0.951 . S
H1493 C1519 0.950 . S
H1494 C1520 0.950 . S
H1495 C1522 0.950 . S
H1496 C1525 0.950 . S
H1497 C1526 0.950 . S
H1498 C1528 0.950 . S
H1499 C1529 0.950 . S
C1500 H1482 0.951 . S
C1500 C1501 1.366 . S
C1500 C1502 1.388 . S
C1501 C1500 1.366 . S
C1501 C1505 1.385 . S
C1502 H1483 0.951 . S
C1502 C1500 1.388 . S
C1502 C1503 1.366 . S
C1503 C1502 1.366 . S
C1503 C1504 1.414 . S
C1503 C1506 1.499 . S
C1504 H1484 0.950 . S
C1504 C1503 1.414 . S
C1504 C1505 1.374 . S
C1505 H1485 0.950 . S
C1505 C1501 1.385 . S
C1505 C1504 1.374 . S
C1506 C1503 1.499 . S
C1506 C1507 1.373 . S
C1506 C1508 1.389 . S
C1507 H1486 0.950 1_565 S
C1507 C1506 1.373 . S
C1507 C1523 1.377 1_565 S
C1508 C1506 1.389 . S
C1508 C1509 1.524 . S
C1508 C1522 1.377 . S
C1509 C1508 1.524 . S
C1509 C1510 1.397 . S
C1509 C1514 1.363 . S
C1510 H1487 0.950 . S
C1510 C1509 1.397 . S
C1510 C1511 1.334 . S
C1511 H1488 0.950 . S
C1511 C1510 1.334 . S
C1511 C1512 1.287 . S
C1512 C1511 1.287 . S
C1512 C1513 1.524 . S
C1512 H1531 0.913 . S
C1513 H1489 0.950 . S
C1513 C1512 1.524 . S
C1513 C1514 1.415 . S
C1514 H1490 0.950 . S
C1514 C1509 1.363 . S
C1514 C1513 1.415 . S
C1515 H1491 0.951 . S
C1515 C1516 1.366 . S
C1515 C1517 1.388 . S
C1516 C1515 1.366 . S
C1516 C1520 1.385 . S
C1517 H1492 0.951 . S
C1517 C1515 1.388 . S
C1517 C1518 1.366 . S
C1518 C1517 1.366 . S
C1518 C1519 1.414 . S
C1518 C1521 1.499 . S
C1519 H1493 0.950 . S
C1519 C1518 1.414 . S
C1519 C1520 1.374 . S
C1520 H1494 0.950 . S
C1520 C1516 1.385 . S
C1520 C1519 1.374 . S
C1521 C1518 1.499 . S
C1521 C1522 1.373 . S
C1521 C1523 1.389 1_565 S
C1522 H1495 0.950 . S
C1522 C1508 1.377 . S
C1522 C1521 1.373 . S
C1523 C1507 1.377 1_545 S
C1523 C1521 1.389 1_545 S
C1523 C1524 1.524 . S
C1524 C1523 1.524 . S
C1524 C1525 1.397 . S
C1524 C1529 1.363 . S
C1525 H1496 0.950 . S
C1525 C1524 1.397 . S
C1525 C1526 1.334 . S
C1526 H1497 0.950 . S
C1526 C1525 1.334 . S
C1526 C1527 1.287 . S
C1527 C1526 1.287 . S
C1527 C1528 1.524 . S
C1527 H1530 0.999 . S
C1528 H1498 0.950 . S
C1528 C1527 1.524 . S
C1528 C1529 1.415 . S
C1529 H1499 0.950 . S
C1529 C1524 1.363 . S
C1529 C1528 1.415 . S
H1530 C1527 0.999 . S
H1531 C1512 0.913 . S
H1532 C1550 0.951 . S
H1533 C1552 0.951 . S
H1534 C1554 0.950 . S
H1535 C1555 0.950 . S
H1536 C1557 0.950 . S
H1537 C1560 0.950 . S
H1538 C1561 0.950 . S
H1539 C1563 0.950 . S
H1540 C1564 0.950 . S
H1541 C1565 0.951 . S
H1542 C1567 0.951 . S
H1543 C1569 0.950 . S
H1544 C1570 0.950 . S
H1545 C1572 0.950 . S
H1546 C1575 0.950 . S
H1547 C1576 0.950 . S
H1548 C1578 0.950 . S
H1549 C1579 0.950 . S
C1550 H1532 0.951 . S
C1550 C1551 1.366 . S
C1550 C1552 1.388 . S
C1551 C1550 1.366 . S
C1551 C1555 1.385 . S
C1552 H1533 0.951 . S
C1552 C1550 1.388 . S
C1552 C1553 1.366 . S
C1553 C1552 1.366 . S
C1553 C1554 1.414 . S
C1553 C1556 1.499 . S
C1554 H1534 0.950 . S
C1554 C1553 1.414 . S
C1554 C1555 1.374 . S
C1555 H1535 0.950 . S
C1555 C1551 1.385 . S
C1555 C1554 1.374 . S
C1556 C1553 1.499 . S
C1556 C1557 1.373 . S
C1556 C1558 1.389 . S
C1557 H1536 0.950 . S
C1557 C1556 1.373 . S
C1557 C1573 1.377 . S
C1558 C1556 1.389 . S
C1558 C1559 1.524 . S
C1558 C1572 1.377 . S
C1559 C1558 1.524 . S
C1559 C1560 1.397 . S
C1559 C1564 1.363 . S
C1560 H1537 0.950 . S
C1560 C1559 1.397 . S
C1560 C1561 1.334 . S
C1561 H1538 0.950 . S
C1561 C1560 1.334 . S
C1561 C1562 1.287 . S
C1562 C1561 1.287 . S
C1562 C1563 1.524 . S
C1562 H1581 0.913 . S
C1563 H1539 0.950 . S
C1563 C1562 1.524 . S
C1563 C1564 1.415 . S
C1564 H1540 0.950 . S
C1564 C1559 1.363 . S
C1564 C1563 1.415 . S
C1565 H1541 0.951 . S
C1565 C1566 1.366 . S
C1565 C1567 1.388 . S
C1566 C1565 1.366 . S
C1566 C1570 1.385 . S
C1567 H1542 0.951 . S
C1567 C1565 1.388 . S
C1567 C1568 1.366 . S
C1568 C1567 1.366 . S
C1568 C1569 1.414 . S
C1568 C1571 1.499 . S
C1569 H1543 0.950 . S
C1569 C1568 1.414 . S
C1569 C1570 1.374 . S
C1570 H1544 0.950 . S
C1570 C1566 1.385 . S
C1570 C1569 1.374 . S
C1571 C1568 1.499 . S
C1571 C1572 1.373 . S
C1571 C1573 1.389 . S
C1572 H1545 0.950 . S
C1572 C1558 1.377 . S
C1572 C1571 1.373 . S
C1573 C1557 1.377 . S
C1573 C1571 1.389 . S
C1573 C1574 1.524 . S
C1574 C1573 1.524 . S
C1574 C1575 1.397 . S
C1574 C1579 1.363 . S
C1575 H1546 0.950 . S
C1575 C1574 1.397 . S
C1575 C1576 1.334 . S
C1576 H1547 0.950 . S
C1576 C1575 1.334 . S
C1576 C1577 1.287 . S
C1577 C1576 1.287 . S
C1577 C1578 1.524 . S
C1577 H1580 0.999 . S
C1578 H1548 0.950 . S
C1578 C1577 1.524 . S
C1578 C1579 1.415 . S
C1579 H1549 0.950 . S
C1579 C1574 1.363 . S
C1579 C1578 1.415 . S
H1580 C1577 0.999 . S
H1581 C1562 0.913 . S
H1582 C1600 0.951 . S
H1583 C1602 0.951 . S
H1584 C1604 0.950 . S
H1585 C1605 0.950 . S
H1586 C1607 0.950 . S
H1587 C1610 0.950 . S
H1588 C1611 0.950 . S
H1589 C1613 0.950 . S
H1590 C1614 0.950 . S
H1591 C1615 0.951 . S
H1592 C1617 0.951 . S
H1593 C1619 0.950 . S
H1594 C1620 0.950 . S
H1595 C1622 0.950 . S
H1596 C1625 0.950 . S
H1597 C1626 0.950 . S
H1598 C1628 0.950 . S
H1599 C1629 0.950 . S
C1600 H1582 0.951 . S
C1600 C1601 1.366 . S
C1600 C1602 1.388 . S
C1601 C1600 1.366 . S
C1601 C1605 1.385 . S
C1602 H1583 0.951 . S
C1602 C1600 1.388 . S
C1602 C1603 1.366 . S
C1603 C1602 1.366 . S
C1603 C1604 1.414 . S
C1603 C1606 1.499 . S
C1604 H1584 0.950 . S
C1604 C1603 1.414 . S
C1604 C1605 1.374 . S
C1605 H1585 0.950 . S
C1605 C1601 1.385 . S
C1605 C1604 1.374 . S
C1606 C1603 1.499 . S
C1606 C1607 1.373 . S
C1606 C1608 1.389 . S
C1607 H1586 0.950 . S
C1607 C1606 1.373 . S
C1607 C1623 1.377 . S
C1608 C1606 1.389 . S
C1608 C1609 1.524 . S
C1608 C1622 1.377 . S
C1609 C1608 1.524 . S
C1609 C1610 1.397 . S
C1609 C1614 1.363 . S
C1610 H1587 0.950 . S
C1610 C1609 1.397 . S
C1610 C1611 1.334 . S
C1611 H1588 0.950 . S
C1611 C1610 1.334 . S
C1611 C1612 1.287 . S
C1612 C1611 1.287 . S
C1612 C1613 1.524 . S
C1612 H1631 0.913 . S
C1613 H1589 0.950 . S
C1613 C1612 1.524 . S
C1613 C1614 1.415 . S
C1614 H1590 0.950 . S
C1614 C1609 1.363 . S
C1614 C1613 1.415 . S
C1615 H1591 0.951 . S
C1615 C1616 1.366 . S
C1615 C1617 1.388 . S
C1616 C1615 1.366 . S
C1616 C1620 1.385 . S
C1617 H1592 0.951 . S
C1617 C1615 1.388 . S
C1617 C1618 1.366 . S
C1618 C1617 1.366 . S
C1618 C1619 1.414 . S
C1618 C1621 1.499 . S
C1619 H1593 0.950 . S
C1619 C1618 1.414 . S
C1619 C1620 1.374 . S
C1620 H1594 0.950 . S
C1620 C1616 1.385 . S
C1620 C1619 1.374 . S
C1621 C1618 1.499 . S
C1621 C1622 1.373 . S
C1621 C1623 1.389 . S
C1622 H1595 0.950 . S
C1622 C1608 1.377 . S
C1622 C1621 1.373 . S
C1623 C1607 1.377 . S
C1623 C1621 1.389 . S
C1623 C1624 1.524 . S
C1624 C1623 1.524 . S
C1624 C1625 1.397 . S
C1624 C1629 1.363 . S
C1625 H1596 0.950 . S
C1625 C1624 1.397 . S
C1625 C1626 1.334 . S
C1626 H1597 0.950 . S
C1626 C1625 1.334 . S
C1626 C1627 1.287 . S
C1627 C1626 1.287 . S
C1627 C1628 1.524 . S
C1627 H1630 0.999 . S
C1628 H1598 0.950 . S
C1628 C1627 1.524 . S
C1628 C1629 1.415 . S
C1629 H1599 0.950 . S
C1629 C1624 1.363 . S
C1629 C1628 1.415 . S
H1630 C1627 0.999 . S
H1631 C1612 0.913 . S
C451 C76 1.833 . S
C466 C159 1.942 . S
C516 C236 1.957 . S
C501 C88 1.835 . S
C566 C327 1.933 . S
C551 C52 1.823 . S
C616 C411 1.925 . S
C601 C64 1.816 . S
C666 C170 1.948 . S
C651 C28 1.841 . S
C701 C40 1.841 . S
C716 C247 1.957 . S
C751 C4 1.830 . S
C766 C338 1.933 . S
C801 C16 1.824 . S
C816 C422 1.925 1_655 S
C866 C154 0.507 1_455 S
C851 C69 0.461 . S
C916 C249 0.548 . S
C901 C81 0.439 . S
C966 C322 0.549 . S
C951 C93 0.463 . S
C1001 C57 0.445 . S
C1016 C406 0.541 . S
C1051 C21 0.470 . S
C1066 C165 0.548 . S
C1116 C238 0.548 . S
C1101 C33 0.448 . S
C1166 C333 0.549 . S
C1151 C45 0.470 . S
C1201 C9 0.454 . S
C1216 C417 0.541 . S
C1251 C66 1.867 . S
C1266 C163 2.012 . S
C1301 C78 1.868 . S
C1316 C254 2.013 . S
C1366 C331 2.028 . S
C1351 C90 1.880 . S
C1416 C415 2.035 . S
C1401 C54 1.888 . S
C1451 C18 1.858 . S
C1466 C152 2.012 . S
C1516 C243 2.013 1_565 S
C1501 C30 1.858 . S
C1566 C320 2.028 . S
C1551 C42 1.870 . S
C1601 C6 1.878 . S
C1616 C404 2.034 . S
