# Generated by pormake.
# Topology ctn, (3,4)-cn, num edge types: 1
# Building blocks:
#     Node 0, Type 0, BuildingBlock: BETDIP_clean_linker_0, # of connection points: 3
#     Node 1, Type 0, BuildingBlock: BETDIP_clean_linker_0, # of connection points: 3
#     Node 2, Type 0, BuildingBlock: BETDIP_clean_linker_0, # of connection points: 3
#     Node 3, Type 0, BuildingBlock: BETDIP_clean_linker_0, # of connection points: 3
#     Node 4, Type 0, BuildingBlock: BETDIP_clean_linker_0, # of connection points: 3
#     Node 5, Type 0, BuildingBlock: BETDIP_clean_linker_0, # of connection points: 3
#     Node 6, Type 0, BuildingBlock: BETDIP_clean_linker_0, # of connection points: 3
#     Node 7, Type 0, BuildingBlock: BETDIP_clean_linker_0, # of connection points: 3
#     Node 8, Type 0, BuildingBlock: BETDIP_clean_linker_0, # of connection points: 3
#     Node 9, Type 0, BuildingBlock: BETDIP_clean_linker_0, # of connection points: 3
#     Node 10, Type 0, BuildingBlock: BETDIP_clean_linker_0, # of connection points: 3
#     Node 11, Type 0, BuildingBlock: BETDIP_clean_linker_0, # of connection points: 3
#     Node 12, Type 0, BuildingBlock: BETDIP_clean_linker_0, # of connection points: 3
#     Node 13, Type 0, BuildingBlock: BETDIP_clean_linker_0, # of connection points: 3
#     Node 14, Type 0, BuildingBlock: BETDIP_clean_linker_0, # of connection points: 3
#     Node 15, Type 0, BuildingBlock: BETDIP_clean_linker_0, # of connection points: 3
#     Node 16, Type 1, BuildingBlock: UXUYUI_clean_sbu_0, # of connection points: 4
#     Node 17, Type 1, BuildingBlock: UXUYUI_clean_sbu_0, # of connection points: 4
#     Node 18, Type 1, BuildingBlock: UXUYUI_clean_sbu_0, # of connection points: 4
#     Node 19, Type 1, BuildingBlock: UXUYUI_clean_sbu_0, # of connection points: 4
#     Node 20, Type 1, BuildingBlock: UXUYUI_clean_sbu_0, # of connection points: 4
#     Node 21, Type 1, BuildingBlock: UXUYUI_clean_sbu_0, # of connection points: 4
#     Node 22, Type 1, BuildingBlock: UXUYUI_clean_sbu_0, # of connection points: 4
#     Node 23, Type 1, BuildingBlock: UXUYUI_clean_sbu_0, # of connection points: 4
#     Node 24, Type 1, BuildingBlock: UXUYUI_clean_sbu_0, # of connection points: 4
#     Node 25, Type 1, BuildingBlock: UXUYUI_clean_sbu_0, # of connection points: 4
#     Node 26, Type 1, BuildingBlock: UXUYUI_clean_sbu_0, # of connection points: 4
#     Node 27, Type 1, BuildingBlock: UXUYUI_clean_sbu_0, # of connection points: 4
#     Edge 28, Type (0, 1), BuildingBlock: MIFKUJ_clean_linker_0, # of connection points: 2
#     Edge 29, Type (0, 1), BuildingBlock: MIFKUJ_clean_linker_0, # of connection points: 2
#     Edge 30, Type (0, 1), BuildingBlock: MIFKUJ_clean_linker_0, # of connection points: 2
#     Edge 31, Type (0, 1), BuildingBlock: MIFKUJ_clean_linker_0, # of connection points: 2
#     Edge 32, Type (0, 1), BuildingBlock: MIFKUJ_clean_linker_0, # of connection points: 2
#     Edge 33, Type (0, 1), BuildingBlock: MIFKUJ_clean_linker_0, # of connection points: 2
#     Edge 34, Type (0, 1), BuildingBlock: MIFKUJ_clean_linker_0, # of connection points: 2
#     Edge 35, Type (0, 1), BuildingBlock: MIFKUJ_clean_linker_0, # of connection points: 2
#     Edge 36, Type (0, 1), BuildingBlock: MIFKUJ_clean_linker_0, # of connection points: 2
#     Edge 37, Type (0, 1), BuildingBlock: MIFKUJ_clean_linker_0, # of connection points: 2
#     Edge 38, Type (0, 1), BuildingBlock: MIFKUJ_clean_linker_0, # of connection points: 2
#     Edge 39, Type (0, 1), BuildingBlock: MIFKUJ_clean_linker_0, # of connection points: 2
#     Edge 40, Type (0, 1), BuildingBlock: MIFKUJ_clean_linker_0, # of connection points: 2
#     Edge 41, Type (0, 1), BuildingBlock: MIFKUJ_clean_linker_0, # of connection points: 2
#     Edge 42, Type (0, 1), BuildingBlock: MIFKUJ_clean_linker_0, # of connection points: 2
#     Edge 43, Type (0, 1), BuildingBlock: MIFKUJ_clean_linker_0, # of connection points: 2
#     Edge 44, Type (0, 1), BuildingBlock: MIFKUJ_clean_linker_0, # of connection points: 2
#     Edge 45, Type (0, 1), BuildingBlock: MIFKUJ_clean_linker_0, # of connection points: 2
#     Edge 46, Type (0, 1), BuildingBlock: MIFKUJ_clean_linker_0, # of connection points: 2
#     Edge 47, Type (0, 1), BuildingBlock: MIFKUJ_clean_linker_0, # of connection points: 2
#     Edge 48, Type (0, 1), BuildingBlock: MIFKUJ_clean_linker_0, # of connection points: 2
#     Edge 49, Type (0, 1), BuildingBlock: MIFKUJ_clean_linker_0, # of connection points: 2
#     Edge 50, Type (0, 1), BuildingBlock: MIFKUJ_clean_linker_0, # of connection points: 2
#     Edge 51, Type (0, 1), BuildingBlock: MIFKUJ_clean_linker_0, # of connection points: 2
#     Edge 52, Type (0, 1), BuildingBlock: MIFKUJ_clean_linker_0, # of connection points: 2
#     Edge 53, Type (0, 1), BuildingBlock: MIFKUJ_clean_linker_0, # of connection points: 2
#     Edge 54, Type (0, 1), BuildingBlock: MIFKUJ_clean_linker_0, # of connection points: 2
#     Edge 55, Type (0, 1), BuildingBlock: MIFKUJ_clean_linker_0, # of connection points: 2
#     Edge 56, Type (0, 1), BuildingBlock: MIFKUJ_clean_linker_0, # of connection points: 2
#     Edge 57, Type (0, 1), BuildingBlock: MIFKUJ_clean_linker_0, # of connection points: 2
#     Edge 58, Type (0, 1), BuildingBlock: MIFKUJ_clean_linker_0, # of connection points: 2
#     Edge 59, Type (0, 1), BuildingBlock: MIFKUJ_clean_linker_0, # of connection points: 2
#     Edge 60, Type (0, 1), BuildingBlock: MIFKUJ_clean_linker_0, # of connection points: 2
#     Edge 61, Type (0, 1), BuildingBlock: MIFKUJ_clean_linker_0, # of connection points: 2
#     Edge 62, Type (0, 1), BuildingBlock: MIFKUJ_clean_linker_0, # of connection points: 2
#     Edge 63, Type (0, 1), BuildingBlock: MIFKUJ_clean_linker_0, # of connection points: 2
#     Edge 64, Type (0, 1), BuildingBlock: MIFKUJ_clean_linker_0, # of connection points: 2
#     Edge 65, Type (0, 1), BuildingBlock: MIFKUJ_clean_linker_0, # of connection points: 2
#     Edge 66, Type (0, 1), BuildingBlock: MIFKUJ_clean_linker_0, # of connection points: 2
#     Edge 67, Type (0, 1), BuildingBlock: MIFKUJ_clean_linker_0, # of connection points: 2
#     Edge 68, Type (0, 1), BuildingBlock: MIFKUJ_clean_linker_0, # of connection points: 2
#     Edge 69, Type (0, 1), BuildingBlock: MIFKUJ_clean_linker_0, # of connection points: 2
#     Edge 70, Type (0, 1), BuildingBlock: MIFKUJ_clean_linker_0, # of connection points: 2
#     Edge 71, Type (0, 1), BuildingBlock: MIFKUJ_clean_linker_0, # of connection points: 2
#     Edge 72, Type (0, 1), BuildingBlock: MIFKUJ_clean_linker_0, # of connection points: 2
#     Edge 73, Type (0, 1), BuildingBlock: MIFKUJ_clean_linker_0, # of connection points: 2
#     Edge 74, Type (0, 1), BuildingBlock: MIFKUJ_clean_linker_0, # of connection points: 2
#     Edge 75, Type (0, 1), BuildingBlock: MIFKUJ_clean_linker_0, # of connection points: 2
# Relax obj value: 0.067
# Max RMSD: 0.193
# Mean RMSD: 0.117
data_MOF--net-ctn--node1-UXUYUI_clean_sbu_0--node2-BETDIP_clean_linker_0--edge1-MIFKUJ_clean_linker_0
_symmetry_space_group_name_H-M    P1
_symmetry_Int_Tables_number       1
_symmetry_cell_setting            triclinic
loop_
_symmetry_equiv_pos_as_xyz
'x, y, z'
_cell_length_a     81.473319
_cell_length_b     81.782816
_cell_length_c     89.312203
_cell_angle_alpha  93.366394
_cell_angle_beta   93.569705
_cell_angle_gamma 92.851193
loop_
_atom_site_label
_atom_site_type_symbol
_atom_site_fract_x
_atom_site_fract_y
_atom_site_fract_z
_atom_type_partial_charge
H0 H 0.03456 0.0595 0.05354 0.0
H1 H 0.07305 0.04256 0.02678 0.0
H2 H 0.06377 0.02005 0.06788 0.0
H3 H 0.0577 0.05236 0.0081 0.0
C4 C 0.05283 0.06339 0.01308 0.0
C5 C 0.04426 0.05115 0.05173 0.0
C6 C 0.048 0.0396 0.06235 0.0
C7 C 0.05297 0.05213 0.03875 0.0
C8 C 0.06595 0.04169 0.03657 0.0
C9 C 0.06992 0.03007 0.04701 0.0
C10 C 0.06082 0.02904 0.05983 0.0
N11 N 0.04869 0.06402 0.02834 0.0
H12 H 0.27418 0.70461 0.19956 0.0
H13 H 0.31778 0.73461 0.2138 0.0
H14 H 0.30424 0.69291 0.23839 0.0
H15 H 0.30362 0.7539 0.20197 0.0
C16 C 0.29771 0.74714 0.19209 0.0
C17 C 0.28489 0.70719 0.20731 0.0
C18 C 0.28777 0.69723 0.21939 0.0
C19 C 0.29544 0.72084 0.20535 0.0
C20 C 0.30937 0.72429 0.21538 0.0
C21 C 0.3126 0.71434 0.22744 0.0
C22 C 0.30167 0.70089 0.22936 0.0
N23 N 0.29187 0.73057 0.19298 0.0
H24 H 0.95488 0.48107 0.01901 0.0
H25 H 0.99225 0.46238 0.04833 0.0
H26 H 0.9688 0.50623 0.06205 0.0
H27 H 0.98199 0.4381 0.03656 0.0
C28 C 0.98061 0.44136 0.02494 0.0
C29 C 0.96218 0.48203 0.02962 0.0
C30 C 0.96029 0.49511 0.04022 0.0
C31 C 0.9734 0.47002 0.03257 0.0
C32 C 0.9833 0.47141 0.04609 0.0
C33 C 0.98177 0.48447 0.05678 0.0
C34 C 0.97015 0.49621 0.0538 0.0
N35 N 0.97475 0.45692 0.02159 0.0
H36 H 0.71968 0.77893 0.19943 0.0
H37 H 0.73694 0.81993 0.22959 0.0
H38 H 0.76153 0.80955 0.18923 0.0
H39 H 0.71037 0.81916 0.2354 0.0
C40 C 0.70687 0.80616 0.2352 0.0
C41 C 0.72835 0.78928 0.2023 0.0
C42 C 0.74088 0.79299 0.1927 0.0
C43 C 0.72651 0.79917 0.21538 0.0
C44 C 0.73773 0.81265 0.21917 0.0
C45 C 0.75043 0.81648 0.2098 0.0
C46 C 0.75184 0.80662 0.19656 0.0
N47 N 0.71348 0.79502 0.22462 0.0
H48 H 0.03596 0.96129 0.45337 0.0
H49 H 0.07901 0.97787 0.48149 0.0
H50 H 0.06631 0.00269 0.44174 0.0
H51 H 0.07839 0.9517 0.4877 0.0
C52 C 0.0654 0.94806 0.48783 0.0
C53 C 0.04668 0.96967 0.45561 0.0
C54 C 0.04969 0.98236 0.446 0.0
C55 C 0.05737 0.96764 0.46821 0.0
C56 C 0.07106 0.97877 0.47145 0.0
C57 C 0.07424 0.99157 0.46203 0.0
C58 C 0.06357 0.99318 0.4493 0.0
N59 N 0.05376 0.95458 0.47756 0.0
H60 H 0.22439 0.73659 0.80623 0.0
H61 H 0.24145 0.69922 0.77611 0.0
H62 H 0.26789 0.71154 0.81886 0.0
H63 H 0.21401 0.6969 0.76817 0.0
C64 C 0.21068 0.70961 0.76842 0.0
C65 C 0.23318 0.72742 0.80378 0.0
C66 C 0.24636 0.72518 0.81421 0.0
C67 C 0.23114 0.71798 0.79017 0.0
C68 C 0.2426 0.70621 0.78683 0.0
C69 C 0.25598 0.70382 0.79709 0.0
C70 C 0.25783 0.71347 0.81074 0.0
N71 N 0.21772 0.72102 0.77994 0.0
H72 H 0.99632 0.56302 0.46352 0.0
H73 H 0.96677 0.51913 0.44964 0.0
H74 H 0.95464 0.54912 0.48813 0.0
H75 H 0.99048 0.51127 0.44013 0.0
C76 C 0.9958 0.52244 0.43599 0.0
C77 C 0.98603 0.55456 0.46522 0.0
C78 C 0.9757 0.55787 0.47692 0.0
C79 C 0.98318 0.54045 0.45556 0.0
C80 C 0.96956 0.52965 0.45746 0.0
C81 C 0.95907 0.53273 0.46912 0.0
C82 C 0.96233 0.54685 0.47883 0.0
N83 N 0.99389 0.53784 0.44376 0.0
H84 H 0.79857 0.81186 0.77367 0.0
H85 H 0.81723 0.77548 0.80215 0.0
H86 H 0.77471 0.80118 0.8139 0.0
H87 H 0.83318 0.76937 0.78421 0.0
C88 C 0.83354 0.77886 0.77625 0.0
C89 C 0.79767 0.80492 0.7836 0.0
C90 C 0.78515 0.80789 0.79338 0.0
C91 C 0.80929 0.79328 0.78654 0.0
C92 C 0.80839 0.78448 0.79959 0.0
C93 C 0.79587 0.78718 0.80949 0.0
C94 C 0.78434 0.79895 0.8063 0.0
N95 N 0.82174 0.79112 0.77618 0.0
H96 H 0.29932 0.31212 0.27444 0.0
H97 H 0.31711 0.27425 0.30153 0.0
H98 H 0.27572 0.30111 0.31471 0.0
H99 H 0.34064 0.27927 0.29036 0.0
C100 C 0.33708 0.28294 0.27918 0.0
C101 C 0.2985 0.30514 0.28435 0.0
C102 C 0.28606 0.30803 0.29422 0.0
C103 C 0.30995 0.29329 0.28702 0.0
C104 C 0.30876 0.28391 0.29967 0.0
C105 C 0.29636 0.28656 0.30971 0.0
C106 C 0.28506 0.29866 0.30687 0.0
N107 N 0.32217 0.29094 0.2765 0.0
H108 H 0.45564 0.98113 0.51873 0.0
H109 H 0.49345 0.96267 0.54768 0.0
H110 H 0.46852 0.00536 0.56229 0.0
H111 H 0.48293 0.93822 0.53595 0.0
C112 C 0.4816 0.94156 0.52436 0.0
C113 C 0.4629 0.98197 0.52937 0.0
C114 C 0.4608 0.99483 0.54012 0.0
C115 C 0.47426 0.97008 0.53221 0.0
C116 C 0.48405 0.97134 0.54579 0.0
C117 C 0.48216 0.98406 0.55676 0.0
C118 C 0.47045 0.99575 0.5538 0.0
N119 N 0.47583 0.95717 0.52108 0.0
H120 H 0.22194 0.27988 0.69951 0.0
H121 H 0.23872 0.32166 0.7289 0.0
H122 H 0.26301 0.31112 0.68845 0.0
H123 H 0.22707 0.30739 0.74639 0.0
C124 C 0.2165 0.30054 0.74069 0.0
C125 C 0.23052 0.29036 0.70217 0.0
C126 C 0.24257 0.29435 0.69218 0.0
C127 C 0.22928 0.2998 0.71562 0.0
C128 C 0.23999 0.31378 0.71894 0.0
C129 C 0.25206 0.31805 0.70907 0.0
C130 C 0.25334 0.30818 0.69582 0.0
N131 N 0.2168 0.29516 0.72527 0.0
H132 H 0.77894 0.20097 0.69803 0.0
H133 H 0.82299 0.2303 0.71231 0.0
H134 H 0.80876 0.1891 0.73703 0.0
H135 H 0.8121 0.249 0.69864 0.0
C136 C 0.80378 0.24289 0.68987 0.0
C137 C 0.78953 0.20353 0.70592 0.0
C138 C 0.79252 0.1932 0.71773 0.0
C139 C 0.80015 0.21715 0.70402 0.0
C140 C 0.81425 0.22029 0.71392 0.0
C141 C 0.81751 0.21007 0.72575 0.0
C142 C 0.80653 0.19666 0.72762 0.0
N143 N 0.79642 0.22707 0.6918 0.0
H144 H 0.53594 0.5599 0.55493 0.0
H145 H 0.57293 0.54173 0.52716 0.0
H146 H 0.5652 0.52048 0.56922 0.0
H147 H 0.5565 0.55113 0.50875 0.0
C148 C 0.55252 0.56255 0.5138 0.0
C149 C 0.54544 0.55134 0.553 0.0
C150 C 0.54932 0.53991 0.56368 0.0
C151 C 0.55367 0.55191 0.53972 0.0
C152 C 0.56635 0.54121 0.53728 0.0
C153 C 0.57073 0.52986 0.5479 0.0
C154 C 0.56204 0.52926 0.56103 0.0
N155 N 0.54924 0.56371 0.52928 0.0
H156 H 0.53832 0.459 0.9519 0.0
H157 H 0.58126 0.47577 0.98017 0.0
H158 H 0.56775 0.50147 0.94122 0.0
H159 H 0.5803 0.45067 0.9878 0.0
C160 C 0.56753 0.44609 0.98684 0.0
C161 C 0.54889 0.46754 0.95429 0.0
C162 C 0.55157 0.4806 0.94499 0.0
C163 C 0.55967 0.4654 0.96681 0.0
C164 C 0.57317 0.47673 0.97024 0.0
C165 C 0.57601 0.48987 0.96111 0.0
C166 C 0.56523 0.49164 0.9485 0.0
N167 N 0.55625 0.45202 0.97587 0.0
H168 H 0.72633 0.23673 0.30323 0.0
H169 H 0.74451 0.19926 0.27409 0.0
H170 H 0.77156 0.21456 0.3159 0.0
H171 H 0.71638 0.24582 0.28124 0.0
C172 C 0.71232 0.23463 0.27462 0.0
C173 C 0.73586 0.22847 0.30067 0.0
C174 C 0.7493 0.22723 0.31118 0.0
C175 C 0.73435 0.21869 0.28712 0.0
C176 C 0.74586 0.20691 0.28447 0.0
C177 C 0.7593 0.20527 0.29483 0.0
C178 C 0.76107 0.21565 0.30803 0.0
N179 N 0.72125 0.22022 0.27607 0.0
H180 H 0.49636 0.06438 0.9631 0.0
H181 H 0.46813 0.01941 0.95011 0.0
H182 H 0.45898 0.04668 0.99109 0.0
H183 H 0.49438 0.01325 0.94158 0.0
C184 C 0.49696 0.02436 0.93585 0.0
C185 C 0.4868 0.05531 0.96533 0.0
C186 C 0.47817 0.05715 0.97842 0.0
C187 C 0.48365 0.0415 0.95534 0.0
C188 C 0.47109 0.02982 0.95805 0.0
C189 C 0.46216 0.03164 0.97094 0.0
C190 C 0.46597 0.04516 0.98121 0.0
N191 N 0.49313 0.03978 0.94257 0.0
Li192 Li 0.27575 0.89105 0.00338 0.0
Li193 Li 0.26245 0.86989 0.01826 0.0
Li194 Li 0.25845 0.86924 0.9911 0.0
Li195 Li 0.24567 0.89094 0.00652 0.0
C196 C 0.28531 0.85413 0.99607 0.0
N197 N 0.29592 0.82705 0.9802 0.0
C198 C 0.2822 0.83842 1.00096 0.0
C199 C 0.29392 0.85609 0.98318 0.0
C200 C 0.28766 0.82488 0.99277 0.0
C201 C 0.29914 0.84224 0.97529 0.0
C202 C 0.27 0.90054 0.03587 0.0
C203 C 0.26575 0.91206 0.06074 0.0
N204 N 0.28233 0.91342 0.06387 0.0
C205 C 0.287 0.90219 0.0393 0.0
C206 C 0.25928 0.90564 0.04664 0.0
C207 C 0.29299 0.90867 0.05353 0.0
C208 C 0.29345 0.92179 0.00283 0.0
N209 N 0.29493 0.90527 0.0023 0.0
C210 C 0.32378 0.90874 0.99908 0.0
C211 C 0.30975 0.89864 1.00071 0.0
C212 C 0.32245 0.92577 0.99889 0.0
C213 C 0.30708 0.93231 1.0009 0.0
H214 H 0.28157 0.92675 0.00441 0.0
H215 H 0.31064 0.8855 1.0006 0.0
C216 C 0.25474 0.84382 0.03722 0.0
N217 N 0.26541 0.85677 0.03537 0.0
C218 C 0.25684 0.83435 0.04966 0.0
C219 C 0.28134 0.85116 0.05773 0.0
C220 C 0.27875 0.8603 0.04514 0.0
C221 C 0.27023 0.83805 0.06021 0.0
H222 H 0.24462 0.84068 0.02902 0.0
H223 H 0.28756 0.87004 0.04307 0.0
C224 C 0.26258 0.90583 0.97991 0.0
N225 N 0.27362 0.93232 0.96475 0.0
C226 C 0.25454 0.92052 0.98085 0.0
C227 C 0.27614 0.90456 0.97114 0.0
C228 C 0.26033 0.93378 0.97312 0.0
C229 C 0.28157 0.91811 0.9636 0.0
C230 C 0.22782 0.86286 0.01378 0.0
C231 C 0.21519 0.85191 0.00752 0.0
C232 C 0.22661 0.87033 0.02811 0.0
C233 C 0.20151 0.84858 0.01576 0.0
C234 C 0.21274 0.86669 0.03599 0.0
N235 N 0.20058 0.85598 0.0297 0.0
C236 C 0.24952 0.83891 0.97483 0.0
C237 C 0.25997 0.85976 0.96014 0.0
C238 C 0.24849 0.8276 0.9624 0.0
N239 N 0.25537 0.85459 0.97352 0.0
C240 C 0.25926 0.84886 0.94746 0.0
C241 C 0.25361 0.83249 0.94852 0.0
H242 H 0.24603 0.8351 0.98564 0.0
H243 H 0.26446 0.87229 0.95935 0.0
C244 C 0.23063 0.91931 0.01681 0.0
N245 N 0.22752 0.90447 0.00923 0.0
C246 C 0.21779 0.92953 0.0196 0.0
C247 C 0.19874 0.90906 0.00664 0.0
C248 C 0.21199 0.89926 0.00401 0.0
C249 C 0.20155 0.92441 0.01457 0.0
H250 H 0.24312 0.92317 0.02074 0.0
H251 H 0.20986 0.88747 0.99789 0.0
O252 O 0.27961 0.86748 0.00366 0.0
O253 O 0.26388 0.89448 0.02191 0.0
O254 O 0.25714 0.89276 0.98751 0.0
O255 O 0.24116 0.86642 0.00574 0.0
H256 H 0.27548 0.83667 0.01086 0.0
H257 H 0.2963 0.86815 0.97916 0.0
H258 H 0.28526 0.81264 0.99637 0.0
H259 H 0.30568 0.84356 0.96522 0.0
H260 H 0.25759 0.91601 0.06919 0.0
H261 H 0.2955 0.89827 0.03116 0.0
H262 H 0.24609 0.90473 0.04415 0.0
H263 H 0.30611 0.90989 0.05635 0.0
H264 H 0.33546 0.90328 0.99757 0.0
H265 H 0.30565 0.94541 1.00099 0.0
H266 H 0.24797 0.82435 0.05106 0.0
H267 H 0.29211 0.85418 0.06531 0.0
H268 H 0.24395 0.9217 0.98747 0.0
H269 H 0.28267 0.89338 0.97044 0.0
H270 H 0.25425 0.94524 0.97378 0.0
H271 H 0.29217 0.91736 0.95692 0.0
H272 H 0.21594 0.84608 0.9964 0.0
H273 H 0.2363 0.87876 0.0331 0.0
H274 H 0.19163 0.84014 0.01106 0.0
H275 H 0.21165 0.87237 0.04711 0.0
H276 H 0.24416 0.81506 0.96372 0.0
H277 H 0.26309 0.85321 0.93693 0.0
H278 H 0.22051 0.94118 0.02587 0.0
H279 H 0.18646 0.90472 0.00239 0.0
Li280 Li 0.12435 0.49918 0.2649 0.0
Li281 Li 0.14336 0.48083 0.25323 0.0
Li282 Li 0.14479 0.51135 0.24975 0.0
Li283 Li 0.12253 0.49355 0.23671 0.0
C284 C 0.15124 0.50201 0.28363 0.0
N285 N 0.15539 0.50686 0.31455 0.0
C286 C 0.15494 0.48892 0.29242 0.0
C287 C 0.14993 0.51762 0.29056 0.0
C288 C 0.15693 0.4916 0.30803 0.0
C289 C 0.15199 0.5198 0.30621 0.0
C290 C 0.1132 0.46199 0.25108 0.0
C291 C 0.10699 0.43715 0.23539 0.0
N292 N 0.10166 0.42954 0.24746 0.0
C293 C 0.10741 0.45399 0.26327 0.0
C294 C 0.11278 0.45356 0.23698 0.0
C295 C 0.10173 0.43756 0.26124 0.0
C296 C 0.10235 0.51545 0.28353 0.0
N297 N 0.11193 0.50237 0.28221 0.0
C298 C 0.10398 0.49328 0.3058 0.0
C299 C 0.11285 0.49134 0.293 0.0
C300 C 0.09399 0.50671 0.30754 0.0
C301 C 0.09326 0.51789 0.29617 0.0
H302 H 0.1017 0.52398 0.27475 0.0
H303 H 0.12049 0.48099 0.29165 0.0
C304 C 0.17046 0.46104 0.24905 0.0
N305 N 0.15618 0.46211 0.25607 0.0
C306 C 0.18054 0.44797 0.25139 0.0
C307 C 0.16126 0.4375 0.26842 0.0
C308 C 0.15148 0.45069 0.26563 0.0
C309 C 0.17608 0.43601 0.2613 0.0
H310 H 0.17413 0.47045 0.24173 0.0
H311 H 0.1404 0.45209 0.2715 0.0
C312 C 0.1194 0.53079 0.24609 0.0
N313 N 0.11754 0.56355 0.24049 0.0
C314 C 0.11362 0.53532 0.23194 0.0
C315 C 0.12398 0.54293 0.25745 0.0
C316 C 0.11283 0.55194 0.22931 0.0
C317 C 0.12303 0.55943 0.25438 0.0
C318 C 0.1511 0.48677 0.22098 0.0
C319 C 0.15805 0.49735 0.21108 0.0
C320 C 0.14906 0.47 0.21689 0.0
C321 C 0.16243 0.49102 0.1971 0.0
C322 C 0.15362 0.46414 0.20283 0.0
N323 N 0.16012 0.47469 0.19329 0.0
C324 C 0.1713 0.5348 0.25794 0.0
C325 C 0.15701 0.53823 0.23451 0.0
C326 C 0.18187 0.54843 0.25609 0.0
N327 N 0.15914 0.53004 0.24724 0.0
C328 C 0.16723 0.55194 0.23222 0.0
C329 C 0.17992 0.55721 0.24307 0.0
H330 H 0.17289 0.52794 0.26786 0.0
H331 H 0.14735 0.5341 0.2261 0.0
C332 C 0.09277 0.48385 0.21944 0.0
N333 N 0.10816 0.49092 0.21884 0.0
C334 C 0.08188 0.48245 0.20663 0.0
C335 C 0.10279 0.49582 0.19291 0.0
C336 C 0.11325 0.49695 0.20595 0.0
C337 C 0.08684 0.48851 0.19312 0.0
H338 H 0.0889 0.4794 0.2299 0.0
H339 H 0.12527 0.50311 0.20589 0.0
O340 O 0.14896 0.49956 0.26833 0.0
O341 O 0.1188 0.4781 0.25289 0.0
O342 O 0.12049 0.51456 0.2488 0.0
O343 O 0.14672 0.49279 0.23472 0.0
H344 H 0.15615 0.4768 0.28726 0.0
H345 H 0.14733 0.52793 0.28395 0.0
H346 H 0.15967 0.48155 0.31497 0.0
H347 H 0.15089 0.5318 0.31172 0.0
H348 H 0.10666 0.43048 0.22454 0.0
H349 H 0.10738 0.46035 0.27422 0.0
H350 H 0.11667 0.45966 0.2273 0.0
H351 H 0.09735 0.43119 0.27062 0.0
H352 H 0.10474 0.4842 0.31413 0.0
H353 H 0.08587 0.5285 0.29707 0.0
H354 H 0.19173 0.4473 0.24549 0.0
H355 H 0.15746 0.42886 0.27643 0.0
H356 H 0.10984 0.52613 0.22306 0.0
H357 H 0.12827 0.53968 0.2685 0.0
H358 H 0.10847 0.55562 0.21839 0.0
H359 H 0.12665 0.56894 0.26305 0.0
H360 H 0.15996 0.51032 0.2141 0.0
H361 H 0.14428 0.46153 0.22458 0.0
H362 H 0.1677 0.4991 0.18929 0.0
H363 H 0.15206 0.45118 0.19953 0.0
H364 H 0.19163 0.55187 0.26465 0.0
H365 H 0.1651 0.55841 0.22211 0.0
H366 H 0.06974 0.47663 0.2073 0.0
H367 H 0.10703 0.50103 0.18287 0.0
Li368 Li 0.76126 0.64299 0.99453 0.0
Li369 Li 0.77425 0.66477 0.01216 0.0
Li370 Li 0.77874 0.66401 0.98425 0.0
Li371 Li 0.79206 0.64455 1.00057 0.0
C372 C 0.7416 0.6681 0.99144 0.0
N373 N 0.70815 0.66967 0.9848 0.0
C374 C 0.73148 0.6739 0.00243 0.0
C375 C 0.73475 0.66333 0.97702 0.0
C376 C 0.71459 0.67455 0.99886 0.0
C377 C 0.7178 0.66414 0.9739 0.0
C378 C 0.77404 0.63656 0.02855 0.0
C379 C 0.78868 0.63403 0.05256 0.0
N380 N 0.77451 0.62823 0.05812 0.0
C381 C 0.75968 0.63034 0.03445 0.0
C382 C 0.78871 0.63824 0.03762 0.0
C383 C 0.76015 0.62629 0.04945 0.0
C384 C 0.74269 0.61557 0.98039 0.0
N385 N 0.74235 0.6282 0.99095 0.0
C386 C 0.71532 0.61917 0.997 0.0
C387 C 0.72909 0.63011 0.99929 0.0
C388 C 0.71533 0.60597 0.9862 0.0
C389 C 0.72925 0.60424 0.97784 0.0
H390 H 0.75346 0.61421 0.97405 0.0
H391 H 0.72926 0.64003 0.00784 0.0
C392 C 0.78058 0.69193 0.0337 0.0
N393 N 0.77094 0.67806 0.02997 0.0
C394 C 0.77832 0.70141 0.04689 0.0
C395 C 0.75599 0.68239 0.05194 0.0
C396 C 0.75868 0.67331 0.03868 0.0
C397 C 0.76595 0.69661 0.05628 0.0
H398 H 0.79004 0.69565 0.02645 0.0
H399 H 0.75083 0.66255 0.03523 0.0
C400 C 0.78325 0.63696 0.96634 0.0
N401 N 0.79126 0.63187 0.93688 0.0
C402 C 0.79936 0.63365 0.96311 0.0
C403 C 0.77116 0.63745 0.9546 0.0
C404 C 0.80318 0.63116 0.94814 0.0
C405 C 0.77546 0.63492 0.93977 0.0
C406 C 0.81075 0.67423 0.00669 0.0
C407 C 0.82158 0.68038 0.99659 0.0
C408 C 0.81606 0.67361 0.02182 0.0
C409 C 0.83766 0.68551 1.00174 0.0
C410 C 0.83224 0.67885 0.02654 0.0
N411 N 0.84262 0.68462 0.01648 0.0
C412 C 0.76939 0.68743 0.96358 0.0
C413 C 0.79466 0.67562 0.95891 0.0
C414 C 0.77047 0.69672 0.95099 0.0
N415 N 0.7813 0.67701 0.96721 0.0
C416 C 0.79624 0.68465 0.94622 0.0
C417 C 0.78399 0.69534 0.94204 0.0
H418 H 0.75902 0.68858 0.97047 0.0
H419 H 0.80409 0.66743 0.96209 0.0
C420 C 0.80691 0.61638 0.00961 0.0
N421 N 0.81046 0.63123 0.00417 0.0
C422 C 0.81937 0.60567 0.01253 0.0
C423 C 0.839 0.62558 0.00396 0.0
C424 C 0.82612 0.63592 1.0012 0.0
C425 C 0.8357 0.6102 0.0097 0.0
H426 H 0.79433 0.61283 0.0117 0.0
H427 H 0.82864 0.64753 0.99645 0.0
O428 O 0.75814 0.66717 0.99477 0.0
O429 O 0.77378 0.64064 0.01389 0.0
O430 O 0.77932 0.63956 0.98093 0.0
O431 O 0.79497 0.6691 1.00181 0.0
H432 H 0.73658 0.67783 0.01359 0.0
H433 H 0.74243 0.659 0.96835 0.0
H434 H 0.70659 0.67892 0.00728 0.0
H435 H 0.71233 0.66038 0.96281 0.0
H436 H 0.79995 0.63533 0.0597 0.0
H437 H 0.74826 0.62877 0.02756 0.0
H438 H 0.80003 0.64256 0.03315 0.0
H439 H 0.74909 0.6216 0.05418 0.0
H440 H 0.70494 0.62081 0.00384 0.0
H441 H 0.7297 0.59429 0.96935 0.0
H442 H 0.78633 0.71224 0.04979 0.0
H443 H 0.74605 0.67843 0.05862 0.0
H444 H 0.80886 0.63315 0.97206 0.0
H445 H 0.75858 0.63975 0.95689 0.0
H446 H 0.81563 0.6287 0.94548 0.0
H447 H 0.76625 0.63536 0.93057 0.0
H448 H 0.81764 0.68114 0.98489 0.0
H449 H 0.80775 0.66931 0.02987 0.0
H450 H 0.8462 0.6902 0.99403 0.0
H451 H 0.83651 0.67839 0.03821 0.0
H452 H 0.76089 0.70502 0.9484 0.0
H453 H 0.80681 0.68306 0.93962 0.0
H454 H 0.81626 0.59401 0.01708 0.0
H455 H 0.85134 0.62946 1.00134 0.0
Li456 Li 0.90365 0.03373 0.25224 0.0
Li457 Li 0.92369 0.0158 0.2636 0.0
Li458 Li 0.92295 0.02023 0.23568 0.0
Li459 Li 0.90169 0.00291 0.24659 0.0
C460 C 0.93328 0.05262 0.25415 0.0
N461 N 0.94348 0.08546 0.25597 0.0
C462 C 0.94 0.06016 0.26777 0.0
C463 C 0.93204 0.06172 0.24141 0.0
C464 C 0.945 0.0768 0.26848 0.0
C465 C 0.93718 0.07832 0.24257 0.0
C466 C 0.89771 0.01383 0.28079 0.0
C467 C 0.89827 0.99687 0.30201 0.0
N468 N 0.89468 0.01 0.31106 0.0
C469 C 0.89384 0.0271 0.29027 0.0
C470 C 0.89977 0.99855 0.28667 0.0
C471 C 0.89242 0.02493 0.30555 0.0
C472 C 0.87645 0.0533 0.24748 0.0
N473 N 0.891 0.05257 0.25567 0.0
C474 C 0.88615 0.07752 0.2697 0.0
C475 C 0.89597 0.06434 0.26663 0.0
C476 C 0.87102 0.0786 0.26143 0.0
C477 C 0.8663 0.06631 0.25009 0.0
H478 H 0.87259 0.04364 0.23903 0.0
H479 H 0.90728 0.06324 0.27336 0.0
C480 C 0.94744 1.00021 0.2817 0.0
N481 N 0.93734 0.01295 0.2814 0.0
C482 C 0.95673 0.99733 0.29489 0.0
C483 C 0.94532 0.02091 0.30712 0.0
C484 C 0.93632 0.02337 0.29369 0.0
C485 C 0.95564 0.00766 0.3079 0.0
H486 H 0.94822 0.99222 0.27173 0.0
H487 H 0.92828 0.03346 0.29316 0.0
C488 C 0.89349 0.02508 0.21867 0.0
N489 N 0.88331 0.03367 0.19022 0.0
C490 C 0.8863 0.01319 0.20805 0.0
C491 C 0.8952 0.04139 0.2149 0.0
C492 C 0.88132 0.01776 0.1937 0.0
C493 C 0.89005 0.04548 0.20044 0.0
C494 C 0.92681 0.98325 0.24259 0.0
C495 C 0.93104 0.97795 0.22824 0.0
C496 C 0.92359 0.97171 0.25311 0.0
C497 C 0.93166 0.96116 0.22457 0.0
C498 C 0.92431 0.95502 0.24901 0.0
N499 N 0.92828 0.95014 0.23493 0.0
C500 C 0.95044 0.03151 0.2202 0.0
C501 C 0.93019 0.01541 0.20495 0.0
C502 C 0.95998 0.03351 0.20788 0.0
N503 N 0.93576 0.02271 0.21851 0.0
C504 C 0.93931 0.01709 0.19234 0.0
C505 C 0.95442 0.02629 0.19367 0.0
H506 H 0.95477 0.03699 0.23114 0.0
H507 H 0.9188 0.008 0.20395 0.0
C508 C 0.87511 0.98151 0.25295 0.0
N509 N 0.88665 0.98416 0.24288 0.0
C510 C 0.86391 0.96795 0.25082 0.0
C511 C 0.87651 0.96017 0.22786 0.0
C512 C 0.88744 0.97391 0.23043 0.0
C513 C 0.86453 0.95703 0.23814 0.0
H514 H 0.87455 0.98995 0.26265 0.0
H515 H 0.8965 0.97643 0.22242 0.0
O516 O 0.92826 0.03635 0.25327 0.0
O517 O 0.8994 0.01579 0.26583 0.0
O518 O 0.89849 0.02079 0.23275 0.0
O519 O 0.92596 0.99965 0.24633 0.0
H520 H 0.94127 0.05328 0.2777 0.0
H521 H 0.92734 0.056 0.23069 0.0
H522 H 0.9501 0.08281 0.27897 0.0
H523 H 0.93624 0.08551 0.23279 0.0
H524 H 0.89995 0.98514 0.30672 0.0
H525 H 0.89204 0.03897 0.28592 0.0
H526 H 0.90252 0.98809 0.27949 0.0
H527 H 0.88954 0.03513 0.31302 0.0
H528 H 0.89017 0.08647 0.27876 0.0
H529 H 0.85486 0.06667 0.24331 0.0
H530 H 0.96474 0.98715 0.29485 0.0
H531 H 0.94392 0.02911 0.31687 0.0
H532 H 0.88469 1.00054 0.2108 0.0
H533 H 0.90024 0.05084 0.22309 0.0
H534 H 0.87587 0.00865 0.18534 0.0
H535 H 0.89136 0.05806 0.19738 0.0
H536 H 0.93377 0.98668 0.22001 0.0
H537 H 0.92053 0.97557 0.26432 0.0
H538 H 0.93483 0.95689 0.21347 0.0
H539 H 0.92174 0.94596 0.25702 0.0
H540 H 0.9715 0.04079 0.20944 0.0
H541 H 0.9347 0.01097 0.18172 0.0
H542 H 0.85498 0.96596 0.2591 0.0
H543 H 0.87727 0.95224 0.21781 0.0
Li544 Li 0.27461 0.16452 0.51227 0.0
Li545 Li 0.2614 0.14249 0.49503 0.0
Li546 Li 0.29228 0.14411 0.50127 0.0
Li547 Li 0.27933 0.16331 0.4844 0.0
C548 C 0.27255 0.1378 0.52939 0.0
N549 N 0.26974 0.13273 0.55946 0.0
C550 C 0.25736 0.13275 0.53451 0.0
C551 C 0.28637 0.13998 0.53951 0.0
C552 C 0.25617 0.13034 0.54977 0.0
C553 C 0.28469 0.13743 0.55468 0.0
C554 C 0.24259 0.16865 0.49004 0.0
C555 C 0.22054 0.16621 0.4706 0.0
N556 N 0.21017 0.17251 0.48053 0.0
C557 C 0.23176 0.17527 0.50001 0.0
C558 C 0.23699 0.16423 0.47518 0.0
C559 C 0.21539 0.17706 0.495 0.0
C560 C 0.28223 0.19082 0.53445 0.0
N561 N 0.27124 0.1782 0.52981 0.0
C562 C 0.25499 0.18421 0.55064 0.0
C563 C 0.25769 0.17493 0.53749 0.0
C564 C 0.26626 0.19716 0.55588 0.0
C565 C 0.27997 0.20049 0.54753 0.0
H566 H 0.29278 0.19336 0.52803 0.0
H567 H 0.24892 0.16511 0.53337 0.0
C568 C 0.24352 0.11393 0.48251 0.0
N569 N 0.24241 0.12782 0.49145 0.0
C570 C 0.23004 0.10265 0.47997 0.0
C571 C 0.2145 0.12015 0.49589 0.0
C572 C 0.22832 0.13102 0.49821 0.0
C573 C 0.21527 0.10571 0.4867 0.0
H574 H 0.25495 0.11153 0.47745 0.0
H575 H 0.22787 0.14189 0.50562 0.0
C576 C 0.31169 0.17286 0.50572 0.0
N577 N 0.3446 0.18126 0.51309 0.0
C578 C 0.32179 0.1785 0.49481 0.0
C579 C 0.31828 0.17173 0.52043 0.0
C580 C 0.3384 0.18263 0.49875 0.0
C581 C 0.33495 0.17597 0.52392 0.0
C582 C 0.28263 0.13463 0.46706 0.0
C583 C 0.29849 0.13091 0.46334 0.0
C584 C 0.26981 0.13368 0.45584 0.0
C585 C 0.30134 0.12664 0.44838 0.0
C586 C 0.27315 0.12937 0.44102 0.0
N587 N 0.28872 0.12599 0.43762 0.0
C588 C 0.30751 0.11699 0.51244 0.0
C589 C 0.32592 0.13456 0.50053 0.0
C590 C 0.31999 0.10633 0.51547 0.0
N591 N 0.31065 0.13084 0.50517 0.0
C592 C 0.3388 0.12427 0.50339 0.0
C593 C 0.3359 0.10989 0.51091 0.0
H594 H 0.29523 0.11415 0.51581 0.0
H595 H 0.32806 0.14532 0.49435 0.0
C596 C 0.27128 0.18782 0.46441 0.0
N597 N 0.28202 0.17597 0.46716 0.0
C598 C 0.27245 0.19699 0.45176 0.0
C599 C 0.29601 0.18197 0.44517 0.0
C600 C 0.29437 0.17309 0.45794 0.0
C601 C 0.28488 0.19406 0.44187 0.0
H602 H 0.2618 0.1902 0.47207 0.0
H603 H 0.30303 0.16392 0.4605 0.0
O604 O 0.2739 0.1404 0.51451 0.0
O605 O 0.25862 0.16662 0.49479 0.0
O606 O 0.2954 0.16868 0.50205 0.0
O607 O 0.27964 0.13886 0.48165 0.0
H608 H 0.24656 0.13086 0.52681 0.0
H609 H 0.29829 0.14348 0.53569 0.0
H610 H 0.24446 0.12657 0.5539 0.0
H611 H 0.29528 0.13915 0.56265 0.0
H612 H 0.21604 0.16277 0.45914 0.0
H613 H 0.23592 0.17894 0.5115 0.0
H614 H 0.24528 0.15938 0.46727 0.0
H615 H 0.20685 0.18208 0.50262 0.0
H616 H 0.24408 0.18141 0.55654 0.0
H617 H 0.289 0.21031 0.55118 0.0
H618 H 0.23113 0.09171 0.47273 0.0
H619 H 0.20345 0.12285 0.5015 0.0
H620 H 0.31687 0.17963 0.48343 0.0
H621 H 0.31059 0.16772 0.52908 0.0
H622 H 0.34638 0.18692 0.49039 0.0
H623 H 0.34022 0.17508 0.53524 0.0
H624 H 0.30854 0.13146 0.47187 0.0
H625 H 0.25739 0.13612 0.45856 0.0
H626 H 0.31358 0.12386 0.44533 0.0
H627 H 0.26335 0.12865 0.43222 0.0
H628 H 0.31722 0.09545 0.52139 0.0
H629 H 0.35081 0.12734 0.49944 0.0
H630 H 0.2638 0.20641 0.44986 0.0
H631 H 0.30575 0.17923 0.43785 0.0
Li632 Li 0.4234 0.51865 0.76483 0.0
Li633 Li 0.40335 0.53507 0.75315 0.0
Li634 Li 0.4016 0.50561 0.74802 0.0
Li635 Li 0.42341 0.52346 0.7368 0.0
C636 C 0.39907 0.5162 0.7824 0.0
N637 N 0.39941 0.51281 0.81304 0.0
C638 C 0.3971 0.52981 0.79223 0.0
C639 C 0.40116 0.50087 0.78817 0.0
C640 C 0.39729 0.52784 0.80767 0.0
C641 C 0.40134 0.49941 0.80369 0.0
C642 C 0.43025 0.55599 0.75697 0.0
C643 C 0.4389 0.5823 0.74842 0.0
N644 N 0.43522 0.58961 0.76179 0.0
C645 C 0.42658 0.56376 0.77062 0.0
C646 C 0.43646 0.56532 0.74577 0.0
C647 C 0.42916 0.58077 0.77284 0.0
C648 C 0.44651 0.50185 0.78252 0.0
N649 N 0.43759 0.51547 0.78236 0.0
C650 C 0.44743 0.52343 0.80767 0.0
C651 C 0.43817 0.52636 0.79451 0.0
C652 C 0.4565 0.50928 0.80832 0.0
C653 C 0.45609 0.49852 0.79541 0.0
H654 H 0.44611 0.49349 0.77267 0.0
H655 H 0.43111 0.53714 0.79417 0.0
C656 C 0.37554 0.55026 0.7633 0.0
N657 N 0.38928 0.55328 0.75578 0.0
C658 C 0.36462 0.56257 0.76591 0.0
C659 C 0.38179 0.58087 0.75254 0.0
C660 C 0.3923 0.56812 0.75005 0.0
C661 C 0.36778 0.5782 0.76066 0.0
H662 H 0.37305 0.53822 0.76729 0.0
H663 H 0.40278 0.57009 0.74344 0.0
C664 C 0.42629 0.48649 0.74264 0.0
N665 N 0.42633 0.4539 0.73253 0.0
C666 C 0.4301 0.48228 0.72791 0.0
C667 C 0.42267 0.47412 0.75227 0.0
C668 C 0.43002 0.46573 0.723 0.0
C669 C 0.42269 0.45772 0.74693 0.0
C670 C 0.38736 0.53127 0.72659 0.0
C671 C 0.37084 0.52759 0.72901 0.0
C672 C 0.39158 0.5443 0.71788 0.0
C673 C 0.35877 0.53715 0.72274 0.0
C674 C 0.37914 0.55355 0.71179 0.0
N675 N 0.36313 0.54983 0.71435 0.0
C676 C 0.37648 0.48242 0.75447 0.0
C677 C 0.38655 0.47817 0.73031 0.0
C678 C 0.36561 0.46866 0.75186 0.0
N679 N 0.38682 0.48676 0.74384 0.0
C680 C 0.37592 0.46426 0.72724 0.0
C681 C 0.36528 0.45928 0.73813 0.0
H682 H 0.37654 0.48973 0.76494 0.0
H683 H 0.39466 0.48208 0.72192 0.0
C684 C 0.45249 0.53097 0.72201 0.0
N685 N 0.43633 0.52591 0.71989 0.0
C686 C 0.46211 0.53259 0.70969 0.0
C687 C 0.43835 0.52342 0.69326 0.0
C688 C 0.42916 0.52214 0.70589 0.0
C689 C 0.4551 0.52875 0.69502 0.0
H690 H 0.45789 0.53382 0.7333 0.0
H691 H 0.41632 0.51794 0.70454 0.0
O692 O 0.39912 0.51791 0.76724 0.0
O693 O 0.42793 0.53933 0.7546 0.0
O694 O 0.42606 0.50264 0.74757 0.0
O695 O 0.39938 0.52239 0.733 0.0
H696 H 0.3957 0.54183 0.78804 0.0
H697 H 0.40277 0.49021 0.78077 0.0
H698 H 0.39587 0.53829 0.8154 0.0
H699 H 0.40303 0.48763 0.8083 0.0
H700 H 0.44366 0.58968 0.73984 0.0
H701 H 0.42146 0.5568 0.77929 0.0
H702 H 0.43925 0.55956 0.73508 0.0
H703 H 0.42625 0.58694 0.78331 0.0
H704 H 0.44714 0.53201 0.81734 0.0
H705 H 0.46314 0.48763 0.79521 0.0
H706 H 0.35395 0.55997 0.7722 0.0
H707 H 0.38446 0.59262 0.74799 0.0
H708 H 0.43301 0.49166 0.72031 0.0
H709 H 0.41974 0.47715 0.7637 0.0
H710 H 0.43287 0.46229 0.71161 0.0
H711 H 0.4198 0.44804 0.75424 0.0
H712 H 0.36743 0.51757 0.73579 0.0
H713 H 0.40435 0.54736 0.71602 0.0
H714 H 0.34593 0.53453 0.72459 0.0
H715 H 0.38221 0.56374 0.70511 0.0
H716 H 0.35737 0.46555 0.76045 0.0
H717 H 0.37617 0.45739 0.71653 0.0
H718 H 0.47486 0.53698 0.71167 0.0
H719 H 0.43243 0.51998 0.68226 0.0
Li720 Li 0.775 0.38928 0.50563 0.0
Li721 Li 0.76068 0.36815 0.51915 0.0
Li722 Li 0.75728 0.36584 0.49221 0.0
Li723 Li 0.74503 0.38824 0.50811 0.0
C724 C 0.78981 0.35729 0.51263 0.0
N725 N 0.81238 0.34098 0.52979 0.0
C726 C 0.79683 0.3646 0.52625 0.0
C727 C 0.79444 0.34176 0.50767 0.0
C728 C 0.80816 0.35613 0.53478 0.0
C729 C 0.80584 0.3337 0.51652 0.0
C730 C 0.75847 0.40514 0.53282 0.0
C731 C 0.74035 0.41697 0.55038 0.0
N732 N 0.74836 0.43186 0.54961 0.0
C733 C 0.76667 0.42051 0.53239 0.0
C734 C 0.74535 0.40331 0.54207 0.0
C735 C 0.76133 0.43388 0.5409 0.0
C736 C 0.79129 0.4189 0.49857 0.0
N737 N 0.79389 0.40363 0.50317 0.0
C738 C 0.82302 0.40855 0.50251 0.0
C739 C 0.80938 0.3983 0.50506 0.0
C740 C 0.82075 0.42438 0.49767 0.0
C741 C 0.80456 0.42949 0.4957 0.0
H742 H 0.77885 0.4228 0.49694 0.0
H743 H 0.81122 0.38602 0.50836 0.0
C744 C 0.76379 0.33834 0.53397 0.0
N745 N 0.76293 0.35487 0.53617 0.0
C746 C 0.76621 0.32866 0.54621 0.0
C747 C 0.76675 0.35316 0.56277 0.0
C748 C 0.76433 0.36236 0.55022 0.0
C749 C 0.76783 0.33607 0.56087 0.0
H750 H 0.76289 0.33271 0.52267 0.0
H751 H 0.76379 0.37552 0.55167 0.0
C752 C 0.76336 0.39566 0.47681 0.0
N753 N 0.77659 0.40698 0.45139 0.0
C754 C 0.7566 0.40883 0.4698 0.0
C755 C 0.7769 0.38828 0.47095 0.0
C756 C 0.76345 0.41436 0.45694 0.0
C757 C 0.78339 0.39418 0.45807 0.0
C758 C 0.73181 0.3521 0.51373 0.0
C759 C 0.7306 0.33598 0.50747 0.0
C760 C 0.72498 0.35572 0.52743 0.0
C761 C 0.72295 0.32368 0.51522 0.0
C762 C 0.71746 0.34308 0.53485 0.0
N763 N 0.71663 0.32745 0.52866 0.0
C764 C 0.75883 0.33573 0.47537 0.0
C765 C 0.74963 0.35721 0.46089 0.0
C766 C 0.75803 0.32495 0.46259 0.0
N767 N 0.75482 0.35156 0.47431 0.0
C768 C 0.749 0.34696 0.44776 0.0
C769 C 0.75331 0.33055 0.44843 0.0
H770 H 0.76258 0.33143 0.48621 0.0
H771 H 0.74621 0.36976 0.4603 0.0
C772 C 0.72951 0.41852 0.50952 0.0
N773 N 0.72679 0.402 0.50967 0.0
C774 C 0.71678 0.42897 0.51211 0.0
C775 C 0.69843 0.40516 0.51401 0.0
C776 C 0.71158 0.3952 0.5116 0.0
C777 C 0.70096 0.42235 0.51457 0.0
H778 H 0.74171 0.42362 0.50782 0.0
H779 H 0.70966 0.38202 0.51143 0.0
O780 O 0.77836 0.36524 0.50432 0.0
O781 O 0.76339 0.39195 0.52439 0.0
O782 O 0.75701 0.39029 0.48957 0.0
O783 O 0.7395 0.36427 0.5064 0.0
H784 H 0.7934 0.37662 0.53026 0.0
H785 H 0.78936 0.336 0.49708 0.0
H786 H 0.81356 0.36159 0.5454 0.0
H787 H 0.80949 0.32166 0.51284 0.0
H788 H 0.73011 0.41574 0.55745 0.0
H789 H 0.77706 0.42213 0.5256 0.0
H790 H 0.73901 0.3915 0.54275 0.0
H791 H 0.76751 0.44586 0.54058 0.0
H792 H 0.83522 0.40407 0.50436 0.0
H793 H 0.8021 0.44143 0.49171 0.0
H794 H 0.7672 0.31557 0.54418 0.0
H795 H 0.76776 0.35937 0.57386 0.0
H796 H 0.74619 0.41473 0.47429 0.0
H797 H 0.78236 0.37815 0.47632 0.0
H798 H 0.75834 0.42454 0.45138 0.0
H799 H 0.79386 0.38859 0.45341 0.0
H800 H 0.73551 0.33297 0.49676 0.0
H801 H 0.72557 0.36812 0.53234 0.0
H802 H 0.72204 0.31113 0.51055 0.0
H803 H 0.71227 0.3457 0.54554 0.0
H804 H 0.76102 0.31234 0.46387 0.0
H805 H 0.74546 0.35202 0.43718 0.0
H806 H 0.71947 0.44209 0.51259 0.0
H807 H 0.68642 0.39942 0.51545 0.0
Li808 Li 0.64329 0.98131 0.75253 0.0
Li809 Li 0.62408 0.99943 0.76447 0.0
Li810 Li 0.62284 0.994 0.73701 0.0
Li811 Li 0.64544 0.01107 0.7501 0.0
C812 C 0.61685 0.96246 0.75602 0.0
N813 N 0.61427 0.93017 0.76347 0.0
C814 C 0.61373 0.95872 0.77068 0.0
C815 C 0.61852 0.94978 0.74512 0.0
C816 C 0.61249 0.94231 0.77423 0.0
C817 C 0.61722 0.93354 0.74912 0.0
C818 C 0.66211 0.00669 0.77507 0.0
C819 C 0.67622 0.02989 0.78909 0.0
N820 N 0.69089 0.02329 0.78665 0.0
C821 C 0.67731 1.00011 0.77272 0.0
C822 C 0.66152 0.02166 0.78335 0.0
C823 C 0.69173 0.0087 0.77868 0.0
C824 C 0.6647 0.95601 0.74456 0.0
N825 N 0.65577 0.96246 0.7556 0.0
C826 C 0.66553 0.94298 0.77253 0.0
C827 C 0.65608 0.9563 0.76941 0.0
C828 C 0.67501 0.93606 0.76141 0.0
C829 C 0.67444 0.94274 0.74722 0.0
H830 H 0.66454 0.96136 0.73378 0.0
H831 H 0.64908 0.96187 0.77807 0.0
C832 C 0.59461 0.00211 0.77959 0.0
N833 N 0.61132 0.00245 0.78155 0.0
C834 C 0.58509 0.00454 0.79192 0.0
C835 C 0.61008 0.00668 0.80816 0.0
C836 C 0.61914 0.00455 0.79548 0.0
C837 C 0.59284 0.00683 0.80643 0.0
H838 H 0.58869 0.99999 0.76843 0.0
H839 H 0.63242 0.00448 0.79675 0.0
C840 C 0.64718 0.99172 0.71914 0.0
N841 N 0.64633 0.98922 0.68812 0.0
C842 C 0.65125 0.00545 0.71124 0.0
C843 C 0.64277 0.97671 0.71128 0.0
C844 C 0.65074 0.00393 0.69555 0.0
C845 C 0.64237 0.9757 0.69559 0.0
C846 C 0.60962 0.02477 0.75322 0.0
C847 C 0.59396 0.02305 0.74578 0.0
C848 C 0.61247 0.0358 0.76578 0.0
C849 C 0.58138 0.03237 0.75109 0.0
C850 C 0.59956 0.04486 0.77076 0.0
N851 N 0.58441 0.04298 0.76337 0.0
C852 C 0.59778 0.9788 0.71622 0.0
C853 C 0.60922 0.00442 0.70974 0.0
C854 C 0.58711 0.97775 0.70327 0.0
N855 N 0.60855 0.99199 0.71916 0.0
C856 C 0.59894 0.0038 0.6966 0.0
C857 C 0.58758 0.99038 0.69322 0.0
H858 H 0.59732 0.9692 0.72402 0.0
H859 H 0.61774 0.01489 0.71248 0.0
C860 C 0.67577 0.02666 0.7438 0.0
N861 N 0.66044 0.02942 0.74826 0.0
C862 C 0.68681 0.03983 0.74171 0.0
C863 C 0.66618 0.05841 0.74905 0.0
C864 C 0.65551 0.04489 0.75091 0.0
C865 C 0.68205 0.056 0.74424 0.0
H866 H 0.6793 0.01421 0.74163 0.0
H867 H 0.64324 0.04677 0.75432 0.0
O868 O 0.61842 0.97845 0.75239 0.0
O869 O 0.64789 0.99872 0.76897 0.0
O870 O 0.6473 0.99302 0.73449 0.0
O871 O 0.62206 0.01563 0.74827 0.0
H872 H 0.61244 0.96838 0.77927 0.0
H873 H 0.62095 0.95247 0.73373 0.0
H874 H 0.61016 0.93923 0.78555 0.0
H875 H 0.6186 0.9236 0.74082 0.0
H876 H 0.67596 0.04154 0.79545 0.0
H877 H 0.678 0.9886 0.76624 0.0
H878 H 0.64985 0.02697 0.78517 0.0
H879 H 0.7036 0.0038 0.7769 0.0
H880 H 0.66538 0.93818 0.78357 0.0
H881 H 0.68176 0.93806 0.73838 0.0
H882 H 0.5718 0.00434 0.79019 0.0
H883 H 0.61646 0.00839 0.81919 0.0
H884 H 0.65455 0.0172 0.71712 0.0
H885 H 0.6395 0.96599 0.71722 0.0
H886 H 0.65377 0.01446 0.68928 0.0
H887 H 0.63888 0.96418 0.68936 0.0
H888 H 0.59148 0.01452 0.73609 0.0
H889 H 0.62444 0.03712 0.7718 0.0
H890 H 0.56919 0.03112 0.74548 0.0
H891 H 0.60156 0.05334 0.78054 0.0
H892 H 0.5784 0.9673 0.70132 0.0
H893 H 0.59998 0.01372 0.68915 0.0
H894 H 0.6988 0.03733 0.73778 0.0
H895 H 0.66202 0.07062 0.75136 0.0
Li896 Li 0.0378 0.25568 0.86326 0.0
Li897 Li 0.02054 0.26778 0.88158 0.0
Li898 Li 0.02505 0.2384 0.88235 0.0
Li899 Li 0.00751 0.24951 0.86231 0.0
C900 C 0.05115 0.26966 0.89355 0.0
N901 N 0.06881 0.29524 0.9099 0.0
C902 C 0.06031 0.28131 0.88622 0.0
C903 C 0.05088 0.27115 0.90921 0.0
C904 C 0.0692 0.29409 0.89467 0.0
C905 C 0.0599 0.28414 0.91727 0.0
C906 C 0.01827 0.28689 0.85827 0.0
C907 C 0.00217 0.31083 0.85976 0.0
N908 N 0.01534 0.32017 0.85589 0.0
C909 C 0.03162 0.29671 0.85423 0.0
C910 C 0.00339 0.29398 0.86096 0.0
C911 C 0.0299 0.31351 0.85311 0.0
C912 C 0.05275 0.26204 0.8365 0.0
N913 N 0.05598 0.25793 0.85087 0.0
C914 C 0.0848 0.25771 0.8472 0.0
C915 C 0.07159 0.25551 0.85627 0.0
C916 C 0.0819 0.26232 0.83238 0.0
C917 C 0.06558 0.26433 0.82702 0.0
H918 H 0.0402 0.26378 0.83247 0.0
H919 H 0.0738 0.25206 0.8677 0.0
C920 C 0.00669 0.28459 0.90565 0.0
N921 N 0.01737 0.28676 0.89474 0.0
C922 C 0.0038 0.29754 0.91587 0.0
C923 C 0.023 0.31482 0.90356 0.0
C924 C 0.02561 0.3015 0.89363 0.0
C925 C 0.01198 0.31292 0.91489 0.0
H926 H 1.00046 0.27274 0.90649 0.0
H927 H 0.03431 0.30294 0.88514 0.0
C928 C 0.03566 0.22199 0.85608 0.0
N929 N 0.05708 0.19845 0.84777 0.0
C930 C 0.03195 0.21171 0.84314 0.0
C931 C 0.05028 0.22033 0.86479 0.0
C932 C 0.04293 0.19987 0.83913 0.0
C933 C 0.06095 0.20835 0.8604 0.0
C934 C 0.98821 0.2448 0.88454 0.0
C935 C 0.98363 0.22858 0.8872 0.0
C936 C 0.97607 0.256 0.88205 0.0
C937 C 0.96692 0.22377 0.88709 0.0
C938 C 0.9595 0.2507 0.88201 0.0
N939 N 0.9553 0.23483 0.88449 0.0
C940 C 0.03163 0.22375 0.90976 0.0
C941 C 0.02466 0.20454 0.88921 0.0
C942 C 0.03327 0.21113 0.91954 0.0
N943 N 0.02753 0.2203 0.8949 0.0
C944 C 0.02617 0.19151 0.89859 0.0
C945 C 0.03053 0.19471 0.91401 0.0
H946 H 0.03349 0.23633 0.91408 0.0
H947 H 0.021 0.20208 0.87742 0.0
C948 C 0.98369 0.25673 0.83967 0.0
N949 N 0.98846 0.24489 0.84881 0.0
C950 C 0.96972 0.25406 0.82981 0.0
C951 C 0.96589 0.2269 0.83873 0.0
C952 C 0.98004 0.23007 0.84836 0.0
C953 C 0.9605 0.23902 0.8293 0.0
H954 H 0.9908 0.26825 0.83994 0.0
H955 H 0.98426 0.22073 0.85554 0.0
O956 O 0.04223 0.25713 0.88542 0.0
O957 O 0.01971 0.2704 0.85938 0.0
O958 O 0.02509 0.23372 0.86006 0.0
O959 O 0.00449 0.2497 0.8844 0.0
H960 H 0.06032 0.28074 0.87413 0.0
H961 H 0.04363 0.26254 0.91512 0.0
H962 H 0.07629 0.30319 0.88912 0.0
H963 H 0.05975 0.28543 0.92938 0.0
H964 H 0.99076 0.31649 0.8619 0.0
H965 H 0.04323 0.29146 0.85209 0.0
H966 H 0.99292 0.28656 0.86405 0.0
H967 H 0.04015 0.32127 0.85006 0.0
H968 H 0.09715 0.25578 0.85172 0.0
H969 H 0.06277 0.26801 0.81573 0.0
H970 H 0.99512 0.29556 0.92438 0.0
H971 H 0.02977 0.32639 0.90255 0.0
H972 H 0.02069 0.21288 0.83628 0.0
H973 H 0.05336 0.2282 0.87483 0.0
H974 H 0.04021 0.19181 0.82915 0.0
H975 H 0.0723 0.20693 0.86703 0.0
H976 H 0.99286 0.21977 0.88919 0.0
H977 H 0.97941 0.26862 0.88012 0.0
H978 H 0.9632 0.21123 0.88903 0.0
H979 H 0.94997 0.25921 0.88001 0.0
H980 H 0.03678 0.21423 0.93129 0.0
H981 H 0.02364 0.17908 0.89385 0.0
H982 H 0.96633 0.26363 0.82251 0.0
H983 H 0.95915 0.21516 0.83883 0.0
Li984 Li 0.5355 0.75382 0.36362 0.0
Li985 Li 0.51763 0.76611 0.38205 0.0
Li986 Li 0.52266 0.73582 0.38154 0.0
Li987 Li 0.50472 0.74746 0.36206 0.0
C988 C 0.55472 0.75637 0.39108 0.0
N989 N 0.58746 0.75892 0.4015 0.0
C990 C 0.56183 0.7714 0.39717 0.0
C991 C 0.56418 0.74258 0.39052 0.0
C992 C 0.57843 0.77246 0.4023 0.0
C993 C 0.58073 0.74413 0.39579 0.0
C994 C 0.51518 0.785 0.3585 0.0
C995 C 0.4982 0.80832 0.3595 0.0
N996 N 0.5112 0.8181 0.35595 0.0
C997 C 0.52833 0.79525 0.35473 0.0
C998 C 0.49994 0.79154 0.36077 0.0
C999 C 0.52608 0.81196 0.35353 0.0
C1000 C 0.55441 0.74899 0.33845 0.0
N1001 N 0.55414 0.75753 0.35195 0.0
C1002 C 0.57948 0.77212 0.34784 0.0
C1003 C 0.5663 0.76898 0.35672 0.0
C1004 C 0.58012 0.76349 0.33381 0.0
C1005 C 0.56737 0.75173 0.32919 0.0
H1006 H 0.54441 0.74021 0.33474 0.0
H1007 H 0.56561 0.77597 0.36727 0.0
C1008 C 0.50323 0.78348 0.40553 0.0
N1009 N 0.51465 0.78493 0.39516 0.0
C1010 C 0.50057 0.79671 0.41552 0.0
C1011 C 0.52149 0.81277 0.404 0.0
C1012 C 0.52386 0.79915 0.39433 0.0
C1013 C 0.50975 0.81161 0.41482 0.0
H1014 H 0.49622 0.77199 0.40611 0.0
H1015 H 0.53313 0.7999 0.38623 0.0
C1016 C 0.5277 0.71711 0.35497 0.0
N1017 N 0.53751 0.6863 0.34631 0.0
C1018 C 0.51613 0.70505 0.3487 0.0
C1019 C 0.5443 0.71359 0.3566 0.0
C1020 C 0.52132 0.68952 0.34446 0.0
C1021 C 0.54901 0.69792 0.35221 0.0
C1022 C 0.48555 0.74277 0.385 0.0
C1023 C 0.48072 0.72683 0.38836 0.0
C1024 C 0.47362 0.7542 0.38258 0.0
C1025 C 0.46398 0.72252 0.389 0.0
C1026 C 0.45701 0.74941 0.3833 0.0
N1027 N 0.45257 0.73379 0.38645 0.0
C1028 C 0.5333 0.72158 0.40805 0.0
C1029 C 0.52036 0.70229 0.38968 0.0
C1030 C 0.53563 0.70929 0.41808 0.0
N1031 N 0.52587 0.7179 0.39412 0.0
C1032 C 0.52245 0.6896 0.39934 0.0
C1033 C 0.53015 0.69302 0.4138 0.0
H1034 H 0.53733 0.73412 0.41142 0.0
H1035 H 0.51401 0.6997 0.37877 0.0
C1036 C 0.48247 0.75465 0.3382 0.0
N1037 N 0.48567 0.74339 0.34845 0.0
C1038 C 0.4686 0.75245 0.32815 0.0
C1039 C 0.4616 0.727 0.33926 0.0
C1040 C 0.47569 0.72964 0.34902 0.0
C1041 C 0.45789 0.73852 0.32864 0.0
H1042 H 0.4907 0.76536 0.3378 0.0
H1043 H 0.47866 0.72068 0.35706 0.0
O1044 O 0.53849 0.75513 0.386 0.0
O1045 O 0.51719 0.76863 0.35985 0.0
O1046 O 0.52281 0.73237 0.3592 0.0
O1047 O 0.50188 0.74717 0.38417 0.0
H1048 H 0.55465 0.78215 0.39782 0.0
H1049 H 0.55878 0.73077 0.38624 0.0
H1050 H 0.58412 0.78404 0.40694 0.0
H1051 H 0.5882 0.73357 0.39539 0.0
H1052 H 0.4865 0.81356 0.36132 0.0
H1053 H 0.54016 0.79038 0.35281 0.0
H1054 H 0.4896 0.78376 0.36353 0.0
H1055 H 0.53618 0.82005 0.3507 0.0
H1056 H 0.58906 0.78124 0.35191 0.0
H1057 H 0.56716 0.74499 0.31837 0.0
H1058 H 0.49135 0.79534 0.42365 0.0
H1059 H 0.52899 0.82396 0.40324 0.0
H1060 H 0.50325 0.70761 0.34722 0.0
H1061 H 0.55348 0.7229 0.36105 0.0
H1062 H 0.51247 0.68003 0.33969 0.0
H1063 H 0.56182 0.69502 0.35345 0.0
H1064 H 0.48978 0.71786 0.39035 0.0
H1065 H 0.47715 0.76663 0.38015 0.0
H1066 H 0.46006 0.7102 0.3915 0.0
H1067 H 0.44764 0.7581 0.38136 0.0
H1068 H 0.54175 0.71249 0.42905 0.0
H1069 H 0.51774 0.67731 0.39565 0.0
H1070 H 0.46616 0.76169 0.32021 0.0
H1071 H 0.45381 0.71597 0.33987 0.0
Li1072 Li 0.01758 0.77611 0.61677 0.0
Li1073 Li 0.99958 0.76376 0.63469 0.0
Li1074 Li 0.02989 0.75876 0.63498 0.0
Li1075 Li 0.01079 0.74559 0.61494 0.0
C1076 C 0.02033 0.79629 0.64128 0.0
N1077 N 0.02299 0.8301 0.64495 0.0
C1078 C 0.00643 0.80508 0.644 0.0
C1079 C 0.03561 0.80466 0.64057 0.0
C1080 C 0.00803 0.82218 0.6458 0.0
C1081 C 0.03669 0.82177 0.6424 0.0
C1082 C 0.97955 0.76293 0.60734 0.0
C1083 C 0.95366 0.74732 0.60252 0.0
N1084 N 0.94673 0.76078 0.59716 0.0
C1085 C 0.97222 0.77656 0.60164 0.0
C1086 C 0.97024 0.74815 0.60767 0.0
C1087 C 0.9556 0.77525 0.59661 0.0
C1088 C 0.03424 0.7946 0.5961 0.0
N1089 N 0.02135 0.79472 0.60507 0.0
C1090 C 0.01391 0.82076 0.59661 0.0
C1091 C 0.01119 0.80743 0.60543 0.0
C1092 C 0.02721 0.82101 0.58732 0.0
C1093 C 0.03745 0.80768 0.58716 0.0
H1094 H 0.04194 0.78424 0.59572 0.0
H1095 H 1.00093 0.8072 0.61252 0.0
C1096 C 0.98517 0.76223 0.66202 0.0
N1097 N 0.98194 0.7665 0.64769 0.0
C1098 C 0.97321 0.76345 0.67251 0.0
C1099 C 0.95476 0.77356 0.65338 0.0
C1100 C 0.96714 0.77225 0.64328 0.0
C1101 C 0.95768 0.76908 0.66825 0.0
H1102 H 0.99711 0.75785 0.66528 0.0
H1103 H 0.96486 0.77585 0.63195 0.0
C1104 C 0.04839 0.75474 0.61158 0.0
N1105 N 0.0812 0.74841 0.60951 0.0
C1106 C 0.05279 0.73964 0.60532 0.0
C1107 C 0.06068 0.76669 0.61661 0.0
C1108 C 0.06945 0.73666 0.60441 0.0
C1109 C 0.07719 0.76323 0.61552 0.0
C1110 C 0.00462 0.72823 0.64091 0.0
C1111 C 0.01511 0.71636 0.64585 0.0
C1112 C 0.98757 0.72506 0.64052 0.0
C1113 C 0.00838 0.70135 0.64995 0.0
C1114 C 0.98132 0.70992 0.64473 0.0
N1115 N 0.99176 0.69846 0.6493 0.0
C1116 C 0.05364 0.76603 0.65943 0.0
C1117 C 0.05689 0.74108 0.64536 0.0
C1118 C 0.06716 0.76318 0.66918 0.0
N1119 N 0.0488 0.75502 0.64781 0.0
C1120 C 0.07057 0.73783 0.65468 0.0
C1121 C 0.07585 0.74888 0.6669 0.0
H1122 H 0.04686 0.77693 0.66125 0.0
H1123 H 0.05268 0.73242 0.63614 0.0
C1124 C 0.99816 0.72783 0.58816 0.0
N1125 N 0.00678 0.72654 0.60154 0.0
C1126 C 0.99544 0.71419 0.57797 0.0
C1127 C 0.01092 0.69827 0.5953 0.0
C1128 C 0.01324 0.71218 0.60519 0.0
C1129 C 0.00189 0.69916 0.58147 0.0
H1130 H 0.99355 0.7395 0.58532 0.0
H1131 H 0.0205 0.7116 0.61566 0.0
O1132 O 0.01897 0.77956 0.6393 0.0
O1133 O 0.99581 0.76405 0.61236 0.0
O1134 O 0.03215 0.75781 0.61274 0.0
O1135 O 0.01103 0.74303 0.63694 0.0
H1136 H 0.99452 0.79879 0.64458 0.0
H1137 H 0.0465 0.79803 0.63859 0.0
H1138 H 0.99736 0.82916 0.64782 0.0
H1139 H 0.04842 0.82843 0.64181 0.0
H1140 H 0.94632 0.73596 0.60274 0.0
H1141 H 0.97925 0.78805 0.60117 0.0
H1142 H 0.97579 0.73737 0.61168 0.0
H1143 H 0.94974 0.78572 0.59225 0.0
H1144 H 0.00576 0.83081 0.59714 0.0
H1145 H 0.04765 0.80719 0.57996 0.0
H1146 H 0.9762 0.76016 0.68389 0.0
H1147 H 0.94297 0.77784 0.64951 0.0
H1148 H 0.04345 0.73031 0.60125 0.0
H1149 H 0.05748 0.77846 0.62142 0.0
H1150 H 0.07303 0.725 0.59966 0.0
H1151 H 0.08682 0.77233 0.61948 0.0
H1152 H 0.02832 0.71865 0.64642 0.0
H1153 H 0.97923 0.73423 0.63716 0.0
H1154 H 0.01638 0.69201 0.65368 0.0
H1155 H 0.96815 0.7073 0.64443 0.0
H1156 H 0.07053 0.77193 0.67856 0.0
H1157 H 0.07697 0.72678 0.65227 0.0
H1158 H 0.98867 0.7155 0.56732 0.0
H1159 H 0.0161 0.68693 0.59846 0.0
Li1160 Li 0.51548 0.27596 0.11652 0.0
Li1161 Li 0.49886 0.26242 0.13412 0.0
Li1162 Li 0.52857 0.25873 0.13602 0.0
Li1163 Li 0.51022 0.24574 0.11543 0.0
C1164 C 0.50996 0.29039 0.14824 0.0
N1165 N 0.49441 0.31128 0.16756 0.0
C1166 C 0.50339 0.30465 0.14308 0.0
C1167 C 0.50858 0.28674 0.16323 0.0
C1168 C 0.49561 0.31507 0.15303 0.0
C1169 C 0.50067 0.29745 0.17281 0.0
C1170 C 0.47861 0.26756 0.11039 0.0
C1171 C 0.44937 0.26106 0.10983 0.0
N1172 N 0.44652 0.27695 0.10733 0.0
C1173 C 0.4754 0.28381 0.10775 0.0
C1174 C 0.4655 0.25606 0.11135 0.0
C1175 C 0.45909 0.28832 0.10624 0.0
C1176 C 0.51396 0.29217 0.08965 0.0
N1177 N 0.51958 0.29392 0.10433 0.0
C1178 C 0.53191 0.32043 0.10073 0.0
C1179 C 0.52846 0.30766 0.10999 0.0
C1180 C 0.52619 0.31902 0.0855 0.0
C1181 C 0.51706 0.30464 0.08 0.0
H1182 H 0.50713 0.28099 0.08542 0.0
H1183 H 0.53295 0.30866 0.12168 0.0
C1184 C 0.47851 0.2528 0.15679 0.0
N1185 N 0.48036 0.26436 0.14659 0.0
C1186 C 0.46625 0.25383 0.16699 0.0
C1187 C 0.45784 0.27865 0.15607 0.0
C1188 C 0.47029 0.27713 0.14606 0.0
C1189 C 0.45578 0.26697 0.16682 0.0
H1190 H 0.4868 0.24292 0.15725 0.0
H1191 H 0.47218 0.28646 0.1382 0.0
C1192 C 0.54646 0.26472 0.11064 0.0
N1193 N 0.57656 0.27824 0.10365 0.0
C1194 C 0.55405 0.25853 0.09807 0.0
C1195 C 0.55417 0.27777 0.11968 0.0
C1196 C 0.56928 0.26553 0.09472 0.0
C1197 C 0.56939 0.28444 0.11595 0.0
C1198 C 0.50768 0.2256 0.13701 0.0
C1199 C 0.52054 0.21564 0.14087 0.0
C1200 C 0.49206 0.21845 0.13263 0.0
C1201 C 0.5176 0.19862 0.14002 0.0
C1202 C 0.48962 0.20138 0.1319 0.0
N1203 N 0.50234 0.1919 0.13557 0.0
C1204 C 0.55034 0.26522 0.16192 0.0
C1205 C 0.55902 0.24532 0.14419 0.0
C1206 C 0.56416 0.26319 0.17155 0.0
N1207 N 0.54794 0.2562 0.14864 0.0
C1208 C 0.57309 0.24294 0.15344 0.0
C1209 C 0.57576 0.25187 0.1674 0.0
H1210 H 0.5415 0.27395 0.16511 0.0
H1211 H 0.55687 0.23841 0.13348 0.0
C1212 C 0.4939 0.22497 0.09202 0.0
N1213 N 0.50738 0.22678 0.10186 0.0
C1214 C 0.49164 0.21118 0.08198 0.0
C1215 C 0.51713 0.20133 0.09242 0.0
C1216 C 0.51901 0.21542 0.10212 0.0
C1217 C 0.50331 0.1991 0.08216 0.0
H1218 H 0.48494 0.23428 0.09193 0.0
H1219 H 0.52976 0.21733 0.10989 0.0
O1220 O 0.51747 0.27995 0.13862 0.0
O1221 O 0.49449 0.26289 0.11181 0.0
O1222 O 0.53152 0.25803 0.11399 0.0
O1223 O 0.51037 0.24228 0.1375 0.0
H1224 H 0.50406 0.30755 0.13147 0.0
H1225 H 0.5132 0.27555 0.16734 0.0
H1226 H 0.49043 0.32612 0.14917 0.0
H1227 H 0.4994 0.2947 0.1844 0.0
H1228 H 0.43911 0.25231 0.11063 0.0
H1229 H 0.48537 0.29291 0.10705 0.0
H1230 H 0.46775 0.24342 0.11331 0.0
H1231 H 0.45642 0.30087 0.10428 0.0
H1232 H 0.53888 0.33134 0.10548 0.0
H1233 H 0.51265 0.3029 0.0683 0.0
H1234 H 0.46503 0.24445 0.17497 0.0
H1235 H 0.45027 0.28915 0.15568 0.0
H1236 H 0.54822 0.24843 0.09097 0.0
H1237 H 0.54847 0.28274 0.12945 0.0
H1238 H 0.5753 0.26088 0.08501 0.0
H1239 H 0.57548 0.29456 0.12283 0.0
H1240 H 0.53267 0.22097 0.1444 0.0
H1241 H 0.48196 0.226 0.12972 0.0
H1242 H 0.52746 0.19075 0.14289 0.0
H1243 H 0.47762 0.19568 0.12842 0.0
H1244 H 0.56555 0.27021 0.18225 0.0
H1245 H 0.5818 0.23428 0.14963 0.0
H1246 H 0.48079 0.20987 0.07427 0.0
H1247 H 0.52651 0.1924 0.09277 0.0
H1248 H 0.22261 0.72965 0.83395 0.0
H1249 H 0.22446 0.74688 0.85735 0.0
H1250 H 0.27522 0.76046 0.85058 0.0
H1251 H 0.27351 0.74271 0.82735 0.0
H1252 H 0.27224 0.7563 0.87902 0.0
H1253 H 0.243 0.78614 0.84241 0.0
H1254 H 0.22143 0.79059 0.82267 0.0
H1255 H 0.18411 0.78263 0.85375 0.0
H1256 H 0.20545 0.77791 0.87362 0.0
H1257 H 0.27743 0.82842 0.9286 0.0
H1258 H 0.27663 0.80932 0.90639 0.0
H1259 H 0.22835 0.79053 0.91626 0.0
H1260 H 0.22899 0.80976 0.93843 0.0
H1261 H 0.23035 0.79754 0.8864 0.0
H1262 H 0.26086 0.76835 0.92324 0.0
H1263 H 0.2832 0.76505 0.94257 0.0
H1264 H 0.31919 0.77347 0.91034 0.0
H1265 H 0.29706 0.77706 0.89086 0.0
C1266 C 0.23416 0.7363 0.83748 0.0
C1267 C 0.24787 0.73499 0.82878 0.0
C1268 C 0.23521 0.74619 0.85083 0.0
C1269 C 0.24987 0.7553 0.85559 0.0
C1270 C 0.26375 0.75362 0.84713 0.0
C1271 C 0.26278 0.74349 0.83387 0.0
C1272 C 0.25061 0.76675 0.86924 0.0
C1273 C 0.2632 0.76545 0.88052 0.0
C1274 C 0.23869 0.77858 0.87137 0.0
C1275 C 0.22582 0.78152 0.85946 0.0
C1276 C 0.23018 0.78523 0.845 0.0
C1277 C 0.218 0.78782 0.8338 0.0
C1278 C 0.2014 0.78686 0.83694 0.0
C1279 C 0.19696 0.78335 0.85132 0.0
C1280 C 0.2091 0.78073 0.86257 0.0
C1281 C 0.26662 0.82026 0.92601 0.0
C1282 C 0.25325 0.82061 0.93525 0.0
C1283 C 0.26623 0.80927 0.91338 0.0
C1284 C 0.25248 0.79843 0.90973 0.0
C1285 C 0.2391 0.79877 0.91891 0.0
C1286 C 0.23953 0.80968 0.93161 0.0
C1287 C 0.25189 0.787 0.89615 0.0
C1288 C 0.23936 0.78835 0.88487 0.0
C1289 C 0.26398 0.7754 0.89395 0.0
C1290 C 0.2773 0.77312 0.90563 0.0
C1291 C 0.27354 0.76963 0.9203 0.0
C1292 C 0.28617 0.76768 0.93128 0.0
C1293 C 0.30261 0.76909 0.92769 0.0
C1294 C 0.30645 0.7724 0.91311 0.0
C1295 C 0.29387 0.77437 0.90209 0.0
H1296 H 0.31237 0.76758 0.93621 0.0
H1297 H 0.19199 0.78886 0.82825 0.0
H1298 H 0.00444 0.49457 0.42134 0.0
H1299 H 0.02176 0.49189 0.39998 0.0
H1300 H 0.02742 0.54462 0.39966 0.0
H1301 H 0.01046 0.54733 0.42123 0.0
H1302 H 0.01827 0.50052 0.37236 0.0
H1303 H 0.06485 0.55578 0.38763 0.0
H1304 H 0.07766 0.5714 0.41021 0.0
H1305 H 0.07046 0.5294 0.43621 0.0
H1306 H 0.05782 0.51348 0.41376 0.0
H1307 H 0.06257 0.51707 0.30887 0.0
H1308 H 0.04648 0.52013 0.33095 0.0
H1309 H 0.08692 0.50373 0.3587 0.0
H1310 H 0.10335 0.50131 0.33679 0.0
H1311 H 0.07372 0.52858 0.37277 0.0
H1312 H 0.05343 0.47791 0.34717 0.0
H1313 H 0.042 0.45972 0.32564 0.0
H1314 H 0.99898 0.48791 0.32231 0.0
H1315 H 0.01027 0.5064 0.3437 0.0
C1316 C 0.00945 0.50557 0.41673 0.0
C1317 C 0.0062 0.52113 0.423 0.0
C1318 C 0.01929 0.50404 0.4045 0.0
C1319 C 0.02606 0.51804 0.39829 0.0
C1320 C 0.02261 0.53362 0.40442 0.0
C1321 C 0.01285 0.53516 0.41673 0.0
C1322 C 0.03657 0.5163 0.38531 0.0
C1323 C 0.03038 0.50669 0.37246 0.0
C1324 C 0.05251 0.52408 0.38549 0.0
C1325 C 0.06023 0.5335 0.39904 0.0
C1326 C 0.06605 0.54987 0.39816 0.0
C1327 C 0.07327 0.55878 0.41093 0.0
C1328 C 0.07482 0.55142 0.42464 0.0
C1329 C 0.0692 0.53511 0.4256 0.0
C1330 C 0.06198 0.52615 0.41285 0.0
C1331 C 0.06815 0.51432 0.3197 0.0
C1332 C 0.08426 0.50887 0.32102 0.0
C1333 C 0.05885 0.51591 0.3323 0.0
C1334 C 0.0654 0.51194 0.34646 0.0
C1335 C 0.08158 0.50681 0.34788 0.0
C1336 C 0.0909 0.50527 0.3353 0.0
C1337 C 0.05533 0.51298 0.35978 0.0
C1338 C 0.06159 0.52247 0.37267 0.0
C1339 C 0.03962 0.50475 0.35978 0.0
C1340 C 0.03277 0.49363 0.34694 0.0
C1341 C 0.04159 0.4803 0.34177 0.0
C1342 C 0.03513 0.46993 0.3296 0.0
C1343 C 0.01979 0.47268 0.32258 0.0
C1344 C 0.01087 0.4858 0.32774 0.0
C1345 C 0.01729 0.49623 0.33989 0.0
H1346 H 0.0148 0.46463 0.31317 0.0
H1347 H 0.08041 0.55834 0.43452 0.0
H1348 H 0.76835 0.77273 0.82026 0.0
H1349 H 0.76651 0.75731 0.84278 0.0
H1350 H 0.81903 0.76469 0.85216 0.0
H1351 H 0.82095 0.78007 0.82957 0.0
H1352 H 0.80929 0.73386 0.85635 0.0
H1353 H 0.79161 0.78697 0.8718 0.0
H1354 H 0.77492 0.81121 0.87002 0.0
H1355 H 0.73087 0.78105 0.87373 0.0
H1356 H 0.74728 0.75658 0.87532 0.0
H1357 H 0.8116 0.7106 0.93193 0.0
H1358 H 0.81367 0.72605 0.90945 0.0
H1359 H 0.76145 0.71752 0.89894 0.0
H1360 H 0.75929 0.7019 0.92132 0.0
H1361 H 0.77117 0.74906 0.89547 0.0
H1362 H 0.78892 0.69596 0.8799 0.0
H1363 H 0.80563 0.67173 0.88159 0.0
H1364 H 0.84967 0.702 0.87815 0.0
H1365 H 0.83323 0.72646 0.87666 0.0
C1366 C 0.77949 0.77118 0.82719 0.0
C1367 C 0.79479 0.7777 0.82316 0.0
C1368 C 0.77843 0.76235 0.84006 0.0
C1369 C 0.7926 0.76001 0.8493 0.0
C1370 C 0.80792 0.76633 0.84521 0.0
C1371 C 0.80901 0.77509 0.83229 0.0
C1372 C 0.79146 0.75091 0.86319 0.0
C1373 C 0.80113 0.73733 0.865 0.0
C1374 C 0.78054 0.7552 0.87435 0.0
C1375 C 0.77066 0.76992 0.87354 0.0
C1376 C 0.77835 0.78549 0.87214 0.0
C1377 C 0.76895 0.79927 0.87118 0.0
C1378 C 0.75184 0.79766 0.87173 0.0
C1379 C 0.74412 0.78228 0.87329 0.0
C1380 C 0.75346 0.76845 0.87424 0.0
C1381 C 0.80057 0.71186 0.92477 0.0
C1382 C 0.78528 0.70494 0.92844 0.0
C1383 C 0.80177 0.72074 0.91193 0.0
C1384 C 0.78774 0.72282 0.90242 0.0
C1385 C 0.77244 0.71611 0.90613 0.0
C1386 C 0.77122 0.70722 0.91896 0.0
C1387 C 0.789 0.73202 0.88862 0.0
C1388 C 0.77935 0.74561 0.88682 0.0
C1389 C 0.79995 0.72776 0.87749 0.0
C1390 C 0.80986 0.71306 0.87832 0.0
C1391 C 0.80218 0.69747 0.87962 0.0
C1392 C 0.8116 0.68369 0.88053 0.0
C1393 C 0.82871 0.68533 0.88002 0.0
C1394 C 0.83642 0.70075 0.87856 0.0
C1395 C 0.82706 0.71457 0.87768 0.0
H1396 H 0.83598 0.67465 0.88071 0.0
H1397 H 0.74458 0.80835 0.87097 0.0
H1398 H 0.03925 0.01087 0.43491 0.0
H1399 H 0.02252 0.01417 0.41179 0.0
H1400 H 0.01769 0.96161 0.40332 0.0
H1401 H 0.03511 0.95823 0.42614 0.0
H1402 H 0.02452 0.97576 0.37846 0.0
H1403 H 0.98542 0.98386 0.41555 0.0
H1404 H 0.97467 0.99587 0.4387 0.0
H1405 H 0.97786 0.04369 0.42131 0.0
H1406 H 0.98885 0.032 0.39813 0.0
H1407 H 0.96133 0.97805 0.31965 0.0
H1408 H 0.97661 0.97305 0.34322 0.0
H1409 H 0.98615 0.02513 0.35237 0.0
H1410 H 0.97115 0.03026 0.3287 0.0
H1411 H 0.97599 0.01009 0.377 0.0
H1412 H 0.01603 0.00172 0.34024 0.0
H1413 H 0.02658 0.98942 0.31712 0.0
H1414 H 0.02109 0.94152 0.33404 0.0
H1415 H 0.01028 0.95352 0.3572 0.0
C1416 C 0.03471 0.99999 0.4281 0.0
C1417 C 0.03858 0.98428 0.43239 0.0
C1418 C 0.02497 0.0019 0.41496 0.0
C1419 C 0.01865 0.98813 0.40588 0.0
C1420 C 0.02237 0.97242 0.41017 0.0
C1421 C 0.0322 0.9705 0.4233 0.0
C1422 C 0.00864 0.99022 0.39168 0.0
C1423 C 0.01374 0.98303 0.37819 0.0
C1424 C 0.99477 1.0 0.39124 0.0
C1425 C 0.9881 0.00707 0.40515 0.0
C1426 C 0.98395 0.99696 0.4167 0.0
C1427 C 0.97779 0.0037 0.42983 0.0
C1428 C 0.97562 0.02054 0.43149 0.0
C1429 C 0.97957 0.03066 0.42001 0.0
C1430 C 0.98574 0.02397 0.40687 0.0
C1431 C 0.96685 0.98845 0.32656 0.0
C1432 C 0.96504 0.00457 0.32222 0.0
C1433 C 0.97553 0.98556 0.34008 0.0
C1434 C 0.98261 0.99871 0.34951 0.0
C1435 C 0.98073 0.0148 0.34528 0.0
C1436 C 0.9721 0.01771 0.33176 0.0
C1437 C 0.99194 0.99572 0.36383 0.0
C1438 C 0.98672 0.00274 0.37732 0.0
C1439 C 0.00564 0.98573 0.36427 0.0
C1440 C 0.01218 0.9785 0.35038 0.0
C1441 C 0.01694 0.98855 0.33898 0.0
C1442 C 0.02299 0.98164 0.32588 0.0
C1443 C 0.02446 0.96469 0.32409 0.0
C1444 C 0.01992 0.95464 0.33543 0.0
C1445 C 0.01384 0.96149 0.34855 0.0
H1446 H 0.02915 0.95936 0.31394 0.0
H1447 H 0.97086 0.02574 0.44166 0.0
H1448 H 0.24928 0.30469 0.66443 0.0
H1449 H 0.25292 0.28791 0.64152 0.0
H1450 H 0.24221 0.2441 0.66456 0.0
H1451 H 0.23938 0.26078 0.68779 0.0
H1452 H 0.26761 0.23993 0.64828 0.0
H1453 H 0.21376 0.25948 0.639 0.0
H1454 H 0.1928 0.28012 0.63715 0.0
H1455 H 0.21891 0.3032 0.60307 0.0
H1456 H 0.24016 0.28281 0.60486 0.0
H1457 H 0.25617 0.18627 0.58238 0.0
H1458 H 0.25161 0.2026 0.60543 0.0
H1459 H 0.26617 0.24673 0.58441 0.0
H1460 H 0.27042 0.23049 0.56119 0.0
H1461 H 0.23833 0.25029 0.59965 0.0
H1462 H 0.29234 0.23049 0.6094 0.0
H1463 H 0.31288 0.20943 0.61129 0.0
H1464 H 0.28564 0.18623 0.64458 0.0
H1465 H 0.2648 0.20703 0.64275 0.0
C1466 C 0.24783 0.29147 0.6647 0.0
C1467 C 0.24405 0.28411 0.67801 0.0
C1468 C 0.24971 0.28189 0.65151 0.0
C1469 C 0.24761 0.26472 0.65123 0.0
C1470 C 0.24382 0.25732 0.66447 0.0
C1471 C 0.24205 0.2669 0.67771 0.0
C1472 C 0.24977 0.25451 0.63721 0.0
C1473 C 0.261 0.24204 0.6377 0.0
C1474 C 0.24143 0.25746 0.62331 0.0
C1475 C 0.22863 0.2697 0.62216 0.0
C1476 C 0.2151 0.26902 0.63119 0.0
C1477 C 0.20315 0.28067 0.63014 0.0
C1478 C 0.20454 0.29299 0.62003 0.0
C1479 C 0.21786 0.29366 0.61091 0.0
C1480 C 0.22985 0.28205 0.61193 0.0
C1481 C 0.25829 0.19946 0.58262 0.0
C1482 C 0.26367 0.20708 0.56995 0.0
C1483 C 0.25581 0.20877 0.59585 0.0
C1484 C 0.25869 0.22587 0.59668 0.0
C1485 C 0.26392 0.23354 0.58402 0.0
C1486 C 0.26647 0.22423 0.5708 0.0
C1487 C 0.25617 0.23578 0.61075 0.0
C1488 C 0.24488 0.24818 0.61026 0.0
C1489 C 0.26438 0.2327 0.62466 0.0
C1490 C 0.27693 0.22023 0.62583 0.0
C1491 C 0.29066 0.22082 0.61704 0.0
C1492 C 0.30237 0.20895 0.61811 0.0
C1493 C 0.30054 0.19647 0.62802 0.0
C1494 C 0.28702 0.19588 0.6369 0.0
C1495 C 0.27527 0.20772 0.63586 0.0
H1496 H 0.30962 0.18729 0.62884 0.0
H1497 H 0.19528 0.302 0.61923 0.0
H1498 H 0.51619 0.54284 0.56626 0.0
H1499 H 0.50089 0.54148 0.58885 0.0
H1500 H 0.54565 0.53304 0.61495 0.0
H1501 H 0.56118 0.53479 0.59247 0.0
H1502 H 0.5196 0.51185 0.62094 0.0
H1503 H 0.53001 0.56986 0.61764 0.0
H1504 H 0.52991 0.59595 0.60513 0.0
H1505 H 0.47717 0.59125 0.59876 0.0
H1506 H 0.47698 0.565 0.61105 0.0
H1507 H 0.48771 0.52231 0.69266 0.0
H1508 H 0.50408 0.5248 0.67089 0.0
H1509 H 0.46161 0.53996 0.64503 0.0
H1510 H 0.44542 0.53852 0.66703 0.0
H1511 H 0.48714 0.55792 0.63904 0.0
H1512 H 0.47612 0.50003 0.64135 0.0
H1513 H 0.4755 0.47344 0.65304 0.0
H1514 H 0.52819 0.47715 0.66032 0.0
H1515 H 0.5291 0.50387 0.64884 0.0
C1516 C 0.52287 0.54092 0.57682 0.0
C1517 C 0.53997 0.53901 0.5775 0.0
C1518 C 0.51406 0.54008 0.58973 0.0
C1519 C 0.52214 0.53729 0.60362 0.0
C1520 C 0.53916 0.53517 0.60434 0.0
C1521 C 0.548 0.53611 0.59145 0.0
C1522 C 0.51279 0.53647 0.61735 0.0
C1523 C 0.51268 0.522 0.62505 0.0
C1524 C 0.50342 0.54956 0.62245 0.0
C1525 C 0.5035 0.56539 0.61514 0.0
C1526 C 0.5184 0.57432 0.61347 0.0
C1527 C 0.51839 0.58915 0.60644 0.0
C1528 C 0.50354 0.59523 0.60112 0.0
C1529 C 0.48867 0.58651 0.60287 0.0
C1530 C 0.48861 0.57167 0.60988 0.0
C1531 C 0.48186 0.5264 0.68243 0.0
C1532 C 0.46516 0.53016 0.68168 0.0
C1533 C 0.49122 0.5276 0.66989 0.0
C1534 C 0.48404 0.53229 0.65618 0.0
C1535 C 0.46744 0.53622 0.65543 0.0
C1536 C 0.45812 0.53521 0.66801 0.0
C1537 C 0.49384 0.53323 0.64267 0.0
C1538 C 0.49405 0.54775 0.635 0.0
C1539 C 0.50317 0.52011 0.63749 0.0
C1540 C 0.50266 0.50403 0.64437 0.0
C1541 C 0.48757 0.49523 0.64555 0.0
C1542 C 0.48716 0.48013 0.65212 0.0
C1543 C 0.50179 0.47364 0.65746 0.0
C1544 C 0.51686 0.48221 0.6562 0.0
C1545 C 0.51733 0.49733 0.64965 0.0
H1546 H 0.50146 0.46194 0.66254 0.0
H1547 H 0.50356 0.60671 0.59568 0.0
H1548 H 0.81561 0.27305 0.68359 0.0
H1549 H 0.8087 0.28835 0.66152 0.0
H1550 H 0.77519 0.24841 0.6437 0.0
H1551 H 0.78228 0.23294 0.66564 0.0
H1552 H 0.79329 0.25984 0.62212 0.0
H1553 H 0.7608 0.28339 0.65981 0.0
H1554 H 0.75549 0.29629 0.68457 0.0
H1555 H 0.78821 0.33736 0.67705 0.0
H1556 H 0.7939 0.3246 0.65231 0.0
H1557 H 0.75394 0.3058 0.56596 0.0
H1558 H 0.7594 0.28942 0.58761 0.0
H1559 H 0.79414 0.32738 0.60729 0.0
H1560 H 0.78886 0.34376 0.58567 0.0
H1561 H 0.77415 0.31639 0.62781 0.0
H1562 H 0.80714 0.29232 0.59035 0.0
H1563 H 0.81223 0.27941 0.56554 0.0
H1564 H 0.77819 0.23924 0.57261 0.0
H1565 H 0.77272 0.25203 0.59739 0.0
C1566 C 0.80677 0.26755 0.67496 0.0
C1567 C 0.79945 0.25186 0.67637 0.0
C1568 C 0.80277 0.27632 0.66239 0.0
C1569 C 0.79125 0.26963 0.65104 0.0
C1570 C 0.78408 0.25384 0.65233 0.0
C1571 C 0.78811 0.24503 0.6649 0.0
C1572 C 0.7868 0.2791 0.63781 0.0
C1573 C 0.78886 0.2721 0.62336 0.0
C1574 C 0.78131 0.29523 0.63941 0.0
C1575 C 0.77789 0.30296 0.65427 0.0
C1576 C 0.76696 0.29511 0.66348 0.0
C1577 C 0.76387 0.30241 0.6775 0.0
C1578 C 0.77154 0.31761 0.68239 0.0
C1579 C 0.78229 0.32557 0.67325 0.0
C1580 C 0.78544 0.31832 0.65923 0.0
C1581 C 0.76285 0.3106 0.57483 0.0
C1582 C 0.77097 0.3261 0.57406 0.0
C1583 C 0.76594 0.30123 0.58721 0.0
C1584 C 0.77729 0.30711 0.59902 0.0
C1585 C 0.7853 0.32262 0.59834 0.0
C1586 C 0.78221 0.33199 0.58599 0.0
C1587 C 0.78079 0.29718 0.61215 0.0
C1588 C 0.77852 0.30409 0.62658 0.0
C1589 C 0.78606 0.28097 0.61052 0.0
C1590 C 0.78939 0.27322 0.59566 0.0
C1591 C 0.80064 0.2808 0.58656 0.0
C1592 C 0.80361 0.27349 0.57252 0.0
C1593 C 0.79551 0.25853 0.56748 0.0
C1594 C 0.78444 0.25083 0.57651 0.0
C1595 C 0.78141 0.2581 0.59056 0.0
H1596 H 0.79783 0.25289 0.55661 0.0
H1597 H 0.76912 0.32324 0.69325 0.0
H1598 H 0.49185 0.95866 0.57342 0.0
H1599 H 0.50939 0.96007 0.5966 0.0
H1600 H 0.51244 0.01291 0.59682 0.0
H1601 H 0.49573 0.01156 0.57306 0.0
H1602 H 0.54141 0.00279 0.60393 0.0
H1603 H 0.48779 0.99129 0.6208 0.0
H1604 H 0.4607 0.97655 0.62132 0.0
H1605 H 0.48434 0.93261 0.63222 0.0
H1606 H 0.51159 0.94703 0.63157 0.0
H1607 H 0.57242 0.01585 0.68035 0.0
H1608 H 0.55443 0.01483 0.65739 0.0
H1609 H 0.55828 0.96247 0.65206 0.0
H1610 H 0.5768 0.96337 0.67476 0.0
H1611 H 0.52565 0.97277 0.64801 0.0
H1612 H 0.57951 0.98528 0.63084 0.0
H1613 H 0.60615 1.00098 0.63094 0.0
H1614 H 0.58106 0.04451 0.62139 0.0
H1615 H 0.55425 0.0291 0.62146 0.0
C1616 C 0.49638 0.9706 0.57827 0.0
C1617 C 0.49236 0.985 0.57129 0.0
C1618 C 0.50624 0.97139 0.59169 0.0
C1619 C 0.51205 0.98661 0.59864 0.0
C1620 C 0.50806 1.00102 0.59173 0.0
C1621 C 0.49834 1.00023 0.5782 0.0
C1622 C 0.5226 0.98745 0.61292 0.0
C1623 C 0.53781 0.99643 0.61363 0.0
C1624 C 0.5181 0.97891 0.62554 0.0
C1625 C 0.50174 0.97021 0.626 0.0
C1626 C 0.48722 0.97845 0.6232 0.0
C1627 C 0.47183 0.97016 0.62354 0.0
C1628 C 0.4708 0.95364 0.62677 0.0
C1629 C 0.48516 0.9454 0.62971 0.0
C1630 C 0.50057 0.95363 0.62937 0.0
C1631 C 0.56966 0.00411 0.67423 0.0
C1632 C 0.57622 0.9897 0.67942 0.0
C1633 C 0.55927 0.00356 0.66114 0.0
C1634 C 0.55511 0.9886 0.65299 0.0
C1635 C 0.56132 0.97414 0.65823 0.0
C1636 C 0.57185 0.97469 0.67126 0.0
C1637 C 0.54436 0.98807 0.63892 0.0
C1638 C 0.52915 0.97915 0.63828 0.0
C1639 C 0.54875 0.99682 0.62644 0.0
C1640 C 0.56487 0.00607 0.62631 0.0
C1641 C 0.57967 0.99823 0.62889 0.0
C1642 C 0.5948 0.00707 0.62889 0.0
C1643 C 0.5953 0.02374 0.62622 0.0
C1644 C 0.58066 0.0316 0.62349 0.0
C1645 C 0.56549 0.02282 0.6235 0.0
H1646 H 0.60702 0.03057 0.62622 0.0
H1647 H 0.45888 0.94724 0.62702 0.0
H1648 H 0.8294 0.23942 0.73955 0.0
H1649 H 0.8536 0.24453 0.75715 0.0
H1650 H 0.86351 0.19316 0.75298 0.0
H1651 H 0.83917 0.18797 0.73558 0.0
H1652 H 0.86702 0.20368 0.7813 0.0
H1653 H 0.88622 0.22297 0.73547 0.0
H1654 H 0.88563 0.23923 0.71307 0.0
H1655 H 0.88884 0.28378 0.74127 0.0
H1656 H 0.88923 0.26778 0.76385 0.0
H1657 H 0.94974 0.21052 0.81303 0.0
H1658 H 0.92522 0.20584 0.79582 0.0
H1659 H 0.91292 0.25605 0.80437 0.0
H1660 H 0.93715 0.26077 0.82191 0.0
H1661 H 0.91068 0.24643 0.77405 0.0
H1662 H 0.89184 0.22659 0.8199 0.0
H1663 H 0.89282 0.20996 0.84206 0.0
H1664 H 0.88951 0.16583 0.81326 0.0
H1665 H 0.88875 0.18222 0.79092 0.0
C1666 C 0.83683 0.22925 0.7423 0.0
C1667 C 0.83241 0.2133 0.73617 0.0
C1668 C 0.85067 0.23218 0.75235 0.0
C1669 C 0.86052 0.21926 0.75628 0.0
C1670 C 0.8561 0.20332 0.75016 0.0
C1671 C 0.84219 0.20037 0.74023 0.0
C1672 C 0.87529 0.22226 0.76693 0.0
C1673 C 0.87667 0.21287 0.77958 0.0
C1674 C 0.88774 0.23451 0.76491 0.0
C1675 C 0.88759 0.24417 0.75135 0.0
C1676 C 0.88668 0.23623 0.73689 0.0
C1677 C 0.8864 0.2454 0.72416 0.0
C1678 C 0.88715 0.26253 0.72574 0.0
C1679 C 0.88824 0.27052 0.74006 0.0
C1680 C 0.8885 0.2614 0.75283 0.0
C1681 C 0.94172 0.22052 0.81144 0.0
C1682 C 0.94547 0.23603 0.81891 0.0
C1683 C 0.92774 0.21784 0.80153 0.0
C1684 C 0.91722 0.23058 0.79886 0.0
C1685 C 0.92093 0.24607 0.80621 0.0
C1686 C 0.93484 0.24875 0.8162 0.0
C1687 C 0.9024 0.22779 0.78832 0.0
C1688 C 0.90101 0.23723 0.77572 0.0
C1689 C 0.89 0.21552 0.79032 0.0
C1690 C 0.89041 0.20564 0.80374 0.0
C1691 C 0.89146 0.21334 0.81829 0.0
C1692 C 0.89195 0.20396 0.83088 0.0
C1693 C 0.89127 0.18685 0.82907 0.0
C1694 C 0.89006 0.17909 0.81465 0.0
C1695 C 0.88958 0.18842 0.80202 0.0
H1696 H 0.89164 0.1796 0.83883 0.0
H1697 H 0.88693 0.2696 0.71587 0.0
H1698 H 0.48869 0.91003 0.52767 0.0
H1699 H 0.49397 0.88908 0.50816 0.0
H1700 H 0.48708 0.92413 0.47433 0.0
H1701 H 0.48134 0.94503 0.49384 0.0
H1702 H 0.47226 0.89558 0.46488 0.0
H1703 H 0.52589 0.91283 0.48604 0.0
H1704 H 0.54778 0.9195 0.50611 0.0
H1705 H 0.54463 0.86976 0.51906 0.0
H1706 H 0.52255 0.86284 0.49919 0.0
H1707 H 0.50695 0.84381 0.40868 0.0
H1708 H 0.50265 0.86701 0.42643 0.0
H1709 H 0.50265 0.8345 0.46275 0.0
H1710 H 0.50705 0.81132 0.44511 0.0
H1711 H 0.52207 0.86325 0.46961 0.0
H1712 H 0.46722 0.84687 0.44866 0.0
H1713 H 0.4458 0.84071 0.42809 0.0
H1714 H 0.45224 0.88979 0.41399 0.0
H1715 H 0.47388 0.89617 0.43437 0.0
C1716 C 0.48829 0.91324 0.51606 0.0
C1717 C 0.48465 0.92913 0.51228 0.0
C1718 C 0.49141 0.9013 0.50493 0.0
C1719 C 0.49121 0.90508 0.48978 0.0
C1720 C 0.48736 0.92093 0.48594 0.0
C1721 C 0.48411 0.93288 0.4971 0.0
C1722 C 0.49485 0.89239 0.47801 0.0
C1723 C 0.4833 0.88871 0.46579 0.0
C1724 C 0.50915 0.88326 0.47925 0.0
C1725 C 0.52247 0.88735 0.4912 0.0
C1726 C 0.52978 0.90334 0.49323 0.0
C1727 C 0.54223 0.90716 0.50456 0.0
C1728 C 0.54756 0.89507 0.51387 0.0
C1729 C 0.54047 0.87912 0.51185 0.0
C1730 C 0.528 0.87523 0.50054 0.0
C1731 C 0.50612 0.84164 0.42046 0.0
C1732 C 0.50727 0.82574 0.42551 0.0
C1733 C 0.50356 0.85487 0.43056 0.0
C1734 C 0.50223 0.85244 0.44588 0.0
C1735 C 0.50362 0.83663 0.45096 0.0
C1736 C 0.50601 0.82339 0.44087 0.0
C1737 C 0.49938 0.86633 0.45668 0.0
C1738 C 0.51111 0.87023 0.46868 0.0
C1739 C 0.48534 0.87575 0.45515 0.0
C1740 C 0.4723 0.87194 0.44293 0.0
C1741 C 0.46417 0.8563 0.44109 0.0
C1742 C 0.45197 0.85278 0.42949 0.0
C1743 C 0.4477 0.86483 0.41971 0.0
C1744 C 0.45559 0.88045 0.42155 0.0
C1745 C 0.46781 0.88404 0.43313 0.0
H1746 H 0.43824 0.86208 0.41073 0.0
H1747 H 0.55721 0.89805 0.52264 0.0
H1748 H 0.18768 0.28287 0.7312 0.0
H1749 H 0.16471 0.27558 0.74638 0.0
H1750 H 0.19049 0.30076 0.78541 0.0
H1751 H 0.21357 0.30789 0.7703 0.0
H1752 H 0.17732 0.27155 0.79215 0.0
H1753 H 0.15864 0.31795 0.76642 0.0
H1754 H 0.15203 0.33374 0.74435 0.0
H1755 H 0.11661 0.29564 0.72691 0.0
H1756 H 0.12318 0.27951 0.74879 0.0
H1757 H 0.11177 0.27829 0.8403 0.0
H1758 H 0.13441 0.2837 0.82428 0.0
H1759 H 0.10618 0.25879 0.78646 0.0
H1760 H 0.08344 0.25334 0.80244 0.0
H1761 H 0.12036 0.28676 0.77851 0.0
H1762 H 0.13833 0.2407 0.80458 0.0
H1763 H 0.14483 0.22491 0.82668 0.0
H1764 H 0.18152 0.26214 0.84341 0.0
H1765 H 0.17507 0.27827 0.82151 0.0
C1766 C 0.18845 0.28685 0.74301 0.0
C1767 C 0.20241 0.29598 0.74959 0.0
C1768 C 0.17529 0.28273 0.75167 0.0
C1769 C 0.1758 0.28775 0.76702 0.0
C1770 C 0.18981 0.29674 0.7736 0.0
C1771 C 0.20296 0.30086 0.76496 0.0
C1772 C 0.16181 0.28359 0.77629 0.0
C1773 C 0.1649 0.27504 0.78926 0.0
C1774 C 0.14552 0.28776 0.77232 0.0
C1775 C 0.14153 0.29745 0.75916 0.0
C1776 C 0.14954 0.31288 0.75782 0.0
C1777 C 0.14578 0.3219 0.74535 0.0
C1778 C 0.13394 0.31568 0.73421 0.0
C1779 C 0.1258 0.30043 0.73553 0.0
C1780 C 0.12953 0.29135 0.74797 0.0
C1781 C 0.11045 0.27378 0.82862 0.0
C1782 C 0.09581 0.26531 0.82267 0.0
C1783 C 0.1234 0.2769 0.81946 0.0
C1784 C 0.1221 0.27148 0.80419 0.0
C1785 C 0.10748 0.2631 0.7982 0.0
C1786 C 0.09448 0.26002 0.80735 0.0
C1787 C 0.13588 0.27482 0.79444 0.0
C1788 C 0.13277 0.2832 0.78137 0.0
C1789 C 0.15215 0.27048 0.79832 0.0
C1790 C 0.15611 0.26076 0.81146 0.0
C1791 C 0.1477 0.24558 0.81303 0.0
C1792 C 0.15139 0.23656 0.82551 0.0
C1793 C 0.16355 0.24254 0.83646 0.0
C1794 C 0.17209 0.25753 0.83493 0.0
C1795 C 0.16843 0.26661 0.82247 0.0
H1796 H 0.16639 0.23553 0.84611 0.0
H1797 H 0.13104 0.32268 0.72457 0.0
H1798 H 0.5427 0.5935 0.52162 0.0
H1799 H 0.53872 0.616 0.50504 0.0
H1800 H 0.55199 0.58506 0.46737 0.0
H1801 H 0.55625 0.56264 0.48395 0.0
H1802 H 0.56703 0.61456 0.46721 0.0
H1803 H 0.5116 0.5937 0.47255 0.0
H1804 H 0.48759 0.58546 0.48641 0.0
H1805 H 0.48655 0.63445 0.50632 0.0
H1806 H 0.5107 0.64294 0.49272 0.0
H1807 H 0.53897 0.66155 0.40753 0.0
H1808 H 0.54242 0.63985 0.42497 0.0
H1809 H 0.52999 0.67281 0.46153 0.0
H1810 H 0.52602 0.69444 0.44407 0.0
H1811 H 0.51472 0.643 0.46288 0.0
H1812 H 0.56979 0.66398 0.45712 0.0
H1813 H 0.5937 0.67224 0.44314 0.0
H1814 H 0.59539 0.62299 0.42402 0.0
H1815 H 0.57133 0.61448 0.43772 0.0
C1816 C 0.54472 0.59149 0.5098 0.0
C1817 C 0.54973 0.5763 0.50403 0.0
C1818 C 0.54238 0.60434 0.50032 0.0
C1819 C 0.54489 0.60218 0.48491 0.0
C1820 C 0.54997 0.58703 0.4792 0.0
C1821 C 0.55235 0.57422 0.48866 0.0
C1822 C 0.54247 0.61574 0.47472 0.0
C1823 C 0.55551 0.62064 0.46613 0.0
C1824 C 0.5276 0.62398 0.47357 0.0
C1825 C 0.51307 0.61891 0.48174 0.0
C1826 C 0.50633 0.60269 0.47997 0.0
C1827 C 0.49268 0.59798 0.48777 0.0
C1828 C 0.48558 0.60941 0.49727 0.0
C1829 C 0.49208 0.6256 0.49897 0.0
C1830 C 0.50574 0.63037 0.49122 0.0
C1831 C 0.53683 0.66416 0.41925 0.0
C1832 C 0.53228 0.67978 0.4244 0.0
C1833 C 0.53895 0.65177 0.42924 0.0
C1834 C 0.53667 0.65476 0.44461 0.0
C1835 C 0.53189 0.67025 0.44974 0.0
C1836 C 0.52978 0.68264 0.43976 0.0
C1837 C 0.53923 0.64171 0.4553 0.0
C1838 C 0.52624 0.63694 0.46399 0.0
C1839 C 0.55414 0.63357 0.45654 0.0
C1840 C 0.56866 0.63863 0.44834 0.0
C1841 C 0.57518 0.65494 0.44984 0.0
C1842 C 0.58878 0.65966 0.44198 0.0
C1843 C 0.59604 0.64816 0.43267 0.0
C1844 C 0.58974 0.63189 0.43122 0.0
C1845 C 0.57614 0.62711 0.43904 0.0
H1846 H 0.60656 0.65184 0.4266 0.0
H1847 H 0.47501 0.60575 0.50329 0.0
H1848 H 0.85728 0.75701 0.77362 0.0
H1849 H 0.87835 0.75584 0.75524 0.0
H1850 H 0.85955 0.79853 0.73533 0.0
H1851 H 0.83836 0.79963 0.75357 0.0
H1852 H 0.8657 0.77547 0.71404 0.0
H1853 H 0.89494 0.80157 0.75779 0.0
H1854 H 0.90492 0.80489 0.78448 0.0
H1855 H 0.92998 0.76007 0.77994 0.0
H1856 H 0.91996 0.75637 0.75325 0.0
H1857 H 0.9351 0.79275 0.67132 0.0
H1858 H 0.91378 0.79452 0.68935 0.0
H1859 H 0.92965 0.75025 0.70839 0.0
H1860 H 0.9507 0.74809 0.69017 0.0
H1861 H 0.92507 0.77479 0.73006 0.0
H1862 H 0.89537 0.74878 0.68616 0.0
H1863 H 0.88553 0.74593 0.65942 0.0
H1864 H 0.86149 0.79131 0.66426 0.0
H1865 H 0.8714 0.79455 0.691 0.0
C1866 C 0.85767 0.76615 0.76532 0.0
C1867 C 0.84622 0.77841 0.76506 0.0
C1868 C 0.86974 0.76552 0.75487 0.0
C1869 C 0.87065 0.77721 0.744 0.0
C1870 C 0.8591 0.78939 0.74363 0.0
C1871 C 0.84702 0.79003 0.75409 0.0
C1872 C 0.88356 0.77663 0.73295 0.0
C1873 C 0.8787 0.77557 0.71755 0.0
C1874 C 0.90051 0.77643 0.73751 0.0
C1875 C 0.90656 0.77861 0.75356 0.0
C1876 C 0.90247 0.79235 0.76251 0.0
C1877 C 0.90815 0.79431 0.77764 0.0
C1878 C 0.91804 0.78268 0.78392 0.0
C1879 C 0.9223 0.76907 0.77507 0.0
C1880 C 0.91663 0.76704 0.75994 0.0
C1881 C 0.93394 0.78325 0.6792 0.0
C1882 C 0.94466 0.77026 0.67923 0.0
C1883 C 0.92178 0.78433 0.68955 0.0
C1884 C 0.92008 0.77247 0.70016 0.0
C1885 C 0.93079 0.75957 0.70033 0.0
C1886 C 0.94288 0.75841 0.68993 0.0
C1887 C 0.90719 0.77356 0.71118 0.0
C1888 C 0.91207 0.77472 0.72657 0.0
C1889 C 0.89027 0.77392 0.70661 0.0
C1890 C 0.88428 0.772 0.69054 0.0
C1891 C 0.88811 0.75823 0.68149 0.0
C1892 C 0.88249 0.75653 0.66634 0.0
C1893 C 0.87293 0.76846 0.66013 0.0
C1894 C 0.86892 0.78209 0.66908 0.0
C1895 C 0.87453 0.78386 0.68423 0.0
H1896 H 0.86858 0.76711 0.6484 0.0
H1897 H 0.92243 0.78422 0.79563 0.0
H1898 H 0.03425 0.93499 0.49186 0.0
H1899 H 0.02677 0.9137 0.50879 0.0
H1900 H 0.07791 0.91118 0.52376 0.0
H1901 H 0.08545 0.93234 0.50677 0.0
H1902 H 0.06338 0.881 0.51772 0.0
H1903 H 0.05111 0.93068 0.54557 0.0
H1904 H 0.03787 0.95691 0.54956 0.0
H1905 H 0.99016 0.93186 0.54283 0.0
H1906 H 0.00313 0.9055 0.53859 0.0
H1907 H 0.05681 0.83631 0.5823 0.0
H1908 H 0.06211 0.85807 0.56536 0.0
H1909 H 0.01005 0.85888 0.55338 0.0
H1910 H 0.00465 0.83709 0.57039 0.0
H1911 H 0.02372 0.88946 0.55708 0.0
H1912 H 0.03566 0.83978 0.52991 0.0
H1913 H 0.04863 0.81342 0.5258 0.0
H1914 H 0.09652 0.83825 0.53078 0.0
H1915 H 0.08384 0.86474 0.53515 0.0
C1916 C 0.04388 0.9299 0.49877 0.0
C1917 C 0.06045 0.9353 0.49801 0.0
C1918 C 0.03959 0.91779 0.50848 0.0
C1919 C 0.05176 0.91092 0.51763 0.0
C1920 C 0.0683 0.91628 0.51681 0.0
C1921 C 0.07259 0.92839 0.50713 0.0
C1922 C 0.0474 0.89799 0.52794 0.0
C1923 C 0.05485 0.88292 0.52644 0.0
C1924 C 0.03591 0.90031 0.53903 0.0
C1925 C 0.02809 0.91615 0.5416 0.0
C1926 C 0.0378 0.93078 0.54481 0.0
C1927 C 0.03034 0.94567 0.54715 0.0
C1928 C 0.01319 0.94606 0.54641 0.0
C1929 C 0.00345 0.93155 0.54337 0.0
C1930 C 0.01085 0.91663 0.54101 0.0
C1931 C 0.04648 0.84107 0.57602 0.0
C1932 C 0.03031 0.83486 0.57761 0.0
C1933 C 0.04953 0.85352 0.56634 0.0
C1934 C 0.0365 0.85993 0.55789 0.0
C1935 C 0.0203 0.8541 0.55976 0.0
C1936 C 0.01723 0.84168 0.56951 0.0
C1937 C 0.03987 0.87255 0.54698 0.0
C1938 C 0.03221 0.88752 0.54833 0.0
C1939 C 0.05113 0.87013 0.53569 0.0
C1940 C 0.0588 0.85423 0.53299 0.0
C1941 C 0.04896 0.8396 0.53024 0.0
C1942 C 0.05626 0.82464 0.52785 0.0
C1943 C 0.07339 0.82416 0.52806 0.0
C1944 C 0.08326 0.83864 0.53064 0.0
C1945 C 0.07602 0.85364 0.53306 0.0
H1946 H 0.07902 0.81256 0.52621 0.0
H1947 H 0.00744 0.9576 0.54822 0.0
H1948 H 0.19057 0.68931 0.74955 0.0
H1949 H 0.16814 0.69666 0.73212 0.0
H1950 H 0.17872 0.74788 0.74544 0.0
H1951 H 0.20075 0.74051 0.76326 0.0
H1952 H 0.14715 0.742 0.74359 0.0
H1953 H 0.18979 0.72994 0.71103 0.0
H1954 H 0.21127 0.71375 0.69999 0.0
H1955 H 0.17503 0.67539 0.68506 0.0
H1956 H 0.15335 0.69125 0.69618 0.0
H1957 H 0.09948 0.77068 0.68107 0.0
H1958 H 0.1226 0.76471 0.69832 0.0
H1959 H 0.10815 0.71317 0.69315 0.0
H1960 H 0.08464 0.719 0.6764 0.0
H1961 H 0.14218 0.72033 0.69035 0.0
H1962 H 0.09973 0.73332 0.72387 0.0
H1963 H 0.07882 0.75065 0.73439 0.0
H1964 H 0.11595 0.789 0.74673 0.0
H1965 H 0.13706 0.77197 0.73608 0.0
C1966 C 0.18809 0.70213 0.74872 0.0
C1967 C 0.19737 0.71432 0.75774 0.0
C1968 C 0.17534 0.70634 0.7387 0.0
C1969 C 0.17186 0.72286 0.73726 0.0
C1970 C 0.18115 0.73506 0.74632 0.0
C1971 C 0.19376 0.73083 0.75648 0.0
C1972 C 0.15835 0.72738 0.72654 0.0
C1973 C 0.14624 0.73746 0.73189 0.0
C1974 C 0.15697 0.7213 0.71129 0.0
C1975 C 0.16997 0.71173 0.70456 0.0
C1976 C 0.18642 0.718 0.70549 0.0
C1977 C 0.19863 0.70889 0.6992 0.0
C1978 C 0.19453 0.69354 0.69186 0.0
C1979 C 0.1782 0.68728 0.69076 0.0
C1980 C 0.16594 0.69633 0.69704 0.0
C1981 C 0.10104 0.75809 0.68373 0.0
C1982 C 0.09011 0.74534 0.67729 0.0
C1983 C 0.11435 0.7547 0.69353 0.0
C1984 C 0.11705 0.7385 0.69702 0.0
C1985 C 0.10632 0.72574 0.69053 0.0
C1986 C 0.09292 0.72912 0.68087 0.0
C1987 C 0.13105 0.7348 0.70746 0.0
C1988 C 0.14321 0.7249 0.70204 0.0
C1989 C 0.13261 0.74122 0.72257 0.0
C1990 C 0.11994 0.75144 0.72903 0.0
C1991 C 0.10341 0.7455 0.7287 0.0
C1992 C 0.09153 0.75526 0.73472 0.0
C1993 C 0.09604 0.77094 0.74119 0.0
C1994 C 0.11247 0.77687 0.74169 0.0
C1995 C 0.1244 0.76716 0.73568 0.0
H1996 H 0.08682 0.77848 0.74584 0.0
H1997 H 0.204 0.68651 0.687 0.0
H1998 H 0.00511 0.57005 0.49066 0.0
H1999 H 0.01003 0.59429 0.50814 0.0
H2000 H 0.95831 0.60345 0.50401 0.0
H2001 H 0.95335 0.57936 0.48641 0.0
H2002 H 0.97832 0.6316 0.50245 0.0
H2003 H 0.97339 0.58627 0.53423 0.0
H2004 H 0.98023 0.55942 0.54339 0.0
H2005 H 0.03016 0.57746 0.5545 0.0
H2006 H 0.02367 0.60438 0.5452 0.0
H2007 H 0.9737 0.68818 0.56493 0.0
H2008 H 0.96983 0.6644 0.54692 0.0
H2009 H 0.02072 0.65353 0.55544 0.0
H2010 H 0.02462 0.67721 0.57359 0.0
H2011 H 0.00185 0.62627 0.55442 0.0
H2012 H 0.00721 0.67154 0.52319 0.0
H2013 H 1.00098 0.69842 0.51373 0.0
H2014 H 0.95125 0.68072 0.50113 0.0
H2015 H 0.95712 0.65379 0.51071 0.0
C2016 C 0.99483 0.57732 0.49339 0.0
C2017 C 0.97884 0.57278 0.48721 0.0
C2018 C 0.99763 0.59109 0.50344 0.0
C2019 C 0.98451 0.60058 0.50746 0.0
C2020 C 0.9686 0.59627 0.50108 0.0
C2021 C 0.96577 0.58245 0.49112 0.0
C2022 C 0.98731 0.61493 0.51844 0.0
C2023 C 0.98329 0.63044 0.51387 0.0
C2024 C 0.99419 0.61343 0.5332 0.0
C2025 C 0.99809 0.59728 0.53887 0.0
C2026 C 0.98587 0.58447 0.53851 0.0
C2027 C 0.98967 0.56925 0.54375 0.0
C2028 C 0.00563 0.56672 0.54948 0.0
C2029 C 0.01781 0.57943 0.55003 0.0
C2030 C 0.01407 0.59468 0.54479 0.0
C2031 C 0.98409 0.68078 0.56289 0.0
C2032 C 0.99948 0.68461 0.57065 0.0
C2033 C 0.98187 0.6672 0.55258 0.0
C2034 C 0.99505 0.65729 0.54965 0.0
C2035 C 0.01037 0.66098 0.55751 0.0
C2036 C 0.01257 0.6745 0.56791 0.0
C2037 C 0.99281 0.64302 0.53848 0.0
C2038 C 0.99693 0.6275 0.543 0.0
C2039 C 0.98613 0.64453 0.52362 0.0
C2040 C 0.98256 0.6607 0.5178 0.0
C2041 C 0.99491 0.67342 0.51851 0.0
C2042 C 0.99145 0.68866 0.51311 0.0
C2043 C 0.97572 0.69129 0.50687 0.0
C2044 C 0.96342 0.67867 0.50598 0.0
C2045 C 0.96681 0.66341 0.51139 0.0
H2046 H 0.97306 0.7031 0.50269 0.0
H2047 H 0.00855 0.55493 0.55354 0.0
H2048 H 0.74371 0.84715 0.22108 0.0
H2049 H 0.76299 0.8709 0.22679 0.0
H2050 H 0.80294 0.84221 0.21268 0.0
H2051 H 0.78384 0.81826 0.20745 0.0
H2052 H 0.81209 0.86073 0.23783 0.0
H2053 H 0.78532 0.86932 0.18968 0.0
H2054 H 0.76162 0.87191 0.17157 0.0
H2055 H 0.74601 0.91276 0.19854 0.0
H2056 H 0.7695 0.91026 0.21692 0.0
H2057 H 0.87072 0.92579 0.22805 0.0
H2058 H 0.85119 0.90203 0.22388 0.0
H2059 H 0.81216 0.93156 0.2387 0.0
H2060 H 0.83152 0.95549 0.24248 0.0
H2061 H 0.8023 0.91279 0.21367 0.0
H2062 H 0.82954 0.90453 0.26158 0.0
H2063 H 0.85335 0.90192 0.27955 0.0
H2064 H 0.86822 0.86046 0.25293 0.0
H2065 H 0.84462 0.86297 0.23467 0.0
C2066 C 0.75663 0.84583 0.21936 0.0
C2067 C 0.76221 0.83082 0.21372 0.0
C2068 C 0.76762 0.85947 0.2225 0.0
C2069 C 0.78438 0.8584 0.21996 0.0
C2070 C 0.79005 0.84334 0.21466 0.0
C2071 C 0.77909 0.82971 0.21155 0.0
C2072 C 0.796 0.87302 0.22264 0.0
C2073 C 0.81005 0.87205 0.23241 0.0
C2074 C 0.79317 0.88792 0.21582 0.0
C2075 C 0.77908 0.88949 0.20475 0.0
C2076 C 0.77676 0.87877 0.19181 0.0
C2077 C 0.76338 0.88024 0.18148 0.0
C2078 C 0.75229 0.89247 0.18393 0.0
C2079 C 0.75459 0.90328 0.19668 0.0
C2080 C 0.76795 0.90185 0.20704 0.0
C2081 C 0.85796 0.92726 0.23031 0.0
C2082 C 0.8527 0.94254 0.23564 0.0
C2083 C 0.84683 0.91363 0.22806 0.0
C2084 C 0.83024 0.91497 0.23115 0.0
C2085 C 0.82491 0.93023 0.2363 0.0
C2086 C 0.83603 0.94386 0.23858 0.0
C2087 C 0.8184 0.90049 0.22884 0.0
C2088 C 0.80432 0.90149 0.21913 0.0
C2089 C 0.82122 0.88562 0.2357 0.0
C2090 C 0.83539 0.88404 0.24668 0.0
C2091 C 0.83796 0.89494 0.25949 0.0
C2092 C 0.85141 0.89346 0.26974 0.0
C2093 C 0.86232 0.88106 0.26736 0.0
C2094 C 0.85977 0.87008 0.25475 0.0
C2095 C 0.84635 0.87151 0.24445 0.0
H2096 H 0.87272 0.87993 0.27531 0.0
H2097 H 0.74193 0.89359 0.17592 0.0
H2098 H 0.7529 0.17328 0.2847 0.0
H2099 H 0.7727 0.15246 0.27961 0.0
H2100 H 0.81279 0.18767 0.29326 0.0
H2101 H 0.79301 0.20868 0.29817 0.0
H2102 H 0.81806 0.16973 0.26698 0.0
H2103 H 0.80242 0.15908 0.31648 0.0
H2104 H 0.78302 0.15379 0.33597 0.0
H2105 H 0.76392 0.10982 0.31088 0.0
H2106 H 0.78305 0.11498 0.29112 0.0
H2107 H 0.87965 0.111 0.26953 0.0
H2108 H 0.86148 0.13289 0.2759 0.0
H2109 H 0.81922 0.09899 0.26716 0.0
H2110 H 0.83732 0.07688 0.26152 0.0
H2111 H 0.81592 0.11708 0.29187 0.0
H2112 H 0.83035 0.12798 0.24193 0.0
H2113 H 0.84917 0.13319 0.22196 0.0
H2114 H 0.86992 0.17643 0.2472 0.0
H2115 H 0.85136 0.17135 0.26743 0.0
C2116 C 0.76594 0.17663 0.28654 0.0
C2117 C 0.77139 0.19263 0.29185 0.0
C2118 C 0.77723 0.16468 0.28373 0.0
C2119 C 0.79421 0.16847 0.28619 0.0
C2120 C 0.79973 0.18447 0.29134 0.0
C2121 C 0.78842 0.19642 0.29424 0.0
C2122 C 0.80617 0.15571 0.28328 0.0
C2123 C 0.81778 0.15832 0.27258 0.0
C2124 C 0.80554 0.14068 0.29035 0.0
C2125 C 0.79407 0.1375 0.30225 0.0
C2126 C 0.79399 0.14835 0.31506 0.0
C2127 C 0.78306 0.14537 0.32617 0.0
C2128 C 0.77222 0.1315 0.32465 0.0
C2129 C 0.77231 0.12057 0.31203 0.0
C2130 C 0.78321 0.12351 0.30088 0.0
C2131 C 0.8665 0.10815 0.26908 0.0
C2132 C 0.85998 0.09214 0.26493 0.0
C2133 C 0.8561 0.12074 0.27257 0.0
C2134 C 0.83894 0.11767 0.27182 0.0
C2135 C 0.83241 0.1017 0.26777 0.0
C2136 C 0.84279 0.08909 0.26437 0.0
C2137 C 0.82775 0.13099 0.27542 0.0
C2138 C 0.81627 0.12851 0.28628 0.0
C2139 C 0.82844 0.14609 0.26843 0.0
C2140 C 0.83959 0.14919 0.25627 0.0
C2141 C 0.83902 0.13853 0.24328 0.0
C2142 C 0.84962 0.14147 0.2319 0.0
C2143 C 0.86077 0.1551 0.23333 0.0
C2144 C 0.8613 0.16586 0.24612 0.0
C2145 C 0.85073 0.16296 0.25754 0.0
H2146 H 0.86897 0.15736 0.22451 0.0
H2147 H 0.76376 0.12921 0.33326 0.0
H2148 H 0.4574 0.015 0.99606 0.0
H2149 H 0.43396 0.99626 1.00057 0.0
H2150 H 0.41232 0.00338 0.95629 0.0
H2151 H 0.43589 0.02184 0.95161 0.0
H2152 H 0.391 0.00775 0.98209 0.0
H2153 H 0.42723 0.96979 0.95928 0.0
H2154 H 0.45363 0.95664 0.95701 0.0
H2155 H 0.45117 0.94006 1.00159 0.0
H2156 H 0.42487 0.95334 0.00421 0.0
H2157 H 0.32474 0.94837 0.97787 0.0
H2158 H 0.34882 0.96585 0.973 0.0
H2159 H 0.37671 0.94541 0.00944 0.0
H2160 H 0.3528 0.92733 0.0138 0.0
H2161 H 0.39541 0.94814 0.98793 0.0
H2162 H 0.3604 0.98522 0.01189 0.0
H2163 H 0.3348 0.99916 0.01615 0.0
H2164 H 0.33566 0.01855 0.97254 0.0
H2165 H 0.36117 0.00454 0.96794 0.0
C2166 C 0.44767 0.01246 0.98728 0.0
C2167 C 0.44843 0.01978 0.97348 0.0
C2168 C 0.43435 0.00177 0.98985 0.0
C2169 C 0.42146 0.99847 0.97875 0.0
C2170 C 0.42217 0.00579 0.96497 0.0
C2171 C 0.43565 0.01622 0.96229 0.0
C2172 C 0.40705 0.98766 0.98165 0.0
C2173 C 0.39185 0.99467 0.98318 0.0
C2174 C 0.4084 0.97075 0.98359 0.0
C2175 C 0.42418 0.96271 0.982 0.0
C2176 C 0.4324 0.96348 0.96865 0.0
C2177 C 0.44733 0.95597 0.96729 0.0
C2178 C 0.45409 0.94756 0.97916 0.0
C2179 C 0.44592 0.9466 0.99241 0.0
C2180 C 0.431 0.9541 0.99384 0.0
C2181 C 0.33601 0.9477 0.98486 0.0
C2182 C 0.33694 0.93662 0.99627 0.0
C2183 C 0.34975 0.95774 0.98213 0.0
C2184 C 0.36455 0.95724 0.99104 0.0
C2185 C 0.36547 0.94607 0.00242 0.0
C2186 C 0.35182 0.93578 0.00494 0.0
C2187 C 0.37912 0.96816 0.98835 0.0
C2188 C 0.39443 0.96121 0.98688 0.0
C2189 C 0.37794 0.98523 0.98678 0.0
C2190 C 0.36261 0.9937 0.98952 0.0
C2191 C 0.35507 0.99236 0.00317 0.0
C2192 C 0.34058 1.00029 0.00565 0.0
C2193 C 0.33359 0.0097 0.99461 0.0
C2194 C 0.34109 0.01124 0.98108 0.0
C2195 C 0.35557 0.00332 0.97853 0.0
H2196 H 0.32237 0.01583 0.99655 0.0
H2197 H 0.46565 0.94175 0.97809 0.0
H2198 H 0.29294 0.33919 0.28609 0.0
H2199 H 0.27355 0.36038 0.28095 0.0
H2200 H 0.2332 0.32744 0.29084 0.0
H2201 H 0.25257 0.30608 0.29584 0.0
H2202 H 0.22694 0.34362 0.26468 0.0
H2203 H 0.2461 0.35734 0.31601 0.0
H2204 H 0.26703 0.36346 0.33701 0.0
H2205 H 0.28591 0.40518 0.31517 0.0
H2206 H 0.26523 0.39916 0.29393 0.0
H2207 H 0.16719 0.404 0.26633 0.0
H2208 H 0.1852 0.38207 0.27251 0.0
H2209 H 0.22778 0.41484 0.26914 0.0
H2210 H 0.20988 0.4371 0.26386 0.0
H2211 H 0.23227 0.39804 0.29268 0.0
H2212 H 0.21444 0.38427 0.24105 0.0
H2213 H 0.19433 0.37822 0.21939 0.0
H2214 H 0.17388 0.3369 0.24079 0.0
H2215 H 0.19374 0.34285 0.26268 0.0
C2216 C 0.27993 0.33643 0.28711 0.0
C2217 C 0.27427 0.32097 0.29137 0.0
C2218 C 0.26888 0.34858 0.28427 0.0
C2219 C 0.25195 0.34552 0.28562 0.0
C2220 C 0.24623 0.33006 0.28977 0.0
C2221 C 0.2573 0.31792 0.29272 0.0
C2222 C 0.24026 0.35846 0.28259 0.0
C2223 C 0.22792 0.35545 0.27094 0.0
C2224 C 0.24183 0.37401 0.29051 0.0
C2225 C 0.25421 0.37771 0.30332 0.0
C2226 C 0.2548 0.36774 0.31563 0.0
C2227 C 0.2666 0.37121 0.32759 0.0
C2228 C 0.27781 0.38468 0.32741 0.0
C2229 C 0.27722 0.39474 0.31529 0.0
C2230 C 0.26545 0.39132 0.3033 0.0
C2231 C 0.18038 0.40663 0.26704 0.0
C2232 C 0.18703 0.42238 0.26453 0.0
C2233 C 0.19069 0.39398 0.2704 0.0
C2234 C 0.20789 0.3967 0.27109 0.0
C2235 C 0.21456 0.4124 0.26862 0.0
C2236 C 0.20427 0.42509 0.26541 0.0
C2237 C 0.21897 0.38331 0.27463 0.0
C2238 C 0.23121 0.38622 0.28641 0.0
C2239 C 0.21739 0.36772 0.26672 0.0
C2240 C 0.20546 0.36411 0.25357 0.0
C2241 C 0.20557 0.37397 0.24119 0.0
C2242 C 0.19423 0.37055 0.22886 0.0
C2243 C 0.18281 0.35721 0.22874 0.0
C2244 C 0.18272 0.34725 0.24092 0.0
C2245 C 0.19402 0.35063 0.25328 0.0
H2246 H 0.17404 0.35458 0.21918 0.0
H2247 H 0.28694 0.38734 0.33668 0.0
H2248 H 0.10584 0.98469 0.47077 0.0
H2249 H 0.12981 0.00397 0.47549 0.0
H2250 H 0.09934 0.04415 0.46561 0.0
H2251 H 0.07539 0.02492 0.46076 0.0
H2252 H 0.12695 0.04704 0.45192 0.0
H2253 H 0.11297 0.0369 0.50199 0.0
H2254 H 0.10671 0.02007 0.52314 0.0
H2255 H 0.15458 1.00042 0.52252 0.0
H2256 H 0.16105 0.01697 0.50122 0.0
H2257 H 0.18296 0.11228 0.481 0.0
H2258 H 0.15916 0.09266 0.47724 0.0
H2259 H 0.19107 0.05269 0.48314 0.0
H2260 H 0.21492 0.07227 0.48713 0.0
H2261 H 0.16306 0.04958 0.49892 0.0
H2262 H 0.1768 0.06017 0.44874 0.0
H2263 H 0.18284 0.07746 0.42785 0.0
H2264 H 0.1349 0.09687 0.42912 0.0
H2265 H 0.12866 0.07985 0.45018 0.0
C2266 C 0.10423 0.99766 0.46977 0.0
C2267 C 0.08873 0.00329 0.4654 0.0
C2268 C 0.11793 0.00867 0.47247 0.0
C2269 C 0.11636 0.02555 0.47105 0.0
C2270 C 0.10087 0.03119 0.46674 0.0
C2271 C 0.0872 0.02019 0.46396 0.0
C2272 C 0.13091 0.03731 0.47368 0.0
C2273 C 0.1347 0.04774 0.46229 0.0
C2274 C 0.14127 0.038 0.48707 0.0
C2275 C 0.13743 0.02806 0.49991 0.0
C2276 C 0.12211 0.02889 0.50629 0.0
C2277 C 0.11853 0.01942 0.51832 0.0
C2278 C 0.13022 0.00915 0.52415 0.0
C2279 C 0.14553 0.00836 0.51798 0.0
C2280 C 0.14916 0.0178 0.50593 0.0
C2281 C 0.18489 0.09932 0.48158 0.0
C2282 C 0.20082 0.09381 0.48431 0.0
C2283 C 0.17131 0.08812 0.47934 0.0
C2284 C 0.17337 0.07121 0.47979 0.0
C2285 C 0.18922 0.06569 0.48271 0.0
C2286 C 0.20283 0.07687 0.48486 0.0
C2287 C 0.15899 0.0593 0.47719 0.0
C2288 C 0.15527 0.04885 0.48857 0.0
C2289 C 0.14863 0.05865 0.46383 0.0
C2290 C 0.15233 0.06885 0.45113 0.0
C2291 C 0.1676 0.06822 0.44465 0.0
C2292 C 0.17105 0.07796 0.43276 0.0
C2293 C 0.15928 0.08829 0.42719 0.0
C2294 C 0.14402 0.08888 0.43346 0.0
C2295 C 0.14051 0.07918 0.44537 0.0
H2296 H 0.16197 0.09582 0.41798 0.0
H2297 H 0.12742 0.00183 0.53346 0.0
H2298 H 0.75873 0.19131 0.71411 0.0
H2299 H 0.73995 0.16797 0.71801 0.0
H2300 H 0.78128 0.13967 0.73082 0.0
H2301 H 0.80018 0.16262 0.72614 0.0
H2302 H 0.75985 0.12117 0.71364 0.0
H2303 H 0.7568 0.15788 0.75715 0.0
H2304 H 0.7527 0.18422 0.77096 0.0
H2305 H 0.70313 0.18378 0.7515 0.0
H2306 H 0.707 0.15754 0.73741 0.0
H2307 H 0.71556 0.05946 0.75025 0.0
H2308 H 0.73411 0.08264 0.74523 0.0
H2309 H 0.69283 0.10815 0.72751 0.0
H2310 H 0.67423 0.08489 0.73211 0.0
H2311 H 0.71395 0.12797 0.74709 0.0
H2312 H 0.7174 0.09065 0.70388 0.0
H2313 H 0.72183 0.06403 0.69074 0.0
H2314 H 0.77127 0.06535 0.71065 0.0
H2315 H 0.76705 0.09189 0.72409 0.0
C2316 C 0.76386 0.18006 0.71755 0.0
C2317 C 0.781 0.17892 0.71988 0.0
C2318 C 0.75308 0.16677 0.71996 0.0
C2319 C 0.75917 0.15213 0.72498 0.0
C2320 C 0.77627 0.15085 0.72705 0.0
C2321 C 0.78706 0.16407 0.72451 0.0
C2322 C 0.74776 0.13815 0.72809 0.0
C2323 C 0.74995 0.12264 0.72112 0.0
C2324 C 0.73463 0.14008 0.73762 0.0
C2325 C 0.73225 0.15583 0.74611 0.0
C2326 C 0.74506 0.16346 0.75573 0.0
C2327 C 0.74277 0.17836 0.76362 0.0
C2328 C 0.72768 0.18569 0.76208 0.0
C2329 C 0.71482 0.1781 0.75267 0.0
C2330 C 0.71705 0.16321 0.74474 0.0
C2331 C 0.71042 0.06991 0.74514 0.0
C2332 C 0.69337 0.07025 0.74156 0.0
C2333 C 0.72104 0.08318 0.74233 0.0
C2334 C 0.71485 0.09706 0.73591 0.0
C2335 C 0.69785 0.09757 0.73252 0.0
C2336 C 0.68723 0.08428 0.73524 0.0
C2337 C 0.7261 0.11106 0.73269 0.0
C2338 C 0.72386 0.12655 0.73963 0.0
C2339 C 0.73926 0.10909 0.72324 0.0
C2340 C 0.74185 0.09318 0.71511 0.0
C2341 C 0.72917 0.0852 0.70556 0.0
C2342 C 0.73165 0.07014 0.69804 0.0
C2343 C 0.74681 0.06298 0.69989 0.0
C2344 C 0.75953 0.0709 0.70924 0.0
C2345 C 0.7571 0.08596 0.71681 0.0
H2346 H 0.74871 0.05132 0.69406 0.0
H2347 H 0.72593 0.19722 0.7682 0.0
H2348 H 0.42909 0.98923 0.52838 0.0
H2349 H 0.40866 0.00941 0.5233 0.0
H2350 H 0.44387 0.04842 0.53995 0.0
H2351 H 0.46432 0.0282 0.54527 0.0
H2352 H 0.41488 0.05383 0.55019 0.0
H2353 H 0.43412 0.04014 0.50178 0.0
H2354 H 0.44104 0.02188 0.48039 0.0
H2355 H 0.39058 0.00375 0.47388 0.0
H2356 H 0.38339 0.02174 0.49538 0.0
H2357 H 0.36812 0.1176 0.52057 0.0
H2358 H 0.38998 0.09869 0.52531 0.0
H2359 H 0.35574 0.05757 0.5126 0.0
H2360 H 0.33394 0.07638 0.50755 0.0
H2361 H 0.38515 0.05424 0.50002 0.0
H2362 H 0.36643 0.06778 0.54915 0.0
H2363 H 0.35988 0.08648 0.57037 0.0
H2364 H 0.41011 0.10559 0.57508 0.0
H2365 H 0.4169 0.08715 0.55374 0.0
C2366 C 0.43252 0.00211 0.53086 0.0
C2367 C 0.44835 0.00713 0.53713 0.0
C2368 C 0.42083 0.01365 0.52793 0.0
C2369 C 0.42479 0.03048 0.531 0.0
C2370 C 0.44053 0.03551 0.53746 0.0
C2371 C 0.45219 0.02395 0.54051 0.0
C2372 C 0.41245 0.04278 0.52759 0.0
C2373 C 0.40858 0.05407 0.53914 0.0
C2374 C 0.40399 0.04297 0.51326 0.0
C2375 C 0.40825 0.03218 0.50028 0.0
C2376 C 0.42452 0.03217 0.49586 0.0
C2377 C 0.42849 0.02188 0.4837 0.0
C2378 C 0.41627 0.01163 0.47581 0.0
C2379 C 0.40004 0.01168 0.48002 0.0
C2380 C 0.39601 0.02193 0.49218 0.0
C2381 C 0.36528 0.10454 0.51868 0.0
C2382 C 0.34927 0.09849 0.51375 0.0
C2383 C 0.37775 0.09375 0.52151 0.0
C2384 C 0.37445 0.07671 0.51945 0.0
C2385 C 0.35855 0.07066 0.51431 0.0
C2386 C 0.34607 0.08143 0.51155 0.0
C2387 C 0.38753 0.06514 0.52263 0.0
C2388 C 0.39153 0.05401 0.51103 0.0
C2389 C 0.39618 0.06518 0.53688 0.0
C2390 C 0.39213 0.07621 0.54975 0.0
C2391 C 0.37604 0.07606 0.55463 0.0
C2392 C 0.3723 0.0866 0.5667 0.0
C2393 C 0.38456 0.09725 0.57405 0.0
C2394 C 0.40062 0.09735 0.56937 0.0
C2395 C 0.40442 0.08686 0.5573 0.0
H2396 H 0.38164 0.10539 0.58339 0.0
H2397 H 0.41936 0.00368 0.4664 0.0
H2398 H 0.59994 0.53681 0.5352 0.0
H2399 H 0.62155 0.51817 0.52962 0.0
H2400 H 0.59463 0.47915 0.54942 0.0
H2401 H 0.57251 0.49748 0.55447 0.0
H2402 H 0.62954 0.48288 0.55854 0.0
H2403 H 0.59295 0.47786 0.5137 0.0
H2404 H 0.57681 0.48856 0.4925 0.0
H2405 H 0.62102 0.51007 0.47644 0.0
H2406 H 0.63741 0.49971 0.49769 0.0
H2407 H 0.67606 0.41726 0.53348 0.0
H2408 H 0.65383 0.43503 0.53902 0.0
H2409 H 0.67313 0.47053 0.50989 0.0
H2410 H 0.69474 0.45228 0.50342 0.0
H2411 H 0.64165 0.46865 0.50572 0.0
H2412 H 0.67854 0.47493 0.54965 0.0
H2413 H 0.69565 0.46604 0.57111 0.0
H2414 H 0.65267 0.44448 0.5893 0.0
H2415 H 0.63532 0.45305 0.56782 0.0
C2416 C 0.59844 0.52422 0.53821 0.0
C2417 C 0.58433 0.51867 0.54518 0.0
C2418 C 0.61089 0.51361 0.53511 0.0
C2419 C 0.60963 0.49727 0.53903 0.0
C2420 C 0.59584 0.49175 0.54634 0.0
C2421 C 0.58324 0.50229 0.54928 0.0
C2422 C 0.62261 0.48591 0.53527 0.0
C2423 C 0.63208 0.47955 0.547 0.0
C2424 C 0.6262 0.48203 0.52023 0.0
C2425 C 0.61638 0.48814 0.50737 0.0
C2426 C 0.59922 0.48499 0.50572 0.0
C2427 C 0.59003 0.49097 0.49368 0.0
C2428 C 0.59788 0.50003 0.48315 0.0
C2429 C 0.61495 0.50307 0.48461 0.0
C2430 C 0.6242 0.49714 0.49665 0.0
C2431 C 0.67548 0.4287 0.52802 0.0
C2432 C 0.68732 0.43326 0.51798 0.0
C2433 C 0.66285 0.43901 0.53141 0.0
C2434 C 0.66193 0.45431 0.52512 0.0
C2435 C 0.6736 0.45884 0.51498 0.0
C2436 C 0.6861 0.44843 0.51141 0.0
C2437 C 0.64874 0.46552 0.529 0.0
C2438 C 0.63919 0.4719 0.51729 0.0
C2439 C 0.64527 0.46964 0.54409 0.0
C2440 C 0.65565 0.46449 0.55704 0.0
C2441 C 0.67275 0.46819 0.55816 0.0
C2442 C 0.68249 0.46322 0.57034 0.0
C2443 C 0.67526 0.45466 0.58154 0.0
C2444 C 0.65826 0.45109 0.5806 0.0
C2445 C 0.64846 0.45601 0.56843 0.0
H2446 H 0.68282 0.45083 0.59096 0.0
H2447 H 0.59075 0.50465 0.47383 0.0
H2448 H 0.76175 0.21976 0.33928 0.0
H2449 H 0.76378 0.23714 0.36246 0.0
H2450 H 0.74099 0.27573 0.33914 0.0
H2451 H 0.74042 0.25909 0.31563 0.0
H2452 H 0.76282 0.28924 0.35724 0.0
H2453 H 0.71991 0.24847 0.36306 0.0
H2454 H 0.70705 0.22057 0.36355 0.0
H2455 H 0.74205 0.20986 0.39911 0.0
H2456 H 0.75526 0.23763 0.39871 0.0
H2457 H 0.73255 0.33033 0.42278 0.0
H2458 H 0.73311 0.31283 0.39973 0.0
H2459 H 0.77328 0.28735 0.41945 0.0
H2460 H 0.77366 0.30541 0.44222 0.0
H2461 H 0.74313 0.26729 0.40393 0.0
H2462 H 0.78503 0.3102 0.39728 0.0
H2463 H 0.79507 0.33909 0.39668 0.0
H2464 H 0.7577 0.34667 0.36208 0.0
H2465 H 0.74728 0.31787 0.36266 0.0
C2466 C 0.75747 0.23205 0.33895 0.0
C2467 C 0.75079 0.23787 0.32546 0.0
C2468 C 0.75836 0.24191 0.35235 0.0
C2469 C 0.75215 0.25765 0.35272 0.0
C2470 C 0.74576 0.26361 0.33925 0.0
C2471 C 0.74523 0.25392 0.32579 0.0
C2472 C 0.75229 0.26797 0.36708 0.0
C2473 C 0.75832 0.28441 0.36736 0.0
C2474 C 0.7466 0.26177 0.38045 0.0
C2475 C 0.73867 0.24507 0.38074 0.0
C2476 C 0.72494 0.24012 0.37091 0.0
C2477 C 0.71758 0.22434 0.37118 0.0
C2478 C 0.72376 0.21344 0.38132 0.0
C2479 C 0.73729 0.21831 0.39125 0.0
C2480 C 0.74471 0.23407 0.39101 0.0
C2481 C 0.74172 0.32122 0.42223 0.0
C2482 C 0.75311 0.31944 0.4345 0.0
C2483 C 0.74189 0.31112 0.40905 0.0
C2484 C 0.75322 0.29884 0.40794 0.0
C2485 C 0.76437 0.29673 0.42017 0.0
C2486 C 0.76446 0.30703 0.43324 0.0
C2487 C 0.75357 0.28834 0.3939 0.0
C2488 C 0.74762 0.27195 0.39374 0.0
C2489 C 0.75893 0.29467 0.38056 0.0
C2490 C 0.76527 0.31194 0.38013 0.0
C2491 C 0.77885 0.31807 0.38965 0.0
C2492 C 0.78463 0.33442 0.38929 0.0
C2493 C 0.777 0.34472 0.37938 0.0
C2494 C 0.76359 0.33868 0.36977 0.0
C2495 C 0.75775 0.32235 0.3701 0.0
H2496 H 0.78149 0.35737 0.37912 0.0
H2497 H 0.71805 0.20122 0.38152 0.0
H2498 H 0.51412 0.9988 0.92604 0.0
H2499 H 0.5306 0.99688 0.90399 0.0
H2500 H 0.5176 0.04542 0.893 0.0
H2501 H 0.50142 0.04758 0.91526 0.0
H2502 H 0.51408 0.01873 0.86818 0.0
H2503 H 0.55289 0.04426 0.90678 0.0
H2504 H 0.56782 0.04637 0.93176 0.0
H2505 H 0.5882 0.99972 0.9224 0.0
H2506 H 0.57318 0.99722 0.89744 0.0
H2507 H 0.56921 0.02878 0.8107 0.0
H2508 H 0.55298 0.03274 0.83266 0.0
H2509 H 0.5776 0.99364 0.85369 0.0
H2510 H 0.59436 0.99023 0.83202 0.0
H2511 H 0.57488 0.01645 0.87374 0.0
H2512 H 0.53668 0.98937 0.83641 0.0
H2513 H 0.52117 0.98492 0.81178 0.0
H2514 H 0.49884 0.03099 0.81879 0.0
H2515 H 0.51439 0.03581 0.84339 0.0
C2516 C 0.51482 0.00906 0.91892 0.0
C2517 C 0.50661 0.02336 0.92238 0.0
C2518 C 0.52422 0.00795 0.90638 0.0
C2519 C 0.52533 0.02103 0.89694 0.0
C2520 C 0.51688 0.03522 0.90019 0.0
C2521 C 0.50772 0.03645 0.91292 0.0
C2522 C 0.5354 0.01984 0.88372 0.0
C2523 C 0.5274 0.01848 0.86932 0.0
C2524 C 0.55269 0.01896 0.88533 0.0
C2525 C 0.56178 0.02048 0.90031 0.0
C2526 C 0.56043 0.03438 0.91011 0.0
C2527 C 0.56894 0.03566 0.92425 0.0
C2528 C 0.57892 0.02316 0.92868 0.0
C2529 C 0.58045 0.00938 0.91896 0.0
C2530 C 0.57195 0.00803 0.90481 0.0
C2531 C 0.5711 0.02104 0.82003 0.0
C2532 C 0.58297 0.00917 0.81968 0.0
C2533 C 0.56177 0.02324 0.83255 0.0
C2534 C 0.5638 0.01329 0.84478 0.0
C2535 C 0.57577 0.00149 0.84444 0.0
C2536 C 0.58533 0.99952 0.83205 0.0
C2537 C 0.55361 0.01525 0.85799 0.0
C2538 C 0.56157 0.01674 0.87247 0.0
C2539 C 0.53622 0.0159 0.85644 0.0
C2540 C 0.52683 0.01302 0.84167 0.0
C2541 C 0.52855 0.99861 0.83265 0.0
C2542 C 0.51974 0.99601 0.8187 0.0
C2543 C 0.50906 0.00769 0.8137 0.0
C2544 C 0.50714 0.02196 0.82266 0.0
C2545 C 0.51594 0.02463 0.83661 0.0
H2546 H 0.50225 0.00565 0.8029 0.0
H2547 H 0.5855 0.02418 0.93963 0.0
H2548 H 0.3216 0.27752 0.32871 0.0
H2549 H 0.31972 0.26158 0.35091 0.0
H2550 H 0.2668 0.25766 0.34364 0.0
H2551 H 0.26858 0.27349 0.32135 0.0
H2552 H 0.27604 0.26551 0.37275 0.0
H2553 H 0.2899 0.22525 0.33498 0.0
H2554 H 0.30621 0.21374 0.31494 0.0
H2555 H 0.34882 0.21491 0.34587 0.0
H2556 H 0.33282 0.22666 0.36606 0.0
H2557 H 0.25989 0.20311 0.42263 0.0
H2558 H 0.26206 0.21882 0.40033 0.0
H2559 H 0.31497 0.22208 0.40772 0.0
H2560 H 0.3129 0.20643 0.4301 0.0
H2561 H 0.30593 0.21464 0.3786 0.0
H2562 H 0.29219 0.25484 0.41636 0.0
H2563 H 0.27601 0.2665 0.43644 0.0
H2564 H 0.23334 0.26561 0.40559 0.0
H2565 H 0.24921 0.25372 0.38537 0.0
C2566 C 0.30956 0.27311 0.33173 0.0
C2567 C 0.29524 0.27676 0.3232 0.0
C2568 C 0.30851 0.26402 0.34445 0.0
C2569 C 0.29312 0.25828 0.34887 0.0
C2570 C 0.2788 0.26199 0.34046 0.0
C2571 C 0.27984 0.27108 0.32774 0.0
C2572 C 0.29195 0.24857 0.36237 0.0
C2573 C 0.28239 0.25426 0.37394 0.0
C2574 C 0.30057 0.23411 0.3641 0.0
C2575 C 0.3102 0.22699 0.35199 0.0
C2576 C 0.30278 0.22318 0.33748 0.0
C2577 C 0.31196 0.21659 0.3261 0.0
C2578 C 0.32855 0.21364 0.32912 0.0
C2579 C 0.33598 0.21723 0.34354 0.0
C2580 C 0.32686 0.22384 0.35496 0.0
C2581 C 0.27199 0.2073 0.41961 0.0
C2582 C 0.28622 0.20356 0.42822 0.0
C2583 C 0.27321 0.21626 0.40683 0.0
C2584 C 0.28868 0.2218 0.40243 0.0
C2585 C 0.30291 0.21793 0.41088 0.0
C2586 C 0.3017 0.20893 0.42366 0.0
C2587 C 0.28999 0.23157 0.38897 0.0
C2588 C 0.29958 0.22589 0.37742 0.0
C2589 C 0.28141 0.24605 0.38726 0.0
C2590 C 0.27185 0.25324 0.39939 0.0
C2591 C 0.27932 0.25701 0.41389 0.0
C2592 C 0.27021 0.26368 0.42529 0.0
C2593 C 0.25365 0.26675 0.4223 0.0
C2594 C 0.24617 0.2632 0.40789 0.0
C2595 C 0.25522 0.25651 0.39645 0.0
H2596 H 0.24662 0.27192 0.43114 0.0
H2597 H 0.33564 0.20853 0.32029 0.0
H2598 H 0.54073 0.50927 0.93454 0.0
H2599 H 0.52384 0.51295 0.91163 0.0
H2600 H 0.51931 0.46052 0.90221 0.0
H2601 H 0.537 0.45677 0.92478 0.0
H2602 H 0.5255 0.47489 0.8776 0.0
H2603 H 0.48691 0.4826 0.91505 0.0
H2604 H 0.4763 0.49414 0.93845 0.0
H2605 H 0.47953 0.54239 0.92195 0.0
H2606 H 0.49038 0.53117 0.89852 0.0
H2607 H 0.46084 0.47933 0.82002 0.0
H2608 H 0.47637 0.47359 0.84325 0.0
H2609 H 0.48891 0.52522 0.85216 0.0
H2610 H 0.4739 0.53109 0.82872 0.0
H2611 H 0.47746 0.50988 0.87707 0.0
H2612 H 0.51713 0.50148 0.83985 0.0
H2613 H 0.52715 0.48927 0.81645 0.0
H2614 H 0.52078 0.44116 0.83276 0.0
H2615 H 0.51049 0.45307 0.85618 0.0
C2616 C 0.53625 0.4985 0.92757 0.0
C2617 C 0.54031 0.48271 0.93151 0.0
C2618 C 0.52639 0.50062 0.91454 0.0
C2619 C 0.52009 0.487 0.90526 0.0
C2620 C 0.52397 0.47121 0.90922 0.0
C2621 C 0.53396 0.46908 0.92221 0.0
C2622 C 0.50994 0.48935 0.89118 0.0
C2623 C 0.51482 0.48231 0.87755 0.0
C2624 C 0.49616 0.49926 0.89101 0.0
C2625 C 0.48959 0.50606 0.90508 0.0
C2626 C 0.48547 0.49569 0.91645 0.0
C2627 C 0.4794 0.50217 0.92972 0.0
C2628 C 0.47728 0.51899 0.9317 0.0
C2629 C 0.4812 0.52936 0.92041 0.0
C2630 C 0.48729 0.52295 0.90712 0.0
C2631 C 0.4671 0.48948 0.82677 0.0
C2632 C 0.46611 0.5057 0.82241 0.0
C2633 C 0.47589 0.48616 0.84011 0.0
C2634 C 0.48382 0.49898 0.8494 0.0
C2635 C 0.4828 0.51516 0.84518 0.0
C2636 C 0.47414 0.51848 0.83178 0.0
C2637 C 0.49313 0.49554 0.86358 0.0
C2638 C 0.48808 0.50238 0.8772 0.0
C2639 C 0.50664 0.48533 0.86375 0.0
C2640 C 0.51287 0.47815 0.8497 0.0
C2641 C 0.51772 0.48829 0.83839 0.0
C2642 C 0.52348 0.48142 0.82513 0.0
C2643 C 0.52455 0.46445 0.8231 0.0
C2644 C 0.51991 0.4543 0.83434 0.0
C2645 C 0.51413 0.46111 0.84761 0.0
H2646 H 0.52902 0.45916 0.81283 0.0
H2647 H 0.47258 0.52398 0.94198 0.0
H2648 H 0.73844 0.75944 0.18848 0.0
H2649 H 0.74199 0.74276 0.16535 0.0
H2650 H 0.75103 0.7867 0.14201 0.0
H2651 H 0.747 0.80343 0.16493 0.0
H2652 H 0.73111 0.76491 0.12504 0.0
H2653 H 0.78268 0.76401 0.15412 0.0
H2654 H 0.80071 0.75951 0.17655 0.0
H2655 H 0.78436 0.70864 0.17393 0.0
H2656 H 0.76605 0.71288 0.15159 0.0
H2657 H 0.76703 0.7301 0.06112 0.0
H2658 H 0.76246 0.74604 0.08437 0.0
H2659 H 0.75387 0.70128 0.10662 0.0
H2660 H 0.75898 0.68526 0.08355 0.0
H2661 H 0.77309 0.723 0.12428 0.0
H2662 H 0.72188 0.72383 0.09486 0.0
H2663 H 0.70391 0.72837 0.0724 0.0
H2664 H 0.7196 0.77944 0.07563 0.0
H2665 H 0.73784 0.77515 0.098 0.0
C2666 C 0.741 0.76555 0.17838 0.0
C2667 C 0.74254 0.78277 0.17858 0.0
C2668 C 0.74318 0.756 0.1652 0.0
C2669 C 0.747 0.76347 0.15199 0.0
C2670 C 0.74817 0.78065 0.15208 0.0
C2671 C 0.746 0.7902 0.16523 0.0
C2672 C 0.74992 0.75344 0.13809 0.0
C2673 C 0.74042 0.75588 0.12483 0.0
C2674 C 0.76182 0.74139 0.13788 0.0
C2675 C 0.77287 0.7388 0.15128 0.0
C2676 C 0.78283 0.75189 0.1584 0.0
C2677 C 0.79312 0.74938 0.17108 0.0
C2678 C 0.79365 0.73381 0.17669 0.0
C2679 C 0.78392 0.7207 0.16959 0.0
C2680 C 0.77359 0.72314 0.15691 0.0
C2681 C 0.76434 0.72364 0.071 0.0
C2682 C 0.76331 0.70639 0.07044 0.0
C2683 C 0.76156 0.73277 0.08425 0.0
C2684 C 0.7576 0.72486 0.09719 0.0
C2685 C 0.75683 0.70766 0.09675 0.0
C2686 C 0.75961 0.69851 0.08351 0.0
C2687 C 0.75431 0.73452 0.11121 0.0
C2688 C 0.76375 0.732 0.12449 0.0
C2689 C 0.74235 0.7465 0.11144 0.0
C2690 C 0.73134 0.74913 0.09802 0.0
C2691 C 0.72159 0.736 0.09071 0.0
C2692 C 0.71134 0.73854 0.07801 0.0
C2693 C 0.71064 0.75418 0.07257 0.0
C2694 C 0.72017 0.76732 0.07985 0.0
C2695 C 0.73045 0.76485 0.09254 0.0
H2696 H 0.7027 0.75612 0.06274 0.0
H2697 H 0.80163 0.73189 0.18651 0.0
H2698 H 0.05987 0.03578 0.09127 0.0
H2699 H 0.04424 0.03377 0.11365 0.0
H2700 H 0.99913 0.03909 0.08688 0.0
H2701 H 0.01468 0.04109 0.06444 0.0
H2702 H 0.99978 0.05764 0.11262 0.0
H2703 H 0.00982 0.00163 0.09858 0.0
H2704 H 0.02678 0.97843 0.09202 0.0
H2705 H 0.05344 0.98521 0.13513 0.0
H2706 H 0.03678 0.00861 0.14187 0.0
H2707 H 0.94337 0.03123 0.16475 0.0
H2708 H 0.95956 0.03371 0.1428 0.0
H2709 H 0.00413 0.02855 0.1704 0.0
H2710 H 0.98795 0.0255 0.19235 0.0
H2711 H 0.0041 0.01016 0.14451 0.0
H2712 H 0.99376 0.06597 0.15867 0.0
H2713 H 0.97674 0.08913 0.16519 0.0
H2714 H 0.95058 0.08267 0.12183 0.0
H2715 H 0.9673 0.05932 0.11512 0.0
C2716 C 0.0466 0.03638 0.09011 0.0
C2717 C 0.03852 0.03853 0.07603 0.0
C2718 C 0.03768 0.03525 0.10293 0.0
C2719 C 0.02047 0.03609 0.10194 0.0
C2720 C 0.01239 0.03843 0.08794 0.0
C2721 C 0.02131 0.03961 0.07512 0.0
C2722 C 0.01089 0.03457 0.11549 0.0
C2723 C 1.00057 0.04715 0.11948 0.0
C2724 C 0.01219 0.02109 0.12467 0.0
C2725 C 0.02216 0.00697 0.12067 0.0
C2726 C 0.01938 0.99825 0.10662 0.0
C2727 C 0.02893 0.98506 0.10287 0.0
C2728 C 0.04121 0.98038 0.11314 0.0
C2729 C 0.04394 0.98886 0.12718 0.0
C2730 C 0.03444 0.00208 0.13098 0.0
C2731 C 0.9566 0.0305 0.16615 0.0
C2732 C 0.96434 0.02818 0.18035 0.0
C2733 C 0.96587 0.03208 0.1536 0.0
C2734 C 0.9831 0.03151 0.15496 0.0
C2735 C 0.99086 0.0291 0.16908 0.0
C2736 C 0.9816 0.0275 0.18165 0.0
C2737 C 0.99297 0.0332 0.14162 0.0
C2738 C 0.00334 0.02066 0.13766 0.0
C2739 C 0.99171 0.04671 0.13247 0.0
C2740 C 0.98168 0.0608 0.13645 0.0
C2741 C 0.98429 0.06941 0.15057 0.0
C2742 C 0.97471 0.08258 0.15429 0.0
C2743 C 0.96256 0.08734 0.14394 0.0
C2744 C 0.95999 0.07896 0.12984 0.0
C2745 C 0.96952 0.06576 0.12606 0.0
H2746 H 0.95516 0.09755 0.14685 0.0
H2747 H 0.04858 0.97016 0.11022 0.0
H2748 H 0.2848 0.73458 0.16434 0.0
H2749 H 0.27972 0.74962 0.14173 0.0
H2750 H 0.29823 0.79456 0.16606 0.0
H2751 H 0.30334 0.77957 0.18872 0.0
H2752 H 0.26926 0.79829 0.14922 0.0
H2753 H 0.32182 0.77557 0.14214 0.0
H2754 H 0.34123 0.75345 0.1404 0.0
H2755 H 0.31117 0.72946 0.10355 0.0
H2756 H 0.29145 0.75134 0.10521 0.0
H2757 H 0.28041 0.84919 0.08898 0.0
H2758 H 0.28458 0.83315 0.11098 0.0
H2759 H 0.26925 0.78885 0.08409 0.0
H2760 H 0.26564 0.80475 0.06188 0.0
H2761 H 0.29574 0.78404 0.10198 0.0
H2762 H 0.2435 0.80663 0.10834 0.0
H2763 H 0.22364 0.82836 0.10994 0.0
H2764 H 0.25219 0.852 0.14789 0.0
H2765 H 0.27236 0.83053 0.14639 0.0
C2766 C 0.28777 0.74767 0.16488 0.0
C2767 C 0.29446 0.75595 0.17829 0.0
C2768 C 0.28492 0.75623 0.15194 0.0
C2769 C 0.28869 0.7732 0.15219 0.0
C2770 C 0.29522 0.78148 0.16562 0.0
C2771 C 0.29817 0.77292 0.17852 0.0
C2772 C 0.28583 0.78235 0.13848 0.0
C2773 C 0.27519 0.79532 0.13894 0.0
C2774 C 0.29321 0.77814 0.12494 0.0
C2775 C 0.30507 0.765 0.12391 0.0
C2776 C 0.31927 0.7655 0.13376 0.0
C2777 C 0.33035 0.75302 0.13277 0.0
C2778 C 0.32741 0.74003 0.1219 0.0
C2779 C 0.31341 0.73952 0.11198 0.0
C2780 C 0.30229 0.75196 0.11293 0.0
C2781 C 0.27807 0.83601 0.08769 0.0
C2782 C 0.27265 0.82827 0.07364 0.0
C2783 C 0.28029 0.82687 0.10033 0.0
C2784 C 0.27701 0.8098 0.09925 0.0
C2785 C 0.27177 0.80201 0.08522 0.0
C2786 C 0.26957 0.81114 0.07256 0.0
C2787 C 0.27923 0.8001 0.11272 0.0
C2788 C 0.28974 0.78701 0.11223 0.0
C2789 C 0.27164 0.80413 0.1262 0.0
C2790 C 0.25952 0.81705 0.12716 0.0
C2791 C 0.24562 0.81654 0.11696 0.0
C2792 C 0.23429 0.82879 0.11785 0.0
C2793 C 0.23668 0.84157 0.12898 0.0
C2794 C 0.25037 0.8421 0.13926 0.0
C2795 C 0.26175 0.82988 0.1384 0.0
H2796 H 0.22789 0.85105 0.12966 0.0
H2797 H 0.336 0.73038 0.12115 0.0
H2798 H 0.97263 0.49171 0.08535 0.0
H2799 H 0.98989 0.49262 0.10886 0.0
H2800 H 0.0319 0.48075 0.08401 0.0
H2801 H 0.01475 0.47987 0.0605 0.0
H2802 H 0.02989 0.46237 0.10765 0.0
H2803 H 0.02739 0.51969 0.09898 0.0
H2804 H 0.01364 0.54522 0.09414 0.0
H2805 H 0.98967 0.54246 0.13546 0.0
H2806 H 0.00311 0.51677 0.14046 0.0
H2807 H 0.09404 0.48133 0.16398 0.0
H2808 H 0.07552 0.48078 0.14137 0.0
H2809 H 0.03519 0.49259 0.16845 0.0
H2810 H 0.0538 0.49372 0.19112 0.0
H2811 H 0.03539 0.51064 0.14428 0.0
H2812 H 0.0385 0.4537 0.15328 0.0
H2813 H 0.05228 0.42818 0.15811 0.0
H2814 H 0.07507 0.43019 0.11614 0.0
H2815 H 0.0616 0.45586 0.11115 0.0
C2816 C 0.98559 0.4895 0.08489 0.0
C2817 C 0.99231 0.48569 0.07106 0.0
C2818 C 0.99543 0.48999 0.09833 0.0
C2819 C 0.01222 0.48684 0.0982 0.0
C2820 C 0.01897 0.48315 0.0844 0.0
C2821 C 0.00914 0.48262 0.07097 0.0
C2822 C 0.02273 0.48704 0.11243 0.0
C2823 C 0.03125 0.473 0.11557 0.0
C2824 C 0.02416 0.50074 0.12297 0.0
C2825 C 0.01612 0.51622 0.12001 0.0
C2826 C 0.01908 0.52446 0.10698 0.0
C2827 C 0.01136 0.53897 0.10422 0.0
C2828 C 1.00075 0.54543 0.11447 0.0
C2829 C 0.99787 0.53742 0.12752 0.0
C2830 C 0.00554 0.52289 0.13033 0.0
C2831 C 0.08125 0.48391 0.16514 0.0
C2832 C 0.07541 0.48755 0.17939 0.0
C2833 C 0.07064 0.48344 0.1522 0.0
C2834 C 0.05391 0.48646 0.15321 0.0
C2835 C 0.04803 0.49015 0.1674 0.0
C2836 C 0.05866 0.49064 0.18036 0.0
C2837 C 0.04265 0.48602 0.13943 0.0
C2838 C 0.03398 0.49999 0.13638 0.0
C2839 C 0.04108 0.47225 0.12896 0.0
C2840 C 0.04915 0.45678 0.13191 0.0
C2841 C 0.04654 0.44877 0.14513 0.0
C2842 C 0.05428 0.43426 0.14789 0.0
C2843 C 0.06457 0.42759 0.13745 0.0
C2844 C 0.06711 0.43538 0.12422 0.0
C2845 C 0.05941 0.4499 0.12141 0.0
H2846 H 0.07055 0.41636 0.13961 0.0
H2847 H 0.99479 0.55667 0.11231 0.0
H2848 H 0.3439 0.7238 0.22057 0.0
H2849 H 0.36843 0.72862 0.23774 0.0
H2850 H 0.33978 0.71674 0.27504 0.0
H2851 H 0.31505 0.71261 0.25804 0.0
H2852 H 0.36023 0.74244 0.28278 0.0
H2853 H 0.36495 0.68896 0.25895 0.0
H2854 H 0.36565 0.66851 0.23761 0.0
H2855 H 0.40767 0.69469 0.22207 0.0
H2856 H 0.40707 0.71543 0.24321 0.0
H2857 H 0.42678 0.7281 0.33499 0.0
H2858 H 0.40217 0.72439 0.3177 0.0
H2859 H 0.43058 0.73988 0.28139 0.0
H2860 H 0.45529 0.74334 0.29855 0.0
H2861 H 0.41042 0.71255 0.27313 0.0
H2862 H 0.40564 0.76586 0.29761 0.0
H2863 H 0.40479 0.78582 0.3193 0.0
H2864 H 0.36266 0.75918 0.33411 0.0
H2865 H 0.3634 0.73892 0.3126 0.0
C2866 C 0.34275 0.72244 0.23246 0.0
C2867 C 0.32749 0.71774 0.23791 0.0
C2868 C 0.35684 0.72502 0.24224 0.0
C2869 C 0.35601 0.72279 0.25766 0.0
C2870 C 0.34074 0.71846 0.26319 0.0
C2871 C 0.32664 0.71595 0.25342 0.0
C2872 C 0.37108 0.72482 0.26802 0.0
C2873 C 0.37112 0.73574 0.28076 0.0
C2874 C 0.38543 0.71632 0.26527 0.0
C2875 C 0.38586 0.70383 0.25258 0.0
C2876 C 0.37426 0.69042 0.25092 0.0
C2877 C 0.37465 0.67877 0.23887 0.0
C2878 C 0.38667 0.68032 0.22847 0.0
C2879 C 0.39835 0.69351 0.23012 0.0
C2880 C 0.398 0.70521 0.24214 0.0
C2881 C 0.42781 0.73059 0.32329 0.0
C2882 C 0.44298 0.73606 0.31814 0.0
C2883 C 0.41372 0.72859 0.31346 0.0
C2884 C 0.41451 0.73202 0.29829 0.0
C2885 C 0.42968 0.73722 0.29306 0.0
C2886 C 0.44376 0.73931 0.3029 0.0
C2887 C 0.39954 0.73014 0.28786 0.0
C2888 C 0.39951 0.71925 0.27512 0.0
C2889 C 0.38518 0.73858 0.29067 0.0
C2890 C 0.38468 0.75078 0.30357 0.0
C2891 C 0.39627 0.76418 0.30556 0.0
C2892 C 0.3958 0.77556 0.31781 0.0
C2893 C 0.38371 0.77374 0.3281 0.0
C2894 C 0.37203 0.76056 0.32614 0.0
C2895 C 0.37247 0.74913 0.31391 0.0
H2896 H 0.38336 0.78257 0.33758 0.0
H2897 H 0.38696 0.67128 0.21915 0.0
H2898 H 0.98028 0.4447 0.99442 0.0
H2899 H 0.98604 0.42377 0.97498 0.0
H2900 H 0.99354 0.38897 0.00894 0.0
H2901 H 0.9882 0.40998 0.02841 0.0
H2902 H 0.01674 0.38706 0.98995 0.0
H2903 H 0.95764 0.38822 0.98541 0.0
H2904 H 0.931 0.401 0.98191 0.0
H2905 H 0.94388 0.41613 0.93873 0.0
H2906 H 0.97071 0.40362 0.94206 0.0
H2907 H 0.00996 0.31235 0.94529 0.0
H2908 H 0.00502 0.33518 0.96308 0.0
H2909 H 0.00282 0.3678 0.92686 0.0
H2910 H 0.0075 0.34492 0.90893 0.0
H2911 H 0.97773 0.37194 0.94586 0.0
H2912 H 0.03642 0.36923 0.95013 0.0
H2913 H 0.06268 0.3558 0.95373 0.0
H2914 H 0.05015 0.34297 0.99769 0.0
H2915 H 0.02368 0.35612 0.99427 0.0
C2916 C 0.98311 0.43257 0.99772 0.0
C2917 C 0.98373 0.4289 0.01292 0.0
C2918 C 0.98634 0.4206 0.9866 0.0
C2919 C 0.99004 0.40471 0.99046 0.0
C2920 C 0.99072 0.40112 0.00567 0.0
C2921 C 0.98761 0.4131 0.01677 0.0
C2922 C 0.99341 0.39183 0.97877 0.0
C2923 C 0.00811 0.38364 0.9804 0.0
C2924 C 0.98238 0.38763 0.96608 0.0
C2925 C 0.96625 0.39514 0.96406 0.0
C2926 C 0.95485 0.39439 0.97522 0.0
C2927 C 0.9397 0.40156 0.97326 0.0
C2928 C 0.93577 0.40941 0.96013 0.0
C2929 C 0.94695 0.41007 0.94891 0.0
C2930 C 0.96212 0.40293 0.95082 0.0
C2931 C 0.00833 0.32436 0.94109 0.0
C2932 C 0.00913 0.32684 0.9257 0.0
C2933 C 0.00563 0.33742 0.95129 0.0
C2934 C 0.0037 0.35322 0.94631 0.0
C2935 C 0.00433 0.35572 0.93094 0.0
C2936 C 0.00712 0.34267 0.92073 0.0
C2937 C 1.00092 0.36707 0.95719 0.0
C2938 C 0.98637 0.37544 0.95538 0.0
C2939 C 0.01204 0.37138 0.96976 0.0
C2940 C 0.02799 0.36354 0.97189 0.0
C2941 C 0.0392 0.36343 0.96052 0.0
C2942 C 0.05413 0.35589 0.96254 0.0
C2943 C 0.05806 0.3485 0.97592 0.0
C2944 C 0.04708 0.34868 0.98733 0.0
C2945 C 0.03211 0.35619 0.98536 0.0
H2946 H 0.06963 0.34267 0.97746 0.0
H2947 H 0.92403 0.41495 0.95863 0.0
H2948 H 0.69081 0.82524 0.25455 0.0
H2949 H 0.66989 0.8168 0.27144 0.0
H2950 H 0.67364 0.76628 0.25576 0.0
H2951 H 0.69438 0.77474 0.23862 0.0
H2952 H 0.64211 0.77325 0.25771 0.0
H2953 H 0.69108 0.78094 0.29024 0.0
H2954 H 0.71629 0.79562 0.30188 0.0
H2955 H 0.68747 0.83382 0.31978 0.0
H2956 H 0.6621 0.81947 0.30807 0.0
H2957 H 0.59643 0.7417 0.31637 0.0
H2958 H 0.61837 0.74778 0.2997 0.0
H2959 H 0.61661 0.79939 0.31216 0.0
H2960 H 0.59461 0.79344 0.32873 0.0
H2961 H 0.64792 0.79025 0.31211 0.0
H2962 H 0.5991 0.78294 0.27858 0.0
H2963 H 0.57396 0.76811 0.26697 0.0
H2964 H 0.60272 0.72886 0.25107 0.0
H2965 H 0.62802 0.74336 0.26277 0.0
C2966 C 0.68716 0.81234 0.25473 0.0
C2967 C 0.69424 0.80067 0.24531 0.0
C2968 C 0.67527 0.80751 0.26443 0.0
C2969 C 0.67034 0.79087 0.26504 0.0
C2970 C 0.67728 0.77918 0.25552 0.0
C2971 C 0.68916 0.78403 0.24575 0.0
C2972 C 0.65781 0.78577 0.27552 0.0
C2973 C 0.64351 0.77674 0.26965 0.0
C2974 C 0.65947 0.79056 0.29106 0.0
C2975 C 0.6747 0.79919 0.29817 0.0
C2976 C 0.69013 0.79253 0.29657 0.0
C2977 C 0.70444 0.80078 0.30319 0.0
C2978 C 0.70348 0.81566 0.31153 0.0
C2979 C 0.6882 0.8223 0.3133 0.0
C2980 C 0.67384 0.8141 0.30669 0.0
C2981 C 0.60062 0.75436 0.31548 0.0
C2982 C 0.59372 0.76708 0.32389 0.0
C2983 C 0.61319 0.75781 0.30596 0.0
C2984 C 0.61904 0.77406 0.30457 0.0
C2985 C 0.61233 0.78675 0.31308 0.0
C2986 C 0.59978 0.78332 0.3226 0.0
C2987 C 0.63215 0.77791 0.29427 0.0
C2988 C 0.64657 0.78669 0.30018 0.0
C2989 C 0.63061 0.77285 0.27878 0.0
C2990 C 0.61542 0.76415 0.27169 0.0
C2991 C 0.60005 0.77109 0.27271 0.0
C2992 C 0.58577 0.76275 0.2661 0.0
C2993 C 0.58674 0.74753 0.25832 0.0
C2994 C 0.60199 0.74064 0.25711 0.0
C2995 C 0.6163 0.74891 0.26373 0.0
H2996 H 0.57567 0.7411 0.25321 0.0
H2997 H 0.71458 0.82203 0.31665 0.0
H2998 H 0.05961 0.06491 0.98395 0.0
H2999 H 0.05544 0.08751 0.96758 0.0
H3000 H 0.03555 0.11567 0.00393 0.0
H3001 H 0.03957 0.09298 0.02034 0.0
H3002 H 0.01721 0.11747 0.9775 0.0
H3003 H 0.07426 0.12448 0.99435 0.0
H3004 H 0.10262 0.11592 0.99905 0.0
H3005 H 0.10594 0.10475 0.95179 0.0
H3006 H 0.07751 0.11303 0.94682 0.0
H3007 H 0.02093 0.19358 0.94286 0.0
H3008 H 0.02444 0.17162 0.95996 0.0
H3009 H 0.04679 0.14279 0.92552 0.0
H3010 H 0.04392 0.16499 0.90853 0.0
H3011 H 0.0639 0.14182 0.9517 0.0
H3012 H 0.00678 0.13431 0.9348 0.0
H3013 H 0.97833 0.14261 0.93 0.0
H3014 H 0.97505 0.15452 0.97715 0.0
H3015 H 0.00357 0.1465 0.98221 0.0
C3016 C 0.05434 0.07593 0.98844 0.0
C3017 C 0.04997 0.07721 0.00341 0.0
C3018 C 0.05202 0.08885 0.9791 0.0
C3019 C 0.04537 0.10337 0.98458 0.0
C3020 C 0.04074 0.10459 0.99948 0.0
C3021 C 0.04308 0.09164 0.00885 0.0
C3022 C 0.04325 0.11722 0.97469 0.0
C3023 C 0.02746 0.12298 0.97203 0.0
C3024 C 0.05656 0.12415 0.96729 0.0
C3025 C 0.07369 0.11924 0.97023 0.0
C3026 C 0.08099 0.12008 0.98497 0.0
C3027 C 0.09709 0.1153 0.98768 0.0
C3028 C 0.10606 0.10976 0.97573 0.0
C3029 C 0.09897 0.10903 0.96104 0.0
C3030 C 0.08287 0.11378 0.95827 0.0
C3031 C 0.02672 0.18263 0.93894 0.0
C3032 C 0.03216 0.18109 0.92429 0.0
C3033 C 0.02855 0.16999 0.9487 0.0
C3034 C 0.03571 0.15545 0.94399 0.0
C3035 C 0.04117 0.15387 0.9294 0.0
C3036 C 0.03939 0.16652 0.91964 0.0
C3037 C 0.03782 0.14202 0.95438 0.0
C3038 C 0.05364 0.13635 0.95717 0.0
C3039 C 0.02453 0.13516 0.96187 0.0
C3040 C 0.00737 0.13996 0.95886 0.0
C3041 C 1.00004 0.13882 0.94413 0.0
C3042 C 0.98389 0.14346 0.94137 0.0
C3043 C 0.97491 0.14913 0.95326 0.0
C3044 C 0.98203 0.15015 0.96795 0.0
C3045 C 0.99818 0.14555 0.97077 0.0
H3046 H 0.96241 0.15271 0.9511 0.0
H3047 H 0.11852 0.10606 0.97786 0.0
H3048 H 0.33272 0.28978 0.24945 0.0
H3049 H 0.35256 0.287 0.23012 0.0
H3050 H 0.38772 0.26912 0.26255 0.0
H3051 H 0.3679 0.27195 0.28199 0.0
H3052 H 0.40169 0.29239 0.24586 0.0
H3053 H 0.36727 0.24293 0.23665 0.0
H3054 H 0.34103 0.22659 0.23169 0.0
H3055 H 0.33153 0.25068 0.19083 0.0
H3056 H 0.35762 0.26733 0.19566 0.0
H3057 H 0.45889 0.2613 0.19674 0.0
H3058 H 0.43826 0.26406 0.21526 0.0
H3059 H 0.40368 0.2799 0.18123 0.0
H3060 H 0.42413 0.27661 0.16246 0.0
H3061 H 0.38904 0.25827 0.19837 0.0
H3062 H 0.42344 0.30741 0.20714 0.0
H3063 H 0.44958 0.32394 0.21193 0.0
H3064 H 0.45892 0.30098 0.25341 0.0
H3065 H 0.43294 0.28412 0.24876 0.0
C3066 C 0.34466 0.28524 0.25248 0.0
C3067 C 0.3488 0.28108 0.26725 0.0
C3068 C 0.35597 0.28359 0.24139 0.0
C3069 C 0.37158 0.27774 0.24486 0.0
C3070 C 0.37574 0.27366 0.25962 0.0
C3071 C 0.36441 0.27523 0.27069 0.0
C3072 C 0.38368 0.27609 0.23316 0.0
C3073 C 0.39901 0.28476 0.23556 0.0
C3074 C 0.38 0.26651 0.21953 0.0
C3075 C 0.36431 0.2565 0.2166 0.0
C3076 C 0.35952 0.24484 0.22667 0.0
C3077 C 0.34468 0.23551 0.22387 0.0
C3078 C 0.33459 0.23763 0.21098 0.0
C3079 C 0.33934 0.24907 0.20083 0.0
C3080 C 0.35416 0.25845 0.20359 0.0
C3081 C 0.44685 0.2652 0.19313 0.0
C3082 C 0.44317 0.26872 0.17809 0.0
C3083 C 0.43511 0.26694 0.20378 0.0
C3084 C 0.41948 0.27239 0.19969 0.0
C3085 C 0.41568 0.27575 0.18466 0.0
C3086 C 0.42743 0.27399 0.17397 0.0
C3087 C 0.40711 0.27448 0.2111 0.0
C3088 C 0.39172 0.26593 0.20865 0.0
C3089 C 0.4107 0.28422 0.22466 0.0
C3090 C 0.42631 0.29439 0.22753 0.0
C3091 C 0.43113 0.30579 0.21723 0.0
C3092 C 0.44591 0.31523 0.21993 0.0
C3093 C 0.45593 0.31348 0.23295 0.0
C3094 C 0.45116 0.30231 0.24332 0.0
C3095 C 0.4364 0.29282 0.24067 0.0
H3096 H 0.46737 0.3208 0.23502 0.0
H3097 H 0.32312 0.23038 0.20882 0.0
H3098 H 0.58643 0.43316 0.00862 0.0
H3099 H 0.57872 0.4115 0.02501 0.0
H3100 H 0.52968 0.40759 0.00345 0.0
H3101 H 0.53726 0.42951 0.98721 0.0
H3102 H 0.52854 0.40684 0.03325 0.0
H3103 H 0.55781 0.37892 0.99554 0.0
H3104 H 0.58093 0.3741 0.97957 0.0
H3105 H 0.61316 0.36942 0.01881 0.0
H3106 H 0.59028 0.37443 0.03504 0.0
H3107 H 0.50572 0.33085 0.0636 0.0
H3108 H 0.51214 0.35225 0.04653 0.0
H3109 H 0.56136 0.35892 0.06746 0.0
H3110 H 0.55519 0.3372 0.08427 0.0
H3111 H 0.56164 0.35778 0.03726 0.0
H3112 H 0.5322 0.38628 0.07492 0.0
H3113 H 0.50888 0.39089 0.0907 0.0
H3114 H 0.47667 0.39413 0.05119 0.0
H3115 H 0.49976 0.38931 0.03516 0.0
C3116 C 0.57401 0.42766 0.00738 0.0
C3117 C 0.56249 0.43296 0.99661 0.0
C3118 C 0.56963 0.41524 0.0167 0.0
C3119 C 0.55368 0.40772 0.01533 0.0
C3120 C 0.54207 0.41316 0.00469 0.0
C3121 C 0.54643 0.42566 0.99538 0.0
C3122 C 0.54915 0.3943 0.02508 0.0
C3123 C 0.53563 0.39599 0.03395 0.0
C3124 C 0.55858 0.38027 0.02624 0.0
C3125 C 0.57236 0.3772 0.01651 0.0
C3126 C 0.56986 0.37699 1.00077 0.0
C3127 C 0.58292 0.3742 0.99167 0.0
C3128 C 0.59852 0.3715 0.99817 0.0
C3129 C 0.60108 0.37154 0.01379 0.0
C3130 C 0.58806 0.37433 0.02295 0.0
C3131 C 0.51794 0.3368 0.06452 0.0
C3132 C 0.52993 0.33232 0.07533 0.0
C3133 C 0.52155 0.34914 0.05484 0.0
C3134 C 0.53718 0.35732 0.05581 0.0
C3135 C 0.5492 0.35282 0.06653 0.0
C3136 C 0.5456 0.3405 0.07623 0.0
C3137 C 0.54113 0.3704 0.04551 0.0
C3138 C 0.55453 0.36861 0.03653 0.0
C3139 C 0.53156 0.3843 0.04422 0.0
C3140 C 0.51768 0.38727 0.05384 0.0
C3141 C 0.52011 0.38784 0.0696 0.0
C3142 C 0.50694 0.39052 0.07859 0.0
C3143 C 0.49129 0.39276 0.07195 0.0
C3144 C 0.48879 0.39237 0.05631 0.0
C3145 C 0.50192 0.38968 0.04727 0.0
H3146 H 0.48111 0.39483 0.07893 0.0
H3147 H 0.60861 0.36934 0.99111 0.0
H3148 H 0.69803 0.20963 0.25534 0.0
H3149 H 0.67484 0.21135 0.23677 0.0
H3150 H 0.67211 0.26277 0.24969 0.0
H3151 H 0.69507 0.26103 0.26843 0.0
H3152 H 0.64227 0.24815 0.24703 0.0
H3153 H 0.68932 0.24951 0.21706 0.0
H3154 H 0.71484 0.23948 0.20722 0.0
H3155 H 0.68858 0.19509 0.18928 0.0
H3156 H 0.66294 0.20478 0.1992 0.0
H3157 H 0.59454 0.27494 0.18536 0.0
H3158 H 0.61751 0.27049 0.20328 0.0
H3159 H 0.61353 0.21871 0.19053 0.0
H3160 H 0.59021 0.22294 0.17282 0.0
H3161 H 0.64605 0.2317 0.19304 0.0
H3162 H 0.59867 0.23119 0.22221 0.0
H3163 H 0.57324 0.24172 0.23178 0.0
H3164 H 0.60036 0.28504 0.25109 0.0
H3165 H 0.62593 0.27488 0.24143 0.0
C3166 C 0.69249 0.2213 0.2542 0.0
C3167 C 0.69836 0.23524 0.26328 0.0
C3168 C 0.67928 0.22228 0.24354 0.0
C3169 C 0.67183 0.23724 0.24171 0.0
C3170 C 0.67764 0.25111 0.25089 0.0
C3171 C 0.69078 0.25012 0.26155 0.0
C3172 C 0.65786 0.23851 0.23039 0.0
C3173 C 0.64319 0.24472 0.23521 0.0
C3174 C 0.65886 0.23363 0.215 0.0
C3175 C 0.67426 0.22779 0.20902 0.0
C3176 C 0.68902 0.23755 0.21113 0.0
C3177 C 0.7035 0.23194 0.20552 0.0
C3178 C 0.70334 0.21663 0.19767 0.0
C3179 C 0.68869 0.20693 0.19538 0.0
C3180 C 0.67418 0.21248 0.20099 0.0
C3181 C 0.59842 0.26256 0.18643 0.0
C3182 C 0.59038 0.24928 0.17771 0.0
C3183 C 0.61161 0.26006 0.19664 0.0
C3184 C 0.6171 0.24424 0.19834 0.0
C3185 C 0.60948 0.23101 0.18937 0.0
C3186 C 0.59619 0.23348 0.17921 0.0
C3187 C 0.63063 0.24156 0.2097 0.0
C3188 C 0.64516 0.23505 0.20489 0.0
C3189 C 0.62954 0.24622 0.2251 0.0
C3190 C 0.61419 0.25234 0.23098 0.0
C3191 C 0.59919 0.24303 0.22839 0.0
C3192 C 0.58475 0.24892 0.23385 0.0
C3193 C 0.58517 0.26406 0.24201 0.0
C3194 C 0.60005 0.27333 0.24475 0.0
C3195 C 0.61452 0.2675 0.2393 0.0
H3196 H 0.57398 0.2686 0.24623 0.0
H3197 H 0.71457 0.21231 0.19333 0.0
H3198 H 0.48323 0.05761 0.00893 0.0
H3199 H 0.48827 0.08156 0.02665 0.0
H3200 H 0.48565 0.11337 0.98978 0.0
H3201 H 0.48109 0.08938 0.972 0.0
H3202 H 0.50955 0.12423 0.00896 0.0
H3203 H 0.45303 0.10715 0.01305 0.0
H3204 H 0.42969 0.08779 0.01681 0.0
H3205 H 0.45 0.08022 0.06124 0.0
H3206 H 0.4736 0.09938 0.05766 0.0
H3207 H 0.49498 0.1978 0.052 0.0
H3208 H 0.49145 0.17342 0.03457 0.0
H3209 H 0.50316 0.14276 0.07101 0.0
H3210 H 0.50673 0.16712 0.08852 0.0
H3211 H 0.4749 0.13141 0.0524 0.0
H3212 H 0.53134 0.14964 0.04774 0.0
H3213 H 0.55381 0.1698 0.04343 0.0
H3214 H 0.53215 0.17625 0.99924 0.0
H3215 H 0.5094 0.1563 0.00337 0.0
C3216 C 0.48372 0.06973 0.00463 0.0
C3217 C 0.48168 0.07166 0.98911 0.0
C3218 C 0.48655 0.08341 0.01476 0.0
C3219 C 0.48704 0.09932 0.0096 0.0
C3220 C 0.48531 0.10124 0.99406 0.0
C3221 C 0.48271 0.08754 0.9839 0.0
C3222 C 0.48928 0.11395 0.02038 0.0
C3223 C 0.50182 0.12588 0.01834 0.0
C3224 C 0.47939 0.11603 0.0328 0.0
C3225 C 0.46516 0.10458 0.03503 0.0
C3226 C 0.45258 0.10127 0.02358 0.0
C3227 C 0.4393 0.09035 0.02569 0.0
C3228 C 0.43838 0.08275 0.03924 0.0
C3229 C 0.45074 0.0861 0.05074 0.0
C3230 C 0.46406 0.097 0.04868 0.0
C3231 C 0.49674 0.18585 0.0563 0.0
C3232 C 0.50115 0.18434 0.0716 0.0
C3233 C 0.49481 0.17197 0.04632 0.0
C3234 C 0.49715 0.15632 0.0515 0.0
C3235 C 0.50135 0.15475 0.0668 0.0
C3236 C 0.50347 0.16865 0.07675 0.0
C3237 C 0.49511 0.14159 0.04092 0.0
C3238 C 0.48261 0.12969 0.04302 0.0
C3239 C 0.50488 0.13965 0.02845 0.0
C3240 C 0.51858 0.1516 0.02592 0.0
C3241 C 0.53129 0.15546 0.03715 0.0
C3242 C 0.54409 0.16683 0.03473 0.0
C3243 C 0.54438 0.17434 0.02109 0.0
C3244 C 0.53189 0.17045 0.00981 0.0
C3245 C 0.51905 0.1591 0.01218 0.0
H3246 H 0.55431 0.18313 0.01923 0.0
H3247 H 0.42809 0.07429 0.04085 0.0
H3248 H 0.26131 0.3411 0.68983 0.0
H3249 H 0.28055 0.36491 0.69515 0.0
H3250 H 0.28758 0.35237 0.74128 0.0
H3251 H 0.26825 0.32851 0.73603 0.0
H3252 H 0.28465 0.38467 0.73976 0.0
H3253 H 0.31643 0.34413 0.71601 0.0
H3254 H 0.32271 0.32343 0.69628 0.0
H3255 H 0.32271 0.36017 0.66385 0.0
H3256 H 0.31619 0.38105 0.68335 0.0
H3257 H 0.35709 0.43607 0.75772 0.0
H3258 H 0.33775 0.41225 0.75306 0.0
H3259 H 0.32833 0.425 0.70726 0.0
H3260 H 0.34749 0.449 0.71187 0.0
H3261 H 0.33279 0.39235 0.70899 0.0
H3262 H 0.30075 0.43283 0.73305 0.0
H3263 H 0.29464 0.45334 0.75301 0.0
H3264 H 0.29554 0.41637 0.78522 0.0
H3265 H 0.30189 0.39568 0.76549 0.0
C3266 C 0.26702 0.34335 0.70109 0.0
C3267 C 0.26335 0.33284 0.71248 0.0
C3268 C 0.27801 0.35697 0.70412 0.0
C3269 C 0.28572 0.36029 0.71856 0.0
C3270 C 0.28181 0.35004 0.73005 0.0
C3271 C 0.27074 0.33643 0.72704 0.0
C3272 C 0.2979 0.37443 0.72162 0.0
C3273 C 0.2953 0.38623 0.73317 0.0
C3274 C 0.31164 0.37663 0.71284 0.0
C3275 C 0.31567 0.36413 0.70111 0.0
C3276 C 0.31765 0.34777 0.70465 0.0
C3277 C 0.32127 0.33601 0.69351 0.0
C3278 C 0.32306 0.34047 0.67881 0.0
C3279 C 0.32129 0.35672 0.67523 0.0
C3280 C 0.31765 0.36853 0.68633 0.0
C3281 C 0.3508 0.43392 0.74668 0.0
C3282 C 0.3538 0.44453 0.73519 0.0
C3283 C 0.33977 0.42026 0.74403 0.0
C3284 C 0.33146 0.41694 0.72985 0.0
C3285 C 0.33462 0.42732 0.71828 0.0
C3286 C 0.34563 0.44101 0.72093 0.0
C3287 C 0.31949 0.40261 0.72708 0.0
C3288 C 0.32214 0.39078 0.71559 0.0
C3289 C 0.30585 0.40034 0.73595 0.0
C3290 C 0.30196 0.41275 0.74782 0.0
C3291 C 0.29978 0.4291 0.74442 0.0
C3292 C 0.29625 0.44075 0.75569 0.0
C3293 C 0.29475 0.43617 0.77039 0.0
C3294 C 0.29673 0.41991 0.77384 0.0
C3295 C 0.30028 0.40821 0.76261 0.0
H3296 H 0.29201 0.44521 0.77909 0.0
H3297 H 0.32586 0.33134 0.67021 0.0
H3298 H 0.28968 0.70632 0.80123 0.0
H3299 H 0.30911 0.68537 0.79515 0.0
H3300 H 0.26861 0.65179 0.77872 0.0
H3301 H 0.24913 0.67254 0.78503 0.0
H3302 H 0.29113 0.63708 0.79657 0.0
H3303 H 0.29163 0.67128 0.75445 0.0
H3304 H 0.29476 0.69739 0.74218 0.0
H3305 H 0.34473 0.70416 0.76067 0.0
H3306 H 0.34182 0.67819 0.77322 0.0
H3307 H 0.33411 0.57659 0.75811 0.0
H3308 H 0.31567 0.59833 0.76427 0.0
H3309 H 0.35762 0.63176 0.77664 0.0
H3310 H 0.37613 0.61009 0.77022 0.0
H3311 H 0.33496 0.64703 0.76152 0.0
H3312 H 0.33507 0.61312 0.8034 0.0
H3313 H 0.33234 0.58729 0.81617 0.0
H3314 H 0.28186 0.58037 0.79911 0.0
H3315 H 0.28436 0.60605 0.78605 0.0
C3316 C 0.28492 0.69444 0.79642 0.0
C3317 C 0.26787 0.69112 0.79355 0.0
C3318 C 0.29603 0.68252 0.79284 0.0
C3319 C 0.29032 0.66706 0.78634 0.0
C3320 C 0.2733 0.66365 0.78368 0.0
C3321 C 0.26219 0.67556 0.78719 0.0
C3322 C 0.30202 0.65439 0.78234 0.0
C3323 C 0.30059 0.63918 0.78877 0.0
C3324 C 0.31466 0.65729 0.77249 0.0
C3325 C 0.31645 0.67287 0.7649 0.0
C3326 C 0.30324 0.6784 0.756 0.0
C3327 C 0.30499 0.69316 0.74897 0.0
C3328 C 0.31992 0.70245 0.75068 0.0
C3329 C 0.33316 0.69697 0.75938 0.0
C3330 C 0.33147 0.68222 0.76644 0.0
C3331 C 0.3394 0.58857 0.76218 0.0
C3332 C 0.35657 0.5916 0.76378 0.0
C3333 C 0.32885 0.60099 0.76572 0.0
C3334 C 0.33523 0.61663 0.7712 0.0
C3335 C 0.35239 0.61979 0.77247 0.0
C3336 C 0.36295 0.60741 0.76878 0.0
C3337 C 0.32402 0.62963 0.77567 0.0
C3338 C 0.32554 0.64491 0.76935 0.0
C3339 C 0.31153 0.62685 0.78573 0.0
C3340 C 0.30995 0.61144 0.79364 0.0
C3341 C 0.32342 0.60603 0.80228 0.0
C3342 C 0.32191 0.59143 0.80958 0.0
C3343 C 0.30695 0.58218 0.80842 0.0
C3344 C 0.29345 0.58754 0.79998 0.0
C3345 C 0.2949 0.60213 0.79264 0.0
H3346 H 0.3058 0.57087 0.81408 0.0
H3347 H 0.32125 0.71388 0.74523 0.0
H3348 H 0.92814 0.54044 0.4766 0.0
H3349 H 0.905 0.52166 0.4812 0.0
H3350 H 0.93405 0.48035 0.47072 0.0
H3351 H 0.95744 0.49906 0.4664 0.0
H3352 H 0.90213 0.47681 0.4574 0.0
H3353 H 0.92881 0.49082 0.50635 0.0
H3354 H 0.94063 0.50978 0.52717 0.0
H3355 H 0.89365 0.53058 0.53133 0.0
H3356 H 0.88159 0.5119 0.51037 0.0
H3357 H 0.84953 0.41594 0.48542 0.0
H3358 H 0.87311 0.43393 0.48062 0.0
H3359 H 0.84791 0.47588 0.49701 0.0
H3360 H 0.82469 0.45786 0.5028 0.0
H3361 H 0.8784 0.47887 0.50728 0.0
H3362 H 0.85153 0.46574 0.45841 0.0
H3363 H 0.83935 0.4476 0.43715 0.0
H3364 H 0.88588 0.42609 0.43225 0.0
H3365 H 0.8983 0.44396 0.45363 0.0
C3366 C 0.92969 0.52736 0.47539 0.0
C3367 C 0.94473 0.52127 0.47125 0.0
C3368 C 0.91642 0.51665 0.47797 0.0
C3369 C 0.91787 0.49962 0.47646 0.0
C3370 C 0.93268 0.49346 0.47195 0.0
C3371 C 0.94601 0.50418 0.46943 0.0
C3372 C 0.90399 0.48826 0.4798 0.0
C3373 C 0.89706 0.47708 0.46836 0.0
C3374 C 0.89715 0.48893 0.49399 0.0
C3375 C 0.90434 0.50006 0.5067 0.0
C3376 C 0.92102 0.49952 0.51163 0.0
C3377 C 0.92777 0.5102 0.52347 0.0
C3378 C 0.91791 0.5214 0.53054 0.0
C3379 C 0.90128 0.52191 0.52582 0.0
C3380 C 0.89448 0.51127 0.51398 0.0
C3381 C 0.84904 0.42896 0.48823 0.0
C3382 C 0.83511 0.43539 0.49451 0.0
C3383 C 0.86249 0.43928 0.48526 0.0
C3384 C 0.86221 0.45632 0.48819 0.0
C3385 C 0.8484 0.46278 0.49456 0.0
C3386 C 0.83503 0.45245 0.49771 0.0
C3387 C 0.87638 0.46741 0.48483 0.0
C3388 C 0.88342 0.47855 0.4963 0.0
C3389 C 0.88322 0.46679 0.47061 0.0
C3390 C 0.8758 0.45608 0.45771 0.0
C3391 C 0.85914 0.45706 0.45287 0.0
C3392 C 0.85219 0.44684 0.44079 0.0
C3393 C 0.86182 0.43567 0.43338 0.0
C3394 C 0.87843 0.43473 0.43802 0.0
C3395 C 0.88543 0.44491 0.4501 0.0
H3396 H 0.85642 0.42776 0.42403 0.0
H3397 H 0.92315 0.52967 0.5397 0.0
H3398 H 0.77464 0.83167 0.81281 0.0
H3399 H 0.75528 0.85277 0.80728 0.0
H3400 H 0.74891 0.83354 0.76113 0.0
H3401 H 0.76849 0.81259 0.76657 0.0
H3402 H 0.75223 0.86551 0.76194 0.0
H3403 H 0.71914 0.82705 0.787 0.0
H3404 H 0.71217 0.80933 0.80734 0.0
H3405 H 0.71338 0.85151 0.83846 0.0
H3406 H 0.72058 0.86947 0.81833 0.0
H3407 H 0.68128 0.90949 0.74272 0.0
H3408 H 0.69948 0.88736 0.74805 0.0
H3409 H 0.71096 0.90897 0.7929 0.0
H3410 H 0.69316 0.93136 0.7876 0.0
H3411 H 0.70443 0.87542 0.79243 0.0
H3412 H 0.73802 0.91363 0.76697 0.0
H3413 H 0.74474 0.93101 0.74631 0.0
H3414 H 0.74193 0.88854 0.71544 0.0
H3415 H 0.73495 0.87092 0.73589 0.0
C3416 C 0.76899 0.83186 0.80152 0.0
C3417 C 0.77305 0.82045 0.79013 0.0
C3418 C 0.7579 0.84391 0.79837 0.0
C3419 C 0.75044 0.84464 0.78382 0.0
C3420 C 0.7545 0.83325 0.77244 0.0
C3421 C 0.7657 0.82129 0.77555 0.0
C3422 C 0.73868 0.85749 0.78039 0.0
C3423 C 0.74164 0.86748 0.76847 0.0
C3424 C 0.72501 0.86034 0.78908 0.0
C3425 C 0.72055 0.84958 0.80118 0.0
C3426 C 0.71803 0.83253 0.7982 0.0
C3427 C 0.71402 0.82245 0.80969 0.0
C3428 C 0.71237 0.82928 0.82419 0.0
C3429 C 0.71468 0.84623 0.82722 0.0
C3430 C 0.71871 0.85637 0.81578 0.0
C3431 C 0.68779 0.90965 0.75368 0.0
C3432 C 0.68574 0.92228 0.76471 0.0
C3433 C 0.69813 0.89694 0.75672 0.0
C3434 C 0.70665 0.89657 0.77085 0.0
C3435 C 0.70445 0.90898 0.78195 0.0
C3436 C 0.69419 0.92174 0.7789 0.0
C3437 C 0.71801 0.88337 0.77401 0.0
C3438 C 0.71499 0.87335 0.78588 0.0
C3439 C 0.73155 0.88042 0.76522 0.0
C3440 C 0.73579 0.89098 0.75293 0.0
C3441 C 0.7387 0.90801 0.75575 0.0
C3442 C 0.74258 0.91791 0.74409 0.0
C3443 C 0.74372 0.91089 0.72957 0.0
C3444 C 0.74102 0.89396 0.72669 0.0
C3445 C 0.73711 0.88401 0.73832 0.0
H3446 H 0.74673 0.91857 0.72055 0.0
H3447 H 0.70928 0.82145 0.83307 0.0
H3448 H 0.60804 0.48334 0.96828 0.0
H3449 H 0.63168 0.50301 0.9731 0.0
H3450 H 0.59971 0.54296 0.96697 0.0
H3451 H 0.57614 0.52329 0.96179 0.0
H3452 H 0.62602 0.54824 0.95275 0.0
H3453 H 0.61601 0.53306 0.00245 0.0
H3454 H 0.6117 0.51419 0.02256 0.0
H3455 H 0.65977 0.49611 0.01763 0.0
H3456 H 0.66429 0.51472 0.99733 0.0
H3457 H 0.68265 0.61228 0.9839 0.0
H3458 H 0.65903 0.59242 0.98015 0.0
H3459 H 0.69195 0.55272 0.97944 0.0
H3460 H 0.71563 0.57252 0.98332 0.0
H3461 H 0.66539 0.54747 0.99735 0.0
H3462 H 0.67484 0.56334 0.94738 0.0
H3463 H 0.67872 0.58301 0.92785 0.0
H3464 H 0.6308 0.60082 0.93427 0.0
H3465 H 0.62673 0.5814 0.95401 0.0
C3466 C 0.60606 0.49633 0.96811 0.0
C3467 C 0.59026 0.50179 0.96467 0.0
C3468 C 0.61957 0.50757 0.97089 0.0
C3469 C 0.61748 0.52452 0.97059 0.0
C3470 C 0.60166 0.52997 0.96725 0.0
C3471 C 0.5882 0.51873 0.96429 0.0
C3472 C 0.63181 0.53656 0.97331 0.0
C3473 C 0.63447 0.54819 0.96263 0.0
C3474 C 0.64308 0.53635 0.98604 0.0
C3475 C 0.64042 0.52517 0.99827 0.0
C3476 C 0.62562 0.52497 0.00557 0.0
C3477 C 0.62314 0.51434 0.01702 0.0
C3478 C 0.63543 0.50393 0.02134 0.0
C3479 C 0.65025 0.50417 0.01425 0.0
C3480 C 0.65278 0.51476 0.00279 0.0
C3481 C 0.68484 0.59932 0.98302 0.0
C3482 C 0.70099 0.59396 0.98385 0.0
C3483 C 0.67136 0.588 0.98079 0.0
C3484 C 0.67376 0.57111 0.97942 0.0
C3485 C 0.68984 0.5657 0.98045 0.0
C3486 C 0.70334 0.57702 0.98254 0.0
C3487 C 0.65948 0.55908 0.97683 0.0
C3488 C 0.65688 0.54747 0.98751 0.0
C3489 C 0.64816 0.55941 0.9642 0.0
C3490 C 0.65055 0.57103 0.95228 0.0
C3491 C 0.66519 0.57155 0.94472 0.0
C3492 C 0.66741 0.58263 0.93359 0.0
C3493 C 0.65504 0.59319 0.92985 0.0
C3494 C 0.64039 0.59265 0.9372 0.0
C3495 C 0.63811 0.5816 0.94835 0.0
H3496 H 0.65678 0.60176 0.92123 0.0
H3497 H 0.6335 0.49571 0.0302 0.0
H3498 H 0.27575 0.68816 0.24574 0.0
H3499 H 0.25736 0.66449 0.24966 0.0
H3500 H 0.25543 0.65049 0.20222 0.0
H3501 H 0.27377 0.67426 0.19822 0.0
H3502 H 0.22552 0.64748 0.2126 0.0
H3503 H 0.27923 0.6306 0.22774 0.0
H3504 H 0.30637 0.63291 0.24176 0.0
H3505 H 0.28291 0.63269 0.2835 0.0
H3506 H 0.25561 0.63061 0.26972 0.0
H3507 H 0.19292 0.56582 0.21689 0.0
H3508 H 0.21083 0.58981 0.21296 0.0
H3509 H 0.2105 0.6052 0.25995 0.0
H3510 H 0.19234 0.58134 0.26396 0.0
H3511 H 0.24149 0.60743 0.24981 0.0
H3512 H 0.18768 0.62413 0.23434 0.0
H3513 H 0.16068 0.62158 0.22008 0.0
H3514 H 0.18462 0.62175 0.17858 0.0
H3515 H 0.21178 0.62407 0.19261 0.0
C3516 C 0.27149 0.67998 0.23616 0.0
C3517 C 0.2763 0.68302 0.22168 0.0
C3518 C 0.26097 0.66646 0.23841 0.0
C3519 C 0.2552 0.65556 0.22627 0.0
C3520 C 0.25974 0.65872 0.21176 0.0
C3521 C 0.27019 0.67231 0.20948 0.0
C3522 C 0.24444 0.64088 0.22873 0.0
C3523 C 0.22912 0.6386 0.22058 0.0
C3524 C 0.24897 0.62947 0.23938 0.0
C3525 C 0.26537 0.6306 0.2477 0.0
C3526 C 0.27986 0.63116 0.23991 0.0
C3527 C 0.29527 0.63242 0.24781 0.0
C3528 C 0.29637 0.63299 0.26351 0.0
C3529 C 0.28204 0.63227 0.27134 0.0
C3530 C 0.2666 0.63104 0.26349 0.0
C3531 C 0.19649 0.57438 0.22638 0.0
C3532 C 0.19108 0.57168 0.24074 0.0
C3533 C 0.20678 0.58807 0.22411 0.0
C3534 C 0.21187 0.59938 0.23613 0.0
C3535 C 0.20673 0.59661 0.25052 0.0
C3536 C 0.19639 0.58293 0.2528 0.0
C3537 C 0.2226 0.61406 0.23368 0.0
C3538 C 0.23791 0.61632 0.24183 0.0
C3539 C 0.21809 0.62541 0.22299 0.0
C3540 C 0.20177 0.62411 0.21453 0.0
C3541 C 0.18719 0.62349 0.22218 0.0
C3542 C 0.17186 0.62211 0.21413 0.0
C3543 C 0.17094 0.62146 0.19843 0.0
C3544 C 0.18535 0.62224 0.19075 0.0
C3545 C 0.20072 0.6236 0.19874 0.0
H3546 H 0.15905 0.6204 0.19223 0.0
H3547 H 0.30831 0.63396 0.26961 0.0
H3548 H 0.9288 0.48973 0.02776 0.0
H3549 H 0.90858 0.51002 0.02237 0.0
H3550 H 0.94335 0.54878 0.04041 0.0
H3551 H 0.96371 0.52852 0.04579 0.0
H3552 H 0.91316 0.55314 0.05023 0.0
H3553 H 0.93558 0.54201 0.00264 0.0
H3554 H 0.9439 0.52469 0.98117 0.0
H3555 H 0.89382 0.50632 0.97169 0.0
H3556 H 0.88522 0.52335 0.99324 0.0
H3557 H 0.86708 0.61778 0.02194 0.0
H3558 H 0.88896 0.59898 0.02684 0.0
H3559 H 0.85648 0.55815 0.00925 0.0
H3560 H 0.83475 0.5769 0.00388 0.0
H3561 H 0.88655 0.55577 0.99899 0.0
H3562 H 0.86434 0.56616 0.04709 0.0
H3563 H 0.856 0.58335 0.06864 0.0
H3564 H 0.90574 0.60314 0.07714 0.0
H3565 H 0.91434 0.58622 0.05551 0.0
C3566 C 0.93222 0.50258 0.03045 0.0
C3567 C 0.94793 0.5075 0.03712 0.0
C3568 C 0.92063 0.51417 0.02738 0.0
C3569 C 0.92451 0.53095 0.0308 0.0
C3570 C 0.94008 0.5359 0.03767 0.0
C3571 C 0.95169 0.5243 0.04077 0.0
C3572 C 0.91226 0.54328 0.02728 0.0
C3573 C 0.90753 0.5539 0.03898 0.0
C3574 C 0.90467 0.54405 0.01266 0.0
C3575 C 0.90978 0.53385 0.99964 0.0
C3576 C 0.92636 0.53418 0.99605 0.0
C3577 C 0.93112 0.52443 0.98385 0.0
C3578 C 0.9194 0.51438 0.97509 0.0
C3579 C 0.90289 0.51409 0.97849 0.0
C3580 C 0.89806 0.52381 0.99069 0.0
C3581 C 0.86464 0.60482 0.01898 0.0
C3582 C 0.84912 0.59885 0.01258 0.0
C3583 C 0.87712 0.59407 0.02192 0.0
C3584 C 0.8743 0.57712 0.01858 0.0
C3585 C 0.85892 0.57116 0.01198 0.0
C3586 C 0.84645 0.58189 0.00904 0.0
C3587 C 0.88735 0.56555 0.02196 0.0
C3588 C 0.89224 0.55507 0.01023 0.0
C3589 C 0.89508 0.56491 0.03655 0.0
C3590 C 0.88995 0.57505 0.04958 0.0
C3591 C 0.87348 0.57427 0.05348 0.0
C3592 C 0.86871 0.58395 0.06572 0.0
C3593 C 0.88032 0.59436 0.07423 0.0
C3594 C 0.89675 0.59508 0.07053 0.0
C3595 C 0.90158 0.58545 0.05829 0.0
H3596 H 0.87661 0.60184 0.0837 0.0
H3597 H 0.92312 0.50684 0.96566 0.0
H3598 H 0.10054 0.03808 0.03782 0.0
H3599 H 0.12248 0.0197 0.03247 0.0
H3600 H 0.09213 0.9786 0.04496 0.0
H3601 H 0.07012 0.99697 0.05038 0.0
H3602 H 0.12322 0.97682 0.05612 0.0
H3603 H 0.09691 0.98545 0.008 0.0
H3604 H 0.08585 0.00175 0.98769 0.0
H3605 H 0.13406 0.02395 0.98333 0.0
H3606 H 0.14537 0.00795 0.00378 0.0
H3607 H 0.17107 0.91514 0.02352 0.0
H3608 H 0.14846 0.93268 0.02907 0.0
H3609 H 0.17808 0.97516 0.01856 0.0
H3610 H 0.2006 0.95765 0.01267 0.0
H3611 H 0.14681 0.97558 0.00619 0.0
H3612 H 0.17291 0.96709 0.05469 0.0
H3613 H 0.18377 0.9507 0.07501 0.0
H3614 H 0.13564 0.92789 0.07844 0.0
H3615 H 0.12453 0.94399 0.05798 0.0
C3616 C 0.0985 0.02511 0.03936 0.0
C3617 C 0.08353 0.01896 0.04441 0.0
C3618 C 0.11106 0.01462 0.0363 0.0
C3619 C 0.10887 0.99771 0.03807 0.0
C3620 C 0.0941 0.99159 0.04348 0.0
C3621 C 0.08154 0.00211 0.04661 0.0
C3622 C 0.12195 0.98645 0.03416 0.0
C3623 C 0.12821 0.97638 0.04513 0.0
C3624 C 0.12869 0.98606 0.01991 0.0
C3625 C 0.12195 0.99561 0.00752 0.0
C3626 C 0.10513 0.99389 0.00279 0.0
C3627 C 0.09882 0.00307 0.99124 0.0
C3628 C 0.10924 0.01391 0.98425 0.0
C3629 C 0.126 0.01556 0.98877 0.0
C3630 C 0.13237 0.00643 1.00033 0.0
C3631 C 0.17272 0.92819 0.02225 0.0
C3632 C 0.18767 0.935 0.0177 0.0
C3633 C 0.15984 0.93822 0.02555 0.0
C3634 C 0.16164 0.95526 0.02439 0.0
C3635 C 0.17643 0.96205 0.01959 0.0
C3636 C 0.18934 0.95205 0.01634 0.0
C3637 C 0.14813 0.96604 0.02817 0.0
C3638 C 0.14179 0.976 0.01716 0.0
C3639 C 0.14128 0.96628 0.04236 0.0
C3640 C 0.14793 0.95662 0.05469 0.0
C3641 C 0.16467 0.95848 0.05969 0.0
C3642 C 0.17087 0.94926 0.07125 0.0
C3643 C 0.16041 0.93822 0.07799 0.0
C3644 C 0.14373 0.93642 0.0732 0.0
C3645 C 0.13747 0.9456 0.06163 0.0
H3646 H 0.16524 0.9311 0.08694 0.0
H3647 H 0.10433 0.02101 0.97531 0.0
loop_
_geom_bond_atom_site_label_1
_geom_bond_atom_site_label_2
_geom_bond_distance
_geom_bond_site_symmetry_2
_ccdc_geom_bond_type
H0 C5 0.930 . S
H1 C8 0.930 . S
H2 C10 0.930 . S
H3 C4 1.016 . S
C4 H3 1.016 . S
C4 N11 1.286 . S
C5 H0 0.930 . S
C5 C6 1.397 . S
C5 C7 1.361 . S
C6 C5 1.397 . S
C6 C10 1.390 . S
C7 C5 1.361 . S
C7 C8 1.393 . S
C7 N11 1.413 . S
C8 H1 0.930 . S
C8 C7 1.393 . S
C8 C9 1.399 . S
C9 C8 1.399 . S
C9 C10 1.381 . S
C10 H2 0.930 . S
C10 C6 1.390 . S
C10 C9 1.381 . S
N11 C4 1.286 . S
N11 C7 1.413 . S
H12 C17 0.930 . S
H13 C20 0.930 . S
H14 C22 0.930 . S
H15 C16 1.016 . S
C16 H15 1.016 . S
C16 N23 1.286 . S
C17 H12 0.930 . S
C17 C18 1.397 . S
C17 C19 1.361 . S
C18 C17 1.397 . S
C18 C22 1.390 . S
C19 C17 1.361 . S
C19 C20 1.393 . S
C19 N23 1.413 . S
C20 H13 0.930 . S
C20 C19 1.393 . S
C20 C21 1.399 . S
C21 C20 1.399 . S
C21 C22 1.381 . S
C22 H14 0.930 . S
C22 C18 1.390 . S
C22 C21 1.381 . S
N23 C16 1.286 . S
N23 C19 1.413 . S
H24 C29 0.930 . S
H25 C32 0.930 . S
H26 C34 0.930 . S
H27 C28 1.016 . S
C28 H27 1.016 . S
C28 N35 1.286 . S
C29 H24 0.930 . S
C29 C30 1.397 . S
C29 C31 1.361 . S
C30 C29 1.397 . S
C30 C34 1.390 . S
C31 C29 1.361 . S
C31 C32 1.393 . S
C31 N35 1.413 . S
C32 H25 0.930 . S
C32 C31 1.393 . S
C32 C33 1.399 . S
C33 C32 1.399 . S
C33 C34 1.381 . S
C34 H26 0.930 . S
C34 C30 1.390 . S
C34 C33 1.381 . S
N35 C28 1.286 . S
N35 C31 1.413 . S
H36 C41 0.930 . S
H37 C44 0.930 . S
H38 C46 0.930 . S
H39 C40 1.016 . S
C40 H39 1.016 . S
C40 N47 1.286 . S
C41 H36 0.930 . S
C41 C42 1.397 . S
C41 C43 1.361 . S
C42 C41 1.397 . S
C42 C46 1.390 . S
C43 C41 1.361 . S
C43 C44 1.393 . S
C43 N47 1.413 . S
C44 H37 0.930 . S
C44 C43 1.393 . S
C44 C45 1.399 . S
C45 C44 1.399 . S
C45 C46 1.381 . S
C46 H38 0.930 . S
C46 C42 1.390 . S
C46 C45 1.381 . S
N47 C40 1.286 . S
N47 C43 1.413 . S
H48 C53 0.930 . S
H49 C56 0.930 . S
H50 C58 0.921 1_545 S
H51 C52 1.016 . S
C52 H51 1.016 . S
C52 N59 1.286 . S
C53 H48 0.930 . S
C53 C54 1.397 . S
C53 C55 1.361 . S
C54 C53 1.397 . S
C54 C58 1.390 . S
C55 C53 1.361 . S
C55 C56 1.393 . S
C55 N59 1.413 . S
C56 H49 0.930 . S
C56 C55 1.393 . S
C56 C57 1.399 . S
C57 C56 1.399 . S
C57 C58 1.381 . S
C58 H50 0.921 1_565 S
C58 C54 1.390 . S
C58 C57 1.381 . S
N59 C52 1.286 . S
N59 C55 1.413 . S
H60 C65 0.930 . S
H61 C68 0.930 . S
H62 C70 0.930 . S
H63 C64 1.016 . S
C64 H63 1.016 . S
C64 N71 1.286 . S
C65 H60 0.930 . S
C65 C66 1.397 . S
C65 C67 1.361 . S
C66 C65 1.397 . S
C66 C70 1.390 . S
C67 C65 1.361 . S
C67 C68 1.393 . S
C67 N71 1.413 . S
C68 H61 0.930 . S
C68 C67 1.393 . S
C68 C69 1.399 . S
C69 C68 1.399 . S
C69 C70 1.381 . S
C70 H62 0.930 . S
C70 C66 1.390 . S
C70 C69 1.381 . S
N71 C64 1.286 . S
N71 C67 1.413 . S
H72 C77 0.930 1_455 S
H73 C80 0.930 . S
H74 C82 0.930 . S
H75 C76 1.016 . S
C76 H75 1.016 . S
C76 N83 1.286 . S
C77 H72 0.930 1_655 S
C77 C78 1.397 . S
C77 C79 1.361 . S
C78 C77 1.397 . S
C78 C82 1.390 . S
C79 C77 1.361 . S
C79 C80 1.393 . S
C79 N83 1.413 1_655 S
C80 H73 0.930 . S
C80 C79 1.393 . S
C80 C81 1.399 . S
C81 C80 1.399 . S
C81 C82 1.381 . S
C82 H74 0.930 . S
C82 C78 1.390 . S
C82 C81 1.381 . S
N83 C76 1.286 . S
N83 C79 1.413 1_455 S
H84 C89 0.930 . S
H85 C92 0.930 . S
H86 C94 0.930 . S
H87 C88 1.016 . S
C88 H87 1.016 . S
C88 N95 1.286 . S
C89 H84 0.930 . S
C89 C90 1.397 . S
C89 C91 1.361 . S
C90 C89 1.397 . S
C90 C94 1.390 . S
C91 C89 1.361 . S
C91 C92 1.393 . S
C91 N95 1.413 . S
C92 H85 0.930 . S
C92 C91 1.393 . S
C92 C93 1.399 . S
C93 C92 1.399 . S
C93 C94 1.381 . S
C94 H86 0.930 . S
C94 C90 1.390 . S
C94 C93 1.381 . S
N95 C88 1.286 . S
N95 C91 1.413 . S
H96 C101 0.930 . S
H97 C104 0.930 . S
H98 C106 0.930 . S
H99 C100 1.016 . S
C100 H99 1.016 . S
C100 N107 1.286 . S
C101 H96 0.930 . S
C101 C102 1.397 . S
C101 C103 1.361 . S
C102 C101 1.397 . S
C102 C106 1.390 . S
C103 C101 1.361 . S
C103 C104 1.393 . S
C103 N107 1.413 . S
C104 H97 0.930 . S
C104 C103 1.393 . S
C104 C105 1.399 . S
C105 C104 1.399 . S
C105 C106 1.381 . S
C106 H98 0.930 . S
C106 C102 1.390 . S
C106 C105 1.381 . S
N107 C100 1.286 . S
N107 C103 1.413 . S
H108 C113 0.930 . S
H109 C116 0.930 . S
H110 C118 0.930 1_545 S
H111 C112 1.016 . S
C112 H111 1.016 . S
C112 N119 1.286 . S
C113 H108 0.930 . S
C113 C114 1.397 . S
C113 C115 1.361 . S
C114 C113 1.397 . S
C114 C118 1.390 . S
C115 C113 1.361 . S
C115 C116 1.393 . S
C115 N119 1.413 . S
C116 H109 0.930 . S
C116 C115 1.393 . S
C116 C117 1.399 . S
C117 C116 1.399 . S
C117 C118 1.381 . S
C118 H110 0.930 1_565 S
C118 C114 1.390 . S
C118 C117 1.381 . S
N119 C112 1.286 . S
N119 C115 1.413 . S
H120 C125 0.930 . S
H121 C128 0.930 . S
H122 C130 0.930 . S
H123 C124 1.016 . S
C124 H123 1.016 . S
C124 N131 1.286 . S
C125 H120 0.930 . S
C125 C126 1.397 . S
C125 C127 1.361 . S
C126 C125 1.397 . S
C126 C130 1.390 . S
C127 C125 1.361 . S
C127 C128 1.393 . S
C127 N131 1.413 . S
C128 H121 0.930 . S
C128 C127 1.393 . S
C128 C129 1.399 . S
C129 C128 1.399 . S
C129 C130 1.381 . S
C130 H122 0.930 . S
C130 C126 1.390 . S
C130 C129 1.381 . S
N131 C124 1.286 . S
N131 C127 1.413 . S
H132 C137 0.930 . S
H133 C140 0.930 . S
H134 C142 0.930 . S
H135 C136 1.016 . S
C136 H135 1.016 . S
C136 N143 1.286 . S
C137 H132 0.930 . S
C137 C138 1.397 . S
C137 C139 1.361 . S
C138 C137 1.397 . S
C138 C142 1.390 . S
C139 C137 1.361 . S
C139 C140 1.393 . S
C139 N143 1.413 . S
C140 H133 0.930 . S
C140 C139 1.393 . S
C140 C141 1.399 . S
C141 C140 1.399 . S
C141 C142 1.381 . S
C142 H134 0.930 . S
C142 C138 1.390 . S
C142 C141 1.381 . S
N143 C136 1.286 . S
N143 C139 1.413 . S
H144 C149 0.930 . S
H145 C152 0.930 . S
H146 C154 0.930 . S
H147 C148 1.016 . S
C148 H147 1.016 . S
C148 N155 1.286 . S
C149 H144 0.930 . S
C149 C150 1.397 . S
C149 C151 1.361 . S
C150 C149 1.397 . S
C150 C154 1.390 . S
C151 C149 1.361 . S
C151 C152 1.393 . S
C151 N155 1.413 . S
C152 H145 0.930 . S
C152 C151 1.393 . S
C152 C153 1.399 . S
C153 C152 1.399 . S
C153 C154 1.381 . S
C154 H146 0.930 . S
C154 C150 1.390 . S
C154 C153 1.381 . S
N155 C148 1.286 . S
N155 C151 1.413 . S
H156 C161 0.930 . S
H157 C164 0.930 . S
H158 C166 0.930 . S
H159 C160 1.040 . S
C160 H159 1.040 . S
C160 N167 1.286 . S
C161 H156 0.930 . S
C161 C162 1.397 . S
C161 C163 1.361 . S
C162 C161 1.397 . S
C162 C166 1.390 . S
C163 C161 1.361 . S
C163 C164 1.393 . S
C163 N167 1.413 . S
C164 H157 0.930 . S
C164 C163 1.393 . S
C164 C165 1.399 . S
C165 C164 1.399 . S
C165 C166 1.381 . S
C166 H158 0.930 . S
C166 C162 1.390 . S
C166 C165 1.381 . S
N167 C160 1.286 . S
N167 C163 1.413 . S
H168 C173 0.930 . S
H169 C176 0.930 . S
H170 C178 0.930 . S
H171 C172 1.016 . S
C172 H171 1.016 . S
C172 N179 1.286 . S
C173 H168 0.930 . S
C173 C174 1.397 . S
C173 C175 1.361 . S
C174 C173 1.397 . S
C174 C178 1.390 . S
C175 C173 1.361 . S
C175 C176 1.393 . S
C175 N179 1.413 . S
C176 H169 0.930 . S
C176 C175 1.393 . S
C176 C177 1.399 . S
C177 C176 1.399 . S
C177 C178 1.381 . S
C178 H170 0.930 . S
C178 C174 1.390 . S
C178 C177 1.381 . S
N179 C172 1.286 . S
N179 C175 1.413 . S
H180 C185 0.930 . S
H181 C188 0.930 . S
H182 C190 0.930 . S
H183 C184 1.016 . S
C184 H183 1.016 . S
C184 N191 1.286 . S
C185 H180 0.930 . S
C185 C186 1.397 . S
C185 C187 1.361 . S
C186 C185 1.397 . S
C186 C190 1.390 . S
C187 C185 1.361 . S
C187 C188 1.393 . S
C187 N191 1.413 . S
C188 H181 0.930 . S
C188 C187 1.393 . S
C188 C189 1.399 . S
C189 C188 1.399 . S
C189 C190 1.381 . S
C190 H182 0.930 . S
C190 C186 1.390 . S
C190 C189 1.381 . S
N191 C184 1.286 . S
N191 C187 1.413 . S
Li192 N209 1.990 . S
Li192 O252 1.956 . S
Li192 O253 1.970 . S
Li192 O254 1.961 1_554 S
Li193 N217 1.990 . S
Li193 O252 1.970 . S
Li193 O253 1.956 . S
Li193 O255 1.961 . S
Li194 N239 1.990 . S
Li194 O252 1.961 1_556 S
Li194 O254 1.956 . S
Li194 O255 1.970 1_556 S
Li195 N245 1.990 . S
Li195 O253 1.961 . S
Li195 O254 1.970 1_554 S
Li195 O255 1.956 . S
C196 C198 1.348 . S
C196 C199 1.356 1_554 S
C196 O252 1.325 . S
N197 C200 1.314 . S
N197 C201 1.279 1_554 S
C198 C196 1.348 . S
C198 C200 1.353 . S
C198 H256 0.929 . S
C199 C196 1.356 1_556 S
C199 C201 1.358 . S
C199 H257 0.930 . S
C200 N197 1.314 . S
C200 C198 1.353 . S
C200 H258 0.930 . S
C201 N197 1.279 1_556 S
C201 C199 1.358 . S
C201 H259 0.930 . S
C202 C205 1.348 . S
C202 C206 1.356 . S
C202 O253 1.325 . S
C203 N204 1.279 . S
C203 C206 1.358 . S
C203 H260 0.930 . S
N204 C203 1.279 . S
N204 C207 1.314 . S
C205 C202 1.348 . S
C205 C207 1.353 . S
C205 H261 0.929 . S
C206 C202 1.356 . S
C206 C203 1.358 . S
C206 H262 0.930 . S
C207 N204 1.314 . S
C207 C205 1.353 . S
C207 H263 0.930 . S
C208 N209 1.314 . S
C208 C213 1.353 . S
C208 H214 0.930 . S
N209 Li192 1.990 . S
N209 C208 1.314 . S
N209 C211 1.279 . S
C210 C211 1.358 . S
C210 C212 1.356 . S
C210 H264 0.930 . S
C211 N209 1.279 . S
C211 C210 1.358 . S
C211 H215 0.930 . S
C212 C210 1.356 . S
C212 C213 1.348 . S
C213 C208 1.353 . S
C213 C212 1.348 . S
C213 H265 0.916 1_554 S
H214 C208 0.930 . S
H215 C211 0.930 . S
C216 N217 1.314 . S
C216 C218 1.353 . S
C216 H222 0.930 . S
N217 Li193 1.990 . S
N217 C216 1.314 . S
N217 C220 1.279 . S
C218 C216 1.353 . S
C218 C221 1.348 . S
C218 H266 0.929 . S
C219 C220 1.358 . S
C219 C221 1.356 . S
C219 H267 0.930 . S
C220 N217 1.279 . S
C220 C219 1.358 . S
C220 H223 0.930 . S
C221 C218 1.348 . S
C221 C219 1.356 . S
H222 C216 0.930 . S
H223 C220 0.930 . S
C224 C226 1.348 . S
C224 C227 1.356 . S
C224 O254 1.325 . S
N225 C228 1.314 . S
N225 C229 1.279 . S
C226 C224 1.348 . S
C226 C228 1.353 . S
C226 H268 0.929 . S
C227 C224 1.356 . S
C227 C229 1.358 . S
C227 H269 0.930 . S
C228 N225 1.314 . S
C228 C226 1.353 . S
C228 H270 0.930 . S
C229 N225 1.279 . S
C229 C227 1.358 . S
C229 H271 0.930 . S
C230 C231 1.355 . S
C230 C232 1.356 . S
C230 O255 1.325 . S
C231 C230 1.355 . S
C231 C233 1.355 . S
C231 H272 0.920 1_554 S
C232 C230 1.356 . S
C232 C234 1.358 . S
C232 H273 0.930 . S
C233 C231 1.355 . S
C233 N235 1.314 . S
C233 H274 0.930 1_554 S
C234 C232 1.358 . S
C234 N235 1.279 . S
C234 H275 0.930 . S
N235 C233 1.314 . S
N235 C234 1.279 . S
C236 C238 1.353 . S
C236 N239 1.314 . S
C236 H242 0.930 . S
C237 N239 1.279 . S
C237 C240 1.358 . S
C237 H243 0.930 . S
C238 C236 1.353 . S
C238 C241 1.348 . S
C238 H276 0.929 . S
N239 Li194 1.990 . S
N239 C236 1.314 . S
N239 C237 1.279 . S
C240 C237 1.358 . S
C240 C241 1.356 . S
C240 H277 0.930 . S
C241 C238 1.348 . S
C241 C240 1.356 . S
H242 C236 0.930 . S
H243 C237 0.930 . S
C244 N245 1.314 . S
C244 C246 1.353 . S
C244 H250 0.930 . S
N245 Li195 1.990 . S
N245 C244 1.314 . S
N245 C248 1.279 . S
C246 C244 1.353 . S
C246 C249 1.348 . S
C246 H278 0.929 . S
C247 C248 1.358 . S
C247 C249 1.356 . S
C247 H279 0.930 . S
C248 N245 1.279 . S
C248 C247 1.358 . S
C248 H251 0.930 . S
C249 C246 1.348 . S
C249 C247 1.356 . S
H250 C244 0.930 . S
H251 C248 0.930 . S
O252 Li192 1.956 . S
O252 Li193 1.970 . S
O252 Li194 1.961 1_554 S
O252 C196 1.325 . S
O253 Li192 1.970 . S
O253 Li193 1.956 . S
O253 Li195 1.961 . S
O253 C202 1.325 . S
O254 Li192 1.961 1_556 S
O254 Li194 1.956 . S
O254 Li195 1.970 1_556 S
O254 C224 1.325 . S
O255 Li193 1.961 . S
O255 Li194 1.970 1_554 S
O255 Li195 1.956 . S
O255 C230 1.325 . S
H256 C198 0.929 . S
H257 C199 0.930 . S
H258 C200 0.930 . S
H259 C201 0.930 . S
H260 C203 0.930 . S
H261 C205 0.929 . S
H262 C206 0.930 . S
H263 C207 0.930 . S
H264 C210 0.930 . S
H265 C213 0.916 1_556 S
H266 C218 0.929 . S
H267 C219 0.930 . S
H268 C226 0.929 . S
H269 C227 0.930 . S
H270 C228 0.930 . S
H271 C229 0.930 . S
H272 C231 0.920 1_556 S
H273 C232 0.930 . S
H274 C233 0.930 1_556 S
H275 C234 0.930 . S
H276 C238 0.929 . S
H277 C240 0.930 . S
H278 C246 0.929 . S
H279 C247 0.930 . S
Li280 N297 1.990 . S
Li280 O340 1.956 . S
Li280 O341 1.970 . S
Li280 O342 1.961 . S
Li281 N305 1.990 . S
Li281 O340 1.970 . S
Li281 O341 1.956 . S
Li281 O343 1.961 . S
Li282 N327 1.990 . S
Li282 O340 1.961 . S
Li282 O342 1.956 . S
Li282 O343 1.970 . S
Li283 N333 1.990 . S
Li283 O341 1.961 . S
Li283 O342 1.970 . S
Li283 O343 1.956 . S
C284 C286 1.348 . S
C284 C287 1.356 . S
C284 O340 1.325 . S
N285 C288 1.314 . S
N285 C289 1.279 . S
C286 C284 1.348 . S
C286 C288 1.353 . S
C286 H344 0.929 . S
C287 C284 1.356 . S
C287 C289 1.358 . S
C287 H345 0.930 . S
C288 N285 1.314 . S
C288 C286 1.353 . S
C288 H346 0.930 . S
C289 N285 1.279 . S
C289 C287 1.358 . S
C289 H347 0.930 . S
C290 C293 1.348 . S
C290 C294 1.356 . S
C290 O341 1.325 . S
C291 N292 1.279 . S
C291 C294 1.358 . S
C291 H348 0.930 . S
N292 C291 1.279 . S
N292 C295 1.314 . S
C293 C290 1.348 . S
C293 C295 1.353 . S
C293 H349 0.929 . S
C294 C290 1.356 . S
C294 C291 1.358 . S
C294 H350 0.930 . S
C295 N292 1.314 . S
C295 C293 1.353 . S
C295 H351 0.930 . S
C296 N297 1.314 . S
C296 C301 1.353 . S
C296 H302 0.930 . S
N297 Li280 1.990 . S
N297 C296 1.314 . S
N297 C299 1.279 . S
C298 C299 1.358 . S
C298 C300 1.356 . S
C298 H352 0.930 . S
C299 N297 1.279 . S
C299 C298 1.358 . S
C299 H303 0.930 . S
C300 C298 1.356 . S
C300 C301 1.348 . S
C301 C296 1.353 . S
C301 C300 1.348 . S
C301 H353 0.929 . S
H302 C296 0.930 . S
H303 C299 0.930 . S
C304 N305 1.314 . S
C304 C306 1.353 . S
C304 H310 0.930 . S
N305 Li281 1.990 . S
N305 C304 1.314 . S
N305 C308 1.279 . S
C306 C304 1.353 . S
C306 C309 1.348 . S
C306 H354 0.929 . S
C307 C308 1.358 . S
C307 C309 1.356 . S
C307 H355 0.930 . S
C308 N305 1.279 . S
C308 C307 1.358 . S
C308 H311 0.930 . S
C309 C306 1.348 . S
C309 C307 1.356 . S
H310 C304 0.930 . S
H311 C308 0.930 . S
C312 C314 1.348 . S
C312 C315 1.356 . S
C312 O342 1.325 . S
N313 C316 1.314 . S
N313 C317 1.279 . S
C314 C312 1.348 . S
C314 C316 1.353 . S
C314 H356 0.929 . S
C315 C312 1.356 . S
C315 C317 1.358 . S
C315 H357 0.930 . S
C316 N313 1.314 . S
C316 C314 1.353 . S
C316 H358 0.930 . S
C317 N313 1.279 . S
C317 C315 1.358 . S
C317 H359 0.930 . S
C318 C319 1.348 . S
C318 C320 1.356 . S
C318 O343 1.325 . S
C319 C318 1.348 . S
C319 C321 1.353 . S
C319 H360 0.929 . S
C320 C318 1.356 . S
C320 C322 1.358 . S
C320 H361 0.930 . S
C321 C319 1.353 . S
C321 N323 1.314 . S
C321 H362 0.930 . S
C322 C320 1.358 . S
C322 N323 1.279 . S
C322 H363 0.930 . S
N323 C321 1.314 . S
N323 C322 1.279 . S
C324 C326 1.353 . S
C324 N327 1.314 . S
C324 H330 0.930 . S
C325 N327 1.279 . S
C325 C328 1.358 . S
C325 H331 0.930 . S
C326 C324 1.353 . S
C326 C329 1.348 . S
C326 H364 0.929 . S
N327 Li282 1.990 . S
N327 C324 1.314 . S
N327 C325 1.279 . S
C328 C325 1.358 . S
C328 C329 1.356 . S
C328 H365 0.930 . S
C329 C326 1.348 . S
C329 C328 1.356 . S
H330 C324 0.930 . S
H331 C325 0.930 . S
C332 N333 1.314 . S
C332 C334 1.353 . S
C332 H338 0.930 . S
N333 Li283 1.990 . S
N333 C332 1.314 . S
N333 C336 1.279 . S
C334 C332 1.353 . S
C334 C337 1.348 . S
C334 H366 0.929 . S
C335 C336 1.358 . S
C335 C337 1.356 . S
C335 H367 0.930 . S
C336 N333 1.279 . S
C336 C335 1.358 . S
C336 H339 0.930 . S
C337 C334 1.348 . S
C337 C335 1.356 . S
H338 C332 0.930 . S
H339 C336 0.930 . S
O340 Li280 1.956 . S
O340 Li281 1.970 . S
O340 Li282 1.961 . S
O340 C284 1.325 . S
O341 Li280 1.970 . S
O341 Li281 1.956 . S
O341 Li283 1.961 . S
O341 C290 1.325 . S
O342 Li280 1.961 . S
O342 Li282 1.956 . S
O342 Li283 1.970 . S
O342 C312 1.325 . S
O343 Li281 1.961 . S
O343 Li282 1.970 . S
O343 Li283 1.956 . S
O343 C318 1.325 . S
H344 C286 0.929 . S
H345 C287 0.930 . S
H346 C288 0.930 . S
H347 C289 0.930 . S
H348 C291 0.930 . S
H349 C293 0.929 . S
H350 C294 0.930 . S
H351 C295 0.930 . S
H352 C298 0.930 . S
H353 C301 0.929 . S
H354 C306 0.929 . S
H355 C307 0.930 . S
H356 C314 0.929 . S
H357 C315 0.930 . S
H358 C316 0.930 . S
H359 C317 0.930 . S
H360 C319 0.929 . S
H361 C320 0.930 . S
H362 C321 0.930 . S
H363 C322 0.930 . S
H364 C326 0.929 . S
H365 C328 0.930 . S
H366 C334 0.929 . S
H367 C335 0.930 . S
Li368 N385 1.990 . S
Li368 O428 1.956 . S
Li368 O429 1.970 1_556 S
Li368 O430 1.961 . S
Li369 N393 1.990 . S
Li369 O428 1.970 1_554 S
Li369 O429 1.956 . S
Li369 O431 1.961 . S
Li370 N415 1.990 . S
Li370 O428 1.961 . S
Li370 O430 1.956 . S
Li370 O431 1.970 1_556 S
Li371 N421 1.990 . S
Li371 O429 1.961 . S
Li371 O430 1.970 1_554 S
Li371 O431 1.956 . S
C372 C374 1.348 1_556 S
C372 C375 1.356 . S
C372 O428 1.325 . S
N373 C376 1.314 1_556 S
N373 C377 1.279 . S
C374 C372 1.348 1_554 S
C374 C376 1.353 . S
C374 H432 0.929 . S
C375 C372 1.356 . S
C375 C377 1.358 . S
C375 H433 0.930 . S
C376 N373 1.314 1_554 S
C376 C374 1.353 . S
C376 H434 0.930 . S
C377 N373 1.279 . S
C377 C375 1.358 . S
C377 H435 0.930 . S
C378 C381 1.348 . S
C378 C382 1.356 . S
C378 O429 1.325 . S
C379 N380 1.279 . S
C379 C382 1.358 . S
C379 H436 0.930 . S
N380 C379 1.279 . S
N380 C383 1.314 . S
C381 C378 1.348 . S
C381 C383 1.353 . S
C381 H437 0.929 . S
C382 C378 1.356 . S
C382 C379 1.358 . S
C382 H438 0.930 . S
C383 N380 1.314 . S
C383 C381 1.353 . S
C383 H439 0.930 . S
C384 N385 1.314 . S
C384 C389 1.353 . S
C384 H390 0.930 . S
N385 Li368 1.990 . S
N385 C384 1.314 . S
N385 C387 1.279 . S
C386 C387 1.358 . S
C386 C388 1.356 . S
C386 H440 0.930 . S
C387 N385 1.279 . S
C387 C386 1.358 . S
C387 H391 0.930 . S
C388 C386 1.356 . S
C388 C389 1.348 . S
C389 C384 1.353 . S
C389 C388 1.348 . S
C389 H441 0.929 . S
H390 C384 0.930 . S
H391 C387 0.930 . S
C392 N393 1.314 . S
C392 C394 1.353 . S
C392 H398 0.930 . S
N393 Li369 1.990 . S
N393 C392 1.314 . S
N393 C396 1.279 . S
C394 C392 1.353 . S
C394 C397 1.348 . S
C394 H442 0.929 . S
C395 C396 1.358 . S
C395 C397 1.356 . S
C395 H443 0.930 . S
C396 N393 1.279 . S
C396 C395 1.358 . S
C396 H399 0.930 . S
C397 C394 1.348 . S
C397 C395 1.356 . S
H398 C392 0.930 . S
H399 C396 0.930 . S
C400 C402 1.348 . S
C400 C403 1.356 . S
C400 O430 1.325 . S
N401 C404 1.314 . S
N401 C405 1.279 . S
C402 C400 1.348 . S
C402 C404 1.353 . S
C402 H444 0.929 . S
C403 C400 1.356 . S
C403 C405 1.358 . S
C403 H445 0.930 . S
C404 N401 1.314 . S
C404 C402 1.353 . S
C404 H446 0.930 . S
C405 N401 1.279 . S
C405 C403 1.358 . S
C405 H447 0.930 . S
C406 C407 1.348 1_554 S
C406 C408 1.356 . S
C406 O431 1.325 . S
C407 C406 1.348 1_556 S
C407 C409 1.353 . S
C407 H448 0.929 . S
C408 C406 1.356 . S
C408 C410 1.358 . S
C408 H449 0.930 . S
C409 C407 1.353 . S
C409 N411 1.314 1_556 S
C409 H450 0.930 . S
C410 C408 1.358 . S
C410 N411 1.279 . S
C410 H451 0.930 . S
N411 C409 1.314 1_554 S
N411 C410 1.279 . S
C412 C414 1.353 . S
C412 N415 1.314 . S
C412 H418 0.930 . S
C413 N415 1.279 . S
C413 C416 1.358 . S
C413 H419 0.930 . S
C414 C412 1.353 . S
C414 C417 1.348 . S
C414 H452 0.929 . S
N415 Li370 1.990 . S
N415 C412 1.314 . S
N415 C413 1.279 . S
C416 C413 1.358 . S
C416 C417 1.356 . S
C416 H453 0.930 . S
C417 C414 1.348 . S
C417 C416 1.356 . S
H418 C412 0.930 . S
H419 C413 0.930 . S
C420 N421 1.314 . S
C420 C422 1.353 . S
C420 H426 0.930 . S
N421 Li371 1.990 . S
N421 C420 1.314 . S
N421 C424 1.279 . S
C422 C420 1.353 . S
C422 C425 1.348 . S
C422 H454 0.929 . S
C423 C424 1.358 . S
C423 C425 1.356 . S
C423 H455 0.930 . S
C424 N421 1.279 . S
C424 C423 1.358 . S
C424 H427 0.930 . S
C425 C422 1.348 . S
C425 C423 1.356 . S
H426 C420 0.930 . S
H427 C424 0.930 . S
O428 Li368 1.956 . S
O428 Li369 1.970 1_556 S
O428 Li370 1.961 . S
O428 C372 1.325 . S
O429 Li368 1.970 1_554 S
O429 Li369 1.956 . S
O429 Li371 1.961 . S
O429 C378 1.325 . S
O430 Li368 1.961 . S
O430 Li370 1.956 . S
O430 Li371 1.970 1_556 S
O430 C400 1.325 . S
O431 Li369 1.961 . S
O431 Li370 1.970 1_554 S
O431 Li371 1.956 . S
O431 C406 1.325 . S
H432 C374 0.929 . S
H433 C375 0.930 . S
H434 C376 0.930 . S
H435 C377 0.930 . S
H436 C379 0.930 . S
H437 C381 0.929 . S
H438 C382 0.930 . S
H439 C383 0.930 . S
H440 C386 0.930 . S
H441 C389 0.929 . S
H442 C394 0.929 . S
H443 C395 0.930 . S
H444 C402 0.929 . S
H445 C403 0.930 . S
H446 C404 0.930 . S
H447 C405 0.930 . S
H448 C407 0.929 . S
H449 C408 0.930 . S
H450 C409 0.930 . S
H451 C410 0.930 . S
H452 C414 0.929 . S
H453 C416 0.930 . S
H454 C422 0.929 . S
H455 C423 0.930 . S
Li456 N473 1.990 . S
Li456 O516 1.956 . S
Li456 O517 1.970 . S
Li456 O518 1.961 . S
Li457 N481 1.990 . S
Li457 O516 1.970 . S
Li457 O517 1.956 . S
Li457 O519 1.961 . S
Li458 N503 1.990 . S
Li458 O516 1.961 . S
Li458 O518 1.956 . S
Li458 O519 1.970 . S
Li459 N509 1.990 1_545 S
Li459 O517 1.961 . S
Li459 O518 1.970 . S
Li459 O519 1.956 . S
C460 C462 1.348 . S
C460 C463 1.356 . S
C460 O516 1.325 . S
N461 C464 1.314 . S
N461 C465 1.279 . S
C462 C460 1.348 . S
C462 C464 1.353 . S
C462 H520 0.929 . S
C463 C460 1.356 . S
C463 C465 1.358 . S
C463 H521 0.930 . S
C464 N461 1.314 . S
C464 C462 1.353 . S
C464 H522 0.930 . S
C465 N461 1.279 . S
C465 C463 1.358 . S
C465 H523 0.930 . S
C466 C469 1.348 . S
C466 C470 1.379 . S
C466 O517 1.325 . S
C467 N468 1.279 1_565 S
C467 C470 1.356 1_565 S
C467 H524 0.930 . S
N468 C467 1.279 1_545 S
N468 C471 1.314 . S
C469 C466 1.348 . S
C469 C471 1.353 . S
C469 H525 0.929 . S
C470 C466 1.379 . S
C470 C467 1.356 1_545 S
C470 H526 0.910 1_545 S
C471 N468 1.314 . S
C471 C469 1.353 . S
C471 H527 0.930 . S
C472 N473 1.314 . S
C472 C477 1.353 . S
C472 H478 0.930 . S
N473 Li456 1.990 . S
N473 C472 1.314 . S
N473 C475 1.279 . S
C474 C475 1.358 . S
C474 C476 1.356 . S
C474 H528 0.930 . S
C475 N473 1.279 . S
C475 C474 1.358 . S
C475 H479 0.930 . S
C476 C474 1.356 . S
C476 C477 1.348 . S
C477 C472 1.353 . S
C477 C476 1.348 . S
C477 H529 0.929 . S
H478 C472 0.930 . S
H479 C475 0.930 . S
C480 N481 1.314 . S
C480 C482 1.353 . S
C480 H486 0.930 . S
N481 Li457 1.990 . S
N481 C480 1.314 . S
N481 C484 1.279 . S
C482 C480 1.353 . S
C482 C485 1.348 . S
C482 H530 0.929 . S
C483 C484 1.358 . S
C483 C485 1.356 . S
C483 H531 0.930 . S
C484 N481 1.279 . S
C484 C483 1.358 . S
C484 H487 0.930 . S
C485 C482 1.348 . S
C485 C483 1.356 . S
H486 C480 0.930 . S
H487 C484 0.930 . S
C488 C490 1.348 . S
C488 C491 1.356 . S
C488 O518 1.325 . S
N489 C492 1.314 . S
N489 C493 1.279 . S
C490 C488 1.348 . S
C490 C492 1.353 . S
C490 H532 0.929 1_545 S
C491 C488 1.356 . S
C491 C493 1.358 . S
C491 H533 0.930 . S
C492 N489 1.314 . S
C492 C490 1.353 . S
C492 H534 0.930 . S
C493 N489 1.279 . S
C493 C491 1.358 . S
C493 H535 0.930 . S
C494 C495 1.348 . S
C494 C496 1.356 . S
C494 O519 1.325 1_565 S
C495 C494 1.348 . S
C495 C497 1.353 . S
C495 H536 0.929 . S
C496 C494 1.356 . S
C496 C498 1.358 . S
C496 H537 0.930 . S
C497 C495 1.353 . S
C497 N499 1.314 . S
C497 H538 0.930 . S
C498 C496 1.358 . S
C498 N499 1.279 . S
C498 H539 0.930 . S
N499 C497 1.314 . S
N499 C498 1.279 . S
C500 C502 1.353 . S
C500 N503 1.314 . S
C500 H506 0.930 . S
C501 N503 1.279 . S
C501 C504 1.358 . S
C501 H507 0.930 . S
C502 C500 1.353 . S
C502 C505 1.348 . S
C502 H540 0.929 . S
N503 Li458 1.990 . S
N503 C500 1.314 . S
N503 C501 1.279 . S
C504 C501 1.358 . S
C504 C505 1.356 . S
C504 H541 0.930 . S
C505 C502 1.348 . S
C505 C504 1.356 . S
H506 C500 0.930 . S
H507 C501 0.930 . S
C508 N509 1.314 . S
C508 C510 1.353 . S
C508 H514 0.930 . S
N509 Li459 1.990 1_565 S
N509 C508 1.314 . S
N509 C512 1.279 . S
C510 C508 1.353 . S
C510 C513 1.348 . S
C510 H542 0.929 . S
C511 C512 1.358 . S
C511 C513 1.356 . S
C511 H543 0.930 . S
C512 N509 1.279 . S
C512 C511 1.358 . S
C512 H515 0.930 . S
C513 C510 1.348 . S
C513 C511 1.356 . S
H514 C508 0.930 . S
H515 C512 0.930 . S
O516 Li456 1.956 . S
O516 Li457 1.970 . S
O516 Li458 1.961 . S
O516 C460 1.325 . S
O517 Li456 1.970 . S
O517 Li457 1.956 . S
O517 Li459 1.961 . S
O517 C466 1.325 . S
O518 Li456 1.961 . S
O518 Li458 1.956 . S
O518 Li459 1.970 . S
O518 C488 1.325 . S
O519 Li457 1.961 . S
O519 Li458 1.970 . S
O519 Li459 1.956 . S
O519 C494 1.325 1_545 S
H520 C462 0.929 . S
H521 C463 0.930 . S
H522 C464 0.930 . S
H523 C465 0.930 . S
H524 C467 0.930 . S
H525 C469 0.929 . S
H526 C470 0.910 1_565 S
H527 C471 0.930 . S
H528 C474 0.930 . S
H529 C477 0.929 . S
H530 C482 0.929 . S
H531 C483 0.930 . S
H532 C490 0.929 1_565 S
H533 C491 0.930 . S
H534 C492 0.930 . S
H535 C493 0.930 . S
H536 C495 0.929 . S
H537 C496 0.930 . S
H538 C497 0.930 . S
H539 C498 0.930 . S
H540 C502 0.929 . S
H541 C504 0.930 . S
H542 C510 0.929 . S
H543 C511 0.930 . S
Li544 N561 1.990 . S
Li544 O604 1.956 . S
Li544 O605 1.970 . S
Li544 O606 1.961 . S
Li545 N569 1.990 . S
Li545 O604 1.970 . S
Li545 O605 1.956 . S
Li545 O607 1.961 . S
Li546 N591 1.990 . S
Li546 O604 1.961 . S
Li546 O606 1.956 . S
Li546 O607 1.970 . S
Li547 N597 1.990 . S
Li547 O605 1.961 . S
Li547 O606 1.970 . S
Li547 O607 1.956 . S
C548 C550 1.348 . S
C548 C551 1.356 . S
C548 O604 1.325 . S
N549 C552 1.314 . S
N549 C553 1.279 . S
C550 C548 1.348 . S
C550 C552 1.353 . S
C550 H608 0.929 . S
C551 C548 1.356 . S
C551 C553 1.358 . S
C551 H609 0.930 . S
C552 N549 1.314 . S
C552 C550 1.353 . S
C552 H610 0.930 . S
C553 N549 1.279 . S
C553 C551 1.358 . S
C553 H611 0.930 . S
C554 C557 1.348 . S
C554 C558 1.356 . S
C554 O605 1.325 . S
C555 N556 1.279 . S
C555 C558 1.358 . S
C555 H612 0.930 . S
N556 C555 1.279 . S
N556 C559 1.314 . S
C557 C554 1.348 . S
C557 C559 1.353 . S
C557 H613 0.929 . S
C558 C554 1.356 . S
C558 C555 1.358 . S
C558 H614 0.930 . S
C559 N556 1.314 . S
C559 C557 1.353 . S
C559 H615 0.930 . S
C560 N561 1.314 . S
C560 C565 1.353 . S
C560 H566 0.930 . S
N561 Li544 1.990 . S
N561 C560 1.314 . S
N561 C563 1.279 . S
C562 C563 1.358 . S
C562 C564 1.356 . S
C562 H616 0.930 . S
C563 N561 1.279 . S
C563 C562 1.358 . S
C563 H567 0.930 . S
C564 C562 1.356 . S
C564 C565 1.348 . S
C565 C560 1.353 . S
C565 C564 1.348 . S
C565 H617 0.929 . S
H566 C560 0.930 . S
H567 C563 0.930 . S
C568 N569 1.314 . S
C568 C570 1.353 . S
C568 H574 0.930 . S
N569 Li545 1.990 . S
N569 C568 1.314 . S
N569 C572 1.279 . S
C570 C568 1.353 . S
C570 C573 1.348 . S
C570 H618 0.929 . S
C571 C572 1.358 . S
C571 C573 1.356 . S
C571 H619 0.930 . S
C572 N569 1.279 . S
C572 C571 1.358 . S
C572 H575 0.930 . S
C573 C570 1.348 . S
C573 C571 1.356 . S
H574 C568 0.930 . S
H575 C572 0.930 . S
C576 C578 1.348 . S
C576 C579 1.356 . S
C576 O606 1.325 . S
N577 C580 1.314 . S
N577 C581 1.279 . S
C578 C576 1.348 . S
C578 C580 1.353 . S
C578 H620 0.929 . S
C579 C576 1.356 . S
C579 C581 1.358 . S
C579 H621 0.930 . S
C580 N577 1.314 . S
C580 C578 1.353 . S
C580 H622 0.930 . S
C581 N577 1.279 . S
C581 C579 1.358 . S
C581 H623 0.930 . S
C582 C583 1.348 . S
C582 C584 1.356 . S
C582 O607 1.325 . S
C583 C582 1.348 . S
C583 C585 1.353 . S
C583 H624 0.929 . S
C584 C582 1.356 . S
C584 C586 1.358 . S
C584 H625 0.930 . S
C585 C583 1.353 . S
C585 N587 1.314 . S
C585 H626 0.930 . S
C586 C584 1.358 . S
C586 N587 1.279 . S
C586 H627 0.930 . S
N587 C585 1.314 . S
N587 C586 1.279 . S
C588 C590 1.353 . S
C588 N591 1.314 . S
C588 H594 0.930 . S
C589 N591 1.279 . S
C589 C592 1.358 . S
C589 H595 0.930 . S
C590 C588 1.353 . S
C590 C593 1.348 . S
C590 H628 0.929 . S
N591 Li546 1.990 . S
N591 C588 1.314 . S
N591 C589 1.279 . S
C592 C589 1.358 . S
C592 C593 1.356 . S
C592 H629 0.930 . S
C593 C590 1.348 . S
C593 C592 1.356 . S
H594 C588 0.930 . S
H595 C589 0.930 . S
C596 N597 1.314 . S
C596 C598 1.353 . S
C596 H602 0.930 . S
N597 Li547 1.990 . S
N597 C596 1.314 . S
N597 C600 1.279 . S
C598 C596 1.353 . S
C598 C601 1.348 . S
C598 H630 0.929 . S
C599 C600 1.358 . S
C599 C601 1.356 . S
C599 H631 0.930 . S
C600 N597 1.279 . S
C600 C599 1.358 . S
C600 H603 0.930 . S
C601 C598 1.348 . S
C601 C599 1.356 . S
H602 C596 0.930 . S
H603 C600 0.930 . S
O604 Li544 1.956 . S
O604 Li545 1.970 . S
O604 Li546 1.961 . S
O604 C548 1.325 . S
O605 Li544 1.970 . S
O605 Li545 1.956 . S
O605 Li547 1.961 . S
O605 C554 1.325 . S
O606 Li544 1.961 . S
O606 Li546 1.956 . S
O606 Li547 1.970 . S
O606 C576 1.325 . S
O607 Li545 1.961 . S
O607 Li546 1.970 . S
O607 Li547 1.956 . S
O607 C582 1.325 . S
H608 C550 0.929 . S
H609 C551 0.930 . S
H610 C552 0.930 . S
H611 C553 0.930 . S
H612 C555 0.930 . S
H613 C557 0.929 . S
H614 C558 0.930 . S
H615 C559 0.930 . S
H616 C562 0.930 . S
H617 C565 0.929 . S
H618 C570 0.929 . S
H619 C571 0.930 . S
H620 C578 0.929 . S
H621 C579 0.930 . S
H622 C580 0.930 . S
H623 C581 0.930 . S
H624 C583 0.929 . S
H625 C584 0.930 . S
H626 C585 0.930 . S
H627 C586 0.930 . S
H628 C590 0.929 . S
H629 C592 0.930 . S
H630 C598 0.929 . S
H631 C599 0.930 . S
Li632 N649 1.990 . S
Li632 O692 1.956 . S
Li632 O693 1.970 . S
Li632 O694 1.961 . S
Li633 N657 1.990 . S
Li633 O692 1.970 . S
Li633 O693 1.956 . S
Li633 O695 1.961 . S
Li634 N679 1.990 . S
Li634 O692 1.961 . S
Li634 O694 1.956 . S
Li634 O695 1.970 . S
Li635 N685 1.990 . S
Li635 O693 1.961 . S
Li635 O694 1.970 . S
Li635 O695 1.956 . S
C636 C638 1.348 . S
C636 C639 1.356 . S
C636 O692 1.325 . S
N637 C640 1.314 . S
N637 C641 1.279 . S
C638 C636 1.348 . S
C638 C640 1.353 . S
C638 H696 0.929 . S
C639 C636 1.356 . S
C639 C641 1.358 . S
C639 H697 0.930 . S
C640 N637 1.314 . S
C640 C638 1.353 . S
C640 H698 0.930 . S
C641 N637 1.279 . S
C641 C639 1.358 . S
C641 H699 0.930 . S
C642 C645 1.348 . S
C642 C646 1.356 . S
C642 O693 1.325 . S
C643 N644 1.279 . S
C643 C646 1.358 . S
C643 H700 0.930 . S
N644 C643 1.279 . S
N644 C647 1.314 . S
C645 C642 1.348 . S
C645 C647 1.353 . S
C645 H701 0.929 . S
C646 C642 1.356 . S
C646 C643 1.358 . S
C646 H702 0.930 . S
C647 N644 1.314 . S
C647 C645 1.353 . S
C647 H703 0.930 . S
C648 N649 1.314 . S
C648 C653 1.353 . S
C648 H654 0.930 . S
N649 Li632 1.990 . S
N649 C648 1.314 . S
N649 C651 1.279 . S
C650 C651 1.358 . S
C650 C652 1.356 . S
C650 H704 0.930 . S
C651 N649 1.279 . S
C651 C650 1.358 . S
C651 H655 0.930 . S
C652 C650 1.356 . S
C652 C653 1.348 . S
C653 C648 1.353 . S
C653 C652 1.348 . S
C653 H705 0.929 . S
H654 C648 0.930 . S
H655 C651 0.930 . S
C656 N657 1.314 . S
C656 C658 1.353 . S
C656 H662 0.930 . S
N657 Li633 1.990 . S
N657 C656 1.314 . S
N657 C660 1.279 . S
C658 C656 1.353 . S
C658 C661 1.348 . S
C658 H706 0.929 . S
C659 C660 1.358 . S
C659 C661 1.356 . S
C659 H707 0.930 . S
C660 N657 1.279 . S
C660 C659 1.358 . S
C660 H663 0.930 . S
C661 C658 1.348 . S
C661 C659 1.356 . S
H662 C656 0.930 . S
H663 C660 0.930 . S
C664 C666 1.348 . S
C664 C667 1.356 . S
C664 O694 1.325 . S
N665 C668 1.314 . S
N665 C669 1.279 . S
C666 C664 1.348 . S
C666 C668 1.353 . S
C666 H708 0.929 . S
C667 C664 1.356 . S
C667 C669 1.358 . S
C667 H709 0.930 . S
C668 N665 1.314 . S
C668 C666 1.353 . S
C668 H710 0.930 . S
C669 N665 1.279 . S
C669 C667 1.358 . S
C669 H711 0.930 . S
C670 C671 1.348 . S
C670 C672 1.356 . S
C670 O695 1.325 . S
C671 C670 1.348 . S
C671 C673 1.353 . S
C671 H712 0.929 . S
C672 C670 1.356 . S
C672 C674 1.358 . S
C672 H713 0.930 . S
C673 C671 1.353 . S
C673 N675 1.314 . S
C673 H714 0.930 . S
C674 C672 1.358 . S
C674 N675 1.279 . S
C674 H715 0.930 . S
N675 C673 1.314 . S
N675 C674 1.279 . S
C676 C678 1.353 . S
C676 N679 1.314 . S
C676 H682 0.930 . S
C677 N679 1.279 . S
C677 C680 1.358 . S
C677 H683 0.930 . S
C678 C676 1.353 . S
C678 C681 1.348 . S
C678 H716 0.929 . S
N679 Li634 1.990 . S
N679 C676 1.314 . S
N679 C677 1.279 . S
C680 C677 1.358 . S
C680 C681 1.356 . S
C680 H717 0.930 . S
C681 C678 1.348 . S
C681 C680 1.356 . S
H682 C676 0.930 . S
H683 C677 0.930 . S
C684 N685 1.314 . S
C684 C686 1.353 . S
C684 H690 0.930 . S
N685 Li635 1.990 . S
N685 C684 1.314 . S
N685 C688 1.279 . S
C686 C684 1.353 . S
C686 C689 1.348 . S
C686 H718 0.929 . S
C687 C688 1.358 . S
C687 C689 1.356 . S
C687 H719 0.930 . S
C688 N685 1.279 . S
C688 C687 1.358 . S
C688 H691 0.930 . S
C689 C686 1.348 . S
C689 C687 1.356 . S
H690 C684 0.930 . S
H691 C688 0.930 . S
O692 Li632 1.956 . S
O692 Li633 1.970 . S
O692 Li634 1.961 . S
O692 C636 1.325 . S
O693 Li632 1.970 . S
O693 Li633 1.956 . S
O693 Li635 1.961 . S
O693 C642 1.325 . S
O694 Li632 1.961 . S
O694 Li634 1.956 . S
O694 Li635 1.970 . S
O694 C664 1.325 . S
O695 Li633 1.961 . S
O695 Li634 1.970 . S
O695 Li635 1.956 . S
O695 C670 1.325 . S
H696 C638 0.929 . S
H697 C639 0.930 . S
H698 C640 0.930 . S
H699 C641 0.930 . S
H700 C643 0.930 . S
H701 C645 0.929 . S
H702 C646 0.930 . S
H703 C647 0.930 . S
H704 C650 0.930 . S
H705 C653 0.929 . S
H706 C658 0.929 . S
H707 C659 0.930 . S
H708 C666 0.929 . S
H709 C667 0.930 . S
H710 C668 0.930 . S
H711 C669 0.930 . S
H712 C671 0.929 . S
H713 C672 0.930 . S
H714 C673 0.930 . S
H715 C674 0.930 . S
H716 C678 0.929 . S
H717 C680 0.930 . S
H718 C686 0.929 . S
H719 C687 0.930 . S
Li720 N737 1.990 . S
Li720 O780 1.956 . S
Li720 O781 1.970 . S
Li720 O782 1.961 . S
Li721 N745 1.990 . S
Li721 O780 1.970 . S
Li721 O781 1.956 . S
Li721 O783 1.961 . S
Li722 N767 1.990 . S
Li722 O780 1.961 . S
Li722 O782 1.956 . S
Li722 O783 1.970 . S
Li723 N773 1.990 . S
Li723 O781 1.961 . S
Li723 O782 1.970 . S
Li723 O783 1.956 . S
C724 C726 1.348 . S
C724 C727 1.356 . S
C724 O780 1.325 . S
N725 C728 1.314 . S
N725 C729 1.279 . S
C726 C724 1.348 . S
C726 C728 1.353 . S
C726 H784 0.929 . S
C727 C724 1.356 . S
C727 C729 1.358 . S
C727 H785 0.930 . S
C728 N725 1.314 . S
C728 C726 1.353 . S
C728 H786 0.930 . S
C729 N725 1.279 . S
C729 C727 1.358 . S
C729 H787 0.930 . S
C730 C733 1.348 . S
C730 C734 1.356 . S
C730 O781 1.325 . S
C731 N732 1.279 . S
C731 C734 1.358 . S
C731 H788 0.930 . S
N732 C731 1.279 . S
N732 C735 1.314 . S
C733 C730 1.348 . S
C733 C735 1.353 . S
C733 H789 0.929 . S
C734 C730 1.356 . S
C734 C731 1.358 . S
C734 H790 0.930 . S
C735 N732 1.314 . S
C735 C733 1.353 . S
C735 H791 0.930 . S
C736 N737 1.314 . S
C736 C741 1.353 . S
C736 H742 0.930 . S
N737 Li720 1.990 . S
N737 C736 1.314 . S
N737 C739 1.279 . S
C738 C739 1.358 . S
C738 C740 1.356 . S
C738 H792 0.930 . S
C739 N737 1.279 . S
C739 C738 1.358 . S
C739 H743 0.930 . S
C740 C738 1.356 . S
C740 C741 1.348 . S
C741 C736 1.353 . S
C741 C740 1.348 . S
C741 H793 0.929 . S
H742 C736 0.930 . S
H743 C739 0.930 . S
C744 N745 1.314 . S
C744 C746 1.353 . S
C744 H750 0.930 . S
N745 Li721 1.990 . S
N745 C744 1.314 . S
N745 C748 1.279 . S
C746 C744 1.353 . S
C746 C749 1.348 . S
C746 H794 0.929 . S
C747 C748 1.358 . S
C747 C749 1.356 . S
C747 H795 0.930 . S
C748 N745 1.279 . S
C748 C747 1.358 . S
C748 H751 0.930 . S
C749 C746 1.348 . S
C749 C747 1.356 . S
H750 C744 0.930 . S
H751 C748 0.930 . S
C752 C754 1.348 . S
C752 C755 1.356 . S
C752 O782 1.325 . S
N753 C756 1.314 . S
N753 C757 1.279 . S
C754 C752 1.348 . S
C754 C756 1.353 . S
C754 H796 0.929 . S
C755 C752 1.356 . S
C755 C757 1.358 . S
C755 H797 0.930 . S
C756 N753 1.314 . S
C756 C754 1.353 . S
C756 H798 0.930 . S
C757 N753 1.279 . S
C757 C755 1.358 . S
C757 H799 0.930 . S
C758 C759 1.348 . S
C758 C760 1.356 . S
C758 O783 1.325 . S
C759 C758 1.348 . S
C759 C761 1.353 . S
C759 H800 0.929 . S
C760 C758 1.356 . S
C760 C762 1.358 . S
C760 H801 0.930 . S
C761 C759 1.353 . S
C761 N763 1.314 . S
C761 H802 0.930 . S
C762 C760 1.358 . S
C762 N763 1.279 . S
C762 H803 0.930 . S
N763 C761 1.314 . S
N763 C762 1.279 . S
C764 C766 1.353 . S
C764 N767 1.314 . S
C764 H770 0.930 . S
C765 N767 1.279 . S
C765 C768 1.358 . S
C765 H771 0.930 . S
C766 C764 1.353 . S
C766 C769 1.348 . S
C766 H804 0.929 . S
N767 Li722 1.990 . S
N767 C764 1.314 . S
N767 C765 1.279 . S
C768 C765 1.358 . S
C768 C769 1.356 . S
C768 H805 0.930 . S
C769 C766 1.348 . S
C769 C768 1.356 . S
H770 C764 0.930 . S
H771 C765 0.930 . S
C772 N773 1.314 . S
C772 C774 1.353 . S
C772 H778 0.930 . S
N773 Li723 1.990 . S
N773 C772 1.314 . S
N773 C776 1.279 . S
C774 C772 1.353 . S
C774 C777 1.348 . S
C774 H806 0.929 . S
C775 C776 1.358 . S
C775 C777 1.356 . S
C775 H807 0.930 . S
C776 N773 1.279 . S
C776 C775 1.358 . S
C776 H779 0.930 . S
C777 C774 1.348 . S
C777 C775 1.356 . S
H778 C772 0.930 . S
H779 C776 0.930 . S
O780 Li720 1.956 . S
O780 Li721 1.970 . S
O780 Li722 1.961 . S
O780 C724 1.325 . S
O781 Li720 1.970 . S
O781 Li721 1.956 . S
O781 Li723 1.961 . S
O781 C730 1.325 . S
O782 Li720 1.961 . S
O782 Li722 1.956 . S
O782 Li723 1.970 . S
O782 C752 1.325 . S
O783 Li721 1.961 . S
O783 Li722 1.970 . S
O783 Li723 1.956 . S
O783 C758 1.325 . S
H784 C726 0.929 . S
H785 C727 0.930 . S
H786 C728 0.930 . S
H787 C729 0.930 . S
H788 C731 0.930 . S
H789 C733 0.929 . S
H790 C734 0.930 . S
H791 C735 0.930 . S
H792 C738 0.930 . S
H793 C741 0.929 . S
H794 C746 0.929 . S
H795 C747 0.930 . S
H796 C754 0.929 . S
H797 C755 0.930 . S
H798 C756 0.930 . S
H799 C757 0.930 . S
H800 C759 0.929 . S
H801 C760 0.930 . S
H802 C761 0.930 . S
H803 C762 0.930 . S
H804 C766 0.929 . S
H805 C768 0.930 . S
H806 C774 0.929 . S
H807 C775 0.930 . S
Li808 N825 1.990 . S
Li808 O868 1.956 . S
Li808 O869 1.970 1_565 S
Li808 O870 1.961 . S
Li809 N833 1.990 . S
Li809 O868 1.970 1_545 S
Li809 O869 1.956 . S
Li809 O871 1.961 . S
Li810 N855 1.990 . S
Li810 O868 1.961 . S
Li810 O870 1.956 . S
Li810 O871 1.970 1_565 S
Li811 N861 1.990 . S
Li811 O869 1.961 . S
Li811 O870 1.970 1_545 S
Li811 O871 1.956 . S
C812 C814 1.348 . S
C812 C815 1.356 . S
C812 O868 1.325 . S
N813 C816 1.314 . S
N813 C817 1.279 . S
C814 C812 1.348 . S
C814 C816 1.353 . S
C814 H872 0.929 . S
C815 C812 1.356 . S
C815 C817 1.358 . S
C815 H873 0.930 . S
C816 N813 1.314 . S
C816 C814 1.353 . S
C816 H874 0.930 . S
C817 N813 1.279 . S
C817 C815 1.358 . S
C817 H875 0.930 . S
C818 C821 1.348 1_545 S
C818 C822 1.356 . S
C818 O869 1.325 . S
C819 N820 1.279 . S
C819 C822 1.358 . S
C819 H876 0.930 . S
N820 C819 1.279 . S
N820 C823 1.314 1_545 S
C821 C818 1.348 1_565 S
C821 C823 1.353 . S
C821 H877 0.929 . S
C822 C818 1.356 . S
C822 C819 1.358 . S
C822 H878 0.930 . S
C823 N820 1.314 1_565 S
C823 C821 1.353 . S
C823 H879 0.930 . S
C824 N825 1.314 . S
C824 C829 1.353 . S
C824 H830 0.930 . S
N825 Li808 1.990 . S
N825 C824 1.314 . S
N825 C827 1.279 . S
C826 C827 1.358 . S
C826 C828 1.356 . S
C826 H880 0.930 . S
C827 N825 1.279 . S
C827 C826 1.358 . S
C827 H831 0.930 . S
C828 C826 1.356 . S
C828 C829 1.348 . S
C829 C824 1.353 . S
C829 C828 1.348 . S
C829 H881 0.929 . S
H830 C824 0.930 . S
H831 C827 0.930 . S
C832 N833 1.314 . S
C832 C834 1.353 . S
C832 H838 0.930 . S
N833 Li809 1.990 . S
N833 C832 1.314 . S
N833 C836 1.279 . S
C834 C832 1.353 . S
C834 C837 1.348 . S
C834 H882 0.929 . S
C835 C836 1.358 . S
C835 C837 1.356 . S
C835 H883 0.930 . S
C836 N833 1.279 . S
C836 C835 1.358 . S
C836 H839 0.930 . S
C837 C834 1.348 . S
C837 C835 1.356 . S
H838 C832 0.930 . S
H839 C836 0.930 . S
C840 C842 1.348 1_565 S
C840 C843 1.356 . S
C840 O870 1.325 . S
N841 C844 1.314 1_565 S
N841 C845 1.279 . S
C842 C840 1.348 1_545 S
C842 C844 1.353 . S
C842 H884 0.929 . S
C843 C840 1.356 . S
C843 C845 1.358 . S
C843 H885 0.930 . S
C844 N841 1.314 1_545 S
C844 C842 1.353 . S
C844 H886 0.930 . S
C845 N841 1.279 . S
C845 C843 1.358 . S
C845 H887 0.930 . S
C846 C847 1.348 . S
C846 C848 1.356 . S
C846 O871 1.325 . S
C847 C846 1.348 . S
C847 C849 1.353 . S
C847 H888 0.929 . S
C848 C846 1.356 . S
C848 C850 1.358 . S
C848 H889 0.930 . S
C849 C847 1.353 . S
C849 N851 1.314 . S
C849 H890 0.930 . S
C850 C848 1.358 . S
C850 N851 1.279 . S
C850 H891 0.930 . S
N851 C849 1.314 . S
N851 C850 1.279 . S
C852 C854 1.353 . S
C852 N855 1.314 . S
C852 H858 0.930 . S
C853 N855 1.279 . S
C853 C856 1.358 . S
C853 H859 0.930 . S
C854 C852 1.353 . S
C854 C857 1.348 . S
C854 H892 0.929 . S
N855 Li810 1.990 . S
N855 C852 1.314 . S
N855 C853 1.279 . S
C856 C853 1.358 . S
C856 C857 1.356 . S
C856 H893 0.930 . S
C857 C854 1.348 . S
C857 C856 1.356 . S
H858 C852 0.930 . S
H859 C853 0.930 . S
C860 N861 1.314 . S
C860 C862 1.353 . S
C860 H866 0.930 . S
N861 Li811 1.990 . S
N861 C860 1.314 . S
N861 C864 1.279 . S
C862 C860 1.353 . S
C862 C865 1.348 . S
C862 H894 0.929 . S
C863 C864 1.358 . S
C863 C865 1.356 . S
C863 H895 0.930 . S
C864 N861 1.279 . S
C864 C863 1.358 . S
C864 H867 0.930 . S
C865 C862 1.348 . S
C865 C863 1.356 . S
H866 C860 0.930 . S
H867 C864 0.930 . S
O868 Li808 1.956 . S
O868 Li809 1.970 1_565 S
O868 Li810 1.961 . S
O868 C812 1.325 . S
O869 Li808 1.970 1_545 S
O869 Li809 1.956 . S
O869 Li811 1.961 . S
O869 C818 1.325 . S
O870 Li808 1.961 . S
O870 Li810 1.956 . S
O870 Li811 1.970 1_565 S
O870 C840 1.325 . S
O871 Li809 1.961 . S
O871 Li810 1.970 1_545 S
O871 Li811 1.956 . S
O871 C846 1.325 . S
H872 C814 0.929 . S
H873 C815 0.930 . S
H874 C816 0.930 . S
H875 C817 0.930 . S
H876 C819 0.930 . S
H877 C821 0.929 . S
H878 C822 0.930 . S
H879 C823 0.930 . S
H880 C826 0.930 . S
H881 C829 0.929 . S
H882 C834 0.929 . S
H883 C835 0.930 . S
H884 C842 0.929 . S
H885 C843 0.930 . S
H886 C844 0.930 . S
H887 C845 0.930 . S
H888 C847 0.929 . S
H889 C848 0.930 . S
H890 C849 0.930 . S
H891 C850 0.930 . S
H892 C854 0.929 . S
H893 C856 0.930 . S
H894 C862 0.929 . S
H895 C863 0.930 . S
Li896 N913 1.990 . S
Li896 O956 1.956 . S
Li896 O957 1.970 . S
Li896 O958 1.961 . S
Li897 N921 1.991 . S
Li897 O956 1.970 . S
Li897 O957 1.956 . S
Li897 O959 1.961 1_455 S
Li898 N943 1.990 . S
Li898 O956 1.961 . S
Li898 O958 1.956 . S
Li898 O959 1.970 1_455 S
Li899 N949 1.990 . S
Li899 O957 1.961 1_655 S
Li899 O958 1.970 1_655 S
Li899 O959 1.956 . S
C900 C902 1.348 . S
C900 C903 1.356 . S
C900 O956 1.325 . S
N901 C904 1.314 . S
N901 C905 1.279 . S
C902 C900 1.348 . S
C902 C904 1.353 . S
C902 H960 0.929 . S
C903 C900 1.356 . S
C903 C905 1.358 . S
C903 H961 0.930 . S
C904 N901 1.314 . S
C904 C902 1.353 . S
C904 H962 0.930 . S
C905 N901 1.279 . S
C905 C903 1.358 . S
C905 H963 0.930 . S
C906 C909 1.348 . S
C906 C910 1.356 1_455 S
C906 O957 1.325 . S
C907 N908 1.279 . S
C907 C910 1.358 . S
C907 H964 0.930 . S
N908 C907 1.279 . S
N908 C911 1.314 1_655 S
C909 C906 1.348 . S
C909 C911 1.353 . S
C909 H965 0.929 . S
C910 C906 1.356 1_655 S
C910 C907 1.358 . S
C910 H966 0.930 . S
C911 N908 1.314 1_455 S
C911 C909 1.353 . S
C911 H967 0.930 . S
C912 N913 1.314 . S
C912 C917 1.353 . S
C912 H918 0.930 . S
N913 Li896 1.990 . S
N913 C912 1.314 . S
N913 C915 1.279 . S
C914 C915 1.358 . S
C914 C916 1.356 . S
C914 H968 0.930 . S
C915 N913 1.279 . S
C915 C914 1.358 . S
C915 H919 0.930 . S
C916 C914 1.356 . S
C916 C917 1.348 . S
C917 C912 1.353 . S
C917 C916 1.348 . S
C917 H969 0.929 . S
H918 C912 0.930 . S
H919 C915 0.930 . S
C920 N921 1.313 1_655 S
C920 C922 1.353 . S
C920 H926 0.930 . S
N921 Li897 1.991 . S
N921 C920 1.313 1_455 S
N921 C924 1.280 . S
C922 C920 1.353 . S
C922 C925 1.348 . S
C922 H970 0.929 . S
C923 C924 1.367 . S
C923 C925 1.347 1_455 S
C923 H971 0.933 . S
C924 N921 1.280 . S
C924 C923 1.367 . S
C924 H927 0.930 . S
C925 C922 1.348 . S
C925 C923 1.347 1_655 S
H926 C920 0.930 . S
H927 C924 0.930 . S
C928 C930 1.348 1_455 S
C928 C931 1.356 . S
C928 O958 1.325 . S
N929 C932 1.275 1_455 S
N929 C933 1.279 . S
C930 C928 1.348 1_655 S
C930 C932 1.365 . S
C930 H972 0.929 . S
C931 C928 1.356 . S
C931 C933 1.358 . S
C931 H973 0.930 . S
C932 N929 1.275 1_655 S
C932 C930 1.365 . S
C932 H974 0.963 . S
C933 N929 1.279 . S
C933 C931 1.358 . S
C933 H975 0.930 . S
C934 C935 1.348 . S
C934 C936 1.356 . S
C934 O959 1.325 . S
C935 C934 1.348 . S
C935 C937 1.353 . S
C935 H976 0.929 . S
C936 C934 1.356 . S
C936 C938 1.358 . S
C936 H977 0.930 . S
C937 C935 1.353 . S
C937 N939 1.314 . S
C937 H978 0.930 . S
C938 C936 1.358 . S
C938 N939 1.279 . S
C938 H979 0.930 . S
N939 C937 1.314 . S
N939 C938 1.279 . S
C940 C942 1.353 . S
C940 N943 1.314 . S
C940 H946 0.930 . S
C941 N943 1.279 . S
C941 C944 1.358 . S
C941 H947 0.930 . S
C942 C940 1.353 . S
C942 C945 1.348 . S
C942 H980 0.929 . S
N943 Li898 1.990 . S
N943 C940 1.314 . S
N943 C941 1.279 . S
C944 C941 1.358 . S
C944 C945 1.356 . S
C944 H981 0.930 . S
C945 C942 1.348 . S
C945 C944 1.356 . S
H946 C940 0.930 . S
H947 C941 0.930 . S
C948 N949 1.314 . S
C948 C950 1.353 . S
C948 H954 0.930 . S
N949 Li899 1.990 . S
N949 C948 1.314 . S
N949 C952 1.279 . S
C950 C948 1.353 . S
C950 C953 1.348 . S
C950 H982 0.929 . S
C951 C952 1.358 . S
C951 C953 1.356 . S
C951 H983 0.930 . S
C952 N949 1.279 . S
C952 C951 1.358 . S
C952 H955 0.930 . S
C953 C950 1.348 . S
C953 C951 1.356 . S
H954 C948 0.930 . S
H955 C952 0.930 . S
O956 Li896 1.956 . S
O956 Li897 1.970 . S
O956 Li898 1.961 . S
O956 C900 1.325 . S
O957 Li896 1.970 . S
O957 Li897 1.956 . S
O957 Li899 1.961 1_455 S
O957 C906 1.325 . S
O958 Li896 1.961 . S
O958 Li898 1.956 . S
O958 Li899 1.970 1_455 S
O958 C928 1.325 . S
O959 Li897 1.961 1_655 S
O959 Li898 1.970 1_655 S
O959 Li899 1.956 . S
O959 C934 1.325 . S
H960 C902 0.929 . S
H961 C903 0.930 . S
H962 C904 0.930 . S
H963 C905 0.930 . S
H964 C907 0.930 . S
H965 C909 0.929 . S
H966 C910 0.930 . S
H967 C911 0.930 . S
H968 C914 0.930 . S
H969 C917 0.929 . S
H970 C922 0.929 . S
H971 C923 0.933 . S
H972 C930 0.929 . S
H973 C931 0.930 . S
H974 C932 0.963 . S
H975 C933 0.930 . S
H976 C935 0.929 . S
H977 C936 0.930 . S
H978 C937 0.930 . S
H979 C938 0.930 . S
H980 C942 0.929 . S
H981 C944 0.930 . S
H982 C950 0.929 . S
H983 C951 0.930 . S
Li984 N1001 1.990 . S
Li984 O1044 1.956 . S
Li984 O1045 1.970 . S
Li984 O1046 1.961 . S
Li985 N1009 1.990 . S
Li985 O1044 1.970 . S
Li985 O1045 1.956 . S
Li985 O1047 1.961 . S
Li986 N1031 1.990 . S
Li986 O1044 1.961 . S
Li986 O1046 1.956 . S
Li986 O1047 1.970 . S
Li987 N1037 1.990 . S
Li987 O1045 1.961 . S
Li987 O1046 1.970 . S
Li987 O1047 1.956 . S
C988 C990 1.348 . S
C988 C991 1.356 . S
C988 O1044 1.325 . S
N989 C992 1.314 . S
N989 C993 1.279 . S
C990 C988 1.348 . S
C990 C992 1.353 . S
C990 H1048 0.929 . S
C991 C988 1.356 . S
C991 C993 1.358 . S
C991 H1049 0.930 . S
C992 N989 1.314 . S
C992 C990 1.353 . S
C992 H1050 0.930 . S
C993 N989 1.279 . S
C993 C991 1.358 . S
C993 H1051 0.930 . S
C994 C997 1.348 . S
C994 C998 1.356 . S
C994 O1045 1.325 . S
C995 N996 1.279 . S
C995 C998 1.358 . S
C995 H1052 0.930 . S
N996 C995 1.279 . S
N996 C999 1.314 . S
C997 C994 1.348 . S
C997 C999 1.353 . S
C997 H1053 0.929 . S
C998 C994 1.356 . S
C998 C995 1.358 . S
C998 H1054 0.930 . S
C999 N996 1.314 . S
C999 C997 1.353 . S
C999 H1055 0.930 . S
C1000 N1001 1.314 . S
C1000 C1005 1.353 . S
C1000 H1006 0.930 . S
N1001 Li984 1.990 . S
N1001 C1000 1.314 . S
N1001 C1003 1.279 . S
C1002 C1003 1.358 . S
C1002 C1004 1.356 . S
C1002 H1056 0.930 . S
C1003 N1001 1.279 . S
C1003 C1002 1.358 . S
C1003 H1007 0.930 . S
C1004 C1002 1.356 . S
C1004 C1005 1.348 . S
C1005 C1000 1.353 . S
C1005 C1004 1.348 . S
C1005 H1057 0.929 . S
H1006 C1000 0.930 . S
H1007 C1003 0.930 . S
C1008 N1009 1.314 . S
C1008 C1010 1.353 . S
C1008 H1014 0.930 . S
N1009 Li985 1.990 . S
N1009 C1008 1.314 . S
N1009 C1012 1.279 . S
C1010 C1008 1.353 . S
C1010 C1013 1.348 . S
C1010 H1058 0.929 . S
C1011 C1012 1.358 . S
C1011 C1013 1.356 . S
C1011 H1059 0.930 . S
C1012 N1009 1.279 . S
C1012 C1011 1.358 . S
C1012 H1015 0.930 . S
C1013 C1010 1.348 . S
C1013 C1011 1.356 . S
H1014 C1008 0.930 . S
H1015 C1012 0.930 . S
C1016 C1018 1.348 . S
C1016 C1019 1.356 . S
C1016 O1046 1.325 . S
N1017 C1020 1.314 . S
N1017 C1021 1.279 . S
C1018 C1016 1.348 . S
C1018 C1020 1.353 . S
C1018 H1060 0.929 . S
C1019 C1016 1.356 . S
C1019 C1021 1.358 . S
C1019 H1061 0.930 . S
C1020 N1017 1.314 . S
C1020 C1018 1.353 . S
C1020 H1062 0.930 . S
C1021 N1017 1.279 . S
C1021 C1019 1.358 . S
C1021 H1063 0.930 . S
C1022 C1023 1.348 . S
C1022 C1024 1.356 . S
C1022 O1047 1.325 . S
C1023 C1022 1.348 . S
C1023 C1025 1.353 . S
C1023 H1064 0.929 . S
C1024 C1022 1.356 . S
C1024 C1026 1.358 . S
C1024 H1065 0.930 . S
C1025 C1023 1.353 . S
C1025 N1027 1.314 . S
C1025 H1066 0.930 . S
C1026 C1024 1.358 . S
C1026 N1027 1.279 . S
C1026 H1067 0.930 . S
N1027 C1025 1.314 . S
N1027 C1026 1.279 . S
C1028 C1030 1.353 . S
C1028 N1031 1.314 . S
C1028 H1034 0.930 . S
C1029 N1031 1.279 . S
C1029 C1032 1.358 . S
C1029 H1035 0.930 . S
C1030 C1028 1.353 . S
C1030 C1033 1.348 . S
C1030 H1068 0.929 . S
N1031 Li986 1.990 . S
N1031 C1028 1.314 . S
N1031 C1029 1.279 . S
C1032 C1029 1.358 . S
C1032 C1033 1.356 . S
C1032 H1069 0.930 . S
C1033 C1030 1.348 . S
C1033 C1032 1.356 . S
H1034 C1028 0.930 . S
H1035 C1029 0.930 . S
C1036 N1037 1.314 . S
C1036 C1038 1.353 . S
C1036 H1042 0.930 . S
N1037 Li987 1.990 . S
N1037 C1036 1.314 . S
N1037 C1040 1.279 . S
C1038 C1036 1.353 . S
C1038 C1041 1.348 . S
C1038 H1070 0.929 . S
C1039 C1040 1.358 . S
C1039 C1041 1.356 . S
C1039 H1071 0.930 . S
C1040 N1037 1.279 . S
C1040 C1039 1.358 . S
C1040 H1043 0.930 . S
C1041 C1038 1.348 . S
C1041 C1039 1.356 . S
H1042 C1036 0.930 . S
H1043 C1040 0.930 . S
O1044 Li984 1.956 . S
O1044 Li985 1.970 . S
O1044 Li986 1.961 . S
O1044 C988 1.325 . S
O1045 Li984 1.970 . S
O1045 Li985 1.956 . S
O1045 Li987 1.961 . S
O1045 C994 1.325 . S
O1046 Li984 1.961 . S
O1046 Li986 1.956 . S
O1046 Li987 1.970 . S
O1046 C1016 1.325 . S
O1047 Li985 1.961 . S
O1047 Li986 1.970 . S
O1047 Li987 1.956 . S
O1047 C1022 1.325 . S
H1048 C990 0.929 . S
H1049 C991 0.930 . S
H1050 C992 0.930 . S
H1051 C993 0.930 . S
H1052 C995 0.930 . S
H1053 C997 0.929 . S
H1054 C998 0.930 . S
H1055 C999 0.930 . S
H1056 C1002 0.930 . S
H1057 C1005 0.929 . S
H1058 C1010 0.929 . S
H1059 C1011 0.930 . S
H1060 C1018 0.929 . S
H1061 C1019 0.930 . S
H1062 C1020 0.930 . S
H1063 C1021 0.930 . S
H1064 C1023 0.929 . S
H1065 C1024 0.930 . S
H1066 C1025 0.930 . S
H1067 C1026 0.930 . S
H1068 C1030 0.929 . S
H1069 C1032 0.930 . S
H1070 C1038 0.929 . S
H1071 C1039 0.930 . S
Li1072 N1089 1.990 . S
Li1072 O1132 1.956 . S
Li1072 O1133 1.970 1_455 S
Li1072 O1134 1.961 . S
Li1073 N1097 1.990 . S
Li1073 O1132 1.970 1_655 S
Li1073 O1133 1.956 . S
Li1073 O1135 1.961 1_655 S
Li1074 N1119 1.990 . S
Li1074 O1132 1.961 . S
Li1074 O1134 1.956 . S
Li1074 O1135 1.970 . S
Li1075 N1125 1.990 . S
Li1075 O1133 1.961 1_455 S
Li1075 O1134 1.970 . S
Li1075 O1135 1.956 . S
C1076 C1078 1.348 . S
C1076 C1079 1.356 . S
C1076 O1132 1.325 . S
N1077 C1080 1.314 . S
N1077 C1081 1.279 . S
C1078 C1076 1.348 . S
C1078 C1080 1.353 . S
C1078 H1136 0.929 1_455 S
C1079 C1076 1.356 . S
C1079 C1081 1.358 . S
C1079 H1137 0.930 . S
C1080 N1077 1.314 . S
C1080 C1078 1.353 . S
C1080 H1138 0.930 1_455 S
C1081 N1077 1.279 . S
C1081 C1079 1.358 . S
C1081 H1139 0.930 . S
C1082 C1085 1.348 . S
C1082 C1086 1.356 . S
C1082 O1133 1.325 . S
C1083 N1084 1.279 . S
C1083 C1086 1.358 . S
C1083 H1140 0.930 . S
N1084 C1083 1.279 . S
N1084 C1087 1.314 . S
C1085 C1082 1.348 . S
C1085 C1087 1.353 . S
C1085 H1141 0.929 . S
C1086 C1082 1.356 . S
C1086 C1083 1.358 . S
C1086 H1142 0.930 . S
C1087 N1084 1.314 . S
C1087 C1085 1.353 . S
C1087 H1143 0.930 . S
C1088 N1089 1.314 . S
C1088 C1093 1.353 . S
C1088 H1094 0.930 . S
N1089 Li1072 1.990 . S
N1089 C1088 1.314 . S
N1089 C1091 1.279 . S
C1090 C1091 1.358 . S
C1090 C1092 1.356 . S
C1090 H1144 0.930 . S
C1091 N1089 1.279 . S
C1091 C1090 1.358 . S
C1091 H1095 0.930 . S
C1092 C1090 1.356 . S
C1092 C1093 1.348 . S
C1093 C1088 1.353 . S
C1093 C1092 1.348 . S
C1093 H1145 0.929 . S
H1094 C1088 0.930 . S
H1095 C1091 0.930 . S
C1096 N1097 1.314 . S
C1096 C1098 1.353 . S
C1096 H1102 0.930 . S
N1097 Li1073 1.990 . S
N1097 C1096 1.314 . S
N1097 C1100 1.279 . S
C1098 C1096 1.353 . S
C1098 C1101 1.348 . S
C1098 H1146 0.929 . S
C1099 C1100 1.358 . S
C1099 C1101 1.356 . S
C1099 H1147 0.930 . S
C1100 N1097 1.279 . S
C1100 C1099 1.358 . S
C1100 H1103 0.930 . S
C1101 C1098 1.348 . S
C1101 C1099 1.356 . S
H1102 C1096 0.930 . S
H1103 C1100 0.930 . S
C1104 C1106 1.348 . S
C1104 C1107 1.356 . S
C1104 O1134 1.325 . S
N1105 C1108 1.314 . S
N1105 C1109 1.279 . S
C1106 C1104 1.348 . S
C1106 C1108 1.353 . S
C1106 H1148 0.929 . S
C1107 C1104 1.356 . S
C1107 C1109 1.358 . S
C1107 H1149 0.930 . S
C1108 N1105 1.314 . S
C1108 C1106 1.353 . S
C1108 H1150 0.930 . S
C1109 N1105 1.279 . S
C1109 C1107 1.358 . S
C1109 H1151 0.930 . S
C1110 C1111 1.348 . S
C1110 C1112 1.356 1_455 S
C1110 O1135 1.325 . S
C1111 C1110 1.348 . S
C1111 C1113 1.353 . S
C1111 H1152 0.929 . S
C1112 C1110 1.356 1_655 S
C1112 C1114 1.358 . S
C1112 H1153 0.930 . S
C1113 C1111 1.353 . S
C1113 N1115 1.257 1_455 S
C1113 H1154 0.930 . S
C1114 C1112 1.358 . S
C1114 N1115 1.327 . S
C1114 H1155 0.930 . S
N1115 C1113 1.257 1_655 S
N1115 C1114 1.327 . S
C1116 C1118 1.353 . S
C1116 N1119 1.314 . S
C1116 H1122 0.930 . S
C1117 N1119 1.279 . S
C1117 C1120 1.358 . S
C1117 H1123 0.930 . S
C1118 C1116 1.353 . S
C1118 C1121 1.348 . S
C1118 H1156 0.929 . S
N1119 Li1074 1.990 . S
N1119 C1116 1.314 . S
N1119 C1117 1.279 . S
C1120 C1117 1.358 . S
C1120 C1121 1.356 . S
C1120 H1157 0.930 . S
C1121 C1118 1.348 . S
C1121 C1120 1.356 . S
H1122 C1116 0.930 . S
H1123 C1117 0.930 . S
C1124 N1125 1.314 1_655 S
C1124 C1126 1.353 . S
C1124 H1130 0.930 . S
N1125 Li1075 1.990 . S
N1125 C1124 1.314 1_455 S
N1125 C1128 1.279 . S
C1126 C1124 1.353 . S
C1126 C1129 1.348 . S
C1126 H1158 0.929 . S
C1127 C1128 1.358 . S
C1127 C1129 1.356 1_455 S
C1127 H1159 0.930 . S
C1128 N1125 1.279 . S
C1128 C1127 1.358 . S
C1128 H1131 0.930 . S
C1129 C1126 1.348 . S
C1129 C1127 1.356 1_655 S
H1130 C1124 0.930 . S
H1131 C1128 0.930 . S
O1132 Li1072 1.956 . S
O1132 Li1073 1.970 1_455 S
O1132 Li1074 1.961 . S
O1132 C1076 1.325 . S
O1133 Li1072 1.970 1_655 S
O1133 Li1073 1.956 . S
O1133 Li1075 1.961 1_655 S
O1133 C1082 1.325 . S
O1134 Li1072 1.961 . S
O1134 Li1074 1.956 . S
O1134 Li1075 1.970 . S
O1134 C1104 1.325 . S
O1135 Li1073 1.961 1_455 S
O1135 Li1074 1.970 . S
O1135 Li1075 1.956 . S
O1135 C1110 1.325 . S
H1136 C1078 0.929 1_655 S
H1137 C1079 0.930 . S
H1138 C1080 0.930 1_655 S
H1139 C1081 0.930 . S
H1140 C1083 0.930 . S
H1141 C1085 0.929 . S
H1142 C1086 0.930 . S
H1143 C1087 0.930 . S
H1144 C1090 0.930 . S
H1145 C1093 0.929 . S
H1146 C1098 0.929 . S
H1147 C1099 0.930 . S
H1148 C1106 0.929 . S
H1149 C1107 0.930 . S
H1150 C1108 0.930 . S
H1151 C1109 0.930 . S
H1152 C1111 0.929 . S
H1153 C1112 0.930 . S
H1154 C1113 0.930 . S
H1155 C1114 0.930 . S
H1156 C1118 0.929 . S
H1157 C1120 0.930 . S
H1158 C1126 0.929 . S
H1159 C1127 0.930 . S
Li1160 N1177 1.990 . S
Li1160 O1220 1.956 . S
Li1160 O1221 1.970 . S
Li1160 O1222 1.961 . S
Li1161 N1185 1.990 . S
Li1161 O1220 1.970 . S
Li1161 O1221 1.956 . S
Li1161 O1223 1.961 . S
Li1162 N1207 1.990 . S
Li1162 O1220 1.961 . S
Li1162 O1222 1.956 . S
Li1162 O1223 1.970 . S
Li1163 N1213 1.990 . S
Li1163 O1221 1.961 . S
Li1163 O1222 1.970 . S
Li1163 O1223 1.956 . S
C1164 C1166 1.348 . S
C1164 C1167 1.356 . S
C1164 O1220 1.325 . S
N1165 C1168 1.314 . S
N1165 C1169 1.279 . S
C1166 C1164 1.348 . S
C1166 C1168 1.353 . S
C1166 H1224 0.929 . S
C1167 C1164 1.356 . S
C1167 C1169 1.358 . S
C1167 H1225 0.930 . S
C1168 N1165 1.314 . S
C1168 C1166 1.353 . S
C1168 H1226 0.930 . S
C1169 N1165 1.279 . S
C1169 C1167 1.358 . S
C1169 H1227 0.930 . S
C1170 C1173 1.348 . S
C1170 C1174 1.356 . S
C1170 O1221 1.325 . S
C1171 N1172 1.279 . S
C1171 C1174 1.358 . S
C1171 H1228 0.930 . S
N1172 C1171 1.279 . S
N1172 C1175 1.314 . S
C1173 C1170 1.348 . S
C1173 C1175 1.353 . S
C1173 H1229 0.929 . S
C1174 C1170 1.356 . S
C1174 C1171 1.358 . S
C1174 H1230 0.930 . S
C1175 N1172 1.314 . S
C1175 C1173 1.353 . S
C1175 H1231 0.930 . S
C1176 N1177 1.314 . S
C1176 C1181 1.353 . S
C1176 H1182 0.930 . S
N1177 Li1160 1.990 . S
N1177 C1176 1.314 . S
N1177 C1179 1.279 . S
C1178 C1179 1.358 . S
C1178 C1180 1.356 . S
C1178 H1232 0.930 . S
C1179 N1177 1.279 . S
C1179 C1178 1.358 . S
C1179 H1183 0.930 . S
C1180 C1178 1.356 . S
C1180 C1181 1.348 . S
C1181 C1176 1.353 . S
C1181 C1180 1.348 . S
C1181 H1233 0.929 . S
H1182 C1176 0.930 . S
H1183 C1179 0.930 . S
C1184 N1185 1.314 . S
C1184 C1186 1.353 . S
C1184 H1190 0.930 . S
N1185 Li1161 1.990 . S
N1185 C1184 1.314 . S
N1185 C1188 1.279 . S
C1186 C1184 1.353 . S
C1186 C1189 1.348 . S
C1186 H1234 0.929 . S
C1187 C1188 1.358 . S
C1187 C1189 1.356 . S
C1187 H1235 0.930 . S
C1188 N1185 1.279 . S
C1188 C1187 1.358 . S
C1188 H1191 0.930 . S
C1189 C1186 1.348 . S
C1189 C1187 1.356 . S
H1190 C1184 0.930 . S
H1191 C1188 0.930 . S
C1192 C1194 1.348 . S
C1192 C1195 1.356 . S
C1192 O1222 1.325 . S
N1193 C1196 1.314 . S
N1193 C1197 1.279 . S
C1194 C1192 1.348 . S
C1194 C1196 1.353 . S
C1194 H1236 0.929 . S
C1195 C1192 1.356 . S
C1195 C1197 1.358 . S
C1195 H1237 0.930 . S
C1196 N1193 1.314 . S
C1196 C1194 1.353 . S
C1196 H1238 0.930 . S
C1197 N1193 1.279 . S
C1197 C1195 1.358 . S
C1197 H1239 0.930 . S
C1198 C1199 1.348 . S
C1198 C1200 1.356 . S
C1198 O1223 1.325 . S
C1199 C1198 1.348 . S
C1199 C1201 1.353 . S
C1199 H1240 0.929 . S
C1200 C1198 1.356 . S
C1200 C1202 1.358 . S
C1200 H1241 0.930 . S
C1201 C1199 1.353 . S
C1201 N1203 1.314 . S
C1201 H1242 0.930 . S
C1202 C1200 1.358 . S
C1202 N1203 1.279 . S
C1202 H1243 0.930 . S
N1203 C1201 1.314 . S
N1203 C1202 1.279 . S
C1204 C1206 1.353 . S
C1204 N1207 1.314 . S
C1204 H1210 0.930 . S
C1205 N1207 1.279 . S
C1205 C1208 1.358 . S
C1205 H1211 0.930 . S
C1206 C1204 1.353 . S
C1206 C1209 1.348 . S
C1206 H1244 0.929 . S
N1207 Li1162 1.990 . S
N1207 C1204 1.314 . S
N1207 C1205 1.279 . S
C1208 C1205 1.358 . S
C1208 C1209 1.356 . S
C1208 H1245 0.930 . S
C1209 C1206 1.348 . S
C1209 C1208 1.356 . S
H1210 C1204 0.930 . S
H1211 C1205 0.930 . S
C1212 N1213 1.314 . S
C1212 C1214 1.353 . S
C1212 H1218 0.930 . S
N1213 Li1163 1.990 . S
N1213 C1212 1.314 . S
N1213 C1216 1.279 . S
C1214 C1212 1.353 . S
C1214 C1217 1.348 . S
C1214 H1246 0.929 . S
C1215 C1216 1.358 . S
C1215 C1217 1.356 . S
C1215 H1247 0.930 . S
C1216 N1213 1.279 . S
C1216 C1215 1.358 . S
C1216 H1219 0.930 . S
C1217 C1214 1.348 . S
C1217 C1215 1.356 . S
H1218 C1212 0.930 . S
H1219 C1216 0.930 . S
O1220 Li1160 1.956 . S
O1220 Li1161 1.970 . S
O1220 Li1162 1.961 . S
O1220 C1164 1.325 . S
O1221 Li1160 1.970 . S
O1221 Li1161 1.956 . S
O1221 Li1163 1.961 . S
O1221 C1170 1.325 . S
O1222 Li1160 1.961 . S
O1222 Li1162 1.956 . S
O1222 Li1163 1.970 . S
O1222 C1192 1.325 . S
O1223 Li1161 1.961 . S
O1223 Li1162 1.970 . S
O1223 Li1163 1.956 . S
O1223 C1198 1.325 . S
H1224 C1166 0.929 . S
H1225 C1167 0.930 . S
H1226 C1168 0.930 . S
H1227 C1169 0.930 . S
H1228 C1171 0.930 . S
H1229 C1173 0.929 . S
H1230 C1174 0.930 . S
H1231 C1175 0.930 . S
H1232 C1178 0.930 . S
H1233 C1181 0.929 . S
H1234 C1186 0.929 . S
H1235 C1187 0.930 . S
H1236 C1194 0.929 . S
H1237 C1195 0.930 . S
H1238 C1196 0.930 . S
H1239 C1197 0.930 . S
H1240 C1199 0.929 . S
H1241 C1200 0.930 . S
H1242 C1201 0.930 . S
H1243 C1202 0.930 . S
H1244 C1206 0.929 . S
H1245 C1208 0.930 . S
H1246 C1214 0.929 . S
H1247 C1215 0.930 . S
H1248 C1266 0.951 . S
H1249 C1268 0.951 . S
H1250 C1270 0.950 . S
H1251 C1271 0.950 . S
H1252 C1273 0.950 . S
H1253 C1276 0.950 . S
H1254 C1277 0.950 . S
H1255 C1279 0.950 . S
H1256 C1280 0.950 . S
H1257 C1281 0.951 . S
H1258 C1283 0.951 . S
H1259 C1285 0.950 . S
H1260 C1286 0.950 . S
H1261 C1288 0.950 . S
H1262 C1291 0.950 . S
H1263 C1292 0.950 . S
H1264 C1294 0.950 . S
H1265 C1295 0.950 . S
C1266 H1248 0.951 . S
C1266 C1267 1.366 . S
C1266 C1268 1.388 . S
C1267 C1266 1.366 . S
C1267 C1271 1.385 . S
C1268 H1249 0.951 . S
C1268 C1266 1.388 . S
C1268 C1269 1.366 . S
C1269 C1268 1.366 . S
C1269 C1270 1.414 . S
C1269 C1272 1.499 . S
C1270 H1250 0.950 . S
C1270 C1269 1.414 . S
C1270 C1271 1.374 . S
C1271 H1251 0.950 . S
C1271 C1267 1.385 . S
C1271 C1270 1.374 . S
C1272 C1269 1.499 . S
C1272 C1273 1.373 . S
C1272 C1274 1.389 . S
C1273 H1252 0.950 . S
C1273 C1272 1.373 . S
C1273 C1289 1.377 . S
C1274 C1272 1.389 . S
C1274 C1275 1.524 . S
C1274 C1288 1.377 . S
C1275 C1274 1.524 . S
C1275 C1276 1.397 . S
C1275 C1280 1.363 . S
C1276 H1253 0.950 . S
C1276 C1275 1.397 . S
C1276 C1277 1.334 . S
C1277 H1254 0.950 . S
C1277 C1276 1.334 . S
C1277 C1278 1.287 . S
C1278 C1277 1.287 . S
C1278 C1279 1.524 . S
C1278 H1297 0.913 . S
C1279 H1255 0.950 . S
C1279 C1278 1.524 . S
C1279 C1280 1.415 . S
C1280 H1256 0.950 . S
C1280 C1275 1.363 . S
C1280 C1279 1.415 . S
C1281 H1257 0.951 . S
C1281 C1282 1.366 . S
C1281 C1283 1.388 . S
C1282 C1281 1.366 . S
C1282 C1286 1.385 . S
C1283 H1258 0.951 . S
C1283 C1281 1.388 . S
C1283 C1284 1.366 . S
C1284 C1283 1.366 . S
C1284 C1285 1.414 . S
C1284 C1287 1.499 . S
C1285 H1259 0.950 . S
C1285 C1284 1.414 . S
C1285 C1286 1.374 . S
C1286 H1260 0.950 . S
C1286 C1282 1.385 . S
C1286 C1285 1.374 . S
C1287 C1284 1.499 . S
C1287 C1288 1.373 . S
C1287 C1289 1.389 . S
C1288 H1261 0.950 . S
C1288 C1274 1.377 . S
C1288 C1287 1.373 . S
C1289 C1273 1.377 . S
C1289 C1287 1.389 . S
C1289 C1290 1.524 . S
C1290 C1289 1.524 . S
C1290 C1291 1.397 . S
C1290 C1295 1.363 . S
C1291 H1262 0.950 . S
C1291 C1290 1.397 . S
C1291 C1292 1.334 . S
C1292 H1263 0.950 . S
C1292 C1291 1.334 . S
C1292 C1293 1.287 . S
C1293 C1292 1.287 . S
C1293 C1294 1.524 . S
C1293 H1296 0.999 . S
C1294 H1264 0.950 . S
C1294 C1293 1.524 . S
C1294 C1295 1.415 . S
C1295 H1265 0.950 . S
C1295 C1290 1.363 . S
C1295 C1294 1.415 . S
H1296 C1293 0.999 . S
H1297 C1278 0.913 . S
H1298 C1316 0.951 . S
H1299 C1318 0.951 . S
H1300 C1320 0.950 . S
H1301 C1321 0.950 1_655 S
H1302 C1323 0.950 . S
H1303 C1326 0.950 . S
H1304 C1327 0.950 . S
H1305 C1329 0.950 . S
H1306 C1330 0.950 . S
H1307 C1331 0.951 . S
H1308 C1333 0.951 . S
H1309 C1335 0.950 . S
H1310 C1336 0.950 . S
H1311 C1338 0.950 . S
H1312 C1341 0.950 . S
H1313 C1342 0.950 . S
H1314 C1344 0.950 . S
H1315 C1345 0.950 . S
C1316 H1298 0.951 . S
C1316 C1317 1.366 . S
C1316 C1318 1.388 . S
C1317 C1316 1.366 . S
C1317 C1321 1.385 . S
C1318 H1299 0.951 . S
C1318 C1316 1.388 . S
C1318 C1319 1.366 . S
C1319 C1318 1.366 . S
C1319 C1320 1.414 . S
C1319 C1322 1.499 . S
C1320 H1300 0.950 . S
C1320 C1319 1.414 . S
C1320 C1321 1.374 . S
C1321 H1301 0.950 1_455 S
C1321 C1317 1.385 . S
C1321 C1320 1.374 . S
C1322 C1319 1.499 . S
C1322 C1323 1.373 . S
C1322 C1324 1.389 . S
C1323 H1302 0.950 . S
C1323 C1322 1.373 . S
C1323 C1339 1.377 . S
C1324 C1322 1.389 . S
C1324 C1325 1.524 . S
C1324 C1338 1.377 . S
C1325 C1324 1.524 . S
C1325 C1326 1.397 . S
C1325 C1330 1.363 . S
C1326 H1303 0.950 . S
C1326 C1325 1.397 . S
C1326 C1327 1.334 . S
C1327 H1304 0.950 . S
C1327 C1326 1.334 . S
C1327 C1328 1.287 . S
C1328 C1327 1.287 . S
C1328 C1329 1.524 . S
C1328 H1347 0.913 . S
C1329 H1305 0.950 . S
C1329 C1328 1.524 . S
C1329 C1330 1.415 . S
C1330 H1306 0.950 . S
C1330 C1325 1.363 . S
C1330 C1329 1.415 . S
C1331 H1307 0.951 . S
C1331 C1332 1.366 . S
C1331 C1333 1.388 . S
C1332 C1331 1.366 . S
C1332 C1336 1.385 . S
C1333 H1308 0.951 . S
C1333 C1331 1.388 . S
C1333 C1334 1.366 . S
C1334 C1333 1.366 . S
C1334 C1335 1.414 . S
C1334 C1337 1.499 . S
C1335 H1309 0.950 . S
C1335 C1334 1.414 . S
C1335 C1336 1.374 . S
C1336 H1310 0.950 . S
C1336 C1332 1.385 . S
C1336 C1335 1.374 . S
C1337 C1334 1.499 . S
C1337 C1338 1.373 . S
C1337 C1339 1.389 . S
C1338 H1311 0.950 . S
C1338 C1324 1.377 . S
C1338 C1337 1.373 . S
C1339 C1323 1.377 . S
C1339 C1337 1.389 . S
C1339 C1340 1.524 . S
C1340 C1339 1.524 . S
C1340 C1341 1.397 . S
C1340 C1345 1.363 . S
C1341 H1312 0.950 . S
C1341 C1340 1.397 . S
C1341 C1342 1.334 . S
C1342 H1313 0.950 . S
C1342 C1341 1.334 . S
C1342 C1343 1.287 . S
C1343 C1342 1.287 . S
C1343 C1344 1.524 . S
C1343 H1346 0.999 . S
C1344 H1314 0.950 . S
C1344 C1343 1.524 . S
C1344 C1345 1.415 . S
C1345 H1315 0.950 . S
C1345 C1340 1.363 . S
C1345 C1344 1.415 . S
H1346 C1343 0.999 . S
H1347 C1328 0.913 . S
H1348 C1366 0.951 . S
H1349 C1368 0.951 . S
H1350 C1370 0.950 . S
H1351 C1371 0.950 . S
H1352 C1373 0.950 . S
H1353 C1376 0.950 . S
H1354 C1377 0.950 . S
H1355 C1379 0.950 . S
H1356 C1380 0.950 . S
H1357 C1381 0.951 . S
H1358 C1383 0.951 . S
H1359 C1385 0.950 . S
H1360 C1386 0.950 . S
H1361 C1388 0.950 . S
H1362 C1391 0.950 . S
H1363 C1392 0.950 . S
H1364 C1394 0.950 . S
H1365 C1395 0.950 . S
C1366 H1348 0.951 . S
C1366 C1367 1.366 . S
C1366 C1368 1.388 . S
C1367 C1366 1.366 . S
C1367 C1371 1.385 . S
C1368 H1349 0.951 . S
C1368 C1366 1.388 . S
C1368 C1369 1.366 . S
C1369 C1368 1.366 . S
C1369 C1370 1.414 . S
C1369 C1372 1.499 . S
C1370 H1350 0.950 . S
C1370 C1369 1.414 . S
C1370 C1371 1.374 . S
C1371 H1351 0.950 . S
C1371 C1367 1.385 . S
C1371 C1370 1.374 . S
C1372 C1369 1.499 . S
C1372 C1373 1.373 . S
C1372 C1374 1.389 . S
C1373 H1352 0.950 . S
C1373 C1372 1.373 . S
C1373 C1389 1.377 . S
C1374 C1372 1.389 . S
C1374 C1375 1.524 . S
C1374 C1388 1.377 . S
C1375 C1374 1.524 . S
C1375 C1376 1.397 . S
C1375 C1380 1.363 . S
C1376 H1353 0.950 . S
C1376 C1375 1.397 . S
C1376 C1377 1.334 . S
C1377 H1354 0.950 . S
C1377 C1376 1.334 . S
C1377 C1378 1.287 . S
C1378 C1377 1.287 . S
C1378 C1379 1.524 . S
C1378 H1397 0.913 . S
C1379 H1355 0.950 . S
C1379 C1378 1.524 . S
C1379 C1380 1.415 . S
C1380 H1356 0.950 . S
C1380 C1375 1.363 . S
C1380 C1379 1.415 . S
C1381 H1357 0.951 . S
C1381 C1382 1.366 . S
C1381 C1383 1.388 . S
C1382 C1381 1.366 . S
C1382 C1386 1.385 . S
C1383 H1358 0.951 . S
C1383 C1381 1.388 . S
C1383 C1384 1.366 . S
C1384 C1383 1.366 . S
C1384 C1385 1.414 . S
C1384 C1387 1.499 . S
C1385 H1359 0.950 . S
C1385 C1384 1.414 . S
C1385 C1386 1.374 . S
C1386 H1360 0.950 . S
C1386 C1382 1.385 . S
C1386 C1385 1.374 . S
C1387 C1384 1.499 . S
C1387 C1388 1.373 . S
C1387 C1389 1.389 . S
C1388 H1361 0.950 . S
C1388 C1374 1.377 . S
C1388 C1387 1.373 . S
C1389 C1373 1.377 . S
C1389 C1387 1.389 . S
C1389 C1390 1.524 . S
C1390 C1389 1.524 . S
C1390 C1391 1.397 . S
C1390 C1395 1.363 . S
C1391 H1362 0.950 . S
C1391 C1390 1.397 . S
C1391 C1392 1.334 . S
C1392 H1363 0.950 . S
C1392 C1391 1.334 . S
C1392 C1393 1.287 . S
C1393 C1392 1.287 . S
C1393 C1394 1.524 . S
C1393 H1396 0.999 . S
C1394 H1364 0.950 . S
C1394 C1393 1.524 . S
C1394 C1395 1.415 . S
C1395 H1365 0.950 . S
C1395 C1390 1.363 . S
C1395 C1394 1.415 . S
H1396 C1393 0.999 . S
H1397 C1378 0.913 . S
H1398 C1416 0.951 . S
H1399 C1418 0.951 . S
H1400 C1420 0.950 . S
H1401 C1421 0.950 . S
H1402 C1423 0.950 . S
H1403 C1426 0.950 . S
H1404 C1427 0.950 . S
H1405 C1429 0.950 . S
H1406 C1430 0.950 . S
H1407 C1431 0.951 . S
H1408 C1433 0.951 . S
H1409 C1435 0.950 1_455 S
H1410 C1436 0.950 . S
H1411 C1438 0.950 1_655 S
H1412 C1441 0.950 . S
H1413 C1442 0.950 . S
H1414 C1444 0.950 . S
H1415 C1445 0.950 . S
C1416 H1398 0.951 . S
C1416 C1417 1.366 1_545 S
C1416 C1418 1.388 . S
C1417 C1416 1.366 1_565 S
C1417 C1421 1.385 . S
C1418 H1399 0.951 . S
C1418 C1416 1.388 . S
C1418 C1419 1.366 1_545 S
C1419 C1418 1.366 1_565 S
C1419 C1420 1.414 . S
C1419 C1422 1.499 . S
C1420 H1400 0.950 . S
C1420 C1419 1.414 . S
C1420 C1421 1.374 . S
C1421 H1401 0.950 . S
C1421 C1417 1.385 . S
C1421 C1420 1.374 . S
C1422 C1419 1.499 . S
C1422 C1423 1.373 . S
C1422 C1424 1.389 1_565 S
C1423 H1402 0.950 . S
C1423 C1422 1.373 . S
C1423 C1439 1.377 . S
C1424 C1422 1.389 1_545 S
C1424 C1425 1.524 . S
C1424 C1438 1.377 . S
C1425 C1424 1.524 . S
C1425 C1426 1.397 1_455 S
C1425 C1430 1.363 . S
C1426 H1403 0.950 . S
C1426 C1425 1.397 1_655 S
C1426 C1427 1.334 . S
C1427 H1404 0.950 . S
C1427 C1426 1.334 . S
C1427 C1428 1.287 . S
C1428 C1427 1.287 . S
C1428 C1429 1.524 1_655 S
C1428 H1447 0.913 . S
C1429 H1405 0.950 . S
C1429 C1428 1.524 1_455 S
C1429 C1430 1.415 . S
C1430 H1406 0.950 . S
C1430 C1425 1.363 . S
C1430 C1429 1.415 . S
C1431 H1407 0.951 . S
C1431 C1432 1.366 1_565 S
C1431 C1433 1.388 . S
C1432 C1431 1.366 1_545 S
C1432 C1436 1.385 . S
C1433 H1408 0.951 . S
C1433 C1431 1.388 . S
C1433 C1434 1.366 1_565 S
C1434 C1433 1.366 1_545 S
C1434 C1435 1.414 . S
C1434 C1437 1.499 1_655 S
C1435 H1409 0.950 1_655 S
C1435 C1434 1.414 . S
C1435 C1436 1.374 . S
C1436 H1410 0.950 . S
C1436 C1432 1.385 . S
C1436 C1435 1.374 . S
C1437 C1434 1.499 1_455 S
C1437 C1438 1.373 . S
C1437 C1439 1.389 1_545 S
C1438 H1411 0.950 1_455 S
C1438 C1424 1.377 . S
C1438 C1437 1.373 . S
C1439 C1423 1.377 . S
C1439 C1437 1.389 1_565 S
C1439 C1440 1.524 . S
C1440 C1439 1.524 . S
C1440 C1441 1.397 . S
C1440 C1445 1.363 . S
C1441 H1412 0.950 . S
C1441 C1440 1.397 . S
C1441 C1442 1.334 . S
C1442 H1413 0.950 . S
C1442 C1441 1.334 . S
C1442 C1443 1.287 . S
C1443 C1442 1.287 . S
C1443 C1444 1.524 . S
C1443 H1446 0.999 . S
C1444 H1414 0.950 . S
C1444 C1443 1.524 . S
C1444 C1445 1.415 . S
C1445 H1415 0.950 . S
C1445 C1440 1.363 . S
C1445 C1444 1.415 . S
H1446 C1443 0.999 . S
H1447 C1428 0.913 . S
H1448 C1466 0.951 . S
H1449 C1468 0.951 . S
H1450 C1470 0.950 . S
H1451 C1471 0.950 . S
H1452 C1473 0.950 . S
H1453 C1476 0.950 . S
H1454 C1477 0.950 . S
H1455 C1479 0.950 . S
H1456 C1480 0.950 . S
H1457 C1481 0.951 . S
H1458 C1483 0.951 . S
H1459 C1485 0.950 . S
H1460 C1486 0.950 . S
H1461 C1488 0.950 . S
H1462 C1491 0.950 . S
H1463 C1492 0.950 . S
H1464 C1494 0.950 . S
H1465 C1495 0.950 . S
C1466 H1448 0.951 . S
C1466 C1467 1.366 . S
C1466 C1468 1.388 . S
C1467 C1466 1.366 . S
C1467 C1471 1.385 . S
C1468 H1449 0.951 . S
C1468 C1466 1.388 . S
C1468 C1469 1.366 . S
C1469 C1468 1.366 . S
C1469 C1470 1.414 . S
C1469 C1472 1.499 . S
C1470 H1450 0.950 . S
C1470 C1469 1.414 . S
C1470 C1471 1.374 . S
C1471 H1451 0.950 . S
C1471 C1467 1.385 . S
C1471 C1470 1.374 . S
C1472 C1469 1.499 . S
C1472 C1473 1.373 . S
C1472 C1474 1.389 . S
C1473 H1452 0.950 . S
C1473 C1472 1.373 . S
C1473 C1489 1.377 . S
C1474 C1472 1.389 . S
C1474 C1475 1.524 . S
C1474 C1488 1.377 . S
C1475 C1474 1.524 . S
C1475 C1476 1.397 . S
C1475 C1480 1.363 . S
C1476 H1453 0.950 . S
C1476 C1475 1.397 . S
C1476 C1477 1.334 . S
C1477 H1454 0.950 . S
C1477 C1476 1.334 . S
C1477 C1478 1.287 . S
C1478 C1477 1.287 . S
C1478 C1479 1.524 . S
C1478 H1497 0.913 . S
C1479 H1455 0.950 . S
C1479 C1478 1.524 . S
C1479 C1480 1.415 . S
C1480 H1456 0.950 . S
C1480 C1475 1.363 . S
C1480 C1479 1.415 . S
C1481 H1457 0.951 . S
C1481 C1482 1.366 . S
C1481 C1483 1.388 . S
C1482 C1481 1.366 . S
C1482 C1486 1.385 . S
C1483 H1458 0.951 . S
C1483 C1481 1.388 . S
C1483 C1484 1.366 . S
C1484 C1483 1.366 . S
C1484 C1485 1.414 . S
C1484 C1487 1.499 . S
C1485 H1459 0.950 . S
C1485 C1484 1.414 . S
C1485 C1486 1.374 . S
C1486 H1460 0.950 . S
C1486 C1482 1.385 . S
C1486 C1485 1.374 . S
C1487 C1484 1.499 . S
C1487 C1488 1.373 . S
C1487 C1489 1.389 . S
C1488 H1461 0.950 . S
C1488 C1474 1.377 . S
C1488 C1487 1.373 . S
C1489 C1473 1.377 . S
C1489 C1487 1.389 . S
C1489 C1490 1.524 . S
C1490 C1489 1.524 . S
C1490 C1491 1.397 . S
C1490 C1495 1.363 . S
C1491 H1462 0.950 . S
C1491 C1490 1.397 . S
C1491 C1492 1.334 . S
C1492 H1463 0.950 . S
C1492 C1491 1.334 . S
C1492 C1493 1.287 . S
C1493 C1492 1.287 . S
C1493 C1494 1.524 . S
C1493 H1496 0.999 . S
C1494 H1464 0.950 . S
C1494 C1493 1.524 . S
C1494 C1495 1.415 . S
C1495 H1465 0.950 . S
C1495 C1490 1.363 . S
C1495 C1494 1.415 . S
H1496 C1493 0.999 . S
H1497 C1478 0.913 . S
H1498 C1516 0.951 . S
H1499 C1518 0.951 . S
H1500 C1520 0.950 . S
H1501 C1521 0.950 . S
H1502 C1523 0.950 . S
H1503 C1526 0.950 . S
H1504 C1527 0.950 . S
H1505 C1529 0.950 . S
H1506 C1530 0.950 . S
H1507 C1531 0.951 . S
H1508 C1533 0.951 . S
H1509 C1535 0.950 . S
H1510 C1536 0.950 . S
H1511 C1538 0.950 . S
H1512 C1541 0.950 . S
H1513 C1542 0.950 . S
H1514 C1544 0.950 . S
H1515 C1545 0.950 . S
C1516 H1498 0.951 . S
C1516 C1517 1.366 . S
C1516 C1518 1.388 . S
C1517 C1516 1.366 . S
C1517 C1521 1.385 . S
C1518 H1499 0.951 . S
C1518 C1516 1.388 . S
C1518 C1519 1.366 . S
C1519 C1518 1.366 . S
C1519 C1520 1.414 . S
C1519 C1522 1.499 . S
C1520 H1500 0.950 . S
C1520 C1519 1.414 . S
C1520 C1521 1.374 . S
C1521 H1501 0.950 . S
C1521 C1517 1.385 . S
C1521 C1520 1.374 . S
C1522 C1519 1.499 . S
C1522 C1523 1.373 . S
C1522 C1524 1.389 . S
C1523 H1502 0.950 . S
C1523 C1522 1.373 . S
C1523 C1539 1.377 . S
C1524 C1522 1.389 . S
C1524 C1525 1.524 . S
C1524 C1538 1.377 . S
C1525 C1524 1.524 . S
C1525 C1526 1.397 . S
C1525 C1530 1.363 . S
C1526 H1503 0.950 . S
C1526 C1525 1.397 . S
C1526 C1527 1.334 . S
C1527 H1504 0.950 . S
C1527 C1526 1.334 . S
C1527 C1528 1.287 . S
C1528 C1527 1.287 . S
C1528 C1529 1.524 . S
C1528 H1547 0.913 . S
C1529 H1505 0.950 . S
C1529 C1528 1.524 . S
C1529 C1530 1.415 . S
C1530 H1506 0.950 . S
C1530 C1525 1.363 . S
C1530 C1529 1.415 . S
C1531 H1507 0.951 . S
C1531 C1532 1.366 . S
C1531 C1533 1.388 . S
C1532 C1531 1.366 . S
C1532 C1536 1.385 . S
C1533 H1508 0.951 . S
C1533 C1531 1.388 . S
C1533 C1534 1.366 . S
C1534 C1533 1.366 . S
C1534 C1535 1.414 . S
C1534 C1537 1.499 . S
C1535 H1509 0.950 . S
C1535 C1534 1.414 . S
C1535 C1536 1.374 . S
C1536 H1510 0.950 . S
C1536 C1532 1.385 . S
C1536 C1535 1.374 . S
C1537 C1534 1.499 . S
C1537 C1538 1.373 . S
C1537 C1539 1.389 . S
C1538 H1511 0.950 . S
C1538 C1524 1.377 . S
C1538 C1537 1.373 . S
C1539 C1523 1.377 . S
C1539 C1537 1.389 . S
C1539 C1540 1.524 . S
C1540 C1539 1.524 . S
C1540 C1541 1.397 . S
C1540 C1545 1.363 . S
C1541 H1512 0.950 . S
C1541 C1540 1.397 . S
C1541 C1542 1.334 . S
C1542 H1513 0.950 . S
C1542 C1541 1.334 . S
C1542 C1543 1.287 . S
C1543 C1542 1.287 . S
C1543 C1544 1.524 . S
C1543 H1546 0.999 . S
C1544 H1514 0.950 . S
C1544 C1543 1.524 . S
C1544 C1545 1.415 . S
C1545 H1515 0.950 . S
C1545 C1540 1.363 . S
C1545 C1544 1.415 . S
H1546 C1543 0.999 . S
H1547 C1528 0.913 . S
H1548 C1566 0.951 . S
H1549 C1568 0.951 . S
H1550 C1570 0.950 . S
H1551 C1571 0.950 . S
H1552 C1573 0.950 . S
H1553 C1576 0.950 . S
H1554 C1577 0.950 . S
H1555 C1579 0.950 . S
H1556 C1580 0.950 . S
H1557 C1581 0.951 . S
H1558 C1583 0.951 . S
H1559 C1585 0.950 . S
H1560 C1586 0.950 . S
H1561 C1588 0.950 . S
H1562 C1591 0.950 . S
H1563 C1592 0.950 . S
H1564 C1594 0.950 . S
H1565 C1595 0.950 . S
C1566 H1548 0.951 . S
C1566 C1567 1.366 . S
C1566 C1568 1.388 . S
C1567 C1566 1.366 . S
C1567 C1571 1.385 . S
C1568 H1549 0.951 . S
C1568 C1566 1.388 . S
C1568 C1569 1.366 . S
C1569 C1568 1.366 . S
C1569 C1570 1.414 . S
C1569 C1572 1.499 . S
C1570 H1550 0.950 . S
C1570 C1569 1.414 . S
C1570 C1571 1.374 . S
C1571 H1551 0.950 . S
C1571 C1567 1.385 . S
C1571 C1570 1.374 . S
C1572 C1569 1.499 . S
C1572 C1573 1.373 . S
C1572 C1574 1.389 . S
C1573 H1552 0.950 . S
C1573 C1572 1.373 . S
C1573 C1589 1.377 . S
C1574 C1572 1.389 . S
C1574 C1575 1.524 . S
C1574 C1588 1.377 . S
C1575 C1574 1.524 . S
C1575 C1576 1.397 . S
C1575 C1580 1.363 . S
C1576 H1553 0.950 . S
C1576 C1575 1.397 . S
C1576 C1577 1.334 . S
C1577 H1554 0.950 . S
C1577 C1576 1.334 . S
C1577 C1578 1.287 . S
C1578 C1577 1.287 . S
C1578 C1579 1.524 . S
C1578 H1597 0.913 . S
C1579 H1555 0.950 . S
C1579 C1578 1.524 . S
C1579 C1580 1.415 . S
C1580 H1556 0.950 . S
C1580 C1575 1.363 . S
C1580 C1579 1.415 . S
C1581 H1557 0.951 . S
C1581 C1582 1.366 . S
C1581 C1583 1.388 . S
C1582 C1581 1.366 . S
C1582 C1586 1.385 . S
C1583 H1558 0.951 . S
C1583 C1581 1.388 . S
C1583 C1584 1.366 . S
C1584 C1583 1.366 . S
C1584 C1585 1.414 . S
C1584 C1587 1.499 . S
C1585 H1559 0.950 . S
C1585 C1584 1.414 . S
C1585 C1586 1.374 . S
C1586 H1560 0.950 . S
C1586 C1582 1.385 . S
C1586 C1585 1.374 . S
C1587 C1584 1.499 . S
C1587 C1588 1.373 . S
C1587 C1589 1.389 . S
C1588 H1561 0.950 . S
C1588 C1574 1.377 . S
C1588 C1587 1.373 . S
C1589 C1573 1.377 . S
C1589 C1587 1.389 . S
C1589 C1590 1.524 . S
C1590 C1589 1.524 . S
C1590 C1591 1.397 . S
C1590 C1595 1.363 . S
C1591 H1562 0.950 . S
C1591 C1590 1.397 . S
C1591 C1592 1.334 . S
C1592 H1563 0.950 . S
C1592 C1591 1.334 . S
C1592 C1593 1.287 . S
C1593 C1592 1.287 . S
C1593 C1594 1.524 . S
C1593 H1596 0.999 . S
C1594 H1564 0.950 . S
C1594 C1593 1.524 . S
C1594 C1595 1.415 . S
C1595 H1565 0.950 . S
C1595 C1590 1.363 . S
C1595 C1594 1.415 . S
H1596 C1593 0.999 . S
H1597 C1578 0.913 . S
H1598 C1616 0.951 . S
H1599 C1618 0.951 . S
H1600 C1620 0.950 1_545 S
H1601 C1621 0.950 1_545 S
H1602 C1623 0.970 . S
H1603 C1626 0.950 . S
H1604 C1627 0.950 . S
H1605 C1629 0.950 . S
H1606 C1630 0.950 . S
H1607 C1631 0.952 . S
H1608 C1633 0.921 1_545 S
H1609 C1635 0.950 . S
H1610 C1636 0.950 . S
H1611 C1638 0.950 . S
H1612 C1641 0.950 . S
H1613 C1642 0.950 1_565 S
H1614 C1644 0.950 . S
H1615 C1645 0.950 . S
C1616 H1598 0.951 . S
C1616 C1617 1.366 . S
C1616 C1618 1.388 . S
C1617 C1616 1.366 . S
C1617 C1621 1.385 . S
C1618 H1599 0.951 . S
C1618 C1616 1.388 . S
C1618 C1619 1.366 . S
C1619 C1618 1.366 . S
C1619 C1620 1.414 . S
C1619 C1622 1.499 . S
C1620 H1600 0.950 1_565 S
C1620 C1619 1.414 . S
C1620 C1621 1.374 . S
C1621 H1601 0.950 1_565 S
C1621 C1617 1.385 . S
C1621 C1620 1.374 . S
C1622 C1619 1.499 . S
C1622 C1623 1.373 . S
C1622 C1624 1.389 . S
C1623 H1602 0.970 . S
C1623 C1622 1.373 . S
C1623 C1639 1.377 . S
C1624 C1622 1.389 . S
C1624 C1625 1.524 . S
C1624 C1638 1.377 . S
C1625 C1624 1.524 . S
C1625 C1626 1.397 . S
C1625 C1630 1.363 . S
C1626 H1603 0.950 . S
C1626 C1625 1.397 . S
C1626 C1627 1.334 . S
C1627 H1604 0.950 . S
C1627 C1626 1.334 . S
C1627 C1628 1.287 . S
C1628 C1627 1.287 . S
C1628 C1629 1.524 . S
C1628 H1647 0.913 . S
C1629 H1605 0.950 . S
C1629 C1628 1.524 . S
C1629 C1630 1.415 . S
C1630 H1606 0.950 . S
C1630 C1625 1.363 . S
C1630 C1629 1.415 . S
C1631 H1607 0.952 . S
C1631 C1632 1.364 1_545 S
C1631 C1633 1.390 1_545 S
C1632 C1631 1.364 1_565 S
C1632 C1636 1.385 . S
C1633 H1608 0.921 1_565 S
C1633 C1631 1.390 1_565 S
C1633 C1634 1.394 . S
C1634 C1633 1.394 . S
C1634 C1635 1.414 . S
C1634 C1637 1.499 . S
C1635 H1609 0.950 . S
C1635 C1634 1.414 . S
C1635 C1636 1.374 . S
C1636 H1610 0.950 . S
C1636 C1632 1.385 . S
C1636 C1635 1.374 . S
C1637 C1634 1.499 . S
C1637 C1638 1.373 . S
C1637 C1639 1.389 . S
C1638 H1611 0.950 . S
C1638 C1624 1.377 . S
C1638 C1637 1.373 . S
C1639 C1623 1.377 . S
C1639 C1637 1.389 . S
C1639 C1640 1.524 1_565 S
C1640 C1639 1.524 1_545 S
C1640 C1641 1.397 1_545 S
C1640 C1645 1.363 . S
C1641 H1612 0.950 . S
C1641 C1640 1.397 1_565 S
C1641 C1642 1.334 1_565 S
C1642 H1613 0.950 1_545 S
C1642 C1641 1.334 1_545 S
C1642 C1643 1.287 . S
C1643 C1642 1.287 . S
C1643 C1644 1.524 . S
C1643 H1646 0.999 . S
C1644 H1614 0.950 . S
C1644 C1643 1.524 . S
C1644 C1645 1.415 . S
C1645 H1615 0.950 . S
C1645 C1640 1.363 . S
C1645 C1644 1.415 . S
H1646 C1643 0.999 . S
H1647 C1628 0.913 . S
H1648 C1666 0.951 . S
H1649 C1668 0.951 . S
H1650 C1670 0.950 . S
H1651 C1671 0.950 . S
H1652 C1673 0.950 . S
H1653 C1676 0.950 . S
H1654 C1677 0.950 . S
H1655 C1679 0.950 . S
H1656 C1680 0.950 . S
H1657 C1681 0.951 . S
H1658 C1683 0.951 . S
H1659 C1685 0.950 . S
H1660 C1686 0.950 . S
H1661 C1688 0.950 . S
H1662 C1691 0.950 . S
H1663 C1692 0.950 . S
H1664 C1694 0.950 . S
H1665 C1695 0.950 . S
C1666 H1648 0.951 . S
C1666 C1667 1.366 . S
C1666 C1668 1.388 . S
C1667 C1666 1.366 . S
C1667 C1671 1.385 . S
C1668 H1649 0.951 . S
C1668 C1666 1.388 . S
C1668 C1669 1.366 . S
C1669 C1668 1.366 . S
C1669 C1670 1.414 . S
C1669 C1672 1.499 . S
C1670 H1650 0.950 . S
C1670 C1669 1.414 . S
C1670 C1671 1.374 . S
C1671 H1651 0.950 . S
C1671 C1667 1.385 . S
C1671 C1670 1.374 . S
C1672 C1669 1.499 . S
C1672 C1673 1.373 . S
C1672 C1674 1.389 . S
C1673 H1652 0.950 . S
C1673 C1672 1.373 . S
C1673 C1689 1.377 . S
C1674 C1672 1.389 . S
C1674 C1675 1.524 . S
C1674 C1688 1.377 . S
C1675 C1674 1.524 . S
C1675 C1676 1.397 . S
C1675 C1680 1.363 . S
C1676 H1653 0.950 . S
C1676 C1675 1.397 . S
C1676 C1677 1.334 . S
C1677 H1654 0.950 . S
C1677 C1676 1.334 . S
C1677 C1678 1.287 . S
C1678 C1677 1.287 . S
C1678 C1679 1.524 . S
C1678 H1697 0.913 . S
C1679 H1655 0.950 . S
C1679 C1678 1.524 . S
C1679 C1680 1.415 . S
C1680 H1656 0.950 . S
C1680 C1675 1.363 . S
C1680 C1679 1.415 . S
C1681 H1657 0.951 . S
C1681 C1682 1.366 . S
C1681 C1683 1.388 . S
C1682 C1681 1.366 . S
C1682 C1686 1.385 . S
C1683 H1658 0.951 . S
C1683 C1681 1.388 . S
C1683 C1684 1.366 . S
C1684 C1683 1.366 . S
C1684 C1685 1.414 . S
C1684 C1687 1.499 . S
C1685 H1659 0.950 . S
C1685 C1684 1.414 . S
C1685 C1686 1.374 . S
C1686 H1660 0.950 . S
C1686 C1682 1.385 . S
C1686 C1685 1.374 . S
C1687 C1684 1.499 . S
C1687 C1688 1.373 . S
C1687 C1689 1.389 . S
C1688 H1661 0.950 . S
C1688 C1674 1.377 . S
C1688 C1687 1.373 . S
C1689 C1673 1.377 . S
C1689 C1687 1.389 . S
C1689 C1690 1.524 . S
C1690 C1689 1.524 . S
C1690 C1691 1.397 . S
C1690 C1695 1.363 . S
C1691 H1662 0.950 . S
C1691 C1690 1.397 . S
C1691 C1692 1.334 . S
C1692 H1663 0.950 . S
C1692 C1691 1.334 . S
C1692 C1693 1.287 . S
C1693 C1692 1.287 . S
C1693 C1694 1.524 . S
C1693 H1696 0.999 . S
C1694 H1664 0.950 . S
C1694 C1693 1.524 . S
C1694 C1695 1.415 . S
C1695 H1665 0.950 . S
C1695 C1690 1.363 . S
C1695 C1694 1.415 . S
H1696 C1693 0.999 . S
H1697 C1678 0.913 . S
H1698 C1716 0.951 . S
H1699 C1718 0.951 . S
H1700 C1720 0.950 . S
H1701 C1721 0.950 . S
H1702 C1723 0.950 . S
H1703 C1726 0.950 . S
H1704 C1727 0.950 . S
H1705 C1729 0.950 . S
H1706 C1730 0.950 . S
H1707 C1731 0.951 . S
H1708 C1733 0.951 . S
H1709 C1735 0.950 . S
H1710 C1736 0.950 . S
H1711 C1738 0.950 . S
H1712 C1741 0.950 . S
H1713 C1742 0.950 . S
H1714 C1744 0.950 . S
H1715 C1745 0.950 . S
C1716 H1698 0.951 . S
C1716 C1717 1.366 . S
C1716 C1718 1.388 . S
C1717 C1716 1.366 . S
C1717 C1721 1.385 . S
C1718 H1699 0.951 . S
C1718 C1716 1.388 . S
C1718 C1719 1.366 . S
C1719 C1718 1.366 . S
C1719 C1720 1.414 . S
C1719 C1722 1.499 . S
C1720 H1700 0.950 . S
C1720 C1719 1.414 . S
C1720 C1721 1.374 . S
C1721 H1701 0.950 . S
C1721 C1717 1.385 . S
C1721 C1720 1.374 . S
C1722 C1719 1.499 . S
C1722 C1723 1.373 . S
C1722 C1724 1.389 . S
C1723 H1702 0.950 . S
C1723 C1722 1.373 . S
C1723 C1739 1.377 . S
C1724 C1722 1.389 . S
C1724 C1725 1.524 . S
C1724 C1738 1.377 . S
C1725 C1724 1.524 . S
C1725 C1726 1.397 . S
C1725 C1730 1.363 . S
C1726 H1703 0.950 . S
C1726 C1725 1.397 . S
C1726 C1727 1.334 . S
C1727 H1704 0.950 . S
C1727 C1726 1.334 . S
C1727 C1728 1.287 . S
C1728 C1727 1.287 . S
C1728 C1729 1.524 . S
C1728 H1747 0.913 . S
C1729 H1705 0.950 . S
C1729 C1728 1.524 . S
C1729 C1730 1.415 . S
C1730 H1706 0.950 . S
C1730 C1725 1.363 . S
C1730 C1729 1.415 . S
C1731 H1707 0.951 . S
C1731 C1732 1.366 . S
C1731 C1733 1.388 . S
C1732 C1731 1.366 . S
C1732 C1736 1.385 . S
C1733 H1708 0.951 . S
C1733 C1731 1.388 . S
C1733 C1734 1.366 . S
C1734 C1733 1.366 . S
C1734 C1735 1.414 . S
C1734 C1737 1.499 . S
C1735 H1709 0.950 . S
C1735 C1734 1.414 . S
C1735 C1736 1.374 . S
C1736 H1710 0.950 . S
C1736 C1732 1.385 . S
C1736 C1735 1.374 . S
C1737 C1734 1.499 . S
C1737 C1738 1.373 . S
C1737 C1739 1.389 . S
C1738 H1711 0.950 . S
C1738 C1724 1.377 . S
C1738 C1737 1.373 . S
C1739 C1723 1.377 . S
C1739 C1737 1.389 . S
C1739 C1740 1.524 . S
C1740 C1739 1.524 . S
C1740 C1741 1.397 . S
C1740 C1745 1.363 . S
C1741 H1712 0.950 . S
C1741 C1740 1.397 . S
C1741 C1742 1.334 . S
C1742 H1713 0.950 . S
C1742 C1741 1.334 . S
C1742 C1743 1.287 . S
C1743 C1742 1.287 . S
C1743 C1744 1.524 . S
C1743 H1746 0.999 . S
C1744 H1714 0.950 . S
C1744 C1743 1.524 . S
C1744 C1745 1.415 . S
C1745 H1715 0.950 . S
C1745 C1740 1.363 . S
C1745 C1744 1.415 . S
H1746 C1743 0.999 . S
H1747 C1728 0.913 . S
H1748 C1766 0.951 . S
H1749 C1768 0.951 . S
H1750 C1770 0.950 . S
H1751 C1771 0.950 . S
H1752 C1773 0.950 . S
H1753 C1776 0.950 . S
H1754 C1777 0.950 . S
H1755 C1779 0.950 . S
H1756 C1780 0.950 . S
H1757 C1781 0.951 . S
H1758 C1783 0.951 . S
H1759 C1785 0.950 . S
H1760 C1786 0.950 . S
H1761 C1788 0.950 . S
H1762 C1791 0.950 . S
H1763 C1792 0.950 . S
H1764 C1794 0.950 . S
H1765 C1795 0.950 . S
C1766 H1748 0.951 . S
C1766 C1767 1.366 . S
C1766 C1768 1.388 . S
C1767 C1766 1.366 . S
C1767 C1771 1.385 . S
C1768 H1749 0.951 . S
C1768 C1766 1.388 . S
C1768 C1769 1.366 . S
C1769 C1768 1.366 . S
C1769 C1770 1.414 . S
C1769 C1772 1.499 . S
C1770 H1750 0.950 . S
C1770 C1769 1.414 . S
C1770 C1771 1.374 . S
C1771 H1751 0.950 . S
C1771 C1767 1.385 . S
C1771 C1770 1.374 . S
C1772 C1769 1.499 . S
C1772 C1773 1.373 . S
C1772 C1774 1.389 . S
C1773 H1752 0.950 . S
C1773 C1772 1.373 . S
C1773 C1789 1.377 . S
C1774 C1772 1.389 . S
C1774 C1775 1.524 . S
C1774 C1788 1.377 . S
C1775 C1774 1.524 . S
C1775 C1776 1.397 . S
C1775 C1780 1.363 . S
C1776 H1753 0.950 . S
C1776 C1775 1.397 . S
C1776 C1777 1.334 . S
C1777 H1754 0.950 . S
C1777 C1776 1.334 . S
C1777 C1778 1.287 . S
C1778 C1777 1.287 . S
C1778 C1779 1.524 . S
C1778 H1797 0.913 . S
C1779 H1755 0.950 . S
C1779 C1778 1.524 . S
C1779 C1780 1.415 . S
C1780 H1756 0.950 . S
C1780 C1775 1.363 . S
C1780 C1779 1.415 . S
C1781 H1757 0.951 . S
C1781 C1782 1.366 . S
C1781 C1783 1.388 . S
C1782 C1781 1.366 . S
C1782 C1786 1.385 . S
C1783 H1758 0.951 . S
C1783 C1781 1.388 . S
C1783 C1784 1.366 . S
C1784 C1783 1.366 . S
C1784 C1785 1.414 . S
C1784 C1787 1.499 . S
C1785 H1759 0.950 . S
C1785 C1784 1.414 . S
C1785 C1786 1.374 . S
C1786 H1760 0.950 . S
C1786 C1782 1.385 . S
C1786 C1785 1.374 . S
C1787 C1784 1.499 . S
C1787 C1788 1.373 . S
C1787 C1789 1.389 . S
C1788 H1761 0.950 . S
C1788 C1774 1.377 . S
C1788 C1787 1.373 . S
C1789 C1773 1.377 . S
C1789 C1787 1.389 . S
C1789 C1790 1.524 . S
C1790 C1789 1.524 . S
C1790 C1791 1.397 . S
C1790 C1795 1.363 . S
C1791 H1762 0.950 . S
C1791 C1790 1.397 . S
C1791 C1792 1.334 . S
C1792 H1763 0.950 . S
C1792 C1791 1.334 . S
C1792 C1793 1.287 . S
C1793 C1792 1.287 . S
C1793 C1794 1.524 . S
C1793 H1796 0.999 . S
C1794 H1764 0.950 . S
C1794 C1793 1.524 . S
C1794 C1795 1.415 . S
C1795 H1765 0.950 . S
C1795 C1790 1.363 . S
C1795 C1794 1.415 . S
H1796 C1793 0.999 . S
H1797 C1778 0.913 . S
H1798 C1816 0.951 . S
H1799 C1818 0.951 . S
H1800 C1820 0.950 . S
H1801 C1821 0.950 . S
H1802 C1823 0.950 . S
H1803 C1826 0.950 . S
H1804 C1827 0.950 . S
H1805 C1829 0.950 . S
H1806 C1830 0.950 . S
H1807 C1831 0.951 . S
H1808 C1833 0.951 . S
H1809 C1835 0.950 . S
H1810 C1836 0.950 . S
H1811 C1838 0.950 . S
H1812 C1841 0.950 . S
H1813 C1842 0.950 . S
H1814 C1844 0.950 . S
H1815 C1845 0.950 . S
C1816 H1798 0.951 . S
C1816 C1817 1.366 . S
C1816 C1818 1.388 . S
C1817 C1816 1.366 . S
C1817 C1821 1.385 . S
C1818 H1799 0.951 . S
C1818 C1816 1.388 . S
C1818 C1819 1.366 . S
C1819 C1818 1.366 . S
C1819 C1820 1.414 . S
C1819 C1822 1.499 . S
C1820 H1800 0.950 . S
C1820 C1819 1.414 . S
C1820 C1821 1.374 . S
C1821 H1801 0.950 . S
C1821 C1817 1.385 . S
C1821 C1820 1.374 . S
C1822 C1819 1.499 . S
C1822 C1823 1.373 . S
C1822 C1824 1.389 . S
C1823 H1802 0.950 . S
C1823 C1822 1.373 . S
C1823 C1839 1.377 . S
C1824 C1822 1.389 . S
C1824 C1825 1.524 . S
C1824 C1838 1.377 . S
C1825 C1824 1.524 . S
C1825 C1826 1.397 . S
C1825 C1830 1.363 . S
C1826 H1803 0.950 . S
C1826 C1825 1.397 . S
C1826 C1827 1.334 . S
C1827 H1804 0.950 . S
C1827 C1826 1.334 . S
C1827 C1828 1.287 . S
C1828 C1827 1.287 . S
C1828 C1829 1.524 . S
C1828 H1847 0.913 . S
C1829 H1805 0.950 . S
C1829 C1828 1.524 . S
C1829 C1830 1.415 . S
C1830 H1806 0.950 . S
C1830 C1825 1.363 . S
C1830 C1829 1.415 . S
C1831 H1807 0.951 . S
C1831 C1832 1.366 . S
C1831 C1833 1.388 . S
C1832 C1831 1.366 . S
C1832 C1836 1.385 . S
C1833 H1808 0.951 . S
C1833 C1831 1.388 . S
C1833 C1834 1.366 . S
C1834 C1833 1.366 . S
C1834 C1835 1.414 . S
C1834 C1837 1.499 . S
C1835 H1809 0.950 . S
C1835 C1834 1.414 . S
C1835 C1836 1.374 . S
C1836 H1810 0.950 . S
C1836 C1832 1.385 . S
C1836 C1835 1.374 . S
C1837 C1834 1.499 . S
C1837 C1838 1.373 . S
C1837 C1839 1.389 . S
C1838 H1811 0.950 . S
C1838 C1824 1.377 . S
C1838 C1837 1.373 . S
C1839 C1823 1.377 . S
C1839 C1837 1.389 . S
C1839 C1840 1.524 . S
C1840 C1839 1.524 . S
C1840 C1841 1.397 . S
C1840 C1845 1.363 . S
C1841 H1812 0.950 . S
C1841 C1840 1.397 . S
C1841 C1842 1.334 . S
C1842 H1813 0.950 . S
C1842 C1841 1.334 . S
C1842 C1843 1.287 . S
C1843 C1842 1.287 . S
C1843 C1844 1.524 . S
C1843 H1846 0.999 . S
C1844 H1814 0.950 . S
C1844 C1843 1.524 . S
C1844 C1845 1.415 . S
C1845 H1815 0.950 . S
C1845 C1840 1.363 . S
C1845 C1844 1.415 . S
H1846 C1843 0.999 . S
H1847 C1828 0.913 . S
H1848 C1866 0.951 . S
H1849 C1868 0.951 . S
H1850 C1870 0.950 . S
H1851 C1871 0.950 . S
H1852 C1873 0.950 . S
H1853 C1876 0.950 . S
H1854 C1877 0.950 . S
H1855 C1879 0.950 . S
H1856 C1880 0.950 . S
H1857 C1881 0.951 . S
H1858 C1883 0.951 . S
H1859 C1885 0.950 . S
H1860 C1886 0.950 . S
H1861 C1888 0.950 . S
H1862 C1891 0.950 . S
H1863 C1892 0.950 . S
H1864 C1894 0.950 . S
H1865 C1895 0.950 . S
C1866 H1848 0.951 . S
C1866 C1867 1.366 . S
C1866 C1868 1.388 . S
C1867 C1866 1.366 . S
C1867 C1871 1.385 . S
C1868 H1849 0.951 . S
C1868 C1866 1.388 . S
C1868 C1869 1.366 . S
C1869 C1868 1.366 . S
C1869 C1870 1.414 . S
C1869 C1872 1.499 . S
C1870 H1850 0.950 . S
C1870 C1869 1.414 . S
C1870 C1871 1.374 . S
C1871 H1851 0.950 . S
C1871 C1867 1.385 . S
C1871 C1870 1.374 . S
C1872 C1869 1.499 . S
C1872 C1873 1.373 . S
C1872 C1874 1.389 . S
C1873 H1852 0.950 . S
C1873 C1872 1.373 . S
C1873 C1889 1.377 . S
C1874 C1872 1.389 . S
C1874 C1875 1.524 . S
C1874 C1888 1.377 . S
C1875 C1874 1.524 . S
C1875 C1876 1.397 . S
C1875 C1880 1.363 . S
C1876 H1853 0.950 . S
C1876 C1875 1.397 . S
C1876 C1877 1.334 . S
C1877 H1854 0.950 . S
C1877 C1876 1.334 . S
C1877 C1878 1.287 . S
C1878 C1877 1.287 . S
C1878 C1879 1.524 . S
C1878 H1897 0.913 . S
C1879 H1855 0.950 . S
C1879 C1878 1.524 . S
C1879 C1880 1.415 . S
C1880 H1856 0.950 . S
C1880 C1875 1.363 . S
C1880 C1879 1.415 . S
C1881 H1857 0.951 . S
C1881 C1882 1.366 . S
C1881 C1883 1.388 . S
C1882 C1881 1.366 . S
C1882 C1886 1.385 . S
C1883 H1858 0.951 . S
C1883 C1881 1.388 . S
C1883 C1884 1.366 . S
C1884 C1883 1.366 . S
C1884 C1885 1.414 . S
C1884 C1887 1.499 . S
C1885 H1859 0.950 . S
C1885 C1884 1.414 . S
C1885 C1886 1.374 . S
C1886 H1860 0.950 . S
C1886 C1882 1.385 . S
C1886 C1885 1.374 . S
C1887 C1884 1.499 . S
C1887 C1888 1.373 . S
C1887 C1889 1.389 . S
C1888 H1861 0.950 . S
C1888 C1874 1.377 . S
C1888 C1887 1.373 . S
C1889 C1873 1.377 . S
C1889 C1887 1.389 . S
C1889 C1890 1.524 . S
C1890 C1889 1.524 . S
C1890 C1891 1.397 . S
C1890 C1895 1.363 . S
C1891 H1862 0.950 . S
C1891 C1890 1.397 . S
C1891 C1892 1.334 . S
C1892 H1863 0.950 . S
C1892 C1891 1.334 . S
C1892 C1893 1.287 . S
C1893 C1892 1.287 . S
C1893 C1894 1.524 . S
C1893 H1896 0.999 . S
C1894 H1864 0.950 . S
C1894 C1893 1.524 . S
C1894 C1895 1.415 . S
C1895 H1865 0.950 . S
C1895 C1890 1.363 . S
C1895 C1894 1.415 . S
H1896 C1893 0.999 . S
H1897 C1878 0.913 . S
H1898 C1916 0.951 . S
H1899 C1918 0.951 . S
H1900 C1920 0.950 . S
H1901 C1921 0.950 . S
H1902 C1923 0.950 . S
H1903 C1926 0.950 . S
H1904 C1927 0.950 . S
H1905 C1929 0.950 . S
H1906 C1930 0.965 . S
H1907 C1931 0.951 . S
H1908 C1933 0.951 . S
H1909 C1935 0.950 . S
H1910 C1936 0.914 1_655 S
H1911 C1938 0.950 . S
H1912 C1941 0.950 . S
H1913 C1942 0.950 . S
H1914 C1944 0.950 . S
H1915 C1945 0.950 . S
C1916 H1898 0.951 . S
C1916 C1917 1.366 . S
C1916 C1918 1.388 . S
C1917 C1916 1.366 . S
C1917 C1921 1.385 . S
C1918 H1899 0.951 . S
C1918 C1916 1.388 . S
C1918 C1919 1.366 . S
C1919 C1918 1.366 . S
C1919 C1920 1.414 . S
C1919 C1922 1.499 . S
C1920 H1900 0.950 . S
C1920 C1919 1.414 . S
C1920 C1921 1.374 . S
C1921 H1901 0.950 . S
C1921 C1917 1.385 . S
C1921 C1920 1.374 . S
C1922 C1919 1.499 . S
C1922 C1923 1.373 . S
C1922 C1924 1.389 . S
C1923 H1902 0.950 . S
C1923 C1922 1.373 . S
C1923 C1939 1.377 . S
C1924 C1922 1.389 . S
C1924 C1925 1.524 . S
C1924 C1938 1.377 . S
C1925 C1924 1.524 . S
C1925 C1926 1.397 . S
C1925 C1930 1.328 1_455 S
C1926 H1903 0.950 . S
C1926 C1925 1.397 . S
C1926 C1927 1.334 . S
C1927 H1904 0.950 . S
C1927 C1926 1.334 . S
C1927 C1928 1.287 . S
C1928 C1927 1.287 . S
C1928 C1929 1.524 1_455 S
C1928 H1947 0.913 1_455 S
C1929 H1905 0.950 . S
C1929 C1928 1.524 1_655 S
C1929 C1930 1.436 . S
C1930 H1906 0.965 . S
C1930 C1925 1.328 1_655 S
C1930 C1929 1.436 . S
C1931 H1907 0.951 . S
C1931 C1932 1.366 . S
C1931 C1933 1.388 . S
C1932 C1931 1.366 . S
C1932 C1936 1.385 . S
C1933 H1908 0.951 . S
C1933 C1931 1.388 . S
C1933 C1934 1.366 . S
C1934 C1933 1.366 . S
C1934 C1935 1.414 . S
C1934 C1937 1.499 . S
C1935 H1909 0.950 . S
C1935 C1934 1.414 . S
C1935 C1936 1.374 . S
C1936 H1910 0.914 1_455 S
C1936 C1932 1.385 . S
C1936 C1935 1.374 . S
C1937 C1934 1.499 . S
C1937 C1938 1.373 . S
C1937 C1939 1.389 . S
C1938 H1911 0.950 . S
C1938 C1924 1.377 . S
C1938 C1937 1.373 . S
C1939 C1923 1.377 . S
C1939 C1937 1.389 . S
C1939 C1940 1.524 . S
C1940 C1939 1.524 . S
C1940 C1941 1.397 . S
C1940 C1945 1.363 . S
C1941 H1912 0.950 . S
C1941 C1940 1.397 . S
C1941 C1942 1.334 . S
C1942 H1913 0.950 . S
C1942 C1941 1.334 . S
C1942 C1943 1.287 . S
C1943 C1942 1.287 . S
C1943 C1944 1.524 . S
C1943 H1946 0.999 . S
C1944 H1914 0.950 . S
C1944 C1943 1.524 . S
C1944 C1945 1.415 . S
C1945 H1915 0.950 . S
C1945 C1940 1.363 . S
C1945 C1944 1.415 . S
H1946 C1943 0.999 . S
H1947 C1928 0.913 1_655 S
H1948 C1966 0.951 . S
H1949 C1968 0.951 . S
H1950 C1970 0.950 . S
H1951 C1971 0.950 . S
H1952 C1973 0.950 . S
H1953 C1976 0.950 . S
H1954 C1977 0.950 . S
H1955 C1979 0.950 . S
H1956 C1980 0.950 . S
H1957 C1981 0.951 . S
H1958 C1983 0.951 . S
H1959 C1985 0.950 . S
H1960 C1986 0.950 . S
H1961 C1988 0.950 . S
H1962 C1991 0.950 . S
H1963 C1992 0.950 . S
H1964 C1994 0.950 . S
H1965 C1995 0.950 . S
C1966 H1948 0.951 . S
C1966 C1967 1.366 . S
C1966 C1968 1.388 . S
C1967 C1966 1.366 . S
C1967 C1971 1.385 . S
C1968 H1949 0.951 . S
C1968 C1966 1.388 . S
C1968 C1969 1.366 . S
C1969 C1968 1.366 . S
C1969 C1970 1.414 . S
C1969 C1972 1.499 . S
C1970 H1950 0.950 . S
C1970 C1969 1.414 . S
C1970 C1971 1.374 . S
C1971 H1951 0.950 . S
C1971 C1967 1.385 . S
C1971 C1970 1.374 . S
C1972 C1969 1.499 . S
C1972 C1973 1.373 . S
C1972 C1974 1.389 . S
C1973 H1952 0.950 . S
C1973 C1972 1.373 . S
C1973 C1989 1.377 . S
C1974 C1972 1.389 . S
C1974 C1975 1.524 . S
C1974 C1988 1.377 . S
C1975 C1974 1.524 . S
C1975 C1976 1.397 . S
C1975 C1980 1.363 . S
C1976 H1953 0.950 . S
C1976 C1975 1.397 . S
C1976 C1977 1.334 . S
C1977 H1954 0.950 . S
C1977 C1976 1.334 . S
C1977 C1978 1.287 . S
C1978 C1977 1.287 . S
C1978 C1979 1.524 . S
C1978 H1997 0.913 . S
C1979 H1955 0.950 . S
C1979 C1978 1.524 . S
C1979 C1980 1.415 . S
C1980 H1956 0.950 . S
C1980 C1975 1.363 . S
C1980 C1979 1.415 . S
C1981 H1957 0.951 . S
C1981 C1982 1.366 . S
C1981 C1983 1.388 . S
C1982 C1981 1.366 . S
C1982 C1986 1.385 . S
C1983 H1958 0.951 . S
C1983 C1981 1.388 . S
C1983 C1984 1.366 . S
C1984 C1983 1.366 . S
C1984 C1985 1.414 . S
C1984 C1987 1.499 . S
C1985 H1959 0.950 . S
C1985 C1984 1.414 . S
C1985 C1986 1.374 . S
C1986 H1960 0.950 . S
C1986 C1982 1.385 . S
C1986 C1985 1.374 . S
C1987 C1984 1.499 . S
C1987 C1988 1.373 . S
C1987 C1989 1.389 . S
C1988 H1961 0.950 . S
C1988 C1974 1.377 . S
C1988 C1987 1.373 . S
C1989 C1973 1.377 . S
C1989 C1987 1.389 . S
C1989 C1990 1.524 . S
C1990 C1989 1.524 . S
C1990 C1991 1.397 . S
C1990 C1995 1.363 . S
C1991 H1962 0.950 . S
C1991 C1990 1.397 . S
C1991 C1992 1.334 . S
C1992 H1963 0.950 . S
C1992 C1991 1.334 . S
C1992 C1993 1.287 . S
C1993 C1992 1.287 . S
C1993 C1994 1.524 . S
C1993 H1996 0.999 . S
C1994 H1964 0.950 . S
C1994 C1993 1.524 . S
C1994 C1995 1.415 . S
C1995 H1965 0.950 . S
C1995 C1990 1.363 . S
C1995 C1994 1.415 . S
H1996 C1993 0.999 . S
H1997 C1978 0.913 . S
H1998 C2016 0.951 . S
H1999 C2018 0.951 . S
H2000 C2020 0.950 . S
H2001 C2021 0.950 . S
H2002 C2023 0.950 . S
H2003 C2026 0.950 . S
H2004 C2027 0.950 . S
H2005 C2029 0.950 . S
H2006 C2030 0.950 . S
H2007 C2031 0.951 . S
H2008 C2033 0.951 . S
H2009 C2035 0.950 . S
H2010 C2036 0.950 . S
H2011 C2038 0.950 1_455 S
H2012 C2041 0.950 . S
H2013 C2042 0.950 . S
H2014 C2044 0.950 . S
H2015 C2045 0.950 . S
C2016 H1998 0.951 . S
C2016 C2017 1.366 1_455 S
C2016 C2018 1.388 . S
C2017 C2016 1.366 1_655 S
C2017 C2021 1.385 . S
C2018 H1999 0.951 . S
C2018 C2016 1.388 . S
C2018 C2019 1.366 1_455 S
C2019 C2018 1.366 1_655 S
C2019 C2020 1.414 . S
C2019 C2022 1.499 . S
C2020 H2000 0.950 . S
C2020 C2019 1.414 . S
C2020 C2021 1.374 . S
C2021 H2001 0.950 . S
C2021 C2017 1.385 . S
C2021 C2020 1.374 . S
C2022 C2019 1.499 . S
C2022 C2023 1.373 . S
C2022 C2024 1.389 . S
C2023 H2002 0.950 . S
C2023 C2022 1.373 . S
C2023 C2039 1.377 . S
C2024 C2022 1.389 . S
C2024 C2025 1.524 . S
C2024 C2038 1.377 . S
C2025 C2024 1.524 . S
C2025 C2026 1.397 . S
C2025 C2030 1.363 1_655 S
C2026 H2003 0.950 . S
C2026 C2025 1.397 . S
C2026 C2027 1.334 . S
C2027 H2004 0.950 . S
C2027 C2026 1.334 . S
C2027 C2028 1.287 . S
C2028 C2027 1.287 . S
C2028 C2029 1.524 1_655 S
C2028 H2047 0.913 . S
C2029 H2005 0.950 . S
C2029 C2028 1.524 1_455 S
C2029 C2030 1.415 . S
C2030 H2006 0.950 . S
C2030 C2025 1.363 1_455 S
C2030 C2029 1.415 . S
C2031 H2007 0.951 . S
C2031 C2032 1.366 . S
C2031 C2033 1.388 . S
C2032 C2031 1.366 . S
C2032 C2036 1.385 1_655 S
C2033 H2008 0.951 . S
C2033 C2031 1.388 . S
C2033 C2034 1.366 . S
C2034 C2033 1.366 . S
C2034 C2035 1.414 1_655 S
C2034 C2037 1.499 . S
C2035 H2009 0.950 . S
C2035 C2034 1.414 1_455 S
C2035 C2036 1.374 . S
C2036 H2010 0.950 . S
C2036 C2032 1.385 1_455 S
C2036 C2035 1.374 . S
C2037 C2034 1.499 . S
C2037 C2038 1.373 . S
C2037 C2039 1.389 . S
C2038 H2011 0.950 1_655 S
C2038 C2024 1.377 . S
C2038 C2037 1.373 . S
C2039 C2023 1.377 . S
C2039 C2037 1.389 . S
C2039 C2040 1.524 . S
C2040 C2039 1.524 . S
C2040 C2041 1.397 1_655 S
C2040 C2045 1.363 . S
C2041 H2012 0.950 . S
C2041 C2040 1.397 1_455 S
C2041 C2042 1.334 . S
C2042 H2013 0.950 . S
C2042 C2041 1.334 . S
C2042 C2043 1.287 1_455 S
C2043 C2042 1.287 1_655 S
C2043 C2044 1.524 . S
C2043 H2046 0.999 . S
C2044 H2014 0.950 . S
C2044 C2043 1.524 . S
C2044 C2045 1.415 . S
C2045 H2015 0.950 . S
C2045 C2040 1.363 . S
C2045 C2044 1.415 . S
H2046 C2043 0.999 . S
H2047 C2028 0.913 . S
H2048 C2066 0.951 . S
H2049 C2068 0.951 . S
H2050 C2070 0.950 . S
H2051 C2071 0.950 . S
H2052 C2073 0.950 . S
H2053 C2076 0.950 . S
H2054 C2077 0.950 . S
H2055 C2079 0.950 . S
H2056 C2080 0.950 . S
H2057 C2081 0.951 . S
H2058 C2083 0.951 . S
H2059 C2085 0.950 . S
H2060 C2086 0.950 . S
H2061 C2088 0.950 . S
H2062 C2091 0.950 . S
H2063 C2092 0.950 . S
H2064 C2094 0.950 . S
H2065 C2095 0.950 . S
C2066 H2048 0.951 . S
C2066 C2067 1.366 . S
C2066 C2068 1.388 . S
C2067 C2066 1.366 . S
C2067 C2071 1.385 . S
C2068 H2049 0.951 . S
C2068 C2066 1.388 . S
C2068 C2069 1.366 . S
C2069 C2068 1.366 . S
C2069 C2070 1.414 . S
C2069 C2072 1.499 . S
C2070 H2050 0.950 . S
C2070 C2069 1.414 . S
C2070 C2071 1.374 . S
C2071 H2051 0.950 . S
C2071 C2067 1.385 . S
C2071 C2070 1.374 . S
C2072 C2069 1.499 . S
C2072 C2073 1.373 . S
C2072 C2074 1.389 . S
C2073 H2052 0.950 . S
C2073 C2072 1.373 . S
C2073 C2089 1.377 . S
C2074 C2072 1.389 . S
C2074 C2075 1.524 . S
C2074 C2088 1.377 . S
C2075 C2074 1.524 . S
C2075 C2076 1.397 . S
C2075 C2080 1.363 . S
C2076 H2053 0.950 . S
C2076 C2075 1.397 . S
C2076 C2077 1.334 . S
C2077 H2054 0.950 . S
C2077 C2076 1.334 . S
C2077 C2078 1.287 . S
C2078 C2077 1.287 . S
C2078 C2079 1.524 . S
C2078 H2097 0.913 . S
C2079 H2055 0.950 . S
C2079 C2078 1.524 . S
C2079 C2080 1.415 . S
C2080 H2056 0.950 . S
C2080 C2075 1.363 . S
C2080 C2079 1.415 . S
C2081 H2057 0.951 . S
C2081 C2082 1.366 . S
C2081 C2083 1.388 . S
C2082 C2081 1.366 . S
C2082 C2086 1.385 . S
C2083 H2058 0.951 . S
C2083 C2081 1.388 . S
C2083 C2084 1.366 . S
C2084 C2083 1.366 . S
C2084 C2085 1.414 . S
C2084 C2087 1.499 . S
C2085 H2059 0.950 . S
C2085 C2084 1.414 . S
C2085 C2086 1.374 . S
C2086 H2060 0.950 . S
C2086 C2082 1.385 . S
C2086 C2085 1.374 . S
C2087 C2084 1.499 . S
C2087 C2088 1.373 . S
C2087 C2089 1.389 . S
C2088 H2061 0.950 . S
C2088 C2074 1.377 . S
C2088 C2087 1.373 . S
C2089 C2073 1.377 . S
C2089 C2087 1.389 . S
C2089 C2090 1.524 . S
C2090 C2089 1.524 . S
C2090 C2091 1.397 . S
C2090 C2095 1.363 . S
C2091 H2062 0.950 . S
C2091 C2090 1.397 . S
C2091 C2092 1.334 . S
C2092 H2063 0.950 . S
C2092 C2091 1.334 . S
C2092 C2093 1.287 . S
C2093 C2092 1.287 . S
C2093 C2094 1.524 . S
C2093 H2096 0.999 . S
C2094 H2064 0.950 . S
C2094 C2093 1.524 . S
C2094 C2095 1.415 . S
C2095 H2065 0.950 . S
C2095 C2090 1.363 . S
C2095 C2094 1.415 . S
H2096 C2093 0.999 . S
H2097 C2078 0.913 . S
H2098 C2116 0.951 . S
H2099 C2118 0.951 . S
H2100 C2120 0.950 . S
H2101 C2121 0.950 . S
H2102 C2123 0.950 . S
H2103 C2126 0.950 . S
H2104 C2127 0.950 . S
H2105 C2129 0.950 . S
H2106 C2130 0.950 . S
H2107 C2131 0.951 . S
H2108 C2133 0.951 . S
H2109 C2135 0.950 . S
H2110 C2136 0.950 . S
H2111 C2138 0.950 . S
H2112 C2141 0.950 . S
H2113 C2142 0.950 . S
H2114 C2144 0.950 . S
H2115 C2145 0.950 . S
C2116 H2098 0.951 . S
C2116 C2117 1.366 . S
C2116 C2118 1.388 . S
C2117 C2116 1.366 . S
C2117 C2121 1.385 . S
C2118 H2099 0.951 . S
C2118 C2116 1.388 . S
C2118 C2119 1.366 . S
C2119 C2118 1.366 . S
C2119 C2120 1.414 . S
C2119 C2122 1.499 . S
C2120 H2100 0.950 . S
C2120 C2119 1.414 . S
C2120 C2121 1.374 . S
C2121 H2101 0.950 . S
C2121 C2117 1.385 . S
C2121 C2120 1.374 . S
C2122 C2119 1.499 . S
C2122 C2123 1.373 . S
C2122 C2124 1.389 . S
C2123 H2102 0.950 . S
C2123 C2122 1.373 . S
C2123 C2139 1.377 . S
C2124 C2122 1.389 . S
C2124 C2125 1.524 . S
C2124 C2138 1.377 . S
C2125 C2124 1.524 . S
C2125 C2126 1.397 . S
C2125 C2130 1.363 . S
C2126 H2103 0.950 . S
C2126 C2125 1.397 . S
C2126 C2127 1.334 . S
C2127 H2104 0.950 . S
C2127 C2126 1.334 . S
C2127 C2128 1.287 . S
C2128 C2127 1.287 . S
C2128 C2129 1.524 . S
C2128 H2147 0.913 . S
C2129 H2105 0.950 . S
C2129 C2128 1.524 . S
C2129 C2130 1.415 . S
C2130 H2106 0.950 . S
C2130 C2125 1.363 . S
C2130 C2129 1.415 . S
C2131 H2107 0.951 . S
C2131 C2132 1.366 . S
C2131 C2133 1.388 . S
C2132 C2131 1.366 . S
C2132 C2136 1.385 . S
C2133 H2108 0.951 . S
C2133 C2131 1.388 . S
C2133 C2134 1.366 . S
C2134 C2133 1.366 . S
C2134 C2135 1.414 . S
C2134 C2137 1.499 . S
C2135 H2109 0.950 . S
C2135 C2134 1.414 . S
C2135 C2136 1.374 . S
C2136 H2110 0.950 . S
C2136 C2132 1.385 . S
C2136 C2135 1.374 . S
C2137 C2134 1.499 . S
C2137 C2138 1.373 . S
C2137 C2139 1.389 . S
C2138 H2111 0.950 . S
C2138 C2124 1.377 . S
C2138 C2137 1.373 . S
C2139 C2123 1.377 . S
C2139 C2137 1.389 . S
C2139 C2140 1.524 . S
C2140 C2139 1.524 . S
C2140 C2141 1.397 . S
C2140 C2145 1.363 . S
C2141 H2112 0.950 . S
C2141 C2140 1.397 . S
C2141 C2142 1.334 . S
C2142 H2113 0.950 . S
C2142 C2141 1.334 . S
C2142 C2143 1.287 . S
C2143 C2142 1.287 . S
C2143 C2144 1.524 . S
C2143 H2146 0.999 . S
C2144 H2114 0.950 . S
C2144 C2143 1.524 . S
C2144 C2145 1.415 . S
C2145 H2115 0.950 . S
C2145 C2140 1.363 . S
C2145 C2144 1.415 . S
H2146 C2143 0.999 . S
H2147 C2128 0.913 . S
H2148 C2166 0.951 . S
H2149 C2168 0.951 . S
H2150 C2170 0.950 . S
H2151 C2171 0.950 . S
H2152 C2173 0.956 1_545 S
H2153 C2176 0.950 . S
H2154 C2177 0.950 . S
H2155 C2179 0.950 . S
H2156 C2180 0.950 . S
H2157 C2181 0.951 . S
H2158 C2183 0.951 . S
H2159 C2185 0.950 . S
H2160 C2186 0.950 . S
H2161 C2188 0.950 . S
H2162 C2191 0.950 . S
H2163 C2192 0.950 . S
H2164 C2194 0.950 . S
H2165 C2195 0.950 . S
C2166 H2148 0.951 . S
C2166 C2167 1.366 1_565 S
C2166 C2168 1.388 . S
C2167 C2166 1.366 1_545 S
C2167 C2171 1.385 . S
C2168 H2149 0.951 . S
C2168 C2166 1.388 . S
C2168 C2169 1.366 . S
C2169 C2168 1.366 . S
C2169 C2170 1.414 1_565 S
C2169 C2172 1.499 . S
C2170 H2150 0.950 . S
C2170 C2169 1.414 1_545 S
C2170 C2171 1.374 . S
C2171 H2151 0.950 . S
C2171 C2167 1.385 . S
C2171 C2170 1.374 . S
C2172 C2169 1.499 . S
C2172 C2173 1.373 . S
C2172 C2174 1.389 . S
C2173 H2152 0.956 1_565 S
C2173 C2172 1.373 . S
C2173 C2189 1.377 . S
C2174 C2172 1.389 . S
C2174 C2175 1.524 . S
C2174 C2188 1.377 . S
C2175 C2174 1.524 . S
C2175 C2176 1.397 . S
C2175 C2180 1.363 . S
C2176 H2153 0.950 . S
C2176 C2175 1.397 . S
C2176 C2177 1.334 . S
C2177 H2154 0.950 . S
C2177 C2176 1.334 . S
C2177 C2178 1.287 . S
C2178 C2177 1.287 . S
C2178 C2179 1.524 . S
C2178 H2197 0.913 . S
C2179 H2155 0.950 . S
C2179 C2178 1.524 . S
C2179 C2180 1.415 . S
C2180 H2156 0.950 . S
C2180 C2175 1.363 . S
C2180 C2179 1.415 . S
C2181 H2157 0.951 . S
C2181 C2182 1.366 1_556 S
C2181 C2183 1.388 . S
C2182 C2181 1.366 1_554 S
C2182 C2186 1.385 . S
C2183 H2158 0.951 . S
C2183 C2181 1.388 . S
C2183 C2184 1.366 . S
C2184 C2183 1.366 . S
C2184 C2185 1.414 1_556 S
C2184 C2187 1.499 . S
C2185 H2159 0.950 . S
C2185 C2184 1.414 1_554 S
C2185 C2186 1.374 . S
C2186 H2160 0.950 . S
C2186 C2182 1.385 . S
C2186 C2185 1.374 . S
C2187 C2184 1.499 . S
C2187 C2188 1.373 . S
C2187 C2189 1.389 . S
C2188 H2161 0.950 . S
C2188 C2174 1.377 . S
C2188 C2187 1.373 . S
C2189 C2173 1.377 . S
C2189 C2187 1.389 . S
C2189 C2190 1.524 . S
C2190 C2189 1.524 . S
C2190 C2191 1.397 1_556 S
C2190 C2195 1.363 1_565 S
C2191 H2162 0.950 . S
C2191 C2190 1.397 1_554 S
C2191 C2192 1.334 . S
C2192 H2163 0.950 . S
C2192 C2191 1.334 . S
C2192 C2193 1.287 1_565 S
C2193 C2192 1.287 1_545 S
C2193 C2194 1.524 1_554 S
C2193 H2196 0.999 . S
C2194 H2164 0.950 . S
C2194 C2193 1.524 1_556 S
C2194 C2195 1.415 . S
C2195 H2165 0.950 . S
C2195 C2190 1.363 1_545 S
C2195 C2194 1.415 . S
H2196 C2193 0.999 . S
H2197 C2178 0.913 . S
H2198 C2216 0.951 . S
H2199 C2218 0.951 . S
H2200 C2220 0.950 . S
H2201 C2221 0.950 . S
H2202 C2223 0.950 . S
H2203 C2226 0.950 . S
H2204 C2227 0.950 . S
H2205 C2229 0.950 . S
H2206 C2230 0.950 . S
H2207 C2231 0.951 . S
H2208 C2233 0.951 . S
H2209 C2235 0.950 . S
H2210 C2236 0.950 . S
H2211 C2238 0.950 . S
H2212 C2241 0.950 . S
H2213 C2242 0.950 . S
H2214 C2244 0.950 . S
H2215 C2245 0.950 . S
C2216 H2198 0.951 . S
C2216 C2217 1.366 . S
C2216 C2218 1.388 . S
C2217 C2216 1.366 . S
C2217 C2221 1.385 . S
C2218 H2199 0.951 . S
C2218 C2216 1.388 . S
C2218 C2219 1.366 . S
C2219 C2218 1.366 . S
C2219 C2220 1.414 . S
C2219 C2222 1.499 . S
C2220 H2200 0.950 . S
C2220 C2219 1.414 . S
C2220 C2221 1.374 . S
C2221 H2201 0.950 . S
C2221 C2217 1.385 . S
C2221 C2220 1.374 . S
C2222 C2219 1.499 . S
C2222 C2223 1.373 . S
C2222 C2224 1.389 . S
C2223 H2202 0.950 . S
C2223 C2222 1.373 . S
C2223 C2239 1.377 . S
C2224 C2222 1.389 . S
C2224 C2225 1.524 . S
C2224 C2238 1.377 . S
C2225 C2224 1.524 . S
C2225 C2226 1.397 . S
C2225 C2230 1.363 . S
C2226 H2203 0.950 . S
C2226 C2225 1.397 . S
C2226 C2227 1.334 . S
C2227 H2204 0.950 . S
C2227 C2226 1.334 . S
C2227 C2228 1.287 . S
C2228 C2227 1.287 . S
C2228 C2229 1.524 . S
C2228 H2247 0.913 . S
C2229 H2205 0.950 . S
C2229 C2228 1.524 . S
C2229 C2230 1.415 . S
C2230 H2206 0.950 . S
C2230 C2225 1.363 . S
C2230 C2229 1.415 . S
C2231 H2207 0.951 . S
C2231 C2232 1.366 . S
C2231 C2233 1.388 . S
C2232 C2231 1.366 . S
C2232 C2236 1.385 . S
C2233 H2208 0.951 . S
C2233 C2231 1.388 . S
C2233 C2234 1.366 . S
C2234 C2233 1.366 . S
C2234 C2235 1.414 . S
C2234 C2237 1.499 . S
C2235 H2209 0.950 . S
C2235 C2234 1.414 . S
C2235 C2236 1.374 . S
C2236 H2210 0.950 . S
C2236 C2232 1.385 . S
C2236 C2235 1.374 . S
C2237 C2234 1.499 . S
C2237 C2238 1.373 . S
C2237 C2239 1.389 . S
C2238 H2211 0.950 . S
C2238 C2224 1.377 . S
C2238 C2237 1.373 . S
C2239 C2223 1.377 . S
C2239 C2237 1.389 . S
C2239 C2240 1.524 . S
C2240 C2239 1.524 . S
C2240 C2241 1.397 . S
C2240 C2245 1.363 . S
C2241 H2212 0.950 . S
C2241 C2240 1.397 . S
C2241 C2242 1.334 . S
C2242 H2213 0.950 . S
C2242 C2241 1.334 . S
C2242 C2243 1.287 . S
C2243 C2242 1.287 . S
C2243 C2244 1.524 . S
C2243 H2246 0.999 . S
C2244 H2214 0.950 . S
C2244 C2243 1.524 . S
C2244 C2245 1.415 . S
C2245 H2215 0.950 . S
C2245 C2240 1.363 . S
C2245 C2244 1.415 . S
H2246 C2243 0.999 . S
H2247 C2228 0.913 . S
H2248 C2266 0.951 1_565 S
H2249 C2268 0.951 . S
H2250 C2270 0.950 . S
H2251 C2271 0.950 . S
H2252 C2273 0.950 . S
H2253 C2276 0.950 . S
H2254 C2277 0.950 . S
H2255 C2279 0.950 . S
H2256 C2280 0.950 . S
H2257 C2281 0.951 . S
H2258 C2283 0.951 . S
H2259 C2285 0.950 . S
H2260 C2286 0.950 . S
H2261 C2288 0.950 . S
H2262 C2291 0.950 . S
H2263 C2292 0.950 . S
H2264 C2294 0.950 . S
H2265 C2295 0.950 . S
C2266 H2248 0.951 1_545 S
C2266 C2267 1.366 . S
C2266 C2268 1.388 . S
C2267 C2266 1.366 . S
C2267 C2271 1.385 . S
C2268 H2249 0.951 . S
C2268 C2266 1.388 . S
C2268 C2269 1.366 . S
C2269 C2268 1.366 . S
C2269 C2270 1.414 . S
C2269 C2272 1.499 . S
C2270 H2250 0.950 . S
C2270 C2269 1.414 . S
C2270 C2271 1.374 . S
C2271 H2251 0.950 . S
C2271 C2267 1.385 . S
C2271 C2270 1.374 . S
C2272 C2269 1.499 . S
C2272 C2273 1.373 . S
C2272 C2274 1.389 . S
C2273 H2252 0.950 . S
C2273 C2272 1.373 . S
C2273 C2289 1.377 . S
C2274 C2272 1.389 . S
C2274 C2275 1.524 . S
C2274 C2288 1.377 . S
C2275 C2274 1.524 . S
C2275 C2276 1.397 . S
C2275 C2280 1.363 . S
C2276 H2253 0.950 . S
C2276 C2275 1.397 . S
C2276 C2277 1.334 . S
C2277 H2254 0.950 . S
C2277 C2276 1.334 . S
C2277 C2278 1.287 . S
C2278 C2277 1.287 . S
C2278 C2279 1.524 . S
C2278 H2297 0.913 . S
C2279 H2255 0.950 . S
C2279 C2278 1.524 . S
C2279 C2280 1.415 . S
C2280 H2256 0.950 . S
C2280 C2275 1.363 . S
C2280 C2279 1.415 . S
C2281 H2257 0.951 . S
C2281 C2282 1.366 . S
C2281 C2283 1.388 . S
C2282 C2281 1.366 . S
C2282 C2286 1.385 . S
C2283 H2258 0.951 . S
C2283 C2281 1.388 . S
C2283 C2284 1.366 . S
C2284 C2283 1.366 . S
C2284 C2285 1.414 . S
C2284 C2287 1.499 . S
C2285 H2259 0.950 . S
C2285 C2284 1.414 . S
C2285 C2286 1.374 . S
C2286 H2260 0.950 . S
C2286 C2282 1.385 . S
C2286 C2285 1.374 . S
C2287 C2284 1.499 . S
C2287 C2288 1.373 . S
C2287 C2289 1.389 . S
C2288 H2261 0.950 . S
C2288 C2274 1.377 . S
C2288 C2287 1.373 . S
C2289 C2273 1.377 . S
C2289 C2287 1.389 . S
C2289 C2290 1.524 . S
C2290 C2289 1.524 . S
C2290 C2291 1.397 . S
C2290 C2295 1.363 . S
C2291 H2262 0.950 . S
C2291 C2290 1.397 . S
C2291 C2292 1.334 . S
C2292 H2263 0.950 . S
C2292 C2291 1.334 . S
C2292 C2293 1.287 . S
C2293 C2292 1.287 . S
C2293 C2294 1.524 . S
C2293 H2296 0.999 . S
C2294 H2264 0.950 . S
C2294 C2293 1.524 . S
C2294 C2295 1.415 . S
C2295 H2265 0.950 . S
C2295 C2290 1.363 . S
C2295 C2294 1.415 . S
H2296 C2293 0.999 . S
H2297 C2278 0.913 . S
H2298 C2316 0.951 . S
H2299 C2318 0.951 . S
H2300 C2320 0.950 . S
H2301 C2321 0.950 . S
H2302 C2323 0.950 . S
H2303 C2326 0.950 . S
H2304 C2327 0.950 . S
H2305 C2329 0.950 . S
H2306 C2330 0.950 . S
H2307 C2331 0.951 . S
H2308 C2333 0.951 . S
H2309 C2335 0.950 . S
H2310 C2336 0.950 . S
H2311 C2338 0.950 . S
H2312 C2341 0.950 . S
H2313 C2342 0.950 . S
H2314 C2344 0.950 . S
H2315 C2345 0.950 . S
C2316 H2298 0.951 . S
C2316 C2317 1.366 . S
C2316 C2318 1.388 . S
C2317 C2316 1.366 . S
C2317 C2321 1.385 . S
C2318 H2299 0.951 . S
C2318 C2316 1.388 . S
C2318 C2319 1.366 . S
C2319 C2318 1.366 . S
C2319 C2320 1.414 . S
C2319 C2322 1.499 . S
C2320 H2300 0.950 . S
C2320 C2319 1.414 . S
C2320 C2321 1.374 . S
C2321 H2301 0.950 . S
C2321 C2317 1.385 . S
C2321 C2320 1.374 . S
C2322 C2319 1.499 . S
C2322 C2323 1.373 . S
C2322 C2324 1.389 . S
C2323 H2302 0.950 . S
C2323 C2322 1.373 . S
C2323 C2339 1.377 . S
C2324 C2322 1.389 . S
C2324 C2325 1.524 . S
C2324 C2338 1.377 . S
C2325 C2324 1.524 . S
C2325 C2326 1.397 . S
C2325 C2330 1.363 . S
C2326 H2303 0.950 . S
C2326 C2325 1.397 . S
C2326 C2327 1.334 . S
C2327 H2304 0.950 . S
C2327 C2326 1.334 . S
C2327 C2328 1.287 . S
C2328 C2327 1.287 . S
C2328 C2329 1.524 . S
C2328 H2347 0.913 . S
C2329 H2305 0.950 . S
C2329 C2328 1.524 . S
C2329 C2330 1.415 . S
C2330 H2306 0.950 . S
C2330 C2325 1.363 . S
C2330 C2329 1.415 . S
C2331 H2307 0.951 . S
C2331 C2332 1.366 . S
C2331 C2333 1.388 . S
C2332 C2331 1.366 . S
C2332 C2336 1.385 . S
C2333 H2308 0.951 . S
C2333 C2331 1.388 . S
C2333 C2334 1.366 . S
C2334 C2333 1.366 . S
C2334 C2335 1.414 . S
C2334 C2337 1.499 . S
C2335 H2309 0.950 . S
C2335 C2334 1.414 . S
C2335 C2336 1.374 . S
C2336 H2310 0.950 . S
C2336 C2332 1.385 . S
C2336 C2335 1.374 . S
C2337 C2334 1.499 . S
C2337 C2338 1.373 . S
C2337 C2339 1.389 . S
C2338 H2311 0.950 . S
C2338 C2324 1.377 . S
C2338 C2337 1.373 . S
C2339 C2323 1.377 . S
C2339 C2337 1.389 . S
C2339 C2340 1.524 . S
C2340 C2339 1.524 . S
C2340 C2341 1.397 . S
C2340 C2345 1.363 . S
C2341 H2312 0.950 . S
C2341 C2340 1.397 . S
C2341 C2342 1.334 . S
C2342 H2313 0.950 . S
C2342 C2341 1.334 . S
C2342 C2343 1.287 . S
C2343 C2342 1.287 . S
C2343 C2344 1.524 . S
C2343 H2346 0.999 . S
C2344 H2314 0.950 . S
C2344 C2343 1.524 . S
C2344 C2345 1.415 . S
C2345 H2315 0.950 . S
C2345 C2340 1.363 . S
C2345 C2344 1.415 . S
H2346 C2343 0.999 . S
H2347 C2328 0.913 . S
H2348 C2366 0.951 1_565 S
H2349 C2368 0.951 . S
H2350 C2370 0.950 . S
H2351 C2371 0.950 . S
H2352 C2373 0.950 . S
H2353 C2376 0.950 . S
H2354 C2377 0.950 . S
H2355 C2379 0.950 . S
H2356 C2380 0.950 . S
H2357 C2381 0.951 . S
H2358 C2383 0.951 . S
H2359 C2385 0.950 . S
H2360 C2386 0.950 . S
H2361 C2388 0.950 . S
H2362 C2391 0.950 . S
H2363 C2392 0.950 . S
H2364 C2394 0.950 . S
H2365 C2395 0.950 . S
C2366 H2348 0.951 1_545 S
C2366 C2367 1.366 . S
C2366 C2368 1.388 . S
C2367 C2366 1.366 . S
C2367 C2371 1.385 . S
C2368 H2349 0.951 . S
C2368 C2366 1.388 . S
C2368 C2369 1.366 . S
C2369 C2368 1.366 . S
C2369 C2370 1.414 . S
C2369 C2372 1.499 . S
C2370 H2350 0.950 . S
C2370 C2369 1.414 . S
C2370 C2371 1.374 . S
C2371 H2351 0.950 . S
C2371 C2367 1.385 . S
C2371 C2370 1.374 . S
C2372 C2369 1.499 . S
C2372 C2373 1.373 . S
C2372 C2374 1.389 . S
C2373 H2352 0.950 . S
C2373 C2372 1.373 . S
C2373 C2389 1.377 . S
C2374 C2372 1.389 . S
C2374 C2375 1.524 . S
C2374 C2388 1.377 . S
C2375 C2374 1.524 . S
C2375 C2376 1.397 . S
C2375 C2380 1.363 . S
C2376 H2353 0.950 . S
C2376 C2375 1.397 . S
C2376 C2377 1.334 . S
C2377 H2354 0.950 . S
C2377 C2376 1.334 . S
C2377 C2378 1.287 . S
C2378 C2377 1.287 . S
C2378 C2379 1.524 . S
C2378 H2397 0.913 . S
C2379 H2355 0.950 . S
C2379 C2378 1.524 . S
C2379 C2380 1.415 . S
C2380 H2356 0.950 . S
C2380 C2375 1.363 . S
C2380 C2379 1.415 . S
C2381 H2357 0.951 . S
C2381 C2382 1.366 . S
C2381 C2383 1.388 . S
C2382 C2381 1.366 . S
C2382 C2386 1.385 . S
C2383 H2358 0.951 . S
C2383 C2381 1.388 . S
C2383 C2384 1.366 . S
C2384 C2383 1.366 . S
C2384 C2385 1.414 . S
C2384 C2387 1.499 . S
C2385 H2359 0.950 . S
C2385 C2384 1.414 . S
C2385 C2386 1.374 . S
C2386 H2360 0.950 . S
C2386 C2382 1.385 . S
C2386 C2385 1.374 . S
C2387 C2384 1.499 . S
C2387 C2388 1.373 . S
C2387 C2389 1.389 . S
C2388 H2361 0.950 . S
C2388 C2374 1.377 . S
C2388 C2387 1.373 . S
C2389 C2373 1.377 . S
C2389 C2387 1.389 . S
C2389 C2390 1.524 . S
C2390 C2389 1.524 . S
C2390 C2391 1.397 . S
C2390 C2395 1.363 . S
C2391 H2362 0.950 . S
C2391 C2390 1.397 . S
C2391 C2392 1.334 . S
C2392 H2363 0.950 . S
C2392 C2391 1.334 . S
C2392 C2393 1.287 . S
C2393 C2392 1.287 . S
C2393 C2394 1.524 . S
C2393 H2396 0.999 . S
C2394 H2364 0.950 . S
C2394 C2393 1.524 . S
C2394 C2395 1.415 . S
C2395 H2365 0.950 . S
C2395 C2390 1.363 . S
C2395 C2394 1.415 . S
H2396 C2393 0.999 . S
H2397 C2378 0.913 . S
H2398 C2416 0.951 . S
H2399 C2418 0.951 . S
H2400 C2420 0.950 . S
H2401 C2421 0.950 . S
H2402 C2423 0.950 . S
H2403 C2426 0.950 . S
H2404 C2427 0.950 . S
H2405 C2429 0.950 . S
H2406 C2430 0.950 . S
H2407 C2431 0.951 . S
H2408 C2433 0.951 . S
H2409 C2435 0.950 . S
H2410 C2436 0.950 . S
H2411 C2438 0.950 . S
H2412 C2441 0.950 . S
H2413 C2442 0.950 . S
H2414 C2444 0.950 . S
H2415 C2445 0.950 . S
C2416 H2398 0.951 . S
C2416 C2417 1.366 . S
C2416 C2418 1.388 . S
C2417 C2416 1.366 . S
C2417 C2421 1.385 . S
C2418 H2399 0.951 . S
C2418 C2416 1.388 . S
C2418 C2419 1.366 . S
C2419 C2418 1.366 . S
C2419 C2420 1.414 . S
C2419 C2422 1.499 . S
C2420 H2400 0.950 . S
C2420 C2419 1.414 . S
C2420 C2421 1.374 . S
C2421 H2401 0.950 . S
C2421 C2417 1.385 . S
C2421 C2420 1.374 . S
C2422 C2419 1.499 . S
C2422 C2423 1.373 . S
C2422 C2424 1.389 . S
C2423 H2402 0.950 . S
C2423 C2422 1.373 . S
C2423 C2439 1.377 . S
C2424 C2422 1.389 . S
C2424 C2425 1.524 . S
C2424 C2438 1.377 . S
C2425 C2424 1.524 . S
C2425 C2426 1.397 . S
C2425 C2430 1.363 . S
C2426 H2403 0.950 . S
C2426 C2425 1.397 . S
C2426 C2427 1.334 . S
C2427 H2404 0.950 . S
C2427 C2426 1.334 . S
C2427 C2428 1.287 . S
C2428 C2427 1.287 . S
C2428 C2429 1.524 . S
C2428 H2447 0.913 . S
C2429 H2405 0.950 . S
C2429 C2428 1.524 . S
C2429 C2430 1.415 . S
C2430 H2406 0.950 . S
C2430 C2425 1.363 . S
C2430 C2429 1.415 . S
C2431 H2407 0.951 . S
C2431 C2432 1.366 . S
C2431 C2433 1.388 . S
C2432 C2431 1.366 . S
C2432 C2436 1.385 . S
C2433 H2408 0.951 . S
C2433 C2431 1.388 . S
C2433 C2434 1.366 . S
C2434 C2433 1.366 . S
C2434 C2435 1.414 . S
C2434 C2437 1.499 . S
C2435 H2409 0.950 . S
C2435 C2434 1.414 . S
C2435 C2436 1.374 . S
C2436 H2410 0.950 . S
C2436 C2432 1.385 . S
C2436 C2435 1.374 . S
C2437 C2434 1.499 . S
C2437 C2438 1.373 . S
C2437 C2439 1.389 . S
C2438 H2411 0.950 . S
C2438 C2424 1.377 . S
C2438 C2437 1.373 . S
C2439 C2423 1.377 . S
C2439 C2437 1.389 . S
C2439 C2440 1.524 . S
C2440 C2439 1.524 . S
C2440 C2441 1.397 . S
C2440 C2445 1.363 . S
C2441 H2412 0.950 . S
C2441 C2440 1.397 . S
C2441 C2442 1.334 . S
C2442 H2413 0.950 . S
C2442 C2441 1.334 . S
C2442 C2443 1.287 . S
C2443 C2442 1.287 . S
C2443 C2444 1.524 . S
C2443 H2446 0.999 . S
C2444 H2414 0.950 . S
C2444 C2443 1.524 . S
C2444 C2445 1.415 . S
C2445 H2415 0.950 . S
C2445 C2440 1.363 . S
C2445 C2444 1.415 . S
H2446 C2443 0.999 . S
H2447 C2428 0.913 . S
H2448 C2466 0.951 . S
H2449 C2468 0.951 . S
H2450 C2470 0.950 . S
H2451 C2471 0.950 . S
H2452 C2473 0.950 . S
H2453 C2476 0.950 . S
H2454 C2477 0.950 . S
H2455 C2479 0.950 . S
H2456 C2480 0.950 . S
H2457 C2481 0.951 . S
H2458 C2483 0.951 . S
H2459 C2485 0.950 . S
H2460 C2486 0.950 . S
H2461 C2488 0.950 . S
H2462 C2491 0.950 . S
H2463 C2492 0.950 . S
H2464 C2494 0.950 . S
H2465 C2495 0.950 . S
C2466 H2448 0.951 . S
C2466 C2467 1.366 . S
C2466 C2468 1.388 . S
C2467 C2466 1.366 . S
C2467 C2471 1.385 . S
C2468 H2449 0.951 . S
C2468 C2466 1.388 . S
C2468 C2469 1.366 . S
C2469 C2468 1.366 . S
C2469 C2470 1.414 . S
C2469 C2472 1.499 . S
C2470 H2450 0.950 . S
C2470 C2469 1.414 . S
C2470 C2471 1.374 . S
C2471 H2451 0.950 . S
C2471 C2467 1.385 . S
C2471 C2470 1.374 . S
C2472 C2469 1.499 . S
C2472 C2473 1.373 . S
C2472 C2474 1.389 . S
C2473 H2452 0.950 . S
C2473 C2472 1.373 . S
C2473 C2489 1.377 . S
C2474 C2472 1.389 . S
C2474 C2475 1.524 . S
C2474 C2488 1.377 . S
C2475 C2474 1.524 . S
C2475 C2476 1.397 . S
C2475 C2480 1.363 . S
C2476 H2453 0.950 . S
C2476 C2475 1.397 . S
C2476 C2477 1.334 . S
C2477 H2454 0.950 . S
C2477 C2476 1.334 . S
C2477 C2478 1.287 . S
C2478 C2477 1.287 . S
C2478 C2479 1.524 . S
C2478 H2497 0.913 . S
C2479 H2455 0.950 . S
C2479 C2478 1.524 . S
C2479 C2480 1.415 . S
C2480 H2456 0.950 . S
C2480 C2475 1.363 . S
C2480 C2479 1.415 . S
C2481 H2457 0.951 . S
C2481 C2482 1.366 . S
C2481 C2483 1.388 . S
C2482 C2481 1.366 . S
C2482 C2486 1.385 . S
C2483 H2458 0.951 . S
C2483 C2481 1.388 . S
C2483 C2484 1.366 . S
C2484 C2483 1.366 . S
C2484 C2485 1.414 . S
C2484 C2487 1.499 . S
C2485 H2459 0.950 . S
C2485 C2484 1.414 . S
C2485 C2486 1.374 . S
C2486 H2460 0.950 . S
C2486 C2482 1.385 . S
C2486 C2485 1.374 . S
C2487 C2484 1.499 . S
C2487 C2488 1.373 . S
C2487 C2489 1.389 . S
C2488 H2461 0.950 . S
C2488 C2474 1.377 . S
C2488 C2487 1.373 . S
C2489 C2473 1.377 . S
C2489 C2487 1.389 . S
C2489 C2490 1.524 . S
C2490 C2489 1.524 . S
C2490 C2491 1.397 . S
C2490 C2495 1.363 . S
C2491 H2462 0.950 . S
C2491 C2490 1.397 . S
C2491 C2492 1.334 . S
C2492 H2463 0.950 . S
C2492 C2491 1.334 . S
C2492 C2493 1.287 . S
C2493 C2492 1.287 . S
C2493 C2494 1.524 . S
C2493 H2496 0.999 . S
C2494 H2464 0.950 . S
C2494 C2493 1.524 . S
C2494 C2495 1.415 . S
C2495 H2465 0.950 . S
C2495 C2490 1.363 . S
C2495 C2494 1.415 . S
H2496 C2493 0.999 . S
H2497 C2478 0.913 . S
H2498 C2516 0.951 . S
H2499 C2518 0.951 . S
H2500 C2520 0.950 . S
H2501 C2521 0.950 . S
H2502 C2523 0.950 . S
H2503 C2526 0.950 . S
H2504 C2527 0.950 . S
H2505 C2529 0.950 . S
H2506 C2530 0.950 . S
H2507 C2531 0.951 . S
H2508 C2533 0.951 . S
H2509 C2535 0.950 1_565 S
H2510 C2536 0.912 1_565 S
H2511 C2538 0.950 . S
H2512 C2541 0.950 . S
H2513 C2542 0.950 . S
H2514 C2544 0.950 . S
H2515 C2545 0.950 . S
C2516 H2498 0.951 . S
C2516 C2517 1.366 . S
C2516 C2518 1.388 . S
C2517 C2516 1.366 . S
C2517 C2521 1.385 . S
C2518 H2499 0.951 . S
C2518 C2516 1.388 . S
C2518 C2519 1.366 . S
C2519 C2518 1.366 . S
C2519 C2520 1.414 . S
C2519 C2522 1.499 . S
C2520 H2500 0.950 . S
C2520 C2519 1.414 . S
C2520 C2521 1.374 . S
C2521 H2501 0.950 . S
C2521 C2517 1.385 . S
C2521 C2520 1.374 . S
C2522 C2519 1.499 . S
C2522 C2523 1.373 . S
C2522 C2524 1.389 . S
C2523 H2502 0.950 . S
C2523 C2522 1.373 . S
C2523 C2539 1.377 . S
C2524 C2522 1.389 . S
C2524 C2525 1.524 . S
C2524 C2538 1.377 . S
C2525 C2524 1.524 . S
C2525 C2526 1.397 . S
C2525 C2530 1.363 . S
C2526 H2503 0.950 . S
C2526 C2525 1.397 . S
C2526 C2527 1.334 . S
C2527 H2504 0.950 . S
C2527 C2526 1.334 . S
C2527 C2528 1.287 . S
C2528 C2527 1.287 . S
C2528 C2529 1.524 . S
C2528 H2547 0.913 . S
C2529 H2505 0.950 . S
C2529 C2528 1.524 . S
C2529 C2530 1.415 . S
C2530 H2506 0.950 . S
C2530 C2525 1.363 . S
C2530 C2529 1.415 . S
C2531 H2507 0.951 . S
C2531 C2532 1.366 . S
C2531 C2533 1.388 . S
C2532 C2531 1.366 . S
C2532 C2536 1.424 . S
C2533 H2508 0.951 . S
C2533 C2531 1.388 . S
C2533 C2534 1.366 . S
C2534 C2533 1.366 . S
C2534 C2535 1.414 . S
C2534 C2537 1.499 . S
C2535 H2509 0.950 1_545 S
C2535 C2534 1.414 . S
C2535 C2536 1.377 . S
C2536 H2510 0.912 1_545 S
C2536 C2532 1.424 . S
C2536 C2535 1.377 . S
C2537 C2534 1.499 . S
C2537 C2538 1.373 . S
C2537 C2539 1.389 . S
C2538 H2511 0.950 . S
C2538 C2524 1.377 . S
C2538 C2537 1.373 . S
C2539 C2523 1.377 . S
C2539 C2537 1.389 . S
C2539 C2540 1.524 . S
C2540 C2539 1.524 . S
C2540 C2541 1.397 1_545 S
C2540 C2545 1.363 . S
C2541 H2512 0.950 . S
C2541 C2540 1.397 1_565 S
C2541 C2542 1.334 . S
C2542 H2513 0.950 . S
C2542 C2541 1.334 . S
C2542 C2543 1.287 . S
C2543 C2542 1.287 . S
C2543 C2544 1.524 1_565 S
C2543 H2546 0.999 . S
C2544 H2514 0.950 . S
C2544 C2543 1.524 1_545 S
C2544 C2545 1.415 . S
C2545 H2515 0.950 . S
C2545 C2540 1.363 . S
C2545 C2544 1.415 . S
H2546 C2543 0.999 . S
H2547 C2528 0.913 . S
H2548 C2566 0.951 . S
H2549 C2568 0.951 . S
H2550 C2570 0.950 . S
H2551 C2571 0.950 . S
H2552 C2573 0.950 . S
H2553 C2576 0.950 . S
H2554 C2577 0.950 . S
H2555 C2579 0.950 . S
H2556 C2580 0.950 . S
H2557 C2581 0.951 . S
H2558 C2583 0.951 . S
H2559 C2585 0.950 . S
H2560 C2586 0.950 . S
H2561 C2588 0.950 . S
H2562 C2591 0.950 . S
H2563 C2592 0.950 . S
H2564 C2594 0.950 . S
H2565 C2595 0.950 . S
C2566 H2548 0.951 . S
C2566 C2567 1.366 . S
C2566 C2568 1.388 . S
C2567 C2566 1.366 . S
C2567 C2571 1.385 . S
C2568 H2549 0.951 . S
C2568 C2566 1.388 . S
C2568 C2569 1.366 . S
C2569 C2568 1.366 . S
C2569 C2570 1.414 . S
C2569 C2572 1.499 . S
C2570 H2550 0.950 . S
C2570 C2569 1.414 . S
C2570 C2571 1.374 . S
C2571 H2551 0.950 . S
C2571 C2567 1.385 . S
C2571 C2570 1.374 . S
C2572 C2569 1.499 . S
C2572 C2573 1.373 . S
C2572 C2574 1.389 . S
C2573 H2552 0.950 . S
C2573 C2572 1.373 . S
C2573 C2589 1.377 . S
C2574 C2572 1.389 . S
C2574 C2575 1.524 . S
C2574 C2588 1.377 . S
C2575 C2574 1.524 . S
C2575 C2576 1.397 . S
C2575 C2580 1.363 . S
C2576 H2553 0.950 . S
C2576 C2575 1.397 . S
C2576 C2577 1.334 . S
C2577 H2554 0.950 . S
C2577 C2576 1.334 . S
C2577 C2578 1.287 . S
C2578 C2577 1.287 . S
C2578 C2579 1.524 . S
C2578 H2597 0.913 . S
C2579 H2555 0.950 . S
C2579 C2578 1.524 . S
C2579 C2580 1.415 . S
C2580 H2556 0.950 . S
C2580 C2575 1.363 . S
C2580 C2579 1.415 . S
C2581 H2557 0.951 . S
C2581 C2582 1.366 . S
C2581 C2583 1.388 . S
C2582 C2581 1.366 . S
C2582 C2586 1.385 . S
C2583 H2558 0.951 . S
C2583 C2581 1.388 . S
C2583 C2584 1.366 . S
C2584 C2583 1.366 . S
C2584 C2585 1.414 . S
C2584 C2587 1.499 . S
C2585 H2559 0.950 . S
C2585 C2584 1.414 . S
C2585 C2586 1.374 . S
C2586 H2560 0.950 . S
C2586 C2582 1.385 . S
C2586 C2585 1.374 . S
C2587 C2584 1.499 . S
C2587 C2588 1.373 . S
C2587 C2589 1.389 . S
C2588 H2561 0.950 . S
C2588 C2574 1.377 . S
C2588 C2587 1.373 . S
C2589 C2573 1.377 . S
C2589 C2587 1.389 . S
C2589 C2590 1.524 . S
C2590 C2589 1.524 . S
C2590 C2591 1.397 . S
C2590 C2595 1.363 . S
C2591 H2562 0.950 . S
C2591 C2590 1.397 . S
C2591 C2592 1.334 . S
C2592 H2563 0.950 . S
C2592 C2591 1.334 . S
C2592 C2593 1.287 . S
C2593 C2592 1.287 . S
C2593 C2594 1.524 . S
C2593 H2596 0.999 . S
C2594 H2564 0.950 . S
C2594 C2593 1.524 . S
C2594 C2595 1.415 . S
C2595 H2565 0.950 . S
C2595 C2590 1.363 . S
C2595 C2594 1.415 . S
H2596 C2593 0.999 . S
H2597 C2578 0.913 . S
H2598 C2616 0.951 . S
H2599 C2618 0.951 . S
H2600 C2620 0.950 . S
H2601 C2621 0.950 . S
H2602 C2623 0.950 . S
H2603 C2626 0.950 . S
H2604 C2627 0.950 . S
H2605 C2629 0.950 . S
H2606 C2630 0.950 . S
H2607 C2631 0.951 . S
H2608 C2633 0.951 . S
H2609 C2635 0.950 . S
H2610 C2636 0.950 . S
H2611 C2638 0.950 . S
H2612 C2641 0.950 . S
H2613 C2642 0.950 . S
H2614 C2644 0.950 . S
H2615 C2645 0.950 . S
C2616 H2598 0.951 . S
C2616 C2617 1.366 . S
C2616 C2618 1.388 . S
C2617 C2616 1.366 . S
C2617 C2621 1.385 . S
C2618 H2599 0.951 . S
C2618 C2616 1.388 . S
C2618 C2619 1.366 . S
C2619 C2618 1.366 . S
C2619 C2620 1.414 . S
C2619 C2622 1.499 . S
C2620 H2600 0.950 . S
C2620 C2619 1.414 . S
C2620 C2621 1.374 . S
C2621 H2601 0.950 . S
C2621 C2617 1.385 . S
C2621 C2620 1.374 . S
C2622 C2619 1.499 . S
C2622 C2623 1.373 . S
C2622 C2624 1.389 . S
C2623 H2602 0.950 . S
C2623 C2622 1.373 . S
C2623 C2639 1.377 . S
C2624 C2622 1.389 . S
C2624 C2625 1.524 . S
C2624 C2638 1.377 . S
C2625 C2624 1.524 . S
C2625 C2626 1.397 . S
C2625 C2630 1.363 . S
C2626 H2603 0.950 . S
C2626 C2625 1.397 . S
C2626 C2627 1.334 . S
C2627 H2604 0.950 . S
C2627 C2626 1.334 . S
C2627 C2628 1.287 . S
C2628 C2627 1.287 . S
C2628 C2629 1.524 . S
C2628 H2647 0.913 . S
C2629 H2605 0.950 . S
C2629 C2628 1.524 . S
C2629 C2630 1.415 . S
C2630 H2606 0.950 . S
C2630 C2625 1.363 . S
C2630 C2629 1.415 . S
C2631 H2607 0.951 . S
C2631 C2632 1.366 . S
C2631 C2633 1.388 . S
C2632 C2631 1.366 . S
C2632 C2636 1.385 . S
C2633 H2608 0.951 . S
C2633 C2631 1.388 . S
C2633 C2634 1.366 . S
C2634 C2633 1.366 . S
C2634 C2635 1.414 . S
C2634 C2637 1.499 . S
C2635 H2609 0.950 . S
C2635 C2634 1.414 . S
C2635 C2636 1.374 . S
C2636 H2610 0.950 . S
C2636 C2632 1.385 . S
C2636 C2635 1.374 . S
C2637 C2634 1.499 . S
C2637 C2638 1.373 . S
C2637 C2639 1.389 . S
C2638 H2611 0.950 . S
C2638 C2624 1.377 . S
C2638 C2637 1.373 . S
C2639 C2623 1.377 . S
C2639 C2637 1.389 . S
C2639 C2640 1.524 . S
C2640 C2639 1.524 . S
C2640 C2641 1.397 . S
C2640 C2645 1.363 . S
C2641 H2612 0.950 . S
C2641 C2640 1.397 . S
C2641 C2642 1.334 . S
C2642 H2613 0.950 . S
C2642 C2641 1.334 . S
C2642 C2643 1.287 . S
C2643 C2642 1.287 . S
C2643 C2644 1.524 . S
C2643 H2646 0.999 . S
C2644 H2614 0.950 . S
C2644 C2643 1.524 . S
C2644 C2645 1.415 . S
C2645 H2615 0.950 . S
C2645 C2640 1.363 . S
C2645 C2644 1.415 . S
H2646 C2643 0.999 . S
H2647 C2628 0.913 . S
H2648 C2666 0.951 . S
H2649 C2668 0.951 . S
H2650 C2670 0.950 . S
H2651 C2671 0.950 . S
H2652 C2673 0.950 . S
H2653 C2676 0.950 . S
H2654 C2677 0.950 . S
H2655 C2679 0.950 . S
H2656 C2680 0.950 . S
H2657 C2681 0.951 . S
H2658 C2683 0.951 . S
H2659 C2685 0.950 . S
H2660 C2686 0.950 . S
H2661 C2688 0.950 . S
H2662 C2691 0.950 . S
H2663 C2692 0.950 . S
H2664 C2694 0.950 . S
H2665 C2695 0.950 . S
C2666 H2648 0.951 . S
C2666 C2667 1.366 . S
C2666 C2668 1.388 . S
C2667 C2666 1.366 . S
C2667 C2671 1.385 . S
C2668 H2649 0.951 . S
C2668 C2666 1.388 . S
C2668 C2669 1.366 . S
C2669 C2668 1.366 . S
C2669 C2670 1.414 . S
C2669 C2672 1.499 . S
C2670 H2650 0.950 . S
C2670 C2669 1.414 . S
C2670 C2671 1.374 . S
C2671 H2651 0.950 . S
C2671 C2667 1.385 . S
C2671 C2670 1.374 . S
C2672 C2669 1.499 . S
C2672 C2673 1.373 . S
C2672 C2674 1.389 . S
C2673 H2652 0.950 . S
C2673 C2672 1.373 . S
C2673 C2689 1.377 . S
C2674 C2672 1.389 . S
C2674 C2675 1.524 . S
C2674 C2688 1.377 . S
C2675 C2674 1.524 . S
C2675 C2676 1.397 . S
C2675 C2680 1.363 . S
C2676 H2653 0.950 . S
C2676 C2675 1.397 . S
C2676 C2677 1.334 . S
C2677 H2654 0.950 . S
C2677 C2676 1.334 . S
C2677 C2678 1.287 . S
C2678 C2677 1.287 . S
C2678 C2679 1.524 . S
C2678 H2697 0.913 . S
C2679 H2655 0.950 . S
C2679 C2678 1.524 . S
C2679 C2680 1.415 . S
C2680 H2656 0.950 . S
C2680 C2675 1.363 . S
C2680 C2679 1.415 . S
C2681 H2657 0.951 . S
C2681 C2682 1.366 . S
C2681 C2683 1.388 . S
C2682 C2681 1.366 . S
C2682 C2686 1.385 . S
C2683 H2658 0.951 . S
C2683 C2681 1.388 . S
C2683 C2684 1.366 . S
C2684 C2683 1.366 . S
C2684 C2685 1.414 . S
C2684 C2687 1.499 . S
C2685 H2659 0.950 . S
C2685 C2684 1.414 . S
C2685 C2686 1.374 . S
C2686 H2660 0.950 . S
C2686 C2682 1.385 . S
C2686 C2685 1.374 . S
C2687 C2684 1.499 . S
C2687 C2688 1.373 . S
C2687 C2689 1.389 . S
C2688 H2661 0.950 . S
C2688 C2674 1.377 . S
C2688 C2687 1.373 . S
C2689 C2673 1.377 . S
C2689 C2687 1.389 . S
C2689 C2690 1.524 . S
C2690 C2689 1.524 . S
C2690 C2691 1.397 . S
C2690 C2695 1.363 . S
C2691 H2662 0.950 . S
C2691 C2690 1.397 . S
C2691 C2692 1.334 . S
C2692 H2663 0.950 . S
C2692 C2691 1.334 . S
C2692 C2693 1.287 . S
C2693 C2692 1.287 . S
C2693 C2694 1.524 . S
C2693 H2696 0.999 . S
C2694 H2664 0.950 . S
C2694 C2693 1.524 . S
C2694 C2695 1.415 . S
C2695 H2665 0.950 . S
C2695 C2690 1.363 . S
C2695 C2694 1.415 . S
H2696 C2693 0.999 . S
H2697 C2678 0.913 . S
H2698 C2716 0.951 . S
H2699 C2718 0.951 . S
H2700 C2720 0.950 1_655 S
H2701 C2721 0.950 . S
H2702 C2723 0.950 . S
H2703 C2726 0.950 . S
H2704 C2727 0.950 . S
H2705 C2729 0.950 . S
H2706 C2730 0.950 . S
H2707 C2731 0.951 . S
H2708 C2733 0.951 . S
H2709 C2735 0.890 1_455 S
H2710 C2736 0.981 . S
H2711 C2738 0.950 . S
H2712 C2741 0.950 . S
H2713 C2742 0.950 . S
H2714 C2744 0.950 . S
H2715 C2745 0.950 . S
C2716 H2698 0.951 . S
C2716 C2717 1.366 . S
C2716 C2718 1.388 . S
C2717 C2716 1.366 . S
C2717 C2721 1.385 . S
C2718 H2699 0.951 . S
C2718 C2716 1.388 . S
C2718 C2719 1.366 . S
C2719 C2718 1.366 . S
C2719 C2720 1.414 . S
C2719 C2722 1.499 . S
C2720 H2700 0.950 1_455 S
C2720 C2719 1.414 . S
C2720 C2721 1.374 . S
C2721 H2701 0.950 . S
C2721 C2717 1.385 . S
C2721 C2720 1.374 . S
C2722 C2719 1.499 . S
C2722 C2723 1.373 1_455 S
C2722 C2724 1.389 . S
C2723 H2702 0.950 . S
C2723 C2722 1.373 1_655 S
C2723 C2739 1.377 . S
C2724 C2722 1.389 . S
C2724 C2725 1.524 . S
C2724 C2738 1.377 . S
C2725 C2724 1.524 . S
C2725 C2726 1.397 1_545 S
C2725 C2730 1.363 . S
C2726 H2703 0.950 . S
C2726 C2725 1.397 1_565 S
C2726 C2727 1.334 . S
C2727 H2704 0.950 . S
C2727 C2726 1.334 . S
C2727 C2728 1.287 . S
C2728 C2727 1.287 . S
C2728 C2729 1.524 . S
C2728 H2747 0.913 . S
C2729 H2705 0.950 . S
C2729 C2728 1.524 . S
C2729 C2730 1.415 1_565 S
C2730 H2706 0.950 . S
C2730 C2725 1.363 . S
C2730 C2729 1.415 1_545 S
C2731 H2707 0.951 . S
C2731 C2732 1.366 . S
C2731 C2733 1.388 . S
C2732 C2731 1.366 . S
C2732 C2736 1.385 . S
C2733 H2708 0.951 . S
C2733 C2731 1.388 . S
C2733 C2734 1.366 . S
C2734 C2733 1.366 . S
C2734 C2735 1.447 . S
C2734 C2737 1.499 . S
C2735 H2709 0.890 1_655 S
C2735 C2734 1.447 . S
C2735 C2736 1.403 . S
C2736 H2710 0.981 . S
C2736 C2732 1.385 . S
C2736 C2735 1.403 . S
C2737 C2734 1.499 . S
C2737 C2738 1.373 1_655 S
C2737 C2739 1.389 . S
C2738 H2711 0.950 . S
C2738 C2724 1.377 . S
C2738 C2737 1.373 1_455 S
C2739 C2723 1.377 . S
C2739 C2737 1.389 . S
C2739 C2740 1.524 . S
C2740 C2739 1.524 . S
C2740 C2741 1.397 . S
C2740 C2745 1.363 . S
C2741 H2712 0.950 . S
C2741 C2740 1.397 . S
C2741 C2742 1.334 . S
C2742 H2713 0.950 . S
C2742 C2741 1.334 . S
C2742 C2743 1.287 . S
C2743 C2742 1.287 . S
C2743 C2744 1.524 . S
C2743 H2746 0.999 . S
C2744 H2714 0.950 . S
C2744 C2743 1.524 . S
C2744 C2745 1.415 . S
C2745 H2715 0.950 . S
C2745 C2740 1.363 . S
C2745 C2744 1.415 . S
H2746 C2743 0.999 . S
H2747 C2728 0.913 . S
H2748 C2766 0.951 . S
H2749 C2768 0.951 . S
H2750 C2770 0.950 . S
H2751 C2771 0.950 . S
H2752 C2773 0.950 . S
H2753 C2776 0.950 . S
H2754 C2777 0.950 . S
H2755 C2779 0.950 . S
H2756 C2780 0.950 . S
H2757 C2781 0.951 . S
H2758 C2783 0.951 . S
H2759 C2785 0.950 . S
H2760 C2786 0.950 . S
H2761 C2788 0.950 . S
H2762 C2791 0.950 . S
H2763 C2792 0.950 . S
H2764 C2794 0.950 . S
H2765 C2795 0.950 . S
C2766 H2748 0.951 . S
C2766 C2767 1.366 . S
C2766 C2768 1.388 . S
C2767 C2766 1.366 . S
C2767 C2771 1.385 . S
C2768 H2749 0.951 . S
C2768 C2766 1.388 . S
C2768 C2769 1.366 . S
C2769 C2768 1.366 . S
C2769 C2770 1.414 . S
C2769 C2772 1.499 . S
C2770 H2750 0.950 . S
C2770 C2769 1.414 . S
C2770 C2771 1.374 . S
C2771 H2751 0.950 . S
C2771 C2767 1.385 . S
C2771 C2770 1.374 . S
C2772 C2769 1.499 . S
C2772 C2773 1.373 . S
C2772 C2774 1.389 . S
C2773 H2752 0.950 . S
C2773 C2772 1.373 . S
C2773 C2789 1.377 . S
C2774 C2772 1.389 . S
C2774 C2775 1.524 . S
C2774 C2788 1.377 . S
C2775 C2774 1.524 . S
C2775 C2776 1.397 . S
C2775 C2780 1.363 . S
C2776 H2753 0.950 . S
C2776 C2775 1.397 . S
C2776 C2777 1.334 . S
C2777 H2754 0.950 . S
C2777 C2776 1.334 . S
C2777 C2778 1.287 . S
C2778 C2777 1.287 . S
C2778 C2779 1.524 . S
C2778 H2797 0.913 . S
C2779 H2755 0.950 . S
C2779 C2778 1.524 . S
C2779 C2780 1.415 . S
C2780 H2756 0.950 . S
C2780 C2775 1.363 . S
C2780 C2779 1.415 . S
C2781 H2757 0.951 . S
C2781 C2782 1.366 . S
C2781 C2783 1.388 . S
C2782 C2781 1.366 . S
C2782 C2786 1.385 . S
C2783 H2758 0.951 . S
C2783 C2781 1.388 . S
C2783 C2784 1.366 . S
C2784 C2783 1.366 . S
C2784 C2785 1.414 . S
C2784 C2787 1.499 . S
C2785 H2759 0.950 . S
C2785 C2784 1.414 . S
C2785 C2786 1.374 . S
C2786 H2760 0.950 . S
C2786 C2782 1.385 . S
C2786 C2785 1.374 . S
C2787 C2784 1.499 . S
C2787 C2788 1.373 . S
C2787 C2789 1.389 . S
C2788 H2761 0.950 . S
C2788 C2774 1.377 . S
C2788 C2787 1.373 . S
C2789 C2773 1.377 . S
C2789 C2787 1.389 . S
C2789 C2790 1.524 . S
C2790 C2789 1.524 . S
C2790 C2791 1.397 . S
C2790 C2795 1.363 . S
C2791 H2762 0.950 . S
C2791 C2790 1.397 . S
C2791 C2792 1.334 . S
C2792 H2763 0.950 . S
C2792 C2791 1.334 . S
C2792 C2793 1.287 . S
C2793 C2792 1.287 . S
C2793 C2794 1.524 . S
C2793 H2796 0.999 . S
C2794 H2764 0.950 . S
C2794 C2793 1.524 . S
C2794 C2795 1.415 . S
C2795 H2765 0.950 . S
C2795 C2790 1.363 . S
C2795 C2794 1.415 . S
H2796 C2793 0.999 . S
H2797 C2778 0.913 . S
H2798 C2816 0.951 . S
H2799 C2818 0.921 1_655 S
H2800 C2820 0.950 . S
H2801 C2821 0.950 . S
H2802 C2823 0.950 . S
H2803 C2826 0.950 . S
H2804 C2827 0.950 . S
H2805 C2829 0.950 . S
H2806 C2830 0.950 . S
H2807 C2831 0.951 . S
H2808 C2833 0.951 . S
H2809 C2835 0.950 . S
H2810 C2836 0.950 . S
H2811 C2838 0.950 . S
H2812 C2841 0.950 . S
H2813 C2842 0.950 . S
H2814 C2844 0.950 . S
H2815 C2845 0.950 . S
C2816 H2798 0.951 . S
C2816 C2817 1.358 1_655 S
C2816 C2818 1.364 1_655 S
C2817 C2816 1.358 1_455 S
C2817 C2821 1.398 . S
C2818 H2799 0.921 1_455 S
C2818 C2816 1.364 1_455 S
C2818 C2819 1.422 . S
C2819 C2818 1.422 . S
C2819 C2820 1.414 . S
C2819 C2822 1.499 . S
C2820 H2800 0.950 . S
C2820 C2819 1.414 . S
C2820 C2821 1.374 . S
C2821 H2801 0.950 . S
C2821 C2817 1.398 . S
C2821 C2820 1.374 . S
C2822 C2819 1.499 . S
C2822 C2823 1.373 . S
C2822 C2824 1.389 . S
C2823 H2802 0.950 . S
C2823 C2822 1.373 . S
C2823 C2839 1.377 . S
C2824 C2822 1.389 . S
C2824 C2825 1.524 . S
C2824 C2838 1.377 . S
C2825 C2824 1.524 . S
C2825 C2826 1.397 . S
C2825 C2830 1.363 . S
C2826 H2803 0.950 . S
C2826 C2825 1.397 . S
C2826 C2827 1.334 . S
C2827 H2804 0.950 . S
C2827 C2826 1.334 . S
C2827 C2828 1.287 1_455 S
C2828 C2827 1.287 1_655 S
C2828 C2829 1.524 . S
C2828 H2847 0.913 . S
C2829 H2805 0.950 . S
C2829 C2828 1.524 . S
C2829 C2830 1.415 1_655 S
C2830 H2806 0.950 . S
C2830 C2825 1.363 . S
C2830 C2829 1.415 1_455 S
C2831 H2807 0.951 . S
C2831 C2832 1.366 . S
C2831 C2833 1.388 . S
C2832 C2831 1.366 . S
C2832 C2836 1.385 . S
C2833 H2808 0.951 . S
C2833 C2831 1.388 . S
C2833 C2834 1.366 . S
C2834 C2833 1.366 . S
C2834 C2835 1.414 . S
C2834 C2837 1.499 . S
C2835 H2809 0.950 . S
C2835 C2834 1.414 . S
C2835 C2836 1.374 . S
C2836 H2810 0.950 . S
C2836 C2832 1.385 . S
C2836 C2835 1.374 . S
C2837 C2834 1.499 . S
C2837 C2838 1.373 . S
C2837 C2839 1.389 . S
C2838 H2811 0.950 . S
C2838 C2824 1.377 . S
C2838 C2837 1.373 . S
C2839 C2823 1.377 . S
C2839 C2837 1.389 . S
C2839 C2840 1.524 . S
C2840 C2839 1.524 . S
C2840 C2841 1.397 . S
C2840 C2845 1.363 . S
C2841 H2812 0.950 . S
C2841 C2840 1.397 . S
C2841 C2842 1.334 . S
C2842 H2813 0.950 . S
C2842 C2841 1.334 . S
C2842 C2843 1.287 . S
C2843 C2842 1.287 . S
C2843 C2844 1.524 . S
C2843 H2846 0.999 . S
C2844 H2814 0.950 . S
C2844 C2843 1.524 . S
C2844 C2845 1.415 . S
C2845 H2815 0.950 . S
C2845 C2840 1.363 . S
C2845 C2844 1.415 . S
H2846 C2843 0.999 . S
H2847 C2828 0.913 . S
H2848 C2866 0.951 . S
H2849 C2868 0.951 . S
H2850 C2870 0.950 . S
H2851 C2871 0.950 . S
H2852 C2873 0.950 . S
H2853 C2876 0.950 . S
H2854 C2877 0.950 . S
H2855 C2879 0.950 . S
H2856 C2880 0.950 . S
H2857 C2881 0.951 . S
H2858 C2883 0.951 . S
H2859 C2885 0.950 . S
H2860 C2886 0.950 . S
H2861 C2888 0.950 . S
H2862 C2891 0.950 . S
H2863 C2892 0.950 . S
H2864 C2894 0.950 . S
H2865 C2895 0.950 . S
C2866 H2848 0.951 . S
C2866 C2867 1.366 . S
C2866 C2868 1.388 . S
C2867 C2866 1.366 . S
C2867 C2871 1.385 . S
C2868 H2849 0.951 . S
C2868 C2866 1.388 . S
C2868 C2869 1.366 . S
C2869 C2868 1.366 . S
C2869 C2870 1.414 . S
C2869 C2872 1.499 . S
C2870 H2850 0.950 . S
C2870 C2869 1.414 . S
C2870 C2871 1.374 . S
C2871 H2851 0.950 . S
C2871 C2867 1.385 . S
C2871 C2870 1.374 . S
C2872 C2869 1.499 . S
C2872 C2873 1.373 . S
C2872 C2874 1.389 . S
C2873 H2852 0.950 . S
C2873 C2872 1.373 . S
C2873 C2889 1.377 . S
C2874 C2872 1.389 . S
C2874 C2875 1.524 . S
C2874 C2888 1.377 . S
C2875 C2874 1.524 . S
C2875 C2876 1.397 . S
C2875 C2880 1.363 . S
C2876 H2853 0.950 . S
C2876 C2875 1.397 . S
C2876 C2877 1.334 . S
C2877 H2854 0.950 . S
C2877 C2876 1.334 . S
C2877 C2878 1.287 . S
C2878 C2877 1.287 . S
C2878 C2879 1.524 . S
C2878 H2897 0.913 . S
C2879 H2855 0.950 . S
C2879 C2878 1.524 . S
C2879 C2880 1.415 . S
C2880 H2856 0.950 . S
C2880 C2875 1.363 . S
C2880 C2879 1.415 . S
C2881 H2857 0.951 . S
C2881 C2882 1.366 . S
C2881 C2883 1.388 . S
C2882 C2881 1.366 . S
C2882 C2886 1.385 . S
C2883 H2858 0.951 . S
C2883 C2881 1.388 . S
C2883 C2884 1.366 . S
C2884 C2883 1.366 . S
C2884 C2885 1.414 . S
C2884 C2887 1.499 . S
C2885 H2859 0.950 . S
C2885 C2884 1.414 . S
C2885 C2886 1.374 . S
C2886 H2860 0.950 . S
C2886 C2882 1.385 . S
C2886 C2885 1.374 . S
C2887 C2884 1.499 . S
C2887 C2888 1.373 . S
C2887 C2889 1.389 . S
C2888 H2861 0.950 . S
C2888 C2874 1.377 . S
C2888 C2887 1.373 . S
C2889 C2873 1.377 . S
C2889 C2887 1.389 . S
C2889 C2890 1.524 . S
C2890 C2889 1.524 . S
C2890 C2891 1.397 . S
C2890 C2895 1.363 . S
C2891 H2862 0.950 . S
C2891 C2890 1.397 . S
C2891 C2892 1.334 . S
C2892 H2863 0.950 . S
C2892 C2891 1.334 . S
C2892 C2893 1.287 . S
C2893 C2892 1.287 . S
C2893 C2894 1.524 . S
C2893 H2896 0.999 . S
C2894 H2864 0.950 . S
C2894 C2893 1.524 . S
C2894 C2895 1.415 . S
C2895 H2865 0.950 . S
C2895 C2890 1.363 . S
C2895 C2894 1.415 . S
H2896 C2893 0.999 . S
H2897 C2878 0.913 . S
H2898 C2916 0.951 . S
H2899 C2918 0.951 . S
H2900 C2920 0.950 . S
H2901 C2921 0.950 . S
H2902 C2923 0.956 . S
H2903 C2926 0.950 . S
H2904 C2927 0.950 . S
H2905 C2929 0.950 . S
H2906 C2930 0.950 . S
H2907 C2931 0.951 . S
H2908 C2933 0.951 . S
H2909 C2935 0.950 . S
H2910 C2936 0.954 . S
H2911 C2938 0.950 . S
H2912 C2941 0.950 . S
H2913 C2942 0.950 . S
H2914 C2944 0.950 . S
H2915 C2945 0.950 . S
C2916 H2898 0.951 . S
C2916 C2917 1.366 . S
C2916 C2918 1.388 . S
C2917 C2916 1.366 . S
C2917 C2921 1.385 1_556 S
C2918 H2899 0.951 . S
C2918 C2916 1.388 . S
C2918 C2919 1.366 . S
C2919 C2918 1.366 . S
C2919 C2920 1.414 . S
C2919 C2922 1.499 . S
C2920 H2900 0.950 . S
C2920 C2919 1.414 . S
C2920 C2921 1.374 1_556 S
C2921 H2901 0.950 . S
C2921 C2917 1.385 1_554 S
C2921 C2920 1.374 1_554 S
C2922 C2919 1.499 . S
C2922 C2923 1.364 1_655 S
C2922 C2924 1.389 . S
C2923 H2902 0.956 . S
C2923 C2922 1.364 1_455 S
C2923 C2939 1.380 . S
C2924 C2922 1.389 . S
C2924 C2925 1.524 . S
C2924 C2938 1.377 . S
C2925 C2924 1.524 . S
C2925 C2926 1.397 . S
C2925 C2930 1.363 . S
C2926 H2903 0.950 . S
C2926 C2925 1.397 . S
C2926 C2927 1.334 . S
C2927 H2904 0.950 . S
C2927 C2926 1.334 . S
C2927 C2928 1.287 . S
C2928 C2927 1.287 . S
C2928 C2929 1.524 . S
C2928 H2947 0.913 . S
C2929 H2905 0.950 . S
C2929 C2928 1.524 . S
C2929 C2930 1.415 . S
C2930 H2906 0.950 . S
C2930 C2925 1.363 . S
C2930 C2929 1.415 . S
C2931 H2907 0.951 . S
C2931 C2932 1.366 . S
C2931 C2933 1.388 . S
C2932 C2931 1.366 . S
C2932 C2936 1.385 . S
C2933 H2908 0.951 . S
C2933 C2931 1.388 . S
C2933 C2934 1.366 . S
C2934 C2933 1.366 . S
C2934 C2935 1.414 . S
C2934 C2937 1.499 . S
C2935 H2909 0.950 . S
C2935 C2934 1.414 . S
C2935 C2936 1.374 . S
C2936 H2910 0.954 . S
C2936 C2932 1.385 . S
C2936 C2935 1.374 . S
C2937 C2934 1.499 . S
C2937 C2938 1.373 . S
C2937 C2939 1.389 1_655 S
C2938 H2911 0.950 . S
C2938 C2924 1.377 . S
C2938 C2937 1.373 . S
C2939 C2923 1.380 . S
C2939 C2937 1.389 1_455 S
C2939 C2940 1.524 . S
C2940 C2939 1.524 . S
C2940 C2941 1.397 . S
C2940 C2945 1.363 . S
C2941 H2912 0.950 . S
C2941 C2940 1.397 . S
C2941 C2942 1.334 . S
C2942 H2913 0.950 . S
C2942 C2941 1.334 . S
C2942 C2943 1.287 . S
C2943 C2942 1.287 . S
C2943 C2944 1.524 . S
C2943 H2946 0.999 . S
C2944 H2914 0.950 . S
C2944 C2943 1.524 . S
C2944 C2945 1.415 . S
C2945 H2915 0.950 . S
C2945 C2940 1.363 . S
C2945 C2944 1.415 . S
H2946 C2943 0.999 . S
H2947 C2928 0.913 . S
H2948 C2966 0.951 . S
H2949 C2968 0.951 . S
H2950 C2970 0.950 . S
H2951 C2971 0.950 . S
H2952 C2973 0.950 . S
H2953 C2976 0.950 . S
H2954 C2977 0.950 . S
H2955 C2979 0.950 . S
H2956 C2980 0.950 . S
H2957 C2981 0.951 . S
H2958 C2983 0.951 . S
H2959 C2985 0.950 . S
H2960 C2986 0.950 . S
H2961 C2988 0.950 . S
H2962 C2991 0.950 . S
H2963 C2992 0.950 . S
H2964 C2994 0.950 . S
H2965 C2995 0.950 . S
C2966 H2948 0.951 . S
C2966 C2967 1.366 . S
C2966 C2968 1.388 . S
C2967 C2966 1.366 . S
C2967 C2971 1.385 . S
C2968 H2949 0.951 . S
C2968 C2966 1.388 . S
C2968 C2969 1.366 . S
C2969 C2968 1.366 . S
C2969 C2970 1.414 . S
C2969 C2972 1.499 . S
C2970 H2950 0.950 . S
C2970 C2969 1.414 . S
C2970 C2971 1.374 . S
C2971 H2951 0.950 . S
C2971 C2967 1.385 . S
C2971 C2970 1.374 . S
C2972 C2969 1.499 . S
C2972 C2973 1.373 . S
C2972 C2974 1.389 . S
C2973 H2952 0.950 . S
C2973 C2972 1.373 . S
C2973 C2989 1.377 . S
C2974 C2972 1.389 . S
C2974 C2975 1.524 . S
C2974 C2988 1.377 . S
C2975 C2974 1.524 . S
C2975 C2976 1.397 . S
C2975 C2980 1.363 . S
C2976 H2953 0.950 . S
C2976 C2975 1.397 . S
C2976 C2977 1.334 . S
C2977 H2954 0.950 . S
C2977 C2976 1.334 . S
C2977 C2978 1.287 . S
C2978 C2977 1.287 . S
C2978 C2979 1.524 . S
C2978 H2997 0.913 . S
C2979 H2955 0.950 . S
C2979 C2978 1.524 . S
C2979 C2980 1.415 . S
C2980 H2956 0.950 . S
C2980 C2975 1.363 . S
C2980 C2979 1.415 . S
C2981 H2957 0.951 . S
C2981 C2982 1.366 . S
C2981 C2983 1.388 . S
C2982 C2981 1.366 . S
C2982 C2986 1.385 . S
C2983 H2958 0.951 . S
C2983 C2981 1.388 . S
C2983 C2984 1.366 . S
C2984 C2983 1.366 . S
C2984 C2985 1.414 . S
C2984 C2987 1.499 . S
C2985 H2959 0.950 . S
C2985 C2984 1.414 . S
C2985 C2986 1.374 . S
C2986 H2960 0.950 . S
C2986 C2982 1.385 . S
C2986 C2985 1.374 . S
C2987 C2984 1.499 . S
C2987 C2988 1.373 . S
C2987 C2989 1.389 . S
C2988 H2961 0.950 . S
C2988 C2974 1.377 . S
C2988 C2987 1.373 . S
C2989 C2973 1.377 . S
C2989 C2987 1.389 . S
C2989 C2990 1.524 . S
C2990 C2989 1.524 . S
C2990 C2991 1.397 . S
C2990 C2995 1.363 . S
C2991 H2962 0.950 . S
C2991 C2990 1.397 . S
C2991 C2992 1.334 . S
C2992 H2963 0.950 . S
C2992 C2991 1.334 . S
C2992 C2993 1.287 . S
C2993 C2992 1.287 . S
C2993 C2994 1.524 . S
C2993 H2996 0.999 . S
C2994 H2964 0.950 . S
C2994 C2993 1.524 . S
C2994 C2995 1.415 . S
C2995 H2965 0.950 . S
C2995 C2990 1.363 . S
C2995 C2994 1.415 . S
H2996 C2993 0.999 . S
H2997 C2978 0.913 . S
H2998 C3016 0.951 . S
H2999 C3018 0.951 . S
H3000 C3020 0.950 . S
H3001 C3021 0.950 . S
H3002 C3023 0.950 . S
H3003 C3026 0.950 . S
H3004 C3027 0.950 . S
H3005 C3029 0.950 . S
H3006 C3030 0.950 . S
H3007 C3031 0.951 . S
H3008 C3033 0.951 . S
H3009 C3035 0.950 . S
H3010 C3036 0.950 . S
H3011 C3038 0.950 . S
H3012 C3041 0.950 . S
H3013 C3042 0.950 . S
H3014 C3044 0.950 . S
H3015 C3045 0.962 . S
C3016 H2998 0.951 . S
C3016 C3017 1.366 . S
C3016 C3018 1.388 . S
C3017 C3016 1.366 . S
C3017 C3021 1.385 1_556 S
C3018 H2999 0.951 . S
C3018 C3016 1.388 . S
C3018 C3019 1.366 . S
C3019 C3018 1.366 . S
C3019 C3020 1.414 . S
C3019 C3022 1.499 . S
C3020 H3000 0.950 . S
C3020 C3019 1.414 . S
C3020 C3021 1.374 1_556 S
C3021 H3001 0.950 . S
C3021 C3017 1.385 1_554 S
C3021 C3020 1.374 1_554 S
C3022 C3019 1.499 . S
C3022 C3023 1.373 . S
C3022 C3024 1.389 . S
C3023 H3002 0.950 . S
C3023 C3022 1.373 . S
C3023 C3039 1.377 . S
C3024 C3022 1.389 . S
C3024 C3025 1.524 . S
C3024 C3038 1.377 . S
C3025 C3024 1.524 . S
C3025 C3026 1.397 . S
C3025 C3030 1.363 . S
C3026 H3003 0.950 . S
C3026 C3025 1.397 . S
C3026 C3027 1.334 . S
C3027 H3004 0.950 . S
C3027 C3026 1.334 . S
C3027 C3028 1.287 . S
C3028 C3027 1.287 . S
C3028 C3029 1.524 . S
C3028 H3047 0.913 . S
C3029 H3005 0.950 . S
C3029 C3028 1.524 . S
C3029 C3030 1.415 . S
C3030 H3006 0.950 . S
C3030 C3025 1.363 . S
C3030 C3029 1.415 . S
C3031 H3007 0.951 . S
C3031 C3032 1.366 . S
C3031 C3033 1.388 . S
C3032 C3031 1.366 . S
C3032 C3036 1.385 . S
C3033 H3008 0.951 . S
C3033 C3031 1.388 . S
C3033 C3034 1.366 . S
C3034 C3033 1.366 . S
C3034 C3035 1.414 . S
C3034 C3037 1.499 . S
C3035 H3009 0.950 . S
C3035 C3034 1.414 . S
C3035 C3036 1.374 . S
C3036 H3010 0.950 . S
C3036 C3032 1.385 . S
C3036 C3035 1.374 . S
C3037 C3034 1.499 . S
C3037 C3038 1.373 . S
C3037 C3039 1.389 . S
C3038 H3011 0.950 . S
C3038 C3024 1.377 . S
C3038 C3037 1.373 . S
C3039 C3023 1.377 . S
C3039 C3037 1.389 . S
C3039 C3040 1.524 1_455 S
C3040 C3039 1.524 1_655 S
C3040 C3041 1.397 . S
C3040 C3045 1.363 . S
C3041 H3012 0.950 . S
C3041 C3040 1.397 . S
C3041 C3042 1.334 . S
C3042 H3013 0.950 . S
C3042 C3041 1.334 . S
C3042 C3043 1.287 . S
C3043 C3042 1.287 . S
C3043 C3044 1.524 . S
C3043 H3046 0.999 . S
C3044 H3014 0.950 . S
C3044 C3043 1.524 . S
C3044 C3045 1.415 . S
C3045 H3015 0.962 . S
C3045 C3040 1.363 . S
C3045 C3044 1.415 . S
H3046 C3043 0.999 . S
H3047 C3028 0.913 . S
H3048 C3066 0.951 . S
H3049 C3068 0.951 . S
H3050 C3070 0.950 . S
H3051 C3071 0.950 . S
H3052 C3073 0.950 . S
H3053 C3076 0.950 . S
H3054 C3077 0.950 . S
H3055 C3079 0.950 . S
H3056 C3080 0.950 . S
H3057 C3081 0.951 . S
H3058 C3083 0.951 . S
H3059 C3085 0.950 . S
H3060 C3086 0.950 . S
H3061 C3088 0.950 . S
H3062 C3091 0.950 . S
H3063 C3092 0.950 . S
H3064 C3094 0.950 . S
H3065 C3095 0.950 . S
C3066 H3048 0.951 . S
C3066 C3067 1.366 . S
C3066 C3068 1.388 . S
C3067 C3066 1.366 . S
C3067 C3071 1.385 . S
C3068 H3049 0.951 . S
C3068 C3066 1.388 . S
C3068 C3069 1.366 . S
C3069 C3068 1.366 . S
C3069 C3070 1.414 . S
C3069 C3072 1.499 . S
C3070 H3050 0.950 . S
C3070 C3069 1.414 . S
C3070 C3071 1.374 . S
C3071 H3051 0.950 . S
C3071 C3067 1.385 . S
C3071 C3070 1.374 . S
C3072 C3069 1.499 . S
C3072 C3073 1.373 . S
C3072 C3074 1.389 . S
C3073 H3052 0.950 . S
C3073 C3072 1.373 . S
C3073 C3089 1.377 . S
C3074 C3072 1.389 . S
C3074 C3075 1.524 . S
C3074 C3088 1.377 . S
C3075 C3074 1.524 . S
C3075 C3076 1.397 . S
C3075 C3080 1.363 . S
C3076 H3053 0.950 . S
C3076 C3075 1.397 . S
C3076 C3077 1.334 . S
C3077 H3054 0.950 . S
C3077 C3076 1.334 . S
C3077 C3078 1.287 . S
C3078 C3077 1.287 . S
C3078 C3079 1.524 . S
C3078 H3097 0.913 . S
C3079 H3055 0.950 . S
C3079 C3078 1.524 . S
C3079 C3080 1.415 . S
C3080 H3056 0.950 . S
C3080 C3075 1.363 . S
C3080 C3079 1.415 . S
C3081 H3057 0.951 . S
C3081 C3082 1.366 . S
C3081 C3083 1.388 . S
C3082 C3081 1.366 . S
C3082 C3086 1.385 . S
C3083 H3058 0.951 . S
C3083 C3081 1.388 . S
C3083 C3084 1.366 . S
C3084 C3083 1.366 . S
C3084 C3085 1.414 . S
C3084 C3087 1.499 . S
C3085 H3059 0.950 . S
C3085 C3084 1.414 . S
C3085 C3086 1.374 . S
C3086 H3060 0.950 . S
C3086 C3082 1.385 . S
C3086 C3085 1.374 . S
C3087 C3084 1.499 . S
C3087 C3088 1.373 . S
C3087 C3089 1.389 . S
C3088 H3061 0.950 . S
C3088 C3074 1.377 . S
C3088 C3087 1.373 . S
C3089 C3073 1.377 . S
C3089 C3087 1.389 . S
C3089 C3090 1.524 . S
C3090 C3089 1.524 . S
C3090 C3091 1.397 . S
C3090 C3095 1.363 . S
C3091 H3062 0.950 . S
C3091 C3090 1.397 . S
C3091 C3092 1.334 . S
C3092 H3063 0.950 . S
C3092 C3091 1.334 . S
C3092 C3093 1.287 . S
C3093 C3092 1.287 . S
C3093 C3094 1.524 . S
C3093 H3096 0.999 . S
C3094 H3064 0.950 . S
C3094 C3093 1.524 . S
C3094 C3095 1.415 . S
C3095 H3065 0.950 . S
C3095 C3090 1.363 . S
C3095 C3094 1.415 . S
H3096 C3093 0.999 . S
H3097 C3078 0.913 . S
H3098 C3116 0.951 . S
H3099 C3118 0.951 . S
H3100 C3120 0.950 . S
H3101 C3121 0.950 1_556 S
H3102 C3123 0.950 . S
H3103 C3126 0.950 . S
H3104 C3127 0.950 . S
H3105 C3129 0.950 . S
H3106 C3130 0.950 . S
H3107 C3131 0.951 . S
H3108 C3133 0.951 . S
H3109 C3135 0.950 . S
H3110 C3136 0.950 . S
H3111 C3138 0.950 . S
H3112 C3141 0.950 . S
H3113 C3142 0.950 . S
H3114 C3144 0.950 . S
H3115 C3145 0.950 . S
C3116 H3098 0.951 . S
C3116 C3117 1.366 . S
C3116 C3118 1.388 . S
C3117 C3116 1.366 . S
C3117 C3121 1.385 . S
C3118 H3099 0.951 . S
C3118 C3116 1.388 . S
C3118 C3119 1.366 . S
C3119 C3118 1.366 . S
C3119 C3120 1.414 . S
C3119 C3122 1.499 . S
C3120 H3100 0.950 . S
C3120 C3119 1.414 . S
C3120 C3121 1.374 . S
C3121 H3101 0.950 1_554 S
C3121 C3117 1.385 . S
C3121 C3120 1.374 . S
C3122 C3119 1.499 . S
C3122 C3123 1.373 . S
C3122 C3124 1.389 . S
C3123 H3102 0.950 . S
C3123 C3122 1.373 . S
C3123 C3139 1.377 . S
C3124 C3122 1.389 . S
C3124 C3125 1.524 . S
C3124 C3138 1.377 . S
C3125 C3124 1.524 . S
C3125 C3126 1.397 . S
C3125 C3130 1.363 . S
C3126 H3103 0.950 . S
C3126 C3125 1.397 . S
C3126 C3127 1.334 1_554 S
C3127 H3104 0.950 . S
C3127 C3126 1.334 1_556 S
C3127 C3128 1.287 1_556 S
C3128 C3127 1.287 1_554 S
C3128 C3129 1.524 . S
C3128 H3147 0.913 1_554 S
C3129 H3105 0.950 . S
C3129 C3128 1.524 . S
C3129 C3130 1.415 . S
C3130 H3106 0.950 . S
C3130 C3125 1.363 . S
C3130 C3129 1.415 . S
C3131 H3107 0.951 . S
C3131 C3132 1.366 . S
C3131 C3133 1.388 . S
C3132 C3131 1.366 . S
C3132 C3136 1.385 . S
C3133 H3108 0.951 . S
C3133 C3131 1.388 . S
C3133 C3134 1.366 . S
C3134 C3133 1.366 . S
C3134 C3135 1.414 . S
C3134 C3137 1.499 . S
C3135 H3109 0.950 . S
C3135 C3134 1.414 . S
C3135 C3136 1.374 . S
C3136 H3110 0.950 . S
C3136 C3132 1.385 . S
C3136 C3135 1.374 . S
C3137 C3134 1.499 . S
C3137 C3138 1.373 . S
C3137 C3139 1.389 . S
C3138 H3111 0.950 . S
C3138 C3124 1.377 . S
C3138 C3137 1.373 . S
C3139 C3123 1.377 . S
C3139 C3137 1.389 . S
C3139 C3140 1.524 . S
C3140 C3139 1.524 . S
C3140 C3141 1.397 . S
C3140 C3145 1.363 . S
C3141 H3112 0.950 . S
C3141 C3140 1.397 . S
C3141 C3142 1.334 . S
C3142 H3113 0.950 . S
C3142 C3141 1.334 . S
C3142 C3143 1.287 . S
C3143 C3142 1.287 . S
C3143 C3144 1.524 . S
C3143 H3146 0.999 . S
C3144 H3114 0.950 . S
C3144 C3143 1.524 . S
C3144 C3145 1.415 . S
C3145 H3115 0.950 . S
C3145 C3140 1.363 . S
C3145 C3144 1.415 . S
H3146 C3143 0.999 . S
H3147 C3128 0.913 1_556 S
H3148 C3166 0.951 . S
H3149 C3168 0.951 . S
H3150 C3170 0.950 . S
H3151 C3171 0.950 . S
H3152 C3173 0.950 . S
H3153 C3176 0.950 . S
H3154 C3177 0.950 . S
H3155 C3179 0.950 . S
H3156 C3180 0.950 . S
H3157 C3181 0.951 . S
H3158 C3183 0.951 . S
H3159 C3185 0.950 . S
H3160 C3186 0.950 . S
H3161 C3188 0.950 . S
H3162 C3191 0.950 . S
H3163 C3192 0.950 . S
H3164 C3194 0.950 . S
H3165 C3195 0.950 . S
C3166 H3148 0.951 . S
C3166 C3167 1.366 . S
C3166 C3168 1.388 . S
C3167 C3166 1.366 . S
C3167 C3171 1.385 . S
C3168 H3149 0.951 . S
C3168 C3166 1.388 . S
C3168 C3169 1.366 . S
C3169 C3168 1.366 . S
C3169 C3170 1.414 . S
C3169 C3172 1.499 . S
C3170 H3150 0.950 . S
C3170 C3169 1.414 . S
C3170 C3171 1.374 . S
C3171 H3151 0.950 . S
C3171 C3167 1.385 . S
C3171 C3170 1.374 . S
C3172 C3169 1.499 . S
C3172 C3173 1.373 . S
C3172 C3174 1.389 . S
C3173 H3152 0.950 . S
C3173 C3172 1.373 . S
C3173 C3189 1.377 . S
C3174 C3172 1.389 . S
C3174 C3175 1.524 . S
C3174 C3188 1.377 . S
C3175 C3174 1.524 . S
C3175 C3176 1.397 . S
C3175 C3180 1.363 . S
C3176 H3153 0.950 . S
C3176 C3175 1.397 . S
C3176 C3177 1.334 . S
C3177 H3154 0.950 . S
C3177 C3176 1.334 . S
C3177 C3178 1.287 . S
C3178 C3177 1.287 . S
C3178 C3179 1.524 . S
C3178 H3197 0.913 . S
C3179 H3155 0.950 . S
C3179 C3178 1.524 . S
C3179 C3180 1.415 . S
C3180 H3156 0.950 . S
C3180 C3175 1.363 . S
C3180 C3179 1.415 . S
C3181 H3157 0.951 . S
C3181 C3182 1.366 . S
C3181 C3183 1.388 . S
C3182 C3181 1.366 . S
C3182 C3186 1.385 . S
C3183 H3158 0.951 . S
C3183 C3181 1.388 . S
C3183 C3184 1.366 . S
C3184 C3183 1.366 . S
C3184 C3185 1.414 . S
C3184 C3187 1.499 . S
C3185 H3159 0.950 . S
C3185 C3184 1.414 . S
C3185 C3186 1.374 . S
C3186 H3160 0.950 . S
C3186 C3182 1.385 . S
C3186 C3185 1.374 . S
C3187 C3184 1.499 . S
C3187 C3188 1.373 . S
C3187 C3189 1.389 . S
C3188 H3161 0.950 . S
C3188 C3174 1.377 . S
C3188 C3187 1.373 . S
C3189 C3173 1.377 . S
C3189 C3187 1.389 . S
C3189 C3190 1.524 . S
C3190 C3189 1.524 . S
C3190 C3191 1.397 . S
C3190 C3195 1.363 . S
C3191 H3162 0.950 . S
C3191 C3190 1.397 . S
C3191 C3192 1.334 . S
C3192 H3163 0.950 . S
C3192 C3191 1.334 . S
C3192 C3193 1.287 . S
C3193 C3192 1.287 . S
C3193 C3194 1.524 . S
C3193 H3196 0.999 . S
C3194 H3164 0.950 . S
C3194 C3193 1.524 . S
C3194 C3195 1.415 . S
C3195 H3165 0.950 . S
C3195 C3190 1.363 . S
C3195 C3194 1.415 . S
H3196 C3193 0.999 . S
H3197 C3178 0.913 . S
H3198 C3216 0.951 . S
H3199 C3218 0.951 . S
H3200 C3220 0.950 . S
H3201 C3221 0.950 . S
H3202 C3223 0.950 . S
H3203 C3226 0.950 . S
H3204 C3227 0.950 . S
H3205 C3229 0.950 . S
H3206 C3230 0.950 . S
H3207 C3231 0.951 . S
H3208 C3233 0.951 . S
H3209 C3235 0.950 . S
H3210 C3236 0.950 . S
H3211 C3238 0.950 . S
H3212 C3241 0.950 . S
H3213 C3242 0.950 . S
H3214 C3244 0.950 1_556 S
H3215 C3245 0.950 . S
C3216 H3198 0.951 . S
C3216 C3217 1.366 1_554 S
C3216 C3218 1.388 . S
C3217 C3216 1.366 1_556 S
C3217 C3221 1.385 . S
C3218 H3199 0.951 . S
C3218 C3216 1.388 . S
C3218 C3219 1.366 . S
C3219 C3218 1.366 . S
C3219 C3220 1.414 1_554 S
C3219 C3222 1.499 . S
C3220 H3200 0.950 . S
C3220 C3219 1.414 1_556 S
C3220 C3221 1.374 . S
C3221 H3201 0.950 . S
C3221 C3217 1.385 . S
C3221 C3220 1.374 . S
C3222 C3219 1.499 . S
C3222 C3223 1.373 . S
C3222 C3224 1.389 . S
C3223 H3202 0.950 . S
C3223 C3222 1.373 . S
C3223 C3239 1.377 . S
C3224 C3222 1.389 . S
C3224 C3225 1.524 . S
C3224 C3238 1.377 . S
C3225 C3224 1.524 . S
C3225 C3226 1.397 . S
C3225 C3230 1.363 . S
C3226 H3203 0.950 . S
C3226 C3225 1.397 . S
C3226 C3227 1.334 . S
C3227 H3204 0.950 . S
C3227 C3226 1.334 . S
C3227 C3228 1.287 . S
C3228 C3227 1.287 . S
C3228 C3229 1.524 . S
C3228 H3247 0.913 . S
C3229 H3205 0.950 . S
C3229 C3228 1.524 . S
C3229 C3230 1.415 . S
C3230 H3206 0.950 . S
C3230 C3225 1.363 . S
C3230 C3229 1.415 . S
C3231 H3207 0.951 . S
C3231 C3232 1.366 . S
C3231 C3233 1.388 . S
C3232 C3231 1.366 . S
C3232 C3236 1.385 . S
C3233 H3208 0.951 . S
C3233 C3231 1.388 . S
C3233 C3234 1.366 . S
C3234 C3233 1.366 . S
C3234 C3235 1.414 . S
C3234 C3237 1.499 . S
C3235 H3209 0.950 . S
C3235 C3234 1.414 . S
C3235 C3236 1.374 . S
C3236 H3210 0.950 . S
C3236 C3232 1.385 . S
C3236 C3235 1.374 . S
C3237 C3234 1.499 . S
C3237 C3238 1.373 . S
C3237 C3239 1.389 . S
C3238 H3211 0.950 . S
C3238 C3224 1.377 . S
C3238 C3237 1.373 . S
C3239 C3223 1.377 . S
C3239 C3237 1.389 . S
C3239 C3240 1.524 . S
C3240 C3239 1.524 . S
C3240 C3241 1.397 . S
C3240 C3245 1.363 . S
C3241 H3212 0.950 . S
C3241 C3240 1.397 . S
C3241 C3242 1.334 . S
C3242 H3213 0.950 . S
C3242 C3241 1.334 . S
C3242 C3243 1.287 . S
C3243 C3242 1.287 . S
C3243 C3244 1.524 . S
C3243 H3246 0.999 . S
C3244 H3214 0.950 1_554 S
C3244 C3243 1.524 . S
C3244 C3245 1.415 . S
C3245 H3215 0.950 . S
C3245 C3240 1.363 . S
C3245 C3244 1.415 . S
H3246 C3243 0.999 . S
H3247 C3228 0.913 . S
H3248 C3266 0.951 . S
H3249 C3268 0.951 . S
H3250 C3270 0.950 . S
H3251 C3271 0.950 . S
H3252 C3273 0.950 . S
H3253 C3276 0.950 . S
H3254 C3277 0.950 . S
H3255 C3279 0.950 . S
H3256 C3280 0.950 . S
H3257 C3281 0.951 . S
H3258 C3283 0.951 . S
H3259 C3285 0.950 . S
H3260 C3286 0.950 . S
H3261 C3288 0.950 . S
H3262 C3291 0.950 . S
H3263 C3292 0.950 . S
H3264 C3294 0.950 . S
H3265 C3295 0.950 . S
C3266 H3248 0.951 . S
C3266 C3267 1.366 . S
C3266 C3268 1.388 . S
C3267 C3266 1.366 . S
C3267 C3271 1.385 . S
C3268 H3249 0.951 . S
C3268 C3266 1.388 . S
C3268 C3269 1.366 . S
C3269 C3268 1.366 . S
C3269 C3270 1.414 . S
C3269 C3272 1.499 . S
C3270 H3250 0.950 . S
C3270 C3269 1.414 . S
C3270 C3271 1.374 . S
C3271 H3251 0.950 . S
C3271 C3267 1.385 . S
C3271 C3270 1.374 . S
C3272 C3269 1.499 . S
C3272 C3273 1.373 . S
C3272 C3274 1.389 . S
C3273 H3252 0.950 . S
C3273 C3272 1.373 . S
C3273 C3289 1.377 . S
C3274 C3272 1.389 . S
C3274 C3275 1.524 . S
C3274 C3288 1.377 . S
C3275 C3274 1.524 . S
C3275 C3276 1.397 . S
C3275 C3280 1.363 . S
C3276 H3253 0.950 . S
C3276 C3275 1.397 . S
C3276 C3277 1.334 . S
C3277 H3254 0.950 . S
C3277 C3276 1.334 . S
C3277 C3278 1.287 . S
C3278 C3277 1.287 . S
C3278 C3279 1.524 . S
C3278 H3297 0.913 . S
C3279 H3255 0.950 . S
C3279 C3278 1.524 . S
C3279 C3280 1.415 . S
C3280 H3256 0.950 . S
C3280 C3275 1.363 . S
C3280 C3279 1.415 . S
C3281 H3257 0.951 . S
C3281 C3282 1.366 . S
C3281 C3283 1.388 . S
C3282 C3281 1.366 . S
C3282 C3286 1.385 . S
C3283 H3258 0.951 . S
C3283 C3281 1.388 . S
C3283 C3284 1.366 . S
C3284 C3283 1.366 . S
C3284 C3285 1.414 . S
C3284 C3287 1.499 . S
C3285 H3259 0.950 . S
C3285 C3284 1.414 . S
C3285 C3286 1.374 . S
C3286 H3260 0.950 . S
C3286 C3282 1.385 . S
C3286 C3285 1.374 . S
C3287 C3284 1.499 . S
C3287 C3288 1.373 . S
C3287 C3289 1.389 . S
C3288 H3261 0.950 . S
C3288 C3274 1.377 . S
C3288 C3287 1.373 . S
C3289 C3273 1.377 . S
C3289 C3287 1.389 . S
C3289 C3290 1.524 . S
C3290 C3289 1.524 . S
C3290 C3291 1.397 . S
C3290 C3295 1.363 . S
C3291 H3262 0.950 . S
C3291 C3290 1.397 . S
C3291 C3292 1.334 . S
C3292 H3263 0.950 . S
C3292 C3291 1.334 . S
C3292 C3293 1.287 . S
C3293 C3292 1.287 . S
C3293 C3294 1.524 . S
C3293 H3296 0.999 . S
C3294 H3264 0.950 . S
C3294 C3293 1.524 . S
C3294 C3295 1.415 . S
C3295 H3265 0.950 . S
C3295 C3290 1.363 . S
C3295 C3294 1.415 . S
H3296 C3293 0.999 . S
H3297 C3278 0.913 . S
H3298 C3316 0.951 . S
H3299 C3318 0.951 . S
H3300 C3320 0.950 . S
H3301 C3321 0.950 . S
H3302 C3323 0.950 . S
H3303 C3326 0.950 . S
H3304 C3327 0.950 . S
H3305 C3329 0.950 . S
H3306 C3330 0.950 . S
H3307 C3331 0.951 . S
H3308 C3333 0.951 . S
H3309 C3335 0.950 . S
H3310 C3336 0.950 . S
H3311 C3338 0.950 . S
H3312 C3341 0.950 . S
H3313 C3342 0.950 . S
H3314 C3344 0.950 . S
H3315 C3345 0.950 . S
C3316 H3298 0.951 . S
C3316 C3317 1.366 . S
C3316 C3318 1.388 . S
C3317 C3316 1.366 . S
C3317 C3321 1.385 . S
C3318 H3299 0.951 . S
C3318 C3316 1.388 . S
C3318 C3319 1.366 . S
C3319 C3318 1.366 . S
C3319 C3320 1.414 . S
C3319 C3322 1.499 . S
C3320 H3300 0.950 . S
C3320 C3319 1.414 . S
C3320 C3321 1.374 . S
C3321 H3301 0.950 . S
C3321 C3317 1.385 . S
C3321 C3320 1.374 . S
C3322 C3319 1.499 . S
C3322 C3323 1.373 . S
C3322 C3324 1.389 . S
C3323 H3302 0.950 . S
C3323 C3322 1.373 . S
C3323 C3339 1.377 . S
C3324 C3322 1.389 . S
C3324 C3325 1.524 . S
C3324 C3338 1.377 . S
C3325 C3324 1.524 . S
C3325 C3326 1.397 . S
C3325 C3330 1.363 . S
C3326 H3303 0.950 . S
C3326 C3325 1.397 . S
C3326 C3327 1.334 . S
C3327 H3304 0.950 . S
C3327 C3326 1.334 . S
C3327 C3328 1.287 . S
C3328 C3327 1.287 . S
C3328 C3329 1.524 . S
C3328 H3347 0.913 . S
C3329 H3305 0.950 . S
C3329 C3328 1.524 . S
C3329 C3330 1.415 . S
C3330 H3306 0.950 . S
C3330 C3325 1.363 . S
C3330 C3329 1.415 . S
C3331 H3307 0.951 . S
C3331 C3332 1.366 . S
C3331 C3333 1.388 . S
C3332 C3331 1.366 . S
C3332 C3336 1.385 . S
C3333 H3308 0.951 . S
C3333 C3331 1.388 . S
C3333 C3334 1.366 . S
C3334 C3333 1.366 . S
C3334 C3335 1.414 . S
C3334 C3337 1.499 . S
C3335 H3309 0.950 . S
C3335 C3334 1.414 . S
C3335 C3336 1.374 . S
C3336 H3310 0.950 . S
C3336 C3332 1.385 . S
C3336 C3335 1.374 . S
C3337 C3334 1.499 . S
C3337 C3338 1.373 . S
C3337 C3339 1.389 . S
C3338 H3311 0.950 . S
C3338 C3324 1.377 . S
C3338 C3337 1.373 . S
C3339 C3323 1.377 . S
C3339 C3337 1.389 . S
C3339 C3340 1.524 . S
C3340 C3339 1.524 . S
C3340 C3341 1.397 . S
C3340 C3345 1.363 . S
C3341 H3312 0.950 . S
C3341 C3340 1.397 . S
C3341 C3342 1.334 . S
C3342 H3313 0.950 . S
C3342 C3341 1.334 . S
C3342 C3343 1.287 . S
C3343 C3342 1.287 . S
C3343 C3344 1.524 . S
C3343 H3346 0.999 . S
C3344 H3314 0.950 . S
C3344 C3343 1.524 . S
C3344 C3345 1.415 . S
C3345 H3315 0.950 . S
C3345 C3340 1.363 . S
C3345 C3344 1.415 . S
H3346 C3343 0.999 . S
H3347 C3328 0.913 . S
H3348 C3366 0.951 . S
H3349 C3368 0.951 . S
H3350 C3370 0.950 . S
H3351 C3371 0.950 . S
H3352 C3373 0.950 . S
H3353 C3376 0.950 . S
H3354 C3377 0.950 . S
H3355 C3379 0.950 . S
H3356 C3380 0.950 . S
H3357 C3381 0.951 . S
H3358 C3383 0.951 . S
H3359 C3385 0.950 . S
H3360 C3386 0.950 . S
H3361 C3388 0.950 . S
H3362 C3391 0.950 . S
H3363 C3392 0.950 . S
H3364 C3394 0.950 . S
H3365 C3395 0.950 . S
C3366 H3348 0.951 . S
C3366 C3367 1.366 . S
C3366 C3368 1.388 . S
C3367 C3366 1.366 . S
C3367 C3371 1.385 . S
C3368 H3349 0.951 . S
C3368 C3366 1.388 . S
C3368 C3369 1.366 . S
C3369 C3368 1.366 . S
C3369 C3370 1.414 . S
C3369 C3372 1.499 . S
C3370 H3350 0.950 . S
C3370 C3369 1.414 . S
C3370 C3371 1.374 . S
C3371 H3351 0.950 . S
C3371 C3367 1.385 . S
C3371 C3370 1.374 . S
C3372 C3369 1.499 . S
C3372 C3373 1.373 . S
C3372 C3374 1.389 . S
C3373 H3352 0.950 . S
C3373 C3372 1.373 . S
C3373 C3389 1.377 . S
C3374 C3372 1.389 . S
C3374 C3375 1.524 . S
C3374 C3388 1.377 . S
C3375 C3374 1.524 . S
C3375 C3376 1.397 . S
C3375 C3380 1.363 . S
C3376 H3353 0.950 . S
C3376 C3375 1.397 . S
C3376 C3377 1.334 . S
C3377 H3354 0.950 . S
C3377 C3376 1.334 . S
C3377 C3378 1.287 . S
C3378 C3377 1.287 . S
C3378 C3379 1.524 . S
C3378 H3397 0.913 . S
C3379 H3355 0.950 . S
C3379 C3378 1.524 . S
C3379 C3380 1.415 . S
C3380 H3356 0.950 . S
C3380 C3375 1.363 . S
C3380 C3379 1.415 . S
C3381 H3357 0.951 . S
C3381 C3382 1.366 . S
C3381 C3383 1.388 . S
C3382 C3381 1.366 . S
C3382 C3386 1.385 . S
C3383 H3358 0.951 . S
C3383 C3381 1.388 . S
C3383 C3384 1.366 . S
C3384 C3383 1.366 . S
C3384 C3385 1.414 . S
C3384 C3387 1.499 . S
C3385 H3359 0.950 . S
C3385 C3384 1.414 . S
C3385 C3386 1.374 . S
C3386 H3360 0.950 . S
C3386 C3382 1.385 . S
C3386 C3385 1.374 . S
C3387 C3384 1.499 . S
C3387 C3388 1.373 . S
C3387 C3389 1.389 . S
C3388 H3361 0.950 . S
C3388 C3374 1.377 . S
C3388 C3387 1.373 . S
C3389 C3373 1.377 . S
C3389 C3387 1.389 . S
C3389 C3390 1.524 . S
C3390 C3389 1.524 . S
C3390 C3391 1.397 . S
C3390 C3395 1.363 . S
C3391 H3362 0.950 . S
C3391 C3390 1.397 . S
C3391 C3392 1.334 . S
C3392 H3363 0.950 . S
C3392 C3391 1.334 . S
C3392 C3393 1.287 . S
C3393 C3392 1.287 . S
C3393 C3394 1.524 . S
C3393 H3396 0.999 . S
C3394 H3364 0.950 . S
C3394 C3393 1.524 . S
C3394 C3395 1.415 . S
C3395 H3365 0.950 . S
C3395 C3390 1.363 . S
C3395 C3394 1.415 . S
H3396 C3393 0.999 . S
H3397 C3378 0.913 . S
H3398 C3416 0.951 . S
H3399 C3418 0.951 . S
H3400 C3420 0.950 . S
H3401 C3421 0.950 . S
H3402 C3423 0.950 . S
H3403 C3426 0.950 . S
H3404 C3427 0.950 . S
H3405 C3429 0.950 . S
H3406 C3430 0.950 . S
H3407 C3431 0.951 . S
H3408 C3433 0.951 . S
H3409 C3435 0.950 . S
H3410 C3436 0.950 . S
H3411 C3438 0.950 . S
H3412 C3441 0.950 . S
H3413 C3442 0.950 . S
H3414 C3444 0.950 . S
H3415 C3445 0.950 . S
C3416 H3398 0.951 . S
C3416 C3417 1.366 . S
C3416 C3418 1.388 . S
C3417 C3416 1.366 . S
C3417 C3421 1.385 . S
C3418 H3399 0.951 . S
C3418 C3416 1.388 . S
C3418 C3419 1.366 . S
C3419 C3418 1.366 . S
C3419 C3420 1.414 . S
C3419 C3422 1.499 . S
C3420 H3400 0.950 . S
C3420 C3419 1.414 . S
C3420 C3421 1.374 . S
C3421 H3401 0.950 . S
C3421 C3417 1.385 . S
C3421 C3420 1.374 . S
C3422 C3419 1.499 . S
C3422 C3423 1.373 . S
C3422 C3424 1.389 . S
C3423 H3402 0.950 . S
C3423 C3422 1.373 . S
C3423 C3439 1.377 . S
C3424 C3422 1.389 . S
C3424 C3425 1.524 . S
C3424 C3438 1.377 . S
C3425 C3424 1.524 . S
C3425 C3426 1.397 . S
C3425 C3430 1.363 . S
C3426 H3403 0.950 . S
C3426 C3425 1.397 . S
C3426 C3427 1.334 . S
C3427 H3404 0.950 . S
C3427 C3426 1.334 . S
C3427 C3428 1.287 . S
C3428 C3427 1.287 . S
C3428 C3429 1.524 . S
C3428 H3447 0.913 . S
C3429 H3405 0.950 . S
C3429 C3428 1.524 . S
C3429 C3430 1.415 . S
C3430 H3406 0.950 . S
C3430 C3425 1.363 . S
C3430 C3429 1.415 . S
C3431 H3407 0.951 . S
C3431 C3432 1.366 . S
C3431 C3433 1.388 . S
C3432 C3431 1.366 . S
C3432 C3436 1.385 . S
C3433 H3408 0.951 . S
C3433 C3431 1.388 . S
C3433 C3434 1.366 . S
C3434 C3433 1.366 . S
C3434 C3435 1.414 . S
C3434 C3437 1.499 . S
C3435 H3409 0.950 . S
C3435 C3434 1.414 . S
C3435 C3436 1.374 . S
C3436 H3410 0.950 . S
C3436 C3432 1.385 . S
C3436 C3435 1.374 . S
C3437 C3434 1.499 . S
C3437 C3438 1.373 . S
C3437 C3439 1.389 . S
C3438 H3411 0.950 . S
C3438 C3424 1.377 . S
C3438 C3437 1.373 . S
C3439 C3423 1.377 . S
C3439 C3437 1.389 . S
C3439 C3440 1.524 . S
C3440 C3439 1.524 . S
C3440 C3441 1.397 . S
C3440 C3445 1.363 . S
C3441 H3412 0.950 . S
C3441 C3440 1.397 . S
C3441 C3442 1.334 . S
C3442 H3413 0.950 . S
C3442 C3441 1.334 . S
C3442 C3443 1.287 . S
C3443 C3442 1.287 . S
C3443 C3444 1.524 . S
C3443 H3446 0.999 . S
C3444 H3414 0.950 . S
C3444 C3443 1.524 . S
C3444 C3445 1.415 . S
C3445 H3415 0.950 . S
C3445 C3440 1.363 . S
C3445 C3444 1.415 . S
H3446 C3443 0.999 . S
H3447 C3428 0.913 . S
H3448 C3466 0.951 . S
H3449 C3468 0.951 . S
H3450 C3470 0.950 . S
H3451 C3471 0.950 . S
H3452 C3473 0.950 . S
H3453 C3476 0.950 . S
H3454 C3477 0.950 . S
H3455 C3479 0.950 . S
H3456 C3480 0.950 . S
H3457 C3481 0.951 . S
H3458 C3483 0.951 . S
H3459 C3485 0.950 . S
H3460 C3486 0.950 . S
H3461 C3488 0.909 1_554 S
H3462 C3491 0.950 . S
H3463 C3492 0.950 . S
H3464 C3494 0.950 . S
H3465 C3495 0.950 . S
C3466 H3448 0.951 . S
C3466 C3467 1.366 . S
C3466 C3468 1.388 . S
C3467 C3466 1.366 . S
C3467 C3471 1.385 . S
C3468 H3449 0.951 . S
C3468 C3466 1.388 . S
C3468 C3469 1.366 . S
C3469 C3468 1.366 . S
C3469 C3470 1.414 . S
C3469 C3472 1.499 . S
C3470 H3450 0.950 . S
C3470 C3469 1.414 . S
C3470 C3471 1.374 . S
C3471 H3451 0.950 . S
C3471 C3467 1.385 . S
C3471 C3470 1.374 . S
C3472 C3469 1.499 . S
C3472 C3473 1.373 . S
C3472 C3474 1.389 . S
C3473 H3452 0.950 . S
C3473 C3472 1.373 . S
C3473 C3489 1.377 . S
C3474 C3472 1.389 . S
C3474 C3475 1.524 1_556 S
C3474 C3488 1.377 . S
C3475 C3474 1.524 1_554 S
C3475 C3476 1.397 . S
C3475 C3480 1.363 . S
C3476 H3453 0.950 . S
C3476 C3475 1.397 . S
C3476 C3477 1.334 . S
C3477 H3454 0.950 . S
C3477 C3476 1.334 . S
C3477 C3478 1.287 . S
C3478 C3477 1.287 . S
C3478 C3479 1.524 . S
C3478 H3497 0.913 . S
C3479 H3455 0.950 . S
C3479 C3478 1.524 . S
C3479 C3480 1.415 . S
C3480 H3456 0.950 . S
C3480 C3475 1.363 . S
C3480 C3479 1.415 . S
C3481 H3457 0.951 . S
C3481 C3482 1.366 . S
C3481 C3483 1.388 . S
C3482 C3481 1.366 . S
C3482 C3486 1.385 . S
C3483 H3458 0.951 . S
C3483 C3481 1.388 . S
C3483 C3484 1.366 . S
C3484 C3483 1.366 . S
C3484 C3485 1.414 . S
C3484 C3487 1.499 . S
C3485 H3459 0.950 . S
C3485 C3484 1.414 . S
C3485 C3486 1.374 . S
C3486 H3460 0.950 . S
C3486 C3482 1.385 . S
C3486 C3485 1.374 . S
C3487 C3484 1.499 . S
C3487 C3488 1.373 . S
C3487 C3489 1.389 . S
C3488 H3461 0.909 1_556 S
C3488 C3474 1.377 . S
C3488 C3487 1.373 . S
C3489 C3473 1.377 . S
C3489 C3487 1.389 . S
C3489 C3490 1.524 . S
C3490 C3489 1.524 . S
C3490 C3491 1.397 . S
C3490 C3495 1.363 . S
C3491 H3462 0.950 . S
C3491 C3490 1.397 . S
C3491 C3492 1.334 . S
C3492 H3463 0.950 . S
C3492 C3491 1.334 . S
C3492 C3493 1.287 . S
C3493 C3492 1.287 . S
C3493 C3494 1.524 . S
C3493 H3496 0.999 . S
C3494 H3464 0.950 . S
C3494 C3493 1.524 . S
C3494 C3495 1.415 . S
C3495 H3465 0.950 . S
C3495 C3490 1.363 . S
C3495 C3494 1.415 . S
H3496 C3493 0.999 . S
H3497 C3478 0.913 . S
H3498 C3516 0.951 . S
H3499 C3518 0.951 . S
H3500 C3520 0.950 . S
H3501 C3521 0.950 . S
H3502 C3523 0.950 . S
H3503 C3526 0.950 . S
H3504 C3527 0.950 . S
H3505 C3529 0.950 . S
H3506 C3530 0.950 . S
H3507 C3531 0.951 . S
H3508 C3533 0.951 . S
H3509 C3535 0.950 . S
H3510 C3536 0.950 . S
H3511 C3538 0.950 . S
H3512 C3541 0.950 . S
H3513 C3542 0.950 . S
H3514 C3544 0.950 . S
H3515 C3545 0.950 . S
C3516 H3498 0.951 . S
C3516 C3517 1.366 . S
C3516 C3518 1.388 . S
C3517 C3516 1.366 . S
C3517 C3521 1.385 . S
C3518 H3499 0.951 . S
C3518 C3516 1.388 . S
C3518 C3519 1.366 . S
C3519 C3518 1.366 . S
C3519 C3520 1.414 . S
C3519 C3522 1.499 . S
C3520 H3500 0.950 . S
C3520 C3519 1.414 . S
C3520 C3521 1.374 . S
C3521 H3501 0.950 . S
C3521 C3517 1.385 . S
C3521 C3520 1.374 . S
C3522 C3519 1.499 . S
C3522 C3523 1.373 . S
C3522 C3524 1.389 . S
C3523 H3502 0.950 . S
C3523 C3522 1.373 . S
C3523 C3539 1.377 . S
C3524 C3522 1.389 . S
C3524 C3525 1.524 . S
C3524 C3538 1.377 . S
C3525 C3524 1.524 . S
C3525 C3526 1.397 . S
C3525 C3530 1.363 . S
C3526 H3503 0.950 . S
C3526 C3525 1.397 . S
C3526 C3527 1.334 . S
C3527 H3504 0.950 . S
C3527 C3526 1.334 . S
C3527 C3528 1.287 . S
C3528 C3527 1.287 . S
C3528 C3529 1.524 . S
C3528 H3547 0.913 . S
C3529 H3505 0.950 . S
C3529 C3528 1.524 . S
C3529 C3530 1.415 . S
C3530 H3506 0.950 . S
C3530 C3525 1.363 . S
C3530 C3529 1.415 . S
C3531 H3507 0.951 . S
C3531 C3532 1.366 . S
C3531 C3533 1.388 . S
C3532 C3531 1.366 . S
C3532 C3536 1.385 . S
C3533 H3508 0.951 . S
C3533 C3531 1.388 . S
C3533 C3534 1.366 . S
C3534 C3533 1.366 . S
C3534 C3535 1.414 . S
C3534 C3537 1.499 . S
C3535 H3509 0.950 . S
C3535 C3534 1.414 . S
C3535 C3536 1.374 . S
C3536 H3510 0.950 . S
C3536 C3532 1.385 . S
C3536 C3535 1.374 . S
C3537 C3534 1.499 . S
C3537 C3538 1.373 . S
C3537 C3539 1.389 . S
C3538 H3511 0.950 . S
C3538 C3524 1.377 . S
C3538 C3537 1.373 . S
C3539 C3523 1.377 . S
C3539 C3537 1.389 . S
C3539 C3540 1.524 . S
C3540 C3539 1.524 . S
C3540 C3541 1.397 . S
C3540 C3545 1.363 . S
C3541 H3512 0.950 . S
C3541 C3540 1.397 . S
C3541 C3542 1.334 . S
C3542 H3513 0.950 . S
C3542 C3541 1.334 . S
C3542 C3543 1.287 . S
C3543 C3542 1.287 . S
C3543 C3544 1.524 . S
C3543 H3546 0.999 . S
C3544 H3514 0.950 . S
C3544 C3543 1.524 . S
C3544 C3545 1.415 . S
C3545 H3515 0.950 . S
C3545 C3540 1.363 . S
C3545 C3544 1.415 . S
H3546 C3543 0.999 . S
H3547 C3528 0.913 . S
H3548 C3566 0.951 . S
H3549 C3568 0.951 . S
H3550 C3570 0.950 . S
H3551 C3571 0.950 . S
H3552 C3573 0.950 . S
H3553 C3576 0.950 . S
H3554 C3577 0.950 . S
H3555 C3579 0.950 . S
H3556 C3580 0.950 . S
H3557 C3581 0.951 . S
H3558 C3583 0.951 . S
H3559 C3585 0.950 . S
H3560 C3586 0.950 . S
H3561 C3588 0.950 1_556 S
H3562 C3591 0.950 . S
H3563 C3592 0.950 . S
H3564 C3594 0.950 . S
H3565 C3595 0.950 . S
C3566 H3548 0.951 . S
C3566 C3567 1.366 . S
C3566 C3568 1.388 . S
C3567 C3566 1.366 . S
C3567 C3571 1.385 . S
C3568 H3549 0.951 . S
C3568 C3566 1.388 . S
C3568 C3569 1.366 . S
C3569 C3568 1.366 . S
C3569 C3570 1.414 . S
C3569 C3572 1.499 . S
C3570 H3550 0.950 . S
C3570 C3569 1.414 . S
C3570 C3571 1.374 . S
C3571 H3551 0.950 . S
C3571 C3567 1.385 . S
C3571 C3570 1.374 . S
C3572 C3569 1.499 . S
C3572 C3573 1.373 . S
C3572 C3574 1.389 . S
C3573 H3552 0.950 . S
C3573 C3572 1.373 . S
C3573 C3589 1.377 . S
C3574 C3572 1.389 . S
C3574 C3575 1.524 1_554 S
C3574 C3588 1.377 . S
C3575 C3574 1.524 1_556 S
C3575 C3576 1.397 . S
C3575 C3580 1.363 . S
C3576 H3553 0.950 . S
C3576 C3575 1.397 . S
C3576 C3577 1.334 . S
C3577 H3554 0.950 . S
C3577 C3576 1.334 . S
C3577 C3578 1.287 . S
C3578 C3577 1.287 . S
C3578 C3579 1.524 . S
C3578 H3597 0.913 . S
C3579 H3555 0.950 . S
C3579 C3578 1.524 . S
C3579 C3580 1.415 . S
C3580 H3556 0.950 . S
C3580 C3575 1.363 . S
C3580 C3579 1.415 . S
C3581 H3557 0.951 . S
C3581 C3582 1.366 . S
C3581 C3583 1.388 . S
C3582 C3581 1.366 . S
C3582 C3586 1.385 . S
C3583 H3558 0.951 . S
C3583 C3581 1.388 . S
C3583 C3584 1.366 . S
C3584 C3583 1.366 . S
C3584 C3585 1.414 . S
C3584 C3587 1.499 . S
C3585 H3559 0.950 . S
C3585 C3584 1.414 . S
C3585 C3586 1.374 . S
C3586 H3560 0.950 . S
C3586 C3582 1.385 . S
C3586 C3585 1.374 . S
C3587 C3584 1.499 . S
C3587 C3588 1.373 . S
C3587 C3589 1.389 . S
C3588 H3561 0.950 1_554 S
C3588 C3574 1.377 . S
C3588 C3587 1.373 . S
C3589 C3573 1.377 . S
C3589 C3587 1.389 . S
C3589 C3590 1.524 . S
C3590 C3589 1.524 . S
C3590 C3591 1.397 . S
C3590 C3595 1.363 . S
C3591 H3562 0.950 . S
C3591 C3590 1.397 . S
C3591 C3592 1.334 . S
C3592 H3563 0.950 . S
C3592 C3591 1.334 . S
C3592 C3593 1.287 . S
C3593 C3592 1.287 . S
C3593 C3594 1.524 . S
C3593 H3596 0.999 . S
C3594 H3564 0.950 . S
C3594 C3593 1.524 . S
C3594 C3595 1.415 . S
C3595 H3565 0.950 . S
C3595 C3590 1.363 . S
C3595 C3594 1.415 . S
H3596 C3593 0.999 . S
H3597 C3578 0.913 . S
H3598 C3616 0.951 . S
H3599 C3618 0.951 . S
H3600 C3620 0.950 . S
H3601 C3621 0.940 1_565 S
H3602 C3623 0.950 . S
H3603 C3626 0.950 1_554 S
H3604 C3627 0.950 . S
H3605 C3629 0.950 . S
H3606 C3630 0.950 . S
H3607 C3631 0.951 . S
H3608 C3633 0.951 . S
H3609 C3635 0.950 . S
H3610 C3636 0.950 . S
H3611 C3638 0.955 . S
H3612 C3641 0.950 . S
H3613 C3642 0.950 . S
H3614 C3644 0.950 . S
H3615 C3645 0.950 . S
C3616 H3598 0.951 . S
C3616 C3617 1.366 . S
C3616 C3618 1.388 . S
C3617 C3616 1.366 . S
C3617 C3621 1.385 . S
C3618 H3599 0.951 . S
C3618 C3616 1.388 . S
C3618 C3619 1.366 1_545 S
C3619 C3618 1.366 1_565 S
C3619 C3620 1.414 . S
C3619 C3622 1.499 . S
C3620 H3600 0.950 . S
C3620 C3619 1.414 . S
C3620 C3621 1.374 1_565 S
C3621 H3601 0.940 1_545 S
C3621 C3617 1.385 . S
C3621 C3620 1.374 1_545 S
C3622 C3619 1.499 . S
C3622 C3623 1.373 . S
C3622 C3624 1.389 . S
C3623 H3602 0.950 . S
C3623 C3622 1.373 . S
C3623 C3639 1.377 . S
C3624 C3622 1.389 . S
C3624 C3625 1.524 1_554 S
C3624 C3638 1.377 . S
C3625 C3624 1.524 1_556 S
C3625 C3626 1.397 . S
C3625 C3630 1.363 . S
C3626 H3603 0.950 1_556 S
C3626 C3625 1.397 . S
C3626 C3627 1.334 . S
C3627 H3604 0.950 . S
C3627 C3626 1.334 . S
C3627 C3628 1.287 . S
C3628 C3627 1.287 . S
C3628 C3629 1.524 . S
C3628 H3647 0.913 . S
C3629 H3605 0.950 . S
C3629 C3628 1.524 . S
C3629 C3630 1.415 . S
C3630 H3606 0.950 . S
C3630 C3625 1.363 . S
C3630 C3629 1.415 . S
C3631 H3607 0.951 . S
C3631 C3632 1.366 . S
C3631 C3633 1.388 . S
C3632 C3631 1.366 . S
C3632 C3636 1.385 . S
C3633 H3608 0.951 . S
C3633 C3631 1.388 . S
C3633 C3634 1.366 . S
C3634 C3633 1.366 . S
C3634 C3635 1.414 . S
C3634 C3637 1.499 . S
C3635 H3609 0.950 . S
C3635 C3634 1.414 . S
C3635 C3636 1.374 . S
C3636 H3610 0.950 . S
C3636 C3632 1.385 . S
C3636 C3635 1.374 . S
C3637 C3634 1.499 . S
C3637 C3638 1.373 . S
C3637 C3639 1.389 . S
C3638 H3611 0.955 . S
C3638 C3624 1.377 . S
C3638 C3637 1.373 . S
C3639 C3623 1.377 . S
C3639 C3637 1.389 . S
C3639 C3640 1.524 . S
C3640 C3639 1.524 . S
C3640 C3641 1.397 . S
C3640 C3645 1.363 . S
C3641 H3612 0.950 . S
C3641 C3640 1.397 . S
C3641 C3642 1.334 . S
C3642 H3613 0.950 . S
C3642 C3641 1.334 . S
C3642 C3643 1.287 . S
C3643 C3642 1.287 . S
C3643 C3644 1.524 . S
C3643 H3646 0.999 . S
C3644 H3614 0.950 . S
C3644 C3643 1.524 . S
C3644 C3645 1.415 . S
C3645 H3615 0.950 . S
C3645 C3640 1.363 . S
C3645 C3644 1.415 . S
H3646 C3643 0.999 . S
H3647 C3628 0.913 . S
C1282 C241 1.805 . S
C1267 C66 1.803 . S
C1332 C300 1.008 . S
C1317 C76 1.006 . S
C1367 C93 1.938 . S
C1382 C417 1.933 . S
C1432 C485 1.482 . S
C1417 C54 1.493 . S
C1482 C564 1.499 . S
C1467 C126 1.505 . S
C1532 C689 1.916 . S
C1517 C150 1.925 . S
C1567 C136 1.024 . S
C1582 C749 1.028 . S
C1632 C857 1.852 . S
C1617 C117 1.854 . S
C1667 C141 1.234 . S
C1682 C953 1.239 . S
C1732 C1013 1.279 . S
C1717 C112 1.274 . S
C1767 C124 1.579 . S
C1782 C916 1.582 . S
C1832 C1033 1.194 . S
C1817 C148 1.189 . S
C1867 C88 1.203 . S
C1882 C1101 1.206 . S
C1917 C52 1.661 . S
C1932 C1092 1.666 . S
C1967 C64 1.170 . S
C1982 C1121 1.172 . S
C2017 C78 1.120 . S
C2032 C1129 1.125 . S
C2067 C45 1.805 . S
C2082 C513 1.814 . S
C2117 C177 2.009 . S
C2132 C476 2.009 . S
C2182 C212 1.356 . S
C2167 C189 1.351 . S
C2232 C309 1.643 . S
C2217 C102 1.643 . S
C2267 C57 1.827 1_545 S
C2282 C573 1.838 . S
C2332 C865 1.437 . S
C2317 C138 1.435 . S
C2382 C593 1.911 . S
C2367 C114 1.916 1_545 S
C2432 C777 1.786 . S
C2417 C153 1.784 . S
C2482 C769 1.805 . S
C2467 C174 1.803 . S
C2517 C184 1.006 . S
C2532 C837 1.008 . S
C2567 C105 1.938 . S
C2582 C601 1.933 . S
C2632 C652 1.482 . S
C2617 C162 1.494 . S
C2667 C42 1.505 . S
C2682 C397 1.499 . S
C2732 C505 1.916 . S
C2717 C6 1.925 . S
C2782 C221 1.028 . S
C2767 C16 1.024 . S
C2832 C337 1.852 . S
C2817 C33 1.847 1_455 S
C2867 C21 1.235 . S
C2882 C1041 1.239 . S
C2917 C28 1.274 1_556 S
C2932 C925 1.279 . S
C2967 C40 1.579 . S
C2982 C1004 1.582 . S
C3017 C4 1.189 1_556 S
C3032 C945 1.194 . S
C3082 C1189 1.206 . S
C3067 C100 1.203 . S
C3132 C1180 1.666 . S
C3117 C160 1.661 1_554 S
C3182 C1209 1.172 . S
C3167 C172 1.170 . S
C3217 C186 1.120 . S
C3232 C1217 1.125 . S
C3267 C129 1.805 . S
C3282 C681 1.814 . S
C3332 C661 2.009 . S
C3317 C69 2.009 . S
C3382 C740 1.357 . S
C3367 C81 1.352 . S
C3432 C828 1.643 . S
C3417 C90 1.642 . S
C3467 C165 1.827 . S
C3482 C388 1.838 . S
C3532 C329 1.437 . S
C3517 C18 1.435 . S
C3567 C30 1.916 . S
C3582 C425 1.911 . S
C3632 C249 1.785 . S
C3617 C9 1.784 . S
