# Generated by pormake.
# Topology anh, (6,3)-cn, num edge types: 1
# Building blocks:
#     Node 0, Type 0, BuildingBlock: HISSIN_clean_sbu_0, # of connection points: 6
#     Node 1, Type 0, BuildingBlock: HISSIN_clean_sbu_0, # of connection points: 6
#     Node 2, Type 0, BuildingBlock: HISSIN_clean_sbu_0, # of connection points: 6
#     Node 3, Type 1, BuildingBlock: VETTIZ_charged_linker_0, # of connection points: 3
#     Node 4, Type 1, BuildingBlock: VETTIZ_charged_linker_0, # of connection points: 3
#     Node 5, Type 1, BuildingBlock: VETTIZ_charged_linker_0, # of connection points: 3
#     Node 6, Type 1, BuildingBlock: VETTIZ_charged_linker_0, # of connection points: 3
#     Node 7, Type 1, BuildingBlock: VETTIZ_charged_linker_0, # of connection points: 3
#     Node 8, Type 1, BuildingBlock: VETTIZ_charged_linker_0, # of connection points: 3
#     Edge 9, Type (0, 1), BuildingBlock: KIFKEQ_clean_linker_1, # of connection points: 2
#     Edge 10, Type (0, 1), BuildingBlock: KIFKEQ_clean_linker_1, # of connection points: 2
#     Edge 11, Type (0, 1), BuildingBlock: KIFKEQ_clean_linker_1, # of connection points: 2
#     Edge 12, Type (0, 1), BuildingBlock: KIFKEQ_clean_linker_1, # of connection points: 2
#     Edge 13, Type (0, 1), BuildingBlock: KIFKEQ_clean_linker_1, # of connection points: 2
#     Edge 14, Type (0, 1), BuildingBlock: KIFKEQ_clean_linker_1, # of connection points: 2
#     Edge 15, Type (0, 1), BuildingBlock: KIFKEQ_clean_linker_1, # of connection points: 2
#     Edge 16, Type (0, 1), BuildingBlock: KIFKEQ_clean_linker_1, # of connection points: 2
#     Edge 17, Type (0, 1), BuildingBlock: KIFKEQ_clean_linker_1, # of connection points: 2
#     Edge 18, Type (0, 1), BuildingBlock: KIFKEQ_clean_linker_1, # of connection points: 2
#     Edge 19, Type (0, 1), BuildingBlock: KIFKEQ_clean_linker_1, # of connection points: 2
#     Edge 20, Type (0, 1), BuildingBlock: KIFKEQ_clean_linker_1, # of connection points: 2
#     Edge 21, Type (0, 1), BuildingBlock: KIFKEQ_clean_linker_1, # of connection points: 2
#     Edge 22, Type (0, 1), BuildingBlock: KIFKEQ_clean_linker_1, # of connection points: 2
#     Edge 23, Type (0, 1), BuildingBlock: KIFKEQ_clean_linker_1, # of connection points: 2
#     Edge 24, Type (0, 1), BuildingBlock: KIFKEQ_clean_linker_1, # of connection points: 2
#     Edge 25, Type (0, 1), BuildingBlock: KIFKEQ_clean_linker_1, # of connection points: 2
#     Edge 26, Type (0, 1), BuildingBlock: KIFKEQ_clean_linker_1, # of connection points: 2
# Relax obj value: 0.238
# Max RMSD: 0.189
# Mean RMSD: 0.157
data_MOF--net-anh--node1-HISSIN_clean_sbu_0--node2-VETTIZ_charged_linker_0--edge1-KIFKEQ_clean_linker_1
_symmetry_space_group_name_H-M    P1
_symmetry_Int_Tables_number       1
_symmetry_cell_setting            triclinic
loop_
_symmetry_equiv_pos_as_xyz
'x, y, z'
_cell_length_a     37.244921
_cell_length_b     37.110691
_cell_length_c     67.635036
_cell_angle_alpha  92.519955
_cell_angle_beta   90.457021
_cell_angle_gamma 120.19529
loop_
_atom_site_label
_atom_site_type_symbol
_atom_site_fract_x
_atom_site_fract_y
_atom_site_fract_z
_atom_type_partial_charge
Eu0 Eu 1.05552 0.50439 0.16692 0.0
Eu1 Eu 0.10363 0.60338 0.17361 0.0
C2 C 1.0715 0.54653 0.21114 0.0
C3 C 0.95746 0.40644 0.16462 0.0
C4 C 0.94357 0.40633 0.18391 0.0
C5 C 0.89032 0.39237 0.15144 0.0
C6 C 0.90435 0.40125 0.18687 0.0
C7 C 0.92971 0.39751 0.14845 0.0
C8 C 0.87803 0.39595 0.17066 0.0
C9 C 1.00247 0.42538 0.1613 0.0
O10 O 0.15607 0.5864 0.17025 0.0
O11 O 0.12179 0.51477 0.16774 0.0
C12 C 0.15706 0.55101 0.16863 0.0
O13 O 0.08586 0.52768 0.13793 0.0
O14 O 0.14982 0.65735 0.19168 0.0
O15 O 0.12375 0.66643 0.16488 0.0
O16 O 0.09233 0.59207 0.14075 0.0
C17 C 0.09233 0.56193 0.13002 0.0
O18 O 1.00326 0.52166 0.16648 0.0
O19 O 1.03709 0.59258 0.17232 0.0
O20 O 1.07702 0.58059 0.20338 0.0
O21 O 1.01589 0.45072 0.14687 0.0
O22 O 1.02726 0.44093 0.17699 0.0
O23 O 1.06904 0.51557 0.19995 0.0
C24 C 0.19559 0.70934 0.17158 0.0
C25 C 0.20789 0.69741 0.15404 0.0
C26 C 0.26662 0.76456 0.17835 0.0
C27 C 0.24938 0.71905 0.14868 0.0
C28 C 0.2251 0.74323 0.18359 0.0
C29 C 0.27917 0.75233 0.16099 0.0
C30 C 0.15338 0.68353 0.17854 0.0
C31 C 1.00203 0.55673 0.16888 0.0
H32 H 0.96389 0.41284 0.19675 0.0
H33 H 0.87045 0.38786 0.13868 0.0
H34 H 0.89509 0.40271 0.20189 0.0
H35 H 0.93954 0.39747 0.13342 0.0
H36 H 0.18564 0.67071 0.14475 0.0
H37 H 0.28901 0.79057 0.18793 0.0
H38 H 0.25838 0.70902 0.13527 0.0
H39 H 0.21623 0.75248 0.19727 0.0
Eu40 Eu 0.62122 1.0351 0.5026 0.0
Eu41 Eu 0.57448 0.08717 0.50461 0.0
C42 C 0.59935 0.0611 0.54463 0.0
C43 C 0.63765 0.94678 0.48946 0.0
C44 C 0.59817 0.9275 0.47996 0.0
C45 C 0.63756 0.8816 0.48616 0.0
C46 C 0.57788 0.8851 0.47418 0.0
C47 C 0.65775 0.92401 0.49202 0.0
C48 C 0.59685 0.86143 0.47779 0.0
C49 C 0.6554 0.98913 0.49842 0.0
O50 O 0.64359 0.13904 0.50843 0.0
O51 O 0.67487 0.10242 0.49796 0.0
C52 C 0.67737 0.13868 0.50273 0.0
O53 O 0.58991 1.02621 0.47276 0.0
O54 O 0.56232 0.13381 0.51872 0.0
O55 O 0.53314 0.10443 0.49011 0.0
O56 O 0.60022 0.09135 0.47441 0.0
C57 C 0.59353 0.05824 0.46384 0.0
O58 O 0.55271 0.98313 0.50558 0.0
O59 O 0.51942 1.01939 0.49911 0.0
O60 O 0.57001 0.06414 0.53532 0.0
O61 O 0.66088 1.01764 0.48624 0.0
O62 O 0.63798 0.99185 0.51465 0.0
O63 O 0.62829 0.05869 0.53468 0.0
C64 C 0.56536 0.17745 0.49427 0.0
C65 C 0.5974 0.18629 0.48108 0.0
C66 C 0.58766 0.25118 0.49729 0.0
C67 C 0.62536 0.22727 0.47669 0.0
C68 C 0.55983 0.20997 0.50188 0.0
C69 C 0.6216 0.26017 0.4853 0.0
C70 C 0.54397 0.13623 0.50271 0.0
C71 C 0.51783 0.98337 0.5018 0.0
H72 H 0.58225 0.9448 0.47786 0.0
H73 H 0.65273 0.86406 0.48944 0.0
H74 H 0.54665 0.87042 0.46773 0.0
H75 H 0.68813 0.93848 0.49941 0.0
H76 H 0.60262 0.16183 0.47517 0.0
H77 H 0.58449 0.27621 0.50429 0.0
H78 H 0.65129 0.23347 0.46746 0.0
H79 H 0.53573 0.20386 0.51231 0.0
Eu80 Eu 0.5541 0.54843 0.83574 0.0
Eu81 Eu 0.6529 0.59605 0.84298 0.0
C82 C 0.59341 0.5686 0.88017 0.0
C83 C 0.45767 0.54014 0.81714 0.0
C84 C 0.48272 0.57388 0.80554 0.0
C85 C 0.40797 0.564 0.81925 0.0
C86 C 0.47145 0.60353 0.80164 0.0
C87 C 0.41937 0.53437 0.82322 0.0
C88 C 0.43501 0.6 0.80933 0.0
C89 C 0.47589 0.51776 0.82653 0.0
O90 O 0.63577 0.52687 0.84312 0.0
O91 O 0.56647 0.49287 0.83379 0.0
C92 C 0.60081 0.49174 0.838 0.0
O93 O 0.58435 0.57509 0.80709 0.0
O94 O 0.70789 0.61033 0.86081 0.0
O95 O 0.71469 0.63918 0.83279 0.0
O96 O 0.63941 0.56666 0.81228 0.0
C97 C 0.6143 0.57021 0.80009 0.0
O98 O 0.571 0.61751 0.84041 0.0
O99 O 0.64105 0.65001 0.83602 0.0
O100 O 0.62845 0.59726 0.87315 0.0
O101 O 0.50052 0.5103 0.81567 0.0
O102 O 0.49181 0.53287 0.84428 0.0
O103 O 0.56225 0.54201 0.86834 0.0
C104 C 0.75939 0.61371 0.84035 0.0
C105 C 0.7475 0.58592 0.82356 0.0
C106 C 0.81408 0.59899 0.8481 0.0
C107 C 0.76864 0.56459 0.81915 0.0
C108 C 0.79315 0.62057 0.85241 0.0
C109 C 0.80149 0.57025 0.83164 0.0
C110 C 0.73302 0.63055 0.84683 0.0
C111 C 0.60665 0.65208 0.83763 0.0
H112 H 0.51269 0.57927 0.80084 0.0
H113 H 0.37988 0.56065 0.82557 0.0
H114 H 0.49274 0.6308 0.79388 0.0
H115 H 0.39993 0.5089 0.83241 0.0
H116 H 0.72094 0.57955 0.81425 0.0
H117 H 0.83979 0.60431 0.85779 0.0
H118 H 0.75833 0.54252 0.80643 0.0
H119 H 0.80237 0.64147 0.86554 0.0
C120 C 0.60713 0.23376 0.20712 0.0
C121 C 0.61837 0.26866 0.22016 0.0
C122 C 0.60942 0.2622 0.24037 0.0
C123 C 0.58704 0.18881 0.2347 0.0
C124 C 0.59205 0.1945 0.21466 0.0
C125 C 0.58431 0.15573 0.203 0.0
H126 H 0.53033 0.95316 0.20142 0.0
C127 C 0.57741 0.14576 0.23798 0.0
C128 C 0.5756 0.12627 0.21943 0.0
H129 H 0.55085 1.02981 0.15162 0.0
H130 H 0.57218 0.09008 0.17397 0.0
H131 H 0.6146 1.02508 0.22755 0.0
H132 H 0.48431 0.98535 0.22679 0.0
H133 H 0.50157 0.99344 0.25172 0.0
H134 H 0.50451 0.95434 0.23621 0.0
H135 H 0.5768 0.97746 0.2379 0.0
H136 H 0.60127 1.02662 0.25227 0.0
C137 C 0.62452 0.16527 0.19217 0.0
C138 C 0.54561 0.14137 0.18914 0.0
C139 C 0.57276 0.0998 0.30796 0.0
C140 C 0.56763 0.06293 0.31562 0.0
C141 C 0.55921 1.02891 0.30242 0.0
C142 C 0.55708 1.03201 0.28191 0.0
C143 C 0.56344 0.06951 0.27449 0.0
C144 C 0.57062 0.10243 0.28747 0.0
C145 C 0.57714 0.14003 0.27695 0.0
C146 C 0.5732 0.12441 0.25549 0.0
C147 C 0.5654 0.08319 0.25416 0.0
C148 C 0.6215 0.17649 0.28259 0.0
C149 C 0.54187 0.14887 0.28242 0.0
C150 C 0.54081 0.98316 0.19525 0.0
C151 C 0.5386 0.98661 0.17468 0.0
C152 C 0.55181 1.02623 0.1674 0.0
C153 C 0.56379 0.06109 0.18042 0.0
C154 C 0.56262 1.05633 0.20096 0.0
C155 C 0.55263 1.01819 0.20805 0.0
C156 C 0.55266 1.01883 0.23032 0.0
C157 C 0.5624 0.06313 0.23536 0.0
C158 C 0.56808 0.08481 0.21813 0.0
C159 C 0.58787 1.01135 0.23755 0.0
C160 C 0.50866 0.98618 0.23676 0.0
H161 H 0.58935 0.21976 0.26335 0.0
H162 H 0.61391 0.23728 0.19155 0.0
H163 H 0.5225 0.14777 0.19636 0.0
H164 H 0.52851 0.10738 0.18551 0.0
H165 H 0.55429 0.15809 0.17519 0.0
H166 H 0.6527 0.18809 0.20116 0.0
H167 H 0.62581 0.17877 0.17768 0.0
H168 H 0.62805 0.13759 0.18979 0.0
H169 H 0.57859 0.12626 0.31772 0.0
H170 H 0.55533 1.00024 0.30793 0.0
H171 H 0.551 1.00521 0.27263 0.0
H172 H 0.64398 0.16509 0.28314 0.0
H173 H 0.62241 0.19116 0.2974 0.0
H174 H 0.63389 0.20089 0.27175 0.0
H175 H 0.5124 0.11935 0.28475 0.0
H176 H 0.53409 0.16348 0.27049 0.0
H177 H 0.54997 0.16897 0.29627 0.0
H178 H 0.61714 0.2884 0.25071 0.0
C179 C 0.59369 0.22239 0.2477 0.0
C180 C 0.59293 0.61838 0.52457 0.0
C181 C 0.5595 0.62199 0.53182 0.0
C182 C 0.54884 0.6134 0.55175 0.0
C183 C 0.6071 0.60264 0.55712 0.0
C184 C 0.61595 0.60853 0.53736 0.0
C185 C 0.65235 0.60371 0.53184 0.0
H186 H 0.78487 0.53978 0.5571 0.0
C187 C 0.63876 0.59558 0.56656 0.0
C188 C 0.66503 0.5957 0.55181 0.0
H189 H 0.74774 0.55721 0.49896 0.0
H190 H 0.71527 0.59214 0.51374 0.0
H191 H 0.79745 0.63084 0.57886 0.0
H192 H 0.6994 0.50199 0.57412 0.0
H193 H 0.7037 0.52127 0.5988 0.0
H194 H 0.74702 0.51985 0.58822 0.0
H195 H 0.79821 0.59224 0.59364 0.0
H196 H 0.7718 0.61986 0.60139 0.0
C197 C 0.68664 0.64552 0.5241 0.0
C198 C 0.63659 0.56559 0.51671 0.0
C199 C 0.63976 0.58182 0.64074 0.0
C200 C 0.66584 0.5763 0.65385 0.0
C201 C 0.69951 0.57337 0.64627 0.0
C202 C 0.70689 0.57564 0.62595 0.0
C203 C 0.68017 0.58063 0.61303 0.0
C204 C 0.64752 0.584 0.62053 0.0
C205 C 0.62291 0.59025 0.60473 0.0
C206 C 0.64641 0.59044 0.58651 0.0
C207 C 0.67971 0.58446 0.59141 0.0
C208 C 0.62615 0.63308 0.60926 0.0
C209 C 0.5779 0.55247 0.60397 0.0
C210 C 0.76985 0.55109 0.54745 0.0
C211 C 0.76744 0.5432 0.52671 0.0
C212 C 0.74995 0.56145 0.51492 0.0
C213 C 0.72985 0.58105 0.52355 0.0
C214 C 0.72626 0.58179 0.54412 0.0
C215 C 0.74785 0.5691 0.55587 0.0
C216 C 0.73849 0.57048 0.57747 0.0
C217 C 0.70512 0.58255 0.57632 0.0
C218 C 0.69829 0.58913 0.55673 0.0
C219 C 0.77848 0.60487 0.58857 0.0
C220 C 0.72145 0.52627 0.58524 0.0
H221 H 0.56349 0.59877 0.57953 0.0
H222 H 0.60253 0.62504 0.50947 0.0
H223 H 0.60215 0.5454 0.51638 0.0
H224 H 0.64826 0.54447 0.52049 0.0
H225 H 0.64551 0.57564 0.50142 0.0
H226 H 0.68952 0.67243 0.53337 0.0
H227 H 0.6793 0.64913 0.50862 0.0
H228 H 0.71778 0.64873 0.52476 0.0
H229 H 0.6141 0.58497 0.64611 0.0
H230 H 0.71989 0.56879 0.65605 0.0
H231 H 0.73281 0.57297 0.62104 0.0
H232 H 0.65844 0.65707 0.61412 0.0
H233 H 0.60524 0.63119 0.62129 0.0
H234 H 0.61893 0.64549 0.59624 0.0
H235 H 0.57711 0.5238 0.60879 0.0
H236 H 0.56382 0.5439 0.58881 0.0
H237 H 0.5576 0.55856 0.61382 0.0
H238 H 0.5228 0.61509 0.5577 0.0
C239 C 0.57255 0.60394 0.56443 0.0
C240 C 0.27579 0.69995 0.86457 0.0
C241 C 0.31375 0.72483 0.8751 0.0
C242 C 0.31359 0.72799 0.896 0.0
C243 C 0.23944 0.67793 0.89518 0.0
C244 C 0.23961 0.67666 0.87475 0.0
C245 C 0.19855 0.645 0.86528 0.0
H246 H 0.99578 0.50879 0.87379 0.0
C247 C 0.19711 0.64646 0.9009 0.0
C248 C 0.17331 0.6272 0.88335 0.0
H249 H 1.0652 0.54812 0.82028 0.0
H250 H 0.12885 0.58696 0.83976 0.0
H251 H 1.06393 0.49096 0.89633 0.0
H252 H 1.03943 0.59246 0.89755 0.0
H253 H 1.05027 0.58641 0.92212 0.0
H254 H 1.00632 0.54397 0.90864 0.0
H255 H 1.02196 0.48951 0.90978 0.0
H256 H 1.07348 0.51146 0.9209 0.0
C257 C 0.20429 0.61187 0.85305 0.0
C258 C 0.18243 0.66869 0.85307 0.0
C259 C 0.16201 0.619 0.97337 0.0
C260 C 0.12512 0.59125 0.98263 0.0
C261 C 0.08867 0.56646 0.97082 0.0
C262 C 0.08907 0.56821 0.95023 0.0
C263 C 0.12626 0.59519 0.94118 0.0
C264 C 0.16183 0.62049 0.95268 0.0
C265 C 0.1983 0.6475 0.94029 0.0
C266 C 0.17882 0.63341 0.91952 0.0
C267 C 0.13666 0.6026 0.92022 0.0
C268 C 0.23269 0.63654 0.94396 0.0
C269 C 0.21189 0.69372 0.94551 0.0
C270 C 1.02477 0.52456 0.86619 0.0
C271 C 1.02529 0.52586 0.8454 0.0
C272 C 1.06383 0.54723 0.83625 0.0
C273 C 0.10079 0.56998 0.84763 0.0
C274 C 0.0993 0.57122 0.86839 0.0
C275 C 1.06202 0.54735 0.87734 0.0
C276 C 1.06664 0.55186 0.89958 0.0
C277 C 0.11261 0.58375 0.90245 0.0
C278 C 0.13123 0.59531 0.88415 0.0
C279 C 1.05574 0.50883 0.90721 0.0
C280 C 1.03912 0.5693 0.90756 0.0
H281 H 0.27853 0.70745 0.92198 0.0
H282 H 0.27446 0.69538 0.8486 0.0
H283 H 0.18872 0.69809 0.86124 0.0
H284 H 0.14851 0.65101 0.85017 0.0
H285 H 0.19809 0.67719 0.83871 0.0
H286 H 0.23109 0.60967 0.85891 0.0
H287 H 0.20998 0.61965 0.83729 0.0
H288 H 0.17741 0.57988 0.85382 0.0
H289 H 0.19059 0.63844 0.98197 0.0
H290 H 1.05957 0.54567 0.97754 0.0
H291 H 1.06031 0.54838 0.94215 0.0
H292 H 0.21891 0.60226 0.94495 0.0
H293 H 0.25043 0.65197 0.95805 0.0
H294 H 0.25465 0.64507 0.93182 0.0
H295 H 0.18434 0.6974 0.94786 0.0
H296 H 0.22871 0.71444 0.93354 0.0
H297 H 0.23164 0.70538 0.95932 0.0
H298 H 0.34238 0.74691 0.90453 0.0
C299 C 0.27655 0.7048 0.9061 0.0
C300 C 0.98833 0.45196 0.48847 0.0
C301 C 0.95176 0.41778 0.47842 0.0
C302 C 0.94922 0.41847 0.45774 0.0
C303 C 1.0162 0.48336 0.45692 0.0
C304 C 1.02029 0.48488 0.47731 0.0
C305 C 1.06154 0.52507 0.48423 0.0
H306 H 0.23927 0.70551 0.45167 0.0
C307 C 1.05324 0.52011 0.44889 0.0
C308 C 1.08098 0.54598 0.46466 0.0
H309 H 0.21636 0.67891 0.51311 0.0
H310 H 0.15111 0.6129 0.50334 0.0
H311 H 0.21797 0.6166 0.43801 0.0
H312 H 0.14966 0.6812 0.43836 0.0
H313 H 0.13691 0.65286 0.41549 0.0
H314 H 0.19032 0.6915 0.42154 0.0
H315 H 0.22481 0.65286 0.41973 0.0
H316 H 0.18696 0.59787 0.41623 0.0
C317 C 0.08999 0.51308 0.49517 0.0
C318 C 1.05166 0.55347 0.49747 0.0
C319 C 1.05858 0.52804 0.37355 0.0
C320 C 0.08895 0.55536 0.36085 0.0
C321 C 0.12592 0.58919 0.36927 0.0
C322 C 0.13253 0.59591 0.38987 0.0
C323 C 0.10212 0.56824 0.40248 0.0
C324 C 1.06611 0.53483 0.3942 0.0
C325 C 1.03811 0.50776 0.40978 0.0
C326 C 1.06307 0.53053 0.42884 0.0
C327 C 0.10023 0.56617 0.42446 0.0
C328 C 1.03342 0.46386 0.40645 0.0
C329 C 0.9969 0.50861 0.40823 0.0
C330 C 0.22052 0.68645 0.46335 0.0
C331 C 0.23383 0.69922 0.48325 0.0
C332 C 0.20774 0.67102 0.49753 0.0
C333 C 0.16966 0.63269 0.49191 0.0
C334 C 0.15697 0.62125 0.47167 0.0
C335 C 0.1834 0.64862 0.45807 0.0
C336 C 0.16848 0.6333 0.43723 0.0
C337 C 0.12808 0.5931 0.43995 0.0
C338 C 0.11974 0.5843 0.46019 0.0
C339 C 0.20115 0.62493 0.42711 0.0
C340 C 0.16114 0.66631 0.42746 0.0
H341 H 0.97515 0.44733 0.4315 0.0
H342 H 0.99167 0.45319 0.50442 0.0
H343 H 1.03017 0.5609 0.48949 0.0
H344 H 1.08027 0.58327 0.50182 0.0
H345 H 1.03663 0.53786 0.51116 0.0
H346 H 0.09586 0.49163 0.48555 0.0
H347 H 1.0754 0.49706 0.50884 0.0
H348 H 0.12037 0.54107 0.49939 0.0
H349 H 1.02998 0.50146 0.36753 0.0
H350 H 0.14964 0.6109 0.35984 0.0
H351 H 0.16119 0.62268 0.3951 0.0
H352 H 1.06148 0.46585 0.3997 0.0
H353 H 1.00636 0.44316 0.39639 0.0
H354 H 1.03059 0.44832 0.42041 0.0
H355 H 1.00238 0.53898 0.40305 0.0
H356 H 0.98228 0.50585 0.42268 0.0
H357 H 0.97424 0.48365 0.39759 0.0
H358 H 0.92242 0.39371 0.44948 0.0
C359 C 0.98045 0.45021 0.44718 0.0
C360 C 0.60486 0.96326 0.82157 0.0
C361 C 0.60568 0.92886 0.81095 0.0
C362 C 0.60347 0.92834 0.79016 0.0
C363 C 0.60247 0.99378 0.7904 0.0
C364 C 0.60342 0.99575 0.81086 0.0
C365 C 0.60269 1.03572 0.81833 0.0
H366 H 0.61249 0.2217 0.78833 0.0
C367 C 0.60281 1.03134 0.78288 0.0
C368 C 0.60315 1.05736 0.79904 0.0
H369 H 0.59559 0.18551 0.84865 0.0
H370 H 0.59642 0.12072 0.83828 0.0
H371 H 0.67784 0.19547 0.77719 0.0
H372 H 0.54542 0.13706 0.7714 0.0
H373 H 0.55941 0.12042 0.74975 0.0
H374 H 0.57933 0.17547 0.75497 0.0
H375 H 0.6521 0.20906 0.75896 0.0
H376 H 0.66498 0.16879 0.75387 0.0
C377 C 0.64134 0.06395 0.83162 0.0
C378 C 0.56251 1.02279 0.82942 0.0
C379 C 0.60326 1.04344 0.70763 0.0
C380 C 0.6058 0.07462 0.6955 0.0
C381 C 0.61068 0.11167 0.7048 0.0
C382 C 0.61169 0.11712 0.72546 0.0
C383 C 0.60793 0.08534 0.73739 0.0
C384 C 0.60448 1.04959 0.72843 0.0
C385 C 0.60253 1.01999 0.7435 0.0
C386 C 0.60413 1.04334 0.76301 0.0
C387 C 0.60697 0.08141 0.75927 0.0
C388 C 0.64159 1.01545 0.74119 0.0
C389 C 0.5603 0.97876 0.74013 0.0
C390 C 0.60942 0.20063 0.79964 0.0
C391 C 0.60466 0.21031 0.81941 0.0
C392 C 0.59947 0.17991 0.83318 0.0
C393 C 0.59999 0.14222 0.82721 0.0
C394 C 0.60479 0.13352 0.80707 0.0
C395 C 0.60876 0.1631 0.79395 0.0
C396 C 0.61047 0.14997 0.77303 0.0
C397 C 0.60734 0.10802 0.77514 0.0
C398 C 0.60472 0.09698 0.79516 0.0
C399 C 0.65331 0.18246 0.76516 0.0
C400 C 0.57202 0.14571 0.76153 0.0
H401 H 0.60025 0.95579 0.76432 0.0
H402 H 0.60617 0.96524 0.83759 0.0
H403 H 0.53489 1.00148 0.81976 0.0
H404 H 0.55985 1.05031 0.83404 0.0
H405 H 0.56177 1.00628 0.84287 0.0
H406 H 0.67009 0.07227 0.82349 0.0
H407 H 0.64155 1.04782 0.84504 0.0
H408 H 0.64205 0.09327 0.83641 0.0
H409 H 0.59966 1.01455 0.70115 0.0
H410 H 0.61405 0.13691 0.69608 0.0
H411 H 0.61522 0.1461 0.73125 0.0
H412 H 0.66756 1.04322 0.73463 0.0
H413 H 0.63471 0.98773 0.73142 0.0
H414 H 0.65478 1.01355 0.75557 0.0
H415 H 0.53544 0.98511 0.73535 0.0
H416 H 0.54873 0.9616 0.75376 0.0
H417 H 0.56223 0.95786 0.72846 0.0
H418 H 0.60309 0.90303 0.78135 0.0
C419 C 0.60181 0.95965 0.7801 0.0
C420 C 0.68651 0.55267 0.15609 0.0
C421 C 0.7205 0.5529 0.14562 0.0
C422 C 0.71951 0.55533 0.12498 0.0
C423 C 0.65403 0.55587 0.12496 0.0
C424 C 0.65319 0.55399 0.14532 0.0
C425 C 0.61304 0.5531 0.15253 0.0
H426 H 0.43244 0.55755 0.1209 0.0
C427 C 0.61627 0.55604 0.11727 0.0
C428 C 0.59089 0.5545 0.13318 0.0
H429 H 0.46057 0.55055 0.18195 0.0
H430 H 0.52482 0.55036 0.17208 0.0
H431 H 0.52084 0.62299 0.109 0.0
H432 H 0.45047 0.48934 0.10575 0.0
H433 H 0.47909 0.50176 0.08421 0.0
H434 H 0.4425 0.51962 0.08818 0.0
H435 H 0.47851 0.59313 0.09146 0.0
H436 H 0.53123 0.60793 0.08584 0.0
C437 C 0.62499 0.5916 0.16643 0.0
C438 C 0.58576 0.51248 0.16289 0.0
C439 C 0.60191 0.56064 0.04225 0.0
C440 C 0.57068 0.55908 0.02962 0.0
C441 C 0.53496 0.55588 0.03837 0.0
C442 C 0.53081 0.55519 0.05895 0.0
C443 C 0.56228 0.55695 0.07134 0.0
C444 C 0.59679 0.55914 0.06286 0.0
C445 C 0.62628 0.5591 0.07818 0.0
C446 C 0.60402 0.55699 0.09736 0.0
C447 C 0.5668 0.55616 0.09323 0.0
C448 C 0.668 0.601 0.07734 0.0
C449 C 0.62916 0.51915 0.07382 0.0
C450 C 0.45211 0.55655 0.13248 0.0
C451 C 0.44056 0.55494 0.15229 0.0
C452 C 0.4678 0.55209 0.16643 0.0
C453 C 0.50526 0.55211 0.16076 0.0
C454 C 0.51606 0.55421 0.14058 0.0
C455 C 0.48847 0.55583 0.12713 0.0
C456 C 0.50094 0.55576 0.1063 0.0
C457 C 0.54118 0.55539 0.10885 0.0
C458 C 0.55183 0.55446 0.12899 0.0
C459 C 0.50804 0.59678 0.0975 0.0
C460 C 0.46656 0.51481 0.09539 0.0
H461 H 0.6903 0.55881 0.0992 0.0
H462 H 0.68554 0.55076 0.17201 0.0
H463 H 0.57819 0.48494 0.15279 0.0
H464 H 0.55615 0.51023 0.16733 0.0
H465 H 0.60214 0.51103 0.17637 0.0
H466 H 0.64539 0.6207 0.15884 0.0
H467 H 0.64199 0.59117 0.17991 0.0
H468 H 0.597 0.59255 0.17107 0.0
H469 H 0.63003 0.56336 0.03634 0.0
H470 H 0.50962 0.55337 0.02933 0.0
H471 H 0.50298 0.55331 0.06432 0.0
H472 H 0.66269 0.62665 0.07313 0.0
H473 H 0.68864 0.59856 0.06627 0.0
H474 H 0.6849 0.61214 0.09185 0.0
H475 H 0.60031 0.49373 0.0662 0.0
H476 H 0.63215 0.50526 0.08744 0.0
H477 H 0.65544 0.52549 0.06415 0.0
H478 H 0.74422 0.55598 0.11635 0.0
C479 C 0.68748 0.55695 0.11487 0.0
H480 H 0.23692 0.61844 0.16326 0.0
H481 H 0.1748 0.48627 0.1711 0.0
H482 H 0.30335 0.62019 0.16079 0.0
H483 H 0.24133 0.48795 0.16875 0.0
H484 H 0.37582 0.50811 0.17818 0.0
H485 H 0.30969 0.50707 0.18264 0.0
H486 H 0.3467 0.60369 0.14128 0.0
H487 H 0.41206 0.60462 0.13692 0.0
C488 C 0.23708 0.58953 0.16452 0.0
C489 C 0.19922 0.55218 0.1674 0.0
C490 C 0.27577 0.59046 0.16297 0.0
C491 C 0.27918 0.5542 0.16448 0.0
C492 C 0.24132 0.51694 0.16764 0.0
C493 C 0.2025 0.51591 0.16889 0.0
C494 C 0.37025 0.52957 0.17019 0.0
C495 C 0.40053 0.55645 0.15712 0.0
C496 C 0.3316 0.5287 0.17258 0.0
C497 C 0.32136 0.55523 0.16235 0.0
C498 C 0.35226 0.58276 0.14973 0.0
C499 C 0.39035 0.58313 0.1471 0.0
H500 H 0.75494 0.15299 0.49032 0.0
H501 H 0.69584 0.22071 0.51158 0.0
H502 H 0.81993 0.21896 0.487 0.0
H503 H 0.76111 0.2866 0.50893 0.0
H504 H 0.87201 0.40321 0.48283 0.0
H505 H 0.80853 0.3382 0.48921 0.0
H506 H 0.88108 0.27928 0.49921 0.0
H507 H 0.94461 0.34473 0.49244 0.0
C508 C 0.75556 0.18181 0.49447 0.0
C509 C 0.71891 0.18028 0.50125 0.0
C510 C 0.79352 0.22032 0.49265 0.0
C511 C 0.79719 0.25971 0.49748 0.0
C512 C 0.76054 0.25797 0.50449 0.0
C513 C 0.72258 0.21952 0.50625 0.0
C514 C 0.87481 0.37692 0.4871 0.0
C515 C 0.91462 0.38077 0.48781 0.0
C516 C 0.83779 0.33887 0.49068 0.0
C517 C 0.83811 0.30188 0.49488 0.0
C518 C 0.87818 0.30599 0.49593 0.0
C519 C 0.91532 0.34429 0.49243 0.0
H520 H 0.54434 0.67231 0.84398 0.0
H521 H 0.67201 0.72961 0.82752 0.0
H522 H 0.54607 0.73851 0.84063 0.0
H523 H 0.67401 0.79561 0.82411 0.0
H524 H 0.66266 0.90467 0.80207 0.0
H525 H 0.66303 0.8414 0.80891 0.0
H526 H 0.55762 0.80468 0.84597 0.0
H527 H 0.55668 0.86834 0.83822 0.0
C528 C 0.57298 0.6989 0.83958 0.0
C529 C 0.60792 0.69425 0.83593 0.0
C530 C 0.57403 0.73764 0.83762 0.0
C531 C 0.60982 0.77409 0.83153 0.0
C532 C 0.64497 0.76932 0.82824 0.0
C533 C 0.64404 0.73076 0.8304 0.0
C534 C 0.63986 0.88367 0.81204 0.0
C535 C 0.61007 0.89321 0.81969 0.0
C536 C 0.64004 0.8465 0.8161 0.0
C537 C 0.61039 0.8159 0.82819 0.0
C538 C 0.5811 0.826 0.8364 0.0
C539 C 0.58091 0.86352 0.83223 0.0
H540 H 0.92172 0.4885 0.16203 0.0
H541 H 0.98435 0.62196 0.17227 0.0
H542 H 0.8552 0.48599 0.15924 0.0
H543 H 0.91783 0.61988 0.16911 0.0
H544 H 0.78821 0.60888 0.17102 0.0
H545 H 0.8536 0.60962 0.17766 0.0
H546 H 0.80508 0.49236 0.14373 0.0
H547 H 0.74027 0.49161 0.13777 0.0
C548 C 0.92164 0.51761 0.16369 0.0
C549 C 0.95975 0.55545 0.16742 0.0
C550 C 0.88273 0.51626 0.16195 0.0
C551 C 0.87921 0.5527 0.16383 0.0
C552 C 0.9175 0.59058 0.16773 0.0
C553 C 0.95647 0.59189 0.16945 0.0
C554 C 0.79087 0.58248 0.16557 0.0
C555 C 0.75733 0.54954 0.15426 0.0
C556 C 0.8293 0.58322 0.16903 0.0
C557 C 0.83659 0.55117 0.16127 0.0
C558 C 0.80229 0.51777 0.15046 0.0
C559 C 0.76419 0.51713 0.14702 0.0
H560 H 0.49988 0.90194 0.50832 0.0
H561 H 0.43849 0.96856 0.49147 0.0
H562 H 0.43338 0.83601 0.50527 0.0
H563 H 0.3721 0.90292 0.48847 0.0
H564 H 0.26306 0.77466 0.46543 0.0
H565 H 0.32874 0.83994 0.47018 0.0
H566 H 0.36504 0.78813 0.51684 0.0
H567 H 0.29869 0.72188 0.51182 0.0
C568 C 0.47232 0.90291 0.50404 0.0
C569 C 0.47575 0.9418 0.50022 0.0
C570 C 0.43353 0.86452 0.50235 0.0
C571 C 0.3959 0.86265 0.49652 0.0
C572 C 0.3995 0.90167 0.49273 0.0
C573 C 0.43816 0.94003 0.4946 0.0
C574 C 0.28474 0.77669 0.47679 0.0
C575 C 0.27432 0.74159 0.48809 0.0
C576 C 0.323 0.815 0.47968 0.0
C577 C 0.35374 0.82082 0.49396 0.0
C578 C 0.34326 0.78587 0.50548 0.0
C579 C 0.30449 0.74746 0.50274 0.0
H580 H 0.53412 0.40888 0.8354 0.0
H581 H 0.6679 0.47812 0.8369 0.0
H582 H 0.53517 0.34311 0.83256 0.0
H583 H 0.66901 0.41275 0.83382 0.0
H584 H 0.6584 0.28968 0.80699 0.0
H585 H 0.65695 0.35449 0.8119 0.0
H586 H 0.54994 0.2921 0.84792 0.0
H587 H 0.55174 0.22677 0.84307 0.0
C588 C 0.56393 0.41043 0.83515 0.0
C589 C 0.6009 0.44999 0.83645 0.0
C590 C 0.56456 0.37218 0.83361 0.0
C591 C 0.6022 0.37127 0.83286 0.0
C592 C 0.63909 0.41093 0.8341 0.0
C593 C 0.63846 0.44904 0.83601 0.0
C594 C 0.63457 0.28944 0.81615 0.0
C595 C 0.60533 0.25183 0.82462 0.0
C596 C 0.63383 0.32728 0.81907 0.0
C597 C 0.60327 0.32991 0.83036 0.0
C598 C 0.574 0.29233 0.83897 0.0
C599 C 0.57528 0.25446 0.83635 0.0
H600 H 0.62099 0.80755 0.46276 0.0
H601 H 0.51788 0.81112 0.4896 0.0
H602 H 0.59059 0.73461 0.47037 0.0
H603 H 0.48708 0.73792 0.49684 0.0
H604 H 0.53341 0.67597 0.54402 0.0
H605 H 0.52255 0.72154 0.52366 0.0
H606 H 0.53394 0.65855 0.47095 0.0
H607 H 0.54298 0.61095 0.49146 0.0
C608 C 0.59102 0.79225 0.46957 0.0
C609 C 0.57241 0.81525 0.47607 0.0
C610 C 0.5733 0.7503 0.47373 0.0
C611 C 0.53684 0.73088 0.48456 0.0
C612 C 0.51543 0.75234 0.48867 0.0
C613 C 0.53308 0.79426 0.48445 0.0
C614 C 0.53149 0.6701 0.52812 0.0
C615 C 0.54036 0.64046 0.51945 0.0
C616 C 0.52521 0.69644 0.51636 0.0
C617 C 0.52815 0.69406 0.4957 0.0
C618 C 0.53211 0.66137 0.48687 0.0
C619 C 0.5377 0.63445 0.49865 0.0
H620 H 0.83157 0.55792 0.7968 0.0
H621 H 0.81781 0.52723 0.85813 0.0
H622 H 0.8762 0.52745 0.79243 0.0
H623 H 0.86273 0.49783 0.85403 0.0
H624 H 0.94868 0.45602 0.84953 0.0
H625 H 0.88224 0.44906 0.83951 0.0
H626 H 0.94709 0.55906 0.80585 0.0
H627 H 1.01268 0.56608 0.81579 0.0
C628 C 0.83731 0.54375 0.80919 0.0
C629 C 0.82233 0.54582 0.82794 0.0
C630 C 0.86276 0.52631 0.8067 0.0
C631 C 0.87334 0.51058 0.82291 0.0
C632 C 0.85499 0.50926 0.84116 0.0
C633 C 0.82983 0.5268 0.84364 0.0
C634 C 0.94853 0.47783 0.83945 0.0
C635 C 0.98599 0.51234 0.83399 0.0
C636 C 0.91052 0.47377 0.83367 0.0
C637 C 0.90953 0.50421 0.82239 0.0
C638 C 0.94663 0.53503 0.81456 0.0
C639 C 0.98452 0.5391 0.82033 0.0
H640 H 0.31258 0.78465 0.12571 0.0
H641 H 0.34526 0.77004 0.18498 0.0
H642 H 0.38594 0.83342 0.11993 0.0
H643 H 0.41785 0.81894 0.17953 0.0
H644 H 0.541 0.91373 0.17468 0.0
H645 H 0.48372 0.84513 0.16334 0.0
H646 H 0.42423 0.90416 0.13462 0.0
H647 H 0.48083 0.9719 0.14579 0.0
C648 C 0.33562 0.79101 0.13728 0.0
C649 C 0.32343 0.77463 0.15596 0.0
C650 C 0.37753 0.81886 0.13399 0.0
C651 C 0.40772 0.8305 0.14932 0.0
C652 C 0.39565 0.81056 0.16729 0.0
C653 C 0.35393 0.78301 0.17058 0.0
C654 C 0.51641 0.91196 0.16529 0.0
C655 C 0.5147 0.94812 0.16173 0.0
C656 C 0.48367 0.87271 0.15877 0.0
C657 C 0.44878 0.86918 0.14868 0.0
C658 C 0.45046 0.9056 0.14243 0.0
C659 C 0.48315 0.94475 0.14891 0.0
H660 H 0.70244 0.28876 0.49467 0.0
H661 H 0.61842 0.32892 0.47496 0.0
H662 H 0.75752 0.36166 0.50058 0.0
H663 H 0.67393 0.4019 0.48022 0.0
H664 H 0.76043 0.47505 0.54514 0.0
H665 H 0.74034 0.40826 0.52917 0.0
H666 H 0.76013 0.46077 0.47201 0.0
H667 H 0.785 0.52987 0.48795 0.0
C668 C 0.69641 0.31325 0.49083 0.0
C669 C 0.65633 0.3035 0.4845 0.0
C670 C 0.72789 0.35477 0.49412 0.0
C671 C 0.71995 0.38708 0.4906 0.0
C672 C 0.6809 0.37735 0.48266 0.0
C673 C 0.6491 0.33579 0.47985 0.0
C674 C 0.76326 0.47384 0.52927 0.0
C675 C 0.7724 0.50826 0.5179 0.0
C676 C 0.75136 0.43495 0.52009 0.0
C677 C 0.74761 0.42942 0.49942 0.0
C678 C 0.76216 0.4644 0.48803 0.0
C679 C 0.77573 0.50383 0.49725 0.0
H680 H 0.4932 0.67982 0.82021 0.0
H681 H 0.36377 0.60276 0.80247 0.0
H682 H 0.48018 0.73485 0.83283 0.0
H683 H 0.351 0.65813 0.81466 0.0
H684 H 0.33233 0.75686 0.8382 0.0
H685 H 0.37496 0.74295 0.81539 0.0
H686 H 0.42747 0.71211 0.86437 0.0
H687 H 0.38304 0.72281 0.88691 0.0
C688 C 0.46243 0.67544 0.8182 0.0
C689 C 0.42934 0.63678 0.81074 0.0
C690 C 0.4551 0.70693 0.82539 0.0
C691 C 0.41473 0.70054 0.82475 0.0
C692 C 0.38257 0.66392 0.81512 0.0
C693 C 0.38974 0.63209 0.80831 0.0
C694 C 0.35412 0.74861 0.84422 0.0
C695 C 0.35272 0.73882 0.86421 0.0
C696 C 0.37863 0.74093 0.83114 0.0
C697 C 0.40354 0.72552 0.83813 0.0
C698 C 0.40827 0.72383 0.85863 0.0
C699 C 0.38281 0.7302 0.87162 0.0
H700 H 0.8643 0.44723 0.19565 0.0
H701 H 0.80202 0.34229 0.15312 0.0
H702 H 0.79724 0.43746 0.20559 0.0
H703 H 0.7352 0.33216 0.16312 0.0
H704 H 0.61866 0.30197 0.18445 0.0
H705 H 0.68218 0.35211 0.16885 0.0
H706 H 0.74933 0.38038 0.22504 0.0
H707 H 0.68694 0.33044 0.24037 0.0
C708 C 0.83624 0.42242 0.18825 0.0
C709 C 0.83818 0.39467 0.17404 0.0
C710 C 0.79794 0.41714 0.19379 0.0
C711 C 0.76086 0.38372 0.18537 0.0
C712 C 0.76311 0.35853 0.1698 0.0
C713 C 0.80144 0.364 0.16417 0.0
C714 C 0.64668 0.3202 0.19361 0.0
C715 C 0.64816 0.31078 0.21343 0.0
C716 C 0.68304 0.3489 0.18466 0.0
C717 C 0.72106 0.36889 0.19553 0.0
C718 C 0.7207 0.36523 0.21613 0.0
C719 C 0.68454 0.33638 0.22502 0.0
H720 H 0.09894 0.62485 0.10801 0.0
H721 H 0.10334 0.51058 0.10359 0.0
H722 H 0.10979 0.63242 0.07268 0.0
H723 H 0.11553 0.51889 0.06831 0.0
H724 H 0.0845 0.52013 0.00285 0.0
H725 H 1.07854 0.51394 0.03842 0.0
H726 H 0.15969 0.64738 0.04754 0.0
H727 H 0.16378 0.65383 0.01177 0.0
C728 C 0.10254 0.60148 0.09953 0.0
C729 C 0.09995 0.56692 0.10861 0.0
C730 C 0.10913 0.60603 0.07927 0.0
C731 C 0.11353 0.57628 0.06762 0.0
C732 C 0.11162 0.54206 0.07678 0.0
C733 C 0.10477 0.53736 0.09703 0.0
C734 C 0.10081 0.54824 0.01242 0.0
C735 C 0.12421 0.58755 0.00443 0.0
C736 C 0.09789 0.54461 0.03286 0.0
C737 C 0.11856 0.58016 0.04588 0.0
C738 C 0.14288 0.61941 0.03793 0.0
C739 C 0.14565 0.62307 0.01742 0.0
H740 H 0.57831 0.99432 0.43688 0.0
H741 H 0.60121 0.12079 0.44149 0.0
H742 H 0.57292 0.99413 0.40079 0.0
H743 H 0.59516 0.12027 0.4057 0.0
H744 H 0.51963 0.99793 0.33882 0.0
H745 H 0.52669 0.99541 0.37463 0.0
H746 H 0.63369 0.11995 0.37684 0.0
H747 H 0.62663 0.12246 0.34119 0.0
C748 C 0.58215 1.022 0.43022 0.0
C749 C 0.59032 0.0576 0.44203 0.0
C750 C 0.57884 1.0218 0.40958 0.0
C751 C 0.5838 1.05725 0.40041 0.0
C752 C 0.59186 0.09272 0.41229 0.0
C753 C 0.59508 0.0929 0.43283 0.0
C754 C 0.54486 1.02457 0.34696 0.0
C755 C 0.57231 0.06056 0.33723 0.0
C756 C 0.54894 1.02311 0.36744 0.0
C757 C 0.58056 0.0576 0.37856 0.0
C758 C 0.60851 0.09318 0.36874 0.0
C759 C 0.60442 0.09465 0.34832 0.0
H760 H 0.67381 0.56075 0.7814 0.0
H761 H 0.56965 0.57888 0.7702 0.0
H762 H 0.6856 0.56106 0.74609 0.0
H763 H 0.58199 0.57984 0.73476 0.0
H764 H 0.59108 0.5347 0.67161 0.0
H765 H 0.57795 0.53271 0.70693 0.0
H766 H 0.70974 0.61086 0.71995 0.0
H767 H 0.72287 0.61299 0.68464 0.0
C768 C 0.65347 0.56492 0.77141 0.0
C769 C 0.62083 0.56991 0.7786 0.0
C770 C 0.6604 0.56531 0.75117 0.0
C771 C 0.63486 0.57065 0.73766 0.0
C772 C 0.60196 0.57526 0.74482 0.0
C773 C 0.59502 0.57493 0.76511 0.0
C774 C 0.61722 0.55168 0.68202 0.0
C775 C 0.65803 0.57405 0.67535 0.0
C776 C 0.60968 0.55055 0.70223 0.0
C777 C 0.64279 0.57168 0.7162 0.0
C778 C 0.68362 0.5938 0.70954 0.0
C779 C 0.69116 0.59497 0.68933 0.0
H780 H 0.538 1.05236 0.56936 0.0
H781 H 0.66097 0.06798 0.56997 0.0
H782 H 0.53794 1.05178 0.60526 0.0
H783 H 0.66167 0.06903 0.6061 0.0
H784 H 0.63782 1.03667 0.67104 0.0
H785 H 0.63492 1.03043 0.63486 0.0
H786 H 0.56668 0.09616 0.63356 0.0
H787 H 0.56738 0.10005 0.6694 0.0
C788 C 0.56523 1.05598 0.57715 0.0
C789 C 0.59958 0.06046 0.56668 0.0
C790 C 0.56532 1.05589 0.59786 0.0
C791 C 0.59996 0.06075 0.60882 0.0
C792 C 0.63418 0.06471 0.5983 0.0
C793 C 0.63392 0.06442 0.57751 0.0
C794 C 0.62163 1.0492 0.66303 0.0
C795 C 0.60311 0.06915 0.67331 0.0
C796 C 0.62044 1.04613 0.64221 0.0
C797 C 0.60067 0.06289 0.63107 0.0
C798 C 0.58175 0.08231 0.64143 0.0
C799 C 0.58273 0.08515 0.66214 0.0
H800 H 0.52246 0.53628 0.90156 0.0
H801 H 0.65597 0.59528 0.9082 0.0
H802 H 0.51717 0.53378 0.93768 0.0
H803 H 0.65046 0.59175 0.94416 0.0
H804 H 0.61035 0.52876 0.00547 0.0
H805 H 0.61614 0.53098 0.96955 0.0
H806 H 0.54439 0.59262 0.96731 0.0
H807 H 0.54059 0.59305 0.00321 0.0
C808 C 0.5506 0.54847 0.91069 0.0
C809 C 0.58963 0.56614 0.902 0.0
C810 C 0.54758 0.54715 0.93135 0.0
C811 C 0.58342 0.56252 0.94371 0.0
C812 C 0.62233 0.57948 0.935 0.0
C813 C 0.62544 0.58169 0.91441 0.0
C814 C 0.59637 0.54352 0.99749 0.0
C815 C 0.57478 0.56053 0.00754 0.0
C816 C 0.59946 0.54444 0.97683 0.0
C817 C 0.58038 0.56163 0.96563 0.0
C818 C 0.55883 0.57857 0.97554 0.0
C819 C 0.55648 0.5785 0.99619 0.0
H820 H 0.08497 0.49467 0.23375 0.0
H821 H 1.05424 0.59244 0.2382 0.0
H822 H 0.08636 0.49338 0.2699 0.0
H823 H 1.05494 0.59053 0.27432 0.0
H824 H 1.02243 0.54444 0.33826 0.0
H825 H 1.01502 0.5394 0.30196 0.0
H826 H 0.13416 0.54699 0.29775 0.0
H827 H 0.14181 0.55269 0.33392 0.0
C828 C 1.07805 0.51555 0.2424 0.0
C829 C 1.06964 0.54377 0.23304 0.0
C830 C 1.07903 0.51492 0.26312 0.0
C831 C 1.07078 0.54186 0.27496 0.0
C832 C 1.06115 0.56919 0.2656 0.0
C833 C 1.06097 0.57041 0.2449 0.0
C834 C 1.04679 0.54462 0.32954 0.0
C835 C 1.08274 0.54905 0.33891 0.0
C836 C 1.04269 0.54201 0.30879 0.0
C837 C 1.07403 0.54282 0.297 0.0
C838 C 0.10937 0.546 0.30642 0.0
C839 C 0.11384 0.54947 0.32711 0.0
loop_
_geom_bond_atom_site_label_1
_geom_bond_atom_site_label_2
_geom_bond_distance
_geom_bond_site_symmetry_2
_ccdc_geom_bond_type
Eu0 C9 2.828 . S
Eu0 O11 2.392 1_655 S
Eu0 O13 2.418 . S
Eu0 O18 2.373 . S
Eu0 O21 2.488 . S
Eu0 O22 2.471 . S
Eu0 O23 2.349 . S
Eu1 O10 2.373 . S
Eu1 O14 2.488 . S
Eu1 O15 2.471 . S
Eu1 O16 2.349 . S
Eu1 O19 2.392 1_455 S
Eu1 O20 2.418 . S
Eu1 C30 2.828 . S
C2 O20 1.244 . S
C2 O23 1.265 1_455 S
C3 C4 1.379 . S
C3 C7 1.373 . S
C3 C9 1.505 . S
C4 C3 1.379 . S
C4 C6 1.369 . S
C4 H32 0.930 . S
C5 C7 1.383 . S
C5 C8 1.382 . S
C5 H33 0.930 . S
C6 C4 1.369 . S
C6 C8 1.392 . S
C6 H34 0.930 . S
C7 C3 1.373 . S
C7 C5 1.383 . S
C7 H35 0.931 . S
C8 C5 1.382 . S
C8 C6 1.392 . S
C9 Eu0 2.828 . S
C9 C3 1.505 . S
C9 O21 1.249 . S
C9 O22 1.244 . S
O10 Eu1 2.373 . S
O10 C12 1.258 . S
O11 Eu0 2.392 1_455 S
O11 C12 1.242 . S
C12 O10 1.258 . S
C12 O11 1.242 . S
O13 Eu0 2.418 . S
O13 C17 1.242 1_655 S
O14 Eu1 2.488 . S
O14 C30 1.249 . S
O15 Eu1 2.471 . S
O15 C30 1.244 . S
O16 Eu1 2.349 . S
O16 C17 1.267 . S
C17 O13 1.242 1_455 S
C17 O16 1.267 . S
O18 Eu0 2.373 . S
O18 C31 1.258 . S
O19 Eu1 2.392 1_655 S
O19 C31 1.242 . S
O20 Eu1 2.418 . S
O20 C2 1.244 . S
O21 Eu0 2.488 . S
O21 C9 1.249 . S
O22 Eu0 2.471 . S
O22 C9 1.244 . S
O23 Eu0 2.349 . S
O23 C2 1.265 1_655 S
C24 C25 1.379 . S
C24 C28 1.373 . S
C24 C30 1.505 . S
C25 C24 1.379 . S
C25 C27 1.369 . S
C25 H36 0.930 . S
C26 C28 1.383 . S
C26 C29 1.382 . S
C26 H37 0.930 . S
C27 C25 1.369 . S
C27 C29 1.392 . S
C27 H38 0.930 . S
C28 C24 1.373 . S
C28 C26 1.383 . S
C28 H39 0.931 . S
C29 C26 1.382 . S
C29 C27 1.392 . S
C30 Eu1 2.828 . S
C30 O14 1.249 . S
C30 O15 1.244 . S
C30 C24 1.505 . S
C31 O18 1.258 . S
C31 O19 1.242 . S
H32 C4 0.930 . S
H33 C5 0.930 . S
H34 C6 0.930 . S
H35 C7 0.931 . S
H36 C25 0.930 . S
H37 C26 0.930 . S
H38 C27 0.930 . S
H39 C28 0.931 . S
Eu40 C49 2.828 . S
Eu40 O51 2.392 1_565 S
Eu40 O53 2.418 . S
Eu40 O58 2.373 . S
Eu40 O61 2.488 . S
Eu40 O62 2.471 . S
Eu40 O63 2.359 . S
Eu41 O50 2.373 . S
Eu41 O54 2.488 . S
Eu41 O55 2.471 . S
Eu41 O56 2.349 . S
Eu41 O59 2.392 1_545 S
Eu41 O60 2.418 . S
Eu41 C70 2.828 . S
C42 O60 1.244 . S
C42 O63 1.255 1_545 S
C43 C44 1.379 . S
C43 C47 1.373 . S
C43 C49 1.505 . S
C44 C43 1.379 . S
C44 C46 1.369 . S
C44 H72 0.930 . S
C45 C47 1.383 . S
C45 C48 1.382 . S
C45 H73 0.930 . S
C46 C44 1.369 . S
C46 C48 1.392 . S
C46 H74 0.930 . S
C47 C43 1.373 . S
C47 C45 1.383 . S
C47 H75 0.931 . S
C48 C45 1.382 . S
C48 C46 1.392 . S
C49 Eu40 2.828 . S
C49 C43 1.505 . S
C49 O61 1.249 . S
C49 O62 1.244 . S
O50 Eu41 2.373 . S
O50 C52 1.258 . S
O51 Eu40 2.392 1_545 S
O51 C52 1.242 . S
C52 O50 1.258 . S
C52 O51 1.242 . S
O53 Eu40 2.418 . S
O53 C57 1.244 1_565 S
O54 Eu41 2.488 . S
O54 C70 1.249 . S
O55 Eu41 2.471 . S
O55 C70 1.244 . S
O56 Eu41 2.349 . S
O56 C57 1.265 . S
C57 O53 1.244 1_545 S
C57 O56 1.265 . S
O58 Eu40 2.373 . S
O58 C71 1.258 . S
O59 Eu41 2.392 1_565 S
O59 C71 1.242 . S
O60 Eu41 2.418 . S
O60 C42 1.244 . S
O61 Eu40 2.488 . S
O61 C49 1.249 . S
O62 Eu40 2.471 . S
O62 C49 1.244 . S
O63 Eu40 2.359 . S
O63 C42 1.255 1_565 S
C64 C65 1.379 . S
C64 C68 1.373 . S
C64 C70 1.505 . S
C65 C64 1.379 . S
C65 C67 1.369 . S
C65 H76 0.930 . S
C66 C68 1.383 . S
C66 C69 1.382 . S
C66 H77 0.930 . S
C67 C65 1.369 . S
C67 C69 1.392 . S
C67 H78 0.930 . S
C68 C64 1.373 . S
C68 C66 1.383 . S
C68 H79 0.931 . S
C69 C66 1.382 . S
C69 C67 1.392 . S
C70 Eu41 2.828 . S
C70 O54 1.249 . S
C70 O55 1.244 . S
C70 C64 1.505 . S
C71 O58 1.258 . S
C71 O59 1.242 . S
H72 C44 0.930 . S
H73 C45 0.930 . S
H74 C46 0.930 . S
H75 C47 0.931 . S
H76 C65 0.930 . S
H77 C66 0.930 . S
H78 C67 0.930 . S
H79 C68 0.931 . S
Eu80 C89 2.828 . S
Eu80 O91 2.392 . S
Eu80 O93 2.418 . S
Eu80 O98 2.373 . S
Eu80 O101 2.488 . S
Eu80 O102 2.471 . S
Eu80 O103 2.349 . S
Eu81 O90 2.373 . S
Eu81 O94 2.488 . S
Eu81 O95 2.471 . S
Eu81 O96 2.349 . S
Eu81 O99 2.392 . S
Eu81 O100 2.418 . S
Eu81 C110 2.828 . S
C82 O100 1.244 . S
C82 O103 1.265 . S
C83 C84 1.379 . S
C83 C87 1.373 . S
C83 C89 1.505 . S
C84 C83 1.379 . S
C84 C86 1.369 . S
C84 H112 0.930 . S
C85 C87 1.383 . S
C85 C88 1.382 . S
C85 H113 0.930 . S
C86 C84 1.369 . S
C86 C88 1.392 . S
C86 H114 0.930 . S
C87 C83 1.373 . S
C87 C85 1.383 . S
C87 H115 0.931 . S
C88 C85 1.382 . S
C88 C86 1.392 . S
C89 Eu80 2.828 . S
C89 C83 1.505 . S
C89 O101 1.249 . S
C89 O102 1.244 . S
O90 Eu81 2.373 . S
O90 C92 1.258 . S
O91 Eu80 2.392 . S
O91 C92 1.242 . S
C92 O90 1.258 . S
C92 O91 1.242 . S
O93 Eu80 2.418 . S
O93 C97 1.244 . S
O94 Eu81 2.488 . S
O94 C110 1.249 . S
O95 Eu81 2.471 . S
O95 C110 1.244 . S
O96 Eu81 2.349 . S
O96 C97 1.265 . S
C97 O93 1.244 . S
C97 O96 1.265 . S
O98 Eu80 2.373 . S
O98 C111 1.258 . S
O99 Eu81 2.392 . S
O99 C111 1.242 . S
O100 Eu81 2.418 . S
O100 C82 1.244 . S
O101 Eu80 2.488 . S
O101 C89 1.249 . S
O102 Eu80 2.471 . S
O102 C89 1.244 . S
O103 Eu80 2.349 . S
O103 C82 1.265 . S
C104 C105 1.379 . S
C104 C108 1.373 . S
C104 C110 1.505 . S
C105 C104 1.379 . S
C105 C107 1.369 . S
C105 H116 0.930 . S
C106 C108 1.383 . S
C106 C109 1.382 . S
C106 H117 0.930 . S
C107 C105 1.369 . S
C107 C109 1.392 . S
C107 H118 0.930 . S
C108 C104 1.373 . S
C108 C106 1.383 . S
C108 H119 0.931 . S
C109 C106 1.382 . S
C109 C107 1.392 . S
C110 Eu81 2.828 . S
C110 O94 1.249 . S
C110 O95 1.244 . S
C110 C104 1.505 . S
C111 O98 1.258 . S
C111 O99 1.242 . S
H112 C84 0.930 . S
H113 C85 0.930 . S
H114 C86 0.930 . S
H115 C87 0.931 . S
H116 C105 0.930 . S
H117 C106 0.930 . S
H118 C107 0.930 . S
H119 C108 0.931 . S
C120 C121 1.391 . S
C120 C124 1.391 . S
C120 H162 0.948 . S
C121 C120 1.391 . S
C121 C122 1.391 . S
C122 C121 1.391 . S
C122 H178 0.947 . S
C122 C179 1.392 . S
C123 C124 1.391 . S
C123 C127 1.397 . S
C123 C179 1.419 . S
C124 C120 1.391 . S
C124 C123 1.391 . S
C124 C125 1.399 . S
C125 C124 1.399 . S
C125 C128 1.396 . S
C125 C137 1.453 . S
C125 C138 1.684 . S
H126 C150 0.948 . S
C127 C123 1.397 . S
C127 C128 1.394 . S
C127 C146 1.723 . S
C128 C125 1.396 . S
C128 C127 1.394 . S
C128 C158 1.723 1_545 S
H129 C152 0.947 . S
H130 C153 0.948 . S
H131 C159 0.982 . S
H132 C160 0.979 . S
H133 C160 0.980 . S
H134 C160 0.983 . S
H135 C159 0.979 . S
H136 C159 0.977 . S
C137 C125 1.453 . S
C137 H166 0.982 . S
C137 H167 0.979 . S
C137 H168 0.977 . S
C138 C125 1.684 . S
C138 H163 0.979 . S
C138 H164 0.980 . S
C138 H165 0.983 . S
C139 C140 1.391 . S
C139 C144 1.391 . S
C139 H169 0.948 . S
C140 C139 1.391 . S
C140 C141 1.391 1_545 S
C141 C140 1.391 1_565 S
C141 C142 1.392 . S
C141 H170 0.947 . S
C142 C141 1.392 . S
C142 C143 1.419 1_565 S
C142 H171 0.948 . S
C143 C142 1.419 1_545 S
C143 C144 1.391 . S
C143 C147 1.397 . S
C144 C139 1.391 . S
C144 C143 1.391 . S
C144 C145 1.399 . S
C145 C144 1.399 . S
C145 C146 1.396 . S
C145 C148 1.453 . S
C145 C149 1.684 . S
C146 C127 1.723 . S
C146 C145 1.396 . S
C146 C147 1.394 . S
C147 C143 1.397 . S
C147 C146 1.394 . S
C147 C157 1.723 1_545 S
C148 C145 1.453 . S
C148 H172 0.982 . S
C148 H173 0.979 . S
C148 H174 0.977 . S
C149 C145 1.684 . S
C149 H175 0.979 . S
C149 H176 0.980 . S
C149 H177 0.983 . S
C150 H126 0.948 . S
C150 C151 1.391 . S
C150 C155 1.391 . S
C151 C150 1.391 . S
C151 C152 1.391 . S
C152 H129 0.947 . S
C152 C151 1.391 . S
C152 C153 1.392 . S
C153 H130 0.948 . S
C153 C152 1.392 . S
C153 C154 1.419 . S
C154 C153 1.419 . S
C154 C155 1.391 . S
C154 C158 1.397 . S
C155 C150 1.391 . S
C155 C154 1.391 . S
C155 C156 1.399 . S
C156 C155 1.399 . S
C156 C157 1.396 . S
C156 C159 1.453 . S
C156 C160 1.684 . S
C157 C147 1.723 1_565 S
C157 C156 1.396 . S
C157 C158 1.394 . S
C158 C128 1.723 1_565 S
C158 C154 1.397 . S
C158 C157 1.394 . S
C159 H131 0.982 . S
C159 H135 0.979 . S
C159 H136 0.977 . S
C159 C156 1.453 . S
C160 H132 0.979 . S
C160 H133 0.980 . S
C160 H134 0.983 . S
C160 C156 1.684 . S
H161 C179 0.948 . S
H162 C120 0.948 . S
H163 C138 0.979 . S
H164 C138 0.980 . S
H165 C138 0.983 . S
H166 C137 0.982 . S
H167 C137 0.979 . S
H168 C137 0.977 . S
H169 C139 0.948 . S
H170 C141 0.947 . S
H171 C142 0.948 . S
H172 C148 0.982 . S
H173 C148 0.979 . S
H174 C148 0.977 . S
H175 C149 0.979 . S
H176 C149 0.980 . S
H177 C149 0.983 . S
H178 C122 0.947 . S
C179 C122 1.392 . S
C179 C123 1.419 . S
C179 H161 0.948 . S
C180 C181 1.391 . S
C180 C184 1.391 . S
C180 H222 0.948 . S
C181 C180 1.391 . S
C181 C182 1.391 . S
C182 C181 1.391 . S
C182 H238 0.947 . S
C182 C239 1.392 . S
C183 C184 1.391 . S
C183 C187 1.397 . S
C183 C239 1.419 . S
C184 C180 1.391 . S
C184 C183 1.391 . S
C184 C185 1.399 . S
C185 C184 1.399 . S
C185 C188 1.396 . S
C185 C197 1.453 . S
C185 C198 1.684 . S
H186 C210 0.948 . S
C187 C183 1.397 . S
C187 C188 1.394 . S
C187 C206 1.723 . S
C188 C185 1.396 . S
C188 C187 1.394 . S
C188 C218 1.723 . S
H189 C212 0.947 . S
H190 C213 0.948 . S
H191 C219 0.982 . S
H192 C220 0.979 . S
H193 C220 0.980 . S
H194 C220 0.983 . S
H195 C219 0.979 . S
H196 C219 0.977 . S
C197 C185 1.453 . S
C197 H226 0.982 . S
C197 H227 0.979 . S
C197 H228 0.977 . S
C198 C185 1.684 . S
C198 H223 0.979 . S
C198 H224 0.980 . S
C198 H225 0.983 . S
C199 C200 1.391 . S
C199 C204 1.391 . S
C199 H229 0.948 . S
C200 C199 1.391 . S
C200 C201 1.391 . S
C201 C200 1.391 . S
C201 C202 1.392 . S
C201 H230 0.947 . S
C202 C201 1.392 . S
C202 C203 1.419 . S
C202 H231 0.948 . S
C203 C202 1.419 . S
C203 C204 1.391 . S
C203 C207 1.397 . S
C204 C199 1.391 . S
C204 C203 1.391 . S
C204 C205 1.399 . S
C205 C204 1.399 . S
C205 C206 1.396 . S
C205 C208 1.453 . S
C205 C209 1.684 . S
C206 C187 1.723 . S
C206 C205 1.396 . S
C206 C207 1.394 . S
C207 C203 1.397 . S
C207 C206 1.394 . S
C207 C217 1.723 . S
C208 C205 1.453 . S
C208 H232 0.982 . S
C208 H233 0.979 . S
C208 H234 0.977 . S
C209 C205 1.684 . S
C209 H235 0.979 . S
C209 H236 0.980 . S
C209 H237 0.983 . S
C210 H186 0.948 . S
C210 C211 1.391 . S
C210 C215 1.391 . S
C211 C210 1.391 . S
C211 C212 1.391 . S
C212 H189 0.947 . S
C212 C211 1.391 . S
C212 C213 1.392 . S
C213 H190 0.948 . S
C213 C212 1.392 . S
C213 C214 1.419 . S
C214 C213 1.419 . S
C214 C215 1.391 . S
C214 C218 1.397 . S
C215 C210 1.391 . S
C215 C214 1.391 . S
C215 C216 1.399 . S
C216 C215 1.399 . S
C216 C217 1.396 . S
C216 C219 1.453 . S
C216 C220 1.684 . S
C217 C207 1.723 . S
C217 C216 1.396 . S
C217 C218 1.394 . S
C218 C188 1.723 . S
C218 C214 1.397 . S
C218 C217 1.394 . S
C219 H191 0.982 . S
C219 H195 0.979 . S
C219 H196 0.977 . S
C219 C216 1.453 . S
C220 H192 0.979 . S
C220 H193 0.980 . S
C220 H194 0.983 . S
C220 C216 1.684 . S
H221 C239 0.948 . S
H222 C180 0.948 . S
H223 C198 0.979 . S
H224 C198 0.980 . S
H225 C198 0.983 . S
H226 C197 0.982 . S
H227 C197 0.979 . S
H228 C197 0.977 . S
H229 C199 0.948 . S
H230 C201 0.947 . S
H231 C202 0.948 . S
H232 C208 0.982 . S
H233 C208 0.979 . S
H234 C208 0.977 . S
H235 C209 0.979 . S
H236 C209 0.980 . S
H237 C209 0.983 . S
H238 C182 0.947 . S
C239 C182 1.392 . S
C239 C183 1.419 . S
C239 H221 0.948 . S
C240 C241 1.391 . S
C240 C244 1.391 . S
C240 H282 0.948 . S
C241 C240 1.391 . S
C241 C242 1.391 . S
C242 C241 1.391 . S
C242 H298 0.947 . S
C242 C299 1.392 . S
C243 C244 1.391 . S
C243 C247 1.397 . S
C243 C299 1.419 . S
C244 C240 1.391 . S
C244 C243 1.391 . S
C244 C245 1.399 . S
C245 C244 1.399 . S
C245 C248 1.396 . S
C245 C257 1.453 . S
C245 C258 1.684 . S
H246 C270 0.948 . S
C247 C243 1.397 . S
C247 C248 1.394 . S
C247 C266 1.723 . S
C248 C245 1.396 . S
C248 C247 1.394 . S
C248 C278 1.723 . S
H249 C272 0.947 . S
H250 C273 0.948 1_455 S
H251 C279 0.982 . S
H252 C280 0.979 . S
H253 C280 0.980 . S
H254 C280 0.983 . S
H255 C279 0.979 . S
H256 C279 0.977 . S
C257 C245 1.453 . S
C257 H286 0.982 . S
C257 H287 0.979 . S
C257 H288 0.977 . S
C258 C245 1.684 . S
C258 H283 0.979 . S
C258 H284 0.980 . S
C258 H285 0.983 . S
C259 C260 1.391 . S
C259 C264 1.391 . S
C259 H289 0.948 . S
C260 C259 1.391 . S
C260 C261 1.391 . S
C261 C260 1.391 . S
C261 C262 1.391 1_455 S
C261 H290 0.947 1_455 S
C262 C261 1.391 1_655 S
C262 C263 1.415 1_655 S
C262 H291 0.952 . S
C263 C262 1.415 1_455 S
C263 C264 1.391 . S
C263 C267 1.397 . S
C264 C259 1.391 . S
C264 C263 1.391 . S
C264 C265 1.399 . S
C265 C264 1.399 . S
C265 C266 1.396 . S
C265 C268 1.453 . S
C265 C269 1.684 . S
C266 C247 1.723 . S
C266 C265 1.396 . S
C266 C267 1.394 . S
C267 C263 1.397 . S
C267 C266 1.394 . S
C267 C277 1.723 1_455 S
C268 C265 1.453 . S
C268 H292 0.982 . S
C268 H293 0.979 . S
C268 H294 0.977 . S
C269 C265 1.684 . S
C269 H295 0.979 . S
C269 H296 0.980 . S
C269 H297 0.983 . S
C270 H246 0.948 . S
C270 C271 1.391 . S
C270 C275 1.391 . S
C271 C270 1.391 . S
C271 C272 1.391 . S
C272 H249 0.947 . S
C272 C271 1.391 . S
C272 C273 1.392 . S
C273 H250 0.948 1_655 S
C273 C272 1.392 . S
C273 C274 1.419 . S
C274 C273 1.419 . S
C274 C275 1.391 . S
C274 C278 1.397 1_655 S
C275 C270 1.391 . S
C275 C274 1.391 . S
C275 C276 1.399 . S
C276 C275 1.399 . S
C276 C277 1.396 . S
C276 C279 1.453 . S
C276 C280 1.684 . S
C277 C267 1.723 1_655 S
C277 C276 1.396 . S
C277 C278 1.394 1_655 S
C278 C248 1.723 . S
C278 C274 1.397 1_455 S
C278 C277 1.394 1_455 S
C279 H251 0.982 . S
C279 H255 0.979 . S
C279 H256 0.977 . S
C279 C276 1.453 . S
C280 H252 0.979 . S
C280 H253 0.980 . S
C280 H254 0.983 . S
C280 C276 1.684 . S
H281 C299 0.948 . S
H282 C240 0.948 . S
H283 C258 0.979 . S
H284 C258 0.980 . S
H285 C258 0.983 . S
H286 C257 0.982 . S
H287 C257 0.979 . S
H288 C257 0.977 . S
H289 C259 0.948 . S
H290 C261 0.947 1_655 S
H291 C262 0.952 . S
H292 C268 0.982 . S
H293 C268 0.979 . S
H294 C268 0.977 . S
H295 C269 0.979 . S
H296 C269 0.980 . S
H297 C269 0.983 . S
H298 C242 0.947 . S
C299 C242 1.392 . S
C299 C243 1.419 . S
C299 H281 0.948 . S
C300 C301 1.391 . S
C300 C304 1.391 . S
C300 H342 0.948 . S
C301 C300 1.391 . S
C301 C302 1.391 . S
C302 C301 1.391 . S
C302 H358 0.947 . S
C302 C359 1.392 . S
C303 C304 1.391 . S
C303 C307 1.397 . S
C303 C359 1.419 . S
C304 C300 1.391 . S
C304 C303 1.391 . S
C304 C305 1.399 . S
C305 C304 1.399 . S
C305 C308 1.396 1_655 S
C305 C317 1.453 1_655 S
C305 C318 1.684 . S
H306 C330 0.948 . S
C307 C303 1.397 . S
C307 C308 1.394 1_655 S
C307 C326 1.723 . S
C308 C305 1.396 1_455 S
C308 C307 1.394 1_455 S
C308 C338 1.723 . S
H309 C332 0.947 . S
H310 C333 0.948 . S
H311 C339 0.982 . S
H312 C340 0.979 . S
H313 C340 0.980 . S
H314 C340 0.983 . S
H315 C339 0.979 . S
H316 C339 0.977 . S
C317 C305 1.453 1_455 S
C317 H346 0.982 . S
C317 H347 0.979 . S
C317 H348 0.977 . S
C318 C305 1.684 . S
C318 H343 0.979 . S
C318 H344 0.980 1_655 S
C318 H345 0.983 . S
C319 C320 1.391 1_655 S
C319 C324 1.391 . S
C319 H349 0.948 . S
C320 C319 1.391 1_455 S
C320 C321 1.391 . S
C321 C320 1.391 . S
C321 C322 1.392 . S
C321 H350 0.947 . S
C322 C321 1.392 . S
C322 C323 1.419 . S
C322 H351 0.948 . S
C323 C322 1.419 . S
C323 C324 1.391 1_455 S
C323 C327 1.397 . S
C324 C319 1.391 . S
C324 C323 1.391 1_655 S
C324 C325 1.399 . S
C325 C324 1.399 . S
C325 C326 1.396 . S
C325 C328 1.453 . S
C325 C329 1.684 . S
C326 C307 1.723 . S
C326 C325 1.396 . S
C326 C327 1.394 1_655 S
C327 C323 1.397 . S
C327 C326 1.394 1_455 S
C327 C337 1.723 . S
C328 C325 1.453 . S
C328 H352 0.982 . S
C328 H353 0.979 . S
C328 H354 0.977 . S
C329 C325 1.684 . S
C329 H355 0.979 . S
C329 H356 0.980 . S
C329 H357 0.983 . S
C330 H306 0.948 . S
C330 C331 1.391 . S
C330 C335 1.391 . S
C331 C330 1.391 . S
C331 C332 1.391 . S
C332 H309 0.947 . S
C332 C331 1.391 . S
C332 C333 1.392 . S
C333 H310 0.948 . S
C333 C332 1.392 . S
C333 C334 1.419 . S
C334 C333 1.419 . S
C334 C335 1.391 . S
C334 C338 1.397 . S
C335 C330 1.391 . S
C335 C334 1.391 . S
C335 C336 1.399 . S
C336 C335 1.399 . S
C336 C337 1.396 . S
C336 C339 1.453 . S
C336 C340 1.684 . S
C337 C327 1.723 . S
C337 C336 1.396 . S
C337 C338 1.394 . S
C338 C308 1.723 . S
C338 C334 1.397 . S
C338 C337 1.394 . S
C339 H311 0.982 . S
C339 H315 0.979 . S
C339 H316 0.977 . S
C339 C336 1.453 . S
C340 H312 0.979 . S
C340 H313 0.980 . S
C340 H314 0.983 . S
C340 C336 1.684 . S
H341 C359 0.948 . S
H342 C300 0.948 . S
H343 C318 0.979 . S
H344 C318 0.980 1_455 S
H345 C318 0.983 . S
H346 C317 0.982 . S
H347 C317 0.979 . S
H348 C317 0.977 . S
H349 C319 0.948 . S
H350 C321 0.947 . S
H351 C322 0.948 . S
H352 C328 0.982 . S
H353 C328 0.979 . S
H354 C328 0.977 . S
H355 C329 0.979 . S
H356 C329 0.980 . S
H357 C329 0.983 . S
H358 C302 0.947 . S
C359 C302 1.392 . S
C359 C303 1.419 . S
C359 H341 0.948 . S
C360 C361 1.391 . S
C360 C364 1.391 . S
C360 H402 0.948 . S
C361 C360 1.391 . S
C361 C362 1.391 . S
C362 C361 1.391 . S
C362 H418 0.947 . S
C362 C419 1.392 . S
C363 C364 1.391 . S
C363 C367 1.397 . S
C363 C419 1.419 . S
C364 C360 1.391 . S
C364 C363 1.391 . S
C364 C365 1.399 . S
C365 C364 1.399 . S
C365 C368 1.396 1_565 S
C365 C377 1.453 1_565 S
C365 C378 1.684 . S
H366 C390 0.948 . S
C367 C363 1.397 . S
C367 C368 1.394 1_565 S
C367 C386 1.723 . S
C368 C365 1.396 1_545 S
C368 C367 1.394 1_545 S
C368 C398 1.723 . S
H369 C392 0.947 . S
H370 C393 0.948 . S
H371 C399 0.982 . S
H372 C400 0.979 . S
H373 C400 0.980 . S
H374 C400 0.983 . S
H375 C399 0.979 . S
H376 C399 0.977 . S
C377 C365 1.453 1_545 S
C377 H406 0.982 . S
C377 H407 0.982 . S
C377 H408 0.977 . S
C378 C365 1.684 . S
C378 H403 0.979 . S
C378 H404 0.980 1_565 S
C378 H405 0.983 . S
C379 C380 1.391 1_565 S
C379 C384 1.391 . S
C379 H409 0.948 . S
C380 C379 1.391 1_545 S
C380 C381 1.391 . S
C381 C380 1.391 . S
C381 C382 1.392 . S
C381 H410 0.947 . S
C382 C381 1.392 . S
C382 C383 1.419 . S
C382 H411 0.948 . S
C383 C382 1.419 . S
C383 C384 1.391 1_545 S
C383 C387 1.397 . S
C384 C379 1.391 . S
C384 C383 1.391 1_565 S
C384 C385 1.399 . S
C385 C384 1.399 . S
C385 C386 1.396 . S
C385 C388 1.453 . S
C385 C389 1.684 . S
C386 C367 1.723 . S
C386 C385 1.396 . S
C386 C387 1.394 1_565 S
C387 C383 1.397 . S
C387 C386 1.394 1_545 S
C387 C397 1.723 . S
C388 C385 1.453 . S
C388 H412 0.982 . S
C388 H413 0.979 . S
C388 H414 0.977 . S
C389 C385 1.684 . S
C389 H415 0.979 . S
C389 H416 0.980 . S
C389 H417 0.983 . S
C390 H366 0.948 . S
C390 C391 1.391 . S
C390 C395 1.391 . S
C391 C390 1.391 . S
C391 C392 1.391 . S
C392 H369 0.947 . S
C392 C391 1.391 . S
C392 C393 1.392 . S
C393 H370 0.948 . S
C393 C392 1.392 . S
C393 C394 1.419 . S
C394 C393 1.419 . S
C394 C395 1.391 . S
C394 C398 1.397 . S
C395 C390 1.391 . S
C395 C394 1.391 . S
C395 C396 1.399 . S
C396 C395 1.399 . S
C396 C397 1.396 . S
C396 C399 1.453 . S
C396 C400 1.684 . S
C397 C387 1.723 . S
C397 C396 1.396 . S
C397 C398 1.394 . S
C398 C368 1.723 . S
C398 C394 1.397 . S
C398 C397 1.394 . S
C399 H371 0.982 . S
C399 H375 0.979 . S
C399 H376 0.977 . S
C399 C396 1.453 . S
C400 H372 0.979 . S
C400 H373 0.980 . S
C400 H374 0.983 . S
C400 C396 1.684 . S
H401 C419 0.948 . S
H402 C360 0.948 . S
H403 C378 0.979 . S
H404 C378 0.980 1_545 S
H405 C378 0.983 . S
H406 C377 0.982 . S
H407 C377 0.982 . S
H408 C377 0.977 . S
H409 C379 0.948 . S
H410 C381 0.947 . S
H411 C382 0.948 . S
H412 C388 0.982 . S
H413 C388 0.979 . S
H414 C388 0.977 . S
H415 C389 0.979 . S
H416 C389 0.980 . S
H417 C389 0.983 . S
H418 C362 0.947 . S
C419 C362 1.392 . S
C419 C363 1.419 . S
C419 H401 0.948 . S
C420 C421 1.391 . S
C420 C424 1.391 . S
C420 H462 0.948 . S
C421 C420 1.391 . S
C421 C422 1.391 . S
C422 C421 1.391 . S
C422 H478 0.947 . S
C422 C479 1.392 . S
C423 C424 1.391 . S
C423 C427 1.397 . S
C423 C479 1.419 . S
C424 C420 1.391 . S
C424 C423 1.391 . S
C424 C425 1.399 . S
C425 C424 1.399 . S
C425 C428 1.396 . S
C425 C437 1.453 . S
C425 C438 1.684 . S
H426 C450 0.948 . S
C427 C423 1.397 . S
C427 C428 1.394 . S
C427 C446 1.723 . S
C428 C425 1.396 . S
C428 C427 1.394 . S
C428 C458 1.723 . S
H429 C452 0.947 . S
H430 C453 0.948 . S
H431 C459 0.982 . S
H432 C460 0.979 . S
H433 C460 0.980 . S
H434 C460 0.983 . S
H435 C459 0.979 . S
H436 C459 0.977 . S
C437 C425 1.453 . S
C437 H466 0.982 . S
C437 H467 0.979 . S
C437 H468 0.977 . S
C438 C425 1.684 . S
C438 H463 0.979 . S
C438 H464 0.980 . S
C438 H465 0.983 . S
C439 C440 1.391 . S
C439 C444 1.391 . S
C439 H469 0.948 . S
C440 C439 1.391 . S
C440 C441 1.391 . S
C441 C440 1.391 . S
C441 C442 1.392 . S
C441 H470 0.947 . S
C442 C441 1.392 . S
C442 C443 1.419 . S
C442 H471 0.948 . S
C443 C442 1.419 . S
C443 C444 1.391 . S
C443 C447 1.397 . S
C444 C439 1.391 . S
C444 C443 1.391 . S
C444 C445 1.399 . S
C445 C444 1.399 . S
C445 C446 1.396 . S
C445 C448 1.453 . S
C445 C449 1.684 . S
C446 C427 1.723 . S
C446 C445 1.396 . S
C446 C447 1.394 . S
C447 C443 1.397 . S
C447 C446 1.394 . S
C447 C457 1.723 . S
C448 C445 1.453 . S
C448 H472 0.982 . S
C448 H473 0.979 . S
C448 H474 0.977 . S
C449 C445 1.684 . S
C449 H475 0.979 . S
C449 H476 0.980 . S
C449 H477 0.983 . S
C450 H426 0.948 . S
C450 C451 1.391 . S
C450 C455 1.391 . S
C451 C450 1.391 . S
C451 C452 1.391 . S
C452 H429 0.947 . S
C452 C451 1.391 . S
C452 C453 1.392 . S
C453 H430 0.948 . S
C453 C452 1.392 . S
C453 C454 1.419 . S
C454 C453 1.419 . S
C454 C455 1.391 . S
C454 C458 1.397 . S
C455 C450 1.391 . S
C455 C454 1.391 . S
C455 C456 1.399 . S
C456 C455 1.399 . S
C456 C457 1.396 . S
C456 C459 1.453 . S
C456 C460 1.684 . S
C457 C447 1.723 . S
C457 C456 1.396 . S
C457 C458 1.394 . S
C458 C428 1.723 . S
C458 C454 1.397 . S
C458 C457 1.394 . S
C459 H431 0.982 . S
C459 H435 0.979 . S
C459 H436 0.977 . S
C459 C456 1.453 . S
C460 H432 0.979 . S
C460 H433 0.980 . S
C460 H434 0.983 . S
C460 C456 1.684 . S
H461 C479 0.948 . S
H462 C420 0.948 . S
H463 C438 0.979 . S
H464 C438 0.980 . S
H465 C438 0.983 . S
H466 C437 0.982 . S
H467 C437 0.979 . S
H468 C437 0.977 . S
H469 C439 0.948 . S
H470 C441 0.947 . S
H471 C442 0.948 . S
H472 C448 0.982 . S
H473 C448 0.979 . S
H474 C448 0.977 . S
H475 C449 0.979 . S
H476 C449 0.980 . S
H477 C449 0.983 . S
H478 C422 0.947 . S
C479 C422 1.392 . S
C479 C423 1.419 . S
C479 H461 0.948 . S
H480 C488 0.950 . S
H481 C493 0.950 . S
H482 C490 0.950 . S
H483 C492 0.950 . S
H484 C494 0.950 . S
H485 C496 0.950 . S
H486 C498 0.950 . S
H487 C499 0.950 . S
C488 H480 0.950 . S
C488 C489 1.386 . S
C488 C490 1.391 . S
C489 C488 1.386 . S
C489 C493 1.393 . S
C490 H482 0.950 . S
C490 C488 1.391 . S
C490 C491 1.400 . S
C491 C490 1.400 . S
C491 C492 1.398 . S
C491 C497 1.491 . S
C492 H483 0.950 . S
C492 C491 1.398 . S
C492 C493 1.391 . S
C493 H481 0.950 . S
C493 C489 1.393 . S
C493 C492 1.391 . S
C494 H484 0.950 . S
C494 C495 1.386 . S
C494 C496 1.391 . S
C495 C494 1.386 . S
C495 C499 1.393 . S
C496 H485 0.950 . S
C496 C494 1.391 . S
C496 C497 1.400 . S
C497 C491 1.491 . S
C497 C496 1.400 . S
C497 C498 1.398 . S
C498 H486 0.950 . S
C498 C497 1.398 . S
C498 C499 1.391 . S
C499 H487 0.950 . S
C499 C495 1.393 . S
C499 C498 1.391 . S
H500 C508 0.950 . S
H501 C513 0.950 . S
H502 C510 0.950 . S
H503 C512 0.950 . S
H504 C514 0.950 . S
H505 C516 0.950 . S
H506 C518 0.950 . S
H507 C519 0.950 . S
C508 H500 0.950 . S
C508 C509 1.386 . S
C508 C510 1.391 . S
C509 C508 1.386 . S
C509 C513 1.393 . S
C510 H502 0.950 . S
C510 C508 1.391 . S
C510 C511 1.400 . S
C511 C510 1.400 . S
C511 C512 1.398 . S
C511 C517 1.491 . S
C512 H503 0.950 . S
C512 C511 1.398 . S
C512 C513 1.391 . S
C513 H501 0.950 . S
C513 C509 1.393 . S
C513 C512 1.391 . S
C514 H504 0.950 . S
C514 C515 1.386 . S
C514 C516 1.391 . S
C515 C514 1.386 . S
C515 C519 1.393 . S
C516 H505 0.950 . S
C516 C514 1.391 . S
C516 C517 1.400 . S
C517 C511 1.491 . S
C517 C516 1.400 . S
C517 C518 1.398 . S
C518 H506 0.950 . S
C518 C517 1.398 . S
C518 C519 1.391 . S
C519 H507 0.950 . S
C519 C515 1.393 . S
C519 C518 1.391 . S
H520 C528 0.950 . S
H521 C533 0.950 . S
H522 C530 0.950 . S
H523 C532 0.950 . S
H524 C534 0.950 . S
H525 C536 0.950 . S
H526 C538 0.950 . S
H527 C539 0.950 . S
C528 H520 0.950 . S
C528 C529 1.386 . S
C528 C530 1.391 . S
C529 C528 1.386 . S
C529 C533 1.393 . S
C530 H522 0.950 . S
C530 C528 1.391 . S
C530 C531 1.400 . S
C531 C530 1.400 . S
C531 C532 1.398 . S
C531 C537 1.491 . S
C532 H523 0.950 . S
C532 C531 1.398 . S
C532 C533 1.391 . S
C533 H521 0.950 . S
C533 C529 1.393 . S
C533 C532 1.391 . S
C534 H524 0.950 . S
C534 C535 1.386 . S
C534 C536 1.391 . S
C535 C534 1.386 . S
C535 C539 1.393 . S
C536 H525 0.950 . S
C536 C534 1.391 . S
C536 C537 1.400 . S
C537 C531 1.491 . S
C537 C536 1.400 . S
C537 C538 1.398 . S
C538 H526 0.950 . S
C538 C537 1.398 . S
C538 C539 1.391 . S
C539 H527 0.950 . S
C539 C535 1.393 . S
C539 C538 1.391 . S
H540 C548 0.950 . S
H541 C553 0.950 . S
H542 C550 0.950 . S
H543 C552 0.950 . S
H544 C554 0.950 . S
H545 C556 0.950 . S
H546 C558 0.950 . S
H547 C559 0.950 . S
C548 H540 0.950 . S
C548 C549 1.386 . S
C548 C550 1.391 . S
C549 C548 1.386 . S
C549 C553 1.393 . S
C550 H542 0.950 . S
C550 C548 1.391 . S
C550 C551 1.400 . S
C551 C550 1.400 . S
C551 C552 1.398 . S
C551 C557 1.491 . S
C552 H543 0.950 . S
C552 C551 1.398 . S
C552 C553 1.391 . S
C553 H541 0.950 . S
C553 C549 1.393 . S
C553 C552 1.391 . S
C554 H544 0.950 . S
C554 C555 1.386 . S
C554 C556 1.391 . S
C555 C554 1.386 . S
C555 C559 1.393 . S
C556 H545 0.950 . S
C556 C554 1.391 . S
C556 C557 1.400 . S
C557 C551 1.491 . S
C557 C556 1.400 . S
C557 C558 1.398 . S
C558 H546 0.950 . S
C558 C557 1.398 . S
C558 C559 1.391 . S
C559 H547 0.950 . S
C559 C555 1.393 . S
C559 C558 1.391 . S
H560 C568 0.950 . S
H561 C573 0.950 . S
H562 C570 0.950 . S
H563 C572 0.950 . S
H564 C574 0.950 . S
H565 C576 0.950 . S
H566 C578 0.950 . S
H567 C579 0.950 . S
C568 H560 0.950 . S
C568 C569 1.386 . S
C568 C570 1.391 . S
C569 C568 1.386 . S
C569 C573 1.393 . S
C570 H562 0.950 . S
C570 C568 1.391 . S
C570 C571 1.400 . S
C571 C570 1.400 . S
C571 C572 1.398 . S
C571 C577 1.491 . S
C572 H563 0.950 . S
C572 C571 1.398 . S
C572 C573 1.391 . S
C573 H561 0.950 . S
C573 C569 1.393 . S
C573 C572 1.391 . S
C574 H564 0.950 . S
C574 C575 1.386 . S
C574 C576 1.391 . S
C575 C574 1.386 . S
C575 C579 1.393 . S
C576 H565 0.950 . S
C576 C574 1.391 . S
C576 C577 1.400 . S
C577 C571 1.491 . S
C577 C576 1.400 . S
C577 C578 1.398 . S
C578 H566 0.950 . S
C578 C577 1.398 . S
C578 C579 1.391 . S
C579 H567 0.950 . S
C579 C575 1.393 . S
C579 C578 1.391 . S
H580 C588 0.950 . S
H581 C593 0.950 . S
H582 C590 0.950 . S
H583 C592 0.950 . S
H584 C594 0.950 . S
H585 C596 0.950 . S
H586 C598 0.950 . S
H587 C599 0.950 . S
C588 H580 0.950 . S
C588 C589 1.386 . S
C588 C590 1.391 . S
C589 C588 1.386 . S
C589 C593 1.393 . S
C590 H582 0.950 . S
C590 C588 1.391 . S
C590 C591 1.400 . S
C591 C590 1.400 . S
C591 C592 1.398 . S
C591 C597 1.491 . S
C592 H583 0.950 . S
C592 C591 1.398 . S
C592 C593 1.391 . S
C593 H581 0.950 . S
C593 C589 1.393 . S
C593 C592 1.391 . S
C594 H584 0.950 . S
C594 C595 1.386 . S
C594 C596 1.391 . S
C595 C594 1.386 . S
C595 C599 1.393 . S
C596 H585 0.950 . S
C596 C594 1.391 . S
C596 C597 1.400 . S
C597 C591 1.491 . S
C597 C596 1.400 . S
C597 C598 1.398 . S
C598 H586 0.950 . S
C598 C597 1.398 . S
C598 C599 1.391 . S
C599 H587 0.950 . S
C599 C595 1.393 . S
C599 C598 1.391 . S
H600 C608 0.950 . S
H601 C613 0.950 . S
H602 C610 0.950 . S
H603 C612 0.950 . S
H604 C614 0.950 . S
H605 C616 0.950 . S
H606 C618 0.950 . S
H607 C619 0.950 . S
C608 H600 0.950 . S
C608 C609 1.386 . S
C608 C610 1.391 . S
C609 C608 1.386 . S
C609 C613 1.393 . S
C610 H602 0.950 . S
C610 C608 1.391 . S
C610 C611 1.400 . S
C611 C610 1.400 . S
C611 C612 1.398 . S
C611 C617 1.491 . S
C612 H603 0.950 . S
C612 C611 1.398 . S
C612 C613 1.391 . S
C613 H601 0.950 . S
C613 C609 1.393 . S
C613 C612 1.391 . S
C614 H604 0.950 . S
C614 C615 1.386 . S
C614 C616 1.391 . S
C615 C614 1.386 . S
C615 C619 1.393 . S
C616 H605 0.950 . S
C616 C614 1.391 . S
C616 C617 1.400 . S
C617 C611 1.491 . S
C617 C616 1.400 . S
C617 C618 1.398 . S
C618 H606 0.950 . S
C618 C617 1.398 . S
C618 C619 1.391 . S
C619 H607 0.950 . S
C619 C615 1.393 . S
C619 C618 1.391 . S
H620 C628 0.950 . S
H621 C633 0.950 . S
H622 C630 0.950 . S
H623 C632 0.950 . S
H624 C634 0.950 . S
H625 C636 0.950 . S
H626 C638 0.950 . S
H627 C639 0.950 . S
C628 H620 0.950 . S
C628 C629 1.386 . S
C628 C630 1.391 . S
C629 C628 1.386 . S
C629 C633 1.393 . S
C630 H622 0.950 . S
C630 C628 1.391 . S
C630 C631 1.400 . S
C631 C630 1.400 . S
C631 C632 1.398 . S
C631 C637 1.491 . S
C632 H623 0.950 . S
C632 C631 1.398 . S
C632 C633 1.391 . S
C633 H621 0.950 . S
C633 C629 1.393 . S
C633 C632 1.391 . S
C634 H624 0.950 . S
C634 C635 1.386 . S
C634 C636 1.391 . S
C635 C634 1.386 . S
C635 C639 1.393 . S
C636 H625 0.950 . S
C636 C634 1.391 . S
C636 C637 1.400 . S
C637 C631 1.491 . S
C637 C636 1.400 . S
C637 C638 1.398 . S
C638 H626 0.950 . S
C638 C637 1.398 . S
C638 C639 1.391 . S
C639 H627 0.950 . S
C639 C635 1.393 . S
C639 C638 1.391 . S
H640 C648 0.950 . S
H641 C653 0.950 . S
H642 C650 0.950 . S
H643 C652 0.950 . S
H644 C654 0.950 . S
H645 C656 0.950 . S
H646 C658 0.950 . S
H647 C659 0.950 . S
C648 H640 0.950 . S
C648 C649 1.386 . S
C648 C650 1.391 . S
C649 C648 1.386 . S
C649 C653 1.393 . S
C650 H642 0.950 . S
C650 C648 1.391 . S
C650 C651 1.400 . S
C651 C650 1.400 . S
C651 C652 1.398 . S
C651 C657 1.491 . S
C652 H643 0.950 . S
C652 C651 1.398 . S
C652 C653 1.391 . S
C653 H641 0.950 . S
C653 C649 1.393 . S
C653 C652 1.391 . S
C654 H644 0.950 . S
C654 C655 1.386 . S
C654 C656 1.391 . S
C655 C654 1.386 . S
C655 C659 1.393 . S
C656 H645 0.950 . S
C656 C654 1.391 . S
C656 C657 1.400 . S
C657 C651 1.491 . S
C657 C656 1.400 . S
C657 C658 1.398 . S
C658 H646 0.950 . S
C658 C657 1.398 . S
C658 C659 1.391 . S
C659 H647 0.950 . S
C659 C655 1.393 . S
C659 C658 1.391 . S
H660 C668 0.950 . S
H661 C673 0.950 . S
H662 C670 0.950 . S
H663 C672 0.950 . S
H664 C674 0.950 . S
H665 C676 0.950 . S
H666 C678 0.950 . S
H667 C679 0.950 . S
C668 H660 0.950 . S
C668 C669 1.386 . S
C668 C670 1.391 . S
C669 C668 1.386 . S
C669 C673 1.393 . S
C670 H662 0.950 . S
C670 C668 1.391 . S
C670 C671 1.400 . S
C671 C670 1.400 . S
C671 C672 1.398 . S
C671 C677 1.491 . S
C672 H663 0.950 . S
C672 C671 1.398 . S
C672 C673 1.391 . S
C673 H661 0.950 . S
C673 C669 1.393 . S
C673 C672 1.391 . S
C674 H664 0.950 . S
C674 C675 1.386 . S
C674 C676 1.391 . S
C675 C674 1.386 . S
C675 C679 1.393 . S
C676 H665 0.950 . S
C676 C674 1.391 . S
C676 C677 1.400 . S
C677 C671 1.491 . S
C677 C676 1.400 . S
C677 C678 1.398 . S
C678 H666 0.950 . S
C678 C677 1.398 . S
C678 C679 1.391 . S
C679 H667 0.950 . S
C679 C675 1.393 . S
C679 C678 1.391 . S
H680 C688 0.950 . S
H681 C693 0.950 . S
H682 C690 0.950 . S
H683 C692 0.950 . S
H684 C694 0.950 . S
H685 C696 0.950 . S
H686 C698 0.950 . S
H687 C699 0.950 . S
C688 H680 0.950 . S
C688 C689 1.386 . S
C688 C690 1.391 . S
C689 C688 1.386 . S
C689 C693 1.393 . S
C690 H682 0.950 . S
C690 C688 1.391 . S
C690 C691 1.400 . S
C691 C690 1.400 . S
C691 C692 1.398 . S
C691 C697 1.491 . S
C692 H683 0.950 . S
C692 C691 1.398 . S
C692 C693 1.391 . S
C693 H681 0.950 . S
C693 C689 1.393 . S
C693 C692 1.391 . S
C694 H684 0.950 . S
C694 C695 1.386 . S
C694 C696 1.391 . S
C695 C694 1.386 . S
C695 C699 1.393 . S
C696 H685 0.950 . S
C696 C694 1.391 . S
C696 C697 1.400 . S
C697 C691 1.491 . S
C697 C696 1.400 . S
C697 C698 1.398 . S
C698 H686 0.950 . S
C698 C697 1.398 . S
C698 C699 1.391 . S
C699 H687 0.950 . S
C699 C695 1.393 . S
C699 C698 1.391 . S
H700 C708 0.950 . S
H701 C713 0.950 . S
H702 C710 0.950 . S
H703 C712 0.950 . S
H704 C714 0.950 . S
H705 C716 0.950 . S
H706 C718 0.950 . S
H707 C719 0.950 . S
C708 H700 0.950 . S
C708 C709 1.386 . S
C708 C710 1.391 . S
C709 C708 1.386 . S
C709 C713 1.393 . S
C710 H702 0.950 . S
C710 C708 1.391 . S
C710 C711 1.400 . S
C711 C710 1.400 . S
C711 C712 1.398 . S
C711 C717 1.491 . S
C712 H703 0.950 . S
C712 C711 1.398 . S
C712 C713 1.391 . S
C713 H701 0.950 . S
C713 C709 1.393 . S
C713 C712 1.391 . S
C714 H704 0.950 . S
C714 C715 1.386 . S
C714 C716 1.391 . S
C715 C714 1.386 . S
C715 C719 1.393 . S
C716 H705 0.950 . S
C716 C714 1.391 . S
C716 C717 1.400 . S
C717 C711 1.491 . S
C717 C716 1.400 . S
C717 C718 1.398 . S
C718 H706 0.950 . S
C718 C717 1.398 . S
C718 C719 1.391 . S
C719 H707 0.950 . S
C719 C715 1.393 . S
C719 C718 1.391 . S
H720 C728 0.950 . S
H721 C733 0.950 . S
H722 C730 0.950 . S
H723 C732 0.950 . S
H724 C734 0.950 . S
H725 C736 0.950 . S
H726 C738 0.950 1_655 S
H727 C739 0.950 1_655 S
C728 H720 0.950 . S
C728 C729 1.386 1_655 S
C728 C730 1.391 . S
C729 C728 1.386 1_455 S
C729 C733 1.393 . S
C730 H722 0.950 . S
C730 C728 1.391 . S
C730 C731 1.400 1_655 S
C731 C730 1.400 1_455 S
C731 C732 1.398 . S
C731 C737 1.491 . S
C732 H723 0.950 . S
C732 C731 1.398 . S
C732 C733 1.391 . S
C733 H721 0.950 . S
C733 C729 1.393 . S
C733 C732 1.391 . S
C734 H724 0.950 . S
C734 C735 1.386 . S
C734 C736 1.391 . S
C735 C734 1.386 . S
C735 C739 1.393 . S
C736 H725 0.950 . S
C736 C734 1.391 . S
C736 C737 1.400 . S
C737 C731 1.491 . S
C737 C736 1.400 . S
C737 C738 1.398 . S
C738 H726 0.950 1_455 S
C738 C737 1.398 . S
C738 C739 1.391 . S
C739 H727 0.950 1_455 S
C739 C735 1.393 . S
C739 C738 1.391 . S
H740 C748 0.950 . S
H741 C753 0.950 . S
H742 C750 0.950 . S
H743 C752 0.950 . S
H744 C754 0.950 . S
H745 C756 0.950 . S
H746 C758 0.950 1_565 S
H747 C759 0.950 . S
C748 H740 0.950 . S
C748 C749 1.386 1_565 S
C748 C750 1.391 . S
C749 C748 1.386 1_545 S
C749 C753 1.393 . S
C750 H742 0.950 . S
C750 C748 1.391 . S
C750 C751 1.400 1_565 S
C751 C750 1.400 1_545 S
C751 C752 1.398 . S
C751 C757 1.491 . S
C752 H743 0.950 . S
C752 C751 1.398 . S
C752 C753 1.391 . S
C753 H741 0.950 . S
C753 C749 1.393 . S
C753 C752 1.391 . S
C754 H744 0.950 . S
C754 C755 1.386 . S
C754 C756 1.391 . S
C755 C754 1.386 . S
C755 C759 1.393 . S
C756 H745 0.950 . S
C756 C754 1.391 . S
C756 C757 1.400 . S
C757 C751 1.491 . S
C757 C756 1.400 . S
C757 C758 1.398 . S
C758 H746 0.950 1_545 S
C758 C757 1.398 . S
C758 C759 1.391 . S
C759 H747 0.950 . S
C759 C755 1.393 . S
C759 C758 1.391 . S
H760 C768 0.950 . S
H761 C773 0.950 . S
H762 C770 0.950 . S
H763 C772 0.950 . S
H764 C774 0.950 . S
H765 C776 0.950 . S
H766 C778 0.950 . S
H767 C779 0.950 . S
C768 H760 0.950 . S
C768 C769 1.386 . S
C768 C770 1.391 . S
C769 C768 1.386 . S
C769 C773 1.393 . S
C770 H762 0.950 . S
C770 C768 1.391 . S
C770 C771 1.400 . S
C771 C770 1.400 . S
C771 C772 1.398 . S
C771 C777 1.491 . S
C772 H763 0.950 . S
C772 C771 1.398 . S
C772 C773 1.391 . S
C773 H761 0.950 . S
C773 C769 1.393 . S
C773 C772 1.391 . S
C774 H764 0.950 . S
C774 C775 1.386 . S
C774 C776 1.391 . S
C775 C774 1.386 . S
C775 C779 1.393 . S
C776 H765 0.950 . S
C776 C774 1.391 . S
C776 C777 1.400 . S
C777 C771 1.491 . S
C777 C776 1.400 . S
C777 C778 1.398 . S
C778 H766 0.950 . S
C778 C777 1.398 . S
C778 C779 1.391 . S
C779 H767 0.950 . S
C779 C775 1.393 . S
C779 C778 1.391 . S
H780 C788 0.950 . S
H781 C793 0.950 . S
H782 C790 0.950 . S
H783 C792 0.950 . S
H784 C794 0.933 1_565 S
H785 C796 0.952 1_565 S
H786 C798 0.950 . S
H787 C799 0.950 . S
C788 H780 0.950 . S
C788 C789 1.386 . S
C788 C790 1.391 . S
C789 C788 1.386 . S
C789 C793 1.393 1_545 S
C790 H782 0.950 . S
C790 C788 1.391 . S
C790 C791 1.400 . S
C791 C790 1.400 . S
C791 C792 1.398 1_545 S
C791 C797 1.491 . S
C792 H783 0.950 . S
C792 C791 1.398 1_565 S
C792 C793 1.391 . S
C793 H781 0.950 . S
C793 C789 1.393 1_565 S
C793 C792 1.391 . S
C794 H784 0.933 1_545 S
C794 C795 1.402 . S
C794 C796 1.392 . S
C795 C794 1.402 . S
C795 C799 1.393 . S
C796 H785 0.952 1_545 S
C796 C794 1.392 . S
C796 C797 1.398 . S
C797 C791 1.491 . S
C797 C796 1.398 . S
C797 C798 1.398 . S
C798 H786 0.950 . S
C798 C797 1.398 . S
C798 C799 1.391 . S
C799 H787 0.950 . S
C799 C795 1.393 . S
C799 C798 1.391 . S
H800 C808 0.950 . S
H801 C813 0.950 . S
H802 C810 0.950 . S
H803 C812 0.950 . S
H804 C814 0.950 . S
H805 C816 0.950 . S
H806 C818 0.950 . S
H807 C819 0.950 . S
C808 H800 0.950 . S
C808 C809 1.386 . S
C808 C810 1.391 . S
C809 C808 1.386 . S
C809 C813 1.393 . S
C810 H802 0.950 . S
C810 C808 1.391 . S
C810 C811 1.400 . S
C811 C810 1.400 . S
C811 C812 1.398 . S
C811 C817 1.491 . S
C812 H803 0.950 . S
C812 C811 1.398 . S
C812 C813 1.391 . S
C813 H801 0.950 . S
C813 C809 1.393 . S
C813 C812 1.391 . S
C814 H804 0.950 . S
C814 C815 1.407 . S
C814 C816 1.391 . S
C815 C814 1.407 . S
C815 C819 1.416 . S
C816 H805 0.950 . S
C816 C814 1.391 . S
C816 C817 1.400 . S
C817 C811 1.491 . S
C817 C816 1.400 . S
C817 C818 1.398 . S
C818 H806 0.950 . S
C818 C817 1.398 . S
C818 C819 1.391 . S
C819 H807 0.950 . S
C819 C815 1.416 . S
C819 C818 1.391 . S
H820 C828 0.950 . S
H821 C833 0.950 . S
H822 C830 0.950 . S
H823 C832 0.950 . S
H824 C834 0.950 . S
H825 C836 0.950 . S
H826 C838 0.950 . S
H827 C839 0.950 . S
C828 H820 0.950 . S
C828 C829 1.386 . S
C828 C830 1.391 . S
C829 C828 1.386 . S
C829 C833 1.393 1_455 S
C830 H822 0.950 . S
C830 C828 1.391 . S
C830 C831 1.400 . S
C831 C830 1.400 . S
C831 C832 1.398 1_455 S
C831 C837 1.491 . S
C832 H823 0.950 . S
C832 C831 1.398 1_655 S
C832 C833 1.391 . S
C833 H821 0.950 . S
C833 C829 1.393 1_655 S
C833 C832 1.391 . S
C834 H824 0.950 . S
C834 C835 1.386 1_655 S
C834 C836 1.391 . S
C835 C834 1.386 1_455 S
C835 C839 1.393 . S
C836 H825 0.950 . S
C836 C834 1.391 . S
C836 C837 1.400 1_655 S
C837 C831 1.491 . S
C837 C836 1.400 1_455 S
C837 C838 1.398 . S
C838 H826 0.950 . S
C838 C837 1.398 . S
C838 C839 1.391 . S
C839 H827 0.950 . S
C839 C835 1.393 . S
C839 C838 1.391 . S
C489 C12 2.940 . S
C495 C451 2.928 . S
C509 C52 2.931 . S
C515 C301 2.785 . S
C529 C111 2.989 . S
C535 C361 2.811 . S
C549 C31 3.134 . S
C555 C421 2.947 . S
C575 C331 3.124 . S
C569 C71 3.138 . S
C595 C391 3.066 . S
C589 C92 3.078 . S
C609 C48 0.485 . S
C615 C181 0.499 . S
C629 C109 0.493 . S
C635 C271 0.421 . S
C649 C29 0.486 . S
C655 C151 0.386 . S
C675 C211 0.407 . S
C669 C69 0.463 . S
C695 C241 0.430 . S
C689 C88 0.318 . S
C709 C8 0.334 . S
C715 C121 0.356 . S
C735 C260 1.060 1_554 S
C729 C17 1.075 . S
C749 C57 1.064 . S
C755 C140 1.071 . S
C769 C97 1.059 . S
C775 C200 1.074 . S
C795 C380 1.758 . S
C789 C42 1.728 . S
C815 C440 1.726 1_556 S
C809 C82 1.742 . S
C829 C2 1.730 . S
C835 C320 1.763 . S
