# Generated by pormake.
# Topology pth, (4,4)-cn, num edge types: 1
# Building blocks:
#     Node 0, Type 0, BuildingBlock: UXUYUI_clean_sbu_0, # of connection points: 4
#     Node 1, Type 0, BuildingBlock: UXUYUI_clean_sbu_0, # of connection points: 4
#     Node 2, Type 0, BuildingBlock: UXUYUI_clean_sbu_0, # of connection points: 4
#     Node 3, Type 1, BuildingBlock: AZAVOO_clean_linker_0, # of connection points: 4
#     Node 4, Type 1, BuildingBlock: AZAVOO_clean_linker_0, # of connection points: 4
#     Node 5, Type 1, BuildingBlock: AZAVOO_clean_linker_0, # of connection points: 4
#     Edge 6, Type (0, 1), BuildingBlock: MIFKUJ_clean_linker_0, # of connection points: 2
#     Edge 7, Type (0, 1), BuildingBlock: MIFKUJ_clean_linker_0, # of connection points: 2
#     Edge 8, Type (0, 1), BuildingBlock: MIFKUJ_clean_linker_0, # of connection points: 2
#     Edge 9, Type (0, 1), BuildingBlock: MIFKUJ_clean_linker_0, # of connection points: 2
#     Edge 10, Type (0, 1), BuildingBlock: MIFKUJ_clean_linker_0, # of connection points: 2
#     Edge 11, Type (0, 1), BuildingBlock: MIFKUJ_clean_linker_0, # of connection points: 2
#     Edge 12, Type (0, 1), BuildingBlock: MIFKUJ_clean_linker_0, # of connection points: 2
#     Edge 13, Type (0, 1), BuildingBlock: MIFKUJ_clean_linker_0, # of connection points: 2
#     Edge 14, Type (0, 1), BuildingBlock: MIFKUJ_clean_linker_0, # of connection points: 2
#     Edge 15, Type (0, 1), BuildingBlock: MIFKUJ_clean_linker_0, # of connection points: 2
#     Edge 16, Type (0, 1), BuildingBlock: MIFKUJ_clean_linker_0, # of connection points: 2
#     Edge 17, Type (0, 1), BuildingBlock: MIFKUJ_clean_linker_0, # of connection points: 2
# Relax obj value: 0.169
# Max RMSD: 0.230
# Mean RMSD: 0.228
data_MOF--net-pth--node1-UXUYUI_clean_sbu_0--node2-AZAVOO_clean_linker_0--edge1-MIFKUJ_clean_linker_0
_symmetry_space_group_name_H-M    P1
_symmetry_Int_Tables_number       1
_symmetry_cell_setting            triclinic
loop_
_symmetry_equiv_pos_as_xyz
'x, y, z'
_cell_length_a     37.905412
_cell_length_b     37.880429
_cell_length_c     102.5696
_cell_angle_alpha  91.315077
_cell_angle_beta   89.180988
_cell_angle_gamma 120.00913
loop_
_atom_site_label
_atom_site_type_symbol
_atom_site_fract_x
_atom_site_fract_y
_atom_site_fract_z
_atom_type_partial_charge
Li0 Li 0.07625 0.06242 0.04068 0.0
Li1 Li 0.02573 0.06179 0.05577 0.0
Li2 Li 0.04187 0.00726 0.05555 0.0
Li3 Li 0.00381 0.0145 0.03791 0.0
C4 C 0.09823 0.06442 0.07052 0.0
N5 N 0.1355 0.05761 0.09252 0.0
C6 C 0.08545 0.06955 0.08292 0.0
C7 C 0.13013 0.05606 0.06932 0.0
C8 C 0.10468 0.06598 0.09392 0.0
C9 C 0.1485 0.05262 0.08056 0.0
C10 C 0.02943 0.10866 0.03717 0.0
C11 C 0.98955 0.14201 0.03921 0.0
N12 N 0.02438 0.17887 0.03892 0.0
C13 C 0.06483 0.14685 0.03683 0.0
C14 C 0.99146 0.10615 0.03831 0.0
C15 C 0.06163 0.182 0.03774 0.0
C16 C 0.12269 0.09838 0.01847 0.0
N17 N 0.12509 0.09626 0.0316 0.0
C18 C 0.19638 0.14435 0.03123 0.0
C19 C 0.16083 0.11867 0.03808 0.0
C20 C 0.19487 0.14654 0.01763 0.0
C21 C 0.15751 0.12309 0.01122 0.0
H22 H 0.09357 0.08109 0.01365 0.0
H23 H 0.16162 0.11706 0.04857 0.0
C24 C 0.97803 0.08035 0.07314 0.0
N25 N 0.01483 0.09506 0.06715 0.0
C26 C 0.97264 0.10322 0.08302 0.0
C27 C 0.04279 0.15618 0.08007 0.0
C28 C 0.04674 0.13244 0.07023 0.0
C29 C 0.00567 0.14115 0.08681 0.0
H30 H 0.95345 0.05019 0.07064 0.0
H31 H 0.07579 0.14298 0.06541 0.0
C32 C 0.07309 0.00089 0.02704 0.0
N33 N 0.12267 -5e-05 0.00718 0.0
C34 C 0.05981 0.99469 0.01411 0.0
C35 C 0.11149 0.00634 0.02987 0.0
C36 C 0.08533 0.99434 0.0042 0.0
C37 C 0.13615 0.00589 0.01969 0.0
C38 C 0.94863 0.97165 0.05536 0.0
C39 C 0.9395 0.93162 0.05746 0.0
C40 C 0.91773 0.97927 0.05167 0.0
C41 C 0.89953 0.89976 0.05572 0.0
C42 C 0.87817 0.94657 0.05002 0.0
N43 N 0.86997 0.90783 0.05206 0.0
C44 C 0.03389 0.96792 0.07886 0.0
C45 C 0.06453 0.94865 0.06195 0.0
C46 C 0.03931 0.94365 0.08767 0.0
N47 N 0.04715 0.97051 0.06636 0.0
C48 C 0.07017 0.92356 0.07041 0.0
C49 C 0.05785 0.92115 0.08351 0.0
H50 H 0.01982 0.98545 0.08202 0.0
H51 H 0.0742 0.95086 0.0519 0.0
C52 C 0.95376 0.00602 0.01657 0.0
N53 N 0.96404 0.98556 0.02501 0.0
C54 C 0.92942 0.98569 0.00578 0.0
C55 C 0.92567 0.92346 0.01291 0.0
C56 C 0.95022 0.94501 0.0235 0.0
C57 C 0.91585 0.94404 0.00369 0.0
H58 H 0.966 0.03847 0.01787 0.0
H59 H 0.95972 0.92983 0.03022 0.0
O60 O 0.07922 0.06691 0.05962 0.0
O61 O 0.03196 0.0739 0.03657 0.0
O62 O 0.04879 0.00193 0.03687 0.0
O63 O 0.98764 0.00321 0.05686 0.0
H64 H 0.06054 0.07557 0.08407 0.0
H65 H 0.14027 0.05178 0.05981 0.0
H66 H 0.09494 0.06964 0.10357 0.0
H67 H 0.17302 0.04587 0.07977 0.0
H68 H 0.96039 0.14054 0.04018 0.0
H69 H 0.09447 0.14934 0.03601 0.0
H70 H 0.9638 0.07681 0.03863 0.0
H71 H 0.08876 0.21177 0.03756 0.0
H72 H 0.22469 0.16227 0.03648 0.0
H73 H 0.15506 0.12471 0.00077 0.0
H74 H 0.94367 0.09049 0.08808 0.0
H75 H 0.06883 0.18547 0.08264 0.0
H76 H 0.03034 0.99067 0.01169 0.0
H77 H 0.12238 0.01142 0.0398 0.0
H78 H 0.07552 0.98978 0.99415 0.0
H79 H 0.16605 0.01037 0.02174 0.0
H80 H 0.96305 0.92516 0.06028 0.0
H81 H 0.92434 0.01006 0.04995 0.0
H82 H 0.89204 0.8686 0.05726 0.0
H83 H 0.85401 0.95199 0.04708 0.0
H84 H 0.02984 0.94327 0.0977 0.0
H85 H 0.08389 0.90619 0.06672 0.0
H86 H 0.92303 0.00283 -0.00118 0.0
H87 H 0.91545 0.89128 0.01176 0.0
Li88 Li 0.0076 0.97244 0.37589 0.0
Li89 Li 0.05733 0.0247 0.38939 0.0
Li90 Li 0.98867 0.00656 0.39245 0.0
Li91 Li 0.02734 0.04525 0.37313 0.0
C92 C 0.98267 0.93433 0.39933 0.0
N93 N 0.92259 0.85947 0.40813 0.0
C94 C 0.99127 0.91455 0.40907 0.0
C95 C 0.94345 0.91596 0.39406 0.0
C96 C 0.9605 0.87674 0.41338 0.0
C97 C 0.91352 0.87814 0.39864 0.0
C98 C 0.09694 0.02302 0.36712 0.0
C99 C 0.16306 0.0604 0.35698 0.0
N100 N 0.17204 0.03181 0.36098 0.0
C101 C 0.10669 0.99388 0.37107 0.0
C102 C 0.1252 0.05648 0.35998 0.0
C103 C 0.14489 -0.00107 0.36789 0.0
C104 C 0.97404 0.91548 0.35513 0.0
N105 N 0.99303 0.92313 0.36683 0.0
C106 C 0.99642 0.86199 0.36501 0.0
C107 C 0.00391 0.89715 0.37192 0.0
C108 C 0.97787 0.85375 0.35271 0.0
C109 C 0.96609 0.88069 0.34784 0.0
H110 H 0.96601 0.93692 0.35132 0.0
H111 H 0.01946 0.90431 0.38118 0.0
C112 C 0.09645 0.02401 0.41151 0.0
N113 N 0.105 0.04001 0.3994 0.0
C114 C 0.12774 0.03211 0.42011 0.0
C115 C 0.17646 0.07411 0.40378 0.0
C116 C 0.14404 0.06526 0.39547 0.0
C117 C 0.16841 0.05702 0.41623 0.0
H118 H 0.06513 0.00515 0.41454 0.0
H119 H 0.15016 0.07875 0.38596 0.0
C120 C 0.94316 0.00716 0.37068 0.0
N121 N 0.8879 0.03116 0.36416 0.0
C122 C 0.94502 0.04154 0.37671 0.0
C123 C 0.91322 0.98502 0.36134 0.0
C124 C 0.91681 0.05317 0.37328 0.0
C125 C 0.88554 0.99762 0.35818 0.0
C126 C 0.06941 0.09627 0.39655 0.0
C127 C 0.07238 0.10517 0.40992 0.0
C128 C 0.10157 0.1213 0.38828 0.0
C129 C 0.10763 0.13888 0.41482 0.0
C130 C 0.13627 0.15478 0.39356 0.0
N131 N 0.13858 0.16277 0.40661 0.0
C132 C 0.96636 0.00826 0.41784 0.0
C133 C 0.91043 0.98694 0.40353 0.0
C134 C 0.94251 0.00669 0.4285 0.0
N135 N 0.95039 -0.00042 0.40564 0.0
C136 C 0.88546 0.98524 0.41393 0.0
C137 C 0.90174 0.99588 0.42657 0.0
H138 H -0.0021 0.0169 0.41922 0.0
H139 H 0.89794 0.97852 0.39382 0.0
C140 C 0.03816 0.07823 0.3481 0.0
N141 N 0.03377 0.08471 0.36095 0.0
C142 C 0.04118 0.10623 0.3389 0.0
C143 C 0.03519 0.14688 0.35639 0.0
C144 C 0.0325 0.11826 0.36524 0.0
C145 C 0.03935 0.14092 0.34302 0.0
H146 H 0.03882 0.05107 0.34501 0.0
H147 H 0.02899 0.12257 0.37553 0.0
O148 O 0.01273 0.97143 0.39506 0.0
O149 O 0.05979 0.01874 0.37013 0.0
O150 O 0.97092 0.99554 0.37366 0.0
O151 O 0.03561 0.06281 0.39158 0.0
H152 H 0.02147 0.92824 0.41323 0.0
H153 H 0.93604 0.93056 0.38651 0.0
H154 H 0.96677 0.86111 0.42091 0.0
H155 H 0.88308 0.86362 0.39465 0.0
H156 H 0.18531 0.08621 0.3515 0.0
H157 H 0.08523 0.96799 0.37668 0.0
H158 H 0.11801 0.07926 0.35685 0.0
H159 H 0.15299 0.97676 0.37095 0.0
H160 H 0.00662 0.84242 0.36901 0.0
H161 H 0.95153 0.87528 0.33842 0.0
H162 H 0.12008 0.01926 0.42976 0.0
H163 H 0.2074 0.09362 0.40043 0.0
H164 H 0.96779 0.05892 0.38402 0.0
H165 H 0.91145 0.9584 0.35656 0.0
H166 H 0.91789 0.07968 0.37787 0.0
H167 H 0.8622 0.98077 0.35097 0.0
H168 H 0.04782 0.08627 0.41647 0.0
H169 H 0.10011 0.11452 0.37794 0.0
H170 H 0.1104 0.14604 0.42516 0.0
H171 H 0.16148 0.17423 0.38728 0.0
H172 H 0.95627 0.01522 0.43808 0.0
H173 H 0.85391 0.97601 0.4121 0.0
H174 H 0.04398 0.10035 0.32866 0.0
H175 H 0.03416 0.17347 0.35998 0.0
Li176 Li 0.08945 0.04719 0.71043 0.0
Li177 Li 0.08764 0.10176 0.72312 0.0
Li178 Li 0.03607 0.03128 0.72659 0.0
Li179 Li 0.03911 0.06717 0.70679 0.0
C180 C 0.13417 0.07209 0.73414 0.0
N181 N 0.21298 0.1051 0.74322 0.0
C182 C 0.16681 0.10213 0.72705 0.0
C183 C 0.14169 0.05894 0.74586 0.0
C184 C 0.20639 0.11843 0.7318 0.0
C185 C 0.18174 0.07594 0.75027 0.0
C186 C 0.10131 0.12175 0.69344 0.0
C187 C 0.0896 0.17081 0.68258 0.0
N188 N 0.10404 0.16327 0.67127 0.0
C189 C 0.1166 0.11497 0.68175 0.0
C190 C 0.08825 0.15034 0.6939 0.0
C191 C 0.11754 0.13609 0.67064 0.0
C192 C 0.11371 0.01891 0.68889 0.0
N193 N 0.12127 0.02739 0.70182 0.0
C194 C 0.17688 0.01458 0.70052 0.0
C195 C 0.15083 0.02341 0.70783 0.0
C196 C 0.17189 0.009 0.68694 0.0
C197 C 0.1388 0.0097 0.68121 0.0
H198 H 0.08899 0.0208 0.68445 0.0
H199 H 0.15517 0.0282 0.71821 0.0
C200 C 0.12368 0.15349 0.74496 0.0
N201 N 0.12206 0.15237 0.73172 0.0
C202 C 0.15266 0.18856 0.75151 0.0
C203 C 0.17768 0.22066 0.73069 0.0
C204 C 0.14796 0.1851 0.72454 0.0
C205 C 0.18063 0.22238 0.74433 0.0
H206 H 0.10365 0.12652 0.75039 0.0
H207 H 0.14682 0.18304 0.71403 0.0
C208 C 0.02127 0.97146 0.70787 0.0
N209 N 0.00286 0.89106 0.70729 0.0
C210 C 0.99318 0.94387 0.69886 0.0
C211 C 0.04009 0.9582 0.71658 0.0
C212 C 0.98426 0.90334 0.69872 0.0
C213 C 0.03034 0.91742 0.71613 0.0
C214 C 0.02574 0.10379 0.73413 0.0
C215 C 0.01753 0.09139 0.74709 0.0
C216 C 0.03221 0.14223 0.73087 0.0
C217 C 0.01655 0.1179 0.7566 0.0
C218 C 0.03106 0.16789 0.74067 0.0
N219 N 0.02335 0.15531 0.75322 0.0
C220 C 0.01243 0.98719 0.7502 0.0
C221 C 0.96098 0.96705 0.7342 0.0
C222 C 0.9848 0.95784 0.75872 0.0
N223 N -2e-05 0.99127 0.73826 0.0
C224 C 0.93244 0.93715 0.74234 0.0
C225 C 0.94412 0.9324 0.75483 0.0
H226 H 0.0436 0.00719 0.75317 0.0
H227 H 0.95212 0.97104 0.72461 0.0
C228 C 0.00597 0.05743 0.6816 0.0
N229 N 0.00576 0.07082 0.69399 0.0
C230 C 0.98051 0.05897 0.6722 0.0
C231 C 0.95518 0.08784 0.68856 0.0
C232 C 0.9812 0.08591 0.6976 0.0
C233 C 0.95441 0.07399 0.67569 0.0
H234 H 0.02566 0.04525 0.67908 0.0
H235 H 0.98154 0.09608 0.70755 0.0
O236 O 0.09493 0.05673 0.72996 0.0
O237 O 0.09952 0.10087 0.7044 0.0
O238 O 0.03022 0.01122 0.70807 0.0
O239 O 0.02734 0.07842 0.7247 0.0
H240 H 0.16173 0.11279 0.71797 0.0
H241 H 0.11686 0.03591 0.75151 0.0
H242 H 0.23188 0.1417 0.72642 0.0
H243 H 0.18797 0.06602 0.75932 0.0
H244 H 0.07915 0.19267 0.68279 0.0
H245 H 0.12794 0.0939 0.68125 0.0
H246 H 0.07679 0.15633 0.70287 0.0
H247 H 0.12912 0.13095 0.66153 0.0
H248 H 0.2018 0.01412 0.70539 0.0
H249 H 0.13304 0.00437 0.67084 0.0
H250 H 0.15452 0.18845 0.76204 0.0
H251 H 0.19882 0.24613 0.72483 0.0
H252 H 0.97843 0.95372 0.69204 0.0
H253 H 0.06197 0.97908 0.72361 0.0
H254 H 0.96255 0.88163 0.6918 0.0
H255 H 0.04464 0.90674 0.72281 0.0
H256 H 0.0123 0.06181 0.74983 0.0
H257 H 0.0382 0.15229 0.72091 0.0
H258 H 0.01048 0.10876 0.76667 0.0
H259 H 0.03628 0.1978 0.73828 0.0
H260 H 0.99501 0.95566 0.76831 0.0
H261 H 0.90164 0.91781 0.73885 0.0
H262 H 0.98049 0.04759 0.66242 0.0
H263 H 0.93585 0.10004 0.6916 0.0
H264 H 0.03145 0.48164 0.13265 0.0
H265 H 0.12156 0.79593 0.24812 0.0
H266 H 0.98986 0.44498 0.21163 0.0
H267 H 0.97256 0.38169 0.1998 0.0
H268 H 0.09901 0.43203 0.18871 0.0
H269 H 0.11616 0.49445 0.2011 0.0
H270 H 0.00385 0.49732 0.1882 0.0
H271 H 0.00306 0.48327 0.16477 0.0
H272 H 0.13389 0.56195 0.16338 0.0
H273 H 0.13424 0.5753 0.18687 0.0
H274 H 0.01417 0.58449 0.1954 0.0
H275 H 0.01965 0.63375 0.17935 0.0
H276 H 0.15058 0.69973 0.184 0.0
H277 H 0.14467 0.64934 0.19977 0.0
H278 H 0.01096 0.60038 0.22963 0.0
H279 H 0.01452 0.66209 0.23902 0.0
H280 H 0.14534 0.72675 0.23382 0.0
H281 H 0.14133 0.66464 0.22463 0.0
H282 H -0.00166 0.52342 0.24486 0.0
H283 H 0.98659 0.54786 0.26583 0.0
H284 H 0.11446 0.63788 0.2681 0.0
H285 H 0.12632 0.61232 0.24728 0.0
H286 H 0.99434 0.45727 0.23571 0.0
H287 H 0.99059 0.40648 0.25088 0.0
H288 H 0.12219 0.4693 0.25243 0.0
H289 H 0.12546 0.51917 0.23698 0.0
O290 O 0.03245 0.48763 0.1419 0.0
O291 O 0.09964 0.52879 0.14168 0.0
O292 O 0.05197 0.73639 0.24697 0.0
O293 O 0.11921 0.77128 0.24427 0.0
C294 C 0.06299 0.51448 0.21236 0.0
C295 C 0.06952 0.54511 0.20346 0.0
C296 C 0.07527 0.58292 0.2081 0.0
C297 C 0.07371 0.58991 0.22159 0.0
C298 C 0.06764 0.55942 0.2305 0.0
C299 C 0.0628 0.52193 0.22588 0.0
C300 C 0.05429 0.47403 0.20731 0.0
C301 C 0.014 0.44166 0.20706 0.0
C302 C 0.00411 0.4058 0.20013 0.0
C303 C 0.03432 0.40198 0.19319 0.0
C304 C 0.07507 0.43375 0.19406 0.0
C305 C 0.08497 0.46948 0.2011 0.0
C306 C 0.0691 0.53719 0.1892 0.0
C307 C 0.03229 0.51137 0.18281 0.0
C308 C 0.03194 0.50347 0.16943 0.0
C309 C 0.06843 0.52147 0.1622 0.0
C310 C 0.10526 0.54758 0.16866 0.0
C311 C 0.10555 0.55533 0.18205 0.0
C312 C 0.079 0.61367 0.19875 0.0
C313 C 0.04396 0.6097 0.19296 0.0
C314 C 0.04718 0.63797 0.18387 0.0
C315 C 0.08556 0.67078 0.18046 0.0
C316 C 0.12065 0.67461 0.18634 0.0
C317 C 0.11736 0.64616 0.1954 0.0
C318 C 0.07585 0.62821 0.22638 0.0
C319 C 0.04029 0.62802 0.23044 0.0
C320 C 0.04244 0.66326 0.23583 0.0
C321 C 0.08025 0.69937 0.23717 0.0
C322 C 0.11576 0.6995 0.23291 0.0
C323 C 0.11356 0.66417 0.22758 0.0
C324 C 0.06316 0.56615 0.24456 0.0
C325 C 0.02416 0.547 0.25019 0.0
C326 C 0.01746 0.5611 0.26213 0.0
C327 C 0.0496 0.59492 0.26845 0.0
C328 C 0.08923 0.61183 0.26334 0.0
C329 C 0.09604 0.59723 0.25151 0.0
C330 C 0.06016 0.49157 0.23522 0.0
C331 C 0.02227 0.45984 0.23931 0.0
C332 C 0.02023 0.43111 0.24803 0.0
C333 C 0.05612 0.43381 0.25283 0.0
C334 C 0.09403 0.46599 0.24876 0.0
C335 C 0.09599 0.49461 0.24002 0.0
C336 C 0.06795 0.51297 0.14798 0.0
C337 C 0.08278 0.7367 0.24309 0.0
H338 H 0.61266 0.06441 0.46742 0.0
H339 H 0.3384 0.08798 0.58378 0.0
H340 H 0.60232 0.01497 0.54706 0.0
H341 H 0.656 0.00936 0.53534 0.0
H342 H 0.71111 0.13572 0.52452 0.0
H343 H 0.65713 0.14096 0.53625 0.0
H344 H 0.56217 0.02246 0.52166 0.0
H345 H 0.58104 0.02833 0.49858 0.0
H346 H 0.60414 0.15233 0.4992 0.0
H347 H 0.58578 0.14622 0.52236 0.0
H348 H 0.4796 0.0213 0.52397 0.0
H349 H 0.43585 0.0253 0.50747 0.0
H350 H 0.46664 0.14517 0.52219 0.0
H351 H 0.5112 0.14122 0.53848 0.0
H352 H 0.43905 0.01081 0.55134 0.0
H353 H 0.37446 0.00483 0.55859 0.0
H354 H 0.44041 0.12472 0.57667 0.0
H355 H 0.50465 0.13068 0.5691 0.0
H356 H 0.48905 0.00109 0.57579 0.0
H357 H 0.45702 0.99215 0.59728 0.0
H358 H 0.53315 0.121 0.60549 0.0
H359 H 0.56566 0.12959 0.58399 0.0
H360 H 0.5687 0.01254 0.57556 0.0
H361 H 0.61797 0.0122 0.59071 0.0
H362 H 0.7034 0.13758 0.58149 0.0
H363 H 0.65382 0.13783 0.56651 0.0
O364 O 0.60519 0.06272 0.47655 0.0
O365 O 0.61584 0.12604 0.47731 0.0
O366 O 0.33085 0.03245 0.56888 0.0
O367 O 0.36347 0.0896 0.58077 0.0
C368 C 0.58882 0.07878 0.547 0.0
C369 C 0.56243 0.08064 0.5378 0.0
C370 C 0.52606 0.07896 0.54201 0.0
C371 C 0.51558 0.07451 0.55536 0.0
C372 C 0.54188 0.07236 0.56453 0.0
C373 C 0.57884 0.07521 0.5604 0.0
C374 C 0.62573 0.07824 0.54237 0.0
C375 C 0.62669 0.04173 0.54249 0.0
C376 C 0.65736 0.03861 0.5358 0.0
C377 C 0.68739 0.07198 0.52888 0.0
C378 C 0.68795 0.10937 0.52961 0.0
C379 C 0.65737 0.11249 0.53634 0.0
C380 C 0.57274 0.08395 0.52367 0.0
C381 C 0.5714 0.05088 0.51679 0.0
C382 C 0.58214 0.0543 0.50361 0.0
C383 C 0.59415 0.09082 0.49704 0.0
C384 C 0.59506 0.12379 0.50396 0.0
C385 C 0.58449 0.12036 0.51717 0.0
C386 C 0.49849 0.08099 0.53236 0.0
C387 C 0.47684 0.04838 0.52361 0.0
C388 C 0.45174 0.05064 0.51426 0.0
C389 C 0.44781 0.08555 0.51355 0.0
C390 C 0.46943 0.1181 0.52241 0.0
C391 C 0.49457 0.11579 0.53177 0.0
C392 C 0.47647 0.07114 0.55972 0.0
C393 C 0.43942 0.03581 0.55681 0.0
C394 C 0.40262 0.03246 0.56098 0.0
C395 C 0.40231 0.06433 0.56821 0.0
C396 C 0.43958 0.0996 0.57115 0.0
C397 C 0.47631 0.10306 0.56686 0.0
C398 C 0.52953 0.06595 0.5784 0.0
C399 C 0.4998 0.02708 0.58243 0.0
C400 C 0.48167 0.02203 0.59468 0.0
C401 C 0.49267 0.05593 0.60298 0.0
C402 C 0.52426 0.09446 0.59924 0.0
C403 C 0.54287 0.09937 0.58704 0.0
C404 C 0.60764 0.0753 0.57002 0.0
C405 C 0.59781 0.04008 0.57697 0.0
C406 C 0.62595 0.03991 0.58558 0.0
C407 C 0.66449 0.07484 0.58723 0.0
C408 C 0.67409 0.11012 0.5803 0.0
C409 C 0.64581 0.11038 0.5718 0.0
C410 C 0.60572 0.09441 0.48305 0.0
C411 C 0.36333 0.061 0.57262 0.0
H412 H 0.61895 0.61528 0.96646 0.0
H413 H 0.35944 0.27409 0.86865 0.0
H414 H 0.58648 0.62819 0.89818 0.0
H415 H 0.64058 0.69347 0.90642 0.0
H416 H 0.73053 0.66696 0.88978 0.0
H417 H 0.67562 0.60038 0.88209 0.0
H418 H 0.53642 0.56046 0.91615 0.0
H419 H 0.56086 0.58391 0.93837 0.0
H420 H 0.66732 0.57326 0.92995 0.0
H421 H 0.64227 0.54943 0.90779 0.0
H422 H 0.46964 0.48961 0.90547 0.0
H423 H 0.43346 0.44501 0.92378 0.0
H424 H 0.52344 0.40695 0.92474 0.0
H425 H 0.55994 0.4523 0.90653 0.0
H426 H 0.45083 0.4769 0.87414 0.0
H427 H 0.38988 0.41137 0.86923 0.0
H428 H 0.45698 0.34947 0.877 0.0
H429 H 0.51781 0.41526 0.88173 0.0
H430 H 0.51156 0.55244 0.85729 0.0
H431 H 0.47587 0.52941 0.83642 0.0
H432 H 0.50815 0.43504 0.83362 0.0
H433 H 0.54443 0.45878 0.85442 0.0
H434 H 0.58733 0.62822 0.867 0.0
H435 H 0.63152 0.6755 0.85028 0.0
H436 H 0.67235 0.59101 0.83913 0.0
H437 H 0.62867 0.54435 0.856 0.0
O438 O 0.60947 0.60521 0.95771 0.0
O439 O 0.66376 0.59941 0.95287 0.0
O440 O 0.35001 0.33371 0.86659 0.0
O441 O 0.38308 0.30041 0.87054 0.0
C442 C 0.59399 0.56775 0.88653 0.0
C443 C 0.57344 0.54052 0.89675 0.0
C444 C 0.53951 0.50189 0.89397 0.0
C445 C 0.52572 0.4906 0.88103 0.0
C446 C 0.54669 0.51767 0.87078 0.0
C447 C 0.58128 0.55594 0.87351 0.0
C448 C 0.62724 0.60953 0.88969 0.0
C449 C 0.61788 0.63675 0.89618 0.0
C450 C 0.64892 0.67428 0.90074 0.0
C451 C 0.69001 0.68554 0.89876 0.0
C452 C 0.69922 0.65899 0.8916 0.0
C453 C 0.668 0.62114 0.88713 0.0
C454 C 0.58739 0.55288 0.91042 0.0
C455 C 0.56473 0.56269 0.91919 0.0
C456 C 0.57889 0.57631 0.93184 0.0
C457 C 0.61605 0.58046 0.93594 0.0
C458 C 0.63857 0.57037 0.92712 0.0
C459 C 0.62432 0.5567 0.91447 0.0
C460 C 0.51726 0.47401 0.90475 0.0
C461 C 0.48146 0.47162 0.90965 0.0
C462 C 0.46106 0.44641 0.9201 0.0
C463 C 0.47588 0.4228 0.92564 0.0
C464 C 0.51145 0.42481 0.92057 0.0
C465 C 0.53224 0.45059 0.91024 0.0
C466 C 0.48866 0.45075 0.87826 0.0
C467 C 0.45228 0.44913 0.87475 0.0
C468 C 0.41753 0.41168 0.87197 0.0
C469 C 0.41856 0.37516 0.87272 0.0
C470 C 0.45512 0.37698 0.87633 0.0
C471 C 0.48987 0.41448 0.87906 0.0
C472 C 0.53037 0.50713 0.85735 0.0
C473 C 0.51168 0.52738 0.85201 0.0
C474 C 0.4911 0.51404 0.84017 0.0
C475 C 0.48898 0.48025 0.83347 0.0
C476 C 0.50957 0.46135 0.83852 0.0
C477 C 0.53009 0.47469 0.8504 0.0
C478 C 0.60509 0.58308 0.86273 0.0
C479 C 0.60566 0.61992 0.86087 0.0
C480 C 0.6307 0.64671 0.85129 0.0
C481 C 0.65556 0.63702 0.84346 0.0
C482 C 0.65397 0.59952 0.84514 0.0
C483 C 0.62887 0.57275 0.85469 0.0
C484 C 0.63131 0.59552 0.94933 0.0
C485 C 0.38175 0.33529 0.86976 0.0
H486 H 0.94435 0.15701 0.09301 0.0
H487 H 0.94005 0.19447 0.11226 0.0
H488 H 0.05535 0.2127 0.12579 0.0
H489 H 0.05962 0.17514 0.10673 0.0
H490 H 0.99706 0.18918 0.14547 0.0
H491 H 0.05278 0.28732 0.11075 0.0
H492 H 0.05242 0.31347 0.08898 0.0
H493 H 0.94061 0.3114 0.09831 0.0
H494 H 0.94003 0.28467 0.12008 0.0
H495 H 0.07466 0.35968 0.1886 0.0
H496 H 0.06023 0.30807 0.17159 0.0
H497 H 0.9536 0.31308 0.1603 0.0
H498 H 0.96888 0.366 0.17685 0.0
H499 H -0.00225 0.31923 0.13978 0.0
H500 H 0.94563 0.22883 0.17547 0.0
H501 H 0.94549 0.2028 0.19728 0.0
H502 H 0.048 0.1892 0.18652 0.0
H503 H 0.04915 0.21572 0.16468 0.0
C504 C 0.96861 0.16888 0.10015 0.0
C505 C 0.00253 0.16362 0.09833 0.0
C506 C 0.96618 0.19028 0.11109 0.0
C507 C 0.99749 0.20643 0.12038 0.0
C508 C 0.03089 0.20043 0.11872 0.0
C509 C 0.03349 0.17938 0.10776 0.0
C510 C 0.99647 0.23085 0.13167 0.0
C511 C 0.9974 0.21773 0.14428 0.0
C512 C 0.99572 0.26742 0.13004 0.0
C513 C 0.9961 0.28352 0.11697 0.0
C514 C 0.02793 0.29208 0.10811 0.0
C515 C 0.02793 0.30708 0.09578 0.0
C516 C 0.99644 0.31396 0.09224 0.0
C517 C 0.96493 0.30597 0.10105 0.0
C518 C 0.96476 0.29091 0.11338 0.0
C519 C 0.04802 0.34961 0.18254 0.0
C520 C 0.02296 0.36697 0.18408 0.0
C521 C 0.03953 0.31978 0.17292 0.0
C522 C 0.00559 0.30644 0.16475 0.0
C523 C 0.97984 0.32281 0.16653 0.0
C524 C 0.98843 0.35279 0.17609 0.0
C525 C -0.00105 0.27797 0.15368 0.0
C526 C 0.99669 0.29036 0.14107 0.0
C527 C -0.00175 0.24064 0.15534 0.0
C528 C -0.00235 0.22457 0.16846 0.0
C529 C 0.96835 0.22059 0.17778 0.0
C530 C 0.96805 0.20569 0.19015 0.0
C531 C 0.99677 0.19442 0.19329 0.0
C532 C 0.02579 0.19796 0.18407 0.0
C533 C 0.02624 0.21287 0.17169 0.0
H534 H 0.99649 0.18289 0.20288 0.0
H535 H 0.9965 0.32559 0.0827 0.0
H536 H 0.8963 0.96866 0.45142 0.0
H537 H 0.8618 0.97978 0.47011 0.0
H538 H 0.81826 0.04016 0.44527 0.0
H539 H 0.85306 0.02967 0.42661 0.0
H540 H 0.85633 0.08478 0.46761 0.0
H541 H 0.75396 0.94705 0.45567 0.0
H542 H 0.72842 0.8741 0.45098 0.0
H543 H 0.76127 0.8595 0.48955 0.0
H544 H 0.78755 0.93255 0.49441 0.0
H545 H 0.7054 0.09773 0.50393 0.0
H546 H 0.74583 0.0841 0.48812 0.0
H547 H 0.77085 0.01876 0.51709 0.0
H548 H 0.72995 0.03224 0.53306 0.0
H549 H 0.74815 0.97664 0.49453 0.0
H550 H 0.84565 0.11225 0.5073 0.0
H551 H 0.87197 0.18515 0.5123 0.0
H552 H 0.85073 0.20431 0.47276 0.0
H553 H 0.82372 0.13138 0.46756 0.0
C554 C 0.87912 0.98405 0.44995 0.0
C555 C 0.87736 -0.00165 0.43758 0.0
C556 C 0.85931 0.99019 0.4606 0.0
C557 C 0.83755 0.01078 0.45903 0.0
C558 C 0.83497 0.02422 0.44665 0.0
C559 C 0.85453 0.01789 0.43599 0.0
C560 C 0.819 0.02012 0.47039 0.0
C561 C 0.83239 0.06117 0.47343 0.0
C562 C 0.789 0.98927 0.47826 0.0
C563 C 0.77316 0.94536 0.47535 0.0
C564 C 0.75609 0.92837 0.46311 0.0
C565 C 0.7414 0.88699 0.46043 0.0
C566 C 0.74334 0.86221 0.46995 0.0
C567 C 0.75986 0.87875 0.48218 0.0
C568 C 0.77463 0.92013 0.48491 0.0
C569 C 0.72027 0.08127 0.50704 0.0
C570 C 0.71497 0.06647 0.51978 0.0
C571 C 0.74327 0.07338 0.49798 0.0
C572 C 0.76182 0.0509 0.50148 0.0
C573 C 0.75686 0.03627 0.51422 0.0
C574 C 0.7336 0.04401 0.52331 0.0
C575 C 0.78477 0.04137 0.49158 0.0
C576 C 0.77239 0.00033 0.48882 0.0
C577 C 0.81598 0.07226 0.48401 0.0
C578 C 0.8324 0.11625 0.48707 0.0
C579 C 0.84632 0.13194 0.49969 0.0
C580 C 0.8614 0.17329 0.50256 0.0
C581 C 0.86295 0.19933 0.49286 0.0
C582 C 0.8495 0.1841 0.48026 0.0
C583 C 0.83435 0.14276 0.47735 0.0
H584 H 0.87464 0.23133 0.4951 0.0
H585 H 0.73194 0.83017 0.46786 0.0
H586 H 0.86432 0.91143 0.75846 0.0
H587 H 0.81445 0.86015 0.77299 0.0
H588 H 0.90566 0.83327 0.78643 0.0
H589 H 0.95532 0.8832 0.77144 0.0
H590 H 0.83536 0.76486 0.78214 0.0
H591 H 0.87701 0.89211 0.80479 0.0
H592 H 0.88967 0.9624 0.80734 0.0
H593 H 0.76311 0.92015 0.80047 0.0
H594 H 0.74979 0.84965 0.7977 0.0
H595 H 0.735 0.65877 0.83925 0.0
H596 H 0.78265 0.70797 0.82371 0.0
H597 H 0.68873 0.7314 0.81061 0.0
H598 H 0.64085 0.68222 0.82623 0.0
H599 H 0.75915 0.80099 0.81438 0.0
H600 H 0.71736 0.67329 0.7922 0.0
H601 H 0.70493 0.60306 0.78982 0.0
H602 H 0.832 0.64613 0.79594 0.0
H603 H 0.84511 0.71659 0.79854 0.0
C604 C 0.87371 0.8943 0.76438 0.0
C605 C 0.91387 0.90147 0.76379 0.0
C606 C 0.84525 0.86531 0.7728 0.0
C607 C 0.85649 0.8433 0.78093 0.0
C608 C 0.8964 0.85006 0.78028 0.0
C609 C 0.92485 0.87889 0.7718 0.0
C610 C 0.82655 0.81306 0.79006 0.0
C611 C 0.81907 0.77286 0.78931 0.0
C612 C 0.80458 0.82332 0.79919 0.0
C613 C 0.81249 0.86566 0.80092 0.0
C614 C 0.85194 0.89785 0.80373 0.0
C615 C 0.85922 0.93772 0.80523 0.0
C616 C 0.82724 0.94575 0.80403 0.0
C617 C 0.78787 0.9139 0.80138 0.0
C618 C 0.78043 0.87397 0.79985 0.0
C619 C 0.72436 0.67405 0.83295 0.0
C620 C 0.68413 0.66647 0.83388 0.0
C621 C 0.75162 0.70218 0.82409 0.0
C622 C 0.73907 0.72293 0.81588 0.0
C623 C 0.699 0.71566 0.81685 0.0
C624 C 0.67174 0.68765 0.82577 0.0
C625 C 0.76806 0.75282 0.80648 0.0
C626 C 0.77536 0.79295 0.80719 0.0
C627 C 0.78991 0.74251 0.79733 0.0
C628 C 0.78214 0.70019 0.79568 0.0
C629 C 0.7426 0.66776 0.79313 0.0
C630 C 0.73544 0.62791 0.79173 0.0
C631 C 0.76764 0.62012 0.79276 0.0
C632 C 0.80709 0.6522 0.79516 0.0
C633 C 0.81441 0.69211 0.79659 0.0
H634 H 0.76203 0.58925 0.79167 0.0
H635 H 0.83294 0.97664 0.8052 0.0
H636 H 0.00734 0.87508 0.10318 0.0
H637 H 0.02045 0.8371 0.11944 0.0
H638 H 0.13575 0.87022 0.10115 0.0
H639 H 0.12376 0.90983 0.08507 0.0
H640 H 0.08591 0.78496 0.10787 0.0
H641 H 0.14158 0.91857 0.12704 0.0
H642 H 0.14124 0.98121 0.13388 0.0
H643 H 0.04004 0.91188 0.15944 0.0
H644 H 0.03933 0.84868 0.15258 0.0
H645 H 0.14173 0.70487 0.16082 0.0
H646 H 0.14497 0.75189 0.14427 0.0
H647 H 0.03898 0.74954 0.16123 0.0
H648 H 0.03666 0.7041 0.17811 0.0
H649 H 0.09373 0.82468 0.15466 0.0
H650 H 0.03258 0.69118 0.13414 0.0
H651 H 0.02954 0.62707 0.12704 0.0
H652 H 0.13749 0.69439 0.10391 0.0
H653 H 0.14148 0.75898 0.11102 0.0
C654 C 0.03572 0.87473 0.10266 0.0
C655 C 0.06467 0.89587 0.09288 0.0
C656 C 0.04301 0.8528 0.11192 0.0
C657 C 0.07919 0.85128 0.11152 0.0
C658 C 0.10765 0.87115 0.10157 0.0
C659 C 0.1006 0.89354 0.09237 0.0
C660 C 0.08717 0.82923 0.12168 0.0
C661 C 0.08844 0.79397 0.11809 0.0
C662 C 0.08969 0.84082 0.13498 0.0
C663 C 0.0902 0.87882 0.13921 0.0
C664 C 0.11903 0.91662 0.13403 0.0
C665 C 0.11906 0.95224 0.13793 0.0
C666 C 0.09058 0.95051 0.14707 0.0
C667 C 0.06206 0.91316 0.15236 0.0
C668 C 0.06186 0.87743 0.14848 0.0
C669 C 0.11952 0.71489 0.16114 0.0
C670 C 0.08874 0.70054 0.17072 0.0
C671 C 0.12118 0.74143 0.15161 0.0
C672 C 0.09186 0.75372 0.15142 0.0
C673 C 0.06182 0.74031 0.16117 0.0
C674 C 0.06028 0.71401 0.17073 0.0
C675 C 0.09159 0.77975 0.14092 0.0
C676 C 0.09179 0.81586 0.14444 0.0
C677 C 0.09006 0.76871 0.12756 0.0
C678 C 0.0876 0.72991 0.12324 0.0
C679 C 0.05585 0.69232 0.12762 0.0
C680 C 0.05393 0.6559 0.12358 0.0
C681 C 0.08338 0.65667 0.11506 0.0
C682 C 0.11475 0.69385 0.11053 0.0
C683 C 0.11685 0.73037 0.11456 0.0
H684 H 0.08184 0.62844 0.11194 0.0
H685 H 0.09066 0.97813 0.15008 0.0
H686 H 0.17321 0.00237 0.43183 0.0
H687 H 0.22492 0.01579 0.4481 0.0
H688 H 0.29167 0.14207 0.43718 0.0
H689 H 0.23928 0.12911 0.42097 0.0
H690 H 0.3409 0.10482 0.44109 0.0
H691 H 0.23948 0.12357 0.46324 0.0
H692 H 0.16959 0.10551 0.46965 0.0
H693 H 0.15296 0.99705 0.48772 0.0
H694 H 0.22257 0.01413 0.48123 0.0
H695 H 0.46367 0.15034 0.49833 0.0
H696 H 0.41977 0.15325 0.4816 0.0
H697 H 0.32874 0.02862 0.48933 0.0
H698 H 0.3718 0.02593 0.50629 0.0
H699 H 0.29512 0.07594 0.48717 0.0
H700 H 0.39258 0.05274 0.4632 0.0
H701 H 0.46149 0.06844 0.45636 0.0
H702 H 0.48499 0.18336 0.44155 0.0
H703 H 0.41636 0.16857 0.44847 0.0
C704 C 0.19875 0.03308 0.43291 0.0
C705 C 0.20185 0.06482 0.42526 0.0
C706 C 0.22835 0.04062 0.44216 0.0
C707 C 0.26168 0.08 0.44393 0.0
C708 C 0.266 0.11149 0.43594 0.0
C709 C 0.23617 0.104 0.42668 0.0
C710 C 0.29096 0.08798 0.45448 0.0
C711 C 0.33125 0.09937 0.45121 0.0
C712 C 0.27795 0.08021 0.46762 0.0
C713 C 0.23618 0.07001 0.47166 0.0
C714 C 0.22083 0.09572 0.4685 0.0
C715 C 0.18127 0.08567 0.47216 0.0
C716 C 0.15682 0.05012 0.47907 0.0
C717 C 0.17193 0.02458 0.48236 0.0
C718 C 0.21146 0.03445 0.47871 0.0
C719 C 0.4341 0.12374 0.49655 0.0
C720 C 0.4212 0.08784 0.50358 0.0
C721 C 0.40925 0.12534 0.48692 0.0
C722 C 0.37122 0.09102 0.48415 0.0
C723 C 0.35804 0.05541 0.4913 0.0
C724 C 0.3828 0.0538 0.50091 0.0
C725 C 0.34491 0.09175 0.47377 0.0
C726 C 0.30508 0.08206 0.47709 0.0
C727 C 0.35836 0.10092 0.46069 0.0
C728 C 0.39954 0.10977 0.4565 0.0
C729 C 0.41257 0.08151 0.45859 0.0
C730 C 0.45155 0.09021 0.45468 0.0
C731 C 0.47765 0.12693 0.44856 0.0
C732 C 0.46477 0.15497 0.44631 0.0
C733 C 0.42584 0.14644 0.45022 0.0
H734 H 0.50782 0.13361 0.44554 0.0
H735 H 0.1262 0.04239 0.4819 0.0
H736 H 0.26095 0.26003 0.7377 0.0
H737 H 0.31849 0.31302 0.75011 0.0
H738 H 0.23531 0.31654 0.77854 0.0
H739 H 0.17749 0.26352 0.76614 0.0
H740 H 0.30339 0.39534 0.77189 0.0
H741 H 0.27344 0.26062 0.7849 0.0
H742 H 0.26241 0.19152 0.78055 0.0
H743 H 0.38298 0.24257 0.76446 0.0
H744 H 0.39446 0.31203 0.76852 0.0
H745 H 0.41163 0.46568 0.83069 0.0
H746 H 0.36517 0.431 0.81261 0.0
H747 H 0.4592 0.41933 0.79213 0.0
H748 H 0.50587 0.4537 0.8104 0.0
H749 H 0.39154 0.34941 0.79204 0.0
H750 H 0.42579 0.48423 0.78149 0.0
H751 H 0.4375 0.55378 0.78525 0.0
H752 H 0.31178 0.50503 0.79583 0.0
H753 H 0.29941 0.43512 0.79231 0.0
C754 C 0.2549 0.27277 0.74644 0.0
C755 C 0.21483 0.25767 0.751 0.0
C756 C 0.28775 0.30285 0.75353 0.0
C757 C 0.28102 0.31839 0.76525 0.0
C758 C 0.241 0.30488 0.76949 0.0
C759 C 0.20811 0.27449 0.76247 0.0
C760 C 0.31562 0.346 0.77367 0.0
C761 C 0.32264 0.38542 0.77638 0.0
C762 C 0.34131 0.3332 0.77914 0.0
C763 C 0.33462 0.29148 0.77687 0.0
C764 C 0.29747 0.2571 0.78034 0.0
C765 C 0.29115 0.21788 0.77794 0.0
C766 C 0.32192 0.21266 0.77219 0.0
C767 C 0.35914 0.24666 0.76888 0.0
C768 C 0.36557 0.28596 0.77123 0.0
C769 C 0.42272 0.45654 0.82221 0.0
C770 C 0.46243 0.46257 0.82191 0.0
C771 C 0.39613 0.43676 0.81186 0.0
C772 C 0.40886 0.42308 0.80091 0.0
C773 C 0.44879 0.42975 0.80047 0.0
C774 C 0.47536 0.44929 0.81089 0.0
C775 C 0.37928 0.39897 0.79049 0.0
C776 C 0.37298 0.35994 0.78742 0.0
C777 C 0.35452 0.41235 0.78461 0.0
C778 C 0.36174 0.45437 0.78671 0.0
C779 C 0.40069 0.4883 0.78471 0.0
C780 C 0.40744 0.52781 0.78678 0.0
C781 C 0.37542 0.53382 0.7908 0.0
C782 C 0.33656 0.50032 0.79272 0.0
C783 C 0.32965 0.46074 0.79067 0.0
H784 H 0.38071 0.56443 0.7924 0.0
H785 H 0.31697 0.18227 0.77034 0.0
H786 H 0.87449 0.05091 0.67956 0.0
H787 H 0.82679 0.0511 0.66385 0.0
H788 H 0.92098 0.09661 0.63441 0.0
H789 H 0.96929 0.09731 0.65021 0.0
H790 H 0.87732 0.13723 0.63519 0.0
H791 H 0.84939 -0.00109 0.6334 0.0
H792 H 0.83348 0.93289 0.64254 0.0
H793 H 0.72126 0.91775 0.65829 0.0
H794 H 0.73679 0.98399 0.6494 0.0
H795 H 0.74485 0.10241 0.58219 0.0
H796 H 0.79524 0.10201 0.59672 0.0
H797 H 0.70321 0.04618 0.62658 0.0
H798 H 0.65254 0.04592 0.61198 0.0
H799 H 0.74766 0.01048 0.62492 0.0
H800 H 0.77569 0.14888 0.62768 0.0
H801 H 0.79122 0.2155 0.61914 0.0
H802 H 0.90244 0.2313 0.60228 0.0
H803 H 0.88729 0.16449 0.61057 0.0
C804 C 0.88516 0.06129 0.66977 0.0
C805 C 0.92563 0.07413 0.66611 0.0
C806 C 0.85779 0.06104 0.66078 0.0
C807 C 0.8703 0.07347 0.64795 0.0
C808 C 0.91077 0.08676 0.64427 0.0
C809 C 0.93819 0.08687 0.65326 0.0
C810 C 0.841 0.07272 0.63842 0.0
C811 C 0.84924 0.10944 0.63277 0.0
C812 C 0.804 0.03659 0.63555 0.0
C813 C 0.79443 0.99658 0.64082 0.0
C814 C 0.82147 0.98165 0.6389 0.0
C815 C 0.81249 0.94416 0.64402 0.0
C816 C 0.77643 0.92118 0.65102 0.0
C817 C 0.74921 0.9356 0.65288 0.0
C818 C 0.75806 0.97309 0.64779 0.0
C819 C 0.73548 0.0903 0.59189 0.0
C820 C 0.69489 0.0744 0.59601 0.0
C821 C 0.76427 0.0901 0.60018 0.0
C822 C 0.75312 0.0746 0.6128 0.0
C823 C 0.71247 0.05829 0.61687 0.0
C824 C 0.68357 0.05813 0.60854 0.0
C825 C 0.78374 0.0751 0.62174 0.0
C826 C 0.77577 0.0383 0.62729 0.0
C827 C 0.82088 0.11123 0.62458 0.0
C828 C 0.83014 0.15149 0.61963 0.0
C829 C 0.8033 0.16642 0.62206 0.0
C830 C 0.81206 0.20424 0.61729 0.0
C831 C 0.84774 0.22757 0.61014 0.0
C832 C 0.87479 0.21317 0.6078 0.0
C833 C 0.86614 0.17534 0.61254 0.0
H834 H 0.85447 0.25684 0.60645 0.0
H835 H 0.76954 0.89217 0.65498 0.0
H836 H 0.92743 0.89026 0.98871 0.0
H837 H 0.89298 0.85591 0.96856 0.0
H838 H 0.82267 0.91695 0.97044 0.0
H839 H 0.85603 0.95041 0.99101 0.0
H840 H 0.77562 0.83778 0.9644 0.0
H841 H 0.90086 0.94675 0.9487 0.0
H842 H 0.97536 0.99163 0.94747 0.0
H843 H 0.9893 0.88935 0.93628 0.0
H844 H 0.91491 0.84371 0.93762 0.0
H845 H 0.69499 0.76001 0.90207 0.0
H846 H 0.73922 0.81443 0.91732 0.0
H847 H 0.80297 0.74998 0.92562 0.0
H848 H 0.758 0.69467 0.91085 0.0
H849 H 0.85358 0.83928 0.92488 0.0
H850 H 0.72989 0.73024 0.94397 0.0
H851 H 0.6554 0.68499 0.94485 0.0
H852 H 0.63923 0.78895 0.94962 0.0
H853 H 0.7137 0.83491 0.94845 0.0
C854 C 0.90427 0.89604 0.98496 0.0
C855 C 0.89429 0.92291 0.99151 0.0
C856 C 0.88504 0.87683 0.97332 0.0
C857 C 0.85581 0.88445 0.96788 0.0
C858 C 0.84542 0.91094 0.97443 0.0
C859 C 0.86461 0.93015 0.98613 0.0
C860 C 0.83521 0.86342 0.95559 0.0
C861 C 0.79265 0.8389 0.95567 0.0
C862 C 0.85749 0.86436 0.94426 0.0
C863 C 0.90228 0.89175 0.94334 0.0
C864 C 0.91982 0.93376 0.94606 0.0
C865 C 0.96204 0.95935 0.94533 0.0
C866 C 0.98705 0.94335 0.94182 0.0
C867 C 0.96989 0.90171 0.939 0.0
C868 C 0.92768 0.87597 0.93972 0.0
C869 C 0.71878 0.75764 0.907 0.0
C870 C 0.72244 0.7226 0.90542 0.0
C871 C 0.74419 0.78892 0.91561 0.0
C872 C 0.77392 0.78584 0.92265 0.0
C873 C 0.7802 0.75284 0.92021 0.0
C874 C 0.75449 0.7213 0.91172 0.0
C875 C 0.79436 0.81359 0.93383 0.0
C876 C 0.83673 0.83905 0.93355 0.0
C877 C 0.77198 0.81362 0.94497 0.0
C878 C 0.7273 0.78602 0.94596 0.0
C879 C 0.71043 0.74347 0.94509 0.0
C880 C 0.66823 0.71768 0.94566 0.0
C881 C 0.64259 0.73408 0.94727 0.0
C882 C 0.65913 0.7763 0.94835 0.0
C883 C 0.70133 0.80223 0.94772 0.0
H884 H 0.60991 0.71407 0.94771 0.0
H885 H 0.01973 0.96321 0.94127 0.0
H886 H 0.99555 0.854 0.3269 0.0
H887 H 0.99674 0.79979 0.31404 0.0
H888 H 0.95395 0.72122 0.34733 0.0
H889 H 0.95299 0.77582 0.36035 0.0
H890 H 0.01685 0.72013 0.33673 0.0
H891 H 0.8924 0.70111 0.32061 0.0
H892 H 0.84381 0.71972 0.31183 0.0
H893 H 0.91745 0.7661 0.27742 0.0
H894 H 0.96685 0.74834 0.28606 0.0
H895 H 0.00645 0.56345 0.291 0.0
H896 H 0.98564 0.59891 0.30708 0.0
H897 H 0.04941 0.70923 0.28501 0.0
H898 H 0.07069 0.67438 0.26913 0.0
H899 H 0.96347 0.68104 0.29166 0.0
H900 H 0.09233 0.70802 0.31055 0.0
H901 H 0.13864 0.68695 0.31968 0.0
H902 H 0.05071 0.62028 0.34943 0.0
H903 H 0.00361 0.64053 0.34034 0.0
C904 C 0.98543 0.82488 0.33141 0.0
C905 C 0.97406 0.81912 0.34462 0.0
C906 C 0.98613 0.79386 0.32404 0.0
C907 C 0.97497 0.75623 0.32968 0.0
C908 C 0.96263 0.74999 0.34279 0.0
C909 C 0.96214 0.78117 0.3502 0.0
C910 C 0.97932 0.72492 0.32205 0.0
C911 C 0.00431 0.71081 0.327 0.0
C912 C 0.96313 0.71282 0.30932 0.0
C913 C 0.93349 0.72357 0.30403 0.0
C914 C 0.89842 0.71555 0.31121 0.0
C915 C 0.87069 0.72591 0.30625 0.0
C916 C 0.87757 0.74413 0.29408 0.0
C917 C 0.91216 0.75197 0.28684 0.0
C918 C 0.94001 0.7417 0.29176 0.0
C919 C 0.01644 0.59543 0.28975 0.0
C920 C 0.04054 0.61644 0.27897 0.0
C921 C 0.00453 0.61551 0.29888 0.0
C922 C 0.01598 0.65652 0.29715 0.0
C923 C 0.04034 0.67755 0.28646 0.0
C924 C 0.05279 0.65777 0.2775 0.0
C925 C 0.00196 0.67774 0.30622 0.0
C926 C 0.97511 0.68977 0.30152 0.0
C927 C 0.01593 0.6874 0.31921 0.0
C928 C 0.04424 0.6753 0.32466 0.0
C929 C 0.08269 0.68851 0.31895 0.0
C930 C 0.10913 0.67681 0.32414 0.0
C931 C 0.09756 0.65216 0.3351 0.0
C932 C 0.05958 0.63928 0.34092 0.0
C933 C 0.03302 0.65087 0.33576 0.0
H934 H 0.11808 0.64315 0.33911 0.0
H935 H 0.85606 0.75213 0.29026 0.0
H936 H 0.21293 0.96792 0.69189 0.0
H937 H 0.26888 0.96952 0.67915 0.0
H938 H 0.25709 0.04531 0.6508 0.0
H939 H 0.20196 0.04449 0.66348 0.0
H940 H 0.26793 0.98702 0.63913 0.0
H941 H 0.32901 0.08669 0.67397 0.0
H942 H 0.34138 0.1105 0.69691 0.0
H943 H 0.38574 0.02867 0.70469 0.0
H944 H 0.37304 0.00393 0.68182 0.0
H945 H 0.45651 0.10051 0.60858 0.0
H946 H 0.40377 0.08619 0.62497 0.0
H947 H 0.41661 0.98707 0.63927 0.0
H948 H 0.46923 0.00087 0.62266 0.0
H949 H 0.40522 0.04747 0.65902 0.0
H950 H 0.34794 0.95236 0.62264 0.0
H951 H 0.33833 0.93438 0.5992 0.0
H952 H 0.2879 0.01247 0.5941 0.0
H953 H 0.29832 0.03185 0.61745 0.0
C954 C 0.22222 0.98485 0.68293 0.0
C955 C 0.20295 0.0061 0.67872 0.0
C956 C 0.25411 0.98566 0.67566 0.0
C957 C 0.26729 0.0078 0.6641 0.0
C958 C 0.24724 0.02787 0.65966 0.0
C959 C 0.21553 0.02716 0.66691 0.0
C960 C 0.30288 0.0116 0.65674 0.0
C961 C 0.29788 0.00015 0.6435 0.0
C962 C 0.34189 0.02823 0.6625 0.0
C963 C 0.34957 0.04307 0.67624 0.0
C964 C 0.34104 0.0735 0.6806 0.0
C965 C 0.34817 0.08722 0.69358 0.0
C966 C 0.3642 0.071 0.70226 0.0
C967 C 0.37323 0.04112 0.69796 0.0
C968 C 0.36607 0.02724 0.68499 0.0
C969 C 0.44899 0.07647 0.61547 0.0
C970 C 0.46693 0.05184 0.61443 0.0
C971 C 0.4188 0.06823 0.62476 0.0
C972 C 0.40643 0.03557 0.63324 0.0
C973 C 0.42603 0.01249 0.63281 0.0
C974 C 0.45585 0.0203 0.62333 0.0
C975 C 0.37007 0.02327 0.64147 0.0
C976 C 0.375 0.03337 0.6548 0.0
C977 C 0.331 0.00573 0.63579 0.0
C978 C 0.32432 0.99387 0.62177 0.0
C979 C 0.33527 0.96609 0.61649 0.0
C980 C 0.32965 0.95562 0.60322 0.0
C981 C 0.31264 0.97237 0.59516 0.0
C982 C 0.30119 -0.00039 0.60035 0.0
C983 C 0.30698 0.01038 0.6136 0.0
H984 H 0.3082 0.9641 0.5849 0.0
H985 H 0.36973 0.08168 0.71231 0.0
H986 H 0.24714 0.22697 0.02283 0.0
H987 H 0.30275 0.27549 0.00894 0.0
H988 H 0.2802 0.17822 0.98162 0.0
H989 H 0.22436 0.12958 0.99544 0.0
H990 H 0.36627 0.23754 0.98663 0.0
H991 H 0.23856 0.22893 0.9749 0.0
H992 H 0.17586 0.23134 0.97972 0.0
H993 H 0.24734 0.35486 0.99379 0.0
H994 H 0.31049 0.35294 0.98925 0.0
H995 H 0.45032 0.34199 0.92765 0.0
H996 H 0.40952 0.29652 0.94518 0.0
H997 H 0.41224 0.39823 0.96602 0.0
H998 H 0.45174 0.44334 0.94825 0.0
H999 H 0.33911 0.33849 0.96578 0.0
H1000 H 0.46723 0.35087 0.97606 0.0
H1001 H 0.53085 0.34961 0.97198 0.0
H1002 H 0.46193 0.22231 0.96168 0.0
H1003 H 0.39784 0.22292 0.96553 0.0
C1004 C 0.25464 0.21586 0.014 0.0
C1005 C 0.23145 0.17469 0.01012 0.0
C1006 C 0.28625 0.24354 0.00608 0.0
C1007 C 0.29528 0.23031 0.99427 0.0
C1008 C 0.27363 0.18885 0.99073 0.0
C1009 C 0.24168 0.16126 -0.00144 0.0
C1010 C 0.32461 0.2602 0.98503 0.0
C1011 C 0.36042 0.25953 0.98197 0.0
C1012 C 0.31713 0.28933 0.97927 0.0
C1013 C 0.2792 0.29063 0.98188 0.0
C1014 C 0.24089 0.25648 0.97914 0.0
C1015 C 0.20528 0.25777 0.9818 0.0
C1016 C 0.20761 0.29319 0.9871 0.0
C1017 C 0.24557 0.32742 0.98971 0.0
C1018 C 0.28128 0.32625 0.98709 0.0
C1019 C 0.44255 0.35458 0.93607 0.0
C1020 C 0.45395 0.39599 0.93664 0.0
C1021 C 0.41945 0.3287 0.94611 0.0
C1022 C 0.4082 0.34403 0.95702 0.0
C1023 C 0.42049 0.38569 0.9577 0.0
C1024 C 0.44299 0.41141 0.94757 0.0
C1025 C 0.38132 0.31623 0.96727 0.0
C1026 C 0.34561 0.31704 0.9705 0.0
C1027 C 0.38923 0.28757 0.97327 0.0
C1028 C 0.42771 0.28704 0.97098 0.0
C1029 C 0.46562 0.32267 0.97283 0.0
C1030 C 0.50178 0.32206 0.97058 0.0
C1031 C 0.50043 0.28592 0.96655 0.0
C1032 C 0.46292 0.25029 0.9648 0.0
C1033 C 0.42667 0.25074 0.96703 0.0
H1034 H 0.52846 0.28551 0.96481 0.0
H1035 H 0.18 0.29414 0.98915 0.0
H1036 H 0.99207 0.17643 0.34239 0.0
H1037 H 0.99525 0.22568 0.32676 0.0
H1038 H 0.09296 0.22083 0.30627 0.0
H1039 H 0.09051 0.17207 0.32206 0.0
H1040 H 0.10833 0.29925 0.31018 0.0
H1041 H -0.00056 0.17216 0.29376 0.0
H1042 H 0.93494 0.10676 0.29498 0.0
H1043 H 0.87092 0.17022 0.30533 0.0
H1044 H 0.93519 0.23602 0.30435 0.0
H1045 H 0.10326 0.3979 0.25284 0.0
H1046 H 0.10057 0.34814 0.26816 0.0
H1047 H 0.00149 0.35009 0.28873 0.0
H1048 H 0.00429 0.40029 0.27354 0.0
H1049 H 0.98707 0.27274 0.28459 0.0
H1050 H 0.09534 0.39948 0.30133 0.0
H1051 H 0.15961 0.46519 0.30036 0.0
H1052 H 0.22452 0.40285 0.28972 0.0
H1053 H 0.16049 0.33676 0.29045 0.0
C1054 C 0.01442 0.18606 0.33461 0.0
C1055 C 0.04107 0.17043 0.33344 0.0
C1056 C 0.01597 0.21392 0.32563 0.0
C1057 C 0.04408 0.22656 0.3153 0.0
C1058 C 0.07096 0.21131 0.31416 0.0
C1059 C 0.06933 0.18328 0.32312 0.0
C1060 C 0.04562 0.25605 0.30578 0.0
C1061 C 0.08203 0.29325 0.30443 0.0
C1062 C 0.01094 0.24851 0.29855 0.0
C1063 C 0.97221 0.209 0.2991 0.0
C1064 C 0.97167 0.17216 0.2964 0.0
C1065 C 0.93514 0.13501 0.29703 0.0
C1066 C 0.89887 0.13433 0.30026 0.0
C1067 C 0.89905 0.1708 0.30284 0.0
C1068 C 0.93551 0.20803 0.30224 0.0
C1069 C 0.08116 0.38806 0.2607 0.0
C1070 C 0.05411 0.40318 0.26202 0.0
C1071 C 0.0796 0.35955 0.26942 0.0
C1072 C 0.05109 0.34576 0.27964 0.0
C1073 C 0.02368 0.36034 0.28089 0.0
C1074 C 0.02524 0.3889 0.27218 0.0
C1075 C 0.04978 0.31597 0.289 0.0
C1076 C 0.01341 0.27872 0.29032 0.0
C1077 C 0.08446 0.32351 0.29623 0.0
C1078 C 0.12304 0.3632 0.29581 0.0
C1079 C 0.12326 0.3998 0.29868 0.0
C1080 C 0.15965 0.43711 0.29819 0.0
C1081 C 0.19611 0.4382 0.29495 0.0
C1082 C 0.19625 0.40196 0.29222 0.0
C1083 C 0.15992 0.36457 0.29267 0.0
H1084 H 0.22426 0.46712 0.29458 0.0
H1085 H 0.87061 0.10554 0.30074 0.0
loop_
_geom_bond_atom_site_label_1
_geom_bond_atom_site_label_2
_geom_bond_distance
_geom_bond_site_symmetry_2
_ccdc_geom_bond_type
Li0 N17 1.990 . S
Li0 O60 1.956 . S
Li0 O61 1.970 . S
Li0 O62 1.961 . S
Li1 N25 1.990 . S
Li1 O60 1.970 . S
Li1 O61 1.956 . S
Li1 O63 1.961 . S
Li2 N47 1.990 1_545 S
Li2 O60 1.961 . S
Li2 O62 1.956 . S
Li2 O63 1.970 . S
Li3 N53 1.990 1_445 S
Li3 O61 1.961 . S
Li3 O62 1.970 . S
Li3 O63 1.956 . S
C4 C6 1.348 . S
C4 C7 1.356 . S
C4 O60 1.325 . S
N5 C8 1.314 . S
N5 C9 1.279 . S
C6 C4 1.348 . S
C6 C8 1.353 . S
C6 H64 0.929 . S
C7 C4 1.356 . S
C7 C9 1.358 . S
C7 H65 0.930 . S
C8 N5 1.314 . S
C8 C6 1.353 . S
C8 H66 0.930 . S
C9 N5 1.279 . S
C9 C7 1.358 . S
C9 H67 0.930 . S
C10 C13 1.348 . S
C10 C14 1.356 1_455 S
C10 O61 1.325 . S
C11 N12 1.279 1_655 S
C11 C14 1.358 . S
C11 H68 0.930 . S
N12 C11 1.279 1_455 S
N12 C15 1.314 . S
C13 C10 1.348 . S
C13 C15 1.353 . S
C13 H69 0.929 . S
C14 C10 1.356 1_655 S
C14 C11 1.358 . S
C14 H70 0.930 . S
C15 N12 1.314 . S
C15 C13 1.353 . S
C15 H71 0.930 . S
C16 N17 1.314 . S
C16 C21 1.353 . S
C16 H22 0.930 . S
N17 Li0 1.990 . S
N17 C16 1.314 . S
N17 C19 1.279 . S
C18 C19 1.358 . S
C18 C20 1.356 . S
C18 H72 0.930 . S
C19 N17 1.279 . S
C19 C18 1.358 . S
C19 H23 0.930 . S
C20 C18 1.356 . S
C20 C21 1.348 . S
C21 C16 1.353 . S
C21 C20 1.348 . S
C21 H73 0.929 . S
H22 C16 0.930 . S
H23 C19 0.930 . S
C24 N25 1.314 . S
C24 C26 1.353 . S
C24 H30 0.930 . S
N25 Li1 1.990 . S
N25 C24 1.314 . S
N25 C28 1.279 . S
C26 C24 1.353 . S
C26 C29 1.348 . S
C26 H74 0.929 . S
C27 C28 1.358 . S
C27 C29 1.356 . S
C27 H75 0.930 . S
C28 N25 1.279 . S
C28 C27 1.358 . S
C28 H31 0.930 . S
C29 C26 1.348 . S
C29 C27 1.356 . S
H30 C24 0.930 . S
H31 C28 0.930 . S
C32 C34 1.348 . S
C32 C35 1.356 . S
C32 O62 1.325 1_565 S
N33 C36 1.314 . S
N33 C37 1.279 . S
C34 C32 1.348 . S
C34 C36 1.353 . S
C34 H76 0.929 . S
C35 C32 1.356 . S
C35 C37 1.358 . S
C35 H77 0.930 1_565 S
C36 N33 1.314 . S
C36 C34 1.353 . S
C36 H78 0.930 . S
C37 N33 1.279 . S
C37 C35 1.358 . S
C37 H79 0.930 . S
C38 C39 1.348 . S
C38 C40 1.356 . S
C38 O63 1.325 1_665 S
C39 C38 1.348 . S
C39 C41 1.353 . S
C39 H80 0.929 . S
C40 C38 1.356 . S
C40 C42 1.358 . S
C40 H81 0.930 1_565 S
C41 C39 1.353 . S
C41 N43 1.314 . S
C41 H82 0.930 . S
C42 C40 1.358 . S
C42 N43 1.279 . S
C42 H83 0.930 . S
N43 C41 1.314 . S
N43 C42 1.279 . S
C44 C46 1.353 . S
C44 N47 1.314 . S
C44 H50 0.930 1_565 S
C45 N47 1.279 . S
C45 C48 1.358 . S
C45 H51 0.930 . S
C46 C44 1.353 . S
C46 C49 1.348 . S
C46 H84 0.929 . S
N47 Li2 1.990 1_565 S
N47 C44 1.314 . S
N47 C45 1.279 . S
C48 C45 1.358 . S
C48 C49 1.356 . S
C48 H85 0.930 . S
C49 C46 1.348 . S
C49 C48 1.356 . S
H50 C44 0.930 1_545 S
H51 C45 0.930 . S
C52 N53 1.314 . S
C52 C54 1.353 . S
C52 H58 0.930 1_565 S
N53 Li3 1.990 1_665 S
N53 C52 1.314 . S
N53 C56 1.279 . S
C54 C52 1.353 . S
C54 C57 1.348 . S
C54 H86 0.929 . S
C55 C56 1.358 . S
C55 C57 1.356 . S
C55 H87 0.930 . S
C56 N53 1.279 . S
C56 C55 1.358 . S
C56 H59 0.930 . S
C57 C54 1.348 . S
C57 C55 1.356 . S
H58 C52 0.930 1_545 S
H59 C56 0.930 . S
O60 Li0 1.956 . S
O60 Li1 1.970 . S
O60 Li2 1.961 . S
O60 C4 1.325 . S
O61 Li0 1.970 . S
O61 Li1 1.956 . S
O61 Li3 1.961 . S
O61 C10 1.325 . S
O62 Li0 1.961 . S
O62 Li2 1.956 . S
O62 Li3 1.970 . S
O62 C32 1.325 1_545 S
O63 Li1 1.961 . S
O63 Li2 1.970 . S
O63 Li3 1.956 . S
O63 C38 1.325 1_445 S
H64 C6 0.929 . S
H65 C7 0.930 . S
H66 C8 0.930 . S
H67 C9 0.930 . S
H68 C11 0.930 . S
H69 C13 0.929 . S
H70 C14 0.930 . S
H71 C15 0.930 . S
H72 C18 0.930 . S
H73 C21 0.929 . S
H74 C26 0.929 . S
H75 C27 0.930 . S
H76 C34 0.929 . S
H77 C35 0.930 1_545 S
H78 C36 0.930 . S
H79 C37 0.930 . S
H80 C39 0.929 . S
H81 C40 0.930 1_545 S
H82 C41 0.930 . S
H83 C42 0.930 . S
H84 C46 0.929 . S
H85 C48 0.930 . S
H86 C54 0.929 . S
H87 C55 0.930 . S
Li88 N105 1.990 . S
Li88 O148 1.956 . S
Li88 O149 1.970 1_565 S
Li88 O150 1.961 1_465 S
Li89 N113 1.990 . S
Li89 O148 1.970 1_545 S
Li89 O149 1.956 . S
Li89 O151 1.961 . S
Li90 N135 1.990 1_545 S
Li90 O148 1.961 1_645 S
Li90 O150 1.956 . S
Li90 O151 1.970 1_655 S
Li91 N141 1.990 . S
Li91 O149 1.961 . S
Li91 O150 1.970 1_455 S
Li91 O151 1.956 . S
C92 C94 1.348 . S
C92 C95 1.356 1_455 S
C92 O148 1.325 . S
N93 C96 1.314 1_655 S
N93 C97 1.279 . S
C94 C92 1.348 . S
C94 C96 1.353 . S
C94 H152 0.929 . S
C95 C92 1.356 1_655 S
C95 C97 1.358 . S
C95 H153 0.930 . S
C96 N93 1.314 1_455 S
C96 C94 1.353 . S
C96 H154 0.930 . S
C97 N93 1.279 . S
C97 C95 1.358 . S
C97 H155 0.930 . S
C98 C101 1.348 . S
C98 C102 1.356 . S
C98 O149 1.325 . S
C99 N100 1.279 . S
C99 C102 1.358 . S
C99 H156 0.930 . S
N100 C99 1.279 . S
N100 C103 1.314 . S
C101 C98 1.348 . S
C101 C103 1.353 . S
C101 H157 0.929 1_545 S
C102 C98 1.356 . S
C102 C99 1.358 . S
C102 H158 0.930 . S
C103 N100 1.314 . S
C103 C101 1.353 . S
C103 H159 0.930 1_545 S
C104 N105 1.314 . S
C104 C109 1.353 1_455 S
C104 H110 0.945 . S
N105 Li88 1.990 . S
N105 C104 1.314 . S
N105 C107 1.279 . S
C106 C107 1.358 . S
C106 C108 1.356 1_455 S
C106 H160 0.916 . S
C107 N105 1.279 . S
C107 C106 1.358 . S
C107 H111 0.930 . S
C108 C106 1.356 1_655 S
C108 C109 1.348 . S
C109 C104 1.353 1_655 S
C109 C108 1.348 . S
C109 H161 0.929 . S
H110 C104 0.945 . S
H111 C107 0.930 . S
C112 N113 1.314 . S
C112 C114 1.353 . S
C112 H118 0.930 . S
N113 Li89 1.990 . S
N113 C112 1.314 . S
N113 C116 1.279 . S
C114 C112 1.353 . S
C114 C117 1.348 . S
C114 H162 0.929 . S
C115 C116 1.358 . S
C115 C117 1.356 . S
C115 H163 0.930 . S
C116 N113 1.279 . S
C116 C115 1.358 . S
C116 H119 0.930 . S
C117 C114 1.348 . S
C117 C115 1.356 . S
H118 C112 0.930 . S
H119 C116 0.930 . S
C120 C122 1.348 1_565 S
C120 C123 1.356 . S
C120 O150 1.325 1_565 S
N121 C124 1.314 1_565 S
N121 C125 1.279 . S
C122 C120 1.348 1_545 S
C122 C124 1.353 . S
C122 H164 0.929 . S
C123 C120 1.356 . S
C123 C125 1.358 . S
C123 H165 0.930 . S
C124 N121 1.314 1_545 S
C124 C122 1.353 . S
C124 H166 0.930 . S
C125 N121 1.279 . S
C125 C123 1.358 . S
C125 H167 0.930 . S
C126 C127 1.348 . S
C126 C128 1.356 . S
C126 O151 1.325 . S
C127 C126 1.348 . S
C127 C129 1.353 . S
C127 H168 0.929 . S
C128 C126 1.356 . S
C128 C130 1.358 . S
C128 H169 0.930 . S
C129 C127 1.353 . S
C129 N131 1.314 . S
C129 H170 0.930 . S
C130 C128 1.358 . S
C130 N131 1.279 . S
C130 H171 0.930 . S
N131 C129 1.314 . S
N131 C130 1.279 . S
C132 C134 1.353 . S
C132 N135 1.314 . S
C132 H138 0.930 . S
C133 N135 1.279 . S
C133 C136 1.358 . S
C133 H139 0.930 . S
C134 C132 1.353 . S
C134 C137 1.348 . S
C134 H172 0.929 . S
N135 Li90 1.990 1_565 S
N135 C132 1.314 . S
N135 C133 1.279 . S
C136 C133 1.358 . S
C136 C137 1.356 . S
C136 H173 0.930 . S
C137 C134 1.348 . S
C137 C136 1.356 . S
H138 C132 0.930 . S
H139 C133 0.930 . S
C140 N141 1.314 . S
C140 C142 1.353 . S
C140 H146 0.930 . S
N141 Li91 1.990 . S
N141 C140 1.314 . S
N141 C144 1.279 . S
C142 C140 1.353 . S
C142 C145 1.348 . S
C142 H174 0.929 . S
C143 C144 1.358 . S
C143 C145 1.356 . S
C143 H175 0.930 . S
C144 N141 1.279 . S
C144 C143 1.358 . S
C144 H147 0.930 . S
C145 C142 1.348 . S
C145 C143 1.356 . S
H146 C140 0.930 . S
H147 C144 0.930 . S
O148 Li88 1.956 . S
O148 Li89 1.970 1_565 S
O148 Li90 1.961 1_465 S
O148 C92 1.325 . S
O149 Li88 1.970 1_545 S
O149 Li89 1.956 . S
O149 Li91 1.961 . S
O149 C98 1.325 . S
O150 Li88 1.961 1_645 S
O150 Li90 1.956 . S
O150 Li91 1.970 1_655 S
O150 C120 1.325 1_545 S
O151 Li89 1.961 . S
O151 Li90 1.970 1_455 S
O151 Li91 1.956 . S
O151 C126 1.325 . S
H152 C94 0.929 . S
H153 C95 0.930 . S
H154 C96 0.930 . S
H155 C97 0.930 . S
H156 C99 0.930 . S
H157 C101 0.929 1_565 S
H158 C102 0.930 . S
H159 C103 0.930 1_565 S
H160 C106 0.916 . S
H161 C109 0.929 . S
H162 C114 0.929 . S
H163 C115 0.930 . S
H164 C122 0.929 . S
H165 C123 0.930 . S
H166 C124 0.930 . S
H167 C125 0.930 . S
H168 C127 0.929 . S
H169 C128 0.930 . S
H170 C129 0.930 . S
H171 C130 0.930 . S
H172 C134 0.929 . S
H173 C136 0.930 . S
H174 C142 0.929 . S
H175 C143 0.930 . S
Li176 N193 1.990 . S
Li176 O236 1.956 . S
Li176 O237 1.970 . S
Li176 O238 1.961 . S
Li177 N201 1.990 . S
Li177 O236 1.970 . S
Li177 O237 1.956 . S
Li177 O239 1.961 . S
Li178 N223 1.990 1_545 S
Li178 O236 1.961 . S
Li178 O238 1.956 . S
Li178 O239 1.970 . S
Li179 N229 1.990 . S
Li179 O237 1.961 . S
Li179 O238 1.970 . S
Li179 O239 1.956 . S
C180 C182 1.348 . S
C180 C183 1.356 . S
C180 O236 1.325 . S
N181 C184 1.314 . S
N181 C185 1.279 . S
C182 C180 1.348 . S
C182 C184 1.353 . S
C182 H240 0.929 . S
C183 C180 1.356 . S
C183 C185 1.358 . S
C183 H241 0.930 1_545 S
C184 N181 1.314 . S
C184 C182 1.353 . S
C184 H242 0.930 . S
C185 N181 1.279 . S
C185 C183 1.358 . S
C185 H243 0.930 1_545 S
C186 C189 1.348 . S
C186 C190 1.356 . S
C186 O237 1.325 . S
C187 N188 1.279 . S
C187 C190 1.358 . S
C187 H244 0.930 . S
N188 C187 1.279 . S
N188 C191 1.314 . S
C189 C186 1.348 . S
C189 C191 1.353 . S
C189 H245 0.929 . S
C190 C186 1.356 . S
C190 C187 1.358 . S
C190 H246 0.930 . S
C191 N188 1.314 . S
C191 C189 1.353 . S
C191 H247 0.930 . S
C192 N193 1.314 . S
C192 C197 1.353 . S
C192 H198 0.930 . S
N193 Li176 1.990 . S
N193 C192 1.314 . S
N193 C195 1.279 . S
C194 C195 1.358 . S
C194 C196 1.356 . S
C194 H248 0.930 . S
C195 N193 1.279 . S
C195 C194 1.358 . S
C195 H199 0.930 . S
C196 C194 1.356 . S
C196 C197 1.348 . S
C197 C192 1.353 . S
C197 C196 1.348 . S
C197 H249 0.929 . S
H198 C192 0.930 . S
H199 C195 0.930 . S
C200 N201 1.314 . S
C200 C202 1.353 . S
C200 H206 0.930 . S
N201 Li177 1.990 . S
N201 C200 1.314 . S
N201 C204 1.279 . S
C202 C200 1.353 . S
C202 C205 1.348 . S
C202 H250 0.929 . S
C203 C204 1.358 . S
C203 C205 1.356 . S
C203 H251 0.930 . S
C204 N201 1.279 . S
C204 C203 1.358 . S
C204 H207 0.930 . S
C205 C202 1.348 . S
C205 C203 1.356 . S
H206 C200 0.930 . S
H207 C204 0.930 . S
C208 C210 1.348 . S
C208 C211 1.356 . S
C208 O238 1.325 1_565 S
N209 C212 1.314 . S
N209 C213 1.279 1_655 S
C210 C208 1.348 . S
C210 C212 1.353 1_455 S
C210 H252 0.929 1_465 S
C211 C208 1.356 . S
C211 C213 1.358 . S
C211 H253 0.930 . S
C212 N209 1.314 . S
C212 C210 1.353 1_655 S
C212 H254 0.930 . S
C213 N209 1.279 1_455 S
C213 C211 1.358 . S
C213 H255 0.930 . S
C214 C215 1.348 . S
C214 C216 1.356 . S
C214 O239 1.325 . S
C215 C214 1.348 . S
C215 C217 1.353 1_455 S
C215 H256 0.929 1_455 S
C216 C214 1.356 . S
C216 C218 1.358 . S
C216 H257 0.930 . S
C217 C215 1.353 1_655 S
C217 N219 1.314 . S
C217 H258 0.930 . S
C218 C216 1.358 . S
C218 N219 1.279 1_455 S
C218 H259 0.930 . S
N219 C217 1.314 . S
N219 C218 1.279 1_655 S
C220 C222 1.353 . S
C220 N223 1.314 . S
C220 H226 0.930 1_565 S
C221 N223 1.279 1_655 S
C221 C224 1.358 . S
C221 H227 0.930 . S
C222 C220 1.353 . S
C222 C225 1.348 1_455 S
C222 H260 0.929 . S
N223 Li178 1.990 1_565 S
N223 C220 1.314 . S
N223 C221 1.279 1_455 S
C224 C221 1.358 . S
C224 C225 1.356 . S
C224 H261 0.930 . S
C225 C222 1.348 1_655 S
C225 C224 1.356 . S
H226 C220 0.930 1_545 S
H227 C221 0.930 . S
C228 N229 1.314 . S
C228 C230 1.353 . S
C228 H234 0.930 . S
N229 Li179 1.990 . S
N229 C228 1.314 . S
N229 C232 1.279 1_455 S
C230 C228 1.353 . S
C230 C233 1.348 1_455 S
C230 H262 0.929 . S
C231 C232 1.358 . S
C231 C233 1.356 . S
C231 H263 0.930 . S
C232 N229 1.279 1_655 S
C232 C231 1.358 . S
C232 H235 0.930 . S
C233 C230 1.348 1_655 S
C233 C231 1.356 . S
H234 C228 0.930 . S
H235 C232 0.930 . S
O236 Li176 1.956 . S
O236 Li177 1.970 . S
O236 Li178 1.961 . S
O236 C180 1.325 . S
O237 Li176 1.970 . S
O237 Li177 1.956 . S
O237 Li179 1.961 . S
O237 C186 1.325 . S
O238 Li176 1.961 . S
O238 Li178 1.956 . S
O238 Li179 1.970 . S
O238 C208 1.325 1_545 S
O239 Li177 1.961 . S
O239 Li178 1.970 . S
O239 Li179 1.956 . S
O239 C214 1.325 . S
H240 C182 0.929 . S
H241 C183 0.930 1_565 S
H242 C184 0.930 . S
H243 C185 0.930 1_565 S
H244 C187 0.930 . S
H245 C189 0.929 . S
H246 C190 0.930 . S
H247 C191 0.930 . S
H248 C194 0.930 . S
H249 C197 0.929 . S
H250 C202 0.929 . S
H251 C203 0.930 . S
H252 C210 0.929 1_645 S
H253 C211 0.930 . S
H254 C212 0.930 . S
H255 C213 0.930 . S
H256 C215 0.929 1_655 S
H257 C216 0.930 . S
H258 C217 0.930 . S
H259 C218 0.930 . S
H260 C222 0.929 . S
H261 C224 0.930 . S
H262 C230 0.929 . S
H263 C231 0.930 . S
H264 O290 0.856 . S
H265 O293 0.854 . S
H266 C301 0.930 1_655 S
H267 C302 0.930 1_655 S
H268 C304 0.930 . S
H269 C305 0.930 . S
H270 C307 0.931 . S
H271 C308 0.930 . S
H272 C310 0.930 . S
H273 C311 0.929 . S
H274 C313 0.930 1_655 S
H275 C314 0.931 . S
H276 C316 0.930 . S
H277 C317 0.929 . S
H278 C319 0.931 1_655 S
H279 C320 0.930 1_655 S
H280 C322 0.930 . S
H281 C323 0.932 . S
H282 C325 0.930 1_655 S
H283 C326 0.948 . S
H284 C328 0.931 . S
H285 C329 0.930 . S
H286 C331 0.929 1_655 S
H287 C332 0.931 1_655 S
H288 C334 0.930 . S
H289 C335 0.929 . S
O290 H264 0.856 . S
O290 C336 1.300 . S
O291 C336 1.209 . S
O292 C337 1.199 . S
O293 H265 0.854 . S
O293 C337 1.297 . S
C294 C295 1.404 . S
C294 C299 1.397 . S
C294 C300 1.492 . S
C295 C294 1.404 . S
C295 C296 1.396 . S
C295 C306 1.492 . S
C296 C295 1.396 . S
C296 C297 1.397 . S
C296 C312 1.509 . S
C297 C296 1.397 . S
C297 C298 1.412 . S
C297 C318 1.485 . S
C298 C297 1.412 . S
C298 C299 1.388 . S
C298 C324 1.490 . S
C299 C294 1.397 . S
C299 C298 1.388 . S
C299 C330 1.519 . S
C300 C294 1.492 . S
C300 C301 1.363 . S
C300 C305 1.390 . S
C301 H266 0.930 1_455 S
C301 C300 1.363 . S
C301 C302 1.372 . S
C302 H267 0.930 1_455 S
C302 C301 1.372 . S
C302 C303 1.383 . S
C303 C302 1.383 . S
C303 C304 1.395 . S
C304 H268 0.930 . S
C304 C303 1.395 . S
C304 C305 1.362 . S
C305 H269 0.930 . S
C305 C300 1.390 . S
C305 C304 1.362 . S
C306 C295 1.492 . S
C306 C307 1.377 . S
C306 C311 1.397 . S
C307 H270 0.931 . S
C307 C306 1.377 . S
C307 C308 1.376 . S
C308 H271 0.930 . S
C308 C307 1.376 . S
C308 C309 1.376 . S
C309 C308 1.376 . S
C309 C310 1.378 . S
C309 C336 1.486 . S
C310 H272 0.930 . S
C310 C309 1.378 . S
C310 C311 1.376 . S
C311 H273 0.929 . S
C311 C306 1.397 . S
C311 C310 1.376 . S
C312 C296 1.509 . S
C312 C313 1.391 . S
C312 C317 1.386 . S
C313 H274 0.930 1_455 S
C313 C312 1.391 . S
C313 C314 1.375 . S
C314 H275 0.931 . S
C314 C313 1.375 . S
C314 C315 1.375 . S
C315 C314 1.375 . S
C315 C316 1.361 . S
C316 H276 0.930 . S
C316 C315 1.361 . S
C316 C317 1.399 . S
C317 H277 0.929 . S
C317 C312 1.386 . S
C317 C316 1.399 . S
C318 C297 1.485 . S
C318 C319 1.394 . S
C318 C323 1.360 . S
C319 H278 0.931 1_455 S
C319 C318 1.394 . S
C319 C320 1.372 . S
C320 H279 0.930 1_455 S
C320 C319 1.372 . S
C320 C321 1.397 . S
C321 C320 1.397 . S
C321 C322 1.390 . S
C321 C337 1.476 . S
C322 H280 0.930 . S
C322 C321 1.390 . S
C322 C323 1.366 . S
C323 H281 0.932 . S
C323 C318 1.360 . S
C323 C322 1.366 . S
C324 C298 1.490 . S
C324 C325 1.380 . S
C324 C329 1.386 . S
C325 H282 0.930 1_455 S
C325 C324 1.380 . S
C325 C326 1.374 1_455 S
C326 H283 0.948 . S
C326 C325 1.374 1_655 S
C326 C327 1.360 1_655 S
C327 C326 1.360 1_455 S
C327 C328 1.380 . S
C328 H284 0.931 . S
C328 C327 1.380 . S
C328 C329 1.387 . S
C329 H285 0.930 . S
C329 C324 1.386 . S
C329 C328 1.387 . S
C330 C299 1.519 . S
C330 C331 1.377 . S
C330 C335 1.361 . S
C331 H286 0.929 1_455 S
C331 C330 1.377 . S
C331 C332 1.386 . S
C332 H287 0.931 1_455 S
C332 C331 1.386 . S
C332 C333 1.363 . S
C333 C332 1.363 . S
C333 C334 1.385 . S
C334 H288 0.930 . S
C334 C333 1.385 . S
C334 C335 1.396 . S
C335 H289 0.929 . S
C335 C330 1.361 . S
C335 C334 1.396 . S
C336 O290 1.300 . S
C336 O291 1.209 . S
C336 C309 1.486 . S
C337 O292 1.199 . S
C337 O293 1.297 . S
C337 C321 1.476 . S
H338 O364 0.856 . S
H339 O367 0.854 . S
H340 C375 0.930 1_565 S
H341 C376 0.930 1_565 S
H342 C378 0.930 . S
H343 C379 0.930 . S
H344 C381 0.931 . S
H345 C382 0.930 . S
H346 C384 0.930 . S
H347 C385 0.929 . S
H348 C387 0.930 . S
H349 C388 0.931 . S
H350 C390 0.930 . S
H351 C391 0.929 . S
H352 C393 0.931 . S
H353 C394 0.930 . S
H354 C396 0.930 . S
H355 C397 0.932 . S
H356 C399 0.948 . S
H357 C400 0.929 1_565 S
H358 C402 0.931 . S
H359 C403 0.930 . S
H360 C405 0.929 . S
H361 C406 0.931 . S
H362 C408 0.930 . S
H363 C409 0.929 . S
O364 H338 0.856 . S
O364 C410 1.300 . S
O365 C410 1.209 . S
O366 C411 1.199 . S
O367 H339 0.854 . S
O367 C411 1.297 . S
C368 C369 1.404 . S
C368 C373 1.397 . S
C368 C374 1.492 . S
C369 C368 1.404 . S
C369 C370 1.396 . S
C369 C380 1.492 . S
C370 C369 1.396 . S
C370 C371 1.397 . S
C370 C386 1.509 . S
C371 C370 1.397 . S
C371 C372 1.412 . S
C371 C392 1.485 . S
C372 C371 1.412 . S
C372 C373 1.388 . S
C372 C398 1.490 . S
C373 C368 1.397 . S
C373 C372 1.388 . S
C373 C404 1.519 . S
C374 C368 1.492 . S
C374 C375 1.363 . S
C374 C379 1.390 . S
C375 H340 0.930 1_545 S
C375 C374 1.363 . S
C375 C376 1.372 . S
C376 H341 0.930 1_545 S
C376 C375 1.372 . S
C376 C377 1.383 . S
C377 C376 1.383 . S
C377 C378 1.395 . S
C378 H342 0.930 . S
C378 C377 1.395 . S
C378 C379 1.362 . S
C379 H343 0.930 . S
C379 C374 1.390 . S
C379 C378 1.362 . S
C380 C369 1.492 . S
C380 C381 1.377 . S
C380 C385 1.397 . S
C381 H344 0.931 . S
C381 C380 1.377 . S
C381 C382 1.376 . S
C382 H345 0.930 . S
C382 C381 1.376 . S
C382 C383 1.376 . S
C383 C382 1.376 . S
C383 C384 1.378 . S
C383 C410 1.486 . S
C384 H346 0.930 . S
C384 C383 1.378 . S
C384 C385 1.376 . S
C385 H347 0.929 . S
C385 C380 1.397 . S
C385 C384 1.376 . S
C386 C370 1.509 . S
C386 C387 1.391 . S
C386 C391 1.386 . S
C387 H348 0.930 . S
C387 C386 1.391 . S
C387 C388 1.375 . S
C388 H349 0.931 . S
C388 C387 1.375 . S
C388 C389 1.375 . S
C389 C388 1.375 . S
C389 C390 1.361 . S
C390 H350 0.930 . S
C390 C389 1.361 . S
C390 C391 1.399 . S
C391 H351 0.929 . S
C391 C386 1.386 . S
C391 C390 1.399 . S
C392 C371 1.485 . S
C392 C393 1.394 . S
C392 C397 1.360 . S
C393 H352 0.931 . S
C393 C392 1.394 . S
C393 C394 1.372 . S
C394 H353 0.930 . S
C394 C393 1.372 . S
C394 C395 1.397 . S
C395 C394 1.397 . S
C395 C396 1.390 . S
C395 C411 1.476 . S
C396 H354 0.930 . S
C396 C395 1.390 . S
C396 C397 1.366 . S
C397 H355 0.932 . S
C397 C392 1.360 . S
C397 C396 1.366 . S
C398 C372 1.490 . S
C398 C399 1.380 . S
C398 C403 1.386 . S
C399 H356 0.948 . S
C399 C398 1.380 . S
C399 C400 1.381 . S
C400 H357 0.929 1_545 S
C400 C399 1.381 . S
C400 C401 1.371 . S
C401 C400 1.371 . S
C401 C402 1.380 . S
C402 H358 0.931 . S
C402 C401 1.380 . S
C402 C403 1.387 . S
C403 H359 0.930 . S
C403 C398 1.386 . S
C403 C402 1.387 . S
C404 C373 1.519 . S
C404 C405 1.377 . S
C404 C409 1.361 . S
C405 H360 0.929 . S
C405 C404 1.377 . S
C405 C406 1.386 . S
C406 H361 0.931 . S
C406 C405 1.386 . S
C406 C407 1.363 . S
C407 C406 1.363 . S
C407 C408 1.385 . S
C408 H362 0.930 . S
C408 C407 1.385 . S
C408 C409 1.396 . S
C409 H363 0.929 . S
C409 C404 1.361 . S
C409 C408 1.396 . S
C410 O364 1.300 . S
C410 O365 1.209 . S
C410 C383 1.486 . S
C411 O366 1.199 . S
C411 O367 1.297 . S
C411 C395 1.476 . S
H412 O438 0.856 . S
H413 O441 0.854 . S
H414 C449 0.930 . S
H415 C450 0.930 . S
H416 C452 0.930 . S
H417 C453 0.930 . S
H418 C455 0.931 . S
H419 C456 0.930 . S
H420 C458 0.930 . S
H421 C459 0.929 . S
H422 C461 0.930 . S
H423 C462 0.931 . S
H424 C464 0.930 . S
H425 C465 0.929 . S
H426 C467 0.931 . S
H427 C468 0.930 . S
H428 C470 0.930 . S
H429 C471 0.932 . S
H430 C473 0.930 . S
H431 C474 0.929 . S
H432 C476 0.931 . S
H433 C477 0.930 . S
H434 C479 0.929 . S
H435 C480 0.931 . S
H436 C482 0.930 . S
H437 C483 0.929 . S
O438 H412 0.856 . S
O438 C484 1.300 . S
O439 C484 1.209 . S
O440 C485 1.199 . S
O441 H413 0.854 . S
O441 C485 1.297 . S
C442 C443 1.404 . S
C442 C447 1.397 . S
C442 C448 1.492 . S
C443 C442 1.404 . S
C443 C444 1.396 . S
C443 C454 1.492 . S
C444 C443 1.396 . S
C444 C445 1.397 . S
C444 C460 1.509 . S
C445 C444 1.397 . S
C445 C446 1.412 . S
C445 C466 1.485 . S
C446 C445 1.412 . S
C446 C447 1.388 . S
C446 C472 1.490 . S
C447 C442 1.397 . S
C447 C446 1.388 . S
C447 C478 1.519 . S
C448 C442 1.492 . S
C448 C449 1.363 . S
C448 C453 1.390 . S
C449 H414 0.930 . S
C449 C448 1.363 . S
C449 C450 1.372 . S
C450 H415 0.930 . S
C450 C449 1.372 . S
C450 C451 1.383 . S
C451 C450 1.383 . S
C451 C452 1.395 . S
C452 H416 0.930 . S
C452 C451 1.395 . S
C452 C453 1.362 . S
C453 H417 0.930 . S
C453 C448 1.390 . S
C453 C452 1.362 . S
C454 C443 1.492 . S
C454 C455 1.377 . S
C454 C459 1.397 . S
C455 H418 0.931 . S
C455 C454 1.377 . S
C455 C456 1.376 . S
C456 H419 0.930 . S
C456 C455 1.376 . S
C456 C457 1.376 . S
C457 C456 1.376 . S
C457 C458 1.378 . S
C457 C484 1.486 . S
C458 H420 0.930 . S
C458 C457 1.378 . S
C458 C459 1.376 . S
C459 H421 0.929 . S
C459 C454 1.397 . S
C459 C458 1.376 . S
C460 C444 1.509 . S
C460 C461 1.391 . S
C460 C465 1.386 . S
C461 H422 0.930 . S
C461 C460 1.391 . S
C461 C462 1.375 . S
C462 H423 0.931 . S
C462 C461 1.375 . S
C462 C463 1.375 . S
C463 C462 1.375 . S
C463 C464 1.361 . S
C464 H424 0.930 . S
C464 C463 1.361 . S
C464 C465 1.399 . S
C465 H425 0.929 . S
C465 C460 1.386 . S
C465 C464 1.399 . S
C466 C445 1.485 . S
C466 C467 1.394 . S
C466 C471 1.360 . S
C467 H426 0.931 . S
C467 C466 1.394 . S
C467 C468 1.372 . S
C468 H427 0.930 . S
C468 C467 1.372 . S
C468 C469 1.397 . S
C469 C468 1.397 . S
C469 C470 1.390 . S
C469 C485 1.476 . S
C470 H428 0.930 . S
C470 C469 1.390 . S
C470 C471 1.366 . S
C471 H429 0.932 . S
C471 C466 1.360 . S
C471 C470 1.366 . S
C472 C446 1.490 . S
C472 C473 1.380 . S
C472 C477 1.386 . S
C473 H430 0.930 . S
C473 C472 1.380 . S
C473 C474 1.381 . S
C474 H431 0.929 . S
C474 C473 1.381 . S
C474 C475 1.371 . S
C475 C474 1.371 . S
C475 C476 1.380 . S
C476 H432 0.931 . S
C476 C475 1.380 . S
C476 C477 1.387 . S
C477 H433 0.930 . S
C477 C472 1.386 . S
C477 C476 1.387 . S
C478 C447 1.519 . S
C478 C479 1.377 . S
C478 C483 1.361 . S
C479 H434 0.929 . S
C479 C478 1.377 . S
C479 C480 1.386 . S
C480 H435 0.931 . S
C480 C479 1.386 . S
C480 C481 1.363 . S
C481 C480 1.363 . S
C481 C482 1.385 . S
C482 H436 0.930 . S
C482 C481 1.385 . S
C482 C483 1.396 . S
C483 H437 0.929 . S
C483 C478 1.361 . S
C483 C482 1.396 . S
C484 O438 1.300 . S
C484 O439 1.209 . S
C484 C457 1.486 . S
C485 O440 1.199 . S
C485 O441 1.297 . S
C485 C469 1.476 . S
H486 C504 0.951 . S
H487 C506 0.951 . S
H488 C508 0.950 . S
H489 C509 0.950 . S
H490 C511 0.950 . S
H491 C514 0.950 . S
H492 C515 0.950 . S
H493 C517 0.950 1_655 S
H494 C518 0.950 1_655 S
H495 C519 0.951 . S
H496 C521 0.951 . S
H497 C523 0.950 . S
H498 C524 0.950 . S
H499 C526 0.950 . S
H500 C529 0.950 . S
H501 C530 0.950 . S
H502 C532 0.950 . S
H503 C533 0.950 . S
C504 H486 0.951 . S
C504 C505 1.366 1_655 S
C504 C506 1.388 . S
C505 C504 1.366 1_455 S
C505 C509 1.385 . S
C506 H487 0.951 . S
C506 C504 1.388 . S
C506 C507 1.366 1_655 S
C507 C506 1.366 1_455 S
C507 C508 1.414 . S
C507 C510 1.499 . S
C508 H488 0.950 . S
C508 C507 1.414 . S
C508 C509 1.374 . S
C509 H489 0.950 . S
C509 C505 1.385 . S
C509 C508 1.374 . S
C510 C507 1.499 . S
C510 C511 1.373 . S
C510 C512 1.389 . S
C511 H490 0.950 . S
C511 C510 1.373 . S
C511 C527 1.377 . S
C512 C510 1.389 . S
C512 C513 1.524 . S
C512 C526 1.377 . S
C513 C512 1.524 . S
C513 C514 1.397 . S
C513 C518 1.363 . S
C514 H491 0.950 . S
C514 C513 1.397 . S
C514 C515 1.334 . S
C515 H492 0.950 . S
C515 C514 1.334 . S
C515 C516 1.287 . S
C516 C515 1.287 . S
C516 C517 1.524 . S
C516 H535 0.913 . S
C517 H493 0.950 1_455 S
C517 C516 1.524 . S
C517 C518 1.415 . S
C518 H494 0.950 1_455 S
C518 C513 1.363 . S
C518 C517 1.415 . S
C519 H495 0.951 . S
C519 C520 1.366 . S
C519 C521 1.388 . S
C520 C519 1.366 . S
C520 C524 1.385 1_455 S
C521 H496 0.951 . S
C521 C519 1.388 . S
C521 C522 1.366 . S
C522 C521 1.366 . S
C522 C523 1.414 1_455 S
C522 C525 1.499 . S
C523 H497 0.950 . S
C523 C522 1.414 1_655 S
C523 C524 1.374 . S
C524 H498 0.950 . S
C524 C520 1.385 1_655 S
C524 C523 1.374 . S
C525 C522 1.499 . S
C525 C526 1.373 . S
C525 C527 1.389 . S
C526 H499 0.950 . S
C526 C512 1.377 . S
C526 C525 1.373 . S
C527 C511 1.377 . S
C527 C525 1.389 . S
C527 C528 1.524 . S
C528 C527 1.524 . S
C528 C529 1.397 1_455 S
C528 C533 1.363 . S
C529 H500 0.950 . S
C529 C528 1.397 1_655 S
C529 C530 1.334 . S
C530 H501 0.950 . S
C530 C529 1.334 . S
C530 C531 1.287 . S
C531 C530 1.287 . S
C531 C532 1.524 1_655 S
C531 H534 0.999 . S
C532 H502 0.950 . S
C532 C531 1.524 1_455 S
C532 C533 1.415 . S
C533 H503 0.950 . S
C533 C528 1.363 . S
C533 C532 1.415 . S
H534 C531 0.999 . S
H535 C516 0.913 . S
H536 C554 0.951 . S
H537 C556 0.951 . S
H538 C558 0.950 . S
H539 C559 0.950 1_545 S
H540 C561 0.950 . S
H541 C564 0.950 . S
H542 C565 0.950 . S
H543 C567 0.950 . S
H544 C568 0.950 . S
H545 C569 0.951 . S
H546 C571 0.951 . S
H547 C573 0.950 1_565 S
H548 C574 0.950 . S
H549 C576 0.950 . S
H550 C579 0.950 . S
H551 C580 0.950 . S
H552 C582 0.950 . S
H553 C583 0.950 . S
C554 H536 0.951 . S
C554 C555 1.366 . S
C554 C556 1.388 . S
C555 C554 1.366 . S
C555 C559 1.385 . S
C556 H537 0.951 . S
C556 C554 1.388 . S
C556 C557 1.366 . S
C557 C556 1.366 . S
C557 C558 1.414 1_565 S
C557 C560 1.499 . S
C558 H538 0.950 . S
C558 C557 1.414 1_545 S
C558 C559 1.374 1_545 S
C559 H539 0.950 1_565 S
C559 C555 1.385 . S
C559 C558 1.374 1_565 S
C560 C557 1.499 . S
C560 C561 1.373 1_565 S
C560 C562 1.389 . S
C561 H540 0.950 . S
C561 C560 1.373 1_545 S
C561 C577 1.377 . S
C562 C560 1.389 . S
C562 C563 1.524 . S
C562 C576 1.377 . S
C563 C562 1.524 . S
C563 C564 1.397 . S
C563 C568 1.363 . S
C564 H541 0.950 . S
C564 C563 1.397 . S
C564 C565 1.334 . S
C565 H542 0.950 . S
C565 C564 1.334 . S
C565 C566 1.287 . S
C566 C565 1.287 . S
C566 C567 1.524 . S
C566 H585 0.913 . S
C567 H543 0.950 . S
C567 C566 1.524 . S
C567 C568 1.415 . S
C568 H544 0.950 . S
C568 C563 1.363 . S
C568 C567 1.415 . S
C569 H545 0.951 . S
C569 C570 1.366 . S
C569 C571 1.388 . S
C570 C569 1.366 . S
C570 C574 1.385 . S
C571 H546 0.951 . S
C571 C569 1.388 . S
C571 C572 1.366 . S
C572 C571 1.366 . S
C572 C573 1.414 . S
C572 C575 1.499 . S
C573 H547 0.950 1_545 S
C573 C572 1.414 . S
C573 C574 1.374 . S
C574 H548 0.950 . S
C574 C570 1.385 . S
C574 C573 1.374 . S
C575 C572 1.499 . S
C575 C576 1.373 1_545 S
C575 C577 1.389 . S
C576 H549 0.950 . S
C576 C562 1.377 . S
C576 C575 1.373 1_565 S
C577 C561 1.377 . S
C577 C575 1.389 . S
C577 C578 1.524 . S
C578 C577 1.524 . S
C578 C579 1.397 . S
C578 C583 1.363 . S
C579 H550 0.950 . S
C579 C578 1.397 . S
C579 C580 1.334 . S
C580 H551 0.950 . S
C580 C579 1.334 . S
C580 C581 1.287 . S
C581 C580 1.287 . S
C581 C582 1.524 . S
C581 H584 0.999 . S
C582 H552 0.950 . S
C582 C581 1.524 . S
C582 C583 1.415 . S
C583 H553 0.950 . S
C583 C578 1.363 . S
C583 C582 1.415 . S
H584 C581 0.999 . S
H585 C566 0.913 . S
H586 C604 0.951 . S
H587 C606 0.951 . S
H588 C608 0.950 . S
H589 C609 0.950 . S
H590 C611 0.950 . S
H591 C614 0.950 . S
H592 C615 0.950 . S
H593 C617 0.950 . S
H594 C618 0.950 . S
H595 C619 0.951 . S
H596 C621 0.951 . S
H597 C623 0.950 . S
H598 C624 0.950 . S
H599 C626 0.950 . S
H600 C629 0.950 . S
H601 C630 0.950 . S
H602 C632 0.950 . S
H603 C633 0.950 . S
C604 H586 0.951 . S
C604 C605 1.366 . S
C604 C606 1.388 . S
C605 C604 1.366 . S
C605 C609 1.385 . S
C606 H587 0.951 . S
C606 C604 1.388 . S
C606 C607 1.366 . S
C607 C606 1.366 . S
C607 C608 1.414 . S
C607 C610 1.499 . S
C608 H588 0.950 . S
C608 C607 1.414 . S
C608 C609 1.374 . S
C609 H589 0.950 . S
C609 C605 1.385 . S
C609 C608 1.374 . S
C610 C607 1.499 . S
C610 C611 1.373 . S
C610 C612 1.389 . S
C611 H590 0.950 . S
C611 C610 1.373 . S
C611 C627 1.377 . S
C612 C610 1.389 . S
C612 C613 1.524 . S
C612 C626 1.377 . S
C613 C612 1.524 . S
C613 C614 1.397 . S
C613 C618 1.363 . S
C614 H591 0.950 . S
C614 C613 1.397 . S
C614 C615 1.334 . S
C615 H592 0.950 . S
C615 C614 1.334 . S
C615 C616 1.287 . S
C616 C615 1.287 . S
C616 C617 1.524 . S
C616 H635 0.913 . S
C617 H593 0.950 . S
C617 C616 1.524 . S
C617 C618 1.415 . S
C618 H594 0.950 . S
C618 C613 1.363 . S
C618 C617 1.415 . S
C619 H595 0.951 . S
C619 C620 1.366 . S
C619 C621 1.388 . S
C620 C619 1.366 . S
C620 C624 1.385 . S
C621 H596 0.951 . S
C621 C619 1.388 . S
C621 C622 1.366 . S
C622 C621 1.366 . S
C622 C623 1.414 . S
C622 C625 1.499 . S
C623 H597 0.950 . S
C623 C622 1.414 . S
C623 C624 1.374 . S
C624 H598 0.950 . S
C624 C620 1.385 . S
C624 C623 1.374 . S
C625 C622 1.499 . S
C625 C626 1.373 . S
C625 C627 1.389 . S
C626 H599 0.950 . S
C626 C612 1.377 . S
C626 C625 1.373 . S
C627 C611 1.377 . S
C627 C625 1.389 . S
C627 C628 1.524 . S
C628 C627 1.524 . S
C628 C629 1.397 . S
C628 C633 1.363 . S
C629 H600 0.950 . S
C629 C628 1.397 . S
C629 C630 1.334 . S
C630 H601 0.950 . S
C630 C629 1.334 . S
C630 C631 1.287 . S
C631 C630 1.287 . S
C631 C632 1.524 . S
C631 H634 0.999 . S
C632 H602 0.950 . S
C632 C631 1.524 . S
C632 C633 1.415 . S
C633 H603 0.950 . S
C633 C628 1.363 . S
C633 C632 1.415 . S
H634 C631 0.999 . S
H635 C616 0.913 . S
H636 C654 0.951 . S
H637 C656 0.951 . S
H638 C658 0.950 . S
H639 C659 0.950 . S
H640 C661 0.950 . S
H641 C664 0.950 . S
H642 C665 0.950 . S
H643 C667 0.950 . S
H644 C668 0.950 . S
H645 C669 0.951 . S
H646 C671 0.951 . S
H647 C673 0.950 . S
H648 C674 0.950 . S
H649 C676 0.950 . S
H650 C679 0.950 . S
H651 C680 0.950 . S
H652 C682 0.950 . S
H653 C683 0.950 . S
C654 H636 0.951 . S
C654 C655 1.366 . S
C654 C656 1.388 . S
C655 C654 1.366 . S
C655 C659 1.385 . S
C656 H637 0.951 . S
C656 C654 1.388 . S
C656 C657 1.366 . S
C657 C656 1.366 . S
C657 C658 1.414 . S
C657 C660 1.499 . S
C658 H638 0.950 . S
C658 C657 1.414 . S
C658 C659 1.374 . S
C659 H639 0.950 . S
C659 C655 1.385 . S
C659 C658 1.374 . S
C660 C657 1.499 . S
C660 C661 1.373 . S
C660 C662 1.389 . S
C661 H640 0.950 . S
C661 C660 1.373 . S
C661 C677 1.377 . S
C662 C660 1.389 . S
C662 C663 1.524 . S
C662 C676 1.377 . S
C663 C662 1.524 . S
C663 C664 1.397 . S
C663 C668 1.363 . S
C664 H641 0.950 . S
C664 C663 1.397 . S
C664 C665 1.334 . S
C665 H642 0.950 . S
C665 C664 1.334 . S
C665 C666 1.287 . S
C666 C665 1.287 . S
C666 C667 1.524 . S
C666 H685 0.913 . S
C667 H643 0.950 . S
C667 C666 1.524 . S
C667 C668 1.415 . S
C668 H644 0.950 . S
C668 C663 1.363 . S
C668 C667 1.415 . S
C669 H645 0.951 . S
C669 C670 1.366 . S
C669 C671 1.388 . S
C670 C669 1.366 . S
C670 C674 1.385 . S
C671 H646 0.951 . S
C671 C669 1.388 . S
C671 C672 1.366 . S
C672 C671 1.366 . S
C672 C673 1.414 . S
C672 C675 1.499 . S
C673 H647 0.950 . S
C673 C672 1.414 . S
C673 C674 1.374 . S
C674 H648 0.950 . S
C674 C670 1.385 . S
C674 C673 1.374 . S
C675 C672 1.499 . S
C675 C676 1.373 . S
C675 C677 1.389 . S
C676 H649 0.950 . S
C676 C662 1.377 . S
C676 C675 1.373 . S
C677 C661 1.377 . S
C677 C675 1.389 . S
C677 C678 1.524 . S
C678 C677 1.524 . S
C678 C679 1.397 . S
C678 C683 1.363 . S
C679 H650 0.950 . S
C679 C678 1.397 . S
C679 C680 1.334 . S
C680 H651 0.950 . S
C680 C679 1.334 . S
C680 C681 1.287 . S
C681 C680 1.287 . S
C681 C682 1.524 . S
C681 H684 0.999 . S
C682 H652 0.950 . S
C682 C681 1.524 . S
C682 C683 1.415 . S
C683 H653 0.950 . S
C683 C678 1.363 . S
C683 C682 1.415 . S
H684 C681 0.999 . S
H685 C666 0.913 . S
H686 C704 0.951 . S
H687 C706 0.951 . S
H688 C708 0.950 . S
H689 C709 0.950 . S
H690 C711 0.950 . S
H691 C714 0.950 . S
H692 C715 0.950 . S
H693 C717 0.950 . S
H694 C718 0.950 . S
H695 C719 0.951 . S
H696 C721 0.951 . S
H697 C723 0.950 . S
H698 C724 0.950 . S
H699 C726 0.950 . S
H700 C729 0.950 . S
H701 C730 0.950 . S
H702 C732 0.950 . S
H703 C733 0.950 . S
C704 H686 0.951 . S
C704 C705 1.366 . S
C704 C706 1.388 . S
C705 C704 1.366 . S
C705 C709 1.385 . S
C706 H687 0.951 . S
C706 C704 1.388 . S
C706 C707 1.366 . S
C707 C706 1.366 . S
C707 C708 1.414 . S
C707 C710 1.499 . S
C708 H688 0.950 . S
C708 C707 1.414 . S
C708 C709 1.374 . S
C709 H689 0.950 . S
C709 C705 1.385 . S
C709 C708 1.374 . S
C710 C707 1.499 . S
C710 C711 1.373 . S
C710 C712 1.389 . S
C711 H690 0.950 . S
C711 C710 1.373 . S
C711 C727 1.377 . S
C712 C710 1.389 . S
C712 C713 1.524 . S
C712 C726 1.377 . S
C713 C712 1.524 . S
C713 C714 1.397 . S
C713 C718 1.363 . S
C714 H691 0.950 . S
C714 C713 1.397 . S
C714 C715 1.334 . S
C715 H692 0.950 . S
C715 C714 1.334 . S
C715 C716 1.287 . S
C716 C715 1.287 . S
C716 C717 1.524 . S
C716 H735 0.913 . S
C717 H693 0.950 . S
C717 C716 1.524 . S
C717 C718 1.415 . S
C718 H694 0.950 . S
C718 C713 1.363 . S
C718 C717 1.415 . S
C719 H695 0.951 . S
C719 C720 1.366 . S
C719 C721 1.388 . S
C720 C719 1.366 . S
C720 C724 1.385 . S
C721 H696 0.951 . S
C721 C719 1.388 . S
C721 C722 1.366 . S
C722 C721 1.366 . S
C722 C723 1.414 . S
C722 C725 1.499 . S
C723 H697 0.950 . S
C723 C722 1.414 . S
C723 C724 1.374 . S
C724 H698 0.950 . S
C724 C720 1.385 . S
C724 C723 1.374 . S
C725 C722 1.499 . S
C725 C726 1.373 . S
C725 C727 1.389 . S
C726 H699 0.950 . S
C726 C712 1.377 . S
C726 C725 1.373 . S
C727 C711 1.377 . S
C727 C725 1.389 . S
C727 C728 1.524 . S
C728 C727 1.524 . S
C728 C729 1.397 . S
C728 C733 1.363 . S
C729 H700 0.950 . S
C729 C728 1.397 . S
C729 C730 1.334 . S
C730 H701 0.950 . S
C730 C729 1.334 . S
C730 C731 1.287 . S
C731 C730 1.287 . S
C731 C732 1.524 . S
C731 H734 0.999 . S
C732 H702 0.950 . S
C732 C731 1.524 . S
C732 C733 1.415 . S
C733 H703 0.950 . S
C733 C728 1.363 . S
C733 C732 1.415 . S
H734 C731 0.999 . S
H735 C716 0.913 . S
H736 C754 0.951 . S
H737 C756 0.951 . S
H738 C758 0.950 . S
H739 C759 0.950 . S
H740 C761 0.950 . S
H741 C764 0.950 . S
H742 C765 0.950 . S
H743 C767 0.950 . S
H744 C768 0.950 . S
H745 C769 0.951 . S
H746 C771 0.951 . S
H747 C773 0.950 . S
H748 C774 0.950 . S
H749 C776 0.950 . S
H750 C779 0.950 . S
H751 C780 0.950 . S
H752 C782 0.950 . S
H753 C783 0.950 . S
C754 H736 0.951 . S
C754 C755 1.366 . S
C754 C756 1.388 . S
C755 C754 1.366 . S
C755 C759 1.385 . S
C756 H737 0.951 . S
C756 C754 1.388 . S
C756 C757 1.366 . S
C757 C756 1.366 . S
C757 C758 1.414 . S
C757 C760 1.499 . S
C758 H738 0.950 . S
C758 C757 1.414 . S
C758 C759 1.374 . S
C759 H739 0.950 . S
C759 C755 1.385 . S
C759 C758 1.374 . S
C760 C757 1.499 . S
C760 C761 1.373 . S
C760 C762 1.389 . S
C761 H740 0.950 . S
C761 C760 1.373 . S
C761 C777 1.377 . S
C762 C760 1.389 . S
C762 C763 1.524 . S
C762 C776 1.377 . S
C763 C762 1.524 . S
C763 C764 1.397 . S
C763 C768 1.363 . S
C764 H741 0.950 . S
C764 C763 1.397 . S
C764 C765 1.334 . S
C765 H742 0.950 . S
C765 C764 1.334 . S
C765 C766 1.287 . S
C766 C765 1.287 . S
C766 C767 1.524 . S
C766 H785 0.913 . S
C767 H743 0.950 . S
C767 C766 1.524 . S
C767 C768 1.415 . S
C768 H744 0.950 . S
C768 C763 1.363 . S
C768 C767 1.415 . S
C769 H745 0.951 . S
C769 C770 1.366 . S
C769 C771 1.388 . S
C770 C769 1.366 . S
C770 C774 1.385 . S
C771 H746 0.951 . S
C771 C769 1.388 . S
C771 C772 1.366 . S
C772 C771 1.366 . S
C772 C773 1.414 . S
C772 C775 1.499 . S
C773 H747 0.950 . S
C773 C772 1.414 . S
C773 C774 1.374 . S
C774 H748 0.950 . S
C774 C770 1.385 . S
C774 C773 1.374 . S
C775 C772 1.499 . S
C775 C776 1.373 . S
C775 C777 1.389 . S
C776 H749 0.950 . S
C776 C762 1.377 . S
C776 C775 1.373 . S
C777 C761 1.377 . S
C777 C775 1.389 . S
C777 C778 1.524 . S
C778 C777 1.524 . S
C778 C779 1.397 . S
C778 C783 1.363 . S
C779 H750 0.950 . S
C779 C778 1.397 . S
C779 C780 1.334 . S
C780 H751 0.950 . S
C780 C779 1.334 . S
C780 C781 1.287 . S
C781 C780 1.287 . S
C781 C782 1.524 . S
C781 H784 0.999 . S
C782 H752 0.950 . S
C782 C781 1.524 . S
C782 C783 1.415 . S
C783 H753 0.950 . S
C783 C778 1.363 . S
C783 C782 1.415 . S
H784 C781 0.999 . S
H785 C766 0.913 . S
H786 C804 0.951 . S
H787 C806 0.951 . S
H788 C808 0.950 . S
H789 C809 0.950 . S
H790 C811 0.950 . S
H791 C814 0.950 . S
H792 C815 0.950 . S
H793 C817 0.950 . S
H794 C818 0.950 . S
H795 C819 0.951 . S
H796 C821 0.951 . S
H797 C823 0.950 . S
H798 C824 0.950 . S
H799 C826 0.950 . S
H800 C829 0.950 . S
H801 C830 0.950 . S
H802 C832 0.950 . S
H803 C833 0.950 . S
C804 H786 0.951 . S
C804 C805 1.366 . S
C804 C806 1.388 . S
C805 C804 1.366 . S
C805 C809 1.385 . S
C806 H787 0.951 . S
C806 C804 1.388 . S
C806 C807 1.366 . S
C807 C806 1.366 . S
C807 C808 1.414 . S
C807 C810 1.499 . S
C808 H788 0.950 . S
C808 C807 1.414 . S
C808 C809 1.374 . S
C809 H789 0.950 . S
C809 C805 1.385 . S
C809 C808 1.374 . S
C810 C807 1.499 . S
C810 C811 1.373 . S
C810 C812 1.389 . S
C811 H790 0.950 . S
C811 C810 1.373 . S
C811 C827 1.377 . S
C812 C810 1.389 . S
C812 C813 1.524 . S
C812 C826 1.377 . S
C813 C812 1.524 . S
C813 C814 1.397 . S
C813 C818 1.363 . S
C814 H791 0.950 . S
C814 C813 1.397 . S
C814 C815 1.334 1_545 S
C815 H792 0.950 . S
C815 C814 1.334 1_565 S
C815 C816 1.287 . S
C816 C815 1.287 . S
C816 C817 1.524 . S
C816 H835 0.913 . S
C817 H793 0.950 . S
C817 C816 1.524 . S
C817 C818 1.415 1_565 S
C818 H794 0.950 . S
C818 C813 1.363 . S
C818 C817 1.415 1_545 S
C819 H795 0.951 . S
C819 C820 1.366 . S
C819 C821 1.388 . S
C820 C819 1.366 . S
C820 C824 1.385 . S
C821 H796 0.951 . S
C821 C819 1.388 . S
C821 C822 1.366 . S
C822 C821 1.366 . S
C822 C823 1.414 . S
C822 C825 1.499 . S
C823 H797 0.950 . S
C823 C822 1.414 . S
C823 C824 1.374 . S
C824 H798 0.950 . S
C824 C820 1.385 . S
C824 C823 1.374 . S
C825 C822 1.499 . S
C825 C826 1.373 . S
C825 C827 1.389 . S
C826 H799 0.950 . S
C826 C812 1.377 . S
C826 C825 1.373 . S
C827 C811 1.377 . S
C827 C825 1.389 . S
C827 C828 1.524 . S
C828 C827 1.524 . S
C828 C829 1.397 . S
C828 C833 1.363 . S
C829 H800 0.950 . S
C829 C828 1.397 . S
C829 C830 1.334 . S
C830 H801 0.950 . S
C830 C829 1.334 . S
C830 C831 1.287 . S
C831 C830 1.287 . S
C831 C832 1.524 . S
C831 H834 0.999 . S
C832 H802 0.950 . S
C832 C831 1.524 . S
C832 C833 1.415 . S
C833 H803 0.950 . S
C833 C828 1.363 . S
C833 C832 1.415 . S
H834 C831 0.999 . S
H835 C816 0.913 . S
H836 C854 0.951 . S
H837 C856 0.951 . S
H838 C858 0.950 . S
H839 C859 0.950 . S
H840 C861 0.950 . S
H841 C864 0.950 . S
H842 C865 0.950 . S
H843 C867 0.950 . S
H844 C868 0.950 . S
H845 C869 0.951 . S
H846 C871 0.951 . S
H847 C873 0.950 . S
H848 C874 0.950 . S
H849 C876 0.950 . S
H850 C879 0.950 . S
H851 C880 0.950 . S
H852 C882 0.950 . S
H853 C883 0.950 . S
C854 H836 0.951 . S
C854 C855 1.366 . S
C854 C856 1.388 1_554 S
C855 C854 1.366 . S
C855 C859 1.385 . S
C856 H837 0.951 . S
C856 C854 1.388 1_556 S
C856 C857 1.366 . S
C857 C856 1.366 . S
C857 C858 1.414 . S
C857 C860 1.499 . S
C858 H838 0.950 . S
C858 C857 1.414 . S
C858 C859 1.374 1_556 S
C859 H839 0.950 . S
C859 C855 1.385 . S
C859 C858 1.374 1_554 S
C860 C857 1.499 . S
C860 C861 1.373 . S
C860 C862 1.389 . S
C861 H840 0.950 . S
C861 C860 1.373 . S
C861 C877 1.377 . S
C862 C860 1.389 . S
C862 C863 1.524 . S
C862 C876 1.377 . S
C863 C862 1.524 . S
C863 C864 1.397 . S
C863 C868 1.363 . S
C864 H841 0.950 . S
C864 C863 1.397 . S
C864 C865 1.334 . S
C865 H842 0.950 . S
C865 C864 1.334 . S
C865 C866 1.287 . S
C866 C865 1.287 . S
C866 C867 1.524 . S
C866 H885 0.913 . S
C867 H843 0.950 . S
C867 C866 1.524 . S
C867 C868 1.415 . S
C868 H844 0.950 . S
C868 C863 1.363 . S
C868 C867 1.415 . S
C869 H845 0.951 . S
C869 C870 1.366 . S
C869 C871 1.388 . S
C870 C869 1.366 . S
C870 C874 1.385 . S
C871 H846 0.951 . S
C871 C869 1.388 . S
C871 C872 1.366 . S
C872 C871 1.366 . S
C872 C873 1.414 . S
C872 C875 1.499 . S
C873 H847 0.950 . S
C873 C872 1.414 . S
C873 C874 1.374 . S
C874 H848 0.950 . S
C874 C870 1.385 . S
C874 C873 1.374 . S
C875 C872 1.499 . S
C875 C876 1.373 . S
C875 C877 1.389 . S
C876 H849 0.950 . S
C876 C862 1.377 . S
C876 C875 1.373 . S
C877 C861 1.377 . S
C877 C875 1.389 . S
C877 C878 1.524 . S
C878 C877 1.524 . S
C878 C879 1.397 . S
C878 C883 1.363 . S
C879 H850 0.950 . S
C879 C878 1.397 . S
C879 C880 1.334 . S
C880 H851 0.950 . S
C880 C879 1.334 . S
C880 C881 1.287 . S
C881 C880 1.287 . S
C881 C882 1.524 . S
C881 H884 0.999 . S
C882 H852 0.950 . S
C882 C881 1.524 . S
C882 C883 1.415 . S
C883 H853 0.950 . S
C883 C878 1.363 . S
C883 C882 1.415 . S
H884 C881 0.999 . S
H885 C866 0.913 . S
H886 C904 0.951 . S
H887 C906 0.951 . S
H888 C908 0.965 . S
H889 C909 0.955 . S
H890 C911 0.950 . S
H891 C914 0.950 . S
H892 C915 0.950 . S
H893 C917 0.950 . S
H894 C918 0.950 . S
H895 C919 0.951 . S
H896 C921 0.951 . S
H897 C923 0.950 . S
H898 C924 0.950 . S
H899 C926 0.950 . S
H900 C929 0.950 . S
H901 C930 0.950 . S
H902 C932 0.950 . S
H903 C933 0.950 . S
C904 H886 0.951 . S
C904 C905 1.366 . S
C904 C906 1.388 . S
C905 C904 1.366 . S
C905 C909 1.385 . S
C906 H887 0.951 . S
C906 C904 1.388 . S
C906 C907 1.366 . S
C907 C906 1.366 . S
C907 C908 1.411 1_655 S
C907 C910 1.499 1_655 S
C908 H888 0.965 . S
C908 C907 1.411 1_455 S
C908 C909 1.363 1_455 S
C909 H889 0.955 . S
C909 C905 1.385 . S
C909 C908 1.363 1_655 S
C910 C907 1.499 1_455 S
C910 C911 1.373 . S
C910 C912 1.389 1_455 S
C911 H890 0.950 . S
C911 C910 1.373 . S
C911 C927 1.377 . S
C912 C910 1.389 1_655 S
C912 C913 1.524 . S
C912 C926 1.377 . S
C913 C912 1.524 . S
C913 C914 1.397 . S
C913 C918 1.363 . S
C914 H891 0.950 . S
C914 C913 1.397 . S
C914 C915 1.334 . S
C915 H892 0.950 . S
C915 C914 1.334 . S
C915 C916 1.287 . S
C916 C915 1.287 . S
C916 C917 1.524 . S
C916 H935 0.913 . S
C917 H893 0.950 . S
C917 C916 1.524 . S
C917 C918 1.415 . S
C918 H894 0.950 . S
C918 C913 1.363 . S
C918 C917 1.415 . S
C919 H895 0.951 . S
C919 C920 1.366 . S
C919 C921 1.388 . S
C920 C919 1.366 . S
C920 C924 1.385 . S
C921 H896 0.951 . S
C921 C919 1.388 . S
C921 C922 1.366 . S
C922 C921 1.366 . S
C922 C923 1.414 . S
C922 C925 1.499 . S
C923 H897 0.950 . S
C923 C922 1.414 . S
C923 C924 1.374 . S
C924 H898 0.950 . S
C924 C920 1.385 . S
C924 C923 1.374 . S
C925 C922 1.499 . S
C925 C926 1.373 1_455 S
C925 C927 1.389 . S
C926 H899 0.950 . S
C926 C912 1.377 . S
C926 C925 1.373 1_655 S
C927 C911 1.377 . S
C927 C925 1.389 . S
C927 C928 1.524 . S
C928 C927 1.524 . S
C928 C929 1.397 . S
C928 C933 1.363 . S
C929 H900 0.950 . S
C929 C928 1.397 . S
C929 C930 1.334 . S
C930 H901 0.950 . S
C930 C929 1.334 . S
C930 C931 1.287 . S
C931 C930 1.287 . S
C931 C932 1.524 . S
C931 H934 0.999 . S
C932 H902 0.950 . S
C932 C931 1.524 . S
C932 C933 1.415 . S
C933 H903 0.950 . S
C933 C928 1.363 . S
C933 C932 1.415 . S
H934 C931 0.999 . S
H935 C916 0.913 . S
H936 C954 0.951 . S
H937 C956 0.951 . S
H938 C958 0.950 . S
H939 C959 0.950 . S
H940 C961 0.950 1_565 S
H941 C964 0.950 . S
H942 C965 0.950 . S
H943 C967 0.950 . S
H944 C968 0.950 . S
H945 C969 0.951 . S
H946 C971 0.951 . S
H947 C973 0.950 . S
H948 C974 0.950 . S
H949 C976 0.950 . S
H950 C979 0.950 . S
H951 C980 0.950 . S
H952 C982 0.950 . S
H953 C983 0.950 1_545 S
C954 H936 0.951 . S
C954 C955 1.366 . S
C954 C956 1.388 . S
C955 C954 1.366 . S
C955 C959 1.385 . S
C956 H937 0.951 . S
C956 C954 1.388 . S
C956 C957 1.366 . S
C957 C956 1.366 . S
C957 C958 1.414 . S
C957 C960 1.499 . S
C958 H938 0.950 . S
C958 C957 1.414 . S
C958 C959 1.374 . S
C959 H939 0.950 . S
C959 C955 1.385 . S
C959 C958 1.374 . S
C960 C957 1.499 . S
C960 C961 1.373 . S
C960 C962 1.389 . S
C961 H940 0.950 1_545 S
C961 C960 1.373 . S
C961 C977 1.377 . S
C962 C960 1.389 . S
C962 C963 1.524 . S
C962 C976 1.377 . S
C963 C962 1.524 . S
C963 C964 1.397 . S
C963 C968 1.363 . S
C964 H941 0.950 . S
C964 C963 1.397 . S
C964 C965 1.334 . S
C965 H942 0.950 . S
C965 C964 1.334 . S
C965 C966 1.287 . S
C966 C965 1.287 . S
C966 C967 1.524 . S
C966 H985 0.913 . S
C967 H943 0.950 . S
C967 C966 1.524 . S
C967 C968 1.415 . S
C968 H944 0.950 . S
C968 C963 1.363 . S
C968 C967 1.415 . S
C969 H945 0.951 . S
C969 C970 1.366 . S
C969 C971 1.388 . S
C970 C969 1.366 . S
C970 C974 1.385 . S
C971 H946 0.951 . S
C971 C969 1.388 . S
C971 C972 1.366 . S
C972 C971 1.366 . S
C972 C973 1.414 . S
C972 C975 1.499 . S
C973 H947 0.950 . S
C973 C972 1.414 . S
C973 C974 1.374 . S
C974 H948 0.950 . S
C974 C970 1.385 . S
C974 C973 1.374 . S
C975 C972 1.499 . S
C975 C976 1.373 . S
C975 C977 1.389 . S
C976 H949 0.950 . S
C976 C962 1.377 . S
C976 C975 1.373 . S
C977 C961 1.377 . S
C977 C975 1.389 . S
C977 C978 1.524 1_545 S
C978 C977 1.524 1_565 S
C978 C979 1.397 . S
C978 C983 1.363 . S
C979 H950 0.950 . S
C979 C978 1.397 . S
C979 C980 1.334 . S
C980 H951 0.950 . S
C980 C979 1.334 . S
C980 C981 1.287 . S
C981 C980 1.287 . S
C981 C982 1.524 . S
C981 H984 0.999 . S
C982 H952 0.950 . S
C982 C981 1.524 . S
C982 C983 1.415 . S
C983 H953 0.950 1_565 S
C983 C978 1.363 . S
C983 C982 1.415 . S
H984 C981 0.999 . S
H985 C966 0.913 . S
H986 C1004 0.951 . S
H987 C1006 0.951 . S
H988 C1008 0.950 . S
H989 C1009 0.950 . S
H990 C1011 0.950 . S
H991 C1014 0.950 . S
H992 C1015 0.950 . S
H993 C1017 0.932 1_554 S
H994 C1018 0.950 . S
H995 C1019 0.951 . S
H996 C1021 0.951 . S
H997 C1023 0.950 . S
H998 C1024 0.950 . S
H999 C1026 0.950 . S
H1000 C1029 0.950 . S
H1001 C1030 0.950 . S
H1002 C1032 0.950 . S
H1003 C1033 0.950 . S
C1004 H986 0.951 . S
C1004 C1005 1.366 . S
C1004 C1006 1.388 . S
C1005 C1004 1.366 . S
C1005 C1009 1.385 . S
C1006 H987 0.951 . S
C1006 C1004 1.388 . S
C1006 C1007 1.366 1_554 S
C1007 C1006 1.366 1_556 S
C1007 C1008 1.414 . S
C1007 C1010 1.499 . S
C1008 H988 0.950 . S
C1008 C1007 1.414 . S
C1008 C1009 1.374 1_556 S
C1009 H989 0.950 . S
C1009 C1005 1.385 . S
C1009 C1008 1.374 1_554 S
C1010 C1007 1.499 . S
C1010 C1011 1.373 . S
C1010 C1012 1.389 . S
C1011 H990 0.950 . S
C1011 C1010 1.373 . S
C1011 C1027 1.377 . S
C1012 C1010 1.389 . S
C1012 C1013 1.524 . S
C1012 C1026 1.377 . S
C1013 C1012 1.524 . S
C1013 C1014 1.397 . S
C1013 C1018 1.363 . S
C1014 H991 0.950 . S
C1014 C1013 1.397 . S
C1014 C1015 1.334 . S
C1015 H992 0.950 . S
C1015 C1014 1.334 . S
C1015 C1016 1.287 . S
C1016 C1015 1.287 . S
C1016 C1017 1.524 . S
C1016 H1035 0.913 . S
C1017 H993 0.932 1_556 S
C1017 C1016 1.524 . S
C1017 C1018 1.415 . S
C1018 H994 0.950 . S
C1018 C1013 1.363 . S
C1018 C1017 1.415 . S
C1019 H995 0.951 . S
C1019 C1020 1.366 . S
C1019 C1021 1.388 . S
C1020 C1019 1.366 . S
C1020 C1024 1.385 . S
C1021 H996 0.951 . S
C1021 C1019 1.388 . S
C1021 C1022 1.366 . S
C1022 C1021 1.366 . S
C1022 C1023 1.414 . S
C1022 C1025 1.499 . S
C1023 H997 0.950 . S
C1023 C1022 1.414 . S
C1023 C1024 1.374 . S
C1024 H998 0.950 . S
C1024 C1020 1.385 . S
C1024 C1023 1.374 . S
C1025 C1022 1.499 . S
C1025 C1026 1.373 . S
C1025 C1027 1.389 . S
C1026 H999 0.950 . S
C1026 C1012 1.377 . S
C1026 C1025 1.373 . S
C1027 C1011 1.377 . S
C1027 C1025 1.389 . S
C1027 C1028 1.524 . S
C1028 C1027 1.524 . S
C1028 C1029 1.397 . S
C1028 C1033 1.363 . S
C1029 H1000 0.950 . S
C1029 C1028 1.397 . S
C1029 C1030 1.334 . S
C1030 H1001 0.950 . S
C1030 C1029 1.334 . S
C1030 C1031 1.287 . S
C1031 C1030 1.287 . S
C1031 C1032 1.524 . S
C1031 H1034 0.999 . S
C1032 H1002 0.950 . S
C1032 C1031 1.524 . S
C1032 C1033 1.415 . S
C1033 H1003 0.950 . S
C1033 C1028 1.363 . S
C1033 C1032 1.415 . S
H1034 C1031 0.999 . S
H1035 C1016 0.913 . S
H1036 C1054 0.951 . S
H1037 C1056 0.951 . S
H1038 C1058 0.950 . S
H1039 C1059 0.950 . S
H1040 C1061 0.950 . S
H1041 C1064 0.950 . S
H1042 C1065 0.950 . S
H1043 C1067 0.950 . S
H1044 C1068 0.950 . S
H1045 C1069 0.951 . S
H1046 C1071 0.951 . S
H1047 C1073 0.950 . S
H1048 C1074 0.950 1_655 S
H1049 C1076 0.950 . S
H1050 C1079 0.950 . S
H1051 C1080 0.950 . S
H1052 C1082 0.950 . S
H1053 C1083 0.950 . S
C1054 H1036 0.951 . S
C1054 C1055 1.366 . S
C1054 C1056 1.388 . S
C1055 C1054 1.366 . S
C1055 C1059 1.385 . S
C1056 H1037 0.951 . S
C1056 C1054 1.388 . S
C1056 C1057 1.366 . S
C1057 C1056 1.366 . S
C1057 C1058 1.414 . S
C1057 C1060 1.499 . S
C1058 H1038 0.950 . S
C1058 C1057 1.414 . S
C1058 C1059 1.374 . S
C1059 H1039 0.950 . S
C1059 C1055 1.385 . S
C1059 C1058 1.374 . S
C1060 C1057 1.499 . S
C1060 C1061 1.373 . S
C1060 C1062 1.389 . S
C1061 H1040 0.950 . S
C1061 C1060 1.373 . S
C1061 C1077 1.377 . S
C1062 C1060 1.389 . S
C1062 C1063 1.524 . S
C1062 C1076 1.377 . S
C1063 C1062 1.524 . S
C1063 C1064 1.397 . S
C1063 C1068 1.363 1_455 S
C1064 H1041 0.950 . S
C1064 C1063 1.397 . S
C1064 C1065 1.334 . S
C1065 H1042 0.950 . S
C1065 C1064 1.334 . S
C1065 C1066 1.287 1_455 S
C1066 C1065 1.287 1_655 S
C1066 C1067 1.524 . S
C1066 H1085 0.913 . S
C1067 H1043 0.950 . S
C1067 C1066 1.524 . S
C1067 C1068 1.415 . S
C1068 H1044 0.950 . S
C1068 C1063 1.363 1_655 S
C1068 C1067 1.415 . S
C1069 H1045 0.951 . S
C1069 C1070 1.366 . S
C1069 C1071 1.388 . S
C1070 C1069 1.366 . S
C1070 C1074 1.385 . S
C1071 H1046 0.951 . S
C1071 C1069 1.388 . S
C1071 C1072 1.366 . S
C1072 C1071 1.366 . S
C1072 C1073 1.414 . S
C1072 C1075 1.499 . S
C1073 H1047 0.950 . S
C1073 C1072 1.414 . S
C1073 C1074 1.374 . S
C1074 H1048 0.950 1_455 S
C1074 C1070 1.385 . S
C1074 C1073 1.374 . S
C1075 C1072 1.499 . S
C1075 C1076 1.373 . S
C1075 C1077 1.389 . S
C1076 H1049 0.950 . S
C1076 C1062 1.377 . S
C1076 C1075 1.373 . S
C1077 C1061 1.377 . S
C1077 C1075 1.389 . S
C1077 C1078 1.524 . S
C1078 C1077 1.524 . S
C1078 C1079 1.397 . S
C1078 C1083 1.363 . S
C1079 H1050 0.950 . S
C1079 C1078 1.397 . S
C1079 C1080 1.334 . S
C1080 H1051 0.950 . S
C1080 C1079 1.334 . S
C1080 C1081 1.287 . S
C1081 C1080 1.287 . S
C1081 C1082 1.524 . S
C1081 H1084 0.999 . S
C1082 H1052 0.950 . S
C1082 C1081 1.524 . S
C1082 C1083 1.415 . S
C1083 H1053 0.950 . S
C1083 C1078 1.363 . S
C1083 C1082 1.415 . S
H1084 C1081 0.999 . S
H1085 C1066 0.913 . S
C520 C303 1.248 . S
C505 C29 1.291 . S
C555 C137 1.284 . S
C570 C377 1.249 . S
C605 C225 2.197 . S
C620 C481 2.216 . S
C655 C49 0.510 . S
C670 C315 0.497 . S
C720 C389 0.450 . S
C705 C117 0.457 . S
C755 C205 1.210 . S
C770 C475 1.163 . S
C820 C407 2.225 . S
C805 C233 2.206 . S
C855 C57 1.301 . S
C870 C451 1.257 . S
C920 C327 1.217 . S
C905 C108 1.259 . S
C970 C401 1.175 . S
C955 C196 1.222 . S
C1020 C463 0.504 . S
C1005 C20 0.518 . S
C1055 C145 2.226 . S
C1070 C333 2.240 . S
