# Generated by pormake.
# Topology rtl, (3,6)-cn, num edge types: 1
# Building blocks:
#     Node 0, Type 0, BuildingBlock: ESEHIV_clean_linker_0, # of connection points: 3
#     Node 1, Type 0, BuildingBlock: ESEHIV_clean_linker_0, # of connection points: 3
#     Node 2, Type 0, BuildingBlock: ESEHIV_clean_linker_0, # of connection points: 3
#     Node 3, Type 0, BuildingBlock: ESEHIV_clean_linker_0, # of connection points: 3
#     Node 4, Type 1, BuildingBlock: CIFDUS_clean_sbu_1, # of connection points: 6
#     Node 5, Type 1, BuildingBlock: CIFDUS_clean_sbu_1, # of connection points: 6
#     Edge 6, Type (0, 1), BuildingBlock: UVAHIK_clean_linker_0, # of connection points: 2
#     Edge 7, Type (0, 1), BuildingBlock: UVAHIK_clean_linker_0, # of connection points: 2
#     Edge 8, Type (0, 1), BuildingBlock: UVAHIK_clean_linker_0, # of connection points: 2
#     Edge 9, Type (0, 1), BuildingBlock: UVAHIK_clean_linker_0, # of connection points: 2
#     Edge 10, Type (0, 1), BuildingBlock: UVAHIK_clean_linker_0, # of connection points: 2
#     Edge 11, Type (0, 1), BuildingBlock: UVAHIK_clean_linker_0, # of connection points: 2
#     Edge 12, Type (0, 1), BuildingBlock: UVAHIK_clean_linker_0, # of connection points: 2
#     Edge 13, Type (0, 1), BuildingBlock: UVAHIK_clean_linker_0, # of connection points: 2
#     Edge 14, Type (0, 1), BuildingBlock: UVAHIK_clean_linker_0, # of connection points: 2
#     Edge 15, Type (0, 1), BuildingBlock: UVAHIK_clean_linker_0, # of connection points: 2
#     Edge 16, Type (0, 1), BuildingBlock: UVAHIK_clean_linker_0, # of connection points: 2
#     Edge 17, Type (0, 1), BuildingBlock: UVAHIK_clean_linker_0, # of connection points: 2
# Relax obj value: 0.028
# Max RMSD: 0.063
# Mean RMSD: 0.047
data_MOF--net-rtl--node1-CIFDUS_clean_sbu_1--node2-ESEHIV_clean_linker_0--edge1-UVAHIK_clean_linker_0
_symmetry_space_group_name_H-M    P1
_symmetry_Int_Tables_number       1
_symmetry_cell_setting            triclinic
loop_
_symmetry_equiv_pos_as_xyz
'x, y, z'
_cell_length_a     38.045077
_cell_length_b     42.979719
_cell_length_c     30.108549
_cell_angle_alpha  90.005056
_cell_angle_beta   98.144792
_cell_angle_gamma 90.051469
loop_
_atom_site_label
_atom_site_type_symbol
_atom_site_fract_x
_atom_site_fract_y
_atom_site_fract_z
_atom_type_partial_charge
H0 H 0.18496 0.88697 0.06373 0.0
H1 H 0.25637 0.83234 0.15639 0.0
H2 H 0.25645 0.82208 0.01454 0.0
C3 C 0.20557 0.8695 0.07012 0.0
C4 C 0.21863 0.85528 0.03366 0.0
C5 C 0.21917 0.86169 0.11465 0.0
C6 C 0.24625 0.8393 0.12238 0.0
C7 C 0.26007 0.82529 0.08648 0.0
C8 C 0.24643 0.83357 0.04224 0.0
H9 H 0.65374 0.65085 0.56101 0.0
H10 H 0.71189 0.72475 0.50738 0.0
H11 H 0.72576 0.7079 0.64922 0.0
C12 C 0.6733 0.66931 0.56571 0.0
C13 C 0.6891 0.6769 0.60953 0.0
C14 C 0.68133 0.68616 0.52822 0.0
C15 C 0.7051 0.71142 0.53551 0.0
C16 C 0.721 0.71931 0.57906 0.0
C17 C 0.7133 0.70176 0.61573 0.0
H18 H 0.84103 0.14638 0.01044 0.0
H19 H 0.78055 0.21622 0.06949 0.0
H20 H 0.76854 0.20553 0.92661 0.0
C21 C 0.82099 0.16443 0.00722 0.0
C22 C 0.80542 0.17365 0.96403 0.0
C23 C 0.81229 0.1794 0.04595 0.0
C24 C 0.78782 0.20422 0.04049 0.0
C25 C 0.77215 0.21361 0.99755 0.0
C26 C 0.78065 0.19805 0.95965 0.0
H27 H 0.33375 0.37816 0.52505 0.0
H28 H 0.26397 0.30963 0.56971 0.0
H29 H 0.26707 0.32179 0.42899 0.0
C30 C 0.31422 0.35987 0.51746 0.0
C31 C 0.30213 0.35212 0.4724 0.0
C32 C 0.30105 0.3445 0.55299 0.0
C33 C 0.27431 0.3219 0.5429 0.0
C34 C 0.26192 0.31401 0.49818 0.0
C35 C 0.2761 0.32884 0.46327 0.0
O36 O 0.98089 0.03818 0.48739 0.0
Mn37 Mn 0.00601 0.0096 0.53927 0.0
O38 O 0.9441 0.00737 0.44144 0.0
Mn39 Mn 0.96169 0.97008 0.46605 0.0
O40 O 0.03149 0.98082 0.59093 0.0
O41 O 0.04224 0.04336 0.55398 0.0
Mn42 Mn 0.05242 0.04826 0.61235 0.0
O43 O 0.97401 0.02881 0.58352 0.0
O44 O 0.07146 0.01079 0.63381 0.0
O45 O 0.03854 0.99054 0.49533 0.0
O46 O 0.00458 0.95701 0.45046 0.0
O47 O 0.07949 0.07713 0.58702 0.0
O48 O 0.00981 0.05978 0.63084 0.0
C49 C 0.94622 0.95428 0.52751 0.0
C50 C 0.95676 0.03403 0.45332 0.0
C51 C 0.05759 0.98444 0.62282 0.0
C52 C 0.06385 0.06589 0.54951 0.0
C53 C 0.97936 0.0485 0.616 0.0
C54 C 0.03446 0.96947 0.46467 0.0
O55 O 0.9694 0.97589 0.52454 0.0
O56 O 0.93243 0.94239 0.48953 0.0
O57 O 0.52201 0.54501 0.08513 0.0
Mn58 Mn 0.49827 0.51174 0.03868 0.0
O59 O 0.56696 0.52099 0.12848 0.0
Mn60 Mn 0.55381 0.48119 0.10979 0.0
O61 O 0.47427 0.47811 0.99256 0.0
O62 O 0.45683 0.54057 0.02601 0.0
Mn63 Mn 0.43861 0.5392 0.96921 0.0
O64 O 0.52168 0.53257 0.98735 0.0
O65 O 0.42297 0.49889 0.95963 0.0
O66 O 0.47354 0.49091 0.08914 0.0
O67 O 0.51571 0.46414 0.13335 0.0
O68 O 0.41266 0.56853 0.99562 0.0
O69 O 0.47581 0.55101 0.93864 0.0
C70 C 0.56589 0.46377 0.04755 0.0
C71 C 0.54893 0.54525 0.11638 0.0
C72 C 0.44383 0.47585 0.96776 0.0
C73 C 0.43441 0.56217 0.03146 0.0
C74 C 0.50907 0.54637 0.95052 0.0
C75 C 0.48346 0.47214 0.12176 0.0
O76 O 0.54045 0.4831 0.05134 0.0
O77 O 0.58466 0.45586 0.08509 0.0
C78 C 0.19939 0.2949 0.49187 0.0
C79 C 0.23505 0.28931 0.48771 0.0
C80 C 0.17398 0.27143 0.48187 0.0
C81 C 0.1605 0.19158 0.43065 0.0
H82 H 0.08932 0.18577 0.51042 0.0
C83 C 0.10251 0.07992 0.49405 0.0
C84 C 0.06868 0.08119 0.50734 0.0
C85 C 0.11552 0.10525 0.47222 0.0
C86 C 0.10839 0.18735 0.48699 0.0
H87 H 0.27246 0.2554 0.46965 0.0
H88 H 0.22873 0.21378 0.45443 0.0
H89 H 0.12746 0.23102 0.51397 0.0
H90 H 0.02021 0.10784 0.5036 0.0
H91 H 0.04272 0.15212 0.46507 0.0
H92 H 0.14278 0.1464 0.40639 0.0
C93 C 0.21976 0.23642 0.46383 0.0
C94 C 0.13045 0.21344 0.48904 0.0
C95 C 0.24499 0.26009 0.47306 0.0
C96 C 0.04623 0.10618 0.49305 0.0
C97 C 0.05932 0.1317 0.47159 0.0
C98 C 0.13871 0.16517 0.42912 0.0
C99 C 0.18386 0.24165 0.46832 0.0
C100 C 0.15748 0.21563 0.46176 0.0
C101 C 0.09497 0.13236 0.46401 0.0
C102 C 0.11295 0.16248 0.45803 0.0
H103 H 0.1912 0.31749 0.50264 0.0
H104 H 0.1466 0.27668 0.48491 0.0
H105 H 0.18034 0.19268 0.40824 0.0
H106 H 0.12048 0.0611 0.5055 0.0
H107 H 0.14309 0.105 0.46689 0.0
C108 C 0.31994 0.80347 0.07849 0.0
C109 C 0.28753 0.80079 0.0953 0.0
C110 C 0.34546 0.77991 0.08615 0.0
C111 C 0.36697 0.70548 0.15086 0.0
H112 H 0.41776 0.68713 0.0512 0.0
C113 C 0.40586 0.58523 0.09193 0.0
C114 C 0.43613 0.58279 0.07047 0.0
C115 C 0.39801 0.61321 0.11204 0.0
C116 C 0.40451 0.69229 0.0799 0.0
H117 H 0.25622 0.77168 0.13331 0.0
H118 H 0.29955 0.72979 0.14461 0.0
H119 H 0.38246 0.734 0.04964 0.0
H120 H 0.48382 0.60617 0.05699 0.0
H121 H 0.47013 0.65526 0.092 0.0
H122 H 0.387 0.66193 0.17892 0.0
C123 C 0.30628 0.75045 0.12708 0.0
C124 C 0.38412 0.71933 0.07907 0.0
C125 C 0.28116 0.77432 0.12024 0.0
C126 C 0.46063 0.60737 0.07408 0.0
C127 C 0.45256 0.63556 0.09361 0.0
C128 C 0.38688 0.67804 0.15123 0.0
C129 C 0.33877 0.75273 0.10987 0.0
C130 C 0.36424 0.72599 0.11395 0.0
C131 C 0.42002 0.63931 0.11008 0.0
C132 C 0.40522 0.67086 0.11524 0.0
H133 H 0.32557 0.82389 0.05959 0.0
H134 H 0.37033 0.78302 0.07317 0.0
H135 H 0.35291 0.71009 0.179 0.0
H136 H 0.38627 0.56675 0.08872 0.0
H137 H 0.37269 0.6154 0.12429 0.0
C138 C 0.73166 0.77646 0.57515 0.0
C139 C 0.74478 0.74664 0.58657 0.0
C140 C 0.75374 0.8025 0.58281 0.0
C141 C 0.84345 0.82866 0.64 0.0
H142 H 0.82766 0.89445 0.5515 0.0
C143 C 0.9469 0.91375 0.58494 0.0
C144 C 0.93447 0.94296 0.56889 0.0
C145 C 0.9245 0.89348 0.60419 0.0
C146 C 0.83206 0.87665 0.57716 0.0
H147 H 0.79093 0.72034 0.61509 0.0
H148 H 0.83032 0.76547 0.62605 0.0
H149 H 0.78704 0.85097 0.54713 0.0
H150 H 0.89107 0.97565 0.56565 0.0
H151 H 0.8521 0.94059 0.59995 0.0
H152 H 0.89038 0.85387 0.66764 0.0
C153 C 0.80271 0.76919 0.6127 0.0
C154 C 0.80862 0.85154 0.57472 0.0
C155 C 0.78032 0.74321 0.60598 0.0
C156 C 0.90143 0.95339 0.57838 0.0
C157 C 0.87893 0.93312 0.59737 0.0
C158 C 0.8674 0.85364 0.64189 0.0
C159 C 0.7898 0.79928 0.60103 0.0
C160 C 0.81402 0.82695 0.6058 0.0
C161 C 0.88931 0.9022 0.60723 0.0
C162 C 0.86202 0.87781 0.61026 0.0
H163 H 0.70414 0.77965 0.56081 0.0
H164 H 0.74233 0.82517 0.57446 0.0
H165 H 0.8483 0.81057 0.66512 0.0
H166 H 0.97205 0.90501 0.57718 0.0
H167 H 0.93328 0.86982 0.61149 0.0
C168 C 0.76306 0.27088 4e-05 0.0
C169 C 0.74865 0.2411 0.99181 0.0
C170 C 0.74147 0.2972 0.99293 0.0
C171 C 0.6507 0.32411 0.94124 0.0
H172 H 0.67413 0.39314 0.02286 0.0
C173 C 0.55744 0.42026 0.99432 0.0
C174 C 0.57342 0.44914 0.00597 0.0
C175 C 0.57662 0.39685 0.97595 0.0
C176 C 0.66754 0.37434 -0.00085 0.0
H177 H 0.70077 0.21507 0.96951 0.0
H178 H 0.6623 0.2609 0.95954 0.0
H179 H 0.71199 0.34779 0.0286 0.0
H180 H 0.61935 0.47794 0.00153 0.0
H181 H 0.65244 0.43758 0.96841 0.0
H182 H 0.60452 0.35053 0.9142 0.0
C183 C 0.69044 0.26427 0.97007 0.0
C184 C 0.68939 0.34818 0.00237 0.0
C185 C 0.7123 0.23794 0.97629 0.0
C186 C 0.60632 0.45596 0.99236 0.0
C187 C 0.62548 0.43267 0.97406 0.0
C188 C 0.62834 0.35023 0.93863 0.0
C189 C 0.70469 0.29435 0.97839 0.0
C190 C 0.6814 0.32258 0.97356 0.0
C191 C 0.61192 0.40224 0.96913 0.0
C192 C 0.63663 0.37563 0.96757 0.0
H193 H 0.79121 0.2738 0.01126 0.0
H194 H 0.75383 0.31981 -0.00143 0.0
H195 H 0.6438 0.30515 0.91797 0.0
H196 H 0.53232 0.41431 0.0052 0.0
H197 H 0.56544 0.37365 0.97237 0.0
C198 C 0.16745 0.88097 0.15038 0.0
C199 C 0.20419 0.87596 0.15302 0.0
C200 C 0.15306 0.89288 0.18702 0.0
C201 C 0.17509 0.93344 0.29652 0.0
H202 H 0.08681 0.89559 0.31891 0.0
C203 C 0.06908 0.92777 0.43437 0.0
C204 C 0.06472 0.95954 0.44257 0.0
C205 C 0.09167 0.91796 0.40456 0.0
C206 C 0.11174 0.90618 0.3137 0.0
H207 H 0.25473 0.88071 0.19603 0.0
H208 H 0.22943 0.90063 0.2605 0.0
H209 H 0.11441 0.87837 0.2556 0.0
H210 H 0.08203 0.00602 0.42846 0.0
H211 H 0.12103 0.98897 0.3749 0.0
H212 H 0.17247 0.96088 0.35557 0.0
C213 C 0.2118 0.89564 0.22983 0.0
C214 C 0.12728 0.89663 0.27676 0.0
C215 C 0.22625 0.88383 0.19303 0.0
C216 C 0.08525 0.98135 0.42286 0.0
C217 C 0.10751 0.97153 0.39218 0.0
C218 C 0.15949 0.94299 0.33379 0.0
C219 C 0.17495 0.89989 0.22747 0.0
C220 C 0.15901 0.91023 0.26743 0.0
C221 C 0.10976 0.93976 0.38129 0.0
C222 C 0.1276 0.92941 0.34284 0.0
H223 H 0.14957 0.87494 0.12035 0.0
H224 H 0.12462 0.89635 0.1837 0.0
H225 H 0.19944 0.94454 0.29015 0.0
H226 H 0.05367 0.91054 0.4495 0.0
H227 H 0.09364 0.89327 0.39815 0.0
C228 C 0.67423 0.62728 0.6473 0.0
C229 C 0.67904 0.65973 0.64884 0.0
C230 C 0.66236 0.61151 0.68303 0.0
C231 C 0.64817 0.61945 0.80253 0.0
H232 H 0.57131 0.56121 0.76785 0.0
C233 C 0.57067 0.55541 0.93041 0.0
C234 C 0.5335 0.55682 0.91906 0.0
C235 C 0.59298 0.56504 0.8996 0.0
C236 C 0.59286 0.5773 0.77812 0.0
H237 H 0.67577 0.7009 0.68973 0.0
H238 H 0.65501 0.67346 0.75184 0.0
H239 H 0.60288 0.5836 0.71065 0.0
H240 H 0.49087 0.56945 0.86614 0.0
H241 H 0.52947 0.58592 0.81327 0.0
H242 H 0.63693 0.61391 0.86999 0.0
C243 C 0.66093 0.66009 0.72333 0.0
C244 C 0.61122 0.58993 0.74537 0.0
C245 C 0.67279 0.67586 0.68761 0.0
C246 C 0.51932 0.56797 0.87632 0.0
C247 C 0.54146 0.57723 0.84566 0.0
C248 C 0.62984 0.60666 0.83542 0.0
C249 C 0.65498 0.6278 0.72118 0.0
C250 C 0.63856 0.61171 0.75697 0.0
C251 C 0.57851 0.57579 0.85675 0.0
C252 C 0.60136 0.58608 0.82335 0.0
H253 H 0.67941 0.61407 0.61829 0.0
H254 H 0.65858 0.58656 0.68056 0.0
H255 H 0.6694 0.63586 0.81266 0.0
H256 H 0.58251 0.54692 0.96293 0.0
H257 H 0.62149 0.56365 0.90903 0.0
C258 C 0.83817 0.13806 0.10069 0.0
C259 C 0.82933 0.16949 0.09171 0.0
C260 C 0.85471 0.12877 0.14308 0.0
C261 C 0.86398 0.14783 0.26161 0.0
H262 H 0.94718 0.09475 0.27205 0.0
C263 C 0.90789 0.063 0.40768 0.0
C264 C 0.94426 0.06035 0.42376 0.0
C265 C 0.89606 0.08292 0.37202 0.0
C266 C 0.92427 0.10991 0.26978 0.0
H267 H 0.83151 0.21572 0.12129 0.0
H268 H 0.85884 0.19907 0.19575 0.0
H269 H 0.92213 0.11547 0.19863 0.0
H270 H -0.00325 0.07711 0.4163 0.0
H271 H 0.97609 0.11167 0.35291 0.0
H272 H 0.86512 0.14099 0.33246 0.0
C273 C 0.85311 0.1818 0.1695 0.0
C274 C 0.90976 0.12151 0.22773 0.0
C275 C 0.83716 0.19124 0.12681 0.0
C276 C 0.96853 0.07916 0.40499 0.0
C277 C 0.95674 0.09864 0.3685 0.0
C278 C 0.8781 0.13572 0.30357 0.0
C279 C 0.86228 0.1505 0.17795 0.0
C280 C 0.87919 0.14024 0.22311 0.0
C281 C 0.92045 0.10007 0.35095 0.0
C282 C 0.90816 0.11634 0.30799 0.0
H283 H 0.83194 0.1204 0.07515 0.0
H284 H 0.861 0.10439 0.14886 0.0
H285 H 0.84033 0.16212 0.25897 0.0
H286 H 0.88871 0.04851 0.42137 0.0
H287 H 0.86801 0.08332 0.35904 0.0
C288 C 0.35283 0.35589 0.61255 0.0
C289 C 0.31605 0.35155 0.60043 0.0
C290 C 0.36707 0.36306 0.65679 0.0
C291 C 0.34204 0.39766 0.75976 0.0
H292 H 0.43265 0.36494 0.81555 0.0
C293 C 0.39831 0.43778 0.93555 0.0
C294 C 0.43384 0.44762 0.94103 0.0
C295 C 0.38474 0.41896 0.89933 0.0
C296 C 0.40739 0.37437 0.80042 0.0
H297 H 0.26548 0.35101 0.62576 0.0
H298 H 0.29033 0.36321 0.70307 0.0
H299 H 0.4069 0.3467 0.74102 0.0
H300 H 0.48385 0.44359 0.9151 0.0
H301 H 0.46013 0.41103 0.85114 0.0
H302 H 0.34275 0.42596 0.81808 0.0
C303 C 0.30816 0.36133 0.67818 0.0
C304 C 0.39263 0.36394 0.75766 0.0
C305 C 0.29392 0.35407 0.63391 0.0
C306 C 0.45646 0.43594 0.91197 0.0
C307 C 0.44272 0.41742 0.87515 0.0
C308 C 0.35677 0.4081 0.8023 0.0
C309 C 0.3449 0.36614 0.69013 0.0
C310 C 0.35988 0.37567 0.73665 0.0
C311 C 0.40623 0.41008 0.86713 0.0
C312 C 0.38975 0.39677 0.8232 0.0
H313 H 0.37074 0.35366 0.58779 0.0
H314 H 0.3954 0.3669 0.66461 0.0
H315 H 0.31716 0.40768 0.74436 0.0
H316 H 0.38033 0.44652 0.95751 0.0
H317 H 0.35682 0.41296 0.8951 0.0
C318 C 0.65767 0.64595 0.47045 0.0
C319 C 0.66471 0.67737 0.48179 0.0
C320 C 0.64163 0.63759 0.42742 0.0
C321 C 0.62966 0.66195 0.3102 0.0
H322 H 0.55268 0.60193 0.29683 0.0
C323 C 0.5935 0.5809 0.15778 0.0
C324 C 0.55769 0.57329 0.14411 0.0
C325 C 0.6032 0.60103 0.19391 0.0
C326 C 0.57376 0.61908 0.29987 0.0
H327 H 0.66002 0.72457 0.45579 0.0
H328 H 0.63326 0.70968 0.38019 0.0
H329 H 0.57641 0.62122 0.3714 0.0
H330 H 0.50377 0.58187 0.15602 0.0
H331 H 0.5207 0.61707 0.21962 0.0
H332 H 0.62796 0.65877 0.23875 0.0
C333 C 0.64008 0.69165 0.40505 0.0
C334 C 0.5876 0.62986 0.34264 0.0
C335 C 0.65564 0.70011 0.44839 0.0
C336 C 0.5315 0.58785 0.16528 0.0
C337 C 0.54125 0.60763 0.20205 0.0
C338 C 0.61616 0.65079 0.26741 0.0
C339 C 0.63266 0.66031 0.39422 0.0
C340 C 0.61608 0.65102 0.34838 0.0
C341 C 0.5773 0.6135 0.21775 0.0
C342 C 0.58838 0.62889 0.26184 0.0
H343 H 0.66496 0.62761 0.49465 0.0
H344 H 0.6368 0.61318 0.41985 0.0
H345 H 0.65168 0.67818 0.3136 0.0
H346 H 0.61421 0.56969 0.1423 0.0
H347 H 0.63117 0.60487 0.2053 0.0
C348 C 0.82405 0.17801 0.88767 0.0
C349 C 0.81671 0.15919 0.92342 0.0
C350 C 0.8364 0.16489 0.85038 0.0
C351 C 0.84379 0.09209 0.78749 0.0
H352 H 0.92564 0.13319 0.75065 0.0
C353 C 0.93218 0.03825 0.66399 0.0
C354 C 0.94959 0.05898 0.63844 0.0
C355 C 0.91064 0.04965 0.6945 0.0
C356 C 0.90233 0.12169 0.75967 0.0
H357 H 0.81554 0.11169 0.94736 0.0
H358 H 0.83739 0.08869 0.88197 0.0
H359 H 0.8986 0.15439 0.81223 0.0
H360 H 0.95626 0.10732 0.6216 0.0
H361 H 0.91721 0.12718 0.67249 0.0
H362 H 0.84764 0.05932 0.7346 0.0
C363 C 0.83341 0.11362 0.88291 0.0
C364 C 0.88693 0.13383 0.79527 0.0
C365 C 0.82125 0.12681 0.92049 0.0
C366 C 0.94305 0.09095 0.64109 0.0
C367 C 0.92108 0.10228 0.67073 0.0
C368 C 0.85909 0.08001 0.75139 0.0
C369 C 0.84164 0.13261 0.84777 0.0
C370 C 0.85747 0.11927 0.80959 0.0
C371 C 0.90598 0.08195 0.69946 0.0
C372 C 0.88852 0.09476 0.73691 0.0
H373 H 0.82119 0.20305 0.88901 0.0
H374 H 0.8422 0.1801 0.82366 0.0
H375 H 0.82098 0.08045 0.79771 0.0
H376 H 0.93728 0.01348 0.66277 0.0
H377 H 0.89956 0.03328 0.71606 0.0
C378 C 0.29654 0.37352 0.39356 0.0
C379 C 0.31755 0.36745 0.43503 0.0
C380 C 0.31161 0.38615 0.35776 0.0
C381 C 0.39932 0.39525 0.31863 0.0
H382 H 0.34809 0.45064 0.23063 0.0
C383 C 0.43156 0.47868 0.16381 0.0
C384 C 0.45713 0.45947 0.14845 0.0
C385 C 0.41109 0.46755 0.19569 0.0
C386 C 0.36289 0.43538 0.25508 0.0
H387 H 0.37102 0.37076 0.47121 0.0
H388 H 0.39666 0.3942 0.41007 0.0
H389 H 0.32031 0.43324 0.2946 0.0
H390 H 0.47937 0.41307 0.15102 0.0
H391 H 0.4425 0.3931 0.20422 0.0
H392 H 0.44244 0.39839 0.28085 0.0
C393 C 0.3687 0.38834 0.40459 0.0
C394 C 0.34678 0.42508 0.29155 0.0
C395 C 0.35378 0.37533 0.44011 0.0
C396 C 0.46014 0.42846 0.16288 0.0
C397 C 0.43924 0.41715 0.19377 0.0
C398 C 0.41549 0.40579 0.28269 0.0
C399 C 0.34802 0.39337 0.36262 0.0
C400 C 0.36483 0.40485 0.32383 0.0
C401 C 0.41547 0.43685 0.21208 0.0
C402 C 0.39749 0.42581 0.25016 0.0
H403 H 0.2684 0.36833 0.38854 0.0
H404 H 0.29482 0.38948 0.32596 0.0
H405 H 0.41393 0.37927 0.34216 0.0
H406 H 0.42893 0.50277 0.15326 0.0
H407 H 0.39318 0.48346 0.20903 0.0
C408 C 0.22371 0.86732 0.95289 0.0
C409 C 0.20241 0.86253 0.9868 0.0
C410 C 0.20831 0.87493 0.90921 0.0
C411 C 0.12339 0.87383 0.8312 0.0
H412 H 0.16598 0.94219 0.77402 0.0
C413 C 0.0509 0.94338 0.67956 0.0
C414 C 0.07177 0.95795 0.65078 0.0
C415 C 0.06701 0.92578 0.71613 0.0
C416 C 0.15403 0.92259 0.78883 0.0
H417 H 0.1481 0.86088 0.00092 0.0
H418 H 0.12131 0.87448 0.92495 0.0
H419 H 0.19401 0.92345 0.84642 0.0
H420 H 0.12509 0.96367 0.635 0.0
H421 H 0.15301 0.93161 0.69685 0.0
H422 H 0.08312 0.87326 0.77361 0.0
C423 C 0.14991 0.87227 0.93204 0.0
C424 C 0.17015 0.91191 0.83062 0.0
C425 C 0.16531 0.86486 0.97574 0.0
C426 C 0.10846 0.95248 0.65669 0.0
C427 C 0.12447 0.93453 0.69261 0.0
C428 C 0.10731 0.88442 0.78911 0.0
C429 C 0.17122 0.8777 0.89832 0.0
C430 C 0.15491 0.8876 0.85256 0.0
C431 C 0.10424 0.92231 0.72422 0.0
C432 C 0.12229 0.90912 0.76748 0.0
H433 H 0.25236 0.8658 0.96031 0.0
H434 H 0.22548 0.8787 0.88393 0.0
H435 H 0.11115 0.85483 0.84701 0.0
H436 H 0.0226 0.94778 0.67608 0.0
H437 H 0.05051 0.91686 0.73974 0.0
loop_
_geom_bond_atom_site_label_1
_geom_bond_atom_site_label_2
_geom_bond_distance
_geom_bond_site_symmetry_2
_ccdc_geom_bond_type
H0 C3 0.931 . S
H1 C6 0.928 . S
H2 C8 0.930 . S
C3 H0 0.931 . S
C3 C4 1.413 . S
C3 C5 1.360 . S
C4 C3 1.413 . S
C4 C8 1.429 . S
C5 C3 1.360 . S
C5 C6 1.372 . S
C6 H1 0.928 . S
C6 C5 1.372 . S
C6 C7 1.404 . S
C7 C6 1.404 . S
C7 C8 1.391 . S
C8 H2 0.930 . S
C8 C4 1.429 . S
C8 C7 1.391 . S
H9 C12 0.931 . S
H10 C15 0.928 . S
H11 C17 0.930 . S
C12 H9 0.931 . S
C12 C13 1.413 . S
C12 C14 1.360 . S
C13 C12 1.413 . S
C13 C17 1.429 . S
C14 C12 1.360 . S
C14 C15 1.372 . S
C15 H10 0.928 . S
C15 C14 1.372 . S
C15 C16 1.404 . S
C16 C15 1.404 . S
C16 C17 1.391 . S
C17 H11 0.930 . S
C17 C13 1.429 . S
C17 C16 1.391 . S
H18 C21 0.931 . S
H19 C24 0.928 . S
H20 C26 0.930 . S
C21 H18 0.931 . S
C21 C22 1.413 1_554 S
C21 C23 1.360 . S
C22 C21 1.413 1_556 S
C22 C26 1.429 . S
C23 C21 1.360 . S
C23 C24 1.372 . S
C24 H19 0.928 . S
C24 C23 1.372 . S
C24 C25 1.389 1_554 S
C25 C24 1.389 1_556 S
C25 C26 1.406 . S
C26 H20 0.930 . S
C26 C22 1.429 . S
C26 C25 1.406 . S
H27 C30 0.931 . S
H28 C33 0.928 . S
H29 C35 0.930 . S
C30 H27 0.931 . S
C30 C31 1.413 . S
C30 C32 1.360 . S
C31 C30 1.413 . S
C31 C35 1.429 . S
C32 C30 1.360 . S
C32 C33 1.372 . S
C33 H28 0.928 . S
C33 C32 1.372 . S
C33 C34 1.404 . S
C34 C33 1.404 . S
C34 C35 1.391 . S
C35 H29 0.930 . S
C35 C31 1.429 . S
C35 C34 1.391 . S
O36 Mn37 2.163 1_655 S
O36 C50 1.244 . S
Mn37 O36 2.163 1_455 S
Mn37 O40 2.160 1_545 S
Mn37 O41 2.221 . S
Mn37 O43 2.163 1_455 S
Mn37 O45 2.160 1_545 S
Mn37 O55 2.221 1_445 S
O38 Mn39 2.087 1_545 S
O38 C50 1.256 . S
Mn39 O38 2.087 1_565 S
Mn39 O46 2.089 1_655 S
Mn39 O55 2.290 . S
Mn39 O56 2.251 . S
O40 Mn37 2.160 1_565 S
O40 C51 1.239 . S
O41 Mn37 2.221 . S
O41 Mn42 2.290 . S
O41 C52 1.278 . S
Mn42 O41 2.290 . S
Mn42 O44 2.089 . S
Mn42 O47 2.251 . S
Mn42 O48 2.087 1_455 S
O43 Mn37 2.163 1_655 S
O43 C53 1.244 . S
O44 Mn42 2.089 . S
O44 C51 1.256 1_545 S
O45 Mn37 2.160 1_565 S
O45 C54 1.239 . S
O46 Mn39 2.089 1_455 S
O46 C54 1.256 . S
O47 Mn42 2.251 . S
O47 C52 1.241 . S
O48 Mn42 2.087 1_655 S
O48 C53 1.256 . S
C49 O55 1.278 . S
C49 O56 1.241 . S
C50 O36 1.244 . S
C50 O38 1.256 . S
C51 O40 1.239 . S
C51 O44 1.256 1_565 S
C52 O41 1.278 . S
C52 O47 1.241 . S
C53 O43 1.244 . S
C53 O48 1.256 . S
C54 O45 1.239 . S
C54 O46 1.256 . S
O55 Mn37 2.221 1_665 S
O55 Mn39 2.290 . S
O55 C49 1.278 . S
O56 Mn39 2.251 . S
O56 C49 1.241 . S
O57 Mn58 2.163 . S
O57 C71 1.244 . S
Mn58 O57 2.163 . S
Mn58 O61 2.160 1_554 S
Mn58 O62 2.221 . S
Mn58 O64 2.163 1_554 S
Mn58 O66 2.160 . S
Mn58 O76 2.221 . S
O59 Mn60 2.087 . S
O59 C71 1.256 . S
Mn60 O59 2.087 . S
Mn60 O67 2.089 . S
Mn60 O76 2.290 . S
Mn60 O77 2.251 . S
O61 Mn58 2.160 1_556 S
O61 C72 1.239 . S
O62 Mn58 2.221 . S
O62 Mn63 2.290 1_554 S
O62 C73 1.278 . S
Mn63 O62 2.290 1_556 S
Mn63 O65 2.089 . S
Mn63 O68 2.251 1_556 S
Mn63 O69 2.087 . S
O64 Mn58 2.163 1_556 S
O64 C74 1.244 . S
O65 Mn63 2.089 . S
O65 C72 1.256 . S
O66 Mn58 2.160 . S
O66 C75 1.239 . S
O67 Mn60 2.089 . S
O67 C75 1.256 . S
O68 Mn63 2.251 1_554 S
O68 C73 1.241 . S
O69 Mn63 2.087 . S
O69 C74 1.256 . S
C70 O76 1.278 . S
C70 O77 1.241 . S
C71 O57 1.244 . S
C71 O59 1.256 . S
C72 O61 1.239 . S
C72 O65 1.256 . S
C73 O62 1.278 . S
C73 O68 1.241 . S
C74 O64 1.244 . S
C74 O69 1.256 . S
C75 O66 1.239 . S
C75 O67 1.256 . S
O76 Mn58 2.221 . S
O76 Mn60 2.290 . S
O76 C70 1.278 . S
O77 Mn60 2.251 . S
O77 C70 1.241 . S
C78 C79 1.349 . S
C78 C80 1.327 . S
C78 H103 0.950 . S
C79 C78 1.349 . S
C79 C95 1.349 . S
C80 C78 1.327 . S
C80 C99 1.429 . S
C80 H104 0.950 . S
C81 C98 1.574 . S
C81 C100 1.368 . S
C81 H105 0.949 . S
H82 C86 0.949 . S
C83 C84 1.349 . S
C83 C85 1.327 . S
C83 H106 0.950 . S
C84 C83 1.349 . S
C84 C96 1.349 . S
C85 C83 1.327 . S
C85 C101 1.429 . S
C85 H107 0.950 . S
C86 H82 0.949 . S
C86 C94 1.574 . S
C86 C102 1.368 . S
H87 C95 0.950 . S
H88 C93 0.950 . S
H89 C94 0.949 . S
H90 C96 0.950 . S
H91 C97 0.950 . S
H92 C98 0.949 . S
C93 H88 0.950 . S
C93 C95 1.327 . S
C93 C99 1.429 . S
C94 C86 1.574 . S
C94 H89 0.949 . S
C94 C100 1.368 . S
C95 C79 1.349 . S
C95 H87 0.950 . S
C95 C93 1.327 . S
C96 C84 1.349 . S
C96 H90 0.950 . S
C96 C97 1.327 . S
C97 H91 0.950 . S
C97 C96 1.327 . S
C97 C101 1.429 . S
C98 C81 1.574 . S
C98 H92 0.949 . S
C98 C102 1.368 . S
C99 C80 1.429 . S
C99 C93 1.429 . S
C99 C100 1.523 . S
C100 C81 1.368 . S
C100 C94 1.368 . S
C100 C99 1.523 . S
C101 C85 1.429 . S
C101 C97 1.429 . S
C101 C102 1.523 . S
C102 C86 1.368 . S
C102 C98 1.368 . S
C102 C101 1.523 . S
H103 C78 0.950 . S
H104 C80 0.950 . S
H105 C81 0.949 . S
H106 C83 0.950 . S
H107 C85 0.950 . S
C108 C109 1.349 . S
C108 C110 1.327 . S
C108 H133 0.950 . S
C109 C108 1.349 . S
C109 C125 1.349 . S
C110 C108 1.327 . S
C110 C129 1.429 . S
C110 H134 0.950 . S
C111 C128 1.574 . S
C111 C130 1.368 . S
C111 H135 0.949 . S
H112 C116 0.949 . S
C113 C114 1.349 . S
C113 C115 1.327 . S
C113 H136 0.950 . S
C114 C113 1.349 . S
C114 C126 1.349 . S
C115 C113 1.327 . S
C115 C131 1.429 . S
C115 H137 0.950 . S
C116 H112 0.949 . S
C116 C124 1.574 . S
C116 C132 1.368 . S
H117 C125 0.950 . S
H118 C123 0.950 . S
H119 C124 0.949 . S
H120 C126 0.950 . S
H121 C127 0.950 . S
H122 C128 0.949 . S
C123 H118 0.950 . S
C123 C125 1.327 . S
C123 C129 1.429 . S
C124 C116 1.574 . S
C124 H119 0.949 . S
C124 C130 1.368 . S
C125 C109 1.349 . S
C125 H117 0.950 . S
C125 C123 1.327 . S
C126 C114 1.349 . S
C126 H120 0.950 . S
C126 C127 1.327 . S
C127 H121 0.950 . S
C127 C126 1.327 . S
C127 C131 1.429 . S
C128 C111 1.574 . S
C128 H122 0.949 . S
C128 C132 1.368 . S
C129 C110 1.429 . S
C129 C123 1.429 . S
C129 C130 1.523 . S
C130 C111 1.368 . S
C130 C124 1.368 . S
C130 C129 1.523 . S
C131 C115 1.429 . S
C131 C127 1.429 . S
C131 C132 1.523 . S
C132 C116 1.368 . S
C132 C128 1.368 . S
C132 C131 1.523 . S
H133 C108 0.950 . S
H134 C110 0.950 . S
H135 C111 0.949 . S
H136 C113 0.950 . S
H137 C115 0.950 . S
C138 C139 1.349 . S
C138 C140 1.327 . S
C138 H163 0.950 . S
C139 C138 1.349 . S
C139 C155 1.349 . S
C140 C138 1.327 . S
C140 C159 1.429 . S
C140 H164 0.950 . S
C141 C158 1.574 . S
C141 C160 1.368 . S
C141 H165 0.949 . S
H142 C146 0.949 . S
C143 C144 1.349 . S
C143 C145 1.327 . S
C143 H166 0.950 . S
C144 C143 1.349 . S
C144 C156 1.349 . S
C145 C143 1.327 . S
C145 C161 1.429 . S
C145 H167 0.950 . S
C146 H142 0.949 . S
C146 C154 1.574 . S
C146 C162 1.368 . S
H147 C155 0.950 . S
H148 C153 0.950 . S
H149 C154 0.949 . S
H150 C156 0.950 . S
H151 C157 0.950 . S
H152 C158 0.949 . S
C153 H148 0.950 . S
C153 C155 1.327 . S
C153 C159 1.429 . S
C154 C146 1.574 . S
C154 H149 0.949 . S
C154 C160 1.368 . S
C155 C139 1.349 . S
C155 H147 0.950 . S
C155 C153 1.327 . S
C156 C144 1.349 . S
C156 H150 0.950 . S
C156 C157 1.327 . S
C157 H151 0.950 . S
C157 C156 1.327 . S
C157 C161 1.429 . S
C158 C141 1.574 . S
C158 H152 0.949 . S
C158 C162 1.368 . S
C159 C140 1.429 . S
C159 C153 1.429 . S
C159 C160 1.523 . S
C160 C141 1.368 . S
C160 C154 1.368 . S
C160 C159 1.523 . S
C161 C145 1.429 . S
C161 C157 1.429 . S
C161 C162 1.523 . S
C162 C146 1.368 . S
C162 C158 1.368 . S
C162 C161 1.523 . S
H163 C138 0.950 . S
H164 C140 0.950 . S
H165 C141 0.949 . S
H166 C143 0.950 . S
H167 C145 0.950 . S
C168 C169 1.346 1_554 S
C168 C170 1.327 . S
C168 H193 0.950 . S
C169 C168 1.346 1_556 S
C169 C185 1.352 . S
C170 C168 1.327 . S
C170 C189 1.429 . S
C170 H194 0.950 . S
C171 C188 1.574 . S
C171 C190 1.368 1_556 S
C171 H195 0.949 . S
H172 C176 0.949 . S
C173 C174 1.349 1_556 S
C173 C175 1.327 . S
C173 H196 0.950 . S
C174 C173 1.349 1_554 S
C174 C186 1.349 . S
C175 C173 1.327 . S
C175 C191 1.429 1_556 S
C175 H197 0.950 . S
C176 H172 0.949 . S
C176 C184 1.574 . S
C176 C192 1.368 . S
H177 C185 0.950 . S
H178 C183 0.950 . S
H179 C184 0.949 . S
H180 C186 0.950 . S
H181 C187 0.950 . S
H182 C188 0.949 . S
C183 H178 0.950 . S
C183 C185 1.327 . S
C183 C189 1.429 1_556 S
C184 C176 1.574 . S
C184 H179 0.949 . S
C184 C190 1.368 . S
C185 C169 1.352 . S
C185 H177 0.950 . S
C185 C183 1.327 . S
C186 C174 1.349 . S
C186 H180 0.950 . S
C186 C187 1.327 . S
C187 H181 0.950 . S
C187 C186 1.327 . S
C187 C191 1.429 . S
C188 C171 1.574 . S
C188 H182 0.949 . S
C188 C192 1.368 1_556 S
C189 C170 1.429 . S
C189 C183 1.429 1_554 S
C189 C190 1.523 . S
C190 C171 1.368 1_554 S
C190 C184 1.368 . S
C190 C189 1.523 . S
C191 C175 1.429 1_554 S
C191 C187 1.429 . S
C191 C192 1.523 . S
C192 C176 1.368 . S
C192 C188 1.368 1_554 S
C192 C191 1.523 . S
H193 C168 0.950 . S
H194 C170 0.950 . S
H195 C171 0.949 . S
H196 C173 0.950 . S
H197 C175 0.950 . S
C198 C199 1.349 . S
C198 C200 1.327 . S
C198 H223 0.950 . S
C199 C198 1.349 . S
C199 C215 1.349 . S
C200 C198 1.327 . S
C200 C219 1.429 . S
C200 H224 0.950 . S
C201 C218 1.574 . S
C201 C220 1.368 . S
C201 H225 0.949 . S
H202 C206 0.949 . S
C203 C204 1.349 . S
C203 C205 1.327 . S
C203 H226 0.950 . S
C204 C203 1.349 . S
C204 C216 1.349 . S
C205 C203 1.327 . S
C205 C221 1.429 . S
C205 H227 0.950 . S
C206 H202 0.949 . S
C206 C214 1.574 . S
C206 C222 1.368 . S
H207 C215 0.950 . S
H208 C213 0.950 . S
H209 C214 0.949 . S
H210 C216 0.950 . S
H211 C217 0.950 . S
H212 C218 0.949 . S
C213 H208 0.950 . S
C213 C215 1.327 . S
C213 C219 1.429 . S
C214 C206 1.574 . S
C214 H209 0.949 . S
C214 C220 1.368 . S
C215 C199 1.349 . S
C215 H207 0.950 . S
C215 C213 1.327 . S
C216 C204 1.349 . S
C216 H210 0.950 . S
C216 C217 1.327 . S
C217 H211 0.950 . S
C217 C216 1.327 . S
C217 C221 1.429 . S
C218 C201 1.574 . S
C218 H212 0.949 . S
C218 C222 1.368 . S
C219 C200 1.429 . S
C219 C213 1.429 . S
C219 C220 1.523 . S
C220 C201 1.368 . S
C220 C214 1.368 . S
C220 C219 1.523 . S
C221 C205 1.429 . S
C221 C217 1.429 . S
C221 C222 1.523 . S
C222 C206 1.368 . S
C222 C218 1.368 . S
C222 C221 1.523 . S
H223 C198 0.950 . S
H224 C200 0.950 . S
H225 C201 0.949 . S
H226 C203 0.950 . S
H227 C205 0.950 . S
C228 C229 1.349 . S
C228 C230 1.327 . S
C228 H253 0.950 . S
C229 C228 1.349 . S
C229 C245 1.349 . S
C230 C228 1.327 . S
C230 C249 1.429 . S
C230 H254 0.950 . S
C231 C248 1.574 . S
C231 C250 1.368 . S
C231 H255 0.949 . S
H232 C236 0.949 . S
C233 C234 1.349 . S
C233 C235 1.327 . S
C233 H256 0.950 . S
C234 C233 1.349 . S
C234 C246 1.349 . S
C235 C233 1.327 . S
C235 C251 1.429 . S
C235 H257 0.950 . S
C236 H232 0.949 . S
C236 C244 1.574 . S
C236 C252 1.368 . S
H237 C245 0.950 . S
H238 C243 0.950 . S
H239 C244 0.949 . S
H240 C246 0.950 . S
H241 C247 0.950 . S
H242 C248 0.949 . S
C243 H238 0.950 . S
C243 C245 1.327 . S
C243 C249 1.429 . S
C244 C236 1.574 . S
C244 H239 0.949 . S
C244 C250 1.368 . S
C245 C229 1.349 . S
C245 H237 0.950 . S
C245 C243 1.327 . S
C246 C234 1.349 . S
C246 H240 0.950 . S
C246 C247 1.327 . S
C247 H241 0.950 . S
C247 C246 1.327 . S
C247 C251 1.429 . S
C248 C231 1.574 . S
C248 H242 0.949 . S
C248 C252 1.368 . S
C249 C230 1.429 . S
C249 C243 1.429 . S
C249 C250 1.523 . S
C250 C231 1.368 . S
C250 C244 1.368 . S
C250 C249 1.523 . S
C251 C235 1.429 . S
C251 C247 1.429 . S
C251 C252 1.523 . S
C252 C236 1.368 . S
C252 C248 1.368 . S
C252 C251 1.523 . S
H253 C228 0.950 . S
H254 C230 0.950 . S
H255 C231 0.949 . S
H256 C233 0.950 . S
H257 C235 0.950 . S
C258 C259 1.349 . S
C258 C260 1.327 . S
C258 H283 0.950 . S
C259 C258 1.349 . S
C259 C275 1.349 . S
C260 C258 1.327 . S
C260 C279 1.429 . S
C260 H284 0.950 . S
C261 C278 1.574 . S
C261 C280 1.368 . S
C261 H285 0.949 . S
H262 C266 0.949 . S
C263 C264 1.349 . S
C263 C265 1.327 . S
C263 H286 0.950 . S
C264 C263 1.349 . S
C264 C276 1.349 . S
C265 C263 1.327 . S
C265 C281 1.429 . S
C265 H287 0.950 . S
C266 H262 0.949 . S
C266 C274 1.574 . S
C266 C282 1.368 . S
H267 C275 0.950 . S
H268 C273 0.950 . S
H269 C274 0.949 . S
H270 C276 0.950 . S
H271 C277 0.950 . S
H272 C278 0.949 . S
C273 H268 0.950 . S
C273 C275 1.327 . S
C273 C279 1.429 . S
C274 C266 1.574 . S
C274 H269 0.949 . S
C274 C280 1.368 . S
C275 C259 1.349 . S
C275 H267 0.950 . S
C275 C273 1.327 . S
C276 C264 1.349 . S
C276 H270 0.950 . S
C276 C277 1.327 . S
C277 H271 0.950 . S
C277 C276 1.327 . S
C277 C281 1.429 . S
C278 C261 1.574 . S
C278 H272 0.949 . S
C278 C282 1.368 . S
C279 C260 1.429 . S
C279 C273 1.429 . S
C279 C280 1.523 . S
C280 C261 1.368 . S
C280 C274 1.368 . S
C280 C279 1.523 . S
C281 C265 1.429 . S
C281 C277 1.429 . S
C281 C282 1.523 . S
C282 C266 1.368 . S
C282 C278 1.368 . S
C282 C281 1.523 . S
H283 C258 0.950 . S
H284 C260 0.950 . S
H285 C261 0.949 . S
H286 C263 0.950 . S
H287 C265 0.950 . S
C288 C289 1.349 . S
C288 C290 1.327 . S
C288 H313 0.950 . S
C289 C288 1.349 . S
C289 C305 1.349 . S
C290 C288 1.327 . S
C290 C309 1.429 . S
C290 H314 0.950 . S
C291 C308 1.574 . S
C291 C310 1.368 . S
C291 H315 0.949 . S
H292 C296 0.949 . S
C293 C294 1.349 . S
C293 C295 1.327 . S
C293 H316 0.950 . S
C294 C293 1.349 . S
C294 C306 1.349 . S
C295 C293 1.327 . S
C295 C311 1.429 . S
C295 H317 0.950 . S
C296 H292 0.949 . S
C296 C304 1.574 . S
C296 C312 1.368 . S
H297 C305 0.950 . S
H298 C303 0.950 . S
H299 C304 0.949 . S
H300 C306 0.950 . S
H301 C307 0.950 . S
H302 C308 0.949 . S
C303 H298 0.950 . S
C303 C305 1.327 . S
C303 C309 1.429 . S
C304 C296 1.574 . S
C304 H299 0.949 . S
C304 C310 1.368 . S
C305 C289 1.349 . S
C305 H297 0.950 . S
C305 C303 1.327 . S
C306 C294 1.349 . S
C306 H300 0.950 . S
C306 C307 1.327 . S
C307 H301 0.950 . S
C307 C306 1.327 . S
C307 C311 1.429 . S
C308 C291 1.574 . S
C308 H302 0.949 . S
C308 C312 1.368 . S
C309 C290 1.429 . S
C309 C303 1.429 . S
C309 C310 1.523 . S
C310 C291 1.368 . S
C310 C304 1.368 . S
C310 C309 1.523 . S
C311 C295 1.429 . S
C311 C307 1.429 . S
C311 C312 1.523 . S
C312 C296 1.368 . S
C312 C308 1.368 . S
C312 C311 1.523 . S
H313 C288 0.950 . S
H314 C290 0.950 . S
H315 C291 0.949 . S
H316 C293 0.950 . S
H317 C295 0.950 . S
C318 C319 1.349 . S
C318 C320 1.327 . S
C318 H343 0.950 . S
C319 C318 1.349 . S
C319 C335 1.349 . S
C320 C318 1.327 . S
C320 C339 1.429 . S
C320 H344 0.950 . S
C321 C338 1.574 . S
C321 C340 1.368 . S
C321 H345 0.949 . S
H322 C326 0.949 . S
C323 C324 1.349 . S
C323 C325 1.327 . S
C323 H346 0.950 . S
C324 C323 1.349 . S
C324 C336 1.349 . S
C325 C323 1.327 . S
C325 C341 1.429 . S
C325 H347 0.950 . S
C326 H322 0.949 . S
C326 C334 1.574 . S
C326 C342 1.368 . S
H327 C335 0.950 . S
H328 C333 0.950 . S
H329 C334 0.949 . S
H330 C336 0.950 . S
H331 C337 0.950 . S
H332 C338 0.949 . S
C333 H328 0.950 . S
C333 C335 1.327 . S
C333 C339 1.429 . S
C334 C326 1.574 . S
C334 H329 0.949 . S
C334 C340 1.368 . S
C335 C319 1.349 . S
C335 H327 0.950 . S
C335 C333 1.327 . S
C336 C324 1.349 . S
C336 H330 0.950 . S
C336 C337 1.327 . S
C337 H331 0.950 . S
C337 C336 1.327 . S
C337 C341 1.429 . S
C338 C321 1.574 . S
C338 H332 0.949 . S
C338 C342 1.368 . S
C339 C320 1.429 . S
C339 C333 1.429 . S
C339 C340 1.523 . S
C340 C321 1.368 . S
C340 C334 1.368 . S
C340 C339 1.523 . S
C341 C325 1.429 . S
C341 C337 1.429 . S
C341 C342 1.523 . S
C342 C326 1.368 . S
C342 C338 1.368 . S
C342 C341 1.523 . S
H343 C318 0.950 . S
H344 C320 0.950 . S
H345 C321 0.949 . S
H346 C323 0.950 . S
H347 C325 0.950 . S
C348 C349 1.349 . S
C348 C350 1.327 . S
C348 H373 0.950 . S
C349 C348 1.349 . S
C349 C365 1.349 . S
C350 C348 1.327 . S
C350 C369 1.429 . S
C350 H374 0.950 . S
C351 C368 1.574 . S
C351 C370 1.368 . S
C351 H375 0.949 . S
H352 C356 0.949 . S
C353 C354 1.349 . S
C353 C355 1.327 . S
C353 H376 0.952 1_545 S
C354 C353 1.349 . S
C354 C366 1.349 . S
C355 C353 1.327 . S
C355 C371 1.429 . S
C355 H377 0.950 . S
C356 H352 0.949 . S
C356 C364 1.574 . S
C356 C372 1.368 . S
H357 C365 0.950 . S
H358 C363 0.950 . S
H359 C364 0.949 . S
H360 C366 0.950 . S
H361 C367 0.950 . S
H362 C368 0.949 . S
C363 H358 0.950 . S
C363 C365 1.327 . S
C363 C369 1.429 . S
C364 C356 1.574 . S
C364 H359 0.949 . S
C364 C370 1.368 . S
C365 C349 1.349 . S
C365 H357 0.950 . S
C365 C363 1.327 . S
C366 C354 1.349 . S
C366 H360 0.950 . S
C366 C367 1.327 . S
C367 H361 0.950 . S
C367 C366 1.327 . S
C367 C371 1.429 . S
C368 C351 1.574 . S
C368 H362 0.949 . S
C368 C372 1.368 . S
C369 C350 1.429 . S
C369 C363 1.429 . S
C369 C370 1.523 . S
C370 C351 1.368 . S
C370 C364 1.368 . S
C370 C369 1.523 . S
C371 C355 1.429 . S
C371 C367 1.429 . S
C371 C372 1.523 . S
C372 C356 1.368 . S
C372 C368 1.368 . S
C372 C371 1.523 . S
H373 C348 0.950 . S
H374 C350 0.950 . S
H375 C351 0.949 . S
H376 C353 0.952 1_565 S
H377 C355 0.950 . S
C378 C379 1.349 . S
C378 C380 1.327 . S
C378 H403 0.950 . S
C379 C378 1.349 . S
C379 C395 1.349 . S
C380 C378 1.327 . S
C380 C399 1.429 . S
C380 H404 0.950 . S
C381 C398 1.574 . S
C381 C400 1.368 . S
C381 H405 0.949 . S
H382 C386 0.949 . S
C383 C384 1.349 . S
C383 C385 1.327 . S
C383 H406 0.950 . S
C384 C383 1.349 . S
C384 C396 1.349 . S
C385 C383 1.327 . S
C385 C401 1.429 . S
C385 H407 0.950 . S
C386 H382 0.949 . S
C386 C394 1.574 . S
C386 C402 1.368 . S
H387 C395 0.950 . S
H388 C393 0.950 . S
H389 C394 0.949 . S
H390 C396 0.950 . S
H391 C397 0.950 . S
H392 C398 0.949 . S
C393 H388 0.950 . S
C393 C395 1.327 . S
C393 C399 1.429 . S
C394 C386 1.574 . S
C394 H389 0.949 . S
C394 C400 1.368 . S
C395 C379 1.349 . S
C395 H387 0.950 . S
C395 C393 1.327 . S
C396 C384 1.349 . S
C396 H390 0.950 . S
C396 C397 1.327 . S
C397 H391 0.950 . S
C397 C396 1.327 . S
C397 C401 1.429 . S
C398 C381 1.574 . S
C398 H392 0.949 . S
C398 C402 1.368 . S
C399 C380 1.429 . S
C399 C393 1.429 . S
C399 C400 1.523 . S
C400 C381 1.368 . S
C400 C394 1.368 . S
C400 C399 1.523 . S
C401 C385 1.429 . S
C401 C397 1.429 . S
C401 C402 1.523 . S
C402 C386 1.368 . S
C402 C398 1.368 . S
C402 C401 1.523 . S
H403 C378 0.950 . S
H404 C380 0.950 . S
H405 C381 0.949 . S
H406 C383 0.950 . S
H407 C385 0.950 . S
C408 C409 1.349 1_556 S
C408 C410 1.327 . S
C408 H433 0.950 . S
C409 C408 1.349 1_554 S
C409 C425 1.349 1_554 S
C410 C408 1.327 . S
C410 C429 1.429 . S
C410 H434 0.950 . S
C411 C428 1.574 . S
C411 C430 1.368 . S
C411 H435 0.949 . S
H412 C416 0.949 . S
C413 C414 1.349 . S
C413 C415 1.327 . S
C413 H436 0.950 . S
C414 C413 1.349 . S
C414 C426 1.349 . S
C415 C413 1.327 . S
C415 C431 1.429 . S
C415 H437 0.950 . S
C416 H412 0.949 . S
C416 C424 1.574 . S
C416 C432 1.368 . S
H417 C425 0.950 1_554 S
H418 C423 0.950 . S
H419 C424 0.949 . S
H420 C426 0.950 1_545 S
H421 C427 0.950 . S
H422 C428 0.949 . S
C423 H418 0.950 . S
C423 C425 1.327 . S
C423 C429 1.429 . S
C424 C416 1.574 . S
C424 H419 0.949 . S
C424 C430 1.368 . S
C425 C409 1.349 1_556 S
C425 H417 0.950 1_556 S
C425 C423 1.327 . S
C426 C414 1.349 . S
C426 H420 0.950 1_565 S
C426 C427 1.327 . S
C427 H421 0.950 . S
C427 C426 1.327 . S
C427 C431 1.429 . S
C428 C411 1.574 . S
C428 H422 0.949 . S
C428 C432 1.368 . S
C429 C410 1.429 . S
C429 C423 1.429 . S
C429 C430 1.523 . S
C430 C411 1.368 . S
C430 C424 1.368 . S
C430 C429 1.523 . S
C431 C415 1.429 . S
C431 C427 1.429 . S
C431 C432 1.523 . S
C432 C416 1.368 . S
C432 C428 1.368 . S
C432 C431 1.523 . S
H433 C408 0.950 . S
H434 C410 0.950 . S
H435 C411 0.949 . S
H436 C413 0.950 . S
H437 C415 0.950 . S
C84 C52 1.233 . S
C79 C34 1.411 . S
C109 C7 1.417 . S
C114 C73 1.233 . S
C139 C16 1.609 . S
C144 C49 1.393 . S
C169 C25 1.607 . S
C174 C70 1.393 . S
C204 C54 1.490 . S
C199 C5 1.524 . S
C234 C74 1.485 . S
C229 C13 1.536 . S
C259 C23 1.525 . S
C264 C50 1.473 . S
C289 C32 1.520 . S
C294 C72 1.468 . S
C324 C71 1.470 . S
C319 C14 1.523 . S
C354 C53 1.483 . S
C349 C22 1.534 . S
C384 C75 1.487 . S
C379 C31 1.518 . S
C409 C4 1.522 . S
C414 C51 1.466 . S
