# Generated by pormake.
# Topology zzz, (3,6)-cn, num edge types: 1
# Building blocks:
#     Node 0, Type 0, BuildingBlock: BETDAH_clean_linker_0, # of connection points: 3
#     Node 1, Type 0, BuildingBlock: BETDAH_clean_linker_0, # of connection points: 3
#     Node 2, Type 0, BuildingBlock: BETDAH_clean_linker_0, # of connection points: 3
#     Node 3, Type 0, BuildingBlock: BETDAH_clean_linker_0, # of connection points: 3
#     Node 4, Type 0, BuildingBlock: BETDAH_clean_linker_0, # of connection points: 3
#     Node 5, Type 0, BuildingBlock: BETDAH_clean_linker_0, # of connection points: 3
#     Node 6, Type 0, BuildingBlock: BETDAH_clean_linker_0, # of connection points: 3
#     Node 7, Type 0, BuildingBlock: BETDAH_clean_linker_0, # of connection points: 3
#     Node 8, Type 1, BuildingBlock: NUHQIS_clean_sbu_0, # of connection points: 6
#     Node 9, Type 1, BuildingBlock: NUHQIS_clean_sbu_0, # of connection points: 6
#     Node 10, Type 1, BuildingBlock: NUHQIS_clean_sbu_0, # of connection points: 6
#     Node 11, Type 1, BuildingBlock: NUHQIS_clean_sbu_0, # of connection points: 6
#     Edge 12, Type (0, 1), BuildingBlock: ZUJKAS_clean_linker_0, # of connection points: 2
#     Edge 13, Type (0, 1), BuildingBlock: ZUJKAS_clean_linker_0, # of connection points: 2
#     Edge 14, Type (0, 1), BuildingBlock: ZUJKAS_clean_linker_0, # of connection points: 2
#     Edge 15, Type (0, 1), BuildingBlock: ZUJKAS_clean_linker_0, # of connection points: 2
#     Edge 16, Type (0, 1), BuildingBlock: ZUJKAS_clean_linker_0, # of connection points: 2
#     Edge 17, Type (0, 1), BuildingBlock: ZUJKAS_clean_linker_0, # of connection points: 2
#     Edge 18, Type (0, 1), BuildingBlock: ZUJKAS_clean_linker_0, # of connection points: 2
#     Edge 19, Type (0, 1), BuildingBlock: ZUJKAS_clean_linker_0, # of connection points: 2
#     Edge 20, Type (0, 1), BuildingBlock: ZUJKAS_clean_linker_0, # of connection points: 2
#     Edge 21, Type (0, 1), BuildingBlock: ZUJKAS_clean_linker_0, # of connection points: 2
#     Edge 22, Type (0, 1), BuildingBlock: ZUJKAS_clean_linker_0, # of connection points: 2
#     Edge 23, Type (0, 1), BuildingBlock: ZUJKAS_clean_linker_0, # of connection points: 2
#     Edge 24, Type (0, 1), BuildingBlock: ZUJKAS_clean_linker_0, # of connection points: 2
#     Edge 25, Type (0, 1), BuildingBlock: ZUJKAS_clean_linker_0, # of connection points: 2
#     Edge 26, Type (0, 1), BuildingBlock: ZUJKAS_clean_linker_0, # of connection points: 2
#     Edge 27, Type (0, 1), BuildingBlock: ZUJKAS_clean_linker_0, # of connection points: 2
#     Edge 28, Type (0, 1), BuildingBlock: ZUJKAS_clean_linker_0, # of connection points: 2
#     Edge 29, Type (0, 1), BuildingBlock: ZUJKAS_clean_linker_0, # of connection points: 2
#     Edge 30, Type (0, 1), BuildingBlock: ZUJKAS_clean_linker_0, # of connection points: 2
#     Edge 31, Type (0, 1), BuildingBlock: ZUJKAS_clean_linker_0, # of connection points: 2
#     Edge 32, Type (0, 1), BuildingBlock: ZUJKAS_clean_linker_0, # of connection points: 2
#     Edge 33, Type (0, 1), BuildingBlock: ZUJKAS_clean_linker_0, # of connection points: 2
#     Edge 34, Type (0, 1), BuildingBlock: ZUJKAS_clean_linker_0, # of connection points: 2
#     Edge 35, Type (0, 1), BuildingBlock: ZUJKAS_clean_linker_0, # of connection points: 2
# Relax obj value: 0.209
# Max RMSD: 0.142
# Mean RMSD: 0.135
data_MOF--net-zzz--node1-NUHQIS_clean_sbu_0--node2-BETDAH_clean_linker_0--edge1-ZUJKAS_clean_linker_0
_symmetry_space_group_name_H-M    P1
_symmetry_Int_Tables_number       1
_symmetry_cell_setting            triclinic
loop_
_symmetry_equiv_pos_as_xyz
'x, y, z'
_cell_length_a     68.228679
_cell_length_b     68.303311
_cell_length_c     18.109746
_cell_angle_alpha  89.964081
_cell_angle_beta   90.005365
_cell_angle_gamma 90.000189
loop_
_atom_site_label
_atom_site_type_symbol
_atom_site_fract_x
_atom_site_fract_y
_atom_site_fract_z
_atom_type_partial_charge
H0 H 0.79479 0.51203 0.25492 0.0
H1 H 0.73357 0.50988 0.20218 0.0
H2 H 0.75242 0.5296 0.41756 0.0
C3 C 0.77967 0.51464 0.27075 0.0
C4 C 0.77557 0.5215 0.34187 0.0
C5 C 0.76461 0.51032 0.22074 0.0
C6 C 0.74507 0.51321 0.24142 0.0
C7 C 0.74049 0.5205 0.31212 0.0
C8 C 0.75584 0.52424 0.36276 0.0
N9 N 0.72071 0.52422 0.33338 0.0
C10 C 0.70467 0.52284 0.28552 0.0
H11 H 0.03005 0.79237 0.27315 0.0
H12 H 0.0176 0.73506 0.18788 0.0
H13 H 0.98773 0.75604 0.38247 0.0
C14 C 0.02261 0.7784 0.27814 0.0
C15 C 0.009 0.77583 0.33515 0.0
C16 C 0.02576 0.76387 0.22467 0.0
C17 C 0.01526 0.74622 0.22932 0.0
C18 C 1.00165 0.74319 0.28678 0.0
C19 C 0.99842 0.75818 0.33894 0.0
N20 N 0.99079 0.72544 0.29307 0.0
C21 C 0.99261 0.70943 0.24566 0.0
H22 H 0.71665 0.01942 0.24338 0.0
H23 H 0.77726 0.01364 0.18634 0.0
H24 H 0.75732 0.99654 0.40346 0.0
C25 C 0.73141 0.01527 0.25921 0.0
C26 C 0.73501 0.00809 0.33048 0.0
C27 C 0.74655 0.01724 0.20763 0.0
C28 C 0.76568 0.0119 0.22671 0.0
C29 C 0.76965 1.00415 0.29731 0.0
C30 C 0.75423 1.00225 0.34886 0.0
N31 N 0.78891 0.99823 0.318 0.0
C32 C 0.80513 0.99908 0.27112 0.0
H33 H 0.51332 0.71551 0.24503 0.0
H34 H 0.50966 0.77663 0.19273 0.0
H35 H 0.52711 0.75822 0.41131 0.0
C36 C 0.51534 0.73066 0.2613 0.0
C37 C 0.521 0.73491 0.33386 0.0
C38 C 0.51116 0.74559 0.21056 0.0
C39 C 0.51301 0.76519 0.23218 0.0
C40 C 0.51911 0.7699 0.30438 0.0
C41 C 0.52273 0.75466 0.35539 0.0
N42 N 0.52162 0.7897 0.32718 0.0
C43 C 0.51999 0.80581 0.28001 0.0
H44 H 0.21978 0.52273 0.15227 0.0
H45 H 0.27991 0.51509 0.21399 0.0
H46 H 0.2593 0.49371 0.00311 0.0
C47 C 0.23437 0.51751 0.13869 0.0
C48 C 0.23763 0.50828 0.07081 0.0
C49 C 0.24948 0.51984 0.19019 0.0
C50 C 0.26836 0.51317 0.17363 0.0
C51 C 0.27205 0.50359 0.10611 0.0
C52 C 0.25655 0.50106 0.05507 0.0
N53 N 0.29105 0.49626 0.08849 0.0
C54 C 0.30721 0.49735 0.13577 0.0
H55 H 0.01532 0.21398 0.1769 0.0
H56 H 0.01324 0.27508 0.23206 0.0
H57 H 0.02583 0.257 0.00859 0.0
C58 C 0.017 0.2292 0.16095 0.0
C59 C 0.02131 0.23362 0.08724 0.0
C60 C 0.01397 0.24403 0.21335 0.0
C61 C 0.0155 0.26367 0.19148 0.0
C62 C 0.01995 0.2685 0.11766 0.0
C63 C 0.02256 0.25337 0.06552 0.0
N64 N 0.02185 0.28835 0.09452 0.0
C65 C 0.02072 0.30434 0.14234 0.0
H66 H 0.29262 0.98942 0.12689 0.0
H67 H 0.23487 1.00017 0.21201 0.0
H68 H 0.25609 0.03266 0.02388 0.0
C69 C 0.27857 0.99678 0.12294 0.0
C70 C 0.27598 0.01101 0.06819 0.0
C71 C 0.26391 0.99285 0.17532 0.0
C72 C 0.24615 1.00318 0.17166 0.0
C73 C 0.24312 0.01748 0.11671 0.0
C74 C 0.25823 0.02149 0.06564 0.0
N75 N 0.22524 0.02821 0.112 0.0
C76 C 0.20924 0.02568 0.15921 0.0
H77 H 0.51817 0.29601 0.16152 0.0
H78 H 0.50974 0.23699 0.23628 0.0
H79 H 0.4916 0.25392 0.01654 0.0
C80 C 0.51306 0.28122 0.15102 0.0
C81 C 0.50492 0.27672 0.08225 0.0
C82 C 0.5146 0.26707 0.20676 0.0
C83 C 0.50835 0.24787 0.19309 0.0
C84 C 0.49993 0.24299 0.12435 0.0
C85 C 0.49807 0.25758 0.0694 0.0
N86 N 0.49316 0.22369 0.10885 0.0
C87 C 0.4942 0.20797 0.15807 0.0
Tb88 Tb 0.01949 0.99763 0.76793 0.0
Eu89 Eu 0.99042 0.01389 0.63874 0.0
C90 C 0.03628 0.00951 0.61378 0.0
C91 C 0.01059 0.04303 0.75608 0.0
C92 C 0.04882 0.96169 0.867 0.0
C93 C 0.07469 0.93809 0.89206 0.0
C94 C 0.06796 0.9575 0.89063 0.0
C95 C 0.03663 0.94629 0.84435 0.0
C96 C 0.04336 0.92707 0.84476 0.0
C97 C 0.06244 0.92271 0.86865 0.0
C98 C 0.04164 0.982 0.86266 0.0
O99 O 0.99222 1.00627 0.82209 0.0
O100 O 0.97213 0.99908 0.72588 0.0
O101 O 0.99685 0.98288 0.60501 0.0
O102 O 1.00562 0.97158 0.71989 0.0
C103 C 0.97473 1.00196 0.7967 0.0
O104 O 0.9607 0.02104 0.60392 0.0
O105 O 0.98486 0.0263 0.52938 0.0
O106 O 0.02137 0.02141 0.60492 0.0
O107 O 0.03568 0.99576 0.66437 0.0
O108 O 0.02368 0.02944 0.77189 0.0
O109 O 0.99489 0.03905 0.71697 0.0
C110 C 1.00045 0.96837 0.65073 0.0
O111 O 0.0481 0.99224 0.80706 0.0
O112 O 0.02281 0.9842 0.8713 0.0
C113 C 0.9604 0.05069 0.53638 0.0
C114 C 0.95406 0.09152 0.53052 0.0
C115 C 0.94681 0.08045 0.58992 0.0
C116 C 0.94998 0.06026 0.59294 0.0
C117 C 0.96678 0.06157 0.47528 0.0
C118 C 0.96374 0.08177 0.4725 0.0
C119 C 0.96654 0.03005 0.54442 0.0
H120 H 0.08944 0.9351 0.91113 0.0
H121 H 0.07764 0.96919 0.90799 0.0
H122 H 0.02174 0.94911 0.82694 0.0
H123 H 0.03339 0.91552 0.82823 0.0
H124 H 0.93903 0.08742 0.63489 0.0
H125 H 0.9448 0.05232 0.64092 0.0
H126 H 0.97488 0.05458 0.43111 0.0
H127 H 0.96979 0.08983 0.42633 0.0
Tb128 Tb 0.51459 0.01911 0.77174 0.0
Eu129 Eu 0.49817 0.9901 0.64359 0.0
C130 C 0.50299 0.03552 0.61738 0.0
C131 C 0.4691 0.01049 0.76166 0.0
C132 C 0.55053 0.05098 0.85307 0.0
C133 C 0.57918 0.06608 0.9081 0.0
C134 C 0.55949 0.06043 0.91275 0.0
C135 C 0.56116 0.04802 0.78757 0.0
C136 C 0.58084 0.05338 0.78325 0.0
C137 C 0.59016 0.06205 0.84405 0.0
C138 C 0.53101 0.04218 0.86059 0.0
O139 O 0.506 0.99214 0.82798 0.0
O140 O 0.51294 0.97197 0.73151 0.0
O141 O 0.52944 0.9962 0.61024 0.0
O142 O 0.54033 1.00441 0.72593 0.0
C143 C 0.51015 0.97461 0.80247 0.0
O144 O 0.48906 0.96063 0.61282 0.0
O145 O 0.4873 0.98396 0.53247 0.0
O146 O 0.49053 0.02104 0.61003 0.0
O147 O 0.51708 0.03435 0.6664 0.0
O148 O 0.48282 0.02333 0.77838 0.0
O149 O 0.47292 0.99497 0.72141 0.0
C150 C 0.54382 0.99963 0.6568 0.0
O151 O 0.51809 0.04778 0.81192 0.0
O152 O 0.53115 0.02321 0.86817 0.0
C153 C 0.46126 0.96143 0.53834 0.0
C154 C 0.42135 0.95121 0.52879 0.0
C155 C 0.43579 0.93928 0.49621 0.0
C156 C 0.45564 0.94433 0.5013 0.0
C157 C 0.4469 0.97338 0.57055 0.0
C158 C 0.42715 0.96833 0.56584 0.0
C159 C 0.48203 0.96614 0.5493 0.0
H160 H 0.58612 0.07253 0.95606 0.0
H161 H 0.55153 0.06271 0.96379 0.0
H162 H 0.55445 0.0408 0.74074 0.0
H163 H 0.58896 0.05015 0.73331 0.0
H164 H 0.43176 0.92597 0.46753 0.0
H165 H 0.46659 0.9348 0.47707 0.0
H166 H 0.45098 0.98659 0.59979 0.0
H167 H 0.41641 0.97804 0.59024 0.0
Tb168 Tb 0.49329 0.51214 0.7611 0.0
Eu169 Eu 0.524 0.49777 0.63416 0.0
C170 C 0.47871 0.50188 0.60303 0.0
C171 C 0.50334 0.46704 0.74611 0.0
C172 C 0.46459 0.54607 0.875 0.0
C173 C 0.44412 0.57514 0.86544 0.0
C174 C 0.44711 0.5552 0.85259 0.0
C175 C 0.47868 0.55708 0.91343 0.0
C176 C 0.47559 0.57695 0.92698 0.0
C177 C 0.45845 0.58625 0.90195 0.0
C178 C 0.46869 0.52581 0.85117 0.0
O179 O 0.52254 0.51978 0.80188 0.0
O180 O 0.53898 0.49509 0.74445 0.0
O181 O 0.52726 0.53062 0.63478 0.0
O182 O 0.49868 0.53842 0.69534 0.0
C183 C 0.53794 0.50827 0.79689 0.0
O184 O 0.55391 0.49507 0.59256 0.0
O185 O 0.52977 0.48275 0.53039 0.0
O186 O 0.49598 0.50666 0.57693 0.0
O187 O 0.47672 0.49776 0.67342 0.0
O188 O 0.49846 0.48155 0.79037 0.0
O189 O 0.51024 0.4702 0.67935 0.0
C190 C 0.51411 0.5435 0.6561 0.0
O191 O 0.46484 0.52225 0.78207 0.0
O192 O 0.48538 0.51809 0.87114 0.0
C193 C 0.55847 0.46432 0.53699 0.0
C194 C 0.57131 0.42528 0.52531 0.0
C195 C 0.57481 0.43874 0.46778 0.0
C196 C 0.56833 0.45811 0.47347 0.0
C197 C 0.55608 0.45134 0.5964 0.0
C198 C 0.56242 0.43198 0.59063 0.0
C199 C 0.54874 0.48345 0.53879 0.0
H200 H 0.4307 0.58193 0.84623 0.0
H201 H 0.43601 0.54702 0.82287 0.0
H202 H 0.49237 0.55055 0.93105 0.0
H203 H 0.48697 0.58522 0.95471 0.0
H204 H 0.58187 0.43411 0.41717 0.0
H205 H 0.5703 0.46798 0.42719 0.0
H206 H 0.54844 0.45593 0.64589 0.0
H207 H 0.55924 0.422 0.63558 0.0
Tb208 Tb 0.99961 0.49285 0.75858 0.0
Eu209 Eu 0.01559 0.52127 0.62675 0.0
C210 C 0.01129 0.47548 0.60631 0.0
C211 C 0.04507 0.5013 0.74598 0.0
C212 C 0.96275 0.46981 0.8712 0.0
C213 C 0.93445 0.45118 0.91194 0.0
C214 C 0.9548 0.45302 0.90401 0.0
C215 C 0.95025 0.48478 0.84702 0.0
C216 C 0.93004 0.48287 0.85396 0.0
C217 C 0.92183 0.46603 0.88628 0.0
C218 C 0.98364 0.47093 0.85288 0.0
O219 O 0.99235 0.52283 0.79138 0.0
O220 O 0.01788 0.53781 0.73359 0.0
O221 O 0.98284 0.52617 0.62596 0.0
O222 O 0.97447 0.49771 0.68579 0.0
C223 C 1.00435 0.53778 0.78483 0.0
O224 O 0.02368 0.55026 0.58494 0.0
O225 O 0.02764 0.52474 0.51607 0.0
O226 O 1.00692 0.49239 0.57627 0.0
O227 O 0.0143 0.47426 0.67774 0.0
O228 O 0.03021 0.49739 0.79005 0.0
O229 O 0.04239 0.50715 0.67746 0.0
C230 C 0.96965 0.51319 0.64639 0.0
O231 O 0.98768 0.46548 0.78576 0.0
O232 O 0.99237 0.48734 0.86959 0.0
C233 C 0.05323 0.54766 0.51928 0.0
C234 C 0.09363 0.55645 0.51557 0.0
C235 C 0.07974 0.57015 0.48999 0.0
C236 C 0.05964 0.56581 0.49223 0.0
C237 C 0.06707 0.53407 0.54465 0.0
C238 C 0.08695 0.53847 0.54366 0.0
C239 C 0.03225 0.54306 0.5266 0.0
H240 H 0.92864 0.43814 0.93799 0.0
H241 H 0.96426 0.44122 0.92207 0.0
H242 H 0.95611 0.49774 0.82048 0.0
H243 H 0.92085 0.49443 0.8321 0.0
H244 H 0.08439 0.58407 0.46736 0.0
H245 H 0.04915 0.57657 0.47301 0.0
H246 H 0.06252 0.51999 0.56587 0.0
H247 H 0.09708 0.52771 0.56546 0.0
H248 H 0.17662 0.0478 0.15175 0.0
H249 H 0.14725 0.04532 0.22975 0.0
H250 H 0.17349 0.99713 0.34791 0.0
H251 H 0.20291 0.99978 0.27048 0.0
H252 H 0.12167 0.01419 0.24884 0.0
H253 H 0.15685 0.03342 0.51526 0.0
H254 H 0.16866 0.0375 0.42741 0.0
H255 H 0.16841 0.01344 0.46781 0.0
C256 C 0.17609 0.03676 0.19469 0.0
C257 C 0.19198 0.02406 0.20562 0.0
C258 C 0.15932 0.03532 0.23911 0.0
C259 C 0.15822 0.02124 0.29559 0.0
C260 C 0.17411 0.00839 0.30588 0.0
H261 H 0.06983 0.98747 0.6176 0.0
H262 H 0.09883 0.99039 0.53908 0.0
C263 C 0.19088 0.00983 0.26138 0.0
C264 C 0.14029 0.01974 0.34246 0.0
H265 H 0.12407 0.02186 0.52102 0.0
C266 C 0.12218 0.01596 0.30832 0.0
C267 C 0.14092 0.02205 0.42015 0.0
C268 C 0.1597 0.02701 0.45992 0.0
C269 C 0.10482 0.01404 0.3497 0.0
C270 C 0.10546 0.01629 0.42741 0.0
C271 C 0.12356 0.02011 0.46153 0.0
C272 C 0.08758 0.01455 0.47446 0.0
C273 C 0.08602 0.0091 0.30997 0.0
C274 C 0.07159 0.02728 0.46501 0.0
C275 C 0.05491 0.02564 0.50989 0.0
C276 C 0.05389 0.01128 0.56556 0.0
C277 C 0.07001 0.99866 0.57522 0.0
C278 C 0.08666 1.00032 0.53038 0.0
H279 H 0.08885 1.00288 0.2543 0.0
H280 H 0.07716 0.99845 0.34216 0.0
H281 H 0.07722 0.02263 0.30287 0.0
H282 H 0.07207 0.03865 0.42333 0.0
H283 H 0.04286 0.0357 0.50109 0.0
H284 H 0.52009 0.20007 0.26762 0.0
H285 H 0.52117 0.17048 0.34523 0.0
H286 H 0.4702 0.14796 0.23273 0.0
H287 H 0.46929 0.1774 0.15482 0.0
H288 H 0.49311 0.15511 0.44138 0.0
H289 H 0.50872 0.10251 0.21558 0.0
H290 H 0.5112 0.12864 0.204 0.0
H291 H 0.4874 0.11738 0.20024 0.0
C292 C 0.50916 0.18875 0.25969 0.0
C293 C 0.49465 0.19085 0.20541 0.0
C294 C 0.50977 0.17188 0.30392 0.0
C295 C 0.49596 0.1568 0.29409 0.0
C296 C 0.48127 0.15914 0.24037 0.0
H297 H 0.47616 0.04348 0.50779 0.0
H298 H 0.47401 0.07296 0.43072 0.0
C299 C 0.48067 0.176 0.19625 0.0
C300 C 0.49674 0.13878 0.34071 0.0
H301 H 0.50132 0.08893 0.33292 0.0
C302 C 0.49499 0.14065 0.41766 0.0
C303 C 0.49911 0.11987 0.30986 0.0
C304 C 0.5019 0.11691 0.22797 0.0
C305 C 0.49525 0.12417 0.46438 0.0
C306 C 0.49772 0.10526 0.43358 0.0
C307 C 0.49938 0.10339 0.3566 0.0
C308 C 0.49901 0.08732 0.4804 0.0
C309 C 0.49249 0.12714 0.54628 0.0
C310 C 0.51395 0.08538 0.53324 0.0
C311 C 0.51521 0.06859 0.57732 0.0
C312 C 0.50163 0.0532 0.56937 0.0
C313 C 0.48683 0.05503 0.51564 0.0
C314 C 0.48559 0.07188 0.47146 0.0
H315 H 0.48535 0.1414 0.55851 0.0
H316 H 0.48348 0.11523 0.57061 0.0
H317 H 0.50702 0.12705 0.57377 0.0
H318 H 0.52476 0.09685 0.54013 0.0
H319 H 0.52689 0.06769 0.61771 0.0
H320 H 0.32359 0.46717 0.20973 0.0
H321 H 0.35275 0.46816 0.28942 0.0
H322 H 0.35864 0.53006 0.24732 0.0
H323 H 0.3293 0.52906 0.16853 0.0
H324 H 0.39073 0.47845 0.2564 0.0
H325 H 0.36103 0.52796 0.47166 0.0
H326 H 0.34565 0.51637 0.40342 0.0
H327 H 0.35965 0.53778 0.37982 0.0
C328 C 0.33109 0.48098 0.21805 0.0
C329 C 0.32425 0.49806 0.18367 0.0
C330 C 0.34776 0.48154 0.26336 0.0
C331 C 0.35781 0.49924 0.27538 0.0
C332 C 0.35096 0.51631 0.24032 0.0
H333 H 0.47686 0.50989 0.4543 0.0
H334 H 0.44796 0.50921 0.37411 0.0
C335 C 0.33428 0.51573 0.19504 0.0
C336 C 0.37564 0.49968 0.32331 0.0
H337 H 0.39499 0.52062 0.47866 0.0
C338 C 0.39164 0.48766 0.30504 0.0
C339 C 0.37681 0.51151 0.38739 0.0
C340 C 0.35982 0.52401 0.41233 0.0
C341 C 0.40878 0.4873 0.3484 0.0
C342 C 0.41015 0.49952 0.41138 0.0
C343 C 0.39406 0.51138 0.43009 0.0
C344 C 0.4279 0.49986 0.45975 0.0
C345 C 0.42509 0.47349 0.32725 0.0
C346 C 0.42629 0.49525 0.53511 0.0
C347 C 0.44278 0.49574 0.58123 0.0
C348 C 0.46132 0.50095 0.55322 0.0
C349 C 0.46289 0.50566 0.47775 0.0
C350 C 0.44636 0.50518 0.43163 0.0
H351 H 0.41982 0.46164 0.2902 0.0
H352 H 0.43664 0.48177 0.29747 0.0
H353 H 0.43182 0.46672 0.37693 0.0
H354 H 0.41224 0.49118 0.55832 0.0
H355 H 0.44094 0.4921 0.63902 0.0
H356 H 0.05023 0.31919 0.22419 0.0
H357 H 0.04886 0.34783 0.30625 0.0
H358 H 0.98786 0.35592 0.25128 0.0
H359 H 0.98922 0.32713 0.17003 0.0
H360 H 0.04008 0.38623 0.27283 0.0
H361 H 0.98682 0.3571 0.47633 0.0
H362 H 0.99906 0.34168 0.40984 0.0
H363 H 0.97827 0.35616 0.38263 0.0
C364 C 0.03653 0.32707 0.23019 0.0
C365 C 0.0198 0.32105 0.19143 0.0
C366 C 0.03576 0.34342 0.27687 0.0
C367 C 0.01819 0.35392 0.28587 0.0
C368 C 1.00147 0.34786 0.24656 0.0
H369 H 1.00562 0.47252 0.4568 0.0
H370 H 1.00766 0.44317 0.37997 0.0
C371 C 1.00226 0.33151 0.19988 0.0
C372 C 0.01753 0.37149 0.33465 0.0
H373 H 0.99442 0.391 0.48518 0.0
C374 C 0.03014 0.38724 0.31941 0.0
C375 C 1.00475 0.37275 0.39609 0.0
C376 C 0.99158 0.35596 0.41782 0.0
C377 C 0.03007 0.40431 0.36291 0.0
C378 C 0.0168 0.40584 0.42279 0.0
C379 C 1.00446 0.38994 0.4389 0.0
C380 C 0.01558 0.42376 0.46961 0.0
C381 C 0.04445 0.42041 0.34502 0.0
C382 C 0.01889 0.42262 0.54607 0.0
C383 C 0.01761 0.43939 0.59038 0.0
C384 C 0.01289 0.45769 0.55924 0.0
C385 C 0.00943 0.45874 0.4827 0.0
C386 C 0.0107 0.44196 0.43849 0.0
H387 H 0.05696 0.41491 0.31168 0.0
H388 H 0.0369 0.43192 0.3124 0.0
H389 H 0.05028 0.42723 0.39615 0.0
H390 H 0.02258 0.40874 0.57148 0.0
H391 H 0.02029 0.43799 0.64908 0.0
H392 H 0.84235 1.00699 0.31165 0.0
H393 H 0.87143 0.00783 0.23148 0.0
H394 H 0.83535 0.99297 0.04404 0.0
H395 H 0.80628 0.99237 0.12418 0.0
H396 H 0.88749 0.97826 0.14539 0.0
H397 H 0.86503 0.04089 0.96955 0.0
H398 H 0.85303 0.03518 0.05574 0.0
H399 H 0.84727 0.02153 0.97369 0.0
C400 C 0.8407 1.00403 0.2532 0.0
C401 C 0.8222 0.99974 0.22362 0.0
C402 C 0.85728 1.00447 0.20752 0.0
C403 C 0.85558 1.00075 0.13143 0.0
C404 C 0.837 0.9963 0.10216 0.0
H405 H 0.93649 0.9939 0.76209 0.0
H406 H 0.90819 0.99321 0.84482 0.0
C407 C 0.82043 0.99586 0.1479 0.0
C408 C 0.87328 1.00107 0.08318 0.0
H409 H 0.89306 0.02304 0.93069 0.0
C410 C 0.88876 0.98813 0.09869 0.0
C411 C 0.87496 0.01394 0.02216 0.0
C412 C 0.85929 0.02881 0.00451 0.0
C413 C 0.90562 0.98739 0.05398 0.0
C414 C 0.90725 1.00019 0.99273 0.0
C415 C 0.89181 0.01319 0.97747 0.0
C416 C 0.92472 1.00022 0.94325 0.0
C417 C 0.9213 0.97253 0.07161 0.0
C418 C 0.9435 1.00451 0.97077 0.0
C419 C 0.95978 1.00487 0.92352 0.0
C420 C 0.95761 1.00107 0.84756 0.0
C421 C 0.93876 0.99684 0.82022 0.0
C422 C 0.92252 0.99647 0.86748 0.0
H423 H 0.91565 0.96059 0.10746 0.0
H424 H 0.92735 0.96596 0.02037 0.0
H425 H 0.93346 0.97988 0.10139 0.0
H426 H 0.94554 0.00786 0.0287 0.0
H427 H 0.97402 0.00832 0.94648 0.0
H428 H 0.52592 0.80733 0.13241 0.0
H429 H 0.52421 0.83649 0.05287 0.0
H430 H 0.50914 0.87179 0.24197 0.0
H431 H 0.51103 0.84267 0.32142 0.0
H432 H 0.49284 0.86187 0.0265 0.0
H433 H 0.55513 0.90197 0.15281 0.0
H434 H 0.55081 0.87626 0.16927 0.0
H435 H 0.53663 0.89441 0.21735 0.0
C436 C 0.52226 0.82135 0.15672 0.0
C437 C 0.51865 0.82289 0.23274 0.0
C438 C 0.52129 0.83798 0.11139 0.0
C439 C 0.51685 0.85643 0.14151 0.0
C440 C 0.513 0.85784 0.21761 0.0
H441 H 0.50441 0.97379 0.95283 0.0
H442 H 0.50554 0.94525 0.03498 0.0
C443 C 0.51395 0.84121 0.26286 0.0
C444 C 0.51591 0.8741 0.09314 0.0
H445 H 0.53606 0.91937 0.06517 0.0
C446 C 0.50234 0.87441 0.0348 0.0
C447 C 0.52825 0.89052 0.10406 0.0
C448 C 0.54366 0.8908 0.16381 0.0
C449 C 0.5006 0.89075 0.98784 0.0
C450 C 0.51302 0.90713 0.99846 0.0
C451 C 0.52651 0.90686 0.05704 0.0
C452 C 0.51247 0.92451 0.94857 0.0
C453 C 0.48516 0.89046 0.92817 0.0
C454 C 0.51633 0.92248 0.8728 0.0
C455 C 0.51568 0.93873 0.82574 0.0
C456 C 0.5113 0.9575 0.85335 0.0
C457 C 0.50778 0.95958 0.92955 0.0
C458 C 0.50843 0.94327 0.97665 0.0
H459 H 0.47344 0.87963 0.94037 0.0
H460 H 0.47834 0.90511 0.92128 0.0
H461 H 0.49206 0.88627 0.87501 0.0
H462 H 0.51994 0.90828 0.84997 0.0
H463 H 0.5186 0.93654 0.76755 0.0
H464 H 0.69817 0.49685 0.1753 0.0
H465 H 0.66939 0.49521 0.09373 0.0
H466 H 0.64401 0.54465 0.2069 0.0
H467 H 0.67292 0.54644 0.28752 0.0
H468 H 0.63045 0.48934 0.12847 0.0
H469 H 0.63944 0.56158 0.99251 0.0
H470 H 0.65866 0.55038 0.04643 0.0
H471 H 0.6387 0.56275 0.09149 0.0
C472 C 0.68646 0.50741 0.18224 0.0
C473 C 0.68772 0.52184 0.23711 0.0
C474 C 0.67002 0.50646 0.13579 0.0
C475 C 0.65459 0.52 0.14316 0.0
C476 C 0.65585 0.53432 0.19877 0.0
H477 H 0.5424 0.5346 0.91105 0.0
H478 H 0.57006 0.53738 0.99715 0.0
C479 C 0.6723 0.53526 0.24514 0.0
C480 C 0.63701 0.51878 0.09404 0.0
H481 H 0.60988 0.54449 0.96783 0.0
C482 C 0.62601 0.50138 0.09319 0.0
C483 C 0.63108 0.53452 0.04811 0.0
C484 C 0.64266 0.5533 0.04395 0.0
C485 C 0.60924 0.49936 0.04849 0.0
C486 C 0.60341 0.51502 0.00211 0.0
C487 C 0.61428 0.53249 0.00342 0.0
C488 C 0.58647 0.51331 0.95016 0.0
C489 C 0.59772 0.48053 0.05232 0.0
C490 C 0.58653 0.49906 0.89435 0.0
C491 C 0.57078 0.49744 0.84514 0.0
C492 C 0.55454 0.51012 0.8501 0.0
C493 C 0.55457 0.52454 0.90566 0.0
C494 C 0.57041 0.52617 0.95491 0.0
H495 H 0.60062 0.47246 0.10447 0.0
H496 H 0.58173 0.48335 0.048 0.0
H497 H 0.60209 0.47094 0.00568 0.0
H498 H 0.59889 0.48924 0.88832 0.0
H499 H 0.57141 0.48623 0.80293 0.0
H500 H 0.01841 0.70153 0.1356 0.0
H501 H 0.01953 0.67189 0.05871 0.0
H502 H 0.96998 0.64842 0.17733 0.0
H503 H 0.9687 0.67816 0.2533 0.0
H504 H 0.02483 0.6332 0.10095 0.0
H505 H 0.95266 0.64206 0.9636 0.0
H506 H 0.96432 0.66166 0.01393 0.0
H507 H 0.95158 0.64257 0.06263 0.0
C508 C 1.00771 0.69007 0.14473 0.0
C509 C 0.99338 0.69207 0.19973 0.0
C510 C 0.00836 0.67314 0.10097 0.0
C511 C 0.99463 0.65801 0.11129 0.0
C512 C 0.98044 0.66002 0.16704 0.0
H513 H 0.97787 0.54395 0.89732 0.0
H514 H 0.97554 0.57252 0.97905 0.0
C515 C 0.97978 0.67695 0.21069 0.0
C516 C 0.99551 0.63994 0.06516 0.0
H517 H 0.96925 0.61202 0.94344 0.0
C518 C 0.01269 0.62862 0.06634 0.0
C519 C 0.97964 0.63385 0.02026 0.0
C520 C 0.96106 0.64574 0.0143 0.0
C521 C 0.01438 0.61134 0.0245 0.0
C522 C 0.99859 0.60536 0.97901 0.0
C523 C 0.98133 0.61657 0.97838 0.0
C524 C 0.99999 0.58792 0.92977 0.0
C525 C 0.03297 0.59948 0.03037 0.0
C526 C 0.01429 0.58715 0.87415 0.0
C527 C 0.01566 0.57089 0.8275 0.0
C528 C 1.00266 0.55499 0.83491 0.0
C529 C 0.98816 0.55587 0.89015 0.0
C530 C 0.9868 0.57221 0.93689 0.0
H531 H 0.04106 0.60275 0.08218 0.0
H532 H 0.02981 0.58354 0.02844 0.0
H533 H 0.04271 0.60315 0.98328 0.0
H534 H 0.02435 0.59925 0.86636 0.0
H535 H 0.02693 0.57085 0.7854 0.0
H536 H 0.98481 0.26002 0.29851 0.0
H537 H 0.97039 0.24565 0.40984 0.0
H538 H 0.01451 0.2003 0.40618 0.0
H539 H 0.02956 0.21532 0.29932 0.0
H540 H 0.95273 0.21403 0.40752 0.0
H541 H 1.00788 0.20209 0.61932 0.0
H542 H 0.01193 0.21972 0.54649 0.0
H543 H 0.01962 0.1945 0.53598 0.0
C544 C 0.99192 0.24752 0.32375 0.0
C545 C 1.00809 0.23855 0.28948 0.0
C546 C 0.98361 0.23925 0.38723 0.0
C547 C 0.99131 0.22186 0.41716 0.0
C548 C 0.00846 0.21396 0.38619 0.0
H549 H 0.94736 0.11588 0.41337 0.0
H550 H 0.95118 0.15113 0.40979 0.0
C551 C 0.01689 0.22236 0.32379 0.0
C552 C 0.9796 0.20957 0.46866 0.0
H553 H 0.98735 0.17193 0.58826 0.0
C554 C 0.9601 0.20533 0.44922 0.0
C555 C 0.9885 0.19866 0.52603 0.0
C556 C 1.00807 0.20425 0.55851 0.0
C557 C 0.95064 0.18864 0.47668 0.0
C558 C 0.96125 0.17549 0.5219 0.0
C559 C 0.97942 0.18145 0.55079 0.0
C560 C 0.95578 0.15449 0.52769 0.0
C561 C 0.9298 0.18472 0.4532 0.0
C562 C 0.9574 0.14433 0.59486 0.0
C563 C 0.95596 0.1239 0.59649 0.0
C564 C 0.95279 0.11325 0.53097 0.0
C565 C 0.95009 0.12356 0.46465 0.0
C566 C 0.95185 0.14387 0.46287 0.0
H567 H 0.92125 0.19857 0.4528 0.0
H568 H 0.92969 0.17893 0.39595 0.0
H569 H 0.9224 0.17409 0.49028 0.0
H570 H 0.96063 0.15211 0.64551 0.0
H571 H 0.95836 0.11643 0.64849 0.0
H572 H 0.28264 0.95757 0.16932 0.0
H573 H 0.29967 0.94183 0.27065 0.0
H574 H 0.27188 0.9812 0.4249 0.0
H575 H 0.25585 0.998 0.32232 0.0
H576 H 0.30833 0.98557 0.43389 0.0
H577 H 0.29795 0.90618 0.43991 0.0
H578 H 0.3027 0.91265 0.34593 0.0
H579 H 0.28105 0.92199 0.39145 0.0
C580 C 0.27973 0.96255 0.22504 0.0
C581 C 0.26841 0.97941 0.23757 0.0
C582 C 0.28923 0.95326 0.28347 0.0
C583 C 0.28715 0.96027 0.35594 0.0
C584 C 0.27378 0.97553 0.3695 0.0
H585 H 0.39262 0.95391 0.63411 0.0
H586 H 0.35713 0.95225 0.61427 0.0
C587 C 0.26454 0.9851 0.31073 0.0
C588 C 0.30229 0.95513 0.41171 0.0
H589 H 0.33254 0.91753 0.46139 0.0
C590 C 0.31314 0.97061 0.44241 0.0
C591 C 0.30867 0.93565 0.42353 0.0
C592 C 0.29676 0.91824 0.39893 0.0
C593 C 0.33122 0.96733 0.47684 0.0
C594 C 0.33859 0.94802 0.4811 0.0
C595 C 0.32695 0.93235 0.457 0.0
C596 C 0.35943 0.94451 0.49884 0.0
C597 C 0.3431 0.98473 0.5023 0.0
C598 C 0.37237 0.93981 0.44133 0.0
C599 C 0.3926 0.94084 0.45227 0.0
C600 C 0.40019 0.94662 0.521 0.0
C601 C 0.38717 0.94982 0.5801 0.0
C602 C 0.36692 0.94874 0.5691 0.0
H603 H 0.33601 0.9989 0.48825 0.0
H604 H 0.34496 0.98409 0.56312 0.0
H605 H 0.35791 0.98444 0.47689 0.0
H606 H 0.36683 0.93661 0.38657 0.0
H607 H 0.4022 0.93838 0.40559 0.0
H608 H 0.50128 0.29599 0.29456 0.0
H609 H 0.51959 0.31272 0.39082 0.0
H610 H 0.56488 0.2687 0.37849 0.0
H611 H 0.54664 0.25219 0.27908 0.0
H612 H 0.53661 0.30688 0.52453 0.0
H613 H 0.59372 0.31656 0.30667 0.0
H614 H 0.57041 0.30556 0.28544 0.0
H615 H 0.58829 0.29223 0.33825 0.0
C616 C 0.51488 0.28958 0.31387 0.0
C617 C 0.52279 0.2731 0.27872 0.0
C618 C 0.52533 0.29909 0.36915 0.0
C619 C 0.54389 0.29227 0.39054 0.0
C620 C 0.55082 0.27448 0.36151 0.0
H621 H 0.58522 0.3978 0.62405 0.0
H622 H 0.58518 0.36207 0.6085 0.0
C623 C 0.54033 0.26496 0.30539 0.0
C624 C 0.55664 0.30581 0.43295 0.0
H625 H 0.5921 0.33991 0.39927 0.0
C626 C 0.54921 0.31375 0.49877 0.0
C627 C 0.57319 0.31465 0.39934 0.0
C628 C 0.58192 0.30694 0.32846 0.0
C629 C 0.5561 0.3317 0.52623 0.0
C630 C 0.5712 0.34158 0.48776 0.0
C631 C 0.5804 0.33231 0.42803 0.0
C632 C 0.57422 0.36294 0.49643 0.0
C633 C 0.54574 0.34093 0.59111 0.0
C634 C 0.56888 0.37523 0.43767 0.0
C635 C 0.56895 0.39547 0.44615 0.0
C636 C 0.5744 0.40397 0.51373 0.0
C637 C 0.58072 0.39168 0.57157 0.0
C638 C 0.58069 0.37129 0.56288 0.0
H639 H 0.53328 0.3319 0.61115 0.0
H640 H 0.55624 0.34284 0.63734 0.0
H641 H 0.54008 0.35563 0.57574 0.0
H642 H 0.56372 0.3691 0.386 0.0
H643 H 0.56367 0.40439 0.40086 0.0
H644 H 0.22539 0.50494 0.29317 0.0
H645 H 0.20985 0.5228 0.3936 0.0
H646 H 0.24677 0.57278 0.34921 0.0
H647 H 0.26217 0.55478 0.24656 0.0
H648 H 0.2191 0.54387 0.52156 0.0
H649 H 0.19244 0.59291 0.29582 0.0
H650 H 0.20562 0.57082 0.27379 0.0
H651 H 0.21825 0.59119 0.31467 0.0
C652 C 0.23062 0.5195 0.30651 0.0
C653 C 0.24472 0.52865 0.26215 0.0
C654 C 0.22182 0.5297 0.36402 0.0
C655 C 0.22688 0.54927 0.378 0.0
C656 C 0.24243 0.5578 0.33851 0.0
H657 H 0.11357 0.5912 0.53813 0.0
H658 H 0.14913 0.59667 0.52853 0.0
C659 C 0.2513 0.54751 0.28045 0.0
C660 C 0.21329 0.56097 0.42398 0.0
H661 H 0.17164 0.58755 0.3956 0.0
C662 C 0.20915 0.55415 0.49546 0.0
C663 C 0.20043 0.57466 0.39051 0.0
C664 C 0.20427 0.5829 0.3145 0.0
C665 C 0.1911 0.5582 0.52908 0.0
C666 C 0.17703 0.56932 0.49014 0.0
C667 C 0.18244 0.5788 0.42466 0.0
C668 C 0.15588 0.56645 0.5037 0.0
C669 C 0.18635 0.54877 0.60219 0.0
C670 C 0.14799 0.54785 0.49064 0.0
C671 C 0.12788 0.5448 0.49385 0.0
C672 C 0.11507 0.56026 0.51118 0.0
C673 C 0.12299 0.579 0.52428 0.0
C674 C 0.14329 0.58211 0.51985 0.0
H675 H 0.19977 0.54701 0.63629 0.0
H676 H 0.17541 0.55752 0.63344 0.0
H677 H 0.18014 0.53398 0.5923 0.0
H678 H 0.15741 0.53572 0.47539 0.0
H679 H 0.12238 0.53033 0.48105 0.0
H680 H 0.01818 0.75762 0.07812 0.0
H681 H 0.03366 0.77476 0.97499 0.0
H682 H 0.07629 0.79935 0.12467 0.0
H683 H 0.0617 0.78133 0.22623 0.0
H684 H 0.03002 0.81169 0.97704 0.0
H685 H 0.1089 0.79895 0.94567 0.0
H686 H 0.09341 0.78189 0.99471 0.0
H687 H 0.1041 0.80262 0.04176 0.0
C688 C 0.0315 0.76581 0.0882 0.0
C689 C 0.03847 0.76853 0.16049 0.0
C690 C 0.04031 0.7757 0.02919 0.0
C691 C 0.0561 0.78852 0.04174 0.0
C692 C 0.06439 0.78937 0.11264 0.0
H693 H 0.08021 0.90459 0.98507 0.0
H694 H 0.08251 0.86928 0.00597 0.0
C695 C 0.05581 0.77927 0.17122 0.0
C696 C 0.06063 0.80434 0.98794 0.0
H697 H 0.09811 0.83357 0.92858 0.0
C698 C 0.04492 0.81604 0.96409 0.0
C699 C 0.08003 0.81019 0.97096 0.0
C700 C 0.09749 0.79755 0.98913 0.0
C701 C 0.04807 0.83421 0.93033 0.0
C702 C 0.0675 0.84081 0.91931 0.0
C703 C 0.08324 0.82853 0.9378 0.0
C704 C 0.07134 0.86137 0.89823 0.0
C705 C 0.03056 0.8469 0.91223 0.0
C706 C 0.0653 0.86852 0.82932 0.0
C707 C 0.06386 0.88868 0.81744 0.0
C708 C 0.06858 0.90194 0.87416 0.0
C709 C 0.07652 0.89473 0.94036 0.0
C710 C 0.07785 0.87456 0.95233 0.0
H711 H 0.01661 0.84059 0.93311 0.0
H712 H 0.03239 0.86174 0.93625 0.0
H713 H 0.02931 0.84851 0.85144 0.0
H714 H 0.06038 0.85854 0.78671 0.0
H715 H 0.05797 0.89388 0.76543 0.0
H716 H 0.75553 0.0533 0.15374 0.0
H717 H 0.73836 0.06989 0.05196 0.0
H718 H 0.70858 0.01599 0.9991 0.0
H719 H 0.72562 0.99953 0.10037 0.0
H720 H 0.71703 0.04351 0.87141 0.0
H721 H 0.67938 0.07613 0.11602 0.0
H722 H 0.70546 0.07908 0.10675 0.0
H723 H 0.69543 0.05532 0.12565 0.0
C724 C 0.746 0.04487 0.11797 0.0
C725 C 0.74175 0.02524 0.13438 0.0
C726 C 0.7362 0.05433 0.06016 0.0
C727 C 0.72209 0.04417 0.0187 0.0
C728 C 0.71949 0.02403 0.03024 0.0
H729 H 0.61745 0.03494 0.80729 0.0
H730 H 0.65246 0.0363 0.83103 0.0
C731 C 0.72917 0.01465 0.08805 0.0
C732 C 0.70702 0.05476 0.97582 0.0
H733 H 0.66304 0.07704 0.00399 0.0
C734 C 0.70543 0.05137 0.89968 0.0
C735 C 0.69204 0.06517 0.01282 0.0
C736 C 0.69297 0.06916 0.09482 0.0
C737 C 0.68856 0.05697 0.86049 0.0
C738 C 0.67267 0.06551 0.89925 0.0
C739 C 0.6751 0.07043 0.97399 0.0
C740 C 0.65248 0.06646 0.86845 0.0
C741 C 0.68776 0.05306 0.77861 0.0
C742 C 0.64057 0.08293 0.88129 0.0
C743 C 0.62031 0.08193 0.87002 0.0
C744 C 0.6117 0.06456 0.84435 0.0
C745 C 0.62376 0.0486 0.82628 0.0
C746 C 0.64389 0.04946 0.83908 0.0
H747 H 0.70237 0.05554 0.75309 0.0
H748 H 0.68389 0.03748 0.76922 0.0
H749 H 0.67685 0.06251 0.75031 0.0
H750 H 0.64678 0.09621 0.90417 0.0
H751 H 0.6113 0.09445 0.88393 0.0
H752 H 0.52744 0.72028 0.11319 0.0
H753 H 0.51046 0.70337 0.01423 0.0
H754 H 0.46034 0.74118 0.04323 0.0
H755 H 0.47731 0.75785 0.14471 0.0
H756 H 0.45007 0.70541 0.06431 0.0
H757 H 0.49205 0.70459 0.80728 0.0
H758 H 0.50917 0.69997 0.88002 0.0
H759 H 0.49621 0.72304 0.87708 0.0
C760 C 0.5131 0.72548 0.09645 0.0
C761 C 0.50355 0.74013 0.137 0.0
C762 C 0.50344 0.71596 0.03908 0.0
C763 C 0.48409 0.72103 0.02063 0.0
C764 C 0.47529 0.73708 0.05616 0.0
H765 H 0.44721 0.61327 0.79868 0.0
H766 H 0.44659 0.64905 0.8126 0.0
C767 C 0.485 0.74663 0.11394 0.0
C768 C 0.47211 0.70669 0.97877 0.0
H769 H 0.47834 0.67182 0.84636 0.0
C770 C 0.45579 0.69854 0.01481 0.0
C771 C 0.47901 0.69789 0.91304 0.0
C772 C 0.49495 0.70706 0.86693 0.0
C773 C 0.44817 0.68039 0.99318 0.0
C774 C 0.45735 0.67006 0.93519 0.0
C775 C 0.47168 0.67948 0.89243 0.0
C776 C 0.45508 0.6486 0.92768 0.0
C777 C 0.4313 0.67181 0.03619 0.0
C778 C 0.46006 0.63657 0.98771 0.0
C779 C 0.46049 0.61629 0.97993 0.0
C780 C 0.45601 0.60761 0.9118 0.0
C781 C 0.4505 0.61961 0.85208 0.0
C782 C 0.45019 0.64 0.85982 0.0
H783 H 0.42133 0.68353 0.05604 0.0
H784 H 0.42276 0.66127 0.00237 0.0
H785 H 0.43708 0.66405 0.08547 0.0
H786 H 0.46439 0.6429 0.04007 0.0
H787 H 0.46472 0.60739 0.02684 0.0
H788 H 0.75199 0.47599 0.15936 0.0
H789 H 0.76789 0.45849 0.05686 0.0
H790 H 0.80559 0.5083 0.02014 0.0
H791 H 0.78955 0.52577 0.12047 0.0
H792 H 0.79694 0.48775 0.88966 0.0
H793 H 0.82184 0.438 0.11617 0.0
H794 H 0.79611 0.43991 0.09587 0.0
H795 H 0.80875 0.46022 0.1371 0.0
C796 C 0.76316 0.48339 0.12724 0.0
C797 C 0.76987 0.50203 0.14817 0.0
C798 C 0.7723 0.47336 0.06922 0.0
C799 C 0.78822 0.48193 0.03215 0.0
C800 C 0.79338 0.50137 0.04811 0.0
H801 H 0.89572 0.49498 0.91921 0.0
H802 H 0.86034 0.49261 0.92921 0.0
C803 C 0.7843 0.51133 0.10566 0.0
C804 C 0.80198 0.47028 0.98691 0.0
H805 H 0.84255 0.44208 0.01546 0.0
C806 C 0.80651 0.47712 0.91582 0.0
C807 C 0.81435 0.45619 0.02066 0.0
C808 C 0.81016 0.44809 0.09665 0.0
C809 C 0.82437 0.47233 0.88217 0.0
C810 C 0.8379 0.46051 0.92085 0.0
C811 C 0.83215 0.45135 0.98656 0.0
C812 C 0.8591 0.46161 0.90502 0.0
C813 C 0.82943 0.48142 0.80874 0.0
C814 C 0.8702 0.44483 0.88972 0.0
C815 C 0.89062 0.44617 0.8831 0.0
C816 C 0.9002 0.46426 0.89308 0.0
C817 C 0.88889 0.48092 0.90918 0.0
C818 C 0.8686 0.47961 0.91475 0.0
H819 H 0.81603 0.4839 0.7751 0.0
H820 H 0.83647 0.49585 0.81818 0.0
H821 H 0.83976 0.47206 0.77715 0.0
H822 H 0.8631 0.43074 0.88346 0.0
H823 H 0.89886 0.43308 0.86995 0.0
H824 H 0.04807 0.20436 0.09608 0.0
H825 H 0.04837 0.17358 0.02717 0.0
H826 H 0.99963 0.1938 0.89592 0.0
H827 H 0.99973 0.22494 0.96383 0.0
H828 H 0.01911 0.14795 0.03019 0.0
H829 H 0.03259 0.16845 0.7383 0.0
H830 H 0.03678 0.18523 0.81366 0.0
H831 H 0.01236 0.18124 0.77926 0.0
C832 C 0.03784 0.20246 0.05088 0.0
C833 C 0.024 0.21709 0.03479 0.0
C834 C 0.03793 0.18481 0.01178 0.0
C835 C 0.02409 0.18128 0.95588 0.0
C836 C 0.01075 0.19624 0.93753 0.0
H837 H 0.98773 0.07513 0.72682 0.0
H838 H 0.9915 0.10844 0.7736 0.0
C839 C 0.0108 0.21406 0.97633 0.0
C840 C 0.02246 0.16126 0.92306 0.0
H841 H 0.02221 0.13564 0.76067 0.0
C842 C 0.01997 0.14529 0.97124 0.0
C843 C 0.02333 0.1577 0.84605 0.0
C844 C 0.02659 0.17403 0.7913 0.0
C845 C 0.01819 0.12602 0.94489 0.0
C846 C 0.01924 0.12242 0.86805 0.0
C847 C 0.02153 0.13836 0.81961 0.0
C848 C 0.0176 0.10224 0.8372 0.0
C849 C 0.0147 0.10972 0.99965 0.0
C850 C 0.03121 0.08762 0.85625 0.0
C851 C 0.0291 0.06844 0.82967 0.0
C852 C 0.01333 0.06347 0.78321 0.0
C853 C 0.99998 0.07829 0.76293 0.0
C854 C 1.00214 0.09744 0.78941 0.0
H855 H 0.00931 0.11537 0.05347 0.0
H856 H 1.00389 0.09901 0.97799 0.0
H857 H 0.02868 0.10187 0.00978 0.0
H858 H 0.04348 0.09103 0.89195 0.0
H859 H 0.03973 0.0575 0.84604 0.0
H860 H 0.29584 0.04548 0.04795 0.0
H861 H 0.3275 0.0498 0.98466 0.0
H862 H 0.32584 0.98949 0.9148 0.0
H863 H 0.29443 0.98516 0.97797 0.0
H864 H 0.36142 0.02704 0.02261 0.0
H865 H 0.34305 0.01882 0.72614 0.0
H866 H 0.32493 0.02501 0.79509 0.0
H867 H 0.33287 1.00008 0.78424 0.0
C868 C 0.30197 0.03337 0.01698 0.0
C869 C 0.29261 0.01504 0.0172 0.0
C870 C 0.32011 0.03579 0.98139 0.0
C871 C 0.32901 0.02002 0.94438 0.0
C872 C 0.31917 1.00198 0.94177 0.0
H873 H 0.43818 0.98516 0.74936 0.0
H874 H 0.40471 0.98942 0.79349 0.0
C875 C 0.30121 0.9995 0.97791 0.0
C876 C 0.34935 0.02162 0.91483 0.0
H877 H 0.37676 0.01518 0.75876 0.0
C878 C 0.36479 0.02476 0.96472 0.0
C879 C 0.35375 0.01845 0.83945 0.0
C880 C 0.33778 0.01557 0.7829 0.0
C881 C 0.38452 0.02394 0.94199 0.0
C882 C 0.38897 0.02042 0.86668 0.0
C883 C 0.37345 0.01785 0.81645 0.0
C884 C 0.40956 0.01826 0.83946 0.0
C885 C 0.40036 0.02587 0.99971 0.0
C886 C 0.42358 0.03312 0.84963 0.0
C887 C 0.44294 0.03064 0.82501 0.0
C888 C 0.44865 0.01333 0.78868 0.0
C889 C 0.43444 0.99867 0.77734 0.0
C890 C 0.4152 1.0011 0.80242 0.0
H891 H 0.39461 0.02325 0.05627 0.0
H892 H 0.41251 0.01542 0.98926 0.0
H893 H 0.40641 0.04094 0.99804 0.0
H894 H 0.41955 0.04673 0.87624 0.0
H895 H 0.45338 0.04234 0.83397 0.0
H896 H 0.53505 0.29772 0.02506 0.0
H897 H 0.53309 0.32853 0.9564 0.0
H898 H 0.47014 0.3234 0.94872 0.0
H899 H 0.47213 0.29221 0.0167 0.0
H900 H 0.48685 0.33946 0.81706 0.0
H901 H 0.51408 0.37723 0.06776 0.0
H902 H 0.53007 0.35819 0.03567 0.0
H903 H 0.50599 0.35209 0.06885 0.0
C904 C 0.52083 0.30291 0.00698 0.0
C905 C 0.50374 0.2926 0.02619 0.0
C906 C 0.51971 0.32061 0.96835 0.0
C907 C 0.50144 0.32856 0.94897 0.0
C908 C 0.48439 0.31762 0.96352 0.0
H909 H 0.48546 0.45377 0.87244 0.0
H910 H 0.48345 0.42011 0.91785 0.0
C911 C 0.48553 0.29976 0.0019 0.0
C912 C 0.50022 0.34884 0.91863 0.0
H913 H 0.51204 0.39631 0.95858 0.0
C914 C 0.49227 0.35191 0.84803 0.0
C915 C 0.50697 0.36519 0.95954 0.0
C916 C 0.51458 0.3631 0.03744 0.0
C917 C 0.49136 0.37079 0.81659 0.0
C918 C 0.49889 0.38703 0.85635 0.0
C919 C 0.50641 0.38394 0.92762 0.0
C920 C 0.49914 0.40737 0.82575 0.0
C921 C 0.48204 0.37316 0.74158 0.0
C922 C 0.50869 0.41159 0.75883 0.0
C923 C 0.50972 0.43087 0.73237 0.0
C924 C 0.50149 0.44646 0.77276 0.0
C925 C 0.49197 0.44219 0.83979 0.0
C926 C 0.49081 0.4229 0.86588 0.0
H927 H 0.47183 0.36092 0.72916 0.0
H928 H 0.47386 0.38717 0.73753 0.0
H929 H 0.49367 0.37312 0.69874 0.0
H930 H 0.51575 0.40005 0.72769 0.0
H931 H 0.51734 0.43355 0.68089 0.0
H932 H 0.21369 0.53712 0.0202 0.0
H933 H 0.18213 0.5335 0.9577 0.0
H934 H 0.19094 0.47108 0.94547 0.0
H935 H 0.22286 0.47473 0.00763 0.0
H936 H 0.17286 0.48696 0.81756 0.0
H937 H 0.13516 0.51171 0.07176 0.0
H938 H 0.15308 0.52885 0.0389 0.0
H939 H 0.16076 0.50508 0.07046 0.0
C940 C 0.20908 0.52265 0.00291 0.0
C941 C 0.22071 0.50619 0.0192 0.0
C942 C 0.19095 0.52058 0.96772 0.0
C943 C 0.18386 0.50196 0.94862 0.0
C944 C 0.196 0.48559 0.96028 0.0
H945 H 0.05798 0.48343 0.87351 0.0
H946 H 0.09163 0.48158 0.92052 0.0
C947 C 0.21429 0.48768 0.99533 0.0
C948 C 0.16342 0.49971 0.92015 0.0
H949 H 0.11563 0.50967 0.96318 0.0
C950 C 0.16033 0.49179 0.84954 0.0
C951 C 0.14696 0.50565 0.96231 0.0
C952 C 0.14907 0.51311 0.04035 0.0
C953 C 0.14135 0.49029 0.81911 0.0
C954 C 0.12498 0.49721 0.85984 0.0
C955 C 0.12807 0.50452 0.93139 0.0
C956 C 0.10459 0.49742 0.82913 0.0
C957 C 0.13908 0.48109 0.7439 0.0
C958 C 0.10046 0.50707 0.7624 0.0
C959 C 0.08126 0.50799 0.7352 0.0
C960 C 0.06556 0.49956 0.77439 0.0
C961 C 0.06966 0.49005 0.8416 0.0
C962 C 0.08894 0.48898 0.86858 0.0
H963 H 0.1514 0.47098 0.73146 0.0
H964 H 0.12511 0.47283 0.73951 0.0
H965 H 0.13912 0.49276 0.70126 0.0
H966 H 0.11203 0.5143 0.73188 0.0
H967 H 0.0787 0.51577 0.68417 0.0
H968 H 0.97424 0.79405 0.36834 0.0
H969 H 0.97022 0.82588 0.43013 0.0
H970 H 0.03213 0.82716 0.47774 0.0
H971 H 0.03621 0.79564 0.41551 0.0
H972 H 0.97942 0.84189 0.57169 0.0
H973 H 0.02364 0.87601 0.34933 0.0
H974 H 0.01417 0.85141 0.3427 0.0
H975 H 0.03595 0.85628 0.39558 0.0
C976 C 0.98686 0.8009 0.39382 0.0
C977 C 1.00556 0.79245 0.38673 0.0
C978 C 0.98459 0.81914 0.42868 0.0
C979 C 1.00097 0.82915 0.45696 0.0
C980 C 0.01936 0.81996 0.45485 0.0
H981 H 1.00758 0.93423 0.72661 0.0
H982 H 1.00649 0.90077 0.68037 0.0
C983 C 0.02165 0.80188 0.41978 0.0
C984 C 0.99923 0.84968 0.48405 0.0
H985 H 0.01628 0.89601 0.45279 0.0
C986 C 0.9874 0.85375 0.54558 0.0
C987 C 0.00934 0.86526 0.44912 0.0
C988 C 0.02134 0.86212 0.38009 0.0
C989 C 0.98586 0.87287 0.57432 0.0
C990 C 0.99669 0.88829 0.54134 0.0
C991 C 1.0081 0.88424 0.47864 0.0
C992 C 0.9966 0.90872 0.57079 0.0
C993 C 0.9724 0.87637 0.63906 0.0
C994 C 0.99192 0.92456 0.52444 0.0
C995 C 0.99292 0.94386 0.55053 0.0
C996 C 0.99866 0.94781 0.62371 0.0
C997 C 1.00314 0.93188 0.67012 0.0
C998 C 1.0023 0.91261 0.64386 0.0
H999 H 0.96087 0.86492 0.64279 0.0
H1000 H 0.98107 0.87587 0.69088 0.0
H1001 H 0.9652 0.89092 0.63525 0.0
H1002 H 0.98759 0.92201 0.46771 0.0
H1003 H 0.98935 0.95568 0.51298 0.0
H1004 H 0.70722 0.03585 0.35763 0.0
H1005 H 0.67707 0.03244 0.42832 0.0
H1006 H 0.69457 0.97446 0.49591 0.0
H1007 H 0.72471 0.97756 0.42232 0.0
H1008 H 0.6578 0.97433 0.44545 0.0
H1009 H 0.66431 0.03537 0.64335 0.0
H1010 H 0.66801 0.04377 0.55069 0.0
H1011 H 0.68497 0.02654 0.59075 0.0
C1012 C 0.7048 0.02242 0.38815 0.0
C1013 C 0.71835 1.00691 0.38382 0.0
C1014 C 0.68759 0.02058 0.42941 0.0
C1015 C 0.68355 1.0033 0.46854 0.0
C1016 C 0.69738 0.988 0.46659 0.0
H1017 H 0.57713 1.00097 0.74127 0.0
H1018 H 0.61117 0.99992 0.69997 0.0
C1019 C 0.71468 0.98983 0.42497 0.0
C1020 C 0.66415 1.00078 0.5056 0.0
H1021 H 0.63159 0.02374 0.61997 0.0
C1022 C 0.65219 0.98499 0.48447 0.0
C1023 C 0.65681 0.01445 0.55753 0.0
C1024 C 0.6693 0.03085 0.58751 0.0
C1025 C 0.63291 0.98298 0.51113 0.0
C1026 C 0.62507 0.99749 0.55868 0.0
C1027 C 0.63734 0.01278 0.58245 0.0
C1028 C 0.60419 0.99727 0.58378 0.0
C1029 C 0.62127 0.96521 0.48831 0.0
C1030 C 0.58872 0.9963 0.5325 0.0
C1031 C 0.56915 0.99662 0.55611 0.0
C1032 C 0.56456 0.99831 0.63156 0.0
C1033 C 0.58006 0.99952 0.68275 0.0
C1034 C 0.5996 0.99898 0.65916 0.0
H1035 H 0.63105 0.95273 0.47447 0.0
H1036 H 0.61103 0.9605 0.53254 0.0
H1037 H 0.61262 0.96875 0.43815 0.0
H1038 H 0.59175 0.99566 0.47387 0.0
H1039 H 0.55764 0.99597 0.51503 0.0
H1040 H 0.54431 0.70304 0.31332 0.0
H1041 H 0.54446 0.6726 0.38469 0.0
H1042 H 0.50447 0.69818 0.54165 0.0
H1043 H 0.50419 0.72878 0.46973 0.0
H1044 H 0.55281 0.66315 0.53687 0.0
H1045 H 0.47504 0.64943 0.45999 0.0
H1046 H 0.48987 0.66757 0.41379 0.0
H1047 H 0.48023 0.67242 0.50416 0.0
C1048 C 0.53584 0.70231 0.36388 0.0
C1049 C 0.52417 0.71827 0.38579 0.0
C1050 C 0.53593 0.6849 0.40459 0.0
C1051 C 0.52421 0.68295 0.46782 0.0
C1052 C 0.51341 0.69925 0.49241 0.0
H1053 H 0.4926 0.57512 0.70277 0.0
H1054 H 0.49572 0.60929 0.6642 0.0
C1055 C 0.51342 0.71679 0.45181 0.0
C1056 C 0.52248 0.66347 0.50447 0.0
H1057 H 0.49078 0.62532 0.5309 0.0
C1058 C 0.53922 0.65492 0.53609 0.0
C1059 C 0.50475 0.6527 0.50338 0.0
C1060 C 0.48643 0.66085 0.46812 0.0
C1061 C 0.53872 0.63593 0.56649 0.0
C1062 C 0.52112 0.62492 0.56345 0.0
C1063 C 0.50428 0.63367 0.53321 0.0
C1064 C 0.51991 0.60416 0.58937 0.0
C1065 C 0.55703 0.62798 0.6023 0.0
C1066 C 0.53236 0.58972 0.55999 0.0
C1067 C 0.53069 0.57012 0.58229 0.0
C1068 C 0.51632 0.56441 0.63377 0.0
C1069 C 0.50382 0.5789 0.66291 0.0
C1070 C 0.50559 0.5985 0.64092 0.0
H1071 H 0.5668 0.63998 0.62135 0.0
H1072 H 0.55346 0.61848 0.65022 0.0
H1073 H 0.56528 0.61916 0.56135 0.0
H1074 H 0.54317 0.59352 0.51864 0.0
H1075 H 0.54046 0.5594 0.55815 0.0
H1076 H 0.78376 0.5037 0.47415 0.0
H1077 H 0.81524 0.5043 0.54073 0.0
H1078 H 0.8374 0.54692 0.38617 0.0
H1079 H 0.80614 0.54631 0.31998 0.0
H1080 H 0.8511 0.49374 0.47186 0.0
H1081 H 0.85595 0.56888 0.58557 0.0
H1082 H 0.833 0.55797 0.55748 0.0
H1083 H 0.84941 0.56797 0.48957 0.0
C1084 C 0.79513 0.51369 0.45615 0.0
C1085 C 0.79242 0.52513 0.39242 0.0
C1086 C 0.81318 0.5139 0.49374 0.0
C1087 C 0.82871 0.52578 0.46895 0.0
C1088 C 0.82561 0.53791 0.4074 0.0
H1089 H 0.95373 0.54009 0.54968 0.0
H1090 H 0.91949 0.54284 0.50984 0.0
C1091 C 0.80772 0.53755 0.36954 0.0
C1092 C 0.84873 0.5241 0.50193 0.0
H1093 H 0.88572 0.55059 0.58136 0.0
C1094 C 0.85859 0.5061 0.49669 0.0
C1095 C 0.85864 0.54028 0.53343 0.0
C1096 C 0.84868 0.55984 0.54256 0.0
C1097 C 0.87819 0.50398 0.51981 0.0
C1098 C 0.88818 0.52019 0.55119 0.0
C1099 C 0.8782 0.53814 0.55733 0.0
C1100 C 0.909 0.51883 0.57718 0.0
C1101 C 0.88821 0.48455 0.5074 0.0
C1102 C 0.91461 0.50469 0.62942 0.0
C1103 C 0.93422 0.5029 0.65142 0.0
C1104 C 0.94876 0.5155 0.62312 0.0
C1105 C 0.94302 0.53008 0.57254 0.0
C1106 C 0.92339 0.5317 0.5498 0.0
H1107 H 0.8808 0.47589 0.46361 0.0
H1108 H 0.90379 0.48656 0.49154 0.0
H1109 H 0.88767 0.47587 0.55915 0.0
H1110 H 0.90382 0.49494 0.65329 0.0
H1111 H 0.93795 0.49156 0.69075 0.0
loop_
_geom_bond_atom_site_label_1
_geom_bond_atom_site_label_2
_geom_bond_distance
_geom_bond_site_symmetry_2
_ccdc_geom_bond_type
H0 C3 0.929 . S
H1 C6 0.929 . S
H2 C8 0.930 . S
C3 H0 0.929 . S
C3 C4 1.398 . S
C3 C5 1.396 . S
C4 C3 1.398 . S
C4 C8 1.407 . S
C5 C3 1.396 . S
C5 C6 1.394 . S
C6 H1 0.929 . S
C6 C5 1.394 . S
C6 C7 1.382 . S
C7 C6 1.382 . S
C7 C8 1.392 . S
C7 N9 1.420 . S
C8 H2 0.930 . S
C8 C4 1.407 . S
C8 C7 1.392 . S
N9 C7 1.420 . S
N9 C10 1.244 . S
C10 N9 1.244 . S
H11 C14 0.929 . S
H12 C17 0.929 . S
H13 C19 0.930 . S
C14 H11 0.929 . S
C14 C15 1.396 1_655 S
C14 C16 1.395 1_655 S
C15 C14 1.396 1_455 S
C15 C19 1.413 . S
C16 C14 1.395 1_455 S
C16 C17 1.396 . S
C17 H12 0.929 . S
C17 C16 1.396 . S
C17 C18 1.382 . S
C18 C17 1.382 . S
C18 C19 1.392 . S
C18 N20 1.420 . S
C19 H13 0.930 . S
C19 C15 1.413 . S
C19 C18 1.392 . S
N20 C18 1.420 . S
N20 C21 1.232 1_455 S
C21 N20 1.232 1_655 S
H22 C25 0.929 . S
H23 C28 0.929 . S
H24 C30 0.930 . S
C25 H22 0.929 . S
C25 C26 1.395 1_565 S
C25 C27 1.395 1_565 S
C26 C25 1.395 1_545 S
C26 C30 1.413 . S
C27 C25 1.395 1_545 S
C27 C28 1.396 . S
C28 H23 0.929 . S
C28 C27 1.396 . S
C28 C29 1.382 . S
C29 C28 1.382 . S
C29 C30 1.392 . S
C29 N31 1.420 . S
C30 H24 0.930 . S
C30 C26 1.413 . S
C30 C29 1.392 . S
N31 C29 1.420 . S
N31 C32 1.232 1_545 S
C32 N31 1.232 1_565 S
H33 C36 0.929 . S
H34 C39 0.929 . S
H35 C41 0.930 . S
C36 H33 0.929 . S
C36 C37 1.398 . S
C36 C38 1.396 . S
C37 C36 1.398 . S
C37 C41 1.407 . S
C38 C36 1.396 . S
C38 C39 1.394 . S
C39 H34 0.929 . S
C39 C38 1.394 . S
C39 C40 1.382 . S
C40 C39 1.382 . S
C40 C41 1.392 . S
C40 N42 1.420 . S
C41 H35 0.930 . S
C41 C37 1.407 . S
C41 C40 1.392 . S
N42 C40 1.420 . S
N42 C43 1.244 . S
C43 N42 1.244 . S
H44 C47 0.929 . S
H45 C50 0.929 . S
H46 C52 0.930 . S
C47 H44 0.929 . S
C47 C48 1.398 1_554 S
C47 C49 1.396 . S
C48 C47 1.398 1_556 S
C48 C52 1.407 . S
C49 C47 1.396 . S
C49 C50 1.394 . S
C50 H45 0.929 . S
C50 C49 1.394 . S
C50 C51 1.382 . S
C51 C50 1.382 . S
C51 C52 1.392 1_554 S
C51 N53 1.420 . S
C52 H46 0.930 . S
C52 C48 1.407 . S
C52 C51 1.392 1_556 S
N53 C51 1.420 . S
N53 C54 1.244 . S
C54 N53 1.244 . S
H55 C58 0.929 . S
H56 C61 0.929 . S
H57 C63 0.930 . S
C58 H55 0.929 . S
C58 C59 1.394 1_654 S
C58 C60 1.394 1_655 S
C59 C58 1.394 1_456 S
C59 C63 1.416 . S
C60 C58 1.394 1_455 S
C60 C61 1.398 . S
C61 H56 0.929 . S
C61 C60 1.398 . S
C61 C62 1.382 . S
C62 C61 1.382 . S
C62 C63 1.392 1_554 S
C62 N64 1.420 . S
C63 H57 0.930 . S
C63 C59 1.416 . S
C63 C62 1.392 1_556 S
N64 C62 1.420 . S
N64 C65 1.238 1_455 S
C65 N64 1.238 1_655 S
H66 C69 0.929 . S
H67 C72 0.929 . S
H68 C74 0.930 . S
C69 H66 0.929 . S
C69 C70 1.394 1_564 S
C69 C71 1.394 1_565 S
C70 C69 1.394 1_546 S
C70 C74 1.416 . S
C71 C69 1.394 1_545 S
C71 C72 1.398 . S
C72 H67 0.929 . S
C72 C71 1.398 . S
C72 C73 1.382 . S
C73 C72 1.382 . S
C73 C74 1.392 1_554 S
C73 N75 1.420 . S
C74 H68 0.930 . S
C74 C70 1.416 . S
C74 C73 1.392 1_556 S
N75 C73 1.420 . S
N75 C76 1.238 1_545 S
C76 N75 1.238 1_565 S
H77 C80 0.929 . S
H78 C83 0.929 . S
H79 C85 0.930 . S
C80 H77 0.929 . S
C80 C81 1.398 1_554 S
C80 C82 1.396 . S
C81 C80 1.398 1_556 S
C81 C85 1.407 . S
C82 C80 1.396 . S
C82 C83 1.394 . S
C83 H78 0.929 . S
C83 C82 1.394 . S
C83 C84 1.382 . S
C84 C83 1.382 . S
C84 C85 1.392 1_554 S
C84 N86 1.420 . S
C85 H79 0.930 . S
C85 C81 1.407 . S
C85 C84 1.392 1_556 S
N86 C84 1.420 . S
N86 C87 1.244 . S
C87 N86 1.244 . S
Tb88 C98 2.825 . S
Tb88 O99 2.347 1_455 S
Tb88 O102 2.366 . S
Tb88 O107 2.418 . S
Tb88 O108 2.384 1_565 S
Tb88 O111 2.479 . S
Tb88 O112 2.471 . S
Eu89 O100 2.418 . S
Eu89 O101 2.384 1_545 S
Eu89 O104 2.479 . S
Eu89 O105 2.471 . S
Eu89 O106 2.347 1_655 S
Eu89 O109 2.366 . S
Eu89 C119 2.825 . S
C90 O106 1.259 1_565 S
C90 O107 1.265 . S
C91 O108 1.255 . S
C91 O109 1.265 1_455 S
C92 C94 1.380 . S
C92 C95 1.374 . S
C92 C98 1.507 . S
C93 C94 1.384 . S
C93 C97 1.387 . S
C93 H120 0.930 . S
C94 C92 1.380 . S
C94 C93 1.384 . S
C94 H121 0.931 . S
C95 C92 1.374 . S
C95 C96 1.390 . S
C95 H122 0.930 1_455 S
C96 C95 1.390 . S
C96 C97 1.391 . S
C96 H123 0.930 1_455 S
C97 C93 1.387 . S
C97 C96 1.391 . S
C98 Tb88 2.825 . S
C98 C92 1.507 . S
C98 O111 1.238 . S
C98 O112 1.247 . S
O99 Tb88 2.347 1_655 S
O99 C103 1.259 1_565 S
O100 Eu89 2.418 . S
O100 C103 1.265 . S
O101 Eu89 2.384 1_565 S
O101 C110 1.255 . S
O102 Tb88 2.366 . S
O102 C110 1.265 1_455 S
C103 O99 1.259 1_545 S
C103 O100 1.265 . S
O104 Eu89 2.479 . S
O104 C119 1.238 . S
O105 Eu89 2.471 . S
O105 C119 1.247 . S
O106 Eu89 2.347 1_455 S
O106 C90 1.259 1_545 S
O107 Tb88 2.418 . S
O107 C90 1.265 . S
O108 Tb88 2.384 1_545 S
O108 C91 1.255 . S
O109 Eu89 2.366 . S
O109 C91 1.265 1_655 S
C110 O101 1.255 . S
C110 O102 1.265 1_655 S
O111 Tb88 2.479 . S
O111 C98 1.238 . S
O112 Tb88 2.471 . S
O112 C98 1.247 . S
C113 C116 1.380 . S
C113 C117 1.374 . S
C113 C119 1.507 . S
C114 C115 1.387 . S
C114 C118 1.391 . S
C115 C114 1.387 . S
C115 C116 1.384 . S
C115 H124 0.930 . S
C116 C113 1.380 . S
C116 C115 1.384 . S
C116 H125 0.931 . S
C117 C113 1.374 . S
C117 C118 1.390 . S
C117 H126 0.930 1_655 S
C118 C114 1.391 . S
C118 C117 1.390 . S
C118 H127 0.930 1_655 S
C119 Eu89 2.825 . S
C119 O104 1.238 . S
C119 O105 1.247 . S
C119 C113 1.507 . S
H120 C93 0.930 . S
H121 C94 0.931 . S
H122 C95 0.930 1_655 S
H123 C96 0.930 1_655 S
H124 C115 0.930 . S
H125 C116 0.931 . S
H126 C117 0.930 1_455 S
H127 C118 0.930 1_455 S
Tb128 C138 2.825 . S
Tb128 O139 2.347 1_545 S
Tb128 O142 2.366 . S
Tb128 O147 2.418 . S
Tb128 O148 2.384 . S
Tb128 O151 2.479 . S
Tb128 O152 2.471 . S
Eu129 O140 2.418 . S
Eu129 O141 2.384 . S
Eu129 O144 2.479 . S
Eu129 O145 2.471 . S
Eu129 O146 2.347 1_565 S
Eu129 O149 2.366 . S
Eu129 C159 2.825 . S
C130 O146 1.259 . S
C130 O147 1.265 . S
C131 O148 1.255 . S
C131 O149 1.265 1_545 S
C132 C134 1.380 . S
C132 C135 1.374 . S
C132 C138 1.507 . S
C133 C134 1.384 . S
C133 C137 1.387 . S
C133 H160 0.930 . S
C134 C132 1.380 . S
C134 C133 1.384 . S
C134 H161 0.931 . S
C135 C132 1.374 . S
C135 C136 1.390 . S
C135 H162 0.930 1_545 S
C136 C135 1.390 . S
C136 C137 1.391 . S
C136 H163 0.930 1_545 S
C137 C133 1.387 . S
C137 C136 1.391 . S
C138 Tb128 2.825 . S
C138 C132 1.507 . S
C138 O151 1.238 . S
C138 O152 1.247 . S
O139 Tb128 2.347 1_565 S
O139 C143 1.259 . S
O140 Eu129 2.418 . S
O140 C143 1.265 . S
O141 Eu129 2.384 . S
O141 C150 1.255 . S
O142 Tb128 2.366 . S
O142 C150 1.265 1_545 S
C143 O139 1.259 . S
C143 O140 1.265 . S
O144 Eu129 2.479 . S
O144 C159 1.238 . S
O145 Eu129 2.471 . S
O145 C159 1.247 . S
O146 Eu129 2.347 1_545 S
O146 C130 1.259 . S
O147 Tb128 2.418 . S
O147 C130 1.265 . S
O148 Tb128 2.384 . S
O148 C131 1.255 . S
O149 Eu129 2.366 . S
O149 C131 1.265 1_565 S
C150 O141 1.255 . S
C150 O142 1.265 1_565 S
O151 Tb128 2.479 . S
O151 C138 1.238 . S
O152 Tb128 2.471 . S
O152 C138 1.247 . S
C153 C156 1.380 . S
C153 C157 1.374 . S
C153 C159 1.507 . S
C154 C155 1.387 . S
C154 C158 1.391 . S
C155 C154 1.387 . S
C155 C156 1.384 . S
C155 H164 0.930 . S
C156 C153 1.380 . S
C156 C155 1.384 . S
C156 H165 0.931 . S
C157 C153 1.374 . S
C157 C158 1.390 . S
C157 H166 0.930 1_565 S
C158 C154 1.391 . S
C158 C157 1.390 . S
C158 H167 0.930 1_565 S
C159 Eu129 2.825 . S
C159 O144 1.238 . S
C159 O145 1.247 . S
C159 C153 1.507 . S
H160 C133 0.930 . S
H161 C134 0.931 . S
H162 C135 0.930 1_565 S
H163 C136 0.930 1_565 S
H164 C155 0.930 . S
H165 C156 0.931 . S
H166 C157 0.930 1_545 S
H167 C158 0.930 1_545 S
Tb168 C178 2.825 . S
Tb168 O179 2.347 . S
Tb168 O182 2.366 . S
Tb168 O187 2.418 . S
Tb168 O188 2.384 . S
Tb168 O191 2.479 . S
Tb168 O192 2.471 . S
Eu169 O180 2.418 . S
Eu169 O181 2.384 . S
Eu169 O184 2.479 . S
Eu169 O185 2.471 . S
Eu169 O186 2.347 . S
Eu169 O189 2.366 . S
Eu169 C199 2.825 . S
C170 O186 1.259 . S
C170 O187 1.265 . S
C171 O188 1.255 . S
C171 O189 1.265 . S
C172 C174 1.380 . S
C172 C175 1.374 . S
C172 C178 1.507 . S
C173 C174 1.384 . S
C173 C177 1.387 . S
C173 H200 0.930 . S
C174 C172 1.380 . S
C174 C173 1.384 . S
C174 H201 0.931 . S
C175 C172 1.374 . S
C175 C176 1.390 . S
C175 H202 0.930 . S
C176 C175 1.390 . S
C176 C177 1.391 . S
C176 H203 0.930 . S
C177 C173 1.387 . S
C177 C176 1.391 . S
C178 Tb168 2.825 . S
C178 C172 1.507 . S
C178 O191 1.238 . S
C178 O192 1.247 . S
O179 Tb168 2.347 . S
O179 C183 1.259 . S
O180 Eu169 2.418 . S
O180 C183 1.265 . S
O181 Eu169 2.384 . S
O181 C190 1.255 . S
O182 Tb168 2.366 . S
O182 C190 1.265 . S
C183 O179 1.259 . S
C183 O180 1.265 . S
O184 Eu169 2.479 . S
O184 C199 1.238 . S
O185 Eu169 2.471 . S
O185 C199 1.247 . S
O186 Eu169 2.347 . S
O186 C170 1.259 . S
O187 Tb168 2.418 . S
O187 C170 1.265 . S
O188 Tb168 2.384 . S
O188 C171 1.255 . S
O189 Eu169 2.366 . S
O189 C171 1.265 . S
C190 O181 1.255 . S
C190 O182 1.265 . S
O191 Tb168 2.479 . S
O191 C178 1.238 . S
O192 Tb168 2.471 . S
O192 C178 1.247 . S
C193 C196 1.380 . S
C193 C197 1.374 . S
C193 C199 1.507 . S
C194 C195 1.387 . S
C194 C198 1.391 . S
C195 C194 1.387 . S
C195 C196 1.384 . S
C195 H204 0.930 . S
C196 C193 1.380 . S
C196 C195 1.384 . S
C196 H205 0.931 . S
C197 C193 1.374 . S
C197 C198 1.390 . S
C197 H206 0.930 . S
C198 C194 1.391 . S
C198 C197 1.390 . S
C198 H207 0.930 . S
C199 Eu169 2.825 . S
C199 O184 1.238 . S
C199 O185 1.247 . S
C199 C193 1.507 . S
H200 C173 0.930 . S
H201 C174 0.931 . S
H202 C175 0.930 . S
H203 C176 0.930 . S
H204 C195 0.930 . S
H205 C196 0.931 . S
H206 C197 0.930 . S
H207 C198 0.930 . S
Tb208 C218 2.825 . S
Tb208 O219 2.347 . S
Tb208 O222 2.366 . S
Tb208 O227 2.418 . S
Tb208 O228 2.384 1_655 S
Tb208 O231 2.479 . S
Tb208 O232 2.471 . S
Eu209 O220 2.418 . S
Eu209 O221 2.384 1_455 S
Eu209 O224 2.479 . S
Eu209 O225 2.471 . S
Eu209 O226 2.347 . S
Eu209 O229 2.366 . S
Eu209 C239 2.825 . S
C210 O226 1.259 1_655 S
C210 O227 1.265 . S
C211 O228 1.255 . S
C211 O229 1.265 . S
C212 C214 1.380 . S
C212 C215 1.374 . S
C212 C218 1.507 . S
C213 C214 1.384 . S
C213 C217 1.387 . S
C213 H240 0.930 . S
C214 C212 1.380 . S
C214 C213 1.384 . S
C214 H241 0.931 . S
C215 C212 1.374 . S
C215 C216 1.390 . S
C215 H242 0.930 . S
C216 C215 1.390 . S
C216 C217 1.391 . S
C216 H243 0.930 . S
C217 C213 1.387 . S
C217 C216 1.391 . S
C218 Tb208 2.825 . S
C218 C212 1.507 . S
C218 O231 1.238 . S
C218 O232 1.247 . S
O219 Tb208 2.347 . S
O219 C223 1.259 1_655 S
O220 Eu209 2.418 . S
O220 C223 1.265 . S
O221 Eu209 2.384 1_655 S
O221 C230 1.255 . S
O222 Tb208 2.366 . S
O222 C230 1.265 . S
C223 O219 1.259 1_455 S
C223 O220 1.265 . S
O224 Eu209 2.479 . S
O224 C239 1.238 . S
O225 Eu209 2.471 . S
O225 C239 1.247 . S
O226 Eu209 2.347 . S
O226 C210 1.259 1_455 S
O227 Tb208 2.418 . S
O227 C210 1.265 . S
O228 Tb208 2.384 1_455 S
O228 C211 1.255 . S
O229 Eu209 2.366 . S
O229 C211 1.265 . S
C230 O221 1.255 . S
C230 O222 1.265 . S
O231 Tb208 2.479 . S
O231 C218 1.238 . S
O232 Tb208 2.471 . S
O232 C218 1.247 . S
C233 C236 1.380 . S
C233 C237 1.374 . S
C233 C239 1.507 . S
C234 C235 1.387 . S
C234 C238 1.391 . S
C235 C234 1.387 . S
C235 C236 1.384 . S
C235 H244 0.930 . S
C236 C233 1.380 . S
C236 C235 1.384 . S
C236 H245 0.931 . S
C237 C233 1.374 . S
C237 C238 1.390 . S
C237 H246 0.930 . S
C238 C234 1.391 . S
C238 C237 1.390 . S
C238 H247 0.930 . S
C239 Eu209 2.825 . S
C239 O224 1.238 . S
C239 O225 1.247 . S
C239 C233 1.507 . S
H240 C213 0.930 . S
H241 C214 0.931 . S
H242 C215 0.930 . S
H243 C216 0.930 . S
H244 C235 0.930 . S
H245 C236 0.931 . S
H246 C237 0.930 . S
H247 C238 0.930 . S
H248 C256 0.929 . S
H249 C258 0.930 . S
H250 C260 0.930 . S
H251 C263 0.929 . S
H252 C266 0.930 . S
H253 C268 0.960 . S
H254 C268 0.960 . S
H255 C268 0.960 . S
C256 H248 0.929 . S
C256 C257 1.385 . S
C256 C258 1.384 . S
C257 C256 1.385 . S
C257 C263 1.383 1_545 S
C258 H249 0.930 . S
C258 C256 1.384 . S
C258 C259 1.387 . S
C259 C258 1.387 . S
C259 C260 1.386 1_545 S
C259 C264 1.490 . S
C260 H250 0.930 . S
C260 C259 1.386 1_565 S
C260 C263 1.386 . S
H261 C277 0.930 . S
H262 C278 0.931 . S
C263 H251 0.929 . S
C263 C257 1.383 1_565 S
C263 C260 1.386 . S
C264 C259 1.490 . S
C264 C266 1.382 1_545 S
C264 C267 1.415 . S
H265 C271 0.930 . S
C266 H252 0.930 . S
C266 C264 1.382 1_565 S
C266 C269 1.403 . S
C267 C264 1.415 . S
C267 C268 1.524 . S
C267 C271 1.400 . S
C268 H253 0.960 . S
C268 H254 0.960 . S
C268 H255 0.960 . S
C268 C267 1.524 . S
C269 C266 1.403 . S
C269 C270 1.392 . S
C269 C273 1.495 . S
C270 C269 1.392 . S
C270 C271 1.385 1_565 S
C270 C272 1.478 . S
C271 H265 0.930 . S
C271 C267 1.400 . S
C271 C270 1.385 1_545 S
C272 C270 1.478 . S
C272 C274 1.381 1_565 S
C272 C278 1.383 . S
C273 C269 1.495 . S
C273 H279 0.959 . S
C273 H280 0.961 . S
C273 H281 0.960 . S
C274 C272 1.381 1_545 S
C274 C275 1.394 . S
C274 H282 0.930 . S
C275 C274 1.394 . S
C275 C276 1.376 1_545 S
C275 H283 0.929 . S
C276 C275 1.376 1_565 S
C276 C277 1.385 . S
C277 H261 0.930 . S
C277 C276 1.385 . S
C277 C278 1.379 . S
C278 H262 0.931 . S
C278 C272 1.383 . S
C278 C277 1.379 . S
H279 C273 0.959 . S
H280 C273 0.961 . S
H281 C273 0.960 . S
H282 C274 0.930 . S
H283 C275 0.929 . S
H284 C292 0.929 . S
H285 C294 0.930 . S
H286 C296 0.930 . S
H287 C299 0.929 . S
H288 C302 0.930 . S
H289 C304 0.960 . S
H290 C304 0.960 . S
H291 C304 0.960 . S
C292 H284 0.929 . S
C292 C293 1.377 . S
C292 C294 1.384 . S
C293 C292 1.377 . S
C293 C299 1.390 . S
C294 H285 0.930 . S
C294 C292 1.384 . S
C294 C295 1.372 . S
C295 C294 1.372 . S
C295 C296 1.400 . S
C295 C300 1.490 . S
C296 H286 0.930 . S
C296 C295 1.400 . S
C296 C299 1.386 . S
H297 C313 0.930 . S
H298 C314 0.931 . S
C299 H287 0.929 . S
C299 C293 1.390 . S
C299 C296 1.386 . S
C300 C295 1.490 . S
C300 C302 1.395 . S
C300 C303 1.403 . S
H301 C307 0.930 . S
C302 H288 0.930 . S
C302 C300 1.395 . S
C302 C305 1.403 . S
C303 C300 1.403 . S
C303 C304 1.524 . S
C303 C307 1.400 . S
C304 H289 0.960 . S
C304 H290 0.960 . S
C304 H291 0.960 . S
C304 C303 1.524 . S
C305 C302 1.403 . S
C305 C306 1.392 . S
C305 C309 1.495 . S
C306 C305 1.392 . S
C306 C307 1.385 . S
C306 C308 1.478 . S
C307 H301 0.930 . S
C307 C303 1.400 . S
C307 C306 1.385 . S
C308 C306 1.478 . S
C308 C310 1.381 . S
C308 C314 1.383 . S
C309 C305 1.495 . S
C309 H315 0.959 . S
C309 H316 0.961 . S
C309 H317 0.960 . S
C310 C308 1.381 . S
C310 C311 1.394 . S
C310 H318 0.930 . S
C311 C310 1.394 . S
C311 C312 1.383 . S
C311 H319 0.929 . S
C312 C311 1.383 . S
C312 C313 1.377 . S
C313 H297 0.930 . S
C313 C312 1.377 . S
C313 C314 1.379 . S
C314 H298 0.931 . S
C314 C308 1.383 . S
C314 C313 1.379 . S
H315 C309 0.959 . S
H316 C309 0.961 . S
H317 C309 0.960 . S
H318 C310 0.930 . S
H319 C311 0.929 . S
H320 C328 0.929 . S
H321 C330 0.930 . S
H322 C332 0.930 . S
H323 C335 0.929 . S
H324 C338 0.930 . S
H325 C340 0.960 . S
H326 C340 0.960 . S
H327 C340 0.960 . S
C328 H320 0.929 . S
C328 C329 1.377 . S
C328 C330 1.384 . S
C329 C328 1.377 . S
C329 C335 1.390 . S
C330 H321 0.930 . S
C330 C328 1.384 . S
C330 C331 1.372 . S
C331 C330 1.372 . S
C331 C332 1.400 . S
C331 C336 1.490 . S
C332 H322 0.930 . S
C332 C331 1.400 . S
C332 C335 1.386 . S
H333 C349 0.930 . S
H334 C350 0.931 . S
C335 H323 0.929 . S
C335 C329 1.390 . S
C335 C332 1.386 . S
C336 C331 1.490 . S
C336 C338 1.395 . S
C336 C339 1.403 . S
H337 C343 0.930 . S
C338 H324 0.930 . S
C338 C336 1.395 . S
C338 C341 1.403 . S
C339 C336 1.403 . S
C339 C340 1.524 . S
C339 C343 1.400 . S
C340 H325 0.960 . S
C340 H326 0.960 . S
C340 H327 0.960 . S
C340 C339 1.524 . S
C341 C338 1.403 . S
C341 C342 1.392 . S
C341 C345 1.495 . S
C342 C341 1.392 . S
C342 C343 1.385 . S
C342 C344 1.478 . S
C343 H337 0.930 . S
C343 C339 1.400 . S
C343 C342 1.385 . S
C344 C342 1.478 . S
C344 C346 1.381 . S
C344 C350 1.383 . S
C345 C341 1.495 . S
C345 H351 0.959 . S
C345 H352 0.961 . S
C345 H353 0.960 . S
C346 C344 1.381 . S
C346 C347 1.394 . S
C346 H354 0.930 . S
C347 C346 1.394 . S
C347 C348 1.383 . S
C347 H355 0.929 . S
C348 C347 1.383 . S
C348 C349 1.377 . S
C349 H333 0.930 . S
C349 C348 1.377 . S
C349 C350 1.379 . S
C350 H334 0.931 . S
C350 C344 1.383 . S
C350 C349 1.379 . S
H351 C345 0.959 . S
H352 C345 0.961 . S
H353 C345 0.960 . S
H354 C346 0.930 . S
H355 C347 0.929 . S
H356 C364 0.929 . S
H357 C366 0.930 . S
H358 C368 0.930 . S
H359 C371 0.929 . S
H360 C374 0.930 . S
H361 C376 0.960 . S
H362 C376 0.960 . S
H363 C376 0.960 . S
C364 H356 0.929 . S
C364 C365 1.390 . S
C364 C366 1.384 . S
C365 C364 1.390 . S
C365 C371 1.377 1_455 S
C366 H357 0.930 . S
C366 C364 1.384 . S
C366 C367 1.372 . S
C367 C366 1.372 . S
C367 C368 1.400 1_455 S
C367 C372 1.490 . S
C368 H358 0.930 . S
C368 C367 1.400 1_655 S
C368 C371 1.386 . S
H369 C385 0.930 . S
H370 C386 0.931 . S
C371 H359 0.929 . S
C371 C365 1.377 1_655 S
C371 C368 1.386 . S
C372 C367 1.490 . S
C372 C374 1.395 . S
C372 C375 1.403 1_455 S
H373 C379 0.930 . S
C374 H360 0.930 . S
C374 C372 1.395 . S
C374 C377 1.403 . S
C375 C372 1.403 1_655 S
C375 C376 1.524 . S
C375 C379 1.400 . S
C376 H361 0.960 . S
C376 H362 0.960 . S
C376 H363 0.960 . S
C376 C375 1.524 . S
C377 C374 1.403 . S
C377 C378 1.392 . S
C377 C381 1.495 . S
C378 C377 1.392 . S
C378 C379 1.385 1_455 S
C378 C380 1.478 . S
C379 H373 0.930 . S
C379 C375 1.400 . S
C379 C378 1.385 1_655 S
C380 C378 1.478 . S
C380 C382 1.381 . S
C380 C386 1.383 1_455 S
C381 C377 1.495 . S
C381 H387 0.959 . S
C381 H388 0.961 . S
C381 H389 0.960 . S
C382 C380 1.381 . S
C382 C383 1.394 . S
C382 H390 0.930 . S
C383 C382 1.394 . S
C383 C384 1.383 . S
C383 H391 0.929 . S
C384 C383 1.383 . S
C384 C385 1.377 1_455 S
C385 H369 0.930 . S
C385 C384 1.377 1_655 S
C385 C386 1.379 . S
C386 H370 0.931 . S
C386 C380 1.383 1_655 S
C386 C385 1.379 . S
H387 C381 0.959 . S
H388 C381 0.961 . S
H389 C381 0.960 . S
H390 C382 0.930 . S
H391 C383 0.929 . S
H392 C400 0.929 . S
H393 C402 0.930 . S
H394 C404 0.930 . S
H395 C407 0.929 . S
H396 C410 0.930 . S
H397 C412 0.960 1_556 S
H398 C412 0.960 . S
H399 C412 0.960 . S
C400 H392 0.929 . S
C400 C401 1.387 . S
C400 C402 1.384 . S
C401 C400 1.387 . S
C401 C407 1.381 1_545 S
C402 H393 0.930 . S
C402 C400 1.384 . S
C402 C403 1.396 . S
C403 C402 1.396 . S
C403 C404 1.377 1_545 S
C403 C408 1.490 . S
C404 H394 0.930 . S
C404 C403 1.377 1_565 S
C404 C407 1.386 . S
H405 C421 0.930 . S
H406 C422 0.931 . S
C407 H395 0.929 . S
C407 C401 1.381 1_565 S
C407 C404 1.386 . S
C408 C403 1.490 . S
C408 C410 1.388 1_545 S
C408 C411 1.410 . S
H409 C415 0.930 . S
C410 H396 0.930 . S
C410 C408 1.388 1_565 S
C410 C413 1.403 . S
C411 C408 1.410 . S
C411 C412 1.524 . S
C411 C415 1.400 1_554 S
C412 H397 0.960 1_554 S
C412 H398 0.960 . S
C412 H399 0.960 . S
C412 C411 1.524 . S
C413 C410 1.403 . S
C413 C414 1.392 . S
C413 C417 1.495 . S
C414 C413 1.392 . S
C414 C415 1.385 1_564 S
C414 C416 1.478 1_554 S
C415 H409 0.930 . S
C415 C411 1.400 1_556 S
C415 C414 1.385 1_546 S
C416 C414 1.478 1_556 S
C416 C418 1.381 1_565 S
C416 C422 1.383 . S
C417 C413 1.495 . S
C417 H423 0.959 . S
C417 H424 0.961 . S
C417 H425 0.960 . S
C418 C416 1.381 1_545 S
C418 C419 1.394 . S
C418 H426 0.930 . S
C419 C418 1.394 . S
C419 C420 1.383 1_545 S
C419 H427 0.929 . S
C420 C419 1.383 1_565 S
C420 C421 1.377 . S
C421 H405 0.930 . S
C421 C420 1.377 . S
C421 C422 1.379 . S
C422 H406 0.931 . S
C422 C416 1.383 . S
C422 C421 1.379 . S
H423 C417 0.959 . S
H424 C417 0.961 . S
H425 C417 0.960 . S
H426 C418 0.930 . S
H427 C419 0.929 . S
H428 C436 0.929 . S
H429 C438 0.930 . S
H430 C440 0.930 . S
H431 C443 0.929 . S
H432 C446 0.930 . S
H433 C448 0.960 . S
H434 C448 0.960 . S
H435 C448 0.960 . S
C436 H428 0.929 . S
C436 C437 1.377 . S
C436 C438 1.384 . S
C437 C436 1.377 . S
C437 C443 1.390 . S
C438 H429 0.930 . S
C438 C436 1.384 . S
C438 C439 1.372 . S
C439 C438 1.372 . S
C439 C440 1.400 . S
C439 C444 1.490 . S
C440 H430 0.930 . S
C440 C439 1.400 . S
C440 C443 1.386 . S
H441 C457 0.930 . S
H442 C458 0.931 . S
C443 H431 0.929 . S
C443 C437 1.390 . S
C443 C440 1.386 . S
C444 C439 1.490 . S
C444 C446 1.395 . S
C444 C447 1.403 . S
H445 C451 0.930 . S
C446 H432 0.930 . S
C446 C444 1.395 . S
C446 C449 1.403 1_554 S
C447 C444 1.403 . S
C447 C448 1.524 . S
C447 C451 1.400 . S
C448 H433 0.960 . S
C448 H434 0.960 . S
C448 H435 0.960 . S
C448 C447 1.524 . S
C449 C446 1.403 1_556 S
C449 C450 1.392 . S
C449 C453 1.495 . S
C450 C449 1.392 . S
C450 C451 1.385 1_556 S
C450 C452 1.478 . S
C451 H445 0.930 . S
C451 C447 1.400 . S
C451 C450 1.385 1_554 S
C452 C450 1.478 . S
C452 C454 1.381 . S
C452 C458 1.383 . S
C453 C449 1.495 . S
C453 H459 0.959 . S
C453 H460 0.961 . S
C453 H461 0.960 . S
C454 C452 1.381 . S
C454 C455 1.394 . S
C454 H462 0.930 . S
C455 C454 1.394 . S
C455 C456 1.383 . S
C455 H463 0.929 . S
C456 C455 1.383 . S
C456 C457 1.377 . S
C457 H441 0.930 . S
C457 C456 1.377 . S
C457 C458 1.379 . S
C458 H442 0.931 . S
C458 C452 1.383 . S
C458 C457 1.379 . S
H459 C453 0.959 . S
H460 C453 0.961 . S
H461 C453 0.960 . S
H462 C454 0.930 . S
H463 C455 0.929 . S
H464 C472 0.929 . S
H465 C474 0.930 . S
H466 C476 0.930 . S
H467 C479 0.929 . S
H468 C482 0.930 . S
H469 C484 0.960 . S
H470 C484 0.960 . S
H471 C484 0.960 . S
C472 H464 0.929 . S
C472 C473 1.377 . S
C472 C474 1.384 . S
C473 C472 1.377 . S
C473 C479 1.390 . S
C474 H465 0.930 . S
C474 C472 1.384 . S
C474 C475 1.372 . S
C475 C474 1.372 . S
C475 C476 1.400 . S
C475 C480 1.490 . S
C476 H466 0.930 . S
C476 C475 1.400 . S
C476 C479 1.386 . S
H477 C493 0.930 . S
H478 C494 0.931 1_554 S
C479 H467 0.929 . S
C479 C473 1.390 . S
C479 C476 1.386 . S
C480 C475 1.490 . S
C480 C482 1.395 . S
C480 C483 1.403 . S
H481 C487 0.930 . S
C482 H468 0.930 . S
C482 C480 1.395 . S
C482 C485 1.403 1_554 S
C483 C480 1.403 . S
C483 C484 1.524 . S
C483 C487 1.400 . S
C484 H469 0.960 . S
C484 H470 0.960 . S
C484 H471 0.960 . S
C484 C483 1.524 . S
C485 C482 1.403 1_556 S
C485 C486 1.392 . S
C485 C489 1.495 . S
C486 C485 1.392 . S
C486 C487 1.385 1_556 S
C486 C488 1.478 . S
C487 H481 0.930 . S
C487 C483 1.400 . S
C487 C486 1.385 1_554 S
C488 C486 1.478 . S
C488 C490 1.381 . S
C488 C494 1.383 . S
C489 C485 1.495 . S
C489 H495 0.959 . S
C489 H496 0.961 . S
C489 H497 0.960 . S
C490 C488 1.381 . S
C490 C491 1.394 . S
C490 H498 0.930 . S
C491 C490 1.394 . S
C491 C492 1.383 . S
C491 H499 0.929 . S
C492 C491 1.383 . S
C492 C493 1.377 . S
C493 H477 0.930 . S
C493 C492 1.377 . S
C493 C494 1.379 . S
C494 H478 0.931 1_556 S
C494 C488 1.383 . S
C494 C493 1.379 . S
H495 C489 0.959 . S
H496 C489 0.961 . S
H497 C489 0.960 . S
H498 C490 0.930 . S
H499 C491 0.929 . S
H500 C508 0.929 . S
H501 C510 0.930 . S
H502 C512 0.930 . S
H503 C515 0.929 . S
H504 C518 0.930 . S
H505 C520 0.960 1_556 S
H506 C520 0.960 . S
H507 C520 0.960 . S
C508 H500 0.929 . S
C508 C509 1.379 1_455 S
C508 C510 1.384 . S
C509 C508 1.379 1_655 S
C509 C515 1.388 . S
C510 H501 0.930 . S
C510 C508 1.384 . S
C510 C511 1.400 . S
C511 C510 1.400 . S
C511 C512 1.371 1_455 S
C511 C516 1.491 . S
C512 H502 0.930 . S
C512 C511 1.371 1_655 S
C512 C515 1.386 . S
H513 C529 0.930 . S
H514 C530 0.931 . S
C515 H503 0.929 . S
C515 C509 1.388 . S
C515 C512 1.386 . S
C516 C511 1.491 . S
C516 C518 1.395 . S
C516 C519 1.403 1_455 S
H517 C523 0.930 . S
C518 H504 0.930 . S
C518 C516 1.395 . S
C518 C521 1.403 . S
C519 C516 1.403 1_655 S
C519 C520 1.524 . S
C519 C523 1.400 1_554 S
C520 H505 0.960 1_554 S
C520 H506 0.960 . S
C520 H507 0.960 . S
C520 C519 1.524 . S
C521 C518 1.403 . S
C521 C522 1.392 . S
C521 C525 1.495 . S
C522 C521 1.392 . S
C522 C523 1.385 1_454 S
C522 C524 1.478 1_554 S
C523 H517 0.930 . S
C523 C519 1.400 1_556 S
C523 C522 1.385 1_656 S
C524 C522 1.478 1_556 S
C524 C526 1.381 . S
C524 C530 1.383 1_455 S
C525 C521 1.495 . S
C525 H531 0.959 . S
C525 H532 0.961 . S
C525 H533 0.960 . S
C526 C524 1.381 . S
C526 C527 1.394 . S
C526 H534 0.930 . S
C527 C526 1.394 . S
C527 C528 1.395 . S
C527 H535 0.929 . S
C528 C527 1.395 . S
C528 C529 1.366 1_455 S
C529 H513 0.930 . S
C529 C528 1.366 1_655 S
C529 C530 1.379 . S
C530 H514 0.931 . S
C530 C524 1.383 1_655 S
C530 C529 1.379 . S
H531 C525 0.959 . S
H532 C525 0.961 . S
H533 C525 0.960 . S
H534 C526 0.930 . S
H535 C527 0.929 . S
H536 C544 0.929 . S
H537 C546 0.930 . S
H538 C548 0.930 . S
H539 C551 0.929 . S
H540 C554 0.930 . S
H541 C556 0.960 . S
H542 C556 0.960 . S
H543 C556 0.960 . S
C544 H536 0.929 . S
C544 C545 1.329 1_655 S
C544 C546 1.384 . S
C545 C544 1.329 1_455 S
C545 C551 1.431 . S
C546 H537 0.930 . S
C546 C544 1.384 . S
C546 C547 1.372 . S
C547 C546 1.372 . S
C547 C548 1.400 1_655 S
C547 C552 1.490 . S
C548 H538 0.930 . S
C548 C547 1.400 1_455 S
C548 C551 1.386 . S
H549 C565 0.930 1_455 S
H550 C566 0.931 1_455 S
C551 H539 0.929 . S
C551 C545 1.431 . S
C551 C548 1.386 . S
C552 C547 1.490 . S
C552 C554 1.395 . S
C552 C555 1.403 1_655 S
H553 C559 0.930 1_455 S
C554 H540 0.930 . S
C554 C552 1.395 . S
C554 C557 1.403 . S
C555 C552 1.403 1_455 S
C555 C556 1.524 . S
C555 C559 1.400 1_455 S
C556 H541 0.960 . S
C556 H542 0.960 . S
C556 H543 0.960 . S
C556 C555 1.524 . S
C557 C554 1.403 . S
C557 C558 1.392 . S
C557 C561 1.495 . S
C558 C557 1.392 . S
C558 C559 1.385 . S
C558 C560 1.478 . S
C559 H553 0.930 1_655 S
C559 C555 1.400 1_655 S
C559 C558 1.385 . S
C560 C558 1.478 . S
C560 C562 1.381 . S
C560 C566 1.383 . S
C561 C557 1.495 . S
C561 H567 0.959 . S
C561 H568 0.961 . S
C561 H569 0.960 . S
C562 C560 1.381 . S
C562 C563 1.394 . S
C562 H570 0.930 . S
C563 C562 1.394 . S
C563 C564 1.383 . S
C563 H571 0.929 . S
C564 C563 1.383 . S
C564 C565 1.377 . S
C565 H549 0.930 1_655 S
C565 C564 1.377 . S
C565 C566 1.379 . S
C566 H550 0.931 1_655 S
C566 C560 1.383 . S
C566 C565 1.379 . S
H567 C561 0.959 . S
H568 C561 0.961 . S
H569 C561 0.960 . S
H570 C562 0.930 . S
H571 C563 0.929 . S
H572 C580 0.929 . S
H573 C582 0.930 . S
H574 C584 0.930 . S
H575 C587 0.929 . S
H576 C590 0.939 . S
H577 C592 0.960 . S
H578 C592 0.960 . S
H579 C592 0.960 . S
C580 H572 0.929 . S
C580 C581 1.358 1_565 S
C580 C582 1.384 . S
C581 C580 1.358 1_545 S
C581 C587 1.404 . S
C582 H573 0.930 . S
C582 C580 1.384 . S
C582 C583 1.372 . S
C583 C582 1.372 . S
C583 C584 1.400 1_565 S
C583 C588 1.490 . S
C584 H574 0.930 . S
C584 C583 1.400 1_545 S
C584 C587 1.386 . S
H585 C601 0.930 . S
H586 C602 0.931 1_545 S
C587 H575 0.929 . S
C587 C581 1.404 . S
C587 C584 1.386 . S
C588 C583 1.490 . S
C588 C590 1.387 1_565 S
C588 C591 1.403 . S
H589 C595 0.930 . S
C590 H576 0.939 . S
C590 C588 1.387 1_545 S
C590 C593 1.402 1_545 S
C591 C588 1.403 . S
C591 C592 1.524 . S
C591 C595 1.400 . S
C592 H577 0.960 . S
C592 H578 0.960 . S
C592 H579 0.960 . S
C592 C591 1.524 . S
C593 C590 1.402 1_565 S
C593 C594 1.392 . S
C593 C597 1.495 1_565 S
C594 C593 1.392 . S
C594 C595 1.385 . S
C594 C596 1.478 . S
C595 H589 0.930 . S
C595 C591 1.400 . S
C595 C594 1.385 . S
C596 C594 1.478 . S
C596 C598 1.381 . S
C596 C602 1.383 . S
C597 C593 1.495 1_545 S
C597 H603 0.959 . S
C597 H604 0.961 . S
C597 H605 0.960 1_545 S
C598 C596 1.381 . S
C598 C599 1.394 . S
C598 H606 0.930 . S
C599 C598 1.394 . S
C599 C600 1.383 . S
C599 H607 0.929 . S
C600 C599 1.383 . S
C600 C601 1.377 . S
C601 H585 0.930 . S
C601 C600 1.377 . S
C601 C602 1.379 . S
C602 H586 0.931 1_565 S
C602 C596 1.383 . S
C602 C601 1.379 . S
H603 C597 0.959 . S
H604 C597 0.961 . S
H605 C597 0.960 1_565 S
H606 C598 0.930 . S
H607 C599 0.929 . S
H608 C616 0.929 . S
H609 C618 0.930 . S
H610 C620 0.930 . S
H611 C623 0.929 . S
H612 C626 0.930 . S
H613 C628 0.960 . S
H614 C628 0.960 . S
H615 C628 0.960 . S
C616 H608 0.929 . S
C616 C617 1.377 . S
C616 C618 1.384 . S
C617 C616 1.377 . S
C617 C623 1.390 . S
C618 H609 0.930 . S
C618 C616 1.384 . S
C618 C619 1.372 . S
C619 C618 1.372 . S
C619 C620 1.400 . S
C619 C624 1.490 . S
C620 H610 0.930 . S
C620 C619 1.400 . S
C620 C623 1.386 . S
H621 C637 0.930 . S
H622 C638 0.931 . S
C623 H611 0.929 . S
C623 C617 1.390 . S
C623 C620 1.386 . S
C624 C619 1.490 . S
C624 C626 1.395 . S
C624 C627 1.403 . S
H625 C631 0.930 . S
C626 H612 0.930 . S
C626 C624 1.395 . S
C626 C629 1.403 . S
C627 C624 1.403 . S
C627 C628 1.524 . S
C627 C631 1.400 . S
C628 H613 0.960 . S
C628 H614 0.960 . S
C628 H615 0.960 . S
C628 C627 1.524 . S
C629 C626 1.403 . S
C629 C630 1.392 . S
C629 C633 1.495 . S
C630 C629 1.392 . S
C630 C631 1.385 . S
C630 C632 1.478 . S
C631 H625 0.930 . S
C631 C627 1.400 . S
C631 C630 1.385 . S
C632 C630 1.478 . S
C632 C634 1.381 . S
C632 C638 1.383 . S
C633 C629 1.495 . S
C633 H639 0.959 . S
C633 H640 0.961 . S
C633 H641 0.960 . S
C634 C632 1.381 . S
C634 C635 1.394 . S
C634 H642 0.930 . S
C635 C634 1.394 . S
C635 C636 1.383 . S
C635 H643 0.929 . S
C636 C635 1.383 . S
C636 C637 1.377 . S
C637 H621 0.930 . S
C637 C636 1.377 . S
C637 C638 1.379 . S
C638 H622 0.931 . S
C638 C632 1.383 . S
C638 C637 1.379 . S
H639 C633 0.959 . S
H640 C633 0.961 . S
H641 C633 0.960 . S
H642 C634 0.930 . S
H643 C635 0.929 . S
H644 C652 0.929 . S
H645 C654 0.930 . S
H646 C656 0.930 . S
H647 C659 0.929 . S
H648 C662 0.930 . S
H649 C664 0.960 . S
H650 C664 0.960 . S
H651 C664 0.960 . S
C652 H644 0.929 . S
C652 C653 1.377 . S
C652 C654 1.384 . S
C653 C652 1.377 . S
C653 C659 1.390 . S
C654 H645 0.930 . S
C654 C652 1.384 . S
C654 C655 1.372 . S
C655 C654 1.372 . S
C655 C656 1.400 . S
C655 C660 1.490 . S
C656 H646 0.930 . S
C656 C655 1.400 . S
C656 C659 1.386 . S
H657 C673 0.930 . S
H658 C674 0.931 . S
C659 H647 0.929 . S
C659 C653 1.390 . S
C659 C656 1.386 . S
C660 C655 1.490 . S
C660 C662 1.395 . S
C660 C663 1.403 . S
H661 C667 0.930 . S
C662 H648 0.930 . S
C662 C660 1.395 . S
C662 C665 1.403 . S
C663 C660 1.403 . S
C663 C664 1.524 . S
C663 C667 1.400 . S
C664 H649 0.960 . S
C664 H650 0.960 . S
C664 H651 0.960 . S
C664 C663 1.524 . S
C665 C662 1.403 . S
C665 C666 1.392 . S
C665 C669 1.495 . S
C666 C665 1.392 . S
C666 C667 1.385 . S
C666 C668 1.478 . S
C667 H661 0.930 . S
C667 C663 1.400 . S
C667 C666 1.385 . S
C668 C666 1.478 . S
C668 C670 1.381 . S
C668 C674 1.383 . S
C669 C665 1.495 . S
C669 H675 0.959 . S
C669 H676 0.961 . S
C669 H677 0.960 . S
C670 C668 1.381 . S
C670 C671 1.394 . S
C670 H678 0.930 . S
C671 C670 1.394 . S
C671 C672 1.383 . S
C671 H679 0.929 . S
C672 C671 1.383 . S
C672 C673 1.377 . S
C673 H657 0.930 . S
C673 C672 1.377 . S
C673 C674 1.379 . S
C674 H658 0.931 . S
C674 C668 1.383 . S
C674 C673 1.379 . S
H675 C669 0.959 . S
H676 C669 0.961 . S
H677 C669 0.960 . S
H678 C670 0.930 . S
H679 C671 0.929 . S
H680 C688 0.929 . S
H681 C690 0.930 . S
H682 C692 0.930 . S
H683 C695 0.929 . S
H684 C698 0.930 . S
H685 C700 0.960 . S
H686 C700 0.960 . S
H687 C700 0.960 . S
C688 H680 0.929 . S
C688 C689 1.377 . S
C688 C690 1.384 . S
C689 C688 1.377 . S
C689 C695 1.390 1_655 S
C690 H681 0.930 . S
C690 C688 1.384 . S
C690 C691 1.372 1_655 S
C691 C690 1.372 1_455 S
C691 C692 1.400 . S
C691 C696 1.490 . S
C692 H682 0.930 . S
C692 C691 1.400 . S
C692 C695 1.386 . S
H693 C709 0.930 . S
H694 C710 0.931 . S
C695 H683 0.929 . S
C695 C689 1.390 1_455 S
C695 C692 1.386 . S
C696 C691 1.490 . S
C696 C698 1.395 1_455 S
C696 C699 1.403 . S
H697 C703 0.930 . S
C698 H684 0.930 . S
C698 C696 1.395 1_655 S
C698 C701 1.403 . S
C699 C696 1.403 . S
C699 C700 1.524 . S
C699 C703 1.400 . S
C700 H685 0.960 . S
C700 H686 0.960 . S
C700 H687 0.960 . S
C700 C699 1.524 . S
C701 C698 1.403 . S
C701 C702 1.392 1_655 S
C701 C705 1.495 . S
C702 C701 1.392 1_455 S
C702 C703 1.385 . S
C702 C704 1.478 . S
C703 H697 0.930 . S
C703 C699 1.400 . S
C703 C702 1.385 . S
C704 C702 1.478 . S
C704 C706 1.381 1_455 S
C704 C710 1.383 . S
C705 C701 1.495 . S
C705 H711 0.959 . S
C705 H712 0.961 . S
C705 H713 0.960 . S
C706 C704 1.381 1_655 S
C706 C707 1.394 1_654 S
C706 H714 0.930 . S
C707 C706 1.394 1_456 S
C707 C708 1.383 . S
C707 H715 0.929 1_455 S
C708 C707 1.383 . S
C708 C709 1.377 1_556 S
C709 H693 0.930 . S
C709 C708 1.377 1_554 S
C709 C710 1.379 . S
C710 H694 0.931 . S
C710 C704 1.383 . S
C710 C709 1.379 . S
H711 C705 0.959 . S
H712 C705 0.961 . S
H713 C705 0.960 . S
H714 C706 0.930 . S
H715 C707 0.929 1_655 S
H716 C724 0.929 . S
H717 C726 0.930 . S
H718 C728 0.930 . S
H719 C731 0.929 . S
H720 C734 0.924 1_565 S
H721 C736 0.960 . S
H722 C736 0.960 . S
H723 C736 0.960 . S
C724 H716 0.929 . S
C724 C725 1.360 1_545 S
C724 C726 1.384 . S
C725 C724 1.360 1_565 S
C725 C731 1.403 . S
C726 H717 0.930 . S
C726 C724 1.384 . S
C726 C727 1.372 . S
C727 C726 1.372 . S
C727 C728 1.400 1_545 S
C727 C732 1.490 . S
C728 H718 0.930 . S
C728 C727 1.400 1_565 S
C728 C731 1.386 . S
H729 C745 0.930 1_565 S
H730 C746 0.931 1_565 S
C731 H719 0.929 . S
C731 C725 1.403 . S
C731 C728 1.386 . S
C732 C727 1.490 . S
C732 C734 1.395 . S
C732 C735 1.403 . S
H733 C739 0.930 . S
C734 H720 0.924 1_545 S
C734 C732 1.395 . S
C734 C737 1.403 . S
C735 C732 1.403 . S
C735 C736 1.524 . S
C735 C739 1.400 . S
C736 H721 0.960 . S
C736 H722 0.960 . S
C736 H723 0.960 . S
C736 C735 1.524 . S
C737 C734 1.403 . S
C737 C738 1.392 . S
C737 C741 1.504 1_554 S
C738 C737 1.392 . S
C738 C739 1.385 . S
C738 C740 1.478 . S
C739 H733 0.930 . S
C739 C735 1.400 . S
C739 C738 1.385 . S
C740 C738 1.478 . S
C740 C742 1.381 1_554 S
C740 C746 1.383 . S
C741 C737 1.504 1_556 S
C741 H747 0.949 1_545 S
C741 H748 0.935 1_545 S
C741 H749 0.988 . S
C742 C740 1.381 1_556 S
C742 C743 1.394 . S
C742 H750 0.930 . S
C743 C742 1.394 . S
C743 C744 1.383 . S
C743 H751 0.929 . S
C744 C743 1.383 . S
C744 C745 1.377 1_556 S
C745 H729 0.930 1_545 S
C745 C744 1.377 1_554 S
C745 C746 1.379 . S
C746 H730 0.931 1_545 S
C746 C740 1.383 . S
C746 C745 1.379 . S
H747 C741 0.949 1_565 S
H748 C741 0.935 1_565 S
H749 C741 0.988 . S
H750 C742 0.930 . S
H751 C743 0.929 . S
H752 C760 0.929 . S
H753 C762 0.930 . S
H754 C764 0.930 . S
H755 C767 0.929 . S
H756 C770 0.930 . S
H757 C772 0.960 . S
H758 C772 0.960 . S
H759 C772 0.960 . S
C760 H752 0.929 . S
C760 C761 1.377 . S
C760 C762 1.384 . S
C761 C760 1.377 . S
C761 C767 1.390 . S
C762 H753 0.930 . S
C762 C760 1.384 . S
C762 C763 1.372 . S
C763 C762 1.372 . S
C763 C764 1.400 . S
C763 C768 1.490 . S
C764 H754 0.930 . S
C764 C763 1.400 . S
C764 C767 1.386 . S
H765 C781 0.930 . S
H766 C782 0.931 . S
C767 H755 0.929 . S
C767 C761 1.390 . S
C767 C764 1.386 . S
C768 C763 1.490 . S
C768 C770 1.395 . S
C768 C771 1.403 . S
H769 C775 0.930 . S
C770 H756 0.930 . S
C770 C768 1.395 . S
C770 C773 1.403 . S
C771 C768 1.403 . S
C771 C772 1.524 . S
C771 C775 1.400 . S
C772 H757 0.960 . S
C772 H758 0.960 . S
C772 H759 0.960 . S
C772 C771 1.524 . S
C773 C770 1.403 . S
C773 C774 1.392 . S
C773 C777 1.495 . S
C774 C773 1.392 . S
C774 C775 1.385 . S
C774 C776 1.478 . S
C775 H769 0.930 . S
C775 C771 1.400 . S
C775 C774 1.385 . S
C776 C774 1.478 . S
C776 C778 1.381 . S
C776 C782 1.383 . S
C777 C773 1.495 . S
C777 H783 0.959 . S
C777 H784 0.961 . S
C777 H785 0.960 . S
C778 C776 1.381 . S
C778 C779 1.394 . S
C778 H786 0.930 . S
C779 C778 1.394 . S
C779 C780 1.383 1_554 S
C779 H787 0.929 . S
C780 C779 1.383 1_556 S
C780 C781 1.377 . S
C781 H765 0.930 . S
C781 C780 1.377 . S
C781 C782 1.379 1_556 S
C782 H766 0.931 . S
C782 C776 1.383 . S
C782 C781 1.379 1_554 S
H783 C777 0.959 . S
H784 C777 0.961 . S
H785 C777 0.960 . S
H786 C778 0.930 . S
H787 C779 0.929 . S
H788 C796 0.929 . S
H789 C798 0.930 . S
H790 C800 0.930 . S
H791 C803 0.929 . S
H792 C806 0.930 . S
H793 C808 0.960 . S
H794 C808 0.960 . S
H795 C808 0.960 . S
C796 H788 0.929 . S
C796 C797 1.377 . S
C796 C798 1.384 . S
C797 C796 1.377 . S
C797 C803 1.390 . S
C798 H789 0.930 . S
C798 C796 1.384 . S
C798 C799 1.372 . S
C799 C798 1.372 . S
C799 C800 1.400 . S
C799 C804 1.490 . S
C800 H790 0.930 . S
C800 C799 1.400 . S
C800 C803 1.386 . S
H801 C817 0.930 . S
H802 C818 0.931 . S
C803 H791 0.929 . S
C803 C797 1.390 . S
C803 C800 1.386 . S
C804 C799 1.490 . S
C804 C806 1.395 . S
C804 C807 1.403 . S
H805 C811 0.930 . S
C806 H792 0.930 . S
C806 C804 1.395 . S
C806 C809 1.403 . S
C807 C804 1.403 . S
C807 C808 1.524 . S
C807 C811 1.400 . S
C808 H793 0.960 . S
C808 H794 0.960 . S
C808 H795 0.960 . S
C808 C807 1.524 . S
C809 C806 1.403 . S
C809 C810 1.392 . S
C809 C813 1.495 1_554 S
C810 C809 1.392 . S
C810 C811 1.385 . S
C810 C812 1.478 . S
C811 H805 0.930 . S
C811 C807 1.400 . S
C811 C810 1.385 . S
C812 C810 1.478 . S
C812 C814 1.373 1_554 S
C812 C818 1.383 . S
C813 C809 1.495 1_556 S
C813 H819 0.959 . S
C813 H820 0.961 . S
C813 H821 0.960 . S
C814 C812 1.373 1_556 S
C814 C815 1.402 . S
C814 H822 0.931 . S
C815 C814 1.402 . S
C815 C816 1.383 . S
C815 H823 0.929 . S
C816 C815 1.383 . S
C816 C817 1.377 1_556 S
C817 H801 0.930 . S
C817 C816 1.377 1_554 S
C817 C818 1.379 . S
C818 H802 0.931 . S
C818 C812 1.383 . S
C818 C817 1.379 . S
H819 C813 0.959 . S
H820 C813 0.961 . S
H821 C813 0.960 . S
H822 C814 0.931 . S
H823 C815 0.929 . S
H824 C832 0.929 . S
H825 C834 0.930 . S
H826 C836 0.930 . S
H827 C839 0.929 . S
H828 C842 0.930 . S
H829 C844 0.960 . S
H830 C844 0.960 . S
H831 C844 0.960 . S
C832 H824 0.929 . S
C832 C833 1.409 . S
C832 C834 1.384 . S
C833 C832 1.409 . S
C833 C839 1.361 1_455 S
C834 H825 0.930 . S
C834 C832 1.384 . S
C834 C835 1.372 . S
C835 C834 1.372 . S
C835 C836 1.400 1_455 S
C835 C840 1.490 . S
C836 H826 0.930 . S
C836 C835 1.400 1_655 S
C836 C839 1.386 . S
H837 C853 0.930 . S
H838 C854 0.931 . S
C839 H827 0.929 . S
C839 C833 1.361 1_655 S
C839 C836 1.386 . S
C840 C835 1.490 . S
C840 C842 1.395 . S
C840 C843 1.403 1_455 S
H841 C847 0.930 . S
C842 H828 0.930 . S
C842 C840 1.395 . S
C842 C845 1.403 . S
C843 C840 1.403 1_655 S
C843 C844 1.524 . S
C843 C847 1.400 . S
C844 H829 0.960 . S
C844 H830 0.960 . S
C844 H831 0.960 . S
C844 C843 1.524 . S
C845 C842 1.403 . S
C845 C846 1.392 . S
C845 C849 1.495 . S
C846 C845 1.392 . S
C846 C847 1.385 1_455 S
C846 C848 1.478 . S
C847 H841 0.930 . S
C847 C843 1.400 . S
C847 C846 1.385 1_655 S
C848 C846 1.478 . S
C848 C850 1.381 . S
C848 C854 1.383 1_455 S
C849 C845 1.495 . S
C849 H855 0.959 . S
C849 H856 0.961 . S
C849 H857 0.960 . S
C850 C848 1.381 . S
C850 C851 1.394 . S
C850 H858 0.930 . S
C851 C850 1.394 . S
C851 C852 1.383 . S
C851 H859 0.929 . S
C852 C851 1.383 . S
C852 C853 1.377 1_455 S
C853 H837 0.930 . S
C853 C852 1.377 1_655 S
C853 C854 1.379 . S
C854 H838 0.931 . S
C854 C848 1.383 1_655 S
C854 C853 1.379 . S
H855 C849 0.959 . S
H856 C849 0.961 . S
H857 C849 0.960 . S
H858 C850 0.930 . S
H859 C851 0.929 . S
H860 C868 0.929 1_554 S
H861 C870 0.930 . S
H862 C872 0.930 . S
H863 C875 0.929 . S
H864 C878 0.930 . S
H865 C880 0.960 . S
H866 C880 0.960 . S
H867 C880 0.960 . S
C868 H860 0.929 1_556 S
C868 C869 1.377 . S
C868 C870 1.384 . S
C869 C868 1.377 . S
C869 C875 1.390 1_545 S
C870 H861 0.930 . S
C870 C868 1.384 . S
C870 C871 1.372 . S
C871 C870 1.372 . S
C871 C872 1.400 1_545 S
C871 C876 1.490 . S
C872 H862 0.930 . S
C872 C871 1.400 1_565 S
C872 C875 1.386 . S
H873 C889 0.930 . S
H874 C890 0.931 . S
C875 H863 0.929 . S
C875 C869 1.390 1_565 S
C875 C872 1.386 . S
C876 C871 1.490 . S
C876 C878 1.395 1_545 S
C876 C879 1.403 . S
H877 C883 0.930 . S
C878 H864 0.930 . S
C878 C876 1.395 1_565 S
C878 C881 1.403 . S
C879 C876 1.403 . S
C879 C880 1.524 . S
C879 C883 1.400 . S
C880 H865 0.960 . S
C880 H866 0.960 . S
C880 H867 0.960 . S
C880 C879 1.524 . S
C881 C878 1.403 . S
C881 C882 1.392 1_565 S
C881 C885 1.495 . S
C882 C881 1.392 1_545 S
C882 C883 1.385 . S
C882 C884 1.478 . S
C883 H877 0.930 . S
C883 C879 1.400 . S
C883 C882 1.385 . S
C884 C882 1.478 . S
C884 C886 1.381 . S
C884 C890 1.383 1_545 S
C885 C881 1.495 . S
C885 H891 0.959 1_556 S
C885 H892 0.961 . S
C885 H893 0.960 . S
C886 C884 1.381 . S
C886 C887 1.394 . S
C886 H894 0.930 . S
C887 C886 1.394 . S
C887 C888 1.383 . S
C887 H895 0.929 . S
C888 C887 1.383 . S
C888 C889 1.377 1_545 S
C889 H873 0.930 . S
C889 C888 1.377 1_565 S
C889 C890 1.379 . S
C890 H874 0.931 . S
C890 C884 1.383 1_565 S
C890 C889 1.379 . S
H891 C885 0.959 1_554 S
H892 C885 0.961 . S
H893 C885 0.960 . S
H894 C886 0.930 . S
H895 C887 0.929 . S
H896 C904 0.929 . S
H897 C906 0.930 . S
H898 C908 0.930 . S
H899 C911 0.929 1_554 S
H900 C914 0.930 . S
H901 C916 0.960 . S
H902 C916 0.960 . S
H903 C916 0.960 1_554 S
C904 H896 0.929 . S
C904 C905 1.377 . S
C904 C906 1.384 . S
C905 C904 1.377 . S
C905 C911 1.390 . S
C906 H897 0.930 . S
C906 C904 1.384 . S
C906 C907 1.372 . S
C907 C906 1.372 . S
C907 C908 1.400 . S
C907 C912 1.490 . S
C908 H898 0.930 . S
C908 C907 1.400 . S
C908 C911 1.386 . S
H909 C925 0.930 . S
H910 C926 0.931 . S
C911 H899 0.929 1_556 S
C911 C905 1.390 . S
C911 C908 1.386 . S
C912 C907 1.490 . S
C912 C914 1.395 . S
C912 C915 1.403 . S
H913 C919 0.930 . S
C914 H900 0.930 . S
C914 C912 1.395 . S
C914 C917 1.403 . S
C915 C912 1.403 . S
C915 C916 1.524 . S
C915 C919 1.400 . S
C916 H901 0.960 . S
C916 H902 0.960 . S
C916 H903 0.960 1_556 S
C916 C915 1.524 . S
C917 C914 1.403 . S
C917 C918 1.392 . S
C917 C921 1.495 . S
C918 C917 1.392 . S
C918 C919 1.385 . S
C918 C920 1.478 . S
C919 H913 0.930 . S
C919 C915 1.400 . S
C919 C918 1.385 . S
C920 C918 1.478 . S
C920 C922 1.381 . S
C920 C926 1.383 . S
C921 C917 1.495 . S
C921 H927 0.959 . S
C921 H928 0.961 . S
C921 H929 0.960 . S
C922 C920 1.381 . S
C922 C923 1.394 . S
C922 H930 0.930 . S
C923 C922 1.394 . S
C923 C924 1.383 . S
C923 H931 0.929 . S
C924 C923 1.383 . S
C924 C925 1.377 . S
C925 H909 0.930 . S
C925 C924 1.377 . S
C925 C926 1.379 . S
C926 H910 0.931 . S
C926 C920 1.383 . S
C926 C925 1.379 . S
H927 C921 0.959 . S
H928 C921 0.961 . S
H929 C921 0.960 . S
H930 C922 0.930 . S
H931 C923 0.929 . S
H932 C940 0.929 . S
H933 C942 0.930 . S
H934 C944 0.930 . S
H935 C947 0.929 1_554 S
H936 C950 0.930 . S
H937 C952 0.960 . S
H938 C952 0.960 . S
H939 C952 0.960 1_554 S
C940 H932 0.929 . S
C940 C941 1.377 . S
C940 C942 1.384 . S
C941 C940 1.377 . S
C941 C947 1.390 . S
C942 H933 0.930 . S
C942 C940 1.384 . S
C942 C943 1.372 . S
C943 C942 1.372 . S
C943 C944 1.400 . S
C943 C948 1.490 . S
C944 H934 0.930 . S
C944 C943 1.400 . S
C944 C947 1.386 . S
H945 C961 0.930 . S
H946 C962 0.931 . S
C947 H935 0.929 1_556 S
C947 C941 1.390 . S
C947 C944 1.386 . S
C948 C943 1.490 . S
C948 C950 1.395 . S
C948 C951 1.403 . S
H949 C955 0.930 . S
C950 H936 0.930 . S
C950 C948 1.395 . S
C950 C953 1.403 . S
C951 C948 1.403 . S
C951 C952 1.524 . S
C951 C955 1.400 . S
C952 H937 0.960 . S
C952 H938 0.960 . S
C952 H939 0.960 1_556 S
C952 C951 1.524 . S
C953 C950 1.403 . S
C953 C954 1.392 . S
C953 C957 1.495 . S
C954 C953 1.392 . S
C954 C955 1.385 . S
C954 C956 1.478 . S
C955 H949 0.930 . S
C955 C951 1.400 . S
C955 C954 1.385 . S
C956 C954 1.478 . S
C956 C958 1.381 . S
C956 C962 1.383 . S
C957 C953 1.495 . S
C957 H963 0.959 . S
C957 H964 0.961 . S
C957 H965 0.960 . S
C958 C956 1.381 . S
C958 C959 1.394 . S
C958 H966 0.930 . S
C959 C958 1.394 . S
C959 C960 1.383 . S
C959 H967 0.929 . S
C960 C959 1.383 . S
C960 C961 1.377 . S
C961 H945 0.930 . S
C961 C960 1.377 . S
C961 C962 1.379 . S
C962 H946 0.931 . S
C962 C956 1.383 . S
C962 C961 1.379 . S
H963 C957 0.959 . S
H964 C957 0.961 . S
H965 C957 0.960 . S
H966 C958 0.930 . S
H967 C959 0.929 . S
H968 C976 0.929 . S
H969 C978 0.930 . S
H970 C980 0.930 . S
H971 C983 0.929 . S
H972 C986 0.930 . S
H973 C988 0.960 . S
H974 C988 0.960 . S
H975 C988 0.960 1_455 S
C976 H968 0.929 . S
C976 C977 1.377 . S
C976 C978 1.384 . S
C977 C976 1.377 . S
C977 C983 1.390 1_655 S
C978 H969 0.930 . S
C978 C976 1.384 . S
C978 C979 1.372 . S
C979 C978 1.372 . S
C979 C980 1.400 1_655 S
C979 C984 1.490 . S
C980 H970 0.930 . S
C980 C979 1.400 1_455 S
C980 C983 1.386 . S
H981 C997 0.930 . S
H982 C998 0.931 . S
C983 H971 0.929 . S
C983 C977 1.390 1_455 S
C983 C980 1.386 . S
C984 C979 1.490 . S
C984 C986 1.395 . S
C984 C987 1.403 . S
H985 C991 0.930 . S
C986 H972 0.930 . S
C986 C984 1.395 . S
C986 C989 1.403 . S
C987 C984 1.403 . S
C987 C988 1.524 . S
C987 C991 1.400 . S
C988 H973 0.960 . S
C988 H974 0.960 . S
C988 H975 0.960 1_655 S
C988 C987 1.524 . S
C989 C986 1.403 . S
C989 C990 1.392 . S
C989 C993 1.495 . S
C990 C989 1.392 . S
C990 C991 1.385 . S
C990 C992 1.478 . S
C991 H985 0.930 . S
C991 C987 1.400 . S
C991 C990 1.385 . S
C992 C990 1.478 . S
C992 C994 1.381 . S
C992 C998 1.383 1_655 S
C993 C989 1.495 . S
C993 H999 0.959 . S
C993 H1000 0.961 1_655 S
C993 H1001 0.960 . S
C994 C992 1.381 . S
C994 C995 1.394 . S
C994 H1002 0.930 . S
C995 C994 1.394 . S
C995 C996 1.383 . S
C995 H1003 0.929 . S
C996 C995 1.383 . S
C996 C997 1.377 1_655 S
C997 H981 0.930 . S
C997 C996 1.377 1_455 S
C997 C998 1.379 . S
C998 H982 0.931 . S
C998 C992 1.383 1_455 S
C998 C997 1.379 . S
H999 C993 0.959 . S
H1000 C993 0.961 1_455 S
H1001 C993 0.960 . S
H1002 C994 0.930 . S
H1003 C995 0.929 . S
H1004 C1012 0.929 . S
H1005 C1014 0.930 . S
H1006 C1016 0.930 . S
H1007 C1019 0.929 . S
H1008 C1022 0.930 . S
H1009 C1024 0.960 . S
H1010 C1024 0.960 . S
H1011 C1024 0.960 . S
C1012 H1004 0.929 . S
C1012 C1013 1.370 1_545 S
C1012 C1014 1.384 . S
C1013 C1012 1.370 1_565 S
C1013 C1019 1.398 . S
C1014 H1005 0.930 . S
C1014 C1012 1.384 . S
C1014 C1015 1.372 1_545 S
C1015 C1014 1.372 1_565 S
C1015 C1016 1.400 . S
C1015 C1020 1.490 . S
C1016 H1006 0.930 . S
C1016 C1015 1.400 . S
C1016 C1019 1.386 . S
H1017 C1033 0.930 . S
H1018 C1034 0.931 . S
C1019 H1007 0.929 . S
C1019 C1013 1.398 . S
C1019 C1016 1.386 . S
C1020 C1015 1.490 . S
C1020 C1022 1.395 . S
C1020 C1023 1.403 1_565 S
H1021 C1027 0.930 . S
C1022 H1008 0.930 . S
C1022 C1020 1.395 . S
C1022 C1025 1.403 . S
C1023 C1020 1.403 1_545 S
C1023 C1024 1.524 . S
C1023 C1027 1.400 . S
C1024 H1009 0.960 . S
C1024 H1010 0.960 . S
C1024 H1011 0.960 . S
C1024 C1023 1.524 . S
C1025 C1022 1.403 . S
C1025 C1026 1.392 . S
C1025 C1029 1.495 . S
C1026 C1025 1.392 . S
C1026 C1027 1.385 1_565 S
C1026 C1028 1.478 . S
C1027 H1021 0.930 . S
C1027 C1023 1.400 . S
C1027 C1026 1.385 1_545 S
C1028 C1026 1.478 . S
C1028 C1030 1.381 1_565 S
C1028 C1034 1.383 . S
C1029 C1025 1.495 . S
C1029 H1035 0.959 . S
C1029 H1036 0.961 . S
C1029 H1037 0.960 . S
C1030 C1028 1.381 1_545 S
C1030 C1031 1.394 . S
C1030 H1038 0.930 . S
C1031 C1030 1.394 . S
C1031 C1032 1.383 1_545 S
C1031 H1039 0.929 . S
C1032 C1031 1.383 1_565 S
C1032 C1033 1.377 . S
C1033 H1017 0.930 . S
C1033 C1032 1.377 . S
C1033 C1034 1.379 . S
C1034 H1018 0.931 . S
C1034 C1028 1.383 . S
C1034 C1033 1.379 . S
H1035 C1029 0.959 . S
H1036 C1029 0.961 . S
H1037 C1029 0.960 . S
H1038 C1030 0.930 . S
H1039 C1031 0.929 . S
H1040 C1048 0.929 . S
H1041 C1050 0.930 . S
H1042 C1052 0.930 . S
H1043 C1055 0.929 . S
H1044 C1058 0.930 . S
H1045 C1060 0.960 . S
H1046 C1060 0.960 . S
H1047 C1060 0.960 . S
C1048 H1040 0.929 . S
C1048 C1049 1.377 . S
C1048 C1050 1.384 . S
C1049 C1048 1.377 . S
C1049 C1055 1.390 . S
C1050 H1041 0.930 . S
C1050 C1048 1.384 . S
C1050 C1051 1.372 . S
C1051 C1050 1.372 . S
C1051 C1052 1.400 . S
C1051 C1056 1.490 . S
C1052 H1042 0.930 . S
C1052 C1051 1.400 . S
C1052 C1055 1.386 . S
H1053 C1069 0.930 . S
H1054 C1070 0.931 . S
C1055 H1043 0.929 . S
C1055 C1049 1.390 . S
C1055 C1052 1.386 . S
C1056 C1051 1.490 . S
C1056 C1058 1.395 . S
C1056 C1059 1.403 . S
H1057 C1063 0.930 . S
C1058 H1044 0.930 . S
C1058 C1056 1.395 . S
C1058 C1061 1.403 . S
C1059 C1056 1.403 . S
C1059 C1060 1.524 . S
C1059 C1063 1.400 . S
C1060 H1045 0.960 . S
C1060 H1046 0.960 . S
C1060 H1047 0.960 . S
C1060 C1059 1.524 . S
C1061 C1058 1.403 . S
C1061 C1062 1.392 . S
C1061 C1065 1.495 . S
C1062 C1061 1.392 . S
C1062 C1063 1.385 . S
C1062 C1064 1.478 . S
C1063 H1057 0.930 . S
C1063 C1059 1.400 . S
C1063 C1062 1.385 . S
C1064 C1062 1.478 . S
C1064 C1066 1.381 . S
C1064 C1070 1.383 . S
C1065 C1061 1.495 . S
C1065 H1071 0.959 . S
C1065 H1072 0.961 . S
C1065 H1073 0.960 . S
C1066 C1064 1.381 . S
C1066 C1067 1.394 . S
C1066 H1074 0.930 . S
C1067 C1066 1.394 . S
C1067 C1068 1.383 . S
C1067 H1075 0.929 . S
C1068 C1067 1.383 . S
C1068 C1069 1.377 . S
C1069 H1053 0.930 . S
C1069 C1068 1.377 . S
C1069 C1070 1.379 . S
C1070 H1054 0.931 . S
C1070 C1064 1.383 . S
C1070 C1069 1.379 . S
H1071 C1065 0.959 . S
H1072 C1065 0.961 . S
H1073 C1065 0.960 . S
H1074 C1066 0.930 . S
H1075 C1067 0.929 . S
H1076 C1084 0.929 . S
H1077 C1086 0.930 . S
H1078 C1088 0.930 . S
H1079 C1091 0.929 . S
H1080 C1094 0.930 . S
H1081 C1096 0.960 . S
H1082 C1096 0.960 . S
H1083 C1096 0.960 . S
C1084 H1076 0.929 . S
C1084 C1085 1.377 . S
C1084 C1086 1.384 . S
C1085 C1084 1.377 . S
C1085 C1091 1.390 . S
C1086 H1077 0.930 . S
C1086 C1084 1.384 . S
C1086 C1087 1.372 . S
C1087 C1086 1.372 . S
C1087 C1088 1.400 . S
C1087 C1092 1.490 . S
C1088 H1078 0.930 . S
C1088 C1087 1.400 . S
C1088 C1091 1.386 . S
H1089 C1105 0.930 . S
H1090 C1106 0.931 . S
C1091 H1079 0.929 . S
C1091 C1085 1.390 . S
C1091 C1088 1.386 . S
C1092 C1087 1.490 . S
C1092 C1094 1.395 . S
C1092 C1095 1.403 . S
H1093 C1099 0.930 . S
C1094 H1080 0.930 . S
C1094 C1092 1.395 . S
C1094 C1097 1.403 . S
C1095 C1092 1.403 . S
C1095 C1096 1.524 . S
C1095 C1099 1.400 . S
C1096 H1081 0.960 . S
C1096 H1082 0.960 . S
C1096 H1083 0.960 . S
C1096 C1095 1.524 . S
C1097 C1094 1.403 . S
C1097 C1098 1.392 . S
C1097 C1101 1.495 . S
C1098 C1097 1.392 . S
C1098 C1099 1.385 . S
C1098 C1100 1.478 . S
C1099 H1093 0.930 . S
C1099 C1095 1.400 . S
C1099 C1098 1.385 . S
C1100 C1098 1.478 . S
C1100 C1102 1.381 . S
C1100 C1106 1.383 . S
C1101 C1097 1.495 . S
C1101 H1107 0.959 . S
C1101 H1108 0.961 . S
C1101 H1109 0.960 . S
C1102 C1100 1.381 . S
C1102 C1103 1.394 . S
C1102 H1110 0.930 . S
C1103 C1102 1.394 . S
C1103 C1104 1.383 . S
C1103 H1111 0.929 . S
C1104 C1103 1.383 . S
C1104 C1105 1.377 . S
C1105 H1089 0.930 . S
C1105 C1104 1.377 . S
C1105 C1106 1.379 . S
C1106 H1090 0.931 . S
C1106 C1100 1.383 . S
C1106 C1105 1.379 . S
H1107 C1101 0.959 . S
H1108 C1101 0.961 . S
H1109 C1101 0.960 . S
H1110 C1102 0.930 . S
H1111 C1103 0.929 . S
C257 C76 1.755 1_545 S
C276 C90 1.835 . S
C312 C130 1.839 . S
C293 C87 1.754 . S
C348 C170 1.854 . S
C329 C54 1.753 . S
C384 C210 1.850 1_455 S
C365 C65 1.750 1_455 S
C420 C103 1.849 1_565 S
C401 C32 1.760 1_545 S
C437 C43 1.755 . S
C456 C143 1.840 . S
C473 C10 1.754 . S
C492 C183 1.835 . S
C509 C21 1.750 . S
C528 C223 1.841 . S
C564 C114 0.327 . S
C545 C60 0.395 . S
C600 C154 0.277 . S
C581 C71 0.378 . S
C636 C194 0.279 . S
C617 C82 0.372 . S
C653 C49 0.367 . S
C672 C234 0.295 . S
C689 C16 0.405 1_655 S
C708 C97 0.278 . S
C744 C137 0.328 . S
C725 C27 0.379 1_565 S
C780 C177 0.316 . S
C761 C38 0.402 . S
C797 C5 0.379 . S
C816 C217 0.345 . S
C833 C59 1.890 . S
C852 C91 2.086 . S
C869 C70 1.877 . S
C888 C131 2.079 . S
C924 C171 2.079 . S
C905 C81 1.876 . S
C960 C211 2.085 . S
C941 C48 1.876 . S
C977 C15 1.881 1_655 S
C996 C110 2.090 . S
C1032 C150 2.085 . S
C1013 C26 1.878 1_565 S
C1068 C190 2.081 . S
C1049 C37 1.868 . S
C1085 C4 1.887 . S
C1104 C230 2.085 . S
