# Generated by pormake.
# Topology dag, (6,3)-cn, num edge types: 1
# Building blocks:
#     Node 0, Type 0, BuildingBlock: IZENUY_clean_sbu_0, # of connection points: 6
#     Node 1, Type 0, BuildingBlock: IZENUY_clean_sbu_0, # of connection points: 6
#     Node 2, Type 0, BuildingBlock: IZENUY_clean_sbu_0, # of connection points: 6
#     Node 3, Type 0, BuildingBlock: IZENUY_clean_sbu_0, # of connection points: 6
#     Node 4, Type 1, BuildingBlock: INOVEN_clean_linker_0, # of connection points: 3
#     Node 5, Type 1, BuildingBlock: INOVEN_clean_linker_0, # of connection points: 3
#     Node 6, Type 1, BuildingBlock: INOVEN_clean_linker_0, # of connection points: 3
#     Node 7, Type 1, BuildingBlock: INOVEN_clean_linker_0, # of connection points: 3
#     Node 8, Type 1, BuildingBlock: INOVEN_clean_linker_0, # of connection points: 3
#     Node 9, Type 1, BuildingBlock: INOVEN_clean_linker_0, # of connection points: 3
#     Node 10, Type 1, BuildingBlock: INOVEN_clean_linker_0, # of connection points: 3
#     Node 11, Type 1, BuildingBlock: INOVEN_clean_linker_0, # of connection points: 3
#     Edge 12, Type (0, 1), BuildingBlock: AJUNOK_clean_linker_0, # of connection points: 2
#     Edge 13, Type (0, 1), BuildingBlock: AJUNOK_clean_linker_0, # of connection points: 2
#     Edge 14, Type (0, 1), BuildingBlock: AJUNOK_clean_linker_0, # of connection points: 2
#     Edge 15, Type (0, 1), BuildingBlock: AJUNOK_clean_linker_0, # of connection points: 2
#     Edge 16, Type (0, 1), BuildingBlock: AJUNOK_clean_linker_0, # of connection points: 2
#     Edge 17, Type (0, 1), BuildingBlock: AJUNOK_clean_linker_0, # of connection points: 2
#     Edge 18, Type (0, 1), BuildingBlock: AJUNOK_clean_linker_0, # of connection points: 2
#     Edge 19, Type (0, 1), BuildingBlock: AJUNOK_clean_linker_0, # of connection points: 2
#     Edge 20, Type (0, 1), BuildingBlock: AJUNOK_clean_linker_0, # of connection points: 2
#     Edge 21, Type (0, 1), BuildingBlock: AJUNOK_clean_linker_0, # of connection points: 2
#     Edge 22, Type (0, 1), BuildingBlock: AJUNOK_clean_linker_0, # of connection points: 2
#     Edge 23, Type (0, 1), BuildingBlock: AJUNOK_clean_linker_0, # of connection points: 2
#     Edge 24, Type (0, 1), BuildingBlock: AJUNOK_clean_linker_0, # of connection points: 2
#     Edge 25, Type (0, 1), BuildingBlock: AJUNOK_clean_linker_0, # of connection points: 2
#     Edge 26, Type (0, 1), BuildingBlock: AJUNOK_clean_linker_0, # of connection points: 2
#     Edge 27, Type (0, 1), BuildingBlock: AJUNOK_clean_linker_0, # of connection points: 2
#     Edge 28, Type (0, 1), BuildingBlock: AJUNOK_clean_linker_0, # of connection points: 2
#     Edge 29, Type (0, 1), BuildingBlock: AJUNOK_clean_linker_0, # of connection points: 2
#     Edge 30, Type (0, 1), BuildingBlock: AJUNOK_clean_linker_0, # of connection points: 2
#     Edge 31, Type (0, 1), BuildingBlock: AJUNOK_clean_linker_0, # of connection points: 2
#     Edge 32, Type (0, 1), BuildingBlock: AJUNOK_clean_linker_0, # of connection points: 2
#     Edge 33, Type (0, 1), BuildingBlock: AJUNOK_clean_linker_0, # of connection points: 2
#     Edge 34, Type (0, 1), BuildingBlock: AJUNOK_clean_linker_0, # of connection points: 2
#     Edge 35, Type (0, 1), BuildingBlock: AJUNOK_clean_linker_0, # of connection points: 2
# Relax obj value: 0.096
# Max RMSD: 0.113
# Mean RMSD: 0.097
data_MOF--net-dag--node1-IZENUY_clean_sbu_0--node2-INOVEN_clean_linker_0--edge1-AJUNOK_clean_linker_0
_symmetry_space_group_name_H-M    P1
_symmetry_Int_Tables_number       1
_symmetry_cell_setting            triclinic
loop_
_symmetry_equiv_pos_as_xyz
'x, y, z'
_cell_length_a     28.388056
_cell_length_b     30.309491
_cell_length_c     26.241806
_cell_angle_alpha  93.500259
_cell_angle_beta   89.978213
_cell_angle_gamma 89.953344
loop_
_atom_site_label
_atom_site_type_symbol
_atom_site_fract_x
_atom_site_fract_y
_atom_site_fract_z
_atom_type_partial_charge
Fe0 Fe 0.19906 0.87268 0.06188 0.0
Fe1 Fe 0.0983 0.8938 0.03107 0.0
O2 O 0.14152 0.85446 0.04472 0.0
Fe3 Fe 0.12729 0.79725 0.04033 0.0
O4 O 0.14318 0.79139 0.10669 0.0
O5 O 0.21007 0.82785 0.10434 0.0
O6 O 0.17756 0.90584 0.11756 0.0
C7 C 0.14782 0.93645 0.11399 0.0
C8 C 0.21854 0.8007 0.99667 0.0
O9 O 0.12157 0.93756 0.07518 0.0
C10 C 0.08071 0.8247 0.95685 0.0
O11 O 0.19855 0.92073 0.02182 0.0
O12 O 0.13278 0.91239 0.97861 0.0
O13 O 0.18619 0.77947 0.01785 0.0
O14 O 0.22424 0.84144 0.00755 0.0
C15 C 0.0454 0.83833 0.08514 0.0
O16 O 0.067 0.85799 0.98409 0.0
O17 O 0.1106 0.79833 0.9733 0.0
C18 C 0.17374 0.92812 0.98306 0.0
O19 O 0.06119 0.87701 0.08253 0.0
O20 O 0.0655 0.80565 0.06151 0.0
C21 C 0.18293 0.80134 0.12568 0.0
Fe22 Fe 0.7052 0.63319 0.49117 0.0
Fe23 Fe 0.63011 0.70671 0.50953 0.0
O24 O 0.64663 0.65001 0.506 0.0
Fe25 Fe 0.60422 0.60929 0.51739 0.0
O26 O 0.63655 0.59261 0.5724 0.0
O27 O 0.70425 0.58562 0.53213 0.0
O28 O 0.72793 0.66547 0.54589 0.0
C29 C 0.72022 0.70587 0.55729 0.0
C30 C 0.65748 0.5678 0.43748 0.0
O31 O 0.68674 0.72616 0.53672 0.0
C32 C 0.55444 0.66258 0.45695 0.0
O33 O 0.71686 0.67787 0.44865 0.0
O34 O 0.64981 0.71378 0.44473 0.0
O35 O 0.63128 0.56566 0.47606 0.0
O36 O 0.68634 0.59919 0.43473 0.0
C37 C 0.57827 0.67802 0.58894 0.0
O38 O 0.57064 0.69618 0.48257 0.0
O39 O 0.57043 0.62436 0.46294 0.0
C40 C 0.69015 0.70453 0.42702 0.0
O41 O 0.6088 0.70495 0.57512 0.0
O42 O 0.56809 0.64412 0.56101 0.0
C43 C 0.67821 0.578 0.57 0.0
Fe44 Fe 0.86781 0.21064 0.01327 0.0
Fe45 Fe 0.89083 0.11462 0.02994 0.0
O46 O 0.84958 0.15461 0.01279 0.0
Fe47 Fe 0.79128 0.13848 0.99573 0.0
O48 O 0.79601 0.1627 0.93432 0.0
O49 O 0.82978 0.22502 0.96077 0.0
O50 O 0.91369 0.19781 0.96605 0.0
C51 C 0.94677 0.17155 0.97437 0.0
C52 C 0.78017 0.21965 0.05609 0.0
O53 O 0.94266 0.14402 0.00828 0.0
C54 C 0.80737 0.0825 0.07216 0.0
O55 O 0.90886 0.20665 0.06719 0.0
O56 O 0.8949 0.14073 0.09368 0.0
O57 O 0.76396 0.18896 0.02583 0.0
O58 O 0.8237 0.22718 0.05961 0.0
C59 C 0.84997 0.07224 0.9469 0.0
O60 O 0.84831 0.07681 0.05474 0.0
O61 O 0.78091 0.11198 0.05576 0.0
C62 C 0.90837 0.18007 0.10267 0.0
O63 O 0.88769 0.08665 0.9673 0.0
O64 O 0.80986 0.08573 0.96284 0.0
C65 C 0.80802 0.20181 0.92685 0.0
Fe66 Fe 0.398 0.39122 0.53513 0.0
Fe67 Fe 0.29532 0.36802 0.55608 0.0
O68 O 0.35458 0.35139 0.54553 0.0
Fe69 Fe 0.37077 0.29481 0.54517 0.0
O70 O 0.43043 0.30509 0.57022 0.0
O71 O 0.43051 0.37624 0.59089 0.0
O72 O 0.37071 0.43494 0.57558 0.0
C73 C 0.34254 0.43279 0.61247 0.0
C74 C 0.42217 0.32098 0.46504 0.0
O75 O 0.311 0.40345 0.6123 0.0
C76 C 0.28385 0.29271 0.49405 0.0
O77 O 0.36785 0.40851 0.4789 0.0
O78 O 0.29782 0.41482 0.51421 0.0
O79 O 0.39131 0.29452 0.47928 0.0
O80 O 0.4335 0.35481 0.49274 0.0
C81 C 0.30968 0.30068 0.62547 0.0
O82 O 0.2759 0.33369 0.50074 0.0
O83 O 0.31453 0.27426 0.52032 0.0
C84 C 0.32618 0.42302 0.47859 0.0
O85 O 0.28276 0.32433 0.59973 0.0
O86 O 0.35101 0.29155 0.61047 0.0
C87 C 0.44622 0.33802 0.59671 0.0
H88 H 0.06078 0.20583 0.29745 0.0
H89 H 0.05089 0.0943 0.18948 0.0
H90 H 0.16826 0.10503 0.29318 0.0
N91 N 0.1405 0.18522 0.33759 0.0
N92 N 0.18061 0.17674 0.35331 0.0
C93 C 0.07403 0.17405 0.28247 0.0
C94 C 0.0506 0.15127 0.24253 0.0
C95 C 0.1162 0.15769 0.30108 0.0
C96 C 0.13482 0.11729 0.28004 0.0
C97 C 0.11096 0.09408 0.23983 0.0
C98 C 0.06868 0.1112 0.22166 0.0
H99 H 0.32002 0.60166 0.78193 0.0
H100 H 0.43869 0.59721 0.68046 0.0
H101 H 0.41481 0.71285 0.78043 0.0
N102 N 0.33494 0.68016 0.82415 0.0
N103 N 0.34255 0.71758 0.84482 0.0
C104 C 0.35103 0.61711 0.76677 0.0
C105 C 0.37829 0.59406 0.72967 0.0
C106 C 0.36384 0.6597 0.78547 0.0
C107 C 0.40448 0.67998 0.7662 0.0
C108 C 0.43203 0.65693 0.72868 0.0
C109 C 0.41825 0.61443 0.71046 0.0
H110 H 0.73747 0.90936 0.21079 0.0
H111 H 0.85707 0.91805 0.1115 0.0
H112 H 0.84162 0.8052 0.20093 0.0
N113 N 0.75945 0.83177 0.24645 0.0
N114 N 0.77355 0.79626 0.26283 0.0
C115 C 0.7689 0.89469 0.19347 0.0
C116 C 0.79482 0.91792 0.15825 0.0
C117 C 0.78507 0.85356 0.20866 0.0
C118 C 0.82782 0.83607 0.18842 0.0
C119 C 0.85346 0.85891 0.15267 0.0
C120 C 0.83626 0.8993 0.13732 0.0
H121 H 0.7509 0.41276 0.72229 0.0
H122 H 0.62024 0.4232 0.64071 0.0
H123 H 0.64853 0.3071 0.7204 0.0
N124 N 0.73348 0.3333 0.75722 0.0
N125 N 0.72646 0.29336 0.76362 0.0
C126 C 0.7174 0.3988 0.70988 0.0
C127 C 0.68701 0.42293 0.6797 0.0
C128 C 0.70395 0.35666 0.7245 0.0
C129 C 0.65991 0.33911 0.70884 0.0
C130 C 0.63003 0.36321 0.67881 0.0
C131 C 0.64371 0.40473 0.66421 0.0
H132 H 0.55512 0.30406 0.2537 0.0
H133 H 0.55761 0.4102 0.36947 0.0
H134 H 0.65989 0.40675 0.24857 0.0
N135 N 0.62985 0.32754 0.20452 0.0
N136 N 0.66844 0.33743 0.18583 0.0
C137 C 0.56924 0.33556 0.26837 0.0
C138 C 0.55122 0.35571 0.31341 0.0
C139 C 0.60836 0.35355 0.24473 0.0
C140 C 0.62865 0.39332 0.26556 0.0
C141 C 0.61017 0.41402 0.3106 0.0
C142 C 0.57115 0.39519 0.3338 0.0
H143 H 0.24382 0.09303 0.8294 0.0
H144 H 0.11829 0.0855 0.91994 0.0
H145 H 0.14384 0.20101 0.83775 0.0
N146 N 0.22657 0.17222 0.79541 0.0
N147 N 0.21583 0.20963 0.78184 0.0
C148 C 0.21121 0.10766 0.84377 0.0
C149 C 0.18232 0.0844 0.87614 0.0
C150 C 0.19751 0.14974 0.82937 0.0
C151 C 0.15484 0.16852 0.84812 0.0
C152 C 0.12667 0.14552 0.88121 0.0
C153 C 0.14039 0.10349 0.89455 0.0
H154 H 0.24946 0.59017 0.33163 0.0
H155 H 0.38336 0.57989 0.40644 0.0
H156 H 0.35141 0.69608 0.32818 0.0
N157 N 0.26482 0.66921 0.29491 0.0
N158 N 0.27461 0.70694 0.2815 0.0
C159 C 0.28321 0.60439 0.34269 0.0
C160 C 0.31508 0.58019 0.37109 0.0
C161 C 0.29583 0.64652 0.32706 0.0
C162 C 0.34052 0.66424 0.34069 0.0
C163 C 0.37217 0.63989 0.36872 0.0
C164 C 0.35885 0.59852 0.38431 0.0
H165 H 0.82301 0.90413 0.77863 0.0
H166 H 0.94875 0.90471 0.86959 0.0
H167 H 0.9215 0.7957 0.76134 0.0
N168 N 0.83838 0.82893 0.72696 0.0
N169 N 0.8461 0.79223 0.70444 0.0
C170 C 0.85609 0.88906 0.78872 0.0
C171 C 0.88444 0.90942 0.82697 0.0
C172 C 0.86917 0.8483 0.76456 0.0
C173 C 0.91133 0.82753 0.77898 0.0
C174 C 0.94031 0.84829 0.81658 0.0
C175 C 0.92666 0.88908 0.83996 0.0
C176 C 0.13948 0.97416 0.20158 0.0
C177 C 0.14919 0.97631 0.14921 0.0
C178 C 0.13051 0.01297 0.23251 0.0
C179 C 0.13151 0.05475 0.21181 0.0
H180 H 0.13571 0.94235 0.21785 0.0
H181 H 0.11994 0.01013 0.27184 0.0
S182 S 0.1617 0.07795 0.07872 0.0
N183 N 0.16381 0.02358 0.07949 0.0
N184 N 0.14775 0.09607 0.13743 0.0
C185 C 0.1446 0.05722 0.16051 0.0
C186 C 0.15325 0.01807 0.12922 0.0
C187 C 0.5541 0.65652 0.6742 0.0
C188 C 0.55001 0.68645 0.63564 0.0
C189 C 0.51753 0.65127 0.7092 0.0
C190 C 0.47531 0.67541 0.70648 0.0
H191 H 0.58391 0.63418 0.67442 0.0
H192 H 0.52041 0.62508 0.73537 0.0
S193 S 0.44976 0.76191 0.61668 0.0
N194 N 0.50295 0.74397 0.60017 0.0
N195 N 0.43374 0.73375 0.6658 0.0
C196 C 0.47268 0.70844 0.6713 0.0
C197 C 0.51016 0.71396 0.63573 0.0
C198 C 0.75596 0.01825 0.09012 0.0
C199 C 0.79067 0.04908 0.10664 0.0
C200 C 0.75342 0.97642 0.11089 0.0
C201 C 0.7851 0.9648 0.14911 0.0
H202 H 0.73415 0.02455 0.05747 0.0
H203 H 0.72952 0.95185 0.09395 0.0
S204 S 0.8796 0.03461 0.20761 0.0
N205 N 0.85508 0.06571 0.16541 0.0
N206 N 0.8491 0.98829 0.20522 0.0
C207 C 0.8167 0.99686 0.16898 0.0
C208 C 0.81978 0.03876 0.14755 0.0
C209 C 0.53204 0.3267 0.59052 0.0
C210 C 0.49215 0.33462 0.62134 0.0
C211 C 0.57732 0.33275 0.61056 0.0
C212 C 0.58384 0.34618 0.66216 0.0
H213 H 0.52819 0.31879 0.55002 0.0
H214 H 0.60729 0.32941 0.58501 0.0
S215 S 0.49085 0.36522 0.75998 0.0
N216 N 0.46172 0.35237 0.70658 0.0
N217 N 0.54736 0.36326 0.74475 0.0
C218 C 0.54437 0.3511 0.69417 0.0
C219 C 0.49821 0.34547 0.67357 0.0
C220 C 0.64464 0.53252 0.34955 0.0
C221 C 0.65833 0.52895 0.40068 0.0
C222 C 0.63244 0.49461 0.31847 0.0
C223 C 0.63372 0.45229 0.33783 0.0
H224 H 0.63993 0.56484 0.33477 0.0
H225 H 0.61891 0.49868 0.28046 0.0
S226 S 0.67306 0.42525 0.46695 0.0
N227 N 0.67674 0.47964 0.46741 0.0
N228 N 0.65457 0.40884 0.40922 0.0
C229 C 0.65086 0.44831 0.38753 0.0
C230 C 0.66294 0.48656 0.41894 0.0
C231 C 0.99813 0.17572 0.89715 0.0
C232 C 0.99332 0.17622 0.95052 0.0
C233 C 0.04264 0.16962 0.8741 0.0
C234 C 0.08317 0.16458 0.90405 0.0
H235 H 0.96715 0.17664 0.87313 0.0
H236 H 0.04489 0.16568 0.83286 0.0
S237 S 0.08988 0.17143 0.04514 0.0
N238 N 0.03329 0.17627 0.03232 0.0
N239 N 0.11659 0.16655 0.9892 0.0
C240 C 0.0791 0.16925 0.95728 0.0
C241 C 0.03416 0.17457 0.98051 0.0
C242 C 0.27998 0.4898 0.45551 0.0
C243 C 0.31424 0.45727 0.44242 0.0
C244 C 0.27611 0.5282 0.42821 0.0
C245 C 0.30581 0.53485 0.38655 0.0
H246 H 0.25864 0.48742 0.48945 0.0
H247 H 0.25268 0.55438 0.44242 0.0
S248 S 0.39544 0.45692 0.33147 0.0
N249 N 0.37408 0.43217 0.38082 0.0
N250 N 0.36604 0.50377 0.3295 0.0
C251 C 0.3366 0.50064 0.37 0.0
C252 C 0.34106 0.462 0.39796 0.0
C253 C 0.06141 0.84637 0.87063 0.0
C254 C 0.05629 0.81552 0.90803 0.0
C255 C 0.02583 0.85226 0.83475 0.0
C256 C 0.98373 0.82787 0.83568 0.0
H257 H 0.09072 0.86929 0.87254 0.0
H258 H 0.02888 0.87955 0.81012 0.0
S259 S 0.95739 0.73736 0.91991 0.0
N260 N 0.00978 0.75557 0.93888 0.0
N261 N 0.94217 0.76716 0.87184 0.0
C262 C 0.98083 0.79322 0.86873 0.0
C263 C 0.01737 0.78699 0.90505 0.0
C264 C 0.86464 0.99205 0.93877 0.0
C265 C 0.85296 0.03087 0.91522 0.0
C266 C 0.8726 0.95256 0.90981 0.0
C267 C 0.86973 0.9506 0.85615 0.0
H268 H 0.86857 0.99246 0.97989 0.0
H269 H 0.88219 0.9235 0.92955 0.0
S270 S 0.83839 0.04349 0.77679 0.0
N271 N 0.83673 0.0653 0.83606 0.0
N272 N 0.85275 0.99093 0.78084 0.0
C273 C 0.85641 0.98905 0.83226 0.0
C274 C 0.84791 0.02933 0.86204 0.0
C275 C 0.50009 0.30625 0.42817 0.0
C276 C 0.4515 0.31063 0.42005 0.0
C277 C 0.53245 0.31733 0.39105 0.0
C278 C 0.51709 0.33261 0.34447 0.0
H279 H 0.5132 0.29849 0.46526 0.0
H280 H 0.56965 0.31731 0.40036 0.0
S281 S 0.39373 0.33909 0.3 0.0
N282 N 0.3894 0.32364 0.35918 0.0
N283 N 0.45071 0.34379 0.28832 0.0
C284 C 0.46878 0.33171 0.3333 0.0
C285 C 0.43571 0.32068 0.37147 0.0
C286 C 0.16203 0.96653 0.90272 0.0
C287 C 0.1876 0.96267 0.94825 0.0
C288 C 0.16509 0.00458 0.87535 0.0
C289 C 0.19402 0.04 0.89228 0.0
H290 H 0.13688 0.94136 0.89 0.0
H291 H 0.14161 0.00791 0.84324 0.0
S292 S 0.27444 0.04375 0.00339 0.0
N293 N 0.24823 0.99517 0.00454 0.0
N294 N 0.25299 0.06716 0.95312 0.0
C295 C 0.22335 0.03492 0.93448 0.0
C296 C 0.22049 0.99601 0.96243 0.0
C297 C 0.50283 0.63304 0.38666 0.0
C298 C 0.51119 0.66575 0.42597 0.0
C299 C 0.45835 0.62788 0.36441 0.0
C300 C 0.42053 0.65515 0.38068 0.0
H301 H 0.53013 0.60949 0.3751 0.0
H302 H 0.45258 0.60029 0.33686 0.0
S303 S 0.42533 0.7498 0.47653 0.0
N304 N 0.47933 0.72935 0.47573 0.0
N305 N 0.39516 0.71902 0.4339 0.0
C306 C 0.42926 0.6905 0.41642 0.0
C307 C 0.47484 0.69599 0.43909 0.0
C308 C 0.31101 0.49964 0.66148 0.0
C309 C 0.34647 0.46756 0.65376 0.0
C310 C 0.32038 0.53981 0.68935 0.0
C311 C 0.36545 0.54879 0.71 0.0
H312 H 0.27724 0.49513 0.64268 0.0
H313 H 0.29332 0.56507 0.69173 0.0
S314 S 0.46758 0.47247 0.70652 0.0
N315 N 0.4263 0.44537 0.67325 0.0
N316 N 0.4435 0.52 0.72649 0.0
C317 C 0.39964 0.5153 0.70605 0.0
C318 C 0.39024 0.47487 0.67761 0.0
C319 C 0.98484 0.83635 0.15419 0.0
C320 C 0.99622 0.83417 0.102 0.0
C321 C 0.93775 0.84074 0.17046 0.0
C322 C 0.90085 0.844 0.13498 0.0
H323 H 0.0126 0.83655 0.18252 0.0
H324 H 0.93048 0.84445 0.21102 0.0
S325 S 0.91257 0.8388 0.99406 0.0
N326 N 0.96706 0.83393 0.01505 0.0
N327 N 0.87888 0.84281 0.04547 0.0
C328 C 0.91185 0.84013 0.0827 0.0
C329 C 0.95952 0.83513 0.06625 0.0
C330 C 0.6654 0.54026 0.65067 0.0
C331 C 0.69177 0.54396 0.60566 0.0
C332 C 0.66858 0.5026 0.67874 0.0
C333 C 0.69833 0.46731 0.66299 0.0
H334 H 0.63965 0.56524 0.66243 0.0
H335 H 0.6446 0.49938 0.71045 0.0
S336 S 0.78077 0.4634 0.55353 0.0
N337 N 0.75385 0.51156 0.5511 0.0
N338 N 0.75883 0.44031 0.60377 0.0
C339 C 0.72838 0.47234 0.62134 0.0
C340 C 0.72541 0.51088 0.5927 0.0
C341 C 0.98407 0.2052 0.14041 0.0
C342 C 0.93853 0.18865 0.14758 0.0
C343 C 0.02029 0.19595 0.1742 0.0
C344 C 0.01112 0.17182 0.21704 0.0
H345 H 0.99279 0.2214 0.10606 0.0
H346 H 0.05611 0.20481 0.16484 0.0
S347 S 0.89425 0.13935 0.264 0.0
N348 N 0.88359 0.15889 0.20766 0.0
N349 N 0.95181 0.14308 0.27268 0.0
C350 C 0.96449 0.16199 0.22914 0.0
C351 C 0.92785 0.1704 0.19409 0.0
C352 C 0.24107 0.79521 0.19633 0.0
C353 C 0.20141 0.77794 0.16978 0.0
C354 C 0.26318 0.77193 0.23409 0.0
C355 C 0.24692 0.73044 0.24692 0.0
H356 H 0.25597 0.82664 0.18712 0.0
H357 H 0.29438 0.7859 0.25252 0.0
S358 S 0.14253 0.67129 0.19166 0.0
N359 N 0.14511 0.71734 0.16122 0.0
N360 N 0.18706 0.67354 0.23223 0.0
C361 C 0.2062 0.71318 0.22235 0.0
C362 C 0.18334 0.73707 0.18384 0.0
C363 C 0.79337 0.70903 0.61098 0.0
C364 C 0.7524 0.73005 0.59402 0.0
C365 C 0.82377 0.73026 0.64666 0.0
C366 C 0.81452 0.77312 0.66715 0.0
H367 H 0.80214 0.67573 0.59678 0.0
H368 H 0.85471 0.71282 0.65887 0.0
S369 S 0.71253 0.84346 0.63533 0.0
N370 N 0.70462 0.79693 0.60038 0.0
N371 N 0.76172 0.83668 0.66742 0.0
C372 C 0.77397 0.79499 0.65038 0.0
C373 C 0.74299 0.77343 0.61383 0.0
C374 C 0.76438 0.29247 0.10212 0.0
C375 C 0.74809 0.25006 0.08558 0.0
C376 C 0.7367 0.32127 0.13309 0.0
C377 C 0.69189 0.30892 0.14905 0.0
H378 H 0.79918 0.30345 0.09167 0.0
H379 H 0.75102 0.3531 0.14615 0.0
S380 S 0.6316 0.20232 0.11445 0.0
N381 N 0.68327 0.19775 0.08571 0.0
N382 N 0.63105 0.25187 0.14433 0.0
C383 C 0.6742 0.26712 0.13153 0.0
C384 C 0.70242 0.23776 0.09961 0.0
C385 C 0.24668 0.29397 0.69082 0.0
C386 C 0.2896 0.27861 0.66944 0.0
C387 C 0.22402 0.27148 0.72879 0.0
C388 C 0.24297 0.23267 0.74662 0.0
H389 H 0.22986 0.32323 0.67748 0.0
H390 H 0.19051 0.2838 0.74345 0.0
S391 S 0.35638 0.18009 0.7066 0.0
N392 N 0.35182 0.2233 0.67154 0.0
N393 N 0.30878 0.1809 0.74279 0.0
C394 C 0.28677 0.21757 0.72725 0.0
C395 C 0.31019 0.2407 0.68872 0.0
C396 C 0.75115 0.71369 0.35937 0.0
C397 C 0.70859 0.72785 0.38272 0.0
C398 C 0.77111 0.73623 0.3196 0.0
C399 C 0.74976 0.77393 0.30155 0.0
H400 H 0.76963 0.6851 0.37214 0.0
H401 H 0.80417 0.72448 0.30318 0.0
S402 S 0.63701 0.82424 0.34769 0.0
N403 N 0.64479 0.78173 0.38325 0.0
N404 N 0.68266 0.82407 0.30868 0.0
C405 C 0.70667 0.78826 0.32356 0.0
C406 C 0.68606 0.76514 0.36404 0.0
C407 C 0.8015 0.26839 0.87535 0.0
C408 C 0.79158 0.22325 0.88062 0.0
C409 C 0.78203 0.29126 0.83561 0.0
C410 C 0.75201 0.26973 0.79956 0.0
H411 H 0.82323 0.28681 0.90308 0.0
H412 H 0.78915 0.32627 0.83435 0.0
S413 S 0.71874 0.15158 0.79195 0.0
N414 N 0.75271 0.15734 0.84301 0.0
N415 N 0.71595 0.20095 0.76872 0.0
C416 C 0.74372 0.22448 0.80261 0.0
C417 C 0.76355 0.20101 0.84295 0.0
C418 C 0.27073 0.22059 0.44535 0.0
C419 C 0.2559 0.26445 0.4574 0.0
C420 C 0.24556 0.19246 0.41114 0.0
C421 C 0.20447 0.20675 0.38799 0.0
H422 H 0.30233 0.20772 0.46222 0.0
H423 H 0.25818 0.15906 0.40277 0.0
S424 S 0.15102 0.31889 0.40485 0.0
N425 N 0.19779 0.32118 0.44224 0.0
N426 N 0.15022 0.26823 0.37793 0.0
C427 C 0.18914 0.25068 0.39911 0.0
C428 C 0.21501 0.27951 0.43382 0.0
C429 C 0.28883 0.80058 0.93843 0.0
C430 C 0.25116 0.77743 0.95956 0.0
C431 C 0.31874 0.78021 0.90145 0.0
C432 C 0.31215 0.73611 0.8838 0.0
H433 H 0.29516 0.83496 0.95009 0.0
H434 H 0.34697 0.7993 0.88587 0.0
S435 S 0.21997 0.65989 0.92788 0.0
N436 N 0.20993 0.70709 0.96076 0.0
N437 N 0.26594 0.66896 0.89151 0.0
C438 C 0.27514 0.71209 0.90511 0.0
C439 C 0.24476 0.73277 0.9429 0.0
loop_
_geom_bond_atom_site_label_1
_geom_bond_atom_site_label_2
_geom_bond_distance
_geom_bond_site_symmetry_2
_ccdc_geom_bond_type
Fe0 O2 1.918 . S
Fe0 O5 1.997 . S
Fe0 O6 2.002 . S
Fe0 O11 1.976 . S
Fe0 O14 1.996 . S
Fe1 O2 1.918 . S
Fe1 O9 1.997 . S
Fe1 O12 1.989 1_554 S
Fe1 O16 1.976 1_554 S
Fe1 O19 2.002 . S
O2 Fe0 1.918 . S
O2 Fe1 1.918 . S
O2 Fe3 1.918 . S
Fe3 O2 1.918 . S
Fe3 O4 2.002 . S
Fe3 O13 1.976 1_554 S
Fe3 O17 1.996 1_554 S
Fe3 O20 1.997 . S
O4 Fe3 2.002 . S
O4 C21 1.295 . S
O5 Fe0 1.997 . S
O5 C21 1.235 . S
O6 Fe0 2.002 . S
O6 C7 1.295 . S
C7 O6 1.295 . S
C7 O9 1.235 . S
C8 O13 1.287 . S
C8 O14 1.255 1_556 S
O9 Fe1 1.997 . S
O9 C7 1.235 . S
C10 O16 1.287 . S
C10 O17 1.255 . S
O11 Fe0 1.976 . S
O11 C18 1.287 1_554 S
O12 Fe1 1.989 1_556 S
O12 C18 1.256 . S
O13 Fe3 1.976 1_556 S
O13 C8 1.287 . S
O14 Fe0 1.996 . S
O14 C8 1.255 1_554 S
C15 O19 1.295 . S
C15 O20 1.235 . S
O16 Fe1 1.976 1_556 S
O16 C10 1.287 . S
O17 Fe3 1.996 1_556 S
O17 C10 1.255 . S
C18 O11 1.287 1_556 S
C18 O12 1.256 . S
O19 Fe1 2.002 . S
O19 C15 1.295 . S
O20 Fe3 1.997 . S
O20 C15 1.235 . S
C21 O4 1.295 . S
C21 O5 1.235 . S
Fe22 O24 1.918 . S
Fe22 O27 1.997 . S
Fe22 O28 2.002 . S
Fe22 O33 1.976 . S
Fe22 O36 1.996 . S
Fe23 O24 1.918 . S
Fe23 O31 1.997 . S
Fe23 O34 1.996 . S
Fe23 O38 1.976 . S
Fe23 O41 2.002 . S
O24 Fe22 1.918 . S
O24 Fe23 1.918 . S
O24 Fe25 1.918 . S
Fe25 O24 1.918 . S
Fe25 O26 2.002 . S
Fe25 O35 1.976 . S
Fe25 O39 1.996 . S
Fe25 O42 1.997 . S
O26 Fe25 2.002 . S
O26 C43 1.295 . S
O27 Fe22 1.997 . S
O27 C43 1.235 . S
O28 Fe22 2.002 . S
O28 C29 1.295 . S
C29 O28 1.295 . S
C29 O31 1.235 . S
C30 O35 1.287 . S
C30 O36 1.255 . S
O31 Fe23 1.997 . S
O31 C29 1.235 . S
C32 O38 1.287 . S
C32 O39 1.255 . S
O33 Fe22 1.976 . S
O33 C40 1.287 . S
O34 Fe23 1.996 . S
O34 C40 1.255 . S
O35 Fe25 1.976 . S
O35 C30 1.287 . S
O36 Fe22 1.996 . S
O36 C30 1.255 . S
C37 O41 1.295 . S
C37 O42 1.235 . S
O38 Fe23 1.976 . S
O38 C32 1.287 . S
O39 Fe25 1.996 . S
O39 C32 1.255 . S
C40 O33 1.287 . S
C40 O34 1.255 . S
O41 Fe23 2.002 . S
O41 C37 1.295 . S
O42 Fe25 1.997 . S
O42 C37 1.235 . S
C43 O26 1.295 . S
C43 O27 1.235 . S
Fe44 O46 1.918 . S
Fe44 O49 1.997 1_554 S
Fe44 O50 2.002 1_554 S
Fe44 O55 1.976 . S
Fe44 O58 1.996 . S
Fe45 O46 1.918 . S
Fe45 O53 1.997 1_554 S
Fe45 O56 1.996 . S
Fe45 O60 1.976 . S
Fe45 O63 2.002 1_554 S
O46 Fe44 1.918 . S
O46 Fe45 1.918 . S
O46 Fe47 1.918 1_554 S
Fe47 O46 1.918 1_556 S
Fe47 O48 2.002 . S
Fe47 O57 1.976 1_556 S
Fe47 O61 1.996 1_556 S
Fe47 O64 1.997 . S
O48 Fe47 2.002 . S
O48 C65 1.295 . S
O49 Fe44 1.997 1_556 S
O49 C65 1.235 . S
O50 Fe44 2.002 1_556 S
O50 C51 1.295 . S
C51 O50 1.295 . S
C51 O53 1.235 . S
C52 O57 1.287 . S
C52 O58 1.255 . S
O53 Fe45 1.997 1_556 S
O53 C51 1.235 . S
C54 O60 1.287 . S
C54 O61 1.255 . S
O55 Fe44 1.976 . S
O55 C62 1.287 . S
O56 Fe45 1.996 . S
O56 C62 1.255 . S
O57 Fe47 1.976 1_554 S
O57 C52 1.287 . S
O58 Fe44 1.996 . S
O58 C52 1.255 . S
C59 O63 1.295 . S
C59 O64 1.235 . S
O60 Fe45 1.976 . S
O60 C54 1.287 . S
O61 Fe47 1.996 1_554 S
O61 C54 1.255 . S
C62 O55 1.287 . S
C62 O56 1.255 . S
O63 Fe45 2.002 1_556 S
O63 C59 1.295 . S
O64 Fe47 1.997 . S
O64 C59 1.235 . S
C65 O48 1.295 . S
C65 O49 1.235 . S
Fe66 O68 1.918 . S
Fe66 O71 1.997 . S
Fe66 O72 2.002 . S
Fe66 O77 1.976 . S
Fe66 O80 1.996 . S
Fe67 O68 1.918 . S
Fe67 O75 1.997 . S
Fe67 O78 1.996 . S
Fe67 O82 1.976 . S
Fe67 O85 2.002 . S
O68 Fe66 1.918 . S
O68 Fe67 1.918 . S
O68 Fe69 1.918 . S
Fe69 O68 1.918 . S
Fe69 O70 2.002 . S
Fe69 O79 1.976 . S
Fe69 O83 1.996 . S
Fe69 O86 1.997 . S
O70 Fe69 2.002 . S
O70 C87 1.295 . S
O71 Fe66 1.997 . S
O71 C87 1.235 . S
O72 Fe66 2.002 . S
O72 C73 1.295 . S
C73 O72 1.295 . S
C73 O75 1.235 . S
C74 O79 1.287 . S
C74 O80 1.255 . S
O75 Fe67 1.997 . S
O75 C73 1.235 . S
C76 O82 1.287 . S
C76 O83 1.255 . S
O77 Fe66 1.976 . S
O77 C84 1.287 . S
O78 Fe67 1.996 . S
O78 C84 1.255 . S
O79 Fe69 1.976 . S
O79 C74 1.287 . S
O80 Fe66 1.996 . S
O80 C74 1.255 . S
C81 O85 1.295 . S
C81 O86 1.235 . S
O82 Fe67 1.976 . S
O82 C76 1.287 . S
O83 Fe69 1.996 . S
O83 C76 1.255 . S
C84 O77 1.287 . S
C84 O78 1.255 . S
O85 Fe67 2.002 . S
O85 C81 1.295 . S
O86 Fe69 1.997 . S
O86 C81 1.235 . S
C87 O70 1.295 . S
C87 O71 1.235 . S
H88 C93 0.929 . S
H89 C98 0.931 . S
H90 C96 0.930 . S
N91 N92 1.234 . S
N91 C95 1.453 . S
N92 N91 1.234 . S
C93 H88 0.929 . S
C93 C94 1.373 . S
C93 C95 1.368 . S
C94 C93 1.373 . S
C94 C98 1.397 . S
C95 N91 1.453 . S
C95 C93 1.368 . S
C95 C96 1.373 . S
C96 H90 0.930 . S
C96 C95 1.373 . S
C96 C97 1.371 . S
C97 C96 1.371 . S
C97 C98 1.383 . S
C98 H89 0.931 . S
C98 C94 1.397 . S
C98 C97 1.383 . S
H99 C104 0.929 . S
H100 C109 0.931 . S
H101 C107 0.930 . S
N102 N103 1.234 . S
N102 C106 1.453 . S
N103 N102 1.234 . S
C104 H99 0.929 . S
C104 C105 1.373 . S
C104 C106 1.368 . S
C105 C104 1.373 . S
C105 C109 1.397 . S
C106 N102 1.453 . S
C106 C104 1.368 . S
C106 C107 1.373 . S
C107 H101 0.930 . S
C107 C106 1.373 . S
C107 C108 1.371 . S
C108 C107 1.371 . S
C108 C109 1.383 . S
C109 H100 0.931 . S
C109 C105 1.397 . S
C109 C108 1.383 . S
H110 C115 0.929 . S
H111 C120 0.931 . S
H112 C118 0.930 . S
N113 N114 1.234 . S
N113 C117 1.453 . S
N114 N113 1.234 . S
C115 H110 0.929 . S
C115 C116 1.373 . S
C115 C117 1.368 . S
C116 C115 1.373 . S
C116 C120 1.397 . S
C117 N113 1.453 . S
C117 C115 1.368 . S
C117 C118 1.373 . S
C118 H112 0.930 . S
C118 C117 1.373 . S
C118 C119 1.371 . S
C119 C118 1.371 . S
C119 C120 1.383 . S
C120 H111 0.931 . S
C120 C116 1.397 . S
C120 C119 1.383 . S
H121 C126 0.929 . S
H122 C131 0.931 . S
H123 C129 0.930 . S
N124 N125 1.234 . S
N124 C128 1.453 . S
N125 N124 1.234 . S
C126 H121 0.929 . S
C126 C127 1.373 . S
C126 C128 1.368 . S
C127 C126 1.373 . S
C127 C131 1.397 . S
C128 N124 1.453 . S
C128 C126 1.368 . S
C128 C129 1.373 . S
C129 H123 0.930 . S
C129 C128 1.373 . S
C129 C130 1.371 . S
C130 C129 1.371 . S
C130 C131 1.383 . S
C131 H122 0.931 . S
C131 C127 1.397 . S
C131 C130 1.383 . S
H132 C137 0.929 . S
H133 C142 0.931 . S
H134 C140 0.930 . S
N135 N136 1.234 . S
N135 C139 1.453 . S
N136 N135 1.234 . S
C137 H132 0.929 . S
C137 C138 1.373 . S
C137 C139 1.368 . S
C138 C137 1.373 . S
C138 C142 1.397 . S
C139 N135 1.453 . S
C139 C137 1.368 . S
C139 C140 1.373 . S
C140 H134 0.930 . S
C140 C139 1.373 . S
C140 C141 1.371 . S
C141 C140 1.371 . S
C141 C142 1.383 . S
C142 H133 0.931 . S
C142 C138 1.397 . S
C142 C141 1.383 . S
H143 C148 0.929 . S
H144 C153 0.931 . S
H145 C151 0.930 . S
N146 N147 1.234 . S
N146 C150 1.453 . S
N147 N146 1.234 . S
C148 H143 0.929 . S
C148 C149 1.373 . S
C148 C150 1.368 . S
C149 C148 1.373 . S
C149 C153 1.397 . S
C150 N146 1.453 . S
C150 C148 1.368 . S
C150 C151 1.373 . S
C151 H145 0.930 . S
C151 C150 1.373 . S
C151 C152 1.371 . S
C152 C151 1.371 . S
C152 C153 1.383 . S
C153 H144 0.931 . S
C153 C149 1.397 . S
C153 C152 1.383 . S
H154 C159 0.929 . S
H155 C164 0.931 . S
H156 C162 0.930 . S
N157 N158 1.234 . S
N157 C161 1.453 . S
N158 N157 1.234 . S
C159 H154 0.929 . S
C159 C160 1.373 . S
C159 C161 1.368 . S
C160 C159 1.373 . S
C160 C164 1.397 . S
C161 N157 1.453 . S
C161 C159 1.368 . S
C161 C162 1.373 . S
C162 H156 0.930 . S
C162 C161 1.373 . S
C162 C163 1.371 . S
C163 C162 1.371 . S
C163 C164 1.383 . S
C164 H155 0.931 . S
C164 C160 1.397 . S
C164 C163 1.383 . S
H165 C170 0.929 . S
H166 C175 0.931 . S
H167 C173 0.930 . S
N168 N169 1.234 . S
N168 C172 1.453 . S
N169 N168 1.234 . S
C170 H165 0.929 . S
C170 C171 1.373 . S
C170 C172 1.368 . S
C171 C170 1.373 . S
C171 C175 1.397 . S
C172 N168 1.453 . S
C172 C170 1.368 . S
C172 C173 1.373 . S
C173 H167 0.930 . S
C173 C172 1.373 . S
C173 C174 1.371 . S
C174 C173 1.371 . S
C174 C175 1.383 . S
C175 H166 0.931 . S
C175 C171 1.397 . S
C175 C174 1.383 . S
C176 C177 1.369 . S
C176 C178 1.419 1_565 S
C176 H180 0.930 . S
C177 C176 1.369 . S
C177 C186 1.429 1_565 S
C178 C176 1.419 1_545 S
C178 C179 1.363 . S
C178 H181 0.929 . S
C179 C178 1.363 . S
C179 C185 1.428 . S
H180 C176 0.930 . S
H181 C178 0.929 . S
S182 N183 1.603 1_545 S
S182 N184 1.610 . S
N183 S182 1.603 1_565 S
N183 C186 1.349 1_565 S
N184 S182 1.610 . S
N184 C185 1.351 . S
C185 C179 1.428 . S
C185 N184 1.351 . S
C185 C186 1.434 . S
C186 C177 1.429 1_545 S
C186 N183 1.349 1_545 S
C186 C185 1.434 . S
C187 C188 1.369 . S
C187 C189 1.419 . S
C187 H191 0.930 . S
C188 C187 1.369 . S
C188 C197 1.429 . S
C189 C187 1.419 . S
C189 C190 1.363 . S
C189 H192 0.929 . S
C190 C189 1.363 . S
C190 C196 1.428 . S
H191 C187 0.930 . S
H192 C189 0.929 . S
S193 N194 1.613 . S
S193 N195 1.610 . S
N194 S193 1.613 . S
N194 C197 1.350 . S
N195 S193 1.610 . S
N195 C196 1.351 . S
C196 C190 1.428 . S
C196 N195 1.351 . S
C196 C197 1.434 . S
C197 C188 1.429 . S
C197 N194 1.350 . S
C197 C196 1.434 . S
C198 C199 1.369 . S
C198 C200 1.419 1_545 S
C198 H202 0.930 . S
C199 C198 1.369 . S
C199 C208 1.429 1_545 S
C200 C198 1.419 1_565 S
C200 C201 1.363 . S
C200 H203 0.929 . S
C201 C200 1.363 . S
C201 C207 1.428 . S
H202 C198 0.930 . S
H203 C200 0.929 . S
S204 N205 1.613 . S
S204 N206 1.610 . S
N205 S204 1.613 . S
N205 C208 1.350 . S
N206 S204 1.610 . S
N206 C207 1.351 . S
C207 C201 1.428 . S
C207 N206 1.351 . S
C207 C208 1.434 . S
C208 C199 1.429 1_565 S
C208 N205 1.350 . S
C208 C207 1.434 . S
C209 C210 1.369 . S
C209 C211 1.419 . S
C209 H213 0.930 . S
C210 C209 1.369 . S
C210 C219 1.429 . S
C211 C209 1.419 . S
C211 C212 1.363 . S
C211 H214 0.929 . S
C212 C211 1.363 . S
C212 C218 1.428 . S
H213 C209 0.930 . S
H214 C211 0.929 . S
S215 N216 1.613 . S
S215 N217 1.610 . S
N216 S215 1.613 . S
N216 C219 1.350 . S
N217 S215 1.610 . S
N217 C218 1.351 . S
C218 C212 1.428 . S
C218 N217 1.351 . S
C218 C219 1.434 . S
C219 C210 1.429 . S
C219 N216 1.350 . S
C219 C218 1.434 . S
C220 C221 1.369 . S
C220 C222 1.419 . S
C220 H224 0.930 . S
C221 C220 1.369 . S
C221 C230 1.429 . S
C222 C220 1.419 . S
C222 C223 1.363 . S
C222 H225 0.929 . S
C223 C222 1.363 . S
C223 C229 1.428 . S
H224 C220 0.930 . S
H225 C222 0.929 . S
S226 N227 1.613 . S
S226 N228 1.610 . S
N227 S226 1.613 . S
N227 C230 1.350 . S
N228 S226 1.610 . S
N228 C229 1.351 . S
C229 C223 1.428 . S
C229 N228 1.351 . S
C229 C230 1.434 . S
C230 C221 1.429 . S
C230 N227 1.350 . S
C230 C229 1.434 . S
C231 C232 1.369 . S
C231 C233 1.419 . S
C231 H235 0.930 . S
C232 C231 1.369 . S
C232 C241 1.429 . S
C233 C231 1.419 . S
C233 C234 1.363 . S
C233 H236 0.929 . S
C234 C233 1.363 . S
C234 C240 1.428 . S
H235 C231 0.930 . S
H236 C233 0.929 . S
S237 N238 1.613 . S
S237 N239 1.603 1_554 S
N238 S237 1.613 . S
N238 C241 1.350 1_554 S
N239 S237 1.603 1_556 S
N239 C240 1.359 . S
C240 C234 1.428 . S
C240 N239 1.359 . S
C240 C241 1.434 . S
C241 C232 1.429 . S
C241 N238 1.350 1_556 S
C241 C240 1.434 . S
C242 C243 1.369 . S
C242 C244 1.419 . S
C242 H246 0.930 . S
C243 C242 1.369 . S
C243 C252 1.429 . S
C244 C242 1.419 . S
C244 C245 1.363 . S
C244 H247 0.929 . S
C245 C244 1.363 . S
C245 C251 1.428 . S
H246 C242 0.930 . S
H247 C244 0.929 . S
S248 N249 1.613 . S
S248 N250 1.610 . S
N249 S248 1.613 . S
N249 C252 1.350 . S
N250 S248 1.610 . S
N250 C251 1.351 . S
C251 C245 1.428 . S
C251 N250 1.351 . S
C251 C252 1.434 . S
C252 C243 1.429 . S
C252 N249 1.350 . S
C252 C251 1.434 . S
C253 C254 1.369 . S
C253 C255 1.419 . S
C253 H257 0.930 . S
C254 C253 1.369 . S
C254 C263 1.429 1_455 S
C255 C253 1.419 . S
C255 C256 1.363 1_455 S
C255 H258 0.929 . S
C256 C255 1.363 1_655 S
C256 C262 1.428 . S
H257 C253 0.930 . S
H258 C255 0.929 . S
S259 N260 1.613 . S
S259 N261 1.610 . S
N260 S259 1.613 . S
N260 C263 1.350 . S
N261 S259 1.610 . S
N261 C262 1.351 . S
C262 C256 1.428 . S
C262 N261 1.351 . S
C262 C263 1.434 . S
C263 C254 1.429 1_655 S
C263 N260 1.350 . S
C263 C262 1.434 . S
C264 C265 1.369 1_565 S
C264 C266 1.419 . S
C264 H268 0.930 . S
C265 C264 1.369 1_545 S
C265 C274 1.429 . S
C266 C264 1.419 . S
C266 C267 1.363 . S
C266 H269 0.929 . S
C267 C266 1.363 . S
C267 C273 1.428 . S
H268 C264 0.930 . S
H269 C266 0.929 . S
S270 N271 1.613 . S
S270 N272 1.610 . S
N271 S270 1.613 . S
N271 C274 1.350 . S
N272 S270 1.610 . S
N272 C273 1.351 1_545 S
C273 C267 1.428 . S
C273 N272 1.351 1_565 S
C273 C274 1.434 1_565 S
C274 C265 1.429 . S
C274 N271 1.350 . S
C274 C273 1.434 1_545 S
C275 C276 1.369 . S
C275 C277 1.419 . S
C275 H279 0.930 . S
C276 C275 1.369 . S
C276 C285 1.429 . S
C277 C275 1.419 . S
C277 C278 1.363 . S
C277 H280 0.929 . S
C278 C277 1.363 . S
C278 C284 1.428 . S
H279 C275 0.930 . S
H280 C277 0.929 . S
S281 N282 1.613 . S
S281 N283 1.610 . S
N282 S281 1.613 . S
N282 C285 1.350 . S
N283 S281 1.610 . S
N283 C284 1.351 . S
C284 C278 1.428 . S
C284 N283 1.351 . S
C284 C285 1.434 . S
C285 C276 1.429 . S
C285 N282 1.350 . S
C285 C284 1.434 . S
C286 C287 1.369 . S
C286 C288 1.419 1_565 S
C286 H290 0.930 . S
C287 C286 1.369 . S
C287 C296 1.429 1_565 S
C288 C286 1.419 1_545 S
C288 C289 1.363 . S
C288 H291 0.929 . S
C289 C288 1.363 . S
C289 C295 1.428 . S
H290 C286 0.930 . S
H291 C288 0.929 . S
S292 N293 1.613 . S
S292 N294 1.610 1_554 S
N293 S292 1.613 . S
N293 C296 1.350 1_554 S
N294 S292 1.610 1_556 S
N294 C295 1.351 . S
C295 C289 1.428 . S
C295 N294 1.351 . S
C295 C296 1.434 . S
C296 C287 1.429 1_545 S
C296 N293 1.350 1_556 S
C296 C295 1.434 . S
C297 C298 1.369 . S
C297 C299 1.419 . S
C297 H301 0.930 . S
C298 C297 1.369 . S
C298 C307 1.429 . S
C299 C297 1.419 . S
C299 C300 1.363 . S
C299 H302 0.929 . S
C300 C299 1.363 . S
C300 C306 1.428 . S
H301 C297 0.930 . S
H302 C299 0.929 . S
S303 N304 1.613 . S
S303 N305 1.610 . S
N304 S303 1.613 . S
N304 C307 1.350 . S
N305 S303 1.610 . S
N305 C306 1.351 . S
C306 C300 1.428 . S
C306 N305 1.351 . S
C306 C307 1.434 . S
C307 C298 1.429 . S
C307 N304 1.350 . S
C307 C306 1.434 . S
C308 C309 1.369 . S
C308 C310 1.419 . S
C308 H312 0.930 . S
C309 C308 1.369 . S
C309 C318 1.429 . S
C310 C308 1.419 . S
C310 C311 1.363 . S
C310 H313 0.929 . S
C311 C310 1.363 . S
C311 C317 1.428 . S
H312 C308 0.930 . S
H313 C310 0.929 . S
S314 N315 1.613 . S
S314 N316 1.610 . S
N315 S314 1.613 . S
N315 C318 1.350 . S
N316 S314 1.610 . S
N316 C317 1.351 . S
C317 C311 1.428 . S
C317 N316 1.351 . S
C317 C318 1.434 . S
C318 C309 1.429 . S
C318 N315 1.350 . S
C318 C317 1.434 . S
C319 C320 1.369 . S
C319 C321 1.419 . S
C319 H323 0.930 . S
C320 C319 1.369 . S
C320 C329 1.429 . S
C321 C319 1.419 . S
C321 C322 1.363 . S
C321 H324 0.929 . S
C322 C321 1.363 . S
C322 C328 1.428 . S
H323 C319 0.930 . S
H324 C321 0.929 . S
S325 N326 1.613 1_556 S
S325 N327 1.610 1_556 S
N326 S325 1.613 1_554 S
N326 C329 1.350 . S
N327 S325 1.610 1_554 S
N327 C328 1.351 . S
C328 C322 1.428 . S
C328 N327 1.351 . S
C328 C329 1.434 . S
C329 C320 1.429 . S
C329 N326 1.350 . S
C329 C328 1.434 . S
C330 C331 1.369 . S
C330 C332 1.419 . S
C330 H334 0.930 . S
C331 C330 1.369 . S
C331 C340 1.429 . S
C332 C330 1.419 . S
C332 C333 1.363 . S
C332 H335 0.929 . S
C333 C332 1.363 . S
C333 C339 1.428 . S
H334 C330 0.930 . S
H335 C332 0.929 . S
S336 N337 1.613 . S
S336 N338 1.610 . S
N337 S336 1.613 . S
N337 C340 1.350 . S
N338 S336 1.610 . S
N338 C339 1.351 . S
C339 C333 1.428 . S
C339 N338 1.351 . S
C339 C340 1.434 . S
C340 C331 1.429 . S
C340 N337 1.350 . S
C340 C339 1.434 . S
C341 C342 1.369 1_455 S
C341 C343 1.419 . S
C341 H345 0.930 . S
C342 C341 1.369 1_655 S
C342 C351 1.429 . S
C343 C341 1.419 . S
C343 C344 1.363 . S
C343 H346 0.929 . S
C344 C343 1.363 . S
C344 C350 1.428 1_455 S
H345 C341 0.930 . S
H346 C343 0.929 . S
S347 N348 1.613 . S
S347 N349 1.610 . S
N348 S347 1.613 . S
N348 C351 1.350 . S
N349 S347 1.610 . S
N349 C350 1.351 . S
C350 C344 1.428 1_655 S
C350 N349 1.351 . S
C350 C351 1.434 . S
C351 C342 1.429 . S
C351 N348 1.350 . S
C351 C350 1.434 . S
C352 C353 1.369 . S
C352 C354 1.419 . S
C352 H356 0.930 . S
C353 C352 1.369 . S
C353 C362 1.429 . S
C354 C352 1.419 . S
C354 C355 1.363 . S
C354 H357 0.929 . S
C355 C354 1.363 . S
C355 C361 1.428 . S
H356 C352 0.930 . S
H357 C354 0.929 . S
S358 N359 1.613 . S
S358 N360 1.610 . S
N359 S358 1.613 . S
N359 C362 1.350 . S
N360 S358 1.610 . S
N360 C361 1.351 . S
C361 C355 1.428 . S
C361 N360 1.351 . S
C361 C362 1.434 . S
C362 C353 1.429 . S
C362 N359 1.350 . S
C362 C361 1.434 . S
C363 C364 1.369 . S
C363 C365 1.419 . S
C363 H367 0.930 . S
C364 C363 1.369 . S
C364 C373 1.429 . S
C365 C363 1.419 . S
C365 C366 1.363 . S
C365 H368 0.929 . S
C366 C365 1.363 . S
C366 C372 1.428 . S
H367 C363 0.930 . S
H368 C365 0.929 . S
S369 N370 1.613 . S
S369 N371 1.610 . S
N370 S369 1.613 . S
N370 C373 1.350 . S
N371 S369 1.610 . S
N371 C372 1.351 . S
C372 C366 1.428 . S
C372 N371 1.351 . S
C372 C373 1.434 . S
C373 C364 1.429 . S
C373 N370 1.350 . S
C373 C372 1.434 . S
C374 C375 1.369 . S
C374 C376 1.419 . S
C374 H378 0.930 . S
C375 C374 1.369 . S
C375 C384 1.429 . S
C376 C374 1.419 . S
C376 C377 1.363 . S
C376 H379 0.929 . S
C377 C376 1.363 . S
C377 C383 1.428 . S
H378 C374 0.930 . S
H379 C376 0.929 . S
S380 N381 1.613 . S
S380 N382 1.610 . S
N381 S380 1.613 . S
N381 C384 1.350 . S
N382 S380 1.610 . S
N382 C383 1.351 . S
C383 C377 1.428 . S
C383 N382 1.351 . S
C383 C384 1.434 . S
C384 C375 1.429 . S
C384 N381 1.350 . S
C384 C383 1.434 . S
C385 C386 1.369 . S
C385 C387 1.419 . S
C385 H389 0.930 . S
C386 C385 1.369 . S
C386 C395 1.429 . S
C387 C385 1.419 . S
C387 C388 1.363 . S
C387 H390 0.929 . S
C388 C387 1.363 . S
C388 C394 1.428 . S
H389 C385 0.930 . S
H390 C387 0.929 . S
S391 N392 1.613 . S
S391 N393 1.610 . S
N392 S391 1.613 . S
N392 C395 1.350 . S
N393 S391 1.610 . S
N393 C394 1.351 . S
C394 C388 1.428 . S
C394 N393 1.351 . S
C394 C395 1.434 . S
C395 C386 1.429 . S
C395 N392 1.350 . S
C395 C394 1.434 . S
C396 C397 1.369 . S
C396 C398 1.419 . S
C396 H400 0.930 . S
C397 C396 1.369 . S
C397 C406 1.429 . S
C398 C396 1.419 . S
C398 C399 1.363 . S
C398 H401 0.929 . S
C399 C398 1.363 . S
C399 C405 1.428 . S
H400 C396 0.930 . S
H401 C398 0.929 . S
S402 N403 1.613 . S
S402 N404 1.610 . S
N403 S402 1.613 . S
N403 C406 1.350 . S
N404 S402 1.610 . S
N404 C405 1.351 . S
C405 C399 1.428 . S
C405 N404 1.351 . S
C405 C406 1.434 . S
C406 C397 1.429 . S
C406 N403 1.350 . S
C406 C405 1.434 . S
C407 C408 1.369 . S
C407 C409 1.419 . S
C407 H411 0.930 . S
C408 C407 1.369 . S
C408 C417 1.429 . S
C409 C407 1.419 . S
C409 C410 1.363 . S
C409 H412 0.929 . S
C410 C409 1.363 . S
C410 C416 1.428 . S
H411 C407 0.930 . S
H412 C409 0.929 . S
S413 N414 1.613 . S
S413 N415 1.610 . S
N414 S413 1.613 . S
N414 C417 1.350 . S
N415 S413 1.610 . S
N415 C416 1.351 . S
C416 C410 1.428 . S
C416 N415 1.351 . S
C416 C417 1.434 . S
C417 C408 1.429 . S
C417 N414 1.350 . S
C417 C416 1.434 . S
C418 C419 1.369 . S
C418 C420 1.419 . S
C418 H422 0.930 . S
C419 C418 1.369 . S
C419 C428 1.429 . S
C420 C418 1.419 . S
C420 C421 1.363 . S
C420 H423 0.929 . S
C421 C420 1.363 . S
C421 C427 1.428 . S
H422 C418 0.930 . S
H423 C420 0.929 . S
S424 N425 1.613 . S
S424 N426 1.610 . S
N425 S424 1.613 . S
N425 C428 1.350 . S
N426 S424 1.610 . S
N426 C427 1.351 . S
C427 C421 1.428 . S
C427 N426 1.351 . S
C427 C428 1.434 . S
C428 C419 1.429 . S
C428 N425 1.350 . S
C428 C427 1.434 . S
C429 C430 1.369 . S
C429 C431 1.419 . S
C429 H433 0.930 . S
C430 C429 1.369 . S
C430 C439 1.429 . S
C431 C429 1.419 . S
C431 C432 1.363 . S
C431 H434 0.929 . S
C432 C431 1.363 . S
C432 C438 1.428 . S
H433 C429 0.930 . S
H434 C431 0.929 . S
S435 N436 1.613 . S
S435 N437 1.610 . S
N436 S435 1.613 . S
N436 C439 1.350 . S
N437 S435 1.610 . S
N437 C438 1.351 . S
C438 C432 1.428 . S
C438 N437 1.351 . S
C438 C439 1.434 . S
C439 C430 1.429 . S
C439 N436 1.350 . S
C439 C438 1.434 . S
C177 C7 1.515 . S
C179 C97 1.436 . S
C188 C37 1.488 . S
C190 C108 1.385 . S
C199 C54 1.419 . S
C201 C116 1.345 . S
C212 C130 1.425 . S
C210 C87 1.443 . S
C223 C141 1.407 . S
C221 C30 1.492 . S
C232 C51 1.447 1_455 S
C234 C152 1.436 . S
C243 C84 1.452 . S
C245 C160 1.373 . S
C254 C10 1.463 . S
C256 C174 1.357 . S
C265 C59 1.386 . S
C267 C171 1.359 . S
C278 C138 1.231 . S
C276 C74 1.278 . S
C289 C149 1.359 . S
C287 C18 1.415 . S
C298 C32 1.451 . S
C300 C163 1.414 . S
C311 C105 1.353 . S
C309 C73 1.384 . S
C320 C15 1.448 1_655 S
C322 C119 1.427 . S
C333 C127 1.392 . S
C331 C43 1.427 . S
C344 C94 1.238 . S
C342 C62 1.282 . S
C355 N158 1.478 . S
C353 C21 1.522 . S
C366 N169 1.478 . S
C364 C29 1.472 . S
C375 C52 1.408 . S
C377 N136 1.394 . S
C388 N147 1.429 . S
C386 C81 1.474 . S
C399 N114 1.462 . S
C397 C40 1.495 . S
C408 C65 1.472 . S
C410 N125 1.428 . S
C421 N92 1.404 . S
C419 C76 1.415 . S
C432 N103 1.479 . S
C430 C8 1.488 . S
