# Generated by pormake.
# Topology eea, (3,6)-cn, num edge types: 1
# Building blocks:
#     Node 0, Type 0, BuildingBlock: QEWDON_clean_linker_0, # of connection points: 3
#     Node 1, Type 0, BuildingBlock: QEWDON_clean_linker_0, # of connection points: 3
#     Node 2, Type 0, BuildingBlock: QEWDON_clean_linker_0, # of connection points: 3
#     Node 3, Type 0, BuildingBlock: QEWDON_clean_linker_0, # of connection points: 3
#     Node 4, Type 0, BuildingBlock: QEWDON_clean_linker_0, # of connection points: 3
#     Node 5, Type 0, BuildingBlock: QEWDON_clean_linker_0, # of connection points: 3
#     Node 6, Type 0, BuildingBlock: QEWDON_clean_linker_0, # of connection points: 3
#     Node 7, Type 0, BuildingBlock: QEWDON_clean_linker_0, # of connection points: 3
#     Node 8, Type 0, BuildingBlock: QEWDON_clean_linker_0, # of connection points: 3
#     Node 9, Type 0, BuildingBlock: QEWDON_clean_linker_0, # of connection points: 3
#     Node 10, Type 0, BuildingBlock: QEWDON_clean_linker_0, # of connection points: 3
#     Node 11, Type 0, BuildingBlock: QEWDON_clean_linker_0, # of connection points: 3
#     Node 12, Type 0, BuildingBlock: QEWDON_clean_linker_0, # of connection points: 3
#     Node 13, Type 0, BuildingBlock: QEWDON_clean_linker_0, # of connection points: 3
#     Node 14, Type 0, BuildingBlock: QEWDON_clean_linker_0, # of connection points: 3
#     Node 15, Type 0, BuildingBlock: QEWDON_clean_linker_0, # of connection points: 3
#     Node 16, Type 0, BuildingBlock: QEWDON_clean_linker_0, # of connection points: 3
#     Node 17, Type 0, BuildingBlock: QEWDON_clean_linker_0, # of connection points: 3
#     Node 18, Type 1, BuildingBlock: CUWYAW_clean_sbu_0, # of connection points: 6
#     Node 19, Type 1, BuildingBlock: CUWYAW_clean_sbu_0, # of connection points: 6
#     Node 20, Type 1, BuildingBlock: CUWYAW_clean_sbu_0, # of connection points: 6
#     Node 21, Type 1, BuildingBlock: CUWYAW_clean_sbu_0, # of connection points: 6
#     Node 22, Type 1, BuildingBlock: CUWYAW_clean_sbu_0, # of connection points: 6
#     Node 23, Type 1, BuildingBlock: CUWYAW_clean_sbu_0, # of connection points: 6
#     Node 24, Type 1, BuildingBlock: CUWYAW_clean_sbu_0, # of connection points: 6
#     Node 25, Type 1, BuildingBlock: CUWYAW_clean_sbu_0, # of connection points: 6
#     Node 26, Type 1, BuildingBlock: CUWYAW_clean_sbu_0, # of connection points: 6
#     Edge 27, Type (0, 1), BuildingBlock: XIVTED_clean_linker_0, # of connection points: 2
#     Edge 28, Type (0, 1), BuildingBlock: XIVTED_clean_linker_0, # of connection points: 2
#     Edge 29, Type (0, 1), BuildingBlock: XIVTED_clean_linker_0, # of connection points: 2
#     Edge 30, Type (0, 1), BuildingBlock: XIVTED_clean_linker_0, # of connection points: 2
#     Edge 31, Type (0, 1), BuildingBlock: XIVTED_clean_linker_0, # of connection points: 2
#     Edge 32, Type (0, 1), BuildingBlock: XIVTED_clean_linker_0, # of connection points: 2
#     Edge 33, Type (0, 1), BuildingBlock: XIVTED_clean_linker_0, # of connection points: 2
#     Edge 34, Type (0, 1), BuildingBlock: XIVTED_clean_linker_0, # of connection points: 2
#     Edge 35, Type (0, 1), BuildingBlock: XIVTED_clean_linker_0, # of connection points: 2
#     Edge 36, Type (0, 1), BuildingBlock: XIVTED_clean_linker_0, # of connection points: 2
#     Edge 37, Type (0, 1), BuildingBlock: XIVTED_clean_linker_0, # of connection points: 2
#     Edge 38, Type (0, 1), BuildingBlock: XIVTED_clean_linker_0, # of connection points: 2
#     Edge 39, Type (0, 1), BuildingBlock: XIVTED_clean_linker_0, # of connection points: 2
#     Edge 40, Type (0, 1), BuildingBlock: XIVTED_clean_linker_0, # of connection points: 2
#     Edge 41, Type (0, 1), BuildingBlock: XIVTED_clean_linker_0, # of connection points: 2
#     Edge 42, Type (0, 1), BuildingBlock: XIVTED_clean_linker_0, # of connection points: 2
#     Edge 43, Type (0, 1), BuildingBlock: XIVTED_clean_linker_0, # of connection points: 2
#     Edge 44, Type (0, 1), BuildingBlock: XIVTED_clean_linker_0, # of connection points: 2
#     Edge 45, Type (0, 1), BuildingBlock: XIVTED_clean_linker_0, # of connection points: 2
#     Edge 46, Type (0, 1), BuildingBlock: XIVTED_clean_linker_0, # of connection points: 2
#     Edge 47, Type (0, 1), BuildingBlock: XIVTED_clean_linker_0, # of connection points: 2
#     Edge 48, Type (0, 1), BuildingBlock: XIVTED_clean_linker_0, # of connection points: 2
#     Edge 49, Type (0, 1), BuildingBlock: XIVTED_clean_linker_0, # of connection points: 2
#     Edge 50, Type (0, 1), BuildingBlock: XIVTED_clean_linker_0, # of connection points: 2
#     Edge 51, Type (0, 1), BuildingBlock: XIVTED_clean_linker_0, # of connection points: 2
#     Edge 52, Type (0, 1), BuildingBlock: XIVTED_clean_linker_0, # of connection points: 2
#     Edge 53, Type (0, 1), BuildingBlock: XIVTED_clean_linker_0, # of connection points: 2
#     Edge 54, Type (0, 1), BuildingBlock: XIVTED_clean_linker_0, # of connection points: 2
#     Edge 55, Type (0, 1), BuildingBlock: XIVTED_clean_linker_0, # of connection points: 2
#     Edge 56, Type (0, 1), BuildingBlock: XIVTED_clean_linker_0, # of connection points: 2
#     Edge 57, Type (0, 1), BuildingBlock: XIVTED_clean_linker_0, # of connection points: 2
#     Edge 58, Type (0, 1), BuildingBlock: XIVTED_clean_linker_0, # of connection points: 2
#     Edge 59, Type (0, 1), BuildingBlock: XIVTED_clean_linker_0, # of connection points: 2
#     Edge 60, Type (0, 1), BuildingBlock: XIVTED_clean_linker_0, # of connection points: 2
#     Edge 61, Type (0, 1), BuildingBlock: XIVTED_clean_linker_0, # of connection points: 2
#     Edge 62, Type (0, 1), BuildingBlock: XIVTED_clean_linker_0, # of connection points: 2
#     Edge 63, Type (0, 1), BuildingBlock: XIVTED_clean_linker_0, # of connection points: 2
#     Edge 64, Type (0, 1), BuildingBlock: XIVTED_clean_linker_0, # of connection points: 2
#     Edge 65, Type (0, 1), BuildingBlock: XIVTED_clean_linker_0, # of connection points: 2
#     Edge 66, Type (0, 1), BuildingBlock: XIVTED_clean_linker_0, # of connection points: 2
#     Edge 67, Type (0, 1), BuildingBlock: XIVTED_clean_linker_0, # of connection points: 2
#     Edge 68, Type (0, 1), BuildingBlock: XIVTED_clean_linker_0, # of connection points: 2
#     Edge 69, Type (0, 1), BuildingBlock: XIVTED_clean_linker_0, # of connection points: 2
#     Edge 70, Type (0, 1), BuildingBlock: XIVTED_clean_linker_0, # of connection points: 2
#     Edge 71, Type (0, 1), BuildingBlock: XIVTED_clean_linker_0, # of connection points: 2
#     Edge 72, Type (0, 1), BuildingBlock: XIVTED_clean_linker_0, # of connection points: 2
#     Edge 73, Type (0, 1), BuildingBlock: XIVTED_clean_linker_0, # of connection points: 2
#     Edge 74, Type (0, 1), BuildingBlock: XIVTED_clean_linker_0, # of connection points: 2
#     Edge 75, Type (0, 1), BuildingBlock: XIVTED_clean_linker_0, # of connection points: 2
#     Edge 76, Type (0, 1), BuildingBlock: XIVTED_clean_linker_0, # of connection points: 2
#     Edge 77, Type (0, 1), BuildingBlock: XIVTED_clean_linker_0, # of connection points: 2
#     Edge 78, Type (0, 1), BuildingBlock: XIVTED_clean_linker_0, # of connection points: 2
#     Edge 79, Type (0, 1), BuildingBlock: XIVTED_clean_linker_0, # of connection points: 2
#     Edge 80, Type (0, 1), BuildingBlock: XIVTED_clean_linker_0, # of connection points: 2
# Relax obj value: 0.087
# Max RMSD: 0.262
# Mean RMSD: 0.180
data_MOF--net-eea--node1-CUWYAW_clean_sbu_0--node2-QEWDON_clean_linker_0--edge1-XIVTED_clean_linker_0
_symmetry_space_group_name_H-M    P1
_symmetry_Int_Tables_number       1
_symmetry_cell_setting            triclinic
loop_
_symmetry_equiv_pos_as_xyz
'x, y, z'
_cell_length_a     58.561339
_cell_length_b     58.186345
_cell_length_c     67.788056
_cell_angle_alpha  93.332329
_cell_angle_beta   93.380821
_cell_angle_gamma 119.88839
loop_
_atom_site_label
_atom_site_type_symbol
_atom_site_fract_x
_atom_site_fract_y
_atom_site_fract_z
_atom_type_partial_charge
H0 H 0.20949 0.12734 0.42123 0.0
C1 C 0.21035 0.11111 0.4133 0.0
C2 C 0.22781 0.10295 0.42076 0.0
C3 C 0.19269 0.09728 0.39636 0.0
H4 H 0.24206 0.07556 0.41589 0.0
C5 C 0.22851 0.08174 0.41024 0.0
C6 C 0.21092 0.06758 0.39314 0.0
C7 C 0.19295 0.07555 0.38647 0.0
C8 C 0.17165 0.10324 0.39035 0.0
H9 H 0.17832 0.0643 0.37395 0.0
C10 C 0.17773 0.12852 0.38487 0.0
C11 C 0.15722 0.13312 0.37824 0.0
C12 C 0.14507 0.08303 0.38985 0.0
H13 H 0.14002 0.06354 0.39418 0.0
C14 C 0.12477 0.08779 0.38388 0.0
H15 H 0.19821 0.14408 0.38497 0.0
C16 C 0.13075 0.11258 0.37803 0.0
H17 H 0.11461 0.11571 0.37324 0.0
H18 H 0.10433 0.07214 0.38361 0.0
H19 H 0.89185 0.10018 0.42332 0.0
C20 C 0.90647 0.11815 0.41752 0.0
C21 C 0.91529 0.14319 0.42803 0.0
C22 C 0.91804 0.11599 0.40049 0.0
H23 H 0.94217 0.18558 0.42884 0.0
C24 C 0.93537 0.16623 0.42089 0.0
C25 C 0.94678 0.16446 0.40359 0.0
C26 C 0.93786 0.13923 0.39349 0.0
C27 C 0.91213 0.08953 0.39143 0.0
H28 H 0.94717 0.1375 0.38057 0.0
C29 C 0.88599 0.0689 0.38525 0.0
C30 C 0.88131 0.04431 0.3761 0.0
C31 C 0.93328 0.08499 0.389 0.0
H32 H 0.95347 0.10037 0.39391 0.0
C33 C 0.92864 0.06052 0.38047 0.0
H34 H 0.86959 0.07231 0.38691 0.0
C35 C 0.90292 0.04036 0.37402 0.0
H36 H 0.89992 0.02152 0.36743 0.0
H37 H 0.94506 0.05719 0.37879 0.0
H38 H 0.92576 0.80558 0.44024 0.0
C39 C 0.90783 0.80342 0.43275 0.0
C40 C 0.88463 0.79327 0.44245 0.0
C41 C 0.90829 0.81253 0.41395 0.0
H42 H 0.84445 0.78498 0.44101 0.0
C43 C 0.86188 0.79197 0.43309 0.0
C44 C 0.86167 0.80004 0.41396 0.0
C45 C 0.88497 0.80979 0.40443 0.0
C46 C 0.93344 0.82782 0.4049 0.0
H47 H 0.88537 0.81586 0.3896 0.0
C48 C 0.95037 0.81759 0.40157 0.0
C49 C 0.97299 0.83207 0.39155 0.0
C50 C 0.93999 0.85294 0.39884 0.0
H51 H 0.92747 0.86137 0.40147 0.0
C52 C 0.96263 0.8674 0.38929 0.0
H53 H 0.94553 0.79822 0.40606 0.0
C54 C 0.97894 0.85697 0.38551 0.0
H55 H 0.99633 0.86836 0.37786 0.0
H56 H 0.96742 0.88666 0.38465 0.0
H57 H 0.1199 0.21696 0.57891 0.0
C58 C 0.10464 0.2184 0.58626 0.0
C59 C 0.09542 0.2351 0.57957 0.0
C60 C 0.09272 0.20176 0.60119 0.0
H61 H 0.06714 0.24823 0.58355 0.0
C62 C 0.07464 0.2357 0.58863 0.0
C63 C 0.06254 0.21913 0.60355 0.0
C64 C 0.07175 0.20236 0.60977 0.0
C65 C 0.09999 0.18156 0.60622 0.0
H66 H 0.06218 0.18932 0.62112 0.0
C67 C 0.12667 0.1883 0.61 0.0
C68 C 0.13302 0.16849 0.61389 0.0
C69 C 0.07987 0.15493 0.60659 0.0
H70 H 0.05924 0.14911 0.60349 0.0
C71 C 0.08614 0.13536 0.61049 0.0
H72 H 0.14238 0.20874 0.60978 0.0
C73 C 0.1125 0.14202 0.61404 0.0
H74 H 0.1169 0.12649 0.61712 0.0
H75 H 0.0705 0.11491 0.61066 0.0
H76 H 0.81482 0.91843 0.59636 0.0
C77 C 0.81219 0.90087 0.60299 0.0
C78 C 0.79608 0.87551 0.59255 0.0
C79 C 0.8259 0.90392 0.6215 0.0
H80 H 0.78058 0.83333 0.59331 0.0
C81 C 0.79296 0.85286 0.60131 0.0
C82 C 0.80644 0.8554 0.61997 0.0
C83 C 0.82277 0.88111 0.62986 0.0
C84 C 0.84539 0.93097 0.63131 0.0
H85 H 0.83391 0.88362 0.64393 0.0
C86 C 0.83998 0.9521 0.63181 0.0
C87 C 0.85926 0.9778 0.64039 0.0
C88 C 0.87021 0.93595 0.63969 0.0
H89 H 0.87528 0.92041 0.63916 0.0
C90 C 0.88909 0.96121 0.64846 0.0
H91 H 0.82103 0.94867 0.62537 0.0
C92 C 0.88373 0.98199 0.64881 0.0
H93 H 0.89876 1.00141 0.6558 0.0
H94 H 0.90807 0.96475 0.65489 0.0
H95 H 0.09483 0.88065 0.58715 0.0
C96 C 0.1112 0.89748 0.59613 0.0
C97 C 0.13683 0.9093 0.58988 0.0
C98 C 0.10628 0.90834 0.6133 0.0
H99 H 0.17706 0.94181 0.59607 0.0
C100 C 0.15763 0.93181 0.60135 0.0
C101 C 0.15308 0.94285 0.61864 0.0
C102 C 0.12736 0.93064 0.62461 0.0
C103 C 0.07876 0.89918 0.61789 0.0
H104 H 0.12344 0.93893 0.63784 0.0
C105 C 0.06079 0.87228 0.62026 0.0
C106 C 0.03459 0.8644 0.62404 0.0
C107 C 0.07027 0.9179 0.61945 0.0
H108 H 0.08365 0.93864 0.61754 0.0
C109 C 0.04435 0.91005 0.6231 0.0
H110 H 0.06709 0.85765 0.61915 0.0
C111 C 0.02658 0.88347 0.62532 0.0
H112 H 0.00653 0.87779 0.62824 0.0
H113 H 0.038 0.92461 0.62417 0.0
H114 H 0.86911 0.45126 0.75509 0.0
C115 C 0.87079 0.43599 0.74644 0.0
C116 C 0.8865 0.42613 0.75437 0.0
C117 C 0.85504 0.4242 0.72833 0.0
H118 H 0.90076 0.39898 0.74943 0.0
C119 C 0.8878 0.40567 0.74337 0.0
C120 C 0.87178 0.39312 0.72537 0.0
C121 C 0.85544 0.40272 0.718 0.0
C122 C 0.83494 0.43122 0.72175 0.0
H123 H 0.84197 0.39281 0.70468 0.0
C124 C 0.84208 0.45703 0.71683 0.0
C125 C 0.82237 0.46251 0.70965 0.0
C126 C 0.80809 0.41141 0.72016 0.0
H127 H 0.80221 0.39154 0.72406 0.0
C128 C 0.78857 0.41704 0.71367 0.0
H129 H 0.86278 0.47233 0.71779 0.0
C130 C 0.79562 0.44232 0.70835 0.0
H131 H 0.78008 0.44611 0.7031 0.0
H132 H 0.76792 0.40167 0.71256 0.0
H133 H 0.55712 0.42983 0.75703 0.0
C134 C 0.57261 0.44754 0.75158 0.0
C135 C 0.58389 0.47245 0.76295 0.0
C136 C 0.58199 0.44511 0.7335 0.0
H137 H 0.61441 0.51384 0.765 0.0
C138 C 0.6047 0.49502 0.75578 0.0
C139 C 0.61395 0.49303 0.73735 0.0
C140 C 0.60174 0.46797 0.72619 0.0
C141 C 0.57407 0.41855 0.72337 0.0
H142 H 0.6079 0.46578 0.71179 0.0
C143 C 0.54731 0.39903 0.71788 0.0
C144 C 0.54091 0.37454 0.70744 0.0
C145 C 0.59406 0.41292 0.71903 0.0
H146 H 0.61472 0.42744 0.72337 0.0
C147 C 0.58771 0.3885 0.70921 0.0
H148 H 0.53176 0.40324 0.72103 0.0
C149 C 0.56138 0.36948 0.70338 0.0
H150 H 0.55699 0.35065 0.69571 0.0
H151 H 0.60327 0.38435 0.70602 0.0
H152 H 0.58823 0.12699 0.76893 0.0
C153 C 0.57086 0.12602 0.76144 0.0
C154 C 0.54587 0.11002 0.76809 0.0
C155 C 0.57361 0.14172 0.74574 0.0
H156 H 0.50445 0.09804 0.76414 0.0
C157 C 0.52366 0.10973 0.75876 0.0
C158 C 0.52606 0.12528 0.74312 0.0
C159 C 0.55104 0.14093 0.7365 0.0
C160 C 0.60028 0.1612 0.74042 0.0
H161 H 0.55311 0.15342 0.72468 0.0
C162 C 0.61932 0.15376 0.73687 0.0
C163 C 0.64481 0.17296 0.73264 0.0
C164 C 0.60699 0.1879 0.73949 0.0
H165 H 0.59285 0.19422 0.74238 0.0
C166 C 0.63219 0.20688 0.73528 0.0
H167 H 0.6144 0.13324 0.73752 0.0
C168 C 0.65103 0.19953 0.73195 0.0
H169 H 0.67048 0.2146 0.72862 0.0
H170 H 0.63717 0.2274 0.73468 0.0
H171 H 0.78626 0.54757 0.91697 0.0
C172 C 0.77058 0.54955 0.92308 0.0
C173 C 0.76165 0.56548 0.91439 0.0
C174 C 0.75842 0.53495 0.93891 0.0
H175 H 0.73328 0.57901 0.91565 0.0
C176 C 0.74108 0.56762 0.92248 0.0
C177 C 0.729 0.55334 0.93843 0.0
C178 C 0.73774 0.53714 0.94655 0.0
C179 C 0.76526 0.51522 0.94604 0.0
H180 H 0.72797 0.52575 0.95861 0.0
C181 C 0.79181 0.52143 0.9495 0.0
C182 C 0.79771 0.50189 0.9551 0.0
C183 C 0.74484 0.48939 0.94856 0.0
H184 H 0.72425 0.48387 0.9457 0.0
C185 C 0.7507 0.47012 0.95426 0.0
H186 H 0.80778 0.54122 0.94763 0.0
C187 C 0.77693 0.47624 0.95741 0.0
H188 H 0.78103 0.46094 0.9618 0.0
H189 H 0.73482 0.45029 0.95606 0.0
H190 H 0.48138 0.25493 0.92988 0.0
C191 C 0.48004 0.23802 0.93679 0.0
C192 C 0.46535 0.21233 0.92655 0.0
C193 C 0.49392 0.24219 0.95548 0.0
H194 H 0.4543 0.17099 0.92711 0.0
C195 C 0.46452 0.19058 0.93531 0.0
C196 C 0.47843 0.19441 0.95398 0.0
C197 C 0.49232 0.22012 0.96412 0.0
C198 C 0.51242 0.26966 0.96506 0.0
H199 H 0.50256 0.2231 0.97871 0.0
C200 C 0.50602 0.29009 0.96487 0.0
C201 C 0.5246 0.31622 0.97315 0.0
C202 C 0.53748 0.2758 0.97382 0.0
H203 H 0.54335 0.26085 0.9738 0.0
C204 C 0.55563 0.30146 0.9823 0.0
H205 H 0.48688 0.28582 0.95815 0.0
C206 C 0.54931 0.32153 0.98197 0.0
H207 H 0.56379 0.34132 0.98872 0.0
H208 H 0.57479 0.30587 0.98901 0.0
H209 H 0.76107 0.2207 0.91689 0.0
C210 C 0.77767 0.23653 0.92642 0.0
C211 C 0.80312 0.24873 0.91995 0.0
C212 C 0.77319 0.2465 0.94427 0.0
H213 H 0.84398 0.27829 0.92728 0.0
C214 C 0.82435 0.26983 0.93212 0.0
C215 C 0.82036 0.28052 0.94989 0.0
C216 C 0.79452 0.26853 0.95578 0.0
C217 C 0.74575 0.23689 0.94934 0.0
H218 H 0.79054 0.27692 0.96891 0.0
C219 C 0.72815 0.20982 0.95167 0.0
C220 C 0.70199 0.20148 0.95594 0.0
C221 C 0.73694 0.25529 0.95146 0.0
H222 H 0.75 0.27612 0.9496 0.0
C223 C 0.7111 0.24702 0.95559 0.0
H224 H 0.73471 0.19544 0.95013 0.0
C225 C 0.6937 0.22032 0.95776 0.0
H226 H 0.67374 0.21437 0.96109 0.0
H227 H 0.7045 0.26136 0.95709 0.0
H228 H 0.54189 0.79545 0.08689 0.0
C229 C 0.54257 0.77902 0.07911 0.0
C230 C 0.56013 0.771 0.08658 0.0
C231 C 0.52457 0.76481 0.06238 0.0
H232 H 0.57422 0.74345 0.08196 0.0
C233 C 0.56056 0.74948 0.07629 0.0
C234 C 0.54256 0.73485 0.05948 0.0
C235 C 0.52455 0.74275 0.05276 0.0
C236 C 0.50342 0.77067 0.05646 0.0
H237 H 0.50965 0.7312 0.04046 0.0
C238 C 0.50931 0.7959 0.05092 0.0
C239 C 0.48866 0.80048 0.04463 0.0
C240 C 0.47688 0.75048 0.05629 0.0
H241 H 0.47197 0.73106 0.06069 0.0
C242 C 0.45647 0.75521 0.05067 0.0
H243 H 0.52975 0.81143 0.05078 0.0
C244 C 0.46224 0.77995 0.04483 0.0
H245 H 0.44596 0.78304 0.04044 0.0
H246 H 0.43607 0.73959 0.05072 0.0
H247 H 0.22611 0.76661 0.08682 0.0
C248 C 0.24052 0.78495 0.08133 0.0
C249 C 0.24961 0.80954 0.09264 0.0
C250 C 0.25132 0.78366 0.06364 0.0
H251 H 0.27642 0.85207 0.09425 0.0
C252 C 0.26942 0.83301 0.08577 0.0
C253 C 0.28023 0.83208 0.06797 0.0
C254 C 0.27087 0.80733 0.05696 0.0
C255 C 0.24427 0.75754 0.0531 0.0
H256 H 0.27954 0.80634 0.04347 0.0
C257 C 0.21766 0.73713 0.04834 0.0
C258 C 0.21167 0.71288 0.03775 0.0
C259 C 0.26466 0.75304 0.04775 0.0
H260 H 0.28525 0.76816 0.05155 0.0
C261 C 0.25879 0.72889 0.03769 0.0
H262 H 0.20178 0.74045 0.05224 0.0
C263 C 0.23255 0.70899 0.03266 0.0
H264 H 0.22855 0.69038 0.02485 0.0
H265 H 0.27465 0.7256 0.03374 0.0
H266 H 0.25564 0.46207 0.10362 0.0
C267 C 0.23818 0.46082 0.09604 0.0
C268 C 0.21312 0.44404 0.10228 0.0
C269 C 0.24089 0.47695 0.08066 0.0
H270 H 0.17146 0.431 0.09784 0.0
C271 C 0.19076 0.44334 0.09279 0.0
C272 C 0.19313 0.45933 0.07746 0.0
C273 C 0.21822 0.47583 0.0713 0.0
C274 C 0.26752 0.49716 0.07583 0.0
H275 H 0.22029 0.48871 0.05977 0.0
C276 C 0.28689 0.49036 0.07186 0.0
C277 C 0.31232 0.51017 0.06801 0.0
C278 C 0.27381 0.52384 0.07574 0.0
H279 H 0.25936 0.52963 0.07894 0.0
C280 C 0.29896 0.54344 0.07194 0.0
H281 H 0.28226 0.46985 0.07185 0.0
C282 C 0.31815 0.53672 0.06817 0.0
H283 H 0.33753 0.55226 0.06514 0.0
H284 H 0.30364 0.56394 0.07199 0.0
H285 H 0.45187 0.88038 0.24585 0.0
C286 C 0.43664 0.88234 0.25281 0.0
C287 C 0.42565 0.89645 0.24406 0.0
C288 C 0.42702 0.86934 0.26976 0.0
H289 H 0.39546 0.90723 0.24531 0.0
C290 C 0.40447 0.89712 0.25244 0.0
C291 C 0.39481 0.88457 0.26974 0.0
C292 C 0.40689 0.87138 0.27847 0.0
C293 C 0.43596 0.85136 0.2773 0.0
H294 H 0.40055 0.86228 0.29208 0.0
C295 C 0.46301 0.85907 0.27979 0.0
C296 C 0.47072 0.84102 0.28594 0.0
C297 C 0.41693 0.8256 0.28131 0.0
H298 H 0.396 0.81899 0.27928 0.0
C299 C 0.4246 0.8078 0.28748 0.0
H300 H 0.47792 0.87885 0.2768 0.0
C301 C 0.4513 0.81537 0.28969 0.0
H302 H 0.45685 0.80123 0.29452 0.0
H303 H 0.40978 0.78799 0.29042 0.0
H304 H 0.14853 0.59042 0.26747 0.0
C305 C 0.14695 0.57301 0.27371 0.0
C306 C 0.13147 0.54762 0.26313 0.0
C307 C 0.16127 0.57629 0.29197 0.0
H308 H 0.11736 0.50564 0.26364 0.0
C309 C 0.12943 0.5252 0.27165 0.0
C310 C 0.14347 0.52802 0.29011 0.0
C311 C 0.1595 0.5538 0.29995 0.0
C312 C 0.17946 0.60329 0.30228 0.0
H313 H 0.17122 0.55665 0.3138 0.0
C314 C 0.17115 0.62206 0.30554 0.0
C315 C 0.18824 0.64683 0.31653 0.0
C316 C 0.20532 0.6101 0.30944 0.0
H317 H 0.21239 0.59627 0.30684 0.0
C318 C 0.22238 0.63481 0.31998 0.0
H319 H 0.15121 0.61703 0.30028 0.0
C320 C 0.21387 0.65299 0.32367 0.0
H321 H 0.22736 0.67199 0.33208 0.0
H322 H 0.24222 0.63981 0.32545 0.0
H323 H 0.42533 0.55663 0.24937 0.0
C324 C 0.44188 0.5728 0.25871 0.0
C325 C 0.4668 0.58663 0.25143 0.0
C326 C 0.43773 0.58144 0.27727 0.0
H327 H 0.50682 0.61942 0.25743 0.0
C328 C 0.48781 0.60848 0.26324 0.0
C329 C 0.48419 0.61711 0.28197 0.0
C330 C 0.45906 0.6033 0.28887 0.0
C331 C 0.41055 0.57072 0.28327 0.0
H332 H 0.45579 0.60994 0.30315 0.0
C333 C 0.39352 0.54328 0.28474 0.0
C334 C 0.36773 0.53414 0.29023 0.0
C335 C 0.40143 0.58859 0.28731 0.0
H336 H 0.41403 0.6097 0.28613 0.0
C337 C 0.3759 0.57946 0.29258 0.0
H338 H 0.40029 0.52928 0.28175 0.0
C339 C 0.35911 0.55242 0.294 0.0
H340 H 0.33936 0.54573 0.29823 0.0
H341 H 0.36908 0.5934 0.29557 0.0
C342 C 0.52693 0.01506 0.06549 0.0
Eu343 Eu 0.51035 0.01485 0.02883 0.0
C344 C 0.51579 1.00191 0.08328 0.0
C345 C 0.52861 0.01472 0.10207 0.0
C346 C 0.51818 1.00302 0.11925 0.0
C347 C 0.49462 0.9782 0.11799 0.0
C348 C 0.48174 0.96542 0.09905 0.0
C349 C 0.49226 0.97717 0.08185 0.0
C350 C 0.50165 0.05283 0.01494 0.0
C351 C 0.4456 0.97767 0.02193 0.0
C352 C 0.46579 1.00073 0.95087 0.0
Eu353 Eu 0.48225 1.00105 0.98749 0.0
C354 C 0.47743 0.01163 0.9325 0.0
C355 C 0.47109 0.99409 0.91535 0.0
C356 C 0.48156 0.00367 0.89766 0.0
C357 C 0.49843 0.03113 0.89664 0.0
C358 C 0.50507 0.04868 0.91397 0.0
C359 C 0.49474 0.03902 0.93175 0.0
C360 C 0.48918 0.96202 1.00114 0.0
C361 C 0.54703 0.03953 0.99442 0.0
O362 O 0.52764 1.00019 0.05057 0.0
O363 O 0.51953 0.03164 0.0598 0.0
O364 O 0.52309 0.05799 0.02561 0.0
O365 O 0.4854 0.02813 0.01279 0.0
O366 O 0.46777 0.98446 0.03308 0.0
O367 O 0.44592 0.98511 0.00386 0.0
O368 O 0.46743 0.0175 0.9654 0.0
O369 O 0.47005 0.98223 0.95709 0.0
O370 O 0.46833 0.95806 0.99031 0.0
O371 O 0.50646 0.98659 0.00367 0.0
O372 O 0.52469 0.03129 0.98305 0.0
O373 O 0.54707 0.03292 0.01273 0.0
H374 H 0.54667 0.03393 0.10348 0.0
H375 H 0.5284 0.01365 0.13354 0.0
H376 H 0.46373 0.9462 0.09751 0.0
H377 H 0.48204 0.96694 0.06745 0.0
H378 H 0.45795 0.97287 0.91562 0.0
H379 H 0.47641 0.98949 0.88478 0.0
H380 H 0.51776 0.06995 0.91371 0.0
H381 H 0.50013 0.05302 0.94481 0.0
C382 C 0.01129 0.52834 0.06742 0.0
Eu383 Eu 1.00333 0.50624 0.03113 0.0
C384 C 0.02377 0.52881 0.08706 0.0
C385 C 0.02525 0.50673 0.09277 0.0
C386 C 0.03681 0.50764 0.11171 0.0
C387 C 0.0473 0.53074 0.12514 0.0
C388 C 0.04593 0.55284 0.11921 0.0
C389 C 0.03424 0.55183 0.10038 0.0
C390 C 0.96593 0.45546 0.01774 0.0
C391 C 0.0422 0.4814 0.02496 0.0
C392 C 1.00246 0.46865 0.95329 0.0
Eu393 Eu 0.00865 0.48838 0.99006 0.0
C394 C 0.98911 0.468 0.93395 0.0
C395 C 0.004 0.47639 0.91767 0.0
C396 C 0.99178 0.47495 0.89895 0.0
C397 C 0.96434 0.46485 0.89611 0.0
C398 C 0.9495 0.45696 0.91252 0.0
C399 C 0.96178 0.45862 0.9313 0.0
C400 C 0.04701 0.53845 0.00373 0.0
C401 C 0.96849 0.51133 0.99622 0.0
O402 O 0.02722 0.53947 0.05383 0.0
O403 O 0.98991 0.50613 0.06044 0.0
O404 O 0.96121 0.47147 0.02852 0.0
O405 O 0.9902 0.46637 0.01534 0.0
O406 O 0.03614 0.49643 0.03636 0.0
O407 O 0.03105 0.47225 0.00659 0.0
O408 O 0.98759 0.45533 0.96686 0.0
O409 O 0.02242 0.49172 0.96059 0.0
O410 O 0.05083 0.52145 0.99342 0.0
O411 O 0.0227 0.52876 0.00597 0.0
O412 O 0.97436 0.49585 0.98524 0.0
O413 O 0.98042 0.5217 0.01426 0.0
H414 H 0.01746 0.48881 0.08262 0.0
H415 H 0.03784 0.49042 0.11576 0.0
H416 H 0.05355 0.57081 0.12927 0.0
H417 H 0.03326 0.56905 0.09623 0.0
H418 H 0.02509 0.48367 0.91938 0.0
H419 H 1.00367 0.48087 0.88656 0.0
H420 H 0.92835 0.44932 0.91079 0.0
H421 H 0.94982 0.45223 0.94364 0.0
C422 C 0.48361 0.48753 0.94871 0.0
Eu423 Eu 0.50091 0.50959 0.98512 0.0
C424 C 0.49547 0.48657 0.93032 0.0
C425 C 0.5204 0.50746 0.92678 0.0
C426 C 0.53106 0.50653 0.90901 0.0
C427 C 0.5171 0.48457 0.89455 0.0
C428 C 0.49233 0.46352 0.89834 0.0
C429 C 0.48161 0.46456 0.91605 0.0
C430 C 0.51217 0.55901 0.99916 0.0
C431 C 0.56584 0.53718 0.99084 0.0
C432 C 0.54794 0.54768 0.06345 0.0
Eu433 Eu 0.53089 0.52882 0.02639 0.0
C434 C 0.53659 0.55055 0.08168 0.0
C435 C 0.54374 0.54351 0.09948 0.0
C436 C 0.53309 0.54568 0.11695 0.0
C437 C 0.51514 0.55509 0.117 0.0
C438 C 0.50789 0.56203 0.09911 0.0
C439 C 0.51841 0.55966 0.08158 0.0
C440 C 0.52136 0.48059 0.0112 0.0
C441 C 0.4664 0.50316 0.02053 0.0
O442 O 0.48707 0.47521 0.96311 0.0
O443 O 0.48657 0.51061 0.95502 0.0
O444 O 0.49055 0.54213 0.98819 0.0
O445 O 0.52753 0.54978 1.00128 0.0
O446 O 0.54313 0.52113 0.97995 0.0
O447 O 0.56666 0.54655 0.00927 0.0
O448 O 0.54891 0.56246 0.04932 0.0
O449 O 0.54071 0.52331 0.05663 0.0
O450 O 0.54327 0.49822 0.02141 0.0
O451 O 0.50496 0.48868 0.01001 0.0
O452 O 0.48923 0.51957 0.03112 0.0
O453 O 0.46538 0.4929 1.00238 0.0
H454 H 0.53156 0.52454 0.93771 0.0
H455 H 0.55033 0.52288 0.90665 0.0
H456 H 0.48099 0.44644 0.88744 0.0
H457 H 0.46237 0.44823 0.91853 0.0
H458 H 0.55766 0.53637 0.09988 0.0
H459 H 0.53932 0.54048 0.13051 0.0
H460 H 0.49391 0.56908 0.09863 0.0
H461 H 0.51231 0.56492 0.06798 0.0
C462 C 0.1924 0.35023 0.39933 0.0
Eu463 Eu 0.17545 0.34763 0.36227 0.0
C464 C 0.18234 0.33836 0.41774 0.0
C465 C 0.19677 0.3518 0.43599 0.0
C466 C 0.18757 0.34122 0.45376 0.0
C467 C 0.16368 0.31695 0.45363 0.0
C468 C 0.14919 0.30354 0.43524 0.0
C469 C 0.15848 0.31415 0.41743 0.0
C470 C 0.16528 0.38396 0.34687 0.0
C471 C 0.1111 0.30823 0.35435 0.0
C472 C 0.13346 0.328 0.28302 0.0
Eu473 Eu 0.14906 0.33168 0.32049 0.0
C474 C 0.1449 0.3398 0.26487 0.0
C475 C 0.13953 0.32287 0.24754 0.0
C476 C 0.14993 0.33329 0.23003 0.0
C477 C 0.16579 0.36097 0.22941 0.0
C478 C 0.17149 0.37792 0.24693 0.0
C479 C 0.16121 0.36743 0.26453 0.0
C480 C 0.15715 0.29436 0.3361 0.0
C481 C 0.21307 0.37266 0.32849 0.0
O482 O 0.19323 0.33467 0.38501 0.0
O483 O 0.18404 0.36573 0.39286 0.0
O484 O 0.18642 0.39018 0.35839 0.0
O485 O 0.14991 0.35906 0.34467 0.0
O486 O 0.13305 0.31642 0.36625 0.0
O487 O 0.11184 0.31465 0.33592 0.0
O488 O 0.13128 0.34331 0.29679 0.0
O489 O 0.14146 0.31264 0.29031 0.0
O490 O 0.13622 0.28933 0.32486 0.0
O491 O 0.1738 0.31911 0.33823 0.0
O492 O 0.19098 0.36402 0.31673 0.0
O493 O 0.21264 0.36598 0.3468 0.0
H494 H 0.21515 0.37059 0.4365 0.0
H495 H 0.19902 0.35227 0.46763 0.0
H496 H 0.13087 0.28469 0.43458 0.0
H497 H 0.14709 0.30346 0.40346 0.0
H498 H 0.12722 0.30148 0.24755 0.0
H499 H 0.14556 0.31957 0.21698 0.0
H500 H 0.1834 0.39934 0.24698 0.0
H501 H 0.16585 0.38093 0.27778 0.0
C502 C 0.68053 0.86498 0.39711 0.0
Eu503 Eu 0.67208 0.84186 0.36115 0.0
C504 C 0.69209 0.86438 0.41681 0.0
C505 C 0.69216 0.84147 0.42222 0.0
C506 C 0.70311 0.84137 0.44114 0.0
C507 C 0.71441 0.86427 0.45484 0.0
C508 C 0.71442 0.88718 0.44924 0.0
C509 C 0.70332 0.88719 0.43042 0.0
C510 C 0.63312 0.79174 0.34797 0.0
C511 C 0.70824 0.81374 0.35659 0.0
C512 C 0.66908 0.79795 0.28471 0.0
Eu513 Eu 0.67691 0.82151 0.32045 0.0
C514 C 0.66006 0.79962 0.26447 0.0
C515 C 0.65103 0.81732 0.26062 0.0
C516 C 0.64278 0.81875 0.24115 0.0
C517 C 0.64365 0.80263 0.22525 0.0
C518 C 0.65286 0.78502 0.22927 0.0
C519 C 0.66096 0.78354 0.24871 0.0
C520 C 0.71632 0.87157 0.33326 0.0
C521 C 0.64001 0.84887 0.32499 0.0
O522 O 0.69702 0.875 0.38365 0.0
O523 O 0.65832 0.84367 0.39003 0.0
O524 O 0.62922 0.80881 0.35816 0.0
O525 O 0.6574 0.80129 0.34605 0.0
O526 O 0.70307 0.82985 0.36752 0.0
O527 O 0.69718 0.80432 0.33824 0.0
O528 O 0.65131 0.7895 0.29741 0.0
O529 O 0.69174 0.81815 0.29236 0.0
O530 O 0.71942 0.85423 0.3227 0.0
O531 O 0.69215 0.86249 0.33556 0.0
O532 O 0.64551 0.83286 0.31425 0.0
O533 O 0.65113 0.8586 0.34332 0.0
H534 H 0.68379 0.82371 0.41184 0.0
H535 H 0.70309 0.82354 0.44493 0.0
H536 H 0.72271 0.90503 0.45951 0.0
H537 H 0.70346 0.90505 0.42649 0.0
H538 H 0.65046 0.83007 0.27264 0.0
H539 H 0.63599 0.83266 0.23853 0.0
H540 H 0.65338 0.77203 0.21742 0.0
H541 H 0.66791 0.76978 0.25145 0.0
C542 C 0.15302 0.82351 0.27994 0.0
Eu543 Eu 0.16953 0.84347 0.31682 0.0
C544 C 0.16331 0.81961 0.26158 0.0
C545 C 0.1476 0.81334 0.24352 0.0
C546 C 0.1574 0.81118 0.22564 0.0
C547 C 0.18317 0.81524 0.22547 0.0
C548 C 0.19878 0.82124 0.24372 0.0
C549 C 0.18894 0.82345 0.26164 0.0
C550 C 0.18114 0.89235 0.33245 0.0
C551 C 0.23352 0.86725 0.32689 0.0
C552 C 0.21359 0.89009 0.39636 0.0
Eu553 Eu 0.19652 0.86199 0.36195 0.0
C554 C 0.2051 0.88846 0.41666 0.0
C555 C 0.20617 0.87069 0.42939 0.0
C556 C 0.19767 0.86951 0.44841 0.0
C557 C 0.18778 0.88593 0.455 0.0
C558 C 0.187 0.90383 0.4423 0.0
C559 C 0.19568 0.90517 0.42343 0.0
C560 C 0.17862 0.80918 0.35232 0.0
C561 C 0.13196 0.83299 0.35181 0.0
O562 O 0.15256 0.80929 0.29436 0.0
O563 O 0.16083 0.84824 0.28621 0.0
O564 O 0.1604 0.87689 0.32013 0.0
O565 O 0.1952 0.88179 0.33534 0.0
O566 O 0.21219 0.85504 0.31383 0.0
O567 O 0.23291 0.87369 0.34588 0.0
O568 O 0.19876 0.89304 0.38266 0.0
O569 O 0.22176 0.87391 0.39002 0.0
O570 O 0.19007 0.82156 0.36975 0.0
O571 O 0.17693 0.82545 0.34181 0.0
O572 O 0.15331 0.84872 0.36425 0.0
O573 O 0.13314 0.82543 0.33326 0.0
H574 H 0.12786 0.81059 0.2432 0.0
H575 H 0.14497 0.80702 0.21191 0.0
H576 H 0.2186 0.82421 0.24417 0.0
H577 H 0.20139 0.82841 0.27548 0.0
H578 H 0.21343 0.8576 0.42466 0.0
H579 H 0.19844 0.85546 0.45784 0.0
H580 H 0.17997 0.91711 0.44705 0.0
H581 H 0.19494 0.91931 0.41407 0.0
C582 C 0.85518 0.67907 0.73289 0.0
Eu583 Eu 0.8398 0.67775 0.6957 0.0
C584 C 0.84414 0.66663 0.75098 0.0
C585 C 0.82007 0.66343 0.75659 0.0
C586 C 0.81066 0.65254 0.77427 0.0
C587 C 0.82499 0.6444 0.78654 0.0
C588 C 0.84885 0.64728 0.78068 0.0
C589 C 0.85834 0.65835 0.76311 0.0
C590 C 0.83019 0.71417 0.67981 0.0
C591 C 0.77555 0.63793 0.68639 0.0
C592 C 0.80185 0.65958 0.61563 0.0
Eu593 Eu 0.815 0.66194 0.65341 0.0
C594 C 0.81387 0.67574 0.59926 0.0
C595 C 0.80908 0.66308 0.58002 0.0
C596 C 0.82099 0.67785 0.56433 0.0
C597 C 0.8379 0.70563 0.5676 0.0
C598 C 0.84269 0.71828 0.58696 0.0
C599 C 0.83087 0.70345 0.60269 0.0
C600 C 0.82264 0.62457 0.66949 0.0
C601 C 0.87848 0.7039 0.66289 0.0
O602 O 0.85635 0.66371 0.7186 0.0
O603 O 0.848 0.69543 0.72631 0.0
O604 O 0.85071 0.72036 0.69209 0.0
O605 O 0.81498 0.68924 0.67727 0.0
O606 O 0.79695 0.64732 0.69913 0.0
O607 O 0.77691 0.64307 0.66763 0.0
O608 O 0.79421 0.67002 0.62953 0.0
O609 O 0.81386 0.64756 0.62275 0.0
O610 O 0.80228 0.61953 0.65751 0.0
O611 O 0.83909 0.64938 0.67193 0.0
O612 O 0.85661 0.69567 0.65098 0.0
O613 O 0.87762 0.69656 0.68101 0.0
H614 H 0.80861 0.66947 0.74739 0.0
H615 H 0.79205 0.65026 0.77826 0.0
H616 H 0.86048 0.64144 0.78989 0.0
H617 H 0.87696 0.66069 0.75907 0.0
H618 H 0.79614 0.64171 0.57713 0.0
H619 H 0.8166 0.66756 0.54957 0.0
H620 H 0.85582 0.7396 0.58999 0.0
H621 H 0.8351 0.71358 0.61751 0.0
C622 C 0.34363 0.19405 0.73179 0.0
Eu623 Eu 0.33577 0.17148 0.69569 0.0
C624 C 0.35667 0.1946 0.75125 0.0
C625 C 0.34394 0.1933 0.76837 0.0
C626 C 0.35582 0.19381 0.78702 0.0
C627 C 0.38078 0.19573 0.78892 0.0
C628 C 0.39344 0.19687 0.77169 0.0
C629 C 0.38148 0.19624 0.75302 0.0
C630 C 0.2981 0.12037 0.68362 0.0
C631 C 0.37429 0.14626 0.69082 0.0
C632 C 0.33107 0.12559 0.61981 0.0
Eu633 Eu 0.33986 0.15043 0.65516 0.0
C634 C 0.32301 0.12789 0.59947 0.0
C635 C 0.32436 0.11211 0.58371 0.0
C636 C 0.31702 0.11412 0.5642 0.0
C637 C 0.30814 0.13197 0.56011 0.0
C638 C 0.3069 0.14785 0.57601 0.0
C639 C 0.31438 0.14589 0.59555 0.0
C640 C 0.37805 0.20155 0.66626 0.0
C641 C 0.30139 0.17606 0.65993 0.0
O642 O 0.35889 0.20546 0.71786 0.0
O643 O 0.32247 0.17152 0.7251 0.0
O644 O 0.29344 0.13726 0.69323 0.0
O645 O 0.32235 0.13078 0.68143 0.0
O646 O 0.36953 0.16312 0.70118 0.0
O647 O 0.3614 0.13467 0.67323 0.0
O648 O 0.31313 0.1187 0.63235 0.0
O649 O 0.35435 0.14469 0.62752 0.0
O650 O 0.38145 0.18448 0.65565 0.0
O651 O 0.35404 0.19167 0.6694 0.0
O652 O 0.30728 0.16032 0.64924 0.0
O653 O 0.31291 0.18646 0.67809 0.0
H654 H 0.32479 0.19202 0.76733 0.0
H655 H 0.34568 0.19322 0.8 0.0
H656 H 0.41253 0.19804 0.77262 0.0
H657 H 0.39164 0.19708 0.74 0.0
H658 H 0.33102 0.09814 0.58651 0.0
H659 H 0.31781 0.10132 0.55234 0.0
H660 H 0.30037 0.16195 0.57334 0.0
H661 H 0.31346 0.15841 0.60758 0.0
C662 C 0.81478 0.14475 0.61614 0.0
Eu663 Eu 0.83273 0.16877 0.65202 0.0
C664 C 0.82569 0.1449 0.59709 0.0
C665 C 0.84934 0.16699 0.59283 0.0
C666 C 0.859 0.16712 0.57441 0.0
C667 C 0.84528 0.14508 0.55994 0.0
C668 C 0.82182 0.12282 0.56452 0.0
C669 C 0.81212 0.12279 0.58289 0.0
C670 C 0.84403 0.21874 0.66444 0.0
C671 C 0.89784 0.19764 0.6575 0.0
C672 C 0.88025 0.21043 0.72989 0.0
Eu673 Eu 0.86302 0.19006 0.6931 0.0
C674 C 0.86893 0.21259 0.74837 0.0
C675 C 0.87585 0.20456 0.76576 0.0
C676 C 0.86557 0.20643 0.7835 0.0
C677 C 0.84827 0.21657 0.78426 0.0
C678 C 0.84115 0.22441 0.76677 0.0
C679 C 0.85128 0.22232 0.74896 0.0
C680 C 0.8537 0.14137 0.67932 0.0
C681 C 0.79847 0.1634 0.68745 0.0
O682 O 0.82185 0.13469 0.63042 0.0
O683 O 0.81488 0.16649 0.62236 0.0
O684 O 0.82243 0.20144 0.65368 0.0
O685 O 0.85938 0.20961 0.66715 0.0
O686 O 0.87515 0.18106 0.64673 0.0
O687 O 0.89859 0.20756 0.67574 0.0
O688 O 0.87937 0.22419 0.71555 0.0
O689 O 0.87484 0.1865 0.72338 0.0
O690 O 0.87561 0.15951 0.68924 0.0
O691 O 0.83713 0.14922 0.6777 0.0
O692 O 0.82127 0.18053 0.69776 0.0
O693 O 0.7975 0.15227 0.66965 0.0
H694 H 0.86019 0.18424 0.60366 0.0
H695 H 0.87695 0.18472 0.5714 0.0
H696 H 0.81099 0.10529 0.55396 0.0
H697 H 0.79393 0.10549 0.58599 0.0
H698 H 0.8894 0.19697 0.76565 0.0
H699 H 0.87169 0.20052 0.79675 0.0
H700 H 0.82766 0.23206 0.76684 0.0
H701 H 0.84534 0.22839 0.73572 0.0
H702 H 0.28721 0.84817 0.03042 0.0
H703 H 0.43666 0.96452 0.05995 0.0
H704 H 0.32441 0.87143 0.09064 0.0
H705 H 0.39616 0.94953 1.00127 0.0
H706 H 0.39524 0.93161 0.07163 0.0
H707 H 0.32625 0.88607 0.01957 0.0
C708 C 0.30353 0.86136 0.04138 0.0
C709 C 0.30257 0.85653 0.06146 0.0
C710 C 0.39531 0.93565 0.05623 0.0
C711 C 0.3474 0.89994 0.04914 0.0
C712 C 0.41902 0.95445 0.04952 0.0
C713 C 0.41998 0.95971 0.02954 0.0
C714 C 0.37235 0.92175 0.04285 0.0
C715 C 0.39638 0.94614 0.01679 0.0
C716 C 0.32578 0.88305 0.03519 0.0
C717 C 0.32418 0.87447 0.07504 0.0
N718 N 0.3736 0.92761 0.02361 0.0
N719 N 0.34578 0.89519 0.06861 0.0
H720 H 0.1769 0.4579 0.03832 0.0
H721 H 0.06233 0.48798 0.06363 0.0
H722 H 0.1564 0.46378 0.09776 0.0
H723 H 0.0688 0.46175 0.00439 0.0
H724 H 0.09804 0.48095 0.07624 0.0
H725 H 0.13878 0.46129 0.0253 0.0
C726 C 0.16434 0.45985 0.0486 0.0
C727 C 0.16973 0.46045 0.06913 0.0
C728 C 0.09155 0.47656 0.0605 0.0
C729 C 0.1263 0.46443 0.05442 0.0
C730 C 0.07117 0.48061 0.05327 0.0
C731 C 0.06257 0.47548 0.03291 0.0
C732 C 0.1037 0.46762 0.04726 0.0
C733 C 0.07474 0.46589 0.02021 0.0
C734 C 0.14255 0.46164 0.04118 0.0
C735 C 0.15277 0.46287 0.08181 0.0
N736 N 0.09484 0.46247 0.02757 0.0
N737 N 0.13195 0.46493 0.07427 0.0
H738 H 0.55321 0.69878 0.07685 0.0
H739 H 0.48399 0.58363 0.99097 0.0
H740 H 0.52806 0.71377 0.02012 0.0
H741 H 0.5548 0.59604 0.0245 0.0
H742 H 0.4937 0.62789 0.00466 0.0
H743 H 0.54855 0.65772 0.06114 0.0
C744 C 0.54711 0.69388 0.06108 0.0
C745 C 0.54108 0.71019 0.0499 0.0
C746 C 0.50707 0.62084 0.00898 0.0
C747 C 0.53458 0.66224 0.03214 0.0
C748 C 0.50153 0.59562 1.00127 0.0
C749 C 0.51842 0.586 0.00688 0.0
C750 C 0.52927 0.63624 0.02277 0.0
C751 C 0.54097 0.60245 0.02016 0.0
C752 C 0.54426 0.6702 0.0522 0.0
C753 C 0.53239 0.7018 0.02958 0.0
N754 N 0.54556 0.62666 0.02792 0.0
N755 N 0.52904 0.67827 0.02144 0.0
H756 H 0.82803 0.29671 0.99031 0.0
H757 H 0.97178 0.42078 0.99237 0.0
H758 H 0.86407 0.32187 0.93577 0.0
H759 H 0.91377 0.42789 0.02441 0.0
H760 H 0.93665 0.37735 0.97635 0.0
H761 H 0.86355 0.33852 0.0079 0.0
C762 C 0.84321 0.31076 0.98193 0.0
C763 C 0.84268 0.30528 0.96132 0.0
C764 C 0.93175 0.38847 0.98696 0.0
C765 C 0.88402 0.35269 0.98178 0.0
C766 C 0.95168 0.41325 0.99599 0.0
C767 C 0.94552 0.42826 0.0093 0.0
C768 C 0.9057 0.37823 0.99185 0.0
C769 C 0.91928 0.4171 0.01402 0.0
C770 C 0.86357 0.33454 0.99209 0.0
C771 C 0.86361 0.32439 0.95163 0.0
N772 N 0.90029 0.39266 0.00536 0.0
N773 N 0.88345 0.34704 0.96195 0.0
H774 H 0.67929 0.51098 0.9348 0.0
H775 H 0.61738 0.57524 0.00432 0.0
H776 H 0.72481 0.59384 0.95748 0.0
H777 H 0.57074 0.51119 0.95811 0.0
H778 H 0.65781 0.58112 0.9907 0.0
H779 H 0.63975 0.50886 0.94682 0.0
C780 C 0.68083 0.52873 0.9423 0.0
C781 C 0.70514 0.55261 0.94517 0.0
C782 C 0.63865 0.56598 0.98352 0.0
C783 C 0.66024 0.55032 0.9592 0.0
C784 C 0.61562 0.56256 0.99129 0.0
C785 C 0.59062 0.54268 0.98237 0.0
C786 C 0.63657 0.54903 0.96703 0.0
C787 C 0.58951 0.52683 0.96549 0.0
C788 C 0.65833 0.52757 0.9491 0.0
C789 C 0.70628 0.57512 0.95497 0.0
N790 N 0.61211 0.53016 0.95853 0.0
N791 N 0.68412 0.5734 0.96185 0.0
H792 H 0.43967 0.14164 0.95451 0.0
H793 H 0.53786 0.1052 0.01434 0.0
H794 H 0.52258 0.19675 0.97204 0.0
H795 H 0.45658 0.04673 0.99464 0.0
H796 H 0.53179 0.13892 0.99905 0.0
H797 H 0.44464 0.10634 0.96886 0.0
C798 C 0.45888 0.14632 0.96132 0.0
C799 C 0.48064 0.17234 0.96229 0.0
C800 C 0.51521 0.11874 0.998 0.0
C801 C 0.48644 0.13214 0.97877 0.0
C802 C 0.51868 0.09948 0.0068 0.0
C803 C 0.4977 0.07316 0.00575 0.0
C804 C 0.49051 0.11174 0.98809 0.0
C805 C 0.47329 0.06683 0.99571 0.0
C806 C 0.46169 0.1262 0.96957 0.0
C807 C 0.50507 0.17722 0.97134 0.0
N808 N 0.47033 0.086 0.98727 0.0
N809 N 0.50725 0.15741 0.97922 0.0
H810 H 0.70553 0.17115 0.98417 0.0
H811 H 0.55405 0.05627 0.95725 0.0
H812 H 0.65435 0.16876 0.9348 0.0
H813 H 0.59751 0.06727 0.01405 0.0
H814 H 0.59389 0.09207 0.94597 0.0
H815 H 0.66954 0.12802 0.99233 0.0
C816 C 0.68694 0.16118 0.97478 0.0
C817 C 0.68281 0.17341 0.95879 0.0
C818 C 0.59484 0.08654 0.96085 0.0
C819 C 0.64165 0.12447 0.96807 0.0
C820 C 0.57204 0.06598 0.96733 0.0
C821 C 0.57223 0.05882 0.98676 0.0
C822 C 0.61822 0.10025 0.97382 0.0
C823 C 0.59634 0.07215 0.999 0.0
C824 C 0.66636 0.13675 0.97953 0.0
C825 C 0.65827 0.15995 0.94725 0.0
N826 N 0.61831 0.09239 0.99239 0.0
N827 N 0.63863 0.13632 0.95216 0.0
H828 H 0.81926 0.47491 0.93772 0.0
H829 H 0.94891 0.54088 0.01395 0.0
H830 H 0.8386 0.54154 0.98028 0.0
H831 H 0.93777 0.49032 0.96077 0.0
H832 H 0.90943 0.54252 1.00203 0.0
H833 H 0.86325 0.48106 0.94595 0.0
C834 C 0.83297 0.49102 0.94869 0.0
C835 C 0.82537 0.50768 0.95841 0.0
C836 C 0.91587 0.53135 0.9929 0.0
C837 C 0.87565 0.51468 0.96816 0.0
C838 C 0.93839 0.53038 0.99969 0.0
C839 C 0.94658 0.51523 0.98846 0.0
C840 C 0.90133 0.51685 0.97485 0.0
C841 C 0.93217 0.5021 0.97006 0.0
C842 C 0.85809 0.49458 0.95336 0.0
C843 C 0.84384 0.52835 0.97243 0.0
N844 N 0.91015 0.50299 0.96397 0.0
N845 N 0.86806 0.53106 0.97711 0.0
H846 H 0.48071 0.31764 0.98421 0.0
H847 H 0.55974 0.47515 0.9955 0.0
H848 H 0.55594 0.36545 0.96155 0.0
H849 H 0.47642 0.43119 0.00268 0.0
H850 H 0.55707 0.43442 0.98133 0.0
H851 H 0.4764 0.35753 0.98911 0.0
C852 C 0.49601 0.33638 0.97988 0.0
C853 C 0.51895 0.33841 0.97281 0.0
C854 C 0.5392 0.43353 0.98575 0.0
C855 C 0.51433 0.38392 0.97854 0.0
C856 C 0.54077 0.45681 0.99392 0.0
C857 C 0.51833 0.45636 1.00042 0.0
C858 C 0.5151 0.40932 0.98449 0.0
C859 C 0.49416 0.4322 0.99784 0.0
C860 C 0.4936 0.35913 0.98273 0.0
C861 C 0.5382 0.36314 0.96745 0.0
N862 N 0.49325 0.40942 0.99039 0.0
N863 N 0.53562 0.38491 0.97066 0.0
H864 H 0.19154 0.68561 1.00123 0.0
H865 H 0.04882 0.57807 0.02986 0.0
H866 H 0.16884 0.69128 0.0599 0.0
H867 H 0.09315 0.56309 0.98744 0.0
H868 H 0.08672 0.62393 0.03778 0.0
H869 H 0.14864 0.64562 0.99212 0.0
C870 C 0.17738 0.67852 0.01216 0.0
C871 C 0.18397 0.69142 0.03148 0.0
C872 C 0.08789 0.61049 0.02667 0.0
C873 C 0.13466 0.64551 0.02112 0.0
C874 C 0.06637 0.58443 0.02218 0.0
C875 C 0.06801 0.56668 0.00818 0.0
C876 C 0.11067 0.6188 0.01664 0.0
C877 C 0.09105 0.57596 0.99847 0.0
C878 C 0.15289 0.65569 0.00695 0.0
C879 C 0.16456 0.68175 0.04488 0.0
N880 N 0.11133 0.60128 0.00284 0.0
N881 N 0.1408 0.65907 0.03954 0.0
H882 H 0.36215 0.53271 0.08657 0.0
H883 H 0.41502 0.47507 0.00276 0.0
H884 H 0.30979 0.47357 0.03926 0.0
H885 H 0.46149 0.52048 0.05748 0.0
H886 H 0.37569 0.47217 0.01605 0.0
H887 H 0.39829 0.52657 0.07658 0.0
C888 C 0.35827 0.51818 0.07419 0.0
C889 C 0.33308 0.5037 0.06366 0.0
C890 C 0.39446 0.48248 0.0252 0.0
C891 C 0.37442 0.4968 0.05184 0.0
C892 C 0.41693 0.48415 0.01762 0.0
C893 C 0.44171 0.4983 0.0289 0.0
C894 C 0.39688 0.49521 0.04412 0.0
C895 C 0.44294 0.50961 0.0481 0.0
C896 C 0.37886 0.51464 0.06847 0.0
C897 C 0.32897 0.48503 0.04778 0.0
N898 N 0.42096 0.50803 0.05498 0.0
N899 N 0.34956 0.48237 0.04215 0.0
H900 H 0.52385 0.85216 0.06079 0.0
H901 H 0.45644 0.90998 0.9893 0.0
H902 H 0.46547 0.80682 0.01113 0.0
H903 H 0.52937 0.9629 0.02583 0.0
H904 H 0.4598 0.87224 0.99868 0.0
H905 H 0.5274 0.89328 0.04947 0.0
C906 C 0.51208 0.8509 0.0474 0.0
C907 C 0.49396 0.826 0.03708 0.0
C908 C 0.47525 0.89203 0.00465 0.0
C909 C 0.49776 0.87261 0.02423 0.0
C910 C 0.47329 0.9137 0.99933 0.0
C911 C 0.49261 0.93968 0.00685 0.0
C912 C 0.49655 0.89606 0.01788 0.0
C913 C 0.51399 0.94315 0.01978 0.0
C914 C 0.51406 0.87431 0.041 0.0
C915 C 0.47921 0.82547 0.01983 0.0
N916 N 0.51531 0.92149 0.02507 0.0
N917 N 0.48127 0.8483 0.0141 0.0
H918 H 0.98997 0.20536 0.4262 0.0
H919 H 0.06237 0.27821 0.33285 0.0
H920 H 0.95531 0.17821 0.36549 0.0
H921 H 0.10097 0.29636 0.39252 0.0
H922 H 0.02102 0.24535 0.34498 0.0
H923 H 0.02863 0.24269 0.41454 0.0
C924 C 0.9903 0.20745 0.41043 0.0
C925 C 0.96935 0.18853 0.39681 0.0
C926 C 0.03852 0.25665 0.35543 0.0
C927 C 0.01381 0.23114 0.3833 0.0
C928 C 0.06213 0.27551 0.34852 0.0
C929 C 0.08529 0.28998 0.36164 0.0
C930 C 0.03799 0.25232 0.37563 0.0
C931 C 0.08373 0.28553 0.3818 0.0
C932 C 0.0125 0.22867 0.40376 0.0
C933 C 0.97113 0.19211 0.37651 0.0
N934 N 0.06056 0.26708 0.38814 0.0
N935 N 0.99297 0.21291 0.37038 0.0
H936 H 0.85952 0.83386 0.38785 0.0
H937 H 0.71806 0.80658 0.39503 0.0
H938 H 0.80867 0.76585 0.4184 0.0
H939 H 0.74407 0.8076 0.33669 0.0
H940 H 0.75422 0.80007 0.4085 0.0
H941 H 0.82044 0.83328 0.37286 0.0
C942 C 0.84032 0.81854 0.3913 0.0
C943 C 0.83775 0.79969 0.40445 0.0
C944 C 0.75168 0.80142 0.39273 0.0
C945 C 0.79301 0.80015 0.38797 0.0
C946 C 0.73123 0.80519 0.38508 0.0
C947 C 0.72812 0.80746 0.36473 0.0
C948 C 0.76952 0.80094 0.38004 0.0
C949 C 0.74571 0.80567 0.35242 0.0
C950 C 0.81804 0.81849 0.38282 0.0
C951 C 0.812 0.78115 0.40875 0.0
N952 N 0.76604 0.80303 0.36034 0.0
N953 N 0.79065 0.78208 0.40075 0.0
H954 H 0.19787 0.0483 0.35344 0.0
H955 H 0.22409 0.92802 0.35823 0.0
H956 H 0.22111 0.03084 0.40984 0.0
H957 H 0.15426 0.91842 0.32495 0.0
H958 H 0.23336 0.97185 0.37293 0.0
H959 H 0.19184 0.00632 0.33816 0.0
C960 C 0.20175 0.03583 0.36269 0.0
C961 C 0.20975 0.04331 0.38315 0.0
C962 C 0.21605 0.96004 0.3624 0.0
C963 C 0.20392 0.99571 0.36535 0.0
C964 C 0.21065 0.93505 0.35412 0.0
C965 C 0.18796 0.91929 0.3408 0.0
C966 C 0.19923 0.96967 0.35666 0.0
C967 C 0.17175 0.92977 0.33539 0.0
C968 C 0.19847 0.01196 0.35385 0.0
C969 C 0.21532 0.02645 0.39402 0.0
N970 N 0.17777 0.95439 0.34326 0.0
N971 N 0.21237 0.0035 0.38498 0.0
H972 H 0.48089 0.65698 0.30299 0.0
H973 H 0.6377 0.75219 0.32781 0.0
H974 H 0.53749 0.63405 0.28681 0.0
H975 H 0.57996 0.77094 0.34826 0.0
H976 H 0.60155 0.70876 0.31274 0.0
H977 H 0.51704 0.69846 0.32005 0.0
C978 C 0.50087 0.66045 0.30323 0.0
C979 C 0.50604 0.64183 0.29343 0.0
C980 C 0.59679 0.72234 0.32059 0.0
C981 C 0.54782 0.68984 0.31268 0.0
C982 C 0.61741 0.74712 0.32916 0.0
C983 C 0.61177 0.76516 0.33924 0.0
C984 C 0.57036 0.71562 0.3221 0.0
C985 C 0.58517 0.7576 0.34061 0.0
C986 C 0.52159 0.68432 0.31286 0.0
C987 C 0.53253 0.64789 0.29393 0.0
N988 N 0.56549 0.73348 0.33209 0.0
N989 N 0.5524 0.67138 0.30332 0.0
H990 H 0.37858 0.92209 0.26896 0.0
H991 H 0.27399 0.86427 0.34633 0.0
H992 H 0.35714 0.84586 0.29025 0.0
H993 H 0.25081 0.88367 0.29099 0.0
H994 H 0.31445 0.87031 0.33269 0.0
H995 H 0.34011 0.92005 0.2831 0.0
C996 C 0.36602 0.90494 0.27651 0.0
C997 C 0.37164 0.88422 0.27841 0.0
C998 C 0.30058 0.87355 0.32372 0.0
C999 C 0.32837 0.88267 0.29538 0.0
C1000 C 0.27767 0.87027 0.33147 0.0
C1001 C 0.25911 0.87343 0.31972 0.0
C1002 C 0.30526 0.88086 0.30436 0.0
C1003 C 0.26464 0.88094 0.30047 0.0
C1004 C 0.34421 0.90401 0.2847 0.0
C1005 C 0.35456 0.86285 0.28883 0.0
N1006 N 0.28736 0.88458 0.29339 0.0
N1007 N 0.33397 0.86281 0.29708 0.0
H1008 H 0.14747 0.52016 0.32968 0.0
H1009 H 0.12451 0.37507 0.31949 0.0
H1010 H 0.13758 0.48175 0.2707 0.0
H1011 H 0.19227 0.43776 0.35616 0.0
H1012 H 0.11704 0.40888 0.30499 0.0
H1013 H 0.15168 0.48453 0.34353 0.0
C1014 C 0.1462 0.5044 0.31955 0.0
C1015 C 0.14274 0.50458 0.29882 0.0
C1016 C 0.1335 0.41506 0.31621 0.0
C1017 C 0.14621 0.46295 0.31491 0.0
C1018 C 0.13788 0.39589 0.32438 0.0
C1019 C 0.15941 0.40368 0.33868 0.0
C1020 C 0.15014 0.44204 0.32303 0.0
C1021 C 0.17561 0.43091 0.34502 0.0
C1022 C 0.14839 0.48396 0.32757 0.0
C1023 C 0.14005 0.48266 0.28671 0.0
N1024 N 0.17051 0.44912 0.33728 0.0
N1025 N 0.1418 0.46271 0.29494 0.0
H1026 H 0.32359 0.4996 0.266 0.0
H1027 H 0.26296 0.39945 0.34888 0.0
H1028 H 0.36887 0.50538 0.32034 0.0
H1029 H 0.22133 0.39078 0.29172 0.0
H1030 H 0.3034 0.43519 0.33762 0.0
H1031 H 0.28775 0.45656 0.27367 0.0
C1032 C 0.32619 0.49134 0.2793 0.0
C1033 C 0.34921 0.50577 0.29246 0.0
C1034 C 0.28547 0.42524 0.32748 0.0
C1035 C 0.30796 0.45703 0.30181 0.0
C1036 C 0.26234 0.40479 0.3339 0.0
C1037 C 0.23855 0.39218 0.32133 0.0
C1038 C 0.28481 0.43325 0.30837 0.0
C1039 C 0.23907 0.4 0.30205 0.0
C1040 C 0.30568 0.46689 0.28378 0.0
C1041 C 0.35151 0.49459 0.30971 0.0
N1042 N 0.26168 0.42012 0.29627 0.0
N1043 N 0.33097 0.47102 0.31404 0.0
H1044 H 0.51126 0.88212 0.31031 0.0
H1045 H 0.61191 0.83062 0.28836 0.0
H1046 H 0.49367 0.816 0.26782 0.0
H1047 H 0.62036 0.87856 0.34238 0.0
H1048 H 0.57372 0.83382 0.27635 0.0
H1049 H 0.55614 0.88929 0.31791 0.0
C1050 C 0.51709 0.86951 0.30232 0.0
C1051 C 0.49887 0.84837 0.28852 0.0
C1052 C 0.58408 0.84388 0.29075 0.0
C1053 C 0.54974 0.85635 0.29705 0.0
C1054 C 0.60601 0.84214 0.29764 0.0
C1055 C 0.61926 0.85406 0.31657 0.0
C1056 C 0.57522 0.85764 0.30282 0.0
C1057 C 0.61063 0.86885 0.32777 0.0
C1058 C 0.54254 0.87347 0.30673 0.0
C1059 C 0.50717 0.8324 0.27865 0.0
N1060 N 0.58898 0.87003 0.32081 0.0
N1061 N 0.53195 0.83665 0.28316 0.0
H1062 H 0.18698 0.6672 0.35315 0.0
H1063 H 0.17125 0.78554 0.3143 0.0
H1064 H 0.17068 0.67101 0.291 0.0
H1065 H 0.17383 0.77138 0.37584 0.0
H1066 H 0.16749 0.74229 0.30484 0.0
H1067 H 0.1788 0.70368 0.36139 0.0
C1068 C 0.18134 0.67561 0.34126 0.0
C1069 C 0.1796 0.66627 0.3214 0.0
C1070 C 0.16839 0.74845 0.32039 0.0
C1071 C 0.17067 0.70845 0.33061 0.0
C1072 C 0.17032 0.77303 0.32575 0.0
C1073 C 0.1727 0.78194 0.34584 0.0
C1074 C 0.1691 0.7329 0.33529 0.0
C1075 C 0.17213 0.76529 0.36017 0.0
C1076 C 0.17667 0.69644 0.34593 0.0
C1077 C 0.17215 0.67771 0.3065 0.0
N1078 N 0.1706 0.74173 0.35463 0.0
N1079 N 0.16832 0.69852 0.31139 0.0
H1080 H 0.86665 0.01532 0.34006 0.0
H1081 H 0.717 0.91179 0.35783 0.0
H1082 H 0.83461 0.02385 0.39388 0.0
H1083 H 0.76541 0.89431 0.32131 0.0
H1084 H 0.7555 0.95675 0.36766 0.0
H1085 H 0.82455 0.9754 0.32874 0.0
C1086 C 0.85064 0.00884 0.34947 0.0
C1087 C 0.85434 0.02261 0.36814 0.0
C1088 C 0.75749 0.94298 0.35745 0.0
C1089 C 0.80584 0.97673 0.3552 0.0
C1090 C 0.73562 0.9174 0.35187 0.0
C1091 C 0.73812 0.89922 0.33892 0.0
C1092 C 0.78164 0.9504 0.34957 0.0
C1093 C 0.76257 0.90757 0.33142 0.0
C1094 C 0.82659 0.98604 0.34299 0.0
C1095 C 0.83261 0.01369 0.37944 0.0
N1096 N 0.78324 0.93246 0.3368 0.0
N1097 N 0.80928 0.99106 0.3729 0.0
H1098 H 0.97768 0.81348 0.35535 0.0
H1099 H 0.1205 0.83803 0.38987 0.0
H1100 H 0.00944 0.82929 0.41669 0.0
H1101 H 0.08359 0.81018 0.32968 0.0
H1102 H 0.07834 0.83012 0.40054 0.0
H1103 H 0.01389 0.80672 0.34618 0.0
C1104 C 0.99197 0.81477 0.36692 0.0
C1105 C 0.99066 0.82175 0.38677 0.0
C1106 C 0.07934 0.8254 0.38504 0.0
C1107 C 0.03258 0.81502 0.37644 0.0
C1108 C 0.10348 0.82999 0.3789 0.0
C1109 C 0.10574 0.8251 0.35877 0.0
C1110 C 0.0573 0.81614 0.37094 0.0
C1111 C 0.08287 0.81442 0.34532 0.0
C1112 C 0.01271 0.81109 0.36171 0.0
C1113 C 0.00975 0.82366 0.40125 0.0
N1114 N 0.05972 0.81064 0.3516 0.0
N1115 N 0.03021 0.82071 0.39576 0.0
H1116 H 0.13686 0.13925 0.34337 0.0
H1117 H 0.19738 0.29714 0.36194 0.0
H1118 H 0.19012 0.18469 0.39547 0.0
H1119 H 0.12706 0.24223 0.32348 0.0
H1120 H 0.20168 0.25899 0.37157 0.0
H1121 H 0.14087 0.17996 0.33226 0.0
C1122 C 0.14953 0.15792 0.35244 0.0
C1123 C 0.16277 0.15856 0.37053 0.0
C1124 C 0.18544 0.25551 0.36097 0.0
C1125 C 0.16737 0.2055 0.35797 0.0
C1126 C 0.18298 0.27719 0.35551 0.0
C1127 C 0.16173 0.27281 0.34201 0.0
C1128 C 0.16677 0.22957 0.35254 0.0
C1129 C 0.14369 0.24662 0.334 0.0
C1130 C 0.15181 0.1812 0.34611 0.0
C1131 C 0.17945 0.18341 0.38147 0.0
N1132 N 0.14667 0.22615 0.33935 0.0
N1133 N 0.18106 0.20598 0.37514 0.0
H1134 H 0.63079 0.54705 0.7441 0.0
H1135 H 0.73361 0.59519 0.66479 0.0
H1136 H 0.65128 0.49299 0.71427 0.0
H1137 H 0.759 0.63783 0.72336 0.0
H1138 H 0.69303 0.56108 0.67728 0.0
H1139 H 0.66922 0.58437 0.73183 0.0
C1140 C 0.64311 0.54282 0.73504 0.0
C1141 C 0.63718 0.51642 0.73011 0.0
C1142 C 0.70737 0.57818 0.68725 0.0
C1143 C 0.68039 0.55909 0.71541 0.0
C1144 C 0.73037 0.59767 0.68015 0.0
C1145 C 0.74964 0.61928 0.6931 0.0
C1146 C 0.7033 0.58075 0.70725 0.0
C1147 C 0.74461 0.62137 0.71295 0.0
C1148 C 0.6649 0.56418 0.72795 0.0
C1149 C 0.65402 0.51258 0.71799 0.0
N1150 N 0.72182 0.60234 0.71945 0.0
N1151 N 0.67455 0.53357 0.7109 0.0
H1152 H 0.50861 0.12208 0.70401 0.0
H1153 H 0.39711 0.15691 0.7291 0.0
H1154 H 0.491 0.13237 0.76367 0.0
H1155 H 0.39908 0.12398 0.67092 0.0
H1156 H 0.43337 0.15067 0.74174 0.0
H1157 H 0.4705 0.1256 0.69114 0.0
C1158 C 0.4967 0.12506 0.71437 0.0
C1159 C 0.50285 0.1268 0.73491 0.0
C1160 C 0.42577 0.14466 0.72623 0.0
C1161 C 0.45947 0.13097 0.72038 0.0
C1162 C 0.4051 0.14828 0.71899 0.0
C1163 C 0.39506 0.14099 0.69891 0.0
C1164 C 0.43676 0.134 0.71326 0.0
C1165 C 0.40613 0.12978 0.68652 0.0
C1166 C 0.47492 0.12692 0.70704 0.0
C1167 C 0.48674 0.13057 0.74772 0.0
N1168 N 0.42654 0.12682 0.69386 0.0
N1169 N 0.46591 0.13267 0.74025 0.0
H1170 H 0.87938 0.35505 0.74249 0.0
H1171 H 0.81558 0.24292 0.65545 0.0
H1172 H 0.8601 0.37419 0.68538 0.0
H1173 H 0.88656 0.25647 0.68942 0.0
H1174 H 0.82468 0.28712 0.66889 0.0
H1175 H 0.87574 0.31488 0.72623 0.0
C1176 C 0.87485 0.35131 0.72653 0.0
C1177 C 0.87035 0.36866 0.7154 0.0
C1178 C 0.83822 0.28033 0.67332 0.0
C1179 C 0.86477 0.32145 0.69693 0.0
C1180 C 0.83304 0.25516 0.66576 0.0
C1181 C 0.8501 0.24584 0.67166 0.0
C1182 C 0.8602 0.29591 0.68725 0.0
C1183 C 0.87255 0.2626 0.68491 0.0
C1184 C 0.87253 0.32808 0.71733 0.0
C1185 C 0.86335 0.36149 0.69479 0.0
N1186 N 0.87673 0.28668 0.69257 0.0
N1187 N 0.86041 0.33827 0.68628 0.0
H1188 H 0.14902 0.98474 0.63508 0.0
H1189 H 0.30441 0.0814 0.66444 0.0
H1190 H 0.20626 0.95987 0.62634 0.0
H1191 H 0.2447 0.09844 0.6829 0.0
H1192 H 0.26929 0.03745 0.64928 0.0
H1193 H 0.18422 0.02697 0.65172 0.0
C1194 C 0.16892 0.98794 0.63688 0.0
C1195 C 0.17452 0.96844 0.62939 0.0
C1196 C 0.26389 0.05077 0.65673 0.0
C1197 C 0.21529 0.01742 0.64811 0.0
C1198 C 0.2839 0.07582 0.66535 0.0
C1199 C 0.27739 0.09351 0.67492 0.0
C1200 C 0.23722 0.04349 0.65759 0.0
C1201 C 0.25057 0.08537 0.67569 0.0
C1202 C 0.18911 0.01225 0.64627 0.0
C1203 C 0.20097 0.97431 0.6317 0.0
N1204 N 0.2315 0.06102 0.66707 0.0
N1205 N 0.22037 0.99828 0.6408 0.0
H1206 H 0.01446 0.1746 0.60318 0.0
H1207 H 0.94889 0.23802 0.6697 0.0
H1208 H 0.0561 0.259 0.62129 0.0
H1209 H 0.90352 0.17004 0.62621 0.0
H1210 H 0.98968 0.24483 0.65612 0.0
H1211 H 0.97463 0.17084 0.6159 0.0
C1212 C 0.01517 0.19233 0.60993 0.0
C1213 C 0.03851 0.21713 0.61125 0.0
C1214 C 0.97071 0.22859 0.64953 0.0
C1215 C 0.99313 0.21297 0.62596 0.0
C1216 C 0.94748 0.22464 0.65728 0.0
C1217 C 0.92274 0.20344 0.64909 0.0
C1218 C 0.96912 0.21084 0.63382 0.0
C1219 C 0.92208 0.18671 0.63298 0.0
C1220 C 0.99245 0.19021 0.61708 0.0
C1221 C 0.03839 0.23955 0.61997 0.0
N1222 N 0.94489 0.1906 0.62605 0.0
N1223 N 0.01605 0.23693 0.6272 0.0
H1224 H 0.80101 0.80943 0.60049 0.0
H1225 H 0.85563 0.76768 0.69039 0.0
H1226 H 0.8094 0.84698 0.65952 0.0
H1227 H 0.79149 0.70563 0.65058 0.0
H1228 H 0.84658 0.80048 0.67613 0.0
H1229 H 0.80377 0.77345 0.61535 0.0
C1230 C 0.80304 0.81011 0.61651 0.0
C1231 C 0.80529 0.83177 0.62866 0.0
C1232 C 0.83456 0.77964 0.67053 0.0
C1233 C 0.80956 0.79101 0.64559 0.0
C1234 C 0.83974 0.76096 0.67858 0.0
C1235 C 0.82447 0.73391 0.67146 0.0
C1236 C 0.81448 0.77132 0.6549 0.0
C1237 C 0.80403 0.72631 0.6562 0.0
C1238 C 0.80481 0.78958 0.62493 0.0
C1239 C 0.80844 0.83138 0.6494 0.0
N1240 N 0.79983 0.74498 0.64818 0.0
N1241 N 0.81097 0.81166 0.65716 0.0
H1242 H 0.9888 0.83116 0.60105 0.0
H1243 H 0.92805 0.73125 0.68387 0.0
H1244 H 0.03551 0.83527 0.65408 0.0
H1245 H 0.88723 0.72178 0.62618 0.0
H1246 H 0.96864 0.7671 0.67275 0.0
H1247 H 0.95261 0.7887 0.60911 0.0
C1248 C 0.99154 0.82272 0.6142 0.0
C1249 C 0.01508 0.83653 0.62689 0.0
C1250 C 0.95085 0.75693 0.66248 0.0
C1251 C 0.97351 0.78834 0.63663 0.0
C1252 C 0.92765 0.73645 0.66883 0.0
C1253 C 0.90404 0.72362 0.65604 0.0
C1254 C 0.95038 0.76468 0.64326 0.0
C1255 C 0.90479 0.73122 0.63668 0.0
C1256 C 0.97087 0.79856 0.61888 0.0
C1257 C 0.01767 0.825 0.64386 0.0
N1258 N 0.92743 0.75134 0.63099 0.0
N1259 N 0.99695 0.80171 0.64842 0.0
H1260 H 0.1572 0.14501 0.59536 0.0
H1261 H 0.28115 0.2053 0.67719 0.0
H1262 H 0.17161 0.20586 0.6418 0.0
H1263 H 0.27279 0.15683 0.62352 0.0
H1264 H 0.24265 0.20791 0.66413 0.0
H1265 H 0.20088 0.15109 0.60485 0.0
C1266 C 0.16978 0.15989 0.60744 0.0
C1267 C 0.16082 0.17486 0.61789 0.0
C1268 C 0.24949 0.19699 0.65514 0.0
C1269 C 0.21076 0.18172 0.62911 0.0
C1270 C 0.27147 0.19548 0.66259 0.0
C1271 C 0.28015 0.18062 0.65154 0.0
C1272 C 0.23598 0.18338 0.6366 0.0
C1273 C 0.2668 0.16837 0.63269 0.0
C1274 C 0.19473 0.1634 0.61287 0.0
C1275 C 0.17789 0.19399 0.63336 0.0
N1276 N 0.24531 0.16981 0.62594 0.0
N1277 N 0.20195 0.19663 0.63871 0.0
H1278 H 0.89229 0.0276 0.63036 0.0
H1279 H 0.80834 0.09267 0.66885 0.0
H1280 H 0.81564 0.9801 0.65111 0.0
H1281 H 0.89294 0.13459 0.66684 0.0
H1282 H 0.80639 0.05132 0.65515 0.0
H1283 H 0.88801 0.06699 0.63576 0.0
C1284 C 0.87443 0.02545 0.63593 0.0
C1285 C 0.85454 1.00065 0.64069 0.0
C1286 C 0.82527 0.0697 0.65756 0.0
C1287 C 0.84948 0.0458 0.64697 0.0
C1288 C 0.82636 0.09319 0.66528 0.0
C1289 C 0.85087 0.11684 0.66919 0.0
C1290 C 0.8488 0.07026 0.65341 0.0
C1291 C 0.87369 0.11665 0.66432 0.0
C1292 C 0.87198 0.04794 0.639 0.0
C1293 C 0.8315 0.99891 0.64738 0.0
N1294 N 0.87209 0.09377 0.65674 0.0
N1295 N 0.82973 0.02131 0.65059 0.0
H1296 H 0.49673 0.35301 0.72809 0.0
H1297 H 0.42451 0.2263 0.65034 0.0
H1298 H 0.52238 0.34905 0.6703 0.0
H1299 H 0.37959 0.24089 0.69241 0.0
H1300 H 0.46105 0.27138 0.65892 0.0
H1301 H 0.45366 0.31292 0.71681 0.0
C1302 C 0.49307 0.34406 0.71294 0.0
C1303 C 0.51325 0.35398 0.7002 0.0
C1304 C 0.44318 0.26493 0.66624 0.0
C1305 C 0.46458 0.30831 0.6874 0.0
C1306 C 0.4223 0.23907 0.6614 0.0
C1307 C 0.39908 0.22971 0.67086 0.0
C1308 C 0.44125 0.28163 0.681 0.0
C1309 C 0.39732 0.24727 0.68498 0.0
C1310 C 0.46859 0.32121 0.70654 0.0
C1311 C 0.50757 0.34169 0.68073 0.0
N1312 N 0.41837 0.27238 0.6899 0.0
N1313 N 0.48398 0.31934 0.67505 0.0
H1314 H 0.69431 0.19511 0.75167 0.0
H1315 H 0.74707 0.13471 0.66972 0.0
H1316 H 0.64204 0.13543 0.70463 0.0
H1317 H 0.79347 0.18163 0.72404 0.0
H1318 H 0.70772 0.13228 0.68261 0.0
H1319 H 0.73024 0.18817 0.7424 0.0
C1320 C 0.69039 0.18027 0.73952 0.0
C1321 C 0.6653 0.16588 0.72884 0.0
C1322 C 0.72648 0.14281 0.69177 0.0
C1323 C 0.70643 0.1581 0.71782 0.0
C1324 C 0.74896 0.1442 0.68442 0.0
C1325 C 0.77373 0.15865 0.69569 0.0
C1326 C 0.72886 0.15611 0.71043 0.0
C1327 C 0.77492 0.1705 0.71467 0.0
C1328 C 0.71088 0.17629 0.7342 0.0
C1329 C 0.66115 0.14683 0.71325 0.0
N1330 N 0.75293 0.16919 0.72131 0.0
N1331 N 0.68164 0.14374 0.70799 0.0
H1332 H 0.80604 0.47056 0.67391 0.0
H1333 H 0.8622 0.62729 0.69612 0.0
H1334 H 0.85336 0.51332 0.72886 0.0
H1335 H 0.79357 0.57259 0.65606 0.0
H1336 H 0.86689 0.58923 0.70549 0.0
H1337 H 0.81043 0.51177 0.6635 0.0
C1338 C 0.81758 0.48878 0.68372 0.0
C1339 C 0.82896 0.48849 0.7024 0.0
C1340 C 0.85094 0.58579 0.6946 0.0
C1341 C 0.83388 0.53593 0.69067 0.0
C1342 C 0.84824 0.60741 0.68929 0.0
C1343 C 0.82736 0.60307 0.6754 0.0
C1344 C 0.83293 0.55997 0.68558 0.0
C1345 C 0.80991 0.57697 0.66688 0.0
C1346 C 0.82004 0.51232 0.67781 0.0
C1347 C 0.84416 0.51277 0.71438 0.0
N1348 N 0.81315 0.55658 0.67206 0.0
N1349 N 0.84593 0.53559 0.70843 0.0
H1350 H 0.47723 0.92548 0.23596 0.0
H1351 H 0.44256 0.951 0.12607 0.0
H1352 H 0.3974 0.8973 0.21038 0.0
H1353 H 0.52181 0.97711 0.15197 0.0
H1354 H 0.42544 0.93149 0.15671 0.0
H1355 H 0.49374 0.94516 0.20537 0.0
C1356 C 0.46314 0.92339 0.22389 0.0
C1357 C 0.43585 0.90961 0.22577 0.0
C1358 C 0.44658 0.94151 0.15568 0.0
C1359 C 0.4547 0.93232 0.19059 0.0
C1360 C 0.45637 0.95252 0.13813 0.0
C1361 C 0.48372 0.96582 0.13639 0.0
C1362 C 0.46423 0.94374 0.17165 0.0
C1363 C 0.50064 0.96743 0.15267 0.0
C1364 C 0.4726 0.93473 0.20642 0.0
C1365 C 0.4186 0.90795 0.20971 0.0
N1366 N 0.49063 0.95655 0.16955 0.0
N1367 N 0.4283 0.91908 0.19278 0.0
H1368 H 0.15207 0.5805 0.23377 0.0
H1369 H 0.02957 0.4927 0.15151 0.0
H1370 H 0.0824 0.50825 0.2456 0.0
H1371 H 0.0932 0.57171 0.14466 0.0
H1372 H 0.04982 0.49611 0.18507 0.0
H1373 H 0.13172 0.57597 0.20035 0.0
C1374 C 0.13235 0.5638 0.22945 0.0
C1375 C 0.11887 0.54488 0.2427 0.0
C1376 C 0.05932 0.51268 0.1762 0.0
C1377 C 0.09558 0.53924 0.20403 0.0
C1378 C 0.04788 0.51068 0.15701 0.0
C1379 C 0.05966 0.532 0.14528 0.0
C1380 C 0.08284 0.53608 0.18366 0.0
C1381 C 0.08324 0.55493 0.15325 0.0
C1382 C 0.1208 0.56112 0.21025 0.0
C1383 C 0.09365 0.52324 0.23591 0.0
N1384 N 0.09403 0.55633 0.17189 0.0
N1385 N 0.08282 0.52101 0.21705 0.0
H1386 H 0.45409 0.53784 0.2328 0.0
H1387 H 0.50997 0.59716 0.13106 0.0
H1388 H 0.4881 0.62071 0.22318 0.0
H1389 H 0.49683 0.52066 0.14588 0.0
H1390 H 0.49533 0.60352 0.16291 0.0
H1391 H 0.46321 0.52868 0.19914 0.0
C1392 C 0.46329 0.55402 0.22354 0.0
C1393 C 0.47064 0.5801 0.23082 0.0
C1394 C 0.49554 0.58528 0.15917 0.0
C1395 C 0.48093 0.56985 0.19244 0.0
C1396 C 0.50373 0.58157 0.14092 0.0
C1397 C 0.50476 0.5584 0.13582 0.0
C1398 C 0.4881 0.56562 0.17243 0.0
C1399 C 0.49668 0.53898 0.14933 0.0
C1400 C 0.46859 0.54884 0.20442 0.0
C1401 C 0.48251 0.60039 0.21825 0.0
N1402 N 0.48871 0.54302 0.16701 0.0
N1403 N 0.48728 0.59484 0.19973 0.0
H1404 H 0.91827 0.47651 0.77382 0.0
H1405 H 0.91914 0.42102 0.87892 0.0
H1406 H 0.88038 0.3931 0.78267 0.0
H1407 H 0.9796 0.49934 0.86712 0.0
H1408 H 0.89935 0.413 0.84472 0.0
H1409 H 0.93638 0.48761 0.80905 0.0
C1410 C 0.91383 0.46062 0.78318 0.0
C1411 C 0.89816 0.43388 0.77534 0.0
C1412 C 0.91688 0.43201 0.84962 0.0
C1413 C 0.91817 0.4463 0.81538 0.0
C1414 C 0.92804 0.43668 0.86919 0.0
C1415 C 0.95108 0.46085 0.87585 0.0
C1416 C 0.92868 0.4517 0.83658 0.0
C1417 C 0.96198 0.48032 0.86249 0.0
C1418 C 0.92414 0.46692 0.80318 0.0
C1419 C 0.89278 0.41397 0.78805 0.0
N1420 N 0.95068 0.47533 0.84345 0.0
N1421 N 0.90268 0.42057 0.80741 0.0
H1422 H 0.56993 0.43705 0.79128 0.0
H1423 H 0.54133 0.52473 0.87052 0.0
H1424 H 0.57758 0.51277 0.78012 0.0
H1425 H 0.51797 0.44239 0.87511 0.0
H1426 H 0.55849 0.52245 0.83881 0.0
H1427 H 0.55424 0.44026 0.82326 0.0
C1428 C 0.56812 0.45428 0.79543 0.0
C1429 C 0.57486 0.47454 0.78277 0.0
C1430 C 0.54961 0.50489 0.84676 0.0
C1431 C 0.55736 0.47858 0.81979 0.0
C1432 C 0.53997 0.50622 0.86493 0.0
C1433 C 0.52814 0.48369 0.87548 0.0
C1434 C 0.54764 0.48092 0.83916 0.0
C1435 C 0.52664 0.46015 0.86739 0.0
C1436 C 0.5593 0.45617 0.81381 0.0
C1437 C 0.57281 0.49674 0.78938 0.0
N1438 N 0.53631 0.4594 0.84976 0.0
N1439 N 0.56424 0.49816 0.8074 0.0
H1440 H 0.50769 0.05917 0.77295 0.0
H1441 H 0.54728 0.07263 0.88989 0.0
H1442 H 0.57661 0.12782 0.80391 0.0
H1443 H 0.47177 0.01309 0.85935 0.0
H1444 H 0.56173 0.08995 0.85808 0.0
H1445 H 0.49828 0.03825 0.80392 0.0
C1446 C 0.52101 0.06971 0.78625 0.0
C1447 C 0.54279 0.0954 0.7859 0.0
C1448 C 0.54208 0.07297 0.85838 0.0
C1449 C 0.53206 0.07163 0.82149 0.0
C1450 C 0.53372 0.06317 0.87655 0.0
C1451 C 0.50819 0.04136 0.8774 0.0
C1452 C 0.52484 0.06083 0.84091 0.0
C1453 C 0.49174 0.02966 0.85951 0.0
C1454 C 0.51562 0.05778 0.80394 0.0
C1455 C 0.55965 0.10796 0.8035 0.0
N1456 N 0.50031 0.03958 0.84208 0.0
N1457 N 0.55377 0.09607 0.82066 0.0
H1458 H 0.06729 0.24052 0.54818 0.0
H1459 H 0.19261 0.31596 0.48662 0.0
H1460 H 0.14688 0.26239 0.57028 0.0
H1461 H 0.11273 0.29249 0.46408 0.0
H1462 H 0.17653 0.29811 0.51785 0.0
H1463 H 0.08393 0.26153 0.51804 0.0
C1464 C 0.08834 0.25008 0.54685 0.0
C1465 C 0.10571 0.2497 0.56187 0.0
C1466 C 0.16251 0.29688 0.50609 0.0
C1467 C 0.12486 0.2734 0.52708 0.0
C1468 C 0.1717 0.30719 0.48826 0.0
C1469 C 0.15402 0.30578 0.47264 0.0
C1470 C 0.1354 0.28503 0.50842 0.0
C1471 C 0.12706 0.29375 0.47557 0.0
C1472 C 0.0978 0.26188 0.52951 0.0
C1473 C 0.13271 0.26196 0.55904 0.0
N1474 N 0.1186 0.28388 0.49309 0.0
N1475 N 0.14143 0.27323 0.54199 0.0
H1476 H 0.8186 0.90746 0.56305 0.0
H1477 H 0.6948 0.82572 0.48074 0.0
H1478 H 0.74644 0.83776 0.57484 0.0
H1479 H 0.76123 0.90336 0.47458 0.0
H1480 H 0.71455 0.82741 0.51413 0.0
H1481 H 0.79888 0.90407 0.52963 0.0
C1482 C 0.79848 0.89154 0.5587 0.0
C1483 C 0.78406 0.87308 0.57197 0.0
C1484 C 0.72478 0.84405 0.50545 0.0
C1485 C 0.76145 0.86875 0.53331 0.0
C1486 C 0.71361 0.84304 0.48636 0.0
C1487 C 0.72634 0.86449 0.47488 0.0
C1488 C 0.74897 0.86657 0.51303 0.0
C1489 C 0.75055 0.88653 0.48298 0.0
C1490 C 0.78728 0.88952 0.53951 0.0
C1491 C 0.75835 0.8524 0.56514 0.0
N1492 N 0.76105 0.88697 0.5015 0.0
N1493 N 0.74784 0.85081 0.54629 0.0
H1494 H 0.10585 0.89526 0.55442 0.0
H1495 H 0.21111 0.88338 0.49057 0.0
H1496 H 0.17887 0.90348 0.58055 0.0
H1497 H 0.1432 0.88591 0.46513 0.0
H1498 H 0.1968 0.88473 0.52367 0.0
H1499 H 0.11627 0.88545 0.52177 0.0
C1500 C 0.12386 0.89454 0.55336 0.0
C1501 C 0.14154 0.90029 0.5703 0.0
C1502 C 0.18496 0.88483 0.51083 0.0
C1503 C 0.15387 0.88954 0.53277 0.0
C1504 C 0.19304 0.88392 0.49192 0.0
C1505 C 0.17846 0.88478 0.47506 0.0
C1506 C 0.16204 0.88645 0.51289 0.0
C1507 C 0.1553 0.88567 0.47773 0.0
C1508 C 0.12993 0.88917 0.53465 0.0
C1509 C 0.16482 0.89949 0.56788 0.0
N1510 N 0.14788 0.88657 0.49625 0.0
N1511 N 0.17038 0.89438 0.54947 0.0
H1512 H 0.54382 0.78437 0.12018 0.0
H1513 H 0.66625 0.80177 0.19109 0.0
H1514 H 0.61115 0.78329 0.09845 0.0
H1515 H 0.59992 0.80541 0.21223 0.0
H1516 H 0.64856 0.79927 0.15697 0.0
H1517 H 0.56654 0.79721 0.15363 0.0
C1518 C 0.56363 0.78737 0.12234 0.0
C1519 C 0.5755 0.78257 0.1064 0.0
C1520 C 0.63798 0.80085 0.16907 0.0
C1521 C 0.60141 0.79663 0.14496 0.0
C1522 C 0.64799 0.80212 0.18856 0.0
C1523 C 0.6344 0.80351 0.20456 0.0
C1524 C 0.6141 0.80081 0.16549 0.0
C1525 C 0.61113 0.80446 0.20039 0.0
C1526 C 0.57651 0.79447 0.14154 0.0
C1527 C 0.60103 0.78632 0.1103 0.0
N1528 N 0.6016 0.80284 0.18127 0.0
N1529 N 0.61301 0.79287 0.1292 0.0
H1530 H 0.19858 0.78074 0.10245 0.0
H1531 H 0.23336 0.8472 0.21495 0.0
H1532 H 0.27746 0.84024 0.12738 0.0
H1533 H 0.15713 0.78036 0.19205 0.0
H1534 H 0.24969 0.84578 0.18282 0.0
H1535 H 0.18269 0.78145 0.13488 0.0
C1536 C 0.21259 0.79392 0.11474 0.0
C1537 C 0.23942 0.81047 0.11212 0.0
C1538 C 0.22941 0.83138 0.18484 0.0
C1539 C 0.22128 0.81154 0.14933 0.0
C1540 C 0.22011 0.83205 0.20326 0.0
C1541 C 0.19378 0.81391 0.20627 0.0
C1542 C 0.21227 0.81248 0.16925 0.0
C1543 C 0.17744 0.79504 0.19037 0.0
C1544 C 0.20348 0.79437 0.13325 0.0
C1545 C 0.25654 0.82743 0.12857 0.0
N1546 N 0.18692 0.79487 0.17257 0.0
N1547 N 0.24719 0.82751 0.14644 0.0
H1548 H 0.17558 0.39262 0.1064 0.0
H1549 H 0.21394 0.40406 0.22336 0.0
H1550 H 0.24326 0.46153 0.13834 0.0
H1551 H 0.13978 0.34316 0.19191 0.0
H1552 H 0.22838 0.42256 0.19188 0.0
H1553 H 0.1662 0.37084 0.13701 0.0
C1554 C 0.18864 0.40305 0.11984 0.0
C1555 C 0.21005 0.42904 0.11987 0.0
C1556 C 0.20903 0.40504 0.19191 0.0
C1557 C 0.19936 0.40428 0.15504 0.0
C1558 C 0.20067 0.39456 0.20989 0.0
C1559 C 0.17553 0.37201 0.21038 0.0
C1560 C 0.19216 0.39286 0.17426 0.0
C1561 C 0.15945 0.3603 0.19233 0.0
C1562 C 0.18326 0.39063 0.13732 0.0
C1563 C 0.22658 0.44145 0.13763 0.0
N1564 N 0.16801 0.37089 0.17509 0.0
N1565 N 0.22073 0.42907 0.15457 0.0
H1566 H 0.77495 0.5444 0.88283 0.0
H1567 H 0.80429 0.66214 0.81497 0.0
H1568 H 0.7714 0.61418 0.90316 0.0
H1569 H 0.82369 0.60093 0.80119 0.0
H1570 H 0.78926 0.64351 0.84634 0.0
H1571 H 0.79061 0.56382 0.85213 0.0
C1572 C 0.7778 0.56399 0.88102 0.0
C1573 C 0.77205 0.57774 0.89582 0.0
C1574 C 0.79684 0.6342 0.83645 0.0
C1575 C 0.78938 0.59986 0.86019 0.0
C1576 C 0.80524 0.64469 0.81849 0.0
C1577 C 0.81529 0.63308 0.80544 0.0
C1578 C 0.79825 0.61177 0.84132 0.0
C1579 C 0.81636 0.6107 0.81088 0.0
C1580 C 0.78655 0.57498 0.86333 0.0
C1581 C 0.77537 0.60272 0.89216 0.0
N1582 N 0.80789 0.60075 0.82835 0.0
N1583 N 0.78376 0.61295 0.87471 0.0
H1584 H 0.41568 0.17335 0.91051 0.0
H1585 H 0.43279 0.22827 0.80338 0.0
H1586 H 0.48603 0.24274 0.89595 0.0
H1587 H 0.3583 0.16655 0.81995 0.0
H1588 H 0.4535 0.23134 0.83652 0.0
H1589 H 0.39511 0.16814 0.87672 0.0
C1590 C 0.4268 0.18743 0.90019 0.0
C1591 C 0.45252 0.20864 0.90612 0.0
C1592 C 0.43262 0.21708 0.83292 0.0
C1593 C 0.42918 0.20281 0.86748 0.0
C1594 C 0.42082 0.2152 0.81394 0.0
C1595 C 0.39374 0.19715 0.80886 0.0
C1596 C 0.41731 0.20072 0.84699 0.0
C1597 C 0.37917 0.18097 0.82329 0.0
C1598 C 0.41503 0.18452 0.88095 0.0
C1599 C 0.466 0.22637 0.89216 0.0
N1600 N 0.39112 0.18312 0.84168 0.0
N1601 N 0.4542 0.22304 0.87353 0.0
H1602 H 0.7878 0.19938 0.90058 0.0
H1603 H 0.84542 0.25951 0.79954 0.0
H1604 H 0.82769 0.28313 0.89268 0.0
H1605 H 0.82942 0.18151 0.81275 0.0
H1606 H 0.83208 0.26604 0.8319 0.0
H1607 H 0.79651 0.19012 0.86674 0.0
C1608 C 0.79828 0.21574 0.89171 0.0
C1609 C 0.80734 0.24207 0.89949 0.0
C1610 C 0.83138 0.24744 0.82771 0.0
C1611 C 0.81702 0.2317 0.86092 0.0
C1612 C 0.83881 0.24362 0.80916 0.0
C1613 C 0.83863 0.21997 0.80344 0.0
C1614 C 0.82347 0.22738 0.84066 0.0
C1615 C 0.83016 0.20019 0.81667 0.0
C1616 C 0.80331 0.21049 0.87248 0.0
C1617 C 0.82076 0.26258 0.88738 0.0
N1618 N 0.82291 0.20432 0.83467 0.0
N1619 N 0.82514 0.25696 0.86875 0.0
H1620 H 0.21076 0.1156 0.45424 0.0
H1621 H 0.33155 0.13153 0.5263 0.0
H1622 H 0.27861 0.11494 0.43315 0.0
H1623 H 0.26491 0.13528 0.54664 0.0
H1624 H 0.31469 0.12966 0.49203 0.0
H1625 H 0.23281 0.12788 0.48787 0.0
C1626 C 0.23055 0.11857 0.45658 0.0
C1627 C 0.24276 0.11407 0.44076 0.0
C1628 C 0.30388 0.13113 0.50399 0.0
C1629 C 0.26789 0.12747 0.47953 0.0
C1630 C 0.31341 0.13204 0.52356 0.0
C1631 C 0.29947 0.13328 0.53937 0.0
C1632 C 0.28013 0.1313 0.50016 0.0
C1633 C 0.27637 0.13445 0.53495 0.0
C1634 C 0.24304 0.12535 0.47588 0.0
C1635 C 0.26822 0.11774 0.4449 0.0
N1636 N 0.26731 0.13318 0.51577 0.0
N1637 N 0.27983 0.12397 0.4639 0.0
H1638 H 0.94336 0.17308 0.46281 0.0
H1639 H 0.81646 0.12436 0.52338 0.0
H1640 H 0.86377 0.11716 0.43711 0.0
H1641 H 0.8969 0.16649 0.55115 0.0
H1642 H 0.83316 0.12448 0.49121 0.0
H1643 H 0.92636 0.17443 0.49467 0.0
C1644 C 0.92225 0.1613 0.46381 0.0
C1645 C 0.90495 0.14503 0.44723 0.0
C1646 C 0.84714 0.13369 0.50435 0.0
C1647 C 0.88536 0.14626 0.48379 0.0
C1648 C 0.83762 0.1335 0.52279 0.0
C1649 C 0.85524 0.14533 0.54015 0.0
C1650 C 0.87453 0.14595 0.50313 0.0
C1651 C 0.88251 0.15741 0.53824 0.0
C1652 C 0.91259 0.16191 0.48206 0.0
C1653 C 0.87784 0.12982 0.44954 0.0
N1654 N 0.89129 0.1574 0.5201 0.0
N1655 N 0.86888 0.13084 0.46745 0.0
H1656 H 0.86874 0.80913 0.4749 0.0
H1657 H 0.86024 0.69354 0.53714 0.0
H1658 H 0.8982 0.75767 0.45581 0.0
H1659 H 0.84256 0.75329 0.5595 0.0
H1660 H 0.87634 0.71779 0.50804 0.0
H1661 H 0.86156 0.79048 0.50683 0.0
C1662 C 0.87393 0.79404 0.47756 0.0
C1663 C 0.88384 0.78471 0.46269 0.0
C1664 C 0.86918 0.72574 0.5194 0.0
C1665 C 0.87543 0.76303 0.49913 0.0
C1666 C 0.85984 0.71182 0.53596 0.0
C1667 C 0.84981 0.72127 0.5507 0.0
C1668 C 0.86829 0.74918 0.51745 0.0
C1669 C 0.8502 0.74531 0.54856 0.0
C1670 C 0.86987 0.78342 0.49579 0.0
C1671 C 0.89053 0.76537 0.46693 0.0
N1672 N 0.85902 0.75827 0.53216 0.0
N1673 N 0.88587 0.75488 0.48469 0.0
loop_
_geom_bond_atom_site_label_1
_geom_bond_atom_site_label_2
_geom_bond_distance
_geom_bond_site_symmetry_2
_ccdc_geom_bond_type
H0 C1 0.949 . S
C1 H0 0.949 . S
C1 C2 1.395 . S
C1 C3 1.391 . S
C2 C1 1.395 . S
C2 C5 1.390 . S
C3 C1 1.391 . S
C3 C7 1.387 . S
C3 C8 1.491 . S
H4 C5 0.950 . S
C5 C2 1.390 . S
C5 H4 0.950 . S
C5 C6 1.378 . S
C6 C5 1.378 . S
C6 C7 1.409 . S
C7 C3 1.387 . S
C7 C6 1.409 . S
C7 H9 0.951 . S
C8 C3 1.491 . S
C8 C10 1.382 . S
C8 C12 1.404 . S
H9 C7 0.951 . S
C10 C8 1.382 . S
C10 C11 1.390 . S
C10 H15 0.949 . S
C11 C10 1.390 . S
C11 C16 1.399 . S
C12 C8 1.404 . S
C12 H13 0.950 . S
C12 C14 1.375 . S
H13 C12 0.950 . S
C14 C12 1.375 . S
C14 C16 1.382 . S
C14 H18 0.950 . S
H15 C10 0.949 . S
C16 C11 1.399 . S
C16 C14 1.382 . S
C16 H17 0.952 . S
H17 C16 0.952 . S
H18 C14 0.950 . S
H19 C20 0.949 . S
C20 H19 0.949 . S
C20 C21 1.395 . S
C20 C22 1.391 . S
C21 C20 1.395 . S
C21 C24 1.390 . S
C22 C20 1.391 . S
C22 C26 1.387 . S
C22 C27 1.491 . S
H23 C24 0.950 . S
C24 C21 1.390 . S
C24 H23 0.950 . S
C24 C25 1.378 . S
C25 C24 1.378 . S
C25 C26 1.409 . S
C26 C22 1.387 . S
C26 C25 1.409 . S
C26 H28 0.951 . S
C27 C22 1.491 . S
C27 C29 1.382 . S
C27 C31 1.404 . S
H28 C26 0.951 . S
C29 C27 1.382 . S
C29 C30 1.390 . S
C29 H34 0.949 . S
C30 C29 1.390 . S
C30 C35 1.399 . S
C31 C27 1.404 . S
C31 H32 0.950 . S
C31 C33 1.375 . S
H32 C31 0.950 . S
C33 C31 1.375 . S
C33 C35 1.382 . S
C33 H37 0.950 . S
H34 C29 0.949 . S
C35 C30 1.399 . S
C35 C33 1.382 . S
C35 H36 0.952 . S
H36 C35 0.952 . S
H37 C33 0.950 . S
H38 C39 0.949 . S
C39 H38 0.949 . S
C39 C40 1.395 . S
C39 C41 1.391 . S
C40 C39 1.395 . S
C40 C43 1.390 . S
C41 C39 1.391 . S
C41 C45 1.387 . S
C41 C46 1.491 . S
H42 C43 0.950 . S
C43 C40 1.390 . S
C43 H42 0.950 . S
C43 C44 1.378 . S
C44 C43 1.378 . S
C44 C45 1.409 . S
C45 C41 1.387 . S
C45 C44 1.409 . S
C45 H47 0.951 . S
C46 C41 1.491 . S
C46 C48 1.382 . S
C46 C50 1.404 . S
H47 C45 0.951 . S
C48 C46 1.382 . S
C48 C49 1.390 . S
C48 H53 0.949 . S
C49 C48 1.390 . S
C49 C54 1.399 . S
C50 C46 1.404 . S
C50 H51 0.950 . S
C50 C52 1.375 . S
H51 C50 0.950 . S
C52 C50 1.375 . S
C52 C54 1.382 . S
C52 H56 0.950 . S
H53 C48 0.949 . S
C54 C49 1.399 . S
C54 C52 1.382 . S
C54 H55 0.952 1_655 S
H55 C54 0.952 1_455 S
H56 C52 0.950 . S
H57 C58 0.949 . S
C58 H57 0.949 . S
C58 C59 1.395 . S
C58 C60 1.391 . S
C59 C58 1.395 . S
C59 C62 1.390 . S
C60 C58 1.391 . S
C60 C64 1.387 . S
C60 C65 1.491 . S
H61 C62 0.950 . S
C62 C59 1.390 . S
C62 H61 0.950 . S
C62 C63 1.378 . S
C63 C62 1.378 . S
C63 C64 1.409 . S
C64 C60 1.387 . S
C64 C63 1.409 . S
C64 H66 0.951 . S
C65 C60 1.491 . S
C65 C67 1.382 . S
C65 C69 1.404 . S
H66 C64 0.951 . S
C67 C65 1.382 . S
C67 C68 1.390 . S
C67 H72 0.949 . S
C68 C67 1.390 . S
C68 C73 1.399 . S
C69 C65 1.404 . S
C69 H70 0.950 . S
C69 C71 1.375 . S
H70 C69 0.950 . S
C71 C69 1.375 . S
C71 C73 1.382 . S
C71 H75 0.950 . S
H72 C67 0.949 . S
C73 C68 1.399 . S
C73 C71 1.382 . S
C73 H74 0.952 . S
H74 C73 0.952 . S
H75 C71 0.950 . S
H76 C77 0.949 . S
C77 H76 0.949 . S
C77 C78 1.395 . S
C77 C79 1.391 . S
C78 C77 1.395 . S
C78 C81 1.390 . S
C79 C77 1.391 . S
C79 C83 1.387 . S
C79 C84 1.491 . S
H80 C81 0.950 . S
C81 C78 1.390 . S
C81 H80 0.950 . S
C81 C82 1.378 . S
C82 C81 1.378 . S
C82 C83 1.409 . S
C83 C79 1.387 . S
C83 C82 1.409 . S
C83 H85 0.951 . S
C84 C79 1.491 . S
C84 C86 1.382 . S
C84 C88 1.404 . S
H85 C83 0.951 . S
C86 C84 1.382 . S
C86 C87 1.390 . S
C86 H91 0.949 . S
C87 C86 1.390 . S
C87 C92 1.399 . S
C88 C84 1.404 . S
C88 H89 0.950 . S
C88 C90 1.375 . S
H89 C88 0.950 . S
C90 C88 1.375 . S
C90 C92 1.382 . S
C90 H94 0.950 . S
H91 C86 0.949 . S
C92 C87 1.399 . S
C92 C90 1.382 . S
C92 H93 0.952 . S
H93 C92 0.952 . S
H94 C90 0.950 . S
H95 C96 0.949 . S
C96 H95 0.949 . S
C96 C97 1.395 . S
C96 C98 1.391 . S
C97 C96 1.395 . S
C97 C100 1.390 . S
C98 C96 1.391 . S
C98 C102 1.387 . S
C98 C103 1.491 . S
H99 C100 0.950 . S
C100 C97 1.390 . S
C100 H99 0.950 . S
C100 C101 1.378 . S
C101 C100 1.378 . S
C101 C102 1.409 . S
C102 C98 1.387 . S
C102 C101 1.409 . S
C102 H104 0.951 . S
C103 C98 1.491 . S
C103 C105 1.382 . S
C103 C107 1.404 . S
H104 C102 0.951 . S
C105 C103 1.382 . S
C105 C106 1.390 . S
C105 H110 0.949 . S
C106 C105 1.390 . S
C106 C111 1.399 . S
C107 C103 1.404 . S
C107 H108 0.950 . S
C107 C109 1.375 . S
H108 C107 0.950 . S
C109 C107 1.375 . S
C109 C111 1.382 . S
C109 H113 0.950 . S
H110 C105 0.949 . S
C111 C106 1.399 . S
C111 C109 1.382 . S
C111 H112 0.952 . S
H112 C111 0.952 . S
H113 C109 0.950 . S
H114 C115 0.949 . S
C115 H114 0.949 . S
C115 C116 1.395 . S
C115 C117 1.391 . S
C116 C115 1.395 . S
C116 C119 1.390 . S
C117 C115 1.391 . S
C117 C121 1.387 . S
C117 C122 1.491 . S
H118 C119 0.950 . S
C119 C116 1.390 . S
C119 H118 0.950 . S
C119 C120 1.378 . S
C120 C119 1.378 . S
C120 C121 1.409 . S
C121 C117 1.387 . S
C121 C120 1.409 . S
C121 H123 0.951 . S
C122 C117 1.491 . S
C122 C124 1.382 . S
C122 C126 1.404 . S
H123 C121 0.951 . S
C124 C122 1.382 . S
C124 C125 1.390 . S
C124 H129 0.949 . S
C125 C124 1.390 . S
C125 C130 1.399 . S
C126 C122 1.404 . S
C126 H127 0.950 . S
C126 C128 1.375 . S
H127 C126 0.950 . S
C128 C126 1.375 . S
C128 C130 1.382 . S
C128 H132 0.950 . S
H129 C124 0.949 . S
C130 C125 1.399 . S
C130 C128 1.382 . S
C130 H131 0.952 . S
H131 C130 0.952 . S
H132 C128 0.950 . S
H133 C134 0.949 . S
C134 H133 0.949 . S
C134 C135 1.395 . S
C134 C136 1.391 . S
C135 C134 1.395 . S
C135 C138 1.390 . S
C136 C134 1.391 . S
C136 C140 1.387 . S
C136 C141 1.491 . S
H137 C138 0.950 . S
C138 C135 1.390 . S
C138 H137 0.950 . S
C138 C139 1.378 . S
C139 C138 1.378 . S
C139 C140 1.409 . S
C140 C136 1.387 . S
C140 C139 1.409 . S
C140 H142 0.951 . S
C141 C136 1.491 . S
C141 C143 1.382 . S
C141 C145 1.404 . S
H142 C140 0.951 . S
C143 C141 1.382 . S
C143 C144 1.390 . S
C143 H148 0.949 . S
C144 C143 1.390 . S
C144 C149 1.399 . S
C145 C141 1.404 . S
C145 H146 0.950 . S
C145 C147 1.375 . S
H146 C145 0.950 . S
C147 C145 1.375 . S
C147 C149 1.382 . S
C147 H151 0.950 . S
H148 C143 0.949 . S
C149 C144 1.399 . S
C149 C147 1.382 . S
C149 H150 0.952 . S
H150 C149 0.952 . S
H151 C147 0.950 . S
H152 C153 0.949 . S
C153 H152 0.949 . S
C153 C154 1.395 . S
C153 C155 1.391 . S
C154 C153 1.395 . S
C154 C157 1.390 . S
C155 C153 1.391 . S
C155 C159 1.387 . S
C155 C160 1.491 . S
H156 C157 0.950 . S
C157 C154 1.390 . S
C157 H156 0.950 . S
C157 C158 1.378 . S
C158 C157 1.378 . S
C158 C159 1.409 . S
C159 C155 1.387 . S
C159 C158 1.409 . S
C159 H161 0.951 . S
C160 C155 1.491 . S
C160 C162 1.382 . S
C160 C164 1.404 . S
H161 C159 0.951 . S
C162 C160 1.382 . S
C162 C163 1.390 . S
C162 H167 0.949 . S
C163 C162 1.390 . S
C163 C168 1.399 . S
C164 C160 1.404 . S
C164 H165 0.950 . S
C164 C166 1.375 . S
H165 C164 0.950 . S
C166 C164 1.375 . S
C166 C168 1.382 . S
C166 H170 0.950 . S
H167 C162 0.949 . S
C168 C163 1.399 . S
C168 C166 1.382 . S
C168 H169 0.952 . S
H169 C168 0.952 . S
H170 C166 0.950 . S
H171 C172 0.949 . S
C172 H171 0.949 . S
C172 C173 1.395 . S
C172 C174 1.391 . S
C173 C172 1.395 . S
C173 C176 1.390 . S
C174 C172 1.391 . S
C174 C178 1.387 . S
C174 C179 1.491 . S
H175 C176 0.950 . S
C176 C173 1.390 . S
C176 H175 0.950 . S
C176 C177 1.378 . S
C177 C176 1.378 . S
C177 C178 1.409 . S
C178 C174 1.387 . S
C178 C177 1.409 . S
C178 H180 0.951 . S
C179 C174 1.491 . S
C179 C181 1.382 . S
C179 C183 1.404 . S
H180 C178 0.951 . S
C181 C179 1.382 . S
C181 C182 1.390 . S
C181 H186 0.949 . S
C182 C181 1.390 . S
C182 C187 1.399 . S
C183 C179 1.404 . S
C183 H184 0.950 . S
C183 C185 1.375 . S
H184 C183 0.950 . S
C185 C183 1.375 . S
C185 C187 1.382 . S
C185 H189 0.950 . S
H186 C181 0.949 . S
C187 C182 1.399 . S
C187 C185 1.382 . S
C187 H188 0.952 . S
H188 C187 0.952 . S
H189 C185 0.950 . S
H190 C191 0.949 . S
C191 H190 0.949 . S
C191 C192 1.395 . S
C191 C193 1.391 . S
C192 C191 1.395 . S
C192 C195 1.390 . S
C193 C191 1.391 . S
C193 C197 1.387 . S
C193 C198 1.491 . S
H194 C195 0.950 . S
C195 C192 1.390 . S
C195 H194 0.950 . S
C195 C196 1.378 . S
C196 C195 1.378 . S
C196 C197 1.409 . S
C197 C193 1.387 . S
C197 C196 1.409 . S
C197 H199 0.951 1_556 S
C198 C193 1.491 . S
C198 C200 1.382 . S
C198 C202 1.404 1_556 S
H199 C197 0.951 1_554 S
C200 C198 1.382 . S
C200 C201 1.390 1_556 S
C200 H205 0.949 . S
C201 C200 1.390 1_554 S
C201 C206 1.399 . S
C202 C198 1.404 1_554 S
C202 H203 0.950 . S
C202 C204 1.375 . S
H203 C202 0.950 . S
C204 C202 1.375 . S
C204 C206 1.382 . S
C204 H208 0.950 . S
H205 C200 0.949 . S
C206 C201 1.399 . S
C206 C204 1.382 . S
C206 H207 0.952 . S
H207 C206 0.952 . S
H208 C204 0.950 . S
H209 C210 0.949 . S
C210 H209 0.949 . S
C210 C211 1.395 . S
C210 C212 1.391 . S
C211 C210 1.395 . S
C211 C214 1.390 . S
C212 C210 1.391 . S
C212 C216 1.387 . S
C212 C217 1.491 . S
H213 C214 0.950 . S
C214 C211 1.390 . S
C214 H213 0.950 . S
C214 C215 1.378 . S
C215 C214 1.378 . S
C215 C216 1.409 . S
C216 C212 1.387 . S
C216 C215 1.409 . S
C216 H218 0.951 . S
C217 C212 1.491 . S
C217 C219 1.382 . S
C217 C221 1.404 . S
H218 C216 0.951 . S
C219 C217 1.382 . S
C219 C220 1.390 . S
C219 H224 0.949 . S
C220 C219 1.390 . S
C220 C225 1.399 . S
C221 C217 1.404 . S
C221 H222 0.950 . S
C221 C223 1.375 . S
H222 C221 0.950 . S
C223 C221 1.375 . S
C223 C225 1.382 . S
C223 H227 0.950 . S
H224 C219 0.949 . S
C225 C220 1.399 . S
C225 C223 1.382 . S
C225 H226 0.952 . S
H226 C225 0.952 . S
H227 C223 0.950 . S
H228 C229 0.949 . S
C229 H228 0.949 . S
C229 C230 1.395 . S
C229 C231 1.391 . S
C230 C229 1.395 . S
C230 C233 1.390 . S
C231 C229 1.391 . S
C231 C235 1.387 . S
C231 C236 1.491 . S
H232 C233 0.950 . S
C233 C230 1.390 . S
C233 H232 0.950 . S
C233 C234 1.378 . S
C234 C233 1.378 . S
C234 C235 1.409 . S
C235 C231 1.387 . S
C235 C234 1.409 . S
C235 H237 0.951 . S
C236 C231 1.491 . S
C236 C238 1.382 . S
C236 C240 1.404 . S
H237 C235 0.951 . S
C238 C236 1.382 . S
C238 C239 1.390 . S
C238 H243 0.949 . S
C239 C238 1.390 . S
C239 C244 1.399 . S
C240 C236 1.404 . S
C240 H241 0.950 . S
C240 C242 1.375 1_554 S
H241 C240 0.950 . S
C242 C240 1.375 1_556 S
C242 C244 1.382 1_556 S
C242 H246 0.950 . S
H243 C238 0.949 . S
C244 C239 1.399 . S
C244 C242 1.382 1_554 S
C244 H245 0.952 1_554 S
H245 C244 0.952 1_556 S
H246 C242 0.950 . S
H247 C248 0.949 . S
C248 H247 0.949 . S
C248 C249 1.395 . S
C248 C250 1.391 . S
C249 C248 1.395 . S
C249 C252 1.390 . S
C250 C248 1.391 . S
C250 C254 1.387 . S
C250 C255 1.491 . S
H251 C252 0.950 . S
C252 C249 1.390 . S
C252 H251 0.950 . S
C252 C253 1.378 . S
C253 C252 1.378 . S
C253 C254 1.409 . S
C254 C250 1.387 . S
C254 C253 1.409 . S
C254 H256 0.951 . S
C255 C250 1.491 . S
C255 C257 1.382 . S
C255 C259 1.404 . S
H256 C254 0.951 . S
C257 C255 1.382 . S
C257 C258 1.390 . S
C257 H262 0.949 . S
C258 C257 1.390 . S
C258 C263 1.399 . S
C259 C255 1.404 . S
C259 H260 0.950 . S
C259 C261 1.375 . S
H260 C259 0.950 . S
C261 C259 1.375 . S
C261 C263 1.382 . S
C261 H265 0.950 . S
H262 C257 0.949 . S
C263 C258 1.399 . S
C263 C261 1.382 . S
C263 H264 0.952 . S
H264 C263 0.952 . S
H265 C261 0.950 . S
H266 C267 0.949 . S
C267 H266 0.949 . S
C267 C268 1.395 . S
C267 C269 1.391 . S
C268 C267 1.395 . S
C268 C271 1.390 . S
C269 C267 1.391 . S
C269 C273 1.387 . S
C269 C274 1.491 . S
H270 C271 0.950 . S
C271 C268 1.390 . S
C271 H270 0.950 . S
C271 C272 1.378 . S
C272 C271 1.378 . S
C272 C273 1.409 . S
C273 C269 1.387 . S
C273 C272 1.409 . S
C273 H275 0.951 . S
C274 C269 1.491 . S
C274 C276 1.382 . S
C274 C278 1.404 . S
H275 C273 0.951 . S
C276 C274 1.382 . S
C276 C277 1.390 . S
C276 H281 0.949 . S
C277 C276 1.390 . S
C277 C282 1.399 . S
C278 C274 1.404 . S
C278 H279 0.950 . S
C278 C280 1.375 . S
H279 C278 0.950 . S
C280 C278 1.375 . S
C280 C282 1.382 . S
C280 H284 0.950 . S
H281 C276 0.949 . S
C282 C277 1.399 . S
C282 C280 1.382 . S
C282 H283 0.952 . S
H283 C282 0.952 . S
H284 C280 0.950 . S
H285 C286 0.949 . S
C286 H285 0.949 . S
C286 C287 1.395 . S
C286 C288 1.391 . S
C287 C286 1.395 . S
C287 C290 1.390 . S
C288 C286 1.391 . S
C288 C292 1.387 . S
C288 C293 1.491 . S
H289 C290 0.950 . S
C290 C287 1.390 . S
C290 H289 0.950 . S
C290 C291 1.378 . S
C291 C290 1.378 . S
C291 C292 1.409 . S
C292 C288 1.387 . S
C292 C291 1.409 . S
C292 H294 0.951 . S
C293 C288 1.491 . S
C293 C295 1.382 . S
C293 C297 1.404 . S
H294 C292 0.951 . S
C295 C293 1.382 . S
C295 C296 1.390 . S
C295 H300 0.949 . S
C296 C295 1.390 . S
C296 C301 1.399 . S
C297 C293 1.404 . S
C297 H298 0.950 . S
C297 C299 1.375 . S
H298 C297 0.950 . S
C299 C297 1.375 . S
C299 C301 1.382 . S
C299 H303 0.950 . S
H300 C295 0.949 . S
C301 C296 1.399 . S
C301 C299 1.382 . S
C301 H302 0.952 . S
H302 C301 0.952 . S
H303 C299 0.950 . S
H304 C305 0.949 . S
C305 H304 0.949 . S
C305 C306 1.395 . S
C305 C307 1.391 . S
C306 C305 1.395 . S
C306 C309 1.390 . S
C307 C305 1.391 . S
C307 C311 1.387 . S
C307 C312 1.491 . S
H308 C309 0.950 . S
C309 C306 1.390 . S
C309 H308 0.950 . S
C309 C310 1.378 . S
C310 C309 1.378 . S
C310 C311 1.409 . S
C311 C307 1.387 . S
C311 C310 1.409 . S
C311 H313 0.951 . S
C312 C307 1.491 . S
C312 C314 1.382 . S
C312 C316 1.404 . S
H313 C311 0.951 . S
C314 C312 1.382 . S
C314 C315 1.390 . S
C314 H319 0.949 . S
C315 C314 1.390 . S
C315 C320 1.399 . S
C316 C312 1.404 . S
C316 H317 0.950 . S
C316 C318 1.375 . S
H317 C316 0.950 . S
C318 C316 1.375 . S
C318 C320 1.382 . S
C318 H322 0.950 . S
H319 C314 0.949 . S
C320 C315 1.399 . S
C320 C318 1.382 . S
C320 H321 0.952 . S
H321 C320 0.952 . S
H322 C318 0.950 . S
H323 C324 0.949 . S
C324 H323 0.949 . S
C324 C325 1.395 . S
C324 C326 1.391 . S
C325 C324 1.395 . S
C325 C328 1.390 . S
C326 C324 1.391 . S
C326 C330 1.387 . S
C326 C331 1.491 . S
H327 C328 0.950 . S
C328 C325 1.390 . S
C328 H327 0.950 . S
C328 C329 1.378 . S
C329 C328 1.378 . S
C329 C330 1.409 . S
C330 C326 1.387 . S
C330 C329 1.409 . S
C330 H332 0.951 . S
C331 C326 1.491 . S
C331 C333 1.382 . S
C331 C335 1.404 . S
H332 C330 0.951 . S
C333 C331 1.382 . S
C333 C334 1.390 . S
C333 H338 0.949 . S
C334 C333 1.390 . S
C334 C339 1.399 . S
C335 C331 1.404 . S
C335 H336 0.950 . S
C335 C337 1.375 . S
H336 C335 0.950 . S
C337 C335 1.375 . S
C337 C339 1.382 . S
C337 H341 0.950 . S
H338 C333 0.949 . S
C339 C334 1.399 . S
C339 C337 1.382 . S
C339 H340 0.952 . S
H340 C339 0.952 . S
H341 C337 0.950 . S
C342 Eu343 2.835 1_565 S
C342 C344 1.500 . S
C342 O362 1.257 . S
C342 O363 1.260 1_565 S
Eu343 C342 2.835 1_545 S
Eu343 O362 2.473 1_545 S
Eu343 O363 2.480 . S
Eu343 O364 2.430 . S
Eu343 O365 2.670 1_554 S
Eu343 O366 2.394 1_545 S
Eu343 O371 2.355 1_545 S
Eu343 O373 2.374 . S
C344 C342 1.500 . S
C344 C345 1.377 . S
C344 C349 1.377 . S
C345 C344 1.377 . S
C345 C346 1.395 . S
C345 H374 0.931 1_565 S
C346 C345 1.395 . S
C346 C347 1.383 . S
C346 H375 0.934 . S
C347 C346 1.383 . S
C347 C348 1.394 . S
C348 C347 1.394 . S
C348 C349 1.378 . S
C348 H376 0.931 . S
C349 C344 1.377 . S
C349 C348 1.378 . S
C349 H377 0.931 . S
C350 O364 1.259 . S
C350 O365 1.270 1_554 S
C351 O366 1.251 . S
C351 O367 1.251 1_554 S
C352 Eu353 2.835 1_545 S
C352 C354 1.500 . S
C352 O368 1.257 . S
C352 O369 1.260 1_545 S
Eu353 C352 2.835 1_565 S
Eu353 O365 2.355 1_565 S
Eu353 O367 2.374 . S
Eu353 O368 2.473 1_565 S
Eu353 O369 2.480 . S
Eu353 O370 2.430 . S
Eu353 O371 2.670 1_556 S
Eu353 O372 2.394 1_565 S
C354 C352 1.500 . S
C354 C355 1.377 . S
C354 C359 1.377 . S
C355 C354 1.377 . S
C355 C356 1.395 . S
C355 H378 0.931 1_545 S
C356 C355 1.395 . S
C356 C357 1.383 . S
C356 H379 0.931 . S
C357 C356 1.383 . S
C357 C358 1.394 . S
C358 C357 1.394 . S
C358 C359 1.378 . S
C358 H380 0.931 . S
C359 C354 1.377 . S
C359 C358 1.378 . S
C359 H381 0.931 . S
C360 O370 1.308 . S
C360 O371 1.247 1_556 S
C361 O372 1.251 . S
C361 O373 1.251 1_556 S
O362 C342 1.257 . S
O362 Eu343 2.473 1_565 S
O363 C342 1.260 1_545 S
O363 Eu343 2.480 . S
O364 Eu343 2.430 . S
O364 C350 1.259 . S
O365 Eu343 2.670 1_556 S
O365 C350 1.270 1_556 S
O365 Eu353 2.355 1_545 S
O366 Eu343 2.394 1_565 S
O366 C351 1.251 . S
O367 C351 1.251 1_556 S
O367 Eu353 2.374 . S
O368 C352 1.257 . S
O368 Eu353 2.473 1_545 S
O369 C352 1.260 1_565 S
O369 Eu353 2.480 . S
O370 Eu353 2.430 . S
O370 C360 1.308 . S
O371 Eu343 2.355 1_565 S
O371 Eu353 2.670 1_554 S
O371 C360 1.247 1_554 S
O372 Eu353 2.394 1_545 S
O372 C361 1.251 . S
O373 Eu343 2.374 . S
O373 C361 1.251 1_554 S
H374 C345 0.931 1_545 S
H375 C346 0.934 . S
H376 C348 0.931 . S
H377 C349 0.931 . S
H378 C355 0.931 1_565 S
H379 C356 0.931 . S
H380 C358 0.931 . S
H381 C359 0.931 . S
C382 Eu383 2.835 1_455 S
C382 C384 1.500 . S
C382 O402 1.257 . S
C382 O403 1.260 1_455 S
Eu383 C382 2.835 1_655 S
Eu383 O402 2.473 1_655 S
Eu383 O403 2.480 . S
Eu383 O404 2.430 . S
Eu383 O405 2.670 1_554 S
Eu383 O406 2.394 1_655 S
Eu383 O411 2.355 1_655 S
Eu383 O413 2.374 . S
C384 C382 1.500 . S
C384 C385 1.377 . S
C384 C389 1.377 . S
C385 C384 1.377 . S
C385 C386 1.395 . S
C385 H414 0.931 1_455 S
C386 C385 1.395 . S
C386 C387 1.383 . S
C386 H415 0.931 . S
C387 C386 1.383 . S
C387 C388 1.394 . S
C388 C387 1.394 . S
C388 C389 1.378 . S
C388 H416 0.931 . S
C389 C384 1.377 . S
C389 C388 1.378 . S
C389 H417 0.931 . S
C390 O404 1.310 . S
C390 O405 1.245 1_554 S
C391 O406 1.251 . S
C391 O407 1.251 1_554 S
C392 Eu393 2.835 1_655 S
C392 C394 1.500 . S
C392 O408 1.257 . S
C392 O409 1.260 1_655 S
Eu393 C392 2.835 1_455 S
Eu393 O405 2.355 1_455 S
Eu393 O407 2.374 . S
Eu393 O408 2.473 1_455 S
Eu393 O409 2.480 . S
Eu393 O410 2.430 . S
Eu393 O411 2.670 1_556 S
Eu393 O412 2.394 1_455 S
C394 C392 1.500 . S
C394 C395 1.377 . S
C394 C399 1.377 . S
C395 C394 1.377 . S
C395 C396 1.395 . S
C395 H418 0.931 1_655 S
C396 C395 1.395 . S
C396 C397 1.383 . S
C396 H419 0.931 . S
C397 C396 1.383 . S
C397 C398 1.394 . S
C398 C397 1.394 . S
C398 C399 1.378 . S
C398 H420 0.931 . S
C399 C394 1.377 . S
C399 C398 1.378 . S
C399 H421 0.931 . S
C400 O410 1.259 1_554 S
C400 O411 1.270 . S
C401 O412 1.251 . S
C401 O413 1.251 1_556 S
O402 C382 1.257 . S
O402 Eu383 2.473 1_455 S
O403 C382 1.260 1_655 S
O403 Eu383 2.480 . S
O404 Eu383 2.430 . S
O404 C390 1.310 . S
O405 Eu383 2.670 1_556 S
O405 C390 1.245 1_556 S
O405 Eu393 2.355 1_655 S
O406 Eu383 2.394 1_455 S
O406 C391 1.251 . S
O407 C391 1.251 1_556 S
O407 Eu393 2.374 . S
O408 C392 1.257 . S
O408 Eu393 2.473 1_655 S
O409 C392 1.260 1_455 S
O409 Eu393 2.480 . S
O410 Eu393 2.430 . S
O410 C400 1.259 1_556 S
O411 Eu383 2.355 1_455 S
O411 Eu393 2.670 1_554 S
O411 C400 1.270 . S
O412 Eu393 2.394 1_655 S
O412 C401 1.251 . S
O413 Eu383 2.374 . S
O413 C401 1.251 1_554 S
H414 C385 0.931 1_655 S
H415 C386 0.931 . S
H416 C388 0.931 . S
H417 C389 0.931 . S
H418 C395 0.931 1_455 S
H419 C396 0.931 . S
H420 C398 0.931 . S
H421 C399 0.931 . S
C422 Eu423 2.835 . S
C422 C424 1.500 . S
C422 O442 1.257 . S
C422 O443 1.260 . S
Eu423 C422 2.835 . S
Eu423 O442 2.473 . S
Eu423 O443 2.480 . S
Eu423 O444 2.430 . S
Eu423 O445 2.670 1_556 S
Eu423 O446 2.394 . S
Eu423 O451 2.355 1_556 S
Eu423 O453 2.374 1_556 S
C424 C422 1.500 . S
C424 C425 1.377 . S
C424 C429 1.377 . S
C425 C424 1.377 . S
C425 C426 1.395 . S
C425 H454 0.931 . S
C426 C425 1.395 . S
C426 C427 1.383 . S
C426 H455 0.931 . S
C427 C426 1.383 . S
C427 C428 1.394 . S
C428 C427 1.394 . S
C428 C429 1.378 . S
C428 H456 0.931 . S
C429 C424 1.377 . S
C429 C428 1.378 . S
C429 H457 0.931 . S
C430 O444 1.259 1_554 S
C430 O445 1.270 . S
C431 O446 1.251 . S
C431 O447 1.251 1_556 S
C432 Eu433 2.835 . S
C432 C434 1.500 . S
C432 O448 1.257 . S
C432 O449 1.260 . S
Eu433 C432 2.835 . S
Eu433 O445 2.355 . S
Eu433 O447 2.374 . S
Eu433 O448 2.473 . S
Eu433 O449 2.480 . S
Eu433 O450 2.430 . S
Eu433 O451 2.670 . S
Eu433 O452 2.394 . S
C434 C432 1.500 . S
C434 C435 1.377 . S
C434 C439 1.377 . S
C435 C434 1.377 . S
C435 C436 1.395 . S
C435 H458 0.931 . S
C436 C435 1.395 . S
C436 C437 1.383 . S
C436 H459 0.931 . S
C437 C436 1.383 . S
C437 C438 1.394 . S
C438 C437 1.394 . S
C438 C439 1.378 . S
C438 H460 0.931 . S
C439 C434 1.377 . S
C439 C438 1.378 . S
C439 H461 0.931 . S
C440 O450 1.259 . S
C440 O451 1.270 . S
C441 O452 1.251 . S
C441 O453 1.251 . S
O442 C422 1.257 . S
O442 Eu423 2.473 . S
O443 C422 1.260 . S
O443 Eu423 2.480 . S
O444 Eu423 2.430 . S
O444 C430 1.259 1_556 S
O445 Eu423 2.670 1_554 S
O445 C430 1.270 . S
O445 Eu433 2.355 . S
O446 Eu423 2.394 . S
O446 C431 1.251 . S
O447 C431 1.251 1_554 S
O447 Eu433 2.374 . S
O448 C432 1.257 . S
O448 Eu433 2.473 . S
O449 C432 1.260 . S
O449 Eu433 2.480 . S
O450 Eu433 2.430 . S
O450 C440 1.259 . S
O451 Eu423 2.355 1_554 S
O451 Eu433 2.670 . S
O451 C440 1.270 . S
O452 Eu433 2.394 . S
O452 C441 1.251 . S
O453 Eu423 2.374 1_554 S
O453 C441 1.251 . S
H454 C425 0.931 . S
H455 C426 0.931 . S
H456 C428 0.931 . S
H457 C429 0.931 . S
H458 C435 0.931 . S
H459 C436 0.931 . S
H460 C438 0.931 . S
H461 C439 0.931 . S
C462 Eu463 2.835 . S
C462 C464 1.500 . S
C462 O482 1.257 . S
C462 O483 1.260 . S
Eu463 C462 2.835 . S
Eu463 O482 2.473 . S
Eu463 O483 2.480 . S
Eu463 O484 2.430 . S
Eu463 O485 2.670 . S
Eu463 O486 2.394 . S
Eu463 O491 2.355 . S
Eu463 O493 2.374 . S
C464 C462 1.500 . S
C464 C465 1.377 . S
C464 C469 1.377 . S
C465 C464 1.377 . S
C465 C466 1.395 . S
C465 H494 0.931 . S
C466 C465 1.395 . S
C466 C467 1.383 . S
C466 H495 0.931 . S
C467 C466 1.383 . S
C467 C468 1.394 . S
C468 C467 1.394 . S
C468 C469 1.378 . S
C468 H496 0.931 . S
C469 C464 1.377 . S
C469 C468 1.378 . S
C469 H497 0.931 . S
C470 O484 1.259 . S
C470 O485 1.270 . S
C471 O486 1.251 . S
C471 O487 1.251 . S
C472 Eu473 2.835 . S
C472 C474 1.500 . S
C472 O488 1.257 . S
C472 O489 1.260 . S
Eu473 C472 2.835 . S
Eu473 O485 2.355 . S
Eu473 O487 2.374 . S
Eu473 O488 2.473 . S
Eu473 O489 2.480 . S
Eu473 O490 2.430 . S
Eu473 O491 2.670 . S
Eu473 O492 2.394 . S
C474 C472 1.500 . S
C474 C475 1.377 . S
C474 C479 1.377 . S
C475 C474 1.377 . S
C475 C476 1.395 . S
C475 H498 0.931 . S
C476 C475 1.395 . S
C476 C477 1.383 . S
C476 H499 0.931 . S
C477 C476 1.383 . S
C477 C478 1.394 . S
C478 C477 1.394 . S
C478 C479 1.378 . S
C478 H500 0.931 . S
C479 C474 1.377 . S
C479 C478 1.378 . S
C479 H501 0.931 . S
C480 O490 1.259 . S
C480 O491 1.270 . S
C481 O492 1.251 . S
C481 O493 1.251 . S
O482 C462 1.257 . S
O482 Eu463 2.473 . S
O483 C462 1.260 . S
O483 Eu463 2.480 . S
O484 Eu463 2.430 . S
O484 C470 1.259 . S
O485 Eu463 2.670 . S
O485 C470 1.270 . S
O485 Eu473 2.355 . S
O486 Eu463 2.394 . S
O486 C471 1.251 . S
O487 C471 1.251 . S
O487 Eu473 2.374 . S
O488 C472 1.257 . S
O488 Eu473 2.473 . S
O489 C472 1.260 . S
O489 Eu473 2.480 . S
O490 Eu473 2.430 . S
O490 C480 1.259 . S
O491 Eu463 2.355 . S
O491 Eu473 2.670 . S
O491 C480 1.270 . S
O492 Eu473 2.394 . S
O492 C481 1.251 . S
O493 Eu463 2.374 . S
O493 C481 1.251 . S
H494 C465 0.931 . S
H495 C466 0.931 . S
H496 C468 0.931 . S
H497 C469 0.931 . S
H498 C475 0.931 . S
H499 C476 0.931 . S
H500 C478 0.931 . S
H501 C479 0.931 . S
C502 Eu503 2.835 . S
C502 C504 1.500 . S
C502 O522 1.257 . S
C502 O523 1.260 . S
Eu503 C502 2.835 . S
Eu503 O522 2.473 . S
Eu503 O523 2.480 . S
Eu503 O524 2.430 . S
Eu503 O525 2.670 . S
Eu503 O526 2.394 . S
Eu503 O531 2.355 . S
Eu503 O533 2.374 . S
C504 C502 1.500 . S
C504 C505 1.377 . S
C504 C509 1.377 . S
C505 C504 1.377 . S
C505 C506 1.395 . S
C505 H534 0.931 . S
C506 C505 1.395 . S
C506 C507 1.383 . S
C506 H535 0.931 . S
C507 C506 1.383 . S
C507 C508 1.394 . S
C508 C507 1.394 . S
C508 C509 1.378 . S
C508 H536 0.931 . S
C509 C504 1.377 . S
C509 C508 1.378 . S
C509 H537 0.931 . S
C510 O524 1.259 . S
C510 O525 1.270 . S
C511 O526 1.251 . S
C511 O527 1.251 . S
C512 Eu513 2.835 . S
C512 C514 1.500 . S
C512 O528 1.257 . S
C512 O529 1.260 . S
Eu513 C512 2.835 . S
Eu513 O525 2.355 . S
Eu513 O527 2.374 . S
Eu513 O528 2.473 . S
Eu513 O529 2.480 . S
Eu513 O530 2.430 . S
Eu513 O531 2.670 . S
Eu513 O532 2.394 . S
C514 C512 1.500 . S
C514 C515 1.377 . S
C514 C519 1.377 . S
C515 C514 1.377 . S
C515 C516 1.395 . S
C515 H538 0.931 . S
C516 C515 1.395 . S
C516 C517 1.383 . S
C516 H539 0.931 . S
C517 C516 1.383 . S
C517 C518 1.394 . S
C518 C517 1.394 . S
C518 C519 1.378 . S
C518 H540 0.931 . S
C519 C514 1.377 . S
C519 C518 1.378 . S
C519 H541 0.931 . S
C520 O530 1.259 . S
C520 O531 1.270 . S
C521 O532 1.251 . S
C521 O533 1.251 . S
O522 C502 1.257 . S
O522 Eu503 2.473 . S
O523 C502 1.260 . S
O523 Eu503 2.480 . S
O524 Eu503 2.430 . S
O524 C510 1.259 . S
O525 Eu503 2.670 . S
O525 C510 1.270 . S
O525 Eu513 2.355 . S
O526 Eu503 2.394 . S
O526 C511 1.251 . S
O527 C511 1.251 . S
O527 Eu513 2.374 . S
O528 C512 1.257 . S
O528 Eu513 2.473 . S
O529 C512 1.260 . S
O529 Eu513 2.480 . S
O530 Eu513 2.430 . S
O530 C520 1.259 . S
O531 Eu503 2.355 . S
O531 Eu513 2.670 . S
O531 C520 1.270 . S
O532 Eu513 2.394 . S
O532 C521 1.251 . S
O533 Eu503 2.374 . S
O533 C521 1.251 . S
H534 C505 0.931 . S
H535 C506 0.931 . S
H536 C508 0.931 . S
H537 C509 0.931 . S
H538 C515 0.931 . S
H539 C516 0.931 . S
H540 C518 0.931 . S
H541 C519 0.931 . S
C542 Eu543 2.835 . S
C542 C544 1.500 . S
C542 O562 1.257 . S
C542 O563 1.260 . S
Eu543 C542 2.835 . S
Eu543 O562 2.473 . S
Eu543 O563 2.480 . S
Eu543 O564 2.430 . S
Eu543 O565 2.670 . S
Eu543 O566 2.394 . S
Eu543 O571 2.355 . S
Eu543 O573 2.374 . S
C544 C542 1.500 . S
C544 C545 1.377 . S
C544 C549 1.377 . S
C545 C544 1.377 . S
C545 C546 1.395 . S
C545 H574 0.931 . S
C546 C545 1.395 . S
C546 C547 1.383 . S
C546 H575 0.931 . S
C547 C546 1.383 . S
C547 C548 1.394 . S
C548 C547 1.394 . S
C548 C549 1.378 . S
C548 H576 0.931 . S
C549 C544 1.377 . S
C549 C548 1.378 . S
C549 H577 0.931 . S
C550 O564 1.259 . S
C550 O565 1.270 . S
C551 O566 1.251 . S
C551 O567 1.251 . S
C552 Eu553 2.835 . S
C552 C554 1.500 . S
C552 O568 1.257 . S
C552 O569 1.260 . S
Eu553 C552 2.835 . S
Eu553 O565 2.355 . S
Eu553 O567 2.374 . S
Eu553 O568 2.473 . S
Eu553 O569 2.480 . S
Eu553 O570 2.430 . S
Eu553 O571 2.670 . S
Eu553 O572 2.394 . S
C554 C552 1.500 . S
C554 C555 1.377 . S
C554 C559 1.377 . S
C555 C554 1.377 . S
C555 C556 1.395 . S
C555 H578 0.931 . S
C556 C555 1.395 . S
C556 C557 1.383 . S
C556 H579 0.931 . S
C557 C556 1.383 . S
C557 C558 1.394 . S
C558 C557 1.394 . S
C558 C559 1.378 . S
C558 H580 0.931 . S
C559 C554 1.377 . S
C559 C558 1.378 . S
C559 H581 0.931 . S
C560 O570 1.259 . S
C560 O571 1.270 . S
C561 O572 1.251 . S
C561 O573 1.251 . S
O562 C542 1.257 . S
O562 Eu543 2.473 . S
O563 C542 1.260 . S
O563 Eu543 2.480 . S
O564 Eu543 2.430 . S
O564 C550 1.259 . S
O565 Eu543 2.670 . S
O565 C550 1.270 . S
O565 Eu553 2.355 . S
O566 Eu543 2.394 . S
O566 C551 1.251 . S
O567 C551 1.251 . S
O567 Eu553 2.374 . S
O568 C552 1.257 . S
O568 Eu553 2.473 . S
O569 C552 1.260 . S
O569 Eu553 2.480 . S
O570 Eu553 2.430 . S
O570 C560 1.259 . S
O571 Eu543 2.355 . S
O571 Eu553 2.670 . S
O571 C560 1.270 . S
O572 Eu553 2.394 . S
O572 C561 1.251 . S
O573 Eu543 2.374 . S
O573 C561 1.251 . S
H574 C545 0.931 . S
H575 C546 0.931 . S
H576 C548 0.931 . S
H577 C549 0.931 . S
H578 C555 0.931 . S
H579 C556 0.931 . S
H580 C558 0.931 . S
H581 C559 0.931 . S
C582 Eu583 2.835 . S
C582 C584 1.500 . S
C582 O602 1.257 . S
C582 O603 1.260 . S
Eu583 C582 2.835 . S
Eu583 O602 2.473 . S
Eu583 O603 2.480 . S
Eu583 O604 2.430 . S
Eu583 O605 2.670 . S
Eu583 O606 2.394 . S
Eu583 O611 2.355 . S
Eu583 O613 2.374 . S
C584 C582 1.500 . S
C584 C585 1.377 . S
C584 C589 1.377 . S
C585 C584 1.377 . S
C585 C586 1.395 . S
C585 H614 0.931 . S
C586 C585 1.395 . S
C586 C587 1.383 . S
C586 H615 0.931 . S
C587 C586 1.383 . S
C587 C588 1.394 . S
C588 C587 1.394 . S
C588 C589 1.378 . S
C588 H616 0.931 . S
C589 C584 1.377 . S
C589 C588 1.378 . S
C589 H617 0.931 . S
C590 O604 1.259 . S
C590 O605 1.270 . S
C591 O606 1.251 . S
C591 O607 1.251 . S
C592 Eu593 2.835 . S
C592 C594 1.500 . S
C592 O608 1.257 . S
C592 O609 1.260 . S
Eu593 C592 2.835 . S
Eu593 O605 2.355 . S
Eu593 O607 2.374 . S
Eu593 O608 2.473 . S
Eu593 O609 2.480 . S
Eu593 O610 2.430 . S
Eu593 O611 2.670 . S
Eu593 O612 2.394 . S
C594 C592 1.500 . S
C594 C595 1.377 . S
C594 C599 1.377 . S
C595 C594 1.377 . S
C595 C596 1.395 . S
C595 H618 0.931 . S
C596 C595 1.395 . S
C596 C597 1.383 . S
C596 H619 0.931 . S
C597 C596 1.383 . S
C597 C598 1.394 . S
C598 C597 1.394 . S
C598 C599 1.378 . S
C598 H620 0.931 . S
C599 C594 1.377 . S
C599 C598 1.378 . S
C599 H621 0.931 . S
C600 O610 1.259 . S
C600 O611 1.270 . S
C601 O612 1.251 . S
C601 O613 1.251 . S
O602 C582 1.257 . S
O602 Eu583 2.473 . S
O603 C582 1.260 . S
O603 Eu583 2.480 . S
O604 Eu583 2.430 . S
O604 C590 1.259 . S
O605 Eu583 2.670 . S
O605 C590 1.270 . S
O605 Eu593 2.355 . S
O606 Eu583 2.394 . S
O606 C591 1.251 . S
O607 C591 1.251 . S
O607 Eu593 2.374 . S
O608 C592 1.257 . S
O608 Eu593 2.473 . S
O609 C592 1.260 . S
O609 Eu593 2.480 . S
O610 Eu593 2.430 . S
O610 C600 1.259 . S
O611 Eu583 2.355 . S
O611 Eu593 2.670 . S
O611 C600 1.270 . S
O612 Eu593 2.394 . S
O612 C601 1.251 . S
O613 Eu583 2.374 . S
O613 C601 1.251 . S
H614 C585 0.931 . S
H615 C586 0.931 . S
H616 C588 0.931 . S
H617 C589 0.931 . S
H618 C595 0.931 . S
H619 C596 0.931 . S
H620 C598 0.931 . S
H621 C599 0.931 . S
C622 Eu623 2.835 . S
C622 C624 1.500 . S
C622 O642 1.257 . S
C622 O643 1.260 . S
Eu623 C622 2.835 . S
Eu623 O642 2.473 . S
Eu623 O643 2.480 . S
Eu623 O644 2.430 . S
Eu623 O645 2.670 . S
Eu623 O646 2.394 . S
Eu623 O651 2.355 . S
Eu623 O653 2.374 . S
C624 C622 1.500 . S
C624 C625 1.377 . S
C624 C629 1.377 . S
C625 C624 1.377 . S
C625 C626 1.395 . S
C625 H654 0.931 . S
C626 C625 1.395 . S
C626 C627 1.383 . S
C626 H655 0.931 . S
C627 C626 1.383 . S
C627 C628 1.394 . S
C628 C627 1.394 . S
C628 C629 1.378 . S
C628 H656 0.931 . S
C629 C624 1.377 . S
C629 C628 1.378 . S
C629 H657 0.931 . S
C630 O644 1.259 . S
C630 O645 1.270 . S
C631 O646 1.251 . S
C631 O647 1.251 . S
C632 Eu633 2.835 . S
C632 C634 1.500 . S
C632 O648 1.257 . S
C632 O649 1.260 . S
Eu633 C632 2.835 . S
Eu633 O645 2.355 . S
Eu633 O647 2.374 . S
Eu633 O648 2.473 . S
Eu633 O649 2.480 . S
Eu633 O650 2.430 . S
Eu633 O651 2.670 . S
Eu633 O652 2.394 . S
C634 C632 1.500 . S
C634 C635 1.377 . S
C634 C639 1.377 . S
C635 C634 1.377 . S
C635 C636 1.395 . S
C635 H658 0.931 . S
C636 C635 1.395 . S
C636 C637 1.383 . S
C636 H659 0.931 . S
C637 C636 1.383 . S
C637 C638 1.394 . S
C638 C637 1.394 . S
C638 C639 1.378 . S
C638 H660 0.931 . S
C639 C634 1.377 . S
C639 C638 1.378 . S
C639 H661 0.931 . S
C640 O650 1.259 . S
C640 O651 1.270 . S
C641 O652 1.251 . S
C641 O653 1.251 . S
O642 C622 1.257 . S
O642 Eu623 2.473 . S
O643 C622 1.260 . S
O643 Eu623 2.480 . S
O644 Eu623 2.430 . S
O644 C630 1.259 . S
O645 Eu623 2.670 . S
O645 C630 1.270 . S
O645 Eu633 2.355 . S
O646 Eu623 2.394 . S
O646 C631 1.251 . S
O647 C631 1.251 . S
O647 Eu633 2.374 . S
O648 C632 1.257 . S
O648 Eu633 2.473 . S
O649 C632 1.260 . S
O649 Eu633 2.480 . S
O650 Eu633 2.430 . S
O650 C640 1.259 . S
O651 Eu623 2.355 . S
O651 Eu633 2.670 . S
O651 C640 1.270 . S
O652 Eu633 2.394 . S
O652 C641 1.251 . S
O653 Eu623 2.374 . S
O653 C641 1.251 . S
H654 C625 0.931 . S
H655 C626 0.931 . S
H656 C628 0.931 . S
H657 C629 0.931 . S
H658 C635 0.931 . S
H659 C636 0.931 . S
H660 C638 0.931 . S
H661 C639 0.931 . S
C662 Eu663 2.835 . S
C662 C664 1.500 . S
C662 O682 1.257 . S
C662 O683 1.260 . S
Eu663 C662 2.835 . S
Eu663 O682 2.473 . S
Eu663 O683 2.480 . S
Eu663 O684 2.430 . S
Eu663 O685 2.670 . S
Eu663 O686 2.394 . S
Eu663 O691 2.355 . S
Eu663 O693 2.374 . S
C664 C662 1.500 . S
C664 C665 1.377 . S
C664 C669 1.377 . S
C665 C664 1.377 . S
C665 C666 1.395 . S
C665 H694 0.931 . S
C666 C665 1.395 . S
C666 C667 1.383 . S
C666 H695 0.931 . S
C667 C666 1.383 . S
C667 C668 1.394 . S
C668 C667 1.394 . S
C668 C669 1.378 . S
C668 H696 0.931 . S
C669 C664 1.377 . S
C669 C668 1.378 . S
C669 H697 0.931 . S
C670 O684 1.259 . S
C670 O685 1.270 . S
C671 O686 1.251 . S
C671 O687 1.251 . S
C672 Eu673 2.835 . S
C672 C674 1.500 . S
C672 O688 1.257 . S
C672 O689 1.260 . S
Eu673 C672 2.835 . S
Eu673 O685 2.355 . S
Eu673 O687 2.374 . S
Eu673 O688 2.473 . S
Eu673 O689 2.480 . S
Eu673 O690 2.430 . S
Eu673 O691 2.670 . S
Eu673 O692 2.394 . S
C674 C672 1.500 . S
C674 C675 1.377 . S
C674 C679 1.377 . S
C675 C674 1.377 . S
C675 C676 1.395 . S
C675 H698 0.931 . S
C676 C675 1.395 . S
C676 C677 1.383 . S
C676 H699 0.931 . S
C677 C676 1.383 . S
C677 C678 1.394 . S
C678 C677 1.394 . S
C678 C679 1.378 . S
C678 H700 0.931 . S
C679 C674 1.377 . S
C679 C678 1.378 . S
C679 H701 0.931 . S
C680 O690 1.259 . S
C680 O691 1.270 . S
C681 O692 1.251 . S
C681 O693 1.251 . S
O682 C662 1.257 . S
O682 Eu663 2.473 . S
O683 C662 1.260 . S
O683 Eu663 2.480 . S
O684 Eu663 2.430 . S
O684 C670 1.259 . S
O685 Eu663 2.670 . S
O685 C670 1.270 . S
O685 Eu673 2.355 . S
O686 Eu663 2.394 . S
O686 C671 1.251 . S
O687 C671 1.251 . S
O687 Eu673 2.374 . S
O688 C672 1.257 . S
O688 Eu673 2.473 . S
O689 C672 1.260 . S
O689 Eu673 2.480 . S
O690 Eu673 2.430 . S
O690 C680 1.259 . S
O691 Eu663 2.355 . S
O691 Eu673 2.670 . S
O691 C680 1.270 . S
O692 Eu673 2.394 . S
O692 C681 1.251 . S
O693 Eu663 2.374 . S
O693 C681 1.251 . S
H694 C665 0.931 . S
H695 C666 0.931 . S
H696 C668 0.931 . S
H697 C669 0.931 . S
H698 C675 0.931 . S
H699 C676 0.931 . S
H700 C678 0.931 . S
H701 C679 0.931 . S
H702 C708 0.930 . S
H703 C712 0.930 . S
H704 C717 0.929 . S
H705 C715 0.940 . S
H706 C710 0.929 . S
H707 C716 0.929 . S
C708 H702 0.930 . S
C708 C709 1.367 . S
C708 C716 1.378 . S
C709 C708 1.367 . S
C709 C717 1.433 . S
C710 H706 0.929 . S
C710 C712 1.378 . S
C710 C714 1.350 . S
C711 C714 1.463 . S
C711 C716 1.350 . S
C711 N719 1.427 . S
C712 H703 0.930 . S
C712 C710 1.378 . S
C712 C713 1.367 . S
C713 C712 1.367 . S
C713 C715 1.433 . S
C714 C710 1.350 . S
C714 C711 1.463 . S
C714 N718 1.427 . S
C715 H705 0.940 . S
C715 C713 1.433 . S
C715 N718 1.384 . S
C716 H707 0.929 . S
C716 C708 1.378 . S
C716 C711 1.350 . S
C717 H704 0.929 . S
C717 C709 1.433 . S
C717 N719 1.384 . S
N718 C714 1.427 . S
N718 C715 1.384 . S
N719 C711 1.427 . S
N719 C717 1.384 . S
H720 C726 0.930 . S
H721 C730 0.930 . S
H722 C735 0.929 . S
H723 C733 0.929 1_556 S
H724 C728 0.929 . S
H725 C734 0.929 . S
C726 H720 0.930 . S
C726 C727 1.367 . S
C726 C734 1.378 . S
C727 C726 1.367 . S
C727 C735 1.433 . S
C728 H724 0.929 . S
C728 C730 1.378 . S
C728 C732 1.350 . S
C729 C732 1.463 . S
C729 C734 1.350 . S
C729 N737 1.427 . S
C730 H721 0.930 . S
C730 C728 1.378 . S
C730 C731 1.367 . S
C731 C730 1.367 . S
C731 C733 1.433 . S
C732 C728 1.350 . S
C732 C729 1.463 . S
C732 N736 1.427 . S
C733 H723 0.929 1_554 S
C733 C731 1.433 . S
C733 N736 1.384 . S
C734 H725 0.929 . S
C734 C726 1.378 . S
C734 C729 1.350 . S
C735 H722 0.929 . S
C735 C727 1.433 . S
C735 N737 1.384 . S
N736 C732 1.427 . S
N736 C733 1.384 . S
N737 C729 1.427 . S
N737 C735 1.384 . S
H738 C744 0.930 . S
H739 C748 0.923 1_556 S
H740 C753 0.929 1_556 S
H741 C751 0.929 . S
H742 C746 0.929 1_556 S
H743 C752 0.929 . S
C744 H738 0.930 . S
C744 C745 1.367 . S
C744 C752 1.378 . S
C745 C744 1.367 . S
C745 C753 1.433 . S
C746 H742 0.929 1_554 S
C746 C748 1.378 . S
C746 C750 1.350 . S
C747 C750 1.463 . S
C747 C752 1.350 . S
C747 N755 1.427 . S
C748 H739 0.923 1_554 S
C748 C746 1.378 . S
C748 C749 1.374 . S
C749 C748 1.374 . S
C749 C751 1.433 . S
C750 C746 1.350 . S
C750 C747 1.463 . S
C750 N754 1.427 . S
C751 H741 0.929 . S
C751 C749 1.433 . S
C751 N754 1.384 . S
C752 H743 0.929 . S
C752 C744 1.378 . S
C752 C747 1.350 . S
C753 H740 0.929 1_554 S
C753 C745 1.433 . S
C753 N755 1.384 . S
N754 C750 1.427 . S
N754 C751 1.384 . S
N755 C747 1.427 . S
N755 C753 1.384 . S
H756 C762 0.930 1_554 S
H757 C766 0.930 . S
H758 C771 0.929 . S
H759 C769 0.929 . S
H760 C764 0.929 . S
H761 C770 0.929 1_554 S
C762 H756 0.930 1_556 S
C762 C763 1.367 . S
C762 C770 1.378 . S
C763 C762 1.367 . S
C763 C771 1.433 . S
C764 H760 0.929 . S
C764 C766 1.378 . S
C764 C768 1.350 . S
C765 C768 1.463 . S
C765 C770 1.350 . S
C765 N773 1.427 . S
C766 H757 0.930 . S
C766 C764 1.378 . S
C766 C767 1.367 . S
C767 C766 1.367 . S
C767 C769 1.433 1_556 S
C768 C764 1.350 . S
C768 C765 1.463 . S
C768 N772 1.427 1_556 S
C769 H759 0.929 . S
C769 C767 1.433 1_554 S
C769 N772 1.384 . S
C770 H761 0.929 1_556 S
C770 C762 1.378 . S
C770 C765 1.350 . S
C771 H758 0.929 . S
C771 C763 1.433 . S
C771 N773 1.384 . S
N772 C768 1.427 1_554 S
N772 C769 1.384 . S
N773 C765 1.427 . S
N773 C771 1.384 . S
H774 C780 0.930 . S
H775 C784 0.930 . S
H776 C789 0.929 . S
H777 C787 0.929 . S
H778 C782 0.929 . S
H779 C788 0.929 . S
C780 H774 0.930 . S
C780 C781 1.367 . S
C780 C788 1.378 . S
C781 C780 1.367 . S
C781 C789 1.433 . S
C782 H778 0.929 . S
C782 C784 1.378 . S
C782 C786 1.350 . S
C783 C786 1.463 . S
C783 C788 1.350 . S
C783 N791 1.427 . S
C784 H775 0.930 . S
C784 C782 1.378 . S
C784 C785 1.367 . S
C785 C784 1.367 . S
C785 C787 1.433 . S
C786 C782 1.350 . S
C786 C783 1.463 . S
C786 N790 1.427 . S
C787 H777 0.929 . S
C787 C785 1.433 . S
C787 N790 1.384 . S
C788 H779 0.929 . S
C788 C780 1.378 . S
C788 C783 1.350 . S
C789 H776 0.929 . S
C789 C781 1.433 . S
C789 N791 1.384 . S
N790 C786 1.427 . S
N790 C787 1.384 . S
N791 C783 1.427 . S
N791 C789 1.384 . S
H792 C798 0.930 1_554 S
H793 C802 0.930 . S
H794 C807 0.929 . S
H795 C805 0.929 . S
H796 C800 0.929 . S
H797 C806 0.894 1_554 S
C798 H792 0.930 1_556 S
C798 C799 1.367 . S
C798 C806 1.389 . S
C799 C798 1.367 . S
C799 C807 1.433 . S
C800 H796 0.929 . S
C800 C802 1.378 . S
C800 C804 1.350 . S
C801 C804 1.463 . S
C801 C806 1.377 . S
C801 N809 1.427 . S
C802 H793 0.930 . S
C802 C800 1.378 . S
C802 C803 1.367 . S
C803 C802 1.367 . S
C803 C805 1.433 1_556 S
C804 C800 1.350 . S
C804 C801 1.463 . S
C804 N808 1.427 1_556 S
C805 H795 0.929 . S
C805 C803 1.433 1_554 S
C805 N808 1.384 . S
C806 H797 0.894 1_556 S
C806 C798 1.389 . S
C806 C801 1.377 . S
C807 H794 0.929 . S
C807 C799 1.433 . S
C807 N809 1.384 . S
N808 C804 1.427 1_554 S
N808 C805 1.384 . S
N809 C801 1.427 . S
N809 C807 1.384 . S
H810 C816 0.930 . S
H811 C820 0.930 . S
H812 C825 0.929 . S
H813 C823 0.935 . S
H814 C818 0.929 . S
H815 C824 0.929 1_554 S
C816 H810 0.930 . S
C816 C817 1.367 . S
C816 C824 1.378 . S
C817 C816 1.367 . S
C817 C825 1.433 . S
C818 H814 0.929 . S
C818 C820 1.378 . S
C818 C822 1.350 . S
C819 C822 1.463 . S
C819 C824 1.350 . S
C819 N827 1.427 . S
C820 H811 0.930 . S
C820 C818 1.378 . S
C820 C821 1.367 . S
C821 C820 1.367 . S
C821 C823 1.429 1_556 S
C822 C818 1.350 . S
C822 C819 1.463 . S
C822 N826 1.427 . S
C823 H813 0.935 . S
C823 C821 1.429 1_554 S
C823 N826 1.382 1_554 S
C824 H815 0.929 1_556 S
C824 C816 1.378 . S
C824 C819 1.350 . S
C825 H812 0.929 . S
C825 C817 1.433 . S
C825 N827 1.384 . S
N826 C822 1.427 . S
N826 C823 1.382 1_556 S
N827 C819 1.427 . S
N827 C825 1.384 . S
H828 C834 0.930 . S
H829 C838 0.930 . S
H830 C843 0.929 . S
H831 C841 0.929 . S
H832 C836 0.929 . S
H833 C842 0.929 . S
C834 H828 0.930 . S
C834 C835 1.367 . S
C834 C842 1.378 . S
C835 C834 1.367 . S
C835 C843 1.433 . S
C836 H832 0.929 . S
C836 C838 1.378 . S
C836 C840 1.350 . S
C837 C840 1.463 . S
C837 C842 1.350 . S
C837 N845 1.427 . S
C838 H829 0.930 . S
C838 C836 1.378 . S
C838 C839 1.367 . S
C839 C838 1.367 . S
C839 C841 1.433 . S
C840 C836 1.350 . S
C840 C837 1.463 . S
C840 N844 1.427 . S
C841 H831 0.929 . S
C841 C839 1.433 . S
C841 N844 1.384 . S
C842 H833 0.929 . S
C842 C834 1.378 . S
C842 C837 1.350 . S
C843 H830 0.929 . S
C843 C835 1.433 . S
C843 N845 1.384 . S
N844 C840 1.427 . S
N844 C841 1.384 . S
N845 C837 1.427 . S
N845 C843 1.384 . S
H846 C852 0.930 . S
H847 C856 0.912 1_556 S
H848 C861 0.929 . S
H849 C859 0.929 . S
H850 C854 0.925 1_556 S
H851 C860 0.929 . S
C852 H846 0.930 . S
C852 C853 1.367 . S
C852 C860 1.378 . S
C853 C852 1.367 . S
C853 C861 1.433 1_554 S
C854 H850 0.925 1_554 S
C854 C856 1.381 . S
C854 C858 1.356 . S
C855 C858 1.463 . S
C855 C860 1.350 . S
C855 N863 1.422 1_554 S
C856 H847 0.912 1_554 S
C856 C854 1.381 . S
C856 C857 1.377 . S
C857 C856 1.377 . S
C857 C859 1.433 . S
C858 C854 1.356 . S
C858 C855 1.463 . S
C858 N862 1.427 . S
C859 H849 0.929 . S
C859 C857 1.433 . S
C859 N862 1.384 . S
C860 H851 0.929 . S
C860 C852 1.378 . S
C860 C855 1.350 . S
C861 H848 0.929 . S
C861 C853 1.433 1_556 S
C861 N863 1.381 . S
N862 C858 1.427 . S
N862 C859 1.384 . S
N863 C855 1.422 1_556 S
N863 C861 1.381 . S
H864 C870 0.930 1_556 S
H865 C874 0.930 . S
H866 C879 0.929 . S
H867 C877 0.929 . S
H868 C872 0.929 . S
H869 C878 0.900 1_556 S
C870 H864 0.930 1_554 S
C870 C871 1.367 . S
C870 C878 1.377 . S
C871 C870 1.367 . S
C871 C879 1.433 . S
C872 H868 0.929 . S
C872 C874 1.378 . S
C872 C876 1.350 . S
C873 C876 1.463 . S
C873 C878 1.380 . S
C873 N881 1.427 . S
C874 H865 0.930 . S
C874 C872 1.378 . S
C874 C875 1.367 . S
C875 C874 1.367 . S
C875 C877 1.433 1_554 S
C876 C872 1.350 . S
C876 C873 1.463 . S
C876 N880 1.427 1_554 S
C877 H867 0.929 . S
C877 C875 1.433 1_556 S
C877 N880 1.384 . S
C878 H869 0.900 1_554 S
C878 C870 1.377 . S
C878 C873 1.380 . S
C879 H866 0.929 . S
C879 C871 1.433 . S
C879 N881 1.384 . S
N880 C876 1.427 1_556 S
N880 C877 1.384 . S
N881 C873 1.427 . S
N881 C879 1.384 . S
H882 C888 0.930 . S
H883 C892 0.930 . S
H884 C897 0.929 . S
H885 C895 0.929 . S
H886 C890 0.929 . S
H887 C896 0.929 . S
C888 H882 0.930 . S
C888 C889 1.367 . S
C888 C896 1.378 . S
C889 C888 1.367 . S
C889 C897 1.433 . S
C890 H886 0.929 . S
C890 C892 1.378 . S
C890 C894 1.350 . S
C891 C894 1.463 . S
C891 C896 1.350 . S
C891 N899 1.427 . S
C892 H883 0.930 . S
C892 C890 1.378 . S
C892 C893 1.367 . S
C893 C892 1.367 . S
C893 C895 1.433 . S
C894 C890 1.350 . S
C894 C891 1.463 . S
C894 N898 1.427 . S
C895 H885 0.929 . S
C895 C893 1.433 . S
C895 N898 1.384 . S
C896 H887 0.929 . S
C896 C888 1.378 . S
C896 C891 1.350 . S
C897 H884 0.929 . S
C897 C889 1.433 . S
C897 N899 1.384 . S
N898 C894 1.427 . S
N898 C895 1.384 . S
N899 C891 1.427 . S
N899 C897 1.384 . S
H900 C906 0.930 . S
H901 C910 0.930 . S
H902 C915 0.929 . S
H903 C913 0.929 . S
H904 C908 0.929 . S
H905 C914 0.929 . S
C906 H900 0.930 . S
C906 C907 1.367 . S
C906 C914 1.378 . S
C907 C906 1.367 . S
C907 C915 1.433 1_554 S
C908 H904 0.929 . S
C908 C910 1.378 . S
C908 C912 1.350 1_556 S
C909 C912 1.463 . S
C909 C914 1.350 . S
C909 N917 1.427 1_554 S
C910 H901 0.930 . S
C910 C908 1.378 . S
C910 C911 1.367 1_556 S
C911 C910 1.367 1_554 S
C911 C913 1.433 . S
C912 C908 1.350 1_554 S
C912 C909 1.463 . S
C912 N916 1.427 . S
C913 H903 0.929 . S
C913 C911 1.433 . S
C913 N916 1.384 . S
C914 H905 0.929 . S
C914 C906 1.378 . S
C914 C909 1.350 . S
C915 H902 0.929 . S
C915 C907 1.433 1_556 S
C915 N917 1.384 . S
N916 C912 1.427 . S
N916 C913 1.384 . S
N917 C909 1.427 1_556 S
N917 C915 1.384 . S
H918 C924 0.930 . S
H919 C928 0.930 . S
H920 C933 0.929 . S
H921 C931 0.929 . S
H922 C926 0.929 1_655 S
H923 C932 0.929 . S
C924 H918 0.930 . S
C924 C925 1.367 . S
C924 C932 1.378 . S
C925 C924 1.367 . S
C925 C933 1.433 . S
C926 H922 0.929 1_455 S
C926 C928 1.378 . S
C926 C930 1.350 . S
C927 C930 1.463 1_655 S
C927 C932 1.350 . S
C927 N935 1.427 . S
C928 H919 0.930 . S
C928 C926 1.378 . S
C928 C929 1.367 . S
C929 C928 1.367 . S
C929 C931 1.433 . S
C930 C926 1.350 . S
C930 C927 1.463 1_455 S
C930 N934 1.427 . S
C931 H921 0.929 . S
C931 C929 1.433 . S
C931 N934 1.384 . S
C932 H923 0.929 . S
C932 C924 1.378 . S
C932 C927 1.350 . S
C933 H920 0.929 . S
C933 C925 1.433 . S
C933 N935 1.384 . S
N934 C930 1.427 . S
N934 C931 1.384 . S
N935 C927 1.427 . S
N935 C933 1.384 . S
H936 C942 0.930 . S
H937 C946 0.930 . S
H938 C951 0.929 . S
H939 C949 0.929 . S
H940 C944 0.929 . S
H941 C950 0.929 . S
C942 H936 0.930 . S
C942 C943 1.367 . S
C942 C950 1.378 . S
C943 C942 1.367 . S
C943 C951 1.433 . S
C944 H940 0.929 . S
C944 C946 1.378 . S
C944 C948 1.350 . S
C945 C948 1.463 . S
C945 C950 1.350 . S
C945 N953 1.427 . S
C946 H937 0.930 . S
C946 C944 1.378 . S
C946 C947 1.367 . S
C947 C946 1.367 . S
C947 C949 1.433 . S
C948 C944 1.350 . S
C948 C945 1.463 . S
C948 N952 1.427 . S
C949 H939 0.929 . S
C949 C947 1.433 . S
C949 N952 1.384 . S
C950 H941 0.929 . S
C950 C942 1.378 . S
C950 C945 1.350 . S
C951 H938 0.929 . S
C951 C943 1.433 . S
C951 N953 1.384 . S
N952 C948 1.427 . S
N952 C949 1.384 . S
N953 C945 1.427 . S
N953 C951 1.384 . S
H954 C960 0.930 . S
H955 C964 0.930 . S
H956 C969 0.929 . S
H957 C967 0.929 . S
H958 C962 0.931 1_545 S
H959 C968 0.929 . S
C960 H954 0.930 . S
C960 C961 1.367 . S
C960 C968 1.378 . S
C961 C960 1.367 . S
C961 C969 1.433 . S
C962 H958 0.931 1_565 S
C962 C964 1.378 . S
C962 C966 1.350 1_565 S
C963 C966 1.463 . S
C963 C968 1.350 . S
C963 N971 1.427 . S
C964 H955 0.930 . S
C964 C962 1.378 . S
C964 C965 1.367 . S
C965 C964 1.367 . S
C965 C967 1.433 . S
C966 C962 1.350 1_545 S
C966 C963 1.463 . S
C966 N970 1.419 1_545 S
C967 H957 0.929 . S
C967 C965 1.433 . S
C967 N970 1.402 . S
C968 H959 0.929 . S
C968 C960 1.378 . S
C968 C963 1.350 . S
C969 H956 0.929 . S
C969 C961 1.433 . S
C969 N971 1.384 . S
N970 C966 1.419 1_565 S
N970 C967 1.402 . S
N971 C963 1.427 . S
N971 C969 1.384 . S
H972 C978 0.930 . S
H973 C982 0.930 . S
H974 C987 0.929 . S
H975 C985 0.929 . S
H976 C980 0.929 . S
H977 C986 0.929 . S
C978 H972 0.930 . S
C978 C979 1.367 . S
C978 C986 1.378 . S
C979 C978 1.367 . S
C979 C987 1.433 . S
C980 H976 0.929 . S
C980 C982 1.378 . S
C980 C984 1.350 . S
C981 C984 1.463 . S
C981 C986 1.350 . S
C981 N989 1.427 . S
C982 H973 0.930 . S
C982 C980 1.378 . S
C982 C983 1.367 . S
C983 C982 1.367 . S
C983 C985 1.433 . S
C984 C980 1.350 . S
C984 C981 1.463 . S
C984 N988 1.427 . S
C985 H975 0.929 . S
C985 C983 1.433 . S
C985 N988 1.384 . S
C986 H977 0.929 . S
C986 C978 1.378 . S
C986 C981 1.350 . S
C987 H974 0.929 . S
C987 C979 1.433 . S
C987 N989 1.384 . S
N988 C984 1.427 . S
N988 C985 1.384 . S
N989 C981 1.427 . S
N989 C987 1.384 . S
H990 C996 0.930 . S
H991 C1000 0.930 . S
H992 C1005 0.929 . S
H993 C1003 0.929 . S
H994 C998 0.929 . S
H995 C1004 0.929 . S
C996 H990 0.930 . S
C996 C997 1.367 . S
C996 C1004 1.378 . S
C997 C996 1.367 . S
C997 C1005 1.433 . S
C998 H994 0.929 . S
C998 C1000 1.378 . S
C998 C1002 1.350 . S
C999 C1002 1.463 . S
C999 C1004 1.350 . S
C999 N1007 1.427 . S
C1000 H991 0.930 . S
C1000 C998 1.378 . S
C1000 C1001 1.367 . S
C1001 C1000 1.367 . S
C1001 C1003 1.433 . S
C1002 C998 1.350 . S
C1002 C999 1.463 . S
C1002 N1006 1.427 . S
C1003 H993 0.929 . S
C1003 C1001 1.433 . S
C1003 N1006 1.384 . S
C1004 H995 0.929 . S
C1004 C996 1.378 . S
C1004 C999 1.350 . S
C1005 H992 0.929 . S
C1005 C997 1.433 . S
C1005 N1007 1.384 . S
N1006 C1002 1.427 . S
N1006 C1003 1.384 . S
N1007 C999 1.427 . S
N1007 C1005 1.384 . S
H1008 C1014 0.930 . S
H1009 C1018 0.930 . S
H1010 C1023 0.929 . S
H1011 C1021 0.929 . S
H1012 C1016 0.929 . S
H1013 C1022 0.929 . S
C1014 H1008 0.930 . S
C1014 C1015 1.367 . S
C1014 C1022 1.378 . S
C1015 C1014 1.367 . S
C1015 C1023 1.433 . S
C1016 H1012 0.929 . S
C1016 C1018 1.378 . S
C1016 C1020 1.350 . S
C1017 C1020 1.463 . S
C1017 C1022 1.350 . S
C1017 N1025 1.427 . S
C1018 H1009 0.930 . S
C1018 C1016 1.378 . S
C1018 C1019 1.367 . S
C1019 C1018 1.367 . S
C1019 C1021 1.433 . S
C1020 C1016 1.350 . S
C1020 C1017 1.463 . S
C1020 N1024 1.427 . S
C1021 H1011 0.929 . S
C1021 C1019 1.433 . S
C1021 N1024 1.384 . S
C1022 H1013 0.929 . S
C1022 C1014 1.378 . S
C1022 C1017 1.350 . S
C1023 H1010 0.929 . S
C1023 C1015 1.433 . S
C1023 N1025 1.384 . S
N1024 C1020 1.427 . S
N1024 C1021 1.384 . S
N1025 C1017 1.427 . S
N1025 C1023 1.384 . S
H1026 C1032 0.930 . S
H1027 C1036 0.930 . S
H1028 C1041 0.929 . S
H1029 C1039 0.929 . S
H1030 C1034 0.929 . S
H1031 C1040 0.929 . S
C1032 H1026 0.930 . S
C1032 C1033 1.367 . S
C1032 C1040 1.378 . S
C1033 C1032 1.367 . S
C1033 C1041 1.433 . S
C1034 H1030 0.929 . S
C1034 C1036 1.378 . S
C1034 C1038 1.350 . S
C1035 C1038 1.463 . S
C1035 C1040 1.350 . S
C1035 N1043 1.427 . S
C1036 H1027 0.930 . S
C1036 C1034 1.378 . S
C1036 C1037 1.367 . S
C1037 C1036 1.367 . S
C1037 C1039 1.433 . S
C1038 C1034 1.350 . S
C1038 C1035 1.463 . S
C1038 N1042 1.427 . S
C1039 H1029 0.929 . S
C1039 C1037 1.433 . S
C1039 N1042 1.384 . S
C1040 H1031 0.929 . S
C1040 C1032 1.378 . S
C1040 C1035 1.350 . S
C1041 H1028 0.929 . S
C1041 C1033 1.433 . S
C1041 N1043 1.384 . S
N1042 C1038 1.427 . S
N1042 C1039 1.384 . S
N1043 C1035 1.427 . S
N1043 C1041 1.384 . S
H1044 C1050 0.930 . S
H1045 C1054 0.930 . S
H1046 C1059 0.929 . S
H1047 C1057 0.929 . S
H1048 C1052 0.929 . S
H1049 C1058 0.929 . S
C1050 H1044 0.930 . S
C1050 C1051 1.367 . S
C1050 C1058 1.378 . S
C1051 C1050 1.367 . S
C1051 C1059 1.433 . S
C1052 H1048 0.929 . S
C1052 C1054 1.378 . S
C1052 C1056 1.350 . S
C1053 C1056 1.463 . S
C1053 C1058 1.350 . S
C1053 N1061 1.427 . S
C1054 H1045 0.930 . S
C1054 C1052 1.378 . S
C1054 C1055 1.367 . S
C1055 C1054 1.367 . S
C1055 C1057 1.433 . S
C1056 C1052 1.350 . S
C1056 C1053 1.463 . S
C1056 N1060 1.427 . S
C1057 H1047 0.929 . S
C1057 C1055 1.433 . S
C1057 N1060 1.384 . S
C1058 H1049 0.929 . S
C1058 C1050 1.378 . S
C1058 C1053 1.350 . S
C1059 H1046 0.929 . S
C1059 C1051 1.433 . S
C1059 N1061 1.384 . S
N1060 C1056 1.427 . S
N1060 C1057 1.384 . S
N1061 C1053 1.427 . S
N1061 C1059 1.384 . S
H1062 C1068 0.930 . S
H1063 C1072 0.930 . S
H1064 C1077 0.929 . S
H1065 C1075 0.929 . S
H1066 C1070 0.929 . S
H1067 C1076 0.929 . S
C1068 H1062 0.930 . S
C1068 C1069 1.367 . S
C1068 C1076 1.378 . S
C1069 C1068 1.367 . S
C1069 C1077 1.433 . S
C1070 H1066 0.929 . S
C1070 C1072 1.378 . S
C1070 C1074 1.350 . S
C1071 C1074 1.463 . S
C1071 C1076 1.350 . S
C1071 N1079 1.427 . S
C1072 H1063 0.930 . S
C1072 C1070 1.378 . S
C1072 C1073 1.367 . S
C1073 C1072 1.367 . S
C1073 C1075 1.433 . S
C1074 C1070 1.350 . S
C1074 C1071 1.463 . S
C1074 N1078 1.427 . S
C1075 H1065 0.929 . S
C1075 C1073 1.433 . S
C1075 N1078 1.384 . S
C1076 H1067 0.929 . S
C1076 C1068 1.378 . S
C1076 C1071 1.350 . S
C1077 H1064 0.929 . S
C1077 C1069 1.433 . S
C1077 N1079 1.384 . S
N1078 C1074 1.427 . S
N1078 C1075 1.384 . S
N1079 C1071 1.427 . S
N1079 C1077 1.384 . S
H1080 C1086 0.930 1_545 S
H1081 C1090 0.930 . S
H1082 C1095 0.929 1_545 S
H1083 C1093 0.929 . S
H1084 C1088 0.929 . S
H1085 C1094 0.929 . S
C1086 H1080 0.930 1_565 S
C1086 C1087 1.367 1_565 S
C1086 C1094 1.378 . S
C1087 C1086 1.367 1_545 S
C1087 C1095 1.433 1_545 S
C1088 H1084 0.929 . S
C1088 C1090 1.378 . S
C1088 C1092 1.350 . S
C1089 C1092 1.463 . S
C1089 C1094 1.350 . S
C1089 N1097 1.427 . S
C1090 H1081 0.930 . S
C1090 C1088 1.378 . S
C1090 C1091 1.367 . S
C1091 C1090 1.367 . S
C1091 C1093 1.433 . S
C1092 C1088 1.350 . S
C1092 C1089 1.463 . S
C1092 N1096 1.427 . S
C1093 H1083 0.929 . S
C1093 C1091 1.433 . S
C1093 N1096 1.384 . S
C1094 H1085 0.929 . S
C1094 C1086 1.378 . S
C1094 C1089 1.350 . S
C1095 H1082 0.929 1_565 S
C1095 C1087 1.433 1_565 S
C1095 N1097 1.384 . S
N1096 C1092 1.427 . S
N1096 C1093 1.384 . S
N1097 C1089 1.427 . S
N1097 C1095 1.384 . S
H1098 C1104 0.930 . S
H1099 C1108 0.930 . S
H1100 C1113 0.929 . S
H1101 C1111 0.929 . S
H1102 C1106 0.929 . S
H1103 C1112 0.929 . S
C1104 H1098 0.930 . S
C1104 C1105 1.367 . S
C1104 C1112 1.378 . S
C1105 C1104 1.367 . S
C1105 C1113 1.433 . S
C1106 H1102 0.929 . S
C1106 C1108 1.378 . S
C1106 C1110 1.350 . S
C1107 C1110 1.463 . S
C1107 C1112 1.350 . S
C1107 N1115 1.427 . S
C1108 H1099 0.930 . S
C1108 C1106 1.378 . S
C1108 C1109 1.367 . S
C1109 C1108 1.367 . S
C1109 C1111 1.433 . S
C1110 C1106 1.350 . S
C1110 C1107 1.463 . S
C1110 N1114 1.427 . S
C1111 H1101 0.929 . S
C1111 C1109 1.433 . S
C1111 N1114 1.384 . S
C1112 H1103 0.929 . S
C1112 C1104 1.378 . S
C1112 C1107 1.350 . S
C1113 H1100 0.929 . S
C1113 C1105 1.433 . S
C1113 N1115 1.384 . S
N1114 C1110 1.427 . S
N1114 C1111 1.384 . S
N1115 C1107 1.427 . S
N1115 C1113 1.384 . S
H1116 C1122 0.930 . S
H1117 C1126 0.930 . S
H1118 C1131 0.929 . S
H1119 C1129 0.929 . S
H1120 C1124 0.929 . S
H1121 C1130 0.929 . S
C1122 H1116 0.930 . S
C1122 C1123 1.367 . S
C1122 C1130 1.378 . S
C1123 C1122 1.367 . S
C1123 C1131 1.433 . S
C1124 H1120 0.929 . S
C1124 C1126 1.378 . S
C1124 C1128 1.350 . S
C1125 C1128 1.463 . S
C1125 C1130 1.350 . S
C1125 N1133 1.427 . S
C1126 H1117 0.930 . S
C1126 C1124 1.378 . S
C1126 C1127 1.367 . S
C1127 C1126 1.367 . S
C1127 C1129 1.433 . S
C1128 C1124 1.350 . S
C1128 C1125 1.463 . S
C1128 N1132 1.427 . S
C1129 H1119 0.929 . S
C1129 C1127 1.433 . S
C1129 N1132 1.384 . S
C1130 H1121 0.929 . S
C1130 C1122 1.378 . S
C1130 C1125 1.350 . S
C1131 H1118 0.929 . S
C1131 C1123 1.433 . S
C1131 N1133 1.384 . S
N1132 C1128 1.427 . S
N1132 C1129 1.384 . S
N1133 C1125 1.427 . S
N1133 C1131 1.384 . S
H1134 C1140 0.930 . S
H1135 C1144 0.930 . S
H1136 C1149 0.929 . S
H1137 C1147 0.929 . S
H1138 C1142 0.929 . S
H1139 C1148 0.929 . S
C1140 H1134 0.930 . S
C1140 C1141 1.367 . S
C1140 C1148 1.378 . S
C1141 C1140 1.367 . S
C1141 C1149 1.433 . S
C1142 H1138 0.929 . S
C1142 C1144 1.378 . S
C1142 C1146 1.350 . S
C1143 C1146 1.463 . S
C1143 C1148 1.350 . S
C1143 N1151 1.427 . S
C1144 H1135 0.930 . S
C1144 C1142 1.378 . S
C1144 C1145 1.367 . S
C1145 C1144 1.367 . S
C1145 C1147 1.433 . S
C1146 C1142 1.350 . S
C1146 C1143 1.463 . S
C1146 N1150 1.427 . S
C1147 H1137 0.929 . S
C1147 C1145 1.433 . S
C1147 N1150 1.384 . S
C1148 H1139 0.929 . S
C1148 C1140 1.378 . S
C1148 C1143 1.350 . S
C1149 H1136 0.929 . S
C1149 C1141 1.433 . S
C1149 N1151 1.384 . S
N1150 C1146 1.427 . S
N1150 C1147 1.384 . S
N1151 C1143 1.427 . S
N1151 C1149 1.384 . S
H1152 C1158 0.930 . S
H1153 C1162 0.930 . S
H1154 C1167 0.929 . S
H1155 C1165 0.929 . S
H1156 C1160 0.929 . S
H1157 C1166 0.929 . S
C1158 H1152 0.930 . S
C1158 C1159 1.367 . S
C1158 C1166 1.378 . S
C1159 C1158 1.367 . S
C1159 C1167 1.433 . S
C1160 H1156 0.929 . S
C1160 C1162 1.378 . S
C1160 C1164 1.350 . S
C1161 C1164 1.463 . S
C1161 C1166 1.350 . S
C1161 N1169 1.427 . S
C1162 H1153 0.930 . S
C1162 C1160 1.378 . S
C1162 C1163 1.367 . S
C1163 C1162 1.367 . S
C1163 C1165 1.433 . S
C1164 C1160 1.350 . S
C1164 C1161 1.463 . S
C1164 N1168 1.427 . S
C1165 H1155 0.929 . S
C1165 C1163 1.433 . S
C1165 N1168 1.384 . S
C1166 H1157 0.929 . S
C1166 C1158 1.378 . S
C1166 C1161 1.350 . S
C1167 H1154 0.929 . S
C1167 C1159 1.433 . S
C1167 N1169 1.384 . S
N1168 C1164 1.427 . S
N1168 C1165 1.384 . S
N1169 C1161 1.427 . S
N1169 C1167 1.384 . S
H1170 C1176 0.930 . S
H1171 C1180 0.930 . S
H1172 C1185 0.929 . S
H1173 C1183 0.929 . S
H1174 C1178 0.929 . S
H1175 C1184 0.929 . S
C1176 H1170 0.930 . S
C1176 C1177 1.367 . S
C1176 C1184 1.378 . S
C1177 C1176 1.367 . S
C1177 C1185 1.433 . S
C1178 H1174 0.929 . S
C1178 C1180 1.378 . S
C1178 C1182 1.350 . S
C1179 C1182 1.463 . S
C1179 C1184 1.350 . S
C1179 N1187 1.427 . S
C1180 H1171 0.930 . S
C1180 C1178 1.378 . S
C1180 C1181 1.367 . S
C1181 C1180 1.367 . S
C1181 C1183 1.433 . S
C1182 C1178 1.350 . S
C1182 C1179 1.463 . S
C1182 N1186 1.427 . S
C1183 H1173 0.929 . S
C1183 C1181 1.433 . S
C1183 N1186 1.384 . S
C1184 H1175 0.929 . S
C1184 C1176 1.378 . S
C1184 C1179 1.350 . S
C1185 H1172 0.929 . S
C1185 C1177 1.433 . S
C1185 N1187 1.384 . S
N1186 C1182 1.427 . S
N1186 C1183 1.384 . S
N1187 C1179 1.427 . S
N1187 C1185 1.384 . S
H1188 C1194 0.930 . S
H1189 C1198 0.930 . S
H1190 C1203 0.929 . S
H1191 C1201 0.929 . S
H1192 C1196 0.929 1_565 S
H1193 C1202 0.929 . S
C1194 H1188 0.930 . S
C1194 C1195 1.367 . S
C1194 C1202 1.378 . S
C1195 C1194 1.367 . S
C1195 C1203 1.433 . S
C1196 H1192 0.929 1_545 S
C1196 C1198 1.378 . S
C1196 C1200 1.350 . S
C1197 C1200 1.463 1_565 S
C1197 C1202 1.350 . S
C1197 N1205 1.427 . S
C1198 H1189 0.930 . S
C1198 C1196 1.378 . S
C1198 C1199 1.367 . S
C1199 C1198 1.367 . S
C1199 C1201 1.433 . S
C1200 C1196 1.350 . S
C1200 C1197 1.463 1_545 S
C1200 N1204 1.427 . S
C1201 H1191 0.929 . S
C1201 C1199 1.433 . S
C1201 N1204 1.384 . S
C1202 H1193 0.929 . S
C1202 C1194 1.378 . S
C1202 C1197 1.350 . S
C1203 H1190 0.929 . S
C1203 C1195 1.433 . S
C1203 N1205 1.384 . S
N1204 C1200 1.427 . S
N1204 C1201 1.384 . S
N1205 C1197 1.427 . S
N1205 C1203 1.384 . S
H1206 C1212 0.930 . S
H1207 C1216 0.930 . S
H1208 C1221 0.929 . S
H1209 C1219 0.929 . S
H1210 C1214 0.929 1_455 S
H1211 C1220 0.929 . S
C1212 H1206 0.930 . S
C1212 C1213 1.367 . S
C1212 C1220 1.378 . S
C1213 C1212 1.367 . S
C1213 C1221 1.433 . S
C1214 H1210 0.929 1_655 S
C1214 C1216 1.378 . S
C1214 C1218 1.350 . S
C1215 C1218 1.463 1_455 S
C1215 C1220 1.350 . S
C1215 N1223 1.427 . S
C1216 H1207 0.930 . S
C1216 C1214 1.378 . S
C1216 C1217 1.367 . S
C1217 C1216 1.367 . S
C1217 C1219 1.433 . S
C1218 C1214 1.350 . S
C1218 C1215 1.463 1_655 S
C1218 N1222 1.427 . S
C1219 H1209 0.929 . S
C1219 C1217 1.433 . S
C1219 N1222 1.384 . S
C1220 H1211 0.929 . S
C1220 C1212 1.378 . S
C1220 C1215 1.350 . S
C1221 H1208 0.929 . S
C1221 C1213 1.433 . S
C1221 N1223 1.384 . S
N1222 C1218 1.427 . S
N1222 C1219 1.384 . S
N1223 C1215 1.427 . S
N1223 C1221 1.384 . S
H1224 C1230 0.930 . S
H1225 C1234 0.930 . S
H1226 C1239 0.929 . S
H1227 C1237 0.929 . S
H1228 C1232 0.929 . S
H1229 C1238 0.929 . S
C1230 H1224 0.930 . S
C1230 C1231 1.367 . S
C1230 C1238 1.378 . S
C1231 C1230 1.367 . S
C1231 C1239 1.433 . S
C1232 H1228 0.929 . S
C1232 C1234 1.378 . S
C1232 C1236 1.350 . S
C1233 C1236 1.463 . S
C1233 C1238 1.350 . S
C1233 N1241 1.427 . S
C1234 H1225 0.930 . S
C1234 C1232 1.378 . S
C1234 C1235 1.367 . S
C1235 C1234 1.367 . S
C1235 C1237 1.433 . S
C1236 C1232 1.350 . S
C1236 C1233 1.463 . S
C1236 N1240 1.427 . S
C1237 H1227 0.929 . S
C1237 C1235 1.433 . S
C1237 N1240 1.384 . S
C1238 H1229 0.929 . S
C1238 C1230 1.378 . S
C1238 C1233 1.350 . S
C1239 H1226 0.929 . S
C1239 C1231 1.433 . S
C1239 N1241 1.384 . S
N1240 C1236 1.427 . S
N1240 C1237 1.384 . S
N1241 C1233 1.427 . S
N1241 C1239 1.384 . S
H1242 C1248 0.930 . S
H1243 C1252 0.930 . S
H1244 C1257 0.929 1_455 S
H1245 C1255 0.929 . S
H1246 C1250 0.929 . S
H1247 C1256 0.929 . S
C1248 H1242 0.930 . S
C1248 C1249 1.367 1_655 S
C1248 C1256 1.378 . S
C1249 C1248 1.367 1_455 S
C1249 C1257 1.434 1_455 S
C1250 H1246 0.929 . S
C1250 C1252 1.378 . S
C1250 C1254 1.350 . S
C1251 C1254 1.463 . S
C1251 C1256 1.350 . S
C1251 N1259 1.427 . S
C1252 H1243 0.930 . S
C1252 C1250 1.378 . S
C1252 C1253 1.367 . S
C1253 C1252 1.367 . S
C1253 C1255 1.433 . S
C1254 C1250 1.350 . S
C1254 C1251 1.463 . S
C1254 N1258 1.427 . S
C1255 H1245 0.929 . S
C1255 C1253 1.433 . S
C1255 N1258 1.384 . S
C1256 H1247 0.929 . S
C1256 C1248 1.378 . S
C1256 C1251 1.350 . S
C1257 H1244 0.929 1_655 S
C1257 C1249 1.434 1_655 S
C1257 N1259 1.383 . S
N1258 C1254 1.427 . S
N1258 C1255 1.384 . S
N1259 C1251 1.427 . S
N1259 C1257 1.383 . S
H1260 C1266 0.930 . S
H1261 C1270 0.930 . S
H1262 C1275 0.929 . S
H1263 C1273 0.929 . S
H1264 C1268 0.929 . S
H1265 C1274 0.929 . S
C1266 H1260 0.930 . S
C1266 C1267 1.367 . S
C1266 C1274 1.378 . S
C1267 C1266 1.367 . S
C1267 C1275 1.433 . S
C1268 H1264 0.929 . S
C1268 C1270 1.378 . S
C1268 C1272 1.350 . S
C1269 C1272 1.463 . S
C1269 C1274 1.350 . S
C1269 N1277 1.427 . S
C1270 H1261 0.930 . S
C1270 C1268 1.378 . S
C1270 C1271 1.367 . S
C1271 C1270 1.367 . S
C1271 C1273 1.433 . S
C1272 C1268 1.350 . S
C1272 C1269 1.463 . S
C1272 N1276 1.427 . S
C1273 H1263 0.929 . S
C1273 C1271 1.433 . S
C1273 N1276 1.384 . S
C1274 H1265 0.929 . S
C1274 C1266 1.378 . S
C1274 C1269 1.350 . S
C1275 H1262 0.929 . S
C1275 C1267 1.433 . S
C1275 N1277 1.384 . S
N1276 C1272 1.427 . S
N1276 C1273 1.384 . S
N1277 C1269 1.427 . S
N1277 C1275 1.384 . S
H1278 C1284 0.967 . S
H1279 C1288 0.930 . S
H1280 C1293 0.929 1_565 S
H1281 C1291 0.929 . S
H1282 C1286 0.929 . S
H1283 C1292 0.929 . S
C1284 H1278 0.967 . S
C1284 C1285 1.367 1_545 S
C1284 C1292 1.378 . S
C1285 C1284 1.367 1_565 S
C1285 C1293 1.433 1_565 S
C1286 H1282 0.929 . S
C1286 C1288 1.378 . S
C1286 C1290 1.350 . S
C1287 C1290 1.463 . S
C1287 C1292 1.350 . S
C1287 N1295 1.427 . S
C1288 H1279 0.930 . S
C1288 C1286 1.378 . S
C1288 C1289 1.367 . S
C1289 C1288 1.367 . S
C1289 C1291 1.433 . S
C1290 C1286 1.350 . S
C1290 C1287 1.463 . S
C1290 N1294 1.427 . S
C1291 H1281 0.929 . S
C1291 C1289 1.433 . S
C1291 N1294 1.384 . S
C1292 H1283 0.929 . S
C1292 C1284 1.378 . S
C1292 C1287 1.350 . S
C1293 H1280 0.929 1_545 S
C1293 C1285 1.433 1_545 S
C1293 N1295 1.384 . S
N1294 C1290 1.427 . S
N1294 C1291 1.384 . S
N1295 C1287 1.427 . S
N1295 C1293 1.384 . S
H1296 C1302 0.930 . S
H1297 C1306 0.930 . S
H1298 C1311 0.929 . S
H1299 C1309 0.929 . S
H1300 C1304 0.929 . S
H1301 C1310 0.929 . S
C1302 H1296 0.930 . S
C1302 C1303 1.367 . S
C1302 C1310 1.378 . S
C1303 C1302 1.367 . S
C1303 C1311 1.433 . S
C1304 H1300 0.929 . S
C1304 C1306 1.378 . S
C1304 C1308 1.350 . S
C1305 C1308 1.463 . S
C1305 C1310 1.350 . S
C1305 N1313 1.427 . S
C1306 H1297 0.930 . S
C1306 C1304 1.378 . S
C1306 C1307 1.367 . S
C1307 C1306 1.367 . S
C1307 C1309 1.433 . S
C1308 C1304 1.350 . S
C1308 C1305 1.463 . S
C1308 N1312 1.427 . S
C1309 H1299 0.929 . S
C1309 C1307 1.433 . S
C1309 N1312 1.384 . S
C1310 H1301 0.929 . S
C1310 C1302 1.378 . S
C1310 C1305 1.350 . S
C1311 H1298 0.929 . S
C1311 C1303 1.433 . S
C1311 N1313 1.384 . S
N1312 C1308 1.427 . S
N1312 C1309 1.384 . S
N1313 C1305 1.427 . S
N1313 C1311 1.384 . S
H1314 C1320 0.930 . S
H1315 C1324 0.930 . S
H1316 C1329 0.929 . S
H1317 C1327 0.929 . S
H1318 C1322 0.929 . S
H1319 C1328 0.929 . S
C1320 H1314 0.930 . S
C1320 C1321 1.367 . S
C1320 C1328 1.378 . S
C1321 C1320 1.367 . S
C1321 C1329 1.433 . S
C1322 H1318 0.929 . S
C1322 C1324 1.378 . S
C1322 C1326 1.350 . S
C1323 C1326 1.463 . S
C1323 C1328 1.350 . S
C1323 N1331 1.427 . S
C1324 H1315 0.930 . S
C1324 C1322 1.378 . S
C1324 C1325 1.367 . S
C1325 C1324 1.367 . S
C1325 C1327 1.433 . S
C1326 C1322 1.350 . S
C1326 C1323 1.463 . S
C1326 N1330 1.427 . S
C1327 H1317 0.929 . S
C1327 C1325 1.433 . S
C1327 N1330 1.384 . S
C1328 H1319 0.929 . S
C1328 C1320 1.378 . S
C1328 C1323 1.350 . S
C1329 H1316 0.929 . S
C1329 C1321 1.433 . S
C1329 N1331 1.384 . S
N1330 C1326 1.427 . S
N1330 C1327 1.384 . S
N1331 C1323 1.427 . S
N1331 C1329 1.384 . S
H1332 C1338 0.930 . S
H1333 C1342 0.930 . S
H1334 C1347 0.929 . S
H1335 C1345 0.929 . S
H1336 C1340 0.929 . S
H1337 C1346 0.929 . S
C1338 H1332 0.930 . S
C1338 C1339 1.367 . S
C1338 C1346 1.378 . S
C1339 C1338 1.367 . S
C1339 C1347 1.433 . S
C1340 H1336 0.929 . S
C1340 C1342 1.378 . S
C1340 C1344 1.350 . S
C1341 C1344 1.463 . S
C1341 C1346 1.350 . S
C1341 N1349 1.427 . S
C1342 H1333 0.930 . S
C1342 C1340 1.378 . S
C1342 C1343 1.367 . S
C1343 C1342 1.367 . S
C1343 C1345 1.433 . S
C1344 C1340 1.350 . S
C1344 C1341 1.463 . S
C1344 N1348 1.427 . S
C1345 H1335 0.929 . S
C1345 C1343 1.433 . S
C1345 N1348 1.384 . S
C1346 H1337 0.929 . S
C1346 C1338 1.378 . S
C1346 C1341 1.350 . S
C1347 H1334 0.929 . S
C1347 C1339 1.433 . S
C1347 N1349 1.384 . S
N1348 C1344 1.427 . S
N1348 C1345 1.384 . S
N1349 C1341 1.427 . S
N1349 C1347 1.384 . S
H1350 C1356 0.930 . S
H1351 C1360 0.930 . S
H1352 C1365 0.929 . S
H1353 C1363 0.929 . S
H1354 C1358 0.929 . S
H1355 C1364 0.929 . S
C1356 H1350 0.930 . S
C1356 C1357 1.367 . S
C1356 C1364 1.378 . S
C1357 C1356 1.367 . S
C1357 C1365 1.433 . S
C1358 H1354 0.929 . S
C1358 C1360 1.378 . S
C1358 C1362 1.350 . S
C1359 C1362 1.463 . S
C1359 C1364 1.350 . S
C1359 N1367 1.427 . S
C1360 H1351 0.930 . S
C1360 C1358 1.378 . S
C1360 C1361 1.367 . S
C1361 C1360 1.367 . S
C1361 C1363 1.433 . S
C1362 C1358 1.350 . S
C1362 C1359 1.463 . S
C1362 N1366 1.427 . S
C1363 H1353 0.929 . S
C1363 C1361 1.433 . S
C1363 N1366 1.384 . S
C1364 H1355 0.929 . S
C1364 C1356 1.378 . S
C1364 C1359 1.350 . S
C1365 H1352 0.929 . S
C1365 C1357 1.433 . S
C1365 N1367 1.384 . S
N1366 C1362 1.427 . S
N1366 C1363 1.384 . S
N1367 C1359 1.427 . S
N1367 C1365 1.384 . S
H1368 C1374 0.930 . S
H1369 C1378 0.930 . S
H1370 C1383 0.929 . S
H1371 C1381 0.929 . S
H1372 C1376 0.929 . S
H1373 C1382 0.929 . S
C1374 H1368 0.930 . S
C1374 C1375 1.367 . S
C1374 C1382 1.378 . S
C1375 C1374 1.367 . S
C1375 C1383 1.433 . S
C1376 H1372 0.929 . S
C1376 C1378 1.378 . S
C1376 C1380 1.350 . S
C1377 C1380 1.463 . S
C1377 C1382 1.350 . S
C1377 N1385 1.427 . S
C1378 H1369 0.930 . S
C1378 C1376 1.378 . S
C1378 C1379 1.367 . S
C1379 C1378 1.367 . S
C1379 C1381 1.433 . S
C1380 C1376 1.350 . S
C1380 C1377 1.463 . S
C1380 N1384 1.427 . S
C1381 H1371 0.929 . S
C1381 C1379 1.433 . S
C1381 N1384 1.384 . S
C1382 H1373 0.929 . S
C1382 C1374 1.378 . S
C1382 C1377 1.350 . S
C1383 H1370 0.929 . S
C1383 C1375 1.433 . S
C1383 N1385 1.384 . S
N1384 C1380 1.427 . S
N1384 C1381 1.384 . S
N1385 C1377 1.427 . S
N1385 C1383 1.384 . S
H1386 C1392 0.930 . S
H1387 C1396 0.930 . S
H1388 C1401 0.929 . S
H1389 C1399 0.929 . S
H1390 C1394 0.929 . S
H1391 C1400 0.929 . S
C1392 H1386 0.930 . S
C1392 C1393 1.367 . S
C1392 C1400 1.378 . S
C1393 C1392 1.367 . S
C1393 C1401 1.433 . S
C1394 H1390 0.929 . S
C1394 C1396 1.378 . S
C1394 C1398 1.350 . S
C1395 C1398 1.463 . S
C1395 C1400 1.350 . S
C1395 N1403 1.427 . S
C1396 H1387 0.930 . S
C1396 C1394 1.378 . S
C1396 C1397 1.367 . S
C1397 C1396 1.367 . S
C1397 C1399 1.433 . S
C1398 C1394 1.350 . S
C1398 C1395 1.463 . S
C1398 N1402 1.427 . S
C1399 H1389 0.929 . S
C1399 C1397 1.433 . S
C1399 N1402 1.384 . S
C1400 H1391 0.929 . S
C1400 C1392 1.378 . S
C1400 C1395 1.350 . S
C1401 H1388 0.929 . S
C1401 C1393 1.433 . S
C1401 N1403 1.384 . S
N1402 C1398 1.427 . S
N1402 C1399 1.384 . S
N1403 C1395 1.427 . S
N1403 C1401 1.384 . S
H1404 C1410 0.930 . S
H1405 C1414 0.930 . S
H1406 C1419 0.929 . S
H1407 C1417 0.929 . S
H1408 C1412 0.929 . S
H1409 C1418 0.929 . S
C1410 H1404 0.930 . S
C1410 C1411 1.367 . S
C1410 C1418 1.378 . S
C1411 C1410 1.367 . S
C1411 C1419 1.433 . S
C1412 H1408 0.929 . S
C1412 C1414 1.378 . S
C1412 C1416 1.350 . S
C1413 C1416 1.463 . S
C1413 C1418 1.350 . S
C1413 N1421 1.427 . S
C1414 H1405 0.930 . S
C1414 C1412 1.378 . S
C1414 C1415 1.367 . S
C1415 C1414 1.367 . S
C1415 C1417 1.433 . S
C1416 C1412 1.350 . S
C1416 C1413 1.463 . S
C1416 N1420 1.427 . S
C1417 H1407 0.929 . S
C1417 C1415 1.433 . S
C1417 N1420 1.384 . S
C1418 H1409 0.929 . S
C1418 C1410 1.378 . S
C1418 C1413 1.350 . S
C1419 H1406 0.929 . S
C1419 C1411 1.433 . S
C1419 N1421 1.384 . S
N1420 C1416 1.427 . S
N1420 C1417 1.384 . S
N1421 C1413 1.427 . S
N1421 C1419 1.384 . S
H1422 C1428 0.930 . S
H1423 C1432 0.930 . S
H1424 C1437 0.929 . S
H1425 C1435 0.929 . S
H1426 C1430 0.929 . S
H1427 C1436 0.929 . S
C1428 H1422 0.930 . S
C1428 C1429 1.367 . S
C1428 C1436 1.378 . S
C1429 C1428 1.367 . S
C1429 C1437 1.433 . S
C1430 H1426 0.929 . S
C1430 C1432 1.378 . S
C1430 C1434 1.350 . S
C1431 C1434 1.463 . S
C1431 C1436 1.350 . S
C1431 N1439 1.427 . S
C1432 H1423 0.930 . S
C1432 C1430 1.378 . S
C1432 C1433 1.367 . S
C1433 C1432 1.367 . S
C1433 C1435 1.433 . S
C1434 C1430 1.350 . S
C1434 C1431 1.463 . S
C1434 N1438 1.427 . S
C1435 H1425 0.929 . S
C1435 C1433 1.433 . S
C1435 N1438 1.384 . S
C1436 H1427 0.929 . S
C1436 C1428 1.378 . S
C1436 C1431 1.350 . S
C1437 H1424 0.929 . S
C1437 C1429 1.433 . S
C1437 N1439 1.384 . S
N1438 C1434 1.427 . S
N1438 C1435 1.384 . S
N1439 C1431 1.427 . S
N1439 C1437 1.384 . S
H1440 C1446 0.930 . S
H1441 C1450 0.930 . S
H1442 C1455 0.929 . S
H1443 C1453 0.929 . S
H1444 C1448 0.929 . S
H1445 C1454 0.929 . S
C1446 H1440 0.930 . S
C1446 C1447 1.367 . S
C1446 C1454 1.378 . S
C1447 C1446 1.367 . S
C1447 C1455 1.433 . S
C1448 H1444 0.929 . S
C1448 C1450 1.378 . S
C1448 C1452 1.350 . S
C1449 C1452 1.463 . S
C1449 C1454 1.350 . S
C1449 N1457 1.427 . S
C1450 H1441 0.930 . S
C1450 C1448 1.378 . S
C1450 C1451 1.367 . S
C1451 C1450 1.367 . S
C1451 C1453 1.433 . S
C1452 C1448 1.350 . S
C1452 C1449 1.463 . S
C1452 N1456 1.427 . S
C1453 H1443 0.929 . S
C1453 C1451 1.433 . S
C1453 N1456 1.384 . S
C1454 H1445 0.929 . S
C1454 C1446 1.378 . S
C1454 C1449 1.350 . S
C1455 H1442 0.929 . S
C1455 C1447 1.433 . S
C1455 N1457 1.384 . S
N1456 C1452 1.427 . S
N1456 C1453 1.384 . S
N1457 C1449 1.427 . S
N1457 C1455 1.384 . S
H1458 C1464 0.930 . S
H1459 C1468 0.930 . S
H1460 C1473 0.929 . S
H1461 C1471 0.929 . S
H1462 C1466 0.929 . S
H1463 C1472 0.929 . S
C1464 H1458 0.930 . S
C1464 C1465 1.367 . S
C1464 C1472 1.378 . S
C1465 C1464 1.367 . S
C1465 C1473 1.433 . S
C1466 H1462 0.929 . S
C1466 C1468 1.378 . S
C1466 C1470 1.350 . S
C1467 C1470 1.463 . S
C1467 C1472 1.350 . S
C1467 N1475 1.427 . S
C1468 H1459 0.930 . S
C1468 C1466 1.378 . S
C1468 C1469 1.367 . S
C1469 C1468 1.367 . S
C1469 C1471 1.433 . S
C1470 C1466 1.350 . S
C1470 C1467 1.463 . S
C1470 N1474 1.427 . S
C1471 H1461 0.929 . S
C1471 C1469 1.433 . S
C1471 N1474 1.384 . S
C1472 H1463 0.929 . S
C1472 C1464 1.378 . S
C1472 C1467 1.350 . S
C1473 H1460 0.929 . S
C1473 C1465 1.433 . S
C1473 N1475 1.384 . S
N1474 C1470 1.427 . S
N1474 C1471 1.384 . S
N1475 C1467 1.427 . S
N1475 C1473 1.384 . S
H1476 C1482 0.930 . S
H1477 C1486 0.930 . S
H1478 C1491 0.929 . S
H1479 C1489 0.929 . S
H1480 C1484 0.929 . S
H1481 C1490 0.929 . S
C1482 H1476 0.930 . S
C1482 C1483 1.367 . S
C1482 C1490 1.378 . S
C1483 C1482 1.367 . S
C1483 C1491 1.433 . S
C1484 H1480 0.929 . S
C1484 C1486 1.378 . S
C1484 C1488 1.350 . S
C1485 C1488 1.463 . S
C1485 C1490 1.350 . S
C1485 N1493 1.427 . S
C1486 H1477 0.930 . S
C1486 C1484 1.378 . S
C1486 C1487 1.367 . S
C1487 C1486 1.367 . S
C1487 C1489 1.433 . S
C1488 C1484 1.350 . S
C1488 C1485 1.463 . S
C1488 N1492 1.427 . S
C1489 H1479 0.929 . S
C1489 C1487 1.433 . S
C1489 N1492 1.384 . S
C1490 H1481 0.929 . S
C1490 C1482 1.378 . S
C1490 C1485 1.350 . S
C1491 H1478 0.929 . S
C1491 C1483 1.433 . S
C1491 N1493 1.384 . S
N1492 C1488 1.427 . S
N1492 C1489 1.384 . S
N1493 C1485 1.427 . S
N1493 C1491 1.384 . S
H1494 C1500 0.930 . S
H1495 C1504 0.930 . S
H1496 C1509 0.929 . S
H1497 C1507 0.929 . S
H1498 C1502 0.929 . S
H1499 C1508 0.929 . S
C1500 H1494 0.930 . S
C1500 C1501 1.367 . S
C1500 C1508 1.378 . S
C1501 C1500 1.367 . S
C1501 C1509 1.433 . S
C1502 H1498 0.929 . S
C1502 C1504 1.378 . S
C1502 C1506 1.350 . S
C1503 C1506 1.463 . S
C1503 C1508 1.350 . S
C1503 N1511 1.427 . S
C1504 H1495 0.930 . S
C1504 C1502 1.378 . S
C1504 C1505 1.367 . S
C1505 C1504 1.367 . S
C1505 C1507 1.433 . S
C1506 C1502 1.350 . S
C1506 C1503 1.463 . S
C1506 N1510 1.427 . S
C1507 H1497 0.929 . S
C1507 C1505 1.433 . S
C1507 N1510 1.384 . S
C1508 H1499 0.929 . S
C1508 C1500 1.378 . S
C1508 C1503 1.350 . S
C1509 H1496 0.929 . S
C1509 C1501 1.433 . S
C1509 N1511 1.384 . S
N1510 C1506 1.427 . S
N1510 C1507 1.384 . S
N1511 C1503 1.427 . S
N1511 C1509 1.384 . S
H1512 C1518 0.930 . S
H1513 C1522 0.930 . S
H1514 C1527 0.929 . S
H1515 C1525 0.929 . S
H1516 C1520 0.929 . S
H1517 C1526 0.929 . S
C1518 H1512 0.930 . S
C1518 C1519 1.367 . S
C1518 C1526 1.378 . S
C1519 C1518 1.367 . S
C1519 C1527 1.433 . S
C1520 H1516 0.929 . S
C1520 C1522 1.378 . S
C1520 C1524 1.350 . S
C1521 C1524 1.463 . S
C1521 C1526 1.350 . S
C1521 N1529 1.427 . S
C1522 H1513 0.930 . S
C1522 C1520 1.378 . S
C1522 C1523 1.367 . S
C1523 C1522 1.367 . S
C1523 C1525 1.433 . S
C1524 C1520 1.350 . S
C1524 C1521 1.463 . S
C1524 N1528 1.427 . S
C1525 H1515 0.929 . S
C1525 C1523 1.433 . S
C1525 N1528 1.384 . S
C1526 H1517 0.929 . S
C1526 C1518 1.378 . S
C1526 C1521 1.350 . S
C1527 H1514 0.929 . S
C1527 C1519 1.433 . S
C1527 N1529 1.384 . S
N1528 C1524 1.427 . S
N1528 C1525 1.384 . S
N1529 C1521 1.427 . S
N1529 C1527 1.384 . S
H1530 C1536 0.930 . S
H1531 C1540 0.930 . S
H1532 C1545 0.929 . S
H1533 C1543 0.929 . S
H1534 C1538 0.929 . S
H1535 C1544 0.929 . S
C1536 H1530 0.930 . S
C1536 C1537 1.367 . S
C1536 C1544 1.378 . S
C1537 C1536 1.367 . S
C1537 C1545 1.433 . S
C1538 H1534 0.929 . S
C1538 C1540 1.378 . S
C1538 C1542 1.350 . S
C1539 C1542 1.463 . S
C1539 C1544 1.350 . S
C1539 N1547 1.427 . S
C1540 H1531 0.930 . S
C1540 C1538 1.378 . S
C1540 C1541 1.367 . S
C1541 C1540 1.367 . S
C1541 C1543 1.433 . S
C1542 C1538 1.350 . S
C1542 C1539 1.463 . S
C1542 N1546 1.427 . S
C1543 H1533 0.929 . S
C1543 C1541 1.433 . S
C1543 N1546 1.384 . S
C1544 H1535 0.929 . S
C1544 C1536 1.378 . S
C1544 C1539 1.350 . S
C1545 H1532 0.929 . S
C1545 C1537 1.433 . S
C1545 N1547 1.384 . S
N1546 C1542 1.427 . S
N1546 C1543 1.384 . S
N1547 C1539 1.427 . S
N1547 C1545 1.384 . S
H1548 C1554 0.930 . S
H1549 C1558 0.930 . S
H1550 C1563 0.929 . S
H1551 C1561 0.929 . S
H1552 C1556 0.929 . S
H1553 C1562 0.929 . S
C1554 H1548 0.930 . S
C1554 C1555 1.367 . S
C1554 C1562 1.378 . S
C1555 C1554 1.367 . S
C1555 C1563 1.433 . S
C1556 H1552 0.929 . S
C1556 C1558 1.378 . S
C1556 C1560 1.350 . S
C1557 C1560 1.463 . S
C1557 C1562 1.350 . S
C1557 N1565 1.427 . S
C1558 H1549 0.930 . S
C1558 C1556 1.378 . S
C1558 C1559 1.367 . S
C1559 C1558 1.367 . S
C1559 C1561 1.433 . S
C1560 C1556 1.350 . S
C1560 C1557 1.463 . S
C1560 N1564 1.427 . S
C1561 H1551 0.929 . S
C1561 C1559 1.433 . S
C1561 N1564 1.384 . S
C1562 H1553 0.929 . S
C1562 C1554 1.378 . S
C1562 C1557 1.350 . S
C1563 H1550 0.929 . S
C1563 C1555 1.433 . S
C1563 N1565 1.384 . S
N1564 C1560 1.427 . S
N1564 C1561 1.384 . S
N1565 C1557 1.427 . S
N1565 C1563 1.384 . S
H1566 C1572 0.930 . S
H1567 C1576 0.930 . S
H1568 C1581 0.929 . S
H1569 C1579 0.929 . S
H1570 C1574 0.929 . S
H1571 C1580 0.929 . S
C1572 H1566 0.930 . S
C1572 C1573 1.367 . S
C1572 C1580 1.378 . S
C1573 C1572 1.367 . S
C1573 C1581 1.433 . S
C1574 H1570 0.929 . S
C1574 C1576 1.378 . S
C1574 C1578 1.350 . S
C1575 C1578 1.463 . S
C1575 C1580 1.350 . S
C1575 N1583 1.427 . S
C1576 H1567 0.930 . S
C1576 C1574 1.378 . S
C1576 C1577 1.367 . S
C1577 C1576 1.367 . S
C1577 C1579 1.433 . S
C1578 C1574 1.350 . S
C1578 C1575 1.463 . S
C1578 N1582 1.427 . S
C1579 H1569 0.929 . S
C1579 C1577 1.433 . S
C1579 N1582 1.384 . S
C1580 H1571 0.929 . S
C1580 C1572 1.378 . S
C1580 C1575 1.350 . S
C1581 H1568 0.929 . S
C1581 C1573 1.433 . S
C1581 N1583 1.384 . S
N1582 C1578 1.427 . S
N1582 C1579 1.384 . S
N1583 C1575 1.427 . S
N1583 C1581 1.384 . S
H1584 C1590 0.930 . S
H1585 C1594 0.930 . S
H1586 C1599 0.929 . S
H1587 C1597 0.929 . S
H1588 C1592 0.929 . S
H1589 C1598 0.929 . S
C1590 H1584 0.930 . S
C1590 C1591 1.367 . S
C1590 C1598 1.378 . S
C1591 C1590 1.367 . S
C1591 C1599 1.433 . S
C1592 H1588 0.929 . S
C1592 C1594 1.378 . S
C1592 C1596 1.350 . S
C1593 C1596 1.463 . S
C1593 C1598 1.350 . S
C1593 N1601 1.427 . S
C1594 H1585 0.930 . S
C1594 C1592 1.378 . S
C1594 C1595 1.367 . S
C1595 C1594 1.367 . S
C1595 C1597 1.433 . S
C1596 C1592 1.350 . S
C1596 C1593 1.463 . S
C1596 N1600 1.427 . S
C1597 H1587 0.929 . S
C1597 C1595 1.433 . S
C1597 N1600 1.384 . S
C1598 H1589 0.929 . S
C1598 C1590 1.378 . S
C1598 C1593 1.350 . S
C1599 H1586 0.929 . S
C1599 C1591 1.433 . S
C1599 N1601 1.384 . S
N1600 C1596 1.427 . S
N1600 C1597 1.384 . S
N1601 C1593 1.427 . S
N1601 C1599 1.384 . S
H1602 C1608 0.930 . S
H1603 C1612 0.930 . S
H1604 C1617 0.929 . S
H1605 C1615 0.929 . S
H1606 C1610 0.929 . S
H1607 C1616 0.929 . S
C1608 H1602 0.930 . S
C1608 C1609 1.367 . S
C1608 C1616 1.378 . S
C1609 C1608 1.367 . S
C1609 C1617 1.433 . S
C1610 H1606 0.929 . S
C1610 C1612 1.378 . S
C1610 C1614 1.350 . S
C1611 C1614 1.463 . S
C1611 C1616 1.350 . S
C1611 N1619 1.427 . S
C1612 H1603 0.930 . S
C1612 C1610 1.378 . S
C1612 C1613 1.367 . S
C1613 C1612 1.367 . S
C1613 C1615 1.433 . S
C1614 C1610 1.350 . S
C1614 C1611 1.463 . S
C1614 N1618 1.427 . S
C1615 H1605 0.929 . S
C1615 C1613 1.433 . S
C1615 N1618 1.384 . S
C1616 H1607 0.929 . S
C1616 C1608 1.378 . S
C1616 C1611 1.350 . S
C1617 H1604 0.929 . S
C1617 C1609 1.433 . S
C1617 N1619 1.384 . S
N1618 C1614 1.427 . S
N1618 C1615 1.384 . S
N1619 C1611 1.427 . S
N1619 C1617 1.384 . S
H1620 C1626 0.930 . S
H1621 C1630 0.930 . S
H1622 C1635 0.929 . S
H1623 C1633 0.929 . S
H1624 C1628 0.929 . S
H1625 C1634 0.929 . S
C1626 H1620 0.930 . S
C1626 C1627 1.367 . S
C1626 C1634 1.378 . S
C1627 C1626 1.367 . S
C1627 C1635 1.433 . S
C1628 H1624 0.929 . S
C1628 C1630 1.378 . S
C1628 C1632 1.350 . S
C1629 C1632 1.463 . S
C1629 C1634 1.350 . S
C1629 N1637 1.427 . S
C1630 H1621 0.930 . S
C1630 C1628 1.378 . S
C1630 C1631 1.367 . S
C1631 C1630 1.367 . S
C1631 C1633 1.433 . S
C1632 C1628 1.350 . S
C1632 C1629 1.463 . S
C1632 N1636 1.427 . S
C1633 H1623 0.929 . S
C1633 C1631 1.433 . S
C1633 N1636 1.384 . S
C1634 H1625 0.929 . S
C1634 C1626 1.378 . S
C1634 C1629 1.350 . S
C1635 H1622 0.929 . S
C1635 C1627 1.433 . S
C1635 N1637 1.384 . S
N1636 C1632 1.427 . S
N1636 C1633 1.384 . S
N1637 C1629 1.427 . S
N1637 C1635 1.384 . S
H1638 C1644 0.930 . S
H1639 C1648 0.930 . S
H1640 C1653 0.929 . S
H1641 C1651 0.929 . S
H1642 C1646 0.929 . S
H1643 C1652 0.929 . S
C1644 H1638 0.930 . S
C1644 C1645 1.367 . S
C1644 C1652 1.378 . S
C1645 C1644 1.367 . S
C1645 C1653 1.433 . S
C1646 H1642 0.929 . S
C1646 C1648 1.378 . S
C1646 C1650 1.350 . S
C1647 C1650 1.463 . S
C1647 C1652 1.350 . S
C1647 N1655 1.427 . S
C1648 H1639 0.930 . S
C1648 C1646 1.378 . S
C1648 C1649 1.367 . S
C1649 C1648 1.367 . S
C1649 C1651 1.433 . S
C1650 C1646 1.350 . S
C1650 C1647 1.463 . S
C1650 N1654 1.427 . S
C1651 H1641 0.929 . S
C1651 C1649 1.433 . S
C1651 N1654 1.384 . S
C1652 H1643 0.929 . S
C1652 C1644 1.378 . S
C1652 C1647 1.350 . S
C1653 H1640 0.929 . S
C1653 C1645 1.433 . S
C1653 N1655 1.384 . S
N1654 C1650 1.427 . S
N1654 C1651 1.384 . S
N1655 C1647 1.427 . S
N1655 C1653 1.384 . S
H1656 C1662 0.930 . S
H1657 C1666 0.930 . S
H1658 C1671 0.929 . S
H1659 C1669 0.929 . S
H1660 C1664 0.929 . S
H1661 C1670 0.929 . S
C1662 H1656 0.930 . S
C1662 C1663 1.367 . S
C1662 C1670 1.378 . S
C1663 C1662 1.367 . S
C1663 C1671 1.433 . S
C1664 H1660 0.929 . S
C1664 C1666 1.378 . S
C1664 C1668 1.350 . S
C1665 C1668 1.463 . S
C1665 C1670 1.350 . S
C1665 N1673 1.427 . S
C1666 H1657 0.930 . S
C1666 C1664 1.378 . S
C1666 C1667 1.367 . S
C1667 C1666 1.367 . S
C1667 C1669 1.433 . S
C1668 C1664 1.350 . S
C1668 C1665 1.463 . S
C1668 N1672 1.427 . S
C1669 H1659 0.929 . S
C1669 C1667 1.433 . S
C1669 N1672 1.384 . S
C1670 H1661 0.929 . S
C1670 C1662 1.378 . S
C1670 C1665 1.350 . S
C1671 H1658 0.929 . S
C1671 C1663 1.433 . S
C1671 N1673 1.384 . S
N1672 C1668 1.427 . S
N1672 C1669 1.384 . S
N1673 C1665 1.427 . S
N1673 C1671 1.384 . S
C709 C253 1.720 . S
C713 C351 1.727 . S
C727 C272 1.831 . S
C731 C391 1.831 . S
C745 C234 1.607 . S
C749 C430 1.571 . S
C763 C215 1.487 . S
C767 C390 1.425 1_556 S
C785 C431 1.558 . S
C781 C177 1.558 . S
C799 C196 1.402 . S
C803 C350 1.373 1_556 S
C821 C361 1.668 . S
C817 C220 1.542 . S
C839 C401 1.619 . S
C835 C182 1.537 . S
C853 C201 1.633 . S
C857 C440 1.726 . S
C871 C258 1.446 . S
C875 C400 1.540 . S
C889 C277 1.338 . S
C893 C441 1.437 . S
C911 C360 1.523 1_554 S
C907 C239 1.413 . S
C929 C471 1.723 . S
C925 C25 1.714 . S
C943 C44 1.831 . S
C947 C511 1.830 . S
C961 C6 1.617 . S
C965 C550 1.577 . S
C979 C329 1.484 . S
C983 C510 1.442 . S
C997 C291 1.558 . S
C1001 C551 1.559 . S
C1015 C310 1.402 . S
C1019 C470 1.377 . S
C1033 C334 1.526 . S
C1037 C481 1.655 . S
C1051 C296 1.536 . S
C1055 C521 1.624 . S
C1073 C560 1.732 . S
C1069 C315 1.620 . S
C1087 C30 1.434 . S
C1091 C520 1.541 . S
C1109 C561 1.438 . S
C1105 C49 1.321 1_455 S
C1123 C11 1.411 . S
C1127 C480 1.545 . S
C1145 C591 1.726 . S
C1141 C139 1.717 . S
C1159 C158 1.831 . S
C1163 C631 1.831 . S
C1181 C670 1.571 . S
C1177 C120 1.606 . S
C1199 C630 1.434 . S
C1195 C101 1.478 . S
C1217 C671 1.558 . S
C1213 C63 1.558 . S
C1231 C82 1.392 . S
C1235 C590 1.368 . S
C1249 C106 1.544 . S
C1253 C601 1.663 . S
C1267 C68 1.536 . S
C1271 C641 1.620 . S
C1289 C680 1.728 . S
C1285 C87 1.614 . S
C1303 C144 1.448 . S
C1307 C640 1.528 . S
C1321 C163 1.339 . S
C1325 C681 1.438 . S
C1339 C125 1.400 . S
C1343 C600 1.546 . S
C1357 C287 1.596 . S
C1361 C347 1.593 . S
C1379 C387 2.070 . S
C1375 C306 2.063 . S
C1393 C325 1.636 . S
C1397 C437 1.663 . S
C1411 C116 1.845 . S
C1415 C397 1.871 . S
C1429 C135 1.799 . S
C1433 C427 1.809 . S
C1451 C357 1.357 . S
C1447 C154 1.337 . S
C1465 C59 1.590 . S
C1469 C467 1.588 . S
C1483 C78 2.062 . S
C1487 C507 2.068 . S
C1501 C97 1.633 . S
C1505 C557 1.662 . S
C1519 C230 1.844 . S
C1523 C517 1.870 . S
C1541 C547 1.812 . S
C1537 C249 1.803 . S
C1555 C268 1.336 . S
C1559 C477 1.356 . S
C1573 C173 1.595 . S
C1577 C587 1.592 . S
C1591 C192 2.062 . S
C1595 C627 2.068 . S
C1613 C677 1.663 . S
C1609 C211 1.636 . S
C1627 C2 1.837 . S
C1631 C637 1.868 . S
C1645 C21 1.795 . S
C1649 C667 1.805 . S
C1663 C40 1.329 . S
C1667 C597 1.354 . S
