# Generated by pormake.
# Topology rtl, (3,6)-cn, num edge types: 1
# Building blocks:
#     Node 0, Type 0, BuildingBlock: BETDAH_clean_linker_0, # of connection points: 3
#     Node 1, Type 0, BuildingBlock: BETDAH_clean_linker_0, # of connection points: 3
#     Node 2, Type 0, BuildingBlock: BETDAH_clean_linker_0, # of connection points: 3
#     Node 3, Type 0, BuildingBlock: BETDAH_clean_linker_0, # of connection points: 3
#     Node 4, Type 1, BuildingBlock: VOLQOD_clean_sbu_1, # of connection points: 6
#     Node 5, Type 1, BuildingBlock: VOLQOD_clean_sbu_1, # of connection points: 6
#     Edge 6, Type (0, 1), BuildingBlock: XIVTED_clean_linker_0, # of connection points: 2
#     Edge 7, Type (0, 1), BuildingBlock: XIVTED_clean_linker_0, # of connection points: 2
#     Edge 8, Type (0, 1), BuildingBlock: XIVTED_clean_linker_0, # of connection points: 2
#     Edge 9, Type (0, 1), BuildingBlock: XIVTED_clean_linker_0, # of connection points: 2
#     Edge 10, Type (0, 1), BuildingBlock: XIVTED_clean_linker_0, # of connection points: 2
#     Edge 11, Type (0, 1), BuildingBlock: XIVTED_clean_linker_0, # of connection points: 2
#     Edge 12, Type (0, 1), BuildingBlock: XIVTED_clean_linker_0, # of connection points: 2
#     Edge 13, Type (0, 1), BuildingBlock: XIVTED_clean_linker_0, # of connection points: 2
#     Edge 14, Type (0, 1), BuildingBlock: XIVTED_clean_linker_0, # of connection points: 2
#     Edge 15, Type (0, 1), BuildingBlock: XIVTED_clean_linker_0, # of connection points: 2
#     Edge 16, Type (0, 1), BuildingBlock: XIVTED_clean_linker_0, # of connection points: 2
#     Edge 17, Type (0, 1), BuildingBlock: XIVTED_clean_linker_0, # of connection points: 2
# Relax obj value: 0.041
# Max RMSD: 0.143
# Mean RMSD: 0.094
data_MOF--net-rtl--node1-VOLQOD_clean_sbu_1--node2-BETDAH_clean_linker_0--edge1-XIVTED_clean_linker_0
_symmetry_space_group_name_H-M    P1
_symmetry_Int_Tables_number       1
_symmetry_cell_setting            triclinic
loop_
_symmetry_equiv_pos_as_xyz
'x, y, z'
_cell_length_a     37.591617
_cell_length_b     37.749201
_cell_length_c     22.305111
_cell_angle_alpha  90.953418
_cell_angle_beta   92.512225
_cell_angle_gamma 89.658822
loop_
_atom_site_label
_atom_site_type_symbol
_atom_site_fract_x
_atom_site_fract_y
_atom_site_fract_z
_atom_type_partial_charge
H0 H 0.13615 0.83732 0.97631 0.0
H1 H 0.14191 0.74228 0.08048 0.0
H2 H 0.16638 0.73838 0.89441 0.0
C3 C 0.14195 0.80928 0.98003 0.0
C4 C 0.15163 0.79009 0.9288 0.0
C5 C 0.13779 0.79247 0.03497 0.0
C6 C 0.14544 0.75609 0.03899 0.0
C7 C 0.15661 0.73692 -0.01114 0.0
C8 C 0.15919 0.75373 0.93358 0.0
N9 N 0.16273 0.7001 -0.00666 0.0
C10 C 0.19704 0.68663 0.00014 0.0
H11 H 0.63698 0.66541 0.54012 0.0
H12 H 0.66457 0.76291 0.45659 0.0
H13 H 0.65415 0.75989 0.64753 0.0
C14 C 0.64485 0.69299 0.54383 0.0
C15 C 0.64572 0.71011 0.60009 0.0
C16 C 0.65089 0.71198 0.49176 0.0
C17 C 0.66006 0.74796 0.49661 0.0
C18 C 0.66186 0.765 0.55313 0.0
C19 C 0.65372 0.7463 0.60429 0.0
N20 N 0.67016 0.80138 0.55925 0.0
C21 C 0.70001 0.81559 0.53455 0.0
H22 H 0.88349 0.15421 0.00574 0.0
H23 H 0.83959 0.24916 0.08403 0.0
H24 H 0.8716 0.24794 0.901 0.0
C25 C 0.87436 0.18142 0.00195 0.0
C26 C 0.87809 0.19862 0.94765 0.0
C27 C 0.86098 0.19937 0.0519 0.0
C28 C 0.85005 0.23492 0.04603 0.0
C29 C 0.85372 0.25236 -0.00872 0.0
C30 C 0.8686 0.23437 0.94292 0.0
N31 N 0.84351 0.28821 0.98389 0.0
C32 C 0.81296 0.30262 0.00742 0.0
H33 H 0.38328 0.34606 0.52128 0.0
H34 H 0.28428 0.32319 0.60015 0.0
H35 H 0.29344 0.30972 0.41014 0.0
C36 C 0.35647 0.33574 0.51618 0.0
C37 C 0.34146 0.3277 0.45869 0.0
C38 C 0.33631 0.3337 0.56735 0.0
C39 C 0.30051 0.32367 0.56118 0.0
C40 C 0.28542 0.31451 0.50463 0.0
C41 C 0.30585 0.31619 0.45364 0.0
N42 N 0.24866 0.30712 0.49856 0.0
C43 C 0.23631 0.27277 0.49079 0.0
O44 O 0.92563 0.97733 0.49449 0.0
Zn45 Zn 0.96123 0.01641 0.49836 0.0
O46 O 0.00913 0.99769 0.4904 0.0
Zn47 Zn 0.03957 0.01378 0.55896 0.0
Zn48 Zn 0.00764 0.94579 0.48769 0.0
Zn49 Zn 0.02719 0.01529 0.41586 0.0
O50 O 0.07787 0.04613 0.53181 0.0
O51 O 0.06824 0.04872 0.43301 0.0
O52 O 0.95668 0.04205 0.57628 0.0
O53 O 0.01127 0.0422 0.6186 0.0
O54 O 0.06246 0.97207 0.60205 0.0
O55 O 0.03671 0.9254 0.55676 0.0
O56 O 0.02974 0.92686 0.41301 0.0
O57 O 0.94656 0.05 0.4328 0.0
O58 O 0.04366 0.97517 0.36366 0.0
O59 O 0.98939 0.04221 0.36835 0.0
C60 C 0.9272 0.9437 0.49093 0.0
C61 C 0.08562 0.05809 0.48095 0.0
C62 C 0.05799 0.93867 0.59696 0.0
C63 C 0.97845 0.05083 0.61907 0.0
C64 C 0.04291 0.94161 0.36817 0.0
C65 C 0.95969 0.05566 0.38234 0.0
O66 O 0.95697 0.92747 0.4888 0.0
O67 O 0.59502 0.47823 0.04211 0.0
Zn68 Zn 0.56186 0.51977 0.03808 0.0
O69 O 0.51226 0.50465 0.0348 0.0
Zn70 Zn 0.48786 0.52482 0.96464 0.0
Zn71 Zn 0.51076 0.4527 0.02835 0.0
Zn72 Zn 0.48876 0.52191 0.10665 0.0
O73 O 0.44713 0.55569 0.98675 0.0
O74 O 0.44436 0.55105 0.08534 0.0
O75 O 0.57327 0.54824 0.96579 0.0
O76 O 0.52062 0.55415 0.91774 0.0
O77 O 0.46676 0.48677 0.91083 0.0
O78 O 0.48444 0.43617 0.95213 0.0
O79 O 0.48392 0.43346 0.09656 0.0
O80 O 0.57285 0.55028 0.11096 0.0
O81 O 0.47368 0.48038 0.15547 0.0
O82 O 0.52183 0.55335 0.15758 0.0
C83 C 0.5912 0.44479 0.03879 0.0
C84 C 0.43212 0.56301 0.03541 0.0
C85 C 0.46755 0.45308 0.91085 0.0
C86 C 0.55381 0.56057 0.92282 0.0
C87 C 0.47202 0.44718 0.14427 0.0
C88 C 0.55443 0.56175 0.15376 0.0
O89 O 0.56042 0.43088 0.0322 0.0
H90 H 0.23439 0.22482 0.5784 0.0
H91 H 0.10517 0.09546 0.38318 0.0
H92 H 0.20249 0.2428 0.39356 0.0
H93 H 0.12976 0.0834 0.57275 0.0
H94 H 0.14694 0.14476 0.38244 0.0
H95 H 0.20243 0.16831 0.57356 0.0
C96 C 0.22095 0.21647 0.5366 0.0
C97 C 0.22083 0.23804 0.48629 0.0
C98 C 0.1434 0.13113 0.42408 0.0
C99 C 0.18406 0.17409 0.48031 0.0
C100 C 0.1196 0.10288 0.42454 0.0
C101 C 0.11362 0.08541 0.47826 0.0
C102 C 0.16141 0.142 0.47769 0.0
C103 C 0.13322 0.09623 0.53037 0.0
C104 C 0.20266 0.18438 0.53381 0.0
C105 C 0.20305 0.22657 0.43317 0.0
N106 N 0.15602 0.12395 0.52884 0.0
N107 N 0.18513 0.19536 0.4316 0.0
H108 H 0.22689 0.65947 0.10166 0.0
H109 H 0.40291 0.59773 0.93859 0.0
H110 H 0.2464 0.67983 0.9166 0.0
H111 H 0.38594 0.57787 0.12529 0.0
H112 H 0.34695 0.63033 0.93176 0.0
H113 H 0.28607 0.63178 0.11329 0.0
C114 C 0.24387 0.65818 0.06365 0.0
C115 C 0.23219 0.67167 0.00814 0.0
C116 C 0.35545 0.61901 0.97435 0.0
C117 C 0.29938 0.64023 0.02069 0.0
C118 C 0.3875 0.60031 0.97835 0.0
C119 C 0.39915 0.58477 0.03259 0.0
C120 C 0.3346 0.6222 0.02484 0.0
C121 C 0.37801 0.58932 0.08255 0.0
C122 C 0.27753 0.64244 0.07021 0.0
C123 C 0.25474 0.66956 0.96007 0.0
N124 N 0.34664 0.60745 0.07738 0.0
N125 N 0.2873 0.65399 0.96737 0.0
H126 H 0.76466 0.78455 0.5292 0.0
H127 H 0.85953 0.97003 0.47962 0.0
H128 H 0.70848 0.88307 0.50135 0.0
H129 H 0.91775 0.87157 0.49849 0.0
H130 H 0.804 0.93752 0.48111 0.0
H131 H 0.82093 0.81454 0.51091 0.0
C132 C 0.7643 0.81241 0.51822 0.0
C133 C 0.73233 0.83159 0.5164 0.0
C134 C 0.82886 0.92291 0.48467 0.0
C135 C 0.79601 0.86604 0.49655 0.0
C136 C 0.86069 0.9415 0.48401 0.0
C137 C 0.89347 0.92356 0.48947 0.0
C138 C 0.82957 0.88601 0.49123 0.0
C139 C 0.89313 0.88652 0.49441 0.0
C140 C 0.79628 0.82953 0.50805 0.0
C141 C 0.73282 0.86754 0.50277 0.0
N142 N 0.86165 0.86897 0.49561 0.0
N143 N 0.76425 0.88372 0.4937 0.0
H144 H 0.74633 0.27644 -0.00547 0.0
H145 H 0.65942 0.46502 0.06834 0.0
H146 H 0.80625 0.36812 0.05504 0.0
H147 H 0.59684 0.37284 0.01768 0.0
H148 H 0.71291 0.42851 0.06993 0.0
H149 H 0.6908 0.30947 0.00971 0.0
C150 C 0.74761 0.30338 0.01204 0.0
C151 C 0.78048 0.31979 0.02393 0.0
C152 C 0.68752 0.41614 0.05873 0.0
C153 C 0.7177 0.35777 0.04032 0.0
C154 C 0.65686 0.43704 0.05762 0.0
C155 C 0.6235 0.42208 0.04232 0.0
C156 C 0.68507 0.37991 0.04403 0.0
C157 C 0.62198 0.38555 0.02948 0.0
C158 C 0.71605 0.32224 0.02045 0.0
C159 C 0.78118 0.35468 0.04576 0.0
N160 N 0.65239 0.36574 0.03018 0.0
N161 N 0.7502 0.37265 0.05291 0.0
H162 H 0.15571 0.78638 0.15579 0.0
H163 H 0.05083 0.95934 0.25158 0.0
H164 H 0.08671 0.8446 0.03205 0.0
H165 H 0.06789 0.87339 0.37506 0.0
H166 H 0.074 0.92196 0.17157 0.0
H167 H 0.13239 0.82177 0.23875 0.0
C168 C 0.13565 0.8064 0.14594 0.0
C169 C 0.12361 0.81278 0.08652 0.0
C170 C 0.07262 0.91132 0.21622 0.0
C171 C 0.09765 0.85367 0.18086 0.0
C172 C 0.05959 0.93265 0.26189 0.0
C173 C 0.05733 0.91935 0.3199 0.0
C174 C 0.08411 0.87671 0.22887 0.0
C175 C 0.06896 0.88452 0.33075 0.0
C176 C 0.12252 0.82662 0.19325 0.0
C177 C 0.09775 0.83936 0.07665 0.0
N178 N 0.08213 0.86438 0.28564 0.0
N179 N 0.08593 0.85901 0.12319 0.0
H180 H 0.59472 0.72841 0.67784 0.0
H181 H 0.62316 0.56216 0.88989 0.0
H182 H 0.67282 0.64751 0.64213 0.0
H183 H 0.52054 0.61147 0.85557 0.0
H184 H 0.64826 0.60053 0.81468 0.0
H185 H 0.57397 0.69316 0.76066 0.0
C186 C 0.6078 0.70346 0.68815 0.0
C187 C 0.6354 0.69067 0.65339 0.0
C188 C 0.62029 0.60287 0.82392 0.0
C189 C 0.612 0.65051 0.74747 0.0
C190 C 0.606 0.58115 0.86676 0.0
C191 C 0.5697 0.58356 0.87855 0.0
C192 C 0.59824 0.62762 0.79397 0.0
C193 C 0.54859 0.60854 0.84736 0.0
C194 C 0.59583 0.68332 0.73493 0.0
C195 C 0.65131 0.65805 0.66793 0.0
N196 N 0.56322 0.62977 0.8067 0.0
N197 N 0.63941 0.63901 0.71412 0.0
H198 H 0.88312 0.22592 0.16275 0.0
H199 H 0.95313 0.04427 0.26205 0.0
H200 H 0.84263 0.13097 0.07417 0.0
H201 H 0.92027 0.11557 0.40252 0.0
H202 H 0.91929 0.07994 0.18844 0.0
H203 H 0.90067 0.19064 0.25085 0.0
C204 C 0.87692 0.19794 0.16243 0.0
C205 C 0.86218 0.18118 0.11047 0.0
C206 C 0.91933 0.08759 0.23548 0.0
C207 C 0.88316 0.14094 0.2097 0.0
C208 C 0.93883 0.06752 0.27724 0.0
C209 C 0.93944 0.07716 0.33814 0.0
C210 C 0.90123 0.11808 0.25454 0.0
C211 C 0.92027 0.10736 0.35578 0.0
C212 C 0.88716 0.17786 0.21251 0.0
C213 C 0.85493 0.14477 0.11258 0.0
N214 N 0.90233 0.12725 0.3139 0.0
N215 N 0.86641 0.12567 0.16066 0.0
H216 H 0.39835 0.3111 0.62246 0.0
H217 H 0.41223 0.47784 0.84016 0.0
H218 H 0.31114 0.38431 0.64333 0.0
H219 H 0.47506 0.38364 0.87445 0.0
H220 H 0.37734 0.44533 0.76287 0.0
H221 H 0.42895 0.33776 0.7114 0.0
C222 C 0.38547 0.33243 0.64649 0.0
C223 C 0.35227 0.34562 0.62586 0.0
C224 C 0.39864 0.43172 0.78752 0.0
C225 C 0.38725 0.3766 0.72619 0.0
C226 C 0.41879 0.45033 0.83127 0.0
C227 C 0.44676 0.43346 0.86353 0.0
C228 C 0.40685 0.39614 0.77508 0.0
C229 C 0.45376 0.39764 0.85055 0.0
C230 C 0.40287 0.34759 0.69706 0.0
C231 C 0.33662 0.37329 0.6582 0.0
N232 N 0.43414 0.38021 0.8068 0.0
N233 N 0.3545 0.38826 0.70633 0.0
H234 H 0.60177 0.73284 0.40658 0.0
H235 H 0.62485 0.56556 0.18911 0.0
H236 H 0.68001 0.65153 0.44539 0.0
H237 H 0.52247 0.61277 0.22149 0.0
H238 H 0.65226 0.60558 0.26549 0.0
H239 H 0.5799 0.69809 0.31865 0.0
C240 C 0.61493 0.70812 0.39549 0.0
C241 C 0.64273 0.69493 0.4328 0.0
C242 C 0.62384 0.60717 0.25552 0.0
C243 C 0.61787 0.65524 0.33327 0.0
C244 C 0.60819 0.58446 0.21208 0.0
C245 C 0.5713 0.58574 0.1994 0.0
C246 C 0.60255 0.63184 0.28528 0.0
C247 C 0.55094 0.61069 0.23042 0.0
C248 C 0.60223 0.68821 0.34592 0.0
C249 C 0.65855 0.66249 0.4174 0.0
N250 N 0.56688 0.63293 0.27176 0.0
N251 N 0.64586 0.64364 0.36868 0.0
H252 H 0.85018 0.13914 0.89566 0.0
H253 H 0.01581 0.09541 0.69706 0.0
H254 H 0.93745 0.21198 0.88509 0.0
H255 H 0.91027 0.0552 0.65458 0.0
H256 H 0.99122 0.13312 0.77624 0.0
H257 H 0.87531 0.10283 0.81589 0.0
C258 C 0.87455 0.14751 0.87602 0.0
C259 C 0.89178 0.17852 0.8963 0.0
C260 C 0.97359 0.11599 0.74942 0.0
C261 C 0.92097 0.137 0.80632 0.0
C262 C 0.98759 0.09432 0.70471 0.0
C263 C 0.965 0.07223 0.66925 0.0
C264 C 0.93697 0.11492 0.75922 0.0
C265 C 0.92859 0.07198 0.68066 0.0
C266 C 0.88886 0.12687 0.83069 0.0
C267 C 0.92334 0.18834 0.86994 0.0
N268 N 0.91575 0.09287 0.72485 0.0
N269 N 0.93721 0.1674 0.82645 0.0
H270 H 0.41387 0.32192 0.44466 0.0
H271 H 0.42409 0.39487 0.11783 0.0
H272 H 0.31612 0.352 0.34873 0.0
H273 H 0.48041 0.44754 0.26616 0.0
H274 H 0.39264 0.3589 0.18977 0.0
H275 H 0.44748 0.34755 0.36478 0.0
C276 C 0.39934 0.33349 0.40679 0.0
C277 C 0.3619 0.3356 0.40467 0.0
C278 C 0.41221 0.37809 0.20614 0.0
C279 C 0.40046 0.36322 0.31211 0.0
C280 C 0.43012 0.39845 0.16549 0.0
C281 C 0.45463 0.42416 0.18651 0.0
C282 C 0.41996 0.38276 0.26773 0.0
C283 C 0.46148 0.42809 0.24849 0.0
C284 C 0.41864 0.34784 0.3612 0.0
C285 C 0.3448 0.3496 0.35278 0.0
N286 N 0.44439 0.40735 0.28712 0.0
N287 N 0.36426 0.36308 0.30863 0.0
H288 H 0.17864 0.85451 0.90003 0.0
H289 H 0.05421 0.86624 0.60149 0.0
H290 H 0.11786 0.76672 0.82468 0.0
H291 H 0.10716 0.9561 0.68723 0.0
H292 H 0.08493 0.82734 0.67333 0.0
H293 H 0.16158 0.88935 0.81185 0.0
C294 C 0.16228 0.84235 0.86425 0.0
C295 C 0.14925 0.80785 0.86995 0.0
C296 C 0.09002 0.85553 0.67617 0.0
C297 C 0.12918 0.84768 0.76936 0.0
C298 C 0.07241 0.87784 0.63523 0.0
C299 C 0.07773 0.91464 0.63869 0.0
C300 C 0.11318 0.87004 0.72105 0.0
C301 C 0.1019 0.92798 0.68313 0.0
C302 C 0.15242 0.86228 0.81407 0.0
C303 C 0.1285 0.7932 0.82205 0.0
N304 N 0.11852 0.90573 0.72277 0.0
N305 N 0.11864 0.81339 0.77415 0.0
loop_
_geom_bond_atom_site_label_1
_geom_bond_atom_site_label_2
_geom_bond_distance
_geom_bond_site_symmetry_2
_ccdc_geom_bond_type
H0 C3 0.929 . S
H1 C6 0.929 . S
H2 C8 0.930 . S
C3 H0 0.929 . S
C3 C4 1.398 1_554 S
C3 C5 1.396 . S
C4 C3 1.398 1_556 S
C4 C8 1.407 . S
C5 C3 1.396 . S
C5 C6 1.394 . S
C6 H1 0.929 . S
C6 C5 1.394 . S
C6 C7 1.382 . S
C7 C6 1.382 . S
C7 C8 1.392 1_554 S
C7 N9 1.420 1_554 S
C8 H2 0.930 . S
C8 C4 1.407 . S
C8 C7 1.392 1_556 S
N9 C7 1.420 1_556 S
N9 C10 1.244 1_556 S
C10 N9 1.244 1_554 S
H11 C14 0.929 . S
H12 C17 0.929 . S
H13 C19 0.930 . S
C14 H11 0.929 . S
C14 C15 1.398 . S
C14 C16 1.396 . S
C15 C14 1.398 . S
C15 C19 1.407 . S
C16 C14 1.396 . S
C16 C17 1.394 . S
C17 H12 0.929 . S
C17 C16 1.394 . S
C17 C18 1.382 . S
C18 C17 1.382 . S
C18 C19 1.392 . S
C18 N20 1.420 . S
C19 H13 0.930 . S
C19 C15 1.407 . S
C19 C18 1.392 . S
N20 C18 1.420 . S
N20 C21 1.244 . S
C21 N20 1.244 . S
H22 C25 0.929 . S
H23 C28 0.929 . S
H24 C30 0.930 . S
C25 H22 0.929 . S
C25 C26 1.398 1_554 S
C25 C27 1.396 . S
C26 C25 1.398 1_556 S
C26 C30 1.407 . S
C27 C25 1.396 . S
C27 C28 1.394 . S
C28 H23 0.929 . S
C28 C27 1.394 . S
C28 C29 1.382 . S
C29 C28 1.382 . S
C29 C30 1.392 1_554 S
C29 N31 1.420 1_554 S
C30 H24 0.930 . S
C30 C26 1.407 . S
C30 C29 1.392 1_556 S
N31 C29 1.420 1_556 S
N31 C32 1.244 1_556 S
C32 N31 1.244 1_554 S
H33 C36 0.929 . S
H34 C39 0.929 . S
H35 C41 0.930 . S
C36 H33 0.929 . S
C36 C37 1.398 . S
C36 C38 1.396 . S
C37 C36 1.398 . S
C37 C41 1.407 . S
C38 C36 1.396 . S
C38 C39 1.394 . S
C39 H34 0.929 . S
C39 C38 1.394 . S
C39 C40 1.382 . S
C40 C39 1.382 . S
C40 C41 1.392 . S
C40 N42 1.420 . S
C41 H35 0.930 . S
C41 C37 1.407 . S
C41 C40 1.392 . S
N42 C40 1.420 . S
N42 C43 1.244 . S
C43 N42 1.244 . S
O44 Zn45 1.953 1_565 S
O44 C60 1.225 . S
Zn45 O44 1.953 1_545 S
Zn45 O46 1.949 1_655 S
Zn45 O52 1.919 . S
Zn45 O57 1.924 . S
O46 Zn45 1.949 1_455 S
O46 Zn47 1.923 . S
O46 Zn48 1.950 1_545 S
O46 Zn49 1.945 . S
Zn47 O46 1.923 . S
Zn47 O50 1.933 . S
Zn47 O53 1.925 1_455 S
Zn47 O54 1.965 1_545 S
Zn48 O46 1.950 1_565 S
Zn48 O55 1.938 . S
Zn48 O56 1.906 . S
Zn48 O66 1.953 1_455 S
Zn49 O46 1.945 . S
Zn49 O51 1.932 . S
Zn49 O58 1.977 1_545 S
Zn49 O59 1.910 1_455 S
O50 Zn47 1.933 . S
O50 C61 1.226 . S
O51 Zn49 1.932 . S
O51 C61 1.307 . S
O52 Zn45 1.919 . S
O52 C63 1.253 . S
O53 Zn47 1.925 1_655 S
O53 C63 1.306 . S
O54 Zn47 1.965 1_565 S
O54 C62 1.303 . S
O55 Zn48 1.938 . S
O55 C62 1.247 . S
O56 Zn48 1.906 . S
O56 C64 1.304 . S
O57 Zn45 1.924 . S
O57 C65 1.311 . S
O58 Zn49 1.977 1_565 S
O58 C64 1.272 . S
O59 Zn49 1.910 1_655 S
O59 C65 1.231 . S
C60 O44 1.225 . S
C60 O66 1.298 . S
C61 O50 1.226 . S
C61 O51 1.307 . S
C62 O54 1.303 . S
C62 O55 1.247 . S
C63 O52 1.253 . S
C63 O53 1.306 . S
C64 O56 1.304 . S
C64 O58 1.272 . S
C65 O57 1.311 . S
C65 O59 1.231 . S
O66 Zn48 1.953 1_655 S
O66 C60 1.298 . S
O67 Zn68 1.953 . S
O67 C83 1.225 . S
Zn68 O67 1.953 . S
Zn68 O69 1.949 . S
Zn68 O75 1.919 1_554 S
Zn68 O80 1.924 . S
O69 Zn68 1.949 . S
O69 Zn70 1.923 1_554 S
O69 Zn71 1.950 . S
O69 Zn72 1.945 . S
Zn70 O69 1.923 1_556 S
Zn70 O73 1.933 . S
Zn70 O76 1.941 . S
Zn70 O77 1.965 . S
Zn71 O69 1.950 . S
Zn71 O78 1.938 1_554 S
Zn71 O79 1.906 . S
Zn71 O89 1.953 . S
Zn72 O69 1.945 . S
Zn72 O74 1.932 . S
Zn72 O81 1.977 . S
Zn72 O82 1.910 . S
O73 Zn70 1.933 . S
O73 C84 1.226 1_556 S
O74 Zn72 1.932 . S
O74 C84 1.307 . S
O75 Zn68 1.919 1_556 S
O75 C86 1.253 . S
O76 Zn70 1.941 . S
O76 C86 1.283 . S
O77 Zn70 1.965 . S
O77 C85 1.303 . S
O78 Zn71 1.938 1_556 S
O78 C85 1.247 . S
O79 Zn71 1.906 . S
O79 C87 1.304 . S
O80 Zn68 1.924 . S
O80 C88 1.311 . S
O81 Zn72 1.977 . S
O81 C87 1.272 . S
O82 Zn72 1.910 . S
O82 C88 1.231 . S
C83 O67 1.225 . S
C83 O89 1.298 . S
C84 O73 1.226 1_554 S
C84 O74 1.307 . S
C85 O77 1.303 . S
C85 O78 1.247 . S
C86 O75 1.253 . S
C86 O76 1.283 . S
C87 O79 1.304 . S
C87 O81 1.272 . S
C88 O80 1.311 . S
C88 O82 1.231 . S
O89 Zn71 1.953 . S
O89 C83 1.298 . S
H90 C96 0.930 . S
H91 C100 0.930 . S
H92 C105 0.929 . S
H93 C103 0.929 . S
H94 C98 0.929 . S
H95 C104 0.929 . S
C96 H90 0.930 . S
C96 C97 1.367 . S
C96 C104 1.378 . S
C97 C96 1.367 . S
C97 C105 1.433 . S
C98 H94 0.929 . S
C98 C100 1.378 . S
C98 C102 1.350 . S
C99 C102 1.463 . S
C99 C104 1.350 . S
C99 N107 1.427 . S
C100 H91 0.930 . S
C100 C98 1.378 . S
C100 C101 1.367 . S
C101 C100 1.367 . S
C101 C103 1.433 . S
C102 C98 1.350 . S
C102 C99 1.463 . S
C102 N106 1.427 . S
C103 H93 0.929 . S
C103 C101 1.433 . S
C103 N106 1.384 . S
C104 H95 0.929 . S
C104 C96 1.378 . S
C104 C99 1.350 . S
C105 H92 0.929 . S
C105 C97 1.433 . S
C105 N107 1.384 . S
N106 C102 1.427 . S
N106 C103 1.384 . S
N107 C99 1.427 . S
N107 C105 1.384 . S
H108 C114 0.930 . S
H109 C118 0.930 1_556 S
H110 C123 0.929 1_556 S
H111 C121 0.929 . S
H112 C116 0.929 1_556 S
H113 C122 0.929 . S
C114 H108 0.930 . S
C114 C115 1.367 . S
C114 C122 1.378 . S
C115 C114 1.367 . S
C115 C123 1.433 . S
C116 H112 0.929 1_554 S
C116 C118 1.378 . S
C116 C120 1.350 . S
C117 C120 1.463 . S
C117 C122 1.350 . S
C117 N125 1.427 . S
C118 H109 0.930 1_554 S
C118 C116 1.378 . S
C118 C119 1.367 . S
C119 C118 1.367 . S
C119 C121 1.433 . S
C120 C116 1.350 . S
C120 C117 1.463 . S
C120 N124 1.427 . S
C121 H111 0.929 . S
C121 C119 1.433 . S
C121 N124 1.384 . S
C122 H113 0.929 . S
C122 C114 1.378 . S
C122 C117 1.350 . S
C123 H110 0.929 1_554 S
C123 C115 1.433 . S
C123 N125 1.384 . S
N124 C120 1.427 . S
N124 C121 1.384 . S
N125 C117 1.427 . S
N125 C123 1.384 . S
H126 C132 0.930 . S
H127 C136 0.930 . S
H128 C141 0.929 . S
H129 C139 0.929 . S
H130 C134 0.929 . S
H131 C140 0.929 . S
C132 H126 0.930 . S
C132 C133 1.367 . S
C132 C140 1.378 . S
C133 C132 1.367 . S
C133 C141 1.433 . S
C134 H130 0.929 . S
C134 C136 1.378 . S
C134 C138 1.350 . S
C135 C138 1.463 . S
C135 C140 1.350 . S
C135 N143 1.427 . S
C136 H127 0.930 . S
C136 C134 1.378 . S
C136 C137 1.367 . S
C137 C136 1.367 . S
C137 C139 1.433 . S
C138 C134 1.350 . S
C138 C135 1.463 . S
C138 N142 1.427 . S
C139 H129 0.929 . S
C139 C137 1.433 . S
C139 N142 1.384 . S
C140 H131 0.929 . S
C140 C132 1.378 . S
C140 C135 1.350 . S
C141 H128 0.929 . S
C141 C133 1.433 . S
C141 N143 1.384 . S
N142 C138 1.427 . S
N142 C139 1.384 . S
N143 C135 1.427 . S
N143 C141 1.384 . S
H144 C150 0.930 . S
H145 C154 0.930 . S
H146 C159 0.929 . S
H147 C157 0.929 . S
H148 C152 0.929 . S
H149 C158 0.929 . S
C150 H144 0.930 . S
C150 C151 1.367 . S
C150 C158 1.378 . S
C151 C150 1.367 . S
C151 C159 1.433 . S
C152 H148 0.929 . S
C152 C154 1.378 . S
C152 C156 1.350 . S
C153 C156 1.463 . S
C153 C158 1.350 . S
C153 N161 1.427 . S
C154 H145 0.930 . S
C154 C152 1.378 . S
C154 C155 1.367 . S
C155 C154 1.367 . S
C155 C157 1.433 . S
C156 C152 1.350 . S
C156 C153 1.463 . S
C156 N160 1.427 . S
C157 H147 0.929 . S
C157 C155 1.433 . S
C157 N160 1.384 . S
C158 H149 0.929 . S
C158 C150 1.378 . S
C158 C153 1.350 . S
C159 H146 0.929 . S
C159 C151 1.433 . S
C159 N161 1.384 . S
N160 C156 1.427 . S
N160 C157 1.384 . S
N161 C153 1.427 . S
N161 C159 1.384 . S
H162 C168 0.930 . S
H163 C172 0.930 . S
H164 C177 0.929 . S
H165 C175 0.929 . S
H166 C170 0.929 . S
H167 C176 0.929 . S
C168 H162 0.930 . S
C168 C169 1.367 . S
C168 C176 1.378 . S
C169 C168 1.367 . S
C169 C177 1.433 . S
C170 H166 0.929 . S
C170 C172 1.378 . S
C170 C174 1.350 . S
C171 C174 1.463 . S
C171 C176 1.350 . S
C171 N179 1.427 . S
C172 H163 0.930 . S
C172 C170 1.378 . S
C172 C173 1.367 . S
C173 C172 1.367 . S
C173 C175 1.433 . S
C174 C170 1.350 . S
C174 C171 1.463 . S
C174 N178 1.427 . S
C175 H165 0.929 . S
C175 C173 1.433 . S
C175 N178 1.384 . S
C176 H167 0.929 . S
C176 C168 1.378 . S
C176 C171 1.350 . S
C177 H164 0.929 . S
C177 C169 1.433 . S
C177 N179 1.384 . S
N178 C174 1.427 . S
N178 C175 1.384 . S
N179 C171 1.427 . S
N179 C177 1.384 . S
H180 C186 0.930 . S
H181 C190 0.930 . S
H182 C195 0.929 . S
H183 C193 0.929 . S
H184 C188 0.929 . S
H185 C194 0.929 . S
C186 H180 0.930 . S
C186 C187 1.367 . S
C186 C194 1.378 . S
C187 C186 1.367 . S
C187 C195 1.433 . S
C188 H184 0.929 . S
C188 C190 1.378 . S
C188 C192 1.350 . S
C189 C192 1.463 . S
C189 C194 1.350 . S
C189 N197 1.427 . S
C190 H181 0.930 . S
C190 C188 1.378 . S
C190 C191 1.367 . S
C191 C190 1.367 . S
C191 C193 1.433 . S
C192 C188 1.350 . S
C192 C189 1.463 . S
C192 N196 1.427 . S
C193 H183 0.929 . S
C193 C191 1.433 . S
C193 N196 1.384 . S
C194 H185 0.929 . S
C194 C186 1.378 . S
C194 C189 1.350 . S
C195 H182 0.929 . S
C195 C187 1.433 . S
C195 N197 1.384 . S
N196 C192 1.427 . S
N196 C193 1.384 . S
N197 C189 1.427 . S
N197 C195 1.384 . S
H198 C204 0.930 . S
H199 C208 0.930 . S
H200 C213 0.929 . S
H201 C211 0.929 . S
H202 C206 0.929 . S
H203 C212 0.929 . S
C204 H198 0.930 . S
C204 C205 1.367 . S
C204 C212 1.378 . S
C205 C204 1.367 . S
C205 C213 1.433 . S
C206 H202 0.929 . S
C206 C208 1.378 . S
C206 C210 1.350 . S
C207 C210 1.463 . S
C207 C212 1.350 . S
C207 N215 1.427 . S
C208 H199 0.930 . S
C208 C206 1.378 . S
C208 C209 1.367 . S
C209 C208 1.367 . S
C209 C211 1.433 . S
C210 C206 1.350 . S
C210 C207 1.463 . S
C210 N214 1.427 . S
C211 H201 0.929 . S
C211 C209 1.433 . S
C211 N214 1.384 . S
C212 H203 0.929 . S
C212 C204 1.378 . S
C212 C207 1.350 . S
C213 H200 0.929 . S
C213 C205 1.433 . S
C213 N215 1.384 . S
N214 C210 1.427 . S
N214 C211 1.384 . S
N215 C207 1.427 . S
N215 C213 1.384 . S
H216 C222 0.930 . S
H217 C226 0.930 . S
H218 C231 0.929 . S
H219 C229 0.929 . S
H220 C224 0.929 . S
H221 C230 0.929 . S
C222 H216 0.930 . S
C222 C223 1.367 . S
C222 C230 1.378 . S
C223 C222 1.367 . S
C223 C231 1.433 . S
C224 H220 0.929 . S
C224 C226 1.378 . S
C224 C228 1.350 . S
C225 C228 1.463 . S
C225 C230 1.350 . S
C225 N233 1.427 . S
C226 H217 0.930 . S
C226 C224 1.378 . S
C226 C227 1.367 . S
C227 C226 1.367 . S
C227 C229 1.433 . S
C228 C224 1.350 . S
C228 C225 1.463 . S
C228 N232 1.427 . S
C229 H219 0.929 . S
C229 C227 1.433 . S
C229 N232 1.384 . S
C230 H221 0.929 . S
C230 C222 1.378 . S
C230 C225 1.350 . S
C231 H218 0.929 . S
C231 C223 1.433 . S
C231 N233 1.384 . S
N232 C228 1.427 . S
N232 C229 1.384 . S
N233 C225 1.427 . S
N233 C231 1.384 . S
H234 C240 0.930 . S
H235 C244 0.930 . S
H236 C249 0.929 . S
H237 C247 0.929 . S
H238 C242 0.929 . S
H239 C248 0.929 . S
C240 H234 0.930 . S
C240 C241 1.367 . S
C240 C248 1.378 . S
C241 C240 1.367 . S
C241 C249 1.433 . S
C242 H238 0.929 . S
C242 C244 1.378 . S
C242 C246 1.350 . S
C243 C246 1.463 . S
C243 C248 1.350 . S
C243 N251 1.427 . S
C244 H235 0.930 . S
C244 C242 1.378 . S
C244 C245 1.367 . S
C245 C244 1.367 . S
C245 C247 1.433 . S
C246 C242 1.350 . S
C246 C243 1.463 . S
C246 N250 1.427 . S
C247 H237 0.929 . S
C247 C245 1.433 . S
C247 N250 1.384 . S
C248 H239 0.929 . S
C248 C240 1.378 . S
C248 C243 1.350 . S
C249 H236 0.929 . S
C249 C241 1.433 . S
C249 N251 1.384 . S
N250 C246 1.427 . S
N250 C247 1.384 . S
N251 C243 1.427 . S
N251 C249 1.384 . S
H252 C258 0.930 . S
H253 C262 0.930 . S
H254 C267 0.929 . S
H255 C265 0.929 . S
H256 C260 0.929 . S
H257 C266 0.929 . S
C258 H252 0.930 . S
C258 C259 1.367 . S
C258 C266 1.378 . S
C259 C258 1.367 . S
C259 C267 1.433 . S
C260 H256 0.929 . S
C260 C262 1.378 . S
C260 C264 1.350 . S
C261 C264 1.463 . S
C261 C266 1.350 . S
C261 N269 1.427 . S
C262 H253 0.930 . S
C262 C260 1.378 . S
C262 C263 1.367 . S
C263 C262 1.367 . S
C263 C265 1.433 . S
C264 C260 1.350 . S
C264 C261 1.463 . S
C264 N268 1.427 . S
C265 H255 0.929 . S
C265 C263 1.433 . S
C265 N268 1.384 . S
C266 H257 0.929 . S
C266 C258 1.378 . S
C266 C261 1.350 . S
C267 H254 0.929 . S
C267 C259 1.433 . S
C267 N269 1.384 . S
N268 C264 1.427 . S
N268 C265 1.384 . S
N269 C261 1.427 . S
N269 C267 1.384 . S
H270 C276 0.930 . S
H271 C280 0.930 . S
H272 C285 0.929 . S
H273 C283 0.929 . S
H274 C278 0.929 . S
H275 C284 0.929 . S
C276 H270 0.930 . S
C276 C277 1.367 . S
C276 C284 1.378 . S
C277 C276 1.367 . S
C277 C285 1.433 . S
C278 H274 0.929 . S
C278 C280 1.378 . S
C278 C282 1.350 . S
C279 C282 1.463 . S
C279 C284 1.350 . S
C279 N287 1.427 . S
C280 H271 0.930 . S
C280 C278 1.378 . S
C280 C281 1.367 . S
C281 C280 1.367 . S
C281 C283 1.433 . S
C282 C278 1.350 . S
C282 C279 1.463 . S
C282 N286 1.427 . S
C283 H273 0.929 . S
C283 C281 1.433 . S
C283 N286 1.384 . S
C284 H275 0.929 . S
C284 C276 1.378 . S
C284 C279 1.350 . S
C285 H272 0.929 . S
C285 C277 1.433 . S
C285 N287 1.384 . S
N286 C282 1.427 . S
N286 C283 1.384 . S
N287 C279 1.427 . S
N287 C285 1.384 . S
H288 C294 0.930 . S
H289 C298 0.930 . S
H290 C303 0.929 . S
H291 C301 0.929 . S
H292 C296 0.929 . S
H293 C302 0.929 . S
C294 H288 0.930 . S
C294 C295 1.367 . S
C294 C302 1.378 . S
C295 C294 1.367 . S
C295 C303 1.433 . S
C296 H292 0.929 . S
C296 C298 1.378 . S
C296 C300 1.350 . S
C297 C300 1.463 . S
C297 C302 1.350 . S
C297 N305 1.427 . S
C298 H289 0.930 . S
C298 C296 1.378 . S
C298 C299 1.367 . S
C299 C298 1.367 . S
C299 C301 1.433 . S
C300 C296 1.350 . S
C300 C297 1.463 . S
C300 N304 1.427 . S
C301 H291 0.929 . S
C301 C299 1.433 . S
C301 N304 1.384 . S
C302 H293 0.929 . S
C302 C294 1.378 . S
C302 C297 1.350 . S
C303 H290 0.929 . S
C303 C295 1.433 . S
C303 N305 1.384 . S
N304 C300 1.427 . S
N304 C301 1.384 . S
N305 C297 1.427 . S
N305 C303 1.384 . S
C101 C61 1.486 . S
C97 C43 1.485 . S
C115 C10 1.487 . S
C119 C84 1.489 . S
C133 C21 1.516 . S
C137 C60 1.519 . S
C151 C32 1.514 . S
C155 C83 1.517 . S
C173 C64 1.477 . S
C169 C5 1.503 . S
C191 C86 1.489 . S
C187 C15 1.541 . S
C205 C27 1.526 . S
C209 C65 1.489 . S
C223 C38 1.528 . S
C227 C85 1.490 . S
C245 C88 1.412 . S
C241 C16 1.437 . S
C263 C63 1.429 . S
C259 C26 1.475 . S
C281 C87 1.409 . S
C277 C37 1.438 . S
C295 C4 1.457 . S
C299 C62 1.417 . S
