# Generated by pormake.
# Topology hwx, (6,3)-cn, num edge types: 1
# Building blocks:
#     Node 0, Type 0, BuildingBlock: IZENUY_clean_sbu_0, # of connection points: 6
#     Node 1, Type 0, BuildingBlock: IZENUY_clean_sbu_0, # of connection points: 6
#     Node 2, Type 0, BuildingBlock: IZENUY_clean_sbu_0, # of connection points: 6
#     Node 3, Type 0, BuildingBlock: IZENUY_clean_sbu_0, # of connection points: 6
#     Node 4, Type 1, BuildingBlock: BETDAH_clean_linker_0, # of connection points: 3
#     Node 5, Type 1, BuildingBlock: BETDAH_clean_linker_0, # of connection points: 3
#     Node 6, Type 1, BuildingBlock: BETDAH_clean_linker_0, # of connection points: 3
#     Node 7, Type 1, BuildingBlock: BETDAH_clean_linker_0, # of connection points: 3
#     Node 8, Type 1, BuildingBlock: BETDAH_clean_linker_0, # of connection points: 3
#     Node 9, Type 1, BuildingBlock: BETDAH_clean_linker_0, # of connection points: 3
#     Node 10, Type 1, BuildingBlock: BETDAH_clean_linker_0, # of connection points: 3
#     Node 11, Type 1, BuildingBlock: BETDAH_clean_linker_0, # of connection points: 3
#     Edge 12, Type (0, 1), BuildingBlock: MIFKUJ_clean_linker_0, # of connection points: 2
#     Edge 13, Type (0, 1), BuildingBlock: MIFKUJ_clean_linker_0, # of connection points: 2
#     Edge 14, Type (0, 1), BuildingBlock: MIFKUJ_clean_linker_0, # of connection points: 2
#     Edge 15, Type (0, 1), BuildingBlock: MIFKUJ_clean_linker_0, # of connection points: 2
#     Edge 16, Type (0, 1), BuildingBlock: MIFKUJ_clean_linker_0, # of connection points: 2
#     Edge 17, Type (0, 1), BuildingBlock: MIFKUJ_clean_linker_0, # of connection points: 2
#     Edge 18, Type (0, 1), BuildingBlock: MIFKUJ_clean_linker_0, # of connection points: 2
#     Edge 19, Type (0, 1), BuildingBlock: MIFKUJ_clean_linker_0, # of connection points: 2
#     Edge 20, Type (0, 1), BuildingBlock: MIFKUJ_clean_linker_0, # of connection points: 2
#     Edge 21, Type (0, 1), BuildingBlock: MIFKUJ_clean_linker_0, # of connection points: 2
#     Edge 22, Type (0, 1), BuildingBlock: MIFKUJ_clean_linker_0, # of connection points: 2
#     Edge 23, Type (0, 1), BuildingBlock: MIFKUJ_clean_linker_0, # of connection points: 2
#     Edge 24, Type (0, 1), BuildingBlock: MIFKUJ_clean_linker_0, # of connection points: 2
#     Edge 25, Type (0, 1), BuildingBlock: MIFKUJ_clean_linker_0, # of connection points: 2
#     Edge 26, Type (0, 1), BuildingBlock: MIFKUJ_clean_linker_0, # of connection points: 2
#     Edge 27, Type (0, 1), BuildingBlock: MIFKUJ_clean_linker_0, # of connection points: 2
#     Edge 28, Type (0, 1), BuildingBlock: MIFKUJ_clean_linker_0, # of connection points: 2
#     Edge 29, Type (0, 1), BuildingBlock: MIFKUJ_clean_linker_0, # of connection points: 2
#     Edge 30, Type (0, 1), BuildingBlock: MIFKUJ_clean_linker_0, # of connection points: 2
#     Edge 31, Type (0, 1), BuildingBlock: MIFKUJ_clean_linker_0, # of connection points: 2
#     Edge 32, Type (0, 1), BuildingBlock: MIFKUJ_clean_linker_0, # of connection points: 2
#     Edge 33, Type (0, 1), BuildingBlock: MIFKUJ_clean_linker_0, # of connection points: 2
#     Edge 34, Type (0, 1), BuildingBlock: MIFKUJ_clean_linker_0, # of connection points: 2
#     Edge 35, Type (0, 1), BuildingBlock: MIFKUJ_clean_linker_0, # of connection points: 2
# Relax obj value: 0.003
# Max RMSD: 0.063
# Mean RMSD: 0.049
data_MOF--net-hwx--node1-IZENUY_clean_sbu_0--node2-BETDAH_clean_linker_0--edge1-MIFKUJ_clean_linker_0
_symmetry_space_group_name_H-M    P1
_symmetry_Int_Tables_number       1
_symmetry_cell_setting            triclinic
loop_
_symmetry_equiv_pos_as_xyz
'x, y, z'
_cell_length_a     66.812639
_cell_length_b     66.802891
_cell_length_c     27.056844
_cell_angle_alpha  91.63237
_cell_angle_beta   91.746655
_cell_angle_gamma 90.028571
loop_
_atom_site_label
_atom_site_type_symbol
_atom_site_fract_x
_atom_site_fract_y
_atom_site_fract_z
_atom_type_partial_charge
Fe0 Fe 0.23473 0.22994 0.06348 0.0
Fe1 Fe 0.23382 0.23014 0.95001 0.0
O2 O 0.22534 0.22025 0.00579 0.0
Fe3 Fe 0.20746 0.20065 0.00395 0.0
O4 O 0.18974 0.21577 0.03813 0.0
O5 O 0.21145 0.22592 0.09612 0.0
O6 O 0.22547 0.25479 0.05027 0.0
C7 C 0.23017 0.26464 0.01329 0.0
C8 C 0.23377 0.19022 0.0835 0.0
O9 O 0.23733 0.2559 0.97549 0.0
C10 C 0.23114 0.18822 0.92858 0.0
O11 O 0.25972 0.23583 0.04139 0.0
O12 O 0.25964 0.22348 0.96526 0.0
O13 O 0.21698 0.18902 0.06064 0.0
O14 O 0.24456 0.20564 0.08075 0.0
C15 C 0.19384 0.22554 0.92681 0.0
O16 O 0.23185 0.20617 0.91456 0.0
O17 O 0.224 0.18421 0.96979 0.0
C18 C 0.26905 0.22927 0.00425 0.0
O19 O 0.20855 0.23743 0.93093 0.0
O20 O 0.19453 0.2087 0.94709 0.0
C21 C 0.19352 0.2235 0.08047 0.0
Fe22 Fe 0.27034 0.73228 0.56424 0.0
Fe23 Fe 0.29596 0.70162 0.50784 0.0
O24 O 0.27777 0.72094 0.50754 0.0
Fe25 Fe 0.26702 0.72889 0.45061 0.0
O26 O 0.27582 0.75442 0.46208 0.0
O27 O 0.26592 0.75714 0.53872 0.0
O28 O 0.29574 0.74054 0.57979 0.0
C29 C 0.31085 0.72921 0.58157 0.0
C30 C 0.23403 0.72922 0.51451 0.0
O31 O 0.31015 0.71175 0.56213 0.0
C32 C 0.26804 0.68827 0.43275 0.0
O33 O 0.27353 0.70955 0.60037 0.0
O34 O 0.28056 0.686 0.54528 0.0
O35 O 0.24243 0.73471 0.47577 0.0
O36 O 0.24435 0.72486 0.55262 0.0
C37 C 0.3079 0.7227 0.42874 0.0
O38 O 0.28528 0.68797 0.45346 0.0
O39 O 0.25743 0.7039 0.43483 0.0
C40 C 0.27422 0.69124 0.58711 0.0
O41 O 0.31259 0.71584 0.47045 0.0
O42 O 0.2897 0.72455 0.41512 0.0
C43 C 0.27214 0.76506 0.50005 0.0
Fe44 Fe 0.76869 0.77903 0.97353 0.0
Fe45 Fe 0.76869 0.78316 0.08696 0.0
O46 O 0.7778 0.7906 0.02943 0.0
Fe47 Fe 0.79618 0.80965 0.02768 0.0
O48 O 0.77968 0.82539 0.99113 0.0
O49 O 0.77094 0.80165 0.93676 0.0
O50 O 0.7433 0.78686 0.98539 0.0
C51 C 0.73385 0.78277 0.02346 0.0
C52 C 0.8084 0.78182 0.95388 0.0
O53 O 0.7431 0.77753 0.06269 0.0
C54 C 0.81048 0.78858 0.10608 0.0
O55 O 0.76464 0.75436 1.00015 0.0
O56 O 0.77677 0.75749 0.07637 0.0
O57 O 0.80817 0.79944 0.97234 0.0
O58 O 0.79355 0.77038 0.95788 0.0
C59 C 0.77111 0.82361 0.10414 0.0
O60 O 0.79273 0.78743 0.1213 0.0
O61 O 0.81379 0.79502 0.06375 0.0
C62 C 0.77163 0.74661 0.03925 0.0
O63 O 0.75996 0.80834 0.10183 0.0
O64 O 0.78775 0.82347 0.08292 0.0
C65 C 0.77192 0.82004 0.9497 0.0
Fe66 Fe 0.70671 0.30867 0.4857 0.0
Fe67 Fe 0.73377 0.27913 0.54069 0.0
O68 O 0.725 0.28947 0.48449 0.0
Fe69 Fe 0.73451 0.28067 0.42741 0.0
O70 O 0.74338 0.30553 0.4126 0.0
O71 O 0.71575 0.32138 0.4315 0.0
O72 O 0.72301 0.32507 0.5236 0.0
C73 C 0.73008 0.3205 0.56555 0.0
C74 C 0.69288 0.28586 0.40626 0.0
O75 O 0.73099 0.30236 0.57781 0.0
C76 C 0.73139 0.24526 0.47504 0.0
O77 O 0.69418 0.29942 0.54008 0.0
O78 O 0.70883 0.27072 0.55517 0.0
O79 O 0.71075 0.28394 0.39214 0.0
O80 O 0.68925 0.29363 0.44806 0.0
C81 C 0.7689 0.28197 0.49239 0.0
O82 O 0.73828 0.25395 0.51414 0.0
O83 O 0.72631 0.25524 0.43785 0.0
C84 C 0.69403 0.28233 0.55921 0.0
O85 O 0.75918 0.28696 0.53001 0.0
O86 O 0.75994 0.2757 0.45286 0.0
C87 C 0.7325 0.32096 0.4109 0.0
H88 H 0.2293 0.57242 0.01956 0.0
H89 H 0.22921 0.5117 0.06889 0.0
H90 H 0.23359 0.52335 0.91419 0.0
C91 C 0.2298 0.55648 0.01107 0.0
C92 C 0.23172 0.54973 0.96188 0.0
C93 C 0.22906 0.543 0.04994 0.0
C94 C 0.22976 0.52221 0.03921 0.0
C95 C 0.23082 0.51524 0.98963 0.0
C96 C 0.23196 0.52902 0.95177 0.0
N97 N 0.23077 0.49463 0.9751 0.0
C98 C 0.2318 0.47812 0.00522 0.0
H99 H 0.92953 0.7575 0.52737 0.0
H100 H 0.98674 0.77215 0.4687 0.0
H101 H 0.98092 0.76537 0.62506 0.0
C102 C 0.94544 0.76031 0.53285 0.0
C103 C 0.95379 0.76064 0.58096 0.0
C104 C 0.95696 0.76485 0.49209 0.0
C105 C 0.97772 0.76797 0.49938 0.0
C106 C 0.98643 0.76765 0.54744 0.0
C107 C 0.97438 0.76421 0.58793 0.0
N108 N 0.00622 0.77466 0.55696 0.0
C109 C 0.02327 0.76457 0.54192 0.0
H110 H 0.76927 0.44154 0.01963 0.0
H111 H 0.74928 0.48969 0.9282 0.0
H112 H 0.75825 0.49995 0.0845 0.0
C113 C 0.76522 0.45711 0.01532 0.0
C114 C 0.76442 0.4698 0.05762 0.0
C115 C 0.75974 0.46395 0.96819 0.0
C116 C 0.75422 0.48411 0.96374 0.0
C117 C 0.75431 0.49729 0.00492 0.0
C118 C 0.75922 0.49009 0.05217 0.0
N119 N 0.74764 0.51716 0.99728 0.0
C120 C 0.75303 0.53404 0.02587 0.0
H121 H 0.07284 0.24626 0.51984 0.0
H122 H 0.01587 0.26722 0.57017 0.0
H123 H 0.0263 0.26169 0.41436 0.0
C124 C 0.05774 0.25134 0.51143 0.0
C125 C 0.05105 0.25283 0.46204 0.0
C126 C 0.04526 0.25663 0.55047 0.0
C127 C 0.02544 0.26277 0.54019 0.0
C128 C 0.01863 0.26442 0.49067 0.0
C129 C 0.03152 0.25966 0.45221 0.0
N130 N 0.99974 0.27274 0.4777 0.0
C131 C 0.98201 0.26968 0.50195 0.0
H132 H 0.73746 0.94061 0.51386 0.0
H133 H 0.72841 1.00013 0.4611 0.0
H134 H 0.7272 0.98946 0.61708 0.0
C135 C 0.73445 0.95631 0.52163 0.0
C136 C 0.73277 0.96332 0.57071 0.0
C137 C 0.73271 0.96941 0.48211 0.0
C138 C 0.72975 0.99 0.49159 0.0
C139 C 0.72775 0.99719 0.54069 0.0
C140 C 0.7291 0.98378 0.5796 0.0
N141 N 0.7236 0.01754 0.55295 0.0
C142 C 0.72666 0.03388 0.52335 0.0
H143 H 0.57349 0.25046 0.98901 0.0
H144 H 0.51466 0.2579 0.04818 0.0
H145 H 0.52357 0.2649 0.893 0.0
C146 C 0.55754 0.25283 0.98342 0.0
C147 C 0.55001 0.257 0.93591 0.0
C148 C 0.54501 0.25318 0.02434 0.0
C149 C 0.52443 0.25724 0.01695 0.0
C150 C 0.51675 0.26134 0.96925 0.0
C151 C 0.52962 0.26144 0.9294 0.0
N152 N 0.49657 0.26708 0.96026 0.0
C153 C 0.48008 0.25923 0.98315 0.0
H154 H 0.25449 0.06606 0.5052 0.0
H155 H 0.28055 0.01497 0.57643 0.0
H156 H 0.28666 0.02207 0.42029 0.0
C157 C 0.26217 0.05177 0.50297 0.0
C158 C 0.26942 0.04503 0.45734 0.0
C159 C 0.2662 0.04123 0.54636 0.0
C160 C 0.27697 0.02313 0.54327 0.0
C161 C 0.28399 0.01604 0.49755 0.0
C162 C 0.28054 0.02722 0.45505 0.0
N163 N 0.29682 0.9992 0.49499 0.0
C164 C 0.29008 0.97964 0.49912 0.0
H165 H 0.42864 0.75176 0.99809 0.0
H166 H 0.48512 0.77199 0.94532 0.0
H167 H 0.47618 0.76866 0.10153 0.0
C168 C 0.44382 0.75699 0.00569 0.0
C169 C 0.45095 0.75923 0.0548 0.0
C170 C 0.45584 0.76179 0.96597 0.0
C171 C 0.47584 0.76783 0.97553 0.0
C172 C 0.48316 0.77013 0.02479 0.0
C173 C 0.47062 0.76602 0.06385 0.0
N174 N 0.502 0.77906 0.03687 0.0
C175 C 0.51995 0.77429 0.01476 0.0
H176 H 0.19633 0.2407 0.17296 0.0
H177 H 0.17023 0.24372 0.2336 0.0
H178 H 0.1275 0.21707 0.12861 0.0
H179 H 0.1536 0.21414 0.06706 0.0
H180 H 0.11144 0.24846 0.18033 0.0
H181 H 0.14746 0.1892 0.21708 0.0
H182 H 0.17726 0.16832 0.23295 0.0
H183 H 0.19231 0.20415 0.36303 0.0
H184 H 0.16283 0.22553 0.34741 0.0
H185 H 0.04215 0.23343 0.37328 0.0
H186 H 0.06462 0.22665 0.30498 0.0
H187 H 0.11333 0.25451 0.38961 0.0
H188 H 0.09097 0.26174 0.45748 0.0
H189 H 0.12426 0.21871 0.3443 0.0
H190 H 0.0894 0.27968 0.3008 0.0
H191 H 0.05939 0.30009 0.28348 0.0
H192 H 0.0415 0.25926 0.16482 0.0
H193 H 0.07129 0.23844 0.18191 0.0
C194 C 0.18137 0.23556 0.16248 0.0
C195 C 0.17712 0.22696 0.11528 0.0
C196 C 0.16648 0.23724 0.19733 0.0
C197 C 0.14705 0.23023 0.18594 0.0
C198 C 0.14247 0.22242 0.13822 0.0
C199 C 0.15739 0.22076 0.10314 0.0
C200 C 0.13175 0.23083 0.22448 0.0
C201 C 0.11406 0.24165 0.21587 0.0
C202 C 0.13528 0.22203 0.27096 0.0
C203 C 0.15298 0.20909 0.28083 0.0
C204 C 0.1572 0.19274 0.24887 0.0
C205 C 0.17404 0.1808 0.25783 0.0
C206 C 0.18669 0.18492 0.29894 0.0
C207 C 0.18251 0.20098 0.33119 0.0
C208 C 0.16572 0.21302 0.3223 0.0
C209 C 0.05761 0.23825 0.37722 0.0
C210 C 0.06474 0.24815 0.4209 0.0
C211 C 0.07044 0.23428 0.33825 0.0
C212 C 0.0906 0.24016 0.3422 0.0
C213 C 0.09783 0.24975 0.38595 0.0
C214 C 0.08503 0.2538 0.4248 0.0
C215 C 0.1042 0.23674 0.30054 0.0
C216 C 0.12156 0.22532 0.30856 0.0
C217 C 0.10028 0.24482 0.25342 0.0
C218 C 0.08244 0.25739 0.243 0.0
C219 C 0.07898 0.27496 0.27128 0.0
C220 C 0.06203 0.28662 0.26146 0.0
C221 C 0.04851 0.28094 0.22318 0.0
C222 C 0.05196 0.26362 0.19453 0.0
C223 C 0.06888 0.25189 0.20425 0.0
H224 H 0.0354 0.28999 0.21563 0.0
H225 H 0.1997 0.17564 0.30584 0.0
H226 H 0.2749 0.69534 0.68769 0.0
H227 H 0.26758 0.66983 0.74768 0.0
H228 H 0.25527 0.62688 0.6287 0.0
H229 H 0.26303 0.65226 0.56816 0.0
H230 H 0.22517 0.63044 0.70747 0.0
H231 H 0.29599 0.62066 0.6848 0.0
H232 H 0.33185 0.6294 0.68366 0.0
H233 H 0.3304 0.64962 0.83554 0.0
H234 H 0.29447 0.64132 0.8374 0.0
H235 H 0.21799 0.54689 0.86464 0.0
H236 H 0.22472 0.56961 0.79816 0.0
H237 H 0.2571 0.6089 0.90169 0.0
H238 H 0.25203 0.5855 0.96716 0.0
H239 H 0.27719 0.60569 0.82517 0.0
H240 H 0.2077 0.61864 0.85079 0.0
H241 H 0.17192 0.61048 0.85788 0.0
H242 H 0.16978 0.58737 0.70808 0.0
H243 H 0.20564 0.59515 0.70031 0.0
C244 C 0.27062 0.68047 0.67421 0.0
C245 C 0.26953 0.67579 0.62318 0.0
C246 C 0.26653 0.66592 0.70855 0.0
C247 C 0.26097 0.6465 0.69254 0.0
C248 C 0.25958 0.6418 0.64167 0.0
C249 C 0.26407 0.65627 0.60723 0.0
C250 C 0.2564 0.63126 0.72925 0.0
C251 C 0.23655 0.62475 0.73284 0.0
C252 C 0.27117 0.62442 0.7632 0.0
C253 C 0.29249 0.6305 0.7611 0.0
C254 C 0.30323 0.62726 0.71771 0.0
C255 C 0.3236 0.63204 0.71702 0.0
C256 C 0.33339 0.63996 0.75958 0.0
C257 C 0.3228 0.64342 0.80267 0.0
C258 C 0.30244 0.63868 0.80355 0.0
C259 C 0.22673 0.56025 0.87328 0.0
C260 C 0.23443 0.56425 0.92162 0.0
C261 C 0.23029 0.57344 0.83523 0.0
C262 C 0.2412 0.59118 0.84484 0.0
C263 C 0.24861 0.59536 0.89316 0.0
C264 C 0.24542 0.58202 0.93091 0.0
C265 C 0.24578 0.60504 0.8045 0.0
C266 C 0.2657 0.61129 0.79998 0.0
C267 C 0.23095 0.61201 0.77056 0.0
C268 C 0.20941 0.60727 0.77517 0.0
C269 C 0.19964 0.61166 0.8195 0.0
C270 C 0.17934 0.60713 0.82361 0.0
C271 C 0.1686 0.59836 0.7835 0.0
C272 C 0.17813 0.59414 0.73915 0.0
C273 C 0.19844 0.59861 0.73485 0.0
H274 H 0.15288 0.59487 0.78676 0.0
H275 H 0.34921 0.64335 0.75934 0.0
H276 H 0.84868 0.7784 0.08231 0.0
H277 H 0.87763 0.77403 0.13908 0.0
H278 H 0.84037 0.78681 0.26332 0.0
H279 H 0.81128 0.79069 0.20709 0.0
H280 H 0.8795 0.8103 0.254 0.0
H281 H 0.85055 0.74299 0.2518 0.0
H282 H 0.83902 0.71182 0.20895 0.0
H283 H 0.89754 0.70285 0.15082 0.0
H284 H 0.90932 0.73417 0.19275 0.0
H285 H 0.92345 0.78705 0.47859 0.0
H286 H 0.90338 0.79108 0.4035 0.0
H287 H 0.94639 0.75676 0.32076 0.0
H288 H 0.96638 0.75183 0.39762 0.0
H289 H 0.90973 0.74475 0.29497 0.0
H290 H 0.9409 0.80806 0.30545 0.0
H291 H 0.95376 0.83964 0.34361 0.0
H292 H 0.89397 0.8574 0.37855 0.0
H293 H 0.88075 0.82579 0.34129 0.0
C294 C 0.84664 0.78013 0.12177 0.0
C295 C 0.82771 0.78489 0.14029 0.0
C296 C 0.86317 0.77761 0.15404 0.0
C297 C 0.86109 0.78015 0.20524 0.0
C298 C 0.84223 0.78481 0.22385 0.0
C299 C 0.82562 0.78692 0.19172 0.0
C300 C 0.87862 0.7785 0.23967 0.0
C301 C 0.8861 0.796 0.26327 0.0
C302 C 0.88779 0.75993 0.24964 0.0
C303 C 0.88074 0.74105 0.22485 0.0
C304 C 0.8609 0.73448 0.22946 0.0
C305 C 0.85433 0.71676 0.20544 0.0
C306 C 0.86752 0.70539 0.17703 0.0
C307 C 0.88733 0.71169 0.17274 0.0
C308 C 0.89396 0.72942 0.19664 0.0
C309 C 0.92872 0.7803 0.4445 0.0
C310 C 0.94637 0.76884 0.44421 0.0
C311 C 0.91731 0.78286 0.40129 0.0
C312 C 0.92344 0.77449 0.35611 0.0
C313 C 0.94138 0.76343 0.35517 0.0
C314 C 0.95285 0.76073 0.39892 0.0
C315 C 0.91023 0.77656 0.3112 0.0
C316 C 0.90352 0.75917 0.28529 0.0
C317 C 0.90201 0.79534 0.29831 0.0
C318 C 0.90984 0.81447 0.32069 0.0
C319 C 0.9305 0.81863 0.32154 0.0
C320 C 0.93785 0.83655 0.34299 0.0
C321 C 0.92469 0.85051 0.36353 0.0
C322 C 0.90414 0.84658 0.3626 0.0
C323 C 0.8967 0.82867 0.34122 0.0
H324 H 0.93042 0.86437 0.38013 0.0
H325 H 0.86241 0.69168 0.15847 0.0
H326 H 0.73506 0.36085 0.55245 0.0
H327 H 0.7411 0.38698 0.61695 0.0
H328 H 0.7409 0.34221 0.72862 0.0
H329 H 0.73516 0.31613 0.66494 0.0
H330 H 0.71562 0.37595 0.74718 0.0
H331 H 0.78366 0.36046 0.69943 0.0
H332 H 0.81024 0.35704 0.63848 0.0
H333 H 0.80378 0.41906 0.60368 0.0
H334 H 0.77696 0.42278 0.66402 0.0
H335 H 0.74856 0.42426 0.96547 0.0
H336 H 0.74535 0.40158 0.89408 0.0
H337 H 0.76247 0.44898 0.79884 0.0
H338 H 0.76766 0.47138 0.87094 0.0
H339 H 0.77778 0.41651 0.76546 0.0
H340 H 0.71187 0.43387 0.81292 0.0
H341 H 0.68384 0.43874 0.86923 0.0
H342 H 0.68369 0.37587 0.89809 0.0
H343 H 0.71192 0.37066 0.84248 0.0
C344 C 0.73641 0.35659 0.59073 0.0
C345 C 0.73461 0.33641 0.60353 0.0
C346 C 0.73989 0.37151 0.62746 0.0
C347 C 0.74141 0.36648 0.67747 0.0
C348 C 0.73972 0.34638 0.69022 0.0
C349 C 0.73652 0.33149 0.65367 0.0
C350 C 0.74434 0.38206 0.71708 0.0
C351 C 0.72926 0.38474 0.75152 0.0
C352 C 0.76181 0.394 0.72142 0.0
C353 C 0.77817 0.39184 0.68585 0.0
C354 C 0.78781 0.37333 0.67853 0.0
C355 C 0.80294 0.37134 0.64414 0.0
C356 C 0.80865 0.38781 0.61712 0.0
C357 C 0.79932 0.40631 0.62459 0.0
C358 C 0.78417 0.40837 0.65891 0.0
C359 C 0.75219 0.42986 0.92968 0.0
C360 C 0.75837 0.44982 0.92436 0.0
C361 C 0.74994 0.41688 0.88853 0.0
C362 C 0.75308 0.42367 0.84071 0.0
C363 C 0.75974 0.4434 0.83523 0.0
C364 C 0.76246 0.45629 0.87658 0.0
C365 C 0.74919 0.41018 0.79666 0.0
C366 C 0.76403 0.40791 0.76117 0.0
C367 C 0.73126 0.39888 0.79069 0.0
C368 C 0.71412 0.4019 0.82379 0.0
C369 C 0.70594 0.4211 0.83149 0.0
C370 C 0.69001 0.42392 0.86327 0.0
C371 C 0.68202 0.40764 0.88731 0.0
C372 C 0.68991 0.38848 0.87948 0.0
C373 C 0.70586 0.38557 0.84778 0.0
H374 H 0.6697 0.40985 0.91192 0.0
H375 H 0.82035 0.38624 0.59046 0.0
H376 H 0.65416 0.29908 0.40883 0.0
H377 H 0.62661 0.29096 0.35033 0.0
H378 H 0.66552 0.25164 0.2681 0.0
H379 H 0.69337 0.26043 0.32536 0.0
H380 H 0.64527 0.27197 0.20653 0.0
H381 H 0.62721 0.23468 0.34664 0.0
H382 H 0.62006 0.22927 0.43416 0.0
H383 H 0.57118 0.27086 0.42567 0.0
H384 H 0.57821 0.27674 0.33827 0.0
H385 H 0.57221 0.2254 0.05518 0.0
H386 H 0.59425 0.22796 0.12888 0.0
H387 H 0.5616 0.27973 0.18043 0.0
H388 H 0.53959 0.27742 0.10621 0.0
H389 H 0.57757 0.25231 0.2585 0.0
H390 H 0.59788 0.28953 0.11625 0.0
H391 H 0.60456 0.29179 0.02743 0.0
H392 H 0.64997 0.24663 0.0406 0.0
H393 H 0.64325 0.2438 0.12933 0.0
C394 C 0.65683 0.28863 0.37839 0.0
C395 C 0.67597 0.28042 0.3717 0.0
C396 C 0.641 0.28388 0.34508 0.0
C397 C 0.64381 0.2704 0.30504 0.0
C398 C 0.66291 0.26208 0.29858 0.0
C399 C 0.67884 0.2671 0.33138 0.0
C400 C 0.6271 0.26559 0.26878 0.0
C401 C 0.6306 0.2674 0.21815 0.0
C402 C 0.60774 0.25992 0.28354 0.0
C403 C 0.60336 0.25629 0.336 0.0
C404 C 0.61502 0.24278 0.36352 0.0
C405 C 0.61098 0.23961 0.41311 0.0
C406 C 0.59521 0.24975 0.4355 0.0
C407 C 0.58341 0.26303 0.4083 0.0
C408 C 0.5874 0.26627 0.35872 0.0
C409 C 0.56937 0.23701 0.08286 0.0
C410 C 0.55437 0.25139 0.07457 0.0
C411 C 0.58194 0.23841 0.12498 0.0
C412 C 0.57972 0.25421 0.15966 0.0
C413 C 0.56353 0.26743 0.15405 0.0
C414 C 0.55094 0.26606 0.11169 0.0
C415 C 0.59597 0.2586 0.19698 0.0
C416 C 0.59234 0.25682 0.24742 0.0
C417 C 0.61533 0.26401 0.1822 0.0
C418 C 0.61993 0.26632 0.12932 0.0
C419 C 0.60922 0.28 0.10015 0.0
C420 C 0.613 0.28139 0.04981 0.0
C421 C 0.62764 0.26932 0.02836 0.0
C422 C 0.63861 0.25594 0.05726 0.0
C423 C 0.63482 0.25445 0.10757 0.0
H424 H 0.63052 0.27035 0.98936 0.0
H425 H 0.59211 0.2473 0.47388 0.0
H426 H 0.23887 0.19039 0.83011 0.0
H427 H 0.24489 0.1628 0.77143 0.0
H428 H 0.24164 0.12076 0.88908 0.0
H429 H 0.23502 0.14828 0.94785 0.0
H430 H 0.27262 0.13623 0.76008 0.0
H431 H 0.22185 0.07668 0.84439 0.0
H432 H 0.19157 0.07506 0.89417 0.0
H433 H 0.17226 0.13195 0.84031 0.0
H434 H 0.20228 0.13378 0.78976 0.0
H435 H 0.29039 0.04595 0.6292 0.0
H436 H 0.28443 0.06768 0.7017 0.0
H437 H 0.22507 0.08058 0.64416 0.0
H438 H 0.23083 0.05863 0.57206 0.0
H439 H 0.22556 0.07872 0.74468 0.0
H440 H 0.26197 0.11136 0.62008 0.0
H441 H 0.28933 0.11518 0.56192 0.0
H442 H 0.33238 0.11636 0.68313 0.0
H443 H 0.30526 0.11225 0.742 0.0
C444 C 0.23951 0.1753 0.84364 0.0
C445 C 0.23627 0.17157 0.89368 0.0
C446 C 0.24301 0.1595 0.80998 0.0
C447 C 0.24345 0.13962 0.82555 0.0
C448 C 0.24095 0.13591 0.87586 0.0
C449 C 0.23725 0.15169 0.9095 0.0
C450 C 0.24617 0.12286 0.78882 0.0
C451 C 0.26238 0.12361 0.75708 0.0
C452 C 0.23264 0.1065 0.784 0.0
C453 C 0.21442 0.10545 0.81377 0.0
C454 C 0.21111 0.0888 0.84308 0.0
C455 C 0.194 0.08786 0.87143 0.0
C456 C 0.18004 0.10343 0.87054 0.0
C457 C 0.18312 0.11994 0.84113 0.0
C458 C 0.20019 0.12095 0.81266 0.0
C459 C 0.27584 0.0529 0.63279 0.0
C460 C 0.26112 0.0507 0.59477 0.0
C461 C 0.27251 0.06545 0.67403 0.0
C462 C 0.25442 0.07602 0.67794 0.0
C463 C 0.23916 0.07264 0.64188 0.0
C464 C 0.2425 0.06016 0.6006 0.0
C465 C 0.2521 0.09204 0.71661 0.0
C466 C 0.23594 0.09119 0.74844 0.0
C467 C 0.2653 0.10864 0.72056 0.0
C468 C 0.28163 0.11127 0.68537 0.0
C469 C 0.27729 0.11229 0.6343 0.0
C470 C 0.29274 0.11452 0.60121 0.0
C471 C 0.31259 0.11595 0.61881 0.0
C472 C 0.317 0.11521 0.66956 0.0
C473 C 0.3016 0.11294 0.7028 0.0
H474 H 0.32454 0.11769 0.59315 0.0
H475 H 0.16682 0.10267 0.89255 0.0
H476 H 0.34829 0.71582 0.43944 0.0
H477 H 0.37403 0.72148 0.37899 0.0
H478 H 0.32926 0.7448 0.27784 0.0
H479 H 0.30342 0.73885 0.33747 0.0
H480 H 0.35283 0.71911 0.23125 0.0
H481 H 0.36244 0.7754 0.34467 0.0
H482 H 0.36854 0.79176 0.42657 0.0
H483 H 0.42508 0.76168 0.44102 0.0
H484 H 0.41915 0.74479 0.35959 0.0
H485 H 0.41134 0.76902 0.06137 0.0
H486 H 0.38882 0.76176 0.12781 0.0
H487 H 0.43736 0.73438 0.20984 0.0
H488 H 0.46005 0.74117 0.14272 0.0
H489 H 0.4138 0.75995 0.26822 0.0
H490 H 0.4046 0.70485 0.15286 0.0
H491 H 0.39831 0.68859 0.07091 0.0
H492 H 0.34075 0.71695 0.06001 0.0
H493 H 0.34682 0.73363 0.14162 0.0
C494 C 0.34392 0.72223 0.4044 0.0
C495 C 0.32376 0.72683 0.39328 0.0
C496 C 0.35868 0.72552 0.36995 0.0
C497 C 0.3536 0.73369 0.32399 0.0
C498 C 0.33352 0.73843 0.313 0.0
C499 C 0.31877 0.73506 0.34724 0.0
C500 C 0.36904 0.73695 0.28669 0.0
C501 C 0.36604 0.72823 0.23924 0.0
C502 C 0.38659 0.74836 0.2975 0.0
C503 C 0.39025 0.75866 0.34625 0.0
C504 C 0.3761 0.77214 0.36546 0.0
C505 C 0.37954 0.78153 0.41178 0.0
C506 C 0.39717 0.77775 0.439 0.0
C507 C 0.41142 0.76458 0.41992 0.0
C508 C 0.40803 0.75509 0.37369 0.0
C509 C 0.41724 0.76123 0.0932 0.0
C510 C 0.43747 0.75542 0.09635 0.0
C511 C 0.40435 0.7572 0.13129 0.0
C512 C 0.41137 0.74733 0.17344 0.0
C513 C 0.43166 0.74199 0.17753 0.0
C514 C 0.44459 0.74593 0.13921 0.0
C515 C 0.39733 0.74241 0.21272 0.0
C516 C 0.40062 0.75076 0.26046 0.0
C517 C 0.37999 0.73071 0.20222 0.0
C518 C 0.37625 0.72063 0.15319 0.0
C519 C 0.39067 0.70775 0.13282 0.0
C520 C 0.38713 0.69843 0.08645 0.0
C521 C 0.36916 0.70177 0.06022 0.0
C522 C 0.35467 0.71439 0.08035 0.0
C523 C 0.35814 0.72377 0.12669 0.0
H524 H 0.36645 0.69454 0.02433 0.0
H525 H 0.39979 0.78504 0.47485 0.0
H526 H 0.77708 0.86081 0.95805 0.0
H527 H 0.76903 0.88565 0.89589 0.0
H528 H 0.74517 0.839 0.79741 0.0
H529 H 0.75354 0.81405 0.85883 0.0
H530 H 0.76842 0.86239 0.74869 0.0
H531 H 0.71466 0.87285 0.85914 0.0
H532 H 0.69818 0.87986 0.9381 0.0
H533 H 0.72808 0.93671 0.9525 0.0
H534 H 0.74497 0.92994 0.87395 0.0
H535 H 0.71931 0.92456 0.57478 0.0
H536 H 0.72511 0.90097 0.64102 0.0
H537 H 0.75674 0.94662 0.72796 0.0
H538 H 0.75158 0.97021 0.66128 0.0
H539 H 0.72956 0.92428 0.78254 0.0
H540 H 0.78291 0.91304 0.66954 0.0
H541 H 0.79703 0.90615 0.58765 0.0
H542 H 0.76576 0.84996 0.57648 0.0
H543 H 0.75115 0.85668 0.65796 0.0
C544 C 0.77 0.85583 0.92329 0.0
C545 C 0.76603 0.83539 0.91342 0.0
C546 C 0.76532 0.87009 0.88783 0.0
C547 C 0.75635 0.86424 0.842 0.0
C548 C 0.75214 0.84389 0.83239 0.0
C549 C 0.7569 0.82963 0.86766 0.0
C550 C 0.75202 0.87918 0.80333 0.0
C551 C 0.75968 0.87577 0.75603 0.0
C552 C 0.74098 0.8969 0.81299 0.0
C553 C 0.73123 0.9008 0.86086 0.0
C554 C 0.7179 0.88675 0.87941 0.0
C555 C 0.70844 0.8907 0.92403 0.0
C556 C 0.71208 0.90872 0.95026 0.0
C557 C 0.72527 0.92277 0.9321 0.0
C558 C 0.73479 0.91889 0.88753 0.0
C559 C 0.72765 0.92959 0.60777 0.0
C560 C 0.73512 0.94929 0.61239 0.0
C561 C 0.73084 0.9161 0.64573 0.0
C562 C 0.7415 0.92201 0.68919 0.0
C563 C 0.74844 0.94178 0.69472 0.0
C564 C 0.7454 0.95527 0.65659 0.0
C565 C 0.74587 0.90736 0.72825 0.0
C566 C 0.73828 0.91086 0.77548 0.0
C567 C 0.75681 0.88964 0.71845 0.0
C568 C 0.76579 0.88546 0.66969 0.0
C569 C 0.77892 0.89929 0.64947 0.0
C570 C 0.78703 0.8954 0.60314 0.0
C571 C 0.78227 0.87764 0.57686 0.0
C572 C 0.76942 0.86372 0.59688 0.0
C573 C 0.76122 0.86755 0.64314 0.0
H574 H 0.78858 0.87465 0.54102 0.0
H575 H 0.70461 0.91184 0.98453 0.0
H576 H 0.8409 0.80414 0.9314 0.0
H577 H 0.86721 0.79547 0.87442 0.0
H578 H 0.84102 0.7369 0.84873 0.0
H579 H 0.81419 0.74567 0.90516 0.0
H580 H 0.89592 0.76861 0.86789 0.0
H581 H 0.84643 0.72359 0.72693 0.0
H582 H 0.81086 0.72025 0.70051 0.0
H583 H 0.80015 0.78113 0.74767 0.0
H584 H 0.83569 0.78488 0.77377 0.0
H585 H 0.95832 0.73874 0.66528 0.0
H586 H 0.93521 0.73739 0.73422 0.0
H587 H 0.89641 0.77981 0.66155 0.0
H588 H 0.91912 0.78103 0.59313 0.0
H589 H 0.87486 0.7508 0.69483 0.0
H590 H 0.92867 0.79342 0.75916 0.0
H591 H 0.96373 0.80157 0.78295 0.0
H592 H 0.96507 0.75342 0.8848 0.0
H593 H 0.93007 0.74482 0.86111 0.0
C594 C 0.84073 0.78935 0.91394 0.0
C595 C 0.82522 0.77571 0.92232 0.0
C596 C 0.85591 0.78436 0.88157 0.0
C597 C 0.85601 0.76562 0.85688 0.0
C598 C 0.84109 0.75157 0.86686 0.0
C599 C 0.82577 0.7566 0.89913 0.0
C600 C 0.87092 0.76158 0.81822 0.0
C601 C 0.89135 0.76448 0.83015 0.0
C602 C 0.86497 0.75643 0.76883 0.0
C603 C 0.84363 0.75441 0.75288 0.0
C604 C 0.83647 0.73626 0.73157 0.0
C605 C 0.81633 0.7343 0.71664 0.0
C606 C 0.80324 0.75044 0.7226 0.0
C607 C 0.81028 0.76861 0.74328 0.0
C608 C 0.83042 0.77065 0.75817 0.0
C609 C 0.94485 0.74776 0.66428 0.0
C610 C 0.94039 0.75978 0.6236 0.0
C611 C 0.93167 0.74698 0.70356 0.0
C612 C 0.91402 0.75846 0.70298 0.0
C613 C 0.90976 0.77061 0.66258 0.0
C614 C 0.92277 0.77128 0.62344 0.0
C615 C 0.89985 0.75824 0.74422 0.0
C616 C 0.87953 0.75446 0.73278 0.0
C617 C 0.90585 0.76318 0.79369 0.0
C618 C 0.92686 0.76832 0.80792 0.0
C619 C 0.9365 0.78447 0.78632 0.0
C620 C 0.95634 0.78919 0.79984 0.0
C621 C 0.96664 0.77797 0.83524 0.0
C622 C 0.95709 0.76205 0.8573 0.0
C623 C 0.93725 0.75725 0.84385 0.0
H624 H 0.982 0.78166 0.84568 0.0
H625 H 0.78765 0.74888 0.71107 0.0
H626 H 0.76763 0.32687 0.36239 0.0
H627 H 0.77605 0.35502 0.31049 0.0
H628 H 0.71886 0.38211 0.33936 0.0
H629 H 0.71033 0.35424 0.39089 0.0
H630 H 0.72644 0.38103 0.24159 0.0
H631 H 0.76094 0.40113 0.39327 0.0
H632 H 0.7844 0.397 0.46437 0.0
H633 H 0.83327 0.3902 0.36583 0.0
H634 H 0.81004 0.39399 0.29405 0.0
H635 H 0.73846 0.47314 0.13312 0.0
H636 H 0.73639 0.45093 0.20321 0.0
H637 H 0.79171 0.42268 0.1623 0.0
H638 H 0.79392 0.44495 0.09224 0.0
H639 H 0.78619 0.42473 0.26725 0.0
H640 H 0.75192 0.40303 0.11625 0.0
H641 H 0.72886 0.40715 0.04439 0.0
H642 H 0.67981 0.41621 0.1415 0.0
H643 H 0.70269 0.41253 0.21404 0.0
C644 C 0.75689 0.33886 0.35785 0.0
C645 C 0.73826 0.33819 0.38071 0.0
C646 C 0.76176 0.35499 0.32836 0.0
C647 C 0.7481 0.37073 0.32117 0.0
C648 C 0.72962 0.37015 0.34429 0.0
C649 C 0.72479 0.35416 0.37387 0.0
C650 C 0.75257 0.38744 0.288 0.0
C651 C 0.73936 0.39073 0.24771 0.0
C652 C 0.7697 0.39982 0.29515 0.0
C653 C 0.78371 0.39763 0.33824 0.0
C654 C 0.77666 0.39858 0.38672 0.0
C655 C 0.78992 0.39634 0.42716 0.0
C656 C 0.8103 0.39328 0.41962 0.0
C657 C 0.81747 0.39253 0.37161 0.0
C658 C 0.80427 0.39475 0.33104 0.0
C659 C 0.7506 0.46276 0.14022 0.0
C660 C 0.76627 0.46067 0.107 0.0
C661 C 0.74933 0.44997 0.18009 0.0
C662 C 0.76373 0.43494 0.18746 0.0
C663 C 0.78042 0.43413 0.15724 0.0
C664 C 0.78163 0.44682 0.11717 0.0
C665 C 0.75988 0.41841 0.22154 0.0
C666 C 0.77323 0.41506 0.26153 0.0
C667 C 0.74292 0.40584 0.21413 0.0
C668 C 0.72905 0.40772 0.17058 0.0
C669 C 0.73624 0.40606 0.1223 0.0
C670 C 0.72321 0.4083 0.08144 0.0
C671 C 0.70289 0.41199 0.08838 0.0
C672 C 0.69556 0.41339 0.13619 0.0
C673 C 0.70856 0.41123 0.1772 0.0
H674 H 0.69281 0.41371 0.0567 0.0
H675 H 0.82054 0.39155 0.45097 0.0
H676 H 0.18758 0.25878 0.87047 0.0
H677 H 0.15883 0.2656 0.81516 0.0
H678 H 0.13141 0.21011 0.85502 0.0
H679 H 0.16006 0.20306 0.90965 0.0
H680 H 0.12989 0.21384 0.75758 0.0
H681 H 0.114 0.25557 0.89805 0.0
H682 H 0.12031 0.28161 0.96307 0.0
H683 H 0.12815 0.32547 0.85227 0.0
H684 H 0.12216 0.29961 0.78654 0.0
H685 H 0.03977 0.22991 0.62339 0.0
H686 H 0.06118 0.22628 0.69819 0.0
H687 H 0.09329 0.2799 0.66343 0.0
H688 H 0.07182 0.28356 0.58931 0.0
H689 H 0.09041 0.27671 0.76307 0.0
H690 H 0.10952 0.23511 0.62382 0.0
H691 H 0.10394 0.2095 0.55739 0.0
H692 H 0.09107 0.16574 0.66528 0.0
H693 H 0.09624 0.19121 0.73235 0.0
C694 C 0.17539 0.24807 0.86764 0.0
C695 C 0.17622 0.23033 0.89443 0.0
C696 C 0.1589 0.25204 0.83618 0.0
C697 C 0.14285 0.23844 0.83118 0.0
C698 C 0.14359 0.22083 0.85819 0.0
C699 C 0.16003 0.21684 0.88951 0.0
C700 C 0.12564 0.24207 0.79634 0.0
C701 C 0.12104 0.22744 0.75944 0.0
C702 C 0.11433 0.26 0.79793 0.0
C703 C 0.1178 0.27561 0.83737 0.0
C704 C 0.11721 0.27073 0.88754 0.0
C705 C 0.12071 0.28547 0.92452 0.0
C706 C 0.12467 0.30517 0.91181 0.0
C707 C 0.12509 0.31019 0.86207 0.0
C708 C 0.12163 0.29551 0.82493 0.0
C709 C 0.05092 0.24126 0.63294 0.0
C710 C 0.05414 0.25707 0.60112 0.0
C711 C 0.06325 0.23911 0.6753 0.0
C712 C 0.07905 0.25267 0.686 0.0
C713 C 0.08122 0.26928 0.65604 0.0
C714 C 0.06896 0.27139 0.61379 0.0
C715 C 0.0947 0.24845 0.72459 0.0
C716 C 0.0991 0.263 0.76184 0.0
C717 C 0.10594 0.23049 0.72326 0.0
C718 C 0.10304 0.21511 0.68304 0.0
C719 C 0.10535 0.22006 0.63335 0.0
C720 C 0.10228 0.20557 0.59558 0.0
C721 C 0.0971 0.18602 0.60709 0.0
C722 C 0.09504 0.1809 0.65641 0.0
C723 C 0.09804 0.19536 0.69432 0.0
H724 H 0.09473 0.17481 0.57781 0.0
H725 H 0.12739 0.31656 0.9405 0.0
H726 H 0.28657 0.652 0.42356 0.0
H727 H 0.27751 0.62391 0.36793 0.0
H728 H 0.22571 0.65623 0.31472 0.0
H729 H 0.23457 0.68452 0.37099 0.0
H730 H 0.21744 0.61619 0.32597 0.0
H731 H 0.26745 0.65535 0.24907 0.0
H732 H 0.29983 0.67282 0.24439 0.0
H733 H 0.33102 0.61737 0.26525 0.0
H734 H 0.2988 0.59961 0.27081 0.0
H735 H 0.20273 0.57004 0.08739 0.0
H736 H 0.20715 0.59053 0.1631 0.0
H737 H 0.25966 0.55639 0.20339 0.0
H738 H 0.25538 0.53597 0.12682 0.0
H739 H 0.26782 0.59543 0.20371 0.0
H740 H 0.21705 0.55569 0.27303 0.0
H741 H 0.18439 0.53869 0.27648 0.0
H742 H 0.15424 0.59529 0.26803 0.0
H743 H 0.18671 0.61263 0.26381 0.0
C744 C 0.27317 0.65318 0.4003 0.0
C745 C 0.26145 0.6707 0.40137 0.0
C746 C 0.26802 0.63705 0.36843 0.0
C747 C 0.25112 0.63806 0.33654 0.0
C748 C 0.23887 0.65514 0.33889 0.0
C749 C 0.244 0.67134 0.37096 0.0
C750 C 0.24688 0.62169 0.29917 0.0
C751 C 0.22836 0.61174 0.2989 0.0
C752 C 0.26132 0.61557 0.26459 0.0
C753 C 0.28071 0.62619 0.26089 0.0
C754 C 0.28121 0.64691 0.25304 0.0
C755 C 0.29953 0.65686 0.25018 0.0
C756 C 0.31747 0.64623 0.25466 0.0
C757 C 0.31711 0.6256 0.26187 0.0
C758 C 0.29883 0.61558 0.26486 0.0
C759 C 0.21486 0.56651 0.11319 0.0
C760 C 0.22872 0.55143 0.10129 0.0
C761 C 0.21736 0.57822 0.15656 0.0
C762 C 0.23374 0.57505 0.18914 0.0
C763 C 0.2469 0.55913 0.17885 0.0
C764 C 0.24435 0.54733 0.13539 0.0
C765 C 0.23833 0.5898 0.23031 0.0
C766 C 0.25695 0.5996 0.23112 0.0
C767 C 0.22392 0.59581 0.26512 0.0
C768 C 0.20434 0.58545 0.26772 0.0
C769 C 0.20346 0.56451 0.27151 0.0
C770 C 0.18497 0.55481 0.27368 0.0
C771 C 0.16725 0.5659 0.27237 0.0
C772 C 0.16798 0.58672 0.26901 0.0
C773 C 0.18643 0.59649 0.26679 0.0
H774 H 0.15295 0.55837 0.27406 0.0
H775 H 0.33164 0.65396 0.25243 0.0
H776 H 0.34889 0.71522 0.57192 0.0
H777 H 0.37851 0.72362 0.62365 0.0
H778 H 0.34347 0.76514 0.7101 0.0
H779 H 0.31398 0.75744 0.65701 0.0
H780 H 0.38 0.77979 0.69939 0.0
H781 H 0.35305 0.71503 0.7434 0.0
H782 H 0.34248 0.68049 0.72109 0.0
H783 H 0.40211 0.66632 0.67665 0.0
H784 H 0.4129 0.70094 0.69762 0.0
H785 H 0.42216 0.7815 0.93882 0.0
H786 H 0.40295 0.77828 0.86112 0.0
H787 H 0.44831 0.73933 0.80151 0.0
H788 H 0.4676 0.74232 0.88057 0.0
H789 H 0.41189 0.72324 0.78691 0.0
H790 H 0.44043 0.78616 0.75476 0.0
H791 H 0.45126 0.82103 0.77165 0.0
H792 H 0.39019 0.83884 0.79102 0.0
H793 H 0.379 0.80402 0.77497 0.0
C794 C 0.34753 0.72626 0.60174 0.0
C795 C 0.32902 0.73545 0.61086 0.0
C796 C 0.36448 0.73103 0.63134 0.0
C797 C 0.36316 0.74467 0.67162 0.0
C798 C 0.34488 0.75451 0.67944 0.0
C799 C 0.328 0.75003 0.64918 0.0
C800 C 0.38036 0.74784 0.70741 0.0
C801 C 0.3869 0.76745 0.71875 0.0
C802 C 0.38995 0.73168 0.73139 0.0
C803 C 0.38372 0.7106 0.72158 0.0
C804 C 0.36389 0.70454 0.72883 0.0
C805 C 0.35786 0.68496 0.71632 0.0
C806 C 0.37161 0.67123 0.69728 0.0
C807 C 0.39147 0.67699 0.69124 0.0
C808 C 0.39755 0.69659 0.7034 0.0
C809 C 0.42822 0.7725 0.90887 0.0
C810 C 0.44632 0.76208 0.91571 0.0
C811 C 0.41728 0.77077 0.86428 0.0
C812 C 0.42422 0.75871 0.82512 0.0
C813 C 0.44269 0.74879 0.83114 0.0
C814 C 0.45376 0.75059 0.87606 0.0
C815 C 0.41113 0.75529 0.78008 0.0
C816 C 0.40529 0.73561 0.76703 0.0
C817 C 0.40227 0.77139 0.75438 0.0
C818 C 0.40889 0.79242 0.76389 0.0
C819 C 0.42931 0.79748 0.76295 0.0
C820 C 0.43552 0.81725 0.77233 0.0
C821 C 0.42142 0.83214 0.78246 0.0
C822 C 0.40109 0.82729 0.78315 0.0
C823 C 0.39481 0.80754 0.77383 0.0
H824 H 0.42626 0.84743 0.78972 0.0
H825 H 0.36689 0.65613 0.68716 0.0
H826 H 0.73574 0.83119 0.15047 0.0
H827 H 0.7282 0.8593 0.20703 0.0
H828 H 0.78734 0.88332 0.18873 0.0
H829 H 0.79501 0.85542 0.13224 0.0
H830 H 0.77719 0.8818 0.28689 0.0
H831 H 0.74845 0.90507 0.13418 0.0
H832 H 0.72702 0.90225 0.05862 0.0
H833 H 0.67491 0.89746 0.14663 0.0
H834 H 0.69612 0.89985 0.22285 0.0
H835 H 0.76347 0.97248 0.419 0.0
H836 H 0.76887 0.95113 0.34508 0.0
H837 H 0.71052 0.92465 0.35962 0.0
H838 H 0.70523 0.94585 0.4335 0.0
H839 H 0.72053 0.92872 0.26042 0.0
H840 H 0.74796 0.90274 0.41109 0.0
H841 H 0.76825 0.90402 0.4887 0.0
H842 H 0.82156 0.91199 0.40665 0.0
H843 H 0.80147 0.91124 0.3285 0.0
C844 C 0.74711 0.8425 0.15828 0.0
C845 C 0.76599 0.841 0.1368 0.0
C846 C 0.74275 0.85859 0.19049 0.0
C847 C 0.75719 0.87345 0.20195 0.0
C848 C 0.77598 0.87203 0.18043 0.0
C849 C 0.7803 0.85607 0.14797 0.0
C850 C 0.75295 0.8902 0.23743 0.0
C851 C 0.76502 0.89226 0.28065 0.0
C852 C 0.73674 0.90352 0.22995 0.0
C853 C 0.7239 0.90245 0.18423 0.0
C854 C 0.73244 0.90327 0.13744 0.0
C855 C 0.72032 0.90177 0.09447 0.0
C856 C 0.6996 0.89964 0.09779 0.0
C857 C 0.69096 0.89908 0.14412 0.0
C858 C 0.70303 0.90052 0.18722 0.0
C859 C 0.75157 0.96261 0.4052 0.0
C860 C 0.73391 0.96082 0.43141 0.0
C861 C 0.75469 0.95035 0.36329 0.0
C862 C 0.74016 0.93616 0.34719 0.0
C863 C 0.72188 0.93551 0.37126 0.0
C864 C 0.71886 0.94762 0.41334 0.0
C865 C 0.7449 0.9204 0.30952 0.0
C866 C 0.73286 0.91841 0.26623 0.0
C867 C 0.76101 0.90695 0.31713 0.0
C868 C 0.77318 0.90719 0.36398 0.0
C869 C 0.76399 0.90495 0.40961 0.0
C870 C 0.77545 0.90556 0.4537 0.0
C871 C 0.79619 0.90811 0.45263 0.0
C872 C 0.80549 0.91005 0.40743 0.0
C873 C 0.79407 0.90955 0.36321 0.0
H874 H 0.80505 0.90854 0.48681 0.0
H875 H 0.69023 0.89844 0.06449 0.0
H876 H 0.69007 0.24891 0.61519 0.0
H877 H 0.66456 0.24272 0.67605 0.0
H878 H 0.63568 0.29841 0.64024 0.0
H879 H 0.66105 0.30479 0.57979 0.0
H880 H 0.64143 0.29519 0.73859 0.0
H881 H 0.61482 0.25432 0.6036 0.0
H882 H 0.61581 0.22805 0.53784 0.0
H883 H 0.62862 0.18381 0.64638 0.0
H884 H 0.62803 0.20988 0.71279 0.0
H885 H 0.55142 0.2853 0.86506 0.0
H886 H 0.57508 0.28748 0.79823 0.0
H887 H 0.60362 0.23306 0.84534 0.0
H888 H 0.57973 0.23058 0.91192 0.0
H889 H 0.59854 0.23463 0.74249 0.0
H890 H 0.62471 0.27601 0.87756 0.0
H891 H 0.62352 0.30264 0.94245 0.0
H892 H 0.61123 0.3463 0.83223 0.0
H893 H 0.61203 0.3199 0.76667 0.0
C894 C 0.67818 0.25974 0.61989 0.0
C895 C 0.67771 0.27741 0.59278 0.0
C896 C 0.66358 0.25615 0.65462 0.0
C897 C 0.64822 0.27012 0.66267 0.0
C898 C 0.64745 0.28749 0.63479 0.0
C899 C 0.66197 0.29107 0.60011 0.0
C900 C 0.63344 0.26718 0.70167 0.0
C901 C 0.63188 0.28206 0.73905 0.0
C902 C 0.62134 0.24982 0.70295 0.0
C903 C 0.62159 0.23409 0.66313 0.0
C904 C 0.61802 0.23902 0.61343 0.0
C905 C 0.61847 0.22416 0.57603 0.0
C906 C 0.62232 0.20428 0.58791 0.0
C907 C 0.62567 0.19922 0.63723 0.0
C908 C 0.62526 0.21403 0.67477 0.0
C909 C 0.56253 0.27362 0.86076 0.0
C910 C 0.56374 0.25777 0.89381 0.0
C911 C 0.57613 0.27497 0.82279 0.0
C912 C 0.5912 0.26053 0.81715 0.0
C913 C 0.59211 0.24437 0.84914 0.0
C914 C 0.57857 0.24306 0.88732 0.0
C915 C 0.60642 0.26274 0.77893 0.0
C916 C 0.60812 0.24773 0.74192 0.0
C917 C 0.61864 0.28002 0.77781 0.0
C918 C 0.61824 0.29593 0.81722 0.0
C919 C 0.62158 0.29126 0.86717 0.0
C920 C 0.62101 0.30631 0.90407 0.0
C921 C 0.61725 0.32612 0.89148 0.0
C922 C 0.61411 0.33094 0.84193 0.0
C923 C 0.61464 0.31594 0.80488 0.0
H924 H 0.61682 0.33775 0.92011 0.0
H925 H 0.62267 0.1928 0.55891 0.0
H926 H 0.27114 0.17967 0.11891 0.0
H927 H 0.27924 0.15419 0.18034 0.0
H928 H 0.21638 0.14123 0.19244 0.0
H929 H 0.20823 0.16612 0.13067 0.0
H930 H 0.23901 0.14823 0.28552 0.0
H931 H 0.24071 0.10989 0.13061 0.0
H932 H 0.25269 0.10279 0.04662 0.0
H933 H 0.31291 0.09749 0.10478 0.0
H934 H 0.30131 0.10488 0.18909 0.0
H935 H 0.23463 0.06127 0.42203 0.0
H936 H 0.23043 0.08519 0.35576 0.0
H937 H 0.2937 0.0819 0.32882 0.0
H938 H 0.29782 0.05747 0.39431 0.0
H939 H 0.27385 0.0846 0.24414 0.0
H940 H 0.27335 0.12037 0.39843 0.0
H941 H 0.26303 0.12863 0.48329 0.0
H942 H 0.20339 0.14107 0.42903 0.0
H943 H 0.21324 0.13249 0.34392 0.0
C944 C 0.2591 0.1713 0.13458 0.0
C945 C 0.23908 0.17479 0.11977 0.0
C946 C 0.26373 0.15678 0.16951 0.0
C947 C 0.24838 0.14585 0.19073 0.0
C948 C 0.22841 0.14949 0.17639 0.0
C949 C 0.22382 0.16365 0.14089 0.0
C950 C 0.25291 0.13067 0.22825 0.0
C951 C 0.24648 0.13423 0.27653 0.0
C952 C 0.26324 0.11276 0.21665 0.0
C953 C 0.27018 0.10818 0.16606 0.0
C954 C 0.25653 0.10741 0.12543 0.0
C955 C 0.26325 0.10329 0.07778 0.0
C956 C 0.28356 0.09976 0.07034 0.0
C957 C 0.29719 0.10027 0.11058 0.0
C958 C 0.29055 0.10441 0.1583 0.0
C959 C 0.24758 0.0655 0.40155 0.0
C960 C 0.26656 0.05762 0.41341 0.0
C961 C 0.24521 0.07924 0.36388 0.0
C962 C 0.26183 0.08575 0.33806 0.0
C963 C 0.28066 0.0772 0.34836 0.0
C964 C 0.283 0.06322 0.38567 0.0
C965 C 0.25959 0.10192 0.3016 0.0
C966 C 0.2665 0.09862 0.2535 0.0
C967 C 0.24998 0.12027 0.31361 0.0
C968 C 0.244 0.12557 0.36479 0.0
C969 C 0.25799 0.1247 0.40461 0.0
C970 C 0.25222 0.12945 0.45278 0.0
C971 C 0.23255 0.13532 0.46156 0.0
C972 C 0.21861 0.13648 0.42218 0.0
C973 C 0.22428 0.13167 0.37396 0.0
H974 H 0.22812 0.139 0.49887 0.0
H975 H 0.28873 0.09657 0.03342 0.0
H976 H 0.25122 0.29136 0.96013 0.0
H977 H 0.25137 0.32795 0.96921 0.0
H978 H 0.2077 0.32484 0.08281 0.0
H979 H 0.20771 0.28819 0.0746 0.0
H980 H 0.19942 0.35427 0.00892 0.0
H981 H 0.25248 0.33309 0.11838 0.0
H982 H 0.28335 0.31502 0.14162 0.0
H983 H 0.31612 0.34834 0.03735 0.0
H984 H 0.28532 0.36615 0.01232 0.0
H985 H 0.20669 0.45856 0.06492 0.0
H986 H 0.20638 0.42226 0.07816 0.0
H987 H 0.25913 0.41558 0.99087 0.0
H988 H 0.25978 0.45173 0.97947 0.0
H989 H 0.26169 0.39056 0.06111 0.0
H990 H 0.20956 0.40795 0.94275 0.0
H991 H 0.17913 0.42539 0.91321 0.0
H992 H 0.14544 0.39913 0.02753 0.0
H993 H 0.17575 0.38173 0.05812 0.0
C994 C 0.24156 0.29845 0.98686 0.0
C995 C 0.22949 0.28685 0.01674 0.0
C996 C 0.24173 0.31935 0.99215 0.0
C997 C 0.22965 0.32909 0.02694 0.0
C998 C 0.21717 0.31761 0.05586 0.0
C999 C 0.21724 0.29668 0.05119 0.0
C1000 C 0.2302 0.35126 0.03326 0.0
C1001 C 0.21293 0.36223 0.02113 0.0
C1002 C 0.24795 0.36161 0.04822 0.0
C1003 C 0.2665 0.35081 0.06306 0.0
C1004 C 0.2662 0.33638 0.0999 0.0
C1005 C 0.2837 0.32618 0.11342 0.0
C1006 C 0.30167 0.33045 0.0908 0.0
C1007 C 0.30218 0.34495 0.05466 0.0
C1008 C 0.28469 0.35509 0.04074 0.0
C1009 C 0.2185 0.44931 0.04996 0.0
C1010 C 0.23339 0.45778 0.02169 0.0
C1011 C 0.2182 0.42857 0.05693 0.0
C1012 C 0.23251 0.41602 0.03468 0.0
C1013 C 0.24792 0.42481 0.00848 0.0
C1014 C 0.24833 0.44548 0.00204 0.0
C1015 C 0.23099 0.39373 0.03583 0.0
C1016 C 0.24809 0.38267 0.04938 0.0
C1017 C 0.21317 0.38328 0.02136 0.0
C1018 C 0.19496 0.39375 0.00309 0.0
C1019 C 0.19569 0.40603 0.96181 0.0
C1020 C 0.17847 0.41588 0.94484 0.0
C1021 C 0.16038 0.41343 0.96858 0.0
C1022 C 0.15947 0.40106 0.00926 0.0
C1023 C 0.17667 0.3912 0.02642 0.0
H1024 H 0.14706 0.42106 0.95538 0.0
H1025 H 0.31521 0.32257 0.10145 0.0
H1026 H 0.20987 0.72081 0.59208 0.0
H1027 H 0.17334 0.72381 0.59445 0.0
H1028 H 0.17142 0.74221 0.44289 0.0
H1029 H 0.20772 0.73944 0.44025 0.0
H1030 H 0.14956 0.76672 0.49977 0.0
H1031 H 0.15614 0.69552 0.47374 0.0
H1032 H 0.16871 0.66179 0.49243 0.0
H1033 H 0.1415 0.66529 0.63416 0.0
H1034 H 0.129 0.69918 0.61658 0.0
H1035 H 0.04483 0.76614 0.45903 0.0
H1036 H 0.0802 0.75678 0.45127 0.0
H1037 H 0.08162 0.73653 0.60143 0.0
H1038 H 0.04621 0.74551 0.60861 0.0
H1039 H 0.10368 0.71225 0.54506 0.0
H1040 H 0.09836 0.78324 0.57404 0.0
H1041 H 0.08634 0.81745 0.55839 0.0
H1042 H 0.11186 0.81483 0.41461 0.0
H1043 H 0.1238 0.78048 0.42916 0.0
C1044 C 0.20167 0.72539 0.55917 0.0
C1045 C 0.21181 0.72997 0.51606 0.0
C1046 C 0.18076 0.72702 0.56051 0.0
C1047 C 0.1696 0.73316 0.51874 0.0
C1048 C 0.17968 0.73749 0.4756 0.0
C1049 C 0.2005 0.73585 0.47419 0.0
C1050 C 0.1475 0.73588 0.52021 0.0
C1051 C 0.13952 0.7547 0.50894 0.0
C1052 C 0.13441 0.72039 0.53353 0.0
C1053 C 0.1418 0.69997 0.54403 0.0
C1054 C 0.15297 0.68916 0.50905 0.0
C1055 C 0.16006 0.67 0.51941 0.0
C1056 C 0.15595 0.66142 0.5645 0.0
C1057 C 0.1447 0.67197 0.59927 0.0
C1058 C 0.13759 0.69114 0.58911 0.0
C1059 C 0.05266 0.75927 0.48983 0.0
C1060 C 0.04297 0.75639 0.53427 0.0
C1061 C 0.07286 0.75407 0.4856 0.0
C1062 C 0.08371 0.74623 0.52608 0.0
C1063 C 0.07363 0.74254 0.56973 0.0
C1064 C 0.05343 0.74765 0.57382 0.0
C1065 C 0.10575 0.74304 0.52412 0.0
C1066 C 0.11373 0.72421 0.53557 0.0
C1067 C 0.11892 0.75856 0.51131 0.0
C1068 C 0.11177 0.77921 0.50248 0.0
C1069 C 0.10127 0.7899 0.53893 0.0
C1070 C 0.09449 0.80932 0.53029 0.0
C1071 C 0.09828 0.81828 0.48548 0.0
C1072 C 0.1089 0.80786 0.44926 0.0
C1073 C 0.11569 0.78842 0.4577 0.0
H1074 H 0.09304 0.83333 0.47886 0.0
H1075 H 0.16146 0.64659 0.57246 0.0
H1076 H 0.75914 0.71868 0.96906 0.0
H1077 H 0.75821 0.68237 0.97583 0.0
H1078 H 0.78406 0.68772 0.12366 0.0
H1079 H 0.78477 0.7242 0.11752 0.0
H1080 H 0.786 0.6548 0.98813 0.0
H1081 H 0.76468 0.65049 0.19287 0.0
H1082 H 0.74691 0.67065 0.25556 0.0
H1083 H 0.71192 0.69847 0.14084 0.0
H1084 H 0.72929 0.67831 0.07759 0.0
H1085 H 0.78911 0.55201 0.04035 0.0
H1086 H 0.79497 0.58811 0.05388 0.0
H1087 H 0.73123 0.59766 0.06166 0.0
H1088 H 0.72552 0.56161 0.04937 0.0
H1089 H 0.74994 0.62313 0.12328 0.0
H1090 H 0.75602 0.60219 0.95264 0.0
H1091 H 0.7697 0.58246 0.88303 0.0
H1092 H 0.82845 0.60588 0.9182 0.0
H1093 H 0.81514 0.62556 0.98846 0.0
C1094 C 0.76468 0.71219 0.00306 0.0
C1095 C 0.77191 0.72444 0.04288 0.0
C1096 C 0.7642 0.69137 0.00679 0.0
C1097 C 0.7709 0.68227 0.05039 0.0
C1098 C 0.77854 0.69439 0.08988 0.0
C1099 C 0.77899 0.71527 0.08623 0.0
C1100 C 0.76953 0.66012 0.05441 0.0
C1101 C 0.77826 0.64789 0.01795 0.0
C1102 C 0.75916 0.65103 0.0928 0.0
C1103 C 0.74846 0.66306 0.13055 0.0
C1104 C 0.75316 0.66087 0.18108 0.0
C1105 C 0.74316 0.67231 0.21669 0.0
C1106 C 0.72835 0.68589 0.20218 0.0
C1107 C 0.72345 0.68801 0.15203 0.0
C1108 C 0.73339 0.6766 0.11629 0.0
C1109 C 0.77648 0.56182 0.04659 0.0
C1110 C 0.75691 0.5542 0.04434 0.0
C1111 C 0.77978 0.58243 0.05383 0.0
C1112 C 0.76351 0.5957 0.05796 0.0
C1113 C 0.74403 0.5878 0.05864 0.0
C1114 C 0.74076 0.56721 0.05171 0.0
C1115 C 0.76648 0.61781 0.05707 0.0
C1116 C 0.75801 0.63003 0.09401 0.0
C1117 C 0.77661 0.62694 0.01831 0.0
C1118 C 0.78463 0.61515 0.97612 0.0
C1119 C 0.77188 0.60301 0.94574 0.0
C1120 C 0.77956 0.59186 0.90615 0.0
C1121 C 0.79994 0.59287 0.8963 0.0
C1122 C 0.81267 0.60508 0.92595 0.0
C1123 C 0.80507 0.61624 0.96564 0.0
H1124 H 0.80586 0.58423 0.86561 0.0
H1125 H 0.72065 0.69473 0.22981 0.0
H1126 H 0.79452 0.26047 0.43433 0.0
H1127 H 0.83091 0.25753 0.44519 0.0
H1128 H 0.82984 0.29849 0.57114 0.0
H1129 H 0.79341 0.30136 0.56094 0.0
H1130 H 0.86033 0.30661 0.50417 0.0
H1131 H 0.83463 0.25165 0.59245 0.0
H1132 H 0.81408 0.22155 0.6034 0.0
H1133 H 0.8457 0.19041 0.48885 0.0
H1134 H 0.86612 0.22051 0.4763 0.0
H1135 H 0.96215 0.2916 0.57052 0.0
H1136 H 0.92564 0.29252 0.57946 0.0
H1137 H 0.91886 0.24541 0.46761 0.0
H1138 H 0.95526 0.24418 0.45987 0.0
H1139 H 0.89185 0.24071 0.53527 0.0
H1140 H 0.9146 0.29568 0.43993 0.0
H1141 H 0.93454 0.32579 0.42422 0.0
H1142 H 0.90815 0.35662 0.54748 0.0
H1143 H 0.88824 0.32656 0.5643 0.0
C1144 C 0.80203 0.26896 0.46416 0.0
C1145 C 0.79106 0.28111 0.49687 0.0
C1146 C 0.82281 0.26717 0.47047 0.0
C1147 C 0.83304 0.27764 0.50927 0.0
C1148 C 0.82222 0.29022 0.54111 0.0
C1149 C 0.80141 0.29181 0.53526 0.0
C1150 C 0.85503 0.27541 0.51659 0.0
C1151 C 0.86723 0.29228 0.51181 0.0
C1152 C 0.86399 0.25661 0.52555 0.0
C1153 C 0.85178 0.23843 0.53308 0.0
C1154 C 0.83706 0.23847 0.56919 0.0
C1155 C 0.82544 0.22139 0.57571 0.0
C1156 C 0.82852 0.20411 0.54669 0.0
C1157 C 0.84326 0.20384 0.51115 0.0
C1158 C 0.85487 0.22091 0.50432 0.0
C1159 C 0.95281 0.28108 0.54906 0.0
C1160 C 0.96132 0.26771 0.51485 0.0
C1161 C 0.93199 0.28173 0.55374 0.0
C1162 C 0.91942 0.26929 0.5235 0.0
C1163 C 0.92816 0.25517 0.49132 0.0
C1164 C 0.94894 0.25443 0.48696 0.0
C1165 C 0.89727 0.27191 0.52236 0.0
C1166 C 0.88499 0.2551 0.52816 0.0
C1167 C 0.8882 0.29073 0.51379 0.0
C1168 C 0.90013 0.30881 0.50372 0.0
C1169 C 0.91317 0.30883 0.4639 0.0
C1170 C 0.92445 0.32589 0.45477 0.0
C1171 C 0.92266 0.34309 0.48494 0.0
C1172 C 0.90955 0.34327 0.52422 0.0
C1173 C 0.89827 0.32623 0.53356 0.0
H1174 H 0.9314 0.35628 0.47779 0.0
H1175 H 0.81952 0.1909 0.55191 0.0
H1176 H 0.75132 0.21922 0.53495 0.0
H1177 H 0.75104 0.18266 0.52959 0.0
H1178 H 0.71042 0.18422 0.40286 0.0
H1179 H 0.71076 0.22098 0.40759 0.0
H1180 H 0.69914 0.15706 0.47621 0.0
H1181 H 0.75628 0.17275 0.38305 0.0
H1182 H 0.78829 0.18932 0.36692 0.0
H1183 H 0.8163 0.15998 0.49001 0.0
H1184 H 0.78432 0.1436 0.50771 0.0
H1185 H 0.70528 0.05114 0.44901 0.0
H1186 H 0.70681 0.08654 0.42659 0.0
H1187 H 0.75491 0.09641 0.53476 0.0
H1188 H 0.75369 0.06106 0.55587 0.0
H1189 H 0.76162 0.1178 0.45765 0.0
H1190 H 0.70469 0.10673 0.55923 0.0
H1191 H 0.67277 0.09121 0.58106 0.0
H1192 H 0.64476 0.11248 0.44761 0.0
H1193 H 0.67662 0.12793 0.4247 0.0
C1194 C 0.74231 0.21183 0.50587 0.0
C1195 C 0.73108 0.22304 0.47163 0.0
C1196 C 0.74225 0.19092 0.50274 0.0
C1197 C 0.73084 0.18072 0.46559 0.0
C1198 C 0.71939 0.19181 0.43169 0.0
C1199 C 0.71965 0.21279 0.43437 0.0
C1200 C 0.7307 0.15848 0.46309 0.0
C1201 C 0.71271 0.14842 0.4711 0.0
C1202 C 0.74851 0.14728 0.45753 0.0
C1203 C 0.76782 0.15706 0.44696 0.0
C1204 C 0.7692 0.16998 0.40702 0.0
C1205 C 0.78735 0.17934 0.39759 0.0
C1206 C 0.8043 0.17577 0.42753 0.0
C1207 C 0.80314 0.16279 0.46694 0.0
C1208 C 0.785 0.15346 0.4767 0.0
C1209 C 0.71647 0.06085 0.46691 0.0
C1210 C 0.72948 0.05354 0.50378 0.0
C1211 C 0.71723 0.08108 0.45451 0.0
C1212 C 0.73076 0.0943 0.47957 0.0
C1213 C 0.74436 0.0866 0.51483 0.0
C1214 C 0.74368 0.06641 0.52687 0.0
C1215 C 0.7301 0.1163 0.47175 0.0
C1216 C 0.74796 0.12636 0.46193 0.0
C1217 C 0.71222 0.12755 0.4763 0.0
C1218 C 0.69309 0.11825 0.48995 0.0
C1219 C 0.69177 0.10795 0.53436 0.0
C1220 C 0.67368 0.0992 0.54696 0.0
C1221 C 0.65677 0.1008 0.51566 0.0
C1222 C 0.65789 0.11121 0.47176 0.0
C1223 C 0.67595 0.11997 0.45894 0.0
H1224 H 0.64277 0.09402 0.52549 0.0
H1225 H 0.81834 0.183 0.42007 0.0
H1226 H 0.2933 0.24999 0.07074 0.0
H1227 H 0.32973 0.25281 0.07168 0.0
H1228 H 0.33177 0.21399 0.9419 0.0
H1229 H 0.29511 0.21118 0.94031 0.0
H1230 H 0.36114 0.20512 0.018 0.0
H1231 H 0.33647 0.26082 0.92648 0.0
H1232 H 0.31589 0.29079 0.91168 0.0
H1233 H 0.34432 0.32093 0.03736 0.0
H1234 H 0.36467 0.29093 0.05376 0.0
H1235 H 0.45934 0.22865 0.94059 0.0
H1236 H 0.42386 0.22111 0.951 0.0
H1237 H 0.42105 0.26767 0.06456 0.0
H1238 H 0.45654 0.27546 0.05315 0.0
H1239 H 0.39183 0.272 0.99893 0.0
H1240 H 0.41694 0.21686 0.09058 0.0
H1241 H 0.43739 0.18691 0.10669 0.0
H1242 H 0.40865 0.15591 0.98271 0.0
H1243 H 0.3882 0.18579 0.96542 0.0
C1244 C 0.30144 0.24195 0.04243 0.0
C1245 C 0.29125 0.23042 0.00526 0.0
C1246 C 0.32228 0.24362 0.04303 0.0
C1247 C 0.33344 0.2337 0.00674 0.0
C1248 C 0.32342 0.22176 0.97026 0.0
C1249 C 0.30249 0.22027 0.96925 0.0
C1250 C 0.35549 0.23636 0.00625 0.0
C1251 C 0.36791 0.21968 0.01324 0.0
C1252 C 0.36424 0.25546 0.00136 0.0
C1253 C 0.35193 0.27351 0.99172 0.0
C1254 C 0.33815 0.27374 0.95137 0.0
C1255 C 0.32653 0.29075 0.94266 0.0
C1256 C 0.32871 0.30772 0.9737 0.0
C1257 C 0.34255 0.30773 0.01349 0.0
C1258 C 0.35412 0.29072 0.02254 0.0
C1259 C 0.45122 0.23685 0.9687 0.0
C1260 C 0.46055 0.25241 0.9966 0.0
C1261 C 0.43096 0.23255 0.97467 0.0
C1262 C 0.41973 0.2437 0.00887 0.0
C1263 C 0.42937 0.25883 0.03804 0.0
C1264 C 0.44964 0.26317 0.03186 0.0
C1265 C 0.39767 0.24076 0.011 0.0
C1266 C 0.38517 0.25742 0.00408 0.0
C1267 C 0.38889 0.22165 0.01617 0.0
C1268 C 0.40116 0.20364 0.02644 0.0
C1269 C 0.41509 0.20372 0.06649 0.0
C1270 C 0.42666 0.18674 0.07589 0.0
C1271 C 0.42435 0.16953 0.04567 0.0
C1272 C 0.41043 0.16926 0.00606 0.0
C1273 C 0.39883 0.1862 0.99647 0.0
H1274 H 0.43333 0.1564 0.05301 0.0
H1275 H 0.31975 0.32089 0.96675 0.0
H1276 H 0.27568 0.78858 0.41903 0.0
H1277 H 0.27738 0.82516 0.41775 0.0
H1278 H 0.27438 0.82822 0.57687 0.0
H1279 H 0.27199 0.7918 0.57824 0.0
H1280 H 0.25139 0.85562 0.54081 0.0
H1281 H 0.3192 0.83548 0.5133 0.0
H1282 H 0.34621 0.81707 0.47185 0.0
H1283 H 0.33097 0.84557 0.33551 0.0
H1284 H 0.3037 0.864 0.37609 0.0
H1285 H 0.2863 0.95651 0.57883 0.0
H1286 H 0.28182 0.91996 0.57803 0.0
H1287 H 0.27969 0.91877 0.41837 0.0
H1288 H 0.28434 0.95524 0.41937 0.0
H1289 H 0.30475 0.89062 0.45336 0.0
H1290 H 0.23732 0.91172 0.48418 0.0
H1291 H 0.21098 0.93019 0.52815 0.0
H1292 H 0.22664 0.89992 0.66173 0.0
H1293 H 0.25326 0.88145 0.61872 0.0
C1294 C 0.27542 0.79705 0.45375 0.0
C1295 C 0.27369 0.78723 0.49873 0.0
C1296 C 0.27649 0.81799 0.45301 0.0
C1297 C 0.27626 0.82955 0.49729 0.0
C1298 C 0.27454 0.81973 0.54217 0.0
C1299 C 0.27322 0.79885 0.54289 0.0
C1300 C 0.27763 0.85185 0.49708 0.0
C1301 C 0.26323 0.86324 0.52218 0.0
C1302 C 0.29281 0.86193 0.47202 0.0
C1303 C 0.30928 0.85097 0.44762 0.0
C1304 C 0.32152 0.83772 0.4744 0.0
C1305 C 0.3369 0.82729 0.45106 0.0
C1306 C 0.34027 0.83009 0.40101 0.0
C1307 C 0.32832 0.84339 0.37425 0.0
C1308 C 0.31292 0.85385 0.39741 0.0
C1309 C 0.28456 0.94839 0.54371 0.0
C1310 C 0.28545 0.95851 0.49916 0.0
C1311 C 0.282 0.92755 0.54321 0.0
C1312 C 0.28028 0.91658 0.49809 0.0
C1313 C 0.28097 0.92687 0.45359 0.0
C1314 C 0.2835 0.94767 0.45415 0.0
C1315 C 0.27855 0.89433 0.49716 0.0
C1316 C 0.2929 0.88297 0.47188 0.0
C1317 C 0.26345 0.88429 0.52245 0.0
C1318 C 0.24741 0.89534 0.54833 0.0
C1319 C 0.23525 0.90911 0.52303 0.0
C1320 C 0.22025 0.91956 0.54776 0.0
C1321 C 0.21717 0.91627 0.59773 0.0
C1322 C 0.22906 0.90247 0.62304 0.0
C1323 C 0.24409 0.89199 0.59849 0.0
H1324 H 0.20555 0.92437 0.61681 0.0
H1325 H 0.35217 0.82201 0.38297 0.0
H1326 H 0.70834 0.76495 0.08651 0.0
H1327 H 0.67184 0.7622 0.07805 0.0
H1328 H 0.67254 0.7959 0.94457 0.0
H1329 H 0.70903 0.79868 0.95255 0.0
H1330 H 0.64274 0.80833 0.00899 0.0
H1331 H 0.66674 0.74706 0.9345 0.0
H1332 H 0.68688 0.71614 0.93246 0.0
H1333 H 0.65584 0.69457 0.05704 0.0
H1334 H 0.6357 0.72551 0.06026 0.0
H1335 H 0.54095 0.79158 0.94317 0.0
H1336 H 0.57756 0.79126 0.93632 0.0
H1337 H 0.58239 0.75116 0.05845 0.0
H1338 H 0.54587 0.75111 0.0642 0.0
H1339 H 0.60984 0.74171 0.99433 0.0
H1340 H 0.58798 0.80254 0.07469 0.0
H1341 H 0.5687 0.83385 0.08313 0.0
H1342 H 0.59622 0.85653 0.95469 0.0
H1343 H 0.61548 0.82521 0.94511 0.0
C1344 C 0.70074 0.77188 0.05549 0.0
C1345 C 0.71164 0.78196 0.0201 0.0
C1346 C 0.67988 0.7702 0.05057 0.0
C1347 C 0.6695 0.77866 0.01037 0.0
C1348 C 0.68026 0.78919 0.97574 0.0
C1349 C 0.70112 0.79071 0.98034 0.0
C1350 C 0.6474 0.77647 0.00438 0.0
C1351 C 0.63554 0.79378 0.00494 0.0
C1352 C 0.63802 0.75747 1.00032 0.0
C1353 C 0.64983 0.73868 0.99787 0.0
C1354 C 0.66429 0.73578 0.96165 0.0
C1355 C 0.6757 0.71824 0.96026 0.0
C1356 C 0.67267 0.70342 0.99468 0.0
C1357 C 0.65818 0.70607 0.03043 0.0
C1358 C 0.64675 0.7236 0.03202 0.0
C1359 C 0.54988 0.78229 0.96747 0.0
C1360 C 0.54078 0.77124 0.0039 0.0
C1361 C 0.57077 0.78225 0.96395 0.0
C1362 C 0.58283 0.77148 0.99752 0.0
C1363 C 0.5735 0.7596 0.03217 0.0
C1364 C 0.55265 0.75954 0.0354 0.0
C1365 C 0.60506 0.77361 0.99907 0.0
C1366 C 0.61699 0.75628 0.99784 0.0
C1367 C 0.61453 0.79261 0.0032 0.0
C1368 C 0.60298 0.81144 0.00884 0.0
C1369 C 0.5898 0.81414 0.04802 0.0
C1370 C 0.5789 0.8319 0.05305 0.0
C1371 C 0.58119 0.84714 0.01937 0.0
C1372 C 0.59443 0.84468 0.98068 0.0
C1373 C 0.60535 0.82694 0.97544 0.0
H1374 H 0.57274 0.86089 0.02334 0.0
H1375 H 0.68154 0.68987 0.99359 0.0
loop_
_geom_bond_atom_site_label_1
_geom_bond_atom_site_label_2
_geom_bond_distance
_geom_bond_site_symmetry_2
_ccdc_geom_bond_type
Fe0 O2 1.918 . S
Fe0 O5 1.997 . S
Fe0 O6 2.002 . S
Fe0 O11 1.976 . S
Fe0 O14 1.996 . S
Fe1 O2 1.918 1_556 S
Fe1 O9 1.997 . S
Fe1 O12 1.996 . S
Fe1 O16 1.976 . S
Fe1 O19 2.002 . S
O2 Fe0 1.918 . S
O2 Fe1 1.918 1_554 S
O2 Fe3 1.918 . S
Fe3 O2 1.918 . S
Fe3 O4 2.002 . S
Fe3 O13 1.976 . S
Fe3 O17 1.996 1_554 S
Fe3 O20 1.997 1_554 S
O4 Fe3 2.002 . S
O4 C21 1.295 . S
O5 Fe0 1.997 . S
O5 C21 1.235 . S
O6 Fe0 2.002 . S
O6 C7 1.295 . S
C7 O6 1.295 . S
C7 O9 1.235 1_554 S
C8 O13 1.287 . S
C8 O14 1.255 . S
O9 Fe1 1.997 . S
O9 C7 1.235 1_556 S
C10 O16 1.287 . S
C10 O17 1.255 . S
O11 Fe0 1.976 . S
O11 C18 1.287 . S
O12 Fe1 1.996 . S
O12 C18 1.255 1_556 S
O13 Fe3 1.976 . S
O13 C8 1.287 . S
O14 Fe0 1.996 . S
O14 C8 1.255 . S
C15 O19 1.295 . S
C15 O20 1.235 . S
O16 Fe1 1.976 . S
O16 C10 1.287 . S
O17 Fe3 1.996 1_556 S
O17 C10 1.255 . S
C18 O11 1.287 . S
C18 O12 1.255 1_554 S
O19 Fe1 2.002 . S
O19 C15 1.295 . S
O20 Fe3 1.997 1_556 S
O20 C15 1.235 . S
C21 O4 1.295 . S
C21 O5 1.235 . S
Fe22 O24 1.918 . S
Fe22 O27 1.997 . S
Fe22 O28 2.002 . S
Fe22 O33 1.976 . S
Fe22 O36 1.996 . S
Fe23 O24 1.918 . S
Fe23 O31 1.997 . S
Fe23 O34 1.996 . S
Fe23 O38 1.976 . S
Fe23 O41 2.002 . S
O24 Fe22 1.918 . S
O24 Fe23 1.918 . S
O24 Fe25 1.918 . S
Fe25 O24 1.918 . S
Fe25 O26 2.002 . S
Fe25 O35 1.976 . S
Fe25 O39 1.996 . S
Fe25 O42 1.997 . S
O26 Fe25 2.002 . S
O26 C43 1.295 . S
O27 Fe22 1.997 . S
O27 C43 1.235 . S
O28 Fe22 2.002 . S
O28 C29 1.295 . S
C29 O28 1.295 . S
C29 O31 1.235 . S
C30 O35 1.287 . S
C30 O36 1.255 . S
O31 Fe23 1.997 . S
O31 C29 1.235 . S
C32 O38 1.287 . S
C32 O39 1.255 . S
O33 Fe22 1.976 . S
O33 C40 1.287 . S
O34 Fe23 1.996 . S
O34 C40 1.255 . S
O35 Fe25 1.976 . S
O35 C30 1.287 . S
O36 Fe22 1.996 . S
O36 C30 1.255 . S
C37 O41 1.295 . S
C37 O42 1.235 . S
O38 Fe23 1.976 . S
O38 C32 1.287 . S
O39 Fe25 1.996 . S
O39 C32 1.255 . S
C40 O33 1.287 . S
C40 O34 1.255 . S
O41 Fe23 2.002 . S
O41 C37 1.295 . S
O42 Fe25 1.997 . S
O42 C37 1.235 . S
C43 O26 1.295 . S
C43 O27 1.235 . S
Fe44 O46 1.918 1_556 S
Fe44 O49 1.997 . S
Fe44 O50 2.002 . S
Fe44 O55 1.976 . S
Fe44 O58 1.996 . S
Fe45 O46 1.918 . S
Fe45 O53 1.997 . S
Fe45 O56 1.996 . S
Fe45 O60 1.976 . S
Fe45 O63 2.002 . S
O46 Fe44 1.918 1_554 S
O46 Fe45 1.918 . S
O46 Fe47 1.918 . S
Fe47 O46 1.918 . S
Fe47 O48 2.002 1_554 S
Fe47 O57 1.976 1_554 S
Fe47 O61 1.996 . S
Fe47 O64 1.997 . S
O48 Fe47 2.002 1_556 S
O48 C65 1.295 . S
O49 Fe44 1.997 . S
O49 C65 1.235 . S
O50 Fe44 2.002 . S
O50 C51 1.295 1_556 S
C51 O50 1.295 1_554 S
C51 O53 1.235 . S
C52 O57 1.287 . S
C52 O58 1.255 . S
O53 Fe45 1.997 . S
O53 C51 1.235 . S
C54 O60 1.287 . S
C54 O61 1.255 . S
O55 Fe44 1.976 . S
O55 C62 1.287 1_556 S
O56 Fe45 1.996 . S
O56 C62 1.255 . S
O57 Fe47 1.976 1_556 S
O57 C52 1.287 . S
O58 Fe44 1.996 . S
O58 C52 1.255 . S
C59 O63 1.295 . S
C59 O64 1.235 . S
O60 Fe45 1.976 . S
O60 C54 1.287 . S
O61 Fe47 1.996 . S
O61 C54 1.255 . S
C62 O55 1.287 1_554 S
C62 O56 1.255 . S
O63 Fe45 2.002 . S
O63 C59 1.295 . S
O64 Fe47 1.997 . S
O64 C59 1.235 . S
C65 O48 1.295 . S
C65 O49 1.235 . S
Fe66 O68 1.918 . S
Fe66 O71 1.997 . S
Fe66 O72 2.002 . S
Fe66 O77 1.976 . S
Fe66 O80 1.996 . S
Fe67 O68 1.918 . S
Fe67 O75 1.997 . S
Fe67 O78 1.996 . S
Fe67 O82 1.976 . S
Fe67 O85 2.002 . S
O68 Fe66 1.918 . S
O68 Fe67 1.918 . S
O68 Fe69 1.918 . S
Fe69 O68 1.918 . S
Fe69 O70 2.002 . S
Fe69 O79 1.976 . S
Fe69 O83 1.996 . S
Fe69 O86 1.997 . S
O70 Fe69 2.002 . S
O70 C87 1.295 . S
O71 Fe66 1.997 . S
O71 C87 1.235 . S
O72 Fe66 2.002 . S
O72 C73 1.295 . S
C73 O72 1.295 . S
C73 O75 1.235 . S
C74 O79 1.287 . S
C74 O80 1.255 . S
O75 Fe67 1.997 . S
O75 C73 1.235 . S
C76 O82 1.287 . S
C76 O83 1.255 . S
O77 Fe66 1.976 . S
O77 C84 1.287 . S
O78 Fe67 1.996 . S
O78 C84 1.255 . S
O79 Fe69 1.976 . S
O79 C74 1.287 . S
O80 Fe66 1.996 . S
O80 C74 1.255 . S
C81 O85 1.295 . S
C81 O86 1.235 . S
O82 Fe67 1.976 . S
O82 C76 1.287 . S
O83 Fe69 1.996 . S
O83 C76 1.255 . S
C84 O77 1.287 . S
C84 O78 1.255 . S
O85 Fe67 2.002 . S
O85 C81 1.295 . S
O86 Fe69 1.997 . S
O86 C81 1.235 . S
C87 O70 1.295 . S
C87 O71 1.235 . S
H88 C91 0.928 1_554 S
H89 C94 0.929 . S
H90 C96 0.930 . S
C91 H88 0.928 1_556 S
C91 C92 1.416 . S
C91 C93 1.380 1_556 S
C92 C91 1.416 . S
C92 C96 1.407 . S
C93 C91 1.380 1_554 S
C93 C94 1.394 . S
C94 H89 0.929 . S
C94 C93 1.394 . S
C94 C95 1.382 1_554 S
C95 C94 1.382 1_556 S
C95 C96 1.392 . S
C95 N97 1.420 . S
C96 H90 0.930 . S
C96 C92 1.407 . S
C96 C95 1.392 . S
N97 C95 1.420 . S
N97 C98 1.244 1_556 S
C98 N97 1.244 1_554 S
H99 C102 0.929 . S
H100 C105 0.962 . S
H101 C107 0.930 . S
C102 H99 0.929 . S
C102 C103 1.398 . S
C102 C104 1.396 . S
C103 C102 1.398 . S
C103 C107 1.407 . S
C104 C102 1.396 . S
C104 C105 1.394 . S
C105 H100 0.962 . S
C105 C104 1.394 . S
C105 C106 1.382 1_655 S
C106 C105 1.382 1_455 S
C106 C107 1.393 1_455 S
C106 N108 1.419 . S
C107 H101 0.930 . S
C107 C103 1.407 . S
C107 C106 1.393 1_655 S
N108 C106 1.419 . S
N108 C109 1.244 . S
C109 N108 1.244 . S
H110 C113 0.929 . S
H111 C116 0.929 . S
H112 C118 0.930 . S
C113 H110 0.929 . S
C113 C114 1.398 . S
C113 C115 1.396 1_554 S
C114 C113 1.398 . S
C114 C118 1.407 . S
C115 C113 1.396 1_556 S
C115 C116 1.394 . S
C116 H111 0.929 . S
C116 C115 1.394 . S
C116 C117 1.382 1_556 S
C117 C116 1.382 1_554 S
C117 C118 1.392 . S
C117 N119 1.420 . S
C118 H112 0.930 . S
C118 C114 1.407 . S
C118 C117 1.392 . S
N119 C117 1.420 . S
N119 C120 1.244 . S
C120 N119 1.244 . S
H121 C124 0.929 . S
H122 C127 0.929 . S
H123 C129 0.930 . S
C124 H121 0.929 . S
C124 C125 1.398 . S
C124 C126 1.396 . S
C125 C124 1.398 . S
C125 C129 1.407 . S
C126 C124 1.396 . S
C126 C127 1.394 . S
C127 H122 0.929 . S
C127 C126 1.394 . S
C127 C128 1.394 . S
C128 C127 1.394 . S
C128 C129 1.409 . S
C128 N130 1.392 1_455 S
C129 H123 0.930 . S
C129 C125 1.407 . S
C129 C128 1.409 . S
N130 C128 1.392 1_655 S
N130 C131 1.244 . S
C131 N130 1.244 . S
H132 C135 0.929 . S
H133 C138 0.929 1_545 S
H134 C140 0.930 . S
C135 H132 0.929 . S
C135 C136 1.398 . S
C135 C137 1.396 . S
C136 C135 1.398 . S
C136 C140 1.407 . S
C137 C135 1.396 . S
C137 C138 1.394 . S
C138 H133 0.929 1_565 S
C138 C137 1.394 . S
C138 C139 1.382 1_565 S
C139 C138 1.382 1_545 S
C139 C140 1.392 1_545 S
C139 N141 1.420 . S
C140 H134 0.930 . S
C140 C136 1.407 . S
C140 C139 1.392 1_565 S
N141 C139 1.420 . S
N141 C142 1.244 . S
C142 N141 1.244 . S
H143 C146 0.929 . S
H144 C149 0.929 . S
H145 C151 0.930 . S
C146 H143 0.929 . S
C146 C147 1.398 1_554 S
C146 C148 1.396 . S
C147 C146 1.398 1_556 S
C147 C151 1.407 . S
C148 C146 1.396 . S
C148 C149 1.394 . S
C149 H144 0.929 . S
C149 C148 1.394 . S
C149 C150 1.382 1_554 S
C150 C149 1.382 1_556 S
C150 C151 1.392 . S
C150 N152 1.420 . S
C151 H145 0.930 . S
C151 C147 1.407 . S
C151 C150 1.392 . S
N152 C150 1.420 . S
N152 C153 1.244 1_556 S
C153 N152 1.244 1_554 S
H154 C157 0.929 . S
H155 C160 0.964 . S
H156 C162 0.930 . S
C157 H154 0.929 . S
C157 C158 1.398 . S
C157 C159 1.396 . S
C158 C157 1.398 . S
C158 C162 1.407 . S
C159 C157 1.396 . S
C159 C160 1.394 . S
C160 H155 0.964 . S
C160 C159 1.394 . S
C160 C161 1.383 1_545 S
C161 C160 1.383 1_565 S
C161 C162 1.394 1_565 S
C161 N163 1.416 . S
C162 H156 0.930 . S
C162 C158 1.407 . S
C162 C161 1.394 1_545 S
N163 C161 1.416 . S
N163 C164 1.244 . S
C164 N163 1.244 . S
H165 C168 0.929 . S
H166 C171 0.929 . S
H167 C173 0.930 . S
C168 H165 0.929 . S
C168 C169 1.398 . S
C168 C170 1.396 1_554 S
C169 C168 1.398 . S
C169 C173 1.407 . S
C170 C168 1.396 1_556 S
C170 C171 1.394 . S
C171 H166 0.929 . S
C171 C170 1.394 . S
C171 C172 1.382 1_556 S
C172 C171 1.382 1_554 S
C172 C173 1.392 . S
C172 N174 1.420 . S
C173 H167 0.930 . S
C173 C169 1.407 . S
C173 C172 1.392 . S
N174 C172 1.420 . S
N174 C175 1.244 . S
C175 N174 1.244 . S
H176 C194 0.951 . S
H177 C196 0.951 . S
H178 C198 0.950 . S
H179 C199 0.950 . S
H180 C201 0.950 . S
H181 C204 0.950 . S
H182 C205 0.950 . S
H183 C207 0.950 . S
H184 C208 0.950 . S
H185 C209 0.951 . S
H186 C211 0.951 . S
H187 C213 0.950 . S
H188 C214 0.950 . S
H189 C216 0.950 . S
H190 C219 0.950 . S
H191 C220 0.950 . S
H192 C222 0.950 . S
H193 C223 0.950 . S
C194 H176 0.951 . S
C194 C195 1.366 . S
C194 C196 1.388 . S
C195 C194 1.366 . S
C195 C199 1.385 . S
C196 H177 0.951 . S
C196 C194 1.388 . S
C196 C197 1.366 . S
C197 C196 1.366 . S
C197 C198 1.414 . S
C197 C200 1.499 . S
C198 H178 0.950 . S
C198 C197 1.414 . S
C198 C199 1.374 . S
C199 H179 0.950 . S
C199 C195 1.385 . S
C199 C198 1.374 . S
C200 C197 1.499 . S
C200 C201 1.373 . S
C200 C202 1.389 . S
C201 H180 0.950 . S
C201 C200 1.373 . S
C201 C217 1.377 . S
C202 C200 1.389 . S
C202 C203 1.524 . S
C202 C216 1.377 . S
C203 C202 1.524 . S
C203 C204 1.397 . S
C203 C208 1.363 . S
C204 H181 0.950 . S
C204 C203 1.397 . S
C204 C205 1.334 . S
C205 H182 0.950 . S
C205 C204 1.334 . S
C205 C206 1.287 . S
C206 C205 1.287 . S
C206 C207 1.524 . S
C206 H225 0.913 . S
C207 H183 0.950 . S
C207 C206 1.524 . S
C207 C208 1.415 . S
C208 H184 0.950 . S
C208 C203 1.363 . S
C208 C207 1.415 . S
C209 H185 0.951 . S
C209 C210 1.366 . S
C209 C211 1.388 . S
C210 C209 1.366 . S
C210 C214 1.385 . S
C211 H186 0.951 . S
C211 C209 1.388 . S
C211 C212 1.366 . S
C212 C211 1.366 . S
C212 C213 1.414 . S
C212 C215 1.499 . S
C213 H187 0.950 . S
C213 C212 1.414 . S
C213 C214 1.374 . S
C214 H188 0.950 . S
C214 C210 1.385 . S
C214 C213 1.374 . S
C215 C212 1.499 . S
C215 C216 1.373 . S
C215 C217 1.389 . S
C216 H189 0.950 . S
C216 C202 1.377 . S
C216 C215 1.373 . S
C217 C201 1.377 . S
C217 C215 1.389 . S
C217 C218 1.524 . S
C218 C217 1.524 . S
C218 C219 1.397 . S
C218 C223 1.363 . S
C219 H190 0.950 . S
C219 C218 1.397 . S
C219 C220 1.334 . S
C220 H191 0.950 . S
C220 C219 1.334 . S
C220 C221 1.287 . S
C221 C220 1.287 . S
C221 C222 1.524 . S
C221 H224 0.999 . S
C222 H192 0.950 . S
C222 C221 1.524 . S
C222 C223 1.415 . S
C223 H193 0.950 . S
C223 C218 1.363 . S
C223 C222 1.415 . S
H224 C221 0.999 . S
H225 C206 0.913 . S
H226 C244 0.951 . S
H227 C246 0.951 . S
H228 C248 0.950 . S
H229 C249 0.950 . S
H230 C251 0.950 . S
H231 C254 0.950 . S
H232 C255 0.950 . S
H233 C257 0.950 . S
H234 C258 0.950 . S
H235 C259 0.951 . S
H236 C261 0.951 . S
H237 C263 0.950 . S
H238 C264 0.950 . S
H239 C266 0.950 . S
H240 C269 0.950 . S
H241 C270 0.950 . S
H242 C272 0.950 . S
H243 C273 0.950 . S
C244 H226 0.951 . S
C244 C245 1.366 . S
C244 C246 1.388 . S
C245 C244 1.366 . S
C245 C249 1.385 . S
C246 H227 0.951 . S
C246 C244 1.388 . S
C246 C247 1.366 . S
C247 C246 1.366 . S
C247 C248 1.414 . S
C247 C250 1.499 . S
C248 H228 0.950 . S
C248 C247 1.414 . S
C248 C249 1.374 . S
C249 H229 0.950 . S
C249 C245 1.385 . S
C249 C248 1.374 . S
C250 C247 1.499 . S
C250 C251 1.373 . S
C250 C252 1.389 . S
C251 H230 0.950 . S
C251 C250 1.373 . S
C251 C267 1.377 . S
C252 C250 1.389 . S
C252 C253 1.524 . S
C252 C266 1.377 . S
C253 C252 1.524 . S
C253 C254 1.397 . S
C253 C258 1.363 . S
C254 H231 0.950 . S
C254 C253 1.397 . S
C254 C255 1.334 . S
C255 H232 0.950 . S
C255 C254 1.334 . S
C255 C256 1.287 . S
C256 C255 1.287 . S
C256 C257 1.524 . S
C256 H275 0.913 . S
C257 H233 0.950 . S
C257 C256 1.524 . S
C257 C258 1.415 . S
C258 H234 0.950 . S
C258 C253 1.363 . S
C258 C257 1.415 . S
C259 H235 0.951 . S
C259 C260 1.366 . S
C259 C261 1.388 . S
C260 C259 1.366 . S
C260 C264 1.385 . S
C261 H236 0.951 . S
C261 C259 1.388 . S
C261 C262 1.366 . S
C262 C261 1.366 . S
C262 C263 1.414 . S
C262 C265 1.499 . S
C263 H237 0.950 . S
C263 C262 1.414 . S
C263 C264 1.374 . S
C264 H238 0.950 . S
C264 C260 1.385 . S
C264 C263 1.374 . S
C265 C262 1.499 . S
C265 C266 1.373 . S
C265 C267 1.389 . S
C266 H239 0.950 . S
C266 C252 1.377 . S
C266 C265 1.373 . S
C267 C251 1.377 . S
C267 C265 1.389 . S
C267 C268 1.524 . S
C268 C267 1.524 . S
C268 C269 1.397 . S
C268 C273 1.363 . S
C269 H240 0.950 . S
C269 C268 1.397 . S
C269 C270 1.334 . S
C270 H241 0.950 . S
C270 C269 1.334 . S
C270 C271 1.287 . S
C271 C270 1.287 . S
C271 C272 1.524 . S
C271 H274 0.999 . S
C272 H242 0.950 . S
C272 C271 1.524 . S
C272 C273 1.415 . S
C273 H243 0.950 . S
C273 C268 1.363 . S
C273 C272 1.415 . S
H274 C271 0.999 . S
H275 C256 0.913 . S
H276 C294 0.951 . S
H277 C296 0.951 . S
H278 C298 0.950 . S
H279 C299 0.950 . S
H280 C301 0.950 . S
H281 C304 0.950 . S
H282 C305 0.950 . S
H283 C307 0.950 . S
H284 C308 0.950 . S
H285 C309 0.951 . S
H286 C311 0.951 . S
H287 C313 0.950 . S
H288 C314 0.950 . S
H289 C316 0.950 . S
H290 C319 0.950 . S
H291 C320 0.950 . S
H292 C322 0.950 . S
H293 C323 0.950 . S
C294 H276 0.951 . S
C294 C295 1.366 . S
C294 C296 1.388 . S
C295 C294 1.366 . S
C295 C299 1.385 . S
C296 H277 0.951 . S
C296 C294 1.388 . S
C296 C297 1.366 . S
C297 C296 1.366 . S
C297 C298 1.414 . S
C297 C300 1.499 . S
C298 H278 0.950 . S
C298 C297 1.414 . S
C298 C299 1.374 . S
C299 H279 0.950 . S
C299 C295 1.385 . S
C299 C298 1.374 . S
C300 C297 1.499 . S
C300 C301 1.373 . S
C300 C302 1.389 . S
C301 H280 0.950 . S
C301 C300 1.373 . S
C301 C317 1.377 . S
C302 C300 1.389 . S
C302 C303 1.524 . S
C302 C316 1.377 . S
C303 C302 1.524 . S
C303 C304 1.397 . S
C303 C308 1.363 . S
C304 H281 0.950 . S
C304 C303 1.397 . S
C304 C305 1.334 . S
C305 H282 0.950 . S
C305 C304 1.334 . S
C305 C306 1.287 . S
C306 C305 1.287 . S
C306 C307 1.524 . S
C306 H325 0.913 . S
C307 H283 0.950 . S
C307 C306 1.524 . S
C307 C308 1.415 . S
C308 H284 0.950 . S
C308 C303 1.363 . S
C308 C307 1.415 . S
C309 H285 0.951 . S
C309 C310 1.366 . S
C309 C311 1.388 . S
C310 C309 1.366 . S
C310 C314 1.385 . S
C311 H286 0.951 . S
C311 C309 1.388 . S
C311 C312 1.366 . S
C312 C311 1.366 . S
C312 C313 1.414 . S
C312 C315 1.499 . S
C313 H287 0.950 . S
C313 C312 1.414 . S
C313 C314 1.374 . S
C314 H288 0.950 . S
C314 C310 1.385 . S
C314 C313 1.374 . S
C315 C312 1.499 . S
C315 C316 1.373 . S
C315 C317 1.389 . S
C316 H289 0.950 . S
C316 C302 1.377 . S
C316 C315 1.373 . S
C317 C301 1.377 . S
C317 C315 1.389 . S
C317 C318 1.524 . S
C318 C317 1.524 . S
C318 C319 1.397 . S
C318 C323 1.363 . S
C319 H290 0.950 . S
C319 C318 1.397 . S
C319 C320 1.334 . S
C320 H291 0.950 . S
C320 C319 1.334 . S
C320 C321 1.287 . S
C321 C320 1.287 . S
C321 C322 1.524 . S
C321 H324 0.999 . S
C322 H292 0.950 . S
C322 C321 1.524 . S
C322 C323 1.415 . S
C323 H293 0.950 . S
C323 C318 1.363 . S
C323 C322 1.415 . S
H324 C321 0.999 . S
H325 C306 0.913 . S
H326 C344 0.951 . S
H327 C346 0.951 . S
H328 C348 0.950 . S
H329 C349 0.950 . S
H330 C351 0.950 . S
H331 C354 0.950 . S
H332 C355 0.950 . S
H333 C357 0.950 . S
H334 C358 0.950 . S
H335 C359 0.951 . S
H336 C361 0.951 . S
H337 C363 0.950 . S
H338 C364 0.950 . S
H339 C366 0.950 . S
H340 C369 0.950 . S
H341 C370 0.950 . S
H342 C372 0.950 . S
H343 C373 0.950 . S
C344 H326 0.951 . S
C344 C345 1.366 . S
C344 C346 1.388 . S
C345 C344 1.366 . S
C345 C349 1.385 . S
C346 H327 0.951 . S
C346 C344 1.388 . S
C346 C347 1.366 . S
C347 C346 1.366 . S
C347 C348 1.414 . S
C347 C350 1.499 . S
C348 H328 0.950 . S
C348 C347 1.414 . S
C348 C349 1.374 . S
C349 H329 0.950 . S
C349 C345 1.385 . S
C349 C348 1.374 . S
C350 C347 1.499 . S
C350 C351 1.373 . S
C350 C352 1.389 . S
C351 H330 0.950 . S
C351 C350 1.373 . S
C351 C367 1.377 . S
C352 C350 1.389 . S
C352 C353 1.524 . S
C352 C366 1.377 . S
C353 C352 1.524 . S
C353 C354 1.397 . S
C353 C358 1.363 . S
C354 H331 0.950 . S
C354 C353 1.397 . S
C354 C355 1.334 . S
C355 H332 0.950 . S
C355 C354 1.334 . S
C355 C356 1.287 . S
C356 C355 1.287 . S
C356 C357 1.524 . S
C356 H375 0.913 . S
C357 H333 0.950 . S
C357 C356 1.524 . S
C357 C358 1.415 . S
C358 H334 0.950 . S
C358 C353 1.363 . S
C358 C357 1.415 . S
C359 H335 0.951 . S
C359 C360 1.366 . S
C359 C361 1.388 . S
C360 C359 1.366 . S
C360 C364 1.385 . S
C361 H336 0.951 . S
C361 C359 1.388 . S
C361 C362 1.366 . S
C362 C361 1.366 . S
C362 C363 1.414 . S
C362 C365 1.499 . S
C363 H337 0.950 . S
C363 C362 1.414 . S
C363 C364 1.374 . S
C364 H338 0.950 . S
C364 C360 1.385 . S
C364 C363 1.374 . S
C365 C362 1.499 . S
C365 C366 1.373 . S
C365 C367 1.389 . S
C366 H339 0.950 . S
C366 C352 1.377 . S
C366 C365 1.373 . S
C367 C351 1.377 . S
C367 C365 1.389 . S
C367 C368 1.524 . S
C368 C367 1.524 . S
C368 C369 1.397 . S
C368 C373 1.363 . S
C369 H340 0.950 . S
C369 C368 1.397 . S
C369 C370 1.334 . S
C370 H341 0.950 . S
C370 C369 1.334 . S
C370 C371 1.287 . S
C371 C370 1.287 . S
C371 C372 1.524 . S
C371 H374 0.999 . S
C372 H342 0.950 . S
C372 C371 1.524 . S
C372 C373 1.415 . S
C373 H343 0.950 . S
C373 C368 1.363 . S
C373 C372 1.415 . S
H374 C371 0.999 . S
H375 C356 0.913 . S
H376 C394 0.951 . S
H377 C396 0.951 . S
H378 C398 0.950 . S
H379 C399 0.950 . S
H380 C401 0.950 . S
H381 C404 0.950 . S
H382 C405 0.950 . S
H383 C407 0.950 . S
H384 C408 0.950 . S
H385 C409 0.951 . S
H386 C411 0.951 . S
H387 C413 0.950 . S
H388 C414 0.950 . S
H389 C416 0.950 . S
H390 C419 0.950 . S
H391 C420 0.950 . S
H392 C422 0.950 . S
H393 C423 0.950 . S
C394 H376 0.951 . S
C394 C395 1.366 . S
C394 C396 1.388 . S
C395 C394 1.366 . S
C395 C399 1.385 . S
C396 H377 0.951 . S
C396 C394 1.388 . S
C396 C397 1.366 . S
C397 C396 1.366 . S
C397 C398 1.414 . S
C397 C400 1.499 . S
C398 H378 0.950 . S
C398 C397 1.414 . S
C398 C399 1.374 . S
C399 H379 0.950 . S
C399 C395 1.385 . S
C399 C398 1.374 . S
C400 C397 1.499 . S
C400 C401 1.373 . S
C400 C402 1.389 . S
C401 H380 0.950 . S
C401 C400 1.373 . S
C401 C417 1.377 . S
C402 C400 1.389 . S
C402 C403 1.524 . S
C402 C416 1.377 . S
C403 C402 1.524 . S
C403 C404 1.397 . S
C403 C408 1.363 . S
C404 H381 0.950 . S
C404 C403 1.397 . S
C404 C405 1.334 . S
C405 H382 0.950 . S
C405 C404 1.334 . S
C405 C406 1.287 . S
C406 C405 1.287 . S
C406 C407 1.524 . S
C406 H425 0.913 . S
C407 H383 0.950 . S
C407 C406 1.524 . S
C407 C408 1.415 . S
C408 H384 0.950 . S
C408 C403 1.363 . S
C408 C407 1.415 . S
C409 H385 0.951 . S
C409 C410 1.366 . S
C409 C411 1.388 . S
C410 C409 1.366 . S
C410 C414 1.385 . S
C411 H386 0.951 . S
C411 C409 1.388 . S
C411 C412 1.366 . S
C412 C411 1.366 . S
C412 C413 1.414 . S
C412 C415 1.499 . S
C413 H387 0.950 . S
C413 C412 1.414 . S
C413 C414 1.374 . S
C414 H388 0.950 . S
C414 C410 1.385 . S
C414 C413 1.374 . S
C415 C412 1.499 . S
C415 C416 1.373 . S
C415 C417 1.389 . S
C416 H389 0.950 . S
C416 C402 1.377 . S
C416 C415 1.373 . S
C417 C401 1.377 . S
C417 C415 1.389 . S
C417 C418 1.524 . S
C418 C417 1.524 . S
C418 C419 1.397 . S
C418 C423 1.363 . S
C419 H390 0.950 . S
C419 C418 1.397 . S
C419 C420 1.334 . S
C420 H391 0.950 . S
C420 C419 1.334 . S
C420 C421 1.287 . S
C421 C420 1.287 . S
C421 C422 1.524 . S
C421 H424 0.999 . S
C422 H392 0.950 . S
C422 C421 1.524 . S
C422 C423 1.415 . S
C423 H393 0.950 . S
C423 C418 1.363 . S
C423 C422 1.415 . S
H424 C421 0.999 . S
H425 C406 0.913 . S
H426 C444 0.951 . S
H427 C446 0.951 . S
H428 C448 0.950 . S
H429 C449 0.950 . S
H430 C451 0.950 . S
H431 C454 0.950 . S
H432 C455 0.950 . S
H433 C457 0.950 . S
H434 C458 0.950 . S
H435 C459 0.951 . S
H436 C461 0.951 . S
H437 C463 0.950 . S
H438 C464 0.950 . S
H439 C466 0.950 . S
H440 C469 0.950 . S
H441 C470 0.950 . S
H442 C472 0.950 . S
H443 C473 0.950 . S
C444 H426 0.951 . S
C444 C445 1.366 . S
C444 C446 1.388 . S
C445 C444 1.366 . S
C445 C449 1.385 . S
C446 H427 0.951 . S
C446 C444 1.388 . S
C446 C447 1.366 . S
C447 C446 1.366 . S
C447 C448 1.414 . S
C447 C450 1.499 . S
C448 H428 0.950 . S
C448 C447 1.414 . S
C448 C449 1.374 . S
C449 H429 0.950 . S
C449 C445 1.385 . S
C449 C448 1.374 . S
C450 C447 1.499 . S
C450 C451 1.373 . S
C450 C452 1.389 . S
C451 H430 0.950 . S
C451 C450 1.373 . S
C451 C467 1.377 . S
C452 C450 1.389 . S
C452 C453 1.524 . S
C452 C466 1.377 . S
C453 C452 1.524 . S
C453 C454 1.397 . S
C453 C458 1.363 . S
C454 H431 0.950 . S
C454 C453 1.397 . S
C454 C455 1.334 . S
C455 H432 0.950 . S
C455 C454 1.334 . S
C455 C456 1.287 . S
C456 C455 1.287 . S
C456 C457 1.524 . S
C456 H475 0.913 . S
C457 H433 0.950 . S
C457 C456 1.524 . S
C457 C458 1.415 . S
C458 H434 0.950 . S
C458 C453 1.363 . S
C458 C457 1.415 . S
C459 H435 0.951 . S
C459 C460 1.366 . S
C459 C461 1.388 . S
C460 C459 1.366 . S
C460 C464 1.385 . S
C461 H436 0.951 . S
C461 C459 1.388 . S
C461 C462 1.366 . S
C462 C461 1.366 . S
C462 C463 1.414 . S
C462 C465 1.499 . S
C463 H437 0.950 . S
C463 C462 1.414 . S
C463 C464 1.374 . S
C464 H438 0.950 . S
C464 C460 1.385 . S
C464 C463 1.374 . S
C465 C462 1.499 . S
C465 C466 1.373 . S
C465 C467 1.389 . S
C466 H439 0.950 . S
C466 C452 1.377 . S
C466 C465 1.373 . S
C467 C451 1.377 . S
C467 C465 1.389 . S
C467 C468 1.524 . S
C468 C467 1.524 . S
C468 C469 1.397 . S
C468 C473 1.363 . S
C469 H440 0.950 . S
C469 C468 1.397 . S
C469 C470 1.334 . S
C470 H441 0.950 . S
C470 C469 1.334 . S
C470 C471 1.287 . S
C471 C470 1.287 . S
C471 C472 1.524 . S
C471 H474 0.999 . S
C472 H442 0.950 . S
C472 C471 1.524 . S
C472 C473 1.415 . S
C473 H443 0.950 . S
C473 C468 1.363 . S
C473 C472 1.415 . S
H474 C471 0.999 . S
H475 C456 0.913 . S
H476 C494 0.951 . S
H477 C496 0.951 . S
H478 C498 0.950 . S
H479 C499 0.950 . S
H480 C501 0.950 . S
H481 C504 0.950 . S
H482 C505 0.950 . S
H483 C507 0.950 . S
H484 C508 0.950 . S
H485 C509 0.951 . S
H486 C511 0.951 . S
H487 C513 0.950 . S
H488 C514 0.950 . S
H489 C516 0.950 . S
H490 C519 0.950 . S
H491 C520 0.950 . S
H492 C522 0.950 . S
H493 C523 0.950 . S
C494 H476 0.951 . S
C494 C495 1.366 . S
C494 C496 1.388 . S
C495 C494 1.366 . S
C495 C499 1.385 . S
C496 H477 0.951 . S
C496 C494 1.388 . S
C496 C497 1.366 . S
C497 C496 1.366 . S
C497 C498 1.414 . S
C497 C500 1.499 . S
C498 H478 0.950 . S
C498 C497 1.414 . S
C498 C499 1.374 . S
C499 H479 0.950 . S
C499 C495 1.385 . S
C499 C498 1.374 . S
C500 C497 1.499 . S
C500 C501 1.373 . S
C500 C502 1.389 . S
C501 H480 0.950 . S
C501 C500 1.373 . S
C501 C517 1.377 . S
C502 C500 1.389 . S
C502 C503 1.524 . S
C502 C516 1.377 . S
C503 C502 1.524 . S
C503 C504 1.397 . S
C503 C508 1.363 . S
C504 H481 0.950 . S
C504 C503 1.397 . S
C504 C505 1.334 . S
C505 H482 0.950 . S
C505 C504 1.334 . S
C505 C506 1.287 . S
C506 C505 1.287 . S
C506 C507 1.524 . S
C506 H525 0.913 . S
C507 H483 0.950 . S
C507 C506 1.524 . S
C507 C508 1.415 . S
C508 H484 0.950 . S
C508 C503 1.363 . S
C508 C507 1.415 . S
C509 H485 0.951 . S
C509 C510 1.366 . S
C509 C511 1.388 . S
C510 C509 1.366 . S
C510 C514 1.385 . S
C511 H486 0.951 . S
C511 C509 1.388 . S
C511 C512 1.366 . S
C512 C511 1.366 . S
C512 C513 1.414 . S
C512 C515 1.499 . S
C513 H487 0.950 . S
C513 C512 1.414 . S
C513 C514 1.374 . S
C514 H488 0.950 . S
C514 C510 1.385 . S
C514 C513 1.374 . S
C515 C512 1.499 . S
C515 C516 1.373 . S
C515 C517 1.389 . S
C516 H489 0.950 . S
C516 C502 1.377 . S
C516 C515 1.373 . S
C517 C501 1.377 . S
C517 C515 1.389 . S
C517 C518 1.524 . S
C518 C517 1.524 . S
C518 C519 1.397 . S
C518 C523 1.363 . S
C519 H490 0.950 . S
C519 C518 1.397 . S
C519 C520 1.334 . S
C520 H491 0.950 . S
C520 C519 1.334 . S
C520 C521 1.287 . S
C521 C520 1.287 . S
C521 C522 1.524 . S
C521 H524 0.999 . S
C522 H492 0.950 . S
C522 C521 1.524 . S
C522 C523 1.415 . S
C523 H493 0.950 . S
C523 C518 1.363 . S
C523 C522 1.415 . S
H524 C521 0.999 . S
H525 C506 0.913 . S
H526 C544 0.951 . S
H527 C546 0.951 . S
H528 C548 0.950 . S
H529 C549 0.950 . S
H530 C551 0.950 . S
H531 C554 0.950 . S
H532 C555 0.950 . S
H533 C557 0.950 . S
H534 C558 0.950 . S
H535 C559 0.951 . S
H536 C561 0.951 . S
H537 C563 0.950 . S
H538 C564 0.950 . S
H539 C566 0.950 . S
H540 C569 0.950 . S
H541 C570 0.950 . S
H542 C572 0.950 . S
H543 C573 0.950 . S
C544 H526 0.951 . S
C544 C545 1.366 . S
C544 C546 1.388 . S
C545 C544 1.366 . S
C545 C549 1.385 . S
C546 H527 0.951 . S
C546 C544 1.388 . S
C546 C547 1.366 . S
C547 C546 1.366 . S
C547 C548 1.414 . S
C547 C550 1.499 . S
C548 H528 0.950 . S
C548 C547 1.414 . S
C548 C549 1.374 . S
C549 H529 0.950 . S
C549 C545 1.385 . S
C549 C548 1.374 . S
C550 C547 1.499 . S
C550 C551 1.373 . S
C550 C552 1.389 . S
C551 H530 0.950 . S
C551 C550 1.373 . S
C551 C567 1.377 . S
C552 C550 1.389 . S
C552 C553 1.524 . S
C552 C566 1.377 . S
C553 C552 1.524 . S
C553 C554 1.397 . S
C553 C558 1.363 . S
C554 H531 0.950 . S
C554 C553 1.397 . S
C554 C555 1.334 . S
C555 H532 0.950 . S
C555 C554 1.334 . S
C555 C556 1.287 . S
C556 C555 1.287 . S
C556 C557 1.524 . S
C556 H575 0.913 . S
C557 H533 0.950 . S
C557 C556 1.524 . S
C557 C558 1.415 . S
C558 H534 0.950 . S
C558 C553 1.363 . S
C558 C557 1.415 . S
C559 H535 0.951 . S
C559 C560 1.366 . S
C559 C561 1.388 . S
C560 C559 1.366 . S
C560 C564 1.385 . S
C561 H536 0.951 . S
C561 C559 1.388 . S
C561 C562 1.366 . S
C562 C561 1.366 . S
C562 C563 1.414 . S
C562 C565 1.499 . S
C563 H537 0.950 . S
C563 C562 1.414 . S
C563 C564 1.374 . S
C564 H538 0.950 . S
C564 C560 1.385 . S
C564 C563 1.374 . S
C565 C562 1.499 . S
C565 C566 1.373 . S
C565 C567 1.389 . S
C566 H539 0.950 . S
C566 C552 1.377 . S
C566 C565 1.373 . S
C567 C551 1.377 . S
C567 C565 1.389 . S
C567 C568 1.524 . S
C568 C567 1.524 . S
C568 C569 1.397 . S
C568 C573 1.363 . S
C569 H540 0.950 . S
C569 C568 1.397 . S
C569 C570 1.334 . S
C570 H541 0.950 . S
C570 C569 1.334 . S
C570 C571 1.287 . S
C571 C570 1.287 . S
C571 C572 1.524 . S
C571 H574 0.999 . S
C572 H542 0.950 . S
C572 C571 1.524 . S
C572 C573 1.415 . S
C573 H543 0.950 . S
C573 C568 1.363 . S
C573 C572 1.415 . S
H574 C571 0.999 . S
H575 C556 0.913 . S
H576 C594 0.951 . S
H577 C596 0.951 . S
H578 C598 0.950 . S
H579 C599 0.950 . S
H580 C601 0.950 . S
H581 C604 0.950 . S
H582 C605 0.950 . S
H583 C607 0.950 . S
H584 C608 0.950 . S
H585 C609 0.951 . S
H586 C611 0.951 . S
H587 C613 0.950 . S
H588 C614 0.950 . S
H589 C616 0.950 . S
H590 C619 0.950 . S
H591 C620 0.950 . S
H592 C622 0.950 . S
H593 C623 0.950 . S
C594 H576 0.951 . S
C594 C595 1.366 . S
C594 C596 1.388 . S
C595 C594 1.366 . S
C595 C599 1.385 . S
C596 H577 0.951 . S
C596 C594 1.388 . S
C596 C597 1.366 . S
C597 C596 1.366 . S
C597 C598 1.414 . S
C597 C600 1.499 . S
C598 H578 0.950 . S
C598 C597 1.414 . S
C598 C599 1.374 . S
C599 H579 0.950 . S
C599 C595 1.385 . S
C599 C598 1.374 . S
C600 C597 1.499 . S
C600 C601 1.373 . S
C600 C602 1.389 . S
C601 H580 0.950 . S
C601 C600 1.373 . S
C601 C617 1.377 . S
C602 C600 1.389 . S
C602 C603 1.524 . S
C602 C616 1.377 . S
C603 C602 1.524 . S
C603 C604 1.397 . S
C603 C608 1.363 . S
C604 H581 0.950 . S
C604 C603 1.397 . S
C604 C605 1.334 . S
C605 H582 0.950 . S
C605 C604 1.334 . S
C605 C606 1.287 . S
C606 C605 1.287 . S
C606 C607 1.524 . S
C606 H625 0.913 . S
C607 H583 0.950 . S
C607 C606 1.524 . S
C607 C608 1.415 . S
C608 H584 0.950 . S
C608 C603 1.363 . S
C608 C607 1.415 . S
C609 H585 0.951 . S
C609 C610 1.366 . S
C609 C611 1.388 . S
C610 C609 1.366 . S
C610 C614 1.385 . S
C611 H586 0.951 . S
C611 C609 1.388 . S
C611 C612 1.366 . S
C612 C611 1.366 . S
C612 C613 1.414 . S
C612 C615 1.499 . S
C613 H587 0.950 . S
C613 C612 1.414 . S
C613 C614 1.374 . S
C614 H588 0.950 . S
C614 C610 1.385 . S
C614 C613 1.374 . S
C615 C612 1.499 . S
C615 C616 1.373 . S
C615 C617 1.389 . S
C616 H589 0.950 . S
C616 C602 1.377 . S
C616 C615 1.373 . S
C617 C601 1.377 . S
C617 C615 1.389 . S
C617 C618 1.524 . S
C618 C617 1.524 . S
C618 C619 1.397 . S
C618 C623 1.363 . S
C619 H590 0.950 . S
C619 C618 1.397 . S
C619 C620 1.334 . S
C620 H591 0.950 . S
C620 C619 1.334 . S
C620 C621 1.287 . S
C621 C620 1.287 . S
C621 C622 1.524 . S
C621 H624 0.999 . S
C622 H592 0.950 . S
C622 C621 1.524 . S
C622 C623 1.415 . S
C623 H593 0.950 . S
C623 C618 1.363 . S
C623 C622 1.415 . S
H624 C621 0.999 . S
H625 C606 0.913 . S
H626 C644 0.951 . S
H627 C646 0.951 . S
H628 C648 0.950 . S
H629 C649 0.950 . S
H630 C651 0.950 . S
H631 C654 0.950 . S
H632 C655 0.950 . S
H633 C657 0.950 . S
H634 C658 0.950 . S
H635 C659 0.951 . S
H636 C661 0.951 . S
H637 C663 0.950 . S
H638 C664 0.950 . S
H639 C666 0.950 . S
H640 C669 0.950 . S
H641 C670 0.950 . S
H642 C672 0.950 . S
H643 C673 0.950 . S
C644 H626 0.951 . S
C644 C645 1.366 . S
C644 C646 1.388 . S
C645 C644 1.366 . S
C645 C649 1.385 . S
C646 H627 0.951 . S
C646 C644 1.388 . S
C646 C647 1.366 . S
C647 C646 1.366 . S
C647 C648 1.414 . S
C647 C650 1.499 . S
C648 H628 0.950 . S
C648 C647 1.414 . S
C648 C649 1.374 . S
C649 H629 0.950 . S
C649 C645 1.385 . S
C649 C648 1.374 . S
C650 C647 1.499 . S
C650 C651 1.373 . S
C650 C652 1.389 . S
C651 H630 0.950 . S
C651 C650 1.373 . S
C651 C667 1.377 . S
C652 C650 1.389 . S
C652 C653 1.524 . S
C652 C666 1.377 . S
C653 C652 1.524 . S
C653 C654 1.397 . S
C653 C658 1.363 . S
C654 H631 0.950 . S
C654 C653 1.397 . S
C654 C655 1.334 . S
C655 H632 0.950 . S
C655 C654 1.334 . S
C655 C656 1.287 . S
C656 C655 1.287 . S
C656 C657 1.524 . S
C656 H675 0.913 . S
C657 H633 0.950 . S
C657 C656 1.524 . S
C657 C658 1.415 . S
C658 H634 0.950 . S
C658 C653 1.363 . S
C658 C657 1.415 . S
C659 H635 0.951 . S
C659 C660 1.366 . S
C659 C661 1.388 . S
C660 C659 1.366 . S
C660 C664 1.385 . S
C661 H636 0.951 . S
C661 C659 1.388 . S
C661 C662 1.366 . S
C662 C661 1.366 . S
C662 C663 1.414 . S
C662 C665 1.499 . S
C663 H637 0.950 . S
C663 C662 1.414 . S
C663 C664 1.374 . S
C664 H638 0.950 . S
C664 C660 1.385 . S
C664 C663 1.374 . S
C665 C662 1.499 . S
C665 C666 1.373 . S
C665 C667 1.389 . S
C666 H639 0.950 . S
C666 C652 1.377 . S
C666 C665 1.373 . S
C667 C651 1.377 . S
C667 C665 1.389 . S
C667 C668 1.524 . S
C668 C667 1.524 . S
C668 C669 1.397 . S
C668 C673 1.363 . S
C669 H640 0.950 . S
C669 C668 1.397 . S
C669 C670 1.334 . S
C670 H641 0.950 . S
C670 C669 1.334 . S
C670 C671 1.287 . S
C671 C670 1.287 . S
C671 C672 1.524 . S
C671 H674 0.999 . S
C672 H642 0.950 . S
C672 C671 1.524 . S
C672 C673 1.415 . S
C673 H643 0.950 . S
C673 C668 1.363 . S
C673 C672 1.415 . S
H674 C671 0.999 . S
H675 C656 0.913 . S
H676 C694 0.951 . S
H677 C696 0.951 . S
H678 C698 0.950 . S
H679 C699 0.950 . S
H680 C701 0.950 . S
H681 C704 0.950 . S
H682 C705 0.950 . S
H683 C707 0.950 . S
H684 C708 0.950 . S
H685 C709 0.951 . S
H686 C711 0.951 . S
H687 C713 0.950 . S
H688 C714 0.950 . S
H689 C716 0.950 . S
H690 C719 0.950 . S
H691 C720 0.950 . S
H692 C722 0.950 . S
H693 C723 0.950 . S
C694 H676 0.951 . S
C694 C695 1.366 . S
C694 C696 1.388 . S
C695 C694 1.366 . S
C695 C699 1.385 . S
C696 H677 0.951 . S
C696 C694 1.388 . S
C696 C697 1.366 . S
C697 C696 1.366 . S
C697 C698 1.414 . S
C697 C700 1.499 . S
C698 H678 0.950 . S
C698 C697 1.414 . S
C698 C699 1.374 . S
C699 H679 0.950 . S
C699 C695 1.385 . S
C699 C698 1.374 . S
C700 C697 1.499 . S
C700 C701 1.373 . S
C700 C702 1.389 . S
C701 H680 0.950 . S
C701 C700 1.373 . S
C701 C717 1.377 . S
C702 C700 1.389 . S
C702 C703 1.524 . S
C702 C716 1.377 . S
C703 C702 1.524 . S
C703 C704 1.397 . S
C703 C708 1.363 . S
C704 H681 0.950 . S
C704 C703 1.397 . S
C704 C705 1.334 . S
C705 H682 0.950 . S
C705 C704 1.334 . S
C705 C706 1.287 . S
C706 C705 1.287 . S
C706 C707 1.524 . S
C706 H725 0.913 . S
C707 H683 0.950 . S
C707 C706 1.524 . S
C707 C708 1.415 . S
C708 H684 0.950 . S
C708 C703 1.363 . S
C708 C707 1.415 . S
C709 H685 0.951 . S
C709 C710 1.366 . S
C709 C711 1.388 . S
C710 C709 1.366 . S
C710 C714 1.385 . S
C711 H686 0.951 . S
C711 C709 1.388 . S
C711 C712 1.366 . S
C712 C711 1.366 . S
C712 C713 1.414 . S
C712 C715 1.499 . S
C713 H687 0.950 . S
C713 C712 1.414 . S
C713 C714 1.374 . S
C714 H688 0.950 . S
C714 C710 1.385 . S
C714 C713 1.374 . S
C715 C712 1.499 . S
C715 C716 1.373 . S
C715 C717 1.389 . S
C716 H689 0.950 . S
C716 C702 1.377 . S
C716 C715 1.373 . S
C717 C701 1.377 . S
C717 C715 1.389 . S
C717 C718 1.524 . S
C718 C717 1.524 . S
C718 C719 1.397 . S
C718 C723 1.363 . S
C719 H690 0.950 . S
C719 C718 1.397 . S
C719 C720 1.334 . S
C720 H691 0.950 . S
C720 C719 1.334 . S
C720 C721 1.287 . S
C721 C720 1.287 . S
C721 C722 1.524 . S
C721 H724 0.999 . S
C722 H692 0.950 . S
C722 C721 1.524 . S
C722 C723 1.415 . S
C723 H693 0.950 . S
C723 C718 1.363 . S
C723 C722 1.415 . S
H724 C721 0.999 . S
H725 C706 0.913 . S
H726 C744 0.951 . S
H727 C746 0.951 . S
H728 C748 0.950 . S
H729 C749 0.950 . S
H730 C751 0.950 . S
H731 C754 0.950 . S
H732 C755 0.950 . S
H733 C757 0.950 . S
H734 C758 0.950 . S
H735 C759 0.951 . S
H736 C761 0.951 . S
H737 C763 0.950 . S
H738 C764 0.950 . S
H739 C766 0.950 . S
H740 C769 0.950 . S
H741 C770 0.950 . S
H742 C772 0.950 . S
H743 C773 0.950 . S
C744 H726 0.951 . S
C744 C745 1.366 . S
C744 C746 1.388 . S
C745 C744 1.366 . S
C745 C749 1.385 . S
C746 H727 0.951 . S
C746 C744 1.388 . S
C746 C747 1.366 . S
C747 C746 1.366 . S
C747 C748 1.414 . S
C747 C750 1.499 . S
C748 H728 0.950 . S
C748 C747 1.414 . S
C748 C749 1.374 . S
C749 H729 0.950 . S
C749 C745 1.385 . S
C749 C748 1.374 . S
C750 C747 1.499 . S
C750 C751 1.373 . S
C750 C752 1.389 . S
C751 H730 0.950 . S
C751 C750 1.373 . S
C751 C767 1.377 . S
C752 C750 1.389 . S
C752 C753 1.524 . S
C752 C766 1.377 . S
C753 C752 1.524 . S
C753 C754 1.397 . S
C753 C758 1.363 . S
C754 H731 0.950 . S
C754 C753 1.397 . S
C754 C755 1.334 . S
C755 H732 0.950 . S
C755 C754 1.334 . S
C755 C756 1.287 . S
C756 C755 1.287 . S
C756 C757 1.524 . S
C756 H775 0.913 . S
C757 H733 0.950 . S
C757 C756 1.524 . S
C757 C758 1.415 . S
C758 H734 0.950 . S
C758 C753 1.363 . S
C758 C757 1.415 . S
C759 H735 0.951 . S
C759 C760 1.366 . S
C759 C761 1.388 . S
C760 C759 1.366 . S
C760 C764 1.385 . S
C761 H736 0.951 . S
C761 C759 1.388 . S
C761 C762 1.366 . S
C762 C761 1.366 . S
C762 C763 1.414 . S
C762 C765 1.499 . S
C763 H737 0.950 . S
C763 C762 1.414 . S
C763 C764 1.374 . S
C764 H738 0.950 . S
C764 C760 1.385 . S
C764 C763 1.374 . S
C765 C762 1.499 . S
C765 C766 1.373 . S
C765 C767 1.389 . S
C766 H739 0.950 . S
C766 C752 1.377 . S
C766 C765 1.373 . S
C767 C751 1.377 . S
C767 C765 1.389 . S
C767 C768 1.524 . S
C768 C767 1.524 . S
C768 C769 1.397 . S
C768 C773 1.363 . S
C769 H740 0.950 . S
C769 C768 1.397 . S
C769 C770 1.334 . S
C770 H741 0.950 . S
C770 C769 1.334 . S
C770 C771 1.287 . S
C771 C770 1.287 . S
C771 C772 1.524 . S
C771 H774 0.999 . S
C772 H742 0.950 . S
C772 C771 1.524 . S
C772 C773 1.415 . S
C773 H743 0.950 . S
C773 C768 1.363 . S
C773 C772 1.415 . S
H774 C771 0.999 . S
H775 C756 0.913 . S
H776 C794 0.951 . S
H777 C796 0.951 . S
H778 C798 0.950 . S
H779 C799 0.950 . S
H780 C801 0.950 . S
H781 C804 0.950 . S
H782 C805 0.950 . S
H783 C807 0.950 . S
H784 C808 0.950 . S
H785 C809 0.951 . S
H786 C811 0.951 . S
H787 C813 0.950 . S
H788 C814 0.950 . S
H789 C816 0.950 . S
H790 C819 0.950 . S
H791 C820 0.950 . S
H792 C822 0.950 . S
H793 C823 0.950 . S
C794 H776 0.951 . S
C794 C795 1.366 . S
C794 C796 1.388 . S
C795 C794 1.366 . S
C795 C799 1.385 . S
C796 H777 0.951 . S
C796 C794 1.388 . S
C796 C797 1.366 . S
C797 C796 1.366 . S
C797 C798 1.414 . S
C797 C800 1.499 . S
C798 H778 0.950 . S
C798 C797 1.414 . S
C798 C799 1.374 . S
C799 H779 0.950 . S
C799 C795 1.385 . S
C799 C798 1.374 . S
C800 C797 1.499 . S
C800 C801 1.373 . S
C800 C802 1.389 . S
C801 H780 0.950 . S
C801 C800 1.373 . S
C801 C817 1.377 . S
C802 C800 1.389 . S
C802 C803 1.524 . S
C802 C816 1.377 . S
C803 C802 1.524 . S
C803 C804 1.397 . S
C803 C808 1.363 . S
C804 H781 0.950 . S
C804 C803 1.397 . S
C804 C805 1.334 . S
C805 H782 0.950 . S
C805 C804 1.334 . S
C805 C806 1.287 . S
C806 C805 1.287 . S
C806 C807 1.524 . S
C806 H825 0.913 . S
C807 H783 0.950 . S
C807 C806 1.524 . S
C807 C808 1.415 . S
C808 H784 0.950 . S
C808 C803 1.363 . S
C808 C807 1.415 . S
C809 H785 0.951 . S
C809 C810 1.366 . S
C809 C811 1.388 . S
C810 C809 1.366 . S
C810 C814 1.385 . S
C811 H786 0.951 . S
C811 C809 1.388 . S
C811 C812 1.366 . S
C812 C811 1.366 . S
C812 C813 1.414 . S
C812 C815 1.499 . S
C813 H787 0.950 . S
C813 C812 1.414 . S
C813 C814 1.374 . S
C814 H788 0.950 . S
C814 C810 1.385 . S
C814 C813 1.374 . S
C815 C812 1.499 . S
C815 C816 1.373 . S
C815 C817 1.389 . S
C816 H789 0.950 . S
C816 C802 1.377 . S
C816 C815 1.373 . S
C817 C801 1.377 . S
C817 C815 1.389 . S
C817 C818 1.524 . S
C818 C817 1.524 . S
C818 C819 1.397 . S
C818 C823 1.363 . S
C819 H790 0.950 . S
C819 C818 1.397 . S
C819 C820 1.334 . S
C820 H791 0.950 . S
C820 C819 1.334 . S
C820 C821 1.287 . S
C821 C820 1.287 . S
C821 C822 1.524 . S
C821 H824 0.999 . S
C822 H792 0.950 . S
C822 C821 1.524 . S
C822 C823 1.415 . S
C823 H793 0.950 . S
C823 C818 1.363 . S
C823 C822 1.415 . S
H824 C821 0.999 . S
H825 C806 0.913 . S
H826 C844 0.951 . S
H827 C846 0.951 . S
H828 C848 0.950 . S
H829 C849 0.950 . S
H830 C851 0.950 . S
H831 C854 0.950 . S
H832 C855 0.950 . S
H833 C857 0.950 . S
H834 C858 0.950 . S
H835 C859 0.951 . S
H836 C861 0.951 . S
H837 C863 0.950 . S
H838 C864 0.950 . S
H839 C866 0.950 . S
H840 C869 0.950 . S
H841 C870 0.950 . S
H842 C872 0.950 . S
H843 C873 0.950 . S
C844 H826 0.951 . S
C844 C845 1.366 . S
C844 C846 1.388 . S
C845 C844 1.366 . S
C845 C849 1.385 . S
C846 H827 0.951 . S
C846 C844 1.388 . S
C846 C847 1.366 . S
C847 C846 1.366 . S
C847 C848 1.414 . S
C847 C850 1.499 . S
C848 H828 0.950 . S
C848 C847 1.414 . S
C848 C849 1.374 . S
C849 H829 0.950 . S
C849 C845 1.385 . S
C849 C848 1.374 . S
C850 C847 1.499 . S
C850 C851 1.373 . S
C850 C852 1.389 . S
C851 H830 0.950 . S
C851 C850 1.373 . S
C851 C867 1.377 . S
C852 C850 1.389 . S
C852 C853 1.524 . S
C852 C866 1.377 . S
C853 C852 1.524 . S
C853 C854 1.397 . S
C853 C858 1.363 . S
C854 H831 0.950 . S
C854 C853 1.397 . S
C854 C855 1.334 . S
C855 H832 0.950 . S
C855 C854 1.334 . S
C855 C856 1.287 . S
C856 C855 1.287 . S
C856 C857 1.524 . S
C856 H875 0.913 . S
C857 H833 0.950 . S
C857 C856 1.524 . S
C857 C858 1.415 . S
C858 H834 0.950 . S
C858 C853 1.363 . S
C858 C857 1.415 . S
C859 H835 0.951 . S
C859 C860 1.366 . S
C859 C861 1.388 . S
C860 C859 1.366 . S
C860 C864 1.385 . S
C861 H836 0.951 . S
C861 C859 1.388 . S
C861 C862 1.366 . S
C862 C861 1.366 . S
C862 C863 1.414 . S
C862 C865 1.499 . S
C863 H837 0.950 . S
C863 C862 1.414 . S
C863 C864 1.374 . S
C864 H838 0.950 . S
C864 C860 1.385 . S
C864 C863 1.374 . S
C865 C862 1.499 . S
C865 C866 1.373 . S
C865 C867 1.389 . S
C866 H839 0.950 . S
C866 C852 1.377 . S
C866 C865 1.373 . S
C867 C851 1.377 . S
C867 C865 1.389 . S
C867 C868 1.524 . S
C868 C867 1.524 . S
C868 C869 1.397 . S
C868 C873 1.363 . S
C869 H840 0.950 . S
C869 C868 1.397 . S
C869 C870 1.334 . S
C870 H841 0.950 . S
C870 C869 1.334 . S
C870 C871 1.287 . S
C871 C870 1.287 . S
C871 C872 1.524 . S
C871 H874 0.999 . S
C872 H842 0.950 . S
C872 C871 1.524 . S
C872 C873 1.415 . S
C873 H843 0.950 . S
C873 C868 1.363 . S
C873 C872 1.415 . S
H874 C871 0.999 . S
H875 C856 0.913 . S
H876 C894 0.951 . S
H877 C896 0.951 . S
H878 C898 0.950 . S
H879 C899 0.950 . S
H880 C901 0.950 . S
H881 C904 0.950 . S
H882 C905 0.950 . S
H883 C907 0.950 . S
H884 C908 0.950 . S
H885 C909 0.951 . S
H886 C911 0.951 . S
H887 C913 0.950 . S
H888 C914 0.950 . S
H889 C916 0.950 . S
H890 C919 0.950 . S
H891 C920 0.950 . S
H892 C922 0.950 . S
H893 C923 0.950 . S
C894 H876 0.951 . S
C894 C895 1.366 . S
C894 C896 1.388 . S
C895 C894 1.366 . S
C895 C899 1.385 . S
C896 H877 0.951 . S
C896 C894 1.388 . S
C896 C897 1.366 . S
C897 C896 1.366 . S
C897 C898 1.414 . S
C897 C900 1.499 . S
C898 H878 0.950 . S
C898 C897 1.414 . S
C898 C899 1.374 . S
C899 H879 0.950 . S
C899 C895 1.385 . S
C899 C898 1.374 . S
C900 C897 1.499 . S
C900 C901 1.373 . S
C900 C902 1.389 . S
C901 H880 0.950 . S
C901 C900 1.373 . S
C901 C917 1.377 . S
C902 C900 1.389 . S
C902 C903 1.524 . S
C902 C916 1.377 . S
C903 C902 1.524 . S
C903 C904 1.397 . S
C903 C908 1.363 . S
C904 H881 0.950 . S
C904 C903 1.397 . S
C904 C905 1.334 . S
C905 H882 0.950 . S
C905 C904 1.334 . S
C905 C906 1.287 . S
C906 C905 1.287 . S
C906 C907 1.524 . S
C906 H925 0.913 . S
C907 H883 0.950 . S
C907 C906 1.524 . S
C907 C908 1.415 . S
C908 H884 0.950 . S
C908 C903 1.363 . S
C908 C907 1.415 . S
C909 H885 0.951 . S
C909 C910 1.366 . S
C909 C911 1.388 . S
C910 C909 1.366 . S
C910 C914 1.385 . S
C911 H886 0.951 . S
C911 C909 1.388 . S
C911 C912 1.366 . S
C912 C911 1.366 . S
C912 C913 1.414 . S
C912 C915 1.499 . S
C913 H887 0.950 . S
C913 C912 1.414 . S
C913 C914 1.374 . S
C914 H888 0.950 . S
C914 C910 1.385 . S
C914 C913 1.374 . S
C915 C912 1.499 . S
C915 C916 1.373 . S
C915 C917 1.389 . S
C916 H889 0.950 . S
C916 C902 1.377 . S
C916 C915 1.373 . S
C917 C901 1.377 . S
C917 C915 1.389 . S
C917 C918 1.524 . S
C918 C917 1.524 . S
C918 C919 1.397 . S
C918 C923 1.363 . S
C919 H890 0.950 . S
C919 C918 1.397 . S
C919 C920 1.334 . S
C920 H891 0.950 . S
C920 C919 1.334 . S
C920 C921 1.287 . S
C921 C920 1.287 . S
C921 C922 1.524 . S
C921 H924 0.999 . S
C922 H892 0.950 . S
C922 C921 1.524 . S
C922 C923 1.415 . S
C923 H893 0.950 . S
C923 C918 1.363 . S
C923 C922 1.415 . S
H924 C921 0.999 . S
H925 C906 0.913 . S
H926 C944 0.951 . S
H927 C946 0.951 . S
H928 C948 0.950 . S
H929 C949 0.950 . S
H930 C951 0.950 . S
H931 C954 0.950 . S
H932 C955 0.950 . S
H933 C957 0.950 . S
H934 C958 0.950 . S
H935 C959 0.951 . S
H936 C961 0.951 . S
H937 C963 0.950 . S
H938 C964 0.950 . S
H939 C966 0.950 . S
H940 C969 0.950 . S
H941 C970 0.950 . S
H942 C972 0.950 . S
H943 C973 0.950 . S
C944 H926 0.951 . S
C944 C945 1.366 . S
C944 C946 1.388 . S
C945 C944 1.366 . S
C945 C949 1.385 . S
C946 H927 0.951 . S
C946 C944 1.388 . S
C946 C947 1.366 . S
C947 C946 1.366 . S
C947 C948 1.414 . S
C947 C950 1.499 . S
C948 H928 0.950 . S
C948 C947 1.414 . S
C948 C949 1.374 . S
C949 H929 0.950 . S
C949 C945 1.385 . S
C949 C948 1.374 . S
C950 C947 1.499 . S
C950 C951 1.373 . S
C950 C952 1.389 . S
C951 H930 0.950 . S
C951 C950 1.373 . S
C951 C967 1.377 . S
C952 C950 1.389 . S
C952 C953 1.524 . S
C952 C966 1.377 . S
C953 C952 1.524 . S
C953 C954 1.397 . S
C953 C958 1.363 . S
C954 H931 0.950 . S
C954 C953 1.397 . S
C954 C955 1.334 . S
C955 H932 0.950 . S
C955 C954 1.334 . S
C955 C956 1.287 . S
C956 C955 1.287 . S
C956 C957 1.524 . S
C956 H975 0.913 . S
C957 H933 0.950 . S
C957 C956 1.524 . S
C957 C958 1.415 . S
C958 H934 0.950 . S
C958 C953 1.363 . S
C958 C957 1.415 . S
C959 H935 0.951 . S
C959 C960 1.366 . S
C959 C961 1.388 . S
C960 C959 1.366 . S
C960 C964 1.385 . S
C961 H936 0.951 . S
C961 C959 1.388 . S
C961 C962 1.366 . S
C962 C961 1.366 . S
C962 C963 1.414 . S
C962 C965 1.499 . S
C963 H937 0.950 . S
C963 C962 1.414 . S
C963 C964 1.374 . S
C964 H938 0.950 . S
C964 C960 1.385 . S
C964 C963 1.374 . S
C965 C962 1.499 . S
C965 C966 1.373 . S
C965 C967 1.389 . S
C966 H939 0.950 . S
C966 C952 1.377 . S
C966 C965 1.373 . S
C967 C951 1.377 . S
C967 C965 1.389 . S
C967 C968 1.524 . S
C968 C967 1.524 . S
C968 C969 1.397 . S
C968 C973 1.363 . S
C969 H940 0.950 . S
C969 C968 1.397 . S
C969 C970 1.334 . S
C970 H941 0.950 . S
C970 C969 1.334 . S
C970 C971 1.287 . S
C971 C970 1.287 . S
C971 C972 1.524 . S
C971 H974 0.999 . S
C972 H942 0.950 . S
C972 C971 1.524 . S
C972 C973 1.415 . S
C973 H943 0.950 . S
C973 C968 1.363 . S
C973 C972 1.415 . S
H974 C971 0.999 . S
H975 C956 0.913 . S
H976 C994 0.951 . S
H977 C996 0.951 . S
H978 C998 0.950 . S
H979 C999 0.950 . S
H980 C1001 0.950 . S
H981 C1004 0.950 . S
H982 C1005 0.950 . S
H983 C1007 0.950 . S
H984 C1008 0.950 1_556 S
H985 C1009 0.951 . S
H986 C1011 0.951 . S
H987 C1013 0.950 . S
H988 C1014 0.950 . S
H989 C1016 0.950 . S
H990 C1019 0.950 . S
H991 C1020 0.950 . S
H992 C1022 0.950 . S
H993 C1023 0.950 1_554 S
C994 H976 0.951 . S
C994 C995 1.366 1_556 S
C994 C996 1.388 . S
C995 C994 1.366 1_554 S
C995 C999 1.385 . S
C996 H977 0.951 . S
C996 C994 1.388 . S
C996 C997 1.366 1_556 S
C997 C996 1.366 1_554 S
C997 C998 1.414 . S
C997 C1000 1.499 . S
C998 H978 0.950 . S
C998 C997 1.414 . S
C998 C999 1.374 . S
C999 H979 0.950 . S
C999 C995 1.385 . S
C999 C998 1.374 . S
C1000 C997 1.499 . S
C1000 C1001 1.373 1_554 S
C1000 C1002 1.389 . S
C1001 H980 0.950 . S
C1001 C1000 1.373 1_556 S
C1001 C1017 1.377 . S
C1002 C1000 1.389 . S
C1002 C1003 1.524 . S
C1002 C1016 1.377 . S
C1003 C1002 1.524 . S
C1003 C1004 1.397 . S
C1003 C1008 1.363 . S
C1004 H981 0.950 . S
C1004 C1003 1.397 . S
C1004 C1005 1.334 . S
C1005 H982 0.950 . S
C1005 C1004 1.334 . S
C1005 C1006 1.287 . S
C1006 C1005 1.287 . S
C1006 C1007 1.524 . S
C1006 H1025 0.913 . S
C1007 H983 0.950 . S
C1007 C1006 1.524 . S
C1007 C1008 1.415 . S
C1008 H984 0.950 1_554 S
C1008 C1003 1.363 . S
C1008 C1007 1.415 . S
C1009 H985 0.951 . S
C1009 C1010 1.366 . S
C1009 C1011 1.388 . S
C1010 C1009 1.366 . S
C1010 C1014 1.385 1_554 S
C1011 H986 0.951 . S
C1011 C1009 1.388 . S
C1011 C1012 1.366 . S
C1012 C1011 1.366 . S
C1012 C1013 1.414 1_554 S
C1012 C1015 1.499 . S
C1013 H987 0.950 . S
C1013 C1012 1.414 1_556 S
C1013 C1014 1.374 . S
C1014 H988 0.950 . S
C1014 C1010 1.385 1_556 S
C1014 C1013 1.374 . S
C1015 C1012 1.499 . S
C1015 C1016 1.373 . S
C1015 C1017 1.389 1_554 S
C1016 H989 0.950 . S
C1016 C1002 1.377 . S
C1016 C1015 1.373 . S
C1017 C1001 1.377 . S
C1017 C1015 1.389 1_556 S
C1017 C1018 1.524 . S
C1018 C1017 1.524 . S
C1018 C1019 1.397 . S
C1018 C1023 1.363 . S
C1019 H990 0.950 . S
C1019 C1018 1.397 . S
C1019 C1020 1.334 . S
C1020 H991 0.950 . S
C1020 C1019 1.334 . S
C1020 C1021 1.287 . S
C1021 C1020 1.287 . S
C1021 C1022 1.524 . S
C1021 H1024 0.999 . S
C1022 H992 0.950 . S
C1022 C1021 1.524 . S
C1022 C1023 1.415 . S
C1023 H993 0.950 1_556 S
C1023 C1018 1.363 . S
C1023 C1022 1.415 . S
H1024 C1021 0.999 . S
H1025 C1006 0.913 . S
H1026 C1044 0.951 . S
H1027 C1046 0.951 . S
H1028 C1048 0.950 . S
H1029 C1049 0.950 . S
H1030 C1051 0.950 . S
H1031 C1054 0.950 . S
H1032 C1055 0.950 . S
H1033 C1057 0.950 . S
H1034 C1058 0.950 . S
H1035 C1059 0.951 . S
H1036 C1061 0.951 . S
H1037 C1063 0.950 . S
H1038 C1064 0.950 . S
H1039 C1066 0.950 . S
H1040 C1069 0.950 . S
H1041 C1070 0.950 . S
H1042 C1072 0.950 . S
H1043 C1073 0.950 . S
C1044 H1026 0.951 . S
C1044 C1045 1.366 . S
C1044 C1046 1.388 . S
C1045 C1044 1.366 . S
C1045 C1049 1.385 . S
C1046 H1027 0.951 . S
C1046 C1044 1.388 . S
C1046 C1047 1.366 . S
C1047 C1046 1.366 . S
C1047 C1048 1.414 . S
C1047 C1050 1.499 . S
C1048 H1028 0.950 . S
C1048 C1047 1.414 . S
C1048 C1049 1.374 . S
C1049 H1029 0.950 . S
C1049 C1045 1.385 . S
C1049 C1048 1.374 . S
C1050 C1047 1.499 . S
C1050 C1051 1.373 . S
C1050 C1052 1.389 . S
C1051 H1030 0.950 . S
C1051 C1050 1.373 . S
C1051 C1067 1.377 . S
C1052 C1050 1.389 . S
C1052 C1053 1.524 . S
C1052 C1066 1.377 . S
C1053 C1052 1.524 . S
C1053 C1054 1.397 . S
C1053 C1058 1.363 . S
C1054 H1031 0.950 . S
C1054 C1053 1.397 . S
C1054 C1055 1.334 . S
C1055 H1032 0.950 . S
C1055 C1054 1.334 . S
C1055 C1056 1.287 . S
C1056 C1055 1.287 . S
C1056 C1057 1.524 . S
C1056 H1075 0.913 . S
C1057 H1033 0.950 . S
C1057 C1056 1.524 . S
C1057 C1058 1.415 . S
C1058 H1034 0.950 . S
C1058 C1053 1.363 . S
C1058 C1057 1.415 . S
C1059 H1035 0.951 . S
C1059 C1060 1.366 . S
C1059 C1061 1.388 . S
C1060 C1059 1.366 . S
C1060 C1064 1.385 . S
C1061 H1036 0.951 . S
C1061 C1059 1.388 . S
C1061 C1062 1.366 . S
C1062 C1061 1.366 . S
C1062 C1063 1.414 . S
C1062 C1065 1.499 . S
C1063 H1037 0.950 . S
C1063 C1062 1.414 . S
C1063 C1064 1.374 . S
C1064 H1038 0.950 . S
C1064 C1060 1.385 . S
C1064 C1063 1.374 . S
C1065 C1062 1.499 . S
C1065 C1066 1.373 . S
C1065 C1067 1.389 . S
C1066 H1039 0.950 . S
C1066 C1052 1.377 . S
C1066 C1065 1.373 . S
C1067 C1051 1.377 . S
C1067 C1065 1.389 . S
C1067 C1068 1.524 . S
C1068 C1067 1.524 . S
C1068 C1069 1.397 . S
C1068 C1073 1.363 . S
C1069 H1040 0.950 . S
C1069 C1068 1.397 . S
C1069 C1070 1.334 . S
C1070 H1041 0.950 . S
C1070 C1069 1.334 . S
C1070 C1071 1.287 . S
C1071 C1070 1.287 . S
C1071 C1072 1.524 . S
C1071 H1074 0.999 . S
C1072 H1042 0.950 . S
C1072 C1071 1.524 . S
C1072 C1073 1.415 . S
C1073 H1043 0.950 . S
C1073 C1068 1.363 . S
C1073 C1072 1.415 . S
H1074 C1071 0.999 . S
H1075 C1056 0.913 . S
H1076 C1094 0.951 . S
H1077 C1096 0.951 . S
H1078 C1098 0.950 . S
H1079 C1099 0.950 . S
H1080 C1101 0.950 . S
H1081 C1104 0.950 . S
H1082 C1105 0.950 . S
H1083 C1107 0.950 . S
H1084 C1108 0.950 . S
H1085 C1109 0.951 . S
H1086 C1111 0.951 . S
H1087 C1113 0.950 . S
H1088 C1114 0.950 . S
H1089 C1116 0.950 . S
H1090 C1119 0.950 . S
H1091 C1120 0.950 . S
H1092 C1122 0.950 . S
H1093 C1123 0.950 . S
C1094 H1076 0.951 . S
C1094 C1095 1.366 . S
C1094 C1096 1.388 . S
C1095 C1094 1.366 . S
C1095 C1099 1.385 . S
C1096 H1077 0.951 . S
C1096 C1094 1.388 . S
C1096 C1097 1.366 . S
C1097 C1096 1.366 . S
C1097 C1098 1.414 . S
C1097 C1100 1.499 . S
C1098 H1078 0.950 . S
C1098 C1097 1.414 . S
C1098 C1099 1.374 . S
C1099 H1079 0.950 . S
C1099 C1095 1.385 . S
C1099 C1098 1.374 . S
C1100 C1097 1.499 . S
C1100 C1101 1.373 1_554 S
C1100 C1102 1.389 . S
C1101 H1080 0.950 . S
C1101 C1100 1.373 1_556 S
C1101 C1117 1.377 . S
C1102 C1100 1.389 . S
C1102 C1103 1.524 . S
C1102 C1116 1.377 . S
C1103 C1102 1.524 . S
C1103 C1104 1.397 . S
C1103 C1108 1.363 . S
C1104 H1081 0.950 . S
C1104 C1103 1.397 . S
C1104 C1105 1.334 . S
C1105 H1082 0.950 . S
C1105 C1104 1.334 . S
C1105 C1106 1.287 . S
C1106 C1105 1.287 . S
C1106 C1107 1.524 . S
C1106 H1125 0.913 . S
C1107 H1083 0.950 . S
C1107 C1106 1.524 . S
C1107 C1108 1.415 . S
C1108 H1084 0.950 . S
C1108 C1103 1.363 . S
C1108 C1107 1.415 . S
C1109 H1085 0.951 . S
C1109 C1110 1.366 . S
C1109 C1111 1.388 . S
C1110 C1109 1.366 . S
C1110 C1114 1.385 . S
C1111 H1086 0.951 . S
C1111 C1109 1.388 . S
C1111 C1112 1.366 . S
C1112 C1111 1.366 . S
C1112 C1113 1.414 . S
C1112 C1115 1.499 . S
C1113 H1087 0.950 . S
C1113 C1112 1.414 . S
C1113 C1114 1.374 . S
C1114 H1088 0.950 . S
C1114 C1110 1.385 . S
C1114 C1113 1.374 . S
C1115 C1112 1.499 . S
C1115 C1116 1.373 . S
C1115 C1117 1.389 1_554 S
C1116 H1089 0.950 . S
C1116 C1102 1.377 . S
C1116 C1115 1.373 . S
C1117 C1101 1.377 . S
C1117 C1115 1.389 1_556 S
C1117 C1118 1.524 . S
C1118 C1117 1.524 . S
C1118 C1119 1.397 . S
C1118 C1123 1.363 . S
C1119 H1090 0.950 . S
C1119 C1118 1.397 . S
C1119 C1120 1.334 . S
C1120 H1091 0.950 . S
C1120 C1119 1.334 . S
C1120 C1121 1.287 . S
C1121 C1120 1.287 . S
C1121 C1122 1.524 . S
C1121 H1124 0.999 . S
C1122 H1092 0.950 . S
C1122 C1121 1.524 . S
C1122 C1123 1.415 . S
C1123 H1093 0.950 . S
C1123 C1118 1.363 . S
C1123 C1122 1.415 . S
H1124 C1121 0.999 . S
H1125 C1106 0.913 . S
H1126 C1144 0.951 . S
H1127 C1146 0.951 . S
H1128 C1148 0.950 . S
H1129 C1149 0.950 . S
H1130 C1151 0.950 . S
H1131 C1154 0.950 . S
H1132 C1155 0.950 . S
H1133 C1157 0.950 . S
H1134 C1158 0.950 . S
H1135 C1159 0.951 . S
H1136 C1161 0.951 . S
H1137 C1163 0.950 . S
H1138 C1164 0.950 . S
H1139 C1166 0.950 . S
H1140 C1169 0.950 . S
H1141 C1170 0.950 . S
H1142 C1172 0.950 . S
H1143 C1173 0.950 . S
C1144 H1126 0.951 . S
C1144 C1145 1.366 . S
C1144 C1146 1.388 . S
C1145 C1144 1.366 . S
C1145 C1149 1.385 . S
C1146 H1127 0.951 . S
C1146 C1144 1.388 . S
C1146 C1147 1.366 . S
C1147 C1146 1.366 . S
C1147 C1148 1.414 . S
C1147 C1150 1.499 . S
C1148 H1128 0.950 . S
C1148 C1147 1.414 . S
C1148 C1149 1.374 . S
C1149 H1129 0.950 . S
C1149 C1145 1.385 . S
C1149 C1148 1.374 . S
C1150 C1147 1.499 . S
C1150 C1151 1.373 . S
C1150 C1152 1.389 . S
C1151 H1130 0.950 . S
C1151 C1150 1.373 . S
C1151 C1167 1.377 . S
C1152 C1150 1.389 . S
C1152 C1153 1.524 . S
C1152 C1166 1.377 . S
C1153 C1152 1.524 . S
C1153 C1154 1.397 . S
C1153 C1158 1.363 . S
C1154 H1131 0.950 . S
C1154 C1153 1.397 . S
C1154 C1155 1.334 . S
C1155 H1132 0.950 . S
C1155 C1154 1.334 . S
C1155 C1156 1.287 . S
C1156 C1155 1.287 . S
C1156 C1157 1.524 . S
C1156 H1175 0.913 . S
C1157 H1133 0.950 . S
C1157 C1156 1.524 . S
C1157 C1158 1.415 . S
C1158 H1134 0.950 . S
C1158 C1153 1.363 . S
C1158 C1157 1.415 . S
C1159 H1135 0.951 . S
C1159 C1160 1.366 . S
C1159 C1161 1.388 . S
C1160 C1159 1.366 . S
C1160 C1164 1.385 . S
C1161 H1136 0.951 . S
C1161 C1159 1.388 . S
C1161 C1162 1.366 . S
C1162 C1161 1.366 . S
C1162 C1163 1.414 . S
C1162 C1165 1.499 . S
C1163 H1137 0.950 . S
C1163 C1162 1.414 . S
C1163 C1164 1.374 . S
C1164 H1138 0.950 . S
C1164 C1160 1.385 . S
C1164 C1163 1.374 . S
C1165 C1162 1.499 . S
C1165 C1166 1.373 . S
C1165 C1167 1.389 . S
C1166 H1139 0.950 . S
C1166 C1152 1.377 . S
C1166 C1165 1.373 . S
C1167 C1151 1.377 . S
C1167 C1165 1.389 . S
C1167 C1168 1.524 . S
C1168 C1167 1.524 . S
C1168 C1169 1.397 . S
C1168 C1173 1.363 . S
C1169 H1140 0.950 . S
C1169 C1168 1.397 . S
C1169 C1170 1.334 . S
C1170 H1141 0.950 . S
C1170 C1169 1.334 . S
C1170 C1171 1.287 . S
C1171 C1170 1.287 . S
C1171 C1172 1.524 . S
C1171 H1174 0.999 . S
C1172 H1142 0.950 . S
C1172 C1171 1.524 . S
C1172 C1173 1.415 . S
C1173 H1143 0.950 . S
C1173 C1168 1.363 . S
C1173 C1172 1.415 . S
H1174 C1171 0.999 . S
H1175 C1156 0.913 . S
H1176 C1194 0.951 . S
H1177 C1196 0.951 . S
H1178 C1198 0.950 . S
H1179 C1199 0.950 . S
H1180 C1201 0.950 . S
H1181 C1204 0.950 . S
H1182 C1205 0.950 . S
H1183 C1207 0.950 . S
H1184 C1208 0.950 . S
H1185 C1209 0.951 . S
H1186 C1211 0.951 . S
H1187 C1213 0.950 . S
H1188 C1214 0.950 . S
H1189 C1216 0.950 . S
H1190 C1219 0.950 . S
H1191 C1220 0.950 . S
H1192 C1222 0.950 . S
H1193 C1223 0.950 . S
C1194 H1176 0.951 . S
C1194 C1195 1.366 . S
C1194 C1196 1.388 . S
C1195 C1194 1.366 . S
C1195 C1199 1.385 . S
C1196 H1177 0.951 . S
C1196 C1194 1.388 . S
C1196 C1197 1.366 . S
C1197 C1196 1.366 . S
C1197 C1198 1.414 . S
C1197 C1200 1.499 . S
C1198 H1178 0.950 . S
C1198 C1197 1.414 . S
C1198 C1199 1.374 . S
C1199 H1179 0.950 . S
C1199 C1195 1.385 . S
C1199 C1198 1.374 . S
C1200 C1197 1.499 . S
C1200 C1201 1.373 . S
C1200 C1202 1.389 . S
C1201 H1180 0.950 . S
C1201 C1200 1.373 . S
C1201 C1217 1.377 . S
C1202 C1200 1.389 . S
C1202 C1203 1.524 . S
C1202 C1216 1.377 . S
C1203 C1202 1.524 . S
C1203 C1204 1.397 . S
C1203 C1208 1.363 . S
C1204 H1181 0.950 . S
C1204 C1203 1.397 . S
C1204 C1205 1.334 . S
C1205 H1182 0.950 . S
C1205 C1204 1.334 . S
C1205 C1206 1.287 . S
C1206 C1205 1.287 . S
C1206 C1207 1.524 . S
C1206 H1225 0.913 . S
C1207 H1183 0.950 . S
C1207 C1206 1.524 . S
C1207 C1208 1.415 . S
C1208 H1184 0.950 . S
C1208 C1203 1.363 . S
C1208 C1207 1.415 . S
C1209 H1185 0.951 . S
C1209 C1210 1.366 . S
C1209 C1211 1.388 . S
C1210 C1209 1.366 . S
C1210 C1214 1.385 . S
C1211 H1186 0.951 . S
C1211 C1209 1.388 . S
C1211 C1212 1.366 . S
C1212 C1211 1.366 . S
C1212 C1213 1.414 . S
C1212 C1215 1.499 . S
C1213 H1187 0.950 . S
C1213 C1212 1.414 . S
C1213 C1214 1.374 . S
C1214 H1188 0.950 . S
C1214 C1210 1.385 . S
C1214 C1213 1.374 . S
C1215 C1212 1.499 . S
C1215 C1216 1.373 . S
C1215 C1217 1.389 . S
C1216 H1189 0.950 . S
C1216 C1202 1.377 . S
C1216 C1215 1.373 . S
C1217 C1201 1.377 . S
C1217 C1215 1.389 . S
C1217 C1218 1.524 . S
C1218 C1217 1.524 . S
C1218 C1219 1.397 . S
C1218 C1223 1.363 . S
C1219 H1190 0.950 . S
C1219 C1218 1.397 . S
C1219 C1220 1.334 . S
C1220 H1191 0.950 . S
C1220 C1219 1.334 . S
C1220 C1221 1.287 . S
C1221 C1220 1.287 . S
C1221 C1222 1.524 . S
C1221 H1224 0.999 . S
C1222 H1192 0.950 . S
C1222 C1221 1.524 . S
C1222 C1223 1.415 . S
C1223 H1193 0.950 . S
C1223 C1218 1.363 . S
C1223 C1222 1.415 . S
H1224 C1221 0.999 . S
H1225 C1206 0.913 . S
H1226 C1244 0.951 . S
H1227 C1246 0.951 . S
H1228 C1248 0.950 . S
H1229 C1249 0.950 . S
H1230 C1251 0.950 . S
H1231 C1254 0.950 . S
H1232 C1255 0.950 . S
H1233 C1257 0.950 . S
H1234 C1258 0.950 . S
H1235 C1259 0.948 1_556 S
H1236 C1261 0.951 1_556 S
H1237 C1263 0.950 . S
H1238 C1264 0.950 . S
H1239 C1266 0.950 . S
H1240 C1269 0.950 . S
H1241 C1270 0.950 . S
H1242 C1272 0.950 . S
H1243 C1273 0.950 . S
C1244 H1226 0.951 . S
C1244 C1245 1.366 . S
C1244 C1246 1.388 . S
C1245 C1244 1.366 . S
C1245 C1249 1.385 1_554 S
C1246 H1227 0.951 . S
C1246 C1244 1.388 . S
C1246 C1247 1.366 . S
C1247 C1246 1.366 . S
C1247 C1248 1.414 1_554 S
C1247 C1250 1.499 . S
C1248 H1228 0.950 . S
C1248 C1247 1.414 1_556 S
C1248 C1249 1.374 . S
C1249 H1229 0.950 . S
C1249 C1245 1.385 1_556 S
C1249 C1248 1.374 . S
C1250 C1247 1.499 . S
C1250 C1251 1.373 . S
C1250 C1252 1.389 1_554 S
C1251 H1230 0.950 . S
C1251 C1250 1.373 . S
C1251 C1267 1.377 . S
C1252 C1250 1.389 1_556 S
C1252 C1253 1.524 . S
C1252 C1266 1.377 . S
C1253 C1252 1.524 . S
C1253 C1254 1.397 . S
C1253 C1258 1.363 . S
C1254 H1231 0.950 . S
C1254 C1253 1.397 . S
C1254 C1255 1.334 . S
C1255 H1232 0.950 . S
C1255 C1254 1.334 . S
C1255 C1256 1.287 . S
C1256 C1255 1.287 . S
C1256 C1257 1.524 . S
C1256 H1275 0.913 . S
C1257 H1233 0.950 . S
C1257 C1256 1.524 . S
C1257 C1258 1.415 . S
C1258 H1234 0.950 . S
C1258 C1253 1.363 . S
C1258 C1257 1.415 . S
C1259 H1235 0.948 1_554 S
C1259 C1260 1.368 . S
C1259 C1261 1.389 . S
C1260 C1259 1.368 . S
C1260 C1264 1.385 . S
C1261 H1236 0.951 1_554 S
C1261 C1259 1.389 . S
C1261 C1262 1.366 . S
C1262 C1261 1.366 . S
C1262 C1263 1.414 . S
C1262 C1265 1.499 . S
C1263 H1237 0.950 . S
C1263 C1262 1.414 . S
C1263 C1264 1.374 . S
C1264 H1238 0.950 . S
C1264 C1260 1.385 . S
C1264 C1263 1.374 . S
C1265 C1262 1.499 . S
C1265 C1266 1.373 1_554 S
C1265 C1267 1.389 . S
C1266 H1239 0.950 . S
C1266 C1252 1.377 . S
C1266 C1265 1.373 1_556 S
C1267 C1251 1.377 . S
C1267 C1265 1.389 . S
C1267 C1268 1.524 . S
C1268 C1267 1.524 . S
C1268 C1269 1.397 . S
C1268 C1273 1.363 . S
C1269 H1240 0.950 . S
C1269 C1268 1.397 . S
C1269 C1270 1.334 . S
C1270 H1241 0.950 . S
C1270 C1269 1.334 . S
C1270 C1271 1.287 . S
C1271 C1270 1.287 . S
C1271 C1272 1.524 . S
C1271 H1274 0.999 . S
C1272 H1242 0.950 . S
C1272 C1271 1.524 . S
C1272 C1273 1.415 . S
C1273 H1243 0.950 . S
C1273 C1268 1.363 . S
C1273 C1272 1.415 . S
H1274 C1271 0.999 . S
H1275 C1256 0.913 . S
H1276 C1294 0.951 . S
H1277 C1296 0.951 . S
H1278 C1298 0.950 . S
H1279 C1299 0.950 . S
H1280 C1301 0.950 . S
H1281 C1304 0.950 . S
H1282 C1305 0.950 . S
H1283 C1307 0.950 . S
H1284 C1308 0.950 . S
H1285 C1309 0.951 . S
H1286 C1311 0.951 . S
H1287 C1313 0.950 . S
H1288 C1314 0.950 . S
H1289 C1316 0.950 . S
H1290 C1319 0.950 . S
H1291 C1320 0.950 . S
H1292 C1322 0.950 . S
H1293 C1323 0.950 . S
C1294 H1276 0.951 . S
C1294 C1295 1.366 . S
C1294 C1296 1.388 . S
C1295 C1294 1.366 . S
C1295 C1299 1.385 . S
C1296 H1277 0.951 . S
C1296 C1294 1.388 . S
C1296 C1297 1.366 . S
C1297 C1296 1.366 . S
C1297 C1298 1.414 . S
C1297 C1300 1.499 . S
C1298 H1278 0.950 . S
C1298 C1297 1.414 . S
C1298 C1299 1.374 . S
C1299 H1279 0.950 . S
C1299 C1295 1.385 . S
C1299 C1298 1.374 . S
C1300 C1297 1.499 . S
C1300 C1301 1.373 . S
C1300 C1302 1.389 . S
C1301 H1280 0.950 . S
C1301 C1300 1.373 . S
C1301 C1317 1.377 . S
C1302 C1300 1.389 . S
C1302 C1303 1.524 . S
C1302 C1316 1.377 . S
C1303 C1302 1.524 . S
C1303 C1304 1.397 . S
C1303 C1308 1.363 . S
C1304 H1281 0.950 . S
C1304 C1303 1.397 . S
C1304 C1305 1.334 . S
C1305 H1282 0.950 . S
C1305 C1304 1.334 . S
C1305 C1306 1.287 . S
C1306 C1305 1.287 . S
C1306 C1307 1.524 . S
C1306 H1325 0.913 . S
C1307 H1283 0.950 . S
C1307 C1306 1.524 . S
C1307 C1308 1.415 . S
C1308 H1284 0.950 . S
C1308 C1303 1.363 . S
C1308 C1307 1.415 . S
C1309 H1285 0.951 . S
C1309 C1310 1.366 . S
C1309 C1311 1.388 . S
C1310 C1309 1.366 . S
C1310 C1314 1.385 . S
C1311 H1286 0.951 . S
C1311 C1309 1.388 . S
C1311 C1312 1.366 . S
C1312 C1311 1.366 . S
C1312 C1313 1.414 . S
C1312 C1315 1.499 . S
C1313 H1287 0.950 . S
C1313 C1312 1.414 . S
C1313 C1314 1.374 . S
C1314 H1288 0.950 . S
C1314 C1310 1.385 . S
C1314 C1313 1.374 . S
C1315 C1312 1.499 . S
C1315 C1316 1.373 . S
C1315 C1317 1.389 . S
C1316 H1289 0.950 . S
C1316 C1302 1.377 . S
C1316 C1315 1.373 . S
C1317 C1301 1.377 . S
C1317 C1315 1.389 . S
C1317 C1318 1.524 . S
C1318 C1317 1.524 . S
C1318 C1319 1.397 . S
C1318 C1323 1.363 . S
C1319 H1290 0.950 . S
C1319 C1318 1.397 . S
C1319 C1320 1.334 . S
C1320 H1291 0.950 . S
C1320 C1319 1.334 . S
C1320 C1321 1.287 . S
C1321 C1320 1.287 . S
C1321 C1322 1.524 . S
C1321 H1324 0.999 . S
C1322 H1292 0.950 . S
C1322 C1321 1.524 . S
C1322 C1323 1.415 . S
C1323 H1293 0.950 . S
C1323 C1318 1.363 . S
C1323 C1322 1.415 . S
H1324 C1321 0.999 . S
H1325 C1306 0.913 . S
H1326 C1344 0.951 . S
H1327 C1346 0.951 . S
H1328 C1348 0.950 1_556 S
H1329 C1349 0.949 1_556 S
H1330 C1351 0.950 . S
H1331 C1354 0.950 . S
H1332 C1355 0.950 . S
H1333 C1357 0.950 . S
H1334 C1358 0.950 . S
H1335 C1359 0.951 1_556 S
H1336 C1361 0.953 . S
H1337 C1363 0.950 . S
H1338 C1364 0.950 . S
H1339 C1366 0.950 . S
H1340 C1369 0.950 . S
H1341 C1370 0.950 . S
H1342 C1372 0.950 . S
H1343 C1373 0.950 . S
C1344 H1326 0.951 . S
C1344 C1345 1.366 . S
C1344 C1346 1.388 . S
C1345 C1344 1.366 . S
C1345 C1349 1.385 . S
C1346 H1327 0.951 . S
C1346 C1344 1.388 . S
C1346 C1347 1.366 . S
C1347 C1346 1.366 . S
C1347 C1348 1.414 . S
C1347 C1350 1.499 . S
C1348 H1328 0.950 1_554 S
C1348 C1347 1.414 . S
C1348 C1349 1.374 . S
C1349 H1329 0.949 1_554 S
C1349 C1345 1.385 . S
C1349 C1348 1.374 . S
C1350 C1347 1.499 . S
C1350 C1351 1.373 . S
C1350 C1352 1.389 1_554 S
C1351 H1330 0.950 . S
C1351 C1350 1.373 . S
C1351 C1367 1.377 . S
C1352 C1350 1.389 1_556 S
C1352 C1353 1.524 . S
C1352 C1366 1.377 . S
C1353 C1352 1.524 . S
C1353 C1354 1.397 . S
C1353 C1358 1.363 . S
C1354 H1331 0.950 . S
C1354 C1353 1.397 . S
C1354 C1355 1.334 . S
C1355 H1332 0.950 . S
C1355 C1354 1.334 . S
C1355 C1356 1.287 . S
C1356 C1355 1.287 . S
C1356 C1357 1.524 . S
C1356 H1375 0.913 . S
C1357 H1333 0.950 . S
C1357 C1356 1.524 . S
C1357 C1358 1.415 . S
C1358 H1334 0.950 . S
C1358 C1353 1.363 . S
C1358 C1357 1.415 . S
C1359 H1335 0.951 1_554 S
C1359 C1360 1.366 . S
C1359 C1361 1.388 . S
C1360 C1359 1.366 . S
C1360 C1364 1.385 . S
C1361 H1336 0.953 . S
C1361 C1359 1.388 . S
C1361 C1362 1.366 . S
C1362 C1361 1.366 . S
C1362 C1363 1.414 . S
C1362 C1365 1.499 . S
C1363 H1337 0.950 . S
C1363 C1362 1.414 . S
C1363 C1364 1.374 . S
C1364 H1338 0.950 . S
C1364 C1360 1.385 . S
C1364 C1363 1.374 . S
C1365 C1362 1.499 . S
C1365 C1366 1.373 1_554 S
C1365 C1367 1.389 . S
C1366 H1339 0.950 . S
C1366 C1352 1.377 . S
C1366 C1365 1.373 1_556 S
C1367 C1351 1.377 . S
C1367 C1365 1.389 . S
C1367 C1368 1.524 . S
C1368 C1367 1.524 . S
C1368 C1369 1.397 . S
C1368 C1373 1.363 . S
C1369 H1340 0.950 . S
C1369 C1368 1.397 . S
C1369 C1370 1.334 . S
C1370 H1341 0.950 . S
C1370 C1369 1.334 . S
C1370 C1371 1.287 . S
C1371 C1370 1.287 . S
C1371 C1372 1.524 . S
C1371 H1374 0.999 . S
C1372 H1342 0.950 . S
C1372 C1371 1.524 . S
C1372 C1373 1.415 . S
C1373 H1343 0.950 . S
C1373 C1368 1.363 . S
C1373 C1372 1.415 . S
H1374 C1371 0.999 . S
H1375 C1356 0.913 . S
C195 C21 1.485 . S
C210 C125 1.489 . S
C245 C40 1.489 . S
C260 C92 1.481 . S
C310 C104 1.439 . S
C295 C54 1.463 . S
C345 C73 1.527 . S
C360 C115 1.508 . S
C410 C148 1.432 . S
C395 C74 1.454 . S
C460 C159 1.477 . S
C445 C10 1.508 . S
C510 C169 1.498 . S
C495 C37 1.495 . S
C560 C136 1.511 . S
C545 C65 1.507 . S
C595 C52 1.432 . S
C610 C103 1.428 . S
C645 C87 1.516 . S
C660 C114 1.512 . S
C695 C15 1.515 . S
C710 C126 1.501 . S
C760 C93 1.470 . S
C745 C32 1.496 . S
C795 C29 1.505 . S
C810 C170 1.492 . S
C860 C137 1.519 . S
C845 C59 1.535 . S
C910 C147 1.436 . S
C895 C84 1.441 . S
C945 C8 1.476 . S
C960 C158 1.463 . S
C1010 C98 1.539 . S
C995 C7 1.540 . S
C1060 C109 1.484 . S
C1045 C30 1.486 . S
C1095 C62 1.544 . S
C1110 C120 1.539 . S
C1145 C81 1.508 . S
C1160 C131 1.516 . S
C1210 C142 1.533 . S
C1195 C76 1.544 . S
C1245 C18 1.486 . S
C1260 C153 1.484 . S
C1295 C43 1.539 . S
C1310 C164 1.544 . S
C1345 C51 1.507 . S
C1360 C175 1.516 . S
