# Generated by pormake.
# Topology pto, (3,4)-cn, num edge types: 1
# Building blocks:
#     Node 0, Type 0, BuildingBlock: ESEHIV_clean_linker_0, # of connection points: 3
#     Node 1, Type 0, BuildingBlock: ESEHIV_clean_linker_0, # of connection points: 3
#     Node 2, Type 0, BuildingBlock: ESEHIV_clean_linker_0, # of connection points: 3
#     Node 3, Type 0, BuildingBlock: ESEHIV_clean_linker_0, # of connection points: 3
#     Node 4, Type 0, BuildingBlock: ESEHIV_clean_linker_0, # of connection points: 3
#     Node 5, Type 0, BuildingBlock: ESEHIV_clean_linker_0, # of connection points: 3
#     Node 6, Type 0, BuildingBlock: ESEHIV_clean_linker_0, # of connection points: 3
#     Node 7, Type 0, BuildingBlock: ESEHIV_clean_linker_0, # of connection points: 3
#     Node 8, Type 1, BuildingBlock: KOZSID_clean_sbu_0, # of connection points: 4
#     Node 9, Type 1, BuildingBlock: KOZSID_clean_sbu_0, # of connection points: 4
#     Node 10, Type 1, BuildingBlock: KOZSID_clean_sbu_0, # of connection points: 4
#     Node 11, Type 1, BuildingBlock: KOZSID_clean_sbu_0, # of connection points: 4
#     Node 12, Type 1, BuildingBlock: KOZSID_clean_sbu_0, # of connection points: 4
#     Node 13, Type 1, BuildingBlock: KOZSID_clean_sbu_0, # of connection points: 4
#     Edge 14, Type (0, 1), BuildingBlock: AJUNOK_clean_linker_0, # of connection points: 2
#     Edge 15, Type (0, 1), BuildingBlock: AJUNOK_clean_linker_0, # of connection points: 2
#     Edge 16, Type (0, 1), BuildingBlock: AJUNOK_clean_linker_0, # of connection points: 2
#     Edge 17, Type (0, 1), BuildingBlock: AJUNOK_clean_linker_0, # of connection points: 2
#     Edge 18, Type (0, 1), BuildingBlock: AJUNOK_clean_linker_0, # of connection points: 2
#     Edge 19, Type (0, 1), BuildingBlock: AJUNOK_clean_linker_0, # of connection points: 2
#     Edge 20, Type (0, 1), BuildingBlock: AJUNOK_clean_linker_0, # of connection points: 2
#     Edge 21, Type (0, 1), BuildingBlock: AJUNOK_clean_linker_0, # of connection points: 2
#     Edge 22, Type (0, 1), BuildingBlock: AJUNOK_clean_linker_0, # of connection points: 2
#     Edge 23, Type (0, 1), BuildingBlock: AJUNOK_clean_linker_0, # of connection points: 2
#     Edge 24, Type (0, 1), BuildingBlock: AJUNOK_clean_linker_0, # of connection points: 2
#     Edge 25, Type (0, 1), BuildingBlock: AJUNOK_clean_linker_0, # of connection points: 2
#     Edge 26, Type (0, 1), BuildingBlock: AJUNOK_clean_linker_0, # of connection points: 2
#     Edge 27, Type (0, 1), BuildingBlock: AJUNOK_clean_linker_0, # of connection points: 2
#     Edge 28, Type (0, 1), BuildingBlock: AJUNOK_clean_linker_0, # of connection points: 2
#     Edge 29, Type (0, 1), BuildingBlock: AJUNOK_clean_linker_0, # of connection points: 2
#     Edge 30, Type (0, 1), BuildingBlock: AJUNOK_clean_linker_0, # of connection points: 2
#     Edge 31, Type (0, 1), BuildingBlock: AJUNOK_clean_linker_0, # of connection points: 2
#     Edge 32, Type (0, 1), BuildingBlock: AJUNOK_clean_linker_0, # of connection points: 2
#     Edge 33, Type (0, 1), BuildingBlock: AJUNOK_clean_linker_0, # of connection points: 2
#     Edge 34, Type (0, 1), BuildingBlock: AJUNOK_clean_linker_0, # of connection points: 2
#     Edge 35, Type (0, 1), BuildingBlock: AJUNOK_clean_linker_0, # of connection points: 2
#     Edge 36, Type (0, 1), BuildingBlock: AJUNOK_clean_linker_0, # of connection points: 2
#     Edge 37, Type (0, 1), BuildingBlock: AJUNOK_clean_linker_0, # of connection points: 2
# Relax obj value: 0.000
# Max RMSD: 0.039
# Mean RMSD: 0.017
data_MOF--net-pto--node1-KOZSID_clean_sbu_0--node2-ESEHIV_clean_linker_0--edge1-AJUNOK_clean_linker_0
_symmetry_space_group_name_H-M    P1
_symmetry_Int_Tables_number       1
_symmetry_cell_setting            triclinic
loop_
_symmetry_equiv_pos_as_xyz
'x, y, z'
_cell_length_a     27.266781
_cell_length_b     36.243669
_cell_length_c     31.933751
_cell_angle_alpha  86.570263
_cell_angle_beta   85.427742
_cell_angle_gamma 94.281333
loop_
_atom_site_label
_atom_site_type_symbol
_atom_site_fract_x
_atom_site_fract_y
_atom_site_fract_z
_atom_type_partial_charge
H0 H 0.26892 0.31466 0.26507 0.0
H1 H 0.30994 0.20732 0.30801 0.0
H2 H 0.20254 0.26252 0.38252 0.0
C3 C 0.2651 0.29121 0.28815 0.0
C4 C 0.2325 0.29202 0.32435 0.0
C5 C 0.29337 0.26082 0.28198 0.0
C6 C 0.28851 0.23099 0.31266 0.0
C7 C 0.25599 0.23129 0.34915 0.0
C8 C 0.22838 0.26219 0.35496 0.0
H9 H 0.26609 0.73516 0.79991 0.0
H10 H 0.30149 0.85222 0.77344 0.0
H11 H 0.20398 0.79203 0.69712 0.0
C12 C 0.262 0.76056 0.78127 0.0
C13 C 0.23227 0.75955 0.74732 0.0
C14 C 0.28655 0.79392 0.79133 0.0
C15 C 0.28168 0.82657 0.76646 0.0
C16 C 0.25187 0.82631 0.73245 0.0
C17 C 0.22705 0.79261 0.72324 0.0
H18 H 0.74256 0.84802 0.31093 0.0
H19 H 0.81551 0.78126 0.39922 0.0
H20 H 0.7755 0.73822 0.28288 0.0
C21 C 0.75643 0.82199 0.32087 0.0
C22 C 0.75286 0.79251 0.29439 0.0
C23 C 0.77817 0.8183 0.35931 0.0
C24 C 0.79976 0.78502 0.36935 0.0
C25 C 0.8009 0.75644 0.34121 0.0
C26 C 0.77632 0.76031 0.30425 0.0
H27 H 0.75227 0.2307 0.80333 0.0
H28 H 0.86019 0.29976 0.72217 0.0
H29 H 0.786 0.34433 0.82952 0.0
C30 C 0.77253 0.25736 0.79502 0.0
C31 C 0.76425 0.28723 0.82008 0.0
C32 C 0.80759 0.26136 0.75993 0.0
C33 C 0.83418 0.29598 0.74985 0.0
C34 C 0.8264 0.32617 0.77459 0.0
C35 C 0.79171 0.32139 0.80989 0.0
H36 H 0.74419 0.85886 0.77746 0.0
H37 H 0.78194 0.75095 0.82147 0.0
H38 H 0.85059 0.80183 0.70413 0.0
C39 C 0.76463 0.83467 0.77294 0.0
C40 C 0.7976 0.83386 0.73683 0.0
C41 C 0.75833 0.80476 0.80348 0.0
C42 C 0.78624 0.77411 0.798 0.0
C43 C 0.81923 0.7728 0.76217 0.0
C44 C 0.82437 0.80251 0.73138 0.0
H45 H 0.77218 0.21497 0.29926 0.0
H46 H 0.79632 0.33273 0.2848 0.0
H47 H 0.84491 0.27567 0.39295 0.0
C48 C 0.78509 0.2402 0.31244 0.0
C49 C 0.80793 0.23959 0.35076 0.0
C50 C 0.77776 0.2738 0.29036 0.0
C51 C 0.79937 0.30702 0.30325 0.0
C52 C 0.82567 0.30733 0.33914 0.0
C53 C 0.82794 0.27401 0.36362 0.0
H54 H 0.22777 0.28157 0.69752 0.0
H55 H 0.30177 0.21543 0.78625 0.0
H56 H 0.27128 0.3262 0.81201 0.0
C57 C 0.24458 0.27814 0.72697 0.0
C58 C 0.24646 0.30781 0.75357 0.0
C59 C 0.26526 0.24457 0.73778 0.0
C60 C 0.28713 0.24116 0.7763 0.0
C61 C 0.29114 0.27103 0.80213 0.0
C62 C 0.27 0.30385 0.79094 0.0
H63 H 0.19966 0.76637 0.36726 0.0
H64 H 0.26825 0.72055 0.25827 0.0
H65 H 0.30837 0.83334 0.28464 0.0
C66 C 0.22492 0.76971 0.33908 0.0
C67 C 0.25315 0.80365 0.32895 0.0
C68 C 0.23006 0.73964 0.31363 0.0
C69 C 0.264 0.74371 0.27787 0.0
C70 C 0.2922 0.77749 0.26703 0.0
C71 C 0.28691 0.80716 0.29298 0.0
C72 C 0.09736 0.57875 0.38166 0.0
C73 C 0.11671 0.58867 0.41863 0.0
C74 C 0.09157 0.56634 0.45048 0.0
C75 C 0.05852 0.54409 0.43119 0.0
N76 N 0.06142 0.55057 0.38888 0.0
Co77 Co 0.01922 0.52529 0.34869 0.0
N78 N 0.97813 0.49582 0.39588 0.0
C79 C 0.98145 0.49869 0.4376 0.0
C80 C 0.94944 0.4739 0.46236 0.0
C81 C 0.92472 0.45363 0.43479 0.0
C82 C 0.94328 0.46724 0.39471 0.0
N83 N 0.97838 0.49896 0.30832 0.0
C84 C 0.94425 0.46961 0.3155 0.0
C85 C 0.92743 0.45771 0.27827 0.0
C86 C 0.95247 0.47987 0.24636 0.0
C87 C 0.98311 0.50383 0.26581 0.0
N88 N 0.05907 0.55573 0.30149 0.0
C89 C 0.05308 0.55505 0.25989 0.0
C90 C 0.08388 0.58062 0.23517 0.0
C91 C 0.11051 0.59936 0.26267 0.0
C92 C 0.09433 0.584 0.3027 0.0
N93 N 0.06527 0.48519 0.34525 0.0
C94 C 0.12048 0.42238 0.33946 0.0
C95 C 0.11299 0.44466 0.3036 0.0
C96 C 0.08536 0.4755 0.30713 0.0
C97 C 0.10207 0.43336 0.3785 0.0
C98 C 0.07522 0.46474 0.38069 0.0
N99 N 0.9729 0.56533 0.35218 0.0
C100 C 0.92105 0.60753 0.31838 0.0
C101 C 0.91302 0.62564 0.35539 0.0
C102 C 0.93432 0.61248 0.3911 0.0
C103 C 0.96348 0.58232 0.38894 0.0
C104 C 0.95103 0.57786 0.31739 0.0
H105 H 0.97837 0.57354 0.41737 0.0
H106 H 0.9565 0.56591 0.28791 0.0
H107 H 0.08015 0.49073 0.27847 0.0
H108 H 0.06203 0.47145 0.4114 0.0
C109 C 0.02008 0.52064 0.45217 0.0
C110 C 0.11202 0.59841 0.34089 0.0
C111 C 0.92896 0.45071 0.35657 0.0
C112 C 0.01783 0.53032 0.24506 0.0
H113 H 0.1449 0.61062 0.42229 0.0
H114 H 0.09531 0.56744 0.48388 0.0
H115 H 0.94637 0.46967 0.49634 0.0
H116 H 0.89745 0.43056 0.44312 0.0
H117 H 0.90082 0.43472 0.27449 0.0
H118 H 0.94974 0.47802 0.21291 0.0
H119 H 0.08604 0.58551 0.20128 0.0
H120 H 0.13804 0.62226 0.2543 0.0
H121 H 0.12823 0.43834 0.27274 0.0
H122 H 0.10734 0.41734 0.4073 0.0
H123 H 0.90525 0.61685 0.2899 0.0
H124 H 0.9284 0.62535 0.42066 0.0
C125 C 0.10795 0.59863 0.77381 0.0
C126 C 0.12379 0.61097 0.81118 0.0
C127 C 0.09914 0.58839 0.84293 0.0
C128 C 0.06973 0.56376 0.82322 0.0
N129 N 0.07496 0.56856 0.78071 0.0
Co130 Co 0.03549 0.54144 0.74003 0.0
N131 N 0.99602 0.51042 0.78693 0.0
C132 C 1.00197 0.51092 0.82855 0.0
C133 C 0.9717 0.48487 0.85305 0.0
C134 C 0.94551 0.46599 0.82537 0.0
C135 C 0.96139 0.48177 0.78545 0.0
N136 N 0.99426 0.51574 0.69949 0.0
C137 C 0.95854 0.4874 0.70645 0.0
C138 C 0.93954 0.47751 0.66932 0.0
C139 C 0.96474 0.50001 0.63765 0.0
C140 C 0.99742 0.52237 0.6572 0.0
N141 N 0.07661 0.57127 0.69315 0.0
C142 C 0.07433 0.56791 0.6514 0.0
C143 C 0.10635 0.59285 0.62684 0.0
C144 C 0.12995 0.61371 0.65456 0.0
C145 C 0.11075 0.6003 0.69455 0.0
N146 N 0.08279 0.50205 0.73696 0.0
C147 C 0.14209 0.44145 0.73524 0.0
C148 C 0.11938 0.4531 0.69971 0.0
C149 C 0.09079 0.48359 0.70101 0.0
C150 C 0.13587 0.46115 0.77126 0.0
C151 C 0.10616 0.49098 0.77153 0.0
N152 N 0.98835 0.58071 0.74306 0.0
C153 C 0.95146 0.6324 0.70975 0.0
C154 C 0.93114 0.64235 0.74864 0.0
C155 C 0.9376 0.61953 0.78434 0.0
C156 C 0.96633 0.5893 0.78094 0.0
C157 C 0.97927 0.60154 0.70763 0.0
H158 H 0.97086 0.57368 0.80953 0.0
H159 H 0.99394 0.59557 0.67704 0.0
H160 H 0.07504 0.49132 0.67263 0.0
H161 H 0.10203 0.50416 0.80036 0.0
C162 C 0.03604 0.53639 0.84365 0.0
C163 C 0.12356 0.61747 0.73277 0.0
C164 C 0.94387 0.46756 0.74711 0.0
C165 C 0.03611 0.54577 0.63653 0.0
H166 H 0.14962 0.63442 0.81512 0.0
H167 H 0.10142 0.5903 0.87643 0.0
H168 H 0.96944 0.47987 0.88693 0.0
H169 H 0.91838 0.4428 0.83356 0.0
H170 H 0.91159 0.45544 0.66545 0.0
H171 H 0.96134 0.49892 0.6042 0.0
H172 H 0.10999 0.59686 0.59283 0.0
H173 H 0.15679 0.63707 0.64634 0.0
H174 H 0.12378 0.43878 0.67098 0.0
H175 H 0.15279 0.45291 0.79957 0.0
H176 H 0.94706 0.64887 0.68105 0.0
H177 H 0.92085 0.62503 0.81501 0.0
C178 C 0.29242 0.97504 0.59827 0.0
C179 C 0.33824 0.96279 0.60562 0.0
C180 C 0.37024 0.97632 0.57211 0.0
C181 C 0.34246 0.99625 0.54638 0.0
N182 N 0.29509 0.99677 0.56191 0.0
Co183 Co 0.24274 0.02192 0.53397 0.0
N184 N 0.29208 0.05074 0.49302 0.0
C185 C 0.33908 0.04297 0.48381 0.0
C186 C 0.36441 0.06797 0.45433 0.0
C187 C 0.33124 0.093 0.4443 0.0
C188 C 0.28742 0.08178 0.46837 0.0
N189 N 0.19079 0.04748 0.50611 0.0
C190 C 0.19484 0.07902 0.48058 0.0
C191 C 0.1491 0.0877 0.46845 0.0
C192 C 0.1153 0.06049 0.48701 0.0
C193 C 0.14224 0.03685 0.50935 0.0
N194 N 0.19298 0.99252 0.57427 0.0
C195 C 0.14408 0.98804 0.57019 0.0
C196 C 0.11871 0.96525 0.60174 0.0
C197 C 0.15384 0.95404 0.62694 0.0
C198 C 0.19891 0.97072 0.60928 0.0
N199 N 0.24758 0.0617 0.57297 0.0
C200 C 0.25487 0.12061 0.62662 0.0
C201 C 0.20947 0.10052 0.6229 0.0
C202 C 0.20648 0.07178 0.59551 0.0
C203 C 0.29626 0.11058 0.6021 0.0
C204 C 0.29215 0.08056 0.57676 0.0
N205 N 0.23822 0.98221 0.49479 0.0
C206 C 0.23978 0.91745 0.48177 0.0
C207 C 0.23822 0.9257 0.43869 0.0
C208 C 0.23559 0.96258 0.42406 0.0
C209 C 0.23563 0.99047 0.45264 0.0
C210 C 0.23948 0.94598 0.50924 0.0
H211 H 0.23439 0.01876 0.4405 0.0
H212 H 0.24106 0.93854 0.54211 0.0
H213 H 0.17076 0.05785 0.59255 0.0
H214 H 0.32519 0.07308 0.55971 0.0
C215 C 0.36034 0.01698 0.50927 0.0
C216 C 0.24656 0.96098 0.62333 0.0
C217 C 0.24156 0.10005 0.46552 0.0
C218 C 0.12277 1.0085 0.53888 0.0
H219 H 0.34716 0.94478 0.63174 0.0
H220 H 0.40912 0.97216 0.56716 0.0
H221 H 0.40301 0.06898 0.44303 0.0
H222 H 0.33854 0.11687 0.42204 0.0
H223 H 0.14104 0.11122 0.44837 0.0
H224 H 0.07565 0.05901 0.48576 0.0
H225 H 0.07935 0.95786 0.6061 0.0
H226 H 0.14719 0.93483 0.65443 0.0
H227 H 0.17623 0.10681 0.64103 0.0
H228 H 0.33182 0.126 0.60167 0.0
H229 H 0.24171 0.88913 0.49409 0.0
H230 H 0.23433 0.96984 0.39078 0.0
C231 C 0.45208 0.82705 0.09868 0.0
C232 C 0.43407 0.86011 0.11029 0.0
C233 C 0.46109 0.88783 0.08593 0.0
C234 C 0.49371 0.8702 0.06075 0.0
N235 N 0.48906 0.83283 0.06739 0.0
Co236 Co 0.52851 0.7965 0.03696 0.0
N237 N 0.57075 0.83746 1.00348 0.0
C238 C 0.56895 0.87432 0.00725 0.0
C239 C 0.60263 0.8957 0.98017 0.0
C240 C 0.6273 0.87105 0.95754 0.0
C241 C 0.60694 0.83593 0.97206 0.0
N242 N 0.56673 0.76013 0.00543 0.0
C243 C 0.60224 0.76592 0.97295 0.0
C244 C 0.61686 0.73274 0.95842 0.0
C245 C 0.58959 0.705 0.98247 0.0
C246 C 0.55981 0.72271 0.01 0.0
N247 N 0.48746 0.75555 0.07155 0.0
C248 C 0.49199 0.71871 0.07015 0.0
C249 C 0.46077 0.69733 0.0992 0.0
C250 C 0.435 0.72194 0.12086 0.0
C251 C 0.45184 0.75709 0.10346 0.0
N252 N 0.48072 0.79581 0.99299 0.0
C253 C 0.41527 0.79488 0.92887 0.0
C254 C 0.4252 0.76206 0.95063 0.0
C255 C 0.45788 0.76312 0.98225 0.0
C256 C 0.43842 0.82814 0.9398 0.0
C257 C 0.4704 0.82801 0.97188 0.0
N258 N 0.57627 0.79727 0.08099 0.0
C259 C 0.62744 0.7652 0.12752 0.0
C260 C 0.63781 0.79752 0.1479 0.0
C261 C 0.61854 0.82999 0.13327 0.0
C262 C 0.58844 0.82932 0.09988 0.0
C263 C 0.59663 0.76564 0.09449 0.0
H264 H 0.57497 0.85503 0.09032 0.0
H265 H 0.58923 0.7399 0.08088 0.0
H266 H 0.46437 0.73712 0.9973 0.0
H267 H 0.48645 0.85437 0.97887 0.0
C268 C 0.53192 0.888 0.03339 0.0
C269 C 0.43355 0.79101 0.11898 0.0
C270 C 0.62221 0.80213 0.95407 0.0
C271 C 0.52539 0.70502 0.04075 0.0
H272 H 0.40494 0.86384 0.13436 0.0
H273 H 0.45818 0.91737 0.08721 0.0
H274 H 0.60759 0.92566 0.97639 0.0
H275 H 0.65629 0.87811 0.93256 0.0
H276 H 0.64403 0.72893 0.93278 0.0
H277 H 0.59098 0.67544 0.97993 0.0
H278 H 0.45739 0.66741 0.10422 0.0
H279 H 0.40725 0.71477 0.14679 0.0
H280 H 0.4085 0.73557 0.94279 0.0
H281 H 0.43154 0.85426 0.92388 0.0
H282 H 0.64183 0.73942 0.13784 0.0
H283 H 0.62647 0.85583 0.14772 0.0
C284 C 0.86564 0.98487 0.60541 0.0
C285 C 0.91102 0.97381 0.61578 0.0
C286 C 0.94614 0.99955 0.59617 0.0
C287 C 0.92029 0.0248 0.57505 0.0
N288 N 0.87117 0.01656 0.58012 0.0
Co289 Co 0.82029 0.04513 0.55469 0.0
N290 N 0.87 0.07219 0.51248 0.0
C291 C 0.91944 0.07296 0.5134 0.0
C292 C 0.94463 0.09106 0.47833 0.0
C293 C 0.90897 0.10319 0.45426 0.0
C294 C 0.8637 0.09261 0.47653 0.0
N295 N 0.76903 0.07384 0.52976 0.0
C296 C 0.77209 0.09773 0.49499 0.0
C297 C 0.72947 0.11662 0.49388 0.0
C298 C 0.69884 0.10382 0.5284 0.0
C299 C 0.72432 0.0784 0.54922 0.0
N300 N 0.77092 0.01814 0.59706 0.0
C301 C 0.72581 0.02852 0.60879 0.0
C302 C 0.69975 1.00418 0.63854 0.0
C303 C 0.73056 0.9768 0.64614 0.0
C304 C 0.77382 0.98615 0.62053 0.0
N305 N 0.83098 0.0842 0.59383 0.0
C306 C 0.8323 0.1401 0.65054 0.0
C307 C 0.83173 0.10288 0.66502 0.0
C308 C 0.83155 0.07532 0.63608 0.0
C309 C 0.83468 0.14901 0.60729 0.0
C310 C 0.83421 0.12074 0.57949 0.0
N311 N 0.80934 1.00592 0.51582 0.0
C312 C 0.7553 0.95853 0.48957 0.0
C313 C 0.7949 0.9454 0.46535 0.0
C314 C 0.84183 0.96382 0.46698 0.0
C315 C 0.84836 0.99326 0.49286 0.0
C316 C 0.76304 0.98933 0.51339 0.0
H317 H 0.8853 1.00536 0.4946 0.0
H318 H 0.73159 0.99906 0.53081 0.0
H319 H 0.8302 0.04677 0.64804 0.0
H320 H 0.83482 0.12864 0.54647 0.0
C321 C 0.94062 0.05166 0.54409 0.0
C322 C 0.81804 0.96566 0.62146 0.0
C323 C 0.81663 0.10676 0.46557 0.0
C324 C 0.70666 0.05742 0.5862 0.0
H325 H 0.91798 0.94953 0.63516 0.0
H326 H 0.9858 0.99884 0.59564 0.0
H327 H 0.98416 0.09408 0.47052 0.0
H328 H 0.91574 0.11889 0.4242 0.0
H329 H 0.72172 0.13873 0.47177 0.0
H330 H 0.66267 0.11257 0.53763 0.0
H331 H 0.66219 1.00538 0.65188 0.0
H332 H 0.72224 0.95284 0.66813 0.0
H333 H 0.83019 0.09514 0.69842 0.0
H334 H 0.83542 0.17763 0.59512 0.0
H335 H 0.71856 0.94479 0.49127 0.0
H336 H 0.87376 0.95546 0.44867 0.0
C337 C 0.45632 0.2999 0.11636 0.0
C338 C 0.44219 0.33316 0.13102 0.0
C339 C 0.4689 0.36081 0.1064 0.0
C340 C 0.49792 0.34298 0.0784 0.0
N341 N 0.4912 0.30555 0.08335 0.0
Co342 Co 0.5281 0.26906 0.0508 0.0
N343 N 0.56734 0.3099 0.01457 0.0
C344 C 0.56272 0.34673 0.01587 0.0
C345 C 0.59278 0.36802 0.98589 0.0
C346 C 0.61797 0.34335 0.96382 0.0
C347 C 0.602 0.30827 0.98191 0.0
N348 N 0.56614 0.23262 0.0192 0.0
C349 C 0.60214 0.23832 0.98708 0.0
C350 C 0.61967 0.20519 0.9751 0.0
C351 C 0.5934 0.17755 1.00011 0.0
C352 C 0.56171 0.19528 0.02604 0.0
N353 N 0.48774 0.22823 0.08615 0.0
C354 C 0.48981 0.19134 0.08281 0.0
C355 C 0.4571 0.17002 0.11079 0.0
C356 C 0.43263 0.19473 0.13346 0.0
C357 C 0.45212 0.22985 0.11808 0.0
N358 N 0.47777 0.26766 0.00892 0.0
C359 C 0.41124 0.26677 0.94545 0.0
C360 C 0.43166 0.23443 0.95923 0.0
C361 C 0.46416 0.23542 0.99097 0.0
C362 C 0.4239 0.29936 0.9647 0.0
C363 C 0.45689 0.29921 0.99603 0.0
N364 N 0.57852 0.27042 0.09254 0.0
C365 C 0.62545 0.2389 0.14301 0.0
C366 C 0.64701 0.27262 0.15428 0.0
C367 C 0.63489 0.30515 0.13321 0.0
C368 C 0.60083 0.30344 0.10278 0.0
C369 C 0.59157 0.23843 0.11235 0.0
H370 H 0.59293 0.32926 0.0882 0.0
H371 H 0.57604 0.21184 0.10559 0.0
H372 H 0.4784 0.20982 0.99991 0.0
H373 H 0.46533 0.32509 0.00894 0.0
C374 C 0.53074 0.36056 0.04633 0.0
C375 C 0.43583 0.26378 0.13516 0.0
C376 C 0.62034 0.27433 0.96646 0.0
C377 C 0.52521 0.17759 0.05513 0.0
H378 H 0.4154 0.33707 0.15693 0.0
H379 H 0.46734 0.39039 0.10863 0.0
H380 H 0.59593 0.39792 0.98066 0.0
H381 H 0.64487 0.35044 0.93724 0.0
H382 H 0.64811 0.20137 0.95046 0.0
H383 H 0.59643 0.14801 0.99902 0.0
H384 H 0.45227 0.14006 0.11476 0.0
H385 H 0.40401 0.1877 0.15876 0.0
H386 H 0.42377 0.20857 0.94484 0.0
H387 H 0.40868 0.32509 0.95542 0.0
H388 H 0.63377 0.21296 0.1585 0.0
H389 H 0.65155 0.33191 0.14022 0.0
C390 C 0.2097 0.34838 0.36108 0.0
C391 C 0.20196 0.32392 0.3293 0.0
C392 C 0.18305 0.37998 0.36437 0.0
C393 C 0.14739 0.38808 0.3362 0.0
H394 H 0.23736 0.34349 0.38288 0.0
H395 H 0.19119 0.3986 0.38864 0.0
S396 S 0.10979 0.32989 0.25052 0.0
N397 N 0.15449 0.30832 0.27088 0.0
N398 N 0.10307 0.36674 0.2778 0.0
C399 C 0.13827 0.3629 0.30523 0.0
C400 C 0.16585 0.33108 0.30162 0.0
C401 C 0.15424 0.72117 0.73649 0.0
C402 C 0.20585 0.72387 0.73813 0.0
C403 C 0.12793 0.68677 0.73301 0.0
C404 C 0.15244 0.65411 0.73056 0.0
H405 H 0.13387 0.74552 0.73974 0.0
H406 H 0.08805 0.68548 0.73359 0.0
S407 S 0.28707 0.64646 0.72966 0.0
N408 N 0.28055 0.69105 0.73409 0.0
N409 N 0.23084 0.6266 0.72764 0.0
C410 C 0.20397 0.65658 0.73037 0.0
C411 C 0.23075 0.69143 0.73412 0.0
C412 C 0.80861 0.68761 0.33913 0.0
C413 C 0.82827 0.72273 0.34943 0.0
C414 C 0.83578 0.65627 0.34196 0.0
C415 C 0.88336 0.65848 0.35608 0.0
H416 H 0.77207 0.68429 0.32816 0.0
H417 H 0.81955 0.63011 0.33271 0.0
S418 S 0.95175 0.74299 0.38826 0.0
N419 N 0.8989 0.75735 0.37456 0.0
N420 N 0.94861 0.69804 0.38179 0.0
C421 C 0.90284 0.69288 0.3681 0.0
C422 C 0.87564 0.72504 0.36441 0.0
C423 C 0.90718 0.36408 0.75754 0.0
C424 C 0.85534 0.3625 0.76421 0.0
C425 C 0.93555 0.3982 0.75068 0.0
C426 C 0.91299 0.43179 0.74984 0.0
H427 H 0.92605 0.33883 0.75896 0.0
H428 H 0.97542 0.3984 0.74699 0.0
S429 S 0.77898 0.44309 0.76221 0.0
N430 N 0.78274 0.39776 0.76696 0.0
N431 N 0.83639 0.46174 0.75431 0.0
C432 C 0.8614 0.4307 0.75512 0.0
C433 C 0.83247 0.39607 0.76225 0.0
C434 C 0.24083 0.16273 0.36598 0.0
C435 C 0.24983 0.19851 0.3801 0.0
C436 C 0.23678 0.13112 0.39401 0.0
C437 C 0.24179 0.13413 0.43713 0.0
H438 H 0.23705 0.15913 0.33292 0.0
H439 H 0.23057 0.10404 0.38183 0.0
S440 S 0.26619 0.22076 0.49031 0.0
N441 N 0.26377 0.23478 0.44035 0.0
N442 N 0.25633 0.17511 0.49287 0.0
C443 C 0.25038 0.1695 0.45184 0.0
C444 C 0.25424 0.20178 0.42338 0.0
C445 C 0.36621 0.81235 0.82185 0.0
C446 C 0.31829 0.79443 0.82722 0.0
C447 C 0.3972 0.81249 0.85489 0.0
C448 C 0.38158 0.79455 0.89452 0.0
H449 H 0.3802 0.82589 0.79164 0.0
H450 H 0.43399 0.82628 0.8492 0.0
S451 S 0.25827 0.74637 0.92616 0.0
N452 N 0.2557 0.76031 0.87625 0.0
N453 N 0.31429 0.76013 0.93803 0.0
C454 C 0.33361 0.77698 0.90055 0.0
C455 C 0.30191 0.77704 0.86702 0.0
C456 C 0.82202 0.85751 0.40978 0.0
C457 C 0.77987 0.84964 0.38809 0.0
C458 C 0.82584 0.88775 0.43514 0.0
C459 C 0.7883 0.91241 0.4393 0.0
H460 H 0.85304 0.8406 0.40665 0.0
H461 H 0.85886 0.89174 0.45156 0.0
S462 S 0.6689 0.90354 0.3905 0.0
N463 N 0.69761 0.86745 0.37558 0.0
N464 N 0.70712 0.92648 0.41903 0.0
C465 C 0.74567 0.90475 0.41798 0.0
C466 C 0.74099 0.87306 0.39338 0.0
C467 C 0.74041 0.29367 0.89671 0.0
C468 C 0.72721 0.28283 0.85722 0.0
C469 C 0.70588 0.29039 0.93203 0.0
C470 C 0.6569 0.27647 0.92899 0.0
H471 H 0.7778 0.30458 0.90035 0.0
H472 H 0.71739 0.29902 0.96188 0.0
S473 S 0.60293 0.24555 0.83298 0.0
N474 N 0.66127 0.25826 0.81726 0.0
N475 N 0.59648 0.2524 0.88373 0.0
C476 C 0.64313 0.2656 0.88989 0.0
C477 C 0.67826 0.26869 0.85398 0.0
C478 C 0.25625 0.86047 0.66135 0.0
C479 C 0.24856 0.86093 0.70544 0.0
C480 C 0.25563 0.89293 0.6352 0.0
C481 C 0.24733 0.92709 0.65212 0.0
H482 H 0.26369 0.83493 0.64695 0.0
H483 H 0.26191 0.89138 0.60145 0.0
S484 S 0.222 0.9432 0.76483 0.0
N485 N 0.2299 0.89845 0.76454 0.0
N486 N 0.22935 0.95944 0.71508 0.0
C487 C 0.23875 0.92798 0.69588 0.0
C488 C 0.23932 0.89494 0.72261 0.0
C489 C 0.74226 0.78298 0.21794 0.0
C490 C 0.72371 0.79503 0.25684 0.0
C491 C 0.71438 0.78385 0.18278 0.0
C492 C 0.66716 0.79715 0.18511 0.0
H493 H 0.77868 0.7729 0.21455 0.0
H494 H 0.73001 0.77433 0.15348 0.0
S495 S 0.60011 0.82946 0.27993 0.0
N496 N 0.65372 0.81873 0.29585 0.0
N497 N 0.60215 0.82118 0.22957 0.0
C498 C 0.6481 0.80917 0.22368 0.0
C499 C 0.67616 0.80795 0.25954 0.0
C500 C 0.77408 0.20885 0.71997 0.0
C501 C 0.81517 0.22959 0.7332 0.0
C502 C 0.78004 0.17944 0.69386 0.0
C503 C 0.82723 0.1696 0.6802 0.0
H504 H 0.737 0.2159 0.72916 0.0
H505 H 0.74753 0.16459 0.68376 0.0
S506 S 0.94664 0.21327 0.70723 0.0
N507 N 0.9048 0.23682 0.73184 0.0
N508 N 0.91559 0.18177 0.68224 0.0
C509 C 0.86856 0.18953 0.69349 0.0
C510 C 0.86263 0.21949 0.7201 0.0
C511 C 0.37761 0.25181 0.24796 0.0
C512 C 0.32859 0.26044 0.24385 0.0
C513 C 0.41195 0.25251 0.21265 0.0
C514 C 0.3984 0.26168 0.17203 0.0
H515 H 0.3898 0.24521 0.2788 0.0
H516 H 0.44951 0.24629 0.21713 0.0
S517 S 0.2745 0.28392 0.14352 0.0
N518 N 0.26798 0.27658 0.1953 0.0
N519 N 0.3328 0.27803 0.12918 0.0
C520 C 0.34953 0.26961 0.16727 0.0
C521 C 0.31457 0.26899 0.20311 0.0
C522 C 0.8432 0.71681 0.72536 0.0
C523 C 0.8494 0.74066 0.75795 0.0
C524 C 0.86973 0.68513 0.72249 0.0
C525 C 0.90376 0.67639 0.75191 0.0
H526 H 0.81689 0.72226 0.7025 0.0
H527 H 0.86287 0.66702 0.69746 0.0
S528 S 0.93685 0.73278 0.84043 0.0
N529 N 0.89358 0.75496 0.81867 0.0
N530 N 0.94482 0.6964 0.81263 0.0
C531 C 0.91124 0.70091 0.78385 0.0
C532 C 0.88377 0.73279 0.78701 0.0
C533 C 0.82584 0.3751 0.35166 0.0
C534 C 0.85136 0.34273 0.35008 0.0
C535 C 0.85074 0.40982 0.35603 0.0
C536 C 0.902 0.41334 0.35876 0.0
H537 H 0.78653 0.3737 0.34829 0.0
H538 H 0.83017 0.43427 0.35564 0.0
S539 S 0.98601 0.33772 0.35673 0.0
N540 N 0.93088 0.3167 0.35247 0.0
N541 N 0.97742 0.38208 0.36048 0.0
C542 C 0.92775 0.38128 0.35857 0.0
C543 C 0.90247 0.3459 0.35435 0.0
C544 C 0.1738 0.34115 0.73197 0.0
C545 C 0.22268 0.34271 0.74355 0.0
C546 C 0.14849 0.37342 0.72782 0.0
C547 C 0.171 0.40831 0.73541 0.0
H548 H 0.15426 0.31467 0.72779 0.0
H549 H 0.1104 0.37086 0.72025 0.0
S550 S 0.30026 0.42834 0.76042 0.0
N551 N 0.29428 0.3829 0.75757 0.0
N552 N 0.24608 0.4431 0.75105 0.0
C553 C 0.2204 0.41052 0.74505 0.0
C554 C 0.24639 0.37785 0.74875 0.0
C555 C 0.22202 0.67026 0.32646 0.0
C556 C 0.19953 0.704 0.3238 0.0
C557 C 0.1936 0.63616 0.33359 0.0
C558 C 0.14182 0.6347 0.33803 0.0
H559 H 0.26185 0.67026 0.32261 0.0
H560 H 0.2121 0.61073 0.33466 0.0
S561 S 0.06499 0.71449 0.33217 0.0
N562 N 0.12229 0.73346 0.32557 0.0
N563 N 0.06909 0.66931 0.33876 0.0
C564 C 0.1189 0.66804 0.33577 0.0
C565 C 0.14772 0.70273 0.32877 0.0
C566 C 0.81581 0.90217 0.72053 0.0
C567 C 0.80542 0.86669 0.70609 0.0
C568 C 0.82135 0.93392 0.69272 0.0
C569 C 0.81642 0.93133 0.64954 0.0
H570 H 0.81947 0.90543 0.75367 0.0
H571 H 0.82857 0.96079 0.70511 0.0
S572 S 0.78921 0.84556 0.59553 0.0
N573 N 0.79066 0.83109 0.64547 0.0
N574 N 0.80084 0.89107 0.59333 0.0
C575 C 0.80665 0.89623 0.63448 0.0
C576 C 0.8013 0.8638 0.66273 0.0
C577 C 0.75151 0.25077 0.22201 0.0
C578 C 0.74529 0.27447 0.25504 0.0
C579 C 0.71986 0.25047 0.18935 0.0
C580 C 0.68088 0.27385 0.18856 0.0
H581 H 0.78115 0.23246 0.22131 0.0
H582 H 0.7261 0.23195 0.16442 0.0
S583 S 0.64641 0.33874 0.2695 0.0
N584 N 0.6956 0.32041 0.28608 0.0
N585 N 0.63634 0.31983 0.2249 0.0
C586 C 0.67405 0.29738 0.22163 0.0
C587 C 0.70617 0.29768 0.25478 0.0
C588 C 0.22232 0.20507 0.68684 0.0
C589 C 0.26409 0.21322 0.70898 0.0
C590 C 0.21987 0.17551 0.66033 0.0
C591 C 0.25864 0.15202 0.65524 0.0
H592 H 0.19077 0.22144 0.69026 0.0
H593 H 0.18723 0.17129 0.64347 0.0
S594 S 0.37676 0.16118 0.70597 0.0
N595 N 0.34666 0.19632 0.7218 0.0
N596 N 0.33973 0.13853 0.67622 0.0
C597 C 0.30048 0.15959 0.6776 0.0
C598 C 0.30372 0.19054 0.70339 0.0
C599 C 0.37661 0.79552 0.23107 0.0
C600 C 0.32729 0.78179 0.22859 0.0
C601 C 0.41068 0.79882 0.1954 0.0
C602 C 0.39645 0.78875 0.15606 0.0
H603 H 0.38918 0.8031 0.26096 0.0
H604 H 0.44852 0.8089 0.19864 0.0
S605 S 0.2714 0.75404 0.13184 0.0
N606 N 0.26563 0.75991 0.18286 0.0
N607 N 0.32982 0.76627 0.11598 0.0
C608 C 0.34721 0.77586 0.15285 0.0
C609 C 0.31259 0.77229 0.1891 0.0
C610 C 0.84738 0.20155 0.40651 0.0
C611 C 0.81087 0.20383 0.37755 0.0
C612 C 0.84886 0.17048 0.43456 0.0
C613 C 0.81688 0.13846 0.43287 0.0
H614 H 0.87528 0.22401 0.40845 0.0
H615 H 0.87525 0.17185 0.45814 0.0
S616 S 0.71552 0.12698 0.36313 0.0
N617 N 0.73922 0.16996 0.35182 0.0
N618 N 0.74959 0.10936 0.39851 0.0
C619 C 0.7823 0.13887 0.40263 0.0
C620 C 0.77762 0.17178 0.37641 0.0
C621 C 0.35839 0.29679 0.84328 0.0
C622 C 0.32023 0.26917 0.83953 0.0
C623 C 0.3873 0.29577 0.87762 0.0
C624 C 0.37908 0.26718 0.90982 0.0
H625 H 0.36651 0.31913 0.81905 0.0
H626 H 0.41689 0.31729 0.87856 0.0
S627 S 0.28115 0.18966 0.91635 0.0
N628 N 0.27427 0.21325 0.8716 0.0
N629 N 0.32806 0.21153 0.93669 0.0
C630 C 0.34048 0.23962 0.90675 0.0
C631 C 0.31121 0.24057 0.87152 0.0
C632 C 0.2907 0.85425 0.36951 0.0
C633 C 0.24821 0.83537 0.3562 0.0
C634 C 0.28714 0.88381 0.39578 0.0
C635 C 0.24105 0.89578 0.4093 0.0
H636 H 0.32697 0.84567 0.36016 0.0
H637 H 0.32063 0.89723 0.40589 0.0
S638 S 0.11887 0.85707 0.38244 0.0
N639 N 0.15859 0.83179 0.3578 0.0
N640 N 0.15224 0.88733 0.40728 0.0
C641 C 0.19838 0.87764 0.39596 0.0
C642 C 0.20187 0.84741 0.36941 0.0
C643 C 0.73885 0.79688 0.8818 0.0
C644 C 0.72334 0.80559 0.84158 0.0
C645 C 0.70622 0.79643 0.91815 0.0
C646 C 0.65695 0.80447 0.91548 0.0
H647 H 0.77655 0.79043 0.8852 0.0
H648 H 0.71938 0.78938 0.94851 0.0
S649 S 0.59727 0.82797 0.81831 0.0
N650 N 0.65485 0.82188 0.80158 0.0
N651 N 0.59378 0.82105 0.8701 0.0
C652 C 0.64093 0.8134 0.87576 0.0
C653 C 0.67407 0.81397 0.83874 0.0
loop_
_geom_bond_atom_site_label_1
_geom_bond_atom_site_label_2
_geom_bond_distance
_geom_bond_site_symmetry_2
_ccdc_geom_bond_type
H0 C3 0.931 . S
H1 C6 0.928 . S
H2 C8 0.930 . S
C3 H0 0.931 . S
C3 C4 1.413 . S
C3 C5 1.360 . S
C4 C3 1.413 . S
C4 C8 1.429 . S
C5 C3 1.360 . S
C5 C6 1.372 . S
C6 H1 0.928 . S
C6 C5 1.372 . S
C6 C7 1.404 . S
C7 C6 1.404 . S
C7 C8 1.391 . S
C8 H2 0.930 . S
C8 C4 1.429 . S
C8 C7 1.391 . S
H9 C12 0.931 . S
H10 C15 0.928 . S
H11 C17 0.930 . S
C12 H9 0.931 . S
C12 C13 1.413 . S
C12 C14 1.360 . S
C13 C12 1.413 . S
C13 C17 1.429 . S
C14 C12 1.360 . S
C14 C15 1.372 . S
C15 H10 0.928 . S
C15 C14 1.372 . S
C15 C16 1.404 . S
C16 C15 1.404 . S
C16 C17 1.391 . S
C17 H11 0.930 . S
C17 C13 1.429 . S
C17 C16 1.391 . S
H18 C21 0.931 . S
H19 C24 0.928 . S
H20 C26 0.930 . S
C21 H18 0.931 . S
C21 C22 1.413 . S
C21 C23 1.360 . S
C22 C21 1.413 . S
C22 C26 1.429 . S
C23 C21 1.360 . S
C23 C24 1.372 . S
C24 H19 0.928 . S
C24 C23 1.372 . S
C24 C25 1.404 . S
C25 C24 1.404 . S
C25 C26 1.391 . S
C26 H20 0.930 . S
C26 C22 1.429 . S
C26 C25 1.391 . S
H27 C30 0.931 . S
H28 C33 0.928 . S
H29 C35 0.930 . S
C30 H27 0.931 . S
C30 C31 1.413 . S
C30 C32 1.360 . S
C31 C30 1.413 . S
C31 C35 1.429 . S
C32 C30 1.360 . S
C32 C33 1.372 . S
C33 H28 0.928 . S
C33 C32 1.372 . S
C33 C34 1.404 . S
C34 C33 1.404 . S
C34 C35 1.391 . S
C35 H29 0.930 . S
C35 C31 1.429 . S
C35 C34 1.391 . S
H36 C39 0.931 . S
H37 C42 0.928 . S
H38 C44 0.930 . S
C39 H36 0.931 . S
C39 C40 1.413 . S
C39 C41 1.360 . S
C40 C39 1.413 . S
C40 C44 1.429 . S
C41 C39 1.360 . S
C41 C42 1.372 . S
C42 H37 0.928 . S
C42 C41 1.372 . S
C42 C43 1.404 . S
C43 C42 1.404 . S
C43 C44 1.391 . S
C44 H38 0.930 . S
C44 C40 1.429 . S
C44 C43 1.391 . S
H45 C48 0.931 . S
H46 C51 0.928 . S
H47 C53 0.930 . S
C48 H45 0.931 . S
C48 C49 1.413 . S
C48 C50 1.360 . S
C49 C48 1.413 . S
C49 C53 1.429 . S
C50 C48 1.360 . S
C50 C51 1.372 . S
C51 H46 0.928 . S
C51 C50 1.372 . S
C51 C52 1.404 . S
C52 C51 1.404 . S
C52 C53 1.391 . S
C53 H47 0.930 . S
C53 C49 1.429 . S
C53 C52 1.391 . S
H54 C57 0.931 . S
H55 C60 0.928 . S
H56 C62 0.930 . S
C57 H54 0.931 . S
C57 C58 1.413 . S
C57 C59 1.360 . S
C58 C57 1.413 . S
C58 C62 1.429 . S
C59 C57 1.360 . S
C59 C60 1.372 . S
C60 H55 0.928 . S
C60 C59 1.372 . S
C60 C61 1.404 . S
C61 C60 1.404 . S
C61 C62 1.391 . S
C62 H56 0.930 . S
C62 C58 1.429 . S
C62 C61 1.391 . S
H63 C66 0.931 . S
H64 C69 0.928 . S
H65 C71 0.930 . S
C66 H63 0.931 . S
C66 C67 1.413 . S
C66 C68 1.360 . S
C67 C66 1.413 . S
C67 C71 1.429 . S
C68 C66 1.360 . S
C68 C69 1.372 . S
C69 H64 0.928 . S
C69 C68 1.372 . S
C69 C70 1.404 . S
C70 C69 1.404 . S
C70 C71 1.391 . S
C71 H65 0.930 . S
C71 C67 1.429 . S
C71 C70 1.391 . S
C72 C73 1.443 . S
C72 N76 1.376 . S
C72 C110 1.389 . S
C73 C72 1.443 . S
C73 C74 1.340 . S
C73 H113 0.951 . S
C74 C73 1.340 . S
C74 C75 1.439 . S
C74 H114 0.950 . S
C75 C74 1.439 . S
C75 N76 1.374 . S
C75 C109 1.395 . S
N76 C72 1.376 . S
N76 C75 1.374 . S
N76 Co77 2.008 . S
Co77 N76 2.008 . S
Co77 N78 1.995 1_455 S
Co77 N83 2.008 . S
Co77 N88 1.995 . S
Co77 N93 2.282 . S
Co77 N99 2.282 1_455 S
N78 Co77 1.995 1_655 S
N78 C79 1.376 . S
N78 C82 1.383 . S
C79 N78 1.376 . S
C79 C80 1.446 . S
C79 C109 1.391 1_655 S
C80 C79 1.446 . S
C80 C81 1.339 . S
C80 H115 0.949 . S
C81 C80 1.339 . S
C81 C82 1.439 . S
C81 H116 0.950 . S
C82 N78 1.383 . S
C82 C81 1.439 . S
C82 C111 1.392 . S
N83 Co77 2.008 . S
N83 C84 1.376 1_455 S
N83 C87 1.374 . S
C84 N83 1.376 1_655 S
C84 C85 1.443 . S
C84 C111 1.389 . S
C85 C84 1.443 . S
C85 C86 1.340 . S
C85 H117 0.951 . S
C86 C85 1.340 . S
C86 C87 1.439 1_655 S
C86 H118 0.950 . S
C87 N83 1.374 . S
C87 C86 1.439 1_455 S
C87 C112 1.395 . S
N88 Co77 1.995 . S
N88 C89 1.376 . S
N88 C92 1.383 . S
C89 N88 1.376 . S
C89 C90 1.446 . S
C89 C112 1.391 . S
C90 C89 1.446 . S
C90 C91 1.339 . S
C90 H119 0.949 . S
C91 C90 1.339 . S
C91 C92 1.439 . S
C91 H120 0.950 . S
C92 N88 1.383 . S
C92 C91 1.439 . S
C92 C110 1.392 . S
N93 Co77 2.282 . S
N93 C96 1.332 . S
N93 C98 1.332 . S
C94 C95 1.386 . S
C94 C97 1.388 . S
C95 C94 1.386 . S
C95 C96 1.382 . S
C95 H121 0.950 . S
C96 N93 1.332 . S
C96 C95 1.382 . S
C96 H107 0.952 . S
C97 C94 1.388 . S
C97 C98 1.382 . S
C97 H122 0.950 . S
C98 N93 1.332 . S
C98 C97 1.382 . S
C98 H108 0.948 . S
N99 Co77 2.282 1_655 S
N99 C103 1.332 . S
N99 C104 1.332 . S
C100 C101 1.388 . S
C100 C104 1.382 . S
C100 H123 0.950 . S
C101 C100 1.388 . S
C101 C102 1.386 . S
C102 C101 1.386 . S
C102 C103 1.382 . S
C102 H124 0.950 . S
C103 N99 1.332 . S
C103 C102 1.382 . S
C103 H105 0.952 . S
C104 N99 1.332 . S
C104 C100 1.382 . S
C104 H106 0.948 . S
H105 C103 0.952 . S
H106 C104 0.948 . S
H107 C96 0.952 . S
H108 C98 0.948 . S
C109 C75 1.395 . S
C109 C79 1.391 1_455 S
C110 C72 1.389 . S
C110 C92 1.392 . S
C111 C82 1.392 . S
C111 C84 1.389 . S
C112 C87 1.395 . S
C112 C89 1.391 . S
H113 C73 0.951 . S
H114 C74 0.950 . S
H115 C80 0.949 . S
H116 C81 0.950 . S
H117 C85 0.951 . S
H118 C86 0.950 . S
H119 C90 0.949 . S
H120 C91 0.950 . S
H121 C95 0.950 . S
H122 C97 0.950 . S
H123 C100 0.950 . S
H124 C102 0.950 . S
C125 C126 1.443 . S
C125 N129 1.376 . S
C125 C163 1.389 . S
C126 C125 1.443 . S
C126 C127 1.340 . S
C126 H166 0.951 . S
C127 C126 1.340 . S
C127 C128 1.439 . S
C127 H167 0.950 . S
C128 C127 1.439 . S
C128 N129 1.374 . S
C128 C162 1.395 . S
N129 C125 1.376 . S
N129 C128 1.374 . S
N129 Co130 2.008 . S
Co130 N129 2.008 . S
Co130 N131 1.995 1_455 S
Co130 N136 2.008 1_455 S
Co130 N141 1.995 . S
Co130 N146 2.282 . S
Co130 N152 2.282 1_455 S
N131 Co130 1.995 1_655 S
N131 C132 1.376 . S
N131 C135 1.383 . S
C132 N131 1.376 . S
C132 C133 1.446 . S
C132 C162 1.391 1_655 S
C133 C132 1.446 . S
C133 C134 1.339 . S
C133 H168 0.949 . S
C134 C133 1.339 . S
C134 C135 1.439 . S
C134 H169 0.950 . S
C135 N131 1.383 . S
C135 C134 1.439 . S
C135 C164 1.392 . S
N136 Co130 2.008 1_655 S
N136 C137 1.376 . S
N136 C140 1.374 1_655 S
C137 N136 1.376 . S
C137 C138 1.443 . S
C137 C164 1.389 . S
C138 C137 1.443 . S
C138 C139 1.340 . S
C138 H170 0.951 . S
C139 C138 1.340 . S
C139 C140 1.439 1_655 S
C139 H171 0.950 . S
C140 N136 1.374 1_455 S
C140 C139 1.439 1_455 S
C140 C165 1.395 . S
N141 Co130 1.995 . S
N141 C142 1.376 . S
N141 C145 1.383 . S
C142 N141 1.376 . S
C142 C143 1.446 . S
C142 C165 1.391 . S
C143 C142 1.446 . S
C143 C144 1.339 . S
C143 H172 0.949 . S
C144 C143 1.339 . S
C144 C145 1.439 . S
C144 H173 0.950 . S
C145 N141 1.383 . S
C145 C144 1.439 . S
C145 C163 1.392 . S
N146 Co130 2.282 . S
N146 C149 1.332 . S
N146 C151 1.332 . S
C147 C148 1.386 . S
C147 C150 1.388 . S
C148 C147 1.386 . S
C148 C149 1.382 . S
C148 H174 0.950 . S
C149 N146 1.332 . S
C149 C148 1.382 . S
C149 H160 0.952 . S
C150 C147 1.388 . S
C150 C151 1.382 . S
C150 H175 0.950 . S
C151 N146 1.332 . S
C151 C150 1.382 . S
C151 H161 0.948 . S
N152 Co130 2.282 1_655 S
N152 C156 1.332 . S
N152 C157 1.332 . S
C153 C154 1.388 . S
C153 C157 1.382 . S
C153 H176 0.950 . S
C154 C153 1.388 . S
C154 C155 1.386 . S
C155 C154 1.386 . S
C155 C156 1.382 . S
C155 H177 0.950 . S
C156 N152 1.332 . S
C156 C155 1.382 . S
C156 H158 0.952 . S
C157 N152 1.332 . S
C157 C153 1.382 . S
C157 H159 0.948 . S
H158 C156 0.952 . S
H159 C157 0.948 . S
H160 C149 0.952 . S
H161 C151 0.948 . S
C162 C128 1.395 . S
C162 C132 1.391 1_455 S
C163 C125 1.389 . S
C163 C145 1.392 . S
C164 C135 1.392 . S
C164 C137 1.389 . S
C165 C140 1.395 . S
C165 C142 1.391 . S
H166 C126 0.951 . S
H167 C127 0.950 . S
H168 C133 0.949 . S
H169 C134 0.950 . S
H170 C138 0.951 . S
H171 C139 0.950 . S
H172 C143 0.949 . S
H173 C144 0.950 . S
H174 C148 0.950 . S
H175 C150 0.950 . S
H176 C153 0.950 . S
H177 C155 0.950 . S
C178 C179 1.443 . S
C178 N182 1.376 . S
C178 C216 1.389 . S
C179 C178 1.443 . S
C179 C180 1.340 . S
C179 H219 0.951 . S
C180 C179 1.340 . S
C180 C181 1.439 . S
C180 H220 0.950 . S
C181 C180 1.439 . S
C181 N182 1.374 . S
C181 C215 1.395 1_565 S
N182 C178 1.376 . S
N182 C181 1.374 . S
N182 Co183 2.008 1_565 S
Co183 N182 2.008 1_545 S
Co183 N184 1.995 . S
Co183 N189 2.008 . S
Co183 N194 1.995 1_545 S
Co183 N199 2.282 . S
Co183 N205 2.282 1_545 S
N184 Co183 1.995 . S
N184 C185 1.376 . S
N184 C188 1.383 . S
C185 N184 1.376 . S
C185 C186 1.446 . S
C185 C215 1.391 . S
C186 C185 1.446 . S
C186 C187 1.339 . S
C186 H221 0.949 . S
C187 C186 1.339 . S
C187 C188 1.439 . S
C187 H222 0.950 . S
C188 N184 1.383 . S
C188 C187 1.439 . S
C188 C217 1.392 . S
N189 Co183 2.008 . S
N189 C190 1.376 . S
N189 C193 1.374 . S
C190 N189 1.376 . S
C190 C191 1.443 . S
C190 C217 1.389 . S
C191 C190 1.443 . S
C191 C192 1.340 . S
C191 H223 0.951 . S
C192 C191 1.340 . S
C192 C193 1.439 . S
C192 H224 0.950 . S
C193 N189 1.374 . S
C193 C192 1.439 . S
C193 C218 1.395 . S
N194 Co183 1.995 1_565 S
N194 C195 1.376 . S
N194 C198 1.383 . S
C195 N194 1.376 . S
C195 C196 1.446 . S
C195 C218 1.391 1_565 S
C196 C195 1.446 . S
C196 C197 1.339 . S
C196 H225 0.949 . S
C197 C196 1.339 . S
C197 C198 1.439 . S
C197 H226 0.950 . S
C198 N194 1.383 . S
C198 C197 1.439 . S
C198 C216 1.392 . S
N199 Co183 2.282 . S
N199 C202 1.332 . S
N199 C204 1.332 . S
C200 C201 1.386 . S
C200 C203 1.388 . S
C201 C200 1.386 . S
C201 C202 1.382 . S
C201 H227 0.950 . S
C202 N199 1.332 . S
C202 C201 1.382 . S
C202 H213 0.952 . S
C203 C200 1.388 . S
C203 C204 1.382 . S
C203 H228 0.950 . S
C204 N199 1.332 . S
C204 C203 1.382 . S
C204 H214 0.948 . S
N205 Co183 2.282 1_565 S
N205 C209 1.332 . S
N205 C210 1.332 . S
C206 C207 1.388 . S
C206 C210 1.382 . S
C206 H229 0.950 . S
C207 C206 1.388 . S
C207 C208 1.386 . S
C208 C207 1.386 . S
C208 C209 1.382 . S
C208 H230 0.950 . S
C209 N205 1.332 . S
C209 C208 1.382 . S
C209 H211 0.952 . S
C210 N205 1.332 . S
C210 C206 1.382 . S
C210 H212 0.948 . S
H211 C209 0.952 . S
H212 C210 0.948 . S
H213 C202 0.952 . S
H214 C204 0.948 . S
C215 C181 1.395 1_545 S
C215 C185 1.391 . S
C216 C178 1.389 . S
C216 C198 1.392 . S
C217 C188 1.392 . S
C217 C190 1.389 . S
C218 C193 1.395 . S
C218 C195 1.391 1_545 S
H219 C179 0.951 . S
H220 C180 0.950 . S
H221 C186 0.949 . S
H222 C187 0.950 . S
H223 C191 0.951 . S
H224 C192 0.950 . S
H225 C196 0.949 . S
H226 C197 0.950 . S
H227 C201 0.950 . S
H228 C203 0.950 . S
H229 C206 0.950 . S
H230 C208 0.950 . S
C231 C232 1.443 . S
C231 N235 1.376 . S
C231 C269 1.389 . S
C232 C231 1.443 . S
C232 C233 1.340 . S
C232 H272 0.951 . S
C233 C232 1.340 . S
C233 C234 1.439 . S
C233 H273 0.950 . S
C234 C233 1.439 . S
C234 N235 1.374 . S
C234 C268 1.395 . S
N235 C231 1.376 . S
N235 C234 1.374 . S
N235 Co236 2.008 . S
Co236 N235 2.008 . S
Co236 N237 1.995 1_554 S
Co236 N242 2.008 1_554 S
Co236 N247 1.995 . S
Co236 N252 2.282 1_554 S
Co236 N258 2.282 . S
N237 Co236 1.995 1_556 S
N237 C238 1.377 . S
N237 C241 1.383 . S
C238 N237 1.377 . S
C238 C239 1.451 . S
C238 C268 1.386 1_556 S
C239 C238 1.451 . S
C239 C240 1.339 . S
C239 H274 0.949 . S
C240 C239 1.339 . S
C240 C241 1.439 . S
C240 H275 0.950 . S
C241 N237 1.383 . S
C241 C240 1.439 . S
C241 C270 1.392 . S
N242 Co236 2.008 1_556 S
N242 C243 1.376 . S
N242 C246 1.374 . S
C243 N242 1.376 . S
C243 C244 1.443 . S
C243 C270 1.389 . S
C244 C243 1.443 . S
C244 C245 1.340 . S
C244 H276 0.951 . S
C245 C244 1.340 . S
C245 C246 1.439 . S
C245 H277 0.950 . S
C246 N242 1.374 . S
C246 C245 1.439 . S
C246 C271 1.395 1_556 S
N247 Co236 1.995 . S
N247 C248 1.376 . S
N247 C251 1.383 . S
C248 N247 1.376 . S
C248 C249 1.446 . S
C248 C271 1.391 . S
C249 C248 1.446 . S
C249 C250 1.339 . S
C249 H278 0.949 . S
C250 C249 1.339 . S
C250 C251 1.439 . S
C250 H279 0.950 . S
C251 N247 1.383 . S
C251 C250 1.439 . S
C251 C269 1.392 . S
N252 Co236 2.282 1_556 S
N252 C255 1.332 . S
N252 C257 1.332 . S
C253 C254 1.386 . S
C253 C256 1.388 . S
C254 C253 1.386 . S
C254 C255 1.382 . S
C254 H280 0.950 . S
C255 N252 1.332 . S
C255 C254 1.382 . S
C255 H266 0.952 . S
C256 C253 1.388 . S
C256 C257 1.382 . S
C256 H281 0.950 . S
C257 N252 1.332 . S
C257 C256 1.382 . S
C257 H267 0.948 . S
N258 Co236 2.282 . S
N258 C262 1.332 . S
N258 C263 1.332 . S
C259 C260 1.388 . S
C259 C263 1.382 . S
C259 H282 0.950 . S
C260 C259 1.388 . S
C260 C261 1.386 . S
C261 C260 1.386 . S
C261 C262 1.382 . S
C261 H283 0.950 . S
C262 N258 1.332 . S
C262 C261 1.382 . S
C262 H264 0.952 . S
C263 N258 1.332 . S
C263 C259 1.382 . S
C263 H265 0.948 . S
H264 C262 0.952 . S
H265 C263 0.948 . S
H266 C255 0.952 . S
H267 C257 0.948 . S
C268 C234 1.395 . S
C268 C238 1.386 1_554 S
C269 C231 1.389 . S
C269 C251 1.392 . S
C270 C241 1.392 . S
C270 C243 1.389 . S
C271 C246 1.395 1_554 S
C271 C248 1.391 . S
H272 C232 0.951 . S
H273 C233 0.950 . S
H274 C239 0.949 . S
H275 C240 0.950 . S
H276 C244 0.951 . S
H277 C245 0.950 . S
H278 C249 0.949 . S
H279 C250 0.950 . S
H280 C254 0.950 . S
H281 C256 0.950 . S
H282 C259 0.950 . S
H283 C261 0.950 . S
C284 C285 1.443 . S
C284 N288 1.376 1_565 S
C284 C322 1.389 . S
C285 C284 1.443 . S
C285 C286 1.340 . S
C285 H325 0.951 . S
C286 C285 1.340 . S
C286 C287 1.439 1_565 S
C286 H326 0.950 . S
C287 C286 1.439 1_545 S
C287 N288 1.374 . S
C287 C321 1.395 . S
N288 C284 1.376 1_545 S
N288 C287 1.374 . S
N288 Co289 2.008 . S
Co289 N288 2.008 . S
Co289 N290 1.995 . S
Co289 N295 2.008 . S
Co289 N300 1.995 . S
Co289 N305 2.282 . S
Co289 N311 2.282 1_545 S
N290 Co289 1.995 . S
N290 C291 1.376 . S
N290 C294 1.383 . S
C291 N290 1.376 . S
C291 C292 1.446 . S
C291 C321 1.391 . S
C292 C291 1.446 . S
C292 C293 1.339 . S
C292 H327 0.949 . S
C293 C292 1.339 . S
C293 C294 1.439 . S
C293 H328 0.950 . S
C294 N290 1.383 . S
C294 C293 1.439 . S
C294 C323 1.392 . S
N295 Co289 2.008 . S
N295 C296 1.376 . S
N295 C299 1.374 . S
C296 N295 1.376 . S
C296 C297 1.443 . S
C296 C323 1.389 . S
C297 C296 1.443 . S
C297 C298 1.340 . S
C297 H329 0.951 . S
C298 C297 1.340 . S
C298 C299 1.439 . S
C298 H330 0.950 . S
C299 N295 1.374 . S
C299 C298 1.439 . S
C299 C324 1.395 . S
N300 Co289 1.995 . S
N300 C301 1.376 . S
N300 C304 1.383 1_545 S
C301 N300 1.376 . S
C301 C302 1.446 1_545 S
C301 C324 1.391 . S
C302 C301 1.446 1_565 S
C302 C303 1.339 . S
C302 H331 0.949 . S
C303 C302 1.339 . S
C303 C304 1.439 . S
C303 H332 0.950 . S
C304 N300 1.383 1_565 S
C304 C303 1.439 . S
C304 C322 1.392 . S
N305 Co289 2.282 . S
N305 C308 1.332 . S
N305 C310 1.332 . S
C306 C307 1.386 . S
C306 C309 1.388 . S
C307 C306 1.386 . S
C307 C308 1.382 . S
C307 H333 0.950 . S
C308 N305 1.332 . S
C308 C307 1.382 . S
C308 H319 0.952 . S
C309 C306 1.388 . S
C309 C310 1.382 . S
C309 H334 0.950 . S
C310 N305 1.332 . S
C310 C309 1.382 . S
C310 H320 0.948 . S
N311 Co289 2.282 1_565 S
N311 C315 1.332 . S
N311 C316 1.332 . S
C312 C313 1.388 . S
C312 C316 1.382 . S
C312 H335 0.950 . S
C313 C312 1.388 . S
C313 C314 1.386 . S
C314 C313 1.386 . S
C314 C315 1.382 . S
C314 H336 0.950 . S
C315 N311 1.332 . S
C315 C314 1.382 . S
C315 H317 0.952 . S
C316 N311 1.332 . S
C316 C312 1.382 . S
C316 H318 0.948 . S
H317 C315 0.952 . S
H318 C316 0.948 . S
H319 C308 0.952 . S
H320 C310 0.948 . S
C321 C287 1.395 . S
C321 C291 1.391 . S
C322 C284 1.389 . S
C322 C304 1.392 . S
C323 C294 1.392 . S
C323 C296 1.389 . S
C324 C299 1.395 . S
C324 C301 1.391 . S
H325 C285 0.951 . S
H326 C286 0.950 . S
H327 C292 0.949 . S
H328 C293 0.950 . S
H329 C297 0.951 . S
H330 C298 0.950 . S
H331 C302 0.949 . S
H332 C303 0.950 . S
H333 C307 0.950 . S
H334 C309 0.950 . S
H335 C312 0.950 . S
H336 C314 0.950 . S
C337 C338 1.443 . S
C337 N341 1.376 . S
C337 C375 1.389 . S
C338 C337 1.443 . S
C338 C339 1.340 . S
C338 H378 0.951 . S
C339 C338 1.340 . S
C339 C340 1.439 . S
C339 H379 0.950 . S
C340 C339 1.439 . S
C340 N341 1.374 . S
C340 C374 1.395 . S
N341 C337 1.376 . S
N341 C340 1.374 . S
N341 Co342 2.008 . S
Co342 N341 2.008 . S
Co342 N343 1.995 . S
Co342 N348 2.008 . S
Co342 N353 1.995 . S
Co342 N358 2.303 . S
Co342 N364 2.282 . S
N343 Co342 1.995 . S
N343 C344 1.376 . S
N343 C347 1.383 1_554 S
C344 N343 1.376 . S
C344 C345 1.446 1_554 S
C344 C374 1.391 . S
C345 C344 1.446 1_556 S
C345 C346 1.339 . S
C345 H380 0.949 . S
C346 C345 1.339 . S
C346 C347 1.439 . S
C346 H381 0.950 . S
C347 N343 1.383 1_556 S
C347 C346 1.439 . S
C347 C376 1.392 . S
N348 Co342 2.008 . S
N348 C349 1.376 1_554 S
N348 C352 1.374 . S
C349 N348 1.376 1_556 S
C349 C350 1.443 . S
C349 C376 1.389 . S
C350 C349 1.443 . S
C350 C351 1.340 . S
C350 H382 0.951 . S
C351 C350 1.340 . S
C351 C352 1.439 1_556 S
C351 H383 0.950 . S
C352 N348 1.374 . S
C352 C351 1.439 1_554 S
C352 C377 1.395 . S
N353 Co342 1.995 . S
N353 C354 1.376 . S
N353 C357 1.383 . S
C354 N353 1.376 . S
C354 C355 1.446 . S
C354 C377 1.391 . S
C355 C354 1.446 . S
C355 C356 1.339 . S
C355 H384 0.949 . S
C356 C355 1.339 . S
C356 C357 1.439 . S
C356 H385 0.950 . S
C357 N353 1.383 . S
C357 C356 1.439 . S
C357 C375 1.392 . S
N358 Co342 2.303 . S
N358 C361 1.323 1_554 S
N358 C363 1.317 1_554 S
C359 C360 1.386 . S
C359 C362 1.388 . S
C360 C359 1.386 . S
C360 C361 1.382 . S
C360 H386 0.950 . S
C361 N358 1.323 1_556 S
C361 C360 1.382 . S
C361 H372 0.952 1_556 S
C362 C359 1.388 . S
C362 C363 1.382 . S
C362 H387 0.950 . S
C363 N358 1.317 1_556 S
C363 C362 1.382 . S
C363 H373 0.948 . S
N364 Co342 2.282 . S
N364 C368 1.332 . S
N364 C369 1.332 . S
C365 C366 1.388 . S
C365 C369 1.382 . S
C365 H388 0.950 . S
C366 C365 1.388 . S
C366 C367 1.386 . S
C367 C366 1.386 . S
C367 C368 1.382 . S
C367 H389 0.950 . S
C368 N364 1.332 . S
C368 C367 1.382 . S
C368 H370 0.952 . S
C369 N364 1.332 . S
C369 C365 1.382 . S
C369 H371 0.948 . S
H370 C368 0.952 . S
H371 C369 0.948 . S
H372 C361 0.952 1_554 S
H373 C363 0.948 . S
C374 C340 1.395 . S
C374 C344 1.391 . S
C375 C337 1.389 . S
C375 C357 1.392 . S
C376 C347 1.392 . S
C376 C349 1.389 . S
C377 C352 1.395 . S
C377 C354 1.391 . S
H378 C338 0.951 . S
H379 C339 0.950 . S
H380 C345 0.949 . S
H381 C346 0.950 . S
H382 C350 0.951 . S
H383 C351 0.950 . S
H384 C355 0.949 . S
H385 C356 0.950 . S
H386 C360 0.950 . S
H387 C362 0.950 . S
H388 C365 0.950 . S
H389 C367 0.950 . S
C390 C391 1.369 . S
C390 C392 1.419 . S
C390 H394 0.930 . S
C391 C390 1.369 . S
C391 C400 1.429 . S
C392 C390 1.419 . S
C392 C393 1.363 . S
C392 H395 0.929 . S
C393 C392 1.363 . S
C393 C399 1.428 . S
H394 C390 0.930 . S
H395 C392 0.929 . S
S396 N397 1.613 . S
S396 N398 1.610 . S
N397 S396 1.613 . S
N397 C400 1.350 . S
N398 S396 1.610 . S
N398 C399 1.351 . S
C399 C393 1.428 . S
C399 N398 1.351 . S
C399 C400 1.434 . S
C400 C391 1.429 . S
C400 N397 1.350 . S
C400 C399 1.434 . S
C401 C402 1.369 . S
C401 C403 1.419 . S
C401 H405 0.930 . S
C402 C401 1.369 . S
C402 C411 1.429 . S
C403 C401 1.419 . S
C403 C404 1.363 . S
C403 H406 0.929 . S
C404 C403 1.363 . S
C404 C410 1.428 . S
H405 C401 0.930 . S
H406 C403 0.929 . S
S407 N408 1.613 . S
S407 N409 1.610 . S
N408 S407 1.613 . S
N408 C411 1.350 . S
N409 S407 1.610 . S
N409 C410 1.351 . S
C410 C404 1.428 . S
C410 N409 1.351 . S
C410 C411 1.434 . S
C411 C402 1.429 . S
C411 N408 1.350 . S
C411 C410 1.434 . S
C412 C413 1.369 . S
C412 C414 1.419 . S
C412 H416 0.930 . S
C413 C412 1.369 . S
C413 C422 1.429 . S
C414 C412 1.419 . S
C414 C415 1.363 . S
C414 H417 0.929 . S
C415 C414 1.363 . S
C415 C421 1.428 . S
H416 C412 0.930 . S
H417 C414 0.929 . S
S418 N419 1.613 . S
S418 N420 1.610 . S
N419 S418 1.613 . S
N419 C422 1.350 . S
N420 S418 1.610 . S
N420 C421 1.351 . S
C421 C415 1.428 . S
C421 N420 1.351 . S
C421 C422 1.434 . S
C422 C413 1.429 . S
C422 N419 1.350 . S
C422 C421 1.434 . S
C423 C424 1.369 . S
C423 C425 1.419 . S
C423 H427 0.930 . S
C424 C423 1.369 . S
C424 C433 1.429 . S
C425 C423 1.419 . S
C425 C426 1.363 . S
C425 H428 0.929 . S
C426 C425 1.363 . S
C426 C432 1.428 . S
H427 C423 0.930 . S
H428 C425 0.929 . S
S429 N430 1.613 . S
S429 N431 1.610 . S
N430 S429 1.613 . S
N430 C433 1.350 . S
N431 S429 1.610 . S
N431 C432 1.351 . S
C432 C426 1.428 . S
C432 N431 1.351 . S
C432 C433 1.434 . S
C433 C424 1.429 . S
C433 N430 1.350 . S
C433 C432 1.434 . S
C434 C435 1.369 . S
C434 C436 1.419 . S
C434 H438 0.930 . S
C435 C434 1.369 . S
C435 C444 1.429 . S
C436 C434 1.419 . S
C436 C437 1.363 . S
C436 H439 0.929 . S
C437 C436 1.363 . S
C437 C443 1.428 . S
H438 C434 0.930 . S
H439 C436 0.929 . S
S440 N441 1.613 . S
S440 N442 1.610 . S
N441 S440 1.613 . S
N441 C444 1.350 . S
N442 S440 1.610 . S
N442 C443 1.351 . S
C443 C437 1.428 . S
C443 N442 1.351 . S
C443 C444 1.434 . S
C444 C435 1.429 . S
C444 N441 1.350 . S
C444 C443 1.434 . S
C445 C446 1.369 . S
C445 C447 1.419 . S
C445 H449 0.930 . S
C446 C445 1.369 . S
C446 C455 1.429 . S
C447 C445 1.419 . S
C447 C448 1.363 . S
C447 H450 0.929 . S
C448 C447 1.363 . S
C448 C454 1.428 . S
H449 C445 0.930 . S
H450 C447 0.929 . S
S451 N452 1.613 . S
S451 N453 1.610 . S
N452 S451 1.613 . S
N452 C455 1.350 . S
N453 S451 1.610 . S
N453 C454 1.351 . S
C454 C448 1.428 . S
C454 N453 1.351 . S
C454 C455 1.434 . S
C455 C446 1.429 . S
C455 N452 1.350 . S
C455 C454 1.434 . S
C456 C457 1.369 . S
C456 C458 1.419 . S
C456 H460 0.930 . S
C457 C456 1.369 . S
C457 C466 1.429 . S
C458 C456 1.419 . S
C458 C459 1.363 . S
C458 H461 0.929 . S
C459 C458 1.363 . S
C459 C465 1.428 . S
H460 C456 0.930 . S
H461 C458 0.929 . S
S462 N463 1.613 . S
S462 N464 1.610 . S
N463 S462 1.613 . S
N463 C466 1.350 . S
N464 S462 1.610 . S
N464 C465 1.351 . S
C465 C459 1.428 . S
C465 N464 1.351 . S
C465 C466 1.434 . S
C466 C457 1.429 . S
C466 N463 1.350 . S
C466 C465 1.434 . S
C467 C468 1.369 . S
C467 C469 1.419 . S
C467 H471 0.930 . S
C468 C467 1.369 . S
C468 C477 1.429 . S
C469 C467 1.419 . S
C469 C470 1.363 . S
C469 H472 0.929 . S
C470 C469 1.363 . S
C470 C476 1.428 . S
H471 C467 0.930 . S
H472 C469 0.929 . S
S473 N474 1.613 . S
S473 N475 1.610 . S
N474 S473 1.613 . S
N474 C477 1.350 . S
N475 S473 1.610 . S
N475 C476 1.351 . S
C476 C470 1.428 . S
C476 N475 1.351 . S
C476 C477 1.434 . S
C477 C468 1.429 . S
C477 N474 1.350 . S
C477 C476 1.434 . S
C478 C479 1.369 . S
C478 C480 1.419 . S
C478 H482 0.930 . S
C479 C478 1.369 . S
C479 C488 1.429 . S
C480 C478 1.419 . S
C480 C481 1.363 . S
C480 H483 0.929 . S
C481 C480 1.363 . S
C481 C487 1.428 . S
H482 C478 0.930 . S
H483 C480 0.929 . S
S484 N485 1.613 . S
S484 N486 1.610 . S
N485 S484 1.613 . S
N485 C488 1.350 . S
N486 S484 1.610 . S
N486 C487 1.351 . S
C487 C481 1.428 . S
C487 N486 1.351 . S
C487 C488 1.434 . S
C488 C479 1.429 . S
C488 N485 1.350 . S
C488 C487 1.434 . S
C489 C490 1.369 . S
C489 C491 1.419 . S
C489 H493 0.930 . S
C490 C489 1.369 . S
C490 C499 1.429 . S
C491 C489 1.419 . S
C491 C492 1.363 . S
C491 H494 0.929 . S
C492 C491 1.363 . S
C492 C498 1.428 . S
H493 C489 0.930 . S
H494 C491 0.929 . S
S495 N496 1.613 . S
S495 N497 1.610 . S
N496 S495 1.613 . S
N496 C499 1.350 . S
N497 S495 1.610 . S
N497 C498 1.351 . S
C498 C492 1.428 . S
C498 N497 1.351 . S
C498 C499 1.434 . S
C499 C490 1.429 . S
C499 N496 1.350 . S
C499 C498 1.434 . S
C500 C501 1.369 . S
C500 C502 1.419 . S
C500 H504 0.930 . S
C501 C500 1.369 . S
C501 C510 1.429 . S
C502 C500 1.419 . S
C502 C503 1.363 . S
C502 H505 0.929 . S
C503 C502 1.363 . S
C503 C509 1.428 . S
H504 C500 0.930 . S
H505 C502 0.929 . S
S506 N507 1.613 . S
S506 N508 1.610 . S
N507 S506 1.613 . S
N507 C510 1.350 . S
N508 S506 1.610 . S
N508 C509 1.351 . S
C509 C503 1.428 . S
C509 N508 1.351 . S
C509 C510 1.434 . S
C510 C501 1.429 . S
C510 N507 1.350 . S
C510 C509 1.434 . S
C511 C512 1.369 . S
C511 C513 1.419 . S
C511 H515 0.930 . S
C512 C511 1.369 . S
C512 C521 1.429 . S
C513 C511 1.419 . S
C513 C514 1.363 . S
C513 H516 0.929 . S
C514 C513 1.363 . S
C514 C520 1.428 . S
H515 C511 0.930 . S
H516 C513 0.929 . S
S517 N518 1.613 . S
S517 N519 1.610 . S
N518 S517 1.613 . S
N518 C521 1.350 . S
N519 S517 1.610 . S
N519 C520 1.351 . S
C520 C514 1.428 . S
C520 N519 1.351 . S
C520 C521 1.434 . S
C521 C512 1.429 . S
C521 N518 1.350 . S
C521 C520 1.434 . S
C522 C523 1.369 . S
C522 C524 1.419 . S
C522 H526 0.930 . S
C523 C522 1.369 . S
C523 C532 1.429 . S
C524 C522 1.419 . S
C524 C525 1.363 . S
C524 H527 0.929 . S
C525 C524 1.363 . S
C525 C531 1.428 . S
H526 C522 0.930 . S
H527 C524 0.929 . S
S528 N529 1.613 . S
S528 N530 1.610 . S
N529 S528 1.613 . S
N529 C532 1.350 . S
N530 S528 1.610 . S
N530 C531 1.351 . S
C531 C525 1.428 . S
C531 N530 1.351 . S
C531 C532 1.434 . S
C532 C523 1.429 . S
C532 N529 1.350 . S
C532 C531 1.434 . S
C533 C534 1.369 . S
C533 C535 1.419 . S
C533 H537 0.930 . S
C534 C533 1.369 . S
C534 C543 1.429 . S
C535 C533 1.419 . S
C535 C536 1.363 . S
C535 H538 0.929 . S
C536 C535 1.363 . S
C536 C542 1.428 . S
H537 C533 0.930 . S
H538 C535 0.929 . S
S539 N540 1.613 . S
S539 N541 1.610 . S
N540 S539 1.613 . S
N540 C543 1.350 . S
N541 S539 1.610 . S
N541 C542 1.351 . S
C542 C536 1.428 . S
C542 N541 1.351 . S
C542 C543 1.434 . S
C543 C534 1.429 . S
C543 N540 1.350 . S
C543 C542 1.434 . S
C544 C545 1.369 . S
C544 C546 1.419 . S
C544 H548 0.930 . S
C545 C544 1.369 . S
C545 C554 1.429 . S
C546 C544 1.419 . S
C546 C547 1.363 . S
C546 H549 0.929 . S
C547 C546 1.363 . S
C547 C553 1.428 . S
H548 C544 0.930 . S
H549 C546 0.929 . S
S550 N551 1.613 . S
S550 N552 1.610 . S
N551 S550 1.613 . S
N551 C554 1.350 . S
N552 S550 1.610 . S
N552 C553 1.351 . S
C553 C547 1.428 . S
C553 N552 1.351 . S
C553 C554 1.434 . S
C554 C545 1.429 . S
C554 N551 1.350 . S
C554 C553 1.434 . S
C555 C556 1.369 . S
C555 C557 1.419 . S
C555 H559 0.930 . S
C556 C555 1.369 . S
C556 C565 1.429 . S
C557 C555 1.419 . S
C557 C558 1.363 . S
C557 H560 0.929 . S
C558 C557 1.363 . S
C558 C564 1.428 . S
H559 C555 0.930 . S
H560 C557 0.929 . S
S561 N562 1.613 . S
S561 N563 1.610 . S
N562 S561 1.613 . S
N562 C565 1.350 . S
N563 S561 1.610 . S
N563 C564 1.351 . S
C564 C558 1.428 . S
C564 N563 1.351 . S
C564 C565 1.434 . S
C565 C556 1.429 . S
C565 N562 1.350 . S
C565 C564 1.434 . S
C566 C567 1.369 . S
C566 C568 1.419 . S
C566 H570 0.930 . S
C567 C566 1.369 . S
C567 C576 1.429 . S
C568 C566 1.419 . S
C568 C569 1.363 . S
C568 H571 0.929 . S
C569 C568 1.363 . S
C569 C575 1.428 . S
H570 C566 0.930 . S
H571 C568 0.929 . S
S572 N573 1.613 . S
S572 N574 1.610 . S
N573 S572 1.613 . S
N573 C576 1.350 . S
N574 S572 1.610 . S
N574 C575 1.351 . S
C575 C569 1.428 . S
C575 N574 1.351 . S
C575 C576 1.434 . S
C576 C567 1.429 . S
C576 N573 1.350 . S
C576 C575 1.434 . S
C577 C578 1.369 . S
C577 C579 1.419 . S
C577 H581 0.930 . S
C578 C577 1.369 . S
C578 C587 1.429 . S
C579 C577 1.419 . S
C579 C580 1.363 . S
C579 H582 0.929 . S
C580 C579 1.363 . S
C580 C586 1.428 . S
H581 C577 0.930 . S
H582 C579 0.929 . S
S583 N584 1.613 . S
S583 N585 1.610 . S
N584 S583 1.613 . S
N584 C587 1.350 . S
N585 S583 1.610 . S
N585 C586 1.351 . S
C586 C580 1.428 . S
C586 N585 1.351 . S
C586 C587 1.434 . S
C587 C578 1.429 . S
C587 N584 1.350 . S
C587 C586 1.434 . S
C588 C589 1.369 . S
C588 C590 1.419 . S
C588 H592 0.930 . S
C589 C588 1.369 . S
C589 C598 1.429 . S
C590 C588 1.419 . S
C590 C591 1.363 . S
C590 H593 0.929 . S
C591 C590 1.363 . S
C591 C597 1.428 . S
H592 C588 0.930 . S
H593 C590 0.929 . S
S594 N595 1.613 . S
S594 N596 1.610 . S
N595 S594 1.613 . S
N595 C598 1.350 . S
N596 S594 1.610 . S
N596 C597 1.351 . S
C597 C591 1.428 . S
C597 N596 1.351 . S
C597 C598 1.434 . S
C598 C589 1.429 . S
C598 N595 1.350 . S
C598 C597 1.434 . S
C599 C600 1.369 . S
C599 C601 1.419 . S
C599 H603 0.930 . S
C600 C599 1.369 . S
C600 C609 1.429 . S
C601 C599 1.419 . S
C601 C602 1.363 . S
C601 H604 0.929 . S
C602 C601 1.363 . S
C602 C608 1.428 . S
H603 C599 0.930 . S
H604 C601 0.929 . S
S605 N606 1.613 . S
S605 N607 1.610 . S
N606 S605 1.613 . S
N606 C609 1.350 . S
N607 S605 1.610 . S
N607 C608 1.351 . S
C608 C602 1.428 . S
C608 N607 1.351 . S
C608 C609 1.434 . S
C609 C600 1.429 . S
C609 N606 1.350 . S
C609 C608 1.434 . S
C610 C611 1.369 . S
C610 C612 1.419 . S
C610 H614 0.930 . S
C611 C610 1.369 . S
C611 C620 1.429 . S
C612 C610 1.419 . S
C612 C613 1.363 . S
C612 H615 0.929 . S
C613 C612 1.363 . S
C613 C619 1.428 . S
H614 C610 0.930 . S
H615 C612 0.929 . S
S616 N617 1.613 . S
S616 N618 1.610 . S
N617 S616 1.613 . S
N617 C620 1.350 . S
N618 S616 1.610 . S
N618 C619 1.351 . S
C619 C613 1.428 . S
C619 N618 1.351 . S
C619 C620 1.434 . S
C620 C611 1.429 . S
C620 N617 1.350 . S
C620 C619 1.434 . S
C621 C622 1.369 . S
C621 C623 1.419 . S
C621 H625 0.930 . S
C622 C621 1.369 . S
C622 C631 1.429 . S
C623 C621 1.419 . S
C623 C624 1.363 . S
C623 H626 0.929 . S
C624 C623 1.363 . S
C624 C630 1.428 . S
H625 C621 0.930 . S
H626 C623 0.929 . S
S627 N628 1.613 . S
S627 N629 1.610 . S
N628 S627 1.613 . S
N628 C631 1.350 . S
N629 S627 1.610 . S
N629 C630 1.351 . S
C630 C624 1.428 . S
C630 N629 1.351 . S
C630 C631 1.434 . S
C631 C622 1.429 . S
C631 N628 1.350 . S
C631 C630 1.434 . S
C632 C633 1.369 . S
C632 C634 1.419 . S
C632 H636 0.930 . S
C633 C632 1.369 . S
C633 C642 1.429 . S
C634 C632 1.419 . S
C634 C635 1.363 . S
C634 H637 0.929 . S
C635 C634 1.363 . S
C635 C641 1.428 . S
H636 C632 0.930 . S
H637 C634 0.929 . S
S638 N639 1.613 . S
S638 N640 1.610 . S
N639 S638 1.613 . S
N639 C642 1.350 . S
N640 S638 1.610 . S
N640 C641 1.351 . S
C641 C635 1.428 . S
C641 N640 1.351 . S
C641 C642 1.434 . S
C642 C633 1.429 . S
C642 N639 1.350 . S
C642 C641 1.434 . S
C643 C644 1.369 . S
C643 C645 1.419 . S
C643 H647 0.930 . S
C644 C643 1.369 . S
C644 C653 1.429 . S
C645 C643 1.419 . S
C645 C646 1.363 . S
C645 H648 0.929 . S
C646 C645 1.363 . S
C646 C652 1.428 . S
H647 C643 0.930 . S
H648 C645 0.929 . S
S649 N650 1.613 . S
S649 N651 1.610 . S
N650 S649 1.613 . S
N650 C653 1.350 . S
N651 S649 1.610 . S
N651 C652 1.351 . S
C652 C646 1.428 . S
C652 N651 1.351 . S
C652 C653 1.434 . S
C653 C644 1.429 . S
C653 N650 1.350 . S
C653 C652 1.434 . S
C393 C94 1.544 . S
C391 C4 1.552 . S
C404 C163 1.535 . S
C402 C13 1.547 . S
C415 C101 1.538 . S
C413 C25 1.549 . S
C426 C164 1.538 . S
C424 C34 1.544 . S
C437 C217 1.544 . S
C435 C7 1.548 . S
C448 C253 1.519 . S
C446 C14 1.516 . S
C457 C23 1.533 . S
C459 C313 1.528 . S
C470 C376 1.520 . S
C468 C31 1.522 . S
C481 C216 1.536 . S
C479 C16 1.542 . S
C490 C22 1.521 . S
C492 C260 1.520 . S
C503 C306 1.532 . S
C501 C32 1.531 . S
C514 C375 1.523 . S
C512 C5 1.520 . S
C523 C43 1.552 . S
C525 C154 1.544 . S
C536 C111 1.537 . S
C534 C52 1.547 . S
C545 C58 1.553 . S
C547 C147 1.540 . S
C556 C68 1.545 . S
C558 C110 1.539 . S
C569 C322 1.539 . S
C567 C40 1.540 . S
C580 C366 1.515 . S
C578 C50 1.516 . S
C591 C200 1.545 . S
C589 C59 1.555 . S
C600 C70 1.511 . S
C602 C269 1.511 . S
C613 C323 1.530 . S
C611 C49 1.538 . S
C624 C359 1.513 . S
C622 C61 1.511 . S
C635 C207 1.550 . S
C633 C67 1.553 . S
C644 C41 1.517 . S
C646 C270 1.517 . S
