# Generated by pormake.
# Topology sqc, (4,8)-cn, num edge types: 1
# Building blocks:
#     Node 0, Type 0, BuildingBlock: MIFKUJ_clean_linker_1, # of connection points: 4
#     Node 1, Type 0, BuildingBlock: MIFKUJ_clean_linker_1, # of connection points: 4
#     Node 2, Type 0, BuildingBlock: MIFKUJ_clean_linker_1, # of connection points: 4
#     Node 3, Type 0, BuildingBlock: MIFKUJ_clean_linker_1, # of connection points: 4
#     Node 4, Type 0, BuildingBlock: MIFKUJ_clean_linker_1, # of connection points: 4
#     Node 5, Type 0, BuildingBlock: MIFKUJ_clean_linker_1, # of connection points: 4
#     Node 6, Type 0, BuildingBlock: MIFKUJ_clean_linker_1, # of connection points: 4
#     Node 7, Type 0, BuildingBlock: MIFKUJ_clean_linker_1, # of connection points: 4
#     Node 8, Type 1, BuildingBlock: VETTIZ_charged_sbu_0, # of connection points: 8
#     Node 9, Type 1, BuildingBlock: VETTIZ_charged_sbu_0, # of connection points: 8
#     Node 10, Type 1, BuildingBlock: VETTIZ_charged_sbu_0, # of connection points: 8
#     Node 11, Type 1, BuildingBlock: VETTIZ_charged_sbu_0, # of connection points: 8
#     Edge 12, Type (0, 1), BuildingBlock: ZUJKAS_clean_linker_0, # of connection points: 2
#     Edge 13, Type (0, 1), BuildingBlock: ZUJKAS_clean_linker_0, # of connection points: 2
#     Edge 14, Type (0, 1), BuildingBlock: ZUJKAS_clean_linker_0, # of connection points: 2
#     Edge 15, Type (0, 1), BuildingBlock: ZUJKAS_clean_linker_0, # of connection points: 2
#     Edge 16, Type (0, 1), BuildingBlock: ZUJKAS_clean_linker_0, # of connection points: 2
#     Edge 17, Type (0, 1), BuildingBlock: ZUJKAS_clean_linker_0, # of connection points: 2
#     Edge 18, Type (0, 1), BuildingBlock: ZUJKAS_clean_linker_0, # of connection points: 2
#     Edge 19, Type (0, 1), BuildingBlock: ZUJKAS_clean_linker_0, # of connection points: 2
#     Edge 20, Type (0, 1), BuildingBlock: ZUJKAS_clean_linker_0, # of connection points: 2
#     Edge 21, Type (0, 1), BuildingBlock: ZUJKAS_clean_linker_0, # of connection points: 2
#     Edge 22, Type (0, 1), BuildingBlock: ZUJKAS_clean_linker_0, # of connection points: 2
#     Edge 23, Type (0, 1), BuildingBlock: ZUJKAS_clean_linker_0, # of connection points: 2
#     Edge 24, Type (0, 1), BuildingBlock: ZUJKAS_clean_linker_0, # of connection points: 2
#     Edge 25, Type (0, 1), BuildingBlock: ZUJKAS_clean_linker_0, # of connection points: 2
#     Edge 26, Type (0, 1), BuildingBlock: ZUJKAS_clean_linker_0, # of connection points: 2
#     Edge 27, Type (0, 1), BuildingBlock: ZUJKAS_clean_linker_0, # of connection points: 2
#     Edge 28, Type (0, 1), BuildingBlock: ZUJKAS_clean_linker_0, # of connection points: 2
#     Edge 29, Type (0, 1), BuildingBlock: ZUJKAS_clean_linker_0, # of connection points: 2
#     Edge 30, Type (0, 1), BuildingBlock: ZUJKAS_clean_linker_0, # of connection points: 2
#     Edge 31, Type (0, 1), BuildingBlock: ZUJKAS_clean_linker_0, # of connection points: 2
#     Edge 32, Type (0, 1), BuildingBlock: ZUJKAS_clean_linker_0, # of connection points: 2
#     Edge 33, Type (0, 1), BuildingBlock: ZUJKAS_clean_linker_0, # of connection points: 2
#     Edge 34, Type (0, 1), BuildingBlock: ZUJKAS_clean_linker_0, # of connection points: 2
#     Edge 35, Type (0, 1), BuildingBlock: ZUJKAS_clean_linker_0, # of connection points: 2
#     Edge 36, Type (0, 1), BuildingBlock: ZUJKAS_clean_linker_0, # of connection points: 2
#     Edge 37, Type (0, 1), BuildingBlock: ZUJKAS_clean_linker_0, # of connection points: 2
#     Edge 38, Type (0, 1), BuildingBlock: ZUJKAS_clean_linker_0, # of connection points: 2
#     Edge 39, Type (0, 1), BuildingBlock: ZUJKAS_clean_linker_0, # of connection points: 2
#     Edge 40, Type (0, 1), BuildingBlock: ZUJKAS_clean_linker_0, # of connection points: 2
#     Edge 41, Type (0, 1), BuildingBlock: ZUJKAS_clean_linker_0, # of connection points: 2
#     Edge 42, Type (0, 1), BuildingBlock: ZUJKAS_clean_linker_0, # of connection points: 2
#     Edge 43, Type (0, 1), BuildingBlock: ZUJKAS_clean_linker_0, # of connection points: 2
# Relax obj value: 0.137
# Max RMSD: 0.270
# Mean RMSD: 0.176
data_MOF--net-sqc--node1-VETTIZ_charged_sbu_0--node2-MIFKUJ_clean_linker_1--edge1-ZUJKAS_clean_linker_0
_symmetry_space_group_name_H-M    P1
_symmetry_Int_Tables_number       1
_symmetry_cell_setting            triclinic
loop_
_symmetry_equiv_pos_as_xyz
'x, y, z'
_cell_length_a     35.145128
_cell_length_b     35.083139
_cell_length_c     101.16509
_cell_angle_alpha  89.774539
_cell_angle_beta   90.060253
_cell_angle_gamma 89.830663
loop_
_atom_site_label
_atom_site_type_symbol
_atom_site_fract_x
_atom_site_fract_y
_atom_site_fract_z
_atom_type_partial_charge
H0 H 0.95198 0.90801 0.50867 0.0
H1 H 0.89262 0.88094 0.50023 0.0
H2 H 0.84428 0.99393 0.49733 0.0
H3 H 0.90402 0.02108 0.5053 0.0
H4 H 1.00023 0.95299 0.49695 0.0
H5 H 0.92265 0.96392 0.53647 0.0
H6 H 0.86602 0.98332 0.54879 0.0
H7 H 0.88809 0.10095 0.53858 0.0
H8 H 0.94497 0.08134 0.5265 0.0
H9 H 0.06279 0.08771 0.52196 0.0
H10 H 0.12437 0.11137 0.5297 0.0
H11 H 0.16428 0.99538 0.53417 0.0
H12 H 0.10243 0.97201 0.52683 0.0
H13 H 0.00983 0.04426 0.53413 0.0
H14 H 0.08639 0.03519 0.49515 0.0
H15 H 0.14177 0.01771 0.48184 0.0
H16 H 0.11961 0.89864 0.4896 0.0
H17 H 0.06479 0.91638 0.50317 0.0
C18 C 0.93241 0.96658 0.50777 0.0
C19 C 0.92859 0.92698 0.50624 0.0
C20 C 0.89471 0.91153 0.50146 0.0
C21 C 0.86389 0.93536 0.49823 0.0
C22 C 0.86743 0.9749 0.49996 0.0
C23 C 0.90154 0.99041 0.50454 0.0
C24 C 0.96928 0.98288 0.51214 0.0
C25 C 1.00239 0.97245 0.50523 0.0
C26 C 0.97187 0.00942 0.52263 0.0
C27 C 0.938 0.02114 0.53048 0.0
C28 C 0.91524 0.99389 0.53689 0.0
C29 C 0.88271 1.00504 0.54388 0.0
C30 C 0.87226 0.04375 0.54468 0.0
C31 C 0.89543 0.07097 0.53836 0.0
C32 C 0.92799 0.0598 0.53141 0.0
C33 C 0.07809 0.02812 0.52373 0.0
C34 C 0.08481 0.06744 0.52465 0.0
C35 C 0.12013 0.08089 0.52895 0.0
C36 C 0.14928 0.05525 0.53251 0.0
C37 C 0.14236 0.01589 0.53161 0.0
C38 C 0.1071 1.00248 0.52731 0.0
C39 C 0.04075 0.0137 0.5191 0.0
C40 C 0.00761 0.02464 0.5259 0.0
C41 C 0.03801 0.98775 0.50846 0.0
C42 C 0.07158 0.97712 0.50028 0.0
C43 C 0.09363 0.00533 0.49407 0.0
C44 C 0.12511 0.99527 0.48636 0.0
C45 C 0.1352 0.95676 0.48466 0.0
C46 C 0.11295 0.92857 0.49084 0.0
C47 C 0.08141 0.93865 0.49852 0.0
H48 H 0.26391 0.80816 0.79653 0.0
H49 H 0.23848 0.86738 0.80573 0.0
H50 H 0.18938 0.89566 0.76773 0.0
H51 H 0.21519 0.83674 0.7586 0.0
H52 H 0.23075 0.74723 0.78609 0.0
H53 H 0.32024 0.83797 0.77192 0.0
H54 H 0.34579 0.89659 0.76236 0.0
H55 H 0.30069 0.86479 0.72421 0.0
H56 H 0.27393 0.80697 0.73395 0.0
H57 H 0.25725 0.69494 0.73401 0.0
H58 H 0.27375 0.63813 0.7214 0.0
H59 H 0.33603 0.59385 0.75499 0.0
H60 H 0.31919 0.65095 0.76763 0.0
H61 H 0.30519 0.74753 0.74448 0.0
H62 H 0.21436 0.65357 0.76146 0.0
H63 H 0.19651 0.59451 0.77274 0.0
H64 H 0.25513 0.63242 0.80788 0.0
H65 H 0.27421 0.69051 0.79635 0.0
C66 C 0.24183 0.81815 0.77684 0.0
C67 C 0.24763 0.82712 0.7902 0.0
C68 C 0.23296 0.86096 0.79545 0.0
C69 C 0.21194 0.8864 0.78746 0.0
C70 C 0.20599 0.87714 0.77411 0.0
C71 C 0.22068 0.84337 0.76887 0.0
C72 C 0.25726 0.78225 0.77119 0.0
C73 C 0.2475 0.74727 0.77709 0.0
C74 C 0.27944 0.78234 0.75952 0.0
C75 C 0.29474 0.81818 0.7537 0.0
C76 C 0.31542 0.84385 0.76153 0.0
C77 C 0.33043 0.87718 0.75601 0.0
C78 C 0.32532 0.88547 0.74251 0.0
C79 C 0.30473 0.85962 0.73468 0.0
C80 C 0.28966 0.82634 0.74021 0.0
C81 C 0.28683 0.67714 0.75178 0.0
C82 C 0.27445 0.67299 0.73867 0.0
C83 C 0.28403 0.64055 0.73145 0.0
C84 C 0.30637 0.61154 0.73716 0.0
C85 C 0.31845 0.61551 0.75036 0.0
C86 C 0.3089 0.64813 0.75758 0.0
C87 C 0.27733 0.71255 0.75906 0.0
C88 C 0.28851 0.74751 0.7535 0.0
C89 C 0.25743 0.71231 0.77124 0.0
C90 C 0.24606 0.67635 0.77799 0.0
C91 C 0.2238 0.64891 0.77153 0.0
C92 C 0.21329 0.61527 0.77805 0.0
C93 C 0.22449 0.6085 0.79123 0.0
C94 C 0.24658 0.63622 0.79767 0.0
C95 C 0.25719 0.66971 0.79113 0.0
H96 H 0.45551 0.05231 0.05499 0.0
H97 H 0.39934 0.02983 0.06699 0.0
H98 H 0.36536 0.9646 0.03285 0.0
H99 H 0.42189 0.98646 0.02104 0.0
H100 H 0.51481 0.01407 0.04548 0.0
H101 H 0.42021 0.09523 0.02775 0.0
H102 H 0.36061 0.11561 0.01746 0.0
H103 H 0.39115 0.05481 0.98192 0.0
H104 H 0.44986 0.0331 0.99248 0.0
H105 H 0.56494 0.02129 0.99183 0.0
H106 H 0.62053 0.03698 0.97835 0.0
H107 H 0.6601 0.11319 0.00881 0.0
H108 H 0.60415 0.0976 0.02222 0.0
H109 H 0.50878 0.07027 1.00046 0.0
H110 H 0.60174 0.98454 0.02046 0.0
H111 H 0.66027 0.96591 0.03184 0.0
H112 H 0.63378 0.04445 0.06339 0.0
H113 H 0.57478 0.06207 0.05208 0.0
C114 C 0.44286 0.02134 0.03707 0.0
C115 C 0.43593 0.0332 0.05009 0.0
C116 C 0.40365 0.02054 0.05691 0.0
C117 C 0.37781 0.9954 0.05089 0.0
C118 C 0.38483 0.98364 0.03783 0.0
C119 C 0.41698 0.99642 0.03101 0.0
C120 C 0.4777 0.03389 0.02992 0.0
C121 C 0.51341 0.02694 0.03572 0.0
C122 C 0.47601 0.05042 0.01713 0.0
C123 C 0.43939 0.06222 0.01096 0.0
C124 C 0.41379 0.08577 0.01781 0.0
C125 C 0.37991 0.09782 0.01185 0.0
C126 C 0.37102 0.08689 0.99885 0.0
C127 C 0.39675 0.06332 0.99201 0.0
C128 C 0.43054 0.05115 0.998 0.0
C129 C 0.58045 0.0581 0.00807 0.0
C130 C 0.58567 0.04126 0.99563 0.0
C131 C 0.61758 0.05007 0.98797 0.0
C132 C 0.64477 0.07631 0.99251 0.0
C133 C 0.63954 0.09308 0.00499 0.0
C134 C 0.60774 0.08398 0.01271 0.0
C135 C 0.54569 0.04955 0.0159 0.0
C136 C 0.51001 0.05748 0.01024 0.0
C137 C 0.54739 0.03455 0.02889 0.0
C138 C 0.58401 0.02483 0.03539 0.0
C139 C 0.60878 0.998 0.02976 0.0
C140 C 0.64234 0.98749 0.03628 0.0
C141 C 0.65186 1.00365 0.04857 0.0
C142 C 0.62714 0.03095 0.05406 0.0
C143 C 0.59349 0.04124 0.04758 0.0
H144 H 0.25602 0.20429 0.28668 0.0
H145 H 0.26962 0.14661 0.29944 0.0
H146 H 0.35232 0.11247 0.27016 0.0
H147 H 0.33823 0.17018 0.25737 0.0
H148 H 0.30187 0.2635 0.27949 0.0
H149 H 0.22896 0.16479 0.25605 0.0
H150 H 0.21974 0.10666 0.24311 0.0
H151 H 0.30048 0.14752 0.2142 0.0
H152 H 0.31 0.20522 0.22729 0.0
H153 H 0.28732 0.32494 0.22592 0.0
H154 H 0.25941 0.38049 0.21464 0.0
H155 H 0.18208 0.39637 0.2473 0.0
H156 H 0.2102 0.34114 0.25857 0.0
H157 H 0.25321 0.25822 0.23349 0.0
H158 H 0.32358 0.35493 0.25268 0.0
H159 H 0.34001 0.4151 0.26319 0.0
H160 H 0.27744 0.38135 0.29805 0.0
H161 H 0.26094 0.321 0.28743 0.0
C162 C 0.29585 0.19152 0.27101 0.0
C163 C 0.27717 0.18443 0.28302 0.0
C164 C 0.28508 0.15143 0.29033 0.0
C165 C 0.3121 0.12476 0.28585 0.0
C166 C 0.33092 0.13201 0.27382 0.0
C167 C 0.32296 0.16509 0.2665 0.0
C168 C 0.28681 0.22668 0.26331 0.0
C169 C 0.29074 0.26231 0.26949 0.0
C170 C 0.27447 0.22542 0.24999 0.0
C171 C 0.27031 0.18918 0.24266 0.0
C172 C 0.24504 0.16094 0.24702 0.0
C173 C 0.2396 0.12791 0.23957 0.0
C174 C 0.25935 0.12257 0.22762 0.0
C175 C 0.28519 0.1506 0.22343 0.0
C176 C 0.29045 0.18368 0.23084 0.0
C177 C 0.25099 0.32904 0.24312 0.0
C178 C 0.26446 0.3405 0.23066 0.0
C179 C 0.24863 0.37228 0.22426 0.0
C180 C 0.21853 0.39265 0.23009 0.0
C181 C 0.20505 0.38103 0.24254 0.0
C182 C 0.22126 0.34967 0.24902 0.0
C183 C 0.26689 0.29477 0.24984 0.0
C184 C 0.26442 0.25944 0.24347 0.0
C185 C 0.28181 0.29645 0.26281 0.0
C186 C 0.29063 0.33352 0.26919 0.0
C187 C 0.31283 0.36068 0.26251 0.0
C188 C 0.32223 0.39514 0.26853 0.0
C189 C 0.30995 0.40312 0.28145 0.0
C190 C 0.28766 0.37593 0.28814 0.0
C191 C 0.27814 0.34145 0.28207 0.0
H192 H 0.72061 0.3381 0.22628 0.0
H193 H 0.7485 0.39351 0.21532 0.0
H194 H 0.81986 0.41275 0.24947 0.0
H195 H 0.79133 0.35755 0.26044 0.0
H196 H 0.75651 0.27403 0.23419 0.0
H197 H 0.68489 0.37435 0.25445 0.0
H198 H 0.67316 0.43284 0.26681 0.0
H199 H 0.72695 0.38253 0.30116 0.0
H200 H 0.74019 0.32483 0.28854 0.0
H201 H 0.72793 0.21175 0.28635 0.0
H202 H 0.70502 0.15254 0.29635 0.0
H203 H 0.63981 0.12903 0.26111 0.0
H204 H 0.66245 0.1885 0.25121 0.0
H205 H 0.69401 0.27476 0.2781 0.0
H206 H 0.76758 0.17581 0.25791 0.0
H207 H 0.78073 0.11745 0.24567 0.0
H208 H 0.72532 0.16567 0.21126 0.0
H209 H 0.7106 0.2232 0.2238 0.0
C210 C 0.75371 0.34383 0.2442 0.0
C211 C 0.74214 0.35439 0.23142 0.0
C212 C 0.75827 0.38595 0.22515 0.0
C213 C 0.7866 0.40748 0.23148 0.0
C214 C 0.7978 0.39711 0.24437 0.0
C215 C 0.78155 0.36553 0.25066 0.0
C216 C 0.73804 0.30891 0.25044 0.0
C217 C 0.74227 0.27424 0.2437 0.0
C218 C 0.72058 0.30922 0.26305 0.0
C219 C 0.71384 0.3452 0.27049 0.0
C220 C 0.69477 0.37613 0.26457 0.0
C221 C 0.68767 0.40948 0.27172 0.0
C222 C 0.69909 0.41256 0.28502 0.0
C223 C 0.71827 0.38153 0.2909 0.0
C224 C 0.72552 0.34828 0.28372 0.0
C225 C 0.69728 0.20443 0.26797 0.0
C226 C 0.70846 0.19401 0.28081 0.0
C227 C 0.69534 0.16017 0.28652 0.0
C228 C 0.67075 0.13602 0.27948 0.0
C229 C 0.65919 0.14673 0.26669 0.0
C230 C 0.67209 0.18074 0.26103 0.0
C231 C 0.71232 0.23985 0.2618 0.0
C232 C 0.70811 0.27457 0.26857 0.0
C233 C 0.73002 0.23965 0.24923 0.0
C234 C 0.73768 0.20381 0.24184 0.0
C235 C 0.7577 0.17358 0.2478 0.0
C236 C 0.7656 0.14034 0.24072 0.0
C237 C 0.75414 0.13675 0.22744 0.0
C238 C 0.73407 0.1671 0.22151 0.0
C239 C 0.72596 0.20024 0.22863 0.0
H240 H 0.657 0.82572 0.75511 0.0
H241 H 0.63803 0.88257 0.74267 0.0
H242 H 0.75644 0.90902 0.73575 0.0
H243 H 0.77509 0.85265 0.74843 0.0
H244 H 0.69521 0.7643 0.74697 0.0
H245 H 0.70994 0.85579 0.78061 0.0
H246 H 0.72949 0.91464 0.79153 0.0
H247 H 0.8474 0.88353 0.786 0.0
H248 H 0.82765 0.82499 0.77484 0.0
H249 H 0.82937 0.70701 0.77197 0.0
H250 H 0.85486 0.64755 0.78105 0.0
H251 H 0.7412 0.61315 0.7921 0.0
H252 H 0.71592 0.67249 0.78279 0.0
H253 H 0.78881 0.76518 0.7837 0.0
H254 H 0.76786 0.66995 0.74985 0.0
H255 H 0.74259 0.61082 0.7408 0.0
H256 H 0.62814 0.65059 0.74836 0.0
H257 H 0.65377 0.70882 0.75803 0.0
C258 C 0.71745 0.83505 0.7528 0.0
C259 C 0.67884 0.84392 0.75097 0.0
C260 C 0.66806 0.87636 0.74378 0.0
C261 C 0.69568 0.90044 0.73815 0.0
C262 C 0.73437 0.89158 0.74011 0.0
C263 C 0.74511 0.85925 0.74735 0.0
C264 C 0.72898 0.79952 0.75981 0.0
C265 C 0.71517 0.76451 0.75516 0.0
C266 C 0.75522 0.79985 0.77043 0.0
C267 C 0.76732 0.83603 0.7768 0.0
C268 C 0.74002 0.86182 0.78161 0.0
C269 C 0.75122 0.89532 0.78795 0.0
C270 C 0.79001 0.90382 0.78963 0.0
C271 C 0.81731 0.87808 0.78473 0.0
C272 C 0.80607 0.84445 0.77844 0.0
C273 C 0.77072 0.69413 0.77662 0.0
C274 C 0.80998 0.6867 0.7764 0.0
C275 C 0.82451 0.65268 0.78162 0.0
C276 C 0.80011 0.6254 0.78729 0.0
C277 C 0.76078 0.63313 0.7876 0.0
C278 C 0.74626 0.66716 0.78235 0.0
C279 C 0.75553 0.72992 0.7707 0.0
C280 C 0.76868 0.76502 0.77556 0.0
C281 C 0.72796 0.72968 0.76046 0.0
C282 C 0.71277 0.69369 0.75481 0.0
C283 C 0.73735 0.66571 0.74974 0.0
C284 C 0.72278 0.63204 0.74441 0.0
C285 C 0.68324 0.6258 0.74383 0.0
C286 C 0.65872 0.65405 0.74883 0.0
C287 C 0.67333 0.68759 0.75424 0.0
H288 H 0.44461 0.40728 0.00374 0.0
H289 H 0.38986 0.38869 0.99027 0.0
H290 H 0.36494 0.50741 0.98259 0.0
H291 H 0.4202 0.52574 0.99575 0.0
H292 H 0.50807 0.44329 0.9974 0.0
H293 H 0.40876 0.46578 0.02885 0.0
H294 H 0.35473 0.49081 0.04138 0.0
H295 H 0.39236 0.60568 0.03325 0.0
H296 H 0.44644 0.58049 0.02087 0.0
H297 H 0.56007 0.57694 0.02437 0.0
H298 H 0.61125 0.60184 0.03814 0.0
H299 H 0.64049 0.48714 0.05021 0.0
H300 H 0.58913 0.4623 0.03629 0.0
H301 H 0.49959 0.53891 0.0332 0.0
H302 H 0.60397 0.51388 0.00424 0.0
H303 H 0.66412 0.48668 0.99662 0.0
H304 H 0.61807 0.37343 1.0011 0.0
H305 H 0.55823 0.40062 0.00917 0.0
C306 C 0.4364 0.46792 1.00087 0.0
C307 C 0.42734 0.42929 0.99916 0.0
C308 C 0.39585 0.41872 0.99153 0.0
C309 C 0.37297 0.44657 0.98536 0.0
C310 C 0.38214 0.48522 0.9871 0.0
C311 C 0.41352 0.49577 0.99475 0.0
C312 C 0.47044 0.4792 0.00867 0.0
C313 C 0.50617 0.46379 0.00537 0.0
C314 C 0.46822 0.50648 0.01888 0.0
C315 C 0.43164 0.5213 0.02398 0.0
C316 C 0.40473 0.49635 0.02945 0.0
C317 C 0.37391 0.51069 0.03663 0.0
C318 C 0.36971 0.55019 0.03848 0.0
C319 C 0.39533 0.57509 0.03223 0.0
C320 C 0.42606 0.56077 0.02508 0.0
C321 C 0.5708 0.51776 0.02926 0.0
C322 C 0.57766 0.5571 0.02991 0.0
C323 C 0.60678 0.57132 0.03786 0.0
C324 C 0.62969 0.54652 0.04539 0.0
C325 C 0.6235 0.50698 0.04446 0.0
C326 C 0.59421 0.49273 0.0365 0.0
C327 C 0.53726 0.50364 0.02181 0.0
C328 C 0.50157 0.51846 0.0252 0.0
C329 C 0.53969 0.47562 0.01181 0.0
C330 C 0.57666 0.45931 0.00748 0.0
C331 C 0.60702 0.48317 0.0039 0.0
C332 C 0.64137 0.46763 0.99952 0.0
C333 C 0.64574 0.42797 0.99835 0.0
C334 C 0.61537 0.4041 1.00189 0.0
C335 C 0.58121 0.41963 0.00646 0.0
H336 H 0.95531 0.51943 0.48145 0.0
H337 H 0.89976 0.53963 0.46858 0.0
H338 H 0.85302 0.59401 0.50321 0.0
H339 H 0.90897 0.57411 0.516 0.0
H340 H 0.00808 0.56268 0.49408 0.0
H341 H 0.91484 0.46982 0.50557 0.0
H342 H 0.85369 0.44674 0.51359 0.0
H343 H 0.87898 0.49209 0.5523 0.0
H344 H 0.93885 0.51739 0.54394 0.0
H345 H 0.05285 0.52511 0.54787 0.0
H346 H 0.10942 0.50535 0.56025 0.0
H347 H 0.1566 0.4563 0.52472 0.0
H348 H 0.1001 0.47638 0.51241 0.0
H349 H 0.99995 0.48486 0.535 0.0
H350 H 0.08962 0.58293 0.52293 0.0
H351 H 0.14808 0.61122 0.51421 0.0
H352 H 0.12987 0.55325 0.47711 0.0
H353 H 0.07129 0.52572 0.48581 0.0
C354 C 0.93624 0.54502 0.49971 0.0
C355 C 0.9331 0.5357 0.48627 0.0
C356 C 0.90118 0.54703 0.47895 0.0
C357 C 0.87188 0.56834 0.48487 0.0
C358 C 0.8752 0.57785 0.49833 0.0
C359 C 0.90703 0.56627 0.50568 0.0
C360 C 0.9705 0.53315 0.50738 0.0
C361 C 0.0063 0.54525 0.50294 0.0
C362 C 0.96811 0.51114 0.51912 0.0
C363 C 0.93125 0.49602 0.52407 0.0
C364 C 0.90692 0.47541 0.51572 0.0
C365 C 0.87209 0.46171 0.52039 0.0
C366 C 0.86112 0.46761 0.53361 0.0
C367 C 0.88595 0.48767 0.542 0.0
C368 C 0.92051 0.50179 0.53727 0.0
C369 C 0.07223 0.50259 0.52917 0.0
C370 C 0.07538 0.51009 0.54275 0.0
C371 C 0.10777 0.49867 0.54982 0.0
C372 C 0.13774 0.47923 0.5435 0.0
C373 C 0.13448 0.47177 0.52988 0.0
C374 C 0.10207 0.48318 0.52282 0.0
C375 C 0.03754 0.5145 0.52169 0.0
C376 C 1.00166 0.50236 0.52616 0.0
C377 C 0.03972 0.53654 0.50997 0.0
C378 C 0.07619 0.55215 0.50502 0.0
C379 C 0.09848 0.57609 0.51296 0.0
C380 C 0.1319 0.59219 0.50797 0.0
C381 C 0.14354 0.58472 0.49493 0.0
C382 C 0.12137 0.56022 0.4871 0.0
C383 C 0.08797 0.54427 0.49208 0.0
Fe384 Fe 0.00889 0.79601 0.17067 0.0
O385 O 0.01168 0.79675 0.15124 0.0
Fe386 Fe 0.96456 0.77519 0.14084 0.0
Fe387 Fe 0.05262 0.77001 0.14117 0.0
O388 O 0.00779 0.79702 0.1512 0.0
O389 O 0.00576 0.74913 0.13068 0.0
O390 O 0.00943 0.749 0.13068 0.0
Fe391 Fe 0.00835 0.7484 0.11134 0.0
C392 C 0.08814 0.82219 0.16281 0.0
O393 O 0.04704 0.75144 0.17304 0.0
O394 O 0.04976 0.72314 0.15343 0.0
O395 O 0.96154 0.71362 0.11376 0.0
O396 O 0.92466 0.74754 0.12857 0.0
O397 O 0.96182 0.72855 0.15313 0.0
O398 O 0.96474 0.75766 0.17254 0.0
O399 O 0.08985 0.73834 0.12922 0.0
O400 O 0.05074 0.70832 0.11416 0.0
C401 C 0.95668 0.72872 0.16555 0.0
O402 O 0.96951 0.79203 0.1089 0.0
O403 O 0.96489 0.82152 0.12833 0.0
O404 O 0.05615 0.82986 0.16866 0.0
O405 O 0.09281 0.79669 0.15358 0.0
C406 C 0.05413 0.72249 0.1659 0.0
C407 C 0.08309 0.71271 0.12021 0.0
C408 C 0.06459 0.81447 0.11635 0.0
O409 O 0.058 0.81627 0.12871 0.0
O410 O 0.05212 0.78723 0.10928 0.0
C411 C 0.92947 0.72118 0.11963 0.0
O412 O 0.92717 0.8071 0.15299 0.0
O413 O 0.96738 0.83669 0.16786 0.0
C414 C 0.95936 0.82041 0.1159 0.0
C415 C 0.93526 0.83367 0.16157 0.0
Fe416 Fe 0.50391 0.76693 0.40288 0.0
O417 O 0.48166 0.73529 0.38853 0.0
Fe418 Fe 0.52232 0.85317 0.3878 0.0
Fe419 Fe 0.48498 0.67955 0.38873 0.0
O420 O 0.52553 0.79739 0.38803 0.0
O421 O 0.5256 0.79728 0.38669 0.0
O422 O 0.48135 0.73538 0.38721 0.0
Fe423 Fe 0.50255 0.7661 0.37219 0.0
C424 C 0.55422 0.69946 0.40608 0.0
O425 O 0.47682 0.7314 0.41673 0.0
O426 O 0.44704 0.68587 0.40407 0.0
O427 O 0.45397 0.79974 0.37156 0.0
O428 O 0.47957 0.85755 0.37413 0.0
O429 O 0.48155 0.85671 0.40273 0.0
O430 O 0.45546 0.79924 0.40303 0.0
O431 O 0.44728 0.68324 0.37304 0.0
O432 O 0.47491 0.72816 0.35922 0.0
C433 C 0.45404 0.83454 0.40561 0.0
O434 O 0.52837 0.8036 0.35859 0.0
O435 O 0.55826 0.84872 0.37165 0.0
O436 O 0.55239 0.73471 0.40336 0.0
O437 O 0.5272 0.67675 0.4032 0.0
C438 C 0.45148 0.70484 0.41496 0.0
C439 C 0.45165 0.69993 0.36161 0.0
C440 C 0.55261 0.69639 0.3703 0.0
O441 O 0.52645 0.67473 0.37463 0.0
O442 O 0.55113 0.73264 0.37118 0.0
C443 C 0.45293 0.83593 0.37019 0.0
O444 O 0.5617 0.84722 0.40276 0.0
O445 O 0.5316 0.80351 0.41616 0.0
C446 C 0.55182 0.832 0.36038 0.0
C447 C 0.55768 0.82903 0.41388 0.0
Fe448 Fe 0.50429 0.25763 0.65244 0.0
O449 O 0.53325 0.28258 0.63789 0.0
Fe450 Fe 0.4193 0.23223 0.6378 0.0
Fe451 Fe 0.58906 0.28353 0.63785 0.0
O452 O 0.47509 0.23341 0.63784 0.0
O453 O 0.47508 0.23344 0.63653 0.0
O454 O 0.53319 0.28268 0.63656 0.0
Fe455 Fe 0.5041 0.25827 0.6218 0.0
C456 C 0.56234 0.31576 0.664 0.0
O457 O 0.54039 0.21205 0.6525 0.0
O458 O 0.59548 0.24259 0.65272 0.0
O459 O 0.46884 0.22895 0.60846 0.0
O460 O 0.42615 0.19638 0.62175 0.0
O461 O 0.42837 0.19363 0.65284 0.0
O462 O 0.47077 0.22642 0.66598 0.0
O463 O 0.59693 0.24156 0.62409 0.0
O464 O 0.54118 0.21222 0.62108 0.0
C465 C 0.44627 0.19916 0.66391 0.0
O466 O 0.46684 0.30434 0.621 0.0
O467 O 0.4113 0.27463 0.62411 0.0
O468 O 0.53807 0.28823 0.66606 0.0
O469 O 0.58009 0.32162 0.65292 0.0
C470 C 0.57546 0.21326 0.65533 0.0
C471 C 0.57739 0.21333 0.62015 0.0
C472 C 0.56584 0.31337 0.61055 0.0
O473 O 0.58222 0.32 0.62186 0.0
O474 O 0.53948 0.28787 0.6085 0.0
C475 C 0.44246 0.2034 0.61045 0.0
O476 O 0.41296 0.27253 0.65272 0.0
O477 O 0.46808 0.3031 0.65276 0.0
C478 C 0.4306 0.30304 0.62012 0.0
C479 C 0.43305 0.30153 0.65562 0.0
Fe480 Fe 0.00597 0.25597 0.90406 0.0
O481 O 0.02737 0.22354 0.88976 0.0
Fe482 Fe 0.98631 0.34145 0.88866 0.0
Fe483 Fe 0.02412 0.16782 0.8904 0.0
O484 O 0.98331 0.28572 0.8892 0.0
O485 O 0.98302 0.28549 0.88785 0.0
O486 O 0.0275 0.22354 0.88843 0.0
Fe487 Fe 0.00525 0.25359 0.87336 0.0
C488 C 0.05946 0.19445 0.91617 0.0
O489 O 0.95762 0.224 0.905 0.0
O490 O 0.98302 0.16606 0.90525 0.0
O491 O 0.97814 0.29069 0.85969 0.0
O492 O 0.94923 0.33628 0.8729 0.0
O493 O 0.94785 0.33629 0.90388 0.0
O494 O 0.97896 0.29323 0.91733 0.0
O495 O 0.9818 0.16243 0.87662 0.0
O496 O 0.95678 0.22015 0.87281 0.0
C497 C 0.95255 0.31859 0.91506 0.0
O498 O 0.05373 0.28688 0.87237 0.0
O499 O 0.02843 0.34508 0.87472 0.0
O500 O 0.03415 0.22117 0.91794 0.0
O501 O 0.06316 0.17473 0.9054 0.0
C502 C 0.9561 0.18904 0.90813 0.0
C503 C 0.95552 0.18385 0.87211 0.0
C504 C 0.05574 0.18662 0.86291 0.0
O505 O 0.06069 0.17049 0.87441 0.0
O506 O 0.03234 0.21487 0.86044 0.0
C507 C 0.95425 0.31875 0.86172 0.0
O508 O 0.02792 0.34556 0.90329 0.0
O509 O 0.05428 0.28809 0.90367 0.0
C510 C 0.05516 0.32302 0.87107 0.0
C511 C 0.05569 0.32346 0.90609 0.0
H512 H 0.18916 0.90198 0.48974 0.0
H513 H 0.24341 0.88376 0.47595 0.0
H514 H 0.21157 0.9691 0.4472 0.0
H515 H 0.15675 0.98695 0.46078 0.0
H516 H 0.22824 0.89701 0.43621 0.0
H517 H 0.34235 0.94461 0.4703 0.0
H518 H 0.30788 0.91335 0.47766 0.0
H519 H 0.29346 0.9598 0.47199 0.0
C520 C 0.19359 0.91678 0.48046 0.0
C521 C 0.16862 0.94601 0.47639 0.0
C522 C 0.22485 0.90659 0.47265 0.0
C523 C 0.23185 0.92543 0.46064 0.0
C524 C 0.20686 0.95439 0.45649 0.0
H525 H 0.43914 0.90826 0.41324 0.0
H526 H 0.38476 0.93147 0.42609 0.0
C527 C 0.17568 0.96471 0.4643 0.0
C528 C 0.26464 0.91425 0.45222 0.0
H529 H 0.3617 0.90793 0.45176 0.0
C530 C 0.25743 0.89955 0.43958 0.0
C531 C 0.30273 0.91799 0.45657 0.0
C532 C 0.31225 0.93511 0.46982 0.0
C533 C 0.28724 0.88766 0.43129 0.0
C534 C 0.32526 0.89023 0.43582 0.0
C535 C 0.33253 0.90576 0.44834 0.0
C536 C 0.35781 0.87631 0.4278 0.0
C537 C 0.27781 0.87271 0.41772 0.0
C538 C 0.36085 0.83757 0.42458 0.0
C539 C 0.39179 0.82422 0.41724 0.0
C540 C 0.42058 0.84932 0.413 0.0
C541 C 0.41749 0.88816 0.41628 0.0
C542 C 0.38646 0.90147 0.42365 0.0
H543 H 0.24891 0.88168 0.41448 0.0
H544 H 0.29885 0.88271 0.41031 0.0
H545 H 0.27863 0.84109 0.41793 0.0
H546 H 0.3395 0.81749 0.42791 0.0
H547 H 0.39329 0.79406 0.41504 0.0
H548 H 0.29234 0.93304 0.72425 0.0
H549 H 0.31955 0.98989 0.714 0.0
H550 H 0.4213 0.97604 0.7374 0.0
H551 H 0.39486 0.91821 0.74738 0.0
H552 H 0.34385 0.05731 0.72577 0.0
H553 H 0.46337 0.98482 0.69985 0.0
H554 H 0.42399 0.95883 0.70689 0.0
H555 H 0.46075 0.97726 0.71741 0.0
C556 C 0.3207 0.94176 0.72712 0.0
C557 C 0.34151 0.92081 0.73657 0.0
C558 C 0.3361 0.97446 0.72132 0.0
C559 C 0.37266 0.98695 0.7248 0.0
C560 C 0.39331 0.96658 0.7344 0.0
H561 H 0.49144 0.17786 0.68496 0.0
H562 H 0.47689 0.12952 0.70193 0.0
C563 C 0.37794 0.93376 0.7402 0.0
C564 C 0.3887 0.02138 0.71833 0.0
H565 H 0.45726 0.05098 0.69669 0.0
C566 C 0.36888 0.05599 0.71952 0.0
C567 C 0.42161 0.01976 0.71028 0.0
C568 C 0.44362 0.98318 0.70841 0.0
C569 C 0.38024 0.08863 0.71252 0.0
C570 C 0.41194 0.08649 0.70396 0.0
C571 C 0.43299 0.0525 0.70328 0.0
C572 C 0.42055 0.11743 0.69441 0.0
C573 C 0.35768 0.12497 0.71412 0.0
C574 C 0.39385 0.12636 0.68457 0.0
C575 C 0.40209 0.1535 0.67491 0.0
C576 C 0.43729 0.17247 0.67485 0.0
C577 C 0.46392 0.16402 0.68484 0.0
C578 C 0.45573 0.13636 0.69449 0.0
H579 H 0.34256 0.12563 0.72375 0.0
H580 H 0.37633 0.15039 0.71338 0.0
H581 H 0.33599 0.12682 0.70616 0.0
H582 H 0.36683 0.11161 0.68417 0.0
H583 H 0.38089 0.15935 0.66738 0.0
H584 H 0.33797 0.15774 1.0003 0.0
H585 H 0.27997 0.18001 0.98928 0.0
H586 H 0.2667 0.06983 0.97113 0.0
H587 H 0.32354 0.04682 0.98254 0.0
H588 H 0.26575 0.18592 0.96302 0.0
H589 H 0.16136 0.08789 0.98567 0.0
H590 H 0.20873 0.09392 0.99223 0.0
H591 H 0.20052 0.06257 0.97847 0.0
C592 C 0.32229 0.13799 0.99417 0.0
C593 C 0.33538 0.10039 0.99236 0.0
C594 C 0.28929 0.15087 0.98781 0.0
C595 C 0.2686 0.12642 0.97956 0.0
C596 C 0.28165 0.08897 0.97769 0.0
H597 H 0.10136 0.12973 0.91976 0.0
H598 H 0.14964 0.11723 0.93656 0.0
C599 C 0.31452 0.07601 0.98408 0.0
C600 C 0.23452 0.14043 0.97233 0.0
H601 H 0.14203 0.11854 0.96539 0.0
C602 C 0.23849 0.17166 0.96371 0.0
C603 C 0.19887 0.12197 0.97332 0.0
C604 C 0.19196 0.09 0.98303 0.0
C605 C 0.2084 0.18348 0.95549 0.0
C606 C 0.17346 0.16368 0.956 0.0
C607 C 0.16896 0.13353 0.965 0.0
C608 C 0.14258 0.17139 0.94639 0.0
C609 C 0.21471 0.21583 0.94587 0.0
C610 C 0.12213 0.20582 0.94651 0.0
C611 C 0.09423 0.21307 0.93692 0.0
C612 C 0.08659 0.18604 0.92702 0.0
C613 C 0.10666 0.15129 0.92716 0.0
C614 C 0.13421 0.144 0.93678 0.0
H615 H 0.24496 0.22486 0.94551 0.0
H616 H 0.20564 0.20739 0.93577 0.0
H617 H 0.19718 0.24071 0.94885 0.0
H618 H 0.12801 0.22717 0.95394 0.0
H619 H 0.07942 0.24019 0.93704 0.0
H620 H 0.31092 0.07723 0.21469 0.0
H621 H 0.29744 0.02277 0.20025 0.0
H622 H 0.1773 0.03735 0.20727 0.0
H623 H 0.1904 0.09184 0.22151 0.0
H624 H 0.25678 0.95406 0.20694 0.0
H625 H 0.18716 0.03454 0.16637 0.0
H626 H 0.2175 0.05698 0.17848 0.0
H627 H 0.16871 0.04648 0.18238 0.0
C628 C 0.28163 0.06892 0.21307 0.0
C629 C 0.2517 0.08881 0.21923 0.0
C630 C 0.27402 0.03782 0.20486 0.0
C631 C 0.23637 0.02652 0.20253 0.0
C632 C 0.20653 0.04607 0.20876 0.0
H633 H 0.10285 0.84279 0.18793 0.0
H634 H 0.15029 0.88786 0.19565 0.0
C635 C 0.21409 0.07691 0.21702 0.0
C636 C 0.22775 0.99347 0.194 0.0
H637 H 0.17214 0.96761 0.1679 0.0
C638 C 0.23903 0.957 0.19821 0.0
C639 C 0.20529 0.99739 0.18246 0.0
C640 C 0.19426 0.03601 0.17706 0.0
C641 C 0.22556 0.92419 0.19185 0.0
C642 C 0.20004 0.92812 0.18111 0.0
C643 C 0.19157 0.96461 0.17618 0.0
C644 C 0.17651 0.89584 0.1765 0.0
C645 C 0.23728 0.88559 0.19706 0.0
C646 C 0.1757 0.88495 0.16314 0.0
C647 C 0.14854 0.85869 0.15868 0.0
C648 C 0.12129 0.84406 0.16748 0.0
C649 C 0.12336 0.85385 0.18091 0.0
C650 C 0.1507 0.87936 0.18537 0.0
H651 H 0.26574 0.88676 0.20184 0.0
H652 H 0.21648 0.87616 0.20464 0.0
H653 H 0.23796 0.86404 0.18905 0.0
H654 H 0.19518 0.8977 0.15612 0.0
H655 H 0.1475 0.85156 0.14828 0.0
H656 H 0.19155 0.11521 0.52314 0.0
H657 H 0.25172 0.13947 0.532 0.0
H658 H 0.25062 0.05193 0.56204 0.0
H659 H 0.19073 0.02766 0.55331 0.0
H660 H 0.2643 0.16757 0.55666 0.0
H661 H 0.35872 0.04373 0.54843 0.0
H662 H 0.31313 0.0487 0.54033 0.0
H663 H 0.31606 0.03043 0.55697 0.0
C664 C 0.20423 0.10108 0.53161 0.0
C665 C 0.18643 0.06939 0.53749 0.0
C666 C 0.2387 0.11481 0.5366 0.0
C667 C 0.25609 0.09701 0.5475 0.0
C668 C 0.23838 0.0654 0.55337 0.0
H669 H 0.40435 0.13588 0.61022 0.0
H670 H 0.36531 0.11068 0.59236 0.0
C671 C 0.20403 0.05162 0.54839 0.0
C672 C 0.29104 0.1131 0.55349 0.0
H673 H 0.37885 0.08823 0.56523 0.0
C674 C 0.28972 0.15058 0.55827 0.0
C675 C 0.32423 0.0909 0.55553 0.0
C676 C 0.32832 0.05134 0.54992 0.0
C677 C 0.31962 0.16554 0.56584 0.0
C678 C 0.35188 0.14252 0.56852 0.0
C679 C 0.35407 0.10577 0.56316 0.0
C680 C 0.38097 0.15438 0.57826 0.0
C681 C 0.31542 0.20496 0.57161 0.0
C682 C 0.40411 0.18632 0.57603 0.0
C683 C 0.42665 0.20084 0.58626 0.0
C684 C 0.42612 0.18367 0.59885 0.0
C685 C 0.40508 0.15002 0.60068 0.0
C686 C 0.38281 0.13549 0.59047 0.0
H687 H 0.28639 0.21686 0.57011 0.0
H688 H 0.3217 0.20449 0.58237 0.0
H689 H 0.33608 0.22444 0.5668 0.0
H690 H 0.40341 0.20098 0.56659 0.0
H691 H 0.44251 0.2268 0.58453 0.0
H692 H 0.2083 0.95731 0.7759 0.0
H693 H 0.18095 0.0157 0.7851 0.0
H694 H 0.15271 0.95528 0.82095 0.0
H695 H 0.17864 0.89652 0.81167 0.0
H696 H 0.09365 1.0011 0.81156 0.0
H697 H 0.22974 0.08139 0.8138 0.0
H698 H 0.21712 0.06282 0.79786 0.0
H699 H 0.22814 0.03058 0.81117 0.0
C700 C 0.19599 0.95634 0.78571 0.0
C701 C 0.19585 0.92218 0.79307 0.0
C702 C 0.18072 0.98987 0.79099 0.0
C703 C 0.16524 0.98997 0.80377 0.0
C704 C 0.16469 0.95589 0.81108 0.0
H705 H 0.12265 0.14776 0.8639 0.0
H706 H 0.14864 0.10543 0.84715 0.0
C707 C 0.17986 0.92238 0.80581 0.0
C708 C 0.14952 0.02538 0.80965 0.0
H709 H 0.17479 0.11297 0.82133 0.0
C710 C 0.11122 0.02578 0.81357 0.0
C711 C 0.17261 0.05745 0.81228 0.0
C712 C 0.21426 0.05816 0.80867 0.0
C713 C 0.09568 0.0568 0.82046 0.0
C714 C 0.11897 0.0886 0.82332 0.0
C715 C 0.15692 0.08875 0.81899 0.0
C716 C 0.10611 0.11916 0.83239 0.0
C717 C 0.05509 0.05435 0.82528 0.0
C718 C 0.0745 0.14237 0.82946 0.0
C719 C 0.05947 0.16681 0.83908 0.0
C720 C 0.07585 0.16822 0.85177 0.0
C721 C 0.10912 0.14703 0.85428 0.0
C722 C 0.1241 0.12285 0.84469 0.0
H723 H 0.04313 0.02526 0.82415 0.0
H724 H 0.0532 0.06254 0.83585 0.0
H725 H 0.03707 0.07439 0.8195 0.0
H726 H 0.06058 0.14043 0.81993 0.0
H727 H 0.03377 0.18272 0.83686 0.0
H728 H 0.35018 0.92256 0.0515 0.0
H729 H 0.29472 0.89859 0.0635 0.0
H730 H 0.27413 0.01078 0.07923 0.0
H731 H 0.32929 0.03521 0.06706 0.0
H732 H 0.28143 0.90112 0.09152 0.0
H733 H 0.17046 0.97872 0.06273 0.0
H734 H 0.21838 0.97223 0.05669 0.0
H735 H 0.20871 0.00706 0.0692 0.0
C736 C 0.33364 0.94227 0.0574 0.0
C737 C 0.34408 0.98088 0.05825 0.0
C738 C 0.3021 0.92846 0.06432 0.0
C739 C 0.28009 0.95296 0.07216 0.0
C740 C 0.29046 0.99147 0.07311 0.0
H741 H 0.10934 0.86805 0.12861 0.0
H742 H 0.16061 0.90568 0.11864 0.0
C743 C 0.32217 0.0053 0.06624 0.0
C744 C 0.24662 0.93786 0.07943 0.0
H745 H 0.14945 0.94091 0.08062 0.0
C746 C 0.25258 0.91002 0.08922 0.0
C747 C 0.20902 0.94933 0.07632 0.0
C748 C 0.20097 0.97827 0.0656 0.0
C749 C 0.22192 0.89306 0.09592 0.0
C750 C 0.1843 0.90449 0.09281 0.0
C751 C 0.17833 0.93255 0.08308 0.0
C752 C 0.15083 0.88525 0.09877 0.0
C753 C 0.2299 0.86206 0.10594 0.0
C754 C 0.12742 0.86249 0.09084 0.0
C755 C 0.09825 0.84092 0.0965 0.0
C756 C 0.09166 0.84181 0.11022 0.0
C757 C 0.1138 0.86639 0.11804 0.0
C758 C 0.14322 0.88782 0.11237 0.0
H759 H 0.25991 0.85207 0.10555 0.0
H760 H 0.22431 0.87314 0.11601 0.0
H761 H 0.21087 0.8373 0.1043 0.0
H762 H 0.13267 0.86025 0.08032 0.0
H763 H 0.08165 0.82259 0.09013 0.0
H764 H 0.32564 0.05191 0.27698 0.0
H765 H 0.3402 0.99497 0.29018 0.0
H766 H 0.33293 0.06146 0.32583 0.0
H767 H 0.31885 0.11844 0.31277 0.0
H768 H 0.40072 0.9825 0.30748 0.0
H769 H 0.26376 0.97114 0.33418 0.0
H770 H 0.26951 1.0004 0.3196 0.0
H771 H 0.2849 0.01749 0.33547 0.0
C772 C 0.32728 0.05448 0.28763 0.0
C773 C 0.32081 0.08984 0.2938 0.0
C774 C 0.33536 0.02182 0.29516 0.0
C775 C 0.33688 0.02374 0.30901 0.0
C776 C 0.33085 0.05901 0.31519 0.0
H777 H 0.41738 0.90256 0.37541 0.0
H778 H 0.38333 0.94287 0.35956 0.0
C779 C 0.32282 0.09163 0.30768 0.0
C780 C 0.34651 0.98942 0.31705 0.0
H781 H 0.31623 0.93575 0.34327 0.0
C782 C 0.38199 0.97178 0.31514 0.0
C783 C 0.322 0.97542 0.32704 0.0
C784 C 0.28275 0.99184 0.32913 0.0
C785 C 0.39447 0.94195 0.32342 0.0
C786 C 0.3705 0.92892 0.33373 0.0
C787 C 0.33447 0.94562 0.33533 0.0
C788 C 0.38429 0.90129 0.34384 0.0
C789 C 0.43405 0.92601 0.32153 0.0
C790 C 0.39424 0.86368 0.3405 0.0
C791 C 0.41334 0.84029 0.34965 0.0
C792 C 0.42289 0.85442 0.3622 0.0
C793 C 0.41021 0.89095 0.36581 0.0
C794 C 0.39089 0.91406 0.35675 0.0
H795 H 0.45108 0.94325 0.31447 0.0
H796 H 0.44944 0.92471 0.33112 0.0
H797 H 0.43208 0.89655 0.31764 0.0
H798 H 0.38899 0.85314 0.33062 0.0
H799 H 0.42328 0.81246 0.34656 0.0
H800 H 0.86269 0.10689 0.56029 0.0
H801 H 0.80558 0.12702 0.57214 0.0
H802 H 0.74588 0.02808 0.55801 0.0
H803 H 0.80269 0.00801 0.54585 0.0
H804 H 0.7308 0.14174 0.56134 0.0
H805 H 0.73136 0.02551 0.59896 0.0
H806 H 0.77288 0.03726 0.58928 0.0
H807 H 0.73437 0.01144 0.58191 0.0
C808 C 0.83738 0.0895 0.55957 0.0
C809 C 0.83746 0.05575 0.55208 0.0
C810 C 0.80478 0.10099 0.56642 0.0
C811 C 0.77158 0.07889 0.56606 0.0
C812 C 0.77137 0.04526 0.5586 0.0
H813 H 0.55701 0.17451 0.59772 0.0
H814 H 0.5996 0.13573 0.58384 0.0
C815 C 0.80397 0.03378 0.55168 0.0
C816 C 0.73724 0.09156 0.57343 0.0
H817 H 0.68231 0.07121 0.60042 0.0
C818 C 0.71985 0.1261 0.56978 0.0
C819 C 0.72318 0.07116 0.58448 0.0
C820 C 0.74142 0.03439 0.58901 0.0
C821 C 0.68933 0.14126 0.57706 0.0
C822 C 0.67565 0.12118 0.58824 0.0
C823 C 0.69251 0.08624 0.59174 0.0
C824 C 0.64736 0.1386 0.59732 0.0
C825 C 0.6731 0.17954 0.57313 0.0
C826 C 0.65954 0.15145 0.60972 0.0
C827 C 0.63547 0.1735 0.61757 0.0
C828 C 0.59851 0.18277 0.61328 0.0
C829 C 0.58523 0.16748 0.60131 0.0
C830 C 0.60962 0.14567 0.59334 0.0
H831 H 0.69012 0.19362 0.56526 0.0
H832 H 0.64366 0.17575 0.5694 0.0
H833 H 0.67178 0.19873 0.58182 0.0
H834 H 0.68846 0.14626 0.613 0.0
H835 H 0.6464 0.18487 0.62677 0.0
H836 H 0.66597 0.06569 0.26793 0.0
H837 H 0.64435 0.00591 0.27807 0.0
H838 H 0.62423 0.06467 0.31477 0.0
H839 H 0.64521 0.12448 0.30469 0.0
H840 H 0.67541 0.96909 0.30099 0.0
H841 H 0.52348 0.00727 0.30759 0.0
H842 H 0.55451 0.03272 0.29641 0.0
H843 H 0.55571 0.04252 0.31384 0.0
C844 C 0.65649 0.06592 0.27811 0.0
C845 C 0.6572 0.09982 0.28551 0.0
C846 C 0.64435 0.03175 0.2839 0.0
C847 C 0.63223 0.03101 0.2971 0.0
C848 C 0.6329 0.06477 0.30449 0.0
H849 H 0.6174 0.87305 0.35929 0.0
H850 H 0.63805 0.91498 0.34144 0.0
C851 C 0.64525 0.09883 0.29876 0.0
C852 C 0.62016 0.99483 0.30341 0.0
H853 H 0.54658 0.95435 0.32031 0.0
C854 C 0.64708 0.96555 0.30504 0.0
C855 C 0.583 0.99 0.30848 0.0
C856 C 0.55235 0.01963 0.3064 0.0
C857 C 0.63846 0.93251 0.31233 0.0
C858 C 0.60213 0.92894 0.3182 0.0
C859 C 0.57452 0.95719 0.31587 0.0
C860 C 0.59332 0.89847 0.32792 0.0
C861 C 0.66855 0.90209 0.31389 0.0
C862 C 0.56157 0.87476 0.32621 0.0
C863 C 0.54969 0.85057 0.33644 0.0
C864 C 0.56902 0.85028 0.34862 0.0
C865 C 0.60193 0.8726 0.35003 0.0
C866 C 0.61393 0.89644 0.33979 0.0
H867 H 0.68907 0.90271 0.30554 0.0
H868 H 0.68472 0.90726 0.32314 0.0
H869 H 0.65569 0.87326 0.3145 0.0
H870 H 0.54507 0.87616 0.31717 0.0
H871 H 0.52396 0.83409 0.33511 0.0
H872 H 0.66064 0.99227 0.07526 0.0
H873 H 0.71701 0.96915 0.087 0.0
H874 H 0.77796 0.96187 0.05015 0.0
H875 H 0.72212 0.98614 0.03831 0.0
H876 H 0.77588 0.8928 0.06717 0.0
H877 H 0.82262 0.0233 0.09364 0.0
H878 H 0.77279 0.01179 0.09439 0.0
H879 H 0.7936 0.0252 0.07888 0.0
C880 C 0.68624 0.98662 0.06965 0.0
C881 C 0.68673 0.99115 0.0558 0.0
C882 C 0.71842 0.97332 0.07639 0.0
C883 C 0.75169 0.96421 0.06945 0.0
C884 C 0.75253 0.96894 0.05568 0.0
H885 H 0.95754 0.84039 0.08987 0.0
H886 H 0.90934 0.87915 0.07868 0.0
C887 C 0.72046 0.98251 0.04893 0.0
C888 C 0.78468 0.94714 0.07643 0.0
H889 H 0.85469 0.96576 0.09893 0.0
C890 C 0.79331 0.90876 0.07405 0.0
C891 C 0.8069 0.968 0.08551 0.0
C892 C 0.79884 0.00945 0.08826 0.0
C893 C 0.82335 0.89041 0.08065 0.0
C894 C 0.84618 0.91141 0.08958 0.0
C895 C 0.8374 0.94982 0.09201 0.0
C896 C 0.87885 0.89349 0.09656 0.0
C897 C 0.82957 0.84837 0.07829 0.0
C898 C 0.87929 0.89097 0.11042 0.0
C899 C 0.90731 0.86939 0.11689 0.0
C900 C 0.93515 0.84983 0.10956 0.0
C901 C 0.93617 0.85473 0.09577 0.0
C902 C 0.9085 0.87665 0.08935 0.0
H903 H 0.80368 0.83454 0.07424 0.0
H904 H 0.85282 0.84457 0.071 0.0
H905 H 0.83777 0.83341 0.08757 0.0
H906 H 0.85685 0.90406 0.11619 0.0
H907 H 0.90571 0.86611 0.12753 0.0
H908 H 0.76026 0.93298 0.81247 0.0
H909 H 0.78188 0.98851 0.82486 0.0
H910 H 0.86844 0.0094 0.79554 0.0
H911 H 0.84715 0.95356 0.78315 0.0
H912 H 0.89755 0.01098 0.81975 0.0
H913 H 0.76838 0.10139 0.81915 0.0
H914 H 0.75877 0.05441 0.82532 0.0
H915 H 0.77397 0.06066 0.80846 0.0
C916 C 0.78346 0.94979 0.80852 0.0
C917 C 0.80194 0.93884 0.7968 0.0
C918 C 0.79569 0.98169 0.8156 0.0
C919 C 0.82635 1.00368 0.81103 0.0
C920 C 0.84458 0.99306 0.79924 0.0
H921 H 0.92149 0.20815 0.84912 0.0
H922 H 0.88626 0.16767 0.83352 0.0
C923 C 0.83252 0.961 0.7922 0.0
C924 C 0.84138 0.03569 0.8191 0.0
H925 H 0.8156 0.11681 0.83558 0.0
C926 C 0.87968 0.03434 0.82305 0.0
C927 C 0.81829 0.06656 0.82331 0.0
C928 C 0.77768 0.07112 0.81872 0.0
C929 C 0.89504 0.06196 0.83149 0.0
C930 C 0.87134 0.09141 0.83634 0.0
C931 C 0.83352 0.09387 0.83199 0.0
C932 C 0.88544 0.11841 0.84645 0.0
C933 C 0.93651 0.05914 0.83531 0.0
C934 C 0.89472 0.1047 0.85908 0.0
C935 C 0.91464 0.12759 0.86793 0.0
C936 C 0.92545 0.16478 0.86437 0.0
C937 C 0.91318 0.17974 0.85217 0.0
C938 C 0.89332 0.15658 0.84323 0.0
H939 H 0.9528 0.0408 0.82838 0.0
H940 H 0.94985 0.08779 0.83554 0.0
H941 H 0.93884 0.0465 0.84535 0.0
H942 H 0.88846 0.07549 0.86181 0.0
H943 H 0.9236 0.11539 0.8773 0.0
H944 H 0.85912 0.88619 0.47759 0.0
H945 H 0.80164 0.86454 0.46628 0.0
H946 H 0.73243 0.92581 0.49434 0.0
H947 H 0.7901 0.94868 0.5054 0.0
H948 H 0.74022 0.82375 0.47302 0.0
H949 H 0.69671 0.97173 0.46014 0.0
H950 H 0.74242 0.96077 0.4673 0.0
H951 H 0.70067 0.96296 0.47756 0.0
C952 C 0.83161 0.8947 0.48141 0.0
C953 C 0.82896 0.91938 0.49227 0.0
C954 C 0.7988 0.88233 0.47496 0.0
C955 C 0.76273 0.89415 0.4793 0.0
C956 C 0.75997 0.91718 0.49059 0.0
H957 H 0.55855 0.80229 0.43954 0.0
H958 H 0.60528 0.81669 0.45679 0.0
C959 C 0.79284 0.93009 0.49693 0.0
C960 C 0.72848 0.88391 0.47151 0.0
H961 H 0.65627 0.92249 0.45322 0.0
C962 C 0.72165 0.84529 0.46876 0.0
C963 C 0.70455 0.91212 0.46585 0.0
C964 C 0.71156 0.95421 0.46774 0.0
C965 C 0.69222 0.83417 0.46021 0.0
C966 C 0.66839 0.86244 0.45456 0.0
C967 C 0.67446 0.9009 0.45765 0.0
C968 C 0.63951 0.85342 0.44437 0.0
C969 C 0.68808 0.79253 0.45678 0.0
C970 C 0.64276 0.86997 0.43179 0.0
C971 C 0.61598 0.86231 0.42201 0.0
C972 C 0.58522 0.83777 0.42456 0.0
C973 C 0.58187 0.82127 0.43722 0.0
C974 C 0.6087 0.82922 0.44707 0.0
H975 H 0.71352 0.77564 0.45974 0.0
H976 H 0.66307 0.78066 0.46205 0.0
H977 H 0.68339 0.78886 0.44601 0.0
H978 H 0.66632 0.88872 0.4295 0.0
H979 H 0.61973 0.87545 0.4124 0.0
H980 H 0.82057 0.0957 0.22824 0.0
H981 H 0.83798 0.04015 0.21509 0.0
H982 H 0.72899 0.04407 0.19556 0.0
H983 H 0.71077 0.09928 0.20894 0.0
H984 H 0.79727 0.96688 0.21249 0.0
H985 H 0.81152 0.0484 0.16536 0.0
H986 H 0.81228 0.07155 0.18127 0.0
H987 H 0.76831 0.05396 0.17472 0.0
C988 C 0.79995 0.08449 0.22133 0.0
C989 C 0.76422 0.10211 0.21967 0.0
C990 C 0.81007 0.05282 0.21376 0.0
C991 C 0.78488 0.03821 0.2043 0.0
C992 C 0.749 0.05522 0.20271 0.0
H993 H 0.85746 0.82569 0.1637 0.0
H994 H 0.81247 0.8734 0.17248 0.0
C995 C 0.73873 0.08687 0.21033 0.0
C996 C 0.79697 0.00568 0.19598 0.0
H997 H 0.83006 0.98406 0.16516 0.0
C998 C 0.80372 0.9703 0.20207 0.0
C999 C 0.80546 0.01043 0.18241 0.0
C1000 C 0.79929 0.04811 0.17548 0.0
C1001 C 0.82026 0.93996 0.19508 0.0
C1002 C 0.83018 0.9452 0.18166 0.0
C1003 C 0.82195 0.98006 0.17541 0.0
C1004 C 0.85495 0.91747 0.17473 0.0
C1005 C 0.82926 0.9033 0.20229 0.0
C1006 C 0.89318 0.92694 0.17273 0.0
C1007 C 0.91865 0.89995 0.16787 0.0
C1008 C 0.9064 0.86295 0.16476 0.0
C1009 C 0.86759 0.85403 0.166 0.0
C1010 C 0.842 0.88112 0.17106 0.0
H1011 H 0.82212 0.9048 0.21298 0.0
H1012 H 0.81288 0.87962 0.19782 0.0
H1013 H 0.85997 0.89636 0.20129 0.0
H1014 H 0.90372 0.95481 0.17547 0.0
H1015 H 0.94833 0.90778 0.16688 0.0
H1016 H 0.67345 0.14749 0.98766 0.0
H1017 H 0.72635 0.16482 0.97312 0.0
H1018 H 0.74433 0.04616 0.96396 0.0
H1019 H 0.69106 0.02874 0.97831 0.0
H1020 H 0.80073 0.14683 0.97378 0.0
H1021 H 0.73802 0.09128 0.92742 0.0
H1022 H 0.71078 0.09617 0.94242 0.0
H1023 H 0.74179 0.05579 0.94017 0.0
C1024 C 0.68879 0.12507 0.98259 0.0
C1025 C 0.67788 0.08675 0.98407 0.0
C1026 C 0.71894 0.13502 0.97424 0.0
C1027 C 0.73889 0.1069 0.96721 0.0
C1028 C 0.7287 0.06851 0.96895 0.0
H1029 H 0.93706 0.11562 0.91509 0.0
H1030 H 0.88472 0.09513 0.92948 0.0
C1031 C 0.69833 0.05856 0.9772 0.0
C1032 C 0.77071 0.11777 0.95824 0.0
H1033 H 0.80266 0.11087 0.9264 0.0
C1034 C 0.80103 0.13907 0.96342 0.0
C1035 C 0.77116 0.10772 0.94468 0.0
C1036 C 0.73853 0.08681 0.9383 0.0
C1037 C 0.83189 0.15017 0.95547 0.0
C1038 C 0.83239 0.1399 0.94197 0.0
C1039 C 0.80228 0.11846 0.93679 0.0
C1040 C 0.8635 0.15212 0.933 0.0
C1041 C 0.86404 0.17237 0.96161 0.0
C1042 C 0.8684 0.19085 0.93001 0.0
C1043 C 0.89802 0.20262 0.92176 0.0
C1044 C 0.9235 0.17588 0.9163 0.0
C1045 C 0.9181 0.13697 0.91914 0.0
C1046 C 0.88821 0.1252 0.92736 0.0
H1047 H 0.86312 0.17143 0.97258 0.0
H1048 H 0.89197 0.16113 0.95825 0.0
H1049 H 0.86201 0.20261 0.95844 0.0
H1050 H 0.84933 0.21205 0.9341 0.0
H1051 H 0.90122 0.23284 0.91983 0.0
H1052 H 0.72897 0.97123 0.73708 0.0
H1053 H 0.71099 0.02546 0.72308 0.0
H1054 H 0.61849 0.96032 0.70678 0.0
H1055 H 0.63672 0.90566 0.72044 0.0
H1056 H 0.70406 0.02632 0.69421 0.0
H1057 H 0.56875 0.06156 0.71984 0.0
H1058 H 0.60556 0.03279 0.72741 0.0
H1059 H 0.57443 0.01242 0.71527 0.0
C1060 C 0.70495 0.96828 0.73046 0.0
C1061 C 0.68423 0.934 0.72995 0.0
C1062 C 0.69462 0.99939 0.72252 0.0
C1063 C 0.66318 0.99701 0.71402 0.0
C1064 C 0.64247 0.96294 0.71345 0.0
H1065 H 0.54355 0.14358 0.65969 0.0
H1066 H 0.56753 0.0919 0.67354 0.0
C1067 C 0.65286 0.93177 0.72132 0.0
C1068 C 0.65236 0.02983 0.70552 0.0
H1069 H 0.58069 0.09349 0.69961 0.0
C1070 C 0.67723 0.04126 0.69542 0.0
C1071 C 0.6173 0.04909 0.70713 0.0
C1072 C 0.59001 0.03865 0.71806 0.0
C1073 C 0.66742 0.07076 0.68659 0.0
C1074 C 0.6322 0.08992 0.68814 0.0
C1075 C 0.60765 0.07879 0.6984 0.0
C1076 C 0.61947 0.1208 0.67904 0.0
C1077 C 0.69425 0.08013 0.67541 0.0
C1078 C 0.64082 0.15431 0.67739 0.0
C1079 C 0.62731 0.18398 0.66932 0.0
C1080 C 0.59193 0.18087 0.66291 0.0
C1081 C 0.57092 0.14705 0.66447 0.0
C1082 C 0.58454 0.11742 0.67243 0.0
H1083 H 0.71448 0.0564 0.67348 0.0
H1084 H 0.67837 0.08648 0.66616 0.0
H1085 H 0.71112 0.10566 0.67806 0.0
H1086 H 0.66745 0.15797 0.68262 0.0
H1087 H 0.64403 0.20975 0.66844 0.0
H1088 H 0.71908 0.44393 0.00536 0.0
H1089 H 0.77745 0.42089 0.99476 0.0
H1090 H 0.71026 0.3538 0.96781 0.0
H1091 H 0.65207 0.37575 0.97865 0.0
H1092 H 0.77353 0.31574 0.97546 0.0
H1093 H 0.81094 0.46286 0.95965 0.0
H1094 H 0.80725 0.45662 0.97721 0.0
H1095 H 0.76567 0.45148 0.96699 0.0
C1096 C 0.71691 0.42404 0.99724 0.0
C1097 C 0.68114 0.41182 0.99274 0.0
C1098 C 0.7502 0.411 0.99117 0.0
C1099 C 0.74818 0.38627 0.98031 0.0
C1100 C 0.71251 0.37291 0.97616 0.0
H1101 H 0.8887 0.36269 0.91335 0.0
H1102 H 0.84273 0.37666 0.93055 0.0
C1103 C 0.67929 0.38546 0.98235 0.0
C1104 C 0.78273 0.37591 0.9727 0.0
H1105 H 0.85283 0.4139 0.95346 0.0
C1106 C 0.7911 0.33716 0.97072 0.0
C1107 C 0.8054 0.40396 0.96645 0.0
C1108 C 0.79676 0.44603 0.96755 0.0
C1109 C 0.82078 0.32567 0.96231 0.0
C1110 C 0.84319 0.35378 0.956 0.0
C1111 C 0.83569 0.39245 0.95838 0.0
C1112 C 0.87176 0.34417 0.94576 0.0
C1113 C 0.82668 0.28369 0.95979 0.0
C1114 C 0.90359 0.32125 0.94859 0.0
C1115 C 0.93008 0.31285 0.93866 0.0
C1116 C 0.92536 0.32769 0.92581 0.0
C1117 C 0.89355 0.35091 0.92312 0.0
C1118 C 0.86711 0.35896 0.93297 0.0
H1119 H 0.80211 0.26637 0.96318 0.0
H1120 H 0.83131 0.27822 0.94911 0.0
H1121 H 0.85231 0.27382 0.96523 0.0
H1122 H 0.9081 0.3101 0.95846 0.0
H1123 H 0.95425 0.29492 0.94109 0.0
H1124 H 0.80693 0.47687 0.24171 0.0
H1125 H 0.83714 0.53021 0.23012 0.0
H1126 H 0.83775 0.46533 0.19402 0.0
H1127 H 0.80821 0.41168 0.20553 0.0
H1128 H 0.90838 0.53004 0.21566 0.0
H1129 H 0.7841 0.56711 0.18401 0.0
H1130 H 0.77989 0.538 0.1987 0.0
H1131 H 0.79852 0.51792 0.18373 0.0
C1132 C 0.81373 0.47383 0.23133 0.0
C1133 C 0.80489 0.44006 0.22453 0.0
C1134 C 0.83083 0.50438 0.22472 0.0
C1135 C 0.83916 0.50184 0.21119 0.0
C1136 C 0.83085 0.4681 0.20441 0.0
H1137 H 0.9349 0.66138 0.15413 0.0
H1138 H 0.90821 0.60526 0.16513 0.0
C1139 C 0.81386 0.43752 0.211 0.0
C1140 C 0.85693 0.53435 0.20419 0.0
H1141 H 0.84135 0.60023 0.17984 0.0
C1142 C 0.89375 0.54549 0.20785 0.0
C1143 C 0.83779 0.55419 0.19395 0.0
C1144 C 0.79777 0.54401 0.18989 0.0
C1145 C 0.91215 0.57585 0.20145 0.0
C1146 C 0.8928 0.59604 0.19133 0.0
C1147 C 0.85609 0.58467 0.1876 0.0
C1148 C 0.90972 0.62973 0.18472 0.0
C1149 C 0.95237 0.5856 0.20541 0.0
C1150 C 0.91896 0.66222 0.19207 0.0
C1151 C 0.9342 0.6943 0.18584 0.0
C1152 C 0.94023 0.69467 0.17209 0.0
C1153 C 0.93065 0.66211 0.16473 0.0
C1154 C 0.91541 0.62999 0.17099 0.0
H1155 H 0.96666 0.5613 0.21047 0.0
H1156 H 0.9696 0.59398 0.19668 0.0
H1157 H 0.95178 0.60997 0.21237 0.0
H1158 H 0.91402 0.66292 0.20263 0.0
H1159 H 0.94111 0.71886 0.19183 0.0
H1160 H 0.83727 0.63845 0.48478 0.0
H1161 H 0.78288 0.65952 0.4714 0.0
H1162 H 0.77661 0.54838 0.45353 0.0
H1163 H 0.83069 0.52695 0.46697 0.0
H1164 H 0.77835 0.65799 0.44247 0.0
H1165 H 0.66614 0.5712 0.46679 0.0
H1166 H 0.71115 0.5814 0.47464 0.0
H1167 H 0.70847 0.54602 0.46191 0.0
C1168 C 0.82403 0.61835 0.47812 0.0
C1169 C 0.83828 0.58098 0.47697 0.0
C1170 C 0.79311 0.6305 0.47043 0.0
C1171 C 0.77549 0.60542 0.46157 0.0
C1172 C 0.7895 0.56807 0.46042 0.0
H1173 H 0.57957 0.62573 0.40887 0.0
H1174 H 0.63424 0.60306 0.42181 0.0
C1175 C 0.8206 0.55597 0.46803 0.0
C1176 C 0.74317 0.61864 0.45324 0.0
H1177 H 0.6482 0.60574 0.44768 0.0
C1178 C 0.74985 0.64669 0.44361 0.0
C1179 C 0.70612 0.60361 0.4547 0.0
C1180 C 0.69724 0.57408 0.46512 0.0
C1181 C 0.72058 0.65976 0.43524 0.0
C1182 C 0.68327 0.64514 0.4368 0.0
C1183 C 0.6767 0.61696 0.44645 0.0
C1184 C 0.65057 0.65904 0.4287 0.0
C1185 C 0.73027 0.68842 0.42461 0.0
C1186 C 0.64121 0.69798 0.42834 0.0
C1187 C 0.6104 0.71102 0.42081 0.0
C1188 C 0.58761 0.68531 0.41368 0.0
C1189 C 0.59656 0.64625 0.41422 0.0
C1190 C 0.62778 0.63327 0.42163 0.0
H1191 H 0.76094 0.68719 0.42198 0.0
H1192 H 0.71324 0.68365 0.41552 0.0
H1193 H 0.72416 0.71755 0.4283 0.0
H1194 H 0.65745 0.71835 0.43403 0.0
H1195 H 0.60399 0.74125 0.42081 0.0
H1196 H 0.62149 0.58348 0.75183 0.0
H1197 H 0.59569 0.52596 0.74152 0.0
H1198 H 0.68393 0.53015 0.712 0.0
H1199 H 0.70932 0.58799 0.72196 0.0
H1200 H 0.57039 0.51653 0.71439 0.0
H1201 H 0.69007 0.42019 0.72736 0.0
H1202 H 0.68176 0.46488 0.7357 0.0
H1203 H 0.70484 0.4642 0.71985 0.0
C1204 C 0.63529 0.57235 0.74309 0.0
C1205 C 0.66768 0.59038 0.73778 0.0
C1206 C 0.6206 0.53934 0.73727 0.0
C1207 C 0.63824 0.5235 0.72613 0.0
C1208 C 0.67035 0.54148 0.72077 0.0
H1209 H 0.62404 0.36194 0.66609 0.0
H1210 H 0.63768 0.40898 0.68296 0.0
C1211 C 0.68492 0.57452 0.72651 0.0
C1212 C 0.62284 0.48875 0.71979 0.0
H1213 H 0.64855 0.39928 0.71009 0.0
C1214 C 0.58707 0.49057 0.71362 0.0
C1215 C 0.64456 0.45488 0.71893 0.0
C1216 C 0.68229 0.45064 0.72592 0.0
C1217 C 0.57364 0.46031 0.70583 0.0
C1218 C 0.59639 0.42724 0.70438 0.0
C1219 C 0.63117 0.42468 0.71118 0.0
C1220 C 0.58733 0.39728 0.69454 0.0
C1221 C 0.53629 0.46481 0.69861 0.0
C1222 C 0.55454 0.37455 0.69551 0.0
C1223 C 0.54651 0.34729 0.68576 0.0
C1224 C 0.57114 0.34251 0.67492 0.0
C1225 C 0.60421 0.36494 0.67421 0.0
C1226 C 0.6122 0.39184 0.6839 0.0
H1227 H 0.52513 0.49443 0.69913 0.0
H1228 H 0.53945 0.4568 0.68806 0.0
H1229 H 0.51495 0.44552 0.70312 0.0
H1230 H 0.53517 0.37796 0.70373 0.0
H1231 H 0.52074 0.3306 0.68658 0.0
H1232 H 0.62385 0.60823 0.0617 0.0
H1233 H 0.67321 0.63585 0.07574 0.0
H1234 H 0.75124 0.5473 0.06392 0.0
H1235 H 0.70229 0.52001 0.04955 0.0
H1236 H 0.71539 0.60336 0.09698 0.0
H1237 H 0.80805 0.64681 0.05514 0.0
H1238 H 0.75899 0.63321 0.05289 0.0
H1239 H 0.79502 0.59734 0.05521 0.0
C1240 C 0.65161 0.59478 0.062 0.0
C1241 C 0.65928 0.56216 0.05437 0.0
C1242 C 0.67966 0.61043 0.07012 0.0
C1243 C 0.71599 0.59393 0.07073 0.0
C1244 C 0.72351 0.5608 0.06343 0.0
H1245 H 0.9292 0.65261 0.10709 0.0
H1246 H 0.8756 0.62097 0.09656 0.0
C1247 C 0.69543 0.54506 0.05531 0.0
C1248 C 0.7462 0.61186 0.07883 0.0
H1249 H 0.8332 0.65431 0.07665 0.0
C1250 C 0.74115 0.6146 0.09257 0.0
C1251 C 0.77959 0.62673 0.07301 0.0
C1252 C 0.78574 0.62627 0.05824 0.0
C1253 C 0.76916 0.63096 0.10069 0.0
C1254 C 0.80273 0.64543 0.09486 0.0
C1255 C 0.80751 0.64301 0.08111 0.0
C1256 C 0.83385 0.66263 0.10275 0.0
C1257 C 0.76305 0.63179 0.11544 0.0
C1258 C 0.82808 0.69626 0.10999 0.0
C1259 C 0.85882 0.71448 0.11612 0.0
C1260 C 0.89587 0.69958 0.11494 0.0
C1261 C 0.90114 0.66511 0.1081 0.0
C1262 C 0.87051 0.64691 0.10208 0.0
H1263 H 0.74043 0.61165 0.11859 0.0
H1264 H 0.78973 0.62459 0.12079 0.0
H1265 H 0.75424 0.66093 0.1184 0.0
H1266 H 0.80013 0.70925 0.11045 0.0
H1267 H 0.85384 0.74112 0.12122 0.0
H1268 H 0.74319 0.44841 0.30368 0.0
H1269 H 0.72542 0.50206 0.31782 0.0
H1270 H 0.61701 0.5101 0.29803 0.0
H1271 H 0.63376 0.45561 0.28425 0.0
H1272 H 0.70289 0.57791 0.31259 0.0
H1273 H 0.58754 0.49542 0.33673 0.0
H1274 H 0.62303 0.47328 0.3264 0.0
H1275 H 0.58339 0.4981 0.31906 0.0
C1276 C 0.71546 0.46143 0.30237 0.0
C1277 C 0.68977 0.44727 0.2929 0.0
C1278 C 0.70551 0.49236 0.31038 0.0
C1279 C 0.66967 0.50974 0.30912 0.0
C1280 C 0.6446 0.49675 0.29932 0.0
H1281 H 0.57859 0.71517 0.34569 0.0
H1282 H 0.61309 0.67233 0.33073 0.0
C1283 C 0.65442 0.46577 0.29135 0.0
C1284 C 0.65773 0.54011 0.31846 0.0
H1285 H 0.59114 0.56095 0.34189 0.0
C1286 C 0.67853 0.57424 0.31904 0.0
C1287 C 0.62626 0.53509 0.327 0.0
C1288 C 0.60394 0.49838 0.3274 0.0
C1289 C 0.6683 0.60367 0.3278 0.0
C1290 C 0.63624 0.59893 0.33608 0.0
C1291 C 0.61572 0.56466 0.33554 0.0
C1292 C 0.62305 0.6286 0.34552 0.0
C1293 C 0.69223 0.63925 0.32827 0.0
C1294 C 0.61812 0.61889 0.35889 0.0
C1295 C 0.59815 0.64307 0.36734 0.0
C1296 C 0.58304 0.67767 0.36266 0.0
C1297 C 0.59066 0.689 0.3496 0.0
C1298 C 0.61029 0.66445 0.34104 0.0
H1299 H 0.721 0.63438 0.32405 0.0
H1300 H 0.67813 0.66198 0.32237 0.0
H1301 H 0.69532 0.64961 0.33857 0.0
H1302 H 0.62772 0.59148 0.36259 0.0
H1303 H 0.59241 0.63362 0.37736 0.0
H1304 H 0.81262 0.50054 0.55154 0.0
H1305 H 0.75495 0.47352 0.56109 0.0
H1306 H 0.76658 0.37478 0.53615 0.0
H1307 H 0.82572 0.4003 0.52718 0.0
H1308 H 0.68725 0.45289 0.55096 0.0
H1309 H 0.76022 0.32551 0.5719 0.0
H1310 H 0.78602 0.36518 0.565 0.0
H1311 H 0.76493 0.3302 0.55432 0.0
C1312 C 0.80331 0.47281 0.5482 0.0
C1313 C 0.82435 0.4524 0.53872 0.0
C1314 C 0.77001 0.4576 0.55356 0.0
C1315 C 0.75679 0.42177 0.54953 0.0
C1316 C 0.7767 0.40205 0.53965 0.0
H1317 H 0.57425 0.28652 0.5854 0.0
H1318 H 0.61484 0.31373 0.56806 0.0
C1319 C 0.81031 0.41701 0.53439 0.0
C1320 C 0.72284 0.40482 0.55599 0.0
H1321 H 0.69396 0.32936 0.57487 0.0
C1322 C 0.68866 0.42575 0.55611 0.0
C1323 C 0.72466 0.36938 0.56273 0.0
C1324 C 0.76098 0.34639 0.56362 0.0
C1325 C 0.65657 0.41255 0.563 0.0
C1326 C 0.65875 0.37759 0.56992 0.0
C1327 C 0.69236 0.35601 0.56942 0.0
C1328 C 0.62835 0.36477 0.57902 0.0
C1329 C 0.62076 0.43632 0.56303 0.0
C1330 C 0.62188 0.38493 0.59074 0.0
C1331 C 0.59911 0.36935 0.60067 0.0
C1332 C 0.5822 0.33342 0.59902 0.0
C1333 C 0.58655 0.31446 0.58689 0.0
C1334 C 0.60984 0.32986 0.57701 0.0
H1335 H 0.6202 0.45692 0.55466 0.0
H1336 H 0.59513 0.41794 0.56247 0.0
H1337 H 0.6193 0.45271 0.57237 0.0
H1338 H 0.63635 0.41162 0.59257 0.0
H1339 H 0.59629 0.38456 0.60992 0.0
H1340 H 0.77009 0.55322 0.78599 0.0
H1341 H 0.79432 0.49499 0.79651 0.0
H1342 H 0.89029 0.55736 0.81169 0.0
H1343 H 0.86565 0.61588 0.80168 0.0
H1344 H 0.86419 0.45518 0.79414 0.0
H1345 H 0.84267 0.51072 0.84486 0.0
H1346 H 0.82225 0.53346 0.83047 0.0
H1347 H 0.87143 0.54098 0.83462 0.0
C1348 C 0.7962 0.55464 0.79166 0.0
C1349 C 0.81569 0.58942 0.79308 0.0
C1350 C 0.8102 0.52123 0.79755 0.0
C1351 C 0.84385 0.52193 0.80502 0.0
C1352 C 0.86397 0.55627 0.80613 0.0
H1353 H 0.98297 0.33951 0.83771 0.0
H1354 H 0.95362 0.38487 0.82221 0.0
C1355 C 0.84999 0.58967 0.80028 0.0
C1356 C 0.85723 0.48719 0.8121 0.0
H1357 H 0.87735 0.45304 0.84294 0.0
C1358 C 0.86691 0.45454 0.80482 0.0
C1359 C 0.86023 0.48624 0.82604 0.0
C1360 C 0.84827 0.51957 0.83449 0.0
C1361 C 0.88029 0.4212 0.81111 0.0
C1362 C 0.8845 0.42076 0.82503 0.0
C1363 C 0.87423 0.4533 0.83227 0.0
C1364 C 0.89962 0.38733 0.83249 0.0
C1365 C 0.88929 0.38668 0.80284 0.0
C1366 C 0.87882 0.37277 0.84322 0.0
C1367 C 0.89572 0.34738 0.85212 0.0
C1368 C 0.9336 0.33561 0.85041 0.0
C1369 C 0.95346 0.34756 0.83909 0.0
C1370 C 0.93668 0.37355 0.83024 0.0
H1371 H 0.87433 0.38772 0.79317 0.0
H1372 H 0.92033 0.38578 0.80087 0.0
H1373 H 0.88129 0.35998 0.80806 0.0
H1374 H 0.85021 0.38287 0.84515 0.0
H1375 H 0.87992 0.33874 0.86082 0.0
H1376 H 0.29499 0.52892 0.04114 0.0
H1377 H 0.2484 0.55367 0.05702 0.0
H1378 H 0.33336 0.62924 0.07292 0.0
H1379 H 0.37985 0.60482 0.05716 0.0
H1380 H 0.2517 0.55467 0.08499 0.0
H1381 H 0.24502 0.70103 0.06396 0.0
H1382 H 0.26574 0.66149 0.05514 0.0
H1383 H 0.29224 0.685 0.06793 0.0
C1384 C 0.30365 0.55083 0.04802 0.0
C1385 C 0.34088 0.56535 0.04778 0.0
C1386 C 0.27707 0.56491 0.05706 0.0
C1387 C 0.28735 0.59367 0.06598 0.0
C1388 C 0.32464 0.60768 0.06591 0.0
H1389 H 0.1594 0.72583 0.12338 0.0
H1390 H 0.21165 0.69334 0.11204 0.0
C1391 C 0.35111 0.59378 0.05686 0.0
C1392 C 0.2592 0.60907 0.07542 0.0
H1393 H 0.21338 0.69089 0.08429 0.0
C1394 C 0.24323 0.58442 0.08484 0.0
C1395 C 0.24841 0.64793 0.07521 0.0
C1396 C 0.26344 0.67538 0.06495 0.0
C1397 C 0.2168 0.59773 0.09416 0.0
C1398 C 0.2059 0.63654 0.09389 0.0
C1399 C 0.22217 0.66122 0.08454 0.0
C1400 C 0.17557 0.65183 0.10249 0.0
C1401 C 0.20098 0.57031 0.10425 0.0
C1402 C 0.1382 0.63867 0.10108 0.0
C1403 C 0.10833 0.65715 0.1075 0.0
C1404 C 0.11528 0.6893 0.11541 0.0
C1405 C 0.15306 0.70111 0.1174 0.0
C1406 C 0.18294 0.68266 0.11091 0.0
H1407 H 0.21982 0.5451 0.1056 0.0
H1408 H 0.19705 0.58443 0.11397 0.0
H1409 H 0.17283 0.56002 0.10084 0.0
H1410 H 0.13183 0.61534 0.09446 0.0
H1411 H 0.07961 0.64716 0.10581 0.0
H1412 H 0.15546 0.57222 0.78996 0.0
H1413 H 0.13417 0.51719 0.80281 0.0
H1414 H 0.24355 0.51086 0.82202 0.0
H1415 H 0.26572 0.56495 0.80881 0.0
H1416 H 0.21429 0.43896 0.81571 0.0
H1417 H 0.10739 0.52759 0.84184 0.0
H1418 H 0.10238 0.5284 0.82418 0.0
H1419 H 0.14434 0.54803 0.83171 0.0
C1420 C 0.1753 0.55878 0.79673 0.0
C1421 C 0.21224 0.57339 0.79842 0.0
C1422 C 0.16291 0.52751 0.80418 0.0
C1423 C 0.18701 0.51036 0.81356 0.0
C1424 C 0.22436 0.52382 0.81491 0.0
H1425 H 0.0978 0.38201 0.87942 0.0
H1426 H 0.13665 0.42397 0.86563 0.0
C1427 C 0.23685 0.55502 0.80743 0.0
C1428 C 0.17267 0.47968 0.82241 0.0
H1429 H 0.10502 0.46113 0.84571 0.0
C1430 C 0.19048 0.44375 0.82232 0.0
C1431 C 0.14202 0.48617 0.83118 0.0
C1432 C 0.12312 0.52471 0.83237 0.0
C1433 C 0.17798 0.41395 0.8306 0.0
C1434 C 0.14654 0.42016 0.83906 0.0
C1435 C 0.1291 0.45625 0.83922 0.0
C1436 C 0.13073 0.3901 0.84791 0.0
C1437 C 0.19895 0.3764 0.83038 0.0
C1438 C 0.11598 0.35602 0.84273 0.0
C1439 C 0.09444 0.33148 0.85074 0.0
C1440 C 0.08687 0.34111 0.86393 0.0
C1441 C 0.10361 0.37386 0.8693 0.0
C1442 C 0.12557 0.39795 0.8614 0.0
H1443 H 0.22832 0.37971 0.82649 0.0
H1444 H 0.2005 0.36351 0.8404 0.0
H1445 H 0.18361 0.35637 0.82381 0.0
H1446 H 0.11881 0.34966 0.83232 0.0
H1447 H 0.08105 0.30683 0.84632 0.0
H1448 H 0.21296 0.47958 0.5359 0.0
H1449 H 0.26802 0.45488 0.54817 0.0
H1450 H 0.19487 0.42516 0.58077 0.0
H1451 H 0.13969 0.44855 0.56847 0.0
H1452 H 0.29839 0.47467 0.57327 0.0
H1453 H 0.24936 0.32473 0.5724 0.0
H1454 H 0.22901 0.36115 0.56188 0.0
H1455 H 0.21442 0.35705 0.57887 0.0
C1456 C 0.20852 0.46751 0.54564 0.0
C1457 C 0.17172 0.46586 0.55113 0.0
C1458 C 0.2401 0.45369 0.55268 0.0
C1459 C 0.23553 0.43768 0.56532 0.0
C1460 C 0.19904 0.43684 0.57095 0.0
H1461 H 0.36134 0.33004 0.62686 0.0
H1462 H 0.31795 0.36737 0.61309 0.0
C1463 C 0.16751 0.45063 0.56394 0.0
C1464 C 0.26858 0.42117 0.5726 0.0
H1465 H 0.29987 0.33904 0.58727 0.0
C1466 C 0.29898 0.44494 0.57623 0.0
C1467 C 0.26954 0.38226 0.57632 0.0
C1468 C 0.23904 0.35469 0.57206 0.0
C1469 C 0.32935 0.43116 0.58404 0.0
C1470 C 0.32937 0.39265 0.5882 0.0
C1471 C 0.29964 0.36868 0.58417 0.0
C1472 C 0.35851 0.37662 0.59736 0.0
C1473 C 0.36047 0.45805 0.5882 0.0
C1474 C 0.39638 0.37066 0.59333 0.0
C1475 C 0.42155 0.34942 0.6013 0.0
C1476 C 0.40893 0.33359 0.61331 0.0
C1477 C 0.37182 0.34182 0.61764 0.0
C1478 C 0.34694 0.36307 0.60977 0.0
H1479 H 0.35356 0.48818 0.58574 0.0
H1480 H 0.36562 0.45564 0.599 0.0
H1481 H 0.38727 0.45021 0.58308 0.0
H1482 H 0.40579 0.38047 0.58371 0.0
H1483 H 0.44981 0.34305 0.59764 0.0
H1484 H 0.33421 0.41232 0.30692 0.0
H1485 H 0.35554 0.47094 0.31757 0.0
H1486 H 0.33497 0.53364 0.28152 0.0
H1487 H 0.31265 0.47522 0.27085 0.0
H1488 H 0.41701 0.51777 0.30915 0.0
H1489 H 0.27949 0.59678 0.31027 0.0
H1490 H 0.28204 0.54591 0.30773 0.0
H1491 H 0.29401 0.57801 0.29453 0.0
C1492 C 0.3336 0.43867 0.30131 0.0
C1493 C 0.32156 0.43909 0.28805 0.0
C1494 C 0.34608 0.47208 0.30738 0.0
C1495 C 0.34656 0.50666 0.30036 0.0
C1496 C 0.33439 0.50734 0.28715 0.0
H1497 H 0.47213 0.69886 0.33542 0.0
H1498 H 0.44559 0.65751 0.31821 0.0
C1499 C 0.32197 0.47387 0.28105 0.0
C1500 C 0.36091 0.54159 0.30687 0.0
H1501 H 0.33305 0.62786 0.31913 0.0
C1502 C 0.39883 0.54207 0.31121 0.0
C1503 C 0.337 0.57311 0.30955 0.0
C1504 C 0.29577 0.57359 0.30539 0.0
C1505 C 0.41326 0.57275 0.31851 0.0
C1506 C 0.38919 0.60405 0.32139 0.0
C1507 C 0.35152 0.60404 0.31675 0.0
C1508 C 0.40122 0.63434 0.33067 0.0
C1509 C 0.45356 0.57054 0.32365 0.0
C1510 C 0.38375 0.63654 0.34309 0.0
C1511 C 0.39866 0.6601 0.35287 0.0
C1512 C 0.43129 0.68214 0.35041 0.0
C1513 C 0.44696 0.68226 0.33762 0.0
C1514 C 0.43204 0.65842 0.32782 0.0
H1515 H 0.46623 0.54175 0.32234 0.0
H1516 H 0.47148 0.59136 0.31823 0.0
H1517 H 0.45454 0.57789 0.33431 0.0
H1518 H 0.35982 0.61836 0.34548 0.0
H1519 H 0.38567 0.65965 0.36257 0.0
H1520 H 0.35138 0.47662 0.96146 0.0
H1521 H 0.29705 0.45837 0.94774 0.0
H1522 H 0.26627 0.37232 0.97629 0.0
H1523 H 0.32006 0.39094 0.99023 0.0
H1524 H 0.28148 0.38614 0.93663 0.0
H1525 H 0.16665 0.43299 0.97061 0.0
H1526 H 0.21535 0.44847 0.97235 0.0
H1527 H 0.2015 0.40188 0.97796 0.0
C1528 C 0.33279 0.45412 0.96491 0.0
C1529 C 0.33996 0.43538 0.97699 0.0
C1530 C 0.3019 0.44358 0.95701 0.0
C1531 C 0.27735 0.41434 0.96107 0.0
C1532 C 0.28451 0.39538 0.97307 0.0
H1533 H 0.11715 0.28316 0.91524 0.0
H1534 H 0.17097 0.30666 0.92803 0.0
C1535 C 0.3155 0.4058 0.98096 0.0
C1536 C 0.24477 0.40309 0.9526 0.0
H1537 H 0.14779 0.39672 0.95194 0.0
C1538 C 0.25224 0.38859 0.93995 0.0
C1539 C 0.20663 0.40675 0.95689 0.0
C1540 C 0.19686 0.42368 0.97015 0.0
C1541 C 0.22261 0.37681 0.93158 0.0
C1542 C 0.18454 0.37931 0.93604 0.0
C1543 C 0.17702 0.39463 0.94857 0.0
C1544 C 0.15217 0.36543 0.92796 0.0
C1545 C 0.23226 0.36206 0.918 0.0
C1546 C 0.12331 0.39058 0.92384 0.0
C1547 C 0.09225 0.37722 0.91652 0.0
C1548 C 0.08936 0.33836 0.91328 0.0
C1549 C 0.11847 0.31332 0.91744 0.0
C1550 C 0.14943 0.3267 0.92473 0.0
H1551 H 0.26111 0.37114 0.91482 0.0
H1552 H 0.2317 0.33044 0.91816 0.0
H1553 H 0.2112 0.3721 0.91057 0.0
H1554 H 0.12482 0.42056 0.92629 0.0
H1555 H 0.07037 0.39727 0.91353 0.0
H1556 H 0.33039 0.61025 0.71149 0.0
H1557 H 0.34766 0.55488 0.69822 0.0
H1558 H 0.32561 0.48098 0.73148 0.0
H1559 H 0.3081 0.53643 0.74488 0.0
H1560 H 0.39347 0.46451 0.71881 0.0
H1561 H 0.27581 0.47586 0.68251 0.0
H1562 H 0.30241 0.51919 0.6841 0.0
H1563 H 0.2757 0.50141 0.69796 0.0
C1564 C 0.32874 0.58219 0.71596 0.0
C1565 C 0.31751 0.57772 0.72922 0.0
C1566 C 0.33859 0.55056 0.70834 0.0
C1567 C 0.33716 0.51375 0.71378 0.0
C1568 C 0.32663 0.50915 0.72707 0.0
H1569 H 0.36084 0.3072 0.6659 0.0
H1570 H 0.33616 0.357 0.68053 0.0
C1571 C 0.31682 0.54085 0.73472 0.0
C1572 C 0.34785 0.48031 0.70564 0.0
H1573 H 0.32762 0.43487 0.67668 0.0
C1574 C 0.37887 0.4578 0.70966 0.0
C1575 C 0.32839 0.47122 0.69382 0.0
C1576 C 0.29348 0.49294 0.68939 0.0
C1577 C 0.39185 0.42731 0.70191 0.0
C1578 C 0.3737 0.41958 0.68972 0.0
C1579 C 0.34178 0.44115 0.68595 0.0
C1580 C 0.38813 0.38992 0.68059 0.0
C1581 C 0.4248 0.40354 0.70688 0.0
C1582 C 0.42511 0.39251 0.67549 0.0
C1583 C 0.43928 0.36422 0.66717 0.0
C1584 C 0.41662 0.3328 0.66365 0.0
C1585 C 0.37908 0.33091 0.66843 0.0
C1586 C 0.36495 0.3593 0.6768 0.0
H1587 H 0.42856 0.40629 0.71774 0.0
H1588 H 0.42077 0.37298 0.70445 0.0
H1589 H 0.45139 0.41335 0.70206 0.0
H1590 H 0.44316 0.4164 0.678 0.0
H1591 H 0.46825 0.36683 0.66363 0.0
H1592 H 0.15302 0.6144 0.47015 0.0
H1593 H 0.21087 0.64046 0.46043 0.0
H1594 H 0.26996 0.62431 0.49742 0.0
H1595 H 0.21244 0.59653 0.50711 0.0
H1596 H 0.25564 0.70223 0.46714 0.0
H1597 H 0.33642 0.56595 0.47136 0.0
H1598 H 0.28571 0.56854 0.47393 0.0
H1599 H 0.3178 0.58481 0.48652 0.0
C1600 C 0.17838 0.61601 0.47621 0.0
C1601 C 0.17824 0.60279 0.48935 0.0
C1602 C 0.21132 0.63133 0.47067 0.0
C1603 C 0.24484 0.63387 0.47815 0.0
C1604 C 0.24455 0.62203 0.49142 0.0
H1605 H 0.44062 0.74394 0.43824 0.0
H1606 H 0.39437 0.72959 0.4557 0.0
C1607 C 0.21156 0.60649 0.49697 0.0
C1608 C 0.28018 0.64746 0.47171 0.0
H1609 H 0.36677 0.61689 0.4607 0.0
C1610 C 0.28023 0.68385 0.46587 0.0
C1611 C 0.31207 0.62324 0.47004 0.0
C1612 C 0.31313 0.58335 0.47569 0.0
C1613 C 0.31061 0.69608 0.45792 0.0
C1614 C 0.34198 0.67141 0.45596 0.0
C1615 C 0.34271 0.63576 0.4623 0.0
C1616 C 0.3717 0.67968 0.446 0.0
C1617 C 0.30789 0.7343 0.45107 0.0
C1618 C 0.37493 0.65582 0.43498 0.0
C1619 C 0.40132 0.66368 0.42509 0.0
C1620 C 0.42527 0.69564 0.42599 0.0
C1621 C 0.42266 0.71909 0.43722 0.0
C1622 C 0.39608 0.71112 0.44717 0.0
H1623 H 0.27907 0.74714 0.45195 0.0
H1624 H 0.32866 0.75419 0.45556 0.0
H1625 H 0.31497 0.73154 0.44042 0.0
H1626 H 0.3564 0.63138 0.4339 0.0
H1627 H 0.40257 0.6448 0.41666 0.0
H1628 H 0.25435 0.45326 0.21853 0.0
H1629 H 0.22503 0.50854 0.20765 0.0
H1630 H 0.11377 0.46088 0.21463 0.0
H1631 H 0.14297 0.40634 0.22593 0.0
H1632 H 0.18284 0.51581 0.18633 0.0
H1633 H 0.09788 0.5652 0.22905 0.0
H1634 H 0.13363 0.5285 0.23057 0.0
H1635 H 0.08678 0.51715 0.22454 0.0
C1636 C 0.22364 0.45469 0.21775 0.0
C1637 C 0.20091 0.42572 0.22319 0.0
C1638 C 0.20689 0.48628 0.21154 0.0
C1639 C 0.16709 0.48939 0.21054 0.0
C1640 C 0.14443 0.45987 0.21564 0.0
H1641 H 0.05562 0.64979 0.15605 0.0
H1642 H 0.0816 0.59251 0.16665 0.0
C1643 C 0.16114 0.42859 0.22204 0.0
C1644 C 0.14947 0.52321 0.20399 0.0
H1645 H 0.08421 0.59445 0.20833 0.0
C1646 C 0.16139 0.5331 0.19117 0.0
C1647 C 0.12179 0.54616 0.21034 0.0
C1648 C 0.10956 0.53898 0.22443 0.0
C1649 C 0.1464 0.56508 0.18454 0.0
C1650 C 0.1177 0.58717 0.1907 0.0
C1651 C 0.10587 0.57733 0.20353 0.0
C1652 C 0.1007 0.62154 0.1843 0.0
C1653 C 0.16239 0.57543 0.17116 0.0
C1654 C 0.10126 0.6567 0.19089 0.0
C1655 C 0.08569 0.68928 0.18498 0.0
C1656 C 0.06947 0.68754 0.17228 0.0
C1657 C 0.0684 0.65221 0.16576 0.0
C1658 C 0.08349 0.61947 0.17178 0.0
H1659 H 0.19112 0.56288 0.16965 0.0
H1660 H 0.14344 0.56409 0.16334 0.0
H1661 H 0.16439 0.60681 0.1699 0.0
H1662 H 0.11419 0.65907 0.20058 0.0
H1663 H 0.08701 0.71601 0.19028 0.0
loop_
_geom_bond_atom_site_label_1
_geom_bond_atom_site_label_2
_geom_bond_distance
_geom_bond_site_symmetry_2
_ccdc_geom_bond_type
H0 C19 0.949 . S
H1 C20 0.950 . S
H2 C22 0.950 . S
H3 C23 0.950 . S
H4 C25 0.950 . S
H5 C28 0.950 1_565 S
H6 C29 0.950 . S
H7 C31 0.951 . S
H8 C32 0.949 . S
H9 C34 0.949 . S
H10 C35 0.950 . S
H11 C37 0.950 . S
H12 C38 0.950 1_565 S
H13 C40 0.950 . S
H14 C43 0.950 . S
H15 C44 0.950 1_545 S
H16 C46 0.951 . S
H17 C47 0.949 . S
C18 C19 1.376 . S
C18 C23 1.386 1_565 S
C18 C24 1.483 1_565 S
C19 H0 0.949 . S
C19 C18 1.376 . S
C19 C20 1.397 . S
C20 H1 0.950 . S
C20 C19 1.397 . S
C20 C21 1.391 . S
C21 C20 1.391 . S
C21 C22 1.405 1_565 S
C22 H2 0.950 . S
C22 C21 1.405 1_545 S
C22 C23 1.367 . S
C23 H3 0.950 . S
C23 C18 1.386 1_545 S
C23 C22 1.367 . S
C24 C18 1.483 1_545 S
C24 C25 1.382 1_545 S
C24 C26 1.403 . S
C25 H4 0.950 . S
C25 C24 1.382 1_565 S
C25 C41 1.407 1_665 S
C26 C24 1.403 . S
C26 C27 1.489 . S
C26 C40 1.411 1_655 S
C27 C26 1.489 . S
C27 C28 1.383 . S
C27 C32 1.382 . S
C28 H5 0.950 1_545 S
C28 C27 1.383 . S
C28 C29 1.395 . S
C29 H6 0.950 . S
C29 C28 1.395 . S
C29 C30 1.288 . S
C30 C29 1.288 . S
C30 C31 1.392 . S
C31 H7 0.951 . S
C31 C30 1.392 . S
C31 C32 1.392 . S
C32 H8 0.949 . S
C32 C27 1.382 . S
C32 C31 1.392 . S
C33 C34 1.376 . S
C33 C38 1.386 . S
C33 C39 1.483 . S
C34 H9 0.949 . S
C34 C33 1.376 . S
C34 C35 1.397 . S
C35 H10 0.950 . S
C35 C34 1.397 . S
C35 C36 1.391 . S
C36 C35 1.391 . S
C36 C37 1.405 . S
C37 H11 0.950 . S
C37 C36 1.405 . S
C37 C38 1.367 . S
C38 H12 0.950 1_545 S
C38 C33 1.386 . S
C38 C37 1.367 . S
C39 C33 1.483 . S
C39 C40 1.382 . S
C39 C41 1.411 . S
C40 H13 0.950 . S
C40 C26 1.411 1_455 S
C40 C39 1.382 . S
C41 C25 1.407 1_445 S
C41 C39 1.411 . S
C41 C42 1.484 1_545 S
C42 C41 1.484 1_565 S
C42 C43 1.383 1_565 S
C42 C47 1.382 . S
C43 H14 0.950 . S
C43 C42 1.383 1_545 S
C43 C44 1.395 1_545 S
C44 H15 0.950 1_565 S
C44 C43 1.395 1_565 S
C44 C45 1.288 . S
C45 C44 1.288 . S
C45 C46 1.392 . S
C46 H16 0.951 . S
C46 C45 1.392 . S
C46 C47 1.392 . S
C47 H17 0.949 . S
C47 C42 1.382 . S
C47 C46 1.392 . S
H48 C67 0.949 . S
H49 C68 0.950 . S
H50 C70 0.950 . S
H51 C71 0.950 . S
H52 C73 0.950 . S
H53 C76 0.950 . S
H54 C77 0.950 . S
H55 C79 0.951 . S
H56 C80 0.949 . S
H57 C82 0.949 . S
H58 C83 0.950 . S
H59 C85 0.950 . S
H60 C86 0.950 . S
H61 C88 0.950 . S
H62 C91 0.950 . S
H63 C92 0.950 . S
H64 C94 0.951 . S
H65 C95 0.949 . S
C66 C67 1.376 . S
C66 C71 1.386 . S
C66 C72 1.483 . S
C67 H48 0.949 . S
C67 C66 1.376 . S
C67 C68 1.397 . S
C68 H49 0.950 . S
C68 C67 1.397 . S
C68 C69 1.391 . S
C69 C68 1.391 . S
C69 C70 1.405 . S
C70 H50 0.950 . S
C70 C69 1.405 . S
C70 C71 1.367 . S
C71 H51 0.950 . S
C71 C66 1.386 . S
C71 C70 1.367 . S
C72 C66 1.483 . S
C72 C73 1.382 . S
C72 C74 1.403 . S
C73 H52 0.950 . S
C73 C72 1.382 . S
C73 C89 1.411 . S
C74 C72 1.403 . S
C74 C75 1.489 . S
C74 C88 1.411 . S
C75 C74 1.489 . S
C75 C76 1.383 . S
C75 C80 1.382 . S
C76 H53 0.950 . S
C76 C75 1.383 . S
C76 C77 1.395 . S
C77 H54 0.950 . S
C77 C76 1.395 . S
C77 C78 1.288 . S
C78 C77 1.288 . S
C78 C79 1.392 . S
C79 H55 0.951 . S
C79 C78 1.392 . S
C79 C80 1.392 . S
C80 H56 0.949 . S
C80 C75 1.382 . S
C80 C79 1.392 . S
C81 C82 1.376 . S
C81 C86 1.386 . S
C81 C87 1.483 . S
C82 H57 0.949 . S
C82 C81 1.376 . S
C82 C83 1.397 . S
C83 H58 0.950 . S
C83 C82 1.397 . S
C83 C84 1.391 . S
C84 C83 1.391 . S
C84 C85 1.405 . S
C85 H59 0.950 . S
C85 C84 1.405 . S
C85 C86 1.367 . S
C86 H60 0.950 . S
C86 C81 1.386 . S
C86 C85 1.367 . S
C87 C81 1.483 . S
C87 C88 1.382 . S
C87 C89 1.403 . S
C88 H61 0.950 . S
C88 C74 1.411 . S
C88 C87 1.382 . S
C89 C73 1.411 . S
C89 C87 1.403 . S
C89 C90 1.489 . S
C90 C89 1.489 . S
C90 C91 1.383 . S
C90 C95 1.382 . S
C91 H62 0.950 . S
C91 C90 1.383 . S
C91 C92 1.395 . S
C92 H63 0.950 . S
C92 C91 1.395 . S
C92 C93 1.288 . S
C93 C92 1.288 . S
C93 C94 1.392 . S
C94 H64 0.951 . S
C94 C93 1.392 . S
C94 C95 1.392 . S
C95 H65 0.949 . S
C95 C90 1.382 . S
C95 C94 1.392 . S
H96 C115 0.949 1_545 S
H97 C116 0.950 . S
H98 C118 0.950 . S
H99 C119 0.950 . S
H100 C121 0.950 . S
H101 C124 0.950 . S
H102 C125 0.936 1_554 S
H103 C127 0.951 . S
H104 C128 0.965 . S
H105 C130 0.949 1_565 S
H106 C131 0.950 . S
H107 C133 0.950 1_554 S
H108 C134 0.950 . S
H109 C136 0.950 . S
H110 C139 0.950 . S
H111 C140 0.950 . S
H112 C142 0.951 . S
H113 C143 0.954 . S
C114 C115 1.376 . S
C114 C119 1.386 . S
C114 C120 1.483 . S
C115 H96 0.949 1_565 S
C115 C114 1.376 . S
C115 C116 1.397 . S
C116 H97 0.950 . S
C116 C115 1.397 . S
C116 C117 1.391 . S
C117 C116 1.391 . S
C117 C118 1.405 . S
C118 H98 0.950 . S
C118 C117 1.405 . S
C118 C119 1.367 . S
C119 H99 0.950 . S
C119 C114 1.386 . S
C119 C118 1.367 . S
C120 C114 1.483 . S
C120 C121 1.382 . S
C120 C122 1.403 1_565 S
C121 H100 0.950 . S
C121 C120 1.382 . S
C121 C137 1.411 . S
C122 C120 1.403 1_545 S
C122 C123 1.489 1_554 S
C122 C136 1.411 1_554 S
C123 C122 1.489 1_556 S
C123 C124 1.383 1_556 S
C123 C128 1.382 . S
C124 H101 0.950 . S
C124 C123 1.383 1_554 S
C124 C125 1.395 1_554 S
C125 H102 0.936 1_556 S
C125 C124 1.395 1_556 S
C125 C126 1.288 . S
C126 C125 1.288 . S
C126 C127 1.392 . S
C127 H103 0.951 . S
C127 C126 1.392 . S
C127 C128 1.392 . S
C128 H104 0.965 . S
C128 C123 1.382 . S
C128 C127 1.392 . S
C129 C130 1.376 . S
C129 C134 1.386 1_556 S
C129 C135 1.483 1_556 S
C130 H105 0.949 1_545 S
C130 C129 1.376 . S
C130 C131 1.397 . S
C131 H106 0.950 . S
C131 C130 1.397 . S
C131 C132 1.391 . S
C132 C131 1.391 . S
C132 C133 1.405 . S
C133 H107 0.950 1_556 S
C133 C132 1.405 . S
C133 C134 1.367 1_556 S
C134 H108 0.950 . S
C134 C129 1.386 1_554 S
C134 C133 1.367 1_554 S
C135 C129 1.483 1_554 S
C135 C136 1.382 1_554 S
C135 C137 1.403 1_545 S
C136 H109 0.950 . S
C136 C122 1.411 1_556 S
C136 C135 1.382 1_556 S
C137 C121 1.411 . S
C137 C135 1.403 1_565 S
C137 C138 1.489 . S
C138 C137 1.489 . S
C138 C139 1.383 . S
C138 C143 1.382 . S
C139 H110 0.950 . S
C139 C138 1.383 . S
C139 C140 1.395 . S
C140 H111 0.950 . S
C140 C139 1.395 . S
C140 C141 1.288 . S
C141 C140 1.288 . S
C141 C142 1.392 . S
C142 H112 0.951 . S
C142 C141 1.392 . S
C142 C143 1.392 . S
C143 H113 0.954 . S
C143 C138 1.382 . S
C143 C142 1.392 . S
H144 C163 0.949 . S
H145 C164 0.950 . S
H146 C166 0.950 . S
H147 C167 0.950 . S
H148 C169 0.950 . S
H149 C172 0.950 . S
H150 C173 0.950 . S
H151 C175 0.951 . S
H152 C176 0.949 . S
H153 C178 0.949 . S
H154 C179 0.950 . S
H155 C181 0.950 . S
H156 C182 0.950 . S
H157 C184 0.950 . S
H158 C187 0.950 . S
H159 C188 0.950 . S
H160 C190 0.951 . S
H161 C191 0.949 . S
C162 C163 1.376 . S
C162 C167 1.386 . S
C162 C168 1.483 . S
C163 H144 0.949 . S
C163 C162 1.376 . S
C163 C164 1.397 . S
C164 H145 0.950 . S
C164 C163 1.397 . S
C164 C165 1.391 . S
C165 C164 1.391 . S
C165 C166 1.405 . S
C166 H146 0.950 . S
C166 C165 1.405 . S
C166 C167 1.367 . S
C167 H147 0.950 . S
C167 C162 1.386 . S
C167 C166 1.367 . S
C168 C162 1.483 . S
C168 C169 1.382 . S
C168 C170 1.403 . S
C169 H148 0.950 . S
C169 C168 1.382 . S
C169 C185 1.411 . S
C170 C168 1.403 . S
C170 C171 1.489 . S
C170 C184 1.411 . S
C171 C170 1.489 . S
C171 C172 1.383 . S
C171 C176 1.382 . S
C172 H149 0.950 . S
C172 C171 1.383 . S
C172 C173 1.395 . S
C173 H150 0.950 . S
C173 C172 1.395 . S
C173 C174 1.288 . S
C174 C173 1.288 . S
C174 C175 1.392 . S
C175 H151 0.951 . S
C175 C174 1.392 . S
C175 C176 1.392 . S
C176 H152 0.949 . S
C176 C171 1.382 . S
C176 C175 1.392 . S
C177 C178 1.376 . S
C177 C182 1.386 . S
C177 C183 1.483 . S
C178 H153 0.949 . S
C178 C177 1.376 . S
C178 C179 1.397 . S
C179 H154 0.950 . S
C179 C178 1.397 . S
C179 C180 1.391 . S
C180 C179 1.391 . S
C180 C181 1.405 . S
C181 H155 0.950 . S
C181 C180 1.405 . S
C181 C182 1.367 . S
C182 H156 0.950 . S
C182 C177 1.386 . S
C182 C181 1.367 . S
C183 C177 1.483 . S
C183 C184 1.382 . S
C183 C185 1.403 . S
C184 H157 0.950 . S
C184 C170 1.411 . S
C184 C183 1.382 . S
C185 C169 1.411 . S
C185 C183 1.403 . S
C185 C186 1.489 . S
C186 C185 1.489 . S
C186 C187 1.383 . S
C186 C191 1.382 . S
C187 H158 0.950 . S
C187 C186 1.383 . S
C187 C188 1.395 . S
C188 H159 0.950 . S
C188 C187 1.395 . S
C188 C189 1.288 . S
C189 C188 1.288 . S
C189 C190 1.392 . S
C190 H160 0.951 . S
C190 C189 1.392 . S
C190 C191 1.392 . S
C191 H161 0.949 . S
C191 C186 1.382 . S
C191 C190 1.392 . S
H192 C211 0.949 . S
H193 C212 0.950 . S
H194 C214 0.950 . S
H195 C215 0.950 . S
H196 C217 0.950 . S
H197 C220 0.950 . S
H198 C221 0.950 . S
H199 C223 0.951 . S
H200 C224 0.949 . S
H201 C226 0.949 . S
H202 C227 0.950 . S
H203 C229 0.950 . S
H204 C230 0.950 . S
H205 C232 0.950 . S
H206 C235 0.950 . S
H207 C236 0.950 . S
H208 C238 0.951 . S
H209 C239 0.949 . S
C210 C211 1.376 . S
C210 C215 1.386 . S
C210 C216 1.483 . S
C211 H192 0.949 . S
C211 C210 1.376 . S
C211 C212 1.397 . S
C212 H193 0.950 . S
C212 C211 1.397 . S
C212 C213 1.391 . S
C213 C212 1.391 . S
C213 C214 1.405 . S
C214 H194 0.950 . S
C214 C213 1.405 . S
C214 C215 1.367 . S
C215 H195 0.950 . S
C215 C210 1.386 . S
C215 C214 1.367 . S
C216 C210 1.483 . S
C216 C217 1.382 . S
C216 C218 1.403 . S
C217 H196 0.950 . S
C217 C216 1.382 . S
C217 C233 1.411 . S
C218 C216 1.403 . S
C218 C219 1.489 . S
C218 C232 1.411 . S
C219 C218 1.489 . S
C219 C220 1.383 . S
C219 C224 1.382 . S
C220 H197 0.950 . S
C220 C219 1.383 . S
C220 C221 1.395 . S
C221 H198 0.950 . S
C221 C220 1.395 . S
C221 C222 1.288 . S
C222 C221 1.288 . S
C222 C223 1.392 . S
C223 H199 0.951 . S
C223 C222 1.392 . S
C223 C224 1.392 . S
C224 H200 0.949 . S
C224 C219 1.382 . S
C224 C223 1.392 . S
C225 C226 1.376 . S
C225 C230 1.386 . S
C225 C231 1.483 . S
C226 H201 0.949 . S
C226 C225 1.376 . S
C226 C227 1.397 . S
C227 H202 0.950 . S
C227 C226 1.397 . S
C227 C228 1.391 . S
C228 C227 1.391 . S
C228 C229 1.405 . S
C229 H203 0.950 . S
C229 C228 1.405 . S
C229 C230 1.367 . S
C230 H204 0.950 . S
C230 C225 1.386 . S
C230 C229 1.367 . S
C231 C225 1.483 . S
C231 C232 1.382 . S
C231 C233 1.403 . S
C232 H205 0.950 . S
C232 C218 1.411 . S
C232 C231 1.382 . S
C233 C217 1.411 . S
C233 C231 1.403 . S
C233 C234 1.489 . S
C234 C233 1.489 . S
C234 C235 1.383 . S
C234 C239 1.382 . S
C235 H206 0.950 . S
C235 C234 1.383 . S
C235 C236 1.395 . S
C236 H207 0.950 . S
C236 C235 1.395 . S
C236 C237 1.288 . S
C237 C236 1.288 . S
C237 C238 1.392 . S
C238 H208 0.951 . S
C238 C237 1.392 . S
C238 C239 1.392 . S
C239 H209 0.949 . S
C239 C234 1.382 . S
C239 C238 1.392 . S
H240 C259 0.949 . S
H241 C260 0.950 . S
H242 C262 0.950 . S
H243 C263 0.950 . S
H244 C265 0.950 . S
H245 C268 0.950 . S
H246 C269 0.950 . S
H247 C271 0.951 . S
H248 C272 0.949 . S
H249 C274 0.949 . S
H250 C275 0.950 . S
H251 C277 0.950 . S
H252 C278 0.950 . S
H253 C280 0.950 . S
H254 C283 0.950 . S
H255 C284 0.950 . S
H256 C286 0.951 . S
H257 C287 0.949 . S
C258 C259 1.376 . S
C258 C263 1.386 . S
C258 C264 1.483 . S
C259 H240 0.949 . S
C259 C258 1.376 . S
C259 C260 1.397 . S
C260 H241 0.950 . S
C260 C259 1.397 . S
C260 C261 1.391 . S
C261 C260 1.391 . S
C261 C262 1.405 . S
C262 H242 0.950 . S
C262 C261 1.405 . S
C262 C263 1.367 . S
C263 H243 0.950 . S
C263 C258 1.386 . S
C263 C262 1.367 . S
C264 C258 1.483 . S
C264 C265 1.382 . S
C264 C266 1.403 . S
C265 H244 0.950 . S
C265 C264 1.382 . S
C265 C281 1.411 . S
C266 C264 1.403 . S
C266 C267 1.489 . S
C266 C280 1.411 . S
C267 C266 1.489 . S
C267 C268 1.383 . S
C267 C272 1.382 . S
C268 H245 0.950 . S
C268 C267 1.383 . S
C268 C269 1.395 . S
C269 H246 0.950 . S
C269 C268 1.395 . S
C269 C270 1.288 . S
C270 C269 1.288 . S
C270 C271 1.392 . S
C271 H247 0.951 . S
C271 C270 1.392 . S
C271 C272 1.392 . S
C272 H248 0.949 . S
C272 C267 1.382 . S
C272 C271 1.392 . S
C273 C274 1.376 . S
C273 C278 1.386 . S
C273 C279 1.483 . S
C274 H249 0.949 . S
C274 C273 1.376 . S
C274 C275 1.397 . S
C275 H250 0.950 . S
C275 C274 1.397 . S
C275 C276 1.391 . S
C276 C275 1.391 . S
C276 C277 1.405 . S
C277 H251 0.950 . S
C277 C276 1.405 . S
C277 C278 1.367 . S
C278 H252 0.950 . S
C278 C273 1.386 . S
C278 C277 1.367 . S
C279 C273 1.483 . S
C279 C280 1.382 . S
C279 C281 1.403 . S
C280 H253 0.950 . S
C280 C266 1.411 . S
C280 C279 1.382 . S
C281 C265 1.411 . S
C281 C279 1.403 . S
C281 C282 1.489 . S
C282 C281 1.489 . S
C282 C283 1.383 . S
C282 C287 1.382 . S
C283 H254 0.950 . S
C283 C282 1.383 . S
C283 C284 1.395 . S
C284 H255 0.950 . S
C284 C283 1.395 . S
C284 C285 1.288 . S
C285 C284 1.288 . S
C285 C286 1.392 . S
C286 H256 0.951 . S
C286 C285 1.392 . S
C286 C287 1.392 . S
C287 H257 0.949 . S
C287 C282 1.382 . S
C287 C286 1.392 . S
H288 C307 0.949 1_554 S
H289 C308 0.950 . S
H290 C310 0.950 . S
H291 C311 0.950 . S
H292 C313 0.948 1_556 S
H293 C316 0.950 . S
H294 C317 0.950 . S
H295 C319 0.951 . S
H296 C320 0.949 . S
H297 C322 0.949 . S
H298 C323 0.950 . S
H299 C325 0.950 . S
H300 C326 0.950 . S
H301 C328 0.950 . S
H302 C331 0.950 . S
H303 C332 0.950 . S
H304 C334 0.951 . S
H305 C335 0.949 . S
C306 C307 1.376 . S
C306 C311 1.386 . S
C306 C312 1.483 1_556 S
C307 H288 0.949 1_556 S
C307 C306 1.376 . S
C307 C308 1.397 . S
C308 H289 0.950 . S
C308 C307 1.397 . S
C308 C309 1.391 . S
C309 C308 1.391 . S
C309 C310 1.405 . S
C310 H290 0.950 . S
C310 C309 1.405 . S
C310 C311 1.367 . S
C311 H291 0.950 . S
C311 C306 1.386 . S
C311 C310 1.367 . S
C312 C306 1.483 1_554 S
C312 C313 1.383 . S
C312 C314 1.403 . S
C313 H292 0.948 1_554 S
C313 C312 1.383 . S
C313 C329 1.412 . S
C314 C312 1.403 . S
C314 C315 1.489 . S
C314 C328 1.411 . S
C315 C314 1.489 . S
C315 C316 1.383 . S
C315 C320 1.382 . S
C316 H293 0.950 . S
C316 C315 1.383 . S
C316 C317 1.395 . S
C317 H294 0.950 . S
C317 C316 1.395 . S
C317 C318 1.288 . S
C318 C317 1.288 . S
C318 C319 1.392 . S
C319 H295 0.951 . S
C319 C318 1.392 . S
C319 C320 1.392 . S
C320 H296 0.949 . S
C320 C315 1.382 . S
C320 C319 1.392 . S
C321 C322 1.376 . S
C321 C326 1.386 . S
C321 C327 1.483 . S
C322 H297 0.949 . S
C322 C321 1.376 . S
C322 C323 1.397 . S
C323 H298 0.950 . S
C323 C322 1.397 . S
C323 C324 1.391 . S
C324 C323 1.391 . S
C324 C325 1.405 . S
C325 H299 0.950 . S
C325 C324 1.405 . S
C325 C326 1.367 . S
C326 H300 0.950 . S
C326 C321 1.386 . S
C326 C325 1.367 . S
C327 C321 1.483 . S
C327 C328 1.382 . S
C327 C329 1.403 . S
C328 H301 0.950 . S
C328 C314 1.411 . S
C328 C327 1.382 . S
C329 C313 1.412 . S
C329 C327 1.403 . S
C329 C330 1.489 1_554 S
C330 C329 1.489 1_556 S
C330 C331 1.383 . S
C330 C335 1.382 . S
C331 H302 0.950 . S
C331 C330 1.383 . S
C331 C332 1.395 . S
C332 H303 0.950 . S
C332 C331 1.395 . S
C332 C333 1.288 . S
C333 C332 1.288 . S
C333 C334 1.392 . S
C334 H304 0.951 . S
C334 C333 1.392 . S
C334 C335 1.392 . S
C335 H305 0.949 . S
C335 C330 1.382 . S
C335 C334 1.392 . S
H336 C355 0.949 . S
H337 C356 0.950 . S
H338 C358 0.950 . S
H339 C359 0.950 . S
H340 C361 0.950 . S
H341 C364 0.950 . S
H342 C365 0.950 . S
H343 C367 0.951 . S
H344 C368 0.949 . S
H345 C370 0.949 . S
H346 C371 0.950 . S
H347 C373 0.950 . S
H348 C374 0.950 . S
H349 C376 0.950 . S
H350 C379 0.950 . S
H351 C380 0.950 . S
H352 C382 0.951 . S
H353 C383 0.949 . S
C354 C355 1.376 . S
C354 C359 1.386 . S
C354 C360 1.483 . S
C355 H336 0.949 . S
C355 C354 1.376 . S
C355 C356 1.397 . S
C356 H337 0.950 . S
C356 C355 1.397 . S
C356 C357 1.391 . S
C357 C356 1.391 . S
C357 C358 1.405 . S
C358 H338 0.950 . S
C358 C357 1.405 . S
C358 C359 1.367 . S
C359 H339 0.950 . S
C359 C354 1.386 . S
C359 C358 1.367 . S
C360 C354 1.483 . S
C360 C361 1.382 . S
C360 C362 1.403 . S
C361 H340 0.950 . S
C361 C360 1.382 . S
C361 C377 1.411 1_655 S
C362 C360 1.403 . S
C362 C363 1.489 . S
C362 C376 1.411 1_655 S
C363 C362 1.489 . S
C363 C364 1.383 . S
C363 C368 1.382 . S
C364 H341 0.950 . S
C364 C363 1.383 . S
C364 C365 1.395 . S
C365 H342 0.950 . S
C365 C364 1.395 . S
C365 C366 1.288 . S
C366 C365 1.288 . S
C366 C367 1.392 . S
C367 H343 0.951 . S
C367 C366 1.392 . S
C367 C368 1.392 . S
C368 H344 0.949 . S
C368 C363 1.382 . S
C368 C367 1.392 . S
C369 C370 1.376 . S
C369 C374 1.386 . S
C369 C375 1.483 . S
C370 H345 0.949 . S
C370 C369 1.376 . S
C370 C371 1.397 . S
C371 H346 0.950 . S
C371 C370 1.397 . S
C371 C372 1.391 . S
C372 C371 1.391 . S
C372 C373 1.405 . S
C373 H347 0.950 . S
C373 C372 1.405 . S
C373 C374 1.367 . S
C374 H348 0.950 . S
C374 C369 1.386 . S
C374 C373 1.367 . S
C375 C369 1.483 . S
C375 C376 1.382 . S
C375 C377 1.403 . S
C376 H349 0.950 . S
C376 C362 1.411 1_455 S
C376 C375 1.382 . S
C377 C361 1.411 1_455 S
C377 C375 1.403 . S
C377 C378 1.489 . S
C378 C377 1.489 . S
C378 C379 1.383 . S
C378 C383 1.382 . S
C379 H350 0.950 . S
C379 C378 1.383 . S
C379 C380 1.395 . S
C380 H351 0.950 . S
C380 C379 1.395 . S
C380 C381 1.288 . S
C381 C380 1.288 . S
C381 C382 1.392 . S
C382 H352 0.951 . S
C382 C381 1.392 . S
C382 C383 1.392 . S
C383 H353 0.949 . S
C383 C378 1.382 . S
C383 C382 1.392 . S
Fe384 O385 1.886 . S
Fe384 O388 1.715 1_455 S
Fe384 O393 2.077 . S
Fe384 O398 1.935 1_455 S
Fe384 O404 2.077 . S
Fe384 O413 1.935 1_455 S
O385 Fe384 1.886 . S
O385 Fe387 1.715 . S
Fe386 O388 1.886 . S
Fe386 O389 1.715 . S
Fe386 O396 1.935 . S
Fe386 O397 2.077 . S
Fe386 O403 1.935 . S
Fe386 O412 2.077 . S
Fe387 O385 1.715 . S
Fe387 O390 1.886 . S
Fe387 O394 1.935 . S
Fe387 O399 2.077 . S
Fe387 O405 1.935 . S
Fe387 O409 2.077 . S
O388 Fe384 1.715 1_655 S
O388 Fe386 1.886 . S
O389 Fe386 1.715 . S
O389 Fe391 1.901 . S
O390 Fe387 1.886 . S
O390 Fe391 1.699 1_455 S
Fe391 O389 1.901 . S
Fe391 O390 1.699 1_655 S
Fe391 O395 2.091 . S
Fe391 O400 1.923 1_655 S
Fe391 O402 2.091 . S
Fe391 O410 1.923 1_655 S
C392 O404 1.381 . S
C392 O405 1.421 . S
O393 Fe384 2.077 . S
O393 C406 1.381 . S
O394 Fe387 1.935 . S
O394 C406 1.421 . S
O395 Fe391 2.091 . S
O395 C411 1.381 . S
O396 Fe386 1.935 . S
O396 C411 1.421 . S
O397 Fe386 2.077 . S
O397 C401 1.381 . S
O398 Fe384 1.935 1_655 S
O398 C401 1.421 . S
O399 Fe387 2.077 . S
O399 C407 1.381 . S
O400 Fe391 1.923 1_455 S
O400 C407 1.421 . S
C401 O397 1.381 . S
C401 O398 1.421 . S
O402 Fe391 2.091 . S
O402 C414 1.381 . S
O403 Fe386 1.935 . S
O403 C414 1.421 . S
O404 Fe384 2.077 . S
O404 C392 1.381 . S
O405 Fe387 1.935 . S
O405 C392 1.421 . S
C406 O393 1.381 . S
C406 O394 1.421 . S
C407 O399 1.381 . S
C407 O400 1.421 . S
C408 O409 1.381 . S
C408 O410 1.421 . S
O409 Fe387 2.077 . S
O409 C408 1.381 . S
O410 Fe391 1.923 1_455 S
O410 C408 1.421 . S
C411 O395 1.381 . S
C411 O396 1.421 . S
O412 Fe386 2.077 . S
O412 C415 1.381 . S
O413 Fe384 1.935 1_655 S
O413 C415 1.421 . S
C414 O402 1.381 . S
C414 O403 1.421 . S
C415 O412 1.381 . S
C415 O413 1.421 . S
Fe416 O417 1.886 . S
Fe416 O420 1.715 . S
Fe416 O425 2.077 . S
Fe416 O430 1.935 . S
Fe416 O436 2.077 . S
Fe416 O445 1.935 . S
O417 Fe416 1.886 . S
O417 Fe419 1.715 . S
Fe418 O420 1.886 . S
Fe418 O421 1.715 . S
Fe418 O428 1.935 . S
Fe418 O429 2.077 . S
Fe418 O435 1.935 . S
Fe418 O444 2.077 . S
Fe419 O417 1.715 . S
Fe419 O422 1.886 . S
Fe419 O426 1.935 . S
Fe419 O431 2.077 . S
Fe419 O437 1.935 . S
Fe419 O441 2.077 . S
O420 Fe416 1.715 . S
O420 Fe418 1.886 . S
O421 Fe418 1.715 . S
O421 Fe423 1.886 . S
O422 Fe419 1.886 . S
O422 Fe423 1.715 . S
Fe423 O421 1.886 . S
Fe423 O422 1.715 . S
Fe423 O427 2.077 . S
Fe423 O432 1.935 . S
Fe423 O434 2.077 . S
Fe423 O442 1.935 . S
C424 O436 1.381 . S
C424 O437 1.421 . S
O425 Fe416 2.077 . S
O425 C438 1.381 . S
O426 Fe419 1.935 . S
O426 C438 1.421 . S
O427 Fe423 2.077 . S
O427 C443 1.381 . S
O428 Fe418 1.935 . S
O428 C443 1.421 . S
O429 Fe418 2.077 . S
O429 C433 1.381 . S
O430 Fe416 1.935 . S
O430 C433 1.421 . S
O431 Fe419 2.077 . S
O431 C439 1.381 . S
O432 Fe423 1.935 . S
O432 C439 1.421 . S
C433 O429 1.381 . S
C433 O430 1.421 . S
O434 Fe423 2.077 . S
O434 C446 1.381 . S
O435 Fe418 1.935 . S
O435 C446 1.421 . S
O436 Fe416 2.077 . S
O436 C424 1.381 . S
O437 Fe419 1.935 . S
O437 C424 1.421 . S
C438 O425 1.381 . S
C438 O426 1.421 . S
C439 O431 1.381 . S
C439 O432 1.421 . S
C440 O441 1.381 . S
C440 O442 1.421 . S
O441 Fe419 2.077 . S
O441 C440 1.381 . S
O442 Fe423 1.935 . S
O442 C440 1.421 . S
C443 O427 1.381 . S
C443 O428 1.421 . S
O444 Fe418 2.077 . S
O444 C447 1.381 . S
O445 Fe416 1.935 . S
O445 C447 1.421 . S
C446 O434 1.381 . S
C446 O435 1.421 . S
C447 O444 1.381 . S
C447 O445 1.421 . S
Fe448 O449 1.886 . S
Fe448 O452 1.715 . S
Fe448 O457 2.077 . S
Fe448 O462 1.935 . S
Fe448 O468 2.077 . S
Fe448 O477 1.935 . S
O449 Fe448 1.886 . S
O449 Fe451 1.715 . S
Fe450 O452 1.886 . S
Fe450 O453 1.715 . S
Fe450 O460 1.935 . S
Fe450 O461 2.077 . S
Fe450 O467 1.935 . S
Fe450 O476 2.077 . S
Fe451 O449 1.715 . S
Fe451 O454 1.886 . S
Fe451 O458 1.935 . S
Fe451 O463 2.077 . S
Fe451 O469 1.935 . S
Fe451 O473 2.077 . S
O452 Fe448 1.715 . S
O452 Fe450 1.886 . S
O453 Fe450 1.715 . S
O453 Fe455 1.886 . S
O454 Fe451 1.886 . S
O454 Fe455 1.715 . S
Fe455 O453 1.886 . S
Fe455 O454 1.715 . S
Fe455 O459 2.077 . S
Fe455 O464 1.935 . S
Fe455 O466 2.077 . S
Fe455 O474 1.935 . S
C456 O468 1.381 . S
C456 O469 1.421 . S
O457 Fe448 2.077 . S
O457 C470 1.381 . S
O458 Fe451 1.935 . S
O458 C470 1.421 . S
O459 Fe455 2.077 . S
O459 C475 1.381 . S
O460 Fe450 1.935 . S
O460 C475 1.421 . S
O461 Fe450 2.077 . S
O461 C465 1.381 . S
O462 Fe448 1.935 . S
O462 C465 1.421 . S
O463 Fe451 2.077 . S
O463 C471 1.381 . S
O464 Fe455 1.935 . S
O464 C471 1.421 . S
C465 O461 1.381 . S
C465 O462 1.421 . S
O466 Fe455 2.077 . S
O466 C478 1.381 . S
O467 Fe450 1.935 . S
O467 C478 1.421 . S
O468 Fe448 2.077 . S
O468 C456 1.381 . S
O469 Fe451 1.935 . S
O469 C456 1.421 . S
C470 O457 1.381 . S
C470 O458 1.421 . S
C471 O463 1.381 . S
C471 O464 1.421 . S
C472 O473 1.381 . S
C472 O474 1.421 . S
O473 Fe451 2.077 . S
O473 C472 1.381 . S
O474 Fe455 1.935 . S
O474 C472 1.421 . S
C475 O459 1.381 . S
C475 O460 1.421 . S
O476 Fe450 2.077 . S
O476 C479 1.381 . S
O477 Fe448 1.935 . S
O477 C479 1.421 . S
C478 O466 1.381 . S
C478 O467 1.421 . S
C479 O476 1.381 . S
C479 O477 1.421 . S
Fe480 O481 1.886 . S
Fe480 O484 1.715 . S
Fe480 O489 2.077 1_455 S
Fe480 O494 1.935 1_455 S
Fe480 O500 2.077 . S
Fe480 O509 1.936 . S
O481 Fe480 1.886 . S
O481 Fe483 1.715 . S
Fe482 O484 1.886 . S
Fe482 O485 1.715 . S
Fe482 O492 1.935 1_455 S
Fe482 O493 2.077 1_455 S
Fe482 O499 1.935 . S
Fe482 O508 2.077 . S
Fe483 O481 1.715 . S
Fe483 O486 1.886 . S
Fe483 O490 1.935 1_455 S
Fe483 O495 2.077 1_455 S
Fe483 O501 1.935 . S
Fe483 O505 2.077 . S
O484 Fe480 1.715 . S
O484 Fe482 1.886 . S
O485 Fe482 1.715 . S
O485 Fe487 1.886 . S
O486 Fe483 1.886 . S
O486 Fe487 1.715 . S
Fe487 O485 1.886 . S
Fe487 O486 1.715 . S
Fe487 O491 2.077 1_455 S
Fe487 O496 1.936 1_455 S
Fe487 O498 2.077 . S
Fe487 O506 1.935 . S
C488 O500 1.381 . S
C488 O501 1.421 . S
O489 Fe480 2.077 1_655 S
O489 C502 1.381 . S
O490 Fe483 1.935 1_655 S
O490 C502 1.421 . S
O491 Fe487 2.077 1_655 S
O491 C507 1.381 . S
O492 Fe482 1.935 1_655 S
O492 C507 1.421 . S
O493 Fe482 2.077 1_655 S
O493 C497 1.381 . S
O494 Fe480 1.935 1_655 S
O494 C497 1.421 . S
O495 Fe483 2.077 1_655 S
O495 C503 1.381 . S
O496 Fe487 1.936 1_655 S
O496 C503 1.421 . S
C497 O493 1.381 . S
C497 O494 1.421 . S
O498 Fe487 2.077 . S
O498 C510 1.381 . S
O499 Fe482 1.935 . S
O499 C510 1.421 . S
O500 Fe480 2.077 . S
O500 C488 1.381 . S
O501 Fe483 1.935 . S
O501 C488 1.421 . S
C502 O489 1.381 . S
C502 O490 1.421 . S
C503 O495 1.381 . S
C503 O496 1.421 . S
C504 O505 1.381 . S
C504 O506 1.421 . S
O505 Fe483 2.077 . S
O505 C504 1.381 . S
O506 Fe487 1.935 . S
O506 C504 1.421 . S
C507 O491 1.381 . S
C507 O492 1.421 . S
O508 Fe482 2.077 . S
O508 C511 1.381 . S
O509 Fe480 1.936 . S
O509 C511 1.421 . S
C510 O498 1.381 . S
C510 O499 1.421 . S
C511 O508 1.381 . S
C511 O509 1.421 . S
H512 C520 0.929 . S
H513 C522 0.930 . S
H514 C524 0.930 . S
H515 C527 0.947 . S
H516 C530 0.930 . S
H517 C532 0.960 . S
H518 C532 0.960 . S
H519 C532 0.960 . S
C520 H512 0.929 . S
C520 C521 1.377 . S
C520 C522 1.384 . S
C521 C520 1.377 . S
C521 C527 1.390 . S
C522 H513 0.930 . S
C522 C520 1.384 . S
C522 C523 1.372 . S
C523 C522 1.372 . S
C523 C524 1.400 . S
C523 C528 1.490 . S
C524 H514 0.930 . S
C524 C523 1.400 . S
C524 C527 1.386 . S
H525 C541 0.930 . S
H526 C542 0.931 . S
C527 H515 0.947 . S
C527 C521 1.390 . S
C527 C524 1.386 . S
C528 C523 1.490 . S
C528 C530 1.395 . S
C528 C531 1.403 . S
H529 C535 0.930 . S
C530 H516 0.930 . S
C530 C528 1.395 . S
C530 C533 1.403 . S
C531 C528 1.403 . S
C531 C532 1.524 . S
C531 C535 1.400 . S
C532 H517 0.960 . S
C532 H518 0.960 . S
C532 H519 0.960 . S
C532 C531 1.524 . S
C533 C530 1.403 . S
C533 C534 1.392 . S
C533 C537 1.495 . S
C534 C533 1.392 . S
C534 C535 1.385 . S
C534 C536 1.478 . S
C535 H529 0.930 . S
C535 C531 1.400 . S
C535 C534 1.385 . S
C536 C534 1.478 . S
C536 C538 1.381 . S
C536 C542 1.383 . S
C537 C533 1.495 . S
C537 H543 0.959 . S
C537 H544 0.961 . S
C537 H545 0.960 . S
C538 C536 1.381 . S
C538 C539 1.394 . S
C538 H546 0.930 . S
C539 C538 1.394 . S
C539 C540 1.383 . S
C539 H547 0.929 . S
C540 C539 1.383 . S
C540 C541 1.377 . S
C541 H525 0.930 . S
C541 C540 1.377 . S
C541 C542 1.379 . S
C542 H526 0.931 . S
C542 C536 1.383 . S
C542 C541 1.379 . S
H543 C537 0.959 . S
H544 C537 0.961 . S
H545 C537 0.960 . S
H546 C538 0.930 . S
H547 C539 0.929 . S
H548 C556 0.929 . S
H549 C558 0.930 . S
H550 C560 0.930 . S
H551 C563 0.929 . S
H552 C566 0.930 . S
H553 C568 0.960 . S
H554 C568 0.960 . S
H555 C568 0.960 . S
C556 H548 0.929 . S
C556 C557 1.377 . S
C556 C558 1.384 . S
C557 C556 1.377 . S
C557 C563 1.390 . S
C558 H549 0.930 . S
C558 C556 1.384 . S
C558 C559 1.372 . S
C559 C558 1.372 . S
C559 C560 1.400 . S
C559 C564 1.490 1_565 S
C560 H550 0.930 . S
C560 C559 1.400 . S
C560 C563 1.386 . S
H561 C577 0.930 . S
H562 C578 0.931 . S
C563 H551 0.929 . S
C563 C557 1.390 . S
C563 C560 1.386 . S
C564 C559 1.490 1_545 S
C564 C566 1.395 . S
C564 C567 1.403 . S
H565 C571 0.930 . S
C566 H552 0.930 . S
C566 C564 1.395 . S
C566 C569 1.403 . S
C567 C564 1.403 . S
C567 C568 1.524 1_545 S
C567 C571 1.400 . S
C568 H553 0.960 . S
C568 H554 0.960 . S
C568 H555 0.960 . S
C568 C567 1.524 1_565 S
C569 C566 1.403 . S
C569 C570 1.392 . S
C569 C573 1.495 . S
C570 C569 1.392 . S
C570 C571 1.385 . S
C570 C572 1.478 . S
C571 H565 0.930 . S
C571 C567 1.400 . S
C571 C570 1.385 . S
C572 C570 1.478 . S
C572 C574 1.381 . S
C572 C578 1.383 . S
C573 C569 1.495 . S
C573 H579 0.959 . S
C573 H580 0.961 . S
C573 H581 0.960 . S
C574 C572 1.381 . S
C574 C575 1.394 . S
C574 H582 0.930 . S
C575 C574 1.394 . S
C575 C576 1.383 . S
C575 H583 0.929 . S
C576 C575 1.383 . S
C576 C577 1.377 . S
C577 H561 0.930 . S
C577 C576 1.377 . S
C577 C578 1.379 . S
C578 H562 0.931 . S
C578 C572 1.383 . S
C578 C577 1.379 . S
H579 C573 0.959 . S
H580 C573 0.961 . S
H581 C573 0.960 . S
H582 C574 0.930 . S
H583 C575 0.929 . S
H584 C592 0.929 . S
H585 C594 0.930 . S
H586 C596 0.930 . S
H587 C599 0.929 . S
H588 C602 0.930 . S
H589 C604 0.960 . S
H590 C604 0.960 . S
H591 C604 0.960 . S
C592 H584 0.929 . S
C592 C593 1.377 . S
C592 C594 1.384 . S
C593 C592 1.377 . S
C593 C599 1.390 . S
C594 H585 0.930 . S
C594 C592 1.384 . S
C594 C595 1.372 . S
C595 C594 1.372 . S
C595 C596 1.400 . S
C595 C600 1.490 . S
C596 H586 0.930 . S
C596 C595 1.400 . S
C596 C599 1.386 . S
H597 C613 0.930 . S
H598 C614 0.931 . S
C599 H587 0.929 . S
C599 C593 1.390 . S
C599 C596 1.386 . S
C600 C595 1.490 . S
C600 C602 1.395 . S
C600 C603 1.403 . S
H601 C607 0.930 . S
C602 H588 0.930 . S
C602 C600 1.395 . S
C602 C605 1.403 . S
C603 C600 1.403 . S
C603 C604 1.524 . S
C603 C607 1.400 . S
C604 H589 0.960 . S
C604 H590 0.960 . S
C604 H591 0.960 . S
C604 C603 1.524 . S
C605 C602 1.403 . S
C605 C606 1.392 . S
C605 C609 1.495 . S
C606 C605 1.392 . S
C606 C607 1.385 . S
C606 C608 1.478 . S
C607 H601 0.930 . S
C607 C603 1.400 . S
C607 C606 1.385 . S
C608 C606 1.478 . S
C608 C610 1.381 . S
C608 C614 1.383 . S
C609 C605 1.495 . S
C609 H615 0.959 . S
C609 H616 0.961 . S
C609 H617 0.960 . S
C610 C608 1.381 . S
C610 C611 1.394 . S
C610 H618 0.930 . S
C611 C610 1.394 . S
C611 C612 1.383 . S
C611 H619 0.929 . S
C612 C611 1.383 . S
C612 C613 1.377 . S
C613 H597 0.930 . S
C613 C612 1.377 . S
C613 C614 1.379 . S
C614 H598 0.931 . S
C614 C608 1.383 . S
C614 C613 1.379 . S
H615 C609 0.959 . S
H616 C609 0.961 . S
H617 C609 0.960 . S
H618 C610 0.930 . S
H619 C611 0.929 . S
H620 C628 0.929 . S
H621 C630 0.930 . S
H622 C632 0.930 . S
H623 C635 0.929 . S
H624 C638 0.930 . S
H625 C640 0.960 . S
H626 C640 0.960 . S
H627 C640 0.960 . S
C628 H620 0.929 . S
C628 C629 1.377 . S
C628 C630 1.384 . S
C629 C628 1.377 . S
C629 C635 1.390 . S
C630 H621 0.930 . S
C630 C628 1.384 . S
C630 C631 1.372 . S
C631 C630 1.372 . S
C631 C632 1.400 . S
C631 C636 1.490 1_545 S
C632 H622 0.930 . S
C632 C631 1.400 . S
C632 C635 1.386 . S
H633 C649 0.930 . S
H634 C650 0.931 . S
C635 H623 0.929 . S
C635 C629 1.390 . S
C635 C632 1.386 . S
C636 C631 1.490 1_565 S
C636 C638 1.395 . S
C636 C639 1.403 . S
H637 C643 0.930 . S
C638 H624 0.930 . S
C638 C636 1.395 . S
C638 C641 1.403 . S
C639 C636 1.403 . S
C639 C640 1.524 1_565 S
C639 C643 1.400 . S
C640 H625 0.960 . S
C640 H626 0.960 . S
C640 H627 0.960 . S
C640 C639 1.524 1_545 S
C641 C638 1.403 . S
C641 C642 1.392 . S
C641 C645 1.495 . S
C642 C641 1.392 . S
C642 C643 1.385 . S
C642 C644 1.478 . S
C643 H637 0.930 . S
C643 C639 1.400 . S
C643 C642 1.385 . S
C644 C642 1.478 . S
C644 C646 1.381 . S
C644 C650 1.383 . S
C645 C641 1.495 . S
C645 H651 0.959 . S
C645 H652 0.961 . S
C645 H653 0.960 . S
C646 C644 1.381 . S
C646 C647 1.394 . S
C646 H654 0.930 . S
C647 C646 1.394 . S
C647 C648 1.383 . S
C647 H655 0.929 . S
C648 C647 1.383 . S
C648 C649 1.377 . S
C649 H633 0.930 . S
C649 C648 1.377 . S
C649 C650 1.379 . S
C650 H634 0.931 . S
C650 C644 1.383 . S
C650 C649 1.379 . S
H651 C645 0.959 . S
H652 C645 0.961 . S
H653 C645 0.960 . S
H654 C646 0.930 . S
H655 C647 0.929 . S
H656 C664 0.929 . S
H657 C666 0.930 . S
H658 C668 0.930 . S
H659 C671 0.929 . S
H660 C674 0.930 . S
H661 C676 0.960 . S
H662 C676 0.960 . S
H663 C676 0.960 . S
C664 H656 0.929 . S
C664 C665 1.377 . S
C664 C666 1.384 . S
C665 C664 1.377 . S
C665 C671 1.390 . S
C666 H657 0.930 . S
C666 C664 1.384 . S
C666 C667 1.372 . S
C667 C666 1.372 . S
C667 C668 1.400 . S
C667 C672 1.490 . S
C668 H658 0.930 . S
C668 C667 1.400 . S
C668 C671 1.386 . S
H669 C685 0.930 . S
H670 C686 0.931 . S
C671 H659 0.929 . S
C671 C665 1.390 . S
C671 C668 1.386 . S
C672 C667 1.490 . S
C672 C674 1.395 . S
C672 C675 1.403 . S
H673 C679 0.930 . S
C674 H660 0.930 . S
C674 C672 1.395 . S
C674 C677 1.403 . S
C675 C672 1.403 . S
C675 C676 1.524 . S
C675 C679 1.400 . S
C676 H661 0.960 . S
C676 H662 0.960 . S
C676 H663 0.960 . S
C676 C675 1.524 . S
C677 C674 1.403 . S
C677 C678 1.392 . S
C677 C681 1.495 . S
C678 C677 1.392 . S
C678 C679 1.385 . S
C678 C680 1.478 . S
C679 H673 0.930 . S
C679 C675 1.400 . S
C679 C678 1.385 . S
C680 C678 1.478 . S
C680 C682 1.381 . S
C680 C686 1.383 . S
C681 C677 1.495 . S
C681 H687 0.959 . S
C681 H688 0.961 . S
C681 H689 0.960 . S
C682 C680 1.381 . S
C682 C683 1.394 . S
C682 H690 0.930 . S
C683 C682 1.394 . S
C683 C684 1.383 . S
C683 H691 0.929 . S
C684 C683 1.383 . S
C684 C685 1.377 . S
C685 H669 0.930 . S
C685 C684 1.377 . S
C685 C686 1.379 . S
C686 H670 0.931 . S
C686 C680 1.383 . S
C686 C685 1.379 . S
H687 C681 0.959 . S
H688 C681 0.961 . S
H689 C681 0.960 . S
H690 C682 0.930 . S
H691 C683 0.929 . S
H692 C700 0.929 . S
H693 C702 0.930 . S
H694 C704 0.930 . S
H695 C707 0.929 . S
H696 C710 0.927 1_565 S
H697 C712 0.960 . S
H698 C712 0.960 . S
H699 C712 0.960 . S
C700 H692 0.929 . S
C700 C701 1.377 . S
C700 C702 1.384 . S
C701 C700 1.377 . S
C701 C707 1.390 . S
C702 H693 0.930 . S
C702 C700 1.384 . S
C702 C703 1.372 . S
C703 C702 1.372 . S
C703 C704 1.400 . S
C703 C708 1.490 1_565 S
C704 H694 0.930 . S
C704 C703 1.400 . S
C704 C707 1.386 . S
H705 C721 0.930 . S
H706 C722 0.931 . S
C707 H695 0.929 . S
C707 C701 1.390 . S
C707 C704 1.386 . S
C708 C703 1.490 1_545 S
C708 C710 1.395 . S
C708 C711 1.403 . S
H709 C715 0.930 . S
C710 H696 0.927 1_545 S
C710 C708 1.395 . S
C710 C713 1.403 . S
C711 C708 1.403 . S
C711 C712 1.524 . S
C711 C715 1.400 . S
C712 H697 0.960 . S
C712 H698 0.960 . S
C712 H699 0.960 . S
C712 C711 1.524 . S
C713 C710 1.403 . S
C713 C714 1.392 . S
C713 C717 1.495 . S
C714 C713 1.392 . S
C714 C715 1.385 . S
C714 C716 1.478 . S
C715 H709 0.930 . S
C715 C711 1.400 . S
C715 C714 1.385 . S
C716 C714 1.478 . S
C716 C718 1.381 . S
C716 C722 1.383 . S
C717 C713 1.495 . S
C717 H723 0.959 . S
C717 H724 0.961 . S
C717 H725 0.960 . S
C718 C716 1.381 . S
C718 C719 1.394 . S
C718 H726 0.930 . S
C719 C718 1.394 . S
C719 C720 1.383 . S
C719 H727 0.929 . S
C720 C719 1.383 . S
C720 C721 1.377 . S
C721 H705 0.930 . S
C721 C720 1.377 . S
C721 C722 1.379 . S
C722 H706 0.931 . S
C722 C716 1.383 . S
C722 C721 1.379 . S
H723 C717 0.959 . S
H724 C717 0.961 . S
H725 C717 0.960 . S
H726 C718 0.930 . S
H727 C719 0.929 . S
H728 C736 0.929 . S
H729 C738 0.930 . S
H730 C740 0.930 . S
H731 C743 0.929 . S
H732 C746 0.930 . S
H733 C748 0.960 . S
H734 C748 0.960 . S
H735 C748 0.960 . S
C736 H728 0.929 . S
C736 C737 1.377 . S
C736 C738 1.384 . S
C737 C736 1.377 . S
C737 C743 1.390 . S
C738 H729 0.930 . S
C738 C736 1.384 . S
C738 C739 1.372 . S
C739 C738 1.372 . S
C739 C740 1.400 . S
C739 C744 1.490 . S
C740 H730 0.930 . S
C740 C739 1.400 . S
C740 C743 1.386 . S
H741 C757 0.930 . S
H742 C758 0.931 . S
C743 H731 0.929 . S
C743 C737 1.390 . S
C743 C740 1.386 . S
C744 C739 1.490 . S
C744 C746 1.395 . S
C744 C747 1.403 . S
H745 C751 0.930 . S
C746 H732 0.930 . S
C746 C744 1.395 . S
C746 C749 1.403 . S
C747 C744 1.403 . S
C747 C748 1.524 . S
C747 C751 1.400 . S
C748 H733 0.960 . S
C748 H734 0.960 . S
C748 H735 0.960 . S
C748 C747 1.524 . S
C749 C746 1.403 . S
C749 C750 1.392 . S
C749 C753 1.495 . S
C750 C749 1.392 . S
C750 C751 1.385 . S
C750 C752 1.478 . S
C751 H745 0.930 . S
C751 C747 1.400 . S
C751 C750 1.385 . S
C752 C750 1.478 . S
C752 C754 1.381 . S
C752 C758 1.383 . S
C753 C749 1.495 . S
C753 H759 0.959 . S
C753 H760 0.961 . S
C753 H761 0.960 . S
C754 C752 1.381 . S
C754 C755 1.394 . S
C754 H762 0.930 . S
C755 C754 1.394 . S
C755 C756 1.383 . S
C755 H763 0.929 . S
C756 C755 1.383 . S
C756 C757 1.377 . S
C757 H741 0.930 . S
C757 C756 1.377 . S
C757 C758 1.379 . S
C758 H742 0.931 . S
C758 C752 1.383 . S
C758 C757 1.379 . S
H759 C753 0.959 . S
H760 C753 0.961 . S
H761 C753 0.960 . S
H762 C754 0.930 . S
H763 C755 0.929 . S
H764 C772 0.929 . S
H765 C774 0.930 . S
H766 C776 0.930 . S
H767 C779 0.929 . S
H768 C782 0.930 . S
H769 C784 0.959 1_565 S
H770 C784 0.960 1_565 S
H771 C784 0.962 . S
C772 H764 0.929 . S
C772 C773 1.377 . S
C772 C774 1.384 . S
C773 C772 1.377 . S
C773 C779 1.390 . S
C774 H765 0.930 . S
C774 C772 1.384 . S
C774 C775 1.372 . S
C775 C774 1.372 . S
C775 C776 1.400 . S
C775 C780 1.490 1_545 S
C776 H766 0.930 . S
C776 C775 1.400 . S
C776 C779 1.386 . S
H777 C793 0.930 . S
H778 C794 0.931 . S
C779 H767 0.929 . S
C779 C773 1.390 . S
C779 C776 1.386 . S
C780 C775 1.490 1_565 S
C780 C782 1.395 . S
C780 C783 1.403 . S
H781 C787 0.930 . S
C782 H768 0.930 . S
C782 C780 1.395 . S
C782 C785 1.403 . S
C783 C780 1.403 . S
C783 C784 1.523 1_565 S
C783 C787 1.400 . S
C784 H769 0.959 1_545 S
C784 H770 0.960 1_545 S
C784 H771 0.962 . S
C784 C783 1.523 1_545 S
C785 C782 1.403 . S
C785 C786 1.392 . S
C785 C789 1.495 . S
C786 C785 1.392 . S
C786 C787 1.385 . S
C786 C788 1.478 . S
C787 H781 0.930 . S
C787 C783 1.400 . S
C787 C786 1.385 . S
C788 C786 1.478 . S
C788 C790 1.381 . S
C788 C794 1.383 . S
C789 C785 1.495 . S
C789 H795 0.959 . S
C789 H796 0.961 . S
C789 H797 0.960 . S
C790 C788 1.381 . S
C790 C791 1.394 . S
C790 H798 0.930 . S
C791 C790 1.394 . S
C791 C792 1.383 . S
C791 H799 0.929 . S
C792 C791 1.383 . S
C792 C793 1.377 . S
C793 H777 0.930 . S
C793 C792 1.377 . S
C793 C794 1.379 . S
C794 H778 0.931 . S
C794 C788 1.383 . S
C794 C793 1.379 . S
H795 C789 0.959 . S
H796 C789 0.961 . S
H797 C789 0.960 . S
H798 C790 0.930 . S
H799 C791 0.929 . S
H800 C808 0.929 . S
H801 C810 0.930 . S
H802 C812 0.930 . S
H803 C815 0.929 . S
H804 C818 0.930 . S
H805 C820 0.960 . S
H806 C820 0.960 . S
H807 C820 0.960 . S
C808 H800 0.929 . S
C808 C809 1.377 . S
C808 C810 1.384 . S
C809 C808 1.377 . S
C809 C815 1.390 . S
C810 H801 0.930 . S
C810 C808 1.384 . S
C810 C811 1.372 . S
C811 C810 1.372 . S
C811 C812 1.400 . S
C811 C816 1.490 . S
C812 H802 0.930 . S
C812 C811 1.400 . S
C812 C815 1.386 . S
H813 C829 0.930 . S
H814 C830 0.931 . S
C815 H803 0.929 . S
C815 C809 1.390 . S
C815 C812 1.386 . S
C816 C811 1.490 . S
C816 C818 1.395 . S
C816 C819 1.403 . S
H817 C823 0.930 . S
C818 H804 0.930 . S
C818 C816 1.395 . S
C818 C821 1.403 . S
C819 C816 1.403 . S
C819 C820 1.524 . S
C819 C823 1.400 . S
C820 H805 0.960 . S
C820 H806 0.960 . S
C820 H807 0.960 . S
C820 C819 1.524 . S
C821 C818 1.403 . S
C821 C822 1.392 . S
C821 C825 1.495 . S
C822 C821 1.392 . S
C822 C823 1.385 . S
C822 C824 1.478 . S
C823 H817 0.930 . S
C823 C819 1.400 . S
C823 C822 1.385 . S
C824 C822 1.478 . S
C824 C826 1.381 . S
C824 C830 1.383 . S
C825 C821 1.495 . S
C825 H831 0.959 . S
C825 H832 0.961 . S
C825 H833 0.960 . S
C826 C824 1.381 . S
C826 C827 1.394 . S
C826 H834 0.930 . S
C827 C826 1.394 . S
C827 C828 1.383 . S
C827 H835 0.929 . S
C828 C827 1.383 . S
C828 C829 1.377 . S
C829 H813 0.930 . S
C829 C828 1.377 . S
C829 C830 1.379 . S
C830 H814 0.931 . S
C830 C824 1.383 . S
C830 C829 1.379 . S
H831 C825 0.959 . S
H832 C825 0.961 . S
H833 C825 0.960 . S
H834 C826 0.930 . S
H835 C827 0.929 . S
H836 C844 0.929 . S
H837 C846 0.930 . S
H838 C848 0.930 . S
H839 C851 0.929 . S
H840 C854 0.930 . S
H841 C856 0.960 . S
H842 C856 0.960 . S
H843 C856 0.960 . S
C844 H836 0.929 . S
C844 C845 1.377 . S
C844 C846 1.384 . S
C845 C844 1.377 . S
C845 C851 1.390 . S
C846 H837 0.930 . S
C846 C844 1.384 . S
C846 C847 1.372 . S
C847 C846 1.372 . S
C847 C848 1.400 . S
C847 C852 1.490 1_545 S
C848 H838 0.930 . S
C848 C847 1.400 . S
C848 C851 1.386 . S
H849 C865 0.930 . S
H850 C866 0.931 . S
C851 H839 0.929 . S
C851 C845 1.390 . S
C851 C848 1.386 . S
C852 C847 1.490 1_565 S
C852 C854 1.395 . S
C852 C855 1.403 . S
H853 C859 0.930 . S
C854 H840 0.930 . S
C854 C852 1.395 . S
C854 C857 1.403 . S
C855 C852 1.403 . S
C855 C856 1.524 1_565 S
C855 C859 1.400 . S
C856 H841 0.960 . S
C856 H842 0.960 . S
C856 H843 0.960 . S
C856 C855 1.524 1_545 S
C857 C854 1.403 . S
C857 C858 1.392 . S
C857 C861 1.495 . S
C858 C857 1.392 . S
C858 C859 1.385 . S
C858 C860 1.478 . S
C859 H853 0.930 . S
C859 C855 1.400 . S
C859 C858 1.385 . S
C860 C858 1.478 . S
C860 C862 1.381 . S
C860 C866 1.383 . S
C861 C857 1.495 . S
C861 H867 0.959 . S
C861 H868 0.961 . S
C861 H869 0.960 . S
C862 C860 1.381 . S
C862 C863 1.394 . S
C862 H870 0.930 . S
C863 C862 1.394 . S
C863 C864 1.383 . S
C863 H871 0.929 . S
C864 C863 1.383 . S
C864 C865 1.377 . S
C865 H849 0.930 . S
C865 C864 1.377 . S
C865 C866 1.379 . S
C866 H850 0.931 . S
C866 C860 1.383 . S
C866 C865 1.379 . S
H867 C861 0.959 . S
H868 C861 0.961 . S
H869 C861 0.960 . S
H870 C862 0.930 . S
H871 C863 0.929 . S
H872 C880 0.929 . S
H873 C882 0.930 . S
H874 C884 0.930 . S
H875 C887 0.929 . S
H876 C890 0.930 . S
H877 C892 0.960 . S
H878 C892 0.960 . S
H879 C892 0.960 . S
C880 H872 0.929 . S
C880 C881 1.377 . S
C880 C882 1.384 . S
C881 C880 1.377 . S
C881 C887 1.390 . S
C882 H873 0.930 . S
C882 C880 1.384 . S
C882 C883 1.372 . S
C883 C882 1.372 . S
C883 C884 1.400 . S
C883 C888 1.490 . S
C884 H874 0.930 . S
C884 C883 1.400 . S
C884 C887 1.386 . S
H885 C901 0.930 . S
H886 C902 0.931 . S
C887 H875 0.929 . S
C887 C881 1.390 . S
C887 C884 1.386 . S
C888 C883 1.490 . S
C888 C890 1.395 . S
C888 C891 1.403 . S
H889 C895 0.930 . S
C890 H876 0.930 . S
C890 C888 1.395 . S
C890 C893 1.403 . S
C891 C888 1.403 . S
C891 C892 1.524 . S
C891 C895 1.400 . S
C892 H877 0.960 . S
C892 H878 0.960 . S
C892 H879 0.960 . S
C892 C891 1.524 . S
C893 C890 1.403 . S
C893 C894 1.392 . S
C893 C897 1.495 . S
C894 C893 1.392 . S
C894 C895 1.385 . S
C894 C896 1.478 . S
C895 H889 0.930 . S
C895 C891 1.400 . S
C895 C894 1.385 . S
C896 C894 1.478 . S
C896 C898 1.381 . S
C896 C902 1.383 . S
C897 C893 1.495 . S
C897 H903 0.959 . S
C897 H904 0.961 . S
C897 H905 0.960 . S
C898 C896 1.381 . S
C898 C899 1.394 . S
C898 H906 0.930 . S
C899 C898 1.394 . S
C899 C900 1.383 . S
C899 H907 0.929 . S
C900 C899 1.383 . S
C900 C901 1.377 . S
C901 H885 0.930 . S
C901 C900 1.377 . S
C901 C902 1.379 . S
C902 H886 0.931 . S
C902 C896 1.383 . S
C902 C901 1.379 . S
H903 C897 0.959 . S
H904 C897 0.961 . S
H905 C897 0.960 . S
H906 C898 0.930 . S
H907 C899 0.929 . S
H908 C916 0.929 . S
H909 C918 0.930 . S
H910 C920 0.930 . S
H911 C923 0.929 . S
H912 C926 0.930 1_565 S
H913 C928 0.960 . S
H914 C928 0.960 . S
H915 C928 0.960 . S
C916 H908 0.929 . S
C916 C917 1.377 . S
C916 C918 1.384 . S
C917 C916 1.377 . S
C917 C923 1.390 . S
C918 H909 0.930 . S
C918 C916 1.384 . S
C918 C919 1.372 . S
C919 C918 1.372 . S
C919 C920 1.400 . S
C919 C924 1.490 1_565 S
C920 H910 0.930 . S
C920 C919 1.400 . S
C920 C923 1.386 . S
H921 C937 0.930 . S
H922 C938 0.931 . S
C923 H911 0.929 . S
C923 C917 1.390 . S
C923 C920 1.386 . S
C924 C919 1.490 1_545 S
C924 C926 1.395 . S
C924 C927 1.403 . S
H925 C931 0.930 . S
C926 H912 0.930 1_545 S
C926 C924 1.395 . S
C926 C929 1.403 . S
C927 C924 1.403 . S
C927 C928 1.524 . S
C927 C931 1.400 . S
C928 H913 0.960 . S
C928 H914 0.960 . S
C928 H915 0.960 . S
C928 C927 1.524 . S
C929 C926 1.403 . S
C929 C930 1.392 . S
C929 C933 1.495 . S
C930 C929 1.392 . S
C930 C931 1.385 . S
C930 C932 1.478 . S
C931 H925 0.930 . S
C931 C927 1.400 . S
C931 C930 1.385 . S
C932 C930 1.478 . S
C932 C934 1.381 . S
C932 C938 1.383 . S
C933 C929 1.495 . S
C933 H939 0.959 1_545 S
C933 H940 0.961 . S
C933 H941 0.960 . S
C934 C932 1.381 . S
C934 C935 1.394 . S
C934 H942 0.930 . S
C935 C934 1.394 . S
C935 C936 1.383 . S
C935 H943 0.929 . S
C936 C935 1.383 . S
C936 C937 1.377 . S
C937 H921 0.930 . S
C937 C936 1.377 . S
C937 C938 1.379 . S
C938 H922 0.931 . S
C938 C932 1.383 . S
C938 C937 1.379 . S
H939 C933 0.959 1_565 S
H940 C933 0.961 . S
H941 C933 0.960 . S
H942 C934 0.930 . S
H943 C935 0.929 . S
H944 C952 0.929 . S
H945 C954 0.930 . S
H946 C956 0.930 . S
H947 C959 0.929 . S
H948 C962 0.930 . S
H949 C964 0.960 . S
H950 C964 0.960 . S
H951 C964 0.960 . S
C952 H944 0.929 . S
C952 C953 1.377 . S
C952 C954 1.384 . S
C953 C952 1.377 . S
C953 C959 1.390 . S
C954 H945 0.930 . S
C954 C952 1.384 . S
C954 C955 1.372 . S
C955 C954 1.372 . S
C955 C956 1.400 . S
C955 C960 1.490 . S
C956 H946 0.930 . S
C956 C955 1.400 . S
C956 C959 1.386 . S
H957 C973 0.930 . S
H958 C974 0.931 . S
C959 H947 0.929 . S
C959 C953 1.390 . S
C959 C956 1.386 . S
C960 C955 1.490 . S
C960 C962 1.395 . S
C960 C963 1.403 . S
H961 C967 0.930 . S
C962 H948 0.930 . S
C962 C960 1.395 . S
C962 C965 1.403 . S
C963 C960 1.403 . S
C963 C964 1.524 . S
C963 C967 1.400 . S
C964 H949 0.960 . S
C964 H950 0.960 . S
C964 H951 0.960 . S
C964 C963 1.524 . S
C965 C962 1.403 . S
C965 C966 1.392 . S
C965 C969 1.495 . S
C966 C965 1.392 . S
C966 C967 1.385 . S
C966 C968 1.478 . S
C967 H961 0.930 . S
C967 C963 1.400 . S
C967 C966 1.385 . S
C968 C966 1.478 . S
C968 C970 1.381 . S
C968 C974 1.383 . S
C969 C965 1.495 . S
C969 H975 0.959 . S
C969 H976 0.961 . S
C969 H977 0.960 . S
C970 C968 1.381 . S
C970 C971 1.394 . S
C970 H978 0.930 . S
C971 C970 1.394 . S
C971 C972 1.383 . S
C971 H979 0.929 . S
C972 C971 1.383 . S
C972 C973 1.377 . S
C973 H957 0.930 . S
C973 C972 1.377 . S
C973 C974 1.379 . S
C974 H958 0.931 . S
C974 C968 1.383 . S
C974 C973 1.379 . S
H975 C969 0.959 . S
H976 C969 0.961 . S
H977 C969 0.960 . S
H978 C970 0.930 . S
H979 C971 0.929 . S
H980 C988 0.929 . S
H981 C990 0.930 . S
H982 C992 0.930 . S
H983 C995 0.929 . S
H984 C998 0.930 . S
H985 C1000 0.960 . S
H986 C1000 0.960 . S
H987 C1000 0.960 . S
C988 H980 0.929 . S
C988 C989 1.377 . S
C988 C990 1.384 . S
C989 C988 1.377 . S
C989 C995 1.390 . S
C990 H981 0.930 . S
C990 C988 1.384 . S
C990 C991 1.372 . S
C991 C990 1.372 . S
C991 C992 1.400 . S
C991 C996 1.490 1_545 S
C992 H982 0.930 . S
C992 C991 1.400 . S
C992 C995 1.386 . S
H993 C1009 0.930 . S
H994 C1010 0.931 . S
C995 H983 0.929 . S
C995 C989 1.390 . S
C995 C992 1.386 . S
C996 C991 1.490 1_565 S
C996 C998 1.395 . S
C996 C999 1.403 . S
H997 C1003 0.930 . S
C998 H984 0.930 . S
C998 C996 1.395 . S
C998 C1001 1.403 . S
C999 C996 1.403 . S
C999 C1000 1.524 1_565 S
C999 C1003 1.400 . S
C1000 H985 0.960 . S
C1000 H986 0.960 . S
C1000 H987 0.960 . S
C1000 C999 1.524 1_545 S
C1001 C998 1.403 . S
C1001 C1002 1.392 . S
C1001 C1005 1.495 . S
C1002 C1001 1.392 . S
C1002 C1003 1.385 . S
C1002 C1004 1.478 . S
C1003 H997 0.930 . S
C1003 C999 1.400 . S
C1003 C1002 1.385 . S
C1004 C1002 1.478 . S
C1004 C1006 1.381 . S
C1004 C1010 1.383 . S
C1005 C1001 1.495 . S
C1005 H1011 0.959 . S
C1005 H1012 0.961 . S
C1005 H1013 0.960 . S
C1006 C1004 1.381 . S
C1006 C1007 1.394 . S
C1006 H1014 0.930 . S
C1007 C1006 1.394 . S
C1007 C1008 1.383 . S
C1007 H1015 0.929 . S
C1008 C1007 1.383 . S
C1008 C1009 1.377 . S
C1009 H993 0.930 . S
C1009 C1008 1.377 . S
C1009 C1010 1.379 . S
C1010 H994 0.931 . S
C1010 C1004 1.383 . S
C1010 C1009 1.379 . S
H1011 C1005 0.959 . S
H1012 C1005 0.961 . S
H1013 C1005 0.960 . S
H1014 C1006 0.930 . S
H1015 C1007 0.929 . S
H1016 C1024 0.929 . S
H1017 C1026 0.930 . S
H1018 C1028 0.930 . S
H1019 C1031 0.929 . S
H1020 C1034 0.930 . S
H1021 C1036 0.960 . S
H1022 C1036 0.960 . S
H1023 C1036 0.960 . S
C1024 H1016 0.929 . S
C1024 C1025 1.377 . S
C1024 C1026 1.384 . S
C1025 C1024 1.377 . S
C1025 C1031 1.390 . S
C1026 H1017 0.930 . S
C1026 C1024 1.384 . S
C1026 C1027 1.372 . S
C1027 C1026 1.372 . S
C1027 C1028 1.400 . S
C1027 C1032 1.490 . S
C1028 H1018 0.930 . S
C1028 C1027 1.400 . S
C1028 C1031 1.386 . S
H1029 C1045 0.930 . S
H1030 C1046 0.931 . S
C1031 H1019 0.929 . S
C1031 C1025 1.390 . S
C1031 C1028 1.386 . S
C1032 C1027 1.490 . S
C1032 C1034 1.395 . S
C1032 C1035 1.403 . S
H1033 C1039 0.930 . S
C1034 H1020 0.930 . S
C1034 C1032 1.395 . S
C1034 C1037 1.403 . S
C1035 C1032 1.403 . S
C1035 C1036 1.524 . S
C1035 C1039 1.400 . S
C1036 H1021 0.960 . S
C1036 H1022 0.960 . S
C1036 H1023 0.960 . S
C1036 C1035 1.524 . S
C1037 C1034 1.403 . S
C1037 C1038 1.392 . S
C1037 C1041 1.495 . S
C1038 C1037 1.392 . S
C1038 C1039 1.385 . S
C1038 C1040 1.478 . S
C1039 H1033 0.930 . S
C1039 C1035 1.400 . S
C1039 C1038 1.385 . S
C1040 C1038 1.478 . S
C1040 C1042 1.381 . S
C1040 C1046 1.383 . S
C1041 C1037 1.495 . S
C1041 H1047 0.959 . S
C1041 H1048 0.961 . S
C1041 H1049 0.960 . S
C1042 C1040 1.381 . S
C1042 C1043 1.394 . S
C1042 H1050 0.930 . S
C1043 C1042 1.394 . S
C1043 C1044 1.383 . S
C1043 H1051 0.929 . S
C1044 C1043 1.383 . S
C1044 C1045 1.377 . S
C1045 H1029 0.930 . S
C1045 C1044 1.377 . S
C1045 C1046 1.379 . S
C1046 H1030 0.931 . S
C1046 C1040 1.383 . S
C1046 C1045 1.379 . S
H1047 C1041 0.959 . S
H1048 C1041 0.961 . S
H1049 C1041 0.960 . S
H1050 C1042 0.930 . S
H1051 C1043 0.929 . S
H1052 C1060 0.929 . S
H1053 C1062 0.930 1_545 S
H1054 C1064 0.930 . S
H1055 C1067 0.929 . S
H1056 C1070 0.930 . S
H1057 C1072 0.960 . S
H1058 C1072 0.960 . S
H1059 C1072 0.960 1_565 S
C1060 H1052 0.929 . S
C1060 C1061 1.377 . S
C1060 C1062 1.384 . S
C1061 C1060 1.377 . S
C1061 C1067 1.390 . S
C1062 H1053 0.930 1_565 S
C1062 C1060 1.384 . S
C1062 C1063 1.372 . S
C1063 C1062 1.372 . S
C1063 C1064 1.400 . S
C1063 C1068 1.490 1_565 S
C1064 H1054 0.930 . S
C1064 C1063 1.400 . S
C1064 C1067 1.386 . S
H1065 C1081 0.930 . S
H1066 C1082 0.931 . S
C1067 H1055 0.929 . S
C1067 C1061 1.390 . S
C1067 C1064 1.386 . S
C1068 C1063 1.490 1_545 S
C1068 C1070 1.395 . S
C1068 C1071 1.403 . S
H1069 C1075 0.930 . S
C1070 H1056 0.930 . S
C1070 C1068 1.395 . S
C1070 C1073 1.403 . S
C1071 C1068 1.403 . S
C1071 C1072 1.524 . S
C1071 C1075 1.400 . S
C1072 H1057 0.960 . S
C1072 H1058 0.960 . S
C1072 H1059 0.960 1_545 S
C1072 C1071 1.524 . S
C1073 C1070 1.403 . S
C1073 C1074 1.392 . S
C1073 C1077 1.495 . S
C1074 C1073 1.392 . S
C1074 C1075 1.385 . S
C1074 C1076 1.478 . S
C1075 H1069 0.930 . S
C1075 C1071 1.400 . S
C1075 C1074 1.385 . S
C1076 C1074 1.478 . S
C1076 C1078 1.381 . S
C1076 C1082 1.383 . S
C1077 C1073 1.495 . S
C1077 H1083 0.959 . S
C1077 H1084 0.961 . S
C1077 H1085 0.960 . S
C1078 C1076 1.381 . S
C1078 C1079 1.394 . S
C1078 H1086 0.930 . S
C1079 C1078 1.394 . S
C1079 C1080 1.383 . S
C1079 H1087 0.929 . S
C1080 C1079 1.383 . S
C1080 C1081 1.377 . S
C1081 H1065 0.930 . S
C1081 C1080 1.377 . S
C1081 C1082 1.379 . S
C1082 H1066 0.931 . S
C1082 C1076 1.383 . S
C1082 C1081 1.379 . S
H1083 C1077 0.959 . S
H1084 C1077 0.961 . S
H1085 C1077 0.960 . S
H1086 C1078 0.930 . S
H1087 C1079 0.929 . S
H1088 C1096 0.929 . S
H1089 C1098 0.930 . S
H1090 C1100 0.930 . S
H1091 C1103 0.929 . S
H1092 C1106 0.930 . S
H1093 C1108 0.960 . S
H1094 C1108 0.960 . S
H1095 C1108 0.960 . S
C1096 H1088 0.929 . S
C1096 C1097 1.377 . S
C1096 C1098 1.384 . S
C1097 C1096 1.377 . S
C1097 C1103 1.390 . S
C1098 H1089 0.930 . S
C1098 C1096 1.384 . S
C1098 C1099 1.372 . S
C1099 C1098 1.372 . S
C1099 C1100 1.400 . S
C1099 C1104 1.490 . S
C1100 H1090 0.930 . S
C1100 C1099 1.400 . S
C1100 C1103 1.386 . S
H1101 C1117 0.930 . S
H1102 C1118 0.931 . S
C1103 H1091 0.929 . S
C1103 C1097 1.390 . S
C1103 C1100 1.386 . S
C1104 C1099 1.490 . S
C1104 C1106 1.395 . S
C1104 C1107 1.403 . S
H1105 C1111 0.930 . S
C1106 H1092 0.930 . S
C1106 C1104 1.395 . S
C1106 C1109 1.403 . S
C1107 C1104 1.403 . S
C1107 C1108 1.524 . S
C1107 C1111 1.400 . S
C1108 H1093 0.960 . S
C1108 H1094 0.960 . S
C1108 H1095 0.960 . S
C1108 C1107 1.524 . S
C1109 C1106 1.403 . S
C1109 C1110 1.392 . S
C1109 C1113 1.495 . S
C1110 C1109 1.392 . S
C1110 C1111 1.385 . S
C1110 C1112 1.478 . S
C1111 H1105 0.930 . S
C1111 C1107 1.400 . S
C1111 C1110 1.385 . S
C1112 C1110 1.478 . S
C1112 C1114 1.381 . S
C1112 C1118 1.383 . S
C1113 C1109 1.495 . S
C1113 H1119 0.959 . S
C1113 H1120 0.961 . S
C1113 H1121 0.960 . S
C1114 C1112 1.381 . S
C1114 C1115 1.394 . S
C1114 H1122 0.930 . S
C1115 C1114 1.394 . S
C1115 C1116 1.383 . S
C1115 H1123 0.929 . S
C1116 C1115 1.383 . S
C1116 C1117 1.377 . S
C1117 H1101 0.930 . S
C1117 C1116 1.377 . S
C1117 C1118 1.379 . S
C1118 H1102 0.931 . S
C1118 C1112 1.383 . S
C1118 C1117 1.379 . S
H1119 C1113 0.959 . S
H1120 C1113 0.961 . S
H1121 C1113 0.960 . S
H1122 C1114 0.930 . S
H1123 C1115 0.929 . S
H1124 C1132 0.929 . S
H1125 C1134 0.930 . S
H1126 C1136 0.930 . S
H1127 C1139 0.929 . S
H1128 C1142 0.930 . S
H1129 C1144 0.960 . S
H1130 C1144 0.960 . S
H1131 C1144 0.960 . S
C1132 H1124 0.929 . S
C1132 C1133 1.377 . S
C1132 C1134 1.384 . S
C1133 C1132 1.377 . S
C1133 C1139 1.390 . S
C1134 H1125 0.930 . S
C1134 C1132 1.384 . S
C1134 C1135 1.372 . S
C1135 C1134 1.372 . S
C1135 C1136 1.400 . S
C1135 C1140 1.490 . S
C1136 H1126 0.930 . S
C1136 C1135 1.400 . S
C1136 C1139 1.386 . S
H1137 C1153 0.930 . S
H1138 C1154 0.931 . S
C1139 H1127 0.929 . S
C1139 C1133 1.390 . S
C1139 C1136 1.386 . S
C1140 C1135 1.490 . S
C1140 C1142 1.395 . S
C1140 C1143 1.403 . S
H1141 C1147 0.930 . S
C1142 H1128 0.930 . S
C1142 C1140 1.395 . S
C1142 C1145 1.403 . S
C1143 C1140 1.403 . S
C1143 C1144 1.524 . S
C1143 C1147 1.400 . S
C1144 H1129 0.960 . S
C1144 H1130 0.960 . S
C1144 H1131 0.960 . S
C1144 C1143 1.524 . S
C1145 C1142 1.403 . S
C1145 C1146 1.392 . S
C1145 C1149 1.495 . S
C1146 C1145 1.392 . S
C1146 C1147 1.385 . S
C1146 C1148 1.478 . S
C1147 H1141 0.930 . S
C1147 C1143 1.400 . S
C1147 C1146 1.385 . S
C1148 C1146 1.478 . S
C1148 C1150 1.381 . S
C1148 C1154 1.383 . S
C1149 C1145 1.495 . S
C1149 H1155 0.959 . S
C1149 H1156 0.961 . S
C1149 H1157 0.960 . S
C1150 C1148 1.381 . S
C1150 C1151 1.394 . S
C1150 H1158 0.930 . S
C1151 C1150 1.394 . S
C1151 C1152 1.383 . S
C1151 H1159 0.929 . S
C1152 C1151 1.383 . S
C1152 C1153 1.377 . S
C1153 H1137 0.930 . S
C1153 C1152 1.377 . S
C1153 C1154 1.379 . S
C1154 H1138 0.931 . S
C1154 C1148 1.383 . S
C1154 C1153 1.379 . S
H1155 C1149 0.959 . S
H1156 C1149 0.961 . S
H1157 C1149 0.960 . S
H1158 C1150 0.930 . S
H1159 C1151 0.929 . S
H1160 C1168 0.929 . S
H1161 C1170 0.930 . S
H1162 C1172 0.930 . S
H1163 C1175 0.929 . S
H1164 C1178 0.930 . S
H1165 C1180 0.960 . S
H1166 C1180 0.960 . S
H1167 C1180 0.960 . S
C1168 H1160 0.929 . S
C1168 C1169 1.377 . S
C1168 C1170 1.384 . S
C1169 C1168 1.377 . S
C1169 C1175 1.390 . S
C1170 H1161 0.930 . S
C1170 C1168 1.384 . S
C1170 C1171 1.372 . S
C1171 C1170 1.372 . S
C1171 C1172 1.400 . S
C1171 C1176 1.490 . S
C1172 H1162 0.930 . S
C1172 C1171 1.400 . S
C1172 C1175 1.386 . S
H1173 C1189 0.930 . S
H1174 C1190 0.931 . S
C1175 H1163 0.929 . S
C1175 C1169 1.390 . S
C1175 C1172 1.386 . S
C1176 C1171 1.490 . S
C1176 C1178 1.395 . S
C1176 C1179 1.403 . S
H1177 C1183 0.930 . S
C1178 H1164 0.930 . S
C1178 C1176 1.395 . S
C1178 C1181 1.403 . S
C1179 C1176 1.403 . S
C1179 C1180 1.524 . S
C1179 C1183 1.400 . S
C1180 H1165 0.960 . S
C1180 H1166 0.960 . S
C1180 H1167 0.960 . S
C1180 C1179 1.524 . S
C1181 C1178 1.403 . S
C1181 C1182 1.392 . S
C1181 C1185 1.495 . S
C1182 C1181 1.392 . S
C1182 C1183 1.385 . S
C1182 C1184 1.478 . S
C1183 H1177 0.930 . S
C1183 C1179 1.400 . S
C1183 C1182 1.385 . S
C1184 C1182 1.478 . S
C1184 C1186 1.381 . S
C1184 C1190 1.383 . S
C1185 C1181 1.495 . S
C1185 H1191 0.959 . S
C1185 H1192 0.961 . S
C1185 H1193 0.960 . S
C1186 C1184 1.381 . S
C1186 C1187 1.394 . S
C1186 H1194 0.930 . S
C1187 C1186 1.394 . S
C1187 C1188 1.383 . S
C1187 H1195 0.929 . S
C1188 C1187 1.383 . S
C1188 C1189 1.377 . S
C1189 H1173 0.930 . S
C1189 C1188 1.377 . S
C1189 C1190 1.379 . S
C1190 H1174 0.931 . S
C1190 C1184 1.383 . S
C1190 C1189 1.379 . S
H1191 C1185 0.959 . S
H1192 C1185 0.961 . S
H1193 C1185 0.960 . S
H1194 C1186 0.930 . S
H1195 C1187 0.929 . S
H1196 C1204 0.929 . S
H1197 C1206 0.930 . S
H1198 C1208 0.930 . S
H1199 C1211 0.929 . S
H1200 C1214 0.930 . S
H1201 C1216 0.960 . S
H1202 C1216 0.960 . S
H1203 C1216 0.960 . S
C1204 H1196 0.929 . S
C1204 C1205 1.377 . S
C1204 C1206 1.384 . S
C1205 C1204 1.377 . S
C1205 C1211 1.390 . S
C1206 H1197 0.930 . S
C1206 C1204 1.384 . S
C1206 C1207 1.372 . S
C1207 C1206 1.372 . S
C1207 C1208 1.400 . S
C1207 C1212 1.490 . S
C1208 H1198 0.930 . S
C1208 C1207 1.400 . S
C1208 C1211 1.386 . S
H1209 C1225 0.930 . S
H1210 C1226 0.931 . S
C1211 H1199 0.929 . S
C1211 C1205 1.390 . S
C1211 C1208 1.386 . S
C1212 C1207 1.490 . S
C1212 C1214 1.395 . S
C1212 C1215 1.403 . S
H1213 C1219 0.930 . S
C1214 H1200 0.930 . S
C1214 C1212 1.395 . S
C1214 C1217 1.403 . S
C1215 C1212 1.403 . S
C1215 C1216 1.524 . S
C1215 C1219 1.400 . S
C1216 H1201 0.960 . S
C1216 H1202 0.960 . S
C1216 H1203 0.960 . S
C1216 C1215 1.524 . S
C1217 C1214 1.403 . S
C1217 C1218 1.392 . S
C1217 C1221 1.495 . S
C1218 C1217 1.392 . S
C1218 C1219 1.385 . S
C1218 C1220 1.478 . S
C1219 H1213 0.930 . S
C1219 C1215 1.400 . S
C1219 C1218 1.385 . S
C1220 C1218 1.478 . S
C1220 C1222 1.381 . S
C1220 C1226 1.383 . S
C1221 C1217 1.495 . S
C1221 H1227 0.959 . S
C1221 H1228 0.961 . S
C1221 H1229 0.960 . S
C1222 C1220 1.381 . S
C1222 C1223 1.394 . S
C1222 H1230 0.930 . S
C1223 C1222 1.394 . S
C1223 C1224 1.383 . S
C1223 H1231 0.929 . S
C1224 C1223 1.383 . S
C1224 C1225 1.377 . S
C1225 H1209 0.930 . S
C1225 C1224 1.377 . S
C1225 C1226 1.379 . S
C1226 H1210 0.931 . S
C1226 C1220 1.383 . S
C1226 C1225 1.379 . S
H1227 C1221 0.959 . S
H1228 C1221 0.961 . S
H1229 C1221 0.960 . S
H1230 C1222 0.930 . S
H1231 C1223 0.929 . S
H1232 C1240 0.929 . S
H1233 C1242 0.930 . S
H1234 C1244 0.930 . S
H1235 C1247 0.929 . S
H1236 C1250 0.930 . S
H1237 C1252 0.960 . S
H1238 C1252 0.960 . S
H1239 C1252 0.960 . S
C1240 H1232 0.929 . S
C1240 C1241 1.377 . S
C1240 C1242 1.384 . S
C1241 C1240 1.377 . S
C1241 C1247 1.390 . S
C1242 H1233 0.930 . S
C1242 C1240 1.384 . S
C1242 C1243 1.372 . S
C1243 C1242 1.372 . S
C1243 C1244 1.400 . S
C1243 C1248 1.490 . S
C1244 H1234 0.930 . S
C1244 C1243 1.400 . S
C1244 C1247 1.386 . S
H1245 C1261 0.930 . S
H1246 C1262 0.931 . S
C1247 H1235 0.929 . S
C1247 C1241 1.390 . S
C1247 C1244 1.386 . S
C1248 C1243 1.490 . S
C1248 C1250 1.395 . S
C1248 C1251 1.403 . S
H1249 C1255 0.930 . S
C1250 H1236 0.930 . S
C1250 C1248 1.395 . S
C1250 C1253 1.403 . S
C1251 C1248 1.403 . S
C1251 C1252 1.524 . S
C1251 C1255 1.400 . S
C1252 H1237 0.960 . S
C1252 H1238 0.960 . S
C1252 H1239 0.960 . S
C1252 C1251 1.524 . S
C1253 C1250 1.403 . S
C1253 C1254 1.392 . S
C1253 C1257 1.495 . S
C1254 C1253 1.392 . S
C1254 C1255 1.385 . S
C1254 C1256 1.478 . S
C1255 H1249 0.930 . S
C1255 C1251 1.400 . S
C1255 C1254 1.385 . S
C1256 C1254 1.478 . S
C1256 C1258 1.381 . S
C1256 C1262 1.383 . S
C1257 C1253 1.495 . S
C1257 H1263 0.959 . S
C1257 H1264 0.961 . S
C1257 H1265 0.960 . S
C1258 C1256 1.381 . S
C1258 C1259 1.394 . S
C1258 H1266 0.930 . S
C1259 C1258 1.394 . S
C1259 C1260 1.383 . S
C1259 H1267 0.929 . S
C1260 C1259 1.383 . S
C1260 C1261 1.377 . S
C1261 H1245 0.930 . S
C1261 C1260 1.377 . S
C1261 C1262 1.379 . S
C1262 H1246 0.931 . S
C1262 C1256 1.383 . S
C1262 C1261 1.379 . S
H1263 C1257 0.959 . S
H1264 C1257 0.961 . S
H1265 C1257 0.960 . S
H1266 C1258 0.930 . S
H1267 C1259 0.929 . S
H1268 C1276 0.929 . S
H1269 C1278 0.930 . S
H1270 C1280 0.930 . S
H1271 C1283 0.929 . S
H1272 C1286 0.930 . S
H1273 C1288 0.960 . S
H1274 C1288 0.960 . S
H1275 C1288 0.960 . S
C1276 H1268 0.929 . S
C1276 C1277 1.377 . S
C1276 C1278 1.384 . S
C1277 C1276 1.377 . S
C1277 C1283 1.390 . S
C1278 H1269 0.930 . S
C1278 C1276 1.384 . S
C1278 C1279 1.372 . S
C1279 C1278 1.372 . S
C1279 C1280 1.400 . S
C1279 C1284 1.490 . S
C1280 H1270 0.930 . S
C1280 C1279 1.400 . S
C1280 C1283 1.386 . S
H1281 C1297 0.930 . S
H1282 C1298 0.931 . S
C1283 H1271 0.929 . S
C1283 C1277 1.390 . S
C1283 C1280 1.386 . S
C1284 C1279 1.490 . S
C1284 C1286 1.395 . S
C1284 C1287 1.403 . S
H1285 C1291 0.930 . S
C1286 H1272 0.930 . S
C1286 C1284 1.395 . S
C1286 C1289 1.403 . S
C1287 C1284 1.403 . S
C1287 C1288 1.524 . S
C1287 C1291 1.400 . S
C1288 H1273 0.960 . S
C1288 H1274 0.960 . S
C1288 H1275 0.960 . S
C1288 C1287 1.524 . S
C1289 C1286 1.403 . S
C1289 C1290 1.392 . S
C1289 C1293 1.495 . S
C1290 C1289 1.392 . S
C1290 C1291 1.385 . S
C1290 C1292 1.478 . S
C1291 H1285 0.930 . S
C1291 C1287 1.400 . S
C1291 C1290 1.385 . S
C1292 C1290 1.478 . S
C1292 C1294 1.381 . S
C1292 C1298 1.383 . S
C1293 C1289 1.495 . S
C1293 H1299 0.959 . S
C1293 H1300 0.961 . S
C1293 H1301 0.960 . S
C1294 C1292 1.381 . S
C1294 C1295 1.394 . S
C1294 H1302 0.930 . S
C1295 C1294 1.394 . S
C1295 C1296 1.383 . S
C1295 H1303 0.929 . S
C1296 C1295 1.383 . S
C1296 C1297 1.377 . S
C1297 H1281 0.930 . S
C1297 C1296 1.377 . S
C1297 C1298 1.379 . S
C1298 H1282 0.931 . S
C1298 C1292 1.383 . S
C1298 C1297 1.379 . S
H1299 C1293 0.959 . S
H1300 C1293 0.961 . S
H1301 C1293 0.960 . S
H1302 C1294 0.930 . S
H1303 C1295 0.929 . S
H1304 C1312 0.929 . S
H1305 C1314 0.930 . S
H1306 C1316 0.930 . S
H1307 C1319 0.929 . S
H1308 C1322 0.930 . S
H1309 C1324 0.960 . S
H1310 C1324 0.960 . S
H1311 C1324 0.960 . S
C1312 H1304 0.929 . S
C1312 C1313 1.377 . S
C1312 C1314 1.384 . S
C1313 C1312 1.377 . S
C1313 C1319 1.390 . S
C1314 H1305 0.930 . S
C1314 C1312 1.384 . S
C1314 C1315 1.372 . S
C1315 C1314 1.372 . S
C1315 C1316 1.400 . S
C1315 C1320 1.490 . S
C1316 H1306 0.930 . S
C1316 C1315 1.400 . S
C1316 C1319 1.386 . S
H1317 C1333 0.930 . S
H1318 C1334 0.931 . S
C1319 H1307 0.929 . S
C1319 C1313 1.390 . S
C1319 C1316 1.386 . S
C1320 C1315 1.490 . S
C1320 C1322 1.395 . S
C1320 C1323 1.403 . S
H1321 C1327 0.930 . S
C1322 H1308 0.930 . S
C1322 C1320 1.395 . S
C1322 C1325 1.403 . S
C1323 C1320 1.403 . S
C1323 C1324 1.524 . S
C1323 C1327 1.400 . S
C1324 H1309 0.960 . S
C1324 H1310 0.960 . S
C1324 H1311 0.960 . S
C1324 C1323 1.524 . S
C1325 C1322 1.403 . S
C1325 C1326 1.392 . S
C1325 C1329 1.495 . S
C1326 C1325 1.392 . S
C1326 C1327 1.385 . S
C1326 C1328 1.478 . S
C1327 H1321 0.930 . S
C1327 C1323 1.400 . S
C1327 C1326 1.385 . S
C1328 C1326 1.478 . S
C1328 C1330 1.381 . S
C1328 C1334 1.383 . S
C1329 C1325 1.495 . S
C1329 H1335 0.959 . S
C1329 H1336 0.961 . S
C1329 H1337 0.960 . S
C1330 C1328 1.381 . S
C1330 C1331 1.394 . S
C1330 H1338 0.930 . S
C1331 C1330 1.394 . S
C1331 C1332 1.383 . S
C1331 H1339 0.929 . S
C1332 C1331 1.383 . S
C1332 C1333 1.377 . S
C1333 H1317 0.930 . S
C1333 C1332 1.377 . S
C1333 C1334 1.379 . S
C1334 H1318 0.931 . S
C1334 C1328 1.383 . S
C1334 C1333 1.379 . S
H1335 C1329 0.959 . S
H1336 C1329 0.961 . S
H1337 C1329 0.960 . S
H1338 C1330 0.930 . S
H1339 C1331 0.929 . S
H1340 C1348 0.929 . S
H1341 C1350 0.930 . S
H1342 C1352 0.930 . S
H1343 C1355 0.929 . S
H1344 C1358 0.930 . S
H1345 C1360 0.960 . S
H1346 C1360 0.960 . S
H1347 C1360 0.960 . S
C1348 H1340 0.929 . S
C1348 C1349 1.377 . S
C1348 C1350 1.384 . S
C1349 C1348 1.377 . S
C1349 C1355 1.390 . S
C1350 H1341 0.930 . S
C1350 C1348 1.384 . S
C1350 C1351 1.372 . S
C1351 C1350 1.372 . S
C1351 C1352 1.400 . S
C1351 C1356 1.490 . S
C1352 H1342 0.930 . S
C1352 C1351 1.400 . S
C1352 C1355 1.386 . S
H1353 C1369 0.930 . S
H1354 C1370 0.931 . S
C1355 H1343 0.929 . S
C1355 C1349 1.390 . S
C1355 C1352 1.386 . S
C1356 C1351 1.490 . S
C1356 C1358 1.395 . S
C1356 C1359 1.403 . S
H1357 C1363 0.930 . S
C1358 H1344 0.930 . S
C1358 C1356 1.395 . S
C1358 C1361 1.403 . S
C1359 C1356 1.403 . S
C1359 C1360 1.524 . S
C1359 C1363 1.400 . S
C1360 H1345 0.960 . S
C1360 H1346 0.960 . S
C1360 H1347 0.960 . S
C1360 C1359 1.524 . S
C1361 C1358 1.403 . S
C1361 C1362 1.392 . S
C1361 C1365 1.495 . S
C1362 C1361 1.392 . S
C1362 C1363 1.385 . S
C1362 C1364 1.478 . S
C1363 H1357 0.930 . S
C1363 C1359 1.400 . S
C1363 C1362 1.385 . S
C1364 C1362 1.478 . S
C1364 C1366 1.381 . S
C1364 C1370 1.383 . S
C1365 C1361 1.495 . S
C1365 H1371 0.959 . S
C1365 H1372 0.961 . S
C1365 H1373 0.960 . S
C1366 C1364 1.381 . S
C1366 C1367 1.394 . S
C1366 H1374 0.930 . S
C1367 C1366 1.394 . S
C1367 C1368 1.383 . S
C1367 H1375 0.929 . S
C1368 C1367 1.383 . S
C1368 C1369 1.377 . S
C1369 H1353 0.930 . S
C1369 C1368 1.377 . S
C1369 C1370 1.379 . S
C1370 H1354 0.931 . S
C1370 C1364 1.383 . S
C1370 C1369 1.379 . S
H1371 C1365 0.959 . S
H1372 C1365 0.961 . S
H1373 C1365 0.960 . S
H1374 C1366 0.930 . S
H1375 C1367 0.929 . S
H1376 C1384 0.929 . S
H1377 C1386 0.930 . S
H1378 C1388 0.930 . S
H1379 C1391 0.929 . S
H1380 C1394 0.930 . S
H1381 C1396 0.960 . S
H1382 C1396 0.960 . S
H1383 C1396 0.960 . S
C1384 H1376 0.929 . S
C1384 C1385 1.377 . S
C1384 C1386 1.384 . S
C1385 C1384 1.377 . S
C1385 C1391 1.390 . S
C1386 H1377 0.930 . S
C1386 C1384 1.384 . S
C1386 C1387 1.372 . S
C1387 C1386 1.372 . S
C1387 C1388 1.400 . S
C1387 C1392 1.490 . S
C1388 H1378 0.930 . S
C1388 C1387 1.400 . S
C1388 C1391 1.386 . S
H1389 C1405 0.930 . S
H1390 C1406 0.931 . S
C1391 H1379 0.929 . S
C1391 C1385 1.390 . S
C1391 C1388 1.386 . S
C1392 C1387 1.490 . S
C1392 C1394 1.395 . S
C1392 C1395 1.403 . S
H1393 C1399 0.930 . S
C1394 H1380 0.930 . S
C1394 C1392 1.395 . S
C1394 C1397 1.403 . S
C1395 C1392 1.403 . S
C1395 C1396 1.524 . S
C1395 C1399 1.400 . S
C1396 H1381 0.960 . S
C1396 H1382 0.960 . S
C1396 H1383 0.960 . S
C1396 C1395 1.524 . S
C1397 C1394 1.403 . S
C1397 C1398 1.392 . S
C1397 C1401 1.495 . S
C1398 C1397 1.392 . S
C1398 C1399 1.385 . S
C1398 C1400 1.478 . S
C1399 H1393 0.930 . S
C1399 C1395 1.400 . S
C1399 C1398 1.385 . S
C1400 C1398 1.478 . S
C1400 C1402 1.381 . S
C1400 C1406 1.383 . S
C1401 C1397 1.495 . S
C1401 H1407 0.959 . S
C1401 H1408 0.961 . S
C1401 H1409 0.960 . S
C1402 C1400 1.381 . S
C1402 C1403 1.394 . S
C1402 H1410 0.930 . S
C1403 C1402 1.394 . S
C1403 C1404 1.383 . S
C1403 H1411 0.929 . S
C1404 C1403 1.383 . S
C1404 C1405 1.377 . S
C1405 H1389 0.930 . S
C1405 C1404 1.377 . S
C1405 C1406 1.379 . S
C1406 H1390 0.931 . S
C1406 C1400 1.383 . S
C1406 C1405 1.379 . S
H1407 C1401 0.959 . S
H1408 C1401 0.961 . S
H1409 C1401 0.960 . S
H1410 C1402 0.930 . S
H1411 C1403 0.929 . S
H1412 C1420 0.929 . S
H1413 C1422 0.930 . S
H1414 C1424 0.930 . S
H1415 C1427 0.929 . S
H1416 C1430 0.930 . S
H1417 C1432 0.960 . S
H1418 C1432 0.960 . S
H1419 C1432 0.960 . S
C1420 H1412 0.929 . S
C1420 C1421 1.377 . S
C1420 C1422 1.384 . S
C1421 C1420 1.377 . S
C1421 C1427 1.390 . S
C1422 H1413 0.930 . S
C1422 C1420 1.384 . S
C1422 C1423 1.372 . S
C1423 C1422 1.372 . S
C1423 C1424 1.400 . S
C1423 C1428 1.490 . S
C1424 H1414 0.930 . S
C1424 C1423 1.400 . S
C1424 C1427 1.386 . S
H1425 C1441 0.930 . S
H1426 C1442 0.931 . S
C1427 H1415 0.929 . S
C1427 C1421 1.390 . S
C1427 C1424 1.386 . S
C1428 C1423 1.490 . S
C1428 C1430 1.395 . S
C1428 C1431 1.403 . S
H1429 C1435 0.930 . S
C1430 H1416 0.930 . S
C1430 C1428 1.395 . S
C1430 C1433 1.403 . S
C1431 C1428 1.403 . S
C1431 C1432 1.524 . S
C1431 C1435 1.400 . S
C1432 H1417 0.960 . S
C1432 H1418 0.960 . S
C1432 H1419 0.960 . S
C1432 C1431 1.524 . S
C1433 C1430 1.403 . S
C1433 C1434 1.392 . S
C1433 C1437 1.495 . S
C1434 C1433 1.392 . S
C1434 C1435 1.385 . S
C1434 C1436 1.478 . S
C1435 H1429 0.930 . S
C1435 C1431 1.400 . S
C1435 C1434 1.385 . S
C1436 C1434 1.478 . S
C1436 C1438 1.381 . S
C1436 C1442 1.383 . S
C1437 C1433 1.495 . S
C1437 H1443 0.959 . S
C1437 H1444 0.961 . S
C1437 H1445 0.960 . S
C1438 C1436 1.381 . S
C1438 C1439 1.394 . S
C1438 H1446 0.930 . S
C1439 C1438 1.394 . S
C1439 C1440 1.383 . S
C1439 H1447 0.929 . S
C1440 C1439 1.383 . S
C1440 C1441 1.377 . S
C1441 H1425 0.930 . S
C1441 C1440 1.377 . S
C1441 C1442 1.379 . S
C1442 H1426 0.931 . S
C1442 C1436 1.383 . S
C1442 C1441 1.379 . S
H1443 C1437 0.959 . S
H1444 C1437 0.961 . S
H1445 C1437 0.960 . S
H1446 C1438 0.930 . S
H1447 C1439 0.929 . S
H1448 C1456 0.929 . S
H1449 C1458 0.930 . S
H1450 C1460 0.930 . S
H1451 C1463 0.929 . S
H1452 C1466 0.930 . S
H1453 C1468 0.960 . S
H1454 C1468 0.960 . S
H1455 C1468 0.960 . S
C1456 H1448 0.929 . S
C1456 C1457 1.377 . S
C1456 C1458 1.384 . S
C1457 C1456 1.377 . S
C1457 C1463 1.390 . S
C1458 H1449 0.930 . S
C1458 C1456 1.384 . S
C1458 C1459 1.372 . S
C1459 C1458 1.372 . S
C1459 C1460 1.400 . S
C1459 C1464 1.490 . S
C1460 H1450 0.930 . S
C1460 C1459 1.400 . S
C1460 C1463 1.386 . S
H1461 C1477 0.930 . S
H1462 C1478 0.931 . S
C1463 H1451 0.929 . S
C1463 C1457 1.390 . S
C1463 C1460 1.386 . S
C1464 C1459 1.490 . S
C1464 C1466 1.395 . S
C1464 C1467 1.403 . S
H1465 C1471 0.930 . S
C1466 H1452 0.930 . S
C1466 C1464 1.395 . S
C1466 C1469 1.403 . S
C1467 C1464 1.403 . S
C1467 C1468 1.524 . S
C1467 C1471 1.400 . S
C1468 H1453 0.960 . S
C1468 H1454 0.960 . S
C1468 H1455 0.960 . S
C1468 C1467 1.524 . S
C1469 C1466 1.403 . S
C1469 C1470 1.392 . S
C1469 C1473 1.495 . S
C1470 C1469 1.392 . S
C1470 C1471 1.385 . S
C1470 C1472 1.478 . S
C1471 H1465 0.930 . S
C1471 C1467 1.400 . S
C1471 C1470 1.385 . S
C1472 C1470 1.478 . S
C1472 C1474 1.381 . S
C1472 C1478 1.383 . S
C1473 C1469 1.495 . S
C1473 H1479 0.959 . S
C1473 H1480 0.961 . S
C1473 H1481 0.960 . S
C1474 C1472 1.381 . S
C1474 C1475 1.394 . S
C1474 H1482 0.930 . S
C1475 C1474 1.394 . S
C1475 C1476 1.383 . S
C1475 H1483 0.929 . S
C1476 C1475 1.383 . S
C1476 C1477 1.377 . S
C1477 H1461 0.930 . S
C1477 C1476 1.377 . S
C1477 C1478 1.379 . S
C1478 H1462 0.931 . S
C1478 C1472 1.383 . S
C1478 C1477 1.379 . S
H1479 C1473 0.959 . S
H1480 C1473 0.961 . S
H1481 C1473 0.960 . S
H1482 C1474 0.930 . S
H1483 C1475 0.929 . S
H1484 C1492 0.929 . S
H1485 C1494 0.930 . S
H1486 C1496 0.930 . S
H1487 C1499 0.929 . S
H1488 C1502 0.930 . S
H1489 C1504 0.960 . S
H1490 C1504 0.960 . S
H1491 C1504 0.960 . S
C1492 H1484 0.929 . S
C1492 C1493 1.377 . S
C1492 C1494 1.384 . S
C1493 C1492 1.377 . S
C1493 C1499 1.390 . S
C1494 H1485 0.930 . S
C1494 C1492 1.384 . S
C1494 C1495 1.372 . S
C1495 C1494 1.372 . S
C1495 C1496 1.400 . S
C1495 C1500 1.490 . S
C1496 H1486 0.930 . S
C1496 C1495 1.400 . S
C1496 C1499 1.386 . S
H1497 C1513 0.930 . S
H1498 C1514 0.931 . S
C1499 H1487 0.929 . S
C1499 C1493 1.390 . S
C1499 C1496 1.386 . S
C1500 C1495 1.490 . S
C1500 C1502 1.395 . S
C1500 C1503 1.403 . S
H1501 C1507 0.930 . S
C1502 H1488 0.930 . S
C1502 C1500 1.395 . S
C1502 C1505 1.403 . S
C1503 C1500 1.403 . S
C1503 C1504 1.524 . S
C1503 C1507 1.400 . S
C1504 H1489 0.960 . S
C1504 H1490 0.960 . S
C1504 H1491 0.960 . S
C1504 C1503 1.524 . S
C1505 C1502 1.403 . S
C1505 C1506 1.392 . S
C1505 C1509 1.495 . S
C1506 C1505 1.392 . S
C1506 C1507 1.385 . S
C1506 C1508 1.478 . S
C1507 H1501 0.930 . S
C1507 C1503 1.400 . S
C1507 C1506 1.385 . S
C1508 C1506 1.478 . S
C1508 C1510 1.381 . S
C1508 C1514 1.383 . S
C1509 C1505 1.495 . S
C1509 H1515 0.959 . S
C1509 H1516 0.961 . S
C1509 H1517 0.960 . S
C1510 C1508 1.381 . S
C1510 C1511 1.394 . S
C1510 H1518 0.930 . S
C1511 C1510 1.394 . S
C1511 C1512 1.383 . S
C1511 H1519 0.929 . S
C1512 C1511 1.383 . S
C1512 C1513 1.377 . S
C1513 H1497 0.930 . S
C1513 C1512 1.377 . S
C1513 C1514 1.379 . S
C1514 H1498 0.931 . S
C1514 C1508 1.383 . S
C1514 C1513 1.379 . S
H1515 C1509 0.959 . S
H1516 C1509 0.961 . S
H1517 C1509 0.960 . S
H1518 C1510 0.930 . S
H1519 C1511 0.929 . S
H1520 C1528 0.929 . S
H1521 C1530 0.930 . S
H1522 C1532 0.930 . S
H1523 C1535 0.929 . S
H1524 C1538 0.930 . S
H1525 C1540 0.960 . S
H1526 C1540 0.960 . S
H1527 C1540 0.960 . S
C1528 H1520 0.929 . S
C1528 C1529 1.377 . S
C1528 C1530 1.384 . S
C1529 C1528 1.377 . S
C1529 C1535 1.390 . S
C1530 H1521 0.930 . S
C1530 C1528 1.384 . S
C1530 C1531 1.372 . S
C1531 C1530 1.372 . S
C1531 C1532 1.400 . S
C1531 C1536 1.490 . S
C1532 H1522 0.930 . S
C1532 C1531 1.400 . S
C1532 C1535 1.386 . S
H1533 C1549 0.930 . S
H1534 C1550 0.931 . S
C1535 H1523 0.929 . S
C1535 C1529 1.390 . S
C1535 C1532 1.386 . S
C1536 C1531 1.490 . S
C1536 C1538 1.395 . S
C1536 C1539 1.403 . S
H1537 C1543 0.930 . S
C1538 H1524 0.930 . S
C1538 C1536 1.395 . S
C1538 C1541 1.403 . S
C1539 C1536 1.403 . S
C1539 C1540 1.524 . S
C1539 C1543 1.400 . S
C1540 H1525 0.960 . S
C1540 H1526 0.960 . S
C1540 H1527 0.960 . S
C1540 C1539 1.524 . S
C1541 C1538 1.403 . S
C1541 C1542 1.392 . S
C1541 C1545 1.495 . S
C1542 C1541 1.392 . S
C1542 C1543 1.385 . S
C1542 C1544 1.478 . S
C1543 H1537 0.930 . S
C1543 C1539 1.400 . S
C1543 C1542 1.385 . S
C1544 C1542 1.478 . S
C1544 C1546 1.381 . S
C1544 C1550 1.383 . S
C1545 C1541 1.495 . S
C1545 H1551 0.959 . S
C1545 H1552 0.961 . S
C1545 H1553 0.960 . S
C1546 C1544 1.381 . S
C1546 C1547 1.394 . S
C1546 H1554 0.930 . S
C1547 C1546 1.394 . S
C1547 C1548 1.383 . S
C1547 H1555 0.929 . S
C1548 C1547 1.383 . S
C1548 C1549 1.377 . S
C1549 H1533 0.930 . S
C1549 C1548 1.377 . S
C1549 C1550 1.379 . S
C1550 H1534 0.931 . S
C1550 C1544 1.383 . S
C1550 C1549 1.379 . S
H1551 C1545 0.959 . S
H1552 C1545 0.961 . S
H1553 C1545 0.960 . S
H1554 C1546 0.930 . S
H1555 C1547 0.929 . S
H1556 C1564 0.929 . S
H1557 C1566 0.930 . S
H1558 C1568 0.930 . S
H1559 C1571 0.929 . S
H1560 C1574 0.930 . S
H1561 C1576 0.960 . S
H1562 C1576 0.960 . S
H1563 C1576 0.960 . S
C1564 H1556 0.929 . S
C1564 C1565 1.377 . S
C1564 C1566 1.384 . S
C1565 C1564 1.377 . S
C1565 C1571 1.390 . S
C1566 H1557 0.930 . S
C1566 C1564 1.384 . S
C1566 C1567 1.372 . S
C1567 C1566 1.372 . S
C1567 C1568 1.400 . S
C1567 C1572 1.490 . S
C1568 H1558 0.930 . S
C1568 C1567 1.400 . S
C1568 C1571 1.386 . S
H1569 C1585 0.930 . S
H1570 C1586 0.931 . S
C1571 H1559 0.929 . S
C1571 C1565 1.390 . S
C1571 C1568 1.386 . S
C1572 C1567 1.490 . S
C1572 C1574 1.395 . S
C1572 C1575 1.403 . S
H1573 C1579 0.930 . S
C1574 H1560 0.930 . S
C1574 C1572 1.395 . S
C1574 C1577 1.403 . S
C1575 C1572 1.403 . S
C1575 C1576 1.524 . S
C1575 C1579 1.400 . S
C1576 H1561 0.960 . S
C1576 H1562 0.960 . S
C1576 H1563 0.960 . S
C1576 C1575 1.524 . S
C1577 C1574 1.403 . S
C1577 C1578 1.392 . S
C1577 C1581 1.495 . S
C1578 C1577 1.392 . S
C1578 C1579 1.385 . S
C1578 C1580 1.478 . S
C1579 H1573 0.930 . S
C1579 C1575 1.400 . S
C1579 C1578 1.385 . S
C1580 C1578 1.478 . S
C1580 C1582 1.381 . S
C1580 C1586 1.383 . S
C1581 C1577 1.495 . S
C1581 H1587 0.959 . S
C1581 H1588 0.961 . S
C1581 H1589 0.960 . S
C1582 C1580 1.381 . S
C1582 C1583 1.394 . S
C1582 H1590 0.930 . S
C1583 C1582 1.394 . S
C1583 C1584 1.383 . S
C1583 H1591 0.929 . S
C1584 C1583 1.383 . S
C1584 C1585 1.377 . S
C1585 H1569 0.930 . S
C1585 C1584 1.377 . S
C1585 C1586 1.379 . S
C1586 H1570 0.931 . S
C1586 C1580 1.383 . S
C1586 C1585 1.379 . S
H1587 C1581 0.959 . S
H1588 C1581 0.961 . S
H1589 C1581 0.960 . S
H1590 C1582 0.930 . S
H1591 C1583 0.929 . S
H1592 C1600 0.929 . S
H1593 C1602 0.930 . S
H1594 C1604 0.930 . S
H1595 C1607 0.929 . S
H1596 C1610 0.930 . S
H1597 C1612 0.960 . S
H1598 C1612 0.960 . S
H1599 C1612 0.960 . S
C1600 H1592 0.929 . S
C1600 C1601 1.377 . S
C1600 C1602 1.384 . S
C1601 C1600 1.377 . S
C1601 C1607 1.390 . S
C1602 H1593 0.930 . S
C1602 C1600 1.384 . S
C1602 C1603 1.372 . S
C1603 C1602 1.372 . S
C1603 C1604 1.400 . S
C1603 C1608 1.490 . S
C1604 H1594 0.930 . S
C1604 C1603 1.400 . S
C1604 C1607 1.386 . S
H1605 C1621 0.930 . S
H1606 C1622 0.931 . S
C1607 H1595 0.929 . S
C1607 C1601 1.390 . S
C1607 C1604 1.386 . S
C1608 C1603 1.490 . S
C1608 C1610 1.395 . S
C1608 C1611 1.403 . S
H1609 C1615 0.930 . S
C1610 H1596 0.930 . S
C1610 C1608 1.395 . S
C1610 C1613 1.403 . S
C1611 C1608 1.403 . S
C1611 C1612 1.524 . S
C1611 C1615 1.400 . S
C1612 H1597 0.960 . S
C1612 H1598 0.960 . S
C1612 H1599 0.960 . S
C1612 C1611 1.524 . S
C1613 C1610 1.403 . S
C1613 C1614 1.392 . S
C1613 C1617 1.495 . S
C1614 C1613 1.392 . S
C1614 C1615 1.385 . S
C1614 C1616 1.478 . S
C1615 H1609 0.930 . S
C1615 C1611 1.400 . S
C1615 C1614 1.385 . S
C1616 C1614 1.478 . S
C1616 C1618 1.381 . S
C1616 C1622 1.383 . S
C1617 C1613 1.495 . S
C1617 H1623 0.959 . S
C1617 H1624 0.961 . S
C1617 H1625 0.960 . S
C1618 C1616 1.381 . S
C1618 C1619 1.394 . S
C1618 H1626 0.930 . S
C1619 C1618 1.394 . S
C1619 C1620 1.383 . S
C1619 H1627 0.929 . S
C1620 C1619 1.383 . S
C1620 C1621 1.377 . S
C1621 H1605 0.930 . S
C1621 C1620 1.377 . S
C1621 C1622 1.379 . S
C1622 H1606 0.931 . S
C1622 C1616 1.383 . S
C1622 C1621 1.379 . S
H1623 C1617 0.959 . S
H1624 C1617 0.961 . S
H1625 C1617 0.960 . S
H1626 C1618 0.930 . S
H1627 C1619 0.929 . S
H1628 C1636 0.929 . S
H1629 C1638 0.930 . S
H1630 C1640 0.930 . S
H1631 C1643 0.929 . S
H1632 C1646 0.930 . S
H1633 C1648 0.960 . S
H1634 C1648 0.960 . S
H1635 C1648 0.960 . S
C1636 H1628 0.929 . S
C1636 C1637 1.377 . S
C1636 C1638 1.384 . S
C1637 C1636 1.377 . S
C1637 C1643 1.390 . S
C1638 H1629 0.930 . S
C1638 C1636 1.384 . S
C1638 C1639 1.372 . S
C1639 C1638 1.372 . S
C1639 C1640 1.400 . S
C1639 C1644 1.490 . S
C1640 H1630 0.930 . S
C1640 C1639 1.400 . S
C1640 C1643 1.386 . S
H1641 C1657 0.930 . S
H1642 C1658 0.931 . S
C1643 H1631 0.929 . S
C1643 C1637 1.390 . S
C1643 C1640 1.386 . S
C1644 C1639 1.490 . S
C1644 C1646 1.395 . S
C1644 C1647 1.403 . S
H1645 C1651 0.930 . S
C1646 H1632 0.930 . S
C1646 C1644 1.395 . S
C1646 C1649 1.403 . S
C1647 C1644 1.403 . S
C1647 C1648 1.524 . S
C1647 C1651 1.400 . S
C1648 H1633 0.960 . S
C1648 H1634 0.960 . S
C1648 H1635 0.960 . S
C1648 C1647 1.524 . S
C1649 C1646 1.403 . S
C1649 C1650 1.392 . S
C1649 C1653 1.495 . S
C1650 C1649 1.392 . S
C1650 C1651 1.385 . S
C1650 C1652 1.478 . S
C1651 H1645 0.930 . S
C1651 C1647 1.400 . S
C1651 C1650 1.385 . S
C1652 C1650 1.478 . S
C1652 C1654 1.381 . S
C1652 C1658 1.383 . S
C1653 C1649 1.495 . S
C1653 H1659 0.959 . S
C1653 H1660 0.961 . S
C1653 H1661 0.960 . S
C1654 C1652 1.381 . S
C1654 C1655 1.394 . S
C1654 H1662 0.930 . S
C1655 C1654 1.394 . S
C1655 C1656 1.383 . S
C1655 H1663 0.929 . S
C1656 C1655 1.383 . S
C1656 C1657 1.377 . S
C1657 H1641 0.930 . S
C1657 C1656 1.377 . S
C1657 C1658 1.379 . S
C1658 H1642 0.931 . S
C1658 C1652 1.383 . S
C1658 C1657 1.379 . S
H1659 C1653 0.959 . S
H1660 C1653 0.961 . S
H1661 C1653 0.960 . S
H1662 C1654 0.930 . S
H1663 C1655 0.929 . S
C540 C433 1.501 . S
C521 C45 1.505 . S
C557 C78 1.497 . S
C576 C465 1.475 . S
C593 C126 1.501 . S
C612 C488 1.507 . S
C648 C392 1.490 . S
C629 C174 1.500 . S
C684 C475 1.308 . S
C665 C36 1.469 . S
C720 C504 1.316 . S
C701 C69 1.468 . S
C756 C408 1.354 . S
C737 C117 1.469 . S
C792 C443 1.310 . S
C773 C165 1.465 . S
C809 C30 1.463 . S
C828 C471 1.314 . S
C845 C228 1.467 . S
C864 C446 1.383 . S
C881 C141 1.450 . S
C900 C414 1.310 . S
C936 C503 1.343 . S
C917 C270 1.461 . S
C972 C447 1.483 . S
C953 C21 1.513 . S
C989 C237 1.501 . S
C1008 C415 1.472 . S
C1025 C132 1.514 . S
C1044 C502 1.490 . S
C1080 C470 1.499 . S
C1061 C261 1.515 . S
C1097 C333 1.504 . S
C1116 C497 1.470 . S
C1133 C213 1.511 . S
C1152 C401 1.484 . S
C1169 C357 1.512 . S
C1188 C424 1.511 . S
C1205 C285 1.503 . S
C1224 C456 1.508 . S
C1260 C411 1.366 . S
C1241 C324 1.471 . S
C1277 C222 1.452 . S
C1296 C440 1.381 . S
C1313 C366 1.452 . S
C1332 C472 1.368 . S
C1368 C507 1.327 . S
C1349 C276 1.471 . S
C1385 C318 1.461 . S
C1404 C407 1.389 . S
C1421 C93 1.452 . S
C1440 C510 1.340 . S
C1457 C372 1.466 . S
C1476 C478 1.374 . S
C1512 C439 1.327 . S
C1493 C189 1.452 . S
C1548 C511 1.508 . S
C1529 C309 1.516 . S
C1584 C479 1.486 . S
C1565 C84 1.513 . S
C1620 C438 1.509 . S
C1601 C381 1.499 . S
C1656 C406 1.502 . S
C1637 C180 1.512 . S
