# Generated by pormake.
# Topology nom, (4,4)-cn, num edge types: 1
# Building blocks:
#     Node 0, Type 0, BuildingBlock: MIFKUJ_clean_linker_1, # of connection points: 4
#     Node 1, Type 0, BuildingBlock: MIFKUJ_clean_linker_1, # of connection points: 4
#     Node 2, Type 0, BuildingBlock: MIFKUJ_clean_linker_1, # of connection points: 4
#     Node 3, Type 0, BuildingBlock: MIFKUJ_clean_linker_1, # of connection points: 4
#     Node 4, Type 0, BuildingBlock: MIFKUJ_clean_linker_1, # of connection points: 4
#     Node 5, Type 0, BuildingBlock: MIFKUJ_clean_linker_1, # of connection points: 4
#     Node 6, Type 1, BuildingBlock: GALJAG_clean_sbu_0, # of connection points: 4
#     Node 7, Type 1, BuildingBlock: GALJAG_clean_sbu_0, # of connection points: 4
#     Node 8, Type 1, BuildingBlock: GALJAG_clean_sbu_0, # of connection points: 4
#     Node 9, Type 1, BuildingBlock: GALJAG_clean_sbu_0, # of connection points: 4
#     Node 10, Type 1, BuildingBlock: GALJAG_clean_sbu_0, # of connection points: 4
#     Node 11, Type 1, BuildingBlock: GALJAG_clean_sbu_0, # of connection points: 4
#     Edge 12, Type (0, 1), BuildingBlock: KIFKEQ_clean_linker_1, # of connection points: 2
#     Edge 13, Type (0, 1), BuildingBlock: KIFKEQ_clean_linker_1, # of connection points: 2
#     Edge 14, Type (0, 1), BuildingBlock: KIFKEQ_clean_linker_1, # of connection points: 2
#     Edge 15, Type (0, 1), BuildingBlock: KIFKEQ_clean_linker_1, # of connection points: 2
#     Edge 16, Type (0, 1), BuildingBlock: KIFKEQ_clean_linker_1, # of connection points: 2
#     Edge 17, Type (0, 1), BuildingBlock: KIFKEQ_clean_linker_1, # of connection points: 2
#     Edge 18, Type (0, 1), BuildingBlock: KIFKEQ_clean_linker_1, # of connection points: 2
#     Edge 19, Type (0, 1), BuildingBlock: KIFKEQ_clean_linker_1, # of connection points: 2
#     Edge 20, Type (0, 1), BuildingBlock: KIFKEQ_clean_linker_1, # of connection points: 2
#     Edge 21, Type (0, 1), BuildingBlock: KIFKEQ_clean_linker_1, # of connection points: 2
#     Edge 22, Type (0, 1), BuildingBlock: KIFKEQ_clean_linker_1, # of connection points: 2
#     Edge 23, Type (0, 1), BuildingBlock: KIFKEQ_clean_linker_1, # of connection points: 2
#     Edge 24, Type (0, 1), BuildingBlock: KIFKEQ_clean_linker_1, # of connection points: 2
#     Edge 25, Type (0, 1), BuildingBlock: KIFKEQ_clean_linker_1, # of connection points: 2
#     Edge 26, Type (0, 1), BuildingBlock: KIFKEQ_clean_linker_1, # of connection points: 2
#     Edge 27, Type (0, 1), BuildingBlock: KIFKEQ_clean_linker_1, # of connection points: 2
#     Edge 28, Type (0, 1), BuildingBlock: KIFKEQ_clean_linker_1, # of connection points: 2
#     Edge 29, Type (0, 1), BuildingBlock: KIFKEQ_clean_linker_1, # of connection points: 2
#     Edge 30, Type (0, 1), BuildingBlock: KIFKEQ_clean_linker_1, # of connection points: 2
#     Edge 31, Type (0, 1), BuildingBlock: KIFKEQ_clean_linker_1, # of connection points: 2
#     Edge 32, Type (0, 1), BuildingBlock: KIFKEQ_clean_linker_1, # of connection points: 2
#     Edge 33, Type (0, 1), BuildingBlock: KIFKEQ_clean_linker_1, # of connection points: 2
#     Edge 34, Type (0, 1), BuildingBlock: KIFKEQ_clean_linker_1, # of connection points: 2
#     Edge 35, Type (0, 1), BuildingBlock: KIFKEQ_clean_linker_1, # of connection points: 2
# Relax obj value: 0.004
# Max RMSD: 0.109
# Mean RMSD: 0.081
data_MOF--net-nom--node1-GALJAG_clean_sbu_0--node2-MIFKUJ_clean_linker_1--edge1-KIFKEQ_clean_linker_1
_symmetry_space_group_name_H-M    P1
_symmetry_Int_Tables_number       1
_symmetry_cell_setting            triclinic
loop_
_symmetry_equiv_pos_as_xyz
'x, y, z'
_cell_length_a     53.752779
_cell_length_b     53.647552
_cell_length_c     58.888249
_cell_angle_alpha  90.007601
_cell_angle_beta   89.985493
_cell_angle_gamma 120.05361
loop_
_atom_site_label
_atom_site_type_symbol
_atom_site_fract_x
_atom_site_fract_y
_atom_site_fract_z
_atom_type_partial_charge
H0 H 0.99863 0.50331 0.28193 0.0
H1 H 0.9664 0.48241 0.2495 0.0
H2 H 0.92253 0.52821 0.26849 0.0
H3 H 0.95531 0.54965 0.30079 0.0
H4 H 0.03629 0.5582 0.29087 0.0
H5 H 0.94662 0.48394 0.32678 0.0
H6 H 0.89604 0.46236 0.33793 0.0
H7 H 0.91503 0.54154 0.37156 0.0
H8 H 0.96531 0.56305 0.36019 0.0
H9 H 0.04456 0.59566 0.38587 0.0
H10 H 0.07619 0.60663 0.41873 0.0
H11 H 0.11376 0.56004 0.38794 0.0
H12 H 0.08209 0.54909 0.35519 0.0
H13 H 0.00394 0.54702 0.37094 0.0
H14 H 0.0881 0.62199 0.33948 0.0
H15 H 0.13829 0.65178 0.32811 0.0
H16 H 0.13087 0.58261 0.28574 0.0
H17 H 0.08062 0.55278 0.29728 0.0
C18 C 0.97929 0.52788 0.29393 0.0
C19 C 0.98214 0.50896 0.27911 0.0
C20 C 0.96374 0.49704 0.26057 0.0
C21 C 0.94198 0.5037 0.25648 0.0
C22 C 0.93893 0.52247 0.2714 0.0
C23 C 0.95761 0.53469 0.28985 0.0
C24 C 0.99965 0.54078 0.3132 0.0
C25 C 0.02923 0.55542 0.30842 0.0
C26 C 0.99045 0.53873 0.33601 0.0
C27 C 0.9597 0.52522 0.34245 0.0
C28 C 0.93981 0.49672 0.33635 0.0
C29 C 0.91095 0.48441 0.34274 0.0
C30 C 0.90161 0.50026 0.35565 0.0
C31 C 0.92164 0.52868 0.36186 0.0
C32 C 0.95036 0.54101 0.35532 0.0
C33 C 0.06106 0.57173 0.36795 0.0
C34 C 0.05968 0.5879 0.38616 0.0
C35 C 0.07771 0.59407 0.40496 0.0
C36 C 0.09744 0.58414 0.40597 0.0
C37 C 0.09908 0.56834 0.38756 0.0
C38 C 0.08099 0.56208 0.3688 0.0
C39 C 0.04059 0.56348 0.34866 0.0
C40 C 0.01106 0.54984 0.35341 0.0
C41 C 0.04983 0.56733 0.32578 0.0
C42 C 0.08063 0.58499 0.31944 0.0
C43 C 0.09737 0.61305 0.328 0.0
C44 C 0.12606 0.63009 0.32146 0.0
C45 C 0.13855 0.61954 0.30604 0.0
C46 C 0.12176 0.59146 0.29745 0.0
C47 C 0.09308 0.57436 0.30409 0.0
H48 H 0.42221 0.96495 0.52788 0.0
H49 H 0.39333 0.91483 0.5395 0.0
H50 H 0.45094 0.89453 0.50324 0.0
H51 H 0.48074 0.94523 0.49282 0.0
H52 H 0.47633 0.0033 0.53774 0.0
H53 H 0.42456 0.95575 0.4672 0.0
H54 H 0.4126 0.92216 0.43544 0.0
H55 H 0.50248 0.96396 0.417 0.0
H56 H 0.51431 0.99648 0.44922 0.0
H57 H 0.54828 0.07987 0.46451 0.0
H58 H 0.56843 0.12986 0.4522 0.0
H59 H 0.50668 0.13775 0.49407 0.0
H60 H 0.48603 0.08754 0.50569 0.0
H61 H 0.4979 0.03549 0.45763 0.0
H62 H 0.5529 0.08092 0.52205 0.0
H63 H 0.57378 0.11317 0.55451 0.0
H64 H 0.48964 0.07617 0.58527 0.0
H65 H 0.46873 0.04461 0.55236 0.0
C66 C 0.45347 0.95884 0.50925 0.0
C67 C 0.42871 0.94973 0.52251 0.0
C68 C 0.41201 0.92094 0.52895 0.0
C69 C 0.41959 0.90047 0.52215 0.0
C70 C 0.44455 0.90969 0.50895 0.0
C71 C 0.46145 0.93864 0.50272 0.0
C72 C 0.47098 0.98967 0.50281 0.0
C73 C 0.48069 0.01037 0.52019 0.0
C74 C 0.4782 0.99886 0.48 0.0
C75 C 0.47037 0.97841 0.46075 0.0
C76 C 0.44168 0.95741 0.45645 0.0
C77 C 0.43486 0.93841 0.43815 0.0
C78 C 0.4566 0.94024 0.42371 0.0
C79 C 0.48525 0.96153 0.42799 0.0
C80 C 0.49203 0.98036 0.4463 0.0
C81 C 0.51577 0.07998 0.48615 0.0
C82 C 0.53912 0.0924 0.47105 0.0
C83 C 0.55075 0.12104 0.46417 0.0
C84 C 0.53914 0.13779 0.47214 0.0
C85 C 0.51591 0.12535 0.48741 0.0
C86 C 0.5043 0.09674 0.49428 0.0
C87 C 0.50237 0.04913 0.49253 0.0
C88 C 0.49351 0.02847 0.47519 0.0
C89 C 0.49684 0.03994 0.51541 0.0
C90 C 0.50919 0.06049 0.53465 0.0
C91 C 0.53886 0.08007 0.5356 0.0
C92 C 0.55083 0.09827 0.5543 0.0
C93 C 0.5334 0.09717 0.57253 0.0
C94 C 0.50363 0.07778 0.57141 0.0
C95 C 0.49167 0.05958 0.55269 0.0
H96 H 0.51959 0.54812 0.70488 0.0
H97 H 0.50761 0.56922 0.73675 0.0
H98 H 0.41789 0.50457 0.72923 0.0
H99 H 0.43012 0.48463 0.69654 0.0
H100 H 0.50496 0.48724 0.70157 0.0
H101 H 0.48476 0.55728 0.66542 0.0
H102 H 0.45469 0.57769 0.65457 0.0
H103 H 0.39464 0.49731 0.62242 0.0
H104 H 0.42445 0.47685 0.63363 0.0
H105 H 0.47027 0.44346 0.60842 0.0
H106 H 0.48927 0.43062 0.57547 0.0
H107 H 0.57509 0.48003 0.60292 0.0
H108 H 0.55601 0.49274 0.63576 0.0
H109 H 0.47831 0.4927 0.62186 0.0
H110 H 0.48914 0.42017 0.6559 0.0
H111 H 0.50957 0.39063 0.66797 0.0
H112 H 0.57543 0.46287 0.7054 0.0
H113 H 0.55526 0.49258 0.69281 0.0
C114 C 0.47573 0.51493 0.69838 0.0
C115 C 0.49734 0.53864 0.71009 0.0
C116 C 0.49042 0.55052 0.72844 0.0
C117 C 0.46175 0.53854 0.73579 0.0
C118 C 0.44012 0.51471 0.72391 0.0
C119 C 0.44705 0.50311 0.7053 0.0
C120 C 0.48351 0.50224 0.67929 0.0
C121 C 0.49951 0.48874 0.68407 0.0
C122 C 0.47487 0.50277 0.6567 0.0
C123 C 0.45669 0.51539 0.6506 0.0
C124 C 0.46489 0.5439 0.65637 0.0
C125 C 0.44775 0.55557 0.6501 0.0
C126 C 0.42234 0.5391 0.63762 0.0
C127 C 0.41426 0.51063 0.6318 0.0
C128 C 0.43124 0.4989 0.63825 0.0
C129 C 0.51165 0.46889 0.62468 0.0
C130 C 0.49316 0.45142 0.60738 0.0
C131 C 0.50406 0.44419 0.58852 0.0
C132 C 0.53371 0.45435 0.58654 0.0
C133 C 0.55211 0.47149 0.60406 0.0
C134 C 0.54121 0.47877 0.62288 0.0
C135 C 0.50043 0.4782 0.644 0.0
C136 C 0.48378 0.49108 0.63932 0.0
C137 C 0.5074 0.47601 0.66681 0.0
C138 C 0.52082 0.45868 0.67328 0.0
C139 C 0.50823 0.42979 0.66643 0.0
C140 C 0.51973 0.41283 0.67355 0.0
C141 C 0.54403 0.42439 0.68772 0.0
C142 C 0.55684 0.45342 0.69433 0.0
C143 C 0.54525 0.47037 0.68727 0.0
H144 H 0.05089 0.55183 0.78672 0.0
H145 H 0.08442 0.57124 0.75467 0.0
H146 H 0.1064 0.50473 0.7639 0.0
H147 H 0.07314 0.48568 0.79628 0.0
H148 H 0.00282 0.49039 0.79032 0.0
H149 H 0.09358 0.56061 0.82637 0.0
H150 H 0.14394 0.57963 0.83668 0.0
H151 H 0.12117 0.49965 0.87084 0.0
H152 H 0.07121 0.48032 0.85946 0.0
H153 H 0.99332 0.45003 0.8846 0.0
H154 H 0.96091 0.43759 0.9171 0.0
H155 H 0.92355 0.48493 0.88736 0.0
H156 H 0.95614 0.49752 0.85499 0.0
H157 H 0.03425 0.49819 0.87046 0.0
H158 H 0.951 0.42522 0.83746 0.0
H159 H 0.90102 0.39543 0.82572 0.0
H160 H 0.90802 0.46574 0.78509 0.0
H161 H 0.95788 0.49585 0.79754 0.0
C162 C 0.05969 0.51744 0.79383 0.0
C163 C 0.06306 0.54155 0.78188 0.0
C164 C 0.08226 0.55267 0.7637 0.0
C165 C 0.09796 0.53947 0.75689 0.0
C166 C 0.09444 0.5152 0.7688 0.0
C167 C 0.07558 0.50438 0.78727 0.0
C168 C 0.03903 0.50572 0.81287 0.0
C169 C 0.00961 0.49243 0.8079 0.0
C170 C 0.048 0.50687 0.8356 0.0
C171 C 0.07866 0.51886 0.84184 0.0
C172 C 0.09952 0.54702 0.83575 0.0
C173 C 0.12828 0.558 0.84193 0.0
C174 C 0.13667 0.54116 0.85456 0.0
C175 C 0.11561 0.51306 0.86078 0.0
C176 C 0.08696 0.50206 0.85448 0.0
C177 C 0.97711 0.47458 0.86725 0.0
C178 C 0.97815 0.45773 0.88506 0.0
C179 C 0.95965 0.45068 0.90364 0.0
C180 C 0.93971 0.46034 0.90481 0.0
C181 C 0.93841 0.47686 0.88682 0.0
C182 C 0.95703 0.48404 0.86829 0.0
C183 C 0.99782 0.48338 0.84806 0.0
C184 C 0.02728 0.4961 0.85293 0.0
C185 C 0.98884 0.48044 0.82514 0.0
C186 C 0.95813 0.4629 0.81859 0.0
C187 C 0.94167 0.4344 0.82631 0.0
C188 C 0.91318 0.41726 0.81936 0.0
C189 C 0.90058 0.42817 0.80439 0.0
C190 C 0.91701 0.4568 0.7968 0.0
C191 C 0.94556 0.47396 0.80378 0.0
H192 H 0.60979 0.06853 0.0291 0.0
H193 H 0.64006 0.11778 0.04148 0.0
H194 H 0.59248 0.14439 0.99812 0.0
H195 H 0.55996 0.09443 0.98823 0.0
H196 H 0.55781 0.03315 0.0361 0.0
H197 H 0.60946 0.07261 0.96131 0.0
H198 H 0.62237 0.1044 0.92822 0.0
H199 H 0.53295 0.07975 0.91977 0.0
H200 H 0.52032 0.04713 0.952 0.0
H201 H 0.48291 0.95607 0.96447 0.0
H202 H 0.4625 0.90594 0.9522 0.0
H203 H 0.52692 0.89918 0.99122 0.0
H204 H 0.54754 0.94935 1.00302 0.0
H205 H 0.53426 1.00075 0.95618 0.0
H206 H 0.48034 0.95544 0.02138 0.0
H207 H 0.46032 0.92343 0.0541 0.0
H208 H 0.54537 0.95997 0.08302 0.0
H209 H 0.5653 0.99194 0.05023 0.0
C210 C 0.58272 0.07753 0.00736 0.0
C211 C 0.60565 0.08492 0.0224 0.0
C212 C 0.62339 0.11342 0.02921 0.0
C213 C 0.61925 0.1356 0.02069 0.0
C214 C 0.59636 0.12814 0.00542 0.0
C215 C 0.57799 0.09943 0.99922 0.0
C216 C 0.5635 0.04674 1.00111 0.0
C217 C 0.55313 0.02608 0.01857 0.0
C218 C 0.55558 0.0374 0.97839 0.0
C219 C 0.56397 0.05759 0.95903 0.0
C220 C 0.59275 0.07415 0.95224 0.0
C221 C 0.60006 0.09244 0.9334 0.0
C222 C 0.5787 0.09465 0.92115 0.0
C223 C 0.54994 0.07821 0.92835 0.0
C224 C 0.54265 0.05968 0.94691 0.0
C225 C 0.51661 0.95639 0.98479 0.0
C226 C 0.49253 0.94372 0.97044 0.0
C227 C 0.4808 0.91506 0.96355 0.0
C228 C 0.49316 0.89866 0.97071 0.0
C229 C 0.51712 0.91135 0.98524 0.0
C230 C 0.52873 0.93992 0.99219 0.0
C231 C 0.5302 0.98725 0.99109 0.0
C232 C 0.53918 0.00783 0.9737 0.0
C233 C 0.53629 0.99652 0.01392 0.0
C234 C 0.52438 0.97602 0.03325 0.0
C235 C 0.49476 0.95627 0.03459 0.0
C236 C 0.48332 0.93797 0.05332 0.0
C237 C 0.50124 0.93921 0.0712 0.0
C238 C 0.53093 0.95877 0.06969 0.0
C239 C 0.54237 0.977 0.05093 0.0
H240 H 0.52374 0.49992 0.20828 0.0
H241 H 0.53558 0.4791 0.24039 0.0
H242 H 0.62557 0.52849 0.22247 0.0
H243 H 0.61362 0.5503 0.19093 0.0
H244 H 0.53916 0.55501 0.2005 0.0
H245 H 0.55772 0.4839 0.16385 0.0
H246 H 0.58747 0.46314 0.1528 0.0
H247 H 0.6472 0.54297 0.11979 0.0
H248 H 0.61776 0.56379 0.1312 0.0
H249 H 0.57204 0.59818 0.10709 0.0
H250 H 0.55216 0.61019 0.07424 0.0
H251 H 0.46698 0.56067 0.10283 0.0
H252 H 0.48689 0.54867 0.13547 0.0
H253 H 0.56398 0.54856 0.12044 0.0
H254 H 0.55865 0.62327 0.16015 0.0
H255 H 0.53853 0.65304 0.17304 0.0
H256 H 0.464 0.57721 0.19908 0.0
H257 H 0.4846 0.54753 0.18674 0.0
C258 C 0.56773 0.52647 0.19705 0.0
C259 C 0.54604 0.50632 0.21129 0.0
C260 C 0.55283 0.4942 0.22953 0.0
C261 C 0.58153 0.50193 0.23396 0.0
C262 C 0.60328 0.5222 0.21968 0.0
C263 C 0.59646 0.53447 0.20148 0.0
C264 C 0.56001 0.53942 0.17799 0.0
C265 C 0.54431 0.55324 0.18297 0.0
C266 C 0.56805 0.53859 0.1552 0.0
C267 C 0.58569 0.52554 0.1486 0.0
C268 C 0.57738 0.49704 0.15447 0.0
C269 C 0.59436 0.48519 0.14812 0.0
C270 C 0.61964 0.50146 0.13544 0.0
C271 C 0.62768 0.52983 0.12935 0.0
C272 C 0.6109 0.54175 0.1359 0.0
C273 C 0.53104 0.57278 0.12391 0.0
C274 C 0.54911 0.59009 0.10635 0.0
C275 C 0.53771 0.59684 0.08754 0.0
C276 C 0.50797 0.58636 0.08591 0.0
C277 C 0.49001 0.56946 0.10371 0.0
C278 C 0.5014 0.56265 0.12245 0.0
C279 C 0.54265 0.5635 0.14296 0.0
C280 C 0.55896 0.55037 0.13799 0.0
C281 C 0.53616 0.56582 0.16583 0.0
C282 C 0.52302 0.58325 0.17245 0.0
C283 C 0.53792 0.61306 0.16854 0.0
C284 C 0.52653 0.63001 0.17596 0.0
C285 C 0.49981 0.6173 0.18702 0.0
C286 C 0.48461 0.58738 0.19051 0.0
C287 C 0.49633 0.57051 0.18354 0.0
In288 In 0.63793 0.39943 0.41051 0.0
O289 O 0.6858 0.43222 0.41465 0.0
O290 O 0.67395 0.39711 0.39212 0.0
C291 C 0.61675 0.41368 0.44672 0.0
C292 C 0.62362 0.41937 0.37348 0.0
C293 C 0.61769 0.34377 0.42168 0.0
O294 O 0.64315 0.42197 0.44459 0.0
O295 O 0.60121 0.39862 0.43045 0.0
O296 O 0.60652 0.35122 0.40615 0.0
O297 O 0.63903 0.36434 0.43136 0.0
C298 C 0.69397 0.41976 0.40084 0.0
O299 O 0.61793 0.39358 0.37519 0.0
O300 O 0.63607 0.43485 0.39053 0.0
In301 In 0.25817 0.63748 0.58069 0.0
O302 O 0.27438 0.60573 0.57668 0.0
O303 O 0.29661 0.64073 0.59961 0.0
C304 C 0.22177 0.6219 0.54488 0.0
C305 C 0.22416 0.61726 0.6178 0.0
C306 C 0.29436 0.6933 0.57031 0.0
O307 O 0.24123 0.61536 0.54627 0.0
O308 O 0.22041 0.63574 0.56165 0.0
O309 O 0.27648 0.68572 0.5864 0.0
O310 O 0.29412 0.67278 0.55966 0.0
C311 C 0.29464 0.61836 0.59078 0.0
O312 O 0.23759 0.64365 0.61266 0.0
O313 O 0.22766 0.60117 0.60415 0.0
In314 In 0.63934 0.25841 0.74728 0.0
O315 O 0.68749 0.27755 0.74149 0.0
O316 O 0.67405 0.29598 0.76733 0.0
C317 C 0.61843 0.22141 0.71186 0.0
C318 C 0.62577 0.22335 0.78374 0.0
C319 C 0.62025 0.29497 0.73686 0.0
O320 O 0.6448 0.23964 0.71395 0.0
O321 O 0.60283 0.22153 0.72778 0.0
O322 O 0.61198 0.2793 0.7544 0.0
O323 O 0.63808 0.2922 0.72479 0.0
C324 C 0.69474 0.29632 0.75691 0.0
O325 O 0.61141 0.23516 0.77817 0.0
O326 O 0.64665 0.22898 0.77083 0.0
In327 In 0.39896 0.63734 0.91106 0.0
O328 O 0.35098 0.60551 0.91531 0.0
O329 O 0.36358 0.64056 0.89247 0.0
C330 C 0.42054 0.62216 0.94656 0.0
C331 C 0.41338 0.61736 0.87414 0.0
C332 C 0.41733 0.69286 0.92155 0.0
O333 O 0.39423 0.61441 0.94499 0.0
O334 O 0.43569 0.63697 0.93009 0.0
O335 O 0.42574 0.68568 0.904 0.0
O336 O 0.39963 0.67208 0.93362 0.0
C337 C 0.34325 0.6182 0.90133 0.0
O338 O 0.42717 0.64349 0.88002 0.0
O339 O 0.39265 0.6014 0.88696 0.0
In340 In 0.78095 0.39852 0.08176 0.0
O341 O 0.79432 0.39357 0.11774 0.0
O342 O 0.81881 0.43384 0.10119 0.0
C343 C 0.7469 0.3419 0.07244 0.0
C344 C 0.74637 0.42005 0.09115 0.0
C345 C 0.81381 0.41347 0.04394 0.0
O346 O 0.77226 0.35217 0.07965 0.0
O347 O 0.73862 0.35996 0.07024 0.0
O348 O 0.79331 0.41846 0.04609 0.0
O349 O 0.81768 0.40136 0.0608 0.0
C350 C 0.81514 0.41905 0.1188 0.0
O351 O 0.76576 0.43097 0.07612 0.0
O352 O 0.74451 0.39839 0.1012 0.0
In353 In 0.40134 0.78019 0.24797 0.0
O354 O 0.43679 0.76838 0.24837 0.0
O355 O 0.39672 0.73858 0.23359 0.0
C356 C 0.41554 0.81501 0.28463 0.0
C357 C 0.42047 0.81433 0.21082 0.0
C358 C 0.34552 0.7456 0.25854 0.0
O359 O 0.421 0.79475 0.2833 0.0
O360 O 0.40341 0.81798 0.26735 0.0
O361 O 0.35336 0.76225 0.24155 0.0
O362 O 0.36579 0.74638 0.26992 0.0
C363 C 0.42193 0.74455 0.23847 0.0
O364 O 0.39435 0.79542 0.21337 0.0
O365 O 0.43659 0.8161 0.22703 0.0
H366 H 0.18494 0.65418 0.33254 0.0
H367 H 0.16073 0.62648 0.26316 0.0
H368 H 0.23471 0.68492 0.32062 0.0
H369 H 0.21071 0.65664 0.25132 0.0
H370 H 0.2977 0.73866 0.23637 0.0
H371 H 0.24747 0.70815 0.24766 0.0
H372 H 0.2746 0.67951 0.30632 0.0
H373 H 0.32463 0.71017 0.29522 0.0
C374 C 0.19026 0.65469 0.31474 0.0
C375 C 0.16891 0.6379 0.29879 0.0
C376 C 0.2188 0.67208 0.30794 0.0
C377 C 0.22665 0.67315 0.28503 0.0
C378 C 0.20529 0.65645 0.26906 0.0
C379 C 0.17674 0.63895 0.27588 0.0
C380 C 0.29288 0.72581 0.25165 0.0
C381 C 0.31507 0.72683 0.26493 0.0
C382 C 0.26414 0.70824 0.25806 0.0
C383 C 0.25708 0.69148 0.27792 0.0
C384 C 0.27934 0.69246 0.2911 0.0
C385 C 0.308 0.7099 0.28466 0.0
H386 H 0.59557 0.17916 0.46636 0.0
H387 H 0.50921 0.1646 0.46001 0.0
H388 H 0.61471 0.22851 0.45311 0.0
H389 H 0.52839 0.21425 0.44759 0.0
H390 H 0.57172 0.29569 0.40387 0.0
H391 H 0.55304 0.24569 0.41542 0.0
H392 H 0.61947 0.2736 0.46645 0.0
H393 H 0.6384 0.32341 0.45463 0.0
C394 C 0.58067 0.18647 0.4621 0.0
C395 C 0.55087 0.16795 0.46428 0.0
C396 C 0.59165 0.21484 0.45473 0.0
C397 C 0.57308 0.22534 0.44933 0.0
C398 C 0.54327 0.20676 0.45139 0.0
C399 C 0.5323 0.17841 0.45879 0.0
C400 C 0.58236 0.29109 0.4175 0.0
C401 C 0.60651 0.31344 0.42834 0.0
C402 C 0.57157 0.26248 0.4242 0.0
C403 C 0.58476 0.25566 0.44187 0.0
C404 C 0.60904 0.27807 0.45259 0.0
C405 C 0.61979 0.30664 0.4459 0.0
H406 H 0.39852 0.53546 0.59596 0.0
H407 H 0.40572 0.57086 0.66307 0.0
H408 H 0.36856 0.55535 0.58416 0.0
H409 H 0.37521 0.59029 0.65149 0.0
H410 H 0.34251 0.64452 0.61743 0.0
H411 H 0.3742 0.62622 0.62821 0.0
H412 H 0.32165 0.5487 0.58955 0.0
H413 H 0.29059 0.56751 0.5782 0.0
C414 C 0.39347 0.54731 0.60824 0.0
C415 C 0.40441 0.55156 0.63045 0.0
C416 C 0.37624 0.55866 0.60151 0.0
C417 C 0.36935 0.57437 0.61687 0.0
C418 C 0.38043 0.57871 0.63909 0.0
C419 C 0.39786 0.56752 0.64577 0.0
C420 C 0.33783 0.62362 0.61117 0.0
C421 C 0.3141 0.60745 0.59696 0.0
C422 C 0.35587 0.61303 0.61748 0.0
C423 C 0.35048 0.58593 0.60982 0.0
C424 C 0.32674 0.56984 0.5955 0.0
C425 C 0.30882 0.58053 0.58908 0.0
H426 H 0.85856 0.44244 0.79939 0.0
H427 H 0.87473 0.37175 0.79135 0.0
H428 H 0.80917 0.41157 0.78654 0.0
H429 H 0.82516 0.34065 0.77933 0.0
H430 H 0.71499 0.33786 0.78961 0.0
H431 H 0.76489 0.37028 0.8003 0.0
H432 H 0.79289 0.33351 0.74784 0.0
H433 H 0.74288 0.30068 0.73743 0.0
C434 C 0.8516 0.42035 0.79482 0.0
C435 C 0.87055 0.40953 0.79646 0.0
C436 C 0.82323 0.40258 0.78768 0.0
C437 C 0.81321 0.37363 0.78195 0.0
C438 C 0.83226 0.36292 0.78339 0.0
C439 C 0.86058 0.38065 0.79056 0.0
C440 C 0.73181 0.33677 0.78031 0.0
C441 C 0.72504 0.31668 0.76273 0.0
C442 C 0.76041 0.35547 0.78635 0.0
C443 C 0.78287 0.35447 0.77494 0.0
C444 C 0.77607 0.33457 0.75716 0.0
C445 C 0.74745 0.31588 0.75111 0.0
H446 H 0.43682 0.85612 0.96771 0.0
H447 H 0.52326 0.87336 0.95553 0.0
H448 H 0.41785 0.8066 0.95468 0.0
H449 H 0.50436 0.82374 0.94302 0.0
H450 H 0.45852 0.74139 0.90033 0.0
H451 H 0.47628 0.79144 0.91139 0.0
H452 H 0.41732 0.76262 0.96807 0.0
H453 H 0.39942 0.7127 0.95691 0.0
C454 C 0.45174 0.84935 0.96218 0.0
C455 C 0.48152 0.8686 0.96271 0.0
C456 C 0.4409 0.82095 0.9549 0.0
C457 C 0.45962 0.81128 0.94784 0.0
C458 C 0.48938 0.83063 0.94815 0.0
C459 C 0.50022 0.85894 0.95555 0.0
C460 C 0.4493 0.74579 0.91509 0.0
C461 C 0.42763 0.72316 0.92778 0.0
C462 C 0.45956 0.77441 0.92149 0.0
C463 C 0.44821 0.78096 0.94062 0.0
C464 C 0.42627 0.75829 0.95311 0.0
C465 C 0.41614 0.72969 0.94679 0.0
H466 H 0.63691 0.47091 0.16162 0.0
H467 H 0.64319 0.50407 0.09379 0.0
H468 H 0.66759 0.45149 0.15065 0.0
H469 H 0.67328 0.48406 0.08254 0.0
H470 H 0.75067 0.47056 0.07683 0.0
H471 H 0.72007 0.49027 0.08752 0.0
H472 H 0.66802 0.41478 0.12848 0.0
H473 H 0.6992 0.39573 0.11843 0.0
C474 C 0.64459 0.47373 0.14428 0.0
C475 C 0.63768 0.489 0.12857 0.0
C476 C 0.66213 0.46255 0.13794 0.0
C477 C 0.67294 0.46615 0.11567 0.0
C478 C 0.66579 0.48129 0.09993 0.0
C479 C 0.64846 0.49268 0.10634 0.0
C480 C 0.73266 0.45822 0.08809 0.0
C481 C 0.72738 0.43168 0.09686 0.0
C482 C 0.715 0.46942 0.09414 0.0
C483 C 0.69157 0.45417 0.10894 0.0
C484 C 0.68616 0.4274 0.11741 0.0
C485 C 0.70392 0.41636 0.11152 0.0
H486 H 0.36083 0.86866 0.52515 0.0
H487 H 0.43734 0.8625 0.53469 0.0
H488 H 0.33135 0.81895 0.53765 0.0
H489 H 0.40759 0.81241 0.54651 0.0
H490 H 0.33932 0.71477 0.54063 0.0
H491 H 0.37011 0.76491 0.52913 0.0
H492 H 0.32343 0.79059 0.57403 0.0
H493 H 0.29268 0.74045 0.58563 0.0
C494 C 0.37143 0.85683 0.53003 0.0
C495 C 0.40155 0.86975 0.529 0.0
C496 C 0.35448 0.82831 0.53714 0.0
C497 C 0.36719 0.81188 0.54313 0.0
C498 C 0.39721 0.82453 0.5418 0.0
C499 C 0.41422 0.85319 0.53492 0.0
C500 C 0.33573 0.73115 0.54812 0.0
C501 C 0.31359 0.72373 0.564 0.0
C502 C 0.35342 0.75983 0.5416 0.0
C503 C 0.34909 0.7816 0.55064 0.0
C504 C 0.32706 0.77419 0.56663 0.0
C505 C 0.30958 0.74555 0.57336 0.0
H506 H 0.60033 0.43813 0.69024 0.0
H507 H 0.51395 0.36919 0.70364 0.0
H508 H 0.61929 0.4077 0.70337 0.0
H509 H 0.53284 0.33854 0.71618 0.0
H510 H 0.57916 0.30218 0.75833 0.0
H511 H 0.56124 0.33431 0.74736 0.0
H512 H 0.6195 0.36421 0.69023 0.0
H513 H 0.63757 0.3324 0.70131 0.0
C514 C 0.58542 0.41652 0.69606 0.0
C515 C 0.55565 0.40603 0.69583 0.0
C516 C 0.59624 0.39902 0.70339 0.0
C517 C 0.57755 0.3707 0.71077 0.0
C518 C 0.54781 0.36033 0.71079 0.0
C519 C 0.53698 0.37778 0.70336 0.0
C520 C 0.58818 0.31571 0.74349 0.0
C521 C 0.60973 0.31477 0.73067 0.0
C522 C 0.57784 0.33399 0.73715 0.0
C523 C 0.58896 0.35179 0.71793 0.0
C524 C 0.61073 0.35103 0.70528 0.0
C525 C 0.62096 0.33267 0.71155 0.0
H526 H 0.16739 0.51299 0.85568 0.0
H527 H 0.17507 0.59578 0.86912 0.0
H528 H 0.21698 0.53179 0.86779 0.0
H529 H 0.22487 0.61465 0.88082 0.0
H530 H 0.32165 0.6444 0.87465 0.0
H531 H 0.27169 0.62596 0.86354 0.0
H532 H 0.24624 0.54918 0.90321 0.0
H533 H 0.29629 0.56757 0.91425 0.0
C534 C 0.17955 0.53513 0.86136 0.0
C535 C 0.16716 0.55284 0.86146 0.0
C536 C 0.20799 0.54589 0.86828 0.0
C537 C 0.22479 0.57467 0.8753 0.0
C538 C 0.21254 0.59247 0.87525 0.0
C539 C 0.18403 0.58166 0.86847 0.0
C540 C 0.30537 0.62363 0.88106 0.0
C541 C 0.31286 0.6074 0.89529 0.0
C542 C 0.27676 0.61314 0.87478 0.0
C543 C 0.25506 0.58611 0.88247 0.0
C544 C 0.26254 0.56995 0.89683 0.0
C545 C 0.29115 0.58054 0.90325 0.0
H546 H 0.67632 0.16221 0.03339 0.0
H547 H 0.60608 0.17899 0.02482 0.0
H548 H 0.70614 0.21033 0.04776 0.0
H549 H 0.63717 0.22832 0.03618 0.0
H550 H 0.68899 0.30903 0.07663 0.0
H551 H 0.65849 0.25911 0.06524 0.0
H552 H 0.73351 0.2576 0.0401 0.0
H553 H 0.76387 0.30663 0.05358 0.0
C554 C 0.6671 0.17606 0.03443 0.0
C555 C 0.63839 0.16614 0.02805 0.0
C556 C 0.68462 0.20418 0.04226 0.0
C557 C 0.67438 0.2237 0.04325 0.0
C558 C 0.6459 0.21402 0.03628 0.0
C559 C 0.62808 0.18561 0.02916 0.0
C560 C 0.69881 0.29774 0.06889 0.0
C561 C 0.72868 0.31146 0.06607 0.0
C562 C 0.68133 0.26916 0.06204 0.0
C563 C 0.69323 0.25393 0.05144 0.0
C564 C 0.72333 0.26802 0.04861 0.0
C565 C 0.74085 0.29629 0.05619 0.0
H566 H 0.44864 0.61297 0.17608 0.0
H567 H 0.52485 0.66218 0.21646 0.0
H568 H 0.43001 0.64378 0.18874 0.0
H569 H 0.50572 0.692 0.23045 0.0
H570 H 0.47798 0.75913 0.23349 0.0
H571 H 0.49666 0.7284 0.221 0.0
H572 H 0.40997 0.65575 0.21841 0.0
H573 H 0.39145 0.68713 0.22943 0.0
C574 C 0.46116 0.63023 0.18794 0.0
C575 C 0.48814 0.63538 0.19527 0.0
C576 C 0.45046 0.6478 0.19538 0.0
C577 C 0.46626 0.67053 0.21073 0.0
C578 C 0.49314 0.67522 0.21828 0.0
C579 C 0.50408 0.65804 0.21043 0.0
C580 C 0.46301 0.73655 0.23028 0.0
C581 C 0.43331 0.7255 0.23234 0.0
C582 C 0.47368 0.71881 0.22325 0.0
C583 C 0.45491 0.68941 0.2186 0.0
C584 C 0.42515 0.67833 0.22126 0.0
C585 C 0.41448 0.69624 0.22779 0.0
H586 H 0.88083 0.50291 0.39735 0.0
H587 H 0.85357 0.46855 0.32985 0.0
H588 H 0.83081 0.48285 0.40877 0.0
H589 H 0.80349 0.44887 0.34109 0.0
H590 H 0.71628 0.39398 0.3745 0.0
H591 H 0.76642 0.41249 0.36418 0.0
H592 H 0.79055 0.48976 0.40293 0.0
H593 H 0.74044 0.47076 0.4138 0.0
C594 C 0.86411 0.49121 0.38491 0.0
C595 C 0.87111 0.48733 0.36269 0.0
C596 C 0.83544 0.47978 0.39143 0.0
C597 C 0.81308 0.46432 0.37584 0.0
C598 C 0.82012 0.46027 0.35364 0.0
C599 C 0.84881 0.47157 0.34717 0.0
C600 C 0.73233 0.41488 0.38087 0.0
C601 C 0.72446 0.43093 0.39496 0.0
C602 C 0.76105 0.42559 0.37483 0.0
C603 C 0.78256 0.45268 0.38265 0.0
C604 C 0.77463 0.46865 0.39686 0.0
C605 C 0.7459 0.45785 0.403 0.0
H606 H 0.08151 0.58009 0.45049 0.0
H607 H 0.15443 0.60002 0.4077 0.0
H608 H 0.111 0.58813 0.48411 0.0
H609 H 0.18405 0.60826 0.44136 0.0
H610 H 0.22079 0.59271 0.50649 0.0
H611 H 0.19042 0.58293 0.473 0.0
H612 H 0.15036 0.62679 0.50445 0.0
H613 H 0.18019 0.63594 0.53801 0.0
C614 C 0.10394 0.5865 0.44827 0.0
C615 C 0.11565 0.58951 0.42642 0.0
C616 C 0.12084 0.59108 0.46754 0.0
C617 C 0.14991 0.59885 0.46545 0.0
C618 C 0.16163 0.60185 0.44359 0.0
C619 C 0.14468 0.5972 0.42429 0.0
C620 C 0.20536 0.6001 0.50626 0.0
C621 C 0.20282 0.61504 0.52488 0.0
C622 C 0.18811 0.59468 0.48702 0.0
C623 C 0.16797 0.60412 0.48601 0.0
C624 C 0.16535 0.61887 0.50476 0.0
C625 C 0.18255 0.62424 0.52397 0.0
H626 H 0.51281 0.12659 0.59677 0.0
H627 H 0.58315 0.10938 0.59442 0.0
H628 H 0.53362 0.15617 0.63055 0.0
H629 H 0.60395 0.13894 0.62819 0.0
H630 H 0.64732 0.21871 0.67459 0.0
H631 H 0.62701 0.1889 0.64078 0.0
H632 H 0.5422 0.15105 0.67039 0.0
H633 H 0.56244 0.18121 0.70394 0.0
C634 C 0.53261 0.12897 0.60355 0.0
C635 C 0.54631 0.11564 0.59288 0.0
C636 C 0.54453 0.14589 0.62292 0.0
C637 C 0.57043 0.14987 0.63211 0.0
C638 C 0.5842 0.13665 0.62137 0.0
C639 C 0.57228 0.11973 0.602 0.0
C640 C 0.62436 0.20392 0.67389 0.0
C641 C 0.60647 0.20232 0.69189 0.0
C642 C 0.61273 0.18676 0.65457 0.0
C643 C 0.58295 0.16767 0.65284 0.0
C644 C 0.56515 0.16585 0.67102 0.0
C645 C 0.57678 0.18298 0.69032 0.0
H646 H 0.41369 0.54332 0.74293 0.0
H647 H 0.49352 0.5611 0.77466 0.0
H648 H 0.40188 0.56228 0.77635 0.0
H649 H 0.48213 0.58122 0.80745 0.0
H650 H 0.4629 0.64365 0.84925 0.0
H651 H 0.47466 0.62487 0.81549 0.0
H652 H 0.39161 0.54755 0.81903 0.0
H653 H 0.37999 0.56605 0.85293 0.0
C654 C 0.42869 0.55111 0.75698 0.0
C655 C 0.45461 0.55061 0.75597 0.0
C656 C 0.42195 0.56212 0.77606 0.0
C657 C 0.44116 0.57329 0.79439 0.0
C658 C 0.46713 0.57308 0.79339 0.0
C659 C 0.47367 0.56166 0.7745 0.0
C660 C 0.44719 0.62265 0.8428 0.0
C661 C 0.42057 0.60627 0.85371 0.0
C662 C 0.45395 0.6119 0.82357 0.0
C663 C 0.434 0.58481 0.81468 0.0
C664 C 0.40727 0.56858 0.82545 0.0
C665 C 0.40071 0.57911 0.84489 0.0
H666 H 0.95476 0.4633 0.94939 0.0
H667 H 0.88234 0.44314 0.90597 0.0
H668 H 0.92429 0.45282 0.98271 0.0
H669 H 0.85162 0.43226 0.93937 0.0
H670 H 0.81213 0.44206 0.00588 0.0
H671 H 0.84253 0.4541 0.97209 0.0
H672 H 0.88585 0.41237 1.00163 0.0
H673 H 0.85614 0.40112 0.03541 0.0
C674 C 0.93223 0.45633 0.94697 0.0
C675 C 0.92093 0.45387 0.92504 0.0
C676 C 0.91473 0.45031 0.96607 0.0
C677 C 0.88543 0.44154 0.96374 0.0
C678 C 0.87416 0.43931 0.9418 0.0
C679 C 0.89173 0.44547 0.92266 0.0
C680 C 0.82821 0.43556 0.00511 0.0
C681 C 0.83185 0.42078 0.02332 0.0
C682 C 0.84551 0.44229 0.98572 0.0
C683 C 0.86674 0.43431 0.98416 0.0
C684 C 0.87011 0.41932 1.00238 0.0
C685 C 0.85294 0.41272 0.02173 0.0
H686 H 0.45954 0.88222 0.07297 0.0
H687 H 0.5149 0.95451 0.11566 0.0
H688 H 0.43942 0.85208 0.10664 0.0
H689 H 0.49476 0.92452 0.14925 0.0
H690 H 0.47591 0.85497 0.20191 0.0
H691 H 0.49495 0.88468 0.16809 0.0
H692 H 0.40939 0.84532 0.13974 0.0
H693 H 0.39038 0.81503 0.17353 0.0
C694 C 0.46725 0.89173 0.08955 0.0
C695 C 0.48893 0.92073 0.09163 0.0
C696 C 0.45569 0.87448 0.10884 0.0
C697 C 0.46551 0.88585 0.13065 0.0
C698 C 0.48705 0.91491 0.1327 0.0
C699 C 0.49863 0.93212 0.11343 0.0
C700 C 0.46113 0.85267 0.18849 0.0
C701 C 0.43164 0.83269 0.19039 0.0
C702 C 0.47204 0.86983 0.16913 0.0
C703 C 0.4537 0.86747 0.15121 0.0
C704 C 0.42415 0.84745 0.15312 0.0
C705 C 0.41322 0.83024 0.17253 0.0
H706 H 0.62715 0.52881 0.26323 0.0
H707 H 0.55189 0.44632 0.2495 0.0
H708 H 0.63784 0.5084 0.29618 0.0
H709 H 0.56168 0.42634 0.28316 0.0
H710 H 0.60269 0.39214 0.33289 0.0
H711 H 0.59363 0.41189 0.29859 0.0
H712 H 0.62016 0.49214 0.33368 0.0
H713 H 0.63004 0.47266 0.36765 0.0
C714 C 0.61294 0.50629 0.26716 0.0
C715 C 0.58861 0.48926 0.2537 0.0
C716 C 0.61885 0.49467 0.28627 0.0
C717 C 0.60051 0.46575 0.29248 0.0
C718 C 0.57642 0.44861 0.27882 0.0
C719 C 0.57059 0.46019 0.25965 0.0
C720 C 0.60652 0.41398 0.33324 0.0
C721 C 0.61708 0.43086 0.35294 0.0
C722 C 0.60123 0.42528 0.31362 0.0
C723 C 0.60623 0.45366 0.3133 0.0
C724 C 0.61656 0.4704 0.33314 0.0
C725 C 0.622 0.45916 0.35269 0.0
H726 H 0.4865 0.91466 0.40828 0.0
H727 H 0.41091 0.921 0.39447 0.0
H728 H 0.47689 0.88478 0.37469 0.0
H729 H 0.40044 0.88982 0.36152 0.0
H730 H 0.40891 0.86182 0.29008 0.0
H731 H 0.41843 0.89133 0.32397 0.0
H732 H 0.44492 0.83802 0.35958 0.0
H733 H 0.4362 0.80907 0.32541 0.0
C734 C 0.46776 0.90961 0.39812 0.0
C735 C 0.4496 0.92044 0.40401 0.0
C736 C 0.46205 0.89215 0.37899 0.0
C737 C 0.43793 0.88492 0.36532 0.0
C738 C 0.41945 0.89529 0.37146 0.0
C739 C 0.42523 0.91286 0.39055 0.0
C740 C 0.41687 0.85649 0.30513 0.0
C741 C 0.42189 0.83319 0.30508 0.0
C742 C 0.4221 0.87325 0.32463 0.0
C743 C 0.43233 0.86701 0.34458 0.0
C744 C 0.4374 0.84369 0.34445 0.0
C745 C 0.4323 0.82701 0.3249 0.0
H746 H 0.57564 0.4396 0.58436 0.0
H747 H 0.51873 0.45468 0.5422 0.0
H748 H 0.5958 0.43013 0.55053 0.0
H749 H 0.53891 0.44529 0.5084 0.0
H750 H 0.56064 0.39692 0.45511 0.0
H751 H 0.54045 0.40628 0.48894 0.0
H752 H 0.62558 0.455 0.51776 0.0
H753 H 0.6457 0.4451 0.48405 0.0
C754 C 0.56755 0.44106 0.56787 0.0
C755 C 0.54554 0.44785 0.566 0.0
C756 C 0.57914 0.43568 0.54847 0.0
C757 C 0.56901 0.437 0.52674 0.0
C758 C 0.54691 0.44368 0.52489 0.0
C759 C 0.53532 0.44903 0.54428 0.0
C760 C 0.57505 0.40969 0.46865 0.0
C761 C 0.60475 0.42028 0.46693 0.0
C762 C 0.5635 0.41518 0.488 0.0
C763 C 0.58139 0.43138 0.50608 0.0
C764 C 0.61115 0.44211 0.50428 0.0
C765 C 0.62271 0.43662 0.48491 0.0
H766 H 0.09937 0.50952 0.72005 0.0
H767 H 0.14018 0.59479 0.74903 0.0
H768 H 0.12958 0.52834 0.68641 0.0
H769 H 0.17155 0.61365 0.71597 0.0
H770 H 0.20292 0.64418 0.64416 0.0
H771 H 0.17249 0.62521 0.67769 0.0
H772 H 0.17574 0.54649 0.67193 0.0
H773 H 0.20478 0.56499 0.63775 0.0
C774 C 0.11519 0.53226 0.71932 0.0
C775 C 0.11746 0.55073 0.73706 0.0
C776 C 0.13264 0.54309 0.70008 0.0
C777 C 0.15313 0.57262 0.69832 0.0
C778 C 0.15566 0.59095 0.7164 0.0
C779 C 0.13786 0.58016 0.73545 0.0
C780 C 0.19701 0.6228 0.65008 0.0
C781 C 0.20608 0.60601 0.63832 0.0
C782 C 0.17975 0.61196 0.66943 0.0
C783 C 0.17157 0.58424 0.67768 0.0
C784 C 0.18102 0.56765 0.66593 0.0
C785 C 0.19786 0.57832 0.64638 0.0
H786 H 0.54742 0.08504 0.882 0.0
H787 H 0.62699 0.14752 0.91398 0.0
H788 H 0.55872 0.11674 0.84934 0.0
H789 H 0.63871 0.17854 0.88067 0.0
H790 H 0.66005 0.20613 0.80432 0.0
H791 H 0.64908 0.1754 0.83782 0.0
H792 H 0.56525 0.16749 0.84207 0.0
H793 H 0.57633 0.19859 0.80873 0.0
C794 C 0.56722 0.10557 0.88222 0.0
C795 C 0.58616 0.11371 0.90084 0.0
C796 C 0.57371 0.12365 0.8634 0.0
C797 C 0.59952 0.15008 0.86254 0.0
C798 C 0.61874 0.15813 0.88087 0.0
C799 C 0.61205 0.14025 0.89988 0.0
C800 C 0.63929 0.19784 0.81242 0.0
C801 C 0.61901 0.20469 0.80392 0.0
C802 C 0.6331 0.18042 0.83164 0.0
C803 C 0.60634 0.16911 0.84249 0.0
C804 C 0.58599 0.17582 0.83392 0.0
C805 C 0.59236 0.19366 0.81493 0.0
H806 H 0.52188 0.58466 0.04149 0.0
H807 H 0.46569 0.60061 0.08384 0.0
H808 H 0.50046 0.5924 0.0077 0.0
H809 H 0.44433 0.60851 0.05003 0.0
H810 H 0.3926 0.59147 0.98449 0.0
H811 H 0.41372 0.58253 0.01803 0.0
H812 H 0.49794 0.63025 0.98747 0.0
H813 H 0.47675 0.63859 0.95383 0.0
C814 C 0.5052 0.59018 0.04359 0.0
C815 C 0.49553 0.59207 0.06536 0.0
C816 C 0.49288 0.59457 0.02422 0.0
C817 C 0.47062 0.60102 0.02613 0.0
C818 C 0.46108 0.60309 0.04792 0.0
C819 C 0.47337 0.59864 0.0673 0.0
C820 C 0.41559 0.59988 0.98492 0.0
C821 C 0.43301 0.61569 0.96653 0.0
C822 C 0.42774 0.59495 0.00419 0.0
C823 C 0.45756 0.60575 0.00549 0.0
C824 C 0.47488 0.62131 0.98695 0.0
C825 C 0.46274 0.62621 0.96769 0.0
H826 H 0.8834 0.47865 0.25467 0.0
H827 H 0.9578 0.50107 0.21299 0.0
H828 H 0.85227 0.45779 0.22144 0.0
H829 H 0.9268 0.48007 0.17994 0.0
H830 H 0.86472 0.47052 0.12245 0.0
H831 H 0.89491 0.49101 0.15595 0.0
H832 H 0.83731 0.4154 0.19464 0.0
H833 H 0.80699 0.39479 0.16099 0.0
C834 C 0.89306 0.4792 0.2384 0.0
C835 C 0.92299 0.49144 0.2364 0.0
C836 C 0.87527 0.46706 0.21946 0.0
C837 C 0.88713 0.46729 0.19812 0.0
C838 C 0.91707 0.47975 0.19613 0.0
C839 C 0.93479 0.49158 0.21507 0.0
C840 C 0.85851 0.45823 0.13808 0.0
C841 C 0.83354 0.43102 0.1391 0.0
C842 C 0.87586 0.46992 0.15724 0.0
C843 C 0.86847 0.45479 0.17789 0.0
C844 C 0.84339 0.42764 0.17897 0.0
C845 C 0.82617 0.41577 0.15971 0.0
loop_
_geom_bond_atom_site_label_1
_geom_bond_atom_site_label_2
_geom_bond_distance
_geom_bond_site_symmetry_2
_ccdc_geom_bond_type
H0 C19 0.949 . S
H1 C20 0.950 . S
H2 C22 0.950 . S
H3 C23 0.950 . S
H4 C25 0.950 . S
H5 C28 0.950 . S
H6 C29 0.950 . S
H7 C31 0.951 . S
H8 C32 0.949 . S
H9 C34 0.949 . S
H10 C35 0.950 . S
H11 C37 0.950 . S
H12 C38 0.950 . S
H13 C40 0.950 . S
H14 C43 0.950 . S
H15 C44 0.950 . S
H16 C46 0.951 . S
H17 C47 0.949 . S
C18 C19 1.376 . S
C18 C23 1.386 . S
C18 C24 1.483 . S
C19 H0 0.949 . S
C19 C18 1.376 . S
C19 C20 1.397 . S
C20 H1 0.950 . S
C20 C19 1.397 . S
C20 C21 1.391 . S
C21 C20 1.391 . S
C21 C22 1.405 . S
C22 H2 0.950 . S
C22 C21 1.405 . S
C22 C23 1.367 . S
C23 H3 0.950 . S
C23 C18 1.386 . S
C23 C22 1.367 . S
C24 C18 1.483 . S
C24 C25 1.382 1_655 S
C24 C26 1.403 . S
C25 H4 0.950 . S
C25 C24 1.382 1_455 S
C25 C41 1.411 . S
C26 C24 1.403 . S
C26 C27 1.489 . S
C26 C40 1.411 1_655 S
C27 C26 1.489 . S
C27 C28 1.383 . S
C27 C32 1.382 . S
C28 H5 0.950 . S
C28 C27 1.383 . S
C28 C29 1.395 . S
C29 H6 0.950 . S
C29 C28 1.395 . S
C29 C30 1.288 . S
C30 C29 1.288 . S
C30 C31 1.392 . S
C31 H7 0.951 . S
C31 C30 1.392 . S
C31 C32 1.392 . S
C32 H8 0.949 . S
C32 C27 1.382 . S
C32 C31 1.392 . S
C33 C34 1.376 . S
C33 C38 1.386 . S
C33 C39 1.483 . S
C34 H9 0.949 . S
C34 C33 1.376 . S
C34 C35 1.397 . S
C35 H10 0.950 . S
C35 C34 1.397 . S
C35 C36 1.391 . S
C36 C35 1.391 . S
C36 C37 1.405 . S
C37 H11 0.950 . S
C37 C36 1.405 . S
C37 C38 1.367 . S
C38 H12 0.950 . S
C38 C33 1.386 . S
C38 C37 1.367 . S
C39 C33 1.483 . S
C39 C40 1.382 . S
C39 C41 1.403 . S
C40 H13 0.950 . S
C40 C26 1.411 1_455 S
C40 C39 1.382 . S
C41 C25 1.411 . S
C41 C39 1.403 . S
C41 C42 1.489 . S
C42 C41 1.489 . S
C42 C43 1.383 . S
C42 C47 1.382 . S
C43 H14 0.950 . S
C43 C42 1.383 . S
C43 C44 1.395 . S
C44 H15 0.950 . S
C44 C43 1.395 . S
C44 C45 1.288 . S
C45 C44 1.288 . S
C45 C46 1.392 . S
C46 H16 0.951 . S
C46 C45 1.392 . S
C46 C47 1.392 . S
C47 H17 0.949 . S
C47 C42 1.382 . S
C47 C46 1.392 . S
H48 C67 0.949 . S
H49 C68 0.950 . S
H50 C70 0.950 . S
H51 C71 0.950 . S
H52 C73 0.956 . S
H53 C76 0.950 . S
H54 C77 0.950 . S
H55 C79 0.951 . S
H56 C80 0.949 . S
H57 C82 0.949 . S
H58 C83 0.950 . S
H59 C85 0.950 . S
H60 C86 0.950 . S
H61 C88 0.950 . S
H62 C91 0.950 . S
H63 C92 0.950 . S
H64 C94 0.951 . S
H65 C95 0.949 . S
C66 C67 1.376 . S
C66 C71 1.386 . S
C66 C72 1.483 . S
C67 H48 0.949 . S
C67 C66 1.376 . S
C67 C68 1.397 . S
C68 H49 0.950 . S
C68 C67 1.397 . S
C68 C69 1.391 . S
C69 C68 1.391 . S
C69 C70 1.405 . S
C70 H50 0.950 . S
C70 C69 1.405 . S
C70 C71 1.367 . S
C71 H51 0.950 . S
C71 C66 1.386 . S
C71 C70 1.367 . S
C72 C66 1.483 . S
C72 C73 1.382 1_565 S
C72 C74 1.403 . S
C73 H52 0.956 . S
C73 C72 1.382 1_545 S
C73 C89 1.411 . S
C74 C72 1.403 . S
C74 C75 1.489 . S
C74 C88 1.411 1_565 S
C75 C74 1.489 . S
C75 C76 1.383 . S
C75 C80 1.382 . S
C76 H53 0.950 . S
C76 C75 1.383 . S
C76 C77 1.395 . S
C77 H54 0.950 . S
C77 C76 1.395 . S
C77 C78 1.288 . S
C78 C77 1.288 . S
C78 C79 1.392 . S
C79 H55 0.951 . S
C79 C78 1.392 . S
C79 C80 1.392 . S
C80 H56 0.949 . S
C80 C75 1.382 . S
C80 C79 1.392 . S
C81 C82 1.376 . S
C81 C86 1.386 . S
C81 C87 1.483 . S
C82 H57 0.949 . S
C82 C81 1.376 . S
C82 C83 1.397 . S
C83 H58 0.950 . S
C83 C82 1.397 . S
C83 C84 1.391 . S
C84 C83 1.391 . S
C84 C85 1.405 . S
C85 H59 0.950 . S
C85 C84 1.405 . S
C85 C86 1.367 . S
C86 H60 0.950 . S
C86 C81 1.386 . S
C86 C85 1.367 . S
C87 C81 1.483 . S
C87 C88 1.382 . S
C87 C89 1.403 . S
C88 H61 0.950 . S
C88 C74 1.411 1_545 S
C88 C87 1.382 . S
C89 C73 1.411 . S
C89 C87 1.403 . S
C89 C90 1.489 . S
C90 C89 1.489 . S
C90 C91 1.383 . S
C90 C95 1.382 . S
C91 H62 0.950 . S
C91 C90 1.383 . S
C91 C92 1.395 . S
C92 H63 0.950 . S
C92 C91 1.395 . S
C92 C93 1.288 . S
C93 C92 1.288 . S
C93 C94 1.392 . S
C94 H64 0.951 . S
C94 C93 1.392 . S
C94 C95 1.392 . S
C95 H65 0.949 . S
C95 C90 1.382 . S
C95 C94 1.392 . S
H96 C115 0.949 . S
H97 C116 0.950 . S
H98 C118 0.950 . S
H99 C119 0.950 . S
H100 C121 0.950 . S
H101 C124 0.950 . S
H102 C125 0.950 . S
H103 C127 0.951 . S
H104 C128 0.949 . S
H105 C130 0.949 . S
H106 C131 0.950 . S
H107 C133 0.950 . S
H108 C134 0.950 . S
H109 C136 0.950 . S
H110 C139 0.950 . S
H111 C140 0.950 . S
H112 C142 0.951 . S
H113 C143 0.949 . S
C114 C115 1.376 . S
C114 C119 1.386 . S
C114 C120 1.483 . S
C115 H96 0.949 . S
C115 C114 1.376 . S
C115 C116 1.397 . S
C116 H97 0.950 . S
C116 C115 1.397 . S
C116 C117 1.391 . S
C117 C116 1.391 . S
C117 C118 1.405 . S
C118 H98 0.950 . S
C118 C117 1.405 . S
C118 C119 1.367 . S
C119 H99 0.950 . S
C119 C114 1.386 . S
C119 C118 1.367 . S
C120 C114 1.483 . S
C120 C121 1.382 . S
C120 C122 1.403 . S
C121 H100 0.950 . S
C121 C120 1.382 . S
C121 C137 1.411 . S
C122 C120 1.403 . S
C122 C123 1.489 . S
C122 C136 1.411 . S
C123 C122 1.489 . S
C123 C124 1.383 . S
C123 C128 1.382 . S
C124 H101 0.950 . S
C124 C123 1.383 . S
C124 C125 1.395 . S
C125 H102 0.950 . S
C125 C124 1.395 . S
C125 C126 1.288 . S
C126 C125 1.288 . S
C126 C127 1.392 . S
C127 H103 0.951 . S
C127 C126 1.392 . S
C127 C128 1.392 . S
C128 H104 0.949 . S
C128 C123 1.382 . S
C128 C127 1.392 . S
C129 C130 1.376 . S
C129 C134 1.386 . S
C129 C135 1.483 . S
C130 H105 0.949 . S
C130 C129 1.376 . S
C130 C131 1.397 . S
C131 H106 0.950 . S
C131 C130 1.397 . S
C131 C132 1.391 . S
C132 C131 1.391 . S
C132 C133 1.405 . S
C133 H107 0.950 . S
C133 C132 1.405 . S
C133 C134 1.367 . S
C134 H108 0.950 . S
C134 C129 1.386 . S
C134 C133 1.367 . S
C135 C129 1.483 . S
C135 C136 1.382 . S
C135 C137 1.403 . S
C136 H109 0.950 . S
C136 C122 1.411 . S
C136 C135 1.382 . S
C137 C121 1.411 . S
C137 C135 1.403 . S
C137 C138 1.489 . S
C138 C137 1.489 . S
C138 C139 1.383 . S
C138 C143 1.382 . S
C139 H110 0.950 . S
C139 C138 1.383 . S
C139 C140 1.395 . S
C140 H111 0.950 . S
C140 C139 1.395 . S
C140 C141 1.288 . S
C141 C140 1.288 . S
C141 C142 1.392 . S
C142 H112 0.951 . S
C142 C141 1.392 . S
C142 C143 1.392 . S
C143 H113 0.949 . S
C143 C138 1.382 . S
C143 C142 1.392 . S
H144 C163 0.949 . S
H145 C164 0.950 . S
H146 C166 0.950 . S
H147 C167 0.950 . S
H148 C169 0.950 . S
H149 C172 0.950 . S
H150 C173 0.950 . S
H151 C175 0.951 . S
H152 C176 0.949 . S
H153 C178 0.949 . S
H154 C179 0.950 . S
H155 C181 0.950 . S
H156 C182 0.950 . S
H157 C184 0.950 . S
H158 C187 0.950 . S
H159 C188 0.950 . S
H160 C190 0.951 . S
H161 C191 0.949 . S
C162 C163 1.376 . S
C162 C167 1.386 . S
C162 C168 1.483 . S
C163 H144 0.949 . S
C163 C162 1.376 . S
C163 C164 1.397 . S
C164 H145 0.950 . S
C164 C163 1.397 . S
C164 C165 1.391 . S
C165 C164 1.391 . S
C165 C166 1.405 . S
C166 H146 0.950 . S
C166 C165 1.405 . S
C166 C167 1.367 . S
C167 H147 0.950 . S
C167 C162 1.386 . S
C167 C166 1.367 . S
C168 C162 1.483 . S
C168 C169 1.382 . S
C168 C170 1.403 . S
C169 H148 0.950 . S
C169 C168 1.382 . S
C169 C185 1.411 1_455 S
C170 C168 1.403 . S
C170 C171 1.489 . S
C170 C184 1.411 . S
C171 C170 1.489 . S
C171 C172 1.383 . S
C171 C176 1.382 . S
C172 H149 0.950 . S
C172 C171 1.383 . S
C172 C173 1.395 . S
C173 H150 0.950 . S
C173 C172 1.395 . S
C173 C174 1.288 . S
C174 C173 1.288 . S
C174 C175 1.392 . S
C175 H151 0.951 . S
C175 C174 1.392 . S
C175 C176 1.392 . S
C176 H152 0.949 . S
C176 C171 1.382 . S
C176 C175 1.392 . S
C177 C178 1.376 . S
C177 C182 1.386 . S
C177 C183 1.483 . S
C178 H153 0.949 . S
C178 C177 1.376 . S
C178 C179 1.397 . S
C179 H154 0.950 . S
C179 C178 1.397 . S
C179 C180 1.391 . S
C180 C179 1.391 . S
C180 C181 1.405 . S
C181 H155 0.950 . S
C181 C180 1.405 . S
C181 C182 1.367 . S
C182 H156 0.950 . S
C182 C177 1.386 . S
C182 C181 1.367 . S
C183 C177 1.483 . S
C183 C184 1.382 1_655 S
C183 C185 1.403 . S
C184 H157 0.950 . S
C184 C170 1.411 . S
C184 C183 1.382 1_455 S
C185 C169 1.411 1_655 S
C185 C183 1.403 . S
C185 C186 1.489 . S
C186 C185 1.489 . S
C186 C187 1.383 . S
C186 C191 1.382 . S
C187 H158 0.950 . S
C187 C186 1.383 . S
C187 C188 1.395 . S
C188 H159 0.950 . S
C188 C187 1.395 . S
C188 C189 1.288 . S
C189 C188 1.288 . S
C189 C190 1.392 . S
C190 H160 0.951 . S
C190 C189 1.392 . S
C190 C191 1.392 . S
C191 H161 0.949 . S
C191 C186 1.382 . S
C191 C190 1.392 . S
H192 C211 0.949 . S
H193 C212 0.950 . S
H194 C214 0.950 . S
H195 C215 0.950 . S
H196 C217 0.950 . S
H197 C220 0.950 . S
H198 C221 0.950 . S
H199 C223 0.951 . S
H200 C224 0.949 . S
H201 C226 0.949 . S
H202 C227 0.950 . S
H203 C229 0.950 . S
H204 C230 0.950 . S
H205 C232 0.955 . S
H206 C235 0.950 . S
H207 C236 0.950 . S
H208 C238 0.951 . S
H209 C239 0.949 . S
C210 C211 1.376 . S
C210 C215 1.386 1_554 S
C210 C216 1.483 1_554 S
C211 H192 0.949 . S
C211 C210 1.376 . S
C211 C212 1.397 . S
C212 H193 0.950 . S
C212 C211 1.397 . S
C212 C213 1.391 . S
C213 C212 1.391 . S
C213 C214 1.405 . S
C214 H194 0.950 . S
C214 C213 1.405 . S
C214 C215 1.367 1_554 S
C215 H195 0.950 . S
C215 C210 1.386 1_556 S
C215 C214 1.367 1_556 S
C216 C210 1.483 1_556 S
C216 C217 1.382 1_556 S
C216 C218 1.403 . S
C217 H196 0.950 . S
C217 C216 1.382 1_554 S
C217 C233 1.411 1_545 S
C218 C216 1.403 . S
C218 C219 1.489 . S
C218 C232 1.411 . S
C219 C218 1.489 . S
C219 C220 1.383 . S
C219 C224 1.382 . S
C220 H197 0.950 . S
C220 C219 1.383 . S
C220 C221 1.395 . S
C221 H198 0.950 . S
C221 C220 1.395 . S
C221 C222 1.288 . S
C222 C221 1.288 . S
C222 C223 1.392 . S
C223 H199 0.951 . S
C223 C222 1.392 . S
C223 C224 1.392 . S
C224 H200 0.949 . S
C224 C219 1.382 . S
C224 C223 1.392 . S
C225 C226 1.376 . S
C225 C230 1.386 . S
C225 C231 1.483 . S
C226 H201 0.949 . S
C226 C225 1.376 . S
C226 C227 1.397 . S
C227 H202 0.950 . S
C227 C226 1.397 . S
C227 C228 1.391 . S
C228 C227 1.391 . S
C228 C229 1.405 . S
C229 H203 0.950 . S
C229 C228 1.405 . S
C229 C230 1.367 . S
C230 H204 0.950 . S
C230 C225 1.386 . S
C230 C229 1.367 . S
C231 C225 1.483 . S
C231 C232 1.382 1_565 S
C231 C233 1.403 1_556 S
C232 H205 0.955 . S
C232 C218 1.411 . S
C232 C231 1.382 1_545 S
C233 C217 1.411 1_565 S
C233 C231 1.403 1_554 S
C233 C234 1.489 . S
C234 C233 1.489 . S
C234 C235 1.383 . S
C234 C239 1.382 . S
C235 H206 0.950 . S
C235 C234 1.383 . S
C235 C236 1.395 . S
C236 H207 0.950 . S
C236 C235 1.395 . S
C236 C237 1.288 . S
C237 C236 1.288 . S
C237 C238 1.392 . S
C238 H208 0.951 . S
C238 C237 1.392 . S
C238 C239 1.392 . S
C239 H209 0.949 . S
C239 C234 1.382 . S
C239 C238 1.392 . S
H240 C259 0.949 . S
H241 C260 0.950 . S
H242 C262 0.950 . S
H243 C263 0.950 . S
H244 C265 0.950 . S
H245 C268 0.950 . S
H246 C269 0.950 . S
H247 C271 0.951 . S
H248 C272 0.949 . S
H249 C274 0.949 . S
H250 C275 0.950 . S
H251 C277 0.950 . S
H252 C278 0.950 . S
H253 C280 0.950 . S
H254 C283 0.950 . S
H255 C284 0.950 . S
H256 C286 0.951 . S
H257 C287 0.949 . S
C258 C259 1.376 . S
C258 C263 1.386 . S
C258 C264 1.483 . S
C259 H240 0.949 . S
C259 C258 1.376 . S
C259 C260 1.397 . S
C260 H241 0.950 . S
C260 C259 1.397 . S
C260 C261 1.391 . S
C261 C260 1.391 . S
C261 C262 1.405 . S
C262 H242 0.950 . S
C262 C261 1.405 . S
C262 C263 1.367 . S
C263 H243 0.950 . S
C263 C258 1.386 . S
C263 C262 1.367 . S
C264 C258 1.483 . S
C264 C265 1.382 . S
C264 C266 1.403 . S
C265 H244 0.950 . S
C265 C264 1.382 . S
C265 C281 1.411 . S
C266 C264 1.403 . S
C266 C267 1.489 . S
C266 C280 1.411 . S
C267 C266 1.489 . S
C267 C268 1.383 . S
C267 C272 1.382 . S
C268 H245 0.950 . S
C268 C267 1.383 . S
C268 C269 1.395 . S
C269 H246 0.950 . S
C269 C268 1.395 . S
C269 C270 1.288 . S
C270 C269 1.288 . S
C270 C271 1.392 . S
C271 H247 0.951 . S
C271 C270 1.392 . S
C271 C272 1.392 . S
C272 H248 0.949 . S
C272 C267 1.382 . S
C272 C271 1.392 . S
C273 C274 1.376 . S
C273 C278 1.386 . S
C273 C279 1.483 . S
C274 H249 0.949 . S
C274 C273 1.376 . S
C274 C275 1.397 . S
C275 H250 0.950 . S
C275 C274 1.397 . S
C275 C276 1.391 . S
C276 C275 1.391 . S
C276 C277 1.405 . S
C277 H251 0.950 . S
C277 C276 1.405 . S
C277 C278 1.367 . S
C278 H252 0.950 . S
C278 C273 1.386 . S
C278 C277 1.367 . S
C279 C273 1.483 . S
C279 C280 1.382 . S
C279 C281 1.403 . S
C280 H253 0.950 . S
C280 C266 1.411 . S
C280 C279 1.382 . S
C281 C265 1.411 . S
C281 C279 1.403 . S
C281 C282 1.489 . S
C282 C281 1.489 . S
C282 C283 1.383 . S
C282 C287 1.382 . S
C283 H254 0.950 . S
C283 C282 1.383 . S
C283 C284 1.395 . S
C284 H255 0.950 . S
C284 C283 1.395 . S
C284 C285 1.288 . S
C285 C284 1.288 . S
C285 C286 1.392 . S
C286 H256 0.951 . S
C286 C285 1.392 . S
C286 C287 1.392 . S
C287 H257 0.949 . S
C287 C282 1.382 . S
C287 C286 1.392 . S
In288 O289 2.294 . S
In288 O290 2.326 . S
In288 O294 2.266 . S
In288 O295 2.326 . S
In288 O296 2.266 . S
In288 O297 2.326 . S
In288 O299 2.294 . S
In288 O300 2.326 . S
O289 In288 2.294 . S
O289 C298 1.240 . S
O290 In288 2.326 . S
O290 C298 1.252 . S
C291 O294 1.252 . S
C291 O295 1.260 . S
C292 O299 1.240 . S
C292 O300 1.252 . S
C293 O296 1.252 . S
C293 O297 1.260 . S
O294 In288 2.266 . S
O294 C291 1.252 . S
O295 In288 2.326 . S
O295 C291 1.260 . S
O296 In288 2.266 . S
O296 C293 1.252 . S
O297 In288 2.326 . S
O297 C293 1.260 . S
C298 O289 1.240 . S
C298 O290 1.252 . S
O299 In288 2.294 . S
O299 C292 1.240 . S
O300 In288 2.326 . S
O300 C292 1.252 . S
In301 O302 2.294 . S
In301 O303 2.326 . S
In301 O307 2.266 . S
In301 O308 2.326 . S
In301 O309 2.266 . S
In301 O310 2.326 . S
In301 O312 2.294 . S
In301 O313 2.326 . S
O302 In301 2.294 . S
O302 C311 1.240 . S
O303 In301 2.326 . S
O303 C311 1.252 . S
C304 O307 1.252 . S
C304 O308 1.260 . S
C305 O312 1.240 . S
C305 O313 1.252 . S
C306 O309 1.252 . S
C306 O310 1.260 . S
O307 In301 2.266 . S
O307 C304 1.252 . S
O308 In301 2.326 . S
O308 C304 1.260 . S
O309 In301 2.266 . S
O309 C306 1.252 . S
O310 In301 2.326 . S
O310 C306 1.260 . S
C311 O302 1.240 . S
C311 O303 1.252 . S
O312 In301 2.294 . S
O312 C305 1.240 . S
O313 In301 2.326 . S
O313 C305 1.252 . S
In314 O315 2.294 . S
In314 O316 2.326 . S
In314 O320 2.266 . S
In314 O321 2.326 . S
In314 O322 2.266 . S
In314 O323 2.326 . S
In314 O325 2.294 . S
In314 O326 2.326 . S
O315 In314 2.294 . S
O315 C324 1.240 . S
O316 In314 2.326 . S
O316 C324 1.252 . S
C317 O320 1.252 . S
C317 O321 1.260 . S
C318 O325 1.240 . S
C318 O326 1.252 . S
C319 O322 1.252 . S
C319 O323 1.260 . S
O320 In314 2.266 . S
O320 C317 1.252 . S
O321 In314 2.326 . S
O321 C317 1.260 . S
O322 In314 2.266 . S
O322 C319 1.252 . S
O323 In314 2.326 . S
O323 C319 1.260 . S
C324 O315 1.240 . S
C324 O316 1.252 . S
O325 In314 2.294 . S
O325 C318 1.240 . S
O326 In314 2.326 . S
O326 C318 1.252 . S
In327 O328 2.294 . S
In327 O329 2.326 . S
In327 O333 2.266 . S
In327 O334 2.326 . S
In327 O335 2.266 . S
In327 O336 2.326 . S
In327 O338 2.294 . S
In327 O339 2.326 . S
O328 In327 2.294 . S
O328 C337 1.240 . S
O329 In327 2.326 . S
O329 C337 1.252 . S
C330 O333 1.252 . S
C330 O334 1.260 . S
C331 O338 1.240 . S
C331 O339 1.252 . S
C332 O335 1.252 . S
C332 O336 1.260 . S
O333 In327 2.266 . S
O333 C330 1.252 . S
O334 In327 2.326 . S
O334 C330 1.260 . S
O335 In327 2.266 . S
O335 C332 1.252 . S
O336 In327 2.326 . S
O336 C332 1.260 . S
C337 O328 1.240 . S
C337 O329 1.252 . S
O338 In327 2.294 . S
O338 C331 1.240 . S
O339 In327 2.326 . S
O339 C331 1.252 . S
In340 O341 2.294 . S
In340 O342 2.326 . S
In340 O346 2.266 . S
In340 O347 2.326 . S
In340 O348 2.266 . S
In340 O349 2.326 . S
In340 O351 2.294 . S
In340 O352 2.326 . S
O341 In340 2.294 . S
O341 C350 1.240 . S
O342 In340 2.326 . S
O342 C350 1.252 . S
C343 O346 1.252 . S
C343 O347 1.260 . S
C344 O351 1.240 . S
C344 O352 1.252 . S
C345 O348 1.252 . S
C345 O349 1.260 . S
O346 In340 2.266 . S
O346 C343 1.252 . S
O347 In340 2.326 . S
O347 C343 1.260 . S
O348 In340 2.266 . S
O348 C345 1.252 . S
O349 In340 2.326 . S
O349 C345 1.260 . S
C350 O341 1.240 . S
C350 O342 1.252 . S
O351 In340 2.294 . S
O351 C344 1.240 . S
O352 In340 2.326 . S
O352 C344 1.252 . S
In353 O354 2.294 . S
In353 O355 2.326 . S
In353 O359 2.266 . S
In353 O360 2.326 . S
In353 O361 2.266 . S
In353 O362 2.326 . S
In353 O364 2.294 . S
In353 O365 2.326 . S
O354 In353 2.294 . S
O354 C363 1.240 . S
O355 In353 2.326 . S
O355 C363 1.252 . S
C356 O359 1.252 . S
C356 O360 1.260 . S
C357 O364 1.240 . S
C357 O365 1.252 . S
C358 O361 1.252 . S
C358 O362 1.260 . S
O359 In353 2.266 . S
O359 C356 1.252 . S
O360 In353 2.326 . S
O360 C356 1.260 . S
O361 In353 2.266 . S
O361 C358 1.252 . S
O362 In353 2.326 . S
O362 C358 1.260 . S
C363 O354 1.240 . S
C363 O355 1.252 . S
O364 In353 2.294 . S
O364 C357 1.240 . S
O365 In353 2.326 . S
O365 C357 1.252 . S
H366 C374 0.950 . S
H367 C379 0.950 . S
H368 C376 0.950 . S
H369 C378 0.950 . S
H370 C380 0.950 . S
H371 C382 0.950 . S
H372 C384 0.950 . S
H373 C385 0.950 . S
C374 H366 0.950 . S
C374 C375 1.386 . S
C374 C376 1.391 . S
C375 C374 1.386 . S
C375 C379 1.393 . S
C376 H368 0.950 . S
C376 C374 1.391 . S
C376 C377 1.400 . S
C377 C376 1.400 . S
C377 C378 1.398 . S
C377 C383 1.491 . S
C378 H369 0.950 . S
C378 C377 1.398 . S
C378 C379 1.391 . S
C379 H367 0.950 . S
C379 C375 1.393 . S
C379 C378 1.391 . S
C380 H370 0.950 . S
C380 C381 1.386 . S
C380 C382 1.391 . S
C381 C380 1.386 . S
C381 C385 1.393 . S
C382 H371 0.950 . S
C382 C380 1.391 . S
C382 C383 1.400 . S
C383 C377 1.491 . S
C383 C382 1.400 . S
C383 C384 1.398 . S
C384 H372 0.950 . S
C384 C383 1.398 . S
C384 C385 1.391 . S
C385 H373 0.950 . S
C385 C381 1.393 . S
C385 C384 1.391 . S
H386 C394 0.950 . S
H387 C399 0.950 . S
H388 C396 0.950 . S
H389 C398 0.950 . S
H390 C400 0.950 . S
H391 C402 0.950 . S
H392 C404 0.950 . S
H393 C405 0.950 . S
C394 H386 0.950 . S
C394 C395 1.386 . S
C394 C396 1.391 . S
C395 C394 1.386 . S
C395 C399 1.393 . S
C396 H388 0.950 . S
C396 C394 1.391 . S
C396 C397 1.400 . S
C397 C396 1.400 . S
C397 C398 1.398 . S
C397 C403 1.491 . S
C398 H389 0.950 . S
C398 C397 1.398 . S
C398 C399 1.391 . S
C399 H387 0.950 . S
C399 C395 1.393 . S
C399 C398 1.391 . S
C400 H390 0.950 . S
C400 C401 1.386 . S
C400 C402 1.391 . S
C401 C400 1.386 . S
C401 C405 1.393 . S
C402 H391 0.950 . S
C402 C400 1.391 . S
C402 C403 1.400 . S
C403 C397 1.491 . S
C403 C402 1.400 . S
C403 C404 1.398 . S
C404 H392 0.950 . S
C404 C403 1.398 . S
C404 C405 1.391 . S
C405 H393 0.950 . S
C405 C401 1.393 . S
C405 C404 1.391 . S
H406 C414 0.950 . S
H407 C419 0.950 . S
H408 C416 0.950 . S
H409 C418 0.950 . S
H410 C420 0.950 . S
H411 C422 0.950 . S
H412 C424 0.950 . S
H413 C425 0.950 . S
C414 H406 0.950 . S
C414 C415 1.386 . S
C414 C416 1.391 . S
C415 C414 1.386 . S
C415 C419 1.393 . S
C416 H408 0.950 . S
C416 C414 1.391 . S
C416 C417 1.400 . S
C417 C416 1.400 . S
C417 C418 1.398 . S
C417 C423 1.491 . S
C418 H409 0.950 . S
C418 C417 1.398 . S
C418 C419 1.391 . S
C419 H407 0.950 . S
C419 C415 1.393 . S
C419 C418 1.391 . S
C420 H410 0.950 . S
C420 C421 1.386 . S
C420 C422 1.391 . S
C421 C420 1.386 . S
C421 C425 1.393 . S
C422 H411 0.950 . S
C422 C420 1.391 . S
C422 C423 1.400 . S
C423 C417 1.491 . S
C423 C422 1.400 . S
C423 C424 1.398 . S
C424 H412 0.950 . S
C424 C423 1.398 . S
C424 C425 1.391 . S
C425 H413 0.950 . S
C425 C421 1.393 . S
C425 C424 1.391 . S
H426 C434 0.950 . S
H427 C439 0.950 . S
H428 C436 0.950 . S
H429 C438 0.950 . S
H430 C440 0.950 . S
H431 C442 0.950 . S
H432 C444 0.950 . S
H433 C445 0.950 . S
C434 H426 0.950 . S
C434 C435 1.386 . S
C434 C436 1.391 . S
C435 C434 1.386 . S
C435 C439 1.393 . S
C436 H428 0.950 . S
C436 C434 1.391 . S
C436 C437 1.400 . S
C437 C436 1.400 . S
C437 C438 1.398 . S
C437 C443 1.491 . S
C438 H429 0.950 . S
C438 C437 1.398 . S
C438 C439 1.391 . S
C439 H427 0.950 . S
C439 C435 1.393 . S
C439 C438 1.391 . S
C440 H430 0.950 . S
C440 C441 1.386 . S
C440 C442 1.391 . S
C441 C440 1.386 . S
C441 C445 1.393 . S
C442 H431 0.950 . S
C442 C440 1.391 . S
C442 C443 1.400 . S
C443 C437 1.491 . S
C443 C442 1.400 . S
C443 C444 1.398 . S
C444 H432 0.950 . S
C444 C443 1.398 . S
C444 C445 1.391 . S
C445 H433 0.950 . S
C445 C441 1.393 . S
C445 C444 1.391 . S
H446 C454 0.950 . S
H447 C459 0.950 . S
H448 C456 0.950 . S
H449 C458 0.950 . S
H450 C460 0.950 . S
H451 C462 0.950 . S
H452 C464 0.950 . S
H453 C465 0.950 . S
C454 H446 0.950 . S
C454 C455 1.386 . S
C454 C456 1.391 . S
C455 C454 1.386 . S
C455 C459 1.393 . S
C456 H448 0.950 . S
C456 C454 1.391 . S
C456 C457 1.400 . S
C457 C456 1.400 . S
C457 C458 1.398 . S
C457 C463 1.491 . S
C458 H449 0.950 . S
C458 C457 1.398 . S
C458 C459 1.391 . S
C459 H447 0.950 . S
C459 C455 1.393 . S
C459 C458 1.391 . S
C460 H450 0.950 . S
C460 C461 1.386 . S
C460 C462 1.391 . S
C461 C460 1.386 . S
C461 C465 1.393 . S
C462 H451 0.950 . S
C462 C460 1.391 . S
C462 C463 1.400 . S
C463 C457 1.491 . S
C463 C462 1.400 . S
C463 C464 1.398 . S
C464 H452 0.950 . S
C464 C463 1.398 . S
C464 C465 1.391 . S
C465 H453 0.950 . S
C465 C461 1.393 . S
C465 C464 1.391 . S
H466 C474 0.950 . S
H467 C479 0.950 . S
H468 C476 0.950 . S
H469 C478 0.950 . S
H470 C480 0.950 . S
H471 C482 0.950 . S
H472 C484 0.950 . S
H473 C485 0.950 . S
C474 H466 0.950 . S
C474 C475 1.386 . S
C474 C476 1.391 . S
C475 C474 1.386 . S
C475 C479 1.393 . S
C476 H468 0.950 . S
C476 C474 1.391 . S
C476 C477 1.400 . S
C477 C476 1.400 . S
C477 C478 1.398 . S
C477 C483 1.491 . S
C478 H469 0.950 . S
C478 C477 1.398 . S
C478 C479 1.391 . S
C479 H467 0.950 . S
C479 C475 1.393 . S
C479 C478 1.391 . S
C480 H470 0.950 . S
C480 C481 1.386 . S
C480 C482 1.391 . S
C481 C480 1.386 . S
C481 C485 1.393 . S
C482 H471 0.950 . S
C482 C480 1.391 . S
C482 C483 1.400 . S
C483 C477 1.491 . S
C483 C482 1.400 . S
C483 C484 1.398 . S
C484 H472 0.950 . S
C484 C483 1.398 . S
C484 C485 1.391 . S
C485 H473 0.950 . S
C485 C481 1.393 . S
C485 C484 1.391 . S
H486 C494 0.950 . S
H487 C499 0.950 . S
H488 C496 0.950 . S
H489 C498 0.950 . S
H490 C500 0.950 . S
H491 C502 0.950 . S
H492 C504 0.950 . S
H493 C505 0.950 . S
C494 H486 0.950 . S
C494 C495 1.386 . S
C494 C496 1.391 . S
C495 C494 1.386 . S
C495 C499 1.393 . S
C496 H488 0.950 . S
C496 C494 1.391 . S
C496 C497 1.400 . S
C497 C496 1.400 . S
C497 C498 1.398 . S
C497 C503 1.491 . S
C498 H489 0.950 . S
C498 C497 1.398 . S
C498 C499 1.391 . S
C499 H487 0.950 . S
C499 C495 1.393 . S
C499 C498 1.391 . S
C500 H490 0.950 . S
C500 C501 1.386 . S
C500 C502 1.391 . S
C501 C500 1.386 . S
C501 C505 1.393 . S
C502 H491 0.950 . S
C502 C500 1.391 . S
C502 C503 1.400 . S
C503 C497 1.491 . S
C503 C502 1.400 . S
C503 C504 1.398 . S
C504 H492 0.950 . S
C504 C503 1.398 . S
C504 C505 1.391 . S
C505 H493 0.950 . S
C505 C501 1.393 . S
C505 C504 1.391 . S
H506 C514 0.950 . S
H507 C519 0.950 . S
H508 C516 0.950 . S
H509 C518 0.950 . S
H510 C520 0.950 . S
H511 C522 0.950 . S
H512 C524 0.950 . S
H513 C525 0.950 . S
C514 H506 0.950 . S
C514 C515 1.386 . S
C514 C516 1.391 . S
C515 C514 1.386 . S
C515 C519 1.393 . S
C516 H508 0.950 . S
C516 C514 1.391 . S
C516 C517 1.400 . S
C517 C516 1.400 . S
C517 C518 1.398 . S
C517 C523 1.491 . S
C518 H509 0.950 . S
C518 C517 1.398 . S
C518 C519 1.391 . S
C519 H507 0.950 . S
C519 C515 1.393 . S
C519 C518 1.391 . S
C520 H510 0.950 . S
C520 C521 1.386 . S
C520 C522 1.391 . S
C521 C520 1.386 . S
C521 C525 1.393 . S
C522 H511 0.950 . S
C522 C520 1.391 . S
C522 C523 1.400 . S
C523 C517 1.491 . S
C523 C522 1.400 . S
C523 C524 1.398 . S
C524 H512 0.950 . S
C524 C523 1.398 . S
C524 C525 1.391 . S
C525 H513 0.950 . S
C525 C521 1.393 . S
C525 C524 1.391 . S
H526 C534 0.950 . S
H527 C539 0.950 . S
H528 C536 0.950 . S
H529 C538 0.950 . S
H530 C540 0.950 . S
H531 C542 0.950 . S
H532 C544 0.950 . S
H533 C545 0.950 . S
C534 H526 0.950 . S
C534 C535 1.386 . S
C534 C536 1.391 . S
C535 C534 1.386 . S
C535 C539 1.393 . S
C536 H528 0.950 . S
C536 C534 1.391 . S
C536 C537 1.400 . S
C537 C536 1.400 . S
C537 C538 1.398 . S
C537 C543 1.491 . S
C538 H529 0.950 . S
C538 C537 1.398 . S
C538 C539 1.391 . S
C539 H527 0.950 . S
C539 C535 1.393 . S
C539 C538 1.391 . S
C540 H530 0.950 . S
C540 C541 1.386 . S
C540 C542 1.391 . S
C541 C540 1.386 . S
C541 C545 1.393 . S
C542 H531 0.950 . S
C542 C540 1.391 . S
C542 C543 1.400 . S
C543 C537 1.491 . S
C543 C542 1.400 . S
C543 C544 1.398 . S
C544 H532 0.950 . S
C544 C543 1.398 . S
C544 C545 1.391 . S
C545 H533 0.950 . S
C545 C541 1.393 . S
C545 C544 1.391 . S
H546 C554 0.950 . S
H547 C559 0.950 . S
H548 C556 0.950 . S
H549 C558 0.950 . S
H550 C560 0.950 . S
H551 C562 0.950 . S
H552 C564 0.950 . S
H553 C565 0.950 . S
C554 H546 0.950 . S
C554 C555 1.386 . S
C554 C556 1.391 . S
C555 C554 1.386 . S
C555 C559 1.393 . S
C556 H548 0.950 . S
C556 C554 1.391 . S
C556 C557 1.400 . S
C557 C556 1.400 . S
C557 C558 1.398 . S
C557 C563 1.491 . S
C558 H549 0.950 . S
C558 C557 1.398 . S
C558 C559 1.391 . S
C559 H547 0.950 . S
C559 C555 1.393 . S
C559 C558 1.391 . S
C560 H550 0.950 . S
C560 C561 1.386 . S
C560 C562 1.391 . S
C561 C560 1.386 . S
C561 C565 1.393 . S
C562 H551 0.950 . S
C562 C560 1.391 . S
C562 C563 1.400 . S
C563 C557 1.491 . S
C563 C562 1.400 . S
C563 C564 1.398 . S
C564 H552 0.950 . S
C564 C563 1.398 . S
C564 C565 1.391 . S
C565 H553 0.950 . S
C565 C561 1.393 . S
C565 C564 1.391 . S
H566 C574 0.950 . S
H567 C579 0.950 . S
H568 C576 0.950 . S
H569 C578 0.950 . S
H570 C580 0.950 . S
H571 C582 0.950 . S
H572 C584 0.950 . S
H573 C585 0.950 . S
C574 H566 0.950 . S
C574 C575 1.386 . S
C574 C576 1.391 . S
C575 C574 1.386 . S
C575 C579 1.393 . S
C576 H568 0.950 . S
C576 C574 1.391 . S
C576 C577 1.400 . S
C577 C576 1.400 . S
C577 C578 1.398 . S
C577 C583 1.491 . S
C578 H569 0.950 . S
C578 C577 1.398 . S
C578 C579 1.391 . S
C579 H567 0.950 . S
C579 C575 1.393 . S
C579 C578 1.391 . S
C580 H570 0.950 . S
C580 C581 1.386 . S
C580 C582 1.391 . S
C581 C580 1.386 . S
C581 C585 1.393 . S
C582 H571 0.950 . S
C582 C580 1.391 . S
C582 C583 1.400 . S
C583 C577 1.491 . S
C583 C582 1.400 . S
C583 C584 1.398 . S
C584 H572 0.950 . S
C584 C583 1.398 . S
C584 C585 1.391 . S
C585 H573 0.950 . S
C585 C581 1.393 . S
C585 C584 1.391 . S
H586 C594 0.950 . S
H587 C599 0.950 . S
H588 C596 0.950 . S
H589 C598 0.950 . S
H590 C600 0.950 . S
H591 C602 0.950 . S
H592 C604 0.950 . S
H593 C605 0.950 . S
C594 H586 0.950 . S
C594 C595 1.386 . S
C594 C596 1.391 . S
C595 C594 1.386 . S
C595 C599 1.393 . S
C596 H588 0.950 . S
C596 C594 1.391 . S
C596 C597 1.400 . S
C597 C596 1.400 . S
C597 C598 1.398 . S
C597 C603 1.491 . S
C598 H589 0.950 . S
C598 C597 1.398 . S
C598 C599 1.391 . S
C599 H587 0.950 . S
C599 C595 1.393 . S
C599 C598 1.391 . S
C600 H590 0.950 . S
C600 C601 1.386 . S
C600 C602 1.391 . S
C601 C600 1.386 . S
C601 C605 1.393 . S
C602 H591 0.950 . S
C602 C600 1.391 . S
C602 C603 1.400 . S
C603 C597 1.491 . S
C603 C602 1.400 . S
C603 C604 1.398 . S
C604 H592 0.950 . S
C604 C603 1.398 . S
C604 C605 1.391 . S
C605 H593 0.950 . S
C605 C601 1.393 . S
C605 C604 1.391 . S
H606 C614 0.950 . S
H607 C619 0.950 . S
H608 C616 0.950 . S
H609 C618 0.950 . S
H610 C620 0.950 . S
H611 C622 0.950 . S
H612 C624 0.950 . S
H613 C625 0.950 . S
C614 H606 0.950 . S
C614 C615 1.386 . S
C614 C616 1.391 . S
C615 C614 1.386 . S
C615 C619 1.393 . S
C616 H608 0.950 . S
C616 C614 1.391 . S
C616 C617 1.400 . S
C617 C616 1.400 . S
C617 C618 1.398 . S
C617 C623 1.491 . S
C618 H609 0.950 . S
C618 C617 1.398 . S
C618 C619 1.391 . S
C619 H607 0.950 . S
C619 C615 1.393 . S
C619 C618 1.391 . S
C620 H610 0.950 . S
C620 C621 1.386 . S
C620 C622 1.391 . S
C621 C620 1.386 . S
C621 C625 1.393 . S
C622 H611 0.950 . S
C622 C620 1.391 . S
C622 C623 1.400 . S
C623 C617 1.491 . S
C623 C622 1.400 . S
C623 C624 1.398 . S
C624 H612 0.950 . S
C624 C623 1.398 . S
C624 C625 1.391 . S
C625 H613 0.950 . S
C625 C621 1.393 . S
C625 C624 1.391 . S
H626 C634 0.950 . S
H627 C639 0.950 . S
H628 C636 0.950 . S
H629 C638 0.950 . S
H630 C640 0.950 . S
H631 C642 0.950 . S
H632 C644 0.950 . S
H633 C645 0.950 . S
C634 H626 0.950 . S
C634 C635 1.386 . S
C634 C636 1.391 . S
C635 C634 1.386 . S
C635 C639 1.393 . S
C636 H628 0.950 . S
C636 C634 1.391 . S
C636 C637 1.400 . S
C637 C636 1.400 . S
C637 C638 1.398 . S
C637 C643 1.491 . S
C638 H629 0.950 . S
C638 C637 1.398 . S
C638 C639 1.391 . S
C639 H627 0.950 . S
C639 C635 1.393 . S
C639 C638 1.391 . S
C640 H630 0.950 . S
C640 C641 1.386 . S
C640 C642 1.391 . S
C641 C640 1.386 . S
C641 C645 1.393 . S
C642 H631 0.950 . S
C642 C640 1.391 . S
C642 C643 1.400 . S
C643 C637 1.491 . S
C643 C642 1.400 . S
C643 C644 1.398 . S
C644 H632 0.950 . S
C644 C643 1.398 . S
C644 C645 1.391 . S
C645 H633 0.950 . S
C645 C641 1.393 . S
C645 C644 1.391 . S
H646 C654 0.950 . S
H647 C659 0.950 . S
H648 C656 0.950 . S
H649 C658 0.950 . S
H650 C660 0.950 . S
H651 C662 0.950 . S
H652 C664 0.950 . S
H653 C665 0.950 . S
C654 H646 0.950 . S
C654 C655 1.386 . S
C654 C656 1.391 . S
C655 C654 1.386 . S
C655 C659 1.393 . S
C656 H648 0.950 . S
C656 C654 1.391 . S
C656 C657 1.400 . S
C657 C656 1.400 . S
C657 C658 1.398 . S
C657 C663 1.491 . S
C658 H649 0.950 . S
C658 C657 1.398 . S
C658 C659 1.391 . S
C659 H647 0.950 . S
C659 C655 1.393 . S
C659 C658 1.391 . S
C660 H650 0.950 . S
C660 C661 1.386 . S
C660 C662 1.391 . S
C661 C660 1.386 . S
C661 C665 1.393 . S
C662 H651 0.950 . S
C662 C660 1.391 . S
C662 C663 1.400 . S
C663 C657 1.491 . S
C663 C662 1.400 . S
C663 C664 1.398 . S
C664 H652 0.950 . S
C664 C663 1.398 . S
C664 C665 1.391 . S
C665 H653 0.950 . S
C665 C661 1.393 . S
C665 C664 1.391 . S
H666 C674 0.950 . S
H667 C679 0.950 . S
H668 C676 0.950 . S
H669 C678 0.950 . S
H670 C680 0.949 . S
H671 C682 0.950 . S
H672 C684 0.950 . S
H673 C685 0.950 . S
C674 H666 0.950 . S
C674 C675 1.386 . S
C674 C676 1.391 . S
C675 C674 1.386 . S
C675 C679 1.393 . S
C676 H668 0.950 . S
C676 C674 1.391 . S
C676 C677 1.400 . S
C677 C676 1.400 . S
C677 C678 1.398 . S
C677 C683 1.491 . S
C678 H669 0.950 . S
C678 C677 1.398 . S
C678 C679 1.391 . S
C679 H667 0.950 . S
C679 C675 1.393 . S
C679 C678 1.391 . S
C680 H670 0.949 . S
C680 C681 1.413 . S
C680 C682 1.365 1_554 S
C681 C680 1.413 . S
C681 C685 1.393 . S
C682 H671 0.950 . S
C682 C680 1.365 1_556 S
C682 C683 1.400 . S
C683 C677 1.491 . S
C683 C682 1.400 . S
C683 C684 1.398 1_556 S
C684 H672 0.950 . S
C684 C683 1.398 1_554 S
C684 C685 1.391 . S
C685 H673 0.950 . S
C685 C681 1.393 . S
C685 C684 1.391 . S
H686 C694 0.950 . S
H687 C699 0.950 . S
H688 C696 0.950 . S
H689 C698 0.950 . S
H690 C700 0.950 . S
H691 C702 0.950 . S
H692 C704 0.950 . S
H693 C705 0.950 . S
C694 H686 0.950 . S
C694 C695 1.386 . S
C694 C696 1.391 . S
C695 C694 1.386 . S
C695 C699 1.393 . S
C696 H688 0.950 . S
C696 C694 1.391 . S
C696 C697 1.400 . S
C697 C696 1.400 . S
C697 C698 1.398 . S
C697 C703 1.491 . S
C698 H689 0.950 . S
C698 C697 1.398 . S
C698 C699 1.391 . S
C699 H687 0.950 . S
C699 C695 1.393 . S
C699 C698 1.391 . S
C700 H690 0.950 . S
C700 C701 1.386 . S
C700 C702 1.391 . S
C701 C700 1.386 . S
C701 C705 1.393 . S
C702 H691 0.950 . S
C702 C700 1.391 . S
C702 C703 1.400 . S
C703 C697 1.491 . S
C703 C702 1.400 . S
C703 C704 1.398 . S
C704 H692 0.950 . S
C704 C703 1.398 . S
C704 C705 1.391 . S
C705 H693 0.950 . S
C705 C701 1.393 . S
C705 C704 1.391 . S
H706 C714 0.950 . S
H707 C719 0.950 . S
H708 C716 0.950 . S
H709 C718 0.950 . S
H710 C720 0.950 . S
H711 C722 0.950 . S
H712 C724 0.950 . S
H713 C725 0.950 . S
C714 H706 0.950 . S
C714 C715 1.386 . S
C714 C716 1.391 . S
C715 C714 1.386 . S
C715 C719 1.393 . S
C716 H708 0.950 . S
C716 C714 1.391 . S
C716 C717 1.400 . S
C717 C716 1.400 . S
C717 C718 1.398 . S
C717 C723 1.491 . S
C718 H709 0.950 . S
C718 C717 1.398 . S
C718 C719 1.391 . S
C719 H707 0.950 . S
C719 C715 1.393 . S
C719 C718 1.391 . S
C720 H710 0.950 . S
C720 C721 1.386 . S
C720 C722 1.391 . S
C721 C720 1.386 . S
C721 C725 1.393 . S
C722 H711 0.950 . S
C722 C720 1.391 . S
C722 C723 1.400 . S
C723 C717 1.491 . S
C723 C722 1.400 . S
C723 C724 1.398 . S
C724 H712 0.950 . S
C724 C723 1.398 . S
C724 C725 1.391 . S
C725 H713 0.950 . S
C725 C721 1.393 . S
C725 C724 1.391 . S
H726 C734 0.950 . S
H727 C739 0.950 . S
H728 C736 0.950 . S
H729 C738 0.950 . S
H730 C740 0.950 . S
H731 C742 0.950 . S
H732 C744 0.950 . S
H733 C745 0.950 . S
C734 H726 0.950 . S
C734 C735 1.386 . S
C734 C736 1.391 . S
C735 C734 1.386 . S
C735 C739 1.393 . S
C736 H728 0.950 . S
C736 C734 1.391 . S
C736 C737 1.400 . S
C737 C736 1.400 . S
C737 C738 1.398 . S
C737 C743 1.491 . S
C738 H729 0.950 . S
C738 C737 1.398 . S
C738 C739 1.391 . S
C739 H727 0.950 . S
C739 C735 1.393 . S
C739 C738 1.391 . S
C740 H730 0.950 . S
C740 C741 1.386 . S
C740 C742 1.391 . S
C741 C740 1.386 . S
C741 C745 1.393 . S
C742 H731 0.950 . S
C742 C740 1.391 . S
C742 C743 1.400 . S
C743 C737 1.491 . S
C743 C742 1.400 . S
C743 C744 1.398 . S
C744 H732 0.950 . S
C744 C743 1.398 . S
C744 C745 1.391 . S
C745 H733 0.950 . S
C745 C741 1.393 . S
C745 C744 1.391 . S
H746 C754 0.950 . S
H747 C759 0.950 . S
H748 C756 0.950 . S
H749 C758 0.950 . S
H750 C760 0.950 . S
H751 C762 0.950 . S
H752 C764 0.950 . S
H753 C765 0.950 . S
C754 H746 0.950 . S
C754 C755 1.386 . S
C754 C756 1.391 . S
C755 C754 1.386 . S
C755 C759 1.393 . S
C756 H748 0.950 . S
C756 C754 1.391 . S
C756 C757 1.400 . S
C757 C756 1.400 . S
C757 C758 1.398 . S
C757 C763 1.491 . S
C758 H749 0.950 . S
C758 C757 1.398 . S
C758 C759 1.391 . S
C759 H747 0.950 . S
C759 C755 1.393 . S
C759 C758 1.391 . S
C760 H750 0.950 . S
C760 C761 1.386 . S
C760 C762 1.391 . S
C761 C760 1.386 . S
C761 C765 1.393 . S
C762 H751 0.950 . S
C762 C760 1.391 . S
C762 C763 1.400 . S
C763 C757 1.491 . S
C763 C762 1.400 . S
C763 C764 1.398 . S
C764 H752 0.950 . S
C764 C763 1.398 . S
C764 C765 1.391 . S
C765 H753 0.950 . S
C765 C761 1.393 . S
C765 C764 1.391 . S
H766 C774 0.950 . S
H767 C779 0.950 . S
H768 C776 0.950 . S
H769 C778 0.950 . S
H770 C780 0.950 . S
H771 C782 0.950 . S
H772 C784 0.950 . S
H773 C785 0.950 . S
C774 H766 0.950 . S
C774 C775 1.386 . S
C774 C776 1.391 . S
C775 C774 1.386 . S
C775 C779 1.393 . S
C776 H768 0.950 . S
C776 C774 1.391 . S
C776 C777 1.400 . S
C777 C776 1.400 . S
C777 C778 1.398 . S
C777 C783 1.491 . S
C778 H769 0.950 . S
C778 C777 1.398 . S
C778 C779 1.391 . S
C779 H767 0.950 . S
C779 C775 1.393 . S
C779 C778 1.391 . S
C780 H770 0.950 . S
C780 C781 1.386 . S
C780 C782 1.391 . S
C781 C780 1.386 . S
C781 C785 1.393 . S
C782 H771 0.950 . S
C782 C780 1.391 . S
C782 C783 1.400 . S
C783 C777 1.491 . S
C783 C782 1.400 . S
C783 C784 1.398 . S
C784 H772 0.950 . S
C784 C783 1.398 . S
C784 C785 1.391 . S
C785 H773 0.950 . S
C785 C781 1.393 . S
C785 C784 1.391 . S
H786 C794 0.950 . S
H787 C799 0.950 . S
H788 C796 0.950 . S
H789 C798 0.950 . S
H790 C800 0.950 . S
H791 C802 0.950 . S
H792 C804 0.950 . S
H793 C805 0.950 . S
C794 H786 0.950 . S
C794 C795 1.386 . S
C794 C796 1.391 . S
C795 C794 1.386 . S
C795 C799 1.393 . S
C796 H788 0.950 . S
C796 C794 1.391 . S
C796 C797 1.400 . S
C797 C796 1.400 . S
C797 C798 1.398 . S
C797 C803 1.491 . S
C798 H789 0.950 . S
C798 C797 1.398 . S
C798 C799 1.391 . S
C799 H787 0.950 . S
C799 C795 1.393 . S
C799 C798 1.391 . S
C800 H790 0.950 . S
C800 C801 1.386 . S
C800 C802 1.391 . S
C801 C800 1.386 . S
C801 C805 1.393 . S
C802 H791 0.950 . S
C802 C800 1.391 . S
C802 C803 1.400 . S
C803 C797 1.491 . S
C803 C802 1.400 . S
C803 C804 1.398 . S
C804 H792 0.950 . S
C804 C803 1.398 . S
C804 C805 1.391 . S
C805 H793 0.950 . S
C805 C801 1.393 . S
C805 C804 1.391 . S
H806 C814 0.950 . S
H807 C819 0.950 . S
H808 C816 0.950 . S
H809 C818 0.950 . S
H810 C820 0.950 . S
H811 C822 0.950 . S
H812 C824 0.950 . S
H813 C825 0.950 . S
C814 H806 0.950 . S
C814 C815 1.386 . S
C814 C816 1.391 . S
C815 C814 1.386 . S
C815 C819 1.393 . S
C816 H808 0.950 . S
C816 C814 1.391 . S
C816 C817 1.400 . S
C817 C816 1.400 . S
C817 C818 1.398 . S
C817 C823 1.491 . S
C818 H809 0.950 . S
C818 C817 1.398 . S
C818 C819 1.391 . S
C819 H807 0.950 . S
C819 C815 1.393 . S
C819 C818 1.391 . S
C820 H810 0.950 . S
C820 C821 1.386 . S
C820 C822 1.391 1_556 S
C821 C820 1.386 . S
C821 C825 1.393 . S
C822 H811 0.950 . S
C822 C820 1.391 1_554 S
C822 C823 1.400 . S
C823 C817 1.491 . S
C823 C822 1.400 . S
C823 C824 1.398 1_554 S
C824 H812 0.950 . S
C824 C823 1.398 1_556 S
C824 C825 1.391 . S
C825 H813 0.950 . S
C825 C821 1.393 . S
C825 C824 1.391 . S
H826 C834 0.950 . S
H827 C839 0.950 . S
H828 C836 0.950 . S
H829 C838 0.950 . S
H830 C840 0.950 . S
H831 C842 0.950 . S
H832 C844 0.950 . S
H833 C845 0.950 . S
C834 H826 0.950 . S
C834 C835 1.386 . S
C834 C836 1.391 . S
C835 C834 1.386 . S
C835 C839 1.393 . S
C836 H828 0.950 . S
C836 C834 1.391 . S
C836 C837 1.400 . S
C837 C836 1.400 . S
C837 C838 1.398 . S
C837 C843 1.491 . S
C838 H829 0.950 . S
C838 C837 1.398 . S
C838 C839 1.391 . S
C839 H827 0.950 . S
C839 C835 1.393 . S
C839 C838 1.391 . S
C840 H830 0.950 . S
C840 C841 1.386 . S
C840 C842 1.391 . S
C841 C840 1.386 . S
C841 C845 1.393 . S
C842 H831 0.950 . S
C842 C840 1.391 . S
C842 C843 1.400 . S
C843 C837 1.491 . S
C843 C842 1.400 . S
C843 C844 1.398 . S
C844 H832 0.950 . S
C844 C843 1.398 . S
C844 C845 1.391 . S
C845 H833 0.950 . S
C845 C841 1.393 . S
C845 C844 1.391 . S
C381 C358 1.583 . S
C375 C45 1.582 . S
C395 C84 1.587 . S
C401 C293 1.587 . S
C415 C126 1.565 . S
C421 C311 1.584 . S
C435 C189 1.573 . S
C441 C324 1.574 . S
C461 C332 1.588 . S
C455 C228 1.589 . S
C475 C270 1.573 . S
C481 C344 1.581 . S
C495 C69 1.578 . S
C501 C306 1.587 . S
C515 C141 1.581 . S
C521 C319 1.583 . S
C535 C174 1.566 . S
C541 C337 1.583 . S
C561 C343 1.588 . S
C555 C213 1.583 . S
C581 C363 1.574 . S
C575 C285 1.573 . S
C601 C298 1.585 . S
C595 C30 1.562 . S
C615 C36 1.598 . S
C621 C304 1.604 . S
C635 C93 1.606 . S
C641 C317 1.607 . S
C661 C331 1.603 . S
C655 C117 1.594 . S
C675 C180 1.603 . S
C681 C345 1.610 . S
C701 C357 1.598 . S
C695 C237 1.599 . S
C721 C292 1.600 . S
C715 C261 1.586 . S
C741 C356 1.609 . S
C735 C78 1.584 . S
C755 C132 1.605 . S
C761 C291 1.607 . S
C781 C305 1.601 . S
C775 C165 1.589 . S
C795 C222 1.565 . S
C801 C318 1.597 . S
C815 C276 1.603 . S
C821 C330 1.609 . S
C835 C21 1.595 . S
C841 C350 1.605 . S
