# Generated by pormake.
# Topology ctn, (3,4)-cn, num edge types: 1
# Building blocks:
#     Node 0, Type 0, BuildingBlock: VETTIZ_charged_linker_0, # of connection points: 3
#     Node 1, Type 0, BuildingBlock: VETTIZ_charged_linker_0, # of connection points: 3
#     Node 2, Type 0, BuildingBlock: VETTIZ_charged_linker_0, # of connection points: 3
#     Node 3, Type 0, BuildingBlock: VETTIZ_charged_linker_0, # of connection points: 3
#     Node 4, Type 0, BuildingBlock: VETTIZ_charged_linker_0, # of connection points: 3
#     Node 5, Type 0, BuildingBlock: VETTIZ_charged_linker_0, # of connection points: 3
#     Node 6, Type 0, BuildingBlock: VETTIZ_charged_linker_0, # of connection points: 3
#     Node 7, Type 0, BuildingBlock: VETTIZ_charged_linker_0, # of connection points: 3
#     Node 8, Type 0, BuildingBlock: VETTIZ_charged_linker_0, # of connection points: 3
#     Node 9, Type 0, BuildingBlock: VETTIZ_charged_linker_0, # of connection points: 3
#     Node 10, Type 0, BuildingBlock: VETTIZ_charged_linker_0, # of connection points: 3
#     Node 11, Type 0, BuildingBlock: VETTIZ_charged_linker_0, # of connection points: 3
#     Node 12, Type 0, BuildingBlock: VETTIZ_charged_linker_0, # of connection points: 3
#     Node 13, Type 0, BuildingBlock: VETTIZ_charged_linker_0, # of connection points: 3
#     Node 14, Type 0, BuildingBlock: VETTIZ_charged_linker_0, # of connection points: 3
#     Node 15, Type 0, BuildingBlock: VETTIZ_charged_linker_0, # of connection points: 3
#     Node 16, Type 1, BuildingBlock: QUQFOY_clean_sbu_1, # of connection points: 4
#     Node 17, Type 1, BuildingBlock: QUQFOY_clean_sbu_1, # of connection points: 4
#     Node 18, Type 1, BuildingBlock: QUQFOY_clean_sbu_1, # of connection points: 4
#     Node 19, Type 1, BuildingBlock: QUQFOY_clean_sbu_1, # of connection points: 4
#     Node 20, Type 1, BuildingBlock: QUQFOY_clean_sbu_1, # of connection points: 4
#     Node 21, Type 1, BuildingBlock: QUQFOY_clean_sbu_1, # of connection points: 4
#     Node 22, Type 1, BuildingBlock: QUQFOY_clean_sbu_1, # of connection points: 4
#     Node 23, Type 1, BuildingBlock: QUQFOY_clean_sbu_1, # of connection points: 4
#     Node 24, Type 1, BuildingBlock: QUQFOY_clean_sbu_1, # of connection points: 4
#     Node 25, Type 1, BuildingBlock: QUQFOY_clean_sbu_1, # of connection points: 4
#     Node 26, Type 1, BuildingBlock: QUQFOY_clean_sbu_1, # of connection points: 4
#     Node 27, Type 1, BuildingBlock: QUQFOY_clean_sbu_1, # of connection points: 4
#     Edge 28, Type (0, 1), BuildingBlock: ZUJKAS_clean_linker_0, # of connection points: 2
#     Edge 29, Type (0, 1), BuildingBlock: ZUJKAS_clean_linker_0, # of connection points: 2
#     Edge 30, Type (0, 1), BuildingBlock: ZUJKAS_clean_linker_0, # of connection points: 2
#     Edge 31, Type (0, 1), BuildingBlock: ZUJKAS_clean_linker_0, # of connection points: 2
#     Edge 32, Type (0, 1), BuildingBlock: ZUJKAS_clean_linker_0, # of connection points: 2
#     Edge 33, Type (0, 1), BuildingBlock: ZUJKAS_clean_linker_0, # of connection points: 2
#     Edge 34, Type (0, 1), BuildingBlock: ZUJKAS_clean_linker_0, # of connection points: 2
#     Edge 35, Type (0, 1), BuildingBlock: ZUJKAS_clean_linker_0, # of connection points: 2
#     Edge 36, Type (0, 1), BuildingBlock: ZUJKAS_clean_linker_0, # of connection points: 2
#     Edge 37, Type (0, 1), BuildingBlock: ZUJKAS_clean_linker_0, # of connection points: 2
#     Edge 38, Type (0, 1), BuildingBlock: ZUJKAS_clean_linker_0, # of connection points: 2
#     Edge 39, Type (0, 1), BuildingBlock: ZUJKAS_clean_linker_0, # of connection points: 2
#     Edge 40, Type (0, 1), BuildingBlock: ZUJKAS_clean_linker_0, # of connection points: 2
#     Edge 41, Type (0, 1), BuildingBlock: ZUJKAS_clean_linker_0, # of connection points: 2
#     Edge 42, Type (0, 1), BuildingBlock: ZUJKAS_clean_linker_0, # of connection points: 2
#     Edge 43, Type (0, 1), BuildingBlock: ZUJKAS_clean_linker_0, # of connection points: 2
#     Edge 44, Type (0, 1), BuildingBlock: ZUJKAS_clean_linker_0, # of connection points: 2
#     Edge 45, Type (0, 1), BuildingBlock: ZUJKAS_clean_linker_0, # of connection points: 2
#     Edge 46, Type (0, 1), BuildingBlock: ZUJKAS_clean_linker_0, # of connection points: 2
#     Edge 47, Type (0, 1), BuildingBlock: ZUJKAS_clean_linker_0, # of connection points: 2
#     Edge 48, Type (0, 1), BuildingBlock: ZUJKAS_clean_linker_0, # of connection points: 2
#     Edge 49, Type (0, 1), BuildingBlock: ZUJKAS_clean_linker_0, # of connection points: 2
#     Edge 50, Type (0, 1), BuildingBlock: ZUJKAS_clean_linker_0, # of connection points: 2
#     Edge 51, Type (0, 1), BuildingBlock: ZUJKAS_clean_linker_0, # of connection points: 2
#     Edge 52, Type (0, 1), BuildingBlock: ZUJKAS_clean_linker_0, # of connection points: 2
#     Edge 53, Type (0, 1), BuildingBlock: ZUJKAS_clean_linker_0, # of connection points: 2
#     Edge 54, Type (0, 1), BuildingBlock: ZUJKAS_clean_linker_0, # of connection points: 2
#     Edge 55, Type (0, 1), BuildingBlock: ZUJKAS_clean_linker_0, # of connection points: 2
#     Edge 56, Type (0, 1), BuildingBlock: ZUJKAS_clean_linker_0, # of connection points: 2
#     Edge 57, Type (0, 1), BuildingBlock: ZUJKAS_clean_linker_0, # of connection points: 2
#     Edge 58, Type (0, 1), BuildingBlock: ZUJKAS_clean_linker_0, # of connection points: 2
#     Edge 59, Type (0, 1), BuildingBlock: ZUJKAS_clean_linker_0, # of connection points: 2
#     Edge 60, Type (0, 1), BuildingBlock: ZUJKAS_clean_linker_0, # of connection points: 2
#     Edge 61, Type (0, 1), BuildingBlock: ZUJKAS_clean_linker_0, # of connection points: 2
#     Edge 62, Type (0, 1), BuildingBlock: ZUJKAS_clean_linker_0, # of connection points: 2
#     Edge 63, Type (0, 1), BuildingBlock: ZUJKAS_clean_linker_0, # of connection points: 2
#     Edge 64, Type (0, 1), BuildingBlock: ZUJKAS_clean_linker_0, # of connection points: 2
#     Edge 65, Type (0, 1), BuildingBlock: ZUJKAS_clean_linker_0, # of connection points: 2
#     Edge 66, Type (0, 1), BuildingBlock: ZUJKAS_clean_linker_0, # of connection points: 2
#     Edge 67, Type (0, 1), BuildingBlock: ZUJKAS_clean_linker_0, # of connection points: 2
#     Edge 68, Type (0, 1), BuildingBlock: ZUJKAS_clean_linker_0, # of connection points: 2
#     Edge 69, Type (0, 1), BuildingBlock: ZUJKAS_clean_linker_0, # of connection points: 2
#     Edge 70, Type (0, 1), BuildingBlock: ZUJKAS_clean_linker_0, # of connection points: 2
#     Edge 71, Type (0, 1), BuildingBlock: ZUJKAS_clean_linker_0, # of connection points: 2
#     Edge 72, Type (0, 1), BuildingBlock: ZUJKAS_clean_linker_0, # of connection points: 2
#     Edge 73, Type (0, 1), BuildingBlock: ZUJKAS_clean_linker_0, # of connection points: 2
#     Edge 74, Type (0, 1), BuildingBlock: ZUJKAS_clean_linker_0, # of connection points: 2
#     Edge 75, Type (0, 1), BuildingBlock: ZUJKAS_clean_linker_0, # of connection points: 2
# Relax obj value: 0.036
# Max RMSD: 0.141
# Mean RMSD: 0.065
data_MOF--net-ctn--node1-QUQFOY_clean_sbu_1--node2-VETTIZ_charged_linker_0--edge1-ZUJKAS_clean_linker_0
_symmetry_space_group_name_H-M    P1
_symmetry_Int_Tables_number       1
_symmetry_cell_setting            triclinic
loop_
_symmetry_equiv_pos_as_xyz
'x, y, z'
_cell_length_a     83.322755
_cell_length_b     83.237999
_cell_length_c     83.456196
_cell_angle_alpha  92.663653
_cell_angle_beta   90.061439
_cell_angle_gamma 94.301898
loop_
_atom_site_label
_atom_site_type_symbol
_atom_site_fract_x
_atom_site_fract_y
_atom_site_fract_z
_atom_type_partial_charge
C0 C 0.08007 0.1464 0.04237 0.0
C1 C 0.0679 0.15703 0.04052 0.0
C2 C 0.056 0.15801 0.05249 0.0
C3 C 0.06782 0.13731 0.06708 0.0
C4 C 0.07975 0.13665 0.05564 0.0
C5 C 0.09117 0.12398 0.05886 0.0
H6 H 0.10816 0.05934 0.10012 0.0
C7 C 0.07028 0.12487 0.07872 0.0
C8 C 0.08399 0.11705 0.07402 0.0
H9 H 0.13426 0.08 0.0603 0.0
H10 H 0.11679 0.1018 0.0605 0.0
H11 H 0.10529 0.09352 0.11981 0.0
H12 H 0.07328 0.06454 0.08777 0.0
H13 H 0.06184 0.07122 0.1041 0.0
H14 H 0.07811 0.05875 0.10756 0.0
H15 H 0.09391 0.0758 0.12616 0.0
H16 H 0.08578 0.09535 0.12724 0.0
C17 C 0.10816 0.13247 0.0619 0.0
C18 C 0.09013 0.11146 0.04448 0.0
C19 C 0.02897 0.11423 0.12252 0.0
C20 C 0.02727 0.10252 0.13413 0.0
C21 C 0.03952 0.0919 0.1358 0.0
C22 C 0.05294 0.09254 0.12572 0.0
C23 C 0.05414 0.10384 0.11371 0.0
C24 C 0.04243 0.11464 0.11245 0.0
C25 C 0.04564 0.12566 0.09885 0.0
C26 C 0.06116 0.11965 0.09214 0.0
C27 C 0.06599 0.10679 0.10083 0.0
C28 C 0.04816 0.14319 0.10598 0.0
C29 C 0.03148 0.12272 0.08673 0.0
C30 C 0.11029 0.06868 0.0916 0.0
C31 C 0.12247 0.06774 0.08 0.0
C32 C 0.12473 0.08018 0.06911 0.0
C33 C 0.11459 0.09287 0.06926 0.0
C34 C 0.10197 0.09317 0.08037 0.0
C35 C 0.10025 0.08145 0.09158 0.0
C36 C 0.08633 0.08387 0.10265 0.0
C37 C 0.07975 0.09875 0.096 0.0
C38 C 0.08885 0.10402 0.08283 0.0
C39 C 0.09304 0.0872 0.11992 0.0
C40 C 0.07422 0.06884 0.10059 0.0
H41 H 0.04643 0.14946 0.07426 0.0
H42 H 0.08953 0.14546 0.03356 0.0
H43 H 0.07746 0.10903 0.04028 0.0
H44 H 0.09402 0.09959 0.04746 0.0
H45 H 0.09736 0.11594 0.03421 0.0
H46 H 0.10742 0.14466 0.06778 0.0
H47 H 0.11483 0.13399 0.05049 0.0
H48 H 0.11543 0.126 0.07022 0.0
H49 H 0.01971 0.12248 0.12085 0.0
H50 H 0.03862 0.08295 0.14484 0.0
H51 H 0.06171 0.08398 0.12747 0.0
H52 H 0.05468 0.14357 0.11765 0.0
H53 H 0.03646 0.14847 0.10815 0.0
H54 H 0.05571 0.15116 0.09835 0.0
H55 H 0.02671 0.10985 0.08624 0.0
H56 H 0.03502 0.12508 0.07427 0.0
H57 H 0.02138 0.13015 0.09016 0.0
H58 H 0.04633 0.16587 0.05134 0.0
C59 C 0.05596 0.14831 0.06576 0.0
C60 C 0.25409 0.68129 0.23526 0.0
C61 C 0.23956 0.67905 0.22659 0.0
C62 C 0.23482 0.69163 0.21731 0.0
C63 C 0.25885 0.70824 0.2255 0.0
C64 C 0.26347 0.69588 0.23455 0.0
C65 C 0.27912 0.70015 0.24321 0.0
H66 H 0.34233 0.7539 0.26026 0.0
C67 C 0.27125 0.72186 0.22757 0.0
C68 C 0.28313 0.71717 0.23795 0.0
H69 H 0.33331 0.70565 0.277 0.0
H70 H 0.30853 0.7023 0.262 0.0
H71 H 0.30631 0.76407 0.26498 0.0
H72 H 0.33076 0.74516 0.22359 0.0
H73 H 0.31956 0.76088 0.21744 0.0
H74 H 0.33537 0.76519 0.2321 0.0
H75 H 0.32089 0.77622 0.25415 0.0
H76 H 0.29992 0.77415 0.24837 0.0
C77 C 0.27591 0.69978 0.2615 0.0
C78 C 0.29149 0.68838 0.23687 0.0
C79 C 0.26592 0.77314 0.19795 0.0
C80 C 0.27551 0.78776 0.1974 0.0
C81 C 0.28942 0.79004 0.20714 0.0
C82 C 0.29389 0.77788 0.21694 0.0
C83 C 0.28436 0.76322 0.21706 0.0
C84 C 0.27051 0.76114 0.20783 0.0
C85 C 0.26173 0.74487 0.20962 0.0
C86 C 0.27272 0.73744 0.22125 0.0
C87 C 0.28599 0.74821 0.22551 0.0
C88 C 0.24502 0.74747 0.21702 0.0
C89 C 0.26111 0.73573 0.193 0.0
C90 C 0.33495 0.74265 0.26076 0.0
C91 C 0.33985 0.72999 0.26977 0.0
C92 C 0.32997 0.71549 0.26995 0.0
C93 C 0.3155 0.7136 0.26131 0.0
C94 C 0.31079 0.72633 0.25233 0.0
C95 C 0.32044 0.74056 0.25216 0.0
C96 C 0.31347 0.75274 0.2419 0.0
C97 C 0.29806 0.74344 0.23595 0.0
C98 C 0.2966 0.728 0.24211 0.0
C99 C 0.31003 0.76768 0.25278 0.0
C100 C 0.32537 0.75635 0.22805 0.0
H101 H 0.24014 0.71528 0.20941 0.0
H102 H 0.25797 0.67199 0.24272 0.0
H103 H 0.28933 0.68494 0.22396 0.0
H104 H 0.30402 0.69374 0.23738 0.0
H105 H 0.29065 0.67711 0.24354 0.0
H106 H 0.26386 0.70401 0.26446 0.0
H107 H 0.27621 0.68736 0.26576 0.0
H108 H 0.28446 0.70795 0.26869 0.0
H109 H 0.25526 0.77086 0.19052 0.0
H110 H 0.29691 0.80126 0.20718 0.0
H111 H 0.30466 0.78032 0.22397 0.0
H112 H 0.24569 0.75812 0.22563 0.0
H113 H 0.23609 0.74958 0.2076 0.0
H114 H 0.24032 0.73731 0.22415 0.0
H115 H 0.27254 0.73822 0.18637 0.0
H116 H 0.25981 0.7225 0.19381 0.0
H117 H 0.25115 0.73951 0.18553 0.0
H118 H 0.22374 0.69016 0.21041 0.0
C119 C 0.24438 0.70619 0.21671 0.0
C120 C 0.93626 0.4124 0.03783 0.0
C121 C 0.9291 0.41255 0.0226 0.0
C122 C 0.91862 0.42459 0.01952 0.0
C123 C 0.92315 0.43638 0.04643 0.0
C124 C 0.93321 0.4244 0.04946 0.0
C125 C 0.94082 0.42655 0.06581 0.0
H126 H 0.95504 0.4725 0.13376 0.0
C127 C 0.92331 0.4475 0.06079 0.0
C128 C 0.93363 0.44178 0.07217 0.0
H129 H 0.97613 0.42834 0.11865 0.0
H130 H 0.95877 0.42549 0.09551 0.0
H131 H 0.91791 0.46032 0.12363 0.0
H132 H 0.95617 0.48737 0.09979 0.0
H133 H 0.93832 0.49675 0.09662 0.0
H134 H 0.94574 0.49551 0.11676 0.0
H135 H 0.92378 0.48098 0.12929 0.0
H136 H 0.90918 0.47559 0.11357 0.0
C137 C 0.93515 0.41179 0.07555 0.0
C138 C 0.95934 0.42905 0.06365 0.0
C139 C 0.89227 0.49772 0.06048 0.0
C140 C 0.89078 0.51071 0.07165 0.0
C141 C 0.89827 0.5104 0.08678 0.0
C142 C 0.90743 0.4976 0.09055 0.0
C143 C 0.90921 0.48499 0.07904 0.0
C144 C 0.90149 0.48508 0.06439 0.0
C145 C 0.90473 0.4707 0.05362 0.0
C146 C 0.91572 0.46198 0.0642 0.0
C147 C 0.91839 0.47046 0.07903 0.0
C148 C 0.88855 0.46072 0.05021 0.0
C149 C 0.91346 0.47688 0.03844 0.0
C150 C 0.95592 0.4622 0.12547 0.0
C151 C 0.96712 0.45071 0.12803 0.0
C152 C 0.96757 0.43731 0.1171 0.0
C153 C 0.95757 0.43576 0.10353 0.0
C154 C 0.94709 0.4478 0.10072 0.0
C155 C 0.94614 0.46057 0.11176 0.0
C156 C 0.93453 0.47237 0.10661 0.0
C157 C 0.92897 0.46475 0.09047 0.0
C158 C 0.93641 0.4504 0.0871 0.0
C159 C 0.92063 0.4725 0.1189 0.0
C160 C 0.94403 0.48894 0.10492 0.0
H161 H 0.90753 0.44535 0.0283 0.0
H162 H 0.94461 0.4035 0.04046 0.0
H163 H 0.96243 0.43514 0.05235 0.0
H164 H 0.9653 0.43704 0.07315 0.0
H165 H 0.96495 0.41735 0.06312 0.0
H166 H 0.92236 0.40781 0.07277 0.0
H167 H 0.94246 0.40142 0.07266 0.0
H168 H 0.93547 0.41446 0.08864 0.0
H169 H 0.88644 0.49741 0.04885 0.0
H170 H 0.89741 0.52027 0.09559 0.0
H171 H 0.913 0.49818 0.10217 0.0
H172 H 0.88083 0.46062 0.06109 0.0
H173 H 0.88176 0.46588 0.04047 0.0
H174 H 0.89006 0.44789 0.04706 0.0
H175 H 0.92153 0.48788 0.04142 0.0
H176 H 0.92146 0.46817 0.03299 0.0
H177 H 0.90471 0.48002 0.02926 0.0
H178 H 0.91288 0.42487 0.00789 0.0
C179 C 0.91553 0.43644 0.03139 0.0
C180 C 0.67624 0.81001 0.26746 0.0
C181 C 0.66668 0.79538 0.2677 0.0
C182 C 0.66975 0.7828 0.25648 0.0
C183 C 0.69129 0.79966 0.24485 0.0
C184 C 0.68841 0.81187 0.25603 0.0
C185 C 0.69962 0.82667 0.25424 0.0
H186 H 0.76122 0.86516 0.21531 0.0
C187 C 0.70469 0.80561 0.23455 0.0
C188 C 0.70965 0.82139 0.24006 0.0
H189 H 0.73482 0.88261 0.25633 0.0
H190 H 0.71831 0.85759 0.2561 0.0
H191 H 0.72961 0.84818 0.19592 0.0
H192 H 0.76454 0.83032 0.22729 0.0
H193 H 0.76033 0.81534 0.21205 0.0
H194 H 0.76915 0.83489 0.20693 0.0
H195 H 0.75014 0.84616 0.19018 0.0
H196 H 0.735 0.8296 0.18752 0.0
C197 C 0.68938 0.84077 0.25023 0.0
C198 C 0.70981 0.82957 0.26981 0.0
C199 C 0.72305 0.77025 0.18779 0.0
C200 C 0.7351 0.77256 0.17615 0.0
C201 C 0.74497 0.78709 0.17675 0.0
C202 C 0.74274 0.79921 0.18857 0.0
C203 C 0.73051 0.79682 0.19998 0.0
C204 C 0.72101 0.78246 0.19957 0.0
C205 C 0.70878 0.78196 0.21282 0.0
C206 C 0.71237 0.79846 0.22111 0.0
C207 C 0.72506 0.80714 0.21349 0.0
C208 C 0.6918 0.78017 0.20508 0.0
C209 C 0.71239 0.76816 0.22382 0.0
C210 C 0.75175 0.86364 0.22411 0.0
C211 C 0.74934 0.87587 0.23587 0.0
C212 C 0.73705 0.87331 0.24727 0.0
C213 C 0.72743 0.85877 0.24708 0.0
C214 C 0.7301 0.84659 0.23538 0.0
C215 C 0.74207 0.84913 0.22413 0.0
C216 C 0.74328 0.83471 0.21275 0.0
C217 C 0.73011 0.82309 0.21909 0.0
C218 C 0.72243 0.83016 0.2323 0.0
C219 C 0.73943 0.83982 0.19563 0.0
C220 C 0.76021 0.82846 0.21467 0.0
H221 H 0.68362 0.7749 0.23675 0.0
H222 H 0.67436 0.81983 0.27608 0.0
H223 H 0.71208 0.81796 0.27519 0.0
H224 H 0.72193 0.8354 0.26771 0.0
H225 H 0.70357 0.83693 0.27896 0.0
H226 H 0.67905 0.83643 0.24229 0.0
H227 H 0.6844 0.84641 0.26128 0.0
H228 H 0.69611 0.85018 0.24351 0.0
H229 H 0.7154 0.75914 0.18778 0.0
H230 H 0.75422 0.78924 0.16782 0.0
H231 H 0.75056 0.81004 0.18828 0.0
H232 H 0.69138 0.78765 0.1944 0.0
H233 H 0.68845 0.76745 0.20108 0.0
H234 H 0.68235 0.78442 0.21314 0.0
H235 H 0.72554 0.7667 0.22443 0.0
H236 H 0.70882 0.77053 0.2364 0.0
H237 H 0.70638 0.75646 0.21929 0.0
H238 H 0.66247 0.77145 0.25635 0.0
C239 C 0.68198 0.78487 0.24505 0.0
C240 C 0.0607 0.92647 0.47972 0.0
C241 C 0.04622 0.91669 0.48012 0.0
C242 C 0.03443 0.91826 0.46826 0.0
C243 C 0.05124 0.93964 0.45652 0.0
C244 C 0.06295 0.93776 0.46788 0.0
C245 C 0.07745 0.94938 0.46617 0.0
H246 H 0.11337 0.01401 0.43111 0.0
C247 C 0.05711 0.95296 0.44641 0.0
C248 C 0.07252 0.9586 0.45194 0.0
H249 H 0.13089 0.98789 0.47038 0.0
H250 H 0.1079 0.9687 0.46783 0.0
H251 H 0.07678 0.01282 0.44292 0.0
H252 H 0.10126 0.98287 0.40898 0.0
H253 H 0.08184 0.98427 0.40125 0.0
H254 H 0.09523 0.00229 0.40406 0.0
H255 H 0.08409 0.01963 0.42398 0.0
H256 H 0.06446 0.00933 0.42582 0.0
C257 C 0.07919 0.96028 0.48177 0.0
C258 C 0.09214 0.93952 0.46228 0.0
C259 C 0.02059 0.97289 0.40391 0.0
C260 C 0.02267 0.98527 0.39302 0.0
C261 C 0.03768 0.99423 0.39237 0.0
C262 C 0.05028 0.99118 0.40265 0.0
C263 C 0.04788 0.97908 0.41377 0.0
C264 C 0.03334 0.96996 0.41407 0.0
C265 C 0.03316 0.9573 0.42639 0.0
C266 C 0.0499 0.96056 0.43362 0.0
C267 C 0.05838 0.97344 0.42628 0.0
C268 C 0.01981 0.96074 0.43871 0.0
C269 C 0.03097 0.94048 0.41757 0.0
C270 C 0.11224 0.00415 0.43916 0.0
C271 C 0.12397 0.00254 0.451 0.0
C272 C 0.12216 0.98936 0.46103 0.0
C273 C 0.10869 0.97828 0.45964 0.0
C274 C 0.09677 0.98042 0.44818 0.0
C275 C 0.09878 0.99302 0.438 0.0
C276 C 0.0848 0.99343 0.42663 0.0
C277 C 0.07396 0.97916 0.4319 0.0
C278 C 0.08102 0.97168 0.44457 0.0
C279 C 0.07709 0.00965 0.42983 0.0
C280 C 0.091 0.9907 0.40928 0.0
H281 H 0.02739 0.93037 0.44787 0.0
H282 H 0.06994 0.92576 0.48874 0.0
H283 H 0.08849 0.92838 0.45487 0.0
H284 H 0.10133 0.94611 0.45503 0.0
H285 H 0.09785 0.93579 0.47341 0.0
H286 H 0.06718 0.96275 0.48672 0.0
H287 H 0.08584 0.95443 0.49116 0.0
H288 H 0.08518 0.97231 0.47988 0.0
H289 H 0.00928 0.96563 0.4045 0.0
H290 H 0.03956 0.00388 0.38416 0.0
H291 H 0.06133 0.99855 0.4017 0.0
H292 H 0.0197 0.97392 0.44158 0.0
H293 H 0.00775 0.95639 0.4339 0.0
H294 H 0.02157 0.95532 0.45033 0.0
H295 H 0.03676 0.94062 0.40556 0.0
H296 H 0.03682 0.93111 0.4239 0.0
H297 H 0.01802 0.93661 0.41573 0.0
H298 H 0.02326 0.9107 0.46812 0.0
C299 C 0.03687 0.92966 0.45646 0.0
C300 C 0.25665 0.71366 0.80207 0.0
C301 C 0.25762 0.70446 0.7876 0.0
C302 C 0.24646 0.70639 0.77526 0.0
C303 C 0.23368 0.72641 0.79187 0.0
C304 C 0.2446 0.72442 0.80397 0.0
C305 C 0.24155 0.7346 0.81885 0.0
H306 H 0.19731 0.78904 0.85763 0.0
C307 C 0.22259 0.7384 0.7978 0.0
C308 C 0.22711 0.74317 0.81364 0.0
H309 H 0.23794 0.76588 0.87576 0.0
H310 H 0.24043 0.75133 0.85033 0.0
H311 H 0.18026 0.75692 0.83935 0.0
H312 H 0.21208 0.79623 0.82392 0.0
H313 H 0.19844 0.79128 0.80811 0.0
H314 H 0.19106 0.79829 0.82734 0.0
H315 H 0.17408 0.77695 0.83756 0.0
H316 H 0.17307 0.76249 0.82077 0.0
C317 C 0.23736 0.72319 0.83266 0.0
C318 C 0.25653 0.74651 0.82204 0.0
C319 C 0.17802 0.75499 0.76166 0.0
C320 C 0.16596 0.76584 0.76397 0.0
C321 C 0.16529 0.77467 0.77877 0.0
C322 C 0.17622 0.77258 0.7911 0.0
C323 C 0.18804 0.76155 0.7887 0.0
C324 C 0.18889 0.75306 0.77414 0.0
C325 C 0.20233 0.74191 0.77379 0.0
C326 C 0.20938 0.74516 0.79053 0.0
C327 C 0.2009 0.75663 0.7992 0.0
C328 C 0.19486 0.72436 0.77126 0.0
C329 C 0.21438 0.74733 0.76063 0.0
C330 C 0.20662 0.78068 0.85619 0.0
C331 C 0.21743 0.7786 0.86875 0.0
C332 C 0.22957 0.76783 0.86623 0.0
C333 C 0.23095 0.75933 0.85147 0.0
C334 C 0.22008 0.76158 0.83902 0.0
C335 C 0.20818 0.77211 0.8415 0.0
C336 C 0.19779 0.77309 0.82689 0.0
C337 C 0.20535 0.76131 0.81527 0.0
C338 C 0.21838 0.75461 0.82244 0.0
C339 C 0.18033 0.76718 0.83126 0.0
C340 C 0.19977 0.79061 0.82123 0.0
H341 H 0.22641 0.71828 0.76745 0.0
H342 H 0.26486 0.71222 0.81189 0.0
H343 H 0.26164 0.75088 0.81058 0.0
H344 H 0.25377 0.75753 0.82905 0.0
H345 H 0.26612 0.74063 0.82832 0.0
H346 H 0.23082 0.71176 0.82804 0.0
H347 H 0.24841 0.71998 0.83885 0.0
H348 H 0.22915 0.72828 0.8416 0.0
H349 H 0.1788 0.74791 0.75051 0.0
H350 H 0.15632 0.78331 0.78079 0.0
H351 H 0.17501 0.77964 0.80206 0.0
H352 H 0.183 0.72281 0.77734 0.0
H353 H 0.1929 0.72108 0.75832 0.0
H354 H 0.2022 0.71544 0.77656 0.0
H355 H 0.21589 0.76072 0.7605 0.0
H356 H 0.2266 0.74352 0.76259 0.0
H357 H 0.21007 0.74272 0.74855 0.0
H358 H 0.24701 0.69946 0.76399 0.0
C359 C 0.23454 0.71735 0.77729 0.0
C360 C 0.89397 0.54485 0.47785 0.0
C361 C 0.89091 0.52985 0.46955 0.0
C362 C 0.90028 0.52613 0.45601 0.0
C363 C 0.91587 0.55182 0.45971 0.0
C364 C 0.90643 0.55558 0.47275 0.0
C365 C 0.91143 0.57184 0.48052 0.0
H366 H 0.96426 0.63753 0.48563 0.0
C367 C 0.92813 0.5654 0.45795 0.0
C368 C 0.92551 0.57719 0.47004 0.0
H369 H 0.92325 0.62614 0.5159 0.0
H370 H 0.91607 0.60218 0.49938 0.0
H371 H 0.94627 0.6279 0.45221 0.0
H372 H 0.9757 0.60177 0.48267 0.0
H373 H 0.98172 0.59791 0.46278 0.0
H374 H 0.98361 0.61827 0.47121 0.0
H375 H 0.96777 0.63144 0.45281 0.0
H376 H 0.95786 0.61609 0.43945 0.0
C377 C 0.89727 0.58275 0.47907 0.0
C378 C 0.91675 0.56931 0.49798 0.0
C379 C 0.97173 0.56132 0.41576 0.0
C380 C 0.98507 0.57171 0.41174 0.0
C381 C 0.9874 0.58697 0.41983 0.0
C382 C 0.97689 0.59164 0.43196 0.0
C383 C 0.9639 0.58094 0.43614 0.0
C384 C 0.96133 0.56617 0.42792 0.0
C385 C 0.9468 0.55645 0.4339 0.0
C386 C 0.9412 0.56774 0.4472 0.0
C387 C 0.95133 0.582 0.44852 0.0
C388 C 0.93437 0.55382 0.42003 0.0
C389 C 0.95247 0.54069 0.44047 0.0
C390 C 0.95376 0.62984 0.48872 0.0
C391 C 0.94437 0.6337 0.50215 0.0
C392 C 0.93061 0.62353 0.50556 0.0
C393 C 0.92654 0.60953 0.49602 0.0
C394 C 0.93634 0.60557 0.48296 0.0
C395 C 0.94954 0.61578 0.47934 0.0
C396 C 0.95857 0.60963 0.46501 0.0
C397 C 0.94873 0.59392 0.46077 0.0
C398 C 0.93581 0.59157 0.47138 0.0
C399 C 0.95774 0.62187 0.45164 0.0
C400 C 0.97586 0.6068 0.47054 0.0
H401 H 0.91955 0.53343 0.44077 0.0
H402 H 0.88682 0.54819 0.48814 0.0
H403 H 0.92307 0.55804 0.49865 0.0
H404 H 0.92548 0.57894 0.50282 0.0
H405 H 0.90621 0.56829 0.50611 0.0
H406 H 0.89045 0.57983 0.4677 0.0
H407 H 0.88869 0.58115 0.48914 0.0
H408 H 0.90131 0.59567 0.47854 0.0
H409 H 0.96962 0.54948 0.40987 0.0
H410 H 0.99739 0.59534 0.41676 0.0
H411 H 0.9794 0.60334 0.43772 0.0
H412 H 0.93488 0.56439 0.41231 0.0
H413 H 0.9367 0.54305 0.41228 0.0
H414 H 0.92181 0.55263 0.42432 0.0
H415 H 0.9642 0.54306 0.44686 0.0
H416 H 0.94421 0.53532 0.4494 0.0
H417 H 0.95412 0.53157 0.43058 0.0
H418 H 0.89821 0.51461 0.44946 0.0
C419 C 0.91273 0.53703 0.45104 0.0
C420 C 0.7891 0.78037 0.84145 0.0
C421 C 0.77647 0.78059 0.85259 0.0
C422 C 0.76341 0.78989 0.84965 0.0
C423 C 0.77584 0.79874 0.82499 0.0
C424 C 0.78852 0.78945 0.82781 0.0
C425 C 0.80099 0.79047 0.81483 0.0
H426 H 0.82872 0.82343 0.74676 0.0
C427 C 0.77908 0.80686 0.80982 0.0
C428 C 0.79375 0.80199 0.80378 0.0
H429 H 0.85033 0.78833 0.77487 0.0
H430 H 0.82775 0.78775 0.79286 0.0
H431 H 0.8162 0.84519 0.77705 0.0
H432 H 0.79324 0.80643 0.74732 0.0
H433 H 0.77867 0.82019 0.75155 0.0
H434 H 0.79646 0.82652 0.74045 0.0
H435 H 0.8114 0.84715 0.75629 0.0
H436 H 0.79692 0.85057 0.77184 0.0
C437 C 0.81701 0.79777 0.8225 0.0
C438 C 0.80184 0.77341 0.8067 0.0
C439 C 0.74084 0.84672 0.79067 0.0
C440 C 0.74095 0.85653 0.77739 0.0
C441 C 0.75323 0.85534 0.76589 0.0
C442 C 0.76547 0.8449 0.76783 0.0
C443 C 0.76545 0.83554 0.78142 0.0
C444 C 0.75313 0.83636 0.79242 0.0
C445 C 0.75496 0.82541 0.80603 0.0
C446 C 0.77053 0.81805 0.8015 0.0
C447 C 0.77668 0.8241 0.78713 0.0
C448 C 0.75667 0.83598 0.82182 0.0
C449 C 0.74043 0.81263 0.80561 0.0
C450 C 0.82859 0.81571 0.75687 0.0
C451 C 0.84134 0.80596 0.75946 0.0
C452 C 0.8406 0.79586 0.77257 0.0
C453 C 0.82751 0.79561 0.78306 0.0
C454 C 0.81496 0.80557 0.78046 0.0
C455 C 0.81553 0.81526 0.76744 0.0
C456 C 0.80089 0.82472 0.76639 0.0
C457 C 0.79159 0.81926 0.78107 0.0
C458 C 0.79998 0.80816 0.7893 0.0
C459 C 0.80652 0.84289 0.76786 0.0
C460 C 0.79182 0.81936 0.75059 0.0
H461 H 0.75281 0.80587 0.83442 0.0
H462 H 0.79917 0.77312 0.84321 0.0
H463 H 0.78995 0.76639 0.80696 0.0
H464 H 0.80489 0.77375 0.79382 0.0
H465 H 0.81066 0.76644 0.81287 0.0
H466 H 0.81476 0.8074 0.83174 0.0
H467 H 0.82341 0.78843 0.82846 0.0
H468 H 0.82521 0.80372 0.81385 0.0
H469 H 0.73143 0.84719 0.7996 0.0
H470 H 0.75365 0.86284 0.75562 0.0
H471 H 0.77461 0.84473 0.75879 0.0
H472 H 0.76402 0.84744 0.81988 0.0
H473 H 0.74472 0.83913 0.82634 0.0
H474 H 0.76301 0.83025 0.83139 0.0
H475 H 0.73643 0.80944 0.79306 0.0
H476 H 0.74334 0.80108 0.81048 0.0
H477 H 0.73001 0.81719 0.81224 0.0
H478 H 0.75357 0.79033 0.8581 0.0
C479 C 0.76303 0.79896 0.83593 0.0
C480 C 0.28826 0.27731 0.34268 0.0
C481 C 0.27578 0.27756 0.35399 0.0
C482 C 0.26281 0.28709 0.35127 0.0
C483 C 0.27487 0.29569 0.32635 0.0
C484 C 0.28751 0.28632 0.329 0.0
C485 C 0.2997 0.28705 0.31576 0.0
H486 H 0.32559 0.31784 0.24605 0.0
C487 C 0.27776 0.30347 0.31094 0.0
C488 C 0.29223 0.29835 0.30464 0.0
H489 H 0.34836 0.28427 0.2751 0.0
H490 H 0.32618 0.28412 0.29355 0.0
H491 H 0.3134 0.34065 0.27622 0.0
H492 H 0.29069 0.30091 0.24763 0.0
H493 H 0.27561 0.31396 0.25238 0.0
H494 H 0.29263 0.32097 0.24051 0.0
H495 H 0.30885 0.3416 0.25526 0.0
H496 H 0.29417 0.34573 0.27037 0.0
C497 C 0.31589 0.29448 0.32297 0.0
C498 C 0.30036 0.26985 0.30792 0.0
C499 C 0.23952 0.34343 0.29184 0.0
C500 C 0.23905 0.35249 0.27802 0.0
C501 C 0.25066 0.35026 0.26597 0.0
C502 C 0.26281 0.33975 0.2679 0.0
C503 C 0.2634 0.33125 0.28201 0.0
C504 C 0.25165 0.33286 0.29351 0.0
C505 C 0.2538 0.32231 0.3074 0.0
C506 C 0.26903 0.31445 0.30253 0.0
C507 C 0.2747 0.31989 0.28773 0.0
C508 C 0.25633 0.3333 0.32282 0.0
C509 C 0.23903 0.30985 0.30791 0.0
C510 C 0.32581 0.31055 0.25645 0.0
C511 C 0.33876 0.30109 0.25915 0.0
C512 C 0.33846 0.29154 0.27267 0.0
C513 C 0.3256 0.29155 0.28344 0.0
C514 C 0.31284 0.30121 0.28071 0.0
C515 C 0.313 0.31038 0.26732 0.0
C516 C 0.29827 0.31971 0.26629 0.0
C517 C 0.2894 0.31479 0.2814 0.0
C518 C 0.29806 0.30403 0.28981 0.0
C519 C 0.30383 0.33791 0.26697 0.0
C520 C 0.28878 0.31375 0.25088 0.0
H521 H 0.25211 0.30313 0.33616 0.0
H522 H 0.29854 0.27034 0.34444 0.0
H523 H 0.28837 0.26302 0.30822 0.0
H524 H 0.30351 0.2699 0.29506 0.0
H525 H 0.309 0.26285 0.31431 0.0
H526 H 0.31384 0.30399 0.33241 0.0
H527 H 0.32264 0.28517 0.32858 0.0
H528 H 0.32369 0.30064 0.31412 0.0
H529 H 0.23091 0.34481 0.30142 0.0
H530 H 0.25041 0.35669 0.255 0.0
H531 H 0.27137 0.33875 0.25838 0.0
H532 H 0.26435 0.34421 0.32041 0.0
H533 H 0.24471 0.33741 0.32731 0.0
H534 H 0.26227 0.32745 0.33256 0.0
H535 H 0.23406 0.30679 0.29567 0.0
H536 H 0.24207 0.29817 0.31243 0.0
H537 H 0.22923 0.31461 0.31533 0.0
H538 H 0.2529 0.28736 0.35965 0.0
C539 C 0.2623 0.29615 0.33754 0.0
C540 C 0.43142 0.91011 0.53694 0.0
C541 C 0.42388 0.91101 0.52199 0.0
C542 C 0.41431 0.92393 0.51946 0.0
C543 C 0.42066 0.93515 0.54629 0.0
C544 C 0.42976 0.92227 0.54879 0.0
C545 C 0.43824 0.92375 0.56473 0.0
H546 H 0.46261 0.96997 0.62973 0.0
C547 C 0.42245 0.94628 0.56063 0.0
C548 C 0.43275 0.93965 0.57144 0.0
H549 H 0.47535 0.92184 0.6158 0.0
H550 H 0.45632 0.92055 0.594 0.0
H551 H 0.42422 0.96129 0.62485 0.0
H552 H 0.46061 0.98367 0.59486 0.0
H553 H 0.44365 0.99513 0.59499 0.0
H554 H 0.45407 0.99269 0.61347 0.0
H555 H 0.43101 0.98218 0.62782 0.0
H556 H 0.4148 0.9756 0.61407 0.0
C557 C 0.43187 0.90943 0.57477 0.0
C558 C 0.45663 0.92463 0.56154 0.0
C559 C 0.39509 0.99887 0.56249 0.0
C560 C 0.39486 0.0118 0.57395 0.0
C561 C 0.40361 0.01111 0.58836 0.0
C562 C 0.41251 0.99787 0.59122 0.0
C563 C 0.41273 0.98516 0.57956 0.0
C564 C 0.40398 0.98572 0.56556 0.0
C565 C 0.40551 0.97107 0.55457 0.0
C566 C 0.41642 0.96151 0.56441 0.0
C567 C 0.42078 0.96991 0.57894 0.0
C568 C 0.38859 0.96225 0.55218 0.0
C569 C 0.41366 0.97664 0.53887 0.0
C570 C 0.46113 0.95904 0.62216 0.0
C571 C 0.47081 0.94613 0.62432 0.0
C572 C 0.46841 0.93214 0.61415 0.0
C573 C 0.4573 0.93139 0.60151 0.0
C574 C 0.44849 0.94477 0.5989 0.0
C575 C 0.45004 0.95807 0.60945 0.0
C576 C 0.43919 0.97089 0.60506 0.0
C577 C 0.43151 0.96336 0.5897 0.0
C578 C 0.43717 0.94817 0.58609 0.0
C579 C 0.42668 0.97276 0.61863 0.0
C580 C 0.44982 0.9865 0.60199 0.0
H581 H 0.40528 0.94558 0.52889 0.0
H582 H 0.43913 0.90052 0.53915 0.0
H583 H 0.45968 0.93158 0.55074 0.0
H584 H 0.46386 0.931 0.57127 0.0
H585 H 0.4609 0.91239 0.55942 0.0
H586 H 0.41907 0.90568 0.57182 0.0
H587 H 0.43892 0.89876 0.57244 0.0
H588 H 0.4319 0.91254 0.5878 0.0
H589 H 0.38872 0.99906 0.55119 0.0
H590 H 0.40348 0.02076 0.59751 0.0
H591 H 0.41896 0.9981 0.60237 0.0
H592 H 0.38176 0.96239 0.56363 0.0
H593 H 0.38151 0.96818 0.54317 0.0
H594 H 0.389 0.94938 0.54852 0.0
H595 H 0.42238 0.98728 0.54127 0.0
H596 H 0.4209 0.96743 0.53309 0.0
H597 H 0.40463 0.98014 0.53014 0.0
H598 H 0.40833 0.92483 0.50804 0.0
C599 C 0.41258 0.93595 0.53157 0.0
C600 C 0.17687 0.31125 0.76411 0.0
C601 C 0.16836 0.29607 0.76486 0.0
C602 C 0.17265 0.28332 0.75439 0.0
C603 C 0.19336 0.30104 0.74253 0.0
C604 C 0.18925 0.31344 0.75295 0.0
C605 C 0.19945 0.32883 0.75072 0.0
H606 H 0.26134 0.36872 0.71359 0.0
C607 C 0.20671 0.30741 0.73239 0.0
C608 C 0.21034 0.32367 0.73719 0.0
H609 H 0.23051 0.3869 0.75088 0.0
H610 H 0.21535 0.36116 0.75094 0.0
H611 H 0.2323 0.35059 0.69278 0.0
H612 H 0.26482 0.33408 0.72744 0.0
H613 H 0.26301 0.3195 0.71148 0.0
H614 H 0.27107 0.33968 0.70776 0.0
H615 H 0.25283 0.34735 0.68803 0.0
H616 H 0.23705 0.3313 0.6859 0.0
C617 C 0.1883 0.3418 0.74558 0.0
C618 C 0.20894 0.33323 0.7665 0.0
C619 C 0.22946 0.27146 0.68839 0.0
C620 C 0.24157 0.2742 0.67688 0.0
C621 C 0.25031 0.28938 0.67701 0.0
C622 C 0.24691 0.3017 0.68822 0.0
C623 C 0.2346 0.29888 0.69945 0.0
C624 C 0.22617 0.28393 0.69948 0.0
C625 C 0.21343 0.28319 0.71226 0.0
C626 C 0.21547 0.30021 0.71972 0.0
C627 C 0.22791 0.30933 0.71217 0.0
C628 C 0.19683 0.27966 0.70393 0.0
C629 C 0.21766 0.27045 0.72422 0.0
C630 C 0.25121 0.36724 0.72165 0.0
C631 C 0.24728 0.37989 0.73238 0.0
C632 C 0.23406 0.37731 0.74273 0.0
C633 C 0.22519 0.36234 0.7427 0.0
C634 C 0.22948 0.34975 0.73215 0.0
C635 C 0.24216 0.35237 0.72172 0.0
C636 C 0.24473 0.33767 0.71111 0.0
C637 C 0.2317 0.32572 0.71716 0.0
C638 C 0.22288 0.33286 0.72952 0.0
C639 C 0.24171 0.34184 0.6935 0.0
C640 C 0.26182 0.33241 0.71445 0.0
H641 H 0.18769 0.2756 0.73549 0.0
H642 H 0.17404 0.32123 0.77214 0.0
H643 H 0.21264 0.32218 0.77208 0.0
H644 H 0.2203 0.3406 0.76467 0.0
H645 H 0.2015 0.33967 0.77537 0.0
H646 H 0.17804 0.33627 0.73818 0.0
H647 H 0.18321 0.34815 0.75618 0.0
H648 H 0.19442 0.35078 0.73787 0.0
H649 H 0.22241 0.26 0.68852 0.0
H650 H 0.25985 0.29173 0.66843 0.0
H651 H 0.25397 0.31297 0.68765 0.0
H652 H 0.1963 0.28632 0.6927 0.0
H653 H 0.1945 0.2666 0.70069 0.0
H654 H 0.18676 0.28369 0.71129 0.0
H655 H 0.23093 0.27026 0.72563 0.0
H656 H 0.21323 0.27304 0.73647 0.0
H657 H 0.21289 0.25815 0.72002 0.0
H658 H 0.16619 0.27155 0.75464 0.0
C659 C 0.18508 0.28573 0.74322 0.0
C660 C 0.75267 0.18647 0.73721 0.0
C661 C 0.73755 0.18446 0.72957 0.0
C662 C 0.73253 0.19698 0.72037 0.0
C663 C 0.75728 0.2132 0.72692 0.0
C664 C 0.76221 0.20087 0.73581 0.0
C665 C 0.77832 0.205 0.74364 0.0
H666 H 0.84152 0.25902 0.75948 0.0
C667 C 0.76992 0.22666 0.72826 0.0
C668 C 0.78222 0.22193 0.73809 0.0
H669 H 0.83385 0.21014 0.77499 0.0
H670 H 0.80874 0.20677 0.76063 0.0
H671 H 0.80531 0.26874 0.76406 0.0
H672 H 0.83002 0.24999 0.72274 0.0
H673 H 0.81813 0.26502 0.71629 0.0
H674 H 0.83404 0.27031 0.73068 0.0
H675 H 0.82042 0.28066 0.75363 0.0
H676 H 0.7996 0.27921 0.74742 0.0
C677 C 0.776 0.20479 0.76207 0.0
C678 C 0.79023 0.19301 0.73675 0.0
C679 C 0.76379 0.27763 0.69838 0.0
C680 C 0.7735 0.29211 0.69723 0.0
C681 C 0.78782 0.29437 0.70636 0.0
C682 C 0.79255 0.28232 0.71617 0.0
C683 C 0.78288 0.26779 0.71689 0.0
C684 C 0.76867 0.26573 0.70824 0.0
C685 C 0.75982 0.2496 0.71058 0.0
C686 C 0.77123 0.24218 0.72179 0.0
C687 C 0.78474 0.25287 0.72543 0.0
C688 C 0.74349 0.25251 0.71869 0.0
C689 C 0.75835 0.24024 0.6941 0.0
C690 C 0.8345 0.24754 0.75967 0.0
C691 C 0.83967 0.23488 0.76855 0.0
C692 C 0.83004 0.22021 0.76855 0.0
C693 C 0.81547 0.21823 0.76009 0.0
C694 C 0.81039 0.23103 0.75146 0.0
C695 C 0.8199 0.24533 0.75122 0.0
C696 C 0.81267 0.25745 0.74107 0.0
C697 C 0.79717 0.24809 0.73545 0.0
C698 C 0.79592 0.23267 0.74164 0.0
C699 C 0.80938 0.2724 0.75198 0.0
C700 C 0.82428 0.26106 0.72698 0.0
H701 H 0.73778 0.22043 0.71191 0.0
H702 H 0.75705 0.17702 0.74415 0.0
H703 H 0.7872 0.1892 0.72408 0.0
H704 H 0.80275 0.19839 0.73629 0.0
H705 H 0.7899 0.18196 0.74374 0.0
H706 H 0.76429 0.20948 0.76561 0.0
H707 H 0.77608 0.19235 0.76632 0.0
H708 H 0.78512 0.21268 0.76885 0.0
H709 H 0.75281 0.27537 0.69142 0.0
H710 H 0.79541 0.30549 0.70592 0.0
H711 H 0.80361 0.28474 0.72273 0.0
H712 H 0.74454 0.26349 0.72687 0.0
H713 H 0.73407 0.25422 0.70963 0.0
H714 H 0.73922 0.24267 0.72643 0.0
H715 H 0.76961 0.24225 0.68707 0.0
H716 H 0.75662 0.22705 0.69511 0.0
H717 H 0.74831 0.24428 0.68691 0.0
H718 H 0.72088 0.19584 0.71449 0.0
C719 C 0.74231 0.21132 0.71899 0.0
C720 C 0.574 0.64388 0.54537 0.0
C721 C 0.56256 0.65545 0.54483 0.0
C722 C 0.55269 0.65798 0.5583 0.0
C723 C 0.56469 0.63672 0.57187 0.0
C724 C 0.57484 0.63468 0.55896 0.0
C725 C 0.58571 0.6213 0.56119 0.0
H726 H 0.60628 0.5591 0.60441 0.0
C727 C 0.56787 0.62456 0.58359 0.0
C728 C 0.58031 0.61559 0.57749 0.0
H729 H 0.62534 0.57397 0.55875 0.0
H730 H 0.60921 0.59678 0.55994 0.0
H731 H 0.60614 0.5949 0.62157 0.0
H732 H 0.57037 0.56389 0.59578 0.0
H733 H 0.56063 0.57277 0.61216 0.0
H734 H 0.57676 0.56012 0.61571 0.0
H735 H 0.59624 0.57745 0.63013 0.0
H736 H 0.58781 0.59683 0.63161 0.0
C737 C 0.60334 0.62869 0.56159 0.0
C738 C 0.58198 0.60818 0.54762 0.0
C739 C 0.53091 0.6171 0.63151 0.0
C740 C 0.52994 0.60574 0.64349 0.0
C741 C 0.54226 0.59514 0.64468 0.0
C742 C 0.55487 0.59524 0.6336 0.0
C743 C 0.55512 0.60595 0.62108 0.0
C744 C 0.54354 0.61695 0.62043 0.0
C745 C 0.54574 0.62738 0.60623 0.0
C746 C 0.56027 0.6205 0.59823 0.0
C747 C 0.56561 0.60786 0.60692 0.0
C748 C 0.54948 0.64508 0.61253 0.0
C749 C 0.53042 0.62456 0.59561 0.0
C750 C 0.60699 0.56724 0.59465 0.0
C751 C 0.61712 0.5646 0.58145 0.0
C752 C 0.61782 0.57574 0.56917 0.0
C753 C 0.6083 0.58894 0.56979 0.0
C754 C 0.59778 0.59101 0.58274 0.0
C755 C 0.59742 0.58039 0.59499 0.0
C756 C 0.5852 0.58418 0.60757 0.0
C757 C 0.57824 0.59882 0.60083 0.0
C758 C 0.58561 0.60272 0.58625 0.0
C759 C 0.59418 0.58847 0.62365 0.0
C760 C 0.57258 0.56952 0.60802 0.0
H761 H 0.54574 0.6511 0.58154 0.0
H762 H 0.5817 0.64159 0.5352 0.0
H763 H 0.56892 0.60706 0.54461 0.0
H764 H 0.58467 0.59601 0.551 0.0
H765 H 0.58868 0.61119 0.53652 0.0
H766 H 0.6042 0.64087 0.56777 0.0
H767 H 0.60813 0.63002 0.54927 0.0
H768 H 0.61144 0.62161 0.56844 0.0
H769 H 0.5216 0.62537 0.63025 0.0
H770 H 0.54195 0.58649 0.654 0.0
H771 H 0.56369 0.58664 0.63497 0.0
H772 H 0.55599 0.64566 0.62422 0.0
H773 H 0.53827 0.65133 0.61437 0.0
H774 H 0.55759 0.65208 0.60451 0.0
H775 H 0.52603 0.61159 0.595 0.0
H776 H 0.53244 0.62764 0.58303 0.0
H777 H 0.52054 0.63154 0.60054 0.0
H778 H 0.544 0.66702 0.55831 0.0
C779 C 0.55375 0.64874 0.5718 0.0
C780 C 0.56291 0.42668 0.9814 0.0
C781 C 0.54774 0.41851 0.98354 0.0
C782 C 0.5352 0.42092 0.97274 0.0
C783 C 0.55265 0.44034 0.95889 0.0
C784 C 0.56505 0.43753 0.96915 0.0
C785 C 0.58013 0.44795 0.96612 0.0
H786 H 0.6162 0.51222 0.93104 0.0
C787 C 0.55861 0.45321 0.94826 0.0
C788 C 0.57472 0.45766 0.95245 0.0
H789 H 0.63604 0.48232 0.96598 0.0
H790 H 0.61205 0.46431 0.96447 0.0
H791 H 0.58112 0.51188 0.94498 0.0
H792 H 0.60144 0.48205 0.90799 0.0
H793 H 0.58159 0.48443 0.902 0.0
H794 H 0.59576 0.50192 0.90433 0.0
H795 H 0.58722 0.51908 0.9258 0.0
H796 H 0.5674 0.50963 0.92887 0.0
C797 C 0.58408 0.45865 0.98155 0.0
C798 C 0.59349 0.43685 0.96084 0.0
C799 C 0.52077 0.47542 0.90829 0.0
C800 C 0.52273 0.48803 0.89763 0.0
C801 C 0.53791 0.49661 0.89655 0.0
C802 C 0.55085 0.49287 0.90605 0.0
C803 C 0.54863 0.48047 0.91686 0.0
C804 C 0.53384 0.47187 0.91776 0.0
C805 C 0.53374 0.45919 0.93006 0.0
C806 C 0.55096 0.46149 0.93622 0.0
C807 C 0.55956 0.47406 0.92852 0.0
C808 C 0.5214 0.46337 0.94321 0.0
C809 C 0.53014 0.44247 0.92137 0.0
C810 C 0.61548 0.50165 0.93817 0.0
C811 C 0.62792 0.49887 0.94888 0.0
C812 C 0.62648 0.48495 0.95793 0.0
C813 C 0.61253 0.47448 0.95702 0.0
C814 C 0.5998 0.47798 0.94704 0.0
C815 C 0.60158 0.49106 0.93744 0.0
C816 C 0.58686 0.49265 0.92733 0.0
C817 C 0.57579 0.47868 0.9329 0.0
C818 C 0.58339 0.47029 0.94457 0.0
C819 C 0.58026 0.50918 0.93181 0.0
C820 C 0.59155 0.49027 0.90945 0.0
H821 H 0.52751 0.43327 0.95275 0.0
H822 H 0.57289 0.42491 0.98929 0.0
H823 H 0.58832 0.42567 0.95434 0.0
H824 H 0.60201 0.44252 0.95224 0.0
H825 H 0.6003 0.43316 0.97134 0.0
H826 H 0.57288 0.46262 0.98723 0.0
H827 H 0.59042 0.45193 0.99052 0.0
H828 H 0.59136 0.46993 0.97932 0.0
H829 H 0.50924 0.46868 0.90949 0.0
H830 H 0.53981 0.50619 0.88826 0.0
H831 H 0.56205 0.49989 0.9047 0.0
H832 H 0.52128 0.47666 0.94532 0.0
H833 H 0.50903 0.45863 0.93967 0.0
H834 H 0.5243 0.45888 0.95502 0.0
H835 H 0.53632 0.44195 0.90956 0.0
H836 H 0.53464 0.43254 0.928 0.0
H837 H 0.51703 0.43993 0.91914 0.0
H838 H 0.52337 0.41483 0.97415 0.0
C839 C 0.53758 0.43175 0.96041 0.0
C840 C 0.7545 0.21166 0.29976 0.0
C841 C 0.7567 0.20369 0.28476 0.0
C842 C 0.74722 0.20753 0.27164 0.0
C843 C 0.73356 0.22662 0.28858 0.0
C844 C 0.74301 0.22305 0.30136 0.0
C845 C 0.73939 0.23265 0.31645 0.0
H846 H 0.69661 0.28885 0.35435 0.0
C847 C 0.72264 0.23884 0.29437 0.0
C848 C 0.72609 0.24247 0.31067 0.0
H849 H 0.73464 0.26281 0.37375 0.0
H850 H 0.73733 0.24842 0.34827 0.0
H851 H 0.67869 0.25801 0.33514 0.0
H852 H 0.71324 0.29569 0.32107 0.0
H853 H 0.69918 0.2923 0.30536 0.0
H854 H 0.69255 0.29906 0.32494 0.0
H855 H 0.67336 0.27818 0.33235 0.0
H856 H 0.67303 0.26326 0.31593 0.0
C857 C 0.7333 0.22072 0.32921 0.0
C858 C 0.75475 0.24343 0.32139 0.0
C859 C 0.68056 0.25809 0.2569 0.0
C860 C 0.66853 0.26899 0.25911 0.0
C861 C 0.66729 0.27724 0.27416 0.0
C862 C 0.67765 0.27456 0.28681 0.0
C863 C 0.68944 0.26348 0.28449 0.0
C864 C 0.69082 0.25552 0.26971 0.0
C865 C 0.70407 0.24416 0.26952 0.0
C866 C 0.71023 0.24647 0.28668 0.0
C867 C 0.70158 0.25779 0.29537 0.0
C868 C 0.69644 0.22684 0.26584 0.0
C869 C 0.71693 0.25 0.25727 0.0
C870 C 0.70538 0.27991 0.35317 0.0
C871 C 0.71545 0.27701 0.36609 0.0
C872 C 0.72687 0.26543 0.36394 0.0
C873 C 0.72838 0.25704 0.34913 0.0
C874 C 0.7184 0.26025 0.33626 0.0
C875 C 0.70708 0.27146 0.33843 0.0
C876 C 0.69756 0.27335 0.32341 0.0
C877 C 0.70516 0.26158 0.31181 0.0
C878 C 0.71733 0.25393 0.31942 0.0
C879 C 0.67969 0.26807 0.32678 0.0
C880 C 0.70061 0.29101 0.31838 0.0
H881 H 0.72885 0.22125 0.26304 0.0
H882 H 0.76137 0.20892 0.31018 0.0
H883 H 0.76166 0.24732 0.31066 0.0
H884 H 0.75207 0.2548 0.32784 0.0
H885 H 0.76285 0.23687 0.3289 0.0
H886 H 0.72569 0.21043 0.32357 0.0
H887 H 0.74351 0.21569 0.33534 0.0
H888 H 0.72552 0.22618 0.33832 0.0
H889 H 0.68196 0.25167 0.24546 0.0
H890 H 0.658 0.28551 0.2763 0.0
H891 H 0.67596 0.28113 0.29796 0.0
H892 H 0.68479 0.2249 0.27223 0.0
H893 H 0.69402 0.22467 0.25279 0.0
H894 H 0.70389 0.21742 0.26995 0.0
H895 H 0.71789 0.26339 0.25691 0.0
H896 H 0.72917 0.24689 0.26042 0.0
H897 H 0.71386 0.24503 0.24497 0.0
H898 H 0.74879 0.20181 0.25988 0.0
C899 C 0.73568 0.21891 0.27347 0.0
C900 C 0.38986 0.04501 0.97266 0.0
C901 C 0.38647 0.0302 0.96411 0.0
C902 C 0.39642 0.02597 0.95119 0.0
C903 C 0.41307 0.05091 0.95581 0.0
C904 C 0.40319 0.05509 0.96837 0.0
C905 C 0.40894 0.07083 0.97679 0.0
H906 H 0.4656 0.13313 0.98552 0.0
C907 C 0.4262 0.06378 0.95486 0.0
C908 C 0.42384 0.07548 0.96712 0.0
H909 H 0.42326 0.12325 0.01444 0.0
H910 H 0.41516 0.10015 0.99705 0.0
H911 H 0.44824 0.12582 0.95166 0.0
H912 H 0.47487 0.09641 0.98155 0.0
H913 H 0.48134 0.09328 0.96169 0.0
H914 H 0.484 0.11316 0.97119 0.0
H915 H 0.46982 0.12771 0.95249 0.0
H916 H 0.459 0.11346 0.93864 0.0
C917 C 0.39579 0.08284 0.97497 0.0
C918 C 0.41309 0.06748 0.99439 0.0
C919 C 0.4702 0.05867 0.91327 0.0
C920 C 0.484 0.0686 0.90961 0.0
C921 C 0.48707 0.08346 0.9183 0.0
C922 C 0.47678 0.08819 0.93061 0.0
C923 C 0.46324 0.07798 0.93432 0.0
C924 C 0.46001 0.06361 0.92556 0.0
C925 C 0.44491 0.05445 0.93102 0.0
C926 C 0.43968 0.06566 0.94456 0.0
C927 C 0.45054 0.07934 0.94653 0.0
C928 C 0.43271 0.05297 0.91691 0.0
C929 C 0.44954 0.03811 0.93714 0.0
C930 C 0.45462 0.12594 0.98814 0.0
C931 C 0.44512 0.12997 0.00143 0.0
C932 C 0.43074 0.12049 0.00421 0.0
C933 C 0.42612 0.10699 0.99417 0.0
C934 C 0.43599 0.10284 0.98121 0.0
C935 C 0.44986 0.11238 0.97825 0.0
C936 C 0.45887 0.10614 0.96395 0.0
C937 C 0.44828 0.09109 0.95903 0.0
C938 C 0.43494 0.0892 0.9692 0.0
C939 C 0.45916 0.11891 0.95099 0.0
C940 C 0.47572 0.10209 0.96974 0.0
H941 H 0.41682 0.03234 0.93705 0.0
H942 H 0.38258 0.04847 0.98282 0.0
H943 H 0.41779 0.05537 0.99521 0.0
H944 H 0.42274 0.07595 0.99958 0.0
H945 H 0.40229 0.06778 0.00216 0.0
H946 H 0.38998 0.08117 0.96293 0.0
H947 H 0.38621 0.08102 0.98409 0.0
H948 H 0.40063 0.09557 0.97576 0.0
H949 H 0.46752 0.04713 0.90693 0.0
H950 H 0.49742 0.0915 0.91553 0.0
H951 H 0.47983 0.09959 0.93681 0.0
H952 H 0.43365 0.06404 0.90988 0.0
H953 H 0.43495 0.0426 0.90856 0.0
H954 H 0.42006 0.05178 0.92091 0.0
H955 H 0.46149 0.03947 0.94321 0.0
H956 H 0.44118 0.03324 0.94628 0.0
H957 H 0.45022 0.02897 0.92708 0.0
H958 H 0.39396 0.01466 0.94436 0.0
C959 C 0.40966 0.03627 0.94695 0.0
O960 O 0.23589 0.8777 0.02069 0.0
Cd961 Cd 0.246 0.89332 0.03842 0.0
Cd962 Cd 0.22431 0.91286 0.02714 0.0
O963 O 0.21685 0.89269 0.01296 0.0
O964 O 0.25832 0.87943 0.05184 0.0
O965 O 0.23786 0.89248 0.06113 0.0
C966 C 0.24896 0.88282 0.06359 0.0
C967 C 0.20555 0.92878 0.03945 0.0
C968 C 0.22388 0.87965 0.01178 0.0
C969 C 0.25948 0.92341 0.02378 0.0
O970 O 0.24502 0.92591 0.02051 0.0
O971 O 0.26262 0.91121 0.03147 0.0
O972 O 0.20752 0.92815 0.02413 0.0
O973 O 0.21378 0.91966 0.04789 0.0
O974 O 0.14258 0.52904 0.27177 0.0
Cd975 Cd 0.1281 0.51005 0.28017 0.0
Cd976 Cd 0.10753 0.51814 0.25793 0.0
O977 O 0.12687 0.53323 0.25137 0.0
O978 O 0.14211 0.49564 0.29108 0.0
O979 O 0.12863 0.4884 0.26865 0.0
C980 C 0.13843 0.4849 0.27977 0.0
C981 C 0.09179 0.50409 0.23803 0.0
C982 C 0.13986 0.53651 0.25923 0.0
C983 C 0.09746 0.52196 0.29238 0.0
O984 O 0.09469 0.52485 0.27787 0.0
O985 O 0.11005 0.51521 0.29604 0.0
O986 O 0.09175 0.51949 0.24034 0.0
O987 O 0.10132 0.49656 0.24674 0.0
O988 O 0.76104 0.67559 0.99256 0.0
Cd989 Cd 0.75454 0.65915 0.0096 0.0
Cd990 Cd 0.77888 0.64411 0.99673 0.0
O991 O 0.78325 0.66493 0.98452 0.0
O992 O 0.74058 0.67058 0.02494 0.0
O993 O 0.76428 0.66251 0.03167 0.0
C994 C 0.75159 0.66974 0.03567 0.0
C995 C 0.79895 0.6328 0.01086 0.0
C996 C 0.77362 0.67602 0.98394 0.0
C997 C 0.74615 0.62721 0.99267 0.0
O998 O 0.76074 0.6278 0.98821 0.0
O999 O 0.74129 0.63819 0.00216 0.0
O1000 O 0.79868 0.63226 0.99539 0.0
O1001 O 0.78815 0.64055 0.0184 0.0
O1002 O 0.90171 0.03203 0.27424 0.0
Cd1003 Cd 0.88705 0.03752 0.25568 0.0
Cd1004 Cd 0.86825 0.04619 0.28007 0.0
O1005 O 0.8873 0.04109 0.29436 0.0
O1006 O 0.90127 0.03633 0.23663 0.0
O1007 O 0.89132 0.05894 0.24551 0.0
C1008 C 0.90031 0.0516 0.23541 0.0
C1009 C 0.85796 0.07141 0.28143 0.0
C1010 C 0.89982 0.03475 0.2892 0.0
C1011 C 0.85498 0.01887 0.25832 0.0
O1012 O 0.8531 0.02709 0.27131 0.0
O1013 O 0.86747 0.02162 0.24985 0.0
O1014 O 0.85494 0.06124 0.29244 0.0
O1015 O 0.86727 0.06739 0.26977 0.0
O1016 O 0.26442 0.174 0.49617 0.0
Cd1017 Cd 0.25792 0.15778 0.51342 0.0
Cd1018 Cd 0.28055 0.14133 0.4987 0.0
O1019 O 0.28431 0.16137 0.48523 0.0
O1020 O 0.24522 0.17017 0.52919 0.0
O1021 O 0.26831 0.16043 0.53527 0.0
C1022 C 0.2563 0.16852 0.53965 0.0
C1023 C 0.30133 0.13065 0.51236 0.0
C1024 C 0.27567 0.17334 0.48594 0.0
C1025 C 0.24698 0.12587 0.49738 0.0
O1026 O 0.26133 0.12534 0.49238 0.0
O1027 O 0.24316 0.13756 0.50658 0.0
O1028 O 0.29987 0.12874 0.49698 0.0
O1029 O 0.29127 0.13928 0.51997 0.0
O1030 O 0.39955 0.53087 0.77866 0.0
Cd1031 Cd 0.38593 0.53822 0.76006 0.0
Cd1032 Cd 0.36726 0.54687 0.78441 0.0
O1033 O 0.38599 0.5412 0.79881 0.0
O1034 O 0.40069 0.53766 0.74139 0.0
O1035 O 0.39154 0.5602 0.75153 0.0
C1036 C 0.40049 0.55311 0.7412 0.0
C1037 C 0.35746 0.57231 0.78596 0.0
C1038 C 0.39792 0.53385 0.79362 0.0
C1039 C 0.35331 0.52086 0.76138 0.0
O1040 O 0.35191 0.52822 0.77493 0.0
O1041 O 0.36572 0.52385 0.75286 0.0
O1042 O 0.35369 0.56185 0.79654 0.0
O1043 O 0.36727 0.56843 0.77469 0.0
O1044 O 0.7347 0.37791 0.51743 0.0
Cd1045 Cd 0.74462 0.39311 0.53565 0.0
Cd1046 Cd 0.72453 0.41371 0.52302 0.0
O1047 O 0.7172 0.39391 0.50831 0.0
O1048 O 0.75562 0.37853 0.5495 0.0
O1049 O 0.73559 0.39263 0.55805 0.0
C1050 C 0.74605 0.38241 0.56092 0.0
C1051 C 0.70548 0.42988 0.53445 0.0
C1052 C 0.72351 0.38046 0.50772 0.0
C1053 C 0.76018 0.42291 0.52191 0.0
O1054 O 0.7461 0.42602 0.51783 0.0
O1055 O 0.7623 0.41046 0.52967 0.0
O1056 O 0.70862 0.42977 0.51934 0.0
O1057 O 0.7128 0.42023 0.54314 0.0
O1058 O 0.64097 0.03224 0.76972 0.0
Cd1059 Cd 0.62745 0.0121 0.77694 0.0
Cd1060 Cd 0.60709 0.01981 0.75436 0.0
O1061 O 0.62569 0.03637 0.74898 0.0
O1062 O 0.64241 0.99847 0.78762 0.0
O1063 O 0.6296 0.99094 0.7649 0.0
C1064 C 0.63962 0.98786 0.77598 0.0
C1065 C 0.59343 0.0052 0.7334 0.0
C1066 C 0.63824 0.04005 0.75741 0.0
C1067 C 0.59567 0.02147 0.78855 0.0
O1068 O 0.59312 0.02468 0.77408 0.0
O1069 O 0.60863 0.01547 0.79241 0.0
O1070 O 0.59185 0.02035 0.73616 0.0
O1071 O 0.60323 0.99828 0.74238 0.0
O1072 O 0.98945 0.28242 0.91472 0.0
Cd1073 Cd 0.99533 0.2625 0.90104 0.0
Cd1074 Cd 0.00713 0.28496 0.88151 0.0
O1075 O 0.00096 0.30101 0.89966 0.0
O1076 O 0.9941 0.24466 0.91612 0.0
O1077 O 0.01675 0.25353 0.90456 0.0
C1078 C 0.00942 0.24397 0.9144 0.0
C1079 C 0.03263 0.28694 0.87009 0.0
C1080 C 0.99313 0.29716 0.91215 0.0
C1081 C 0.97949 0.26262 0.869 0.0
O1082 O 0.9889 0.27501 0.8667 0.0
O1083 O 0.98039 0.25518 0.8819 0.0
O1084 O 0.02219 0.29712 0.86722 0.0
O1085 O 0.02876 0.27583 0.87999 0.0
O1086 O 0.48642 0.78064 0.41593 0.0
Cd1087 Cd 0.49406 0.76105 0.40279 0.0
Cd1088 Cd 0.50475 0.78379 0.38321 0.0
O1089 O 0.49758 0.79959 0.40107 0.0
O1090 O 0.49293 0.74327 0.41793 0.0
O1091 O 0.51578 0.75323 0.40757 0.0
C1092 C 0.50837 0.74327 0.41698 0.0
C1093 C 0.53046 0.78646 0.37235 0.0
C1094 C 0.48947 0.79547 0.4133 0.0
C1095 C 0.47869 0.75993 0.37039 0.0
O1096 O 0.48707 0.77303 0.36824 0.0
O1097 O 0.48022 0.75254 0.38323 0.0
O1098 O 0.51976 0.79629 0.36915 0.0
O1099 O 0.5267 0.77534 0.38227 0.0
O1100 O 0.98862 0.78386 0.66273 0.0
Cd1101 Cd 0.00655 0.77552 0.6482 0.0
Cd1102 Cd 0.99574 0.79731 0.62782 0.0
O1103 O 0.98171 0.80298 0.64725 0.0
O1104 O 0.02066 0.76429 0.6625 0.0
O1105 O 0.02903 0.78616 0.64987 0.0
C1106 C 0.03209 0.77504 0.65951 0.0
C1107 C 0.00635 0.81814 0.6123 0.0
C1108 C 0.9801 0.79552 0.66015 0.0
C1109 C 0.99257 0.76211 0.61701 0.0
O1110 O 0.98934 0.77644 0.61446 0.0
O1111 O -0.0 0.75906 0.62968 0.0
O1112 O 0.99115 0.81407 0.61267 0.0
O1113 O 0.01569 0.81071 0.62131 0.0
O1114 O 0.48628 0.28118 0.161 0.0
Cd1115 Cd 0.50505 0.27373 0.14709 0.0
Cd1116 Cd 0.49336 0.29447 0.12613 0.0
O1117 O 0.4781 0.29917 0.14486 0.0
O1118 O 0.51932 0.26364 0.16217 0.0
O1119 O 0.52704 0.28545 0.14917 0.0
C1120 C 0.53033 0.27483 0.15926 0.0
C1121 C 0.5037 0.31596 0.11136 0.0
C1122 C 0.47684 0.29196 0.15793 0.0
C1123 C 0.49274 0.2592 0.11565 0.0
O1124 O 0.48893 0.27326 0.11271 0.0
O1125 O 0.4998 0.2567 0.12871 0.0
O1126 O 0.48873 0.31089 0.11061 0.0
O1127 O 0.51291 0.30908 0.12099 0.0
H1128 H 0.24197 0.79363 0.88683 0.0
H1129 H 0.24003 0.80935 0.91215 0.0
H1130 H 0.18836 0.80072 0.91088 0.0
H1131 H 0.1902 0.78463 0.8857 0.0
H1132 H 0.22286 0.83736 0.91689 0.0
H1133 H 0.20113 0.78852 0.9566 0.0
H1134 H 0.21038 0.78449 0.93741 0.0
H1135 H 0.18993 0.78988 0.93834 0.0
C1136 C 0.23021 0.79486 0.89206 0.0
C1137 C 0.21624 0.78783 0.8843 0.0
C1138 C 0.22912 0.80392 0.90647 0.0
C1139 C 0.21407 0.80605 0.91344 0.0
C1140 C 0.2001 0.79902 0.90579 0.0
H1141 H 0.20115 0.8811 0.98821 0.0
H1142 H 0.19655 0.86262 0.9647 0.0
C1143 C 0.20117 0.78998 0.89134 0.0
C1144 C 0.21308 0.8162 0.92839 0.0
H1145 H 0.20334 0.81511 0.96808 0.0
C1146 C 0.21851 0.83254 0.92807 0.0
C1147 C 0.20749 0.80979 0.94293 0.0
C1148 C 0.202 0.79219 0.94398 0.0
C1149 C 0.21865 0.84266 0.94198 0.0
C1150 C 0.21301 0.83629 0.95654 0.0
C1151 C 0.20747 0.81996 0.95685 0.0
C1152 C 0.21393 0.8462 0.97174 0.0
C1153 C 0.22536 0.85996 0.94111 0.0
C1154 C 0.22467 0.84265 0.98379 0.0
C1155 C 0.2273 0.85313 0.99724 0.0
C1156 C 0.21918 0.86734 0.9989 0.0
C1157 C 0.20768 0.87033 0.98726 0.0
C1158 C 0.20507 0.85983 0.97379 0.0
H1159 H 0.23205 0.86207 0.9298 0.0
H1160 H 0.21531 0.86799 0.94168 0.0
H1161 H 0.23355 0.86343 0.9514 0.0
H1162 H 0.23156 0.83214 0.98243 0.0
H1163 H 0.23616 0.85039 0.00602 0.0
H1164 H 0.97872 0.55514 0.38301 0.0
H1165 H 0.99817 0.54611 0.36322 0.0
H1166 H 0.03718 0.56763 0.39286 0.0
H1167 H 0.01788 0.57648 0.41283 0.0
H1168 H 0.03908 0.57513 0.35991 0.0
H1169 H 0.02855 0.50932 0.36819 0.0
H1170 H 0.01077 0.5196 0.36459 0.0
H1171 H 0.02221 0.52433 0.38267 0.0
C1172 C 0.99144 0.5578 0.3854 0.0
C1173 C 0.99676 0.56651 0.39951 0.0
C1174 C 0.00252 0.55264 0.37409 0.0
C1175 C 0.01908 0.55605 0.37671 0.0
C1176 C 0.02443 0.56487 0.39067 0.0
H1177 H 0.09856 0.51652 0.3245 0.0
H1178 H 0.07975 0.52492 0.34525 0.0
C1179 C 0.01338 0.57 0.402 0.0
C1180 C 0.03085 0.55071 0.36475 0.0
H1181 H 0.04526 0.51722 0.34646 0.0
C1182 C 0.04048 0.56248 0.35698 0.0
C1183 C 0.03274 0.53419 0.36115 0.0
C1184 C 0.02313 0.52109 0.36966 0.0
C1185 C 0.05177 0.55816 0.34542 0.0
C1186 C 0.05332 0.54165 0.34148 0.0
C1187 C 0.04393 0.52987 0.34947 0.0
C1188 C 0.06453 0.53641 0.32893 0.0
C1189 C 0.06205 0.57127 0.3376 0.0
C1190 C 0.06201 0.53991 0.3129 0.0
C1191 C 0.07266 0.53513 0.30103 0.0
C1192 C 0.08604 0.52672 0.30498 0.0
C1193 C 0.08841 0.52304 0.32106 0.0
C1194 C 0.07769 0.52779 0.33292 0.0
H1195 H 0.06205 0.58299 0.34454 0.0
H1196 H 0.07466 0.56794 0.33632 0.0
H1197 H 0.05725 0.57292 0.32543 0.0
H1198 H 0.05176 0.54634 0.30957 0.0
H1199 H 0.07043 0.5381 0.28877 0.0
H1200 H 0.80208 0.77789 0.87251 0.0
H1201 H 0.80318 0.76113 0.89578 0.0
H1202 H 0.75308 0.74529 0.88898 0.0
H1203 H 0.75193 0.76178 0.86551 0.0
H1204 H 0.78371 0.76149 0.92456 0.0
H1205 H 0.77717 0.70314 0.88913 0.0
H1206 H 0.78279 0.72208 0.88016 0.0
H1207 H 0.76216 0.71691 0.88523 0.0
C1208 C 0.79132 0.77077 0.87593 0.0
C1209 C 0.77694 0.77105 0.86712 0.0
C1210 C 0.79195 0.7613 0.88926 0.0
C1211 C 0.77827 0.75187 0.89394 0.0
C1212 C 0.76381 0.75237 0.88541 0.0
H1213 H 0.75592 0.70194 0.97999 0.0
H1214 H 0.75863 0.72129 0.95887 0.0
C1215 C 0.76314 0.76188 0.87211 0.0
C1216 C 0.77916 0.74134 0.90764 0.0
H1217 H 0.77585 0.7019 0.91743 0.0
C1218 C 0.78206 0.74846 0.92304 0.0
C1219 C 0.77724 0.72436 0.90551 0.0
C1220 C 0.7748 0.7161 0.88911 0.0
C1221 C 0.78266 0.739 0.93649 0.0
C1222 C 0.78017 0.72204 0.93442 0.0
C1223 C 0.77768 0.71493 0.91896 0.0
C1224 C 0.77959 0.71139 0.94814 0.0
C1225 C 0.78603 0.74719 0.95278 0.0
C1226 C 0.79049 0.69942 0.9491 0.0
C1227 C 0.78896 0.68829 0.96114 0.0
C1228 C 0.77638 0.68885 0.97233 0.0
C1229 C 0.76575 0.70117 0.97158 0.0
C1230 C 0.76733 0.71231 0.95957 0.0
H1231 H 0.79177 0.75959 0.95181 0.0
H1232 H 0.77452 0.74807 0.95932 0.0
H1233 H 0.79398 0.74015 0.95998 0.0
H1234 H 0.79999 0.69849 0.94032 0.0
H1235 H 0.79733 0.67896 0.96135 0.0
H1236 H 0.02352 0.99125 0.3611 0.0
H1237 H 0.0015 0.99919 0.3444 0.0
H1238 H 0.96938 0.99612 0.38479 0.0
H1239 H 0.99137 0.98829 0.40162 0.0
H1240 H 0.96871 0.98112 0.33957 0.0
H1241 H 0.96799 0.04328 0.36721 0.0
H1242 H 0.98539 0.03167 0.3683 0.0
H1243 H 0.96814 0.02682 0.38046 0.0
C1244 C 0.01178 0.99229 0.36642 0.0
C1245 C 0.00917 0.98921 0.38267 0.0
C1246 C 0.99922 0.99675 0.35687 0.0
C1247 C 0.98392 0.99837 0.36344 0.0
C1248 C 0.98118 0.99505 0.37957 0.0
H1249 H 0.89793 0.03408 0.32198 0.0
H1250 H 0.91777 0.02472 0.3404 0.0
C1251 C 0.9937 0.99047 0.38911 0.0
C1252 C 0.97087 0.00364 0.3534 0.0
H1253 H 0.94895 0.03575 0.34684 0.0
C1254 C 0.96434 0.99304 0.34114 0.0
C1255 C 0.96517 0.01914 0.35563 0.0
C1256 C 0.97203 0.031 0.36854 0.0
C1257 C 0.95219 0.99755 0.33099 0.0
C1258 C 0.94678 0.01326 0.33291 0.0
C1259 C 0.95315 0.02375 0.34537 0.0
C1260 C 0.93487 0.01916 0.32182 0.0
C1261 C 0.94511 0.98537 0.31847 0.0
C1262 C 0.93807 0.0195 0.30533 0.0
C1263 C 0.92676 0.02474 0.2948 0.0
C1264 C 0.91208 0.02998 0.30056 0.0
C1265 C 0.9091 0.03011 0.31715 0.0
C1266 C 0.92041 0.02474 0.32769 0.0
H1267 H 0.94684 0.97283 0.32175 0.0
H1268 H 0.93205 0.98658 0.31676 0.0
H1269 H 0.95126 0.98736 0.30687 0.0
H1270 H 0.94934 0.0157 0.3006 0.0
H1271 H 0.92952 0.02465 0.28212 0.0
H1272 H 0.24335 0.24182 0.68069 0.0
H1273 H 0.24809 0.22093 0.65991 0.0
H1274 H 0.25142 0.25695 0.6243 0.0
H1275 H 0.24673 0.27781 0.64492 0.0
H1276 H 0.23019 0.21172 0.63325 0.0
H1277 H 0.2916 0.23348 0.61534 0.0
H1278 H 0.28233 0.24071 0.63357 0.0
H1279 H 0.27785 0.24901 0.61467 0.0
C1280 C 0.24512 0.24527 0.66843 0.0
C1281 C 0.24478 0.26149 0.66447 0.0
C1282 C 0.2479 0.23334 0.6566 0.0
C1283 C 0.25044 0.23743 0.64062 0.0
C1284 C 0.24997 0.25358 0.63663 0.0
H1285 H 0.23259 0.18636 0.55163 0.0
H1286 H 0.23183 0.20085 0.57761 0.0
C1287 C 0.24726 0.26549 0.64843 0.0
C1288 C 0.2527 0.22479 0.62789 0.0
H1289 H 0.27683 0.21534 0.59634 0.0
C1290 C 0.24051 0.21236 0.62532 0.0
C1291 C 0.26631 0.22542 0.61775 0.0
C1292 C 0.28035 0.23778 0.62057 0.0
C1293 C 0.24113 0.2011 0.61233 0.0
C1294 C 0.25412 0.20253 0.60146 0.0
C1295 C 0.26677 0.21437 0.60456 0.0
C1296 C 0.25424 0.19272 0.58617 0.0
C1297 C 0.22774 0.18792 0.61027 0.0
C1298 C 0.26726 0.18354 0.58218 0.0
C1299 C 0.26781 0.17531 0.56719 0.0
C1300 C 0.2554 0.17625 0.55592 0.0
C1301 C 0.24231 0.1853 0.56005 0.0
C1302 C 0.24178 0.19351 0.57498 0.0
H1303 H 0.22204 0.18512 0.62194 0.0
H1304 H 0.21831 0.19199 0.60233 0.0
H1305 H 0.23219 0.1767 0.60476 0.0
H1306 H 0.27706 0.18289 0.5906 0.0
H1307 H 0.27808 0.16848 0.56434 0.0
H1308 H 0.51307 0.57786 0.65084 0.0
H1309 H 0.4887 0.57457 0.6669 0.0
H1310 H 0.48932 0.62612 0.67525 0.0
H1311 H 0.51399 0.62955 0.65918 0.0
H1312 H 0.48438 0.60528 0.70369 0.0
H1313 H 0.44311 0.58786 0.65261 0.0
H1314 H 0.46136 0.57762 0.65228 0.0
H1315 H 0.46234 0.59908 0.65025 0.0
C1316 C 0.50816 0.58851 0.65623 0.0
C1317 C 0.51549 0.60397 0.65382 0.0
C1318 C 0.49414 0.58661 0.66525 0.0
C1319 C 0.48715 0.60011 0.67205 0.0
C1320 C 0.49452 0.61558 0.66996 0.0
H1321 H 0.40619 0.58599 0.74003 0.0
H1322 H 0.4256 0.60069 0.72287 0.0
C1323 C 0.50854 0.61751 0.66078 0.0
C1324 C 0.47227 0.59772 0.68154 0.0
H1325 H 0.43392 0.58034 0.67863 0.0
C1326 C 0.47318 0.60019 0.69826 0.0
C1327 C 0.45773 0.59115 0.67433 0.0
C1328 C 0.45596 0.58889 0.65636 0.0
C1329 C 0.46027 0.59509 0.70807 0.0
C1330 C 0.44607 0.58757 0.70088 0.0
C1331 C 0.44483 0.58608 0.6841 0.0
C1332 C 0.43335 0.57922 0.71048 0.0
C1333 C 0.46231 0.59675 0.72606 0.0
C1334 C 0.43093 0.56238 0.7088 0.0
C1335 C 0.41988 0.554 0.71847 0.0
C1336 C 0.41095 0.56231 0.73 0.0
C1337 C 0.41293 0.57926 0.73128 0.0
C1338 C 0.42406 0.58766 0.72157 0.0
H1339 H 0.47485 0.60082 0.72967 0.0
H1340 H 0.45422 0.60572 0.73103 0.0
H1341 H 0.45895 0.58507 0.73153 0.0
H1342 H 0.43795 0.55565 0.70028 0.0
H1343 H 0.41861 0.54096 0.71711 0.0
H1344 H 0.79346 0.31003 0.67776 0.0
H1345 H 0.78595 0.32856 0.6577 0.0
H1346 H 0.73603 0.32021 0.67058 0.0
H1347 H 0.74345 0.30186 0.69098 0.0
H1348 H 0.74221 0.31547 0.6377 0.0
H1349 H 0.77023 0.37436 0.66126 0.0
H1350 H 0.78371 0.35849 0.66086 0.0
H1351 H 0.76639 0.3573 0.6737 0.0
C1352 C 0.78092 0.31244 0.67666 0.0
C1353 C 0.76906 0.30443 0.68599 0.0
C1354 C 0.77665 0.32304 0.66516 0.0
C1355 C 0.76046 0.3259 0.6628 0.0
C1356 C 0.74861 0.31821 0.67229 0.0
H1357 H 0.72994 0.38985 0.5887 0.0
H1358 H 0.73164 0.37697 0.61453 0.0
C1359 C 0.75286 0.30765 0.68385 0.0
C1360 C 0.75587 0.33569 0.64939 0.0
H1361 H 0.76316 0.37249 0.63325 0.0
C1362 C 0.74655 0.32802 0.63685 0.0
C1363 C 0.76146 0.35209 0.64837 0.0
C1364 C 0.77087 0.36112 0.66184 0.0
C1365 C 0.7434 0.33606 0.62292 0.0
C1366 C 0.74977 0.35213 0.62152 0.0
C1367 C 0.75838 0.36011 0.63438 0.0
C1368 C 0.74882 0.36026 0.60622 0.0
C1369 C 0.73367 0.32718 0.60957 0.0
C1370 C 0.75807 0.35521 0.59319 0.0
C1371 C 0.75722 0.36254 0.57857 0.0
C1372 C 0.74703 0.37505 0.57666 0.0
C1373 C 0.73785 0.38021 0.5898 0.0
C1374 C 0.73882 0.37291 0.60453 0.0
H1375 H 0.72676 0.31625 0.61379 0.0
H1376 H 0.72516 0.33517 0.60432 0.0
H1377 H 0.74191 0.32336 0.59992 0.0
H1378 H 0.76595 0.34554 0.59435 0.0
H1379 H 0.76447 0.35828 0.56871 0.0
H1380 H 0.50104 0.93574 0.62089 0.0
H1381 H 0.52365 0.94021 0.63952 0.0
H1382 H 0.4939 0.9655 0.67293 0.0
H1383 H 0.47094 0.96038 0.6547 0.0
H1384 H 0.53753 0.96901 0.64863 0.0
H1385 H 0.51666 0.93763 0.70259 0.0
H1386 H 0.50675 0.93407 0.68336 0.0
H1387 H 0.50241 0.95116 0.69623 0.0
C1388 C 0.49912 0.94182 0.63241 0.0
C1389 C 0.48412 0.94766 0.63631 0.0
C1390 C 0.51212 0.94446 0.643 0.0
C1391 C 0.51043 0.953 0.6577 0.0
C1392 C 0.4954 0.95856 0.66181 0.0
H1393 H 0.57419 0.01737 0.7114 0.0
H1394 H 0.556 0.00254 0.69219 0.0
C1395 C 0.48234 0.95583 0.65126 0.0
C1396 C 0.52472 0.95755 0.66798 0.0
H1397 H 0.53825 0.95851 0.70664 0.0
C1398 C 0.5378 0.96646 0.66126 0.0
C1399 C 0.52522 0.95399 0.68437 0.0
C1400 C 0.51207 0.94353 0.69201 0.0
C1401 C 0.55093 0.97271 0.6707 0.0
C1402 C 0.55081 0.97025 0.68734 0.0
C1403 C 0.53822 0.96053 0.69389 0.0
C1404 C 0.56275 0.97898 0.69834 0.0
C1405 C 0.56466 0.98219 0.66282 0.0
C1406 C 0.57248 0.97063 0.70832 0.0
C1407 C 0.58293 0.97912 0.71942 0.0
C1408 C 0.58362 0.99607 0.7208 0.0
C1409 C 0.57399 0.00434 0.71062 0.0
C1410 C 0.56365 0.99588 0.69954 0.0
H1411 H 0.56556 0.97854 0.64989 0.0
H1412 H 0.56251 0.9952 0.66369 0.0
H1413 H 0.57631 0.98056 0.66878 0.0
H1414 H 0.57185 0.95757 0.70763 0.0
H1415 H 0.59014 0.97242 0.72718 0.0
H1416 H 0.86844 0.25033 0.76002 0.0
H1417 H 0.89342 0.25376 0.77571 0.0
H1418 H 0.87052 0.22732 0.81372 0.0
H1419 H 0.84542 0.22415 0.79837 0.0
H1420 H 0.89684 0.26858 0.80799 0.0
H1421 H 0.91299 0.20494 0.80429 0.0
H1422 H 0.89917 0.21271 0.79041 0.0
H1423 H 0.89265 0.2079 0.81024 0.0
C1424 C 0.86867 0.24533 0.77176 0.0
C1425 C 0.85493 0.23691 0.7779 0.0
C1426 C 0.88298 0.2472 0.78064 0.0
C1427 C 0.88383 0.24056 0.79572 0.0
C1428 C 0.87017 0.23222 0.80193 0.0
H1429 H 0.95338 0.24103 0.87239 0.0
H1430 H 0.93076 0.23532 0.85377 0.0
C1431 C 0.85585 0.23041 0.79312 0.0
C1432 C 0.89878 0.24297 0.80535 0.0
H1433 H 0.92821 0.22293 0.82241 0.0
C1434 C 0.9038 0.25865 0.81104 0.0
C1435 C 0.9077 0.22993 0.80937 0.0
C1436 C 0.90298 0.21291 0.80318 0.0
C1437 C 0.91734 0.26161 0.82104 0.0
C1438 C 0.92631 0.24857 0.82508 0.0
C1439 C 0.92134 0.23289 0.81925 0.0
C1440 C 0.94064 0.25097 0.83566 0.0
C1441 C 0.92157 0.27861 0.82763 0.0
C1442 C 0.95392 0.26123 0.8314 0.0
C1443 C 0.9668 0.26461 0.84204 0.0
C1444 C 0.96672 0.25761 0.85707 0.0
C1445 C 0.95379 0.24665 0.86094 0.0
C1446 C 0.94085 0.24338 0.85032 0.0
H1447 H 0.91122 0.28623 0.82689 0.0
H1448 H 0.92555 0.27868 0.84034 0.0
H1449 H 0.93156 0.2842 0.82052 0.0
H1450 H 0.95418 0.26688 0.81996 0.0
H1451 H 0.97666 0.27295 0.83861 0.0
H1452 H 0.42382 0.87829 0.52343 0.0
H1453 H 0.43346 0.85933 0.50296 0.0
H1454 H 0.44123 0.89793 0.47049 0.0
H1455 H 0.43181 0.91704 0.49098 0.0
H1456 H 0.42346 0.85194 0.46929 0.0
H1457 H 0.48621 0.87938 0.47673 0.0
H1458 H 0.47071 0.88276 0.49135 0.0
H1459 H 0.47094 0.89288 0.47282 0.0
C1460 C 0.42742 0.88269 0.51187 0.0
C1461 C 0.42719 0.89915 0.50883 0.0
C1462 C 0.43286 0.87186 0.50019 0.0
C1463 C 0.43825 0.87732 0.48535 0.0
C1464 C 0.43726 0.89356 0.48196 0.0
H1465 H 0.49015 0.82801 0.40939 0.0
H1466 H 0.47721 0.84813 0.42618 0.0
C1467 C 0.43175 0.90441 0.49361 0.0
C1468 C 0.44577 0.86615 0.47386 0.0
H1469 H 0.48201 0.85756 0.45788 0.0
C1470 C 0.43624 0.85317 0.46671 0.0
C1471 C 0.46244 0.86786 0.47057 0.0
C1472 C 0.47327 0.88139 0.47832 0.0
C1473 C 0.44296 0.8418 0.45629 0.0
C1474 C 0.45971 0.84329 0.45329 0.0
C1475 C 0.46918 0.85645 0.46023 0.0
C1476 C 0.46773 0.83113 0.44327 0.0
C1477 C 0.43202 0.82842 0.44846 0.0
C1478 C 0.46704 0.815 0.44755 0.0
C1479 C 0.47437 0.80347 0.43798 0.0
C1480 C 0.48271 0.8079 0.42402 0.0
C1481 C 0.48381 0.82419 0.42004 0.0
C1482 C 0.4764 0.8357 0.4296 0.0
H1483 H 0.41933 0.83164 0.44818 0.0
H1484 H 0.43588 0.8255 0.43599 0.0
H1485 H 0.43244 0.81743 0.45543 0.0
H1486 H 0.46079 0.8113 0.4583 0.0
H1487 H 0.47339 0.79107 0.44148 0.0
H1488 H 0.14468 0.31622 0.77162 0.0
H1489 H 0.12277 0.31271 0.79088 0.0
H1490 H 0.13937 0.26698 0.80311 0.0
H1491 H 0.16159 0.27055 0.78402 0.0
H1492 H 0.09854 0.28609 0.79081 0.0
H1493 H 0.13497 0.29239 0.84705 0.0
H1494 H 0.14269 0.29935 0.82817 0.0
H1495 H 0.14103 0.2782 0.83172 0.0
C1496 C 0.14378 0.30549 0.77853 0.0
C1497 C 0.15492 0.2937 0.77637 0.0
C1498 C 0.13122 0.30347 0.78946 0.0
C1499 C 0.12959 0.28969 0.79853 0.0
C1500 C 0.14058 0.27781 0.79637 0.0
H1501 H 0.05566 0.26502 0.87 0.0
H1502 H 0.0797 0.2647 0.85304 0.0
C1503 C 0.15315 0.27979 0.78536 0.0
C1504 C 0.11606 0.2877 0.8099 0.0
H1505 H 0.10686 0.28764 0.84978 0.0
C1506 C 0.10035 0.28635 0.8037 0.0
C1507 C 0.1185 0.28792 0.82668 0.0
C1508 C 0.13519 0.28964 0.8339 0.0
C1509 C 0.08696 0.28545 0.81386 0.0
C1510 C 0.08937 0.28627 0.83067 0.0
C1511 C 0.10508 0.28711 0.83688 0.0
C1512 C 0.07567 0.287 0.84189 0.0
C1513 C 0.07033 0.28364 0.8065 0.0
C1514 C 0.06582 0.29992 0.8416 0.0
C1515 C 0.05214 0.30014 0.8512 0.0
C1516 C 0.04811 0.28748 0.86139 0.0
C1517 C 0.05843 0.27492 0.86224 0.0
C1518 C 0.07214 0.2747 0.85257 0.0
H1519 H 0.07056 0.27868 0.79391 0.0
H1520 H 0.06205 0.27563 0.81353 0.0
H1521 H 0.0654 0.29566 0.8064 0.0
H1522 H 0.06855 0.30971 0.83369 0.0
H1523 H 0.04454 0.31007 0.85035 0.0
H1524 H 0.58561 0.66936 0.52522 0.0
H1525 H 0.58125 0.68345 0.50052 0.0
H1526 H 0.52993 0.67525 0.50637 0.0
H1527 H 0.53413 0.66103 0.53079 0.0
H1528 H 0.54318 0.66712 0.47427 0.0
H1529 H 0.56232 0.7291 0.49875 0.0
H1530 H 0.57529 0.71312 0.50174 0.0
H1531 H 0.55623 0.71297 0.5117 0.0
C1532 C 0.57341 0.67055 0.5212 0.0
C1533 C 0.5602 0.66422 0.53002 0.0
C1534 C 0.57095 0.67865 0.50716 0.0
C1535 C 0.55527 0.68046 0.50174 0.0
C1536 C 0.54212 0.67402 0.51043 0.0
H1537 H 0.49557 0.7197 0.43568 0.0
H1538 H 0.50963 0.70369 0.45408 0.0
C1539 C 0.54454 0.66602 0.52444 0.0
C1540 C 0.55229 0.689 0.487 0.0
H1541 H 0.55094 0.72672 0.47293 0.0
C1542 C 0.5451 0.68013 0.47385 0.0
C1543 C 0.55497 0.70593 0.48647 0.0
C1544 C 0.56257 0.71595 0.50039 0.0
C1545 C 0.53987 0.68783 0.4604 0.0
C1546 C 0.54157 0.70486 0.46031 0.0
C1547 C 0.54962 0.71366 0.47306 0.0
C1548 C 0.53344 0.7138 0.4481 0.0
C1549 C 0.53224 0.67767 0.44659 0.0
C1550 C 0.54215 0.72499 0.43873 0.0
C1551 C 0.53409 0.73427 0.42817 0.0
C1552 C 0.51719 0.73262 0.42699 0.0
C1553 C 0.50859 0.72124 0.43624 0.0
C1554 C 0.51662 0.71198 0.4467 0.0
H1555 H 0.53672 0.66542 0.44593 0.0
H1556 H 0.51902 0.67628 0.44836 0.0
H1557 H 0.53466 0.68337 0.43498 0.0
H1558 H 0.55513 0.72668 0.43976 0.0
H1559 H 0.54105 0.743 0.42126 0.0
H1560 H 0.85837 0.83249 0.74838 0.0
H1561 H 0.88236 0.83311 0.73132 0.0
H1562 H 0.88032 0.78114 0.72953 0.0
H1563 H 0.85631 0.78041 0.74645 0.0
H1564 H 0.9127 0.81763 0.73859 0.0
H1565 H 0.88255 0.79527 0.68149 0.0
H1566 H 0.87184 0.80432 0.69799 0.0
H1567 H 0.87736 0.78394 0.69884 0.0
C1568 C 0.86295 0.8212 0.74419 0.0
C1569 C 0.85548 0.80639 0.74871 0.0
C1570 C 0.87667 0.82159 0.73456 0.0
C1571 C 0.88299 0.80717 0.72914 0.0
C1572 C 0.87551 0.79238 0.73352 0.0
H1573 H 0.97344 0.78271 0.68927 0.0
H1574 H 0.95047 0.78742 0.70664 0.0
C1575 C 0.86188 0.79199 0.74325 0.0
C1576 C 0.8976 0.80752 0.71914 0.0
H1577 H 0.91108 0.79682 0.68188 0.0
C1578 C 0.91238 0.8132 0.72616 0.0
C1579 C 0.89704 0.80185 0.70293 0.0
C1580 C 0.88135 0.7961 0.69476 0.0
C1581 C 0.92676 0.81292 0.71743 0.0
C1582 C 0.92626 0.80673 0.70137 0.0
C1583 C 0.91141 0.80149 0.69424 0.0
C1584 C 0.94101 0.80516 0.69179 0.0
C1585 C 0.94237 0.81921 0.72542 0.0
C1586 C 0.94329 0.81363 0.67774 0.0
C1587 C 0.95639 0.81098 0.66779 0.0
C1588 C 0.96734 0.79965 0.67163 0.0
C1589 C 0.96525 0.79152 0.68597 0.0
C1590 C 0.95218 0.79425 0.69595 0.0
H1591 H 0.94032 0.82693 0.73634 0.0
H1592 H 0.949 0.80888 0.72904 0.0
H1593 H 0.9501 0.82627 0.71703 0.0
H1594 H 0.93474 0.82205 0.67432 0.0
H1595 H 0.95761 0.81745 0.65684 0.0
H1596 H 0.06746 0.89757 0.4937 0.0
H1597 H 0.06278 0.88042 0.51656 0.0
H1598 H 0.01364 0.89321 0.51917 0.0
H1599 H 0.01824 0.91061 0.4966 0.0
H1600 H 0.0518 0.89045 0.54822 0.0
H1601 H 0.01047 0.84311 0.5179 0.0
H1602 H 0.02358 0.85695 0.50698 0.0
H1603 H 0.00513 0.86336 0.51539 0.0
C1604 C 0.05566 0.89676 0.49916 0.0
C1605 C 0.0432 0.90543 0.49329 0.0
C1606 C 0.05301 0.88692 0.51217 0.0
C1607 C 0.03784 0.88546 0.51942 0.0
C1608 C 0.02536 0.89398 0.51354 0.0
H1609 H 0.98934 0.83882 0.59613 0.0
H1610 H 0.99873 0.85571 0.57444 0.0
C1611 C 0.028 0.90386 0.50059 0.0
C1612 C 0.03506 0.87538 0.53341 0.0
H1613 H 0.01184 0.84312 0.54637 0.0
C1614 C 0.0432 0.87999 0.54783 0.0
C1615 C 0.02389 0.86174 0.53277 0.0
C1616 C 0.01535 0.85586 0.5174 0.0
C1617 C 0.03989 0.87169 0.56188 0.0
C1618 C 0.02834 0.85833 0.56133 0.0
C1619 C 0.02061 0.85345 0.54676 0.0
C1620 C 0.02345 0.84958 0.57579 0.0
C1621 C 0.04828 0.87763 0.57729 0.0
C1622 C 0.03435 0.84082 0.58401 0.0
C1623 C 0.02903 0.83119 0.59657 0.0
C1624 C 0.01269 0.83007 0.6009 0.0
C1625 C 0.00199 0.83936 0.59303 0.0
C1626 C 0.00732 0.84901 0.58061 0.0
H1627 H 0.0542 0.88997 0.57642 0.0
H1628 H 0.03964 0.87769 0.58741 0.0
H1629 H 0.05767 0.8694 0.5801 0.0
H1630 H 0.04681 0.84091 0.58032 0.0
H1631 H 0.03752 0.82408 0.60234 0.0
H1632 H 0.17092 0.76749 0.73154 0.0
H1633 H 0.15084 0.77093 0.7107 0.0
H1634 H 0.11382 0.77201 0.74671 0.0
H1635 H 0.13367 0.76845 0.7675 0.0
H1636 H 0.12316 0.75135 0.70252 0.0
H1637 H 0.10767 0.81265 0.7223 0.0
H1638 H 0.12553 0.80397 0.72917 0.0
H1639 H 0.10634 0.79887 0.73823 0.0
C1640 C 0.15849 0.76841 0.735 0.0
C1641 C 0.15392 0.76784 0.7512 0.0
C1642 C 0.14706 0.77046 0.7231 0.0
C1643 C 0.13092 0.77207 0.72721 0.0
C1644 C 0.12629 0.77125 0.74332 0.0
H1645 H 0.04189 0.75235 0.67906 0.0
H1646 H 0.06748 0.75228 0.69318 0.0
C1647 C 0.13766 0.7692 0.7552 0.0
C1648 C 0.11866 0.77394 0.71469 0.0
H1649 H 0.08862 0.79744 0.7048 0.0
C1650 C 0.11576 0.76154 0.70285 0.0
C1651 C 0.10921 0.78739 0.71496 0.0
C1652 C 0.11244 0.80156 0.72675 0.0
C1653 C 0.10304 0.76178 0.69184 0.0
C1654 C 0.09284 0.77463 0.69289 0.0
C1655 C 0.09634 0.7875 0.70412 0.0
C1656 C 0.07778 0.77435 0.68338 0.0
C1657 C 0.10048 0.74813 0.67934 0.0
C1658 C 0.07493 0.78695 0.67338 0.0
C1659 C 0.0602 0.78708 0.66531 0.0
C1660 C 0.04803 0.77469 0.66727 0.0
C1661 C 0.05101 0.76205 0.67722 0.0
C1662 C 0.0657 0.76192 0.68522 0.0
H1663 H 0.11186 0.74237 0.67673 0.0
H1664 H 0.09167 0.73879 0.6839 0.0
H1665 H 0.0957 0.75239 0.66799 0.0
H1666 H 0.08406 0.79674 0.67192 0.0
H1667 H 0.05825 0.79701 0.65777 0.0
H1668 H 0.92515 0.65555 0.51627 0.0
H1669 H 0.93327 0.67805 0.53522 0.0
H1670 H 0.98266 0.66614 0.53161 0.0
H1671 H 0.97466 0.6436 0.51279 0.0
H1672 H 0.94861 0.67624 0.56489 0.0
H1673 H 0.9854 0.71464 0.52401 0.0
H1674 H 0.97146 0.69823 0.51678 0.0
H1675 H 0.99093 0.6942 0.52425 0.0
C1676 C 0.93774 0.65774 0.51951 0.0
C1677 C 0.94928 0.64784 0.51299 0.0
C1678 C 0.94236 0.67061 0.53027 0.0
C1679 C 0.95858 0.67385 0.53463 0.0
C1680 C 0.97013 0.66405 0.52811 0.0
H1681 H 0.99734 0.72993 0.6181 0.0
H1682 H 0.98895 0.70842 0.59819 0.0
C1683 C 0.96554 0.65119 0.51735 0.0
C1684 C 0.96335 0.68707 0.54652 0.0
H1685 H 0.98714 0.7221 0.55185 0.0
C1686 C 0.95698 0.68632 0.56204 0.0
C1687 C 0.97415 0.70023 0.54269 0.0
C1688 C 0.98079 0.70201 0.52599 0.0
C1689 C 0.96133 0.69829 0.57396 0.0
C1690 C 0.97252 0.71119 0.57026 0.0
C1691 C 0.97869 0.71208 0.55466 0.0
C1692 C 0.9777 0.72412 0.58232 0.0
C1693 C 0.95374 0.69717 0.59032 0.0
C1694 C 0.97445 0.74009 0.57978 0.0
C1695 C 0.9793 0.7524 0.59106 0.0
C1696 C 0.98755 0.74898 0.60507 0.0
C1697 C 0.99093 0.73296 0.6075 0.0
C1698 C 0.98608 0.72065 0.59618 0.0
H1699 H 0.94266 0.68886 0.59004 0.0
H1700 H 0.96242 0.69251 0.59872 0.0
H1701 H 0.95066 0.70922 0.5951 0.0
H1702 H 0.96806 0.74301 0.56912 0.0
H1703 H 0.97652 0.76461 0.58878 0.0
H1704 H 0.76312 0.8916 0.2624 0.0
H1705 H 0.7804 0.91671 0.26373 0.0
H1706 H 0.7769 0.9195 0.2124 0.0
H1707 H 0.75936 0.89443 0.21097 0.0
H1708 H 0.81065 0.92232 0.24662 0.0
H1709 H 0.76461 0.96454 0.23177 0.0
H1710 H 0.75929 0.9447 0.23893 0.0
H1711 H 0.76588 0.9469 0.21865 0.0
C1712 C 0.76587 0.89765 0.25141 0.0
C1713 C 0.75981 0.8911 0.23659 0.0
C1714 C 0.77581 0.91192 0.25218 0.0
C1715 C 0.77977 0.91999 0.23819 0.0
C1716 C 0.77381 0.91351 0.22335 0.0
H1717 H 0.85661 0.99692 0.233 0.0
H1718 H 0.83808 0.97328 0.22663 0.0
C1719 C 0.76392 0.89915 0.22254 0.0
C1720 C 0.7905 0.93496 0.23922 0.0
H1721 H 0.79124 0.97576 0.236 0.0
C1722 C 0.80647 0.934 0.2442 0.0
C1723 C 0.7849 0.95014 0.23615 0.0
C1724 C 0.76771 0.95177 0.23117 0.0
C1725 C 0.817 0.94789 0.24632 0.0
C1726 C 0.81141 0.96308 0.24327 0.0
C1727 C 0.79547 0.96405 0.2382 0.0
C1728 C 0.82179 0.97813 0.24612 0.0
C1729 C 0.83389 0.94628 0.25227 0.0
C1730 C 0.81847 0.98889 0.25889 0.0
C1731 C 0.82902 0.0024 0.2626 0.0
C1732 C 0.84305 0.00541 0.25351 0.0
C1733 C 0.84597 0.99493 0.24029 0.0
C1734 C 0.83543 0.98139 0.23664 0.0
H1735 H 0.8354 0.93411 0.25674 0.0
H1736 H 0.84249 0.94835 0.24229 0.0
H1737 H 0.83711 0.95545 0.26206 0.0
H1738 H 0.80796 0.98656 0.26631 0.0
H1739 H 0.82636 0.01026 0.2728 0.0
H1740 H 0.7538 0.17522 0.26666 0.0
H1741 H 0.77266 0.15415 0.26491 0.0
H1742 H 0.80489 0.18223 0.29766 0.0
H1743 H 0.78654 0.2038 0.29877 0.0
H1744 H 0.82118 0.16794 0.27355 0.0
H1745 H 0.77758 0.12313 0.30001 0.0
H1746 H 0.77019 0.13122 0.28211 0.0
H1747 H 0.77415 0.14424 0.29971 0.0
C1748 C 0.76502 0.17708 0.27328 0.0
C1749 C 0.76854 0.19118 0.28299 0.0
C1750 C 0.7757 0.1649 0.27243 0.0
C1751 C 0.79 0.16644 0.28146 0.0
C1752 C 0.79384 0.18071 0.29072 0.0
H1753 H 0.84282 0.08559 0.30668 0.0
H1754 H 0.82778 0.10966 0.30675 0.0
C1755 C 0.78324 0.19297 0.29146 0.0
C1756 C 0.80079 0.15304 0.28158 0.0
H1757 H 0.8017 0.11334 0.28976 0.0
C1758 C 0.81695 0.156 0.27713 0.0
C1759 C 0.79532 0.13755 0.28654 0.0
C1760 C 0.77841 0.13385 0.29252 0.0
C1761 C 0.82776 0.14383 0.27732 0.0
C1762 C 0.82213 0.12818 0.28171 0.0
C1763 C 0.806 0.1253 0.28629 0.0
C1764 C 0.83269 0.11459 0.28192 0.0
C1765 C 0.84516 0.14797 0.27318 0.0
C1766 C 0.84067 0.10944 0.26799 0.0
C1767 C 0.84949 0.09577 0.26799 0.0
C1768 C 0.8502 0.08684 0.28183 0.0
C1769 C 0.84246 0.09218 0.29582 0.0
C1770 C 0.83384 0.10594 0.29587 0.0
H1771 H 0.84845 0.16113 0.27485 0.0
H1772 H 0.85334 0.14144 0.28064 0.0
H1773 H 0.84715 0.14444 0.26039 0.0
H1774 H 0.83966 0.11567 0.25697 0.0
H1775 H 0.85521 0.09186 0.25699 0.0
H1776 H 0.38677 0.99786 0.96799 0.0
H1777 H 0.36487 0.97958 0.97776 0.0
H1778 H 0.33402 0.01889 0.98156 0.0
H1779 H 0.35584 0.03727 0.97176 0.0
H1780 H 0.34628 0.98806 0.01013 0.0
H1781 H 0.31013 0.97772 0.95385 0.0
H1782 H 0.33165 0.98249 0.95358 0.0
H1783 H 0.31853 0.99785 0.95925 0.0
C1784 C 0.37525 0.00255 0.9707 0.0
C1785 C 0.37298 0.01897 0.96911 0.0
C1786 C 0.36283 0.99213 0.97634 0.0
C1787 C 0.34792 0.99795 0.9803 0.0
C1788 C 0.34549 0.01424 0.97849 0.0
H1789 H 0.25706 0.95276 0.01102 0.0
H1790 H 0.27879 0.97101 0.00122 0.0
C1791 C 0.35794 0.0247 0.97297 0.0
C1792 C 0.33503 0.98708 0.98685 0.0
H1793 H 0.2996 0.96576 0.97702 0.0
C1794 C 0.33606 0.98311 0.00294 0.0
C1795 C 0.32176 0.98087 0.97739 0.0
C1796 C 0.32035 0.98483 0.96002 0.0
C1797 C 0.32396 0.97314 0.00993 0.0
C1798 C 0.31074 0.96667 0.0004 0.0
C1799 C 0.30976 0.9707 0.98428 0.0
C1800 C 0.29774 0.95576 0.00689 0.0
C1801 C 0.32524 0.96997 0.02752 0.0
C1802 C 0.30118 0.94109 0.01329 0.0
C1803 C 0.28879 0.93068 0.01905 0.0
C1804 C 0.27271 0.93466 0.01827 0.0
C1805 C 0.26931 0.94933 0.01179 0.0
C1806 C 0.28171 0.95978 0.00616 0.0
H1807 H 0.33333 0.97935 0.03399 0.0
H1808 H 0.31325 0.96956 0.03335 0.0
H1809 H 0.33033 0.95816 0.02885 0.0
H1810 H 0.31342 0.93757 0.01361 0.0
H1811 H 0.29179 0.91941 0.02383 0.0
H1812 H 0.24316 0.38191 0.26446 0.0
H1813 H 0.22405 0.40256 0.26342 0.0
H1814 H 0.18891 0.3722 0.28811 0.0
H1815 H 0.20755 0.3509 0.28818 0.0
H1816 H 0.17489 0.38793 0.26515 0.0
H1817 H 0.21504 0.43116 0.30182 0.0
H1818 H 0.22451 0.42443 0.2837 0.0
H1819 H 0.21891 0.41023 0.29873 0.0
C1820 C 0.23126 0.3794 0.26936 0.0
C1821 C 0.22701 0.36471 0.27654 0.0
C1822 C 0.22042 0.39137 0.26898 0.0
C1823 C 0.20522 0.38911 0.27609 0.0
C1824 C 0.20066 0.37428 0.28272 0.0
H1825 H 0.15121 0.47044 0.30484 0.0
H1826 H 0.16558 0.44592 0.30404 0.0
C1827 C 0.21142 0.36218 0.2829 0.0
C1828 C 0.19429 0.4024 0.27702 0.0
H1829 H 0.19251 0.44175 0.28974 0.0
C1830 C 0.17868 0.39969 0.27061 0.0
C1831 C 0.19914 0.41763 0.28444 0.0
C1832 C 0.21525 0.42101 0.29271 0.0
C1833 C 0.16788 0.41189 0.27115 0.0
C1834 C 0.17303 0.42736 0.27788 0.0
C1835 C 0.18857 0.42995 0.28447 0.0
C1836 C 0.1626 0.44109 0.27844 0.0
C1837 C 0.151 0.40796 0.26483 0.0
C1838 C 0.15587 0.44643 0.26437 0.0
C1839 C 0.14735 0.46031 0.26487 0.0
C1840 C 0.1458 0.4693 0.27938 0.0
C1841 C 0.15229 0.4638 0.29347 0.0
C1842 C 0.16051 0.44978 0.29302 0.0
H1843 H 0.14749 0.39482 0.265 0.0
H1844 H 0.14212 0.41455 0.27194 0.0
H1845 H 0.1504 0.4115 0.2522 0.0
H1846 H 0.15767 0.44021 0.2529 0.0
H1847 H 0.14259 0.46438 0.2538 0.0
H1848 H 0.15546 0.99813 0.458 0.0
H1849 H 0.17699 0.01894 0.46496 0.0
H1850 H 0.14474 0.05592 0.45688 0.0
H1851 H 0.12305 0.03526 0.4502 0.0
H1852 H 0.17697 0.06103 0.4434 0.0
H1853 H 0.17651 0.047 0.50795 0.0
H1854 H 0.17836 0.03018 0.49392 0.0
H1855 H 0.16012 0.04039 0.49445 0.0
C1856 C 0.15294 0.01069 0.45772 0.0
C1857 C 0.1375 0.01504 0.45365 0.0
C1858 C 0.16525 0.02254 0.46166 0.0
C1859 C 0.16234 0.03891 0.46162 0.0
C1860 C 0.14717 0.04332 0.45699 0.0
H1861 H 0.21552 0.12211 0.50686 0.0
H1862 H 0.19509 0.10099 0.49776 0.0
C1863 C 0.13483 0.03149 0.45309 0.0
C1864 C 0.17495 0.05147 0.46689 0.0
H1865 H 0.19641 0.06663 0.49977 0.0
C1866 C 0.18127 0.06227 0.4557 0.0
C1867 C 0.18031 0.05311 0.483 0.0
C1868 C 0.17343 0.04216 0.4956 0.0
C1869 C 0.19302 0.07462 0.46019 0.0
C1870 C 0.1986 0.07608 0.47623 0.0
C1871 C 0.19215 0.06538 0.48745 0.0
C1872 C 0.21101 0.08877 0.48168 0.0
C1873 C 0.19919 0.0862 0.44782 0.0
C1874 C 0.22675 0.0887 0.47578 0.0
C1875 C 0.23847 0.10069 0.48098 0.0
C1876 C 0.23464 0.11296 0.49218 0.0
C1877 C 0.21887 0.11287 0.49819 0.0
C1878 C 0.20718 0.10083 0.49302 0.0
H1879 H 0.19127 0.08559 0.43706 0.0
H1880 H 0.20021 0.09878 0.45297 0.0
H1881 H 0.21136 0.08313 0.44392 0.0
H1882 H 0.22998 0.07932 0.4672 0.0
H1883 H 0.2505 0.10036 0.47614 0.0
H1884 H 0.73264 0.16772 0.75676 0.0
H1885 H 0.71611 0.14263 0.75987 0.0
H1886 H 0.70133 0.14258 0.71032 0.0
H1887 H 0.71848 0.16736 0.70687 0.0
H1888 H 0.68381 0.13663 0.75618 0.0
H1889 H 0.71601 0.0974 0.71339 0.0
H1890 H 0.72427 0.11718 0.72029 0.0
H1891 H 0.70909 0.11506 0.70485 0.0
C1892 C 0.72609 0.16226 0.74643 0.0
C1893 C 0.72704 0.16946 0.73151 0.0
C1894 C 0.71655 0.14797 0.74827 0.0
C1895 C 0.70772 0.1406 0.73526 0.0
C1896 C 0.70834 0.14789 0.72042 0.0
H1897 H 0.63781 0.0575 0.73044 0.0
H1898 H 0.65488 0.08174 0.72459 0.0
C1899 C 0.71797 0.16216 0.71853 0.0
C1900 C 0.69758 0.12548 0.73748 0.0
H1901 H 0.6919 0.08588 0.72464 0.0
C1902 C 0.6856 0.12554 0.7493 0.0
C1903 C 0.69996 0.11102 0.72849 0.0
C1904 C 0.71312 0.11005 0.71614 0.0
C1905 C 0.67592 0.11152 0.75235 0.0
C1906 C 0.67834 0.0971 0.7434 0.0
C1907 C 0.69014 0.09702 0.73145 0.0
C1908 C 0.66877 0.08193 0.74649 0.0
C1909 C 0.66309 0.11219 0.76506 0.0
C1910 C 0.67123 0.07392 0.76059 0.0
C1911 C 0.66159 0.06004 0.76395 0.0
C1912 C 0.64927 0.054 0.75328 0.0
C1913 C 0.64714 0.06188 0.73895 0.0
C1914 C 0.65687 0.07569 0.73556 0.0
H1915 H 0.66096 0.12479 0.769 0.0
H1916 H 0.65159 0.106 0.76054 0.0
H1917 H 0.66688 0.10583 0.77566 0.0
H1918 H 0.68048 0.07855 0.76909 0.0
H1919 H 0.66356 0.05427 0.77508 0.0
H1920 H 0.40366 0.04378 0.58103 0.0
H1921 H 0.3889 0.06709 0.57492 0.0
H1922 H 0.35111 0.03535 0.55276 0.0
H1923 H 0.36535 0.01201 0.5595 0.0
H1924 H 0.38103 0.07697 0.54609 0.0
H1925 H 0.32533 0.06452 0.58063 0.0
H1926 H 0.3432 0.05403 0.58369 0.0
H1927 H 0.3294 0.04757 0.56762 0.0
C1928 C 0.39203 0.04173 0.57518 0.0
C1929 C 0.38568 0.02599 0.57079 0.0
C1930 C 0.38367 0.05508 0.5716 0.0
C1931 C 0.36877 0.05297 0.56362 0.0
C1932 C 0.36239 0.03728 0.55927 0.0
H1933 H 0.32278 0.1106 0.49948 0.0
H1934 H 0.34051 0.09409 0.51365 0.0
C1935 C 0.37068 0.02394 0.56291 0.0
C1936 C 0.36036 0.06711 0.55884 0.0
H1937 H 0.32353 0.0825 0.55891 0.0
C1938 C 0.36853 0.07833 0.54911 0.0
C1939 C 0.34416 0.06912 0.56305 0.0
C1940 C 0.33508 0.05826 0.57447 0.0
C1941 C 0.36066 0.09093 0.54272 0.0
C1942 C 0.34409 0.09211 0.54583 0.0
C1943 C 0.33618 0.08148 0.55633 0.0
C1944 C 0.33442 0.10337 0.53736 0.0
C1945 C 0.37017 0.10275 0.53255 0.0
C1946 C 0.32488 0.11399 0.54595 0.0
C1947 C 0.31453 0.12337 0.53784 0.0
C1948 C 0.31349 0.12221 0.521 0.0
C1949 C 0.32336 0.11188 0.51244 0.0
C1950 C 0.33362 0.10249 0.52054 0.0
H1951 H 0.3831 0.10385 0.536 0.0
H1952 H 0.36935 0.09834 0.5198 0.0
H1953 H 0.36548 0.11489 0.5336 0.0
H1954 H 0.32522 0.11478 0.55894 0.0
H1955 H 0.30704 0.13117 0.54478 0.0
H1956 H 0.64755 0.56171 0.56959 0.0
H1957 H 0.66122 0.53698 0.56482 0.0
H1958 H 0.62141 0.50952 0.58597 0.0
H1959 H 0.60726 0.534 0.59 0.0
H1960 H 0.67126 0.51429 0.5846 0.0
H1961 H 0.62437 0.48693 0.54216 0.0
H1962 H 0.62505 0.5078 0.54914 0.0
H1963 H 0.61704 0.49223 0.56177 0.0
C1964 C 0.64163 0.5504 0.57313 0.0
C1965 C 0.6262 0.54986 0.58 0.0
C1966 C 0.64953 0.53629 0.57053 0.0
C1967 C 0.6422 0.52136 0.57477 0.0
C1968 C 0.62715 0.52086 0.58231 0.0
H1969 H 0.69698 0.43446 0.56608 0.0
H1970 H 0.68059 0.45539 0.57759 0.0
C1971 C 0.61917 0.53494 0.58479 0.0
C1972 C 0.65012 0.50633 0.57072 0.0
H1973 H 0.64585 0.4712 0.5478 0.0
C1974 C 0.66568 0.5048 0.57664 0.0
C1975 C 0.64284 0.49404 0.56022 0.0
C1976 C 0.62647 0.49533 0.55282 0.0
C1977 C 0.67432 0.49148 0.57208 0.0
C1978 C 0.66704 0.47921 0.56157 0.0
C1979 C 0.65133 0.48056 0.55597 0.0
C1980 C 0.67606 0.46576 0.55486 0.0
C1981 C 0.69141 0.49103 0.57796 0.0
C1982 C 0.67841 0.46427 0.53824 0.0
C1983 C 0.68755 0.45228 0.53165 0.0
C1984 C 0.69457 0.44149 0.54153 0.0
C1985 C 0.69179 0.44264 0.55816 0.0
C1986 C 0.68254 0.45466 0.56476 0.0
H1987 H 0.69628 0.50292 0.5832 0.0
H1988 H 0.69177 0.48209 0.58738 0.0
H1989 H 0.6994 0.48732 0.56803 0.0
H1990 H 0.67348 0.47267 0.53036 0.0
H1991 H 0.6894 0.45173 0.51879 0.0
H1992 H 0.74029 0.29037 0.38483 0.0
H1993 H 0.73873 0.30659 0.40988 0.0
H1994 H 0.6869 0.30168 0.40716 0.0
H1995 H 0.68834 0.28509 0.38223 0.0
H1996 H 0.72358 0.336 0.41345 0.0
H1997 H 0.69728 0.28951 0.4536 0.0
H1998 H 0.7068 0.28439 0.4348 0.0
H1999 H 0.68689 0.29124 0.43493 0.0
C2000 C 0.72855 0.2925 0.38969 0.0
C2001 C 0.71444 0.28639 0.38158 0.0
C2002 C 0.72769 0.30185 0.40394 0.0
C2003 C 0.71271 0.30519 0.41043 0.0
C2004 C 0.69857 0.29904 0.40246 0.0
H2005 H 0.70222 0.3828 0.48301 0.0
H2006 H 0.69755 0.36408 0.45971 0.0
C2007 C 0.69942 0.28971 0.38815 0.0
C2008 C 0.71202 0.31575 0.42513 0.0
H2009 H 0.70106 0.31625 0.46456 0.0
C2010 C 0.71859 0.33173 0.42461 0.0
C2011 C 0.70558 0.31005 0.43966 0.0
C2012 C 0.69883 0.29283 0.44092 0.0
C2013 C 0.71903 0.34218 0.4383 0.0
C2014 C 0.71252 0.33653 0.45283 0.0
C2015 C 0.70587 0.32056 0.45334 0.0
C2016 C 0.71355 0.34679 0.4678 0.0
C2017 C 0.72691 0.35902 0.43724 0.0
C2018 C 0.72354 0.3429 0.48035 0.0
C2019 C 0.72621 0.35352 0.49369 0.0
C2020 C 0.71888 0.36823 0.49474 0.0
C2021 C 0.70814 0.37164 0.48255 0.0
C2022 C 0.7055 0.36099 0.46919 0.0
H2023 H 0.73408 0.36041 0.4261 0.0
H2024 H 0.71748 0.36776 0.43727 0.0
H2025 H 0.73493 0.3622 0.44773 0.0
H2026 H 0.72981 0.33195 0.47951 0.0
H2027 H 0.73447 0.35046 0.5029 0.0
H2028 H 0.51692 0.07217 0.91012 0.0
H2029 H 0.53547 0.06372 0.88923 0.0
H2030 H 0.49535 0.04437 0.85987 0.0
H2031 H 0.47662 0.05315 0.8805 0.0
H2032 H 0.52223 0.02329 0.86414 0.0
H2033 H 0.54115 0.08473 0.8443 0.0
H2034 H 0.54168 0.08208 0.86556 0.0
H2035 H 0.52272 0.08033 0.85516 0.0
C2036 C 0.512 0.06632 0.89914 0.0
C2037 C 0.49527 0.06342 0.89695 0.0
C2038 C 0.52263 0.06144 0.88727 0.0
C2039 C 0.51672 0.05355 0.87303 0.0
C2040 C 0.50008 0.05045 0.87082 0.0
H2041 H 0.56755 0.03572 0.78458 0.0
H2042 H 0.54809 0.04264 0.80514 0.0
C2043 C 0.48943 0.05541 0.88265 0.0
C2044 C 0.52795 0.04849 0.86044 0.0
H2045 H 0.55508 0.06315 0.83318 0.0
C2046 C 0.52941 0.03196 0.85733 0.0
C2047 C 0.53715 0.05989 0.85156 0.0
C2048 C 0.53558 0.07776 0.85416 0.0
C2049 C 0.54008 0.02652 0.84563 0.0
C2050 C 0.54952 0.03794 0.83697 0.0
C2051 C 0.54787 0.05446 0.83994 0.0
C2052 C 0.56103 0.03303 0.82456 0.0
C2053 C 0.54104 0.00862 0.84246 0.0
C2054 C 0.57476 0.02536 0.82873 0.0
C2055 C 0.58597 0.02141 0.81702 0.0
C2056 C 0.58361 0.0251 0.80094 0.0
C2057 C 0.56974 0.03268 0.79683 0.0
C2058 C 0.5586 0.03666 0.80855 0.0
H2059 H 0.53064 0.00153 0.84765 0.0
H2060 H 0.54149 0.00561 0.82937 0.0
H2061 H 0.55222 0.00488 0.84796 0.0
H2062 H 0.57694 0.02268 0.84109 0.0
H2063 H 0.59653 0.01561 0.82059 0.0
H2064 H 0.26661 0.28578 0.38471 0.0
H2065 H 0.2676 0.26961 0.40843 0.0
H2066 H 0.28744 0.23146 0.37993 0.0
H2067 H 0.28602 0.24721 0.35606 0.0
H2068 H 0.25253 0.2353 0.41045 0.0
H2069 H 0.31882 0.24257 0.42007 0.0
H2070 H 0.30809 0.25677 0.40925 0.0
H2071 H 0.31186 0.23759 0.39989 0.0
C2072 C 0.27103 0.27389 0.38343 0.0
C2073 C 0.27629 0.26784 0.36847 0.0
C2074 C 0.2717 0.26474 0.39702 0.0
C2075 C 0.27779 0.24949 0.3959 0.0
C2076 C 0.28296 0.24335 0.38103 0.0
H2077 H 0.29321 0.17254 0.45825 0.0
H2078 H 0.29398 0.19198 0.43713 0.0
C2079 C 0.28218 0.25241 0.36743 0.0
C2080 C 0.27829 0.23967 0.41016 0.0
H2081 H 0.30404 0.22384 0.43592 0.0
C2082 C 0.26375 0.23288 0.41615 0.0
C2083 C 0.29298 0.2365 0.41738 0.0
C2084 C 0.30887 0.24379 0.41144 0.0
C2085 C 0.26353 0.22256 0.42898 0.0
C2086 C 0.27824 0.21937 0.43627 0.0
C2087 C 0.29278 0.22635 0.43036 0.0
C2088 C 0.2788 0.20835 0.44968 0.0
C2089 C 0.24757 0.21469 0.43416 0.0
C2090 C 0.27046 0.21139 0.46397 0.0
C2091 C 0.26986 0.20024 0.476 0.0
C2092 C 0.27783 0.18596 0.47406 0.0
C2093 C 0.28692 0.1834 0.46011 0.0
C2094 C 0.28737 0.19449 0.44802 0.0
H2095 H 0.2382 0.21492 0.4247 0.0
H2096 H 0.24871 0.20196 0.43715 0.0
H2097 H 0.24336 0.22133 0.445 0.0
H2098 H 0.26415 0.22224 0.4657 0.0
H2099 H 0.26291 0.20267 0.48668 0.0
H2100 H 0.50056 0.46777 0.88095 0.0
H2101 H 0.47866 0.47524 0.86381 0.0
H2102 H 0.49199 0.52557 0.87506 0.0
H2103 H 0.51388 0.51822 0.89214 0.0
H2104 H 0.45234 0.49316 0.87056 0.0
H2105 H 0.49272 0.52276 0.82611 0.0
H2106 H 0.49994 0.51006 0.84107 0.0
H2107 H 0.4961 0.53061 0.84633 0.0
C2108 C 0.49875 0.48042 0.87985 0.0
C2109 C 0.50905 0.49241 0.88774 0.0
C2110 C 0.48627 0.48466 0.87003 0.0
C2111 C 0.48391 0.50096 0.86794 0.0
C2112 C 0.49386 0.51293 0.8762 0.0
H2113 H 0.4001 0.5402 0.82616 0.0
H2114 H 0.42055 0.53191 0.84451 0.0
C2115 C 0.50636 0.50871 0.88594 0.0
C2116 C 0.47111 0.50546 0.85704 0.0
H2117 H 0.46483 0.52618 0.82354 0.0
C2118 C 0.45505 0.50034 0.86024 0.0
C2119 C 0.47472 0.51464 0.84348 0.0
C2120 C 0.49181 0.51972 0.83891 0.0
C2121 C 0.44244 0.50438 0.85036 0.0
C2122 C 0.44602 0.51401 0.83711 0.0
C2123 C 0.4621 0.51893 0.83381 0.0
C2124 C 0.43334 0.51879 0.82619 0.0
C2125 C 0.42546 0.49802 0.85401 0.0
C2126 C 0.43395 0.51447 0.80977 0.0
C2127 C 0.42241 0.51933 0.79925 0.0
C2128 C 0.41002 0.52864 0.80493 0.0
C2129 C 0.40942 0.53296 0.82141 0.0
C2130 C 0.42104 0.52814 0.83193 0.0
H2131 H 0.42525 0.48754 0.86179 0.0
H2132 H 0.41914 0.50766 0.86041 0.0
H2133 H 0.41869 0.49434 0.8428 0.0
H2134 H 0.44337 0.50731 0.80508 0.0
H2135 H 0.42324 0.51577 0.78665 0.0
H2136 H 0.76312 0.76151 0.16443 0.0
H2137 H 0.76626 0.74222 0.14172 0.0
H2138 H 0.71473 0.73626 0.13579 0.0
H2139 H 0.71147 0.75563 0.15833 0.0
H2140 H 0.75026 0.70795 0.13662 0.0
H2141 H 0.73498 0.75187 0.09172 0.0
H2142 H 0.74193 0.75809 0.11173 0.0
H2143 H 0.72165 0.74968 0.10856 0.0
C2144 C 0.75247 0.75607 0.15828 0.0
C2145 C 0.73705 0.76014 0.1631 0.0
C2146 C 0.75428 0.745 0.14541 0.0
C2147 C 0.74072 0.73794 0.13708 0.0
C2148 C 0.72532 0.74166 0.14207 0.0
H2149 H 0.72468 0.68158 0.04864 0.0
H2150 H 0.72231 0.69678 0.07413 0.0
C2151 C 0.72348 0.75265 0.15499 0.0
C2152 C 0.74266 0.72719 0.12274 0.0
H2153 H 0.73844 0.72532 0.08205 0.0
C2154 C 0.74773 0.71169 0.12465 0.0
C2155 C 0.73935 0.7322 0.10722 0.0
C2156 C 0.73428 0.7489 0.10456 0.0
C2157 C 0.7492 0.70087 0.11139 0.0
C2158 C 0.74585 0.70588 0.09583 0.0
C2159 C 0.74095 0.72147 0.09398 0.0
C2160 C 0.74711 0.6952 0.08122 0.0
C2161 C 0.75389 0.68407 0.11419 0.0
C2162 C 0.76181 0.68907 0.07681 0.0
C2163 C 0.76317 0.68022 0.06226 0.0
C2164 C 0.74991 0.67758 0.05178 0.0
C2165 C 0.73514 0.68345 0.05641 0.0
C2166 C 0.73376 0.69215 0.07098 0.0
H2167 H 0.7517 0.68077 0.12679 0.0
H2168 H 0.74712 0.67501 0.10607 0.0
H2169 H 0.76692 0.68346 0.11175 0.0
H2170 H 0.77237 0.69158 0.08435 0.0
H2171 H 0.77474 0.67595 0.05896 0.0
H2172 H 0.0098 0.07463 0.14049 0.0
H2173 H 0.98531 0.0713 0.15639 0.0
H2174 H 0.98632 0.1228 0.16543 0.0
H2175 H 0.01111 0.12625 0.14959 0.0
H2176 H 0.98161 0.10338 0.19331 0.0
H2177 H 0.93958 0.08307 0.14375 0.0
H2178 H 0.95763 0.07255 0.14355 0.0
H2179 H 0.95885 0.09385 0.14046 0.0
C2180 C 0.00488 0.08526 0.14592 0.0
C2181 C 0.01241 0.1007 0.14385 0.0
C2182 C 0.99079 0.08335 0.15484 0.0
C2183 C 0.98389 0.09682 0.16184 0.0
C2184 C 0.9914 0.11228 0.15995 0.0
H2185 H 0.90482 0.08434 0.23218 0.0
H2186 H 0.92329 0.09848 0.21369 0.0
C2187 C 0.0055 0.11422 0.1509 0.0
C2188 C 0.96923 0.09443 0.17169 0.0
H2189 H 0.93121 0.0761 0.1703 0.0
C2190 C 0.97042 0.09777 0.1883 0.0
C2191 C 0.95469 0.0872 0.16505 0.0
C2192 C 0.95251 0.08409 0.1472 0.0
C2193 C 0.95784 0.0929 0.19859 0.0
C2194 C 0.94366 0.08472 0.19201 0.0
C2195 C 0.94211 0.08233 0.17531 0.0
C2196 C 0.93134 0.07665 0.20227 0.0
C2197 C 0.96022 0.09554 0.21648 0.0
C2198 C 0.92936 0.05976 0.20156 0.0
C2199 C 0.91885 0.0517 0.21199 0.0
C2200 C 0.91003 0.06037 0.22333 0.0
C2201 C 0.9115 0.07733 0.2236 0.0
C2202 C 0.9221 0.08542 0.21313 0.0
H2203 H 0.97275 0.10005 0.21967 0.0
H2204 H 0.95201 0.10454 0.22114 0.0
H2205 H 0.95724 0.08414 0.2226 0.0
H2206 H 0.93635 0.05277 0.19324 0.0
H2207 H 0.91796 0.03863 0.2114 0.0
H2208 H 0.2456 0.79715 0.18993 0.0
H2209 H 0.23886 0.81565 0.16938 0.0
H2210 H 0.28926 0.82525 0.15912 0.0
H2211 H 0.29613 0.80649 0.17925 0.0
H2212 H 0.26809 0.85381 0.16165 0.0
H2213 H 0.24666 0.80227 0.12007 0.0
H2214 H 0.23914 0.80255 0.14029 0.0
H2215 H 0.25999 0.79984 0.13671 0.0
C2216 C 0.25526 0.80319 0.18331 0.0
C2217 C 0.27141 0.80021 0.18617 0.0
C2218 C 0.25139 0.81383 0.17167 0.0
C2219 C 0.26357 0.82171 0.16275 0.0
C2220 C 0.2797 0.81931 0.16597 0.0
H2221 H 0.27073 0.86166 0.07135 0.0
H2222 H 0.27305 0.8481 0.09642 0.0
C2223 C 0.2836 0.80862 0.17754 0.0
C2224 C 0.25956 0.83156 0.14923 0.0
H2225 H 0.24632 0.8283 0.11044 0.0
C2226 C 0.26315 0.84831 0.1505 0.0
C2227 C 0.25325 0.82425 0.13472 0.0
C2228 C 0.24958 0.80623 0.1327 0.0
C2229 C 0.26079 0.85796 0.13744 0.0
C2230 C 0.25473 0.85059 0.12285 0.0
C2231 C 0.25087 0.83388 0.12171 0.0
C2232 C 0.25359 0.8597 0.10815 0.0
C2233 C 0.26533 0.87584 0.13906 0.0
C2234 C 0.24188 0.87079 0.10652 0.0
C2235 C 0.24046 0.87859 0.09211 0.0
C2236 C 0.25075 0.87537 0.07918 0.0
C2237 C 0.26261 0.86443 0.08105 0.0
C2238 C 0.26396 0.85664 0.09536 0.0
H2239 H 0.27155 0.8794 0.15061 0.0
H2240 H 0.2733 0.87961 0.12904 0.0
H2241 H 0.25431 0.88248 0.13839 0.0
H2242 H 0.23366 0.87317 0.11624 0.0
H2243 H 0.23119 0.88693 0.09103 0.0
H2244 H 0.983 0.47915 0.13846 0.0
H2245 H 0.00381 0.48347 0.15907 0.0
H2246 H 3e-05 0.43267 0.16771 0.0
H2247 H 0.97875 0.4282 0.14729 0.0
H2248 H 0.00138 0.47379 0.19319 0.0
H2249 H 0.04919 0.44574 0.15718 0.0
H2250 H 0.03172 0.45296 0.14782 0.0
H2251 H 0.02975 0.43491 0.15877 0.0
C2252 C 0.98631 0.4689 0.14492 0.0
C2253 C 0.97914 0.45333 0.14124 0.0
C2254 C 0.99831 0.47139 0.1566 0.0
C2255 C 0.0035 0.45837 0.16476 0.0
C2256 C 0.99628 0.44283 0.16137 0.0
H2257 H 0.08494 0.47138 0.23332 0.0
H2258 H 0.06345 0.45773 0.21633 0.0
C2259 C 0.98416 0.44031 0.14969 0.0
C2260 C 0.01657 0.46133 0.17673 0.0
H2261 H 0.05706 0.45934 0.18159 0.0
C2262 C 0.01351 0.47041 0.19081 0.0
C2263 C 0.03231 0.45678 0.17357 0.0
C2264 C 0.03609 0.4471 0.15851 0.0
C2265 C 0.02595 0.47567 0.20153 0.0
C2266 C 0.04188 0.47201 0.19787 0.0
C2267 C 0.04482 0.46216 0.18427 0.0
C2268 C 0.05568 0.47978 0.20717 0.0
C2269 C 0.02203 0.4855 0.21647 0.0
C2270 C 0.05872 0.49656 0.20713 0.0
C2271 C 0.07089 0.50433 0.21671 0.0
C2272 C 0.08035 0.49546 0.22649 0.0
C2273 C 0.07782 0.47853 0.22593 0.0
C2274 C 0.06556 0.47073 0.21629 0.0
H2275 H 0.00919 0.48328 0.21987 0.0
H2276 H 0.02972 0.48273 0.22671 0.0
H2277 H 0.02427 0.49851 0.21421 0.0
H2278 H 0.05141 0.5037 0.1999 0.0
H2279 H 0.07261 0.51736 0.21673 0.0
H2280 H 0.36228 0.7079 0.27271 0.0
H2281 H 0.38669 0.71058 0.28926 0.0
H2282 H 0.37653 0.75907 0.30411 0.0
H2283 H 0.35185 0.75634 0.288 0.0
H2284 H 0.41357 0.73301 0.28824 0.0
H2285 H 0.38206 0.73707 0.34665 0.0
H2286 H 0.37185 0.73021 0.32821 0.0
H2287 H 0.37629 0.75142 0.33271 0.0
C2288 C 0.36517 0.71909 0.27961 0.0
C2289 C 0.35506 0.73187 0.27916 0.0
C2290 C 0.37916 0.72062 0.28896 0.0
C2291 C 0.38325 0.73492 0.29808 0.0
C2292 C 0.37342 0.74783 0.29736 0.0
H2293 H 0.47159 0.77328 0.34217 0.0
H2294 H 0.44922 0.76521 0.32397 0.0
C2295 C 0.35942 0.74632 0.28802 0.0
C2296 C 0.3978 0.73636 0.30836 0.0
H2297 H 0.41036 0.74371 0.34709 0.0
C2298 C 0.4129 0.73523 0.30113 0.0
C2299 C 0.39683 0.73894 0.32518 0.0
C2300 C 0.38088 0.73933 0.3337 0.0
C2301 C 0.42713 0.73722 0.31025 0.0
C2302 C 0.42619 0.74064 0.32696 0.0
C2303 C 0.41105 0.7412 0.33425 0.0
C2304 C 0.44069 0.74444 0.33708 0.0
C2305 C 0.44303 0.73563 0.30191 0.0
C2306 C 0.44329 0.73548 0.35056 0.0
C2307 C 0.45602 0.74014 0.3611 0.0
C2308 C 0.46631 0.75392 0.35839 0.0
C2309 C 0.46393 0.76258 0.34461 0.0
C2310 C 0.4512 0.75792 0.33411 0.0
H2311 H 0.44152 0.72831 0.29046 0.0
H2312 H 0.44831 0.7478 0.29907 0.0
H2313 H 0.45166 0.73001 0.30968 0.0
H2314 H 0.43524 0.72509 0.3531 0.0
H2315 H 0.4575 0.7332 0.37159 0.0
H2316 H 0.93742 0.41837 0.99165 0.0
H2317 H 0.94719 0.39922 0.97138 0.0
H2318 H 0.94076 0.36111 0.00458 0.0
H2319 H 0.93083 0.38011 0.02483 0.0
H2320 H 0.97495 0.38079 0.97655 0.0
H2321 H 0.91921 0.34194 0.96204 0.0
H2322 H 0.91889 0.36204 0.97116 0.0
H2323 H 0.92347 0.34555 0.98308 0.0
C2324 C 0.93776 0.40583 0.99449 0.0
C2325 C 0.93336 0.40071 0.0098 0.0
C2326 C 0.94343 0.39496 0.98296 0.0
C2327 C 0.94457 0.37877 0.98648 0.0
C2328 C 0.93977 0.37352 0.00159 0.0
H2329 H 0.97936 0.29323 0.94151 0.0
H2330 H 0.9683 0.31377 0.95921 0.0
C2331 C 0.93421 0.3844 0.01316 0.0
C2332 C 0.95177 0.36755 0.97479 0.0
H2333 H 0.94379 0.33249 0.95249 0.0
C2334 C 0.96815 0.3703 0.97114 0.0
C2335 C 0.94282 0.35388 0.96789 0.0
C2336 C 0.92508 0.35068 0.9711 0.0
C2337 C 0.97599 0.3594 0.9611 0.0
C2338 C 0.96707 0.34561 0.9543 0.0
C2339 C 0.95061 0.34305 0.95776 0.0
C2340 C 0.97461 0.33347 0.94382 0.0
C2341 C 0.99383 0.36245 0.95837 0.0
C2342 C 0.98191 0.33775 0.92933 0.0
C2343 C 0.9884 0.32605 0.91922 0.0
C2344 C 0.98747 0.30981 0.92335 0.0
C2345 C 0.98026 0.30561 0.93795 0.0
C2346 C 0.9739 0.31733 0.94808 0.0
H2347 H 0.99956 0.371 0.96767 0.0
H2348 H -6e-05 0.35103 0.95834 0.0
H2349 H 0.99582 0.3678 0.94654 0.0
H2350 H 0.98229 0.35008 0.92565 0.0
H2351 H 0.99374 0.32966 0.908 0.0
H2352 H 0.64471 0.81697 0.27591 0.0
H2353 H 0.62278 0.81397 0.29524 0.0
H2354 H 0.63631 0.7664 0.30505 0.0
H2355 H 0.6585 0.76939 0.28584 0.0
H2356 H 0.59708 0.78793 0.29378 0.0
H2357 H 0.63321 0.79079 0.35018 0.0
H2358 H 0.6412 0.79852 0.3317 0.0
H2359 H 0.63892 0.77718 0.33414 0.0
C2360 C 0.64314 0.80594 0.28231 0.0
C2361 C 0.65337 0.79344 0.27942 0.0
C2362 C 0.63058 0.80423 0.29328 0.0
C2363 C 0.62808 0.79005 0.30167 0.0
C2364 C 0.63821 0.77752 0.29883 0.0
H2365 H 0.55357 0.76466 0.37202 0.0
H2366 H 0.57777 0.76482 0.35528 0.0
C2367 C 0.65076 0.77918 0.28776 0.0
C2368 C 0.61444 0.78829 0.31292 0.0
H2369 H 0.60498 0.78711 0.35268 0.0
C2370 C 0.59878 0.7877 0.30665 0.0
C2371 C 0.61676 0.78785 0.32967 0.0
C2372 C 0.6334 0.7887 0.33693 0.0
C2373 C 0.58533 0.78683 0.31672 0.0
C2374 C 0.58763 0.78696 0.33353 0.0
C2375 C 0.60328 0.78712 0.3398 0.0
C2376 C 0.57388 0.78747 0.34472 0.0
C2377 C 0.56875 0.78568 0.30924 0.0
C2378 C 0.56404 0.80042 0.34474 0.0
C2379 C 0.55024 0.80034 0.35418 0.0
C2380 C 0.54609 0.78737 0.36395 0.0
C2381 C 0.55643 0.7748 0.36459 0.0
C2382 C 0.57024 0.77486 0.35503 0.0
H2383 H 0.56896 0.78107 0.29654 0.0
H2384 H 0.56021 0.77766 0.31597 0.0
H2385 H 0.56417 0.79787 0.30946 0.0
H2386 H 0.56687 0.81046 0.33715 0.0
H2387 H 0.54263 0.81029 0.35354 0.0
H2388 H 0.07443 0.14718 0.00954 0.0
H2389 H 0.0703 0.16143 0.98514 0.0
H2390 H 0.05376 0.20154 0.0135 0.0
H2391 H 0.0588 0.18783 0.03797 0.0
H2392 H 0.04267 0.16906 0.97421 0.0
H2393 H 0.08169 0.22535 0.98234 0.0
H2394 H 0.08366 0.20834 0.99467 0.0
H2395 H 0.06896 0.22265 0.99944 0.0
C2396 C 0.07042 0.15925 0.01065 0.0
C2397 C 0.06693 0.16633 0.02577 0.0
C2398 C 0.06794 0.16734 0.99665 0.0
C2399 C 0.0619 0.18265 0.99745 0.0
C2400 C 0.0588 0.18991 0.01254 0.0
H2401 H 0.99708 0.22392 0.93689 0.0
H2402 H 0.01168 0.20793 0.95484 0.0
C2403 C 0.06142 0.18192 0.02655 0.0
C2404 C 0.05723 0.19031 0.98258 0.0
H2405 H 0.05871 0.22636 0.96454 0.0
C2406 C 0.04644 0.1815 0.97194 0.0
C2407 C 0.06236 0.20644 0.97937 0.0
C2408 C 0.07495 0.21616 0.98948 0.0
C2409 C 0.03988 0.18866 0.9588 0.0
C2410 C 0.04385 0.20521 0.95648 0.0
C2411 C 0.05544 0.21374 0.96647 0.0
C2412 C 0.03511 0.2142 0.94472 0.0
C2413 C 0.02856 0.17846 0.94768 0.0
C2414 C 0.04344 0.22335 0.93322 0.0
C2415 C 0.03509 0.23272 0.92299 0.0
C2416 C 0.01829 0.23314 0.92417 0.0
C2417 C 0.01 0.22378 0.93556 0.0
C2418 C 0.01833 0.21452 0.94578 0.0
H2419 H 0.03133 0.16559 0.94742 0.0
H2420 H 0.01605 0.1791 0.95208 0.0
H2421 H 0.02918 0.18269 0.93526 0.0
H2422 H 0.05641 0.22339 0.9323 0.0
H2423 H 0.04183 0.23986 0.91439 0.0
H2424 H 0.35416 0.27537 0.24715 0.0
H2425 H 0.37799 0.27582 0.22999 0.0
H2426 H 0.37854 0.3276 0.22892 0.0
H2427 H 0.35481 0.32728 0.24629 0.0
H2428 H 0.38172 0.28936 0.19852 0.0
H2429 H 0.42466 0.31797 0.24442 0.0
H2430 H 0.40534 0.30834 0.24962 0.0
H2431 H 0.40652 0.3279 0.24135 0.0
C2432 C 0.3594 0.28685 0.24332 0.0
C2433 C 0.35269 0.3013 0.24813 0.0
C2434 C 0.37294 0.28708 0.23348 0.0
C2435 C 0.38008 0.30175 0.22838 0.0
C2436 C 0.37328 0.31618 0.23291 0.0
H2437 H 0.45275 0.31202 0.15383 0.0
H2438 H 0.42948 0.31554 0.17112 0.0
C2439 C 0.35967 0.31596 0.2427 0.0
C2440 C 0.39463 0.30185 0.21829 0.0
H2441 H 0.43496 0.31276 0.21849 0.0
C2442 C 0.39336 0.29453 0.20282 0.0
C2443 C 0.40977 0.30849 0.22407 0.0
C2444 C 0.41179 0.31604 0.24081 0.0
C2445 C 0.40689 0.29368 0.19293 0.0
C2446 C 0.42201 0.30043 0.19866 0.0
C2447 C 0.4233 0.30773 0.21413 0.0
C2448 C 0.43671 0.2994 0.18891 0.0
C2449 C 0.405 0.28523 0.17656 0.0
C2450 C 0.44869 0.28956 0.1935 0.0
C2451 C 0.46201 0.2875 0.18366 0.0
C2452 C 0.46361 0.29535 0.16911 0.0
C2453 C 0.45187 0.30574 0.16491 0.0
C2454 C 0.43853 0.30773 0.17473 0.0
H2455 H 0.39323 0.2781 0.17516 0.0
H2456 H 0.40582 0.29435 0.16725 0.0
H2457 H 0.41478 0.27705 0.17435 0.0
H2458 H 0.44749 0.28309 0.20445 0.0
H2459 H 0.47085 0.27947 0.1873 0.0
H2460 H 0.55845 0.42471 0.01429 0.0
H2461 H 0.55381 0.40798 0.03734 0.0
H2462 H 0.52536 0.37275 0.00773 0.0
H2463 H 0.5304 0.38919 0.9844 0.0
H2464 H 0.52483 0.39865 0.05095 0.0
H2465 H 0.55644 0.34525 0.03018 0.0
H2466 H 0.55919 0.36439 0.02083 0.0
H2467 H 0.54178 0.35089 0.01611 0.0
C2468 C 0.55145 0.41326 0.01259 0.0
C2469 C 0.54492 0.4082 0.99746 0.0
C2470 C 0.54872 0.40378 0.02581 0.0
C2471 C 0.53946 0.38903 0.02418 0.0
C2472 C 0.53282 0.38395 0.00915 0.0
H2473 H 0.48646 0.3342 0.0925 0.0
H2474 H 0.49665 0.35309 0.07283 0.0
C2475 C 0.53555 0.39344 0.99589 0.0
C2476 C 0.53614 0.37933 0.0384 0.0
H2477 H 0.53922 0.342 0.05288 0.0
C2478 C 0.52811 0.38631 0.05144 0.0
C2479 C 0.54069 0.36335 0.03914 0.0
C2480 C 0.55014 0.35556 0.02589 0.0
C2481 C 0.52393 0.37751 0.06494 0.0
C2482 C 0.52768 0.36124 0.06527 0.0
C2483 C 0.53628 0.35446 0.05253 0.0
C2484 C 0.52175 0.35072 0.07815 0.0
C2485 C 0.51545 0.38566 0.07868 0.0
C2486 C 0.53252 0.34302 0.08762 0.0
C2487 C 0.52671 0.33213 0.09892 0.0
C2488 C 0.51006 0.32865 0.10075 0.0
C2489 C 0.49936 0.33663 0.09143 0.0
C2490 C 0.50515 0.34752 0.08022 0.0
H2491 H 0.51783 0.39898 0.07881 0.0
H2492 H 0.50227 0.38286 0.07733 0.0
H2493 H 0.51923 0.38133 0.09038 0.0
H2494 H 0.54539 0.34527 0.08609 0.0
H2495 H 0.53525 0.3261 0.10587 0.0
H2496 H 0.65362 0.24604 0.23846 0.0
H2497 H 0.63257 0.24959 0.21881 0.0
H2498 H 0.63555 0.30065 0.23092 0.0
H2499 H 0.65678 0.29726 0.25048 0.0
H2500 H 0.60456 0.28593 0.2325 0.0
H2501 H 0.6332 0.26954 0.17467 0.0
H2502 H 0.63485 0.25493 0.18964 0.0
H2503 H 0.64466 0.27481 0.1928 0.0
C2504 C 0.6501 0.25809 0.23668 0.0
C2505 C 0.65686 0.27136 0.24609 0.0
C2506 C 0.63806 0.2601 0.22542 0.0
C2507 C 0.63262 0.27541 0.22329 0.0
C2508 C 0.63962 0.28874 0.23235 0.0
H2509 H 0.55695 0.29572 0.15495 0.0
H2510 H 0.58252 0.29716 0.16985 0.0
C2511 C 0.65167 0.28675 0.24359 0.0
C2512 C 0.61863 0.27724 0.21273 0.0
H2513 H 0.60445 0.27006 0.17443 0.0
C2514 C 0.60461 0.28266 0.21976 0.0
C2515 C 0.61876 0.27309 0.1961 0.0
C2516 C 0.63372 0.26791 0.1878 0.0
C2517 C 0.5905 0.2834 0.21074 0.0
C2518 C 0.5904 0.27848 0.19431 0.0
C2519 C 0.60458 0.2737 0.18708 0.0
C2520 C 0.57536 0.27733 0.18477 0.0
C2521 C 0.57569 0.28917 0.2189 0.0
C2522 C 0.56307 0.26554 0.18809 0.0
C2523 C 0.54857 0.26464 0.17962 0.0
C2524 C 0.54605 0.27554 0.16765 0.0
C2525 C 0.55851 0.28719 0.16413 0.0
C2526 C 0.57311 0.28802 0.17259 0.0
H2527 H 0.57867 0.29587 0.23047 0.0
H2528 H 0.56937 0.29709 0.21104 0.0
H2529 H 0.56728 0.27861 0.22137 0.0
H2530 H 0.56468 0.25709 0.19735 0.0
H2531 H 0.53927 0.25549 0.18261 0.0
H2532 H 0.42679 0.15265 0.01547 0.0
H2533 H 0.43561 0.17468 0.03468 0.0
H2534 H 0.48417 0.16016 0.03211 0.0
H2535 H 0.47547 0.13805 0.01301 0.0
H2536 H 0.45036 0.17228 0.06476 0.0
H2537 H 0.48934 0.20861 0.02385 0.0
H2538 H 0.47474 0.1928 0.01663 0.0
H2539 H 0.49373 0.18784 0.0245 0.0
C2540 C 0.43934 0.15414 0.01902 0.0
C2541 C 0.45045 0.14366 0.01267 0.0
C2542 C 0.44436 0.16675 0.02994 0.0
C2543 C 0.46056 0.16914 0.03463 0.0
C2544 C 0.47168 0.1587 0.02837 0.0
H2545 H 0.49816 0.22727 0.11789 0.0
H2546 H 0.49074 0.20508 0.09836 0.0
C2547 C 0.46668 0.1461 0.01745 0.0
C2548 C 0.46575 0.18229 0.04645 0.0
H2549 H 0.49033 0.21684 0.05145 0.0
C2550 C 0.45909 0.18204 0.06187 0.0
C2551 C 0.47703 0.19504 0.04255 0.0
C2552 C 0.48405 0.19624 0.02595 0.0
C2553 C 0.4635 0.1942 0.07359 0.0
C2554 C 0.47504 0.20676 0.0698 0.0
C2555 C 0.48162 0.20707 0.05434 0.0
C2556 C 0.47993 0.22011 0.08151 0.0
C2557 C 0.45554 0.19369 0.08981 0.0
C2558 C 0.47666 0.23591 0.07828 0.0
C2559 C 0.48093 0.24859 0.08934 0.0
C2560 C 0.48865 0.24572 0.10382 0.0
C2561 C 0.49217 0.22988 0.1069 0.0
C2562 C 0.48786 0.21718 0.0958 0.0
H2563 H 0.44446 0.18537 0.0896 0.0
H2564 H 0.46403 0.1894 0.09864 0.0
H2565 H 0.45236 0.20589 0.09402 0.0
H2566 H 0.4706 0.2384 0.06727 0.0
H2567 H 0.47808 0.26064 0.08654 0.0
H2568 H 0.26085 0.39649 0.70743 0.0
H2569 H 0.27792 0.42182 0.70907 0.0
H2570 H 0.27279 0.42426 0.76048 0.0
H2571 H 0.2562 0.39877 0.75909 0.0
H2572 H 0.26743 0.45456 0.74069 0.0
H2573 H 0.32517 0.42563 0.73146 0.0
H2574 H 0.30822 0.41931 0.71863 0.0
H2575 H 0.30758 0.41477 0.7394 0.0
C2576 C 0.26344 0.40234 0.7191 0.0
C2577 C 0.25715 0.39556 0.73313 0.0
C2578 C 0.2731 0.41685 0.71998 0.0
C2579 C 0.27656 0.42482 0.73489 0.0
C2580 C 0.27014 0.41827 0.74887 0.0
H2581 H 0.32748 0.50848 0.77817 0.0
H2582 H 0.30816 0.4862 0.76986 0.0
C2583 C 0.26059 0.40375 0.74802 0.0
C2584 C 0.28721 0.43982 0.73609 0.0
H2585 H 0.32678 0.45362 0.73686 0.0
C2586 C 0.28041 0.45444 0.73971 0.0
C2587 C 0.30406 0.43953 0.73466 0.0
C2588 C 0.31182 0.42401 0.73087 0.0
C2589 C 0.29012 0.46886 0.74224 0.0
C2590 C 0.30707 0.46848 0.74157 0.0
C2591 C 0.3138 0.45389 0.73741 0.0
C2592 C 0.31809 0.4828 0.74608 0.0
C2593 C 0.28211 0.48433 0.74558 0.0
C2594 C 0.33032 0.48813 0.7356 0.0
C2595 C 0.34157 0.50075 0.74042 0.0
C2596 C 0.3408 0.50825 0.75583 0.0
C2597 C 0.32836 0.50306 0.76618 0.0
C2598 C 0.31721 0.49038 0.7614 0.0
H2599 H 0.2698 0.48361 0.74034 0.0
H2600 H 0.28099 0.48648 0.75874 0.0
H2601 H 0.28923 0.4948 0.7407 0.0
H2602 H 0.33129 0.48237 0.72377 0.0
H2603 H 0.35099 0.50445 0.73214 0.0
H2604 H 0.28965 0.70878 0.79501 0.0
H2605 H 0.30965 0.68866 0.79309 0.0
H2606 H 0.27317 0.65305 0.7746 0.0
H2607 H 0.25327 0.6732 0.77613 0.0
H2608 H 0.31055 0.66179 0.80839 0.0
H2609 H 0.30865 0.64598 0.74336 0.0
H2610 H 0.29951 0.66336 0.75194 0.0
H2611 H 0.28897 0.64365 0.75199 0.0
C2612 C 0.28596 0.69668 0.79039 0.0
C2613 C 0.26994 0.69256 0.78564 0.0
C2614 C 0.29739 0.68522 0.78927 0.0
C2615 C 0.293 0.6694 0.78343 0.0
C2616 C 0.27699 0.66529 0.77867 0.0
H2617 H 0.33362 0.58192 0.80571 0.0
H2618 H 0.31982 0.60667 0.80508 0.0
C2619 C 0.2656 0.67679 0.77961 0.0
C2620 C 0.30485 0.65693 0.78335 0.0
H2621 H 0.31986 0.62678 0.76009 0.0
C2622 C 0.31275 0.65428 0.79776 0.0
C2623 C 0.30801 0.64732 0.76943 0.0
C2624 C 0.30096 0.65034 0.75328 0.0
C2625 C 0.32312 0.64185 0.79881 0.0
C2626 C 0.32531 0.63147 0.7852 0.0
C2627 C 0.31801 0.63458 0.7706 0.0
C2628 C 0.33437 0.61684 0.78603 0.0
C2629 C 0.33163 0.63999 0.81452 0.0
C2630 C 0.34693 0.61408 0.77527 0.0
C2631 C 0.35472 0.59976 0.77543 0.0
C2632 C 0.35006 0.58795 0.78637 0.0
C2633 C 0.33762 0.59084 0.79724 0.0
C2634 C 0.32977 0.60506 0.79698 0.0
H2635 H 0.33325 0.65167 0.82154 0.0
H2636 H 0.32423 0.63145 0.82182 0.0
H2637 H 0.34361 0.63524 0.81261 0.0
H2638 H 0.35061 0.62295 0.76664 0.0
H2639 H 0.36423 0.59787 0.76687 0.0
H2640 H 0.88454 0.52195 0.50039 0.0
H2641 H 0.86319 0.50299 0.50987 0.0
H2642 H 0.84718 0.49222 0.46113 0.0
H2643 H 0.86852 0.51119 0.45153 0.0
H2644 H 0.83044 0.50412 0.5061 0.0
H2645 H 0.85108 0.44745 0.47832 0.0
H2646 H 0.86384 0.46597 0.48005 0.0
H2647 H 0.84896 0.46296 0.46437 0.0
C2648 C 0.87645 0.51557 0.49169 0.0
C2649 C 0.87819 0.51806 0.47521 0.0
C2650 C 0.86432 0.5047 0.49712 0.0
C2651 C 0.85376 0.49606 0.48619 0.0
C2652 C 0.85544 0.49851 0.46973 0.0
H2653 H 0.75991 0.45015 0.5049 0.0
H2654 H 0.78292 0.46781 0.49693 0.0
C2655 C 0.86761 0.50936 0.46427 0.0
C2656 C 0.84058 0.48501 0.49211 0.0
H2657 H 0.82477 0.44594 0.48955 0.0
C2658 C 0.82923 0.49138 0.50256 0.0
C2659 C 0.83918 0.46837 0.48763 0.0
C2660 C 0.85149 0.46072 0.4771 0.0
C2661 C 0.8163 0.48161 0.50838 0.0
C2662 C 0.81454 0.4651 0.50338 0.0
C2663 C 0.82609 0.45864 0.49324 0.0
C2664 C 0.80064 0.4544 0.50835 0.0
C2665 C 0.80471 0.48901 0.51993 0.0
C2666 C 0.80303 0.4408 0.51712 0.0
C2667 C 0.78989 0.43059 0.52164 0.0
C2668 C 0.77415 0.43377 0.51737 0.0
C2669 C 0.77185 0.44738 0.50849 0.0
C2670 C 0.78498 0.45755 0.50398 0.0
H2671 H 0.81011 0.50036 0.5259 0.0
H2672 H 0.79386 0.49193 0.51326 0.0
H2673 H 0.80084 0.48051 0.5293 0.0
H2674 H 0.81507 0.43813 0.52053 0.0
H2675 H 0.79209 0.42019 0.52844 0.0
H2676 H 0.73042 0.87678 0.80104 0.0
H2677 H 0.71147 0.8976 0.79864 0.0
H2678 H 0.7054 0.88471 0.74826 0.0
H2679 H 0.7243 0.86365 0.75057 0.0
H2680 H 0.71655 0.92373 0.77468 0.0
H2681 H 0.65828 0.88638 0.76865 0.0
H2682 H 0.67558 0.87921 0.77839 0.0
H2683 H 0.67524 0.88041 0.75702 0.0
C2684 C 0.72485 0.87817 0.7895 0.0
C2685 C 0.72881 0.86855 0.77599 0.0
C2686 C 0.7141 0.89011 0.78814 0.0
C2687 C 0.707 0.89256 0.77331 0.0
C2688 C 0.71069 0.88286 0.75983 0.0
H2689 H 0.63989 0.96494 0.75129 0.0
H2690 H 0.65604 0.94144 0.74947 0.0
C2691 C 0.72154 0.87094 0.76115 0.0
C2692 C 0.6965 0.90596 0.7719 0.0
H2693 H 0.65726 0.91461 0.76869 0.0
C2694 C 0.70359 0.92176 0.77328 0.0
C2695 C 0.67967 0.90327 0.7699 0.0
C2696 C 0.67161 0.88643 0.76845 0.0
C2697 C 0.69423 0.93505 0.77298 0.0
C2698 C 0.67729 0.9324 0.77169 0.0
C2699 C 0.67023 0.91657 0.76978 0.0
C2700 C 0.66677 0.94596 0.77303 0.0
C2701 C 0.70259 0.95179 0.77403 0.0
C2702 C 0.66711 0.95596 0.78704 0.0
C2703 C 0.65801 0.96936 0.78808 0.0
C2704 C 0.64823 0.97294 0.77519 0.0
C2705 C 0.64736 0.96252 0.7614 0.0
C2706 C 0.65657 0.94911 0.76034 0.0
H2707 H 0.71533 0.95174 0.77009 0.0
H2708 H 0.69635 0.96013 0.76657 0.0
H2709 H 0.70257 0.95655 0.78667 0.0
H2710 H 0.6746 0.95351 0.79712 0.0
H2711 H 0.65882 0.97703 0.79894 0.0
H2712 H 0.64152 0.50947 0.9775 0.0
H2713 H 0.66309 0.53059 0.98241 0.0
H2714 H 0.66696 0.53722 0.93158 0.0
H2715 H 0.64532 0.51593 0.9265 0.0
H2716 H 0.69484 0.53327 0.97145 0.0
H2717 H 0.65949 0.58253 0.95065 0.0
H2718 H 0.65032 0.56279 0.95466 0.0
H2719 H 0.6614 0.56587 0.93647 0.0
C2720 C 0.64712 0.51522 0.96731 0.0
C2721 C 0.64172 0.51102 0.9516 0.0
C2722 C 0.65938 0.52734 0.97016 0.0
C2723 C 0.66646 0.53557 0.95738 0.0
C2724 C 0.66143 0.53119 0.94162 0.0
H2725 H 0.75212 0.60247 0.97127 0.0
H2726 H 0.73334 0.58015 0.96159 0.0
C2727 C 0.64909 0.51904 0.93875 0.0
C2728 C 0.67887 0.54895 0.96079 0.0
H2729 H 0.686 0.58979 0.95956 0.0
C2730 C 0.693 0.54563 0.96876 0.0
C2731 C 0.67628 0.56505 0.9574 0.0
C2732 C 0.66101 0.56938 0.94944 0.0
C2733 C 0.70454 0.55802 0.97365 0.0
C2734 C 0.70197 0.57411 0.97024 0.0
C2735 C 0.68795 0.57742 0.96207 0.0
C2736 C 0.7133 0.58779 0.97574 0.0
C2737 C 0.7191 0.55385 0.98294 0.0
C2738 C 0.70812 0.59967 0.98659 0.0
C2739 C 0.71877 0.6125 0.99208 0.0
C2740 C 0.73481 0.6137 0.98676 0.0
C2741 C 0.73989 0.60186 0.9757 0.0
C2742 C 0.7292 0.58905 0.9702 0.0
H2743 H 0.71745 0.54158 0.98768 0.0
H2744 H 0.72971 0.5542 0.97491 0.0
H2745 H 0.72175 0.5627 0.99314 0.0
H2746 H 0.69586 0.59891 0.99097 0.0
H2747 H 0.71445 0.62143 0.00055 0.0
H2748 H 0.2491 0.64829 0.22607 0.0
H2749 H 0.2324 0.62337 0.22995 0.0
H2750 H 0.19015 0.65024 0.23307 0.0
H2751 H 0.20683 0.67532 0.22969 0.0
H2752 H 0.19295 0.62964 0.25798 0.0
H2753 H 0.20092 0.59758 0.19905 0.0
H2754 H 0.21944 0.60468 0.20893 0.0
H2755 H 0.20596 0.61896 0.20239 0.0
C2756 C 0.23625 0.64889 0.22755 0.0
C2757 C 0.22929 0.66378 0.22761 0.0
C2758 C 0.22671 0.63462 0.22958 0.0
C2759 C 0.21003 0.63495 0.2316 0.0
C2760 C 0.203 0.64974 0.23142 0.0
H2761 H 0.13751 0.55512 0.2333 0.0
H2762 H 0.15509 0.57859 0.22647 0.0
C2763 C 0.21253 0.66403 0.22938 0.0
C2764 C 0.20005 0.62001 0.23489 0.0
H2765 H 0.18834 0.58221 0.21955 0.0
C2766 C 0.19189 0.61929 0.24956 0.0
C2767 C 0.19863 0.60659 0.22382 0.0
C2768 C 0.20657 0.60698 0.2076 0.0
C2769 C 0.18246 0.6054 0.25357 0.0
C2770 C 0.1814 0.59181 0.2427 0.0
C2771 C 0.18937 0.5926 0.22793 0.0
C2772 C 0.17155 0.57688 0.24627 0.0
C2773 C 0.17347 0.6055 0.26926 0.0
C2774 C 0.17525 0.56791 0.25943 0.0
C2775 C 0.16521 0.55449 0.26341 0.0
C2776 C 0.15133 0.54978 0.25424 0.0
C2777 C 0.14805 0.55845 0.24068 0.0
C2778 C 0.15809 0.57186 0.23672 0.0
H2779 H 0.17254 0.61795 0.27441 0.0
H2780 H 0.16115 0.59956 0.2677 0.0
H2781 H 0.17998 0.59874 0.27804 0.0
H2782 H 0.18577 0.57145 0.26676 0.0
H2783 H 0.16815 0.54802 0.27386 0.0
H2784 H 0.89127 0.52548 0.04311 0.0
H2785 H 0.87604 0.54792 0.03556 0.0
H2786 H 0.85505 0.55029 0.08273 0.0
H2787 H 0.87012 0.52761 0.09037 0.0
H2788 H 0.8417 0.54791 0.03631 0.0
H2789 H 0.87177 0.59772 0.07487 0.0
H2790 H 0.88095 0.57907 0.07029 0.0
H2791 H 0.86493 0.57964 0.08461 0.0
C2792 C 0.88336 0.5307 0.05188 0.0
C2793 C 0.88184 0.52468 0.06732 0.0
C2794 C 0.87476 0.5436 0.04757 0.0
C2795 C 0.86456 0.55085 0.05863 0.0
C2796 C 0.86309 0.54503 0.07412 0.0
H2797 H 0.79909 0.62626 0.04277 0.0
H2798 H 0.8153 0.60703 0.05569 0.0
C2799 C 0.8717 0.53208 0.07845 0.0
C2800 C 0.85486 0.56389 0.05352 0.0
H2801 H 0.85006 0.60421 0.05872 0.0
C2802 C 0.84349 0.56021 0.04124 0.0
C2803 C 0.85715 0.57987 0.06009 0.0
C2804 C 0.86942 0.58444 0.07313 0.0
C2805 C 0.83448 0.57213 0.03519 0.0
C2806 C 0.83714 0.58823 0.04136 0.0
C2807 C 0.84816 0.59187 0.05397 0.0
C2808 C 0.82889 0.60141 0.03436 0.0
C2809 C 0.82215 0.56739 0.02222 0.0
C2810 C 0.83168 0.60505 0.01832 0.0
C2811 C 0.82247 0.61594 0.01093 0.0
C2812 C 0.81037 0.62348 0.01948 0.0
C2813 C 0.80831 0.62061 0.03586 0.0
C2814 C 0.81753 0.60964 0.04325 0.0
H2815 H 0.81862 0.55423 0.02183 0.0
H2816 H 0.81117 0.57403 0.02405 0.0
H2817 H 0.82733 0.57042 0.0104 0.0
H2818 H 0.84061 0.59902 0.01135 0.0
H2819 H 0.82447 0.61799 0.99834 0.0
H2820 H 0.13492 0.05103 0.10426 0.0
H2821 H 0.14993 0.02679 0.10156 0.0
H2822 H 0.14667 0.02785 0.05007 0.0
H2823 H 0.13152 0.05176 0.0526 0.0
H2824 H 0.14006 0.99635 0.08543 0.0
H2825 H 0.19513 0.02534 0.05879 0.0
H2826 H 0.18046 0.03672 0.06933 0.0
H2827 H 0.17704 0.02984 0.04877 0.0
C2828 C 0.13739 0.04608 0.09236 0.0
C2829 C 0.13215 0.05345 0.07863 0.0
C2830 C 0.146 0.03228 0.09086 0.0
C2831 C 0.14961 0.02571 0.07562 0.0
C2832 C 0.14432 0.03296 0.06194 0.0
H2833 H 0.18536 0.94737 0.02432 0.0
H2834 H 0.17161 0.96999 0.03585 0.0
C2835 C 0.13571 0.04668 0.06341 0.0
C2836 C 0.15854 0.01102 0.07378 0.0
H2837 H 0.19119 0.99654 0.05501 0.0
C2838 C 0.1514 0.99639 0.07907 0.0
C2839 C 0.17338 0.01117 0.06557 0.0
C2840 C 0.18205 0.02664 0.06042 0.0
C2841 C 0.15827 0.98173 0.07544 0.0
C2842 C 0.17258 0.98183 0.06639 0.0
C2843 C 0.18012 0.99654 0.06185 0.0
C2844 C 0.17923 0.96681 0.06019 0.0
C2845 C 0.14982 0.96615 0.08052 0.0
C2846 C 0.18777 0.95732 0.07018 0.0
C2847 C 0.1957 0.9443 0.0636 0.0
C2848 C 0.19523 0.94071 0.04696 0.0
C2849 C 0.18603 0.94984 0.03717 0.0
C2850 C 0.17815 0.96278 0.04372 0.0
H2851 H 0.13831 0.96805 0.08678 0.0
H2852 H 0.14732 0.95784 0.06986 0.0
H2853 H 0.15778 0.96016 0.08868 0.0
H2854 H 0.18881 0.96037 0.08291 0.0
H2855 H 0.20274 0.93753 0.07144 0.0
loop_
_geom_bond_atom_site_label_1
_geom_bond_atom_site_label_2
_geom_bond_distance
_geom_bond_site_symmetry_2
_ccdc_geom_bond_type
C0 C1 1.391 . S
C0 C4 1.391 . S
C0 H42 0.948 . S
C1 C0 1.391 . S
C1 C2 1.391 . S
C2 C1 1.391 . S
C2 H58 0.947 . S
C2 C59 1.392 . S
C3 C4 1.391 . S
C3 C7 1.397 . S
C3 C59 1.419 . S
C4 C0 1.391 . S
C4 C3 1.391 . S
C4 C5 1.399 . S
C5 C4 1.399 . S
C5 C8 1.396 . S
C5 C17 1.453 . S
C5 C18 1.684 . S
H6 C30 0.948 . S
C7 C3 1.397 . S
C7 C8 1.394 . S
C7 C26 1.723 . S
C8 C5 1.396 . S
C8 C7 1.394 . S
C8 C38 1.723 . S
H9 C32 0.947 . S
H10 C33 0.948 . S
H11 C39 0.982 . S
H12 C40 0.979 . S
H13 C40 0.980 . S
H14 C40 0.983 . S
H15 C39 0.979 . S
H16 C39 0.977 . S
C17 C5 1.453 . S
C17 H46 0.982 . S
C17 H47 0.979 . S
C17 H48 0.977 . S
C18 C5 1.684 . S
C18 H43 0.979 . S
C18 H44 0.980 . S
C18 H45 0.983 . S
C19 C20 1.391 . S
C19 C24 1.391 . S
C19 H49 0.948 . S
C20 C19 1.391 . S
C20 C21 1.391 . S
C21 C20 1.391 . S
C21 C22 1.392 . S
C21 H50 0.947 . S
C22 C21 1.392 . S
C22 C23 1.419 . S
C22 H51 0.948 . S
C23 C22 1.419 . S
C23 C24 1.391 . S
C23 C27 1.397 . S
C24 C19 1.391 . S
C24 C23 1.391 . S
C24 C25 1.399 . S
C25 C24 1.399 . S
C25 C26 1.396 . S
C25 C28 1.453 . S
C25 C29 1.684 . S
C26 C7 1.723 . S
C26 C25 1.396 . S
C26 C27 1.394 . S
C27 C23 1.397 . S
C27 C26 1.394 . S
C27 C37 1.723 . S
C28 C25 1.453 . S
C28 H52 0.982 . S
C28 H53 0.979 . S
C28 H54 0.977 . S
C29 C25 1.684 . S
C29 H55 0.979 . S
C29 H56 0.980 . S
C29 H57 0.983 . S
C30 H6 0.948 . S
C30 C31 1.391 . S
C30 C35 1.391 . S
C31 C30 1.391 . S
C31 C32 1.391 . S
C32 H9 0.947 . S
C32 C31 1.391 . S
C32 C33 1.392 . S
C33 H10 0.948 . S
C33 C32 1.392 . S
C33 C34 1.419 . S
C34 C33 1.419 . S
C34 C35 1.391 . S
C34 C38 1.397 . S
C35 C30 1.391 . S
C35 C34 1.391 . S
C35 C36 1.399 . S
C36 C35 1.399 . S
C36 C37 1.396 . S
C36 C39 1.453 . S
C36 C40 1.684 . S
C37 C27 1.723 . S
C37 C36 1.396 . S
C37 C38 1.394 . S
C38 C8 1.723 . S
C38 C34 1.397 . S
C38 C37 1.394 . S
C39 H11 0.982 . S
C39 H15 0.979 . S
C39 H16 0.977 . S
C39 C36 1.453 . S
C40 H12 0.979 . S
C40 H13 0.980 . S
C40 H14 0.983 . S
C40 C36 1.684 . S
H41 C59 0.948 . S
H42 C0 0.948 . S
H43 C18 0.979 . S
H44 C18 0.980 . S
H45 C18 0.983 . S
H46 C17 0.982 . S
H47 C17 0.979 . S
H48 C17 0.977 . S
H49 C19 0.948 . S
H50 C21 0.947 . S
H51 C22 0.948 . S
H52 C28 0.982 . S
H53 C28 0.979 . S
H54 C28 0.977 . S
H55 C29 0.979 . S
H56 C29 0.980 . S
H57 C29 0.983 . S
H58 C2 0.947 . S
C59 C2 1.392 . S
C59 C3 1.419 . S
C59 H41 0.948 . S
C60 C61 1.391 . S
C60 C64 1.391 . S
C60 H102 0.948 . S
C61 C60 1.391 . S
C61 C62 1.391 . S
C62 C61 1.391 . S
C62 H118 0.947 . S
C62 C119 1.392 . S
C63 C64 1.391 . S
C63 C67 1.397 . S
C63 C119 1.419 . S
C64 C60 1.391 . S
C64 C63 1.391 . S
C64 C65 1.399 . S
C65 C64 1.399 . S
C65 C68 1.396 . S
C65 C77 1.453 . S
C65 C78 1.684 . S
H66 C90 0.948 . S
C67 C63 1.397 . S
C67 C68 1.394 . S
C67 C86 1.723 . S
C68 C65 1.396 . S
C68 C67 1.394 . S
C68 C98 1.723 . S
H69 C92 0.947 . S
H70 C93 0.948 . S
H71 C99 0.982 . S
H72 C100 0.979 . S
H73 C100 0.980 . S
H74 C100 0.983 . S
H75 C99 0.979 . S
H76 C99 0.977 . S
C77 C65 1.453 . S
C77 H106 0.982 . S
C77 H107 0.979 . S
C77 H108 0.977 . S
C78 C65 1.684 . S
C78 H103 0.979 . S
C78 H104 0.980 . S
C78 H105 0.983 . S
C79 C80 1.391 . S
C79 C84 1.391 . S
C79 H109 0.948 . S
C80 C79 1.391 . S
C80 C81 1.391 . S
C81 C80 1.391 . S
C81 C82 1.392 . S
C81 H110 0.947 . S
C82 C81 1.392 . S
C82 C83 1.419 . S
C82 H111 0.948 . S
C83 C82 1.419 . S
C83 C84 1.391 . S
C83 C87 1.397 . S
C84 C79 1.391 . S
C84 C83 1.391 . S
C84 C85 1.399 . S
C85 C84 1.399 . S
C85 C86 1.396 . S
C85 C88 1.453 . S
C85 C89 1.684 . S
C86 C67 1.723 . S
C86 C85 1.396 . S
C86 C87 1.394 . S
C87 C83 1.397 . S
C87 C86 1.394 . S
C87 C97 1.723 . S
C88 C85 1.453 . S
C88 H112 0.982 . S
C88 H113 0.979 . S
C88 H114 0.977 . S
C89 C85 1.684 . S
C89 H115 0.979 . S
C89 H116 0.980 . S
C89 H117 0.983 . S
C90 H66 0.948 . S
C90 C91 1.391 . S
C90 C95 1.391 . S
C91 C90 1.391 . S
C91 C92 1.391 . S
C92 H69 0.947 . S
C92 C91 1.391 . S
C92 C93 1.392 . S
C93 H70 0.948 . S
C93 C92 1.392 . S
C93 C94 1.419 . S
C94 C93 1.419 . S
C94 C95 1.391 . S
C94 C98 1.397 . S
C95 C90 1.391 . S
C95 C94 1.391 . S
C95 C96 1.399 . S
C96 C95 1.399 . S
C96 C97 1.396 . S
C96 C99 1.453 . S
C96 C100 1.684 . S
C97 C87 1.723 . S
C97 C96 1.396 . S
C97 C98 1.394 . S
C98 C68 1.723 . S
C98 C94 1.397 . S
C98 C97 1.394 . S
C99 H71 0.982 . S
C99 H75 0.979 . S
C99 H76 0.977 . S
C99 C96 1.453 . S
C100 H72 0.979 . S
C100 H73 0.980 . S
C100 H74 0.983 . S
C100 C96 1.684 . S
H101 C119 0.948 . S
H102 C60 0.948 . S
H103 C78 0.979 . S
H104 C78 0.980 . S
H105 C78 0.983 . S
H106 C77 0.982 . S
H107 C77 0.979 . S
H108 C77 0.977 . S
H109 C79 0.948 . S
H110 C81 0.947 . S
H111 C82 0.948 . S
H112 C88 0.982 . S
H113 C88 0.979 . S
H114 C88 0.977 . S
H115 C89 0.979 . S
H116 C89 0.980 . S
H117 C89 0.983 . S
H118 C62 0.947 . S
C119 C62 1.392 . S
C119 C63 1.419 . S
C119 H101 0.948 . S
C120 C121 1.391 . S
C120 C124 1.391 . S
C120 H162 0.948 . S
C121 C120 1.391 . S
C121 C122 1.391 . S
C122 C121 1.391 . S
C122 H178 0.947 . S
C122 C179 1.392 . S
C123 C124 1.391 . S
C123 C127 1.397 . S
C123 C179 1.419 . S
C124 C120 1.391 . S
C124 C123 1.391 . S
C124 C125 1.399 . S
C125 C124 1.399 . S
C125 C128 1.396 . S
C125 C137 1.453 . S
C125 C138 1.684 . S
H126 C150 0.948 . S
C127 C123 1.397 . S
C127 C128 1.394 . S
C127 C146 1.723 . S
C128 C125 1.396 . S
C128 C127 1.394 . S
C128 C158 1.723 . S
H129 C152 0.947 . S
H130 C153 0.948 . S
H131 C159 0.982 . S
H132 C160 0.979 . S
H133 C160 0.980 . S
H134 C160 0.983 . S
H135 C159 0.979 . S
H136 C159 0.977 . S
C137 C125 1.453 . S
C137 H166 0.982 . S
C137 H167 0.979 . S
C137 H168 0.977 . S
C138 C125 1.684 . S
C138 H163 0.979 . S
C138 H164 0.980 . S
C138 H165 0.983 . S
C139 C140 1.391 . S
C139 C144 1.391 . S
C139 H169 0.948 . S
C140 C139 1.391 . S
C140 C141 1.391 . S
C141 C140 1.391 . S
C141 C142 1.392 . S
C141 H170 0.947 . S
C142 C141 1.392 . S
C142 C143 1.419 . S
C142 H171 0.948 . S
C143 C142 1.419 . S
C143 C144 1.391 . S
C143 C147 1.397 . S
C144 C139 1.391 . S
C144 C143 1.391 . S
C144 C145 1.399 . S
C145 C144 1.399 . S
C145 C146 1.396 . S
C145 C148 1.453 . S
C145 C149 1.684 . S
C146 C127 1.723 . S
C146 C145 1.396 . S
C146 C147 1.394 . S
C147 C143 1.397 . S
C147 C146 1.394 . S
C147 C157 1.723 . S
C148 C145 1.453 . S
C148 H172 0.982 . S
C148 H173 0.979 . S
C148 H174 0.977 . S
C149 C145 1.684 . S
C149 H175 0.979 . S
C149 H176 0.980 . S
C149 H177 0.983 . S
C150 H126 0.948 . S
C150 C151 1.391 . S
C150 C155 1.391 . S
C151 C150 1.391 . S
C151 C152 1.391 . S
C152 H129 0.947 . S
C152 C151 1.391 . S
C152 C153 1.392 . S
C153 H130 0.948 . S
C153 C152 1.392 . S
C153 C154 1.419 . S
C154 C153 1.419 . S
C154 C155 1.391 . S
C154 C158 1.397 . S
C155 C150 1.391 . S
C155 C154 1.391 . S
C155 C156 1.399 . S
C156 C155 1.399 . S
C156 C157 1.396 . S
C156 C159 1.453 . S
C156 C160 1.684 . S
C157 C147 1.723 . S
C157 C156 1.396 . S
C157 C158 1.394 . S
C158 C128 1.723 . S
C158 C154 1.397 . S
C158 C157 1.394 . S
C159 H131 0.982 . S
C159 H135 0.979 . S
C159 H136 0.977 . S
C159 C156 1.453 . S
C160 H132 0.979 . S
C160 H133 0.980 . S
C160 H134 0.983 . S
C160 C156 1.684 . S
H161 C179 0.948 . S
H162 C120 0.948 . S
H163 C138 0.979 . S
H164 C138 0.980 . S
H165 C138 0.983 . S
H166 C137 0.982 . S
H167 C137 0.979 . S
H168 C137 0.977 . S
H169 C139 0.948 . S
H170 C141 0.947 . S
H171 C142 0.948 . S
H172 C148 0.982 . S
H173 C148 0.979 . S
H174 C148 0.977 . S
H175 C149 0.979 . S
H176 C149 0.980 . S
H177 C149 0.983 . S
H178 C122 0.947 . S
C179 C122 1.392 . S
C179 C123 1.419 . S
C179 H161 0.948 . S
C180 C181 1.391 . S
C180 C184 1.391 . S
C180 H222 0.948 . S
C181 C180 1.391 . S
C181 C182 1.391 . S
C182 C181 1.391 . S
C182 H238 0.947 . S
C182 C239 1.392 . S
C183 C184 1.391 . S
C183 C187 1.397 . S
C183 C239 1.419 . S
C184 C180 1.391 . S
C184 C183 1.391 . S
C184 C185 1.399 . S
C185 C184 1.399 . S
C185 C188 1.396 . S
C185 C197 1.453 . S
C185 C198 1.684 . S
H186 C210 0.948 . S
C187 C183 1.397 . S
C187 C188 1.394 . S
C187 C206 1.723 . S
C188 C185 1.396 . S
C188 C187 1.394 . S
C188 C218 1.723 . S
H189 C212 0.947 . S
H190 C213 0.948 . S
H191 C219 0.982 . S
H192 C220 0.979 . S
H193 C220 0.980 . S
H194 C220 0.983 . S
H195 C219 0.979 . S
H196 C219 0.977 . S
C197 C185 1.453 . S
C197 H226 0.982 . S
C197 H227 0.979 . S
C197 H228 0.977 . S
C198 C185 1.684 . S
C198 H223 0.979 . S
C198 H224 0.980 . S
C198 H225 0.983 . S
C199 C200 1.391 . S
C199 C204 1.391 . S
C199 H229 0.948 . S
C200 C199 1.391 . S
C200 C201 1.391 . S
C201 C200 1.391 . S
C201 C202 1.392 . S
C201 H230 0.947 . S
C202 C201 1.392 . S
C202 C203 1.419 . S
C202 H231 0.948 . S
C203 C202 1.419 . S
C203 C204 1.391 . S
C203 C207 1.397 . S
C204 C199 1.391 . S
C204 C203 1.391 . S
C204 C205 1.399 . S
C205 C204 1.399 . S
C205 C206 1.396 . S
C205 C208 1.453 . S
C205 C209 1.684 . S
C206 C187 1.723 . S
C206 C205 1.396 . S
C206 C207 1.394 . S
C207 C203 1.397 . S
C207 C206 1.394 . S
C207 C217 1.723 . S
C208 C205 1.453 . S
C208 H232 0.982 . S
C208 H233 0.979 . S
C208 H234 0.977 . S
C209 C205 1.684 . S
C209 H235 0.979 . S
C209 H236 0.980 . S
C209 H237 0.983 . S
C210 H186 0.948 . S
C210 C211 1.391 . S
C210 C215 1.391 . S
C211 C210 1.391 . S
C211 C212 1.391 . S
C212 H189 0.947 . S
C212 C211 1.391 . S
C212 C213 1.392 . S
C213 H190 0.948 . S
C213 C212 1.392 . S
C213 C214 1.419 . S
C214 C213 1.419 . S
C214 C215 1.391 . S
C214 C218 1.397 . S
C215 C210 1.391 . S
C215 C214 1.391 . S
C215 C216 1.399 . S
C216 C215 1.399 . S
C216 C217 1.396 . S
C216 C219 1.453 . S
C216 C220 1.684 . S
C217 C207 1.723 . S
C217 C216 1.396 . S
C217 C218 1.394 . S
C218 C188 1.723 . S
C218 C214 1.397 . S
C218 C217 1.394 . S
C219 H191 0.982 . S
C219 H195 0.979 . S
C219 H196 0.977 . S
C219 C216 1.453 . S
C220 H192 0.979 . S
C220 H193 0.980 . S
C220 H194 0.983 . S
C220 C216 1.684 . S
H221 C239 0.948 . S
H222 C180 0.948 . S
H223 C198 0.979 . S
H224 C198 0.980 . S
H225 C198 0.983 . S
H226 C197 0.982 . S
H227 C197 0.979 . S
H228 C197 0.977 . S
H229 C199 0.948 . S
H230 C201 0.947 . S
H231 C202 0.948 . S
H232 C208 0.982 . S
H233 C208 0.979 . S
H234 C208 0.977 . S
H235 C209 0.979 . S
H236 C209 0.980 . S
H237 C209 0.983 . S
H238 C182 0.947 . S
C239 C182 1.392 . S
C239 C183 1.419 . S
C239 H221 0.948 . S
C240 C241 1.391 . S
C240 C244 1.391 . S
C240 H282 0.948 . S
C241 C240 1.391 . S
C241 C242 1.391 . S
C242 C241 1.391 . S
C242 H298 0.947 . S
C242 C299 1.392 . S
C243 C244 1.391 . S
C243 C247 1.397 . S
C243 C299 1.419 . S
C244 C240 1.391 . S
C244 C243 1.391 . S
C244 C245 1.399 . S
C245 C244 1.399 . S
C245 C248 1.396 . S
C245 C257 1.453 . S
C245 C258 1.684 . S
H246 C270 0.948 1_545 S
C247 C243 1.397 . S
C247 C248 1.394 . S
C247 C266 1.723 . S
C248 C245 1.396 . S
C248 C247 1.394 . S
C248 C278 1.723 . S
H249 C272 0.947 . S
H250 C273 0.948 . S
H251 C279 0.982 . S
H252 C280 0.979 . S
H253 C280 0.980 . S
H254 C280 0.983 . S
H255 C279 0.979 1_545 S
H256 C279 0.977 . S
C257 C245 1.453 . S
C257 H286 0.982 . S
C257 H287 0.979 . S
C257 H288 0.977 . S
C258 C245 1.684 . S
C258 H283 0.979 . S
C258 H284 0.980 . S
C258 H285 0.983 . S
C259 C260 1.391 . S
C259 C264 1.391 . S
C259 H289 0.948 . S
C260 C259 1.391 . S
C260 C261 1.391 . S
C261 C260 1.391 . S
C261 C262 1.392 . S
C261 H290 0.947 . S
C262 C261 1.392 . S
C262 C263 1.419 . S
C262 H291 0.948 . S
C263 C262 1.419 . S
C263 C264 1.391 . S
C263 C267 1.397 . S
C264 C259 1.391 . S
C264 C263 1.391 . S
C264 C265 1.399 . S
C265 C264 1.399 . S
C265 C266 1.396 . S
C265 C268 1.453 . S
C265 C269 1.684 . S
C266 C247 1.723 . S
C266 C265 1.396 . S
C266 C267 1.394 . S
C267 C263 1.397 . S
C267 C266 1.394 . S
C267 C277 1.723 . S
C268 C265 1.453 . S
C268 H292 0.982 . S
C268 H293 0.979 . S
C268 H294 0.977 . S
C269 C265 1.684 . S
C269 H295 0.979 . S
C269 H296 0.980 . S
C269 H297 0.983 . S
C270 H246 0.948 1_565 S
C270 C271 1.391 . S
C270 C275 1.391 . S
C271 C270 1.391 . S
C271 C272 1.391 . S
C272 H249 0.947 . S
C272 C271 1.391 . S
C272 C273 1.392 . S
C273 H250 0.948 . S
C273 C272 1.392 . S
C273 C274 1.419 . S
C274 C273 1.419 . S
C274 C275 1.391 . S
C274 C278 1.397 . S
C275 C270 1.391 . S
C275 C274 1.391 . S
C275 C276 1.399 . S
C276 C275 1.399 . S
C276 C277 1.396 . S
C276 C279 1.453 . S
C276 C280 1.684 . S
C277 C267 1.723 . S
C277 C276 1.396 . S
C277 C278 1.394 . S
C278 C248 1.723 . S
C278 C274 1.397 . S
C278 C277 1.394 . S
C279 H251 0.982 . S
C279 H255 0.979 1_565 S
C279 H256 0.977 . S
C279 C276 1.453 . S
C280 H252 0.979 . S
C280 H253 0.980 . S
C280 H254 0.983 . S
C280 C276 1.684 . S
H281 C299 0.948 . S
H282 C240 0.948 . S
H283 C258 0.979 . S
H284 C258 0.980 . S
H285 C258 0.983 . S
H286 C257 0.982 . S
H287 C257 0.979 . S
H288 C257 0.977 . S
H289 C259 0.948 . S
H290 C261 0.947 . S
H291 C262 0.948 . S
H292 C268 0.982 . S
H293 C268 0.979 . S
H294 C268 0.977 . S
H295 C269 0.979 . S
H296 C269 0.980 . S
H297 C269 0.983 . S
H298 C242 0.947 . S
C299 C242 1.392 . S
C299 C243 1.419 . S
C299 H281 0.948 . S
C300 C301 1.391 . S
C300 C304 1.391 . S
C300 H342 0.948 . S
C301 C300 1.391 . S
C301 C302 1.391 . S
C302 C301 1.391 . S
C302 H358 0.947 . S
C302 C359 1.392 . S
C303 C304 1.391 . S
C303 C307 1.397 . S
C303 C359 1.419 . S
C304 C300 1.391 . S
C304 C303 1.391 . S
C304 C305 1.399 . S
C305 C304 1.399 . S
C305 C308 1.396 . S
C305 C317 1.453 . S
C305 C318 1.684 . S
H306 C330 0.948 . S
C307 C303 1.397 . S
C307 C308 1.394 . S
C307 C326 1.723 . S
C308 C305 1.396 . S
C308 C307 1.394 . S
C308 C338 1.723 . S
H309 C332 0.947 . S
H310 C333 0.948 . S
H311 C339 0.982 . S
H312 C340 0.979 . S
H313 C340 0.980 . S
H314 C340 0.983 . S
H315 C339 0.979 . S
H316 C339 0.977 . S
C317 C305 1.453 . S
C317 H346 0.982 . S
C317 H347 0.979 . S
C317 H348 0.977 . S
C318 C305 1.684 . S
C318 H343 0.979 . S
C318 H344 0.980 . S
C318 H345 0.983 . S
C319 C320 1.391 . S
C319 C324 1.391 . S
C319 H349 0.948 . S
C320 C319 1.391 . S
C320 C321 1.391 . S
C321 C320 1.391 . S
C321 C322 1.392 . S
C321 H350 0.947 . S
C322 C321 1.392 . S
C322 C323 1.419 . S
C322 H351 0.948 . S
C323 C322 1.419 . S
C323 C324 1.391 . S
C323 C327 1.397 . S
C324 C319 1.391 . S
C324 C323 1.391 . S
C324 C325 1.399 . S
C325 C324 1.399 . S
C325 C326 1.396 . S
C325 C328 1.453 . S
C325 C329 1.684 . S
C326 C307 1.723 . S
C326 C325 1.396 . S
C326 C327 1.394 . S
C327 C323 1.397 . S
C327 C326 1.394 . S
C327 C337 1.723 . S
C328 C325 1.453 . S
C328 H352 0.982 . S
C328 H353 0.979 . S
C328 H354 0.977 . S
C329 C325 1.684 . S
C329 H355 0.979 . S
C329 H356 0.980 . S
C329 H357 0.983 . S
C330 H306 0.948 . S
C330 C331 1.391 . S
C330 C335 1.391 . S
C331 C330 1.391 . S
C331 C332 1.391 . S
C332 H309 0.947 . S
C332 C331 1.391 . S
C332 C333 1.392 . S
C333 H310 0.948 . S
C333 C332 1.392 . S
C333 C334 1.419 . S
C334 C333 1.419 . S
C334 C335 1.391 . S
C334 C338 1.397 . S
C335 C330 1.391 . S
C335 C334 1.391 . S
C335 C336 1.399 . S
C336 C335 1.399 . S
C336 C337 1.396 . S
C336 C339 1.453 . S
C336 C340 1.684 . S
C337 C327 1.723 . S
C337 C336 1.396 . S
C337 C338 1.394 . S
C338 C308 1.723 . S
C338 C334 1.397 . S
C338 C337 1.394 . S
C339 H311 0.982 . S
C339 H315 0.979 . S
C339 H316 0.977 . S
C339 C336 1.453 . S
C340 H312 0.979 . S
C340 H313 0.980 . S
C340 H314 0.983 . S
C340 C336 1.684 . S
H341 C359 0.948 . S
H342 C300 0.948 . S
H343 C318 0.979 . S
H344 C318 0.980 . S
H345 C318 0.983 . S
H346 C317 0.982 . S
H347 C317 0.979 . S
H348 C317 0.977 . S
H349 C319 0.948 . S
H350 C321 0.947 . S
H351 C322 0.948 . S
H352 C328 0.982 . S
H353 C328 0.979 . S
H354 C328 0.977 . S
H355 C329 0.979 . S
H356 C329 0.980 . S
H357 C329 0.983 . S
H358 C302 0.947 . S
C359 C302 1.392 . S
C359 C303 1.419 . S
C359 H341 0.948 . S
C360 C361 1.391 . S
C360 C364 1.391 . S
C360 H402 0.948 . S
C361 C360 1.391 . S
C361 C362 1.391 . S
C362 C361 1.391 . S
C362 H418 0.947 . S
C362 C419 1.392 . S
C363 C364 1.391 . S
C363 C367 1.397 . S
C363 C419 1.419 . S
C364 C360 1.391 . S
C364 C363 1.391 . S
C364 C365 1.399 . S
C365 C364 1.399 . S
C365 C368 1.396 . S
C365 C377 1.453 . S
C365 C378 1.684 . S
H366 C390 0.948 . S
C367 C363 1.397 . S
C367 C368 1.394 . S
C367 C386 1.723 . S
C368 C365 1.396 . S
C368 C367 1.394 . S
C368 C398 1.723 . S
H369 C392 0.947 . S
H370 C393 0.948 . S
H371 C399 0.982 . S
H372 C400 0.979 . S
H373 C400 0.980 . S
H374 C400 0.983 . S
H375 C399 0.979 . S
H376 C399 0.977 . S
C377 C365 1.453 . S
C377 H406 0.982 . S
C377 H407 0.979 . S
C377 H408 0.977 . S
C378 C365 1.684 . S
C378 H403 0.979 . S
C378 H404 0.980 . S
C378 H405 0.983 . S
C379 C380 1.391 . S
C379 C384 1.391 . S
C379 H409 0.948 . S
C380 C379 1.391 . S
C380 C381 1.391 . S
C381 C380 1.391 . S
C381 C382 1.392 . S
C381 H410 0.947 . S
C382 C381 1.392 . S
C382 C383 1.419 . S
C382 H411 0.948 . S
C383 C382 1.419 . S
C383 C384 1.391 . S
C383 C387 1.397 . S
C384 C379 1.391 . S
C384 C383 1.391 . S
C384 C385 1.399 . S
C385 C384 1.399 . S
C385 C386 1.396 . S
C385 C388 1.453 . S
C385 C389 1.684 . S
C386 C367 1.723 . S
C386 C385 1.396 . S
C386 C387 1.394 . S
C387 C383 1.397 . S
C387 C386 1.394 . S
C387 C397 1.723 . S
C388 C385 1.453 . S
C388 H412 0.982 . S
C388 H413 0.979 . S
C388 H414 0.977 . S
C389 C385 1.684 . S
C389 H415 0.979 . S
C389 H416 0.980 . S
C389 H417 0.983 . S
C390 H366 0.948 . S
C390 C391 1.391 . S
C390 C395 1.391 . S
C391 C390 1.391 . S
C391 C392 1.391 . S
C392 H369 0.947 . S
C392 C391 1.391 . S
C392 C393 1.392 . S
C393 H370 0.948 . S
C393 C392 1.392 . S
C393 C394 1.419 . S
C394 C393 1.419 . S
C394 C395 1.391 . S
C394 C398 1.397 . S
C395 C390 1.391 . S
C395 C394 1.391 . S
C395 C396 1.399 . S
C396 C395 1.399 . S
C396 C397 1.396 . S
C396 C399 1.453 . S
C396 C400 1.684 . S
C397 C387 1.723 . S
C397 C396 1.396 . S
C397 C398 1.394 . S
C398 C368 1.723 . S
C398 C394 1.397 . S
C398 C397 1.394 . S
C399 H371 0.982 . S
C399 H375 0.979 . S
C399 H376 0.977 . S
C399 C396 1.453 . S
C400 H372 0.979 . S
C400 H373 0.980 . S
C400 H374 0.983 . S
C400 C396 1.684 . S
H401 C419 0.948 . S
H402 C360 0.948 . S
H403 C378 0.979 . S
H404 C378 0.980 . S
H405 C378 0.983 . S
H406 C377 0.982 . S
H407 C377 0.979 . S
H408 C377 0.977 . S
H409 C379 0.948 . S
H410 C381 0.947 . S
H411 C382 0.948 . S
H412 C388 0.982 . S
H413 C388 0.979 . S
H414 C388 0.977 . S
H415 C389 0.979 . S
H416 C389 0.980 . S
H417 C389 0.983 . S
H418 C362 0.947 . S
C419 C362 1.392 . S
C419 C363 1.419 . S
C419 H401 0.948 . S
C420 C421 1.391 . S
C420 C424 1.391 . S
C420 H462 0.948 . S
C421 C420 1.391 . S
C421 C422 1.391 . S
C422 C421 1.391 . S
C422 H478 0.947 . S
C422 C479 1.392 . S
C423 C424 1.391 . S
C423 C427 1.397 . S
C423 C479 1.419 . S
C424 C420 1.391 . S
C424 C423 1.391 . S
C424 C425 1.399 . S
C425 C424 1.399 . S
C425 C428 1.396 . S
C425 C437 1.453 . S
C425 C438 1.684 . S
H426 C450 0.948 . S
C427 C423 1.397 . S
C427 C428 1.394 . S
C427 C446 1.723 . S
C428 C425 1.396 . S
C428 C427 1.394 . S
C428 C458 1.723 . S
H429 C452 0.947 . S
H430 C453 0.948 . S
H431 C459 0.982 . S
H432 C460 0.979 . S
H433 C460 0.980 . S
H434 C460 0.983 . S
H435 C459 0.979 . S
H436 C459 0.977 . S
C437 C425 1.453 . S
C437 H466 0.982 . S
C437 H467 0.979 . S
C437 H468 0.977 . S
C438 C425 1.684 . S
C438 H463 0.979 . S
C438 H464 0.980 . S
C438 H465 0.983 . S
C439 C440 1.391 . S
C439 C444 1.391 . S
C439 H469 0.948 . S
C440 C439 1.391 . S
C440 C441 1.391 . S
C441 C440 1.391 . S
C441 C442 1.392 . S
C441 H470 0.947 . S
C442 C441 1.392 . S
C442 C443 1.419 . S
C442 H471 0.948 . S
C443 C442 1.419 . S
C443 C444 1.391 . S
C443 C447 1.397 . S
C444 C439 1.391 . S
C444 C443 1.391 . S
C444 C445 1.399 . S
C445 C444 1.399 . S
C445 C446 1.396 . S
C445 C448 1.453 . S
C445 C449 1.684 . S
C446 C427 1.723 . S
C446 C445 1.396 . S
C446 C447 1.394 . S
C447 C443 1.397 . S
C447 C446 1.394 . S
C447 C457 1.723 . S
C448 C445 1.453 . S
C448 H472 0.982 . S
C448 H473 0.979 . S
C448 H474 0.977 . S
C449 C445 1.684 . S
C449 H475 0.979 . S
C449 H476 0.980 . S
C449 H477 0.983 . S
C450 H426 0.948 . S
C450 C451 1.391 . S
C450 C455 1.391 . S
C451 C450 1.391 . S
C451 C452 1.391 . S
C452 H429 0.947 . S
C452 C451 1.391 . S
C452 C453 1.392 . S
C453 H430 0.948 . S
C453 C452 1.392 . S
C453 C454 1.419 . S
C454 C453 1.419 . S
C454 C455 1.391 . S
C454 C458 1.397 . S
C455 C450 1.391 . S
C455 C454 1.391 . S
C455 C456 1.399 . S
C456 C455 1.399 . S
C456 C457 1.396 . S
C456 C459 1.453 . S
C456 C460 1.684 . S
C457 C447 1.723 . S
C457 C456 1.396 . S
C457 C458 1.394 . S
C458 C428 1.723 . S
C458 C454 1.397 . S
C458 C457 1.394 . S
C459 H431 0.982 . S
C459 H435 0.979 . S
C459 H436 0.977 . S
C459 C456 1.453 . S
C460 H432 0.979 . S
C460 H433 0.980 . S
C460 H434 0.983 . S
C460 C456 1.684 . S
H461 C479 0.948 . S
H462 C420 0.948 . S
H463 C438 0.979 . S
H464 C438 0.980 . S
H465 C438 0.983 . S
H466 C437 0.982 . S
H467 C437 0.979 . S
H468 C437 0.977 . S
H469 C439 0.948 . S
H470 C441 0.947 . S
H471 C442 0.948 . S
H472 C448 0.982 . S
H473 C448 0.979 . S
H474 C448 0.977 . S
H475 C449 0.979 . S
H476 C449 0.980 . S
H477 C449 0.983 . S
H478 C422 0.947 . S
C479 C422 1.392 . S
C479 C423 1.419 . S
C479 H461 0.948 . S
C480 C481 1.391 . S
C480 C484 1.391 . S
C480 H522 0.948 . S
C481 C480 1.391 . S
C481 C482 1.391 . S
C482 C481 1.391 . S
C482 H538 0.947 . S
C482 C539 1.392 . S
C483 C484 1.391 . S
C483 C487 1.397 . S
C483 C539 1.419 . S
C484 C480 1.391 . S
C484 C483 1.391 . S
C484 C485 1.399 . S
C485 C484 1.399 . S
C485 C488 1.396 . S
C485 C497 1.453 . S
C485 C498 1.684 . S
H486 C510 0.948 . S
C487 C483 1.397 . S
C487 C488 1.394 . S
C487 C506 1.723 . S
C488 C485 1.396 . S
C488 C487 1.394 . S
C488 C518 1.723 . S
H489 C512 0.947 . S
H490 C513 0.948 . S
H491 C519 0.982 . S
H492 C520 0.979 . S
H493 C520 0.980 . S
H494 C520 0.983 . S
H495 C519 0.979 . S
H496 C519 0.977 . S
C497 C485 1.453 . S
C497 H526 0.982 . S
C497 H527 0.979 . S
C497 H528 0.977 . S
C498 C485 1.684 . S
C498 H523 0.979 . S
C498 H524 0.980 . S
C498 H525 0.983 . S
C499 C500 1.391 . S
C499 C504 1.391 . S
C499 H529 0.948 . S
C500 C499 1.391 . S
C500 C501 1.391 . S
C501 C500 1.391 . S
C501 C502 1.392 . S
C501 H530 0.947 . S
C502 C501 1.392 . S
C502 C503 1.419 . S
C502 H531 0.948 . S
C503 C502 1.419 . S
C503 C504 1.391 . S
C503 C507 1.397 . S
C504 C499 1.391 . S
C504 C503 1.391 . S
C504 C505 1.399 . S
C505 C504 1.399 . S
C505 C506 1.396 . S
C505 C508 1.453 . S
C505 C509 1.684 . S
C506 C487 1.723 . S
C506 C505 1.396 . S
C506 C507 1.394 . S
C507 C503 1.397 . S
C507 C506 1.394 . S
C507 C517 1.723 . S
C508 C505 1.453 . S
C508 H532 0.982 . S
C508 H533 0.979 . S
C508 H534 0.977 . S
C509 C505 1.684 . S
C509 H535 0.979 . S
C509 H536 0.980 . S
C509 H537 0.983 . S
C510 H486 0.948 . S
C510 C511 1.391 . S
C510 C515 1.391 . S
C511 C510 1.391 . S
C511 C512 1.391 . S
C512 H489 0.947 . S
C512 C511 1.391 . S
C512 C513 1.392 . S
C513 H490 0.948 . S
C513 C512 1.392 . S
C513 C514 1.419 . S
C514 C513 1.419 . S
C514 C515 1.391 . S
C514 C518 1.397 . S
C515 C510 1.391 . S
C515 C514 1.391 . S
C515 C516 1.399 . S
C516 C515 1.399 . S
C516 C517 1.396 . S
C516 C519 1.453 . S
C516 C520 1.684 . S
C517 C507 1.723 . S
C517 C516 1.396 . S
C517 C518 1.394 . S
C518 C488 1.723 . S
C518 C514 1.397 . S
C518 C517 1.394 . S
C519 H491 0.982 . S
C519 H495 0.979 . S
C519 H496 0.977 . S
C519 C516 1.453 . S
C520 H492 0.979 . S
C520 H493 0.980 . S
C520 H494 0.983 . S
C520 C516 1.684 . S
H521 C539 0.948 . S
H522 C480 0.948 . S
H523 C498 0.979 . S
H524 C498 0.980 . S
H525 C498 0.983 . S
H526 C497 0.982 . S
H527 C497 0.979 . S
H528 C497 0.977 . S
H529 C499 0.948 . S
H530 C501 0.947 . S
H531 C502 0.948 . S
H532 C508 0.982 . S
H533 C508 0.979 . S
H534 C508 0.977 . S
H535 C509 0.979 . S
H536 C509 0.980 . S
H537 C509 0.983 . S
H538 C482 0.947 . S
C539 C482 1.392 . S
C539 C483 1.419 . S
C539 H521 0.948 . S
C540 C541 1.391 . S
C540 C544 1.391 . S
C540 H582 0.948 . S
C541 C540 1.391 . S
C541 C542 1.391 . S
C542 C541 1.391 . S
C542 H598 0.947 . S
C542 C599 1.392 . S
C543 C544 1.391 . S
C543 C547 1.397 . S
C543 C599 1.419 . S
C544 C540 1.391 . S
C544 C543 1.391 . S
C544 C545 1.399 . S
C545 C544 1.399 . S
C545 C548 1.396 . S
C545 C557 1.453 . S
C545 C558 1.684 . S
H546 C570 0.948 . S
C547 C543 1.397 . S
C547 C548 1.394 . S
C547 C566 1.723 . S
C548 C545 1.396 . S
C548 C547 1.394 . S
C548 C578 1.723 . S
H549 C572 0.947 . S
H550 C573 0.948 . S
H551 C579 0.982 . S
H552 C580 0.979 . S
H553 C580 0.980 . S
H554 C580 0.983 . S
H555 C579 0.979 . S
H556 C579 0.977 . S
C557 C545 1.453 . S
C557 H586 0.982 . S
C557 H587 0.979 . S
C557 H588 0.977 . S
C558 C545 1.684 . S
C558 H583 0.979 . S
C558 H584 0.980 . S
C558 H585 0.983 . S
C559 C560 1.391 . S
C559 C564 1.391 . S
C559 H589 0.948 . S
C560 C559 1.391 . S
C560 C561 1.391 . S
C561 C560 1.391 . S
C561 C562 1.392 . S
C561 H590 0.947 . S
C562 C561 1.392 . S
C562 C563 1.419 . S
C562 H591 0.948 . S
C563 C562 1.419 . S
C563 C564 1.391 . S
C563 C567 1.397 . S
C564 C559 1.391 . S
C564 C563 1.391 . S
C564 C565 1.399 . S
C565 C564 1.399 . S
C565 C566 1.396 . S
C565 C568 1.453 . S
C565 C569 1.684 . S
C566 C547 1.723 . S
C566 C565 1.396 . S
C566 C567 1.394 . S
C567 C563 1.397 . S
C567 C566 1.394 . S
C567 C577 1.723 . S
C568 C565 1.453 . S
C568 H592 0.982 . S
C568 H593 0.979 . S
C568 H594 0.977 . S
C569 C565 1.684 . S
C569 H595 0.979 . S
C569 H596 0.980 . S
C569 H597 0.983 . S
C570 H546 0.948 . S
C570 C571 1.391 . S
C570 C575 1.391 . S
C571 C570 1.391 . S
C571 C572 1.391 . S
C572 H549 0.947 . S
C572 C571 1.391 . S
C572 C573 1.392 . S
C573 H550 0.948 . S
C573 C572 1.392 . S
C573 C574 1.419 . S
C574 C573 1.419 . S
C574 C575 1.391 . S
C574 C578 1.397 . S
C575 C570 1.391 . S
C575 C574 1.391 . S
C575 C576 1.399 . S
C576 C575 1.399 . S
C576 C577 1.396 . S
C576 C579 1.453 . S
C576 C580 1.684 . S
C577 C567 1.723 . S
C577 C576 1.396 . S
C577 C578 1.394 . S
C578 C548 1.723 . S
C578 C574 1.397 . S
C578 C577 1.394 . S
C579 H551 0.982 . S
C579 H555 0.979 . S
C579 H556 0.977 . S
C579 C576 1.453 . S
C580 H552 0.979 . S
C580 H553 0.980 . S
C580 H554 0.983 . S
C580 C576 1.684 . S
H581 C599 0.948 . S
H582 C540 0.948 . S
H583 C558 0.979 . S
H584 C558 0.980 . S
H585 C558 0.983 . S
H586 C557 0.982 . S
H587 C557 0.979 . S
H588 C557 0.977 . S
H589 C559 0.948 . S
H590 C561 0.947 . S
H591 C562 0.948 . S
H592 C568 0.982 . S
H593 C568 0.979 . S
H594 C568 0.977 . S
H595 C569 0.979 . S
H596 C569 0.980 . S
H597 C569 0.983 . S
H598 C542 0.947 . S
C599 C542 1.392 . S
C599 C543 1.419 . S
C599 H581 0.948 . S
C600 C601 1.391 . S
C600 C604 1.391 . S
C600 H642 0.948 . S
C601 C600 1.391 . S
C601 C602 1.391 . S
C602 C601 1.391 . S
C602 H658 0.947 . S
C602 C659 1.392 . S
C603 C604 1.391 . S
C603 C607 1.397 . S
C603 C659 1.419 . S
C604 C600 1.391 . S
C604 C603 1.391 . S
C604 C605 1.399 . S
C605 C604 1.399 . S
C605 C608 1.396 . S
C605 C617 1.453 . S
C605 C618 1.684 . S
H606 C630 0.948 . S
C607 C603 1.397 . S
C607 C608 1.394 . S
C607 C626 1.723 . S
C608 C605 1.396 . S
C608 C607 1.394 . S
C608 C638 1.723 . S
H609 C632 0.947 . S
H610 C633 0.948 . S
H611 C639 0.982 . S
H612 C640 0.979 . S
H613 C640 0.980 . S
H614 C640 0.983 . S
H615 C639 0.979 . S
H616 C639 0.977 . S
C617 C605 1.453 . S
C617 H646 0.982 . S
C617 H647 0.979 . S
C617 H648 0.977 . S
C618 C605 1.684 . S
C618 H643 0.979 . S
C618 H644 0.980 . S
C618 H645 0.983 . S
C619 C620 1.391 . S
C619 C624 1.391 . S
C619 H649 0.948 . S
C620 C619 1.391 . S
C620 C621 1.391 . S
C621 C620 1.391 . S
C621 C622 1.392 . S
C621 H650 0.947 . S
C622 C621 1.392 . S
C622 C623 1.419 . S
C622 H651 0.948 . S
C623 C622 1.419 . S
C623 C624 1.391 . S
C623 C627 1.397 . S
C624 C619 1.391 . S
C624 C623 1.391 . S
C624 C625 1.399 . S
C625 C624 1.399 . S
C625 C626 1.396 . S
C625 C628 1.453 . S
C625 C629 1.684 . S
C626 C607 1.723 . S
C626 C625 1.396 . S
C626 C627 1.394 . S
C627 C623 1.397 . S
C627 C626 1.394 . S
C627 C637 1.723 . S
C628 C625 1.453 . S
C628 H652 0.982 . S
C628 H653 0.979 . S
C628 H654 0.977 . S
C629 C625 1.684 . S
C629 H655 0.979 . S
C629 H656 0.980 . S
C629 H657 0.983 . S
C630 H606 0.948 . S
C630 C631 1.391 . S
C630 C635 1.391 . S
C631 C630 1.391 . S
C631 C632 1.391 . S
C632 H609 0.947 . S
C632 C631 1.391 . S
C632 C633 1.392 . S
C633 H610 0.948 . S
C633 C632 1.392 . S
C633 C634 1.419 . S
C634 C633 1.419 . S
C634 C635 1.391 . S
C634 C638 1.397 . S
C635 C630 1.391 . S
C635 C634 1.391 . S
C635 C636 1.399 . S
C636 C635 1.399 . S
C636 C637 1.396 . S
C636 C639 1.453 . S
C636 C640 1.684 . S
C637 C627 1.723 . S
C637 C636 1.396 . S
C637 C638 1.394 . S
C638 C608 1.723 . S
C638 C634 1.397 . S
C638 C637 1.394 . S
C639 H611 0.982 . S
C639 H615 0.979 . S
C639 H616 0.977 . S
C639 C636 1.453 . S
C640 H612 0.979 . S
C640 H613 0.980 . S
C640 H614 0.983 . S
C640 C636 1.684 . S
H641 C659 0.948 . S
H642 C600 0.948 . S
H643 C618 0.979 . S
H644 C618 0.980 . S
H645 C618 0.983 . S
H646 C617 0.982 . S
H647 C617 0.979 . S
H648 C617 0.977 . S
H649 C619 0.948 . S
H650 C621 0.947 . S
H651 C622 0.948 . S
H652 C628 0.982 . S
H653 C628 0.979 . S
H654 C628 0.977 . S
H655 C629 0.979 . S
H656 C629 0.980 . S
H657 C629 0.983 . S
H658 C602 0.947 . S
C659 C602 1.392 . S
C659 C603 1.419 . S
C659 H641 0.948 . S
C660 C661 1.391 . S
C660 C664 1.391 . S
C660 H702 0.948 . S
C661 C660 1.391 . S
C661 C662 1.391 . S
C662 C661 1.391 . S
C662 H718 0.947 . S
C662 C719 1.392 . S
C663 C664 1.391 . S
C663 C667 1.397 . S
C663 C719 1.419 . S
C664 C660 1.391 . S
C664 C663 1.391 . S
C664 C665 1.399 . S
C665 C664 1.399 . S
C665 C668 1.396 . S
C665 C677 1.453 . S
C665 C678 1.684 . S
H666 C690 0.948 . S
C667 C663 1.397 . S
C667 C668 1.394 . S
C667 C686 1.723 . S
C668 C665 1.396 . S
C668 C667 1.394 . S
C668 C698 1.723 . S
H669 C692 0.947 . S
H670 C693 0.948 . S
H671 C699 0.982 . S
H672 C700 0.979 . S
H673 C700 0.980 . S
H674 C700 0.983 . S
H675 C699 0.979 . S
H676 C699 0.977 . S
C677 C665 1.453 . S
C677 H706 0.982 . S
C677 H707 0.979 . S
C677 H708 0.977 . S
C678 C665 1.684 . S
C678 H703 0.979 . S
C678 H704 0.980 . S
C678 H705 0.983 . S
C679 C680 1.391 . S
C679 C684 1.391 . S
C679 H709 0.948 . S
C680 C679 1.391 . S
C680 C681 1.391 . S
C681 C680 1.391 . S
C681 C682 1.392 . S
C681 H710 0.947 . S
C682 C681 1.392 . S
C682 C683 1.419 . S
C682 H711 0.948 . S
C683 C682 1.419 . S
C683 C684 1.391 . S
C683 C687 1.397 . S
C684 C679 1.391 . S
C684 C683 1.391 . S
C684 C685 1.399 . S
C685 C684 1.399 . S
C685 C686 1.396 . S
C685 C688 1.453 . S
C685 C689 1.684 . S
C686 C667 1.723 . S
C686 C685 1.396 . S
C686 C687 1.394 . S
C687 C683 1.397 . S
C687 C686 1.394 . S
C687 C697 1.723 . S
C688 C685 1.453 . S
C688 H712 0.982 . S
C688 H713 0.979 . S
C688 H714 0.977 . S
C689 C685 1.684 . S
C689 H715 0.979 . S
C689 H716 0.980 . S
C689 H717 0.983 . S
C690 H666 0.948 . S
C690 C691 1.391 . S
C690 C695 1.391 . S
C691 C690 1.391 . S
C691 C692 1.391 . S
C692 H669 0.947 . S
C692 C691 1.391 . S
C692 C693 1.392 . S
C693 H670 0.948 . S
C693 C692 1.392 . S
C693 C694 1.419 . S
C694 C693 1.419 . S
C694 C695 1.391 . S
C694 C698 1.397 . S
C695 C690 1.391 . S
C695 C694 1.391 . S
C695 C696 1.399 . S
C696 C695 1.399 . S
C696 C697 1.396 . S
C696 C699 1.453 . S
C696 C700 1.684 . S
C697 C687 1.723 . S
C697 C696 1.396 . S
C697 C698 1.394 . S
C698 C668 1.723 . S
C698 C694 1.397 . S
C698 C697 1.394 . S
C699 H671 0.982 . S
C699 H675 0.979 . S
C699 H676 0.977 . S
C699 C696 1.453 . S
C700 H672 0.979 . S
C700 H673 0.980 . S
C700 H674 0.983 . S
C700 C696 1.684 . S
H701 C719 0.948 . S
H702 C660 0.948 . S
H703 C678 0.979 . S
H704 C678 0.980 . S
H705 C678 0.983 . S
H706 C677 0.982 . S
H707 C677 0.979 . S
H708 C677 0.977 . S
H709 C679 0.948 . S
H710 C681 0.947 . S
H711 C682 0.948 . S
H712 C688 0.982 . S
H713 C688 0.979 . S
H714 C688 0.977 . S
H715 C689 0.979 . S
H716 C689 0.980 . S
H717 C689 0.983 . S
H718 C662 0.947 . S
C719 C662 1.392 . S
C719 C663 1.419 . S
C719 H701 0.948 . S
C720 C721 1.391 . S
C720 C724 1.391 . S
C720 H762 0.948 . S
C721 C720 1.391 . S
C721 C722 1.391 . S
C722 C721 1.391 . S
C722 H778 0.947 . S
C722 C779 1.392 . S
C723 C724 1.391 . S
C723 C727 1.397 . S
C723 C779 1.419 . S
C724 C720 1.391 . S
C724 C723 1.391 . S
C724 C725 1.399 . S
C725 C724 1.399 . S
C725 C728 1.396 . S
C725 C737 1.453 . S
C725 C738 1.684 . S
H726 C750 0.948 . S
C727 C723 1.397 . S
C727 C728 1.394 . S
C727 C746 1.723 . S
C728 C725 1.396 . S
C728 C727 1.394 . S
C728 C758 1.723 . S
H729 C752 0.947 . S
H730 C753 0.948 . S
H731 C759 0.982 . S
H732 C760 0.979 . S
H733 C760 0.980 . S
H734 C760 0.983 . S
H735 C759 0.979 . S
H736 C759 0.977 . S
C737 C725 1.453 . S
C737 H766 0.982 . S
C737 H767 0.979 . S
C737 H768 0.977 . S
C738 C725 1.684 . S
C738 H763 0.979 . S
C738 H764 0.980 . S
C738 H765 0.983 . S
C739 C740 1.391 . S
C739 C744 1.391 . S
C739 H769 0.948 . S
C740 C739 1.391 . S
C740 C741 1.391 . S
C741 C740 1.391 . S
C741 C742 1.392 . S
C741 H770 0.947 . S
C742 C741 1.392 . S
C742 C743 1.419 . S
C742 H771 0.948 . S
C743 C742 1.419 . S
C743 C744 1.391 . S
C743 C747 1.397 . S
C744 C739 1.391 . S
C744 C743 1.391 . S
C744 C745 1.399 . S
C745 C744 1.399 . S
C745 C746 1.396 . S
C745 C748 1.453 . S
C745 C749 1.684 . S
C746 C727 1.723 . S
C746 C745 1.396 . S
C746 C747 1.394 . S
C747 C743 1.397 . S
C747 C746 1.394 . S
C747 C757 1.723 . S
C748 C745 1.453 . S
C748 H772 0.982 . S
C748 H773 0.979 . S
C748 H774 0.977 . S
C749 C745 1.684 . S
C749 H775 0.979 . S
C749 H776 0.980 . S
C749 H777 0.983 . S
C750 H726 0.948 . S
C750 C751 1.391 . S
C750 C755 1.391 . S
C751 C750 1.391 . S
C751 C752 1.391 . S
C752 H729 0.947 . S
C752 C751 1.391 . S
C752 C753 1.392 . S
C753 H730 0.948 . S
C753 C752 1.392 . S
C753 C754 1.419 . S
C754 C753 1.419 . S
C754 C755 1.391 . S
C754 C758 1.397 . S
C755 C750 1.391 . S
C755 C754 1.391 . S
C755 C756 1.399 . S
C756 C755 1.399 . S
C756 C757 1.396 . S
C756 C759 1.453 . S
C756 C760 1.684 . S
C757 C747 1.723 . S
C757 C756 1.396 . S
C757 C758 1.394 . S
C758 C728 1.723 . S
C758 C754 1.397 . S
C758 C757 1.394 . S
C759 H731 0.982 . S
C759 H735 0.979 . S
C759 H736 0.977 . S
C759 C756 1.453 . S
C760 H732 0.979 . S
C760 H733 0.980 . S
C760 H734 0.983 . S
C760 C756 1.684 . S
H761 C779 0.948 . S
H762 C720 0.948 . S
H763 C738 0.979 . S
H764 C738 0.980 . S
H765 C738 0.983 . S
H766 C737 0.982 . S
H767 C737 0.979 . S
H768 C737 0.977 . S
H769 C739 0.948 . S
H770 C741 0.947 . S
H771 C742 0.948 . S
H772 C748 0.982 . S
H773 C748 0.979 . S
H774 C748 0.977 . S
H775 C749 0.979 . S
H776 C749 0.980 . S
H777 C749 0.983 . S
H778 C722 0.947 . S
C779 C722 1.392 . S
C779 C723 1.419 . S
C779 H761 0.948 . S
C780 C781 1.391 . S
C780 C784 1.391 . S
C780 H822 0.948 . S
C781 C780 1.391 . S
C781 C782 1.391 . S
C782 C781 1.391 . S
C782 H838 0.947 . S
C782 C839 1.392 . S
C783 C784 1.391 . S
C783 C787 1.397 . S
C783 C839 1.419 . S
C784 C780 1.391 . S
C784 C783 1.391 . S
C784 C785 1.399 . S
C785 C784 1.399 . S
C785 C788 1.396 . S
C785 C797 1.453 . S
C785 C798 1.684 . S
H786 C810 0.948 . S
C787 C783 1.397 . S
C787 C788 1.394 . S
C787 C806 1.723 . S
C788 C785 1.396 . S
C788 C787 1.394 . S
C788 C818 1.723 . S
H789 C812 0.947 . S
H790 C813 0.948 . S
H791 C819 0.982 . S
H792 C820 0.979 . S
H793 C820 0.980 . S
H794 C820 0.983 . S
H795 C819 0.979 . S
H796 C819 0.977 . S
C797 C785 1.453 . S
C797 H826 0.982 . S
C797 H827 0.979 . S
C797 H828 0.977 . S
C798 C785 1.684 . S
C798 H823 0.979 . S
C798 H824 0.980 . S
C798 H825 0.983 . S
C799 C800 1.391 . S
C799 C804 1.391 . S
C799 H829 0.948 . S
C800 C799 1.391 . S
C800 C801 1.391 . S
C801 C800 1.391 . S
C801 C802 1.392 . S
C801 H830 0.947 . S
C802 C801 1.392 . S
C802 C803 1.419 . S
C802 H831 0.948 . S
C803 C802 1.419 . S
C803 C804 1.391 . S
C803 C807 1.397 . S
C804 C799 1.391 . S
C804 C803 1.391 . S
C804 C805 1.399 . S
C805 C804 1.399 . S
C805 C806 1.396 . S
C805 C808 1.453 . S
C805 C809 1.684 . S
C806 C787 1.723 . S
C806 C805 1.396 . S
C806 C807 1.394 . S
C807 C803 1.397 . S
C807 C806 1.394 . S
C807 C817 1.723 . S
C808 C805 1.453 . S
C808 H832 0.982 . S
C808 H833 0.979 . S
C808 H834 0.977 . S
C809 C805 1.684 . S
C809 H835 0.979 . S
C809 H836 0.980 . S
C809 H837 0.983 . S
C810 H786 0.948 . S
C810 C811 1.391 . S
C810 C815 1.391 . S
C811 C810 1.391 . S
C811 C812 1.391 . S
C812 H789 0.947 . S
C812 C811 1.391 . S
C812 C813 1.392 . S
C813 H790 0.948 . S
C813 C812 1.392 . S
C813 C814 1.419 . S
C814 C813 1.419 . S
C814 C815 1.391 . S
C814 C818 1.397 . S
C815 C810 1.391 . S
C815 C814 1.391 . S
C815 C816 1.399 . S
C816 C815 1.399 . S
C816 C817 1.396 . S
C816 C819 1.453 . S
C816 C820 1.684 . S
C817 C807 1.723 . S
C817 C816 1.396 . S
C817 C818 1.394 . S
C818 C788 1.723 . S
C818 C814 1.397 . S
C818 C817 1.394 . S
C819 H791 0.982 . S
C819 H795 0.979 . S
C819 H796 0.977 . S
C819 C816 1.453 . S
C820 H792 0.979 . S
C820 H793 0.980 . S
C820 H794 0.983 . S
C820 C816 1.684 . S
H821 C839 0.948 . S
H822 C780 0.948 . S
H823 C798 0.979 . S
H824 C798 0.980 . S
H825 C798 0.983 . S
H826 C797 0.982 . S
H827 C797 0.979 . S
H828 C797 0.977 . S
H829 C799 0.948 . S
H830 C801 0.947 . S
H831 C802 0.948 . S
H832 C808 0.982 . S
H833 C808 0.979 . S
H834 C808 0.977 . S
H835 C809 0.979 . S
H836 C809 0.980 . S
H837 C809 0.983 . S
H838 C782 0.947 . S
C839 C782 1.392 . S
C839 C783 1.419 . S
C839 H821 0.948 . S
C840 C841 1.391 . S
C840 C844 1.391 . S
C840 H882 0.948 . S
C841 C840 1.391 . S
C841 C842 1.391 . S
C842 C841 1.391 . S
C842 H898 0.947 . S
C842 C899 1.392 . S
C843 C844 1.391 . S
C843 C847 1.397 . S
C843 C899 1.419 . S
C844 C840 1.391 . S
C844 C843 1.391 . S
C844 C845 1.399 . S
C845 C844 1.399 . S
C845 C848 1.396 . S
C845 C857 1.453 . S
C845 C858 1.684 . S
H846 C870 0.948 . S
C847 C843 1.397 . S
C847 C848 1.394 . S
C847 C866 1.723 . S
C848 C845 1.396 . S
C848 C847 1.394 . S
C848 C878 1.723 . S
H849 C872 0.947 . S
H850 C873 0.948 . S
H851 C879 0.982 . S
H852 C880 0.979 . S
H853 C880 0.980 . S
H854 C880 0.983 . S
H855 C879 0.979 . S
H856 C879 0.977 . S
C857 C845 1.453 . S
C857 H886 0.982 . S
C857 H887 0.979 . S
C857 H888 0.977 . S
C858 C845 1.684 . S
C858 H883 0.979 . S
C858 H884 0.980 . S
C858 H885 0.983 . S
C859 C860 1.391 . S
C859 C864 1.391 . S
C859 H889 0.948 . S
C860 C859 1.391 . S
C860 C861 1.391 . S
C861 C860 1.391 . S
C861 C862 1.392 . S
C861 H890 0.947 . S
C862 C861 1.392 . S
C862 C863 1.419 . S
C862 H891 0.948 . S
C863 C862 1.419 . S
C863 C864 1.391 . S
C863 C867 1.397 . S
C864 C859 1.391 . S
C864 C863 1.391 . S
C864 C865 1.399 . S
C865 C864 1.399 . S
C865 C866 1.396 . S
C865 C868 1.453 . S
C865 C869 1.684 . S
C866 C847 1.723 . S
C866 C865 1.396 . S
C866 C867 1.394 . S
C867 C863 1.397 . S
C867 C866 1.394 . S
C867 C877 1.723 . S
C868 C865 1.453 . S
C868 H892 0.982 . S
C868 H893 0.979 . S
C868 H894 0.977 . S
C869 C865 1.684 . S
C869 H895 0.979 . S
C869 H896 0.980 . S
C869 H897 0.983 . S
C870 H846 0.948 . S
C870 C871 1.391 . S
C870 C875 1.391 . S
C871 C870 1.391 . S
C871 C872 1.391 . S
C872 H849 0.947 . S
C872 C871 1.391 . S
C872 C873 1.392 . S
C873 H850 0.948 . S
C873 C872 1.392 . S
C873 C874 1.419 . S
C874 C873 1.419 . S
C874 C875 1.391 . S
C874 C878 1.397 . S
C875 C870 1.391 . S
C875 C874 1.391 . S
C875 C876 1.399 . S
C876 C875 1.399 . S
C876 C877 1.396 . S
C876 C879 1.453 . S
C876 C880 1.684 . S
C877 C867 1.723 . S
C877 C876 1.396 . S
C877 C878 1.394 . S
C878 C848 1.723 . S
C878 C874 1.397 . S
C878 C877 1.394 . S
C879 H851 0.982 . S
C879 H855 0.979 . S
C879 H856 0.977 . S
C879 C876 1.453 . S
C880 H852 0.979 . S
C880 H853 0.980 . S
C880 H854 0.983 . S
C880 C876 1.684 . S
H881 C899 0.948 . S
H882 C840 0.948 . S
H883 C858 0.979 . S
H884 C858 0.980 . S
H885 C858 0.983 . S
H886 C857 0.982 . S
H887 C857 0.979 . S
H888 C857 0.977 . S
H889 C859 0.948 . S
H890 C861 0.947 . S
H891 C862 0.948 . S
H892 C868 0.982 . S
H893 C868 0.979 . S
H894 C868 0.977 . S
H895 C869 0.979 . S
H896 C869 0.980 . S
H897 C869 0.983 . S
H898 C842 0.947 . S
C899 C842 1.392 . S
C899 C843 1.419 . S
C899 H881 0.948 . S
C900 C901 1.391 . S
C900 C904 1.391 . S
C900 H942 0.948 . S
C901 C900 1.391 . S
C901 C902 1.391 . S
C902 C901 1.391 . S
C902 H958 0.947 . S
C902 C959 1.392 . S
C903 C904 1.391 . S
C903 C907 1.397 . S
C903 C959 1.419 . S
C904 C900 1.391 . S
C904 C903 1.391 . S
C904 C905 1.399 . S
C905 C904 1.399 . S
C905 C908 1.396 . S
C905 C917 1.453 . S
C905 C918 1.684 . S
H906 C930 0.948 . S
C907 C903 1.397 . S
C907 C908 1.394 . S
C907 C926 1.723 . S
C908 C905 1.396 . S
C908 C907 1.394 . S
C908 C938 1.723 . S
H909 C932 0.947 . S
H910 C933 0.948 . S
H911 C939 0.982 . S
H912 C940 0.979 . S
H913 C940 0.980 . S
H914 C940 0.983 . S
H915 C939 0.979 . S
H916 C939 0.977 . S
C917 C905 1.453 . S
C917 H946 0.982 . S
C917 H947 0.979 . S
C917 H948 0.977 . S
C918 C905 1.684 . S
C918 H943 0.979 . S
C918 H944 0.980 . S
C918 H945 0.983 . S
C919 C920 1.391 . S
C919 C924 1.391 . S
C919 H949 0.948 . S
C920 C919 1.391 . S
C920 C921 1.391 . S
C921 C920 1.391 . S
C921 C922 1.392 . S
C921 H950 0.947 . S
C922 C921 1.392 . S
C922 C923 1.419 . S
C922 H951 0.948 . S
C923 C922 1.419 . S
C923 C924 1.391 . S
C923 C927 1.397 . S
C924 C919 1.391 . S
C924 C923 1.391 . S
C924 C925 1.399 . S
C925 C924 1.399 . S
C925 C926 1.396 . S
C925 C928 1.453 . S
C925 C929 1.684 . S
C926 C907 1.723 . S
C926 C925 1.396 . S
C926 C927 1.394 . S
C927 C923 1.397 . S
C927 C926 1.394 . S
C927 C937 1.723 . S
C928 C925 1.453 . S
C928 H952 0.982 . S
C928 H953 0.979 . S
C928 H954 0.977 . S
C929 C925 1.684 . S
C929 H955 0.979 . S
C929 H956 0.980 . S
C929 H957 0.983 . S
C930 H906 0.948 . S
C930 C931 1.391 . S
C930 C935 1.391 . S
C931 C930 1.391 . S
C931 C932 1.391 . S
C932 H909 0.947 . S
C932 C931 1.391 . S
C932 C933 1.392 . S
C933 H910 0.948 . S
C933 C932 1.392 . S
C933 C934 1.419 . S
C934 C933 1.419 . S
C934 C935 1.391 . S
C934 C938 1.397 . S
C935 C930 1.391 . S
C935 C934 1.391 . S
C935 C936 1.399 . S
C936 C935 1.399 . S
C936 C937 1.396 . S
C936 C939 1.453 . S
C936 C940 1.684 . S
C937 C927 1.723 . S
C937 C936 1.396 . S
C937 C938 1.394 . S
C938 C908 1.723 . S
C938 C934 1.397 . S
C938 C937 1.394 . S
C939 H911 0.982 . S
C939 H915 0.979 . S
C939 H916 0.977 . S
C939 C936 1.453 . S
C940 H912 0.979 . S
C940 H913 0.980 . S
C940 H914 0.983 . S
C940 C936 1.684 . S
H941 C959 0.948 . S
H942 C900 0.948 . S
H943 C918 0.979 . S
H944 C918 0.980 . S
H945 C918 0.983 . S
H946 C917 0.982 . S
H947 C917 0.979 . S
H948 C917 0.977 . S
H949 C919 0.948 . S
H950 C921 0.947 . S
H951 C922 0.948 . S
H952 C928 0.982 . S
H953 C928 0.979 . S
H954 C928 0.977 . S
H955 C929 0.979 . S
H956 C929 0.980 . S
H957 C929 0.983 . S
H958 C902 0.947 . S
C959 C902 1.392 . S
C959 C903 1.419 . S
C959 H941 0.948 . S
O960 Cd961 2.223 . S
O960 C968 1.315 . S
Cd961 O960 2.223 . S
Cd961 O964 2.297 . S
Cd961 O965 2.439 . S
Cd961 O971 2.240 . S
Cd962 O963 2.240 . S
Cd962 O970 2.223 . S
Cd962 O972 2.297 . S
Cd962 O973 2.439 . S
O963 Cd962 2.240 . S
O963 C968 1.279 . S
O964 Cd961 2.297 . S
O964 C966 1.247 . S
O965 Cd961 2.439 . S
O965 C966 1.208 . S
C966 O964 1.247 . S
C966 O965 1.208 . S
C967 O972 1.247 . S
C967 O973 1.208 . S
C968 O960 1.315 . S
C968 O963 1.279 . S
C969 O970 1.315 . S
C969 O971 1.279 . S
O970 Cd962 2.223 . S
O970 C969 1.315 . S
O971 Cd961 2.240 . S
O971 C969 1.279 . S
O972 Cd962 2.297 . S
O972 C967 1.247 . S
O973 Cd962 2.439 . S
O973 C967 1.208 . S
O974 Cd975 2.223 . S
O974 C982 1.315 . S
Cd975 O974 2.223 . S
Cd975 O978 2.297 . S
Cd975 O979 2.439 . S
Cd975 O985 2.240 . S
Cd976 O977 2.240 . S
Cd976 O984 2.223 . S
Cd976 O986 2.297 . S
Cd976 O987 2.439 . S
O977 Cd976 2.240 . S
O977 C982 1.279 . S
O978 Cd975 2.297 . S
O978 C980 1.247 . S
O979 Cd975 2.439 . S
O979 C980 1.208 . S
C980 O978 1.247 . S
C980 O979 1.208 . S
C981 O986 1.247 . S
C981 O987 1.208 . S
C982 O974 1.315 . S
C982 O977 1.279 . S
C983 O984 1.315 . S
C983 O985 1.279 . S
O984 Cd976 2.223 . S
O984 C983 1.315 . S
O985 Cd975 2.240 . S
O985 C983 1.279 . S
O986 Cd976 2.297 . S
O986 C981 1.247 . S
O987 Cd976 2.439 . S
O987 C981 1.208 . S
O988 Cd989 2.223 1_556 S
O988 C996 1.315 . S
Cd989 O988 2.223 1_554 S
Cd989 O992 2.297 . S
Cd989 O993 2.439 . S
Cd989 O999 2.240 . S
Cd990 O991 2.240 . S
Cd990 O998 2.223 . S
Cd990 O1000 2.297 1_556 S
Cd990 O1001 2.439 1_556 S
O991 Cd990 2.240 . S
O991 C996 1.279 . S
O992 Cd989 2.297 . S
O992 C994 1.247 . S
O993 Cd989 2.439 . S
O993 C994 1.208 . S
C994 O992 1.247 . S
C994 O993 1.208 . S
C995 O1000 1.247 . S
C995 O1001 1.208 . S
C996 O988 1.315 . S
C996 O991 1.279 . S
C997 O998 1.315 . S
C997 O999 1.279 1_556 S
O998 Cd990 2.223 . S
O998 C997 1.315 . S
O999 Cd989 2.240 . S
O999 C997 1.279 1_554 S
O1000 Cd990 2.297 1_554 S
O1000 C995 1.247 . S
O1001 Cd990 2.439 1_554 S
O1001 C995 1.208 . S
O1002 Cd1003 2.223 . S
O1002 C1010 1.315 . S
Cd1003 O1002 2.223 . S
Cd1003 O1006 2.297 . S
Cd1003 O1007 2.439 . S
Cd1003 O1013 2.240 . S
Cd1004 O1005 2.240 . S
Cd1004 O1012 2.223 . S
Cd1004 O1014 2.297 . S
Cd1004 O1015 2.439 . S
O1005 Cd1004 2.240 . S
O1005 C1010 1.279 . S
O1006 Cd1003 2.297 . S
O1006 C1008 1.247 . S
O1007 Cd1003 2.439 . S
O1007 C1008 1.208 . S
C1008 O1006 1.247 . S
C1008 O1007 1.208 . S
C1009 O1014 1.247 . S
C1009 O1015 1.208 . S
C1010 O1002 1.315 . S
C1010 O1005 1.279 . S
C1011 O1012 1.315 . S
C1011 O1013 1.279 . S
O1012 Cd1004 2.223 . S
O1012 C1011 1.315 . S
O1013 Cd1003 2.240 . S
O1013 C1011 1.279 . S
O1014 Cd1004 2.297 . S
O1014 C1009 1.247 . S
O1015 Cd1004 2.439 . S
O1015 C1009 1.208 . S
O1016 Cd1017 2.223 . S
O1016 C1024 1.315 . S
Cd1017 O1016 2.223 . S
Cd1017 O1020 2.297 . S
Cd1017 O1021 2.439 . S
Cd1017 O1027 2.240 . S
Cd1018 O1019 2.240 . S
Cd1018 O1026 2.223 . S
Cd1018 O1028 2.297 . S
Cd1018 O1029 2.439 . S
O1019 Cd1018 2.240 . S
O1019 C1024 1.279 . S
O1020 Cd1017 2.297 . S
O1020 C1022 1.247 . S
O1021 Cd1017 2.439 . S
O1021 C1022 1.208 . S
C1022 O1020 1.247 . S
C1022 O1021 1.208 . S
C1023 O1028 1.247 . S
C1023 O1029 1.208 . S
C1024 O1016 1.315 . S
C1024 O1019 1.279 . S
C1025 O1026 1.315 . S
C1025 O1027 1.279 . S
O1026 Cd1018 2.223 . S
O1026 C1025 1.315 . S
O1027 Cd1017 2.240 . S
O1027 C1025 1.279 . S
O1028 Cd1018 2.297 . S
O1028 C1023 1.247 . S
O1029 Cd1018 2.439 . S
O1029 C1023 1.208 . S
O1030 Cd1031 2.223 . S
O1030 C1038 1.315 . S
Cd1031 O1030 2.223 . S
Cd1031 O1034 2.297 . S
Cd1031 O1035 2.439 . S
Cd1031 O1041 2.240 . S
Cd1032 O1033 2.240 . S
Cd1032 O1040 2.223 . S
Cd1032 O1042 2.297 . S
Cd1032 O1043 2.439 . S
O1033 Cd1032 2.240 . S
O1033 C1038 1.279 . S
O1034 Cd1031 2.297 . S
O1034 C1036 1.247 . S
O1035 Cd1031 2.439 . S
O1035 C1036 1.208 . S
C1036 O1034 1.247 . S
C1036 O1035 1.208 . S
C1037 O1042 1.247 . S
C1037 O1043 1.208 . S
C1038 O1030 1.315 . S
C1038 O1033 1.279 . S
C1039 O1040 1.315 . S
C1039 O1041 1.279 . S
O1040 Cd1032 2.223 . S
O1040 C1039 1.315 . S
O1041 Cd1031 2.240 . S
O1041 C1039 1.279 . S
O1042 Cd1032 2.297 . S
O1042 C1037 1.247 . S
O1043 Cd1032 2.439 . S
O1043 C1037 1.208 . S
O1044 Cd1045 2.223 . S
O1044 C1052 1.315 . S
Cd1045 O1044 2.223 . S
Cd1045 O1048 2.297 . S
Cd1045 O1049 2.439 . S
Cd1045 O1055 2.240 . S
Cd1046 O1047 2.240 . S
Cd1046 O1054 2.223 . S
Cd1046 O1056 2.297 . S
Cd1046 O1057 2.439 . S
O1047 Cd1046 2.240 . S
O1047 C1052 1.279 . S
O1048 Cd1045 2.297 . S
O1048 C1050 1.247 . S
O1049 Cd1045 2.439 . S
O1049 C1050 1.208 . S
C1050 O1048 1.247 . S
C1050 O1049 1.208 . S
C1051 O1056 1.247 . S
C1051 O1057 1.208 . S
C1052 O1044 1.315 . S
C1052 O1047 1.279 . S
C1053 O1054 1.315 . S
C1053 O1055 1.279 . S
O1054 Cd1046 2.223 . S
O1054 C1053 1.315 . S
O1055 Cd1045 2.240 . S
O1055 C1053 1.279 . S
O1056 Cd1046 2.297 . S
O1056 C1051 1.247 . S
O1057 Cd1046 2.439 . S
O1057 C1051 1.208 . S
O1058 Cd1059 2.223 1_545 S
O1058 C1066 1.315 . S
Cd1059 O1058 2.223 1_565 S
Cd1059 O1062 2.297 . S
Cd1059 O1063 2.439 . S
Cd1059 O1069 2.240 1_565 S
Cd1060 O1061 2.240 . S
Cd1060 O1068 2.223 . S
Cd1060 O1070 2.297 . S
Cd1060 O1071 2.439 1_545 S
O1061 Cd1060 2.240 . S
O1061 C1066 1.279 . S
O1062 Cd1059 2.297 . S
O1062 C1064 1.247 . S
O1063 Cd1059 2.439 . S
O1063 C1064 1.208 . S
C1064 O1062 1.247 . S
C1064 O1063 1.208 . S
C1065 O1070 1.247 1_565 S
C1065 O1071 1.208 . S
C1066 O1058 1.315 . S
C1066 O1061 1.279 . S
C1067 O1068 1.315 . S
C1067 O1069 1.279 . S
O1068 Cd1060 2.223 . S
O1068 C1067 1.315 . S
O1069 Cd1059 2.240 1_545 S
O1069 C1067 1.279 . S
O1070 Cd1060 2.297 . S
O1070 C1065 1.247 1_545 S
O1071 Cd1060 2.439 1_565 S
O1071 C1065 1.208 . S
O1072 Cd1073 2.223 . S
O1072 C1080 1.315 . S
Cd1073 O1072 2.223 . S
Cd1073 O1076 2.297 1_655 S
Cd1073 O1077 2.439 1_655 S
Cd1073 O1083 2.240 . S
Cd1074 O1075 2.240 . S
Cd1074 O1082 2.223 1_455 S
Cd1074 O1084 2.297 . S
Cd1074 O1085 2.439 . S
O1075 Cd1074 2.240 . S
O1075 C1080 1.279 1_455 S
O1076 Cd1073 2.297 1_455 S
O1076 C1078 1.247 . S
O1077 Cd1073 2.439 1_455 S
O1077 C1078 1.208 . S
C1078 O1076 1.247 . S
C1078 O1077 1.208 . S
C1079 O1084 1.247 . S
C1079 O1085 1.208 . S
C1080 O1072 1.315 . S
C1080 O1075 1.279 1_655 S
C1081 O1082 1.315 . S
C1081 O1083 1.279 . S
O1082 Cd1074 2.223 1_655 S
O1082 C1081 1.315 . S
O1083 Cd1073 2.240 . S
O1083 C1081 1.279 . S
O1084 Cd1074 2.297 . S
O1084 C1079 1.247 . S
O1085 Cd1074 2.439 . S
O1085 C1079 1.208 . S
O1086 Cd1087 2.223 . S
O1086 C1094 1.315 . S
Cd1087 O1086 2.223 . S
Cd1087 O1090 2.297 . S
Cd1087 O1091 2.439 . S
Cd1087 O1097 2.240 . S
Cd1088 O1089 2.240 . S
Cd1088 O1096 2.223 . S
Cd1088 O1098 2.297 . S
Cd1088 O1099 2.439 . S
O1089 Cd1088 2.240 . S
O1089 C1094 1.279 . S
O1090 Cd1087 2.297 . S
O1090 C1092 1.247 . S
O1091 Cd1087 2.439 . S
O1091 C1092 1.208 . S
C1092 O1090 1.247 . S
C1092 O1091 1.208 . S
C1093 O1098 1.247 . S
C1093 O1099 1.208 . S
C1094 O1086 1.315 . S
C1094 O1089 1.279 . S
C1095 O1096 1.315 . S
C1095 O1097 1.279 . S
O1096 Cd1088 2.223 . S
O1096 C1095 1.315 . S
O1097 Cd1087 2.240 . S
O1097 C1095 1.279 . S
O1098 Cd1088 2.297 . S
O1098 C1093 1.247 . S
O1099 Cd1088 2.439 . S
O1099 C1093 1.208 . S
O1100 Cd1101 2.223 1_655 S
O1100 C1108 1.315 . S
Cd1101 O1100 2.223 1_455 S
Cd1101 O1104 2.297 . S
Cd1101 O1105 2.439 . S
Cd1101 O1111 2.240 . S
Cd1102 O1103 2.240 . S
Cd1102 O1110 2.223 . S
Cd1102 O1112 2.297 1_655 S
Cd1102 O1113 2.439 1_655 S
O1103 Cd1102 2.240 . S
O1103 C1108 1.279 . S
O1104 Cd1101 2.297 . S
O1104 C1106 1.247 . S
O1105 Cd1101 2.439 . S
O1105 C1106 1.208 . S
C1106 O1104 1.247 . S
C1106 O1105 1.208 . S
C1107 O1112 1.247 . S
C1107 O1113 1.208 . S
C1108 O1100 1.315 . S
C1108 O1103 1.279 . S
C1109 O1110 1.315 . S
C1109 O1111 1.279 1_655 S
O1110 Cd1102 2.223 . S
O1110 C1109 1.315 . S
O1111 Cd1101 2.240 . S
O1111 C1109 1.279 1_455 S
O1112 Cd1102 2.297 1_455 S
O1112 C1107 1.247 . S
O1113 Cd1102 2.439 1_455 S
O1113 C1107 1.208 . S
O1114 Cd1115 2.223 . S
O1114 C1122 1.315 . S
Cd1115 O1114 2.223 . S
Cd1115 O1118 2.297 . S
Cd1115 O1119 2.439 . S
Cd1115 O1125 2.240 . S
Cd1116 O1117 2.240 . S
Cd1116 O1124 2.223 . S
Cd1116 O1126 2.297 . S
Cd1116 O1127 2.439 . S
O1117 Cd1116 2.240 . S
O1117 C1122 1.279 . S
O1118 Cd1115 2.297 . S
O1118 C1120 1.247 . S
O1119 Cd1115 2.439 . S
O1119 C1120 1.208 . S
C1120 O1118 1.247 . S
C1120 O1119 1.208 . S
C1121 O1126 1.247 . S
C1121 O1127 1.208 . S
C1122 O1114 1.315 . S
C1122 O1117 1.279 . S
C1123 O1124 1.315 . S
C1123 O1125 1.279 . S
O1124 Cd1116 2.223 . S
O1124 C1123 1.315 . S
O1125 Cd1115 2.240 . S
O1125 C1123 1.279 . S
O1126 Cd1116 2.297 . S
O1126 C1121 1.247 . S
O1127 Cd1116 2.439 . S
O1127 C1121 1.208 . S
H1128 C1136 0.929 . S
H1129 C1138 0.930 . S
H1130 C1140 0.930 . S
H1131 C1143 0.929 . S
H1132 C1146 0.930 . S
H1133 C1148 0.960 . S
H1134 C1148 0.960 . S
H1135 C1148 0.960 . S
C1136 H1128 0.929 . S
C1136 C1137 1.377 . S
C1136 C1138 1.384 . S
C1137 C1136 1.377 . S
C1137 C1143 1.390 . S
C1138 H1129 0.930 . S
C1138 C1136 1.384 . S
C1138 C1139 1.372 . S
C1139 C1138 1.372 . S
C1139 C1140 1.400 . S
C1139 C1144 1.490 . S
C1140 H1130 0.930 . S
C1140 C1139 1.400 . S
C1140 C1143 1.386 . S
H1141 C1157 0.930 . S
H1142 C1158 0.931 . S
C1143 H1131 0.929 . S
C1143 C1137 1.390 . S
C1143 C1140 1.386 . S
C1144 C1139 1.490 . S
C1144 C1146 1.395 . S
C1144 C1147 1.403 . S
H1145 C1151 0.930 . S
C1146 H1132 0.930 . S
C1146 C1144 1.395 . S
C1146 C1149 1.403 . S
C1147 C1144 1.403 . S
C1147 C1148 1.524 . S
C1147 C1151 1.400 . S
C1148 H1133 0.960 . S
C1148 H1134 0.960 . S
C1148 H1135 0.960 . S
C1148 C1147 1.524 . S
C1149 C1146 1.403 . S
C1149 C1150 1.392 . S
C1149 C1153 1.495 . S
C1150 C1149 1.392 . S
C1150 C1151 1.385 . S
C1150 C1152 1.478 . S
C1151 H1145 0.930 . S
C1151 C1147 1.400 . S
C1151 C1150 1.385 . S
C1152 C1150 1.478 . S
C1152 C1154 1.381 . S
C1152 C1158 1.383 . S
C1153 C1149 1.495 . S
C1153 H1159 0.959 . S
C1153 H1160 0.961 . S
C1153 H1161 0.960 . S
C1154 C1152 1.381 . S
C1154 C1155 1.394 . S
C1154 H1162 0.930 . S
C1155 C1154 1.394 . S
C1155 C1156 1.383 1_556 S
C1155 H1163 0.929 1_556 S
C1156 C1155 1.383 1_554 S
C1156 C1157 1.377 1_554 S
C1157 H1141 0.930 . S
C1157 C1156 1.377 1_556 S
C1157 C1158 1.379 . S
C1158 H1142 0.931 . S
C1158 C1152 1.383 . S
C1158 C1157 1.379 . S
H1159 C1153 0.959 . S
H1160 C1153 0.961 . S
H1161 C1153 0.960 . S
H1162 C1154 0.930 . S
H1163 C1155 0.929 1_554 S
H1164 C1172 0.929 . S
H1165 C1174 0.930 . S
H1166 C1176 0.981 . S
H1167 C1179 0.929 . S
H1168 C1182 0.930 . S
H1169 C1184 0.960 . S
H1170 C1184 0.960 . S
H1171 C1184 0.960 . S
C1172 H1164 0.929 . S
C1172 C1173 1.377 . S
C1172 C1174 1.384 . S
C1173 C1172 1.377 . S
C1173 C1179 1.390 . S
C1174 H1165 0.930 . S
C1174 C1172 1.384 . S
C1174 C1175 1.372 . S
C1175 C1174 1.372 . S
C1175 C1176 1.392 1_655 S
C1175 C1180 1.490 1_655 S
C1176 H1166 0.981 . S
C1176 C1175 1.392 1_455 S
C1176 C1179 1.344 1_455 S
H1177 C1193 0.930 . S
H1178 C1194 0.931 . S
C1179 H1167 0.929 . S
C1179 C1173 1.390 . S
C1179 C1176 1.344 1_655 S
C1180 C1175 1.490 1_455 S
C1180 C1182 1.395 . S
C1180 C1183 1.403 . S
H1181 C1187 0.930 . S
C1182 H1168 0.930 . S
C1182 C1180 1.395 . S
C1182 C1185 1.403 . S
C1183 C1180 1.403 . S
C1183 C1184 1.524 . S
C1183 C1187 1.400 . S
C1184 H1169 0.960 . S
C1184 H1170 0.960 . S
C1184 H1171 0.960 . S
C1184 C1183 1.524 . S
C1185 C1182 1.403 . S
C1185 C1186 1.392 . S
C1185 C1189 1.495 . S
C1186 C1185 1.392 . S
C1186 C1187 1.385 . S
C1186 C1188 1.478 . S
C1187 H1181 0.930 . S
C1187 C1183 1.400 . S
C1187 C1186 1.385 . S
C1188 C1186 1.478 . S
C1188 C1190 1.381 . S
C1188 C1194 1.383 . S
C1189 C1185 1.495 . S
C1189 H1195 0.959 . S
C1189 H1196 0.961 . S
C1189 H1197 0.960 . S
C1190 C1188 1.381 . S
C1190 C1191 1.394 . S
C1190 H1198 0.930 . S
C1191 C1190 1.394 . S
C1191 C1192 1.383 . S
C1191 H1199 0.929 . S
C1192 C1191 1.383 . S
C1192 C1193 1.377 . S
C1193 H1177 0.930 . S
C1193 C1192 1.377 . S
C1193 C1194 1.379 . S
C1194 H1178 0.931 . S
C1194 C1188 1.383 . S
C1194 C1193 1.379 . S
H1195 C1189 0.959 . S
H1196 C1189 0.961 . S
H1197 C1189 0.960 . S
H1198 C1190 0.930 . S
H1199 C1191 0.929 . S
H1200 C1208 0.929 . S
H1201 C1210 0.930 . S
H1202 C1212 0.930 . S
H1203 C1215 0.929 . S
H1204 C1218 0.930 . S
H1205 C1220 0.960 . S
H1206 C1220 0.960 . S
H1207 C1220 0.960 . S
C1208 H1200 0.929 . S
C1208 C1209 1.377 . S
C1208 C1210 1.384 . S
C1209 C1208 1.377 . S
C1209 C1215 1.390 . S
C1210 H1201 0.930 . S
C1210 C1208 1.384 . S
C1210 C1211 1.372 . S
C1211 C1210 1.372 . S
C1211 C1212 1.400 . S
C1211 C1216 1.490 . S
C1212 H1202 0.930 . S
C1212 C1211 1.400 . S
C1212 C1215 1.386 . S
H1213 C1229 0.930 . S
H1214 C1230 0.931 . S
C1215 H1203 0.929 . S
C1215 C1209 1.390 . S
C1215 C1212 1.386 . S
C1216 C1211 1.490 . S
C1216 C1218 1.395 . S
C1216 C1219 1.403 . S
H1217 C1223 0.930 . S
C1218 H1204 0.930 . S
C1218 C1216 1.395 . S
C1218 C1221 1.403 . S
C1219 C1216 1.403 . S
C1219 C1220 1.524 . S
C1219 C1223 1.400 . S
C1220 H1205 0.960 . S
C1220 H1206 0.960 . S
C1220 H1207 0.960 . S
C1220 C1219 1.524 . S
C1221 C1218 1.403 . S
C1221 C1222 1.392 . S
C1221 C1225 1.495 . S
C1222 C1221 1.392 . S
C1222 C1223 1.385 . S
C1222 C1224 1.478 . S
C1223 H1217 0.930 . S
C1223 C1219 1.400 . S
C1223 C1222 1.385 . S
C1224 C1222 1.478 . S
C1224 C1226 1.381 . S
C1224 C1230 1.383 . S
C1225 C1221 1.495 . S
C1225 H1231 0.959 . S
C1225 H1232 0.961 . S
C1225 H1233 0.960 . S
C1226 C1224 1.381 . S
C1226 C1227 1.394 . S
C1226 H1234 0.930 . S
C1227 C1226 1.394 . S
C1227 C1228 1.383 . S
C1227 H1235 0.929 . S
C1228 C1227 1.383 . S
C1228 C1229 1.377 . S
C1229 H1213 0.930 . S
C1229 C1228 1.377 . S
C1229 C1230 1.379 . S
C1230 H1214 0.931 . S
C1230 C1224 1.383 . S
C1230 C1229 1.379 . S
H1231 C1225 0.959 . S
H1232 C1225 0.961 . S
H1233 C1225 0.960 . S
H1234 C1226 0.930 . S
H1235 C1227 0.929 . S
H1236 C1244 0.929 . S
H1237 C1246 0.930 . S
H1238 C1248 0.930 . S
H1239 C1251 0.929 . S
H1240 C1254 0.930 . S
H1241 C1256 0.960 . S
H1242 C1256 0.991 . S
H1243 C1256 0.960 . S
C1244 H1236 0.929 . S
C1244 C1245 1.377 . S
C1244 C1246 1.384 . S
C1245 C1244 1.377 . S
C1245 C1251 1.390 . S
C1246 H1237 0.930 . S
C1246 C1244 1.384 . S
C1246 C1247 1.372 1_455 S
C1247 C1246 1.372 1_655 S
C1247 C1248 1.400 . S
C1247 C1252 1.490 . S
C1248 H1238 0.930 . S
C1248 C1247 1.400 . S
C1248 C1251 1.386 1_655 S
H1249 C1265 0.930 . S
H1250 C1266 0.931 . S
C1251 H1239 0.929 . S
C1251 C1245 1.390 . S
C1251 C1248 1.386 1_455 S
C1252 C1247 1.490 . S
C1252 C1254 1.395 . S
C1252 C1255 1.403 1_565 S
H1253 C1259 0.930 . S
C1254 H1240 0.930 . S
C1254 C1252 1.395 . S
C1254 C1257 1.403 . S
C1255 C1252 1.403 1_545 S
C1255 C1256 1.524 . S
C1255 C1259 1.400 . S
C1256 H1241 0.960 . S
C1256 H1242 0.991 . S
C1256 H1243 0.960 . S
C1256 C1255 1.524 . S
C1257 C1254 1.403 . S
C1257 C1258 1.392 1_565 S
C1257 C1261 1.495 . S
C1258 C1257 1.392 1_545 S
C1258 C1259 1.385 . S
C1258 C1260 1.478 . S
C1259 H1253 0.930 . S
C1259 C1255 1.400 . S
C1259 C1258 1.385 . S
C1260 C1258 1.478 . S
C1260 C1262 1.381 . S
C1260 C1266 1.383 . S
C1261 C1257 1.495 . S
C1261 H1267 0.959 . S
C1261 H1268 0.961 . S
C1261 H1269 0.960 . S
C1262 C1260 1.381 . S
C1262 C1263 1.394 . S
C1262 H1270 0.930 . S
C1263 C1262 1.394 . S
C1263 C1264 1.383 . S
C1263 H1271 0.929 . S
C1264 C1263 1.383 . S
C1264 C1265 1.377 . S
C1265 H1249 0.930 . S
C1265 C1264 1.377 . S
C1265 C1266 1.379 . S
C1266 H1250 0.931 . S
C1266 C1260 1.383 . S
C1266 C1265 1.379 . S
H1267 C1261 0.959 . S
H1268 C1261 0.961 . S
H1269 C1261 0.960 . S
H1270 C1262 0.930 . S
H1271 C1263 0.929 . S
H1272 C1280 0.929 . S
H1273 C1282 0.930 . S
H1274 C1284 0.930 . S
H1275 C1287 0.929 . S
H1276 C1290 0.930 . S
H1277 C1292 0.960 . S
H1278 C1292 0.960 . S
H1279 C1292 0.960 . S
C1280 H1272 0.929 . S
C1280 C1281 1.377 . S
C1280 C1282 1.384 . S
C1281 C1280 1.377 . S
C1281 C1287 1.390 . S
C1282 H1273 0.930 . S
C1282 C1280 1.384 . S
C1282 C1283 1.372 . S
C1283 C1282 1.372 . S
C1283 C1284 1.400 . S
C1283 C1288 1.490 . S
C1284 H1274 0.930 . S
C1284 C1283 1.400 . S
C1284 C1287 1.386 . S
H1285 C1301 0.930 . S
H1286 C1302 0.931 . S
C1287 H1275 0.929 . S
C1287 C1281 1.390 . S
C1287 C1284 1.386 . S
C1288 C1283 1.490 . S
C1288 C1290 1.395 . S
C1288 C1291 1.403 . S
H1289 C1295 0.930 . S
C1290 H1276 0.930 . S
C1290 C1288 1.395 . S
C1290 C1293 1.403 . S
C1291 C1288 1.403 . S
C1291 C1292 1.524 . S
C1291 C1295 1.400 . S
C1292 H1277 0.960 . S
C1292 H1278 0.960 . S
C1292 H1279 0.960 . S
C1292 C1291 1.524 . S
C1293 C1290 1.403 . S
C1293 C1294 1.392 . S
C1293 C1297 1.495 . S
C1294 C1293 1.392 . S
C1294 C1295 1.385 . S
C1294 C1296 1.478 . S
C1295 H1289 0.930 . S
C1295 C1291 1.400 . S
C1295 C1294 1.385 . S
C1296 C1294 1.478 . S
C1296 C1298 1.381 . S
C1296 C1302 1.383 . S
C1297 C1293 1.495 . S
C1297 H1303 0.959 . S
C1297 H1304 0.961 . S
C1297 H1305 0.960 . S
C1298 C1296 1.381 . S
C1298 C1299 1.394 . S
C1298 H1306 0.930 . S
C1299 C1298 1.394 . S
C1299 C1300 1.383 . S
C1299 H1307 0.929 . S
C1300 C1299 1.383 . S
C1300 C1301 1.377 . S
C1301 H1285 0.930 . S
C1301 C1300 1.377 . S
C1301 C1302 1.379 . S
C1302 H1286 0.931 . S
C1302 C1296 1.383 . S
C1302 C1301 1.379 . S
H1303 C1297 0.959 . S
H1304 C1297 0.961 . S
H1305 C1297 0.960 . S
H1306 C1298 0.930 . S
H1307 C1299 0.929 . S
H1308 C1316 0.929 . S
H1309 C1318 0.930 . S
H1310 C1320 0.930 . S
H1311 C1323 0.929 . S
H1312 C1326 0.930 . S
H1313 C1328 0.960 . S
H1314 C1328 0.960 . S
H1315 C1328 0.960 . S
C1316 H1308 0.929 . S
C1316 C1317 1.377 . S
C1316 C1318 1.384 . S
C1317 C1316 1.377 . S
C1317 C1323 1.390 . S
C1318 H1309 0.930 . S
C1318 C1316 1.384 . S
C1318 C1319 1.372 . S
C1319 C1318 1.372 . S
C1319 C1320 1.400 . S
C1319 C1324 1.490 . S
C1320 H1310 0.930 . S
C1320 C1319 1.400 . S
C1320 C1323 1.386 . S
H1321 C1337 0.930 . S
H1322 C1338 0.931 . S
C1323 H1311 0.929 . S
C1323 C1317 1.390 . S
C1323 C1320 1.386 . S
C1324 C1319 1.490 . S
C1324 C1326 1.395 . S
C1324 C1327 1.403 . S
H1325 C1331 0.930 . S
C1326 H1312 0.930 . S
C1326 C1324 1.395 . S
C1326 C1329 1.403 . S
C1327 C1324 1.403 . S
C1327 C1328 1.524 . S
C1327 C1331 1.400 . S
C1328 H1313 0.960 . S
C1328 H1314 0.960 . S
C1328 H1315 0.960 . S
C1328 C1327 1.524 . S
C1329 C1326 1.403 . S
C1329 C1330 1.392 . S
C1329 C1333 1.495 . S
C1330 C1329 1.392 . S
C1330 C1331 1.385 . S
C1330 C1332 1.478 . S
C1331 H1325 0.930 . S
C1331 C1327 1.400 . S
C1331 C1330 1.385 . S
C1332 C1330 1.478 . S
C1332 C1334 1.381 . S
C1332 C1338 1.383 . S
C1333 C1329 1.495 . S
C1333 H1339 0.959 . S
C1333 H1340 0.961 . S
C1333 H1341 0.960 . S
C1334 C1332 1.381 . S
C1334 C1335 1.394 . S
C1334 H1342 0.930 . S
C1335 C1334 1.394 . S
C1335 C1336 1.383 . S
C1335 H1343 0.929 . S
C1336 C1335 1.383 . S
C1336 C1337 1.377 . S
C1337 H1321 0.930 . S
C1337 C1336 1.377 . S
C1337 C1338 1.379 . S
C1338 H1322 0.931 . S
C1338 C1332 1.383 . S
C1338 C1337 1.379 . S
H1339 C1333 0.959 . S
H1340 C1333 0.961 . S
H1341 C1333 0.960 . S
H1342 C1334 0.930 . S
H1343 C1335 0.929 . S
H1344 C1352 0.929 . S
H1345 C1354 0.930 . S
H1346 C1356 0.930 . S
H1347 C1359 0.929 . S
H1348 C1362 0.930 . S
H1349 C1364 0.960 . S
H1350 C1364 0.960 . S
H1351 C1364 0.960 . S
C1352 H1344 0.929 . S
C1352 C1353 1.377 . S
C1352 C1354 1.384 . S
C1353 C1352 1.377 . S
C1353 C1359 1.390 . S
C1354 H1345 0.930 . S
C1354 C1352 1.384 . S
C1354 C1355 1.372 . S
C1355 C1354 1.372 . S
C1355 C1356 1.400 . S
C1355 C1360 1.490 . S
C1356 H1346 0.930 . S
C1356 C1355 1.400 . S
C1356 C1359 1.386 . S
H1357 C1373 0.930 . S
H1358 C1374 0.931 . S
C1359 H1347 0.929 . S
C1359 C1353 1.390 . S
C1359 C1356 1.386 . S
C1360 C1355 1.490 . S
C1360 C1362 1.395 . S
C1360 C1363 1.403 . S
H1361 C1367 0.930 . S
C1362 H1348 0.930 . S
C1362 C1360 1.395 . S
C1362 C1365 1.403 . S
C1363 C1360 1.403 . S
C1363 C1364 1.524 . S
C1363 C1367 1.400 . S
C1364 H1349 0.960 . S
C1364 H1350 0.960 . S
C1364 H1351 0.960 . S
C1364 C1363 1.524 . S
C1365 C1362 1.403 . S
C1365 C1366 1.392 . S
C1365 C1369 1.495 . S
C1366 C1365 1.392 . S
C1366 C1367 1.385 . S
C1366 C1368 1.478 . S
C1367 H1361 0.930 . S
C1367 C1363 1.400 . S
C1367 C1366 1.385 . S
C1368 C1366 1.478 . S
C1368 C1370 1.381 . S
C1368 C1374 1.383 . S
C1369 C1365 1.495 . S
C1369 H1375 0.959 . S
C1369 H1376 0.961 . S
C1369 H1377 0.960 . S
C1370 C1368 1.381 . S
C1370 C1371 1.394 . S
C1370 H1378 0.930 . S
C1371 C1370 1.394 . S
C1371 C1372 1.383 . S
C1371 H1379 0.929 . S
C1372 C1371 1.383 . S
C1372 C1373 1.377 . S
C1373 H1357 0.930 . S
C1373 C1372 1.377 . S
C1373 C1374 1.379 . S
C1374 H1358 0.931 . S
C1374 C1368 1.383 . S
C1374 C1373 1.379 . S
H1375 C1369 0.959 . S
H1376 C1369 0.961 . S
H1377 C1369 0.960 . S
H1378 C1370 0.930 . S
H1379 C1371 0.929 . S
H1380 C1388 0.929 . S
H1381 C1390 0.930 . S
H1382 C1392 0.930 . S
H1383 C1395 0.929 . S
H1384 C1398 0.930 . S
H1385 C1400 0.960 . S
H1386 C1400 0.960 . S
H1387 C1400 0.960 . S
C1388 H1380 0.929 . S
C1388 C1389 1.377 . S
C1388 C1390 1.384 . S
C1389 C1388 1.377 . S
C1389 C1395 1.390 . S
C1390 H1381 0.930 . S
C1390 C1388 1.384 . S
C1390 C1391 1.372 . S
C1391 C1390 1.372 . S
C1391 C1392 1.400 . S
C1391 C1396 1.490 . S
C1392 H1382 0.930 . S
C1392 C1391 1.400 . S
C1392 C1395 1.386 . S
H1393 C1409 0.911 1_545 S
H1394 C1410 0.931 . S
C1395 H1383 0.929 . S
C1395 C1389 1.390 . S
C1395 C1392 1.386 . S
C1396 C1391 1.490 . S
C1396 C1398 1.395 . S
C1396 C1399 1.403 . S
H1397 C1403 0.930 . S
C1398 H1384 0.930 . S
C1398 C1396 1.395 . S
C1398 C1401 1.403 . S
C1399 C1396 1.403 . S
C1399 C1400 1.524 . S
C1399 C1403 1.400 . S
C1400 H1385 0.960 . S
C1400 H1386 0.960 . S
C1400 H1387 0.960 . S
C1400 C1399 1.524 . S
C1401 C1398 1.403 . S
C1401 C1402 1.392 . S
C1401 C1405 1.495 . S
C1402 C1401 1.392 . S
C1402 C1403 1.385 . S
C1402 C1404 1.478 . S
C1403 H1397 0.930 . S
C1403 C1399 1.400 . S
C1403 C1402 1.385 . S
C1404 C1402 1.478 . S
C1404 C1406 1.381 . S
C1404 C1410 1.383 . S
C1405 C1401 1.495 . S
C1405 H1411 0.959 . S
C1405 H1412 0.961 . S
C1405 H1413 0.960 . S
C1406 C1404 1.381 . S
C1406 C1407 1.394 . S
C1406 H1414 0.930 . S
C1407 C1406 1.394 . S
C1407 C1408 1.383 . S
C1407 H1415 0.929 . S
C1408 C1407 1.383 . S
C1408 C1409 1.377 . S
C1409 H1393 0.911 1_565 S
C1409 C1408 1.377 . S
C1409 C1410 1.379 . S
C1410 H1394 0.931 . S
C1410 C1404 1.383 . S
C1410 C1409 1.379 . S
H1411 C1405 0.959 . S
H1412 C1405 0.961 . S
H1413 C1405 0.960 . S
H1414 C1406 0.930 . S
H1415 C1407 0.929 . S
H1416 C1424 0.929 . S
H1417 C1426 0.930 . S
H1418 C1428 0.930 . S
H1419 C1431 0.929 . S
H1420 C1434 0.930 . S
H1421 C1436 0.960 . S
H1422 C1436 0.960 . S
H1423 C1436 0.960 . S
C1424 H1416 0.929 . S
C1424 C1425 1.377 . S
C1424 C1426 1.384 . S
C1425 C1424 1.377 . S
C1425 C1431 1.390 . S
C1426 H1417 0.930 . S
C1426 C1424 1.384 . S
C1426 C1427 1.372 . S
C1427 C1426 1.372 . S
C1427 C1428 1.400 . S
C1427 C1432 1.490 . S
C1428 H1418 0.930 . S
C1428 C1427 1.400 . S
C1428 C1431 1.386 . S
H1429 C1445 0.930 . S
H1430 C1446 0.931 . S
C1431 H1419 0.929 . S
C1431 C1425 1.390 . S
C1431 C1428 1.386 . S
C1432 C1427 1.490 . S
C1432 C1434 1.395 . S
C1432 C1435 1.403 . S
H1433 C1439 0.930 . S
C1434 H1420 0.930 . S
C1434 C1432 1.395 . S
C1434 C1437 1.403 . S
C1435 C1432 1.403 . S
C1435 C1436 1.524 . S
C1435 C1439 1.400 . S
C1436 H1421 0.960 . S
C1436 H1422 0.960 . S
C1436 H1423 0.960 . S
C1436 C1435 1.524 . S
C1437 C1434 1.403 . S
C1437 C1438 1.392 . S
C1437 C1441 1.495 . S
C1438 C1437 1.392 . S
C1438 C1439 1.385 . S
C1438 C1440 1.478 . S
C1439 H1433 0.930 . S
C1439 C1435 1.400 . S
C1439 C1438 1.385 . S
C1440 C1438 1.478 . S
C1440 C1442 1.381 . S
C1440 C1446 1.383 . S
C1441 C1437 1.495 . S
C1441 H1447 0.959 . S
C1441 H1448 0.961 . S
C1441 H1449 0.960 . S
C1442 C1440 1.381 . S
C1442 C1443 1.394 . S
C1442 H1450 0.930 . S
C1443 C1442 1.394 . S
C1443 C1444 1.383 . S
C1443 H1451 0.929 . S
C1444 C1443 1.383 . S
C1444 C1445 1.377 . S
C1445 H1429 0.930 . S
C1445 C1444 1.377 . S
C1445 C1446 1.379 . S
C1446 H1430 0.931 . S
C1446 C1440 1.383 . S
C1446 C1445 1.379 . S
H1447 C1441 0.959 . S
H1448 C1441 0.961 . S
H1449 C1441 0.960 . S
H1450 C1442 0.930 . S
H1451 C1443 0.929 . S
H1452 C1460 0.929 . S
H1453 C1462 0.930 . S
H1454 C1464 0.930 . S
H1455 C1467 0.929 . S
H1456 C1470 0.930 . S
H1457 C1472 0.960 . S
H1458 C1472 0.960 . S
H1459 C1472 0.960 . S
C1460 H1452 0.929 . S
C1460 C1461 1.377 . S
C1460 C1462 1.384 . S
C1461 C1460 1.377 . S
C1461 C1467 1.390 . S
C1462 H1453 0.930 . S
C1462 C1460 1.384 . S
C1462 C1463 1.372 . S
C1463 C1462 1.372 . S
C1463 C1464 1.400 . S
C1463 C1468 1.490 . S
C1464 H1454 0.930 . S
C1464 C1463 1.400 . S
C1464 C1467 1.386 . S
H1465 C1481 0.930 . S
H1466 C1482 0.931 . S
C1467 H1455 0.929 . S
C1467 C1461 1.390 . S
C1467 C1464 1.386 . S
C1468 C1463 1.490 . S
C1468 C1470 1.395 . S
C1468 C1471 1.403 . S
H1469 C1475 0.930 . S
C1470 H1456 0.930 . S
C1470 C1468 1.395 . S
C1470 C1473 1.403 . S
C1471 C1468 1.403 . S
C1471 C1472 1.524 . S
C1471 C1475 1.400 . S
C1472 H1457 0.960 . S
C1472 H1458 0.960 . S
C1472 H1459 0.960 . S
C1472 C1471 1.524 . S
C1473 C1470 1.403 . S
C1473 C1474 1.392 . S
C1473 C1477 1.495 . S
C1474 C1473 1.392 . S
C1474 C1475 1.385 . S
C1474 C1476 1.478 . S
C1475 H1469 0.930 . S
C1475 C1471 1.400 . S
C1475 C1474 1.385 . S
C1476 C1474 1.478 . S
C1476 C1478 1.381 . S
C1476 C1482 1.383 . S
C1477 C1473 1.495 . S
C1477 H1483 0.959 . S
C1477 H1484 0.961 . S
C1477 H1485 0.960 . S
C1478 C1476 1.381 . S
C1478 C1479 1.394 . S
C1478 H1486 0.930 . S
C1479 C1478 1.394 . S
C1479 C1480 1.383 . S
C1479 H1487 0.929 . S
C1480 C1479 1.383 . S
C1480 C1481 1.377 . S
C1481 H1465 0.930 . S
C1481 C1480 1.377 . S
C1481 C1482 1.379 . S
C1482 H1466 0.931 . S
C1482 C1476 1.383 . S
C1482 C1481 1.379 . S
H1483 C1477 0.959 . S
H1484 C1477 0.961 . S
H1485 C1477 0.960 . S
H1486 C1478 0.930 . S
H1487 C1479 0.929 . S
H1488 C1496 0.929 . S
H1489 C1498 0.930 . S
H1490 C1500 0.930 . S
H1491 C1503 0.929 . S
H1492 C1506 0.930 . S
H1493 C1508 0.960 . S
H1494 C1508 0.960 . S
H1495 C1508 0.960 . S
C1496 H1488 0.929 . S
C1496 C1497 1.377 . S
C1496 C1498 1.384 . S
C1497 C1496 1.377 . S
C1497 C1503 1.390 . S
C1498 H1489 0.930 . S
C1498 C1496 1.384 . S
C1498 C1499 1.372 . S
C1499 C1498 1.372 . S
C1499 C1500 1.400 . S
C1499 C1504 1.490 . S
C1500 H1490 0.930 . S
C1500 C1499 1.400 . S
C1500 C1503 1.386 . S
H1501 C1517 0.930 . S
H1502 C1518 0.931 . S
C1503 H1491 0.929 . S
C1503 C1497 1.390 . S
C1503 C1500 1.386 . S
C1504 C1499 1.490 . S
C1504 C1506 1.395 . S
C1504 C1507 1.403 . S
H1505 C1511 0.930 . S
C1506 H1492 0.930 . S
C1506 C1504 1.395 . S
C1506 C1509 1.403 . S
C1507 C1504 1.403 . S
C1507 C1508 1.524 . S
C1507 C1511 1.400 . S
C1508 H1493 0.960 . S
C1508 H1494 0.960 . S
C1508 H1495 0.960 . S
C1508 C1507 1.524 . S
C1509 C1506 1.403 . S
C1509 C1510 1.392 . S
C1509 C1513 1.495 . S
C1510 C1509 1.392 . S
C1510 C1511 1.385 . S
C1510 C1512 1.478 . S
C1511 H1505 0.930 . S
C1511 C1507 1.400 . S
C1511 C1510 1.385 . S
C1512 C1510 1.478 . S
C1512 C1514 1.381 . S
C1512 C1518 1.383 . S
C1513 C1509 1.495 . S
C1513 H1519 0.959 . S
C1513 H1520 0.961 . S
C1513 H1521 0.960 . S
C1514 C1512 1.381 . S
C1514 C1515 1.394 . S
C1514 H1522 0.930 . S
C1515 C1514 1.394 . S
C1515 C1516 1.383 . S
C1515 H1523 0.929 . S
C1516 C1515 1.383 . S
C1516 C1517 1.377 . S
C1517 H1501 0.930 . S
C1517 C1516 1.377 . S
C1517 C1518 1.379 . S
C1518 H1502 0.931 . S
C1518 C1512 1.383 . S
C1518 C1517 1.379 . S
H1519 C1513 0.959 . S
H1520 C1513 0.961 . S
H1521 C1513 0.960 . S
H1522 C1514 0.930 . S
H1523 C1515 0.929 . S
H1524 C1532 0.929 . S
H1525 C1534 0.930 . S
H1526 C1536 0.930 . S
H1527 C1539 0.929 . S
H1528 C1542 0.930 . S
H1529 C1544 0.960 . S
H1530 C1544 0.960 . S
H1531 C1544 0.960 . S
C1532 H1524 0.929 . S
C1532 C1533 1.377 . S
C1532 C1534 1.384 . S
C1533 C1532 1.377 . S
C1533 C1539 1.390 . S
C1534 H1525 0.930 . S
C1534 C1532 1.384 . S
C1534 C1535 1.372 . S
C1535 C1534 1.372 . S
C1535 C1536 1.400 . S
C1535 C1540 1.490 . S
C1536 H1526 0.930 . S
C1536 C1535 1.400 . S
C1536 C1539 1.386 . S
H1537 C1553 0.930 . S
H1538 C1554 0.931 . S
C1539 H1527 0.929 . S
C1539 C1533 1.390 . S
C1539 C1536 1.386 . S
C1540 C1535 1.490 . S
C1540 C1542 1.395 . S
C1540 C1543 1.403 . S
H1541 C1547 0.930 . S
C1542 H1528 0.930 . S
C1542 C1540 1.395 . S
C1542 C1545 1.403 . S
C1543 C1540 1.403 . S
C1543 C1544 1.524 . S
C1543 C1547 1.400 . S
C1544 H1529 0.960 . S
C1544 H1530 0.960 . S
C1544 H1531 0.960 . S
C1544 C1543 1.524 . S
C1545 C1542 1.403 . S
C1545 C1546 1.392 . S
C1545 C1549 1.495 . S
C1546 C1545 1.392 . S
C1546 C1547 1.385 . S
C1546 C1548 1.478 . S
C1547 H1541 0.930 . S
C1547 C1543 1.400 . S
C1547 C1546 1.385 . S
C1548 C1546 1.478 . S
C1548 C1550 1.381 . S
C1548 C1554 1.383 . S
C1549 C1545 1.495 . S
C1549 H1555 0.959 . S
C1549 H1556 0.961 . S
C1549 H1557 0.960 . S
C1550 C1548 1.381 . S
C1550 C1551 1.394 . S
C1550 H1558 0.930 . S
C1551 C1550 1.394 . S
C1551 C1552 1.383 . S
C1551 H1559 0.929 . S
C1552 C1551 1.383 . S
C1552 C1553 1.377 . S
C1553 H1537 0.930 . S
C1553 C1552 1.377 . S
C1553 C1554 1.379 . S
C1554 H1538 0.931 . S
C1554 C1548 1.383 . S
C1554 C1553 1.379 . S
H1555 C1549 0.959 . S
H1556 C1549 0.961 . S
H1557 C1549 0.960 . S
H1558 C1550 0.930 . S
H1559 C1551 0.929 . S
H1560 C1568 0.929 . S
H1561 C1570 0.930 . S
H1562 C1572 0.930 . S
H1563 C1575 0.929 . S
H1564 C1578 0.930 . S
H1565 C1580 0.960 . S
H1566 C1580 0.960 . S
H1567 C1580 0.960 . S
C1568 H1560 0.929 . S
C1568 C1569 1.377 . S
C1568 C1570 1.384 . S
C1569 C1568 1.377 . S
C1569 C1575 1.390 . S
C1570 H1561 0.930 . S
C1570 C1568 1.384 . S
C1570 C1571 1.372 . S
C1571 C1570 1.372 . S
C1571 C1572 1.400 . S
C1571 C1576 1.490 . S
C1572 H1562 0.930 . S
C1572 C1571 1.400 . S
C1572 C1575 1.386 . S
H1573 C1589 0.930 . S
H1574 C1590 0.931 . S
C1575 H1563 0.929 . S
C1575 C1569 1.390 . S
C1575 C1572 1.386 . S
C1576 C1571 1.490 . S
C1576 C1578 1.395 . S
C1576 C1579 1.403 . S
H1577 C1583 0.930 . S
C1578 H1564 0.930 . S
C1578 C1576 1.395 . S
C1578 C1581 1.403 . S
C1579 C1576 1.403 . S
C1579 C1580 1.524 . S
C1579 C1583 1.400 . S
C1580 H1565 0.960 . S
C1580 H1566 0.960 . S
C1580 H1567 0.960 . S
C1580 C1579 1.524 . S
C1581 C1578 1.403 . S
C1581 C1582 1.392 . S
C1581 C1585 1.495 . S
C1582 C1581 1.392 . S
C1582 C1583 1.385 . S
C1582 C1584 1.478 . S
C1583 H1577 0.930 . S
C1583 C1579 1.400 . S
C1583 C1582 1.385 . S
C1584 C1582 1.478 . S
C1584 C1586 1.381 . S
C1584 C1590 1.383 . S
C1585 C1581 1.495 . S
C1585 H1591 0.959 . S
C1585 H1592 0.961 . S
C1585 H1593 0.960 . S
C1586 C1584 1.381 . S
C1586 C1587 1.394 . S
C1586 H1594 0.930 . S
C1587 C1586 1.394 . S
C1587 C1588 1.383 . S
C1587 H1595 0.929 . S
C1588 C1587 1.383 . S
C1588 C1589 1.377 . S
C1589 H1573 0.930 . S
C1589 C1588 1.377 . S
C1589 C1590 1.379 . S
C1590 H1574 0.931 . S
C1590 C1584 1.383 . S
C1590 C1589 1.379 . S
H1591 C1585 0.959 . S
H1592 C1585 0.961 . S
H1593 C1585 0.960 . S
H1594 C1586 0.930 . S
H1595 C1587 0.929 . S
H1596 C1604 0.929 . S
H1597 C1606 0.930 . S
H1598 C1608 0.930 . S
H1599 C1611 0.929 . S
H1600 C1614 0.930 . S
H1601 C1616 0.960 . S
H1602 C1616 0.960 . S
H1603 C1616 0.960 . S
C1604 H1596 0.929 . S
C1604 C1605 1.377 . S
C1604 C1606 1.384 . S
C1605 C1604 1.377 . S
C1605 C1611 1.390 . S
C1606 H1597 0.930 . S
C1606 C1604 1.384 . S
C1606 C1607 1.372 . S
C1607 C1606 1.372 . S
C1607 C1608 1.400 . S
C1607 C1612 1.490 . S
C1608 H1598 0.930 . S
C1608 C1607 1.400 . S
C1608 C1611 1.386 . S
H1609 C1625 0.930 . S
H1610 C1626 0.931 . S
C1611 H1599 0.929 . S
C1611 C1605 1.390 . S
C1611 C1608 1.386 . S
C1612 C1607 1.490 . S
C1612 C1614 1.395 . S
C1612 C1615 1.403 . S
H1613 C1619 0.930 . S
C1614 H1600 0.930 . S
C1614 C1612 1.395 . S
C1614 C1617 1.403 . S
C1615 C1612 1.403 . S
C1615 C1616 1.524 . S
C1615 C1619 1.400 . S
C1616 H1601 0.960 . S
C1616 H1602 0.960 . S
C1616 H1603 0.960 . S
C1616 C1615 1.524 . S
C1617 C1614 1.403 . S
C1617 C1618 1.392 . S
C1617 C1621 1.495 . S
C1618 C1617 1.392 . S
C1618 C1619 1.385 . S
C1618 C1620 1.478 . S
C1619 H1613 0.930 . S
C1619 C1615 1.400 . S
C1619 C1618 1.385 . S
C1620 C1618 1.478 . S
C1620 C1622 1.381 . S
C1620 C1626 1.383 . S
C1621 C1617 1.495 . S
C1621 H1627 0.959 . S
C1621 H1628 0.961 . S
C1621 H1629 0.960 . S
C1622 C1620 1.381 . S
C1622 C1623 1.394 . S
C1622 H1630 0.930 . S
C1623 C1622 1.394 . S
C1623 C1624 1.383 . S
C1623 H1631 0.929 . S
C1624 C1623 1.383 . S
C1624 C1625 1.377 . S
C1625 H1609 0.930 . S
C1625 C1624 1.377 . S
C1625 C1626 1.379 . S
C1626 H1610 0.931 . S
C1626 C1620 1.383 . S
C1626 C1625 1.379 . S
H1627 C1621 0.959 . S
H1628 C1621 0.961 . S
H1629 C1621 0.960 . S
H1630 C1622 0.930 . S
H1631 C1623 0.929 . S
H1632 C1640 0.929 . S
H1633 C1642 0.930 . S
H1634 C1644 0.930 . S
H1635 C1647 0.929 . S
H1636 C1650 0.930 . S
H1637 C1652 0.960 . S
H1638 C1652 0.960 . S
H1639 C1652 0.960 . S
C1640 H1632 0.929 . S
C1640 C1641 1.377 . S
C1640 C1642 1.384 . S
C1641 C1640 1.377 . S
C1641 C1647 1.390 . S
C1642 H1633 0.930 . S
C1642 C1640 1.384 . S
C1642 C1643 1.372 . S
C1643 C1642 1.372 . S
C1643 C1644 1.400 . S
C1643 C1648 1.490 . S
C1644 H1634 0.930 . S
C1644 C1643 1.400 . S
C1644 C1647 1.386 . S
H1645 C1661 0.930 . S
H1646 C1662 0.931 . S
C1647 H1635 0.929 . S
C1647 C1641 1.390 . S
C1647 C1644 1.386 . S
C1648 C1643 1.490 . S
C1648 C1650 1.395 . S
C1648 C1651 1.403 . S
H1649 C1655 0.930 . S
C1650 H1636 0.930 . S
C1650 C1648 1.395 . S
C1650 C1653 1.403 . S
C1651 C1648 1.403 . S
C1651 C1652 1.524 . S
C1651 C1655 1.400 . S
C1652 H1637 0.960 . S
C1652 H1638 0.960 . S
C1652 H1639 0.960 . S
C1652 C1651 1.524 . S
C1653 C1650 1.403 . S
C1653 C1654 1.392 . S
C1653 C1657 1.495 . S
C1654 C1653 1.392 . S
C1654 C1655 1.385 . S
C1654 C1656 1.478 . S
C1655 H1649 0.930 . S
C1655 C1651 1.400 . S
C1655 C1654 1.385 . S
C1656 C1654 1.478 . S
C1656 C1658 1.381 . S
C1656 C1662 1.383 . S
C1657 C1653 1.495 . S
C1657 H1663 0.959 . S
C1657 H1664 0.961 . S
C1657 H1665 0.960 . S
C1658 C1656 1.381 . S
C1658 C1659 1.394 . S
C1658 H1666 0.930 . S
C1659 C1658 1.394 . S
C1659 C1660 1.383 . S
C1659 H1667 0.929 . S
C1660 C1659 1.383 . S
C1660 C1661 1.377 . S
C1661 H1645 0.930 . S
C1661 C1660 1.377 . S
C1661 C1662 1.379 . S
C1662 H1646 0.931 . S
C1662 C1656 1.383 . S
C1662 C1661 1.379 . S
H1663 C1657 0.959 . S
H1664 C1657 0.961 . S
H1665 C1657 0.960 . S
H1666 C1658 0.930 . S
H1667 C1659 0.929 . S
H1668 C1676 0.929 . S
H1669 C1678 0.930 . S
H1670 C1680 0.930 . S
H1671 C1683 0.929 . S
H1672 C1686 0.930 . S
H1673 C1688 0.960 . S
H1674 C1688 0.960 . S
H1675 C1688 0.960 . S
C1676 H1668 0.929 . S
C1676 C1677 1.377 . S
C1676 C1678 1.384 . S
C1677 C1676 1.377 . S
C1677 C1683 1.390 . S
C1678 H1669 0.930 . S
C1678 C1676 1.384 . S
C1678 C1679 1.372 . S
C1679 C1678 1.372 . S
C1679 C1680 1.400 . S
C1679 C1684 1.490 . S
C1680 H1670 0.930 . S
C1680 C1679 1.400 . S
C1680 C1683 1.386 . S
H1681 C1697 0.930 1_455 S
H1682 C1698 0.931 . S
C1683 H1671 0.929 . S
C1683 C1677 1.390 . S
C1683 C1680 1.386 . S
C1684 C1679 1.490 . S
C1684 C1686 1.395 . S
C1684 C1687 1.403 . S
H1685 C1691 0.930 . S
C1686 H1672 0.930 . S
C1686 C1684 1.395 . S
C1686 C1689 1.403 . S
C1687 C1684 1.403 . S
C1687 C1688 1.524 . S
C1687 C1691 1.400 . S
C1688 H1673 0.960 . S
C1688 H1674 0.960 . S
C1688 H1675 0.960 . S
C1688 C1687 1.524 . S
C1689 C1686 1.403 . S
C1689 C1690 1.392 . S
C1689 C1693 1.495 . S
C1690 C1689 1.392 . S
C1690 C1691 1.385 . S
C1690 C1692 1.478 . S
C1691 H1685 0.930 . S
C1691 C1687 1.400 . S
C1691 C1690 1.385 . S
C1692 C1690 1.478 . S
C1692 C1694 1.381 . S
C1692 C1698 1.383 . S
C1693 C1689 1.495 . S
C1693 H1699 0.959 . S
C1693 H1700 0.961 . S
C1693 H1701 0.960 . S
C1694 C1692 1.381 . S
C1694 C1695 1.394 . S
C1694 H1702 0.930 . S
C1695 C1694 1.394 . S
C1695 C1696 1.383 . S
C1695 H1703 0.929 . S
C1696 C1695 1.383 . S
C1696 C1697 1.377 . S
C1697 H1681 0.930 1_655 S
C1697 C1696 1.377 . S
C1697 C1698 1.379 . S
C1698 H1682 0.931 . S
C1698 C1692 1.383 . S
C1698 C1697 1.379 . S
H1699 C1693 0.959 . S
H1700 C1693 0.961 . S
H1701 C1693 0.960 . S
H1702 C1694 0.930 . S
H1703 C1695 0.929 . S
H1704 C1712 0.929 . S
H1705 C1714 0.930 . S
H1706 C1716 0.930 . S
H1707 C1719 0.929 . S
H1708 C1722 0.930 . S
H1709 C1724 0.960 . S
H1710 C1724 0.960 . S
H1711 C1724 0.960 . S
C1712 H1704 0.929 . S
C1712 C1713 1.377 . S
C1712 C1714 1.384 . S
C1713 C1712 1.377 . S
C1713 C1719 1.390 . S
C1714 H1705 0.930 . S
C1714 C1712 1.384 . S
C1714 C1715 1.372 . S
C1715 C1714 1.372 . S
C1715 C1716 1.400 . S
C1715 C1720 1.490 . S
C1716 H1706 0.930 . S
C1716 C1715 1.400 . S
C1716 C1719 1.386 . S
H1717 C1733 0.930 . S
H1718 C1734 0.931 . S
C1719 H1707 0.929 . S
C1719 C1713 1.390 . S
C1719 C1716 1.386 . S
C1720 C1715 1.490 . S
C1720 C1722 1.395 . S
C1720 C1723 1.403 . S
H1721 C1727 0.930 . S
C1722 H1708 0.930 . S
C1722 C1720 1.395 . S
C1722 C1725 1.403 . S
C1723 C1720 1.403 . S
C1723 C1724 1.524 . S
C1723 C1727 1.400 . S
C1724 H1709 0.960 . S
C1724 H1710 0.960 . S
C1724 H1711 0.960 . S
C1724 C1723 1.524 . S
C1725 C1722 1.403 . S
C1725 C1726 1.392 . S
C1725 C1729 1.495 . S
C1726 C1725 1.392 . S
C1726 C1727 1.385 . S
C1726 C1728 1.478 . S
C1727 H1721 0.930 . S
C1727 C1723 1.400 . S
C1727 C1726 1.385 . S
C1728 C1726 1.478 . S
C1728 C1730 1.381 . S
C1728 C1734 1.383 . S
C1729 C1725 1.495 . S
C1729 H1735 0.959 . S
C1729 H1736 0.961 . S
C1729 H1737 0.960 . S
C1730 C1728 1.381 . S
C1730 C1731 1.394 1_565 S
C1730 H1738 0.930 . S
C1731 C1730 1.394 1_545 S
C1731 C1732 1.383 . S
C1731 H1739 0.929 . S
C1732 C1731 1.383 . S
C1732 C1733 1.377 . S
C1733 H1717 0.930 . S
C1733 C1732 1.377 . S
C1733 C1734 1.379 1_545 S
C1734 H1718 0.931 . S
C1734 C1728 1.383 . S
C1734 C1733 1.379 1_565 S
H1735 C1729 0.959 . S
H1736 C1729 0.961 . S
H1737 C1729 0.960 . S
H1738 C1730 0.930 . S
H1739 C1731 0.929 . S
H1740 C1748 0.929 . S
H1741 C1750 0.930 . S
H1742 C1752 0.930 . S
H1743 C1755 0.929 . S
H1744 C1758 0.930 . S
H1745 C1760 0.960 . S
H1746 C1760 0.960 . S
H1747 C1760 0.960 . S
C1748 H1740 0.929 . S
C1748 C1749 1.377 . S
C1748 C1750 1.384 . S
C1749 C1748 1.377 . S
C1749 C1755 1.390 . S
C1750 H1741 0.930 . S
C1750 C1748 1.384 . S
C1750 C1751 1.372 . S
C1751 C1750 1.372 . S
C1751 C1752 1.400 . S
C1751 C1756 1.490 . S
C1752 H1742 0.930 . S
C1752 C1751 1.400 . S
C1752 C1755 1.386 . S
H1753 C1769 0.930 . S
H1754 C1770 0.931 . S
C1755 H1743 0.929 . S
C1755 C1749 1.390 . S
C1755 C1752 1.386 . S
C1756 C1751 1.490 . S
C1756 C1758 1.395 . S
C1756 C1759 1.403 . S
H1757 C1763 0.930 . S
C1758 H1744 0.930 . S
C1758 C1756 1.395 . S
C1758 C1761 1.403 . S
C1759 C1756 1.403 . S
C1759 C1760 1.524 . S
C1759 C1763 1.400 . S
C1760 H1745 0.960 . S
C1760 H1746 0.960 . S
C1760 H1747 0.960 . S
C1760 C1759 1.524 . S
C1761 C1758 1.403 . S
C1761 C1762 1.392 . S
C1761 C1765 1.495 . S
C1762 C1761 1.392 . S
C1762 C1763 1.385 . S
C1762 C1764 1.478 . S
C1763 H1757 0.930 . S
C1763 C1759 1.400 . S
C1763 C1762 1.385 . S
C1764 C1762 1.478 . S
C1764 C1766 1.381 . S
C1764 C1770 1.383 . S
C1765 C1761 1.495 . S
C1765 H1771 0.959 . S
C1765 H1772 0.961 . S
C1765 H1773 0.960 . S
C1766 C1764 1.381 . S
C1766 C1767 1.394 . S
C1766 H1774 0.930 . S
C1767 C1766 1.394 . S
C1767 C1768 1.383 . S
C1767 H1775 0.929 . S
C1768 C1767 1.383 . S
C1768 C1769 1.377 . S
C1769 H1753 0.930 . S
C1769 C1768 1.377 . S
C1769 C1770 1.379 . S
C1770 H1754 0.931 . S
C1770 C1764 1.383 . S
C1770 C1769 1.379 . S
H1771 C1765 0.959 . S
H1772 C1765 0.961 . S
H1773 C1765 0.960 . S
H1774 C1766 0.930 . S
H1775 C1767 0.929 . S
H1776 C1784 0.929 . S
H1777 C1786 0.930 . S
H1778 C1788 0.930 . S
H1779 C1791 0.929 . S
H1780 C1794 0.930 . S
H1781 C1796 0.960 . S
H1782 C1796 0.960 . S
H1783 C1796 0.960 . S
C1784 H1776 0.929 . S
C1784 C1785 1.377 . S
C1784 C1786 1.384 . S
C1785 C1784 1.377 . S
C1785 C1791 1.390 . S
C1786 H1777 0.930 . S
C1786 C1784 1.384 . S
C1786 C1787 1.372 . S
C1787 C1786 1.372 . S
C1787 C1788 1.400 . S
C1787 C1792 1.490 . S
C1788 H1778 0.930 . S
C1788 C1787 1.400 . S
C1788 C1791 1.386 . S
H1789 C1805 0.930 . S
H1790 C1806 0.931 . S
C1791 H1779 0.929 . S
C1791 C1785 1.390 . S
C1791 C1788 1.386 . S
C1792 C1787 1.490 . S
C1792 C1794 1.395 1_545 S
C1792 C1795 1.403 . S
H1793 C1799 0.930 . S
C1794 H1780 0.930 . S
C1794 C1792 1.395 1_565 S
C1794 C1797 1.403 . S
C1795 C1792 1.403 . S
C1795 C1796 1.524 . S
C1795 C1799 1.400 1_545 S
C1796 H1781 0.960 . S
C1796 H1782 0.960 . S
C1796 H1783 0.960 . S
C1796 C1795 1.524 . S
C1797 C1794 1.403 . S
C1797 C1798 1.392 . S
C1797 C1801 1.500 . S
C1798 C1797 1.392 . S
C1798 C1799 1.385 . S
C1798 C1800 1.478 1_556 S
C1799 H1793 0.930 . S
C1799 C1795 1.400 1_565 S
C1799 C1798 1.385 . S
C1800 C1798 1.478 1_554 S
C1800 C1802 1.381 1_554 S
C1800 C1806 1.383 . S
C1801 C1797 1.500 . S
C1801 H1807 0.963 . S
C1801 H1808 0.947 1_556 S
C1801 H1809 0.965 . S
C1802 C1800 1.381 1_556 S
C1802 C1803 1.394 1_556 S
C1802 H1810 0.930 . S
C1803 C1802 1.394 1_554 S
C1803 C1804 1.383 . S
C1803 H1811 0.919 1_554 S
C1804 C1803 1.383 . S
C1804 C1805 1.377 . S
C1805 H1789 0.930 . S
C1805 C1804 1.377 . S
C1805 C1806 1.379 . S
C1806 H1790 0.931 . S
C1806 C1800 1.383 . S
C1806 C1805 1.379 . S
H1807 C1801 0.963 . S
H1808 C1801 0.947 1_554 S
H1809 C1801 0.965 . S
H1810 C1802 0.930 . S
H1811 C1803 0.919 1_556 S
H1812 C1820 0.929 . S
H1813 C1822 0.930 . S
H1814 C1824 0.930 . S
H1815 C1827 0.929 . S
H1816 C1830 0.930 . S
H1817 C1832 0.960 . S
H1818 C1832 0.960 . S
H1819 C1832 0.960 . S
C1820 H1812 0.929 . S
C1820 C1821 1.377 . S
C1820 C1822 1.384 . S
C1821 C1820 1.377 . S
C1821 C1827 1.390 . S
C1822 H1813 0.930 . S
C1822 C1820 1.384 . S
C1822 C1823 1.372 . S
C1823 C1822 1.372 . S
C1823 C1824 1.400 . S
C1823 C1828 1.490 . S
C1824 H1814 0.930 . S
C1824 C1823 1.400 . S
C1824 C1827 1.386 . S
H1825 C1841 0.930 . S
H1826 C1842 0.931 . S
C1827 H1815 0.929 . S
C1827 C1821 1.390 . S
C1827 C1824 1.386 . S
C1828 C1823 1.490 . S
C1828 C1830 1.395 . S
C1828 C1831 1.403 . S
H1829 C1835 0.930 . S
C1830 H1816 0.930 . S
C1830 C1828 1.395 . S
C1830 C1833 1.403 . S
C1831 C1828 1.403 . S
C1831 C1832 1.524 . S
C1831 C1835 1.400 . S
C1832 H1817 0.960 . S
C1832 H1818 0.960 . S
C1832 H1819 0.960 . S
C1832 C1831 1.524 . S
C1833 C1830 1.403 . S
C1833 C1834 1.392 . S
C1833 C1837 1.495 . S
C1834 C1833 1.392 . S
C1834 C1835 1.385 . S
C1834 C1836 1.478 . S
C1835 H1829 0.930 . S
C1835 C1831 1.400 . S
C1835 C1834 1.385 . S
C1836 C1834 1.478 . S
C1836 C1838 1.381 . S
C1836 C1842 1.383 . S
C1837 C1833 1.495 . S
C1837 H1843 0.959 . S
C1837 H1844 0.961 . S
C1837 H1845 0.960 . S
C1838 C1836 1.381 . S
C1838 C1839 1.394 . S
C1838 H1846 0.930 . S
C1839 C1838 1.394 . S
C1839 C1840 1.383 . S
C1839 H1847 0.929 . S
C1840 C1839 1.383 . S
C1840 C1841 1.377 . S
C1841 H1825 0.930 . S
C1841 C1840 1.377 . S
C1841 C1842 1.379 . S
C1842 H1826 0.931 . S
C1842 C1836 1.383 . S
C1842 C1841 1.379 . S
H1843 C1837 0.959 . S
H1844 C1837 0.961 . S
H1845 C1837 0.960 . S
H1846 C1838 0.930 . S
H1847 C1839 0.929 . S
H1848 C1856 0.929 1_565 S
H1849 C1858 0.930 . S
H1850 C1860 0.930 . S
H1851 C1863 0.929 . S
H1852 C1866 0.930 . S
H1853 C1868 0.960 . S
H1854 C1868 0.960 . S
H1855 C1868 0.960 . S
C1856 H1848 0.929 1_545 S
C1856 C1857 1.377 . S
C1856 C1858 1.384 . S
C1857 C1856 1.377 . S
C1857 C1863 1.390 . S
C1858 H1849 0.930 . S
C1858 C1856 1.384 . S
C1858 C1859 1.372 . S
C1859 C1858 1.372 . S
C1859 C1860 1.400 . S
C1859 C1864 1.490 . S
C1860 H1850 0.930 . S
C1860 C1859 1.400 . S
C1860 C1863 1.386 . S
H1861 C1877 0.930 . S
H1862 C1878 0.931 . S
C1863 H1851 0.929 . S
C1863 C1857 1.390 . S
C1863 C1860 1.386 . S
C1864 C1859 1.490 . S
C1864 C1866 1.395 . S
C1864 C1867 1.403 . S
H1865 C1871 0.930 . S
C1866 H1852 0.930 . S
C1866 C1864 1.395 . S
C1866 C1869 1.403 . S
C1867 C1864 1.403 . S
C1867 C1868 1.524 . S
C1867 C1871 1.400 . S
C1868 H1853 0.960 . S
C1868 H1854 0.960 . S
C1868 H1855 0.960 . S
C1868 C1867 1.524 . S
C1869 C1866 1.403 . S
C1869 C1870 1.392 . S
C1869 C1873 1.495 . S
C1870 C1869 1.392 . S
C1870 C1871 1.385 . S
C1870 C1872 1.478 . S
C1871 H1865 0.930 . S
C1871 C1867 1.400 . S
C1871 C1870 1.385 . S
C1872 C1870 1.478 . S
C1872 C1874 1.381 . S
C1872 C1878 1.383 . S
C1873 C1869 1.495 . S
C1873 H1879 0.959 . S
C1873 H1880 0.961 . S
C1873 H1881 0.960 . S
C1874 C1872 1.381 . S
C1874 C1875 1.394 . S
C1874 H1882 0.930 . S
C1875 C1874 1.394 . S
C1875 C1876 1.383 . S
C1875 H1883 0.929 . S
C1876 C1875 1.383 . S
C1876 C1877 1.377 . S
C1877 H1861 0.930 . S
C1877 C1876 1.377 . S
C1877 C1878 1.379 . S
C1878 H1862 0.931 . S
C1878 C1872 1.383 . S
C1878 C1877 1.379 . S
H1879 C1873 0.959 . S
H1880 C1873 0.961 . S
H1881 C1873 0.960 . S
H1882 C1874 0.930 . S
H1883 C1875 0.929 . S
H1884 C1892 0.929 . S
H1885 C1894 0.930 . S
H1886 C1896 0.930 . S
H1887 C1899 0.929 . S
H1888 C1902 0.930 . S
H1889 C1904 0.960 . S
H1890 C1904 0.960 . S
H1891 C1904 0.960 . S
C1892 H1884 0.929 . S
C1892 C1893 1.377 . S
C1892 C1894 1.384 . S
C1893 C1892 1.377 . S
C1893 C1899 1.390 . S
C1894 H1885 0.930 . S
C1894 C1892 1.384 . S
C1894 C1895 1.372 . S
C1895 C1894 1.372 . S
C1895 C1896 1.400 . S
C1895 C1900 1.490 . S
C1896 H1886 0.930 . S
C1896 C1895 1.400 . S
C1896 C1899 1.386 . S
H1897 C1913 0.930 . S
H1898 C1914 0.931 . S
C1899 H1887 0.929 . S
C1899 C1893 1.390 . S
C1899 C1896 1.386 . S
C1900 C1895 1.490 . S
C1900 C1902 1.395 . S
C1900 C1903 1.403 . S
H1901 C1907 0.930 . S
C1902 H1888 0.930 . S
C1902 C1900 1.395 . S
C1902 C1905 1.403 . S
C1903 C1900 1.403 . S
C1903 C1904 1.524 . S
C1903 C1907 1.400 . S
C1904 H1889 0.960 . S
C1904 H1890 0.960 . S
C1904 H1891 0.960 . S
C1904 C1903 1.524 . S
C1905 C1902 1.403 . S
C1905 C1906 1.392 . S
C1905 C1909 1.495 . S
C1906 C1905 1.392 . S
C1906 C1907 1.385 . S
C1906 C1908 1.478 . S
C1907 H1901 0.930 . S
C1907 C1903 1.400 . S
C1907 C1906 1.385 . S
C1908 C1906 1.478 . S
C1908 C1910 1.381 . S
C1908 C1914 1.383 . S
C1909 C1905 1.495 . S
C1909 H1915 0.959 . S
C1909 H1916 0.961 . S
C1909 H1917 0.960 . S
C1910 C1908 1.381 . S
C1910 C1911 1.394 . S
C1910 H1918 0.930 . S
C1911 C1910 1.394 . S
C1911 C1912 1.383 . S
C1911 H1919 0.929 . S
C1912 C1911 1.383 . S
C1912 C1913 1.377 . S
C1913 H1897 0.930 . S
C1913 C1912 1.377 . S
C1913 C1914 1.379 . S
C1914 H1898 0.931 . S
C1914 C1908 1.383 . S
C1914 C1913 1.379 . S
H1915 C1909 0.959 . S
H1916 C1909 0.961 . S
H1917 C1909 0.960 . S
H1918 C1910 0.930 . S
H1919 C1911 0.929 . S
H1920 C1928 0.929 . S
H1921 C1930 0.930 . S
H1922 C1932 0.930 . S
H1923 C1935 0.929 . S
H1924 C1938 0.930 . S
H1925 C1940 0.960 . S
H1926 C1940 0.960 . S
H1927 C1940 0.960 . S
C1928 H1920 0.929 . S
C1928 C1929 1.377 . S
C1928 C1930 1.384 1_565 S
C1929 C1928 1.377 . S
C1929 C1935 1.390 . S
C1930 H1921 0.930 . S
C1930 C1928 1.384 1_545 S
C1930 C1931 1.372 . S
C1931 C1930 1.372 . S
C1931 C1932 1.400 1_545 S
C1931 C1936 1.490 . S
C1932 H1922 0.930 . S
C1932 C1931 1.400 1_565 S
C1932 C1935 1.386 . S
H1933 C1949 0.930 . S
H1934 C1950 0.931 . S
C1935 H1923 0.929 . S
C1935 C1929 1.390 . S
C1935 C1932 1.386 . S
C1936 C1931 1.490 . S
C1936 C1938 1.395 . S
C1936 C1939 1.403 . S
H1937 C1943 0.930 . S
C1938 H1924 0.930 . S
C1938 C1936 1.395 . S
C1938 C1941 1.403 . S
C1939 C1936 1.403 . S
C1939 C1940 1.524 . S
C1939 C1943 1.400 . S
C1940 H1925 0.960 . S
C1940 H1926 0.960 . S
C1940 H1927 0.960 . S
C1940 C1939 1.524 . S
C1941 C1938 1.403 . S
C1941 C1942 1.392 . S
C1941 C1945 1.495 . S
C1942 C1941 1.392 . S
C1942 C1943 1.385 . S
C1942 C1944 1.478 . S
C1943 H1937 0.930 . S
C1943 C1939 1.400 . S
C1943 C1942 1.385 . S
C1944 C1942 1.478 . S
C1944 C1946 1.381 . S
C1944 C1950 1.383 . S
C1945 C1941 1.495 . S
C1945 H1951 0.959 . S
C1945 H1952 0.961 . S
C1945 H1953 0.960 . S
C1946 C1944 1.381 . S
C1946 C1947 1.394 . S
C1946 H1954 0.930 . S
C1947 C1946 1.394 . S
C1947 C1948 1.383 . S
C1947 H1955 0.929 . S
C1948 C1947 1.383 . S
C1948 C1949 1.377 . S
C1949 H1933 0.930 . S
C1949 C1948 1.377 . S
C1949 C1950 1.379 . S
C1950 H1934 0.931 . S
C1950 C1944 1.383 . S
C1950 C1949 1.379 . S
H1951 C1945 0.959 . S
H1952 C1945 0.961 . S
H1953 C1945 0.960 . S
H1954 C1946 0.930 . S
H1955 C1947 0.929 . S
H1956 C1964 0.929 . S
H1957 C1966 0.930 . S
H1958 C1968 0.930 . S
H1959 C1971 0.929 . S
H1960 C1974 0.930 . S
H1961 C1976 0.960 . S
H1962 C1976 0.960 . S
H1963 C1976 0.960 . S
C1964 H1956 0.929 . S
C1964 C1965 1.377 . S
C1964 C1966 1.384 . S
C1965 C1964 1.377 . S
C1965 C1971 1.390 . S
C1966 H1957 0.930 . S
C1966 C1964 1.384 . S
C1966 C1967 1.372 . S
C1967 C1966 1.372 . S
C1967 C1968 1.400 . S
C1967 C1972 1.490 . S
C1968 H1958 0.930 . S
C1968 C1967 1.400 . S
C1968 C1971 1.386 . S
H1969 C1985 0.930 . S
H1970 C1986 0.931 . S
C1971 H1959 0.929 . S
C1971 C1965 1.390 . S
C1971 C1968 1.386 . S
C1972 C1967 1.490 . S
C1972 C1974 1.395 . S
C1972 C1975 1.403 . S
H1973 C1979 0.930 . S
C1974 H1960 0.930 . S
C1974 C1972 1.395 . S
C1974 C1977 1.403 . S
C1975 C1972 1.403 . S
C1975 C1976 1.524 . S
C1975 C1979 1.400 . S
C1976 H1961 0.960 . S
C1976 H1962 0.960 . S
C1976 H1963 0.960 . S
C1976 C1975 1.524 . S
C1977 C1974 1.403 . S
C1977 C1978 1.392 . S
C1977 C1981 1.495 . S
C1978 C1977 1.392 . S
C1978 C1979 1.385 . S
C1978 C1980 1.478 . S
C1979 H1973 0.930 . S
C1979 C1975 1.400 . S
C1979 C1978 1.385 . S
C1980 C1978 1.478 . S
C1980 C1982 1.381 . S
C1980 C1986 1.383 . S
C1981 C1977 1.495 . S
C1981 H1987 0.959 . S
C1981 H1988 0.961 . S
C1981 H1989 0.960 . S
C1982 C1980 1.381 . S
C1982 C1983 1.394 . S
C1982 H1990 0.930 . S
C1983 C1982 1.394 . S
C1983 C1984 1.383 . S
C1983 H1991 0.929 . S
C1984 C1983 1.383 . S
C1984 C1985 1.377 . S
C1985 H1969 0.930 . S
C1985 C1984 1.377 . S
C1985 C1986 1.379 . S
C1986 H1970 0.931 . S
C1986 C1980 1.383 . S
C1986 C1985 1.379 . S
H1987 C1981 0.959 . S
H1988 C1981 0.961 . S
H1989 C1981 0.960 . S
H1990 C1982 0.930 . S
H1991 C1983 0.929 . S
H1992 C2000 0.929 . S
H1993 C2002 0.930 . S
H1994 C2004 0.930 . S
H1995 C2007 0.929 . S
H1996 C2010 0.930 . S
H1997 C2012 0.960 . S
H1998 C2012 0.960 . S
H1999 C2012 0.960 . S
C2000 H1992 0.929 . S
C2000 C2001 1.377 . S
C2000 C2002 1.384 . S
C2001 C2000 1.377 . S
C2001 C2007 1.390 . S
C2002 H1993 0.930 . S
C2002 C2000 1.384 . S
C2002 C2003 1.372 . S
C2003 C2002 1.372 . S
C2003 C2004 1.400 . S
C2003 C2008 1.490 . S
C2004 H1994 0.930 . S
C2004 C2003 1.400 . S
C2004 C2007 1.386 . S
H2005 C2021 0.930 . S
H2006 C2022 0.931 . S
C2007 H1995 0.929 . S
C2007 C2001 1.390 . S
C2007 C2004 1.386 . S
C2008 C2003 1.490 . S
C2008 C2010 1.395 . S
C2008 C2011 1.403 . S
H2009 C2015 0.930 . S
C2010 H1996 0.930 . S
C2010 C2008 1.395 . S
C2010 C2013 1.403 . S
C2011 C2008 1.403 . S
C2011 C2012 1.524 . S
C2011 C2015 1.400 . S
C2012 H1997 0.960 . S
C2012 H1998 0.960 . S
C2012 H1999 0.960 . S
C2012 C2011 1.524 . S
C2013 C2010 1.403 . S
C2013 C2014 1.392 . S
C2013 C2017 1.495 . S
C2014 C2013 1.392 . S
C2014 C2015 1.385 . S
C2014 C2016 1.478 . S
C2015 H2009 0.930 . S
C2015 C2011 1.400 . S
C2015 C2014 1.385 . S
C2016 C2014 1.478 . S
C2016 C2018 1.381 . S
C2016 C2022 1.383 . S
C2017 C2013 1.495 . S
C2017 H2023 0.959 . S
C2017 H2024 0.961 . S
C2017 H2025 0.960 . S
C2018 C2016 1.381 . S
C2018 C2019 1.394 . S
C2018 H2026 0.930 . S
C2019 C2018 1.394 . S
C2019 C2020 1.383 . S
C2019 H2027 0.929 . S
C2020 C2019 1.383 . S
C2020 C2021 1.377 . S
C2021 H2005 0.930 . S
C2021 C2020 1.377 . S
C2021 C2022 1.379 . S
C2022 H2006 0.931 . S
C2022 C2016 1.383 . S
C2022 C2021 1.379 . S
H2023 C2017 0.959 . S
H2024 C2017 0.961 . S
H2025 C2017 0.960 . S
H2026 C2018 0.930 . S
H2027 C2019 0.929 . S
H2028 C2036 0.929 . S
H2029 C2038 0.930 . S
H2030 C2040 0.930 . S
H2031 C2043 0.929 . S
H2032 C2046 0.930 . S
H2033 C2048 0.960 . S
H2034 C2048 0.960 . S
H2035 C2048 0.960 . S
C2036 H2028 0.929 . S
C2036 C2037 1.377 . S
C2036 C2038 1.384 . S
C2037 C2036 1.377 . S
C2037 C2043 1.390 . S
C2038 H2029 0.930 . S
C2038 C2036 1.384 . S
C2038 C2039 1.372 . S
C2039 C2038 1.372 . S
C2039 C2040 1.400 . S
C2039 C2044 1.490 . S
C2040 H2030 0.930 . S
C2040 C2039 1.400 . S
C2040 C2043 1.386 . S
H2041 C2057 0.930 . S
H2042 C2058 0.931 . S
C2043 H2031 0.929 . S
C2043 C2037 1.390 . S
C2043 C2040 1.386 . S
C2044 C2039 1.490 . S
C2044 C2046 1.395 . S
C2044 C2047 1.403 . S
H2045 C2051 0.930 . S
C2046 H2032 0.930 . S
C2046 C2044 1.395 . S
C2046 C2049 1.403 . S
C2047 C2044 1.403 . S
C2047 C2048 1.524 . S
C2047 C2051 1.400 . S
C2048 H2033 0.960 . S
C2048 H2034 0.960 . S
C2048 H2035 0.960 . S
C2048 C2047 1.524 . S
C2049 C2046 1.403 . S
C2049 C2050 1.392 . S
C2049 C2053 1.495 . S
C2050 C2049 1.392 . S
C2050 C2051 1.385 . S
C2050 C2052 1.478 . S
C2051 H2045 0.930 . S
C2051 C2047 1.400 . S
C2051 C2050 1.385 . S
C2052 C2050 1.478 . S
C2052 C2054 1.381 . S
C2052 C2058 1.383 . S
C2053 C2049 1.495 . S
C2053 H2059 0.959 . S
C2053 H2060 0.961 . S
C2053 H2061 0.960 . S
C2054 C2052 1.381 . S
C2054 C2055 1.394 . S
C2054 H2062 0.930 . S
C2055 C2054 1.394 . S
C2055 C2056 1.383 . S
C2055 H2063 0.929 . S
C2056 C2055 1.383 . S
C2056 C2057 1.377 . S
C2057 H2041 0.930 . S
C2057 C2056 1.377 . S
C2057 C2058 1.379 . S
C2058 H2042 0.931 . S
C2058 C2052 1.383 . S
C2058 C2057 1.379 . S
H2059 C2053 0.959 . S
H2060 C2053 0.961 . S
H2061 C2053 0.960 . S
H2062 C2054 0.930 . S
H2063 C2055 0.929 . S
H2064 C2072 0.929 . S
H2065 C2074 0.930 . S
H2066 C2076 0.930 . S
H2067 C2079 0.929 . S
H2068 C2082 0.930 . S
H2069 C2084 0.960 . S
H2070 C2084 0.960 . S
H2071 C2084 0.960 . S
C2072 H2064 0.929 . S
C2072 C2073 1.377 . S
C2072 C2074 1.384 . S
C2073 C2072 1.377 . S
C2073 C2079 1.390 . S
C2074 H2065 0.930 . S
C2074 C2072 1.384 . S
C2074 C2075 1.372 . S
C2075 C2074 1.372 . S
C2075 C2076 1.400 . S
C2075 C2080 1.490 . S
C2076 H2066 0.930 . S
C2076 C2075 1.400 . S
C2076 C2079 1.386 . S
H2077 C2093 0.930 . S
H2078 C2094 0.931 . S
C2079 H2067 0.929 . S
C2079 C2073 1.390 . S
C2079 C2076 1.386 . S
C2080 C2075 1.490 . S
C2080 C2082 1.395 . S
C2080 C2083 1.403 . S
H2081 C2087 0.930 . S
C2082 H2068 0.930 . S
C2082 C2080 1.395 . S
C2082 C2085 1.403 . S
C2083 C2080 1.403 . S
C2083 C2084 1.524 . S
C2083 C2087 1.400 . S
C2084 H2069 0.960 . S
C2084 H2070 0.960 . S
C2084 H2071 0.960 . S
C2084 C2083 1.524 . S
C2085 C2082 1.403 . S
C2085 C2086 1.392 . S
C2085 C2089 1.495 . S
C2086 C2085 1.392 . S
C2086 C2087 1.385 . S
C2086 C2088 1.478 . S
C2087 H2081 0.930 . S
C2087 C2083 1.400 . S
C2087 C2086 1.385 . S
C2088 C2086 1.478 . S
C2088 C2090 1.381 . S
C2088 C2094 1.383 . S
C2089 C2085 1.495 . S
C2089 H2095 0.959 . S
C2089 H2096 0.961 . S
C2089 H2097 0.960 . S
C2090 C2088 1.381 . S
C2090 C2091 1.394 . S
C2090 H2098 0.930 . S
C2091 C2090 1.394 . S
C2091 C2092 1.383 . S
C2091 H2099 0.929 . S
C2092 C2091 1.383 . S
C2092 C2093 1.377 . S
C2093 H2077 0.930 . S
C2093 C2092 1.377 . S
C2093 C2094 1.379 . S
C2094 H2078 0.931 . S
C2094 C2088 1.383 . S
C2094 C2093 1.379 . S
H2095 C2089 0.959 . S
H2096 C2089 0.961 . S
H2097 C2089 0.960 . S
H2098 C2090 0.930 . S
H2099 C2091 0.929 . S
H2100 C2108 0.929 . S
H2101 C2110 0.930 . S
H2102 C2112 0.930 . S
H2103 C2115 0.929 . S
H2104 C2118 0.930 . S
H2105 C2120 0.960 . S
H2106 C2120 0.960 . S
H2107 C2120 0.960 . S
C2108 H2100 0.929 . S
C2108 C2109 1.377 . S
C2108 C2110 1.384 . S
C2109 C2108 1.377 . S
C2109 C2115 1.390 . S
C2110 H2101 0.930 . S
C2110 C2108 1.384 . S
C2110 C2111 1.372 . S
C2111 C2110 1.372 . S
C2111 C2112 1.400 . S
C2111 C2116 1.490 . S
C2112 H2102 0.930 . S
C2112 C2111 1.400 . S
C2112 C2115 1.386 . S
H2113 C2129 0.930 . S
H2114 C2130 0.931 . S
C2115 H2103 0.929 . S
C2115 C2109 1.390 . S
C2115 C2112 1.386 . S
C2116 C2111 1.490 . S
C2116 C2118 1.395 . S
C2116 C2119 1.403 . S
H2117 C2123 0.930 . S
C2118 H2104 0.930 . S
C2118 C2116 1.395 . S
C2118 C2121 1.403 . S
C2119 C2116 1.403 . S
C2119 C2120 1.524 . S
C2119 C2123 1.400 . S
C2120 H2105 0.960 . S
C2120 H2106 0.960 . S
C2120 H2107 0.960 . S
C2120 C2119 1.524 . S
C2121 C2118 1.403 . S
C2121 C2122 1.392 . S
C2121 C2125 1.495 . S
C2122 C2121 1.392 . S
C2122 C2123 1.385 . S
C2122 C2124 1.478 . S
C2123 H2117 0.930 . S
C2123 C2119 1.400 . S
C2123 C2122 1.385 . S
C2124 C2122 1.478 . S
C2124 C2126 1.381 . S
C2124 C2130 1.383 . S
C2125 C2121 1.495 . S
C2125 H2131 0.959 . S
C2125 H2132 0.961 . S
C2125 H2133 0.960 . S
C2126 C2124 1.381 . S
C2126 C2127 1.394 . S
C2126 H2134 0.930 . S
C2127 C2126 1.394 . S
C2127 C2128 1.383 . S
C2127 H2135 0.929 . S
C2128 C2127 1.383 . S
C2128 C2129 1.377 . S
C2129 H2113 0.930 . S
C2129 C2128 1.377 . S
C2129 C2130 1.379 . S
C2130 H2114 0.931 . S
C2130 C2124 1.383 . S
C2130 C2129 1.379 . S
H2131 C2125 0.959 . S
H2132 C2125 0.961 . S
H2133 C2125 0.960 . S
H2134 C2126 0.930 . S
H2135 C2127 0.929 . S
H2136 C2144 0.929 . S
H2137 C2146 0.930 . S
H2138 C2148 0.930 . S
H2139 C2151 0.929 . S
H2140 C2154 0.930 . S
H2141 C2156 0.960 . S
H2142 C2156 0.960 . S
H2143 C2156 0.960 . S
C2144 H2136 0.929 . S
C2144 C2145 1.377 . S
C2144 C2146 1.384 . S
C2145 C2144 1.377 . S
C2145 C2151 1.390 . S
C2146 H2137 0.930 . S
C2146 C2144 1.384 . S
C2146 C2147 1.372 . S
C2147 C2146 1.372 . S
C2147 C2148 1.400 . S
C2147 C2152 1.490 . S
C2148 H2138 0.930 . S
C2148 C2147 1.400 . S
C2148 C2151 1.386 . S
H2149 C2165 0.930 . S
H2150 C2166 0.931 . S
C2151 H2139 0.929 . S
C2151 C2145 1.390 . S
C2151 C2148 1.386 . S
C2152 C2147 1.490 . S
C2152 C2154 1.395 . S
C2152 C2155 1.403 . S
H2153 C2159 0.930 . S
C2154 H2140 0.930 . S
C2154 C2152 1.395 . S
C2154 C2157 1.403 . S
C2155 C2152 1.403 . S
C2155 C2156 1.524 . S
C2155 C2159 1.400 . S
C2156 H2141 0.960 . S
C2156 H2142 0.960 . S
C2156 H2143 0.960 . S
C2156 C2155 1.524 . S
C2157 C2154 1.403 . S
C2157 C2158 1.392 . S
C2157 C2161 1.495 . S
C2158 C2157 1.392 . S
C2158 C2159 1.385 . S
C2158 C2160 1.478 . S
C2159 H2153 0.930 . S
C2159 C2155 1.400 . S
C2159 C2158 1.385 . S
C2160 C2158 1.478 . S
C2160 C2162 1.381 . S
C2160 C2166 1.383 . S
C2161 C2157 1.495 . S
C2161 H2167 0.959 . S
C2161 H2168 0.961 . S
C2161 H2169 0.960 . S
C2162 C2160 1.381 . S
C2162 C2163 1.394 . S
C2162 H2170 0.930 . S
C2163 C2162 1.394 . S
C2163 C2164 1.383 . S
C2163 H2171 0.929 . S
C2164 C2163 1.383 . S
C2164 C2165 1.377 . S
C2165 H2149 0.930 . S
C2165 C2164 1.377 . S
C2165 C2166 1.379 . S
C2166 H2150 0.931 . S
C2166 C2160 1.383 . S
C2166 C2165 1.379 . S
H2167 C2161 0.959 . S
H2168 C2161 0.961 . S
H2169 C2161 0.960 . S
H2170 C2162 0.930 . S
H2171 C2163 0.929 . S
H2172 C2180 0.929 . S
H2173 C2182 0.930 . S
H2174 C2184 0.930 . S
H2175 C2187 0.929 . S
H2176 C2190 0.930 . S
H2177 C2192 0.960 . S
H2178 C2192 0.960 . S
H2179 C2192 0.960 . S
C2180 H2172 0.929 . S
C2180 C2181 1.377 . S
C2180 C2182 1.384 . S
C2181 C2180 1.377 . S
C2181 C2187 1.390 . S
C2182 H2173 0.930 . S
C2182 C2180 1.384 . S
C2182 C2183 1.372 . S
C2183 C2182 1.372 . S
C2183 C2184 1.400 . S
C2183 C2188 1.490 . S
C2184 H2174 0.930 . S
C2184 C2183 1.400 . S
C2184 C2187 1.386 . S
H2185 C2201 0.930 . S
H2186 C2202 0.931 . S
C2187 H2175 0.929 . S
C2187 C2181 1.390 . S
C2187 C2184 1.386 . S
C2188 C2183 1.490 . S
C2188 C2190 1.395 . S
C2188 C2191 1.403 1_455 S
H2189 C2195 0.930 . S
C2190 H2176 0.930 . S
C2190 C2188 1.395 . S
C2190 C2193 1.403 1_455 S
C2191 C2188 1.403 1_655 S
C2191 C2192 1.524 . S
C2191 C2195 1.400 . S
C2192 H2177 0.960 . S
C2192 H2178 0.960 . S
C2192 H2179 0.960 . S
C2192 C2191 1.524 . S
C2193 C2190 1.403 1_655 S
C2193 C2194 1.392 . S
C2193 C2197 1.495 . S
C2194 C2193 1.392 . S
C2194 C2195 1.385 . S
C2194 C2196 1.478 . S
C2195 H2189 0.930 . S
C2195 C2191 1.400 . S
C2195 C2194 1.385 . S
C2196 C2194 1.478 . S
C2196 C2198 1.381 . S
C2196 C2202 1.383 . S
C2197 C2193 1.495 . S
C2197 H2203 0.959 1_655 S
C2197 H2204 0.961 . S
C2197 H2205 0.960 . S
C2198 C2196 1.381 . S
C2198 C2199 1.394 . S
C2198 H2206 0.930 . S
C2199 C2198 1.394 . S
C2199 C2200 1.383 . S
C2199 H2207 0.929 . S
C2200 C2199 1.383 . S
C2200 C2201 1.377 . S
C2201 H2185 0.930 . S
C2201 C2200 1.377 . S
C2201 C2202 1.379 . S
C2202 H2186 0.931 . S
C2202 C2196 1.383 . S
C2202 C2201 1.379 . S
H2203 C2197 0.959 1_455 S
H2204 C2197 0.961 . S
H2205 C2197 0.960 . S
H2206 C2198 0.930 . S
H2207 C2199 0.929 . S
H2208 C2216 0.929 . S
H2209 C2218 0.930 . S
H2210 C2220 0.930 . S
H2211 C2223 0.929 . S
H2212 C2226 0.930 . S
H2213 C2228 0.960 . S
H2214 C2228 0.960 . S
H2215 C2228 0.960 . S
C2216 H2208 0.929 . S
C2216 C2217 1.377 . S
C2216 C2218 1.384 . S
C2217 C2216 1.377 . S
C2217 C2223 1.390 . S
C2218 H2209 0.930 . S
C2218 C2216 1.384 . S
C2218 C2219 1.372 . S
C2219 C2218 1.372 . S
C2219 C2220 1.400 . S
C2219 C2224 1.490 . S
C2220 H2210 0.930 . S
C2220 C2219 1.400 . S
C2220 C2223 1.386 . S
H2221 C2237 0.930 . S
H2222 C2238 0.931 . S
C2223 H2211 0.929 . S
C2223 C2217 1.390 . S
C2223 C2220 1.386 . S
C2224 C2219 1.490 . S
C2224 C2226 1.395 . S
C2224 C2227 1.403 . S
H2225 C2231 0.930 . S
C2226 H2212 0.930 . S
C2226 C2224 1.395 . S
C2226 C2229 1.403 . S
C2227 C2224 1.403 . S
C2227 C2228 1.524 . S
C2227 C2231 1.400 . S
C2228 H2213 0.960 . S
C2228 H2214 0.960 . S
C2228 H2215 0.960 . S
C2228 C2227 1.524 . S
C2229 C2226 1.403 . S
C2229 C2230 1.392 . S
C2229 C2233 1.495 . S
C2230 C2229 1.392 . S
C2230 C2231 1.385 . S
C2230 C2232 1.478 . S
C2231 H2225 0.930 . S
C2231 C2227 1.400 . S
C2231 C2230 1.385 . S
C2232 C2230 1.478 . S
C2232 C2234 1.381 . S
C2232 C2238 1.383 . S
C2233 C2229 1.495 . S
C2233 H2239 0.959 . S
C2233 H2240 0.961 . S
C2233 H2241 0.960 . S
C2234 C2232 1.381 . S
C2234 C2235 1.394 . S
C2234 H2242 0.930 . S
C2235 C2234 1.394 . S
C2235 C2236 1.383 . S
C2235 H2243 0.929 . S
C2236 C2235 1.383 . S
C2236 C2237 1.377 . S
C2237 H2221 0.930 . S
C2237 C2236 1.377 . S
C2237 C2238 1.379 . S
C2238 H2222 0.931 . S
C2238 C2232 1.383 . S
C2238 C2237 1.379 . S
H2239 C2233 0.959 . S
H2240 C2233 0.961 . S
H2241 C2233 0.960 . S
H2242 C2234 0.930 . S
H2243 C2235 0.929 . S
H2244 C2252 0.929 . S
H2245 C2254 0.930 . S
H2246 C2256 0.930 . S
H2247 C2259 0.929 . S
H2248 C2262 0.930 . S
H2249 C2264 0.960 . S
H2250 C2264 0.960 . S
H2251 C2264 0.960 . S
C2252 H2244 0.929 . S
C2252 C2253 1.377 . S
C2252 C2254 1.384 . S
C2253 C2252 1.377 . S
C2253 C2259 1.390 . S
C2254 H2245 0.930 . S
C2254 C2252 1.384 . S
C2254 C2255 1.372 . S
C2255 C2254 1.372 . S
C2255 C2256 1.400 . S
C2255 C2260 1.490 . S
C2256 H2246 0.930 . S
C2256 C2255 1.400 . S
C2256 C2259 1.386 . S
H2257 C2273 0.930 . S
H2258 C2274 0.931 . S
C2259 H2247 0.929 . S
C2259 C2253 1.390 . S
C2259 C2256 1.386 . S
C2260 C2255 1.490 . S
C2260 C2262 1.395 . S
C2260 C2263 1.403 1_655 S
H2261 C2267 0.930 . S
C2262 H2248 0.930 . S
C2262 C2260 1.395 . S
C2262 C2265 1.403 1_655 S
C2263 C2260 1.403 1_455 S
C2263 C2264 1.524 . S
C2263 C2267 1.400 . S
C2264 H2249 0.960 . S
C2264 H2250 0.960 . S
C2264 H2251 0.960 . S
C2264 C2263 1.524 . S
C2265 C2262 1.403 1_455 S
C2265 C2266 1.392 . S
C2265 C2269 1.495 . S
C2266 C2265 1.392 . S
C2266 C2267 1.385 . S
C2266 C2268 1.478 . S
C2267 H2261 0.930 . S
C2267 C2263 1.400 . S
C2267 C2266 1.385 . S
C2268 C2266 1.478 . S
C2268 C2270 1.381 . S
C2268 C2274 1.383 . S
C2269 C2265 1.495 . S
C2269 H2275 0.959 1_455 S
C2269 H2276 0.961 . S
C2269 H2277 0.960 . S
C2270 C2268 1.381 . S
C2270 C2271 1.394 . S
C2270 H2278 0.930 . S
C2271 C2270 1.394 . S
C2271 C2272 1.383 . S
C2271 H2279 0.929 . S
C2272 C2271 1.383 . S
C2272 C2273 1.377 . S
C2273 H2257 0.930 . S
C2273 C2272 1.377 . S
C2273 C2274 1.379 . S
C2274 H2258 0.931 . S
C2274 C2268 1.383 . S
C2274 C2273 1.379 . S
H2275 C2269 0.959 1_655 S
H2276 C2269 0.961 . S
H2277 C2269 0.960 . S
H2278 C2270 0.930 . S
H2279 C2271 0.929 . S
H2280 C2288 0.929 . S
H2281 C2290 0.930 . S
H2282 C2292 0.930 . S
H2283 C2295 0.929 . S
H2284 C2298 0.930 . S
H2285 C2300 0.960 . S
H2286 C2300 0.960 . S
H2287 C2300 0.960 . S
C2288 H2280 0.929 . S
C2288 C2289 1.377 . S
C2288 C2290 1.384 . S
C2289 C2288 1.377 . S
C2289 C2295 1.390 . S
C2290 H2281 0.930 . S
C2290 C2288 1.384 . S
C2290 C2291 1.372 . S
C2291 C2290 1.372 . S
C2291 C2292 1.400 . S
C2291 C2296 1.490 . S
C2292 H2282 0.930 . S
C2292 C2291 1.400 . S
C2292 C2295 1.386 . S
H2293 C2309 0.930 . S
H2294 C2310 0.931 . S
C2295 H2283 0.929 . S
C2295 C2289 1.390 . S
C2295 C2292 1.386 . S
C2296 C2291 1.490 . S
C2296 C2298 1.395 . S
C2296 C2299 1.403 . S
H2297 C2303 0.930 . S
C2298 H2284 0.930 . S
C2298 C2296 1.395 . S
C2298 C2301 1.403 . S
C2299 C2296 1.403 . S
C2299 C2300 1.524 . S
C2299 C2303 1.400 . S
C2300 H2285 0.960 . S
C2300 H2286 0.960 . S
C2300 H2287 0.960 . S
C2300 C2299 1.524 . S
C2301 C2298 1.403 . S
C2301 C2302 1.392 . S
C2301 C2305 1.495 . S
C2302 C2301 1.392 . S
C2302 C2303 1.385 . S
C2302 C2304 1.478 . S
C2303 H2297 0.930 . S
C2303 C2299 1.400 . S
C2303 C2302 1.385 . S
C2304 C2302 1.478 . S
C2304 C2306 1.381 . S
C2304 C2310 1.383 . S
C2305 C2301 1.495 . S
C2305 H2311 0.959 . S
C2305 H2312 0.961 . S
C2305 H2313 0.960 . S
C2306 C2304 1.381 . S
C2306 C2307 1.394 . S
C2306 H2314 0.930 . S
C2307 C2306 1.394 . S
C2307 C2308 1.383 . S
C2307 H2315 0.929 . S
C2308 C2307 1.383 . S
C2308 C2309 1.377 . S
C2309 H2293 0.930 . S
C2309 C2308 1.377 . S
C2309 C2310 1.379 . S
C2310 H2294 0.931 . S
C2310 C2304 1.383 . S
C2310 C2309 1.379 . S
H2311 C2305 0.959 . S
H2312 C2305 0.961 . S
H2313 C2305 0.960 . S
H2314 C2306 0.930 . S
H2315 C2307 0.929 . S
H2316 C2324 0.929 . S
H2317 C2326 0.930 1_556 S
H2318 C2328 0.930 . S
H2319 C2331 0.929 . S
H2320 C2334 0.930 . S
H2321 C2336 0.960 . S
H2322 C2336 0.960 . S
H2323 C2336 0.960 . S
C2324 H2316 0.929 . S
C2324 C2325 1.377 . S
C2324 C2326 1.384 . S
C2325 C2324 1.377 . S
C2325 C2331 1.390 . S
C2326 H2317 0.930 1_554 S
C2326 C2324 1.384 . S
C2326 C2327 1.372 . S
C2327 C2326 1.372 . S
C2327 C2328 1.400 . S
C2327 C2332 1.490 1_554 S
C2328 H2318 0.930 . S
C2328 C2327 1.400 . S
C2328 C2331 1.386 . S
H2329 C2345 0.930 . S
H2330 C2346 0.931 . S
C2331 H2319 0.929 . S
C2331 C2325 1.390 . S
C2331 C2328 1.386 . S
C2332 C2327 1.490 1_556 S
C2332 C2334 1.395 . S
C2332 C2335 1.403 . S
H2333 C2339 0.930 . S
C2334 H2320 0.930 . S
C2334 C2332 1.395 . S
C2334 C2337 1.403 . S
C2335 C2332 1.403 . S
C2335 C2336 1.524 . S
C2335 C2339 1.400 . S
C2336 H2321 0.960 . S
C2336 H2322 0.960 . S
C2336 H2323 0.960 . S
C2336 C2335 1.524 . S
C2337 C2334 1.403 . S
C2337 C2338 1.392 . S
C2337 C2341 1.495 . S
C2338 C2337 1.392 . S
C2338 C2339 1.385 . S
C2338 C2340 1.478 . S
C2339 H2333 0.930 . S
C2339 C2335 1.400 . S
C2339 C2338 1.385 . S
C2340 C2338 1.478 . S
C2340 C2342 1.381 . S
C2340 C2346 1.383 . S
C2341 C2337 1.495 . S
C2341 H2347 0.959 . S
C2341 H2348 0.961 . S
C2341 H2349 0.960 . S
C2342 C2340 1.381 . S
C2342 C2343 1.394 . S
C2342 H2350 0.930 . S
C2343 C2342 1.394 . S
C2343 C2344 1.383 . S
C2343 H2351 0.929 . S
C2344 C2343 1.383 . S
C2344 C2345 1.377 . S
C2345 H2329 0.930 . S
C2345 C2344 1.377 . S
C2345 C2346 1.379 . S
C2346 H2330 0.931 . S
C2346 C2340 1.383 . S
C2346 C2345 1.379 . S
H2347 C2341 0.959 . S
H2348 C2341 0.961 . S
H2349 C2341 0.960 . S
H2350 C2342 0.930 . S
H2351 C2343 0.929 . S
H2352 C2360 0.929 . S
H2353 C2362 0.930 . S
H2354 C2364 0.930 . S
H2355 C2367 0.929 . S
H2356 C2370 0.930 . S
H2357 C2372 0.960 . S
H2358 C2372 0.960 . S
H2359 C2372 0.960 . S
C2360 H2352 0.929 . S
C2360 C2361 1.377 . S
C2360 C2362 1.384 . S
C2361 C2360 1.377 . S
C2361 C2367 1.390 . S
C2362 H2353 0.930 . S
C2362 C2360 1.384 . S
C2362 C2363 1.372 . S
C2363 C2362 1.372 . S
C2363 C2364 1.400 . S
C2363 C2368 1.490 . S
C2364 H2354 0.930 . S
C2364 C2363 1.400 . S
C2364 C2367 1.386 . S
H2365 C2381 0.930 . S
H2366 C2382 0.931 . S
C2367 H2355 0.929 . S
C2367 C2361 1.390 . S
C2367 C2364 1.386 . S
C2368 C2363 1.490 . S
C2368 C2370 1.395 . S
C2368 C2371 1.403 . S
H2369 C2375 0.930 . S
C2370 H2356 0.930 . S
C2370 C2368 1.395 . S
C2370 C2373 1.403 . S
C2371 C2368 1.403 . S
C2371 C2372 1.524 . S
C2371 C2375 1.400 . S
C2372 H2357 0.960 . S
C2372 H2358 0.960 . S
C2372 H2359 0.960 . S
C2372 C2371 1.524 . S
C2373 C2370 1.403 . S
C2373 C2374 1.392 . S
C2373 C2377 1.495 . S
C2374 C2373 1.392 . S
C2374 C2375 1.385 . S
C2374 C2376 1.478 . S
C2375 H2369 0.930 . S
C2375 C2371 1.400 . S
C2375 C2374 1.385 . S
C2376 C2374 1.478 . S
C2376 C2378 1.381 . S
C2376 C2382 1.383 . S
C2377 C2373 1.495 . S
C2377 H2383 0.959 . S
C2377 H2384 0.961 . S
C2377 H2385 0.960 . S
C2378 C2376 1.381 . S
C2378 C2379 1.394 . S
C2378 H2386 0.930 . S
C2379 C2378 1.394 . S
C2379 C2380 1.383 . S
C2379 H2387 0.929 . S
C2380 C2379 1.383 . S
C2380 C2381 1.377 . S
C2381 H2365 0.930 . S
C2381 C2380 1.377 . S
C2381 C2382 1.379 . S
C2382 H2366 0.931 . S
C2382 C2376 1.383 . S
C2382 C2381 1.379 . S
H2383 C2377 0.959 . S
H2384 C2377 0.961 . S
H2385 C2377 0.960 . S
H2386 C2378 0.930 . S
H2387 C2379 0.929 . S
H2388 C2396 0.929 . S
H2389 C2398 0.930 . S
H2390 C2400 0.930 . S
H2391 C2403 0.929 . S
H2392 C2406 0.930 . S
H2393 C2408 0.960 . S
H2394 C2408 0.960 . S
H2395 C2408 0.960 . S
C2396 H2388 0.929 . S
C2396 C2397 1.377 . S
C2396 C2398 1.384 . S
C2397 C2396 1.377 . S
C2397 C2403 1.390 . S
C2398 H2389 0.930 . S
C2398 C2396 1.384 . S
C2398 C2399 1.372 . S
C2399 C2398 1.372 . S
C2399 C2400 1.400 . S
C2399 C2404 1.490 . S
C2400 H2390 0.930 . S
C2400 C2399 1.400 . S
C2400 C2403 1.386 . S
H2401 C2417 0.930 . S
H2402 C2418 0.931 . S
C2403 H2391 0.929 . S
C2403 C2397 1.390 . S
C2403 C2400 1.386 . S
C2404 C2399 1.490 . S
C2404 C2406 1.394 . S
C2404 C2407 1.403 . S
H2405 C2411 0.930 . S
C2406 H2392 0.930 . S
C2406 C2404 1.394 . S
C2406 C2409 1.405 1_554 S
C2407 C2404 1.403 . S
C2407 C2408 1.524 . S
C2407 C2411 1.400 1_554 S
C2408 H2393 0.960 . S
C2408 H2394 0.960 . S
C2408 H2395 0.960 . S
C2408 C2407 1.524 . S
C2409 C2406 1.405 1_556 S
C2409 C2410 1.392 . S
C2409 C2413 1.495 . S
C2410 C2409 1.392 . S
C2410 C2411 1.385 . S
C2410 C2412 1.478 . S
C2411 H2405 0.930 . S
C2411 C2407 1.400 1_556 S
C2411 C2410 1.385 . S
C2412 C2410 1.478 . S
C2412 C2414 1.381 . S
C2412 C2418 1.383 . S
C2413 C2409 1.495 . S
C2413 H2419 0.959 . S
C2413 H2420 0.961 . S
C2413 H2421 0.960 . S
C2414 C2412 1.381 . S
C2414 C2415 1.394 . S
C2414 H2422 0.930 . S
C2415 C2414 1.394 . S
C2415 C2416 1.383 . S
C2415 H2423 0.929 . S
C2416 C2415 1.383 . S
C2416 C2417 1.377 . S
C2417 H2401 0.930 . S
C2417 C2416 1.377 . S
C2417 C2418 1.379 . S
C2418 H2402 0.931 . S
C2418 C2412 1.383 . S
C2418 C2417 1.379 . S
H2419 C2413 0.959 . S
H2420 C2413 0.961 . S
H2421 C2413 0.960 . S
H2422 C2414 0.930 . S
H2423 C2415 0.929 . S
H2424 C2432 0.929 . S
H2425 C2434 0.930 . S
H2426 C2436 0.930 . S
H2427 C2439 0.929 . S
H2428 C2442 0.930 . S
H2429 C2444 0.960 . S
H2430 C2444 0.960 . S
H2431 C2444 0.960 . S
C2432 H2424 0.929 . S
C2432 C2433 1.377 . S
C2432 C2434 1.384 . S
C2433 C2432 1.377 . S
C2433 C2439 1.390 . S
C2434 H2425 0.930 . S
C2434 C2432 1.384 . S
C2434 C2435 1.372 . S
C2435 C2434 1.372 . S
C2435 C2436 1.400 . S
C2435 C2440 1.490 . S
C2436 H2426 0.930 . S
C2436 C2435 1.400 . S
C2436 C2439 1.386 . S
H2437 C2453 0.930 . S
H2438 C2454 0.931 . S
C2439 H2427 0.929 . S
C2439 C2433 1.390 . S
C2439 C2436 1.386 . S
C2440 C2435 1.490 . S
C2440 C2442 1.395 . S
C2440 C2443 1.403 . S
H2441 C2447 0.930 . S
C2442 H2428 0.930 . S
C2442 C2440 1.395 . S
C2442 C2445 1.403 . S
C2443 C2440 1.403 . S
C2443 C2444 1.524 . S
C2443 C2447 1.400 . S
C2444 H2429 0.960 . S
C2444 H2430 0.960 . S
C2444 H2431 0.960 . S
C2444 C2443 1.524 . S
C2445 C2442 1.403 . S
C2445 C2446 1.392 . S
C2445 C2449 1.495 . S
C2446 C2445 1.392 . S
C2446 C2447 1.385 . S
C2446 C2448 1.478 . S
C2447 H2441 0.930 . S
C2447 C2443 1.400 . S
C2447 C2446 1.385 . S
C2448 C2446 1.478 . S
C2448 C2450 1.381 . S
C2448 C2454 1.383 . S
C2449 C2445 1.495 . S
C2449 H2455 0.959 . S
C2449 H2456 0.961 . S
C2449 H2457 0.960 . S
C2450 C2448 1.381 . S
C2450 C2451 1.394 . S
C2450 H2458 0.930 . S
C2451 C2450 1.394 . S
C2451 C2452 1.383 . S
C2451 H2459 0.929 . S
C2452 C2451 1.383 . S
C2452 C2453 1.377 . S
C2453 H2437 0.930 . S
C2453 C2452 1.377 . S
C2453 C2454 1.379 . S
C2454 H2438 0.931 . S
C2454 C2448 1.383 . S
C2454 C2453 1.379 . S
H2455 C2449 0.959 . S
H2456 C2449 0.961 . S
H2457 C2449 0.960 . S
H2458 C2450 0.930 . S
H2459 C2451 0.929 . S
H2460 C2468 0.929 . S
H2461 C2470 0.930 1_554 S
H2462 C2472 0.930 . S
H2463 C2475 0.929 . S
H2464 C2478 0.930 . S
H2465 C2480 0.964 . S
H2466 C2480 0.954 1_556 S
H2467 C2480 0.952 1_556 S
C2468 H2460 0.929 . S
C2468 C2469 1.377 . S
C2468 C2470 1.384 . S
C2469 C2468 1.377 . S
C2469 C2475 1.390 . S
C2470 H2461 0.930 1_556 S
C2470 C2468 1.384 . S
C2470 C2471 1.372 . S
C2471 C2470 1.372 . S
C2471 C2472 1.400 . S
C2471 C2476 1.490 1_556 S
C2472 H2462 0.930 . S
C2472 C2471 1.400 . S
C2472 C2475 1.386 . S
H2473 C2489 0.930 . S
H2474 C2490 0.931 . S
C2475 H2463 0.929 . S
C2475 C2469 1.390 . S
C2475 C2472 1.386 . S
C2476 C2471 1.490 1_554 S
C2476 C2478 1.395 . S
C2476 C2479 1.403 . S
H2477 C2483 0.930 . S
C2478 H2464 0.930 . S
C2478 C2476 1.395 . S
C2478 C2481 1.403 . S
C2479 C2476 1.403 . S
C2479 C2480 1.530 . S
C2479 C2483 1.400 . S
C2480 H2465 0.964 . S
C2480 H2466 0.954 1_554 S
C2480 H2467 0.952 1_554 S
C2480 C2479 1.530 . S
C2481 C2478 1.403 . S
C2481 C2482 1.392 . S
C2481 C2485 1.495 . S
C2482 C2481 1.392 . S
C2482 C2483 1.385 . S
C2482 C2484 1.478 . S
C2483 H2477 0.930 . S
C2483 C2479 1.400 . S
C2483 C2482 1.385 . S
C2484 C2482 1.478 . S
C2484 C2486 1.381 . S
C2484 C2490 1.383 . S
C2485 C2481 1.495 . S
C2485 H2491 0.959 . S
C2485 H2492 0.961 . S
C2485 H2493 0.960 . S
C2486 C2484 1.381 . S
C2486 C2487 1.394 . S
C2486 H2494 0.930 . S
C2487 C2486 1.394 . S
C2487 C2488 1.383 . S
C2487 H2495 0.929 . S
C2488 C2487 1.383 . S
C2488 C2489 1.377 . S
C2489 H2473 0.930 . S
C2489 C2488 1.377 . S
C2489 C2490 1.379 . S
C2490 H2474 0.931 . S
C2490 C2484 1.383 . S
C2490 C2489 1.379 . S
H2491 C2485 0.959 . S
H2492 C2485 0.961 . S
H2493 C2485 0.960 . S
H2494 C2486 0.930 . S
H2495 C2487 0.929 . S
H2496 C2504 0.929 . S
H2497 C2506 0.930 . S
H2498 C2508 0.930 . S
H2499 C2511 0.929 . S
H2500 C2514 0.930 . S
H2501 C2516 0.960 . S
H2502 C2516 0.960 . S
H2503 C2516 0.960 . S
C2504 H2496 0.929 . S
C2504 C2505 1.377 . S
C2504 C2506 1.384 . S
C2505 C2504 1.377 . S
C2505 C2511 1.390 . S
C2506 H2497 0.930 . S
C2506 C2504 1.384 . S
C2506 C2507 1.372 . S
C2507 C2506 1.372 . S
C2507 C2508 1.400 . S
C2507 C2512 1.490 . S
C2508 H2498 0.930 . S
C2508 C2507 1.400 . S
C2508 C2511 1.386 . S
H2509 C2525 0.930 . S
H2510 C2526 0.931 . S
C2511 H2499 0.929 . S
C2511 C2505 1.390 . S
C2511 C2508 1.386 . S
C2512 C2507 1.490 . S
C2512 C2514 1.395 . S
C2512 C2515 1.403 . S
H2513 C2519 0.930 . S
C2514 H2500 0.930 . S
C2514 C2512 1.395 . S
C2514 C2517 1.403 . S
C2515 C2512 1.403 . S
C2515 C2516 1.524 . S
C2515 C2519 1.400 . S
C2516 H2501 0.960 . S
C2516 H2502 0.960 . S
C2516 H2503 0.960 . S
C2516 C2515 1.524 . S
C2517 C2514 1.403 . S
C2517 C2518 1.392 . S
C2517 C2521 1.495 . S
C2518 C2517 1.392 . S
C2518 C2519 1.385 . S
C2518 C2520 1.478 . S
C2519 H2513 0.930 . S
C2519 C2515 1.400 . S
C2519 C2518 1.385 . S
C2520 C2518 1.478 . S
C2520 C2522 1.381 . S
C2520 C2526 1.383 . S
C2521 C2517 1.495 . S
C2521 H2527 0.959 . S
C2521 H2528 0.961 . S
C2521 H2529 0.960 . S
C2522 C2520 1.381 . S
C2522 C2523 1.394 . S
C2522 H2530 0.930 . S
C2523 C2522 1.394 . S
C2523 C2524 1.383 . S
C2523 H2531 0.929 . S
C2524 C2523 1.383 . S
C2524 C2525 1.377 . S
C2525 H2509 0.930 . S
C2525 C2524 1.377 . S
C2525 C2526 1.379 . S
C2526 H2510 0.931 . S
C2526 C2520 1.383 . S
C2526 C2525 1.379 . S
H2527 C2521 0.959 . S
H2528 C2521 0.961 . S
H2529 C2521 0.960 . S
H2530 C2522 0.930 . S
H2531 C2523 0.929 . S
H2532 C2540 0.929 . S
H2533 C2542 0.930 . S
H2534 C2544 0.930 . S
H2535 C2547 0.929 . S
H2536 C2550 0.930 . S
H2537 C2552 0.960 . S
H2538 C2552 0.960 . S
H2539 C2552 0.960 . S
C2540 H2532 0.929 . S
C2540 C2541 1.377 . S
C2540 C2542 1.384 1_556 S
C2541 C2540 1.377 . S
C2541 C2547 1.390 . S
C2542 H2533 0.930 . S
C2542 C2540 1.384 1_554 S
C2542 C2543 1.372 . S
C2543 C2542 1.372 . S
C2543 C2544 1.400 . S
C2543 C2548 1.490 . S
C2544 H2534 0.930 . S
C2544 C2543 1.400 . S
C2544 C2547 1.386 1_554 S
H2545 C2561 0.930 . S
H2546 C2562 0.931 . S
C2547 H2535 0.929 . S
C2547 C2541 1.390 . S
C2547 C2544 1.386 1_556 S
C2548 C2543 1.490 . S
C2548 C2550 1.395 . S
C2548 C2551 1.403 . S
H2549 C2555 0.930 . S
C2550 H2536 0.930 . S
C2550 C2548 1.395 . S
C2550 C2553 1.403 . S
C2551 C2548 1.403 . S
C2551 C2552 1.524 . S
C2551 C2555 1.400 . S
C2552 H2537 0.960 . S
C2552 H2538 0.960 . S
C2552 H2539 0.960 . S
C2552 C2551 1.524 . S
C2553 C2550 1.403 . S
C2553 C2554 1.392 . S
C2553 C2557 1.495 . S
C2554 C2553 1.392 . S
C2554 C2555 1.385 . S
C2554 C2556 1.478 . S
C2555 H2549 0.930 . S
C2555 C2551 1.400 . S
C2555 C2554 1.385 . S
C2556 C2554 1.478 . S
C2556 C2558 1.381 . S
C2556 C2562 1.383 . S
C2557 C2553 1.495 . S
C2557 H2563 0.959 . S
C2557 H2564 0.961 . S
C2557 H2565 0.960 . S
C2558 C2556 1.381 . S
C2558 C2559 1.394 . S
C2558 H2566 0.930 . S
C2559 C2558 1.394 . S
C2559 C2560 1.383 . S
C2559 H2567 0.929 . S
C2560 C2559 1.383 . S
C2560 C2561 1.377 . S
C2561 H2545 0.930 . S
C2561 C2560 1.377 . S
C2561 C2562 1.379 . S
C2562 H2546 0.931 . S
C2562 C2556 1.383 . S
C2562 C2561 1.379 . S
H2563 C2557 0.959 . S
H2564 C2557 0.961 . S
H2565 C2557 0.960 . S
H2566 C2558 0.930 . S
H2567 C2559 0.929 . S
H2568 C2576 0.929 . S
H2569 C2578 0.930 . S
H2570 C2580 0.930 . S
H2571 C2583 0.929 . S
H2572 C2586 0.930 . S
H2573 C2588 0.960 . S
H2574 C2588 0.960 . S
H2575 C2588 0.960 . S
C2576 H2568 0.929 . S
C2576 C2577 1.377 . S
C2576 C2578 1.384 . S
C2577 C2576 1.377 . S
C2577 C2583 1.390 . S
C2578 H2569 0.930 . S
C2578 C2576 1.384 . S
C2578 C2579 1.372 . S
C2579 C2578 1.372 . S
C2579 C2580 1.400 . S
C2579 C2584 1.490 . S
C2580 H2570 0.930 . S
C2580 C2579 1.400 . S
C2580 C2583 1.386 . S
H2581 C2597 0.930 . S
H2582 C2598 0.931 . S
C2583 H2571 0.929 . S
C2583 C2577 1.390 . S
C2583 C2580 1.386 . S
C2584 C2579 1.490 . S
C2584 C2586 1.395 . S
C2584 C2587 1.403 . S
H2585 C2591 0.930 . S
C2586 H2572 0.930 . S
C2586 C2584 1.395 . S
C2586 C2589 1.403 . S
C2587 C2584 1.403 . S
C2587 C2588 1.524 . S
C2587 C2591 1.400 . S
C2588 H2573 0.960 . S
C2588 H2574 0.960 . S
C2588 H2575 0.960 . S
C2588 C2587 1.524 . S
C2589 C2586 1.403 . S
C2589 C2590 1.392 . S
C2589 C2593 1.495 . S
C2590 C2589 1.392 . S
C2590 C2591 1.385 . S
C2590 C2592 1.478 . S
C2591 H2585 0.930 . S
C2591 C2587 1.400 . S
C2591 C2590 1.385 . S
C2592 C2590 1.478 . S
C2592 C2594 1.381 . S
C2592 C2598 1.383 . S
C2593 C2589 1.495 . S
C2593 H2599 0.959 . S
C2593 H2600 0.961 . S
C2593 H2601 0.960 . S
C2594 C2592 1.381 . S
C2594 C2595 1.394 . S
C2594 H2602 0.930 . S
C2595 C2594 1.394 . S
C2595 C2596 1.383 . S
C2595 H2603 0.929 . S
C2596 C2595 1.383 . S
C2596 C2597 1.377 . S
C2597 H2581 0.930 . S
C2597 C2596 1.377 . S
C2597 C2598 1.379 . S
C2598 H2582 0.931 . S
C2598 C2592 1.383 . S
C2598 C2597 1.379 . S
H2599 C2593 0.959 . S
H2600 C2593 0.961 . S
H2601 C2593 0.960 . S
H2602 C2594 0.930 . S
H2603 C2595 0.929 . S
H2604 C2612 0.929 . S
H2605 C2614 0.930 . S
H2606 C2616 0.930 . S
H2607 C2619 0.929 . S
H2608 C2622 0.930 . S
H2609 C2624 0.960 . S
H2610 C2624 0.960 . S
H2611 C2624 0.960 . S
C2612 H2604 0.929 . S
C2612 C2613 1.377 . S
C2612 C2614 1.384 . S
C2613 C2612 1.377 . S
C2613 C2619 1.390 . S
C2614 H2605 0.930 . S
C2614 C2612 1.384 . S
C2614 C2615 1.372 . S
C2615 C2614 1.372 . S
C2615 C2616 1.400 . S
C2615 C2620 1.490 . S
C2616 H2606 0.930 . S
C2616 C2615 1.400 . S
C2616 C2619 1.386 . S
H2617 C2633 0.930 . S
H2618 C2634 0.931 . S
C2619 H2607 0.929 . S
C2619 C2613 1.390 . S
C2619 C2616 1.386 . S
C2620 C2615 1.490 . S
C2620 C2622 1.395 . S
C2620 C2623 1.403 . S
H2621 C2627 0.930 . S
C2622 H2608 0.930 . S
C2622 C2620 1.395 . S
C2622 C2625 1.403 . S
C2623 C2620 1.403 . S
C2623 C2624 1.524 . S
C2623 C2627 1.400 . S
C2624 H2609 0.960 . S
C2624 H2610 0.960 . S
C2624 H2611 0.960 . S
C2624 C2623 1.524 . S
C2625 C2622 1.403 . S
C2625 C2626 1.392 . S
C2625 C2629 1.495 . S
C2626 C2625 1.392 . S
C2626 C2627 1.385 . S
C2626 C2628 1.478 . S
C2627 H2621 0.930 . S
C2627 C2623 1.400 . S
C2627 C2626 1.385 . S
C2628 C2626 1.478 . S
C2628 C2630 1.381 . S
C2628 C2634 1.383 . S
C2629 C2625 1.495 . S
C2629 H2635 0.959 . S
C2629 H2636 0.961 . S
C2629 H2637 0.960 . S
C2630 C2628 1.381 . S
C2630 C2631 1.394 . S
C2630 H2638 0.930 . S
C2631 C2630 1.394 . S
C2631 C2632 1.383 . S
C2631 H2639 0.929 . S
C2632 C2631 1.383 . S
C2632 C2633 1.377 . S
C2633 H2617 0.930 . S
C2633 C2632 1.377 . S
C2633 C2634 1.379 . S
C2634 H2618 0.931 . S
C2634 C2628 1.383 . S
C2634 C2633 1.379 . S
H2635 C2629 0.959 . S
H2636 C2629 0.961 . S
H2637 C2629 0.960 . S
H2638 C2630 0.930 . S
H2639 C2631 0.929 . S
H2640 C2648 0.929 . S
H2641 C2650 0.930 . S
H2642 C2652 0.930 . S
H2643 C2655 0.929 . S
H2644 C2658 0.930 . S
H2645 C2660 0.960 . S
H2646 C2660 0.960 . S
H2647 C2660 0.960 . S
C2648 H2640 0.929 . S
C2648 C2649 1.377 . S
C2648 C2650 1.384 . S
C2649 C2648 1.377 . S
C2649 C2655 1.390 . S
C2650 H2641 0.930 . S
C2650 C2648 1.384 . S
C2650 C2651 1.372 . S
C2651 C2650 1.372 . S
C2651 C2652 1.400 . S
C2651 C2656 1.490 . S
C2652 H2642 0.930 . S
C2652 C2651 1.400 . S
C2652 C2655 1.386 . S
H2653 C2669 0.930 . S
H2654 C2670 0.931 . S
C2655 H2643 0.929 . S
C2655 C2649 1.390 . S
C2655 C2652 1.386 . S
C2656 C2651 1.490 . S
C2656 C2658 1.395 . S
C2656 C2659 1.403 . S
H2657 C2663 0.930 . S
C2658 H2644 0.930 . S
C2658 C2656 1.395 . S
C2658 C2661 1.403 . S
C2659 C2656 1.403 . S
C2659 C2660 1.524 . S
C2659 C2663 1.400 . S
C2660 H2645 0.960 . S
C2660 H2646 0.960 . S
C2660 H2647 0.960 . S
C2660 C2659 1.524 . S
C2661 C2658 1.403 . S
C2661 C2662 1.392 . S
C2661 C2665 1.495 . S
C2662 C2661 1.392 . S
C2662 C2663 1.385 . S
C2662 C2664 1.478 . S
C2663 H2657 0.930 . S
C2663 C2659 1.400 . S
C2663 C2662 1.385 . S
C2664 C2662 1.478 . S
C2664 C2666 1.381 . S
C2664 C2670 1.383 . S
C2665 C2661 1.495 . S
C2665 H2671 0.959 . S
C2665 H2672 0.961 . S
C2665 H2673 0.960 . S
C2666 C2664 1.381 . S
C2666 C2667 1.394 . S
C2666 H2674 0.930 . S
C2667 C2666 1.394 . S
C2667 C2668 1.383 . S
C2667 H2675 0.929 . S
C2668 C2667 1.383 . S
C2668 C2669 1.377 . S
C2669 H2653 0.930 . S
C2669 C2668 1.377 . S
C2669 C2670 1.379 . S
C2670 H2654 0.931 . S
C2670 C2664 1.383 . S
C2670 C2669 1.379 . S
H2671 C2665 0.959 . S
H2672 C2665 0.961 . S
H2673 C2665 0.960 . S
H2674 C2666 0.930 . S
H2675 C2667 0.929 . S
H2676 C2684 0.929 . S
H2677 C2686 0.930 . S
H2678 C2688 0.930 . S
H2679 C2691 0.929 . S
H2680 C2694 0.930 . S
H2681 C2696 0.960 . S
H2682 C2696 0.960 . S
H2683 C2696 0.960 . S
C2684 H2676 0.929 . S
C2684 C2685 1.377 . S
C2684 C2686 1.384 . S
C2685 C2684 1.377 . S
C2685 C2691 1.390 . S
C2686 H2677 0.930 . S
C2686 C2684 1.384 . S
C2686 C2687 1.372 . S
C2687 C2686 1.372 . S
C2687 C2688 1.400 . S
C2687 C2692 1.490 . S
C2688 H2678 0.930 . S
C2688 C2687 1.400 . S
C2688 C2691 1.386 . S
H2689 C2705 0.930 . S
H2690 C2706 0.931 . S
C2691 H2679 0.929 . S
C2691 C2685 1.390 . S
C2691 C2688 1.386 . S
C2692 C2687 1.490 . S
C2692 C2694 1.395 . S
C2692 C2695 1.403 . S
H2693 C2699 0.930 . S
C2694 H2680 0.930 . S
C2694 C2692 1.395 . S
C2694 C2697 1.403 . S
C2695 C2692 1.403 . S
C2695 C2696 1.524 . S
C2695 C2699 1.400 . S
C2696 H2681 0.960 . S
C2696 H2682 0.960 . S
C2696 H2683 0.960 . S
C2696 C2695 1.524 . S
C2697 C2694 1.403 . S
C2697 C2698 1.392 . S
C2697 C2701 1.495 . S
C2698 C2697 1.392 . S
C2698 C2699 1.385 . S
C2698 C2700 1.478 . S
C2699 H2693 0.930 . S
C2699 C2695 1.400 . S
C2699 C2698 1.385 . S
C2700 C2698 1.478 . S
C2700 C2702 1.381 . S
C2700 C2706 1.383 . S
C2701 C2697 1.495 . S
C2701 H2707 0.959 . S
C2701 H2708 0.961 . S
C2701 H2709 0.960 . S
C2702 C2700 1.381 . S
C2702 C2703 1.394 . S
C2702 H2710 0.930 . S
C2703 C2702 1.394 . S
C2703 C2704 1.383 . S
C2703 H2711 0.929 . S
C2704 C2703 1.383 . S
C2704 C2705 1.377 . S
C2705 H2689 0.930 . S
C2705 C2704 1.377 . S
C2705 C2706 1.379 . S
C2706 H2690 0.931 . S
C2706 C2700 1.383 . S
C2706 C2705 1.379 . S
H2707 C2701 0.959 . S
H2708 C2701 0.961 . S
H2709 C2701 0.960 . S
H2710 C2702 0.930 . S
H2711 C2703 0.929 . S
H2712 C2720 0.929 . S
H2713 C2722 0.930 . S
H2714 C2724 0.930 . S
H2715 C2727 0.929 . S
H2716 C2730 0.930 . S
H2717 C2732 0.960 . S
H2718 C2732 0.960 . S
H2719 C2732 0.960 . S
C2720 H2712 0.929 . S
C2720 C2721 1.377 . S
C2720 C2722 1.384 . S
C2721 C2720 1.377 . S
C2721 C2727 1.390 . S
C2722 H2713 0.930 . S
C2722 C2720 1.384 . S
C2722 C2723 1.372 . S
C2723 C2722 1.372 . S
C2723 C2724 1.400 . S
C2723 C2728 1.490 . S
C2724 H2714 0.930 . S
C2724 C2723 1.400 . S
C2724 C2727 1.386 . S
H2725 C2741 0.930 . S
H2726 C2742 0.931 . S
C2727 H2715 0.929 . S
C2727 C2721 1.390 . S
C2727 C2724 1.386 . S
C2728 C2723 1.490 . S
C2728 C2730 1.395 . S
C2728 C2731 1.403 . S
H2729 C2735 0.930 . S
C2730 H2716 0.930 . S
C2730 C2728 1.395 . S
C2730 C2733 1.403 . S
C2731 C2728 1.403 . S
C2731 C2732 1.524 . S
C2731 C2735 1.400 . S
C2732 H2717 0.960 . S
C2732 H2718 0.960 . S
C2732 H2719 0.960 . S
C2732 C2731 1.524 . S
C2733 C2730 1.403 . S
C2733 C2734 1.392 . S
C2733 C2737 1.495 . S
C2734 C2733 1.392 . S
C2734 C2735 1.385 . S
C2734 C2736 1.478 . S
C2735 H2729 0.930 . S
C2735 C2731 1.400 . S
C2735 C2734 1.385 . S
C2736 C2734 1.478 . S
C2736 C2738 1.381 . S
C2736 C2742 1.383 . S
C2737 C2733 1.495 . S
C2737 H2743 0.959 . S
C2737 H2744 0.961 . S
C2737 H2745 0.960 . S
C2738 C2736 1.381 . S
C2738 C2739 1.394 . S
C2738 H2746 0.930 . S
C2739 C2738 1.394 . S
C2739 C2740 1.383 . S
C2739 H2747 0.929 1_556 S
C2740 C2739 1.383 . S
C2740 C2741 1.377 . S
C2741 H2725 0.930 . S
C2741 C2740 1.377 . S
C2741 C2742 1.379 . S
C2742 H2726 0.931 . S
C2742 C2736 1.383 . S
C2742 C2741 1.379 . S
H2743 C2737 0.959 . S
H2744 C2737 0.961 . S
H2745 C2737 0.960 . S
H2746 C2738 0.930 . S
H2747 C2739 0.929 1_554 S
H2748 C2756 0.929 . S
H2749 C2758 0.930 . S
H2750 C2760 0.930 . S
H2751 C2763 0.929 . S
H2752 C2766 0.930 . S
H2753 C2768 0.960 . S
H2754 C2768 0.960 . S
H2755 C2768 0.960 . S
C2756 H2748 0.929 . S
C2756 C2757 1.377 . S
C2756 C2758 1.384 . S
C2757 C2756 1.377 . S
C2757 C2763 1.390 . S
C2758 H2749 0.930 . S
C2758 C2756 1.384 . S
C2758 C2759 1.372 . S
C2759 C2758 1.372 . S
C2759 C2760 1.400 . S
C2759 C2764 1.490 . S
C2760 H2750 0.930 . S
C2760 C2759 1.400 . S
C2760 C2763 1.386 . S
H2761 C2777 0.930 . S
H2762 C2778 0.931 . S
C2763 H2751 0.929 . S
C2763 C2757 1.390 . S
C2763 C2760 1.386 . S
C2764 C2759 1.490 . S
C2764 C2766 1.395 . S
C2764 C2767 1.403 . S
H2765 C2771 0.930 . S
C2766 H2752 0.930 . S
C2766 C2764 1.395 . S
C2766 C2769 1.403 . S
C2767 C2764 1.403 . S
C2767 C2768 1.524 . S
C2767 C2771 1.400 . S
C2768 H2753 0.960 . S
C2768 H2754 0.960 . S
C2768 H2755 0.960 . S
C2768 C2767 1.524 . S
C2769 C2766 1.403 . S
C2769 C2770 1.392 . S
C2769 C2773 1.495 . S
C2770 C2769 1.392 . S
C2770 C2771 1.385 . S
C2770 C2772 1.478 . S
C2771 H2765 0.930 . S
C2771 C2767 1.400 . S
C2771 C2770 1.385 . S
C2772 C2770 1.478 . S
C2772 C2774 1.381 . S
C2772 C2778 1.383 . S
C2773 C2769 1.495 . S
C2773 H2779 0.959 . S
C2773 H2780 0.961 . S
C2773 H2781 0.960 . S
C2774 C2772 1.381 . S
C2774 C2775 1.394 . S
C2774 H2782 0.930 . S
C2775 C2774 1.394 . S
C2775 C2776 1.383 . S
C2775 H2783 0.929 . S
C2776 C2775 1.383 . S
C2776 C2777 1.377 . S
C2777 H2761 0.930 . S
C2777 C2776 1.377 . S
C2777 C2778 1.379 . S
C2778 H2762 0.931 . S
C2778 C2772 1.383 . S
C2778 C2777 1.379 . S
H2779 C2773 0.959 . S
H2780 C2773 0.961 . S
H2781 C2773 0.960 . S
H2782 C2774 0.930 . S
H2783 C2775 0.929 . S
H2784 C2792 0.929 . S
H2785 C2794 0.930 . S
H2786 C2796 0.930 . S
H2787 C2799 0.929 . S
H2788 C2802 0.930 . S
H2789 C2804 0.960 . S
H2790 C2804 0.960 . S
H2791 C2804 0.960 . S
C2792 H2784 0.929 . S
C2792 C2793 1.377 . S
C2792 C2794 1.384 . S
C2793 C2792 1.377 . S
C2793 C2799 1.390 . S
C2794 H2785 0.930 . S
C2794 C2792 1.384 . S
C2794 C2795 1.372 . S
C2795 C2794 1.372 . S
C2795 C2796 1.400 . S
C2795 C2800 1.490 . S
C2796 H2786 0.930 . S
C2796 C2795 1.400 . S
C2796 C2799 1.386 . S
H2797 C2813 0.930 . S
H2798 C2814 0.931 . S
C2799 H2787 0.929 . S
C2799 C2793 1.390 . S
C2799 C2796 1.386 . S
C2800 C2795 1.490 . S
C2800 C2802 1.395 . S
C2800 C2803 1.403 . S
H2801 C2807 0.930 . S
C2802 H2788 0.930 . S
C2802 C2800 1.395 . S
C2802 C2805 1.403 . S
C2803 C2800 1.403 . S
C2803 C2804 1.524 . S
C2803 C2807 1.400 . S
C2804 H2789 0.960 . S
C2804 H2790 0.960 . S
C2804 H2791 0.960 . S
C2804 C2803 1.524 . S
C2805 C2802 1.403 . S
C2805 C2806 1.392 . S
C2805 C2809 1.495 . S
C2806 C2805 1.392 . S
C2806 C2807 1.385 . S
C2806 C2808 1.478 . S
C2807 H2801 0.930 . S
C2807 C2803 1.400 . S
C2807 C2806 1.385 . S
C2808 C2806 1.478 . S
C2808 C2810 1.381 . S
C2808 C2814 1.383 . S
C2809 C2805 1.495 . S
C2809 H2815 0.959 . S
C2809 H2816 0.961 . S
C2809 H2817 0.960 . S
C2810 C2808 1.381 . S
C2810 C2811 1.394 . S
C2810 H2818 0.930 . S
C2811 C2810 1.394 . S
C2811 C2812 1.383 . S
C2811 H2819 0.929 . S
C2812 C2811 1.383 . S
C2812 C2813 1.377 . S
C2813 H2797 0.930 . S
C2813 C2812 1.377 . S
C2813 C2814 1.379 . S
C2814 H2798 0.931 . S
C2814 C2808 1.383 . S
C2814 C2813 1.379 . S
H2815 C2809 0.959 . S
H2816 C2809 0.961 . S
H2817 C2809 0.960 . S
H2818 C2810 0.930 . S
H2819 C2811 0.929 . S
H2820 C2828 0.929 . S
H2821 C2830 0.930 . S
H2822 C2832 0.930 . S
H2823 C2835 0.929 . S
H2824 C2838 0.930 . S
H2825 C2840 0.960 . S
H2826 C2840 0.960 . S
H2827 C2840 0.960 . S
C2828 H2820 0.929 . S
C2828 C2829 1.377 . S
C2828 C2830 1.384 . S
C2829 C2828 1.377 . S
C2829 C2835 1.390 . S
C2830 H2821 0.930 . S
C2830 C2828 1.384 . S
C2830 C2831 1.372 . S
C2831 C2830 1.372 . S
C2831 C2832 1.400 . S
C2831 C2836 1.490 . S
C2832 H2822 0.930 . S
C2832 C2831 1.400 . S
C2832 C2835 1.386 . S
H2833 C2849 0.930 . S
H2834 C2850 0.931 . S
C2835 H2823 0.929 . S
C2835 C2829 1.390 . S
C2835 C2832 1.386 . S
C2836 C2831 1.490 . S
C2836 C2838 1.395 . S
C2836 C2839 1.403 . S
H2837 C2843 0.930 . S
C2838 H2824 0.930 . S
C2838 C2836 1.395 . S
C2838 C2841 1.403 . S
C2839 C2836 1.403 . S
C2839 C2840 1.524 . S
C2839 C2843 1.400 . S
C2840 H2825 0.960 . S
C2840 H2826 0.960 . S
C2840 H2827 0.960 . S
C2840 C2839 1.524 . S
C2841 C2838 1.403 . S
C2841 C2842 1.392 . S
C2841 C2845 1.495 1_545 S
C2842 C2841 1.392 . S
C2842 C2843 1.385 . S
C2842 C2844 1.478 1_545 S
C2843 H2837 0.930 . S
C2843 C2839 1.400 . S
C2843 C2842 1.385 . S
C2844 C2842 1.478 1_565 S
C2844 C2846 1.381 . S
C2844 C2850 1.383 . S
C2845 C2841 1.495 1_565 S
C2845 H2851 0.959 . S
C2845 H2852 0.961 . S
C2845 H2853 0.960 . S
C2846 C2844 1.381 . S
C2846 C2847 1.394 . S
C2846 H2854 0.930 . S
C2847 C2846 1.394 . S
C2847 C2848 1.383 . S
C2847 H2855 0.929 . S
C2848 C2847 1.383 . S
C2848 C2849 1.377 . S
C2849 H2833 0.930 . S
C2849 C2848 1.377 . S
C2849 C2850 1.379 . S
C2850 H2834 0.931 . S
C2850 C2844 1.383 . S
C2850 C2849 1.379 . S
H2851 C2845 0.959 . S
H2852 C2845 0.961 . S
H2853 C2845 0.960 . S
H2854 C2846 0.930 . S
H2855 C2847 0.929 . S
C1156 C968 1.648 . S
C1137 C331 1.621 . S
C1192 C983 1.726 . S
C1173 C380 1.719 . S
C1209 C421 1.732 . S
C1228 C996 1.726 . S
C1264 C1010 1.541 . S
C1245 C260 1.582 . S
C1300 C1022 1.671 . S
C1281 C620 1.712 . S
C1336 C1036 1.293 . S
C1317 C740 1.241 . S
C1353 C680 1.793 . S
C1372 C1050 1.781 . S
C1408 C1065 1.465 . S
C1389 C571 1.422 . S
C1425 C691 1.688 . S
C1444 C1081 1.694 . S
C1480 C1094 1.501 . S
C1461 C541 1.487 . S
C1497 C601 1.593 . S
C1516 C1079 1.574 . S
C1552 C1092 1.512 . S
C1533 C721 1.441 . S
C1569 C451 1.887 . S
C1588 C1108 1.885 . S
C1605 C241 1.605 . S
C1624 C1107 1.591 . S
C1641 C320 1.765 . S
C1660 C1106 1.726 . S
C1677 C391 1.582 . S
C1696 C1109 1.639 . S
C1713 C211 1.687 . S
C1732 C1011 1.730 . S
C1749 C841 1.494 . S
C1768 C1009 1.507 . S
C1804 C969 1.565 . S
C1785 C901 1.526 . S
C1840 C980 1.804 . S
C1821 C500 1.802 . S
C1857 C271 1.618 1_545 S
C1876 C1025 1.600 . S
C1912 C1066 1.957 . S
C1893 C661 1.936 . S
C1948 C1023 1.486 . S
C1929 C560 1.435 . S
C1984 C1051 1.502 . S
C1965 C751 1.445 . S
C2020 C1052 1.647 . S
C2001 C871 1.622 . S
C2037 C920 1.716 . S
C2056 C1067 1.761 . S
C2073 C481 1.731 . S
C2092 C1024 1.724 . S
C2128 C1038 1.567 . S
C2109 C800 1.585 . S
C2145 C200 1.714 . S
C2164 C994 1.704 . S
C2200 C1008 1.280 . S
C2181 C20 1.242 . S
C2236 C966 1.797 . S
C2217 C80 1.796 . S
C2272 C981 1.461 . S
C2253 C151 1.416 . S
C2289 C91 1.688 . S
C2308 C1095 1.695 . S
C2325 C121 1.479 . S
C2344 C1080 1.513 . S
C2361 C181 1.592 . S
C2380 C1093 1.564 . S
C2397 C1 1.441 . S
C2416 C1078 1.497 . S
C2452 C1122 1.900 . S
C2433 C511 1.882 . S
C2488 C1121 1.559 . S
C2469 C781 1.607 . S
C2524 C1120 1.748 . S
C2505 C860 1.772 . S
C2541 C931 1.585 . S
C2560 C1123 1.634 . S
C2577 C631 1.695 . S
C2596 C1039 1.711 . S
C2632 C1037 1.474 . S
C2613 C301 1.489 . S
C2668 C1053 1.535 . S
C2649 C361 1.518 . S
C2704 C1064 1.791 . S
C2685 C440 1.805 . S
C2721 C811 1.619 . S
C2740 C997 1.588 . S
C2776 C982 1.947 . S
C2757 C61 1.932 . S
C2793 C140 1.433 . S
C2812 C995 1.481 . S
C2848 C967 1.499 . S
C2829 C31 1.455 . S
