# Generated by pormake.
# Topology pyr, (3,6)-cn, num edge types: 1
# Building blocks:
#     Node 0, Type 0, BuildingBlock: KAKCAD_clean_linker_0, # of connection points: 3
#     Node 1, Type 0, BuildingBlock: KAKCAD_clean_linker_0, # of connection points: 3
#     Node 2, Type 0, BuildingBlock: KAKCAD_clean_linker_0, # of connection points: 3
#     Node 3, Type 0, BuildingBlock: KAKCAD_clean_linker_0, # of connection points: 3
#     Node 4, Type 0, BuildingBlock: KAKCAD_clean_linker_0, # of connection points: 3
#     Node 5, Type 0, BuildingBlock: KAKCAD_clean_linker_0, # of connection points: 3
#     Node 6, Type 0, BuildingBlock: KAKCAD_clean_linker_0, # of connection points: 3
#     Node 7, Type 0, BuildingBlock: KAKCAD_clean_linker_0, # of connection points: 3
#     Node 8, Type 1, BuildingBlock: BETDAH_clean_sbu_0, # of connection points: 6
#     Node 9, Type 1, BuildingBlock: BETDAH_clean_sbu_0, # of connection points: 6
#     Node 10, Type 1, BuildingBlock: BETDAH_clean_sbu_0, # of connection points: 6
#     Node 11, Type 1, BuildingBlock: BETDAH_clean_sbu_0, # of connection points: 6
#     Edge 12, Type (0, 1), BuildingBlock: OJICUG_clean_linker_0, # of connection points: 2
#     Edge 13, Type (0, 1), BuildingBlock: OJICUG_clean_linker_0, # of connection points: 2
#     Edge 14, Type (0, 1), BuildingBlock: OJICUG_clean_linker_0, # of connection points: 2
#     Edge 15, Type (0, 1), BuildingBlock: OJICUG_clean_linker_0, # of connection points: 2
#     Edge 16, Type (0, 1), BuildingBlock: OJICUG_clean_linker_0, # of connection points: 2
#     Edge 17, Type (0, 1), BuildingBlock: OJICUG_clean_linker_0, # of connection points: 2
#     Edge 18, Type (0, 1), BuildingBlock: OJICUG_clean_linker_0, # of connection points: 2
#     Edge 19, Type (0, 1), BuildingBlock: OJICUG_clean_linker_0, # of connection points: 2
#     Edge 20, Type (0, 1), BuildingBlock: OJICUG_clean_linker_0, # of connection points: 2
#     Edge 21, Type (0, 1), BuildingBlock: OJICUG_clean_linker_0, # of connection points: 2
#     Edge 22, Type (0, 1), BuildingBlock: OJICUG_clean_linker_0, # of connection points: 2
#     Edge 23, Type (0, 1), BuildingBlock: OJICUG_clean_linker_0, # of connection points: 2
#     Edge 24, Type (0, 1), BuildingBlock: OJICUG_clean_linker_0, # of connection points: 2
#     Edge 25, Type (0, 1), BuildingBlock: OJICUG_clean_linker_0, # of connection points: 2
#     Edge 26, Type (0, 1), BuildingBlock: OJICUG_clean_linker_0, # of connection points: 2
#     Edge 27, Type (0, 1), BuildingBlock: OJICUG_clean_linker_0, # of connection points: 2
#     Edge 28, Type (0, 1), BuildingBlock: OJICUG_clean_linker_0, # of connection points: 2
#     Edge 29, Type (0, 1), BuildingBlock: OJICUG_clean_linker_0, # of connection points: 2
#     Edge 30, Type (0, 1), BuildingBlock: OJICUG_clean_linker_0, # of connection points: 2
#     Edge 31, Type (0, 1), BuildingBlock: OJICUG_clean_linker_0, # of connection points: 2
#     Edge 32, Type (0, 1), BuildingBlock: OJICUG_clean_linker_0, # of connection points: 2
#     Edge 33, Type (0, 1), BuildingBlock: OJICUG_clean_linker_0, # of connection points: 2
#     Edge 34, Type (0, 1), BuildingBlock: OJICUG_clean_linker_0, # of connection points: 2
#     Edge 35, Type (0, 1), BuildingBlock: OJICUG_clean_linker_0, # of connection points: 2
# Relax obj value: 0.132
# Max RMSD: 0.133
# Mean RMSD: 0.064
data_MOF--net-pyr--node1-BETDAH_clean_sbu_0--node2-KAKCAD_clean_linker_0--edge1-OJICUG_clean_linker_0
_symmetry_space_group_name_H-M    P1
_symmetry_Int_Tables_number       1
_symmetry_cell_setting            triclinic
loop_
_symmetry_equiv_pos_as_xyz
'x, y, z'
_cell_length_a     36.123986
_cell_length_b     38.772458
_cell_length_c     34.942449
_cell_angle_alpha  90.740303
_cell_angle_beta   88.55674
_cell_angle_gamma 101.75783
loop_
_atom_site_label
_atom_site_type_symbol
_atom_site_fract_x
_atom_site_fract_y
_atom_site_fract_z
_atom_type_partial_charge
C0 C 0.2848 0.2686 0.36019 0.0
C1 C 0.30481 0.25261 0.38617 0.0
C2 C 0.30319 0.28619 0.32846 0.0
C3 C 0.34243 0.28907 0.32224 0.0
C4 C 0.36301 0.27597 0.35048 0.0
C5 C 0.34427 0.2574 0.38184 0.0
C6 C 0.35982 0.30035 0.28393 0.0
C7 C 0.34351 0.3224 0.26091 0.0
C8 C 0.3498 0.32336 0.2212 0.0
C9 C 0.37669 0.30588 0.20472 0.0
C10 C 0.39572 0.28579 0.22768 0.0
C11 C 0.38704 0.28319 0.26715 0.0
C12 C 0.41868 0.26177 0.21011 0.0
C13 C 0.40446 0.24008 0.17913 0.0
C14 C 0.45213 0.25689 0.22717 0.0
C15 C 0.46991 0.22972 0.21468 0.0
C16 C 0.45419 0.20675 0.18529 0.0
C17 C 0.32129 0.33458 0.19733 0.0
C18 C 0.28371 0.31608 0.20061 0.0
C19 C 0.33022 0.3638 0.17311 0.0
C20 C 0.30141 0.37514 0.15358 0.0
C21 C 0.26352 0.35702 0.15767 0.0
C22 C 0.2552 0.32711 0.18102 0.0
C23 C 0.42198 0.21285 0.16693 0.0
H24 H 0.25426 0.26484 0.36245 0.0
H25 H 0.28567 0.29485 0.30744 0.0
H26 H 0.39332 0.27835 0.34737 0.0
H27 H 0.36031 0.24538 0.40171 0.0
H28 H 0.32266 0.33616 0.27306 0.0
H29 H 0.39867 0.26472 0.28377 0.0
H30 H 0.3807 0.30582 0.17388 0.0
H31 H 0.37852 0.24278 0.16569 0.0
H32 H 0.46371 0.2733 0.25109 0.0
H33 H 0.49477 0.22558 0.2292 0.0
H34 H 0.27626 0.29334 0.21907 0.0
H35 H 0.3591 0.37834 0.17022 0.0
H36 H 0.4096 0.19577 0.14383 0.0
H37 H 0.22635 0.31286 0.18533 0.0
H38 H 0.30865 0.3982 0.1356 0.0
C39 C 0.23023 0.88031 0.82303 0.0
C40 C 0.26822 0.89794 0.81998 0.0
C41 C 0.21327 0.85972 0.7927 0.0
C42 C 0.23399 0.85635 0.75878 0.0
C43 C 0.27213 0.87358 0.75597 0.0
C44 C 0.28907 0.89414 0.78627 0.0
C45 C 0.21541 0.83668 0.72553 0.0
C46 C 0.18007 0.84183 0.7143 0.0
C47 C 0.16358 0.82642 0.68051 0.0
C48 C 0.18298 0.80504 0.65803 0.0
C49 C 0.21873 0.80011 0.66885 0.0
C50 C 0.23432 0.81546 0.70293 0.0
C51 C 0.2416 0.78095 0.64403 0.0
C52 C 0.22723 0.74639 0.63155 0.0
C53 C 0.27963 0.79627 0.63606 0.0
C54 C 0.3037 0.77656 0.61883 0.0
C55 C 0.29026 0.74104 0.60895 0.0
C56 C 0.12968 0.83805 0.66643 0.0
C57 C 0.10213 0.84574 0.69266 0.0
C58 C 0.12874 0.84844 0.62813 0.0
C59 C 0.10382 0.8696 0.61747 0.0
C60 C 0.07985 0.88085 0.64497 0.0
C61 C 0.07787 0.8676 0.68218 0.0
C62 C 0.25143 0.72653 0.61417 0.0
H63 H 0.2134 0.88294 0.84858 0.0
H64 H 0.18386 0.8466 0.79568 0.0
H65 H 0.28867 0.87189 0.72997 0.0
H66 H 0.31856 0.907 0.7833 0.0
H67 H 0.16676 0.86016 0.73056 0.0
H68 H 0.26171 0.81134 0.71156 0.0
H69 H 0.17121 0.79365 0.6314 0.0
H70 H 0.19791 0.73413 0.63722 0.0
H71 H 0.29122 0.82311 0.6449 0.0
H72 H 0.33339 0.78863 0.61566 0.0
H73 H 0.10151 0.83736 0.72216 0.0
H74 H 0.14957 0.84324 0.6072 0.0
H75 H 0.24008 0.6994 0.6063 0.0
H76 H 0.05943 0.87606 0.7037 0.0
H77 H 0.1058 0.87987 0.58863 0.0
C78 C 0.77585 0.4516 0.93018 0.0
C79 C 0.80325 0.43315 0.94272 0.0
C80 C 0.74273 0.43407 0.91181 0.0
C81 C 0.73545 0.39731 0.90547 0.0
C82 C 0.76293 0.37894 0.91771 0.0
C83 C 0.79607 0.39644 0.93579 0.0
C84 C 0.69937 0.37794 0.8869 0.0
C85 C 0.68351 0.39241 0.85577 0.0
C86 C 0.65015 0.37431 0.83776 0.0
C87 C 0.63294 0.34014 0.85189 0.0
C88 C 0.64802 0.32464 0.88339 0.0
C89 C 0.6809 0.34453 0.90046 0.0
C90 C 0.63024 0.28811 0.89945 0.0
C91 C 0.59091 0.27396 0.8988 0.0
C92 C 0.65272 0.26722 0.91731 0.0
C93 C 0.63675 0.23485 0.93495 0.0
C94 C 0.59752 0.22108 0.93497 0.0
C95 C 0.6341 0.39162 0.80431 0.0
C96 C 0.6369 0.42854 0.80317 0.0
C97 C 0.61694 0.37216 0.77262 0.0
C98 C 0.60386 0.38892 0.74115 0.0
C99 C 0.60699 0.42594 0.73998 0.0
C100 C 0.62376 0.44521 0.77193 0.0
C101 C 0.57496 0.24108 0.91598 0.0
H102 H 0.77947 0.47968 0.93515 0.0
H103 H 0.72236 0.44933 0.90336 0.0
H104 H 0.75911 0.3508 0.91287 0.0
H105 H 0.81638 0.38096 0.94383 0.0
H106 H 0.69802 0.41767 0.84479 0.0
H107 H 0.69198 0.33439 0.92548 0.0
H108 H 0.60775 0.3257 0.83842 0.0
H109 H 0.5721 0.28865 0.88584 0.0
H110 H 0.68315 0.27568 0.91768 0.0
H111 H 0.6555 0.22027 0.94825 0.0
H112 H 0.6492 0.44496 0.82675 0.0
H113 H 0.61419 0.34384 0.77165 0.0
H114 H 0.54462 0.23177 0.91521 0.0
H115 H 0.62747 0.47361 0.77277 0.0
H116 H 0.59089 0.37258 0.71781 0.0
C117 C 0.88683 0.62694 0.23763 0.0
C118 C 0.92639 0.63179 0.23185 0.0
C119 C 0.87084 0.64324 0.26863 0.0
C120 C 0.89365 0.66544 0.29509 0.0
C121 C 0.93318 0.67088 0.2888 0.0
C122 C 0.94915 0.65435 0.25803 0.0
C123 C 0.87643 0.68224 0.32918 0.0
C124 C 0.84366 0.66351 0.34888 0.0
C125 C 0.82714 0.67828 0.38078 0.0
C126 C 0.84392 0.71293 0.39235 0.0
C127 C 0.87656 0.73271 0.37389 0.0
C128 C 0.8927 0.71678 0.3425 0.0
C129 C 0.8931 0.76988 0.38807 0.0
C130 C 0.86923 0.79227 0.40163 0.0
C131 C 0.93248 0.78297 0.39012 0.0
C132 C 0.94721 0.81654 0.4063 0.0
C133 C 0.92314 0.83832 0.42108 0.0
C134 C 0.79258 0.65791 0.40253 0.0
C135 C 0.76383 0.63368 0.38413 0.0
C136 C 0.78751 0.6632 0.44224 0.0
C137 C 0.75489 0.64592 0.4624 0.0
C138 C 0.72589 0.6219 0.4441 0.0
C139 C 0.73125 0.61599 0.40448 0.0
C140 C 0.88387 0.82559 0.41779 0.0
H141 H 0.86801 0.60976 0.21866 0.0
H142 H 0.84033 0.63848 0.27171 0.0
H143 H 0.95208 0.68741 0.30823 0.0
H144 H 0.97965 0.65944 0.25477 0.0
H145 H 0.83169 0.63679 0.34007 0.0
H146 H 0.91733 0.73176 0.32767 0.0
H147 H 0.83142 0.72479 0.41627 0.0
H148 H 0.83883 0.78407 0.39981 0.0
H149 H 0.95205 0.76681 0.38034 0.0
H150 H 0.97758 0.82491 0.40825 0.0
H151 H 0.76602 0.62871 0.3537 0.0
H152 H 0.8089 0.6808 0.45821 0.0
H153 H 0.86408 0.84151 0.42763 0.0
H154 H 0.71035 0.5975 0.38891 0.0
H155 H 0.75237 0.65212 0.4925 0.0
C156 C 0.73025 0.789 0.72543 0.0
C157 C 0.72899 0.82321 0.71352 0.0
C158 C 0.71033 0.77504 0.75856 0.0
C159 C 0.68963 0.79544 0.78089 0.0
C160 C 0.68687 0.82887 0.76727 0.0
C161 C 0.70589 0.84231 0.73395 0.0
C162 C 0.67557 0.78493 0.82052 0.0
C163 C 0.69613 0.76698 0.84417 0.0
C164 C 0.68896 0.7649 0.88397 0.0
C165 C 0.66196 0.78264 0.90033 0.0
C166 C 0.64131 0.80082 0.87699 0.0
C167 C 0.64598 0.79889 0.83712 0.0
C168 C 0.62059 0.82721 0.8935 0.0
C169 C 0.5982 0.8208 0.92714 0.0
C170 C 0.62554 0.86056 0.87635 0.0
C171 C 0.60906 0.88692 0.8925 0.0
C172 C 0.58745 0.88093 0.92653 0.0
C173 C 0.7132 0.74774 0.90821 0.0
C174 C 0.72347 0.71627 0.89588 0.0
C175 C 0.72886 0.76404 0.94196 0.0
C176 C 0.7555 0.75003 0.96183 0.0
C177 C 0.76721 0.7195 0.94835 0.0
C178 C 0.75019 0.70239 0.91558 0.0
C179 C 0.58159 0.84741 0.94343 0.0
H180 H 0.74781 0.77368 0.71002 0.0
H181 H 0.71259 0.74894 0.7675 0.0
H182 H 0.67239 0.8462 0.78361 0.0
H183 H 0.70492 0.86903 0.72602 0.0
H184 H 0.71982 0.75691 0.83227 0.0
H185 H 0.62868 0.81147 0.81919 0.0
H186 H 0.65839 0.78373 0.93116 0.0
H187 H 0.59389 0.79544 0.94103 0.0
H188 H 0.64329 0.86687 0.85094 0.0
H189 H 0.6138 0.91231 0.8786 0.0
H190 H 0.71163 0.70286 0.87022 0.0
H191 H 0.72186 0.78847 0.95214 0.0
H192 H 0.56524 0.84216 0.96989 0.0
H193 H 0.75869 0.67907 0.90402 0.0
H194 H 0.76758 0.76362 0.98729 0.0
C195 C 0.85126 0.2235 0.22426 0.0
C196 C 0.83237 0.24324 0.20099 0.0
C197 C 0.86916 0.23845 0.25714 0.0
C198 C 0.86905 0.27369 0.26724 0.0
C199 C 0.85401 0.29451 0.24137 0.0
C200 C 0.83536 0.27929 0.2088 0.0
C201 C 0.87729 0.28596 0.30733 0.0
C202 C 0.90355 0.27269 0.32893 0.0
C203 C 0.9032 0.2754 0.36913 0.0
C204 C 0.87853 0.29448 0.38753 0.0
C205 C 0.85262 0.30827 0.36633 0.0
C206 C 0.85268 0.30453 0.3264 0.0
C207 C 0.82049 0.32003 0.38573 0.0
C208 C 0.78355 0.30294 0.37699 0.0
C209 C 0.82598 0.34808 0.41214 0.0
C210 C 0.79477 0.36002 0.428 0.0
C211 C 0.75777 0.34381 0.41782 0.0
C212 C 0.9214 0.25132 0.39144 0.0
C213 C 0.89995 0.23018 0.41977 0.0
C214 C 0.9574 0.24514 0.38097 0.0
C215 C 0.97067 0.21716 0.39706 0.0
C216 C 0.9479 0.19477 0.42345 0.0
C217 C 0.91304 0.20227 0.43553 0.0
C218 C 0.75258 0.31458 0.39293 0.0
H219 H 0.84916 0.19556 0.21914 0.0
H220 H 0.87985 0.22123 0.27626 0.0
H221 H 0.85424 0.32197 0.24771 0.0
H222 H 0.82136 0.29516 0.191 0.0
H223 H 0.92166 0.25713 0.31479 0.0
H224 H 0.83087 0.31335 0.31072 0.0
H225 H 0.87705 0.29576 0.41853 0.0
H226 H 0.77862 0.28063 0.35743 0.0
H227 H 0.8543 0.3614 0.41948 0.0
H228 H 0.79963 0.38263 0.44711 0.0
H229 H 0.87186 0.23369 0.42812 0.0
H230 H 0.97457 0.26105 0.35926 0.0
H231 H 0.72447 0.30089 0.38535 0.0
H232 H 0.89522 0.18569 0.45631 0.0
H233 H 0.99777 0.21195 0.38749 0.0
C234 C 0.23687 0.62703 0.19182 0.0
C235 C 0.23117 0.6339 0.15307 0.0
C236 C 0.26995 0.64381 0.21077 0.0
C237 C 0.29905 0.66782 0.19162 0.0
C238 C 0.29346 0.674 0.15254 0.0
C239 C 0.26016 0.65769 0.13385 0.0
C240 C 0.33457 0.68671 0.21204 0.0
C241 C 0.34968 0.67114 0.2431 0.0
C242 C 0.38263 0.68852 0.26245 0.0
C243 C 0.40045 0.7229 0.24971 0.0
C244 C 0.38661 0.73909 0.21821 0.0
C245 C 0.35362 0.72067 0.20031 0.0
C246 C 0.40642 0.77477 0.20247 0.0
C247 C 0.41705 0.80486 0.22604 0.0
C248 C 0.41302 0.7794 0.16268 0.0
C249 C 0.42952 0.81253 0.14704 0.0
C250 C 0.43961 0.84282 0.17036 0.0
C251 C 0.3983 0.67019 0.2953 0.0
C252 C 0.39568 0.63326 0.29526 0.0
C253 C 0.41551 0.68891 0.3274 0.0
C254 C 0.42894 0.67149 0.35808 0.0
C255 C 0.42612 0.6345 0.35805 0.0
C256 C 0.40919 0.61592 0.32576 0.0
C257 C 0.43293 0.83835 0.21024 0.0
H258 H 0.21525 0.60919 0.20793 0.0
H259 H 0.27215 0.63835 0.24082 0.0
H260 H 0.31504 0.69126 0.13586 0.0
H261 H 0.25743 0.66338 0.10391 0.0
H262 H 0.33567 0.64514 0.25234 0.0
H263 H 0.3423 0.73358 0.17737 0.0
H264 H 0.42594 0.7366 0.26332 0.0
H265 H 0.41228 0.8027 0.25671 0.0
H266 H 0.40543 0.75714 0.14336 0.0
H267 H 0.43382 0.81448 0.1163 0.0
H268 H 0.38339 0.61741 0.27128 0.0
H269 H 0.41814 0.71719 0.32927 0.0
H270 H 0.44046 0.86072 0.22939 0.0
H271 H 0.40574 0.58756 0.32405 0.0
H272 H 0.44202 0.68732 0.38173 0.0
C273 C 0.13984 0.2475 0.67064 0.0
C274 C 0.10043 0.23651 0.66658 0.0
C275 C 0.15574 0.28001 0.68784 0.0
C276 C 0.1331 0.30336 0.70178 0.0
C277 C 0.09352 0.29195 0.69919 0.0
C278 C 0.07749 0.25914 0.68191 0.0
C279 C 0.15148 0.33988 0.71655 0.0
C280 C 0.18459 0.35832 0.69778 0.0
C281 C 0.2046 0.3914 0.71072 0.0
C282 C 0.18949 0.40695 0.74289 0.0
C283 C 0.15585 0.39001 0.76272 0.0
C284 C 0.1372 0.35623 0.74886 0.0
C285 C 0.14094 0.40781 0.79778 0.0
C286 C 0.16551 0.43246 0.82064 0.0
C287 C 0.10208 0.40131 0.80864 0.0
C288 C 0.08856 0.4191 0.84012 0.0
C289 C 0.11317 0.44462 0.86171 0.0
C290 C 0.24139 0.40909 0.69051 0.0
C291 C 0.265 0.38874 0.67201 0.0
C292 C 0.25343 0.44615 0.68894 0.0
C293 C 0.28721 0.46199 0.66928 0.0
C294 C 0.3098 0.4414 0.64987 0.0
C295 C 0.29814 0.40455 0.65176 0.0
C296 C 0.1519 0.45069 0.85142 0.0
H297 H 0.15878 0.23085 0.66052 0.0
H298 H 0.18621 0.28694 0.69001 0.0
H299 H 0.0749 0.30889 0.70933 0.0
H300 H 0.04706 0.25206 0.6795 0.0
H301 H 0.19447 0.34687 0.67206 0.0
H302 H 0.11222 0.34206 0.76379 0.0
H303 H 0.20421 0.43254 0.75249 0.0
H304 H 0.19571 0.43785 0.81513 0.0
H305 H 0.08166 0.38306 0.79227 0.0
H306 H 0.05851 0.41366 0.84677 0.0
H307 H 0.25819 0.36028 0.67322 0.0
H308 H 0.23642 0.46319 0.70214 0.0
H309 H 0.17202 0.46958 0.86749 0.0
H310 H 0.315 0.38773 0.63777 0.0
H311 H 0.2951 0.49046 0.66835 0.0
Ho312 Ho 0.04647 0.04323 0.5215 0.0
Ho313 Ho 0.97334 1.03434 0.56197 0.0
C314 C 0.0399 0.10281 0.58438 0.0
C315 C 0.10444 0.05419 0.47531 0.0
C316 C 0.13585 0.0844 0.468 0.0
C317 C 0.12916 0.11686 0.4556 0.0
C318 C 0.15931 0.14517 0.44916 0.0
C319 C 0.19678 0.14181 0.45534 0.0
C320 C 0.20327 0.10946 0.46845 0.0
C321 C 0.17312 0.08103 0.47452 0.0
C322 C 0.04104 1.0039 0.58568 0.0
C323 C 0.98021 0.97488 0.49893 0.0
C324 C 0.91696 1.02134 0.60986 0.0
C325 C 0.8897 0.98879 0.61887 0.0
C326 C 0.89895 0.95573 0.61196 0.0
C327 C 0.87257 0.92484 0.62009 0.0
C328 C 0.83645 0.92658 0.63483 0.0
C329 C 0.82718 0.9598 0.641 0.0
C330 C 0.85362 0.99064 0.63308 0.0
C331 C 0.97732 0.07248 0.49723 0.0
O332 O 0.05848 0.09528 0.55328 0.0
O333 O 1.00778 0.08139 0.59522 0.0
O334 O 0.10433 0.03946 0.50871 0.0
O335 O 0.07059 0.0573 0.4652 0.0
O336 O 0.07023 1.0279 0.57626 0.0
O337 O 1.01647 1.00244 0.56069 0.0
O338 O 0.96225 0.98202 0.5306 0.0
O339 O 1.01174 0.99684 0.4875 0.0
O340 O 0.9145 1.03363 0.5756 0.0
O341 O 0.95193 1.02215 0.61952 0.0
O342 O 0.94818 0.04903 0.50811 0.0
O343 O 1.00266 0.07493 0.52175 0.0
H344 H 0.10071 0.1204 0.45055 0.0
H345 H 0.15321 0.16939 0.4383 0.0
H346 H 0.23167 0.10603 0.47391 0.0
H347 H 0.17893 0.05633 0.48439 0.0
H348 H 0.9266 0.95381 0.60046 0.0
H349 H 0.88042 0.89964 0.61494 0.0
H350 H 0.7998 0.96201 0.65298 0.0
H351 H 0.84596 1.01593 0.63826 0.0
Ho352 Ho 0.55793 0.04256 0.07842 0.0
Ho353 Ho 0.48263 1.03439 0.05222 0.0
C354 C 0.50424 0.08642 0.12247 0.0
C355 C 0.62756 0.05855 0.0991 0.0
C356 C 0.65689 0.08902 0.10923 0.0
C357 C 0.65199 0.12363 0.10426 0.0
C358 C 0.68133 0.1521 0.11277 0.0
C359 C 0.7159 0.14623 0.12634 0.0
C360 C 0.72034 0.11135 0.13128 0.0
C361 C 0.69114 0.08307 0.1227 0.0
C362 C 0.51317 0.97913 0.10088 0.0
C363 C 0.53662 0.99446 1.00669 0.0
C364 C 0.41091 1.02183 1.03942 0.0
C365 C 0.38799 1.01082 1.00592 0.0
C366 C 0.34887 0.99912 1.01053 0.0
C367 C 0.3274 0.98405 0.97966 0.0
C368 C 0.3449 0.98046 0.94384 0.0
C369 C 0.38398 0.99356 0.93905 0.0
C370 C 0.40541 1.00854 0.96994 0.0
C371 C 0.53221 0.08544 1.01136 0.0
O372 O 0.53976 0.08541 0.11399 0.0
O373 O 0.47655 0.06488 0.10559 0.0
O374 O 0.59909 0.04971 0.12335 0.0
O375 O 0.61722 0.05677 0.06343 0.0
O376 O 0.5475 0.9836 0.08796 0.0
O377 O 0.50382 1.00896 0.10167 0.0
O378 O 0.50174 0.99068 1.02008 0.0
O379 O 0.56285 1.02042 1.01942 0.0
O380 O 0.43226 0.05334 1.03829 0.0
O381 O 0.42873 0.99823 0.05181 0.0
O382 O 0.50549 0.06184 0.99681 0.0
O383 O 0.53169 0.0805 0.04718 0.0
H384 H 0.62562 0.12857 0.09373 0.0
H385 H 0.67703 0.17863 0.10862 0.0
H386 H 0.74613 0.10581 0.14259 0.0
H387 H 0.69531 0.05645 0.12664 0.0
H388 H 0.33515 1.00059 1.03827 0.0
H389 H 0.29728 0.9745 0.984 0.0
H390 H 0.39829 0.99075 0.91192 0.0
H391 H 0.43574 1.01714 0.96614 0.0
Ho392 Ho 0.51652 0.49899 0.52399 0.0
Ho393 Ho 0.51976 0.55997 0.57046 0.0
C394 C 0.55171 0.49887 0.60986 0.0
C395 C 0.5306 0.4456 0.4851 0.0
C396 C 0.56263 0.42783 0.48174 0.0
C397 C 0.59789 0.44344 0.49664 0.0
C398 C 0.62933 0.42823 0.48954 0.0
C399 C 0.62587 0.39725 0.46739 0.0
C400 C 0.59002 0.38089 0.45417 0.0
C401 C 0.55867 0.39613 0.46123 0.0
C402 C 0.4483 0.4985 0.56034 0.0
C403 C 0.48383 0.56018 0.48527 0.0
C404 C 0.5039 0.61387 0.60647 0.0
C405 C 0.4717 0.63122 0.60243 0.0
C406 C 0.43648 0.61165 0.59111 0.0
C407 C 0.40592 0.62811 0.58691 0.0
C408 C 0.41021 0.66449 0.59345 0.0
C409 C 0.44575 0.68417 0.60386 0.0
C410 C 0.47628 0.6676 0.60839 0.0
C411 C 0.58733 0.56035 0.53281 0.0
O412 O 0.55206 0.48674 0.57412 0.0
O413 O 0.53725 0.52701 0.61702 0.0
O414 O 0.51208 0.44257 0.51779 0.0
O415 O 0.53713 0.47772 0.47223 0.0
O416 O 0.45275 0.48823 0.52543 0.0
O417 O 0.48067 0.50809 0.57468 0.0
O418 O 0.48381 0.57219 0.52097 0.0
O419 O 0.49851 0.53222 0.4778 0.0
O420 O 0.52727 0.61663 0.5771 0.0
O421 O 0.49567 0.58193 0.61998 0.0
O422 O 0.58374 0.5696 0.56829 0.0
O423 O 0.55465 0.55121 0.51912 0.0
H424 H 0.60135 0.46801 0.51258 0.0
H425 H 0.65658 0.44155 0.49989 0.0
H426 H 0.58637 0.35668 0.43759 0.0
H427 H 0.53157 0.3837 0.44973 0.0
H428 H 0.43252 0.58357 0.58566 0.0
H429 H 0.37892 0.61242 0.57858 0.0
H430 H 0.44968 0.71221 0.60946 0.0
H431 H 0.50336 0.68312 0.61672 0.0
Ho432 Ho 1.01912 0.50219 0.06806 0.0
Ho433 Ho 1.01547 0.57081 1.02652 0.0
C434 C 0.08998 0.56751 0.07626 0.0
C435 C 0.02898 0.44006 0.0849 0.0
C436 C 0.06386 0.42751 0.09235 0.0
C437 C 0.09909 0.44764 0.08066 0.0
C438 C 0.13244 0.43632 0.08827 0.0
C439 C 0.13119 0.40456 0.10764 0.0
C440 C 0.09577 0.3843 0.11903 0.0
C441 C 0.06237 0.39575 0.11149 0.0
C442 C 0.9942 0.55137 0.11318 0.0
C443 C 0.94449 0.50402 1.01722 0.0
C444 C 1.0004 0.63147 1.01123 0.0
C445 C 0.96604 0.64613 1.01016 0.0
C446 C 0.93132 0.62709 1.02444 0.0
C447 C 0.89813 0.63979 1.01968 0.0
C448 C 0.89911 0.67158 1.00024 0.0
C449 C 0.93428 0.69086 0.98684 0.0
C450 C 0.96739 0.67823 0.99181 0.0
C451 C 0.05463 0.53116 0.98034 0.0
O452 O 0.07897 0.53272 0.07613 0.0
O453 O 0.0685 0.58787 0.06164 0.0
O454 O 0.01942 0.46182 0.11039 0.0
O455 O 0.02598 0.45041 0.04989 0.0
O456 O 1.01512 0.53007 0.12433 0.0
O457 O 0.98564 0.54433 0.07829 0.0
O458 O 0.95885 0.53762 1.00954 0.0
O459 O 0.9621 0.48545 1.03972 0.0
O460 O 1.00256 0.60731 0.9853 0.0
O461 O 1.01093 0.62335 0.04499 0.0
O462 O 0.04955 0.56233 0.97214 0.0
O463 O 0.04017 0.52455 1.0134 0.0
H464 H 0.10085 0.47214 0.06556 0.0
H465 H 0.15917 0.45232 0.07876 0.0
H466 H 0.09389 0.35994 0.13446 0.0
H467 H 0.03544 0.37995 0.12082 0.0
H468 H 0.92976 0.60204 1.0384 0.0
H469 H 0.87168 0.62445 1.03075 0.0
H470 H 0.93614 0.71506 0.97113 0.0
H471 H 0.99394 0.69304 0.98024 0.0
C472 C 0.25235 0.23369 0.43418 0.0
C473 C 0.28321 0.2262 0.41277 0.0
H474 H 0.2013 0.2129 0.46563 0.0
C475 C 0.28851 0.19135 0.41068 0.0
H476 H 0.24779 0.26042 0.43633 0.0
C477 C 0.26151 0.16404 0.42659 0.0
C478 C 0.22885 0.17113 0.44524 0.0
H479 H 0.3118 0.18481 0.3939 0.0
H480 H 0.26497 0.13724 0.42173 0.0
C481 C 0.22555 0.20643 0.4505 0.0
C482 C 0.27987 0.9085 0.88985 0.0
C483 C 0.28621 0.92011 0.8519 0.0
H484 H 0.29369 0.91843 0.94862 0.0
C485 C 0.31053 0.95267 0.84457 0.0
H486 H 0.26166 0.88332 0.89632 0.0
C487 C 0.32887 0.9728 0.87452 0.0
C488 C 0.32316 0.96078 0.91237 0.0
H489 H 0.31542 0.96259 0.81566 0.0
H490 H 0.34768 0.99767 0.86807 0.0
C491 C 0.29815 0.92864 0.91979 0.0
C492 C 0.59351 0.43156 0.66808 0.0
C493 C 0.59293 0.44446 0.70618 0.0
H494 H 0.58188 0.43804 0.60853 0.0
C495 C 0.57889 0.47576 0.71154 0.0
H496 H 0.6043 0.40797 0.66193 0.0
C497 C 0.56618 0.49321 0.68063 0.0
C498 C 0.56682 0.48038 0.64264 0.0
H499 H 0.577 0.48674 0.73998 0.0
H500 H 0.55546 0.51687 0.68674 0.0
C501 C 0.58082 0.44914 0.63704 0.0
C502 C 0.97723 0.59991 0.20623 0.0
C503 C 0.94393 0.61252 0.19997 0.0
H504 H 1.01849 0.57154 0.18449 0.0
C505 C 0.92772 0.60578 0.16338 0.0
H506 H 0.99063 0.60376 0.23375 0.0
C507 C 0.94414 0.58706 0.1345 0.0
C508 C 0.97706 0.57404 0.14141 0.0
H509 H 0.90231 0.61509 0.1569 0.0
H510 H 0.93056 0.58212 0.10715 0.0
C511 C 0.99325 0.58106 0.17774 0.0
C512 C 0.50771 0.17705 0.16564 0.0
C513 C 0.46926 0.17497 0.17511 0.0
H514 H 0.5494 0.15013 0.14159 0.0
C515 C 0.4442 0.14226 0.17276 0.0
H516 H 0.52761 0.20199 0.16747 0.0
C517 C 0.45657 0.11277 0.15852 0.0
C518 C 0.4943 0.11528 0.14606 0.0
H519 H 0.4146 0.13976 0.18077 0.0
H520 H 0.436 0.08835 0.1555 0.0
C521 C 0.52017 0.14737 0.15108 0.0
C522 C 0.03382 0.90879 0.61107 0.0
C523 C 0.06354 0.91155 0.63658 0.0
H524 H 1.00219 0.93649 0.57593 0.0
C525 C 0.08213 0.94487 0.64949 0.0
H526 H 0.01946 0.88324 0.60064 0.0
C527 C 0.07307 0.9753 0.63476 0.0
C528 C 0.04489 0.97268 0.60744 0.0
H529 H 0.10544 0.94735 0.66895 0.0
H530 H 0.0894 1.00078 0.64317 0.0
C531 C 0.02409 0.93923 0.59703 0.0
C532 C 0.85648 0.4345 0.9903 0.0
C533 C 0.83896 0.45181 0.96271 0.0
H534 H 0.90244 0.43677 1.02881 0.0
C535 C 0.85634 0.48705 0.95431 0.0
H536 H 0.84411 0.40775 0.99858 0.0
C537 C 0.88985 0.50399 0.97231 0.0
C538 C 0.90756 0.48642 0.99938 0.0
H539 H 0.84459 0.50155 0.93307 0.0
H540 H 0.90222 0.53087 0.96444 0.0
C541 C 0.89009 0.45138 1.00812 0.0
C542 C 0.65509 0.59343 0.44841 0.0
C543 C 0.69043 0.60379 0.46623 0.0
H544 H 0.59547 0.57141 0.45478 0.0
C545 C 0.6912 0.59742 0.50596 0.0
H546 H 0.6525 0.59795 0.4182 0.0
C547 C 0.65809 0.58277 0.52707 0.0
C548 C 0.6229 0.57323 0.50934 0.0
H549 H 0.71748 0.60374 0.52114 0.0
H550 H 0.66006 0.5791 0.55758 0.0
C551 C 0.62202 0.57823 0.46952 0.0
C552 C 0.20143 0.34607 0.12439 0.0
C553 C 0.23201 0.37001 0.14 0.0
H554 H 0.14584 0.33822 0.10163 0.0
C555 C 0.23035 0.40587 0.14213 0.0
H556 H 0.20212 0.31833 0.12177 0.0
C557 C 0.19803 0.41725 0.13065 0.0
C558 C 0.16672 0.393 0.11678 0.0
H559 H 0.25323 0.4249 0.15442 0.0
H560 H 0.19696 0.44483 0.13415 0.0
C561 C 0.16913 0.35741 0.113 0.0
C562 C 0.55142 0.16115 0.93804 0.0
C563 C 0.58066 0.18621 0.95465 0.0
H564 H 0.51415 0.11022 0.94192 0.0
C565 C 0.59398 0.17729 0.99023 0.0
H566 H 0.5404 0.16646 0.91068 0.0
C567 C 0.57847 0.14496 1.0085 0.0
C568 C 0.5495 0.11987 0.99167 0.0
H569 H 0.61615 0.19564 1.00442 0.0
H570 H 0.5893 0.13957 1.03592 0.0
C571 C 0.53644 0.12856 0.95598 0.0
C572 C 0.97226 0.89619 0.42827 0.0
C573 C 0.93834 0.87357 0.44061 0.0
H574 H 1.0118 0.94546 0.43608 0.0
C575 C 0.91874 0.8851 0.47217 0.0
H576 H 0.98828 0.88878 0.40404 0.0
C577 C 0.93222 0.91768 0.49049 0.0
C578 C 0.96591 0.94039 0.47808 0.0
H579 H 0.893 0.86863 0.48336 0.0
H580 H 0.91607 0.92495 0.51472 0.0
C581 C 0.98571 0.92903 0.44658 0.0
C582 C 0.35065 0.7323 0.57656 0.0
C583 C 0.31774 0.71858 0.59832 0.0
H584 H 0.40585 0.72586 0.55796 0.0
C585 C 0.31392 0.68497 0.6145 0.0
H586 H 0.35419 0.75779 0.56307 0.0
C587 C 0.34331 0.66661 0.61117 0.0
C588 C 0.37722 0.68157 0.59187 0.0
H589 H 0.28927 0.67376 0.63188 0.0
H590 H 0.34034 0.64163 0.62568 0.0
C591 C 0.38022 0.71409 0.57362 0.0
C592 C 0.79482 0.84298 0.68787 0.0
C593 C 0.75594 0.84189 0.68437 0.0
H594 H 0.85102 0.87107 0.67495 0.0
C595 C 0.74408 0.86472 0.65857 0.0
H596 H 0.80478 0.82591 0.70779 0.0
C597 C 0.77054 0.89075 0.63997 0.0
C598 C 0.8093 0.89429 0.64674 0.0
H599 H 0.71425 0.86413 0.655 0.0
H600 H 0.76056 0.90941 0.62207 0.0
C601 C 0.82132 0.869 0.6692 0.0
C602 C 0.81338 0.19785 0.14976 0.0
C603 C 0.80443 0.2245 0.17366 0.0
H604 H 0.79234 0.15276 0.11486 0.0
C605 C 0.7667 0.22862 0.1767 0.0
H606 H 0.8423 0.19434 0.14668 0.0
C607 C 0.73799 0.20449 0.15908 0.0
C608 C 0.74656 0.17593 0.13793 0.0
H609 H 0.75894 0.24869 0.1953 0.0
H610 H 0.70893 0.20677 0.16447 0.0
C611 C 0.78473 0.17392 0.13186 0.0
C612 C 0.4552 0.58449 0.38458 0.0
C613 C 0.44067 0.61539 0.39101 0.0
H614 H 0.47971 0.54339 0.40798 0.0
C615 C 0.44019 0.62749 0.42942 0.0
H616 H 0.45698 0.57414 0.35583 0.0
C617 C 0.45353 0.6096 0.45972 0.0
C618 C 0.46811 0.57881 0.45308 0.0
H619 H 0.42898 0.65071 0.43637 0.0
H620 H 0.45251 0.6201 0.48852 0.0
C621 C 0.4686 0.5667 0.41482 0.0
C622 C 0.11136 0.50283 0.89559 0.0
C623 C 0.09881 0.46596 0.89365 0.0
H624 H 0.10728 0.55163 0.92365 0.0
C625 C 0.07255 0.45028 0.92228 0.0
H626 H 0.13123 0.51615 0.87419 0.0
C627 C 0.05945 0.47081 0.95165 0.0
C628 C 0.07146 0.50779 0.95277 0.0
H629 H 0.06218 0.42203 0.92206 0.0
H630 H 0.03887 0.45785 0.9726 0.0
C631 C 0.09758 0.5233 0.92416 0.0
C632 C 0.59694 0.94388 0.94782 0.0
C633 C 0.57316 0.9104 0.94515 0.0
H634 H 0.60386 0.99678 0.96882 0.0
C635 C 0.53622 0.90547 0.96065 0.0
H636 H 0.62571 0.94843 0.93652 0.0
C637 C 0.52359 0.93336 0.97903 0.0
C638 C 0.54782 0.96656 0.98258 0.0
H639 H 0.51719 0.88005 0.95869 0.0
H640 H 0.49529 0.92855 0.99155 0.0
C641 C 0.58444 0.97161 0.96637 0.0
C642 C 0.93234 0.13028 0.4355 0.0
C643 C 0.95871 0.16233 0.43703 0.0
H644 H 0.91807 0.07643 0.45267 0.0
C645 C 0.99378 0.16331 0.45391 0.0
H646 H 0.9054 0.12872 0.42192 0.0
C647 C 1.00108 0.13325 0.47162 0.0
C648 C 0.97344 0.1019 0.47239 0.0
H649 H 1.01461 0.18771 0.45522 0.0
H650 H 0.02747 0.13506 0.48631 0.0
C651 C 0.93967 0.10034 0.45289 0.0
C652 C 0.17872 0.58073 0.13808 0.0
C653 C 0.19526 0.61666 0.13286 0.0
H654 H 0.13378 0.53711 0.12419 0.0
C655 C 0.17701 0.63597 0.10803 0.0
H656 H 0.19184 0.56472 0.15657 0.0
C657 C 0.14328 0.62017 0.08967 0.0
C658 C 0.12682 0.58423 0.09482 0.0
H659 H 0.18842 0.66369 0.10333 0.0
H660 H 0.13008 0.63624 0.07135 0.0
C661 C 0.14537 0.56476 0.11917 0.0
C662 C 0.35029 0.44592 0.58923 0.0
C663 C 0.34476 0.45777 0.6268 0.0
H664 H 0.38618 0.4498 0.53898 0.0
C665 C 0.37331 0.48444 0.64202 0.0
H666 H 0.32895 0.42572 0.57634 0.0
C667 C 0.40684 0.49793 0.62067 0.0
C668 C 0.41232 0.48575 0.58317 0.0
H669 H 0.37017 0.4942 0.67085 0.0
H670 H 0.42851 0.51782 0.63354 0.0
C671 C 0.38321 0.45992 0.56769 0.0
C672 C 0.79916 0.67077 0.96832 0.0
C673 C 0.799 0.70696 0.96636 0.0
H674 H 0.83075 0.63126 0.98005 0.0
C675 C 0.83087 0.73124 0.97898 0.0
H676 H 0.7749 0.65129 0.95945 0.0
C677 C 0.86268 0.7197 0.99157 0.0
C678 C 0.86359 0.68361 0.99161 0.0
H679 H 0.832 0.75932 0.97763 0.0
H680 H 0.88693 0.7392 1.00045 0.0
C681 C 0.83108 0.65924 0.98066 0.0
C682 C 0.44696 0.91016 0.16418 0.0
C683 C 0.45768 0.87831 0.15286 0.0
H684 H 0.45472 0.96655 0.15642 0.0
C685 C 0.4859 0.88053 0.12383 0.0
H686 H 0.42522 0.90981 0.18615 0.0
C687 C 0.50306 0.91302 0.10725 0.0
C688 C 0.49237 0.94479 0.11831 0.0
H689 H 0.49537 0.85703 0.11425 0.0
H690 H 0.52499 0.91323 0.08546 0.0
C691 C 0.46369 0.9428 0.14687 0.0
C692 C 0.04926 0.18036 0.65687 0.0
C693 C 0.08408 0.20219 0.64569 0.0
H694 H 1.00827 0.13232 0.64722 0.0
C695 C 0.10362 0.19069 0.61405 0.0
H696 H 0.03322 0.18777 0.68109 0.0
C697 C 0.08932 0.15882 0.59467 0.0
C698 C 0.05478 0.13682 0.60599 0.0
H699 H 0.13004 0.20661 0.60368 0.0
H700 H 0.10556 0.1515 0.57054 0.0
C701 C 0.03497 0.14822 0.63748 0.0
C702 C 0.6958 0.3601 0.40542 0.0
C703 C 0.72451 0.35804 0.43118 0.0
H704 H 0.64262 0.37427 0.3966 0.0
C705 C 0.72084 0.36937 0.46921 0.0
H706 H 0.69816 0.35243 0.37568 0.0
C707 C 0.68876 0.38201 0.48127 0.0
C708 C 0.65983 0.38348 0.45549 0.0
H709 H 0.74241 0.36791 0.48975 0.0
H710 H 0.68634 0.39019 0.51083 0.0
C711 C 0.66389 0.37258 0.41742 0.0
loop_
_geom_bond_atom_site_label_1
_geom_bond_atom_site_label_2
_geom_bond_distance
_geom_bond_site_symmetry_2
_ccdc_geom_bond_type
C0 C1 1.386 . S
C0 C2 1.397 . S
C0 H24 0.931 . S
C1 C0 1.386 . S
C1 C5 1.397 . S
C2 C0 1.397 . S
C2 C3 1.384 . S
C2 H25 0.930 . S
C3 C2 1.384 . S
C3 C4 1.377 . S
C3 C6 1.481 . S
C4 C3 1.377 . S
C4 C5 1.389 . S
C4 H26 0.929 . S
C5 C1 1.397 . S
C5 C4 1.389 . S
C5 H27 0.931 . S
C6 C3 1.481 . S
C6 C7 1.387 . S
C6 C11 1.390 . S
C7 C6 1.387 . S
C7 C8 1.401 . S
C7 H28 0.930 . S
C8 C7 1.401 . S
C8 C9 1.376 . S
C8 C17 1.511 . S
C9 C8 1.376 . S
C9 C10 1.392 . S
C9 H30 0.931 . S
C10 C9 1.392 . S
C10 C11 1.361 . S
C10 C12 1.500 . S
C11 C6 1.390 . S
C11 C10 1.361 . S
C11 H29 0.931 . S
C12 C10 1.500 . S
C12 C13 1.371 . S
C12 C14 1.365 . S
C13 C12 1.371 . S
C13 C23 1.386 . S
C13 H31 0.931 . S
C14 C12 1.365 . S
C14 C15 1.409 . S
C14 H32 0.929 . S
C15 C14 1.409 . S
C15 C16 1.380 . S
C15 H33 0.930 . S
C16 C15 1.380 . S
C16 C23 1.357 . S
C17 C8 1.511 . S
C17 C18 1.341 . S
C17 C19 1.371 . S
C18 C17 1.341 . S
C18 C22 1.394 . S
C18 H34 0.930 . S
C19 C17 1.371 . S
C19 C20 1.392 . S
C19 H35 0.931 . S
C20 C19 1.392 . S
C20 C21 1.331 . S
C20 H38 0.932 . S
C21 C20 1.331 . S
C21 C22 1.336 . S
C22 C18 1.394 . S
C22 C21 1.336 . S
C22 H37 0.929 . S
C23 C13 1.386 . S
C23 C16 1.357 . S
C23 H36 0.928 . S
H24 C0 0.931 . S
H25 C2 0.930 . S
H26 C4 0.929 . S
H27 C5 0.931 . S
H28 C7 0.930 . S
H29 C11 0.931 . S
H30 C9 0.931 . S
H31 C13 0.931 . S
H32 C14 0.929 . S
H33 C15 0.930 . S
H34 C18 0.930 . S
H35 C19 0.931 . S
H36 C23 0.928 . S
H37 C22 0.929 . S
H38 C20 0.932 . S
C39 C40 1.386 . S
C39 C41 1.397 . S
C39 H63 0.931 . S
C40 C39 1.386 . S
C40 C44 1.397 . S
C41 C39 1.397 . S
C41 C42 1.384 . S
C41 H64 0.930 . S
C42 C41 1.384 . S
C42 C43 1.377 . S
C42 C45 1.481 . S
C43 C42 1.377 . S
C43 C44 1.389 . S
C43 H65 0.929 . S
C44 C40 1.397 . S
C44 C43 1.389 . S
C44 H66 0.931 . S
C45 C42 1.481 . S
C45 C46 1.387 . S
C45 C50 1.390 . S
C46 C45 1.387 . S
C46 C47 1.401 . S
C46 H67 0.930 . S
C47 C46 1.401 . S
C47 C48 1.376 . S
C47 C56 1.511 . S
C48 C47 1.376 . S
C48 C49 1.392 . S
C48 H69 0.931 . S
C49 C48 1.392 . S
C49 C50 1.361 . S
C49 C51 1.500 . S
C50 C45 1.390 . S
C50 C49 1.361 . S
C50 H68 0.931 . S
C51 C49 1.500 . S
C51 C52 1.371 . S
C51 C53 1.365 . S
C52 C51 1.371 . S
C52 C62 1.386 . S
C52 H70 0.931 . S
C53 C51 1.365 . S
C53 C54 1.409 . S
C53 H71 0.929 . S
C54 C53 1.409 . S
C54 C55 1.380 . S
C54 H72 0.930 . S
C55 C54 1.380 . S
C55 C62 1.357 . S
C56 C47 1.511 . S
C56 C57 1.341 . S
C56 C58 1.371 . S
C57 C56 1.341 . S
C57 C61 1.394 . S
C57 H73 0.930 . S
C58 C56 1.371 . S
C58 C59 1.392 . S
C58 H74 0.931 . S
C59 C58 1.392 . S
C59 C60 1.331 . S
C59 H77 0.932 . S
C60 C59 1.331 . S
C60 C61 1.336 . S
C61 C57 1.394 . S
C61 C60 1.336 . S
C61 H76 0.929 . S
C62 C52 1.386 . S
C62 C55 1.357 . S
C62 H75 0.928 . S
H63 C39 0.931 . S
H64 C41 0.930 . S
H65 C43 0.929 . S
H66 C44 0.931 . S
H67 C46 0.930 . S
H68 C50 0.931 . S
H69 C48 0.931 . S
H70 C52 0.931 . S
H71 C53 0.929 . S
H72 C54 0.930 . S
H73 C57 0.930 . S
H74 C58 0.931 . S
H75 C62 0.928 . S
H76 C61 0.929 . S
H77 C59 0.932 . S
C78 C79 1.386 . S
C78 C80 1.397 . S
C78 H102 0.931 . S
C79 C78 1.386 . S
C79 C83 1.397 . S
C80 C78 1.397 . S
C80 C81 1.384 . S
C80 H103 0.930 . S
C81 C80 1.384 . S
C81 C82 1.377 . S
C81 C84 1.481 . S
C82 C81 1.377 . S
C82 C83 1.389 . S
C82 H104 0.929 . S
C83 C79 1.397 . S
C83 C82 1.389 . S
C83 H105 0.931 . S
C84 C81 1.481 . S
C84 C85 1.387 . S
C84 C89 1.390 . S
C85 C84 1.387 . S
C85 C86 1.401 . S
C85 H106 0.930 . S
C86 C85 1.401 . S
C86 C87 1.376 . S
C86 C95 1.511 . S
C87 C86 1.376 . S
C87 C88 1.392 . S
C87 H108 0.931 . S
C88 C87 1.392 . S
C88 C89 1.361 . S
C88 C90 1.500 . S
C89 C84 1.390 . S
C89 C88 1.361 . S
C89 H107 0.931 . S
C90 C88 1.500 . S
C90 C91 1.371 . S
C90 C92 1.365 . S
C91 C90 1.371 . S
C91 C101 1.386 . S
C91 H109 0.931 . S
C92 C90 1.365 . S
C92 C93 1.409 . S
C92 H110 0.929 . S
C93 C92 1.409 . S
C93 C94 1.380 . S
C93 H111 0.930 . S
C94 C93 1.380 . S
C94 C101 1.357 . S
C95 C86 1.511 . S
C95 C96 1.341 . S
C95 C97 1.371 . S
C96 C95 1.341 . S
C96 C100 1.394 . S
C96 H112 0.930 . S
C97 C95 1.371 . S
C97 C98 1.392 . S
C97 H113 0.931 . S
C98 C97 1.392 . S
C98 C99 1.331 . S
C98 H116 0.932 . S
C99 C98 1.331 . S
C99 C100 1.336 . S
C100 C96 1.394 . S
C100 C99 1.336 . S
C100 H115 0.929 . S
C101 C91 1.386 . S
C101 C94 1.357 . S
C101 H114 0.928 . S
H102 C78 0.931 . S
H103 C80 0.930 . S
H104 C82 0.929 . S
H105 C83 0.931 . S
H106 C85 0.930 . S
H107 C89 0.931 . S
H108 C87 0.931 . S
H109 C91 0.931 . S
H110 C92 0.929 . S
H111 C93 0.930 . S
H112 C96 0.930 . S
H113 C97 0.931 . S
H114 C101 0.928 . S
H115 C100 0.929 . S
H116 C98 0.932 . S
C117 C118 1.386 . S
C117 C119 1.397 . S
C117 H141 0.931 . S
C118 C117 1.386 . S
C118 C122 1.397 . S
C119 C117 1.397 . S
C119 C120 1.384 . S
C119 H142 0.930 . S
C120 C119 1.384 . S
C120 C121 1.377 . S
C120 C123 1.481 . S
C121 C120 1.377 . S
C121 C122 1.389 . S
C121 H143 0.929 . S
C122 C118 1.397 . S
C122 C121 1.389 . S
C122 H144 0.931 . S
C123 C120 1.481 . S
C123 C124 1.387 . S
C123 C128 1.390 . S
C124 C123 1.387 . S
C124 C125 1.401 . S
C124 H145 0.930 . S
C125 C124 1.401 . S
C125 C126 1.376 . S
C125 C134 1.511 . S
C126 C125 1.376 . S
C126 C127 1.392 . S
C126 H147 0.931 . S
C127 C126 1.392 . S
C127 C128 1.361 . S
C127 C129 1.500 . S
C128 C123 1.390 . S
C128 C127 1.361 . S
C128 H146 0.931 . S
C129 C127 1.500 . S
C129 C130 1.371 . S
C129 C131 1.365 . S
C130 C129 1.371 . S
C130 C140 1.386 . S
C130 H148 0.931 . S
C131 C129 1.365 . S
C131 C132 1.409 . S
C131 H149 0.929 . S
C132 C131 1.409 . S
C132 C133 1.380 . S
C132 H150 0.930 . S
C133 C132 1.380 . S
C133 C140 1.357 . S
C134 C125 1.511 . S
C134 C135 1.341 . S
C134 C136 1.371 . S
C135 C134 1.341 . S
C135 C139 1.394 . S
C135 H151 0.930 . S
C136 C134 1.371 . S
C136 C137 1.392 . S
C136 H152 0.931 . S
C137 C136 1.392 . S
C137 C138 1.331 . S
C137 H155 0.932 . S
C138 C137 1.331 . S
C138 C139 1.336 . S
C139 C135 1.394 . S
C139 C138 1.336 . S
C139 H154 0.929 . S
C140 C130 1.386 . S
C140 C133 1.357 . S
C140 H153 0.928 . S
H141 C117 0.931 . S
H142 C119 0.930 . S
H143 C121 0.929 . S
H144 C122 0.931 . S
H145 C124 0.930 . S
H146 C128 0.931 . S
H147 C126 0.931 . S
H148 C130 0.931 . S
H149 C131 0.929 . S
H150 C132 0.930 . S
H151 C135 0.930 . S
H152 C136 0.931 . S
H153 C140 0.928 . S
H154 C139 0.929 . S
H155 C137 0.932 . S
C156 C157 1.386 . S
C156 C158 1.397 . S
C156 H180 0.931 . S
C157 C156 1.386 . S
C157 C161 1.397 . S
C158 C156 1.397 . S
C158 C159 1.384 . S
C158 H181 0.930 . S
C159 C158 1.384 . S
C159 C160 1.377 . S
C159 C162 1.481 . S
C160 C159 1.377 . S
C160 C161 1.389 . S
C160 H182 0.929 . S
C161 C157 1.397 . S
C161 C160 1.389 . S
C161 H183 0.931 . S
C162 C159 1.481 . S
C162 C163 1.387 . S
C162 C167 1.390 . S
C163 C162 1.387 . S
C163 C164 1.401 . S
C163 H184 0.930 . S
C164 C163 1.401 . S
C164 C165 1.376 . S
C164 C173 1.511 . S
C165 C164 1.376 . S
C165 C166 1.392 . S
C165 H186 0.931 . S
C166 C165 1.392 . S
C166 C167 1.361 . S
C166 C168 1.500 . S
C167 C162 1.390 . S
C167 C166 1.361 . S
C167 H185 0.931 . S
C168 C166 1.500 . S
C168 C169 1.371 . S
C168 C170 1.365 . S
C169 C168 1.371 . S
C169 C179 1.386 . S
C169 H187 0.931 . S
C170 C168 1.365 . S
C170 C171 1.409 . S
C170 H188 0.929 . S
C171 C170 1.409 . S
C171 C172 1.380 . S
C171 H189 0.930 . S
C172 C171 1.380 . S
C172 C179 1.357 . S
C173 C164 1.511 . S
C173 C174 1.341 . S
C173 C175 1.371 . S
C174 C173 1.341 . S
C174 C178 1.394 . S
C174 H190 0.930 . S
C175 C173 1.371 . S
C175 C176 1.392 . S
C175 H191 0.931 . S
C176 C175 1.392 . S
C176 C177 1.331 . S
C176 H194 0.932 . S
C177 C176 1.331 . S
C177 C178 1.336 . S
C178 C174 1.394 . S
C178 C177 1.336 . S
C178 H193 0.929 . S
C179 C169 1.386 . S
C179 C172 1.357 . S
C179 H192 0.928 . S
H180 C156 0.931 . S
H181 C158 0.930 . S
H182 C160 0.929 . S
H183 C161 0.931 . S
H184 C163 0.930 . S
H185 C167 0.931 . S
H186 C165 0.931 . S
H187 C169 0.931 . S
H188 C170 0.929 . S
H189 C171 0.930 . S
H190 C174 0.930 . S
H191 C175 0.931 . S
H192 C179 0.928 . S
H193 C178 0.929 . S
H194 C176 0.932 . S
C195 C196 1.386 . S
C195 C197 1.397 . S
C195 H219 0.931 . S
C196 C195 1.386 . S
C196 C200 1.397 . S
C197 C195 1.397 . S
C197 C198 1.384 . S
C197 H220 0.930 . S
C198 C197 1.384 . S
C198 C199 1.377 . S
C198 C201 1.481 . S
C199 C198 1.377 . S
C199 C200 1.389 . S
C199 H221 0.929 . S
C200 C196 1.397 . S
C200 C199 1.389 . S
C200 H222 0.931 . S
C201 C198 1.481 . S
C201 C202 1.387 . S
C201 C206 1.390 . S
C202 C201 1.387 . S
C202 C203 1.401 . S
C202 H223 0.930 . S
C203 C202 1.401 . S
C203 C204 1.376 . S
C203 C212 1.511 . S
C204 C203 1.376 . S
C204 C205 1.392 . S
C204 H225 0.931 . S
C205 C204 1.392 . S
C205 C206 1.361 . S
C205 C207 1.500 . S
C206 C201 1.390 . S
C206 C205 1.361 . S
C206 H224 0.931 . S
C207 C205 1.500 . S
C207 C208 1.371 . S
C207 C209 1.365 . S
C208 C207 1.371 . S
C208 C218 1.386 . S
C208 H226 0.931 . S
C209 C207 1.365 . S
C209 C210 1.409 . S
C209 H227 0.929 . S
C210 C209 1.409 . S
C210 C211 1.380 . S
C210 H228 0.930 . S
C211 C210 1.380 . S
C211 C218 1.357 . S
C212 C203 1.511 . S
C212 C213 1.341 . S
C212 C214 1.371 . S
C213 C212 1.341 . S
C213 C217 1.394 . S
C213 H229 0.930 . S
C214 C212 1.371 . S
C214 C215 1.392 . S
C214 H230 0.931 . S
C215 C214 1.392 . S
C215 C216 1.331 . S
C215 H233 0.932 . S
C216 C215 1.331 . S
C216 C217 1.336 . S
C217 C213 1.394 . S
C217 C216 1.336 . S
C217 H232 0.929 . S
C218 C208 1.386 . S
C218 C211 1.357 . S
C218 H231 0.928 . S
H219 C195 0.931 . S
H220 C197 0.930 . S
H221 C199 0.929 . S
H222 C200 0.931 . S
H223 C202 0.930 . S
H224 C206 0.931 . S
H225 C204 0.931 . S
H226 C208 0.931 . S
H227 C209 0.929 . S
H228 C210 0.930 . S
H229 C213 0.930 . S
H230 C214 0.931 . S
H231 C218 0.928 . S
H232 C217 0.929 . S
H233 C215 0.932 . S
C234 C235 1.386 . S
C234 C236 1.397 . S
C234 H258 0.931 . S
C235 C234 1.386 . S
C235 C239 1.397 . S
C236 C234 1.397 . S
C236 C237 1.384 . S
C236 H259 0.930 . S
C237 C236 1.384 . S
C237 C238 1.377 . S
C237 C240 1.481 . S
C238 C237 1.377 . S
C238 C239 1.389 . S
C238 H260 0.929 . S
C239 C235 1.397 . S
C239 C238 1.389 . S
C239 H261 0.931 . S
C240 C237 1.481 . S
C240 C241 1.387 . S
C240 C245 1.390 . S
C241 C240 1.387 . S
C241 C242 1.401 . S
C241 H262 0.930 . S
C242 C241 1.401 . S
C242 C243 1.376 . S
C242 C251 1.511 . S
C243 C242 1.376 . S
C243 C244 1.392 . S
C243 H264 0.931 . S
C244 C243 1.392 . S
C244 C245 1.361 . S
C244 C246 1.500 . S
C245 C240 1.390 . S
C245 C244 1.361 . S
C245 H263 0.931 . S
C246 C244 1.500 . S
C246 C247 1.371 . S
C246 C248 1.365 . S
C247 C246 1.371 . S
C247 C257 1.386 . S
C247 H265 0.931 . S
C248 C246 1.365 . S
C248 C249 1.409 . S
C248 H266 0.929 . S
C249 C248 1.409 . S
C249 C250 1.380 . S
C249 H267 0.930 . S
C250 C249 1.380 . S
C250 C257 1.357 . S
C251 C242 1.511 . S
C251 C252 1.341 . S
C251 C253 1.371 . S
C252 C251 1.341 . S
C252 C256 1.394 . S
C252 H268 0.930 . S
C253 C251 1.371 . S
C253 C254 1.392 . S
C253 H269 0.931 . S
C254 C253 1.392 . S
C254 C255 1.331 . S
C254 H272 0.932 . S
C255 C254 1.331 . S
C255 C256 1.336 . S
C256 C252 1.394 . S
C256 C255 1.336 . S
C256 H271 0.929 . S
C257 C247 1.386 . S
C257 C250 1.357 . S
C257 H270 0.928 . S
H258 C234 0.931 . S
H259 C236 0.930 . S
H260 C238 0.929 . S
H261 C239 0.931 . S
H262 C241 0.930 . S
H263 C245 0.931 . S
H264 C243 0.931 . S
H265 C247 0.931 . S
H266 C248 0.929 . S
H267 C249 0.930 . S
H268 C252 0.930 . S
H269 C253 0.931 . S
H270 C257 0.928 . S
H271 C256 0.929 . S
H272 C254 0.932 . S
C273 C274 1.386 . S
C273 C275 1.397 . S
C273 H297 0.931 . S
C274 C273 1.386 . S
C274 C278 1.397 . S
C275 C273 1.397 . S
C275 C276 1.384 . S
C275 H298 0.930 . S
C276 C275 1.384 . S
C276 C277 1.377 . S
C276 C279 1.481 . S
C277 C276 1.377 . S
C277 C278 1.389 . S
C277 H299 0.929 . S
C278 C274 1.397 . S
C278 C277 1.389 . S
C278 H300 0.931 . S
C279 C276 1.481 . S
C279 C280 1.387 . S
C279 C284 1.390 . S
C280 C279 1.387 . S
C280 C281 1.401 . S
C280 H301 0.930 . S
C281 C280 1.401 . S
C281 C282 1.376 . S
C281 C290 1.511 . S
C282 C281 1.376 . S
C282 C283 1.392 . S
C282 H303 0.931 . S
C283 C282 1.392 . S
C283 C284 1.361 . S
C283 C285 1.500 . S
C284 C279 1.390 . S
C284 C283 1.361 . S
C284 H302 0.931 . S
C285 C283 1.500 . S
C285 C286 1.371 . S
C285 C287 1.365 . S
C286 C285 1.371 . S
C286 C296 1.386 . S
C286 H304 0.931 . S
C287 C285 1.365 . S
C287 C288 1.409 . S
C287 H305 0.929 . S
C288 C287 1.409 . S
C288 C289 1.380 . S
C288 H306 0.930 . S
C289 C288 1.380 . S
C289 C296 1.357 . S
C290 C281 1.511 . S
C290 C291 1.341 . S
C290 C292 1.371 . S
C291 C290 1.341 . S
C291 C295 1.394 . S
C291 H307 0.930 . S
C292 C290 1.371 . S
C292 C293 1.392 . S
C292 H308 0.931 . S
C293 C292 1.392 . S
C293 C294 1.331 . S
C293 H311 0.932 . S
C294 C293 1.331 . S
C294 C295 1.336 . S
C295 C291 1.394 . S
C295 C294 1.336 . S
C295 H310 0.929 . S
C296 C286 1.386 . S
C296 C289 1.357 . S
C296 H309 0.928 . S
H297 C273 0.931 . S
H298 C275 0.930 . S
H299 C277 0.929 . S
H300 C278 0.931 . S
H301 C280 0.930 . S
H302 C284 0.931 . S
H303 C282 0.931 . S
H304 C286 0.931 . S
H305 C287 0.929 . S
H306 C288 0.930 . S
H307 C291 0.930 . S
H308 C292 0.931 . S
H309 C296 0.928 . S
H310 C295 0.929 . S
H311 C293 0.932 . S
Ho312 C315 2.811 . S
Ho312 O332 2.322 . S
Ho312 O334 2.378 . S
Ho312 O335 2.524 . S
Ho312 O336 2.381 1_545 S
Ho312 O337 2.669 1_545 S
Ho312 O339 2.346 1_445 S
Ho312 O343 2.305 1_455 S
Ho313 C324 2.811 . S
Ho313 O333 2.346 1_665 S
Ho313 O337 2.305 1_655 S
Ho313 O338 2.322 . S
Ho313 O340 2.378 . S
Ho313 O341 2.524 . S
Ho313 O342 2.381 1_565 S
Ho313 O343 2.669 1_565 S
C314 O332 1.259 . S
C314 O333 1.268 . S
C315 Ho312 2.811 . S
C315 C316 1.488 . S
C315 O334 1.215 . S
C315 O335 1.289 . S
C316 C315 1.488 . S
C316 C317 1.348 . S
C316 C321 1.413 . S
C317 C316 1.348 . S
C317 C318 1.442 . S
C317 H344 0.930 . S
C318 C317 1.442 . S
C318 C319 1.381 . S
C318 H345 0.931 . S
C319 C318 1.381 . S
C319 C320 1.321 . S
C320 C319 1.321 . S
C320 C321 1.403 . S
C320 H346 0.934 . S
C321 C316 1.413 . S
C321 C320 1.403 . S
C321 H347 0.930 . S
C322 O336 1.275 . S
C322 O337 1.256 . S
C323 O338 1.259 . S
C323 O339 1.268 . S
C324 Ho313 2.811 . S
C324 C325 1.488 . S
C324 O340 1.215 . S
C324 O341 1.289 . S
C325 C324 1.488 . S
C325 C326 1.348 . S
C325 C330 1.413 . S
C326 C325 1.348 . S
C326 C327 1.442 . S
C326 H348 0.930 . S
C327 C326 1.442 . S
C327 C328 1.381 . S
C327 H349 0.931 . S
C328 C327 1.381 . S
C328 C329 1.321 . S
C329 C328 1.321 . S
C329 C330 1.403 . S
C329 H350 0.934 . S
C330 C325 1.413 . S
C330 C329 1.403 . S
C330 H351 0.930 . S
C331 O342 1.275 . S
C331 O343 1.256 . S
O332 Ho312 2.322 . S
O332 C314 1.259 . S
O333 Ho313 2.346 1_445 S
O333 C314 1.268 . S
O334 Ho312 2.378 . S
O334 C315 1.215 . S
O335 Ho312 2.524 . S
O335 C315 1.289 . S
O336 Ho312 2.381 1_565 S
O336 C322 1.275 . S
O337 Ho312 2.669 1_565 S
O337 Ho313 2.305 1_455 S
O337 C322 1.256 . S
O338 Ho313 2.322 . S
O338 C323 1.259 . S
O339 Ho312 2.346 1_665 S
O339 C323 1.268 . S
O340 Ho313 2.378 . S
O340 C324 1.215 . S
O341 Ho313 2.524 . S
O341 C324 1.289 . S
O342 Ho313 2.381 1_545 S
O342 C331 1.275 . S
O343 Ho312 2.305 1_655 S
O343 Ho313 2.669 1_545 S
O343 C331 1.256 . S
H344 C317 0.930 . S
H345 C318 0.931 . S
H346 C320 0.934 . S
H347 C321 0.930 . S
H348 C326 0.930 . S
H349 C327 0.931 . S
H350 C329 0.934 . S
H351 C330 0.930 . S
Ho352 C355 2.798 1_565 S
Ho352 O372 2.307 1_565 S
Ho352 O374 2.376 1_565 S
Ho352 O375 2.501 1_565 S
Ho352 O376 2.401 . S
Ho352 O377 2.679 . S
Ho352 O379 2.362 1_554 S
Ho352 O383 2.285 1_564 S
Ho353 C364 2.811 1_545 S
Ho353 O373 2.346 1_556 S
Ho353 O377 2.305 1_546 S
Ho353 O378 2.322 1_545 S
Ho353 O380 2.378 1_545 S
Ho353 O381 2.524 1_545 S
Ho353 O382 2.381 . S
Ho353 O383 2.669 . S
C354 O372 1.259 . S
C354 O373 1.268 . S
C355 Ho352 2.798 1_545 S
C355 C356 1.488 . S
C355 O374 1.215 . S
C355 O375 1.289 . S
C356 C355 1.488 . S
C356 C357 1.348 . S
C356 C361 1.413 . S
C357 C356 1.348 . S
C357 C358 1.442 . S
C357 H384 0.930 . S
C358 C357 1.442 . S
C358 C359 1.381 . S
C358 H385 0.931 . S
C359 C358 1.381 . S
C359 C360 1.321 . S
C360 C359 1.321 . S
C360 C361 1.403 . S
C360 H386 0.934 . S
C361 C356 1.413 . S
C361 C360 1.403 . S
C361 H387 0.930 . S
C362 O376 1.275 . S
C362 O377 1.256 . S
C363 O378 1.259 . S
C363 O379 1.268 . S
C364 Ho353 2.811 1_565 S
C364 C365 1.488 . S
C364 O380 1.215 . S
C364 O381 1.289 . S
C365 C364 1.488 . S
C365 C366 1.348 . S
C365 C370 1.413 . S
C366 C365 1.348 . S
C366 C367 1.442 . S
C366 H388 0.930 . S
C367 C366 1.442 . S
C367 C368 1.381 . S
C367 H389 0.931 . S
C368 C367 1.381 . S
C368 C369 1.321 . S
C369 C368 1.321 . S
C369 C370 1.403 . S
C369 H390 0.934 . S
C370 C365 1.413 . S
C370 C369 1.403 . S
C370 H391 0.930 . S
C371 O382 1.275 . S
C371 O383 1.256 . S
O372 Ho352 2.307 1_545 S
O372 C354 1.259 . S
O373 Ho353 2.346 1_554 S
O373 C354 1.268 . S
O374 Ho352 2.376 1_545 S
O374 C355 1.215 . S
O375 Ho352 2.501 1_545 S
O375 C355 1.289 . S
O376 Ho352 2.401 . S
O376 C362 1.275 . S
O377 Ho352 2.679 . S
O377 Ho353 2.305 1_564 S
O377 C362 1.256 . S
O378 Ho353 2.322 1_565 S
O378 C363 1.259 . S
O379 Ho352 2.362 1_556 S
O379 C363 1.268 . S
O380 Ho353 2.378 1_565 S
O380 C364 1.215 . S
O381 Ho353 2.524 1_565 S
O381 C364 1.289 . S
O382 Ho353 2.381 . S
O382 C371 1.275 . S
O383 Ho352 2.285 1_546 S
O383 Ho353 2.669 . S
O383 C371 1.256 . S
H384 C357 0.930 . S
H385 C358 0.931 . S
H386 C360 0.934 . S
H387 C361 0.930 . S
H388 C366 0.930 . S
H389 C367 0.931 . S
H390 C369 0.934 . S
H391 C370 0.930 . S
Ho392 C395 2.811 . S
Ho392 O412 2.322 . S
Ho392 O414 2.378 . S
Ho392 O415 2.524 . S
Ho392 O416 2.381 . S
Ho392 O417 2.669 . S
Ho392 O419 2.346 . S
Ho392 O423 2.305 . S
Ho393 C404 2.811 . S
Ho393 O413 2.346 . S
Ho393 O417 2.305 . S
Ho393 O418 2.322 . S
Ho393 O420 2.378 . S
Ho393 O421 2.524 . S
Ho393 O422 2.381 . S
Ho393 O423 2.669 . S
C394 O412 1.259 . S
C394 O413 1.268 . S
C395 Ho392 2.811 . S
C395 C396 1.488 . S
C395 O414 1.215 . S
C395 O415 1.289 . S
C396 C395 1.488 . S
C396 C397 1.348 . S
C396 C401 1.413 . S
C397 C396 1.348 . S
C397 C398 1.442 . S
C397 H424 0.930 . S
C398 C397 1.442 . S
C398 C399 1.381 . S
C398 H425 0.931 . S
C399 C398 1.381 . S
C399 C400 1.321 . S
C400 C399 1.321 . S
C400 C401 1.403 . S
C400 H426 0.934 . S
C401 C396 1.413 . S
C401 C400 1.403 . S
C401 H427 0.930 . S
C402 O416 1.275 . S
C402 O417 1.256 . S
C403 O418 1.259 . S
C403 O419 1.268 . S
C404 Ho393 2.811 . S
C404 C405 1.488 . S
C404 O420 1.215 . S
C404 O421 1.289 . S
C405 C404 1.488 . S
C405 C406 1.348 . S
C405 C410 1.413 . S
C406 C405 1.348 . S
C406 C407 1.442 . S
C406 H428 0.930 . S
C407 C406 1.442 . S
C407 C408 1.381 . S
C407 H429 0.931 . S
C408 C407 1.381 . S
C408 C409 1.321 . S
C409 C408 1.321 . S
C409 C410 1.403 . S
C409 H430 0.934 . S
C410 C405 1.413 . S
C410 C409 1.403 . S
C410 H431 0.930 . S
C411 O422 1.275 . S
C411 O423 1.256 . S
O412 Ho392 2.322 . S
O412 C394 1.259 . S
O413 Ho393 2.346 . S
O413 C394 1.268 . S
O414 Ho392 2.378 . S
O414 C395 1.215 . S
O415 Ho392 2.524 . S
O415 C395 1.289 . S
O416 Ho392 2.381 . S
O416 C402 1.275 . S
O417 Ho392 2.669 . S
O417 Ho393 2.305 . S
O417 C402 1.256 . S
O418 Ho393 2.322 . S
O418 C403 1.259 . S
O419 Ho392 2.346 . S
O419 C403 1.268 . S
O420 Ho393 2.378 . S
O420 C404 1.215 . S
O421 Ho393 2.524 . S
O421 C404 1.289 . S
O422 Ho393 2.381 . S
O422 C411 1.275 . S
O423 Ho392 2.305 . S
O423 Ho393 2.669 . S
O423 C411 1.256 . S
H424 C397 0.930 . S
H425 C398 0.931 . S
H426 C400 0.934 . S
H427 C401 0.930 . S
H428 C406 0.930 . S
H429 C407 0.931 . S
H430 C409 0.934 . S
H431 C410 0.930 . S
Ho432 C435 2.811 . S
Ho432 O452 2.322 . S
Ho432 O454 2.378 . S
Ho432 O455 2.524 . S
Ho432 O456 2.381 1_455 S
Ho432 O457 2.669 1_455 S
Ho432 O459 2.346 1_454 S
Ho432 O463 2.305 1_554 S
Ho433 C444 2.811 . S
Ho433 O453 2.346 1_656 S
Ho433 O457 2.305 1_556 S
Ho433 O458 2.322 . S
Ho433 O460 2.378 . S
Ho433 O461 2.524 . S
Ho433 O462 2.381 1_655 S
Ho433 O463 2.669 1_655 S
C434 O452 1.259 . S
C434 O453 1.268 . S
C435 Ho432 2.811 . S
C435 C436 1.488 . S
C435 O454 1.215 . S
C435 O455 1.289 . S
C436 C435 1.488 . S
C436 C437 1.348 . S
C436 C441 1.413 . S
C437 C436 1.348 . S
C437 C438 1.442 . S
C437 H464 0.930 . S
C438 C437 1.442 . S
C438 C439 1.381 . S
C438 H465 0.931 . S
C439 C438 1.381 . S
C439 C440 1.321 . S
C440 C439 1.321 . S
C440 C441 1.403 . S
C440 H466 0.934 . S
C441 C436 1.413 . S
C441 C440 1.403 . S
C441 H467 0.930 . S
C442 O456 1.275 . S
C442 O457 1.256 . S
C443 O458 1.259 . S
C443 O459 1.268 . S
C444 Ho433 2.811 . S
C444 C445 1.488 . S
C444 O460 1.215 . S
C444 O461 1.289 . S
C445 C444 1.488 . S
C445 C446 1.348 . S
C445 C450 1.413 . S
C446 C445 1.348 . S
C446 C447 1.442 . S
C446 H468 0.930 . S
C447 C446 1.442 . S
C447 C448 1.381 . S
C447 H469 0.931 . S
C448 C447 1.381 . S
C448 C449 1.321 . S
C449 C448 1.321 . S
C449 C450 1.403 . S
C449 H470 0.934 . S
C450 C445 1.413 . S
C450 C449 1.403 . S
C450 H471 0.930 . S
C451 O462 1.275 . S
C451 O463 1.256 . S
O452 Ho432 2.322 . S
O452 C434 1.259 . S
O453 Ho433 2.346 1_454 S
O453 C434 1.268 . S
O454 Ho432 2.378 . S
O454 C435 1.215 . S
O455 Ho432 2.524 . S
O455 C435 1.289 . S
O456 Ho432 2.381 1_655 S
O456 C442 1.275 . S
O457 Ho432 2.669 1_655 S
O457 Ho433 2.305 1_554 S
O457 C442 1.256 . S
O458 Ho433 2.322 . S
O458 C443 1.259 . S
O459 Ho432 2.346 1_656 S
O459 C443 1.268 . S
O460 Ho433 2.378 . S
O460 C444 1.215 . S
O461 Ho433 2.524 . S
O461 C444 1.289 . S
O462 Ho433 2.381 1_455 S
O462 C451 1.275 . S
O463 Ho432 2.305 1_556 S
O463 Ho433 2.669 1_455 S
O463 C451 1.256 . S
H464 C437 0.930 . S
H465 C438 0.931 . S
H466 C440 0.934 . S
H467 C441 0.930 . S
H468 C446 0.930 . S
H469 C447 0.931 . S
H470 C449 0.934 . S
H471 C450 0.930 . S
C472 C473 1.387 . S
C472 H476 0.950 . S
C472 C481 1.390 . S
C473 C472 1.387 . S
C473 C475 1.387 . S
H474 C481 0.950 . S
C475 C473 1.387 . S
C475 C477 1.390 . S
C475 H479 0.950 . S
H476 C472 0.950 . S
C477 C475 1.390 . S
C477 C478 1.387 . S
C477 H480 0.950 . S
C478 C477 1.387 . S
C478 C481 1.387 . S
H479 C475 0.950 . S
H480 C477 0.950 . S
C481 C472 1.390 . S
C481 H474 0.950 . S
C481 C478 1.387 . S
C482 C483 1.387 . S
C482 H486 0.950 . S
C482 C491 1.390 . S
C483 C482 1.387 . S
C483 C485 1.387 . S
H484 C491 0.950 . S
C485 C483 1.387 . S
C485 C487 1.390 . S
C485 H489 0.950 . S
H486 C482 0.950 . S
C487 C485 1.390 . S
C487 C488 1.387 . S
C487 H490 0.950 . S
C488 C487 1.387 . S
C488 C491 1.387 . S
H489 C485 0.950 . S
H490 C487 0.950 . S
C491 C482 1.390 . S
C491 H484 0.950 . S
C491 C488 1.387 . S
C492 C493 1.387 . S
C492 H496 0.950 . S
C492 C501 1.390 . S
C493 C492 1.387 . S
C493 C495 1.387 . S
H494 C501 0.950 . S
C495 C493 1.387 . S
C495 C497 1.390 . S
C495 H499 0.950 . S
H496 C492 0.950 . S
C497 C495 1.390 . S
C497 C498 1.387 . S
C497 H500 0.950 . S
C498 C497 1.387 . S
C498 C501 1.387 . S
H499 C495 0.950 . S
H500 C497 0.950 . S
C501 C492 1.390 . S
C501 H494 0.950 . S
C501 C498 1.387 . S
C502 C503 1.387 . S
C502 H506 0.950 . S
C502 C511 1.390 . S
C503 C502 1.387 . S
C503 C505 1.387 . S
H504 C511 0.950 . S
C505 C503 1.387 . S
C505 C507 1.390 . S
C505 H509 0.950 . S
H506 C502 0.950 . S
C507 C505 1.390 . S
C507 C508 1.387 . S
C507 H510 0.950 . S
C508 C507 1.387 . S
C508 C511 1.387 . S
H509 C505 0.950 . S
H510 C507 0.950 . S
C511 C502 1.390 . S
C511 H504 0.950 . S
C511 C508 1.387 . S
C512 C513 1.387 . S
C512 H516 0.950 . S
C512 C521 1.390 . S
C513 C512 1.387 . S
C513 C515 1.387 . S
H514 C521 0.950 . S
C515 C513 1.387 . S
C515 C517 1.390 . S
C515 H519 0.950 . S
H516 C512 0.950 . S
C517 C515 1.390 . S
C517 C518 1.387 . S
C517 H520 0.950 . S
C518 C517 1.387 . S
C518 C521 1.387 . S
H519 C515 0.950 . S
H520 C517 0.950 . S
C521 C512 1.390 . S
C521 H514 0.950 . S
C521 C518 1.387 . S
C522 C523 1.387 . S
C522 H526 0.950 . S
C522 C531 1.390 . S
C523 C522 1.387 . S
C523 C525 1.387 . S
H524 C531 0.950 . S
C525 C523 1.387 . S
C525 C527 1.390 . S
C525 H529 0.950 . S
H526 C522 0.950 . S
C527 C525 1.390 . S
C527 C528 1.387 . S
C527 H530 0.950 . S
C528 C527 1.387 . S
C528 C531 1.387 . S
H529 C525 0.950 . S
H530 C527 0.950 . S
C531 C522 1.390 . S
C531 H524 0.950 . S
C531 C528 1.387 . S
C532 C533 1.387 . S
C532 H536 0.950 . S
C532 C541 1.390 . S
C533 C532 1.387 . S
C533 C535 1.387 . S
H534 C541 0.950 . S
C535 C533 1.387 . S
C535 C537 1.390 . S
C535 H539 0.950 . S
H536 C532 0.950 . S
C537 C535 1.390 . S
C537 C538 1.387 . S
C537 H540 0.950 . S
C538 C537 1.387 . S
C538 C541 1.387 . S
H539 C535 0.950 . S
H540 C537 0.950 . S
C541 C532 1.390 . S
C541 H534 0.950 . S
C541 C538 1.387 . S
C542 C543 1.387 . S
C542 H546 0.950 . S
C542 C551 1.390 . S
C543 C542 1.387 . S
C543 C545 1.387 . S
H544 C551 0.950 . S
C545 C543 1.387 . S
C545 C547 1.390 . S
C545 H549 0.950 . S
H546 C542 0.950 . S
C547 C545 1.390 . S
C547 C548 1.387 . S
C547 H550 0.950 . S
C548 C547 1.387 . S
C548 C551 1.387 . S
H549 C545 0.950 . S
H550 C547 0.950 . S
C551 C542 1.390 . S
C551 H544 0.950 . S
C551 C548 1.387 . S
C552 C553 1.387 . S
C552 H556 0.950 . S
C552 C561 1.390 . S
C553 C552 1.387 . S
C553 C555 1.387 . S
H554 C561 0.950 . S
C555 C553 1.387 . S
C555 C557 1.390 . S
C555 H559 0.950 . S
H556 C552 0.950 . S
C557 C555 1.390 . S
C557 C558 1.387 . S
C557 H560 0.950 . S
C558 C557 1.387 . S
C558 C561 1.387 . S
H559 C555 0.950 . S
H560 C557 0.950 . S
C561 C552 1.390 . S
C561 H554 0.950 . S
C561 C558 1.387 . S
C562 C563 1.387 . S
C562 H566 0.950 . S
C562 C571 1.390 . S
C563 C562 1.387 . S
C563 C565 1.387 . S
H564 C571 0.950 . S
C565 C563 1.387 . S
C565 C567 1.390 . S
C565 H569 0.950 . S
H566 C562 0.950 . S
C567 C565 1.390 . S
C567 C568 1.387 . S
C567 H570 0.950 . S
C568 C567 1.387 . S
C568 C571 1.387 . S
H569 C565 0.950 . S
H570 C567 0.950 . S
C571 C562 1.390 . S
C571 H564 0.950 . S
C571 C568 1.387 . S
C572 C573 1.387 . S
C572 H576 0.950 . S
C572 C581 1.390 . S
C573 C572 1.387 . S
C573 C575 1.387 . S
H574 C581 0.950 . S
C575 C573 1.387 . S
C575 C577 1.390 . S
C575 H579 0.950 . S
H576 C572 0.950 . S
C577 C575 1.390 . S
C577 C578 1.387 . S
C577 H580 0.950 . S
C578 C577 1.387 . S
C578 C581 1.387 . S
H579 C575 0.950 . S
H580 C577 0.950 . S
C581 C572 1.390 . S
C581 H574 0.950 . S
C581 C578 1.387 . S
C582 C583 1.387 . S
C582 H586 0.950 . S
C582 C591 1.390 . S
C583 C582 1.387 . S
C583 C585 1.387 . S
H584 C591 0.950 . S
C585 C583 1.387 . S
C585 C587 1.390 . S
C585 H589 0.950 . S
H586 C582 0.950 . S
C587 C585 1.390 . S
C587 C588 1.387 . S
C587 H590 0.950 . S
C588 C587 1.387 . S
C588 C591 1.387 . S
H589 C585 0.950 . S
H590 C587 0.950 . S
C591 C582 1.390 . S
C591 H584 0.950 . S
C591 C588 1.387 . S
C592 C593 1.387 . S
C592 H596 0.950 . S
C592 C601 1.390 . S
C593 C592 1.387 . S
C593 C595 1.387 . S
H594 C601 0.950 . S
C595 C593 1.387 . S
C595 C597 1.390 . S
C595 H599 0.950 . S
H596 C592 0.950 . S
C597 C595 1.390 . S
C597 C598 1.387 . S
C597 H600 0.950 . S
C598 C597 1.387 . S
C598 C601 1.387 . S
H599 C595 0.950 . S
H600 C597 0.950 . S
C601 C592 1.390 . S
C601 H594 0.950 . S
C601 C598 1.387 . S
C602 C603 1.387 . S
C602 H606 0.950 . S
C602 C611 1.390 . S
C603 C602 1.387 . S
C603 C605 1.387 . S
H604 C611 0.950 . S
C605 C603 1.387 . S
C605 C607 1.390 . S
C605 H609 0.950 . S
H606 C602 0.950 . S
C607 C605 1.390 . S
C607 C608 1.387 . S
C607 H610 0.950 . S
C608 C607 1.387 . S
C608 C611 1.387 . S
H609 C605 0.950 . S
H610 C607 0.950 . S
C611 C602 1.390 . S
C611 H604 0.950 . S
C611 C608 1.387 . S
C612 C613 1.387 . S
C612 H616 0.950 . S
C612 C621 1.390 . S
C613 C612 1.387 . S
C613 C615 1.387 . S
H614 C621 0.950 . S
C615 C613 1.387 . S
C615 C617 1.390 . S
C615 H619 0.950 . S
H616 C612 0.950 . S
C617 C615 1.390 . S
C617 C618 1.387 . S
C617 H620 0.950 . S
C618 C617 1.387 . S
C618 C621 1.387 . S
H619 C615 0.950 . S
H620 C617 0.950 . S
C621 C612 1.390 . S
C621 H614 0.950 . S
C621 C618 1.387 . S
C622 C623 1.387 . S
C622 H626 0.950 . S
C622 C631 1.390 . S
C623 C622 1.387 . S
C623 C625 1.387 . S
H624 C631 0.950 . S
C625 C623 1.387 . S
C625 C627 1.390 . S
C625 H629 0.950 . S
H626 C622 0.950 . S
C627 C625 1.390 . S
C627 C628 1.387 . S
C627 H630 0.950 . S
C628 C627 1.387 . S
C628 C631 1.387 . S
H629 C625 0.950 . S
H630 C627 0.950 . S
C631 C622 1.390 . S
C631 H624 0.950 . S
C631 C628 1.387 . S
C632 C633 1.387 . S
C632 H636 0.950 . S
C632 C641 1.390 . S
C633 C632 1.387 . S
C633 C635 1.387 . S
H634 C641 0.950 . S
C635 C633 1.387 . S
C635 C637 1.390 . S
C635 H639 0.950 . S
H636 C632 0.950 . S
C637 C635 1.390 . S
C637 C638 1.387 . S
C637 H640 0.950 . S
C638 C637 1.387 . S
C638 C641 1.387 . S
H639 C635 0.950 . S
H640 C637 0.950 . S
C641 C632 1.390 . S
C641 H634 0.950 . S
C641 C638 1.387 . S
C642 C643 1.387 . S
C642 H646 0.950 . S
C642 C651 1.390 . S
C643 C642 1.387 . S
C643 C645 1.387 . S
H644 C651 0.950 . S
C645 C643 1.387 . S
C645 C647 1.390 . S
C645 H649 0.950 . S
H646 C642 0.950 . S
C647 C645 1.390 . S
C647 C648 1.387 . S
C647 H650 0.950 . S
C648 C647 1.387 . S
C648 C651 1.387 . S
H649 C645 0.950 . S
H650 C647 0.950 . S
C651 C642 1.390 . S
C651 H644 0.950 . S
C651 C648 1.387 . S
C652 C653 1.387 . S
C652 H656 0.950 . S
C652 C661 1.390 . S
C653 C652 1.387 . S
C653 C655 1.387 . S
H654 C661 0.950 . S
C655 C653 1.387 . S
C655 C657 1.390 . S
C655 H659 0.950 . S
H656 C652 0.950 . S
C657 C655 1.390 . S
C657 C658 1.387 . S
C657 H660 0.950 . S
C658 C657 1.387 . S
C658 C661 1.387 . S
H659 C655 0.950 . S
H660 C657 0.950 . S
C661 C652 1.390 . S
C661 H654 0.950 . S
C661 C658 1.387 . S
C662 C663 1.387 . S
C662 H666 0.950 . S
C662 C671 1.390 . S
C663 C662 1.387 . S
C663 C665 1.387 . S
H664 C671 0.950 . S
C665 C663 1.387 . S
C665 C667 1.390 . S
C665 H669 0.950 . S
H666 C662 0.950 . S
C667 C665 1.390 . S
C667 C668 1.387 . S
C667 H670 0.950 . S
C668 C667 1.387 . S
C668 C671 1.387 . S
H669 C665 0.950 . S
H670 C667 0.950 . S
C671 C662 1.390 . S
C671 H664 0.950 . S
C671 C668 1.387 . S
C672 C673 1.387 . S
C672 H676 0.950 . S
C672 C681 1.390 . S
C673 C672 1.387 . S
C673 C675 1.387 . S
H674 C681 0.950 . S
C675 C673 1.387 . S
C675 C677 1.390 . S
C675 H679 0.950 . S
H676 C672 0.950 . S
C677 C675 1.390 . S
C677 C678 1.387 . S
C677 H680 0.950 . S
C678 C677 1.387 . S
C678 C681 1.387 . S
H679 C675 0.950 . S
H680 C677 0.950 . S
C681 C672 1.390 . S
C681 H674 0.950 . S
C681 C678 1.387 . S
C682 C683 1.387 . S
C682 H686 0.950 . S
C682 C691 1.390 . S
C683 C682 1.387 . S
C683 C685 1.387 . S
H684 C691 0.950 . S
C685 C683 1.387 . S
C685 C687 1.390 . S
C685 H689 0.950 . S
H686 C682 0.950 . S
C687 C685 1.390 . S
C687 C688 1.387 . S
C687 H690 0.950 . S
C688 C687 1.387 . S
C688 C691 1.387 . S
H689 C685 0.950 . S
H690 C687 0.950 . S
C691 C682 1.390 . S
C691 H684 0.950 . S
C691 C688 1.387 . S
C692 C693 1.387 . S
C692 H696 0.950 . S
C692 C701 1.390 . S
C693 C692 1.387 . S
C693 C695 1.387 . S
H694 C701 0.950 . S
C695 C693 1.387 . S
C695 C697 1.390 . S
C695 H699 0.950 . S
H696 C692 0.950 . S
C697 C695 1.390 . S
C697 C698 1.387 . S
C697 H700 0.950 . S
C698 C697 1.387 . S
C698 C701 1.387 . S
H699 C695 0.950 . S
H700 C697 0.950 . S
C701 C692 1.390 . S
C701 H694 0.950 . S
C701 C698 1.387 . S
C702 C703 1.387 . S
C702 H706 0.950 . S
C702 C711 1.390 . S
C703 C702 1.387 . S
C703 C705 1.387 . S
H704 C711 0.950 . S
C705 C703 1.387 . S
C705 C707 1.390 . S
C705 H709 0.950 . S
H706 C702 0.950 . S
C707 C705 1.390 . S
C707 C708 1.387 . S
C707 H710 0.950 . S
C708 C707 1.387 . S
C708 C711 1.387 . S
H709 C705 0.950 . S
H710 C707 0.950 . S
C711 C702 1.390 . S
C711 H704 0.950 . S
C711 C708 1.387 . S
C473 C1 1.324 . S
C478 C319 1.429 . S
C483 C40 1.110 . S
C488 C368 1.103 . S
C498 C394 2.492 . S
C493 C99 2.547 . S
C503 C118 2.448 . S
C508 C442 2.397 . S
C518 C354 2.646 . S
C513 C16 2.426 . S
C528 C322 0.874 . S
C523 C60 0.896 . S
C538 C443 1.935 . S
C533 C79 1.991 . S
C548 C411 1.680 . S
C543 C138 1.688 . S
C553 C21 1.714 . S
C558 C439 1.849 . S
C568 C371 2.355 . S
C563 C94 2.441 . S
C573 C133 2.343 . S
C578 C323 2.335 . S
C583 C55 1.100 . S
C588 C408 1.143 . S
C598 C328 1.432 . S
C593 C157 1.337 . S
C603 C196 1.112 . S
C608 C359 1.105 . S
C613 C255 2.545 . S
C618 C403 2.491 . S
C623 C289 2.444 . S
C628 C451 2.391 . S
C633 C172 2.412 . S
C638 C363 2.643 . S
C648 C331 0.874 . S
C643 C216 0.891 . S
C658 C434 1.935 . S
C653 C235 1.994 . S
C668 C402 1.678 . S
C663 C294 1.690 . S
C673 C177 1.736 . S
C678 C448 1.846 . S
C688 C362 2.355 . S
C683 C250 2.441 . S
C698 C314 2.340 . S
C693 C274 2.345 . S
C703 C211 1.103 . S
C708 C399 1.144 . S
