# Generated by pormake.
# Topology pyr, (3,6)-cn, num edge types: 1
# Building blocks:
#     Node 0, Type 0, BuildingBlock: KAKCAD_clean_linker_0, # of connection points: 3
#     Node 1, Type 0, BuildingBlock: KAKCAD_clean_linker_0, # of connection points: 3
#     Node 2, Type 0, BuildingBlock: KAKCAD_clean_linker_0, # of connection points: 3
#     Node 3, Type 0, BuildingBlock: KAKCAD_clean_linker_0, # of connection points: 3
#     Node 4, Type 0, BuildingBlock: KAKCAD_clean_linker_0, # of connection points: 3
#     Node 5, Type 0, BuildingBlock: KAKCAD_clean_linker_0, # of connection points: 3
#     Node 6, Type 0, BuildingBlock: KAKCAD_clean_linker_0, # of connection points: 3
#     Node 7, Type 0, BuildingBlock: KAKCAD_clean_linker_0, # of connection points: 3
#     Node 8, Type 1, BuildingBlock: BETGAK_clean_sbu_0, # of connection points: 6
#     Node 9, Type 1, BuildingBlock: BETGAK_clean_sbu_0, # of connection points: 6
#     Node 10, Type 1, BuildingBlock: BETGAK_clean_sbu_0, # of connection points: 6
#     Node 11, Type 1, BuildingBlock: BETGAK_clean_sbu_0, # of connection points: 6
#     Edge 12, Type (0, 1), BuildingBlock: AJUNOK_clean_linker_0, # of connection points: 2
#     Edge 13, Type (0, 1), BuildingBlock: AJUNOK_clean_linker_0, # of connection points: 2
#     Edge 14, Type (0, 1), BuildingBlock: AJUNOK_clean_linker_0, # of connection points: 2
#     Edge 15, Type (0, 1), BuildingBlock: AJUNOK_clean_linker_0, # of connection points: 2
#     Edge 16, Type (0, 1), BuildingBlock: AJUNOK_clean_linker_0, # of connection points: 2
#     Edge 17, Type (0, 1), BuildingBlock: AJUNOK_clean_linker_0, # of connection points: 2
#     Edge 18, Type (0, 1), BuildingBlock: AJUNOK_clean_linker_0, # of connection points: 2
#     Edge 19, Type (0, 1), BuildingBlock: AJUNOK_clean_linker_0, # of connection points: 2
#     Edge 20, Type (0, 1), BuildingBlock: AJUNOK_clean_linker_0, # of connection points: 2
#     Edge 21, Type (0, 1), BuildingBlock: AJUNOK_clean_linker_0, # of connection points: 2
#     Edge 22, Type (0, 1), BuildingBlock: AJUNOK_clean_linker_0, # of connection points: 2
#     Edge 23, Type (0, 1), BuildingBlock: AJUNOK_clean_linker_0, # of connection points: 2
#     Edge 24, Type (0, 1), BuildingBlock: AJUNOK_clean_linker_0, # of connection points: 2
#     Edge 25, Type (0, 1), BuildingBlock: AJUNOK_clean_linker_0, # of connection points: 2
#     Edge 26, Type (0, 1), BuildingBlock: AJUNOK_clean_linker_0, # of connection points: 2
#     Edge 27, Type (0, 1), BuildingBlock: AJUNOK_clean_linker_0, # of connection points: 2
#     Edge 28, Type (0, 1), BuildingBlock: AJUNOK_clean_linker_0, # of connection points: 2
#     Edge 29, Type (0, 1), BuildingBlock: AJUNOK_clean_linker_0, # of connection points: 2
#     Edge 30, Type (0, 1), BuildingBlock: AJUNOK_clean_linker_0, # of connection points: 2
#     Edge 31, Type (0, 1), BuildingBlock: AJUNOK_clean_linker_0, # of connection points: 2
#     Edge 32, Type (0, 1), BuildingBlock: AJUNOK_clean_linker_0, # of connection points: 2
#     Edge 33, Type (0, 1), BuildingBlock: AJUNOK_clean_linker_0, # of connection points: 2
#     Edge 34, Type (0, 1), BuildingBlock: AJUNOK_clean_linker_0, # of connection points: 2
#     Edge 35, Type (0, 1), BuildingBlock: AJUNOK_clean_linker_0, # of connection points: 2
# Relax obj value: 0.132
# Max RMSD: 0.129
# Mean RMSD: 0.063
data_MOF--net-pyr--node1-BETGAK_clean_sbu_0--node2-KAKCAD_clean_linker_0--edge1-AJUNOK_clean_linker_0
_symmetry_space_group_name_H-M    P1
_symmetry_Int_Tables_number       1
_symmetry_cell_setting            triclinic
loop_
_symmetry_equiv_pos_as_xyz
'x, y, z'
_cell_length_a     36.533936
_cell_length_b     38.517256
_cell_length_c     34.598866
_cell_angle_alpha  90.288172
_cell_angle_beta   88.005519
_cell_angle_gamma 103.00423
loop_
_atom_site_label
_atom_site_type_symbol
_atom_site_fract_x
_atom_site_fract_y
_atom_site_fract_z
_atom_type_partial_charge
C0 C 0.26197 0.29802 0.33763 0.0
C1 C 0.27342 0.28393 0.37125 0.0
C2 C 0.2875 0.30964 0.30716 0.0
C3 C 0.32537 0.30769 0.30941 0.0
C4 C 0.33724 0.29465 0.34361 0.0
C5 C 0.31141 0.28273 0.37425 0.0
C6 C 0.35065 0.31599 0.27444 0.0
C7 C 0.3464 0.34313 0.24931 0.0
C8 C 0.36104 0.34499 0.21124 0.0
C9 C 0.38331 0.32137 0.19923 0.0
C10 C 0.39041 0.29559 0.22501 0.0
C11 C 0.37377 0.29304 0.26253 0.0
C12 C 0.41122 0.26847 0.21165 0.0
C13 C 0.40435 0.25224 0.17534 0.0
C14 C 0.43622 0.25694 0.236 0.0
C15 C 0.45338 0.22933 0.22459 0.0
C16 C 0.44583 0.21271 0.18861 0.0
C17 C 0.34565 0.36637 0.18322 0.0
C18 C 0.3232 0.34877 0.15375 0.0
C19 C 0.34479 0.40184 0.19189 0.0
C20 C 0.31895 0.41801 0.17447 0.0
C21 C 0.29341 0.39892 0.14827 0.0
C22 C 0.29711 0.36485 0.13653 0.0
C23 C 0.42145 0.22469 0.16399 0.0
H24 H 0.23268 0.29808 0.3338 0.0
H25 H 0.27684 0.3183 0.28092 0.0
H26 H 0.36619 0.29283 0.34627 0.0
H27 H 0.32083 0.27164 0.3998 0.0
H28 H 0.32838 0.36079 0.25819 0.0
H29 H 0.37628 0.27127 0.28122 0.0
H30 H 0.39413 0.32249 0.16959 0.0
H31 H 0.38478 0.26 0.15613 0.0
H32 H 0.44217 0.26901 0.2641 0.0
H33 H 0.47174 0.22036 0.2443 0.0
H34 H 0.32293 0.32122 0.14696 0.0
H35 H 0.36179 0.4159 0.21459 0.0
H36 H 0.41527 0.21242 0.13601 0.0
H37 H 0.27756 0.34928 0.1168 0.0
H38 H 0.31698 0.44447 0.18371 0.0
C39 C 0.25492 0.881 0.8117 0.0
C40 C 0.29379 0.89547 0.81081 0.0
C41 C 0.23764 0.86459 0.77881 0.0
C42 C 0.2592 0.86199 0.74495 0.0
C43 C 0.29829 0.87557 0.74468 0.0
C44 C 0.3154 0.89221 0.77731 0.0
C45 C 0.2412 0.84732 0.70898 0.0
C46 C 0.21109 0.85999 0.69499 0.0
C47 C 0.19842 0.85119 0.65753 0.0
C48 C 0.21498 0.82822 0.63473 0.0
C49 C 0.24515 0.8157 0.64844 0.0
C50 C 0.25763 0.82471 0.68579 0.0
C51 C 0.26676 0.79662 0.62268 0.0
C52 C 0.24931 0.76513 0.60401 0.0
C53 C 0.30587 0.80888 0.61905 0.0
C54 C 0.32765 0.78823 0.6004 0.0
C55 C 0.31068 0.75492 0.58509 0.0
C56 C 0.17338 0.87136 0.63994 0.0
C57 C 0.14186 0.87786 0.66063 0.0
C58 C 0.18385 0.88801 0.60396 0.0
C59 C 0.16441 0.91212 0.58985 0.0
C60 C 0.13409 0.92003 0.61138 0.0
C61 C 0.12218 0.90192 0.64632 0.0
C62 C 0.27125 0.7443 0.58524 0.0
H63 H 0.23785 0.88333 0.8374 0.0
H64 H 0.20749 0.85427 0.77967 0.0
H65 H 0.31552 0.8744 0.71879 0.0
H66 H 0.34548 0.90304 0.77622 0.0
H67 H 0.19988 0.87928 0.71184 0.0
H68 H 0.28128 0.81521 0.69625 0.0
H69 H 0.20613 0.82209 0.6054 0.0
H70 H 0.21907 0.75557 0.60606 0.0
H71 H 0.31976 0.83361 0.63248 0.0
H72 H 0.35797 0.79708 0.60079 0.0
H73 H 0.13317 0.86514 0.68835 0.0
H74 H 0.20846 0.88404 0.58771 0.0
H75 H 0.25758 0.71891 0.57308 0.0
H76 H 0.0983 0.90703 0.66298 0.0
H77 H 0.17431 0.92591 0.56295 0.0
C78 C 0.79444 0.47194 0.9348 0.0
C79 C 0.81679 0.45286 0.95478 0.0
C80 C 0.7611 0.45435 0.91702 0.0
C81 C 0.74913 0.41679 0.91742 0.0
C82 C 0.77238 0.39781 0.93621 0.0
C83 C 0.80502 0.41539 0.95484 0.0
C84 C 0.71276 0.39742 0.89901 0.0
C85 C 0.69686 0.4125 0.86805 0.0
C86 C 0.66319 0.39432 0.85079 0.0
C87 C 0.64528 0.35997 0.86521 0.0
C88 C 0.66034 0.34414 0.89606 0.0
C89 C 0.6936 0.3633 0.91259 0.0
C90 C 0.64218 0.30748 0.91174 0.0
C91 C 0.6054 0.2996 0.92821 0.0
C92 C 0.66296 0.2808 0.91328 0.0
C93 C 0.6476 0.24741 0.93067 0.0
C94 C 0.61127 0.23984 0.94814 0.0
C95 C 0.64718 0.41147 0.81768 0.0
C96 C 0.64394 0.44724 0.81972 0.0
C97 C 0.63555 0.39272 0.78346 0.0
C98 C 0.62218 0.40941 0.75217 0.0
C99 C 0.61925 0.44543 0.75395 0.0
C100 C 0.62977 0.46365 0.78889 0.0
C101 C 0.59033 0.26643 0.9465 0.0
H102 H 0.80272 0.50063 0.93234 0.0
H103 H 0.74462 0.47057 0.90332 0.0
H104 H 0.76578 0.369 0.93656 0.0
H105 H 0.8209 0.39927 0.96967 0.0
H106 H 0.71116 0.43815 0.85635 0.0
H107 H 0.70391 0.35144 0.93705 0.0
H108 H 0.61961 0.34555 0.85247 0.0
H109 H 0.58869 0.31952 0.92798 0.0
H110 H 0.69141 0.28589 0.90114 0.0
H111 H 0.66457 0.22772 0.93128 0.0
H112 H 0.65186 0.46255 0.84566 0.0
H113 H 0.63766 0.36524 0.78043 0.0
H114 H 0.56217 0.26153 0.95933 0.0
H115 H 0.62657 0.49067 0.79299 0.0
H116 H 0.61468 0.39403 0.72621 0.0
C117 C 0.89216 0.64218 0.25347 0.0
C118 C 0.93126 0.64565 0.24775 0.0
C119 C 0.87716 0.65963 0.28409 0.0
C120 C 0.90051 0.68144 0.31058 0.0
C121 C 0.93969 0.68554 0.30454 0.0
C122 C 0.95474 0.66785 0.27391 0.0
C123 C 0.88367 0.69827 0.34491 0.0
C124 C 0.8506 0.67889 0.36441 0.0
C125 C 0.83365 0.69326 0.3962 0.0
C126 C 0.85044 0.72812 0.4083 0.0
C127 C 0.88333 0.74882 0.38993 0.0
C128 C 0.89996 0.73321 0.3584 0.0
C129 C 0.89937 0.78652 0.40449 0.0
C130 C 0.87529 0.80755 0.42005 0.0
C131 C 0.93843 0.80143 0.40509 0.0
C132 C 0.95263 0.83523 0.42193 0.0
C133 C 0.92832 0.85512 0.43912 0.0
C134 C 0.79848 0.67212 0.41713 0.0
C135 C 0.76994 0.64856 0.39735 0.0
C136 C 0.79262 0.67597 0.45732 0.0
C137 C 0.75958 0.65755 0.47679 0.0
C138 C 0.73119 0.63383 0.45716 0.0
C139 C 0.7369 0.6298 0.417 0.0
C140 C 0.88943 0.84087 0.43725 0.0
H141 H 0.87284 0.62591 0.23404 0.0
H142 H 0.84693 0.65602 0.28686 0.0
H143 H 0.95885 0.70158 0.32427 0.0
H144 H 0.9849 0.67084 0.27156 0.0
H145 H 0.83856 0.65188 0.35548 0.0
H146 H 0.92487 0.74862 0.34357 0.0
H147 H 0.83762 0.73932 0.43254 0.0
H148 H 0.84508 0.79828 0.4192 0.0
H149 H 0.95821 0.78654 0.39368 0.0
H150 H 0.98277 0.8453 0.42263 0.0
H151 H 0.77273 0.64497 0.36643 0.0
H152 H 0.81371 0.69322 0.47414 0.0
H153 H 0.86972 0.85559 0.44925 0.0
H154 H 0.71585 0.61195 0.40066 0.0
H155 H 0.75615 0.66247 0.50738 0.0
C156 C 0.74089 0.78422 0.72953 0.0
C157 C 0.75107 0.8198 0.71715 0.0
C158 C 0.71577 0.77461 0.76111 0.0
C159 C 0.7016 0.80076 0.78163 0.0
C160 C 0.70825 0.83536 0.76595 0.0
C161 C 0.73261 0.8447 0.7339 0.0
C162 C 0.68813 0.79473 0.82276 0.0
C163 C 0.7065 0.77547 0.84693 0.0
C164 C 0.70225 0.7769 0.88722 0.0
C165 C 0.67905 0.79791 0.90375 0.0
C166 C 0.65932 0.8167 0.88016 0.0
C167 C 0.66316 0.81385 0.83965 0.0
C168 C 0.63826 0.84232 0.89761 0.0
C169 C 0.61936 0.83548 0.9339 0.0
C170 C 0.63896 0.87505 0.87914 0.0
C171 C 0.62193 0.90039 0.89675 0.0
C172 C 0.60439 0.89386 0.93343 0.0
C173 C 0.72666 0.76028 0.91104 0.0
C174 C 0.73008 0.72529 0.90319 0.0
C175 C 0.75087 0.78094 0.93731 0.0
C176 C 0.77942 0.76755 0.95361 0.0
C177 C 0.78396 0.73318 0.94423 0.0
C178 C 0.75842 0.71185 0.91966 0.0
C179 C 0.60294 0.86118 0.95179 0.0
H180 H 0.75464 0.76452 0.71681 0.0
H181 H 0.71025 0.74742 0.77158 0.0
H182 H 0.69812 0.85639 0.78072 0.0
H183 H 0.74023 0.87242 0.72508 0.0
H184 H 0.72713 0.76189 0.8347 0.0
H185 H 0.64814 0.82799 0.82111 0.0
H186 H 0.67773 0.80067 0.93491 0.0
H187 H 0.61767 0.81049 0.94879 0.0
H188 H 0.65396 0.88188 0.85171 0.0
H189 H 0.62375 0.9257 0.88241 0.0
H190 H 0.71185 0.70891 0.88289 0.0
H191 H 0.74919 0.80815 0.94343 0.0
H192 H 0.58952 0.85575 0.98022 0.0
H193 H 0.76155 0.68545 0.91156 0.0
H194 H 0.79872 0.78446 0.97258 0.0
C195 C 0.79807 0.21631 0.32698 0.0
C196 C 0.78084 0.23626 0.30246 0.0
C197 C 0.81723 0.23204 0.35891 0.0
C198 C 0.8203 0.26842 0.36691 0.0
C199 C 0.80476 0.28889 0.34111 0.0
C200 C 0.78503 0.27291 0.30925 0.0
C201 C 0.83548 0.28326 0.40442 0.0
C202 C 0.86378 0.27001 0.42185 0.0
C203 C 0.87091 0.27581 0.46127 0.0
C204 C 0.85203 0.298 0.48242 0.0
C205 C 0.82441 0.31212 0.4653 0.0
C206 C 0.81664 0.30515 0.42622 0.0
C207 C 0.798 0.32722 0.48969 0.0
C208 C 0.77833 0.30708 0.52077 0.0
C209 C 0.78798 0.35868 0.47856 0.0
C210 C 0.75716 0.3686 0.49655 0.0
C211 C 0.73568 0.34687 0.52541 0.0
C212 C 0.89093 0.25233 0.48173 0.0
C213 C 0.92272 0.24275 0.46464 0.0
C214 C 0.87468 0.23507 0.51598 0.0
C215 C 0.88851 0.20755 0.53153 0.0
C216 C 0.91867 0.1965 0.51306 0.0
C217 C 0.93648 0.21499 0.4802 0.0
C218 C 0.74716 0.31674 0.53837 0.0
H219 H 0.79563 0.18807 0.3222 0.0
H220 H 0.82784 0.215 0.37835 0.0
H221 H 0.80678 0.31701 0.34624 0.0
H222 H 0.77176 0.28887 0.29096 0.0
H223 H 0.87771 0.25225 0.40568 0.0
H224 H 0.79313 0.3137 0.41413 0.0
H225 H 0.85675 0.30216 0.51303 0.0
H226 H 0.7853 0.28244 0.52953 0.0
H227 H 0.80272 0.37446 0.45459 0.0
H228 H 0.74846 0.39183 0.48598 0.0
H229 H 0.93601 0.2558 0.43845 0.0
H230 H 0.84969 0.24115 0.52951 0.0
H231 H 0.73078 0.29964 0.56051 0.0
H232 H 0.96033 0.20731 0.46598 0.0
H233 H 0.87428 0.19358 0.55685 0.0
C234 C 0.26442 0.62938 0.18046 0.0
C235 C 0.23869 0.64959 0.16932 0.0
C236 C 0.29729 0.64518 0.20011 0.0
C237 C 0.30563 0.6818 0.20925 0.0
C238 C 0.27941 0.70171 0.19888 0.0
C239 C 0.24659 0.68593 0.17952 0.0
C240 C 0.34161 0.69975 0.22856 0.0
C241 C 0.35618 0.68357 0.2595 0.0
C242 C 0.38872 0.70142 0.27925 0.0
C243 C 0.40674 0.73642 0.26614 0.0
C244 C 0.39372 0.75255 0.23409 0.0
C245 C 0.36123 0.73385 0.21598 0.0
C246 C 0.41329 0.78909 0.21896 0.0
C247 C 0.42138 0.81893 0.24345 0.0
C248 C 0.42168 0.79489 0.17906 0.0
C249 C 0.43774 0.82919 0.1642 0.0
C250 C 0.44562 0.8593 0.18853 0.0
C251 C 0.40362 0.68351 0.31314 0.0
C252 C 0.38001 0.65601 0.33544 0.0
C253 C 0.44174 0.69323 0.32367 0.0
C254 C 0.45539 0.67634 0.35461 0.0
C255 C 0.43185 0.64841 0.37589 0.0
C256 C 0.39391 0.63865 0.36574 0.0
C257 C 0.43674 0.85341 0.22849 0.0
H258 H 0.25952 0.60134 0.17335 0.0
H259 H 0.31664 0.62883 0.20731 0.0
H260 H 0.28406 0.72972 0.20611 0.0
H261 H 0.22708 0.7023 0.17299 0.0
H262 H 0.3417 0.65696 0.26816 0.0
H263 H 0.35096 0.7462 0.19178 0.0
H264 H 0.43109 0.75134 0.28058 0.0
H265 H 0.41462 0.81581 0.27415 0.0
H266 H 0.41589 0.77268 0.15917 0.0
H267 H 0.4442 0.83201 0.13345 0.0
H268 H 0.35036 0.6478 0.33004 0.0
H269 H 0.46164 0.71353 0.30763 0.0
H270 H 0.44074 0.87557 0.24841 0.0
H271 H 0.37465 0.61767 0.38167 0.0
H272 H 0.48482 0.68461 0.3613 0.0
C273 C 0.14929 0.26537 0.68458 0.0
C274 C 0.11023 0.25167 0.68474 0.0
C275 C 0.16484 0.29828 0.70199 0.0
C276 C 0.14198 0.31964 0.71945 0.0
C277 C 0.10271 0.30555 0.72007 0.0
C278 C 0.08716 0.27208 0.70324 0.0
C279 C 0.1594 0.35659 0.7353 0.0
C280 C 0.19361 0.37637 0.71853 0.0
C281 C 0.21168 0.41015 0.73235 0.0
C282 C 0.1945 0.42503 0.76356 0.0
C283 C 0.16004 0.40667 0.78137 0.0
C284 C 0.14274 0.37245 0.76667 0.0
C285 C 0.14275 0.4235 0.81535 0.0
C286 C 0.16538 0.44261 0.84423 0.0
C287 C 0.10377 0.42191 0.81877 0.0
C288 C 0.0883 0.43943 0.8492 0.0
C289 C 0.11102 0.45868 0.87791 0.0
C290 C 0.24871 0.42941 0.71378 0.0
C291 C 0.27732 0.41108 0.70509 0.0
C292 C 0.25545 0.46567 0.7032 0.0
C293 C 0.28921 0.48265 0.68356 0.0
C294 C 0.31753 0.46406 0.67443 0.0
C295 C 0.31122 0.42817 0.68607 0.0
C296 C 0.14986 0.45969 0.87489 0.0
H297 H 0.16805 0.25034 0.67119 0.0
H298 H 0.19515 0.30677 0.70173 0.0
H299 H 0.08373 0.32069 0.7327 0.0
H300 H 0.05691 0.26258 0.70382 0.0
H301 H 0.20618 0.36591 0.69356 0.0
H302 H 0.11687 0.3578 0.78048 0.0
H303 H 0.20814 0.45112 0.77404 0.0
H304 H 0.19541 0.44444 0.8432 0.0
H305 H 0.08521 0.40788 0.79726 0.0
H306 H 0.05832 0.43791 0.85024 0.0
H307 H 0.27347 0.38329 0.71301 0.0
H308 H 0.23418 0.4807 0.70921 0.0
H309 H 0.16861 0.47457 0.89574 0.0
H310 H 0.33225 0.41295 0.67958 0.0
H311 H 0.29317 0.5104 0.67548 0.0
La312 La 0.03029 0.07195 0.52427 0.0
La313 La 1.00539 1.03517 0.60065 0.0
C314 C 0.04495 0.11674 0.47022 0.0
C315 C 0.07749 0.14655 0.4644 0.0
C316 C 0.10893 0.14912 0.48739 0.0
C317 C 0.14149 0.17536 0.47979 0.0
C318 C 0.14287 0.19964 0.44942 0.0
C319 C 0.11077 0.19797 0.42754 0.0
C320 C 0.07824 0.1715 0.43498 0.0
C321 C 0.07709 1.03686 0.5527 0.0
C322 C 0.05009 0.11481 0.60506 0.0
C323 C 0.99021 0.98996 0.65405 0.0
C324 C 0.95652 0.9608 0.65991 0.0
C325 C 0.92068 0.96839 0.66352 0.0
C326 C 0.88859 0.94096 0.6659 0.0
C327 C 0.89135 0.90521 0.66423 0.0
C328 C 0.92716 0.89745 0.66124 0.0
C329 C 0.95951 0.92507 0.65894 0.0
C330 C 0.95837 0.0703 0.57213 0.0
C331 C 0.98563 0.99211 0.52005 0.0
O332 O 0.05279 0.08526 0.46842 0.0
O333 O 1.02275 0.11964 0.49995 0.0
O334 O 0.07368 1.04154 0.51616 0.0
O335 O 0.05769 0.05458 0.57141 0.0
O336 O 0.04669 0.11581 0.5669 0.0
O337 O 0.04074 0.08405 0.62415 0.0
O338 O 0.98483 1.02235 0.65722 0.0
O339 O 1.012 0.98667 0.62403 0.0
O340 O 0.96157 0.06523 0.60865 0.0
O341 O 0.978 1.05263 0.55362 0.0
O342 O 0.98921 0.99136 0.55816 0.0
O343 O 0.99528 1.02273 0.50064 0.0
H344 H 0.10867 0.13008 0.51041 0.0
H345 H 0.16591 0.17612 0.49694 0.0
H346 H 0.11143 0.21607 0.40353 0.0
H347 H 0.05416 0.16984 0.41706 0.0
H348 H 0.91719 0.99557 0.66424 0.0
H349 H 0.86153 0.94783 0.6697 0.0
H350 H 0.93007 0.87009 0.66032 0.0
H351 H 0.98681 0.91855 0.65587 0.0
La352 La 0.56343 0.0572 0.0911 0.0
La353 La 0.49553 1.04554 1.05216 0.0
C354 C 0.63106 0.0733 0.11046 0.0
C355 C 0.65426 0.10143 0.13337 0.0
C356 C 0.68273 0.09294 0.15499 0.0
C357 C 0.70277 0.11783 0.18025 0.0
C358 C 0.69481 0.15169 0.18402 0.0
C359 C 0.66708 0.16071 0.1615 0.0
C360 C 0.64667 0.13556 0.1364 0.0
C361 C 0.51206 1.00321 0.12265 0.0
C362 C 0.50592 0.09666 0.1248 0.0
C363 C 0.42811 1.03196 1.03186 0.0
C364 C 0.40645 1.01001 1.00218 0.0
C365 C 0.37718 1.02189 0.98528 0.0
C366 C 0.35778 1.00276 0.95511 0.0
C367 C 0.36736 0.97144 0.94162 0.0
C368 C 0.39611 0.95908 0.95913 0.0
C369 C 0.41578 0.97841 0.98911 0.0
C370 C 0.54786 0.09938 1.02142 0.0
C371 C 0.55234 1.00498 1.0183 0.0
O372 O 0.60442 1.05152 0.13001 0.0
O373 O 0.61951 0.08277 0.07762 0.0
O374 O 0.53478 1.02761 0.14142 0.0
O375 O 0.51843 1.00979 0.08683 0.0
O376 O 0.54224 0.09897 0.12015 0.0
O377 O 0.48226 0.07294 0.10484 0.0
O378 O 0.45375 0.05898 1.0189 0.0
O379 O 0.44037 1.01507 1.0595 0.0
O380 O 0.52617 0.07468 1.00197 0.0
O381 O 0.54016 0.09285 1.05697 0.0
O382 O 0.51647 1.00554 1.0197 0.0
O383 O 0.57601 1.02559 1.04134 0.0
H384 H 0.68873 0.06666 0.15315 0.0
H385 H 0.72407 0.11045 0.19746 0.0
H386 H 0.66034 0.18661 0.16438 0.0
H387 H 0.62443 0.14242 0.12019 0.0
H388 H 0.3698 1.0463 0.99498 0.0
H389 H 0.33551 1.01255 0.94204 0.0
H390 H 0.404 0.93506 0.94887 0.0
H391 H 0.43858 0.96902 1.0016 0.0
La392 La 0.51827 0.5129 0.5415 0.0
La393 La 0.52947 0.57583 0.58595 0.0
C394 C 0.52482 0.45668 0.50696 0.0
C395 C 0.54413 0.42847 0.5162 0.0
C396 C 0.55049 0.42104 0.5548 0.0
C397 C 0.57626 0.40059 0.56321 0.0
C398 C 0.59496 0.38651 0.53305 0.0
C399 C 0.58613 0.39141 0.49457 0.0
C400 C 0.56101 0.41251 0.48618 0.0
C401 C 0.45654 0.51913 0.58156 0.0
C402 C 0.55769 0.51481 0.62475 0.0
C403 C 0.51527 0.62931 0.61924 0.0
C404 C 0.48386 0.64552 0.61061 0.0
C405 C 0.48753 0.68239 0.61322 0.0
C406 C 0.45808 0.69751 0.60223 0.0
C407 C 0.42487 0.67586 0.58831 0.0
C408 C 0.42174 0.63909 0.58486 0.0
C409 C 0.45085 0.62403 0.59617 0.0
C410 C 0.59163 0.57138 0.54636 0.0
C411 C 0.49232 0.57479 0.50194 0.0
O412 O 0.49599 0.45894 0.52938 0.0
O413 O 0.54709 0.48787 0.50038 0.0
O414 O 0.45739 0.50854 0.54605 0.0
O415 O 0.48983 0.52588 0.59327 0.0
O416 O 0.54941 0.49832 0.59128 0.0
O417 O 0.55071 0.54659 0.63066 0.0
O418 O 0.54074 0.63162 0.59135 0.0
O419 O 0.50547 0.59715 0.63377 0.0
O420 O 0.59028 0.58325 0.58137 0.0
O421 O 0.55837 0.56311 0.53414 0.0
O422 O 0.497 0.58939 0.53676 0.0
O423 O 0.50231 0.54441 0.49525 0.0
H424 H 0.53705 0.43246 0.5784 0.0
H425 H 0.58283 0.39712 0.59304 0.0
H426 H 0.60072 0.38108 0.47091 0.0
H427 H 0.55648 0.41805 0.45627 0.0
H428 H 0.51303 0.69938 0.62367 0.0
H429 H 0.4609 0.72598 0.60537 0.0
H430 H 0.39664 0.62195 0.57373 0.0
H431 H 0.44758 0.59549 0.59334 0.0
La432 La 0.02533 0.5178 0.08557 0.0
La433 La 0.02448 0.58932 1.04598 0.0
C434 C 0.04366 0.46168 0.10624 0.0
C435 C 0.0802 0.45278 0.11257 0.0
C436 C 0.08835 0.42201 0.09586 0.0
C437 C 0.12379 0.41449 0.09968 0.0
C438 C 0.15171 0.43778 0.12014 0.0
C439 C 0.14329 0.46839 0.13714 0.0
C440 C 0.10788 0.47573 0.13347 0.0
C441 C 0.9894 0.56056 0.12518 0.0
C442 C 0.09701 0.58469 0.09202 0.0
C443 C 1.00679 0.64829 1.03785 0.0
C444 C 0.97871 0.66203 1.01703 0.0
C445 C 0.95254 0.63942 0.99418 0.0
C446 C 0.92171 0.65098 0.98045 0.0
C447 C 0.91651 0.68522 0.98965 0.0
C448 C 0.94377 0.70825 1.01109 0.0
C449 C 0.97454 0.69668 1.02478 0.0
C450 C 0.05132 0.54612 0.99612 0.0
C451 C 0.95684 0.52115 1.03327 0.0
O452 O 0.0333 0.48418 0.13052 0.0
O453 O 0.03749 0.46863 0.07037 0.0
O454 O 0.97918 0.52594 0.12478 0.0
O455 O 1.01937 0.56953 0.10443 0.0
O456 O 0.0823 0.55001 0.09719 0.0
O457 O 0.07875 0.60563 0.07383 0.0
O458 O 0.03398 0.63896 1.01744 0.0
O459 O 0.99237 0.62494 0.06473 0.0
O460 O 0.04621 0.57747 0.98744 0.0
O461 O 0.0406 0.54137 1.03118 0.0
O462 O 0.96853 0.55642 1.03294 0.0
O463 O 0.97644 0.50025 1.0494 0.0
H464 H 0.06739 0.40395 0.07957 0.0
H465 H 0.12919 0.39028 0.08703 0.0
H466 H 0.1642 0.48677 0.15314 0.0
H467 H 0.10219 0.49944 0.14689 0.0
H468 H 0.95519 0.61245 0.98818 0.0
H469 H 0.90157 0.63292 0.9633 0.0
H470 H 0.94045 0.73472 1.01868 0.0
H471 H 0.99421 0.71427 1.04285 0.0
C472 C 0.24241 0.23013 0.4096 0.0
C473 C 0.24432 0.26591 0.39988 0.0
C474 C 0.21023 0.20942 0.42813 0.0
C475 C 0.17889 0.22379 0.43741 0.0
H476 H 0.2647 0.21727 0.40029 0.0
H477 H 0.20891 0.18137 0.43283 0.0
S478 S 0.17275 0.31775 0.42511 0.0
N479 N 0.21452 0.31622 0.40625 0.0
N480 N 0.1537 0.27697 0.44062 0.0
C481 C 0.18166 0.26021 0.43081 0.0
C482 C 0.21452 0.28137 0.41223 0.0
C483 C 0.31058 0.89842 0.88026 0.0
C484 C 0.31183 0.9153 0.84419 0.0
C485 C 0.32891 0.91668 0.91181 0.0
C486 C 0.34832 0.95248 0.90825 0.0
H487 H 0.2959 0.87081 0.88388 0.0
H488 H 0.32769 0.90287 0.93918 0.0
S489 S 0.35928 1.00857 0.82006 0.0
N490 N 0.3337 0.96965 0.80669 0.0
N491 N 0.36781 1.00409 0.86612 0.0
C492 C 0.34942 0.96969 0.87244 0.0
C493 C 0.33123 0.95103 0.84032 0.0
C494 C 0.57646 0.44431 0.69617 0.0
C495 C 0.60484 0.46351 0.72003 0.0
C496 C 0.56208 0.46064 0.66515 0.0
C497 C 0.57478 0.49724 0.65649 0.0
H498 H 0.56449 0.4164 0.70189 0.0
H499 H 0.53994 0.44456 0.64853 0.0
S500 S 0.65144 0.55936 0.70595 0.0
N501 N 0.6475 0.52124 0.72909 0.0
N502 N 0.61923 0.55167 0.67276 0.0
C503 C 0.60348 0.51667 0.6794 0.0
C504 C 0.61872 0.49998 0.71047 0.0
C505 C 0.92859 0.58952 0.20718 0.0
C506 C 0.94678 0.62509 0.21558 0.0
C507 C 0.94226 0.56945 0.17788 0.0
C508 C 0.97491 0.58368 0.15501 0.0
H509 H 0.9037 0.57663 0.22394 0.0
H510 H 0.92709 0.54224 0.17334 0.0
S511 S 0.03294 0.67577 0.16335 0.0
N512 N 0.9991 0.6739 0.19673 0.0
N513 N 0.02496 0.63612 0.14277 0.0
C514 C 0.99333 0.61924 0.1627 0.0
C515 C 0.97936 0.6398 0.19258 0.0
C516 C 0.43813 0.15096 0.16295 0.0
C517 C 0.46195 0.182 0.17689 0.0
C518 C 0.45256 0.12267 0.1483 0.0
C519 C 0.49147 0.12429 0.14676 0.0
H520 H 0.40805 0.14878 0.16267 0.0
H521 H 0.43296 0.09988 0.13685 0.0
S522 S 0.56565 0.1988 0.18254 0.0
N523 N 0.52611 0.21211 0.19038 0.0
N524 N 0.55344 0.15878 0.16314 0.0
C525 C 0.51552 0.15452 0.16244 0.0
C526 C 0.50071 0.18341 0.17741 0.0
C527 C 0.10775 0.95012 0.55902 0.0
C528 C 0.11689 0.94882 0.59803 0.0
C529 C 0.09522 0.97899 0.54454 0.0
C530 C 0.09115 1.0074 0.56865 0.0
H531 H 0.11068 0.92878 0.53945 0.0
H532 H 0.08845 0.9789 0.51429 0.0
S533 S 0.1116 1.01716 0.67274 0.0
N534 N 0.12148 0.97871 0.66044 0.0
N535 N 0.09703 1.03279 0.63315 0.0
C536 C 0.09964 1.00633 0.60777 0.0
C537 C 0.11263 0.977 0.62254 0.0
C538 C 0.88371 0.45541 0.9758 0.0
C539 C 0.85237 0.47133 0.97497 0.0
C540 C 0.9168 0.47129 0.99504 0.0
C541 C 0.92085 0.5044 1.01387 0.0
H542 H 0.88303 0.43045 0.96104 0.0
H543 H 0.93978 0.45774 0.99446 0.0
S544 S 0.8475 0.55705 1.02294 0.0
N545 N 0.82765 0.52187 0.99751 0.0
N546 N 0.89026 0.55224 1.03144 0.0
C547 C 0.8901 0.52084 1.01328 0.0
C548 C 0.85597 0.50431 0.99444 0.0
C549 C 0.65987 0.61103 0.46258 0.0
C550 C 0.69564 0.61419 0.47851 0.0
C551 C 0.62623 0.59546 0.48357 0.0
C552 C 0.62682 0.58251 0.52154 0.0
H553 H 0.65771 0.62189 0.43416 0.0
H554 H 0.59957 0.59501 0.47058 0.0
S555 S 0.71239 0.57929 0.57481 0.0
N556 N 0.72885 0.59871 0.53335 0.0
N557 N 0.66616 0.57097 0.57276 0.0
C558 C 0.66222 0.584 0.53708 0.0
C559 C 0.69637 0.5994 0.51569 0.0
C560 C 0.23788 0.42264 0.1694 0.0
C561 C 0.25923 0.41163 0.13901 0.0
C562 C 0.2035 0.43141 0.16283 0.0
C563 C 0.18896 0.42949 0.1256 0.0
H564 H 0.24716 0.42334 0.19885 0.0
H565 H 0.18767 0.43884 0.18736 0.0
S566 S 0.23528 0.40517 1.03556 0.0
N567 N 0.2644 0.40121 0.0699 0.0
N568 N 0.19962 0.41795 1.05744 0.0
C569 C 0.21038 0.41938 0.09472 0.0
C570 C 0.24552 0.41039 0.10145 0.0
C571 C 0.59296 0.17209 0.94742 0.0
C572 C 0.59554 0.20432 0.96783 0.0
C573 C 0.57792 0.13858 0.96506 0.0
C574 C 0.56567 0.13548 1.00431 0.0
H575 H 0.60203 0.17279 0.91724 0.0
H576 H 0.5759 0.11478 0.9477 0.0
S577 S 0.56771 0.21153 0.07132 0.0
N578 N 0.58494 0.23069 1.02993 0.0
N579 N 0.55806 0.16817 0.0632 0.0
C580 C 0.56891 0.16748 1.02531 0.0
C581 C 0.58339 0.20165 1.00709 0.0
C582 C 0.96823 0.91888 0.44155 0.0
C583 C 0.94297 0.89002 0.45994 0.0
C584 C 0.98103 0.95194 0.46057 0.0
C585 C 0.96995 0.95752 0.49925 0.0
H586 H 0.97783 0.91606 0.41198 0.0
H587 H 1.00041 0.9731 0.44502 0.0
S588 S 0.9046 0.89045 0.56074 0.0
N589 N 0.90747 0.86963 0.51931 0.0
N590 N 0.93192 0.93065 0.55501 0.0
C591 C 0.94495 0.92871 0.51798 0.0
C592 C 0.93141 0.89541 0.49841 0.0
C593 C 0.36878 0.74082 0.55546 0.0
C594 C 0.33461 0.72943 0.57663 0.0
C595 C 0.39736 0.72212 0.55747 0.0
C596 C 0.39248 0.69136 0.58045 0.0
H597 H 0.37438 0.76566 0.53945 0.0
H598 H 0.42405 0.73271 0.54249 0.0
S599 S 0.30711 0.64869 0.63846 0.0
N600 N 0.29653 0.684 0.61886 0.0
N601 N 0.35013 0.64872 0.62228 0.0
C602 C 0.35743 0.67812 0.59921 0.0
C603 C 0.32841 0.69717 0.59728 0.0
C604 C 0.82034 0.82887 0.71007 0.0
C605 C 0.78651 0.83316 0.69458 0.0
C606 C 0.85492 0.85032 0.69761 0.0
C607 C 0.85676 0.87661 0.66913 0.0
H608 H 0.81983 0.81119 0.73444 0.0
H609 H 0.87986 0.8483 0.71268 0.0
S610 S 0.77711 0.89222 0.61321 0.0
N611 N 0.75746 0.86129 0.64516 0.0
N612 N 0.82267 0.90099 0.62075 0.0
C613 C 0.82359 0.87822 0.65039 0.0
C614 C 0.78836 0.85665 0.66338 0.0
C615 C 0.73056 0.18559 0.28106 0.0
C616 C 0.75654 0.21764 0.27182 0.0
C617 C 0.7098 0.16513 0.2525 0.0
C618 C 0.71385 0.17614 0.2137 0.0
H619 H 0.72678 0.17585 0.31058 0.0
H620 H 0.69092 0.14011 0.26069 0.0
S621 S 0.77634 0.25854 0.17432 0.0
N622 N 0.78415 0.25999 0.22113 0.0
N623 N 0.74419 0.22155 0.16735 0.0
C624 C 0.73831 0.2088 0.20411 0.0
C625 C 0.75985 0.22961 0.23324 0.0
C626 C 0.46483 0.64791 0.43996 0.0
C627 C 0.44679 0.62923 0.40808 0.0
C628 C 0.47858 0.63022 0.47036 0.0
C629 C 0.476 0.59301 0.46998 0.0
H630 H 0.46799 0.67651 0.44169 0.0
H631 H 0.49198 0.64605 0.49408 0.0
S632 S 0.43145 0.53153 0.39311 0.0
N633 N 0.42687 0.57107 0.37859 0.0
N634 N 0.4534 0.53827 0.43435 0.0
C635 C 0.45814 0.57411 0.43812 0.0
C636 C 0.44343 0.59201 0.40769 0.0
C637 C 0.07015 0.50113 0.90023 0.0
C638 C 0.09458 0.47897 0.90954 0.0
C639 C 0.05608 0.52195 0.92848 0.0
C640 C 0.06474 0.52114 0.96789 0.0
H641 H 0.06264 0.50328 0.87047 0.0
H642 H 0.03824 0.53909 0.91922 0.0
S643 S 0.12703 0.46759 1.00848 0.0
N644 N 0.12648 0.45759 0.96197 0.0
N645 N 0.09975 0.49621 1.01459 0.0
C646 C 0.08853 0.49868 0.97791 0.0
C647 C 0.10348 0.47788 0.94898 0.0
C648 C 0.60992 0.93902 0.9857 0.0
C649 C 0.59051 0.92232 0.95392 0.0
C650 C 0.59793 0.96648 1.00551 0.0
C651 C 0.56569 0.97784 0.99463 0.0
H652 H 0.63467 0.93086 0.99521 0.0
H653 H 0.61364 0.97828 1.03012 0.0
S654 S 0.50536 0.94249 0.91277 0.0
N655 N 0.53821 0.91916 0.9117 0.0
N656 N 0.51485 0.97029 0.94949 0.0
C657 C 0.54609 0.9613 0.96269 0.0
C658 C 0.55874 0.93368 0.94215 0.0
C659 C 0.93622 0.1611 0.5666 0.0
C660 C 0.92971 0.16437 0.52715 0.0
C661 C 0.94457 0.13008 0.5811 0.0
C662 C 0.94664 0.10131 0.5566 0.0
H663 H 0.93504 0.18277 0.58635 0.0
H664 H 0.95013 0.12894 0.61157 0.0
S665 S 0.92954 0.09565 0.45162 0.0
N666 N 0.92418 0.1357 0.46414 0.0
N667 N 0.93999 0.07723 0.49157 0.0
C668 C 0.93954 0.10393 0.51728 0.0
C669 C 0.93119 0.13559 0.50245 0.0
C670 C 0.18142 0.59919 0.15883 0.0
C671 C 0.20353 0.63288 0.14786 0.0
C672 C 0.14773 0.58377 0.14032 0.0
C673 C 0.13426 0.60103 0.10971 0.0
H674 H 0.18966 0.58488 0.18269 0.0
H675 H 0.1316 0.55844 0.151 0.0
S676 S 0.18307 0.68827 0.06711 0.0
N677 N 0.21042 0.68187 0.10214 0.0
N678 N 0.14736 0.65328 0.06806 0.0
C679 C 0.1565 0.6344 0.09787 0.0
C680 C 0.19089 0.65011 0.11665 0.0
C681 C 0.38874 0.4793 0.66533 0.0
C682 C 0.35315 0.48137 0.65205 0.0
C683 C 0.42228 0.49322 0.64351 0.0
C684 C 0.42166 0.50906 0.60696 0.0
H685 H 0.39067 0.46648 0.69274 0.0
H686 H 0.44874 0.49025 0.65469 0.0
S687 S 0.33647 0.5224 0.55926 0.0
N688 N 0.32002 0.50206 0.60029 0.0
N689 N 0.38255 0.5271 0.55918 0.0
C690 C 0.38646 0.51192 0.5937 0.0
C691 C 0.35243 0.49843 0.6162 0.0
C692 C 0.85339 0.74219 0.95095 0.0
C693 C 0.81708 0.72072 0.9573 0.0
C694 C 0.88536 0.73041 0.96119 0.0
C695 C 0.88223 0.69671 0.97819 0.0
H696 H 0.85716 0.76806 0.93727 0.0
H697 H 0.91278 0.74767 0.95535 0.0
S698 S 0.79333 0.6316 1.00378 0.0
N699 N 0.77968 0.66499 0.9833 0.0
N700 N 0.83972 0.64294 1.00301 0.0
C701 C 0.84602 0.67523 0.98526 0.0
C702 C 0.81348 0.6872 0.97472 0.0
C703 C 0.45243 0.90721 0.13576 0.0
C704 C 0.46272 0.89635 0.17216 0.0
C705 C 0.46824 0.94145 0.11992 0.0
C706 C 0.49485 0.96688 0.13981 0.0
H707 H 0.43161 0.88921 0.11932 0.0
H708 H 0.45929 0.94812 0.09192 0.0
S709 S 0.53409 0.9518 0.23449 0.0
N710 N 0.50384 0.91399 0.22602 0.0
N711 N 0.53184 0.97799 0.19748 0.0
C712 C 0.50554 0.95641 0.17606 0.0
C713 C 0.48997 0.92144 0.19186 0.0
C714 C 0.10381 0.21092 0.62603 0.0
C715 C 0.09411 0.21656 0.66507 0.0
C716 C 0.08948 0.17829 0.60701 0.0
C717 C 0.06552 0.14915 0.62632 0.0
H718 H 0.12237 0.23217 0.60979 0.0
H719 H 0.09764 0.17581 0.5769 0.0
S720 S 0.03181 0.14955 0.7289 0.0
N721 N 0.05873 0.18984 0.72225 0.0
N722 N 0.03281 0.12862 0.68721 0.0
C723 C 0.05593 0.15433 0.6655 0.0
C724 C 0.06986 0.18786 0.6846 0.0
C725 C 0.69515 0.38579 0.55229 0.0
C726 C 0.69841 0.35281 0.53684 0.0
C727 C 0.6603 0.39517 0.55452 0.0
C728 C 0.62799 0.37209 0.54064 0.0
H729 H 0.72 0.40516 0.56058 0.0
H730 H 0.65916 0.42169 0.56431 0.0
S731 S 0.62124 0.28156 0.50103 0.0
N732 N 0.66609 0.29587 0.51066 0.0
N733 N 0.60061 0.314 0.51415 0.0
C734 C 0.63046 0.33821 0.52753 0.0
C735 C 0.66576 0.32841 0.52583 0.0
loop_
_geom_bond_atom_site_label_1
_geom_bond_atom_site_label_2
_geom_bond_distance
_geom_bond_site_symmetry_2
_ccdc_geom_bond_type
C0 C1 1.386 . S
C0 C2 1.397 . S
C0 H24 0.931 . S
C1 C0 1.386 . S
C1 C5 1.397 . S
C2 C0 1.397 . S
C2 C3 1.384 . S
C2 H25 0.930 . S
C3 C2 1.384 . S
C3 C4 1.377 . S
C3 C6 1.481 . S
C4 C3 1.377 . S
C4 C5 1.389 . S
C4 H26 0.929 . S
C5 C1 1.397 . S
C5 C4 1.389 . S
C5 H27 0.931 . S
C6 C3 1.481 . S
C6 C7 1.387 . S
C6 C11 1.390 . S
C7 C6 1.387 . S
C7 C8 1.401 . S
C7 H28 0.930 . S
C8 C7 1.401 . S
C8 C9 1.376 . S
C8 C17 1.511 . S
C9 C8 1.376 . S
C9 C10 1.392 . S
C9 H30 0.931 . S
C10 C9 1.392 . S
C10 C11 1.361 . S
C10 C12 1.500 . S
C11 C6 1.390 . S
C11 C10 1.361 . S
C11 H29 0.931 . S
C12 C10 1.500 . S
C12 C13 1.371 . S
C12 C14 1.365 . S
C13 C12 1.371 . S
C13 C23 1.386 . S
C13 H31 0.931 . S
C14 C12 1.365 . S
C14 C15 1.409 . S
C14 H32 0.929 . S
C15 C14 1.409 . S
C15 C16 1.380 . S
C15 H33 0.930 . S
C16 C15 1.380 . S
C16 C23 1.357 . S
C17 C8 1.511 . S
C17 C18 1.341 . S
C17 C19 1.371 . S
C18 C17 1.341 . S
C18 C22 1.394 . S
C18 H34 0.930 . S
C19 C17 1.371 . S
C19 C20 1.392 . S
C19 H35 0.931 . S
C20 C19 1.392 . S
C20 C21 1.331 . S
C20 H38 0.932 . S
C21 C20 1.331 . S
C21 C22 1.336 . S
C22 C18 1.394 . S
C22 C21 1.336 . S
C22 H37 0.929 . S
C23 C13 1.386 . S
C23 C16 1.357 . S
C23 H36 0.928 . S
H24 C0 0.931 . S
H25 C2 0.930 . S
H26 C4 0.929 . S
H27 C5 0.931 . S
H28 C7 0.930 . S
H29 C11 0.931 . S
H30 C9 0.931 . S
H31 C13 0.931 . S
H32 C14 0.929 . S
H33 C15 0.930 . S
H34 C18 0.930 . S
H35 C19 0.931 . S
H36 C23 0.928 . S
H37 C22 0.929 . S
H38 C20 0.932 . S
C39 C40 1.386 . S
C39 C41 1.397 . S
C39 H63 0.931 . S
C40 C39 1.386 . S
C40 C44 1.397 . S
C41 C39 1.397 . S
C41 C42 1.384 . S
C41 H64 0.930 . S
C42 C41 1.384 . S
C42 C43 1.377 . S
C42 C45 1.481 . S
C43 C42 1.377 . S
C43 C44 1.389 . S
C43 H65 0.929 . S
C44 C40 1.397 . S
C44 C43 1.389 . S
C44 H66 0.931 . S
C45 C42 1.481 . S
C45 C46 1.387 . S
C45 C50 1.390 . S
C46 C45 1.387 . S
C46 C47 1.401 . S
C46 H67 0.930 . S
C47 C46 1.401 . S
C47 C48 1.376 . S
C47 C56 1.511 . S
C48 C47 1.376 . S
C48 C49 1.392 . S
C48 H69 0.931 . S
C49 C48 1.392 . S
C49 C50 1.361 . S
C49 C51 1.500 . S
C50 C45 1.390 . S
C50 C49 1.361 . S
C50 H68 0.931 . S
C51 C49 1.500 . S
C51 C52 1.371 . S
C51 C53 1.365 . S
C52 C51 1.371 . S
C52 C62 1.386 . S
C52 H70 0.931 . S
C53 C51 1.365 . S
C53 C54 1.409 . S
C53 H71 0.929 . S
C54 C53 1.409 . S
C54 C55 1.380 . S
C54 H72 0.930 . S
C55 C54 1.380 . S
C55 C62 1.357 . S
C56 C47 1.511 . S
C56 C57 1.341 . S
C56 C58 1.371 . S
C57 C56 1.341 . S
C57 C61 1.394 . S
C57 H73 0.930 . S
C58 C56 1.371 . S
C58 C59 1.392 . S
C58 H74 0.931 . S
C59 C58 1.392 . S
C59 C60 1.331 . S
C59 H77 0.932 . S
C60 C59 1.331 . S
C60 C61 1.336 . S
C61 C57 1.394 . S
C61 C60 1.336 . S
C61 H76 0.929 . S
C62 C52 1.386 . S
C62 C55 1.357 . S
C62 H75 0.928 . S
H63 C39 0.931 . S
H64 C41 0.930 . S
H65 C43 0.929 . S
H66 C44 0.931 . S
H67 C46 0.930 . S
H68 C50 0.931 . S
H69 C48 0.931 . S
H70 C52 0.931 . S
H71 C53 0.929 . S
H72 C54 0.930 . S
H73 C57 0.930 . S
H74 C58 0.931 . S
H75 C62 0.928 . S
H76 C61 0.929 . S
H77 C59 0.932 . S
C78 C79 1.386 . S
C78 C80 1.397 . S
C78 H102 0.931 . S
C79 C78 1.386 . S
C79 C83 1.397 . S
C80 C78 1.397 . S
C80 C81 1.384 . S
C80 H103 0.930 . S
C81 C80 1.384 . S
C81 C82 1.377 . S
C81 C84 1.481 . S
C82 C81 1.377 . S
C82 C83 1.389 . S
C82 H104 0.929 . S
C83 C79 1.397 . S
C83 C82 1.389 . S
C83 H105 0.931 . S
C84 C81 1.481 . S
C84 C85 1.387 . S
C84 C89 1.390 . S
C85 C84 1.387 . S
C85 C86 1.401 . S
C85 H106 0.930 . S
C86 C85 1.401 . S
C86 C87 1.376 . S
C86 C95 1.511 . S
C87 C86 1.376 . S
C87 C88 1.392 . S
C87 H108 0.931 . S
C88 C87 1.392 . S
C88 C89 1.361 . S
C88 C90 1.500 . S
C89 C84 1.390 . S
C89 C88 1.361 . S
C89 H107 0.931 . S
C90 C88 1.500 . S
C90 C91 1.371 . S
C90 C92 1.365 . S
C91 C90 1.371 . S
C91 C101 1.386 . S
C91 H109 0.931 . S
C92 C90 1.365 . S
C92 C93 1.409 . S
C92 H110 0.929 . S
C93 C92 1.409 . S
C93 C94 1.380 . S
C93 H111 0.930 . S
C94 C93 1.380 . S
C94 C101 1.357 . S
C95 C86 1.511 . S
C95 C96 1.341 . S
C95 C97 1.371 . S
C96 C95 1.341 . S
C96 C100 1.394 . S
C96 H112 0.930 . S
C97 C95 1.371 . S
C97 C98 1.392 . S
C97 H113 0.931 . S
C98 C97 1.392 . S
C98 C99 1.331 . S
C98 H116 0.932 . S
C99 C98 1.331 . S
C99 C100 1.336 . S
C100 C96 1.394 . S
C100 C99 1.336 . S
C100 H115 0.929 . S
C101 C91 1.386 . S
C101 C94 1.357 . S
C101 H114 0.928 . S
H102 C78 0.931 . S
H103 C80 0.930 . S
H104 C82 0.929 . S
H105 C83 0.931 . S
H106 C85 0.930 . S
H107 C89 0.931 . S
H108 C87 0.931 . S
H109 C91 0.931 . S
H110 C92 0.929 . S
H111 C93 0.930 . S
H112 C96 0.930 . S
H113 C97 0.931 . S
H114 C101 0.928 . S
H115 C100 0.929 . S
H116 C98 0.932 . S
C117 C118 1.386 . S
C117 C119 1.397 . S
C117 H141 0.931 . S
C118 C117 1.386 . S
C118 C122 1.397 . S
C119 C117 1.397 . S
C119 C120 1.384 . S
C119 H142 0.930 . S
C120 C119 1.384 . S
C120 C121 1.377 . S
C120 C123 1.481 . S
C121 C120 1.377 . S
C121 C122 1.389 . S
C121 H143 0.929 . S
C122 C118 1.397 . S
C122 C121 1.389 . S
C122 H144 0.931 . S
C123 C120 1.481 . S
C123 C124 1.387 . S
C123 C128 1.390 . S
C124 C123 1.387 . S
C124 C125 1.401 . S
C124 H145 0.930 . S
C125 C124 1.401 . S
C125 C126 1.376 . S
C125 C134 1.511 . S
C126 C125 1.376 . S
C126 C127 1.392 . S
C126 H147 0.931 . S
C127 C126 1.392 . S
C127 C128 1.361 . S
C127 C129 1.500 . S
C128 C123 1.390 . S
C128 C127 1.361 . S
C128 H146 0.931 . S
C129 C127 1.500 . S
C129 C130 1.371 . S
C129 C131 1.365 . S
C130 C129 1.371 . S
C130 C140 1.386 . S
C130 H148 0.931 . S
C131 C129 1.365 . S
C131 C132 1.409 . S
C131 H149 0.929 . S
C132 C131 1.409 . S
C132 C133 1.380 . S
C132 H150 0.930 . S
C133 C132 1.380 . S
C133 C140 1.357 . S
C134 C125 1.511 . S
C134 C135 1.341 . S
C134 C136 1.371 . S
C135 C134 1.341 . S
C135 C139 1.394 . S
C135 H151 0.930 . S
C136 C134 1.371 . S
C136 C137 1.392 . S
C136 H152 0.931 . S
C137 C136 1.392 . S
C137 C138 1.331 . S
C137 H155 0.932 . S
C138 C137 1.331 . S
C138 C139 1.336 . S
C139 C135 1.394 . S
C139 C138 1.336 . S
C139 H154 0.929 . S
C140 C130 1.386 . S
C140 C133 1.357 . S
C140 H153 0.928 . S
H141 C117 0.931 . S
H142 C119 0.930 . S
H143 C121 0.929 . S
H144 C122 0.931 . S
H145 C124 0.930 . S
H146 C128 0.931 . S
H147 C126 0.931 . S
H148 C130 0.931 . S
H149 C131 0.929 . S
H150 C132 0.930 . S
H151 C135 0.930 . S
H152 C136 0.931 . S
H153 C140 0.928 . S
H154 C139 0.929 . S
H155 C137 0.932 . S
C156 C157 1.386 . S
C156 C158 1.397 . S
C156 H180 0.931 . S
C157 C156 1.386 . S
C157 C161 1.397 . S
C158 C156 1.397 . S
C158 C159 1.384 . S
C158 H181 0.930 . S
C159 C158 1.384 . S
C159 C160 1.377 . S
C159 C162 1.481 . S
C160 C159 1.377 . S
C160 C161 1.389 . S
C160 H182 0.929 . S
C161 C157 1.397 . S
C161 C160 1.389 . S
C161 H183 0.931 . S
C162 C159 1.481 . S
C162 C163 1.387 . S
C162 C167 1.390 . S
C163 C162 1.387 . S
C163 C164 1.401 . S
C163 H184 0.930 . S
C164 C163 1.401 . S
C164 C165 1.376 . S
C164 C173 1.511 . S
C165 C164 1.376 . S
C165 C166 1.392 . S
C165 H186 0.931 . S
C166 C165 1.392 . S
C166 C167 1.361 . S
C166 C168 1.500 . S
C167 C162 1.390 . S
C167 C166 1.361 . S
C167 H185 0.931 . S
C168 C166 1.500 . S
C168 C169 1.371 . S
C168 C170 1.365 . S
C169 C168 1.371 . S
C169 C179 1.386 . S
C169 H187 0.931 . S
C170 C168 1.365 . S
C170 C171 1.409 . S
C170 H188 0.929 . S
C171 C170 1.409 . S
C171 C172 1.380 . S
C171 H189 0.930 . S
C172 C171 1.380 . S
C172 C179 1.357 . S
C173 C164 1.511 . S
C173 C174 1.341 . S
C173 C175 1.371 . S
C174 C173 1.341 . S
C174 C178 1.394 . S
C174 H190 0.930 . S
C175 C173 1.371 . S
C175 C176 1.392 . S
C175 H191 0.931 . S
C176 C175 1.392 . S
C176 C177 1.331 . S
C176 H194 0.932 . S
C177 C176 1.331 . S
C177 C178 1.336 . S
C178 C174 1.394 . S
C178 C177 1.336 . S
C178 H193 0.929 . S
C179 C169 1.386 . S
C179 C172 1.357 . S
C179 H192 0.928 . S
H180 C156 0.931 . S
H181 C158 0.930 . S
H182 C160 0.929 . S
H183 C161 0.931 . S
H184 C163 0.930 . S
H185 C167 0.931 . S
H186 C165 0.931 . S
H187 C169 0.931 . S
H188 C170 0.929 . S
H189 C171 0.930 . S
H190 C174 0.930 . S
H191 C175 0.931 . S
H192 C179 0.928 . S
H193 C178 0.929 . S
H194 C176 0.932 . S
C195 C196 1.386 . S
C195 C197 1.397 . S
C195 H219 0.931 . S
C196 C195 1.386 . S
C196 C200 1.397 . S
C197 C195 1.397 . S
C197 C198 1.384 . S
C197 H220 0.930 . S
C198 C197 1.384 . S
C198 C199 1.377 . S
C198 C201 1.481 . S
C199 C198 1.377 . S
C199 C200 1.389 . S
C199 H221 0.929 . S
C200 C196 1.397 . S
C200 C199 1.389 . S
C200 H222 0.931 . S
C201 C198 1.481 . S
C201 C202 1.387 . S
C201 C206 1.390 . S
C202 C201 1.387 . S
C202 C203 1.401 . S
C202 H223 0.930 . S
C203 C202 1.401 . S
C203 C204 1.376 . S
C203 C212 1.511 . S
C204 C203 1.376 . S
C204 C205 1.392 . S
C204 H225 0.931 . S
C205 C204 1.392 . S
C205 C206 1.361 . S
C205 C207 1.500 . S
C206 C201 1.390 . S
C206 C205 1.361 . S
C206 H224 0.931 . S
C207 C205 1.500 . S
C207 C208 1.371 . S
C207 C209 1.365 . S
C208 C207 1.371 . S
C208 C218 1.386 . S
C208 H226 0.931 . S
C209 C207 1.365 . S
C209 C210 1.409 . S
C209 H227 0.929 . S
C210 C209 1.409 . S
C210 C211 1.380 . S
C210 H228 0.930 . S
C211 C210 1.380 . S
C211 C218 1.357 . S
C212 C203 1.511 . S
C212 C213 1.341 . S
C212 C214 1.371 . S
C213 C212 1.341 . S
C213 C217 1.394 . S
C213 H229 0.930 . S
C214 C212 1.371 . S
C214 C215 1.392 . S
C214 H230 0.931 . S
C215 C214 1.392 . S
C215 C216 1.331 . S
C215 H233 0.932 . S
C216 C215 1.331 . S
C216 C217 1.336 . S
C217 C213 1.394 . S
C217 C216 1.336 . S
C217 H232 0.929 . S
C218 C208 1.386 . S
C218 C211 1.357 . S
C218 H231 0.928 . S
H219 C195 0.931 . S
H220 C197 0.930 . S
H221 C199 0.929 . S
H222 C200 0.931 . S
H223 C202 0.930 . S
H224 C206 0.931 . S
H225 C204 0.931 . S
H226 C208 0.931 . S
H227 C209 0.929 . S
H228 C210 0.930 . S
H229 C213 0.930 . S
H230 C214 0.931 . S
H231 C218 0.928 . S
H232 C217 0.929 . S
H233 C215 0.932 . S
C234 C235 1.386 . S
C234 C236 1.397 . S
C234 H258 0.931 . S
C235 C234 1.386 . S
C235 C239 1.397 . S
C236 C234 1.397 . S
C236 C237 1.384 . S
C236 H259 0.930 . S
C237 C236 1.384 . S
C237 C238 1.377 . S
C237 C240 1.481 . S
C238 C237 1.377 . S
C238 C239 1.389 . S
C238 H260 0.929 . S
C239 C235 1.397 . S
C239 C238 1.389 . S
C239 H261 0.931 . S
C240 C237 1.481 . S
C240 C241 1.387 . S
C240 C245 1.390 . S
C241 C240 1.387 . S
C241 C242 1.401 . S
C241 H262 0.930 . S
C242 C241 1.401 . S
C242 C243 1.376 . S
C242 C251 1.511 . S
C243 C242 1.376 . S
C243 C244 1.392 . S
C243 H264 0.931 . S
C244 C243 1.392 . S
C244 C245 1.361 . S
C244 C246 1.500 . S
C245 C240 1.390 . S
C245 C244 1.361 . S
C245 H263 0.931 . S
C246 C244 1.500 . S
C246 C247 1.371 . S
C246 C248 1.365 . S
C247 C246 1.371 . S
C247 C257 1.386 . S
C247 H265 0.931 . S
C248 C246 1.365 . S
C248 C249 1.409 . S
C248 H266 0.929 . S
C249 C248 1.409 . S
C249 C250 1.380 . S
C249 H267 0.930 . S
C250 C249 1.380 . S
C250 C257 1.357 . S
C251 C242 1.511 . S
C251 C252 1.341 . S
C251 C253 1.371 . S
C252 C251 1.341 . S
C252 C256 1.394 . S
C252 H268 0.930 . S
C253 C251 1.371 . S
C253 C254 1.392 . S
C253 H269 0.931 . S
C254 C253 1.392 . S
C254 C255 1.331 . S
C254 H272 0.932 . S
C255 C254 1.331 . S
C255 C256 1.336 . S
C256 C252 1.394 . S
C256 C255 1.336 . S
C256 H271 0.929 . S
C257 C247 1.386 . S
C257 C250 1.357 . S
C257 H270 0.928 . S
H258 C234 0.931 . S
H259 C236 0.930 . S
H260 C238 0.929 . S
H261 C239 0.931 . S
H262 C241 0.930 . S
H263 C245 0.931 . S
H264 C243 0.931 . S
H265 C247 0.931 . S
H266 C248 0.929 . S
H267 C249 0.930 . S
H268 C252 0.930 . S
H269 C253 0.931 . S
H270 C257 0.928 . S
H271 C256 0.929 . S
H272 C254 0.932 . S
C273 C274 1.386 . S
C273 C275 1.397 . S
C273 H297 0.931 . S
C274 C273 1.386 . S
C274 C278 1.397 . S
C275 C273 1.397 . S
C275 C276 1.384 . S
C275 H298 0.930 . S
C276 C275 1.384 . S
C276 C277 1.377 . S
C276 C279 1.481 . S
C277 C276 1.377 . S
C277 C278 1.389 . S
C277 H299 0.929 . S
C278 C274 1.397 . S
C278 C277 1.389 . S
C278 H300 0.931 . S
C279 C276 1.481 . S
C279 C280 1.387 . S
C279 C284 1.390 . S
C280 C279 1.387 . S
C280 C281 1.401 . S
C280 H301 0.930 . S
C281 C280 1.401 . S
C281 C282 1.376 . S
C281 C290 1.511 . S
C282 C281 1.376 . S
C282 C283 1.392 . S
C282 H303 0.931 . S
C283 C282 1.392 . S
C283 C284 1.361 . S
C283 C285 1.500 . S
C284 C279 1.390 . S
C284 C283 1.361 . S
C284 H302 0.931 . S
C285 C283 1.500 . S
C285 C286 1.371 . S
C285 C287 1.365 . S
C286 C285 1.371 . S
C286 C296 1.386 . S
C286 H304 0.931 . S
C287 C285 1.365 . S
C287 C288 1.409 . S
C287 H305 0.929 . S
C288 C287 1.409 . S
C288 C289 1.380 . S
C288 H306 0.930 . S
C289 C288 1.380 . S
C289 C296 1.357 . S
C290 C281 1.511 . S
C290 C291 1.341 . S
C290 C292 1.371 . S
C291 C290 1.341 . S
C291 C295 1.394 . S
C291 H307 0.930 . S
C292 C290 1.371 . S
C292 C293 1.392 . S
C292 H308 0.931 . S
C293 C292 1.392 . S
C293 C294 1.331 . S
C293 H311 0.932 . S
C294 C293 1.331 . S
C294 C295 1.336 . S
C295 C291 1.394 . S
C295 C294 1.336 . S
C295 H310 0.929 . S
C296 C286 1.386 . S
C296 C289 1.357 . S
C296 H309 0.928 . S
H297 C273 0.931 . S
H298 C275 0.930 . S
H299 C277 0.929 . S
H300 C278 0.931 . S
H301 C280 0.930 . S
H302 C284 0.931 . S
H303 C282 0.931 . S
H304 C286 0.931 . S
H305 C287 0.929 . S
H306 C288 0.930 . S
H307 C291 0.930 . S
H308 C292 0.931 . S
H309 C296 0.928 . S
H310 C295 0.929 . S
H311 C293 0.932 . S
La312 C314 2.928 . S
La312 O332 2.521 . S
La312 O333 2.628 . S
La312 O334 2.554 1_545 S
La312 O335 2.757 1_545 S
La312 O336 2.470 . S
La312 O341 2.482 1_455 S
La312 O343 2.503 1_445 S
La313 C323 2.928 . S
La313 O335 2.482 1_655 S
La313 O337 2.503 1_665 S
La313 O338 2.521 . S
La313 O339 2.628 . S
La313 O340 2.554 1_565 S
La313 O341 2.757 1_565 S
La313 O342 2.470 . S
C314 La312 2.928 . S
C314 C315 1.503 . S
C314 O332 1.261 . S
C314 O333 1.243 . S
C315 C314 1.503 . S
C315 C316 1.394 . S
C315 C320 1.373 . S
C316 C315 1.394 . S
C316 C317 1.380 . S
C316 H344 0.930 . S
C317 C316 1.380 . S
C317 C318 1.376 . S
C317 H345 0.930 . S
C318 C317 1.376 . S
C318 C319 1.370 . S
C319 C318 1.370 . S
C319 C320 1.396 . S
C319 H346 0.929 . S
C320 C315 1.373 . S
C320 C319 1.396 . S
C320 H347 0.929 . S
C321 O334 1.240 . S
C321 O335 1.289 . S
C322 O336 1.258 . S
C322 O337 1.256 . S
C323 La313 2.928 . S
C323 C324 1.503 . S
C323 O338 1.261 . S
C323 O339 1.243 . S
C324 C323 1.503 . S
C324 C325 1.394 . S
C324 C329 1.373 . S
C325 C324 1.394 . S
C325 C326 1.380 . S
C325 H348 0.930 . S
C326 C325 1.380 . S
C326 C327 1.376 . S
C326 H349 0.930 . S
C327 C326 1.376 . S
C327 C328 1.370 . S
C328 C327 1.370 . S
C328 C329 1.396 . S
C328 H350 0.929 . S
C329 C324 1.373 . S
C329 C328 1.396 . S
C329 H351 0.929 . S
C330 O340 1.240 . S
C330 O341 1.289 . S
C331 O342 1.258 . S
C331 O343 1.256 . S
O332 La312 2.521 . S
O332 C314 1.261 . S
O333 La312 2.628 . S
O333 C314 1.243 . S
O334 La312 2.554 1_565 S
O334 C321 1.240 . S
O335 La312 2.757 1_565 S
O335 La313 2.482 1_455 S
O335 C321 1.289 . S
O336 La312 2.470 . S
O336 C322 1.258 . S
O337 La313 2.503 1_445 S
O337 C322 1.256 . S
O338 La313 2.521 . S
O338 C323 1.261 . S
O339 La313 2.628 . S
O339 C323 1.243 . S
O340 La313 2.554 1_545 S
O340 C330 1.240 . S
O341 La312 2.482 1_655 S
O341 La313 2.757 1_545 S
O341 C330 1.289 . S
O342 La313 2.470 . S
O342 C331 1.258 . S
O343 La312 2.503 1_665 S
O343 C331 1.256 . S
H344 C316 0.930 . S
H345 C317 0.930 . S
H346 C319 0.929 . S
H347 C320 0.929 . S
H348 C325 0.930 . S
H349 C326 0.930 . S
H350 C328 0.929 . S
H351 C329 0.929 . S
La352 C354 2.911 1_565 S
La352 O372 2.519 1_565 S
La352 O373 2.599 1_565 S
La352 O374 2.579 . S
La352 O375 2.770 . S
La352 O376 2.452 1_565 S
La352 O381 2.457 1_564 S
La352 O383 2.522 1_554 S
La353 C363 2.928 1_545 S
La353 O375 2.482 1_546 S
La353 O377 2.503 1_556 S
La353 O378 2.521 1_545 S
La353 O379 2.628 1_545 S
La353 O380 2.554 . S
La353 O381 2.757 . S
La353 O382 2.470 1_545 S
C354 La352 2.911 1_545 S
C354 C355 1.503 . S
C354 O372 1.261 . S
C354 O373 1.243 . S
C355 C354 1.503 . S
C355 C356 1.394 . S
C355 C360 1.373 . S
C356 C355 1.394 . S
C356 C357 1.380 . S
C356 H384 0.930 . S
C357 C356 1.380 . S
C357 C358 1.376 . S
C357 H385 0.930 . S
C358 C357 1.376 . S
C358 C359 1.370 . S
C359 C358 1.370 . S
C359 C360 1.396 . S
C359 H386 0.929 . S
C360 C355 1.373 . S
C360 C359 1.396 . S
C360 H387 0.929 . S
C361 O374 1.240 . S
C361 O375 1.289 . S
C362 O376 1.258 . S
C362 O377 1.256 . S
C363 La353 2.928 1_565 S
C363 C364 1.503 . S
C363 O378 1.261 . S
C363 O379 1.243 . S
C364 C363 1.503 . S
C364 C365 1.394 . S
C364 C369 1.373 . S
C365 C364 1.394 . S
C365 C366 1.380 . S
C365 H388 0.930 . S
C366 C365 1.380 . S
C366 C367 1.376 . S
C366 H389 0.930 . S
C367 C366 1.376 . S
C367 C368 1.370 . S
C368 C367 1.370 . S
C368 C369 1.396 . S
C368 H390 0.929 . S
C369 C364 1.373 . S
C369 C368 1.396 . S
C369 H391 0.929 . S
C370 O380 1.240 . S
C370 O381 1.289 . S
C371 O382 1.258 . S
C371 O383 1.256 . S
O372 La352 2.519 1_545 S
O372 C354 1.261 . S
O373 La352 2.599 1_545 S
O373 C354 1.243 . S
O374 La352 2.579 . S
O374 C361 1.240 . S
O375 La352 2.770 . S
O375 La353 2.482 1_564 S
O375 C361 1.289 . S
O376 La352 2.452 1_545 S
O376 C362 1.258 . S
O377 La353 2.503 1_554 S
O377 C362 1.256 . S
O378 La353 2.521 1_565 S
O378 C363 1.261 . S
O379 La353 2.628 1_565 S
O379 C363 1.243 . S
O380 La353 2.554 . S
O380 C370 1.240 . S
O381 La352 2.457 1_546 S
O381 La353 2.757 . S
O381 C370 1.289 . S
O382 La353 2.470 1_565 S
O382 C371 1.258 . S
O383 La352 2.522 1_556 S
O383 C371 1.256 . S
H384 C356 0.930 . S
H385 C357 0.930 . S
H386 C359 0.929 . S
H387 C360 0.929 . S
H388 C365 0.930 . S
H389 C366 0.930 . S
H390 C368 0.929 . S
H391 C369 0.929 . S
La392 C394 2.928 . S
La392 O412 2.521 . S
La392 O413 2.628 . S
La392 O414 2.554 . S
La392 O415 2.757 . S
La392 O416 2.470 . S
La392 O421 2.482 . S
La392 O423 2.503 . S
La393 C403 2.928 . S
La393 O415 2.482 . S
La393 O417 2.503 . S
La393 O418 2.521 . S
La393 O419 2.628 . S
La393 O420 2.554 . S
La393 O421 2.757 . S
La393 O422 2.470 . S
C394 La392 2.928 . S
C394 C395 1.503 . S
C394 O412 1.261 . S
C394 O413 1.243 . S
C395 C394 1.503 . S
C395 C396 1.394 . S
C395 C400 1.373 . S
C396 C395 1.394 . S
C396 C397 1.380 . S
C396 H424 0.930 . S
C397 C396 1.380 . S
C397 C398 1.376 . S
C397 H425 0.930 . S
C398 C397 1.376 . S
C398 C399 1.370 . S
C399 C398 1.370 . S
C399 C400 1.396 . S
C399 H426 0.929 . S
C400 C395 1.373 . S
C400 C399 1.396 . S
C400 H427 0.929 . S
C401 O414 1.240 . S
C401 O415 1.289 . S
C402 O416 1.258 . S
C402 O417 1.256 . S
C403 La393 2.928 . S
C403 C404 1.503 . S
C403 O418 1.261 . S
C403 O419 1.243 . S
C404 C403 1.503 . S
C404 C405 1.394 . S
C404 C409 1.373 . S
C405 C404 1.394 . S
C405 C406 1.380 . S
C405 H428 0.930 . S
C406 C405 1.380 . S
C406 C407 1.376 . S
C406 H429 0.930 . S
C407 C406 1.376 . S
C407 C408 1.370 . S
C408 C407 1.370 . S
C408 C409 1.396 . S
C408 H430 0.929 . S
C409 C404 1.373 . S
C409 C408 1.396 . S
C409 H431 0.929 . S
C410 O420 1.240 . S
C410 O421 1.289 . S
C411 O422 1.258 . S
C411 O423 1.256 . S
O412 La392 2.521 . S
O412 C394 1.261 . S
O413 La392 2.628 . S
O413 C394 1.243 . S
O414 La392 2.554 . S
O414 C401 1.240 . S
O415 La392 2.757 . S
O415 La393 2.482 . S
O415 C401 1.289 . S
O416 La392 2.470 . S
O416 C402 1.258 . S
O417 La393 2.503 . S
O417 C402 1.256 . S
O418 La393 2.521 . S
O418 C403 1.261 . S
O419 La393 2.628 . S
O419 C403 1.243 . S
O420 La393 2.554 . S
O420 C410 1.240 . S
O421 La392 2.482 . S
O421 La393 2.757 . S
O421 C410 1.289 . S
O422 La393 2.470 . S
O422 C411 1.258 . S
O423 La392 2.503 . S
O423 C411 1.256 . S
H424 C396 0.930 . S
H425 C397 0.930 . S
H426 C399 0.929 . S
H427 C400 0.929 . S
H428 C405 0.930 . S
H429 C406 0.930 . S
H430 C408 0.929 . S
H431 C409 0.929 . S
La432 C434 2.928 . S
La432 O452 2.521 . S
La432 O453 2.628 . S
La432 O454 2.554 1_455 S
La432 O455 2.757 1_455 S
La432 O456 2.470 . S
La432 O461 2.482 1_554 S
La432 O463 2.503 1_454 S
La433 C443 2.928 . S
La433 O455 2.482 1_556 S
La433 O457 2.503 1_656 S
La433 O458 2.521 . S
La433 O459 2.628 . S
La433 O460 2.554 1_655 S
La433 O461 2.757 1_655 S
La433 O462 2.470 . S
C434 La432 2.928 . S
C434 C435 1.503 . S
C434 O452 1.261 . S
C434 O453 1.243 . S
C435 C434 1.503 . S
C435 C436 1.394 . S
C435 C440 1.373 . S
C436 C435 1.394 . S
C436 C437 1.380 . S
C436 H464 0.930 . S
C437 C436 1.380 . S
C437 C438 1.376 . S
C437 H465 0.930 . S
C438 C437 1.376 . S
C438 C439 1.370 . S
C439 C438 1.370 . S
C439 C440 1.396 . S
C439 H466 0.929 . S
C440 C435 1.373 . S
C440 C439 1.396 . S
C440 H467 0.929 . S
C441 O454 1.240 . S
C441 O455 1.289 . S
C442 O456 1.258 . S
C442 O457 1.256 . S
C443 La433 2.928 . S
C443 C444 1.503 . S
C443 O458 1.261 . S
C443 O459 1.243 . S
C444 C443 1.503 . S
C444 C445 1.394 . S
C444 C449 1.373 . S
C445 C444 1.394 . S
C445 C446 1.380 . S
C445 H468 0.930 . S
C446 C445 1.380 . S
C446 C447 1.376 . S
C446 H469 0.930 . S
C447 C446 1.376 . S
C447 C448 1.370 . S
C448 C447 1.370 . S
C448 C449 1.396 . S
C448 H470 0.929 . S
C449 C444 1.373 . S
C449 C448 1.396 . S
C449 H471 0.929 . S
C450 O460 1.240 . S
C450 O461 1.289 . S
C451 O462 1.258 . S
C451 O463 1.256 . S
O452 La432 2.521 . S
O452 C434 1.261 . S
O453 La432 2.628 . S
O453 C434 1.243 . S
O454 La432 2.554 1_655 S
O454 C441 1.240 . S
O455 La432 2.757 1_655 S
O455 La433 2.482 1_554 S
O455 C441 1.289 . S
O456 La432 2.470 . S
O456 C442 1.258 . S
O457 La433 2.503 1_454 S
O457 C442 1.256 . S
O458 La433 2.521 . S
O458 C443 1.261 . S
O459 La433 2.628 . S
O459 C443 1.243 . S
O460 La433 2.554 1_455 S
O460 C450 1.240 . S
O461 La432 2.482 1_556 S
O461 La433 2.757 1_455 S
O461 C450 1.289 . S
O462 La433 2.470 . S
O462 C451 1.258 . S
O463 La432 2.503 1_656 S
O463 C451 1.256 . S
H464 C436 0.930 . S
H465 C437 0.930 . S
H466 C439 0.929 . S
H467 C440 0.929 . S
H468 C445 0.930 . S
H469 C446 0.930 . S
H470 C448 0.929 . S
H471 C449 0.929 . S
C472 C473 1.369 . S
C472 C474 1.419 . S
C472 H476 0.930 . S
C473 C472 1.369 . S
C473 C482 1.429 . S
C474 C472 1.419 . S
C474 C475 1.363 . S
C474 H477 0.929 . S
C475 C474 1.363 . S
C475 C481 1.428 . S
H476 C472 0.930 . S
H477 C474 0.929 . S
S478 N479 1.613 . S
S478 N480 1.610 . S
N479 S478 1.613 . S
N479 C482 1.350 . S
N480 S478 1.610 . S
N480 C481 1.351 . S
C481 C475 1.428 . S
C481 N480 1.351 . S
C481 C482 1.434 . S
C482 C473 1.429 . S
C482 N479 1.350 . S
C482 C481 1.434 . S
C483 C484 1.369 . S
C483 C485 1.419 . S
C483 H487 0.930 . S
C484 C483 1.369 . S
C484 C493 1.429 . S
C485 C483 1.419 . S
C485 C486 1.363 . S
C485 H488 0.929 . S
C486 C485 1.363 . S
C486 C492 1.428 . S
H487 C483 0.930 . S
H488 C485 0.929 . S
S489 N490 1.613 . S
S489 N491 1.610 . S
N490 S489 1.613 . S
N490 C493 1.350 . S
N491 S489 1.610 . S
N491 C492 1.351 . S
C492 C486 1.428 . S
C492 N491 1.351 . S
C492 C493 1.434 . S
C493 C484 1.429 . S
C493 N490 1.350 . S
C493 C492 1.434 . S
C494 C495 1.369 . S
C494 C496 1.419 . S
C494 H498 0.930 . S
C495 C494 1.369 . S
C495 C504 1.429 . S
C496 C494 1.419 . S
C496 C497 1.363 . S
C496 H499 0.929 . S
C497 C496 1.363 . S
C497 C503 1.428 . S
H498 C494 0.930 . S
H499 C496 0.929 . S
S500 N501 1.613 . S
S500 N502 1.610 . S
N501 S500 1.613 . S
N501 C504 1.350 . S
N502 S500 1.610 . S
N502 C503 1.351 . S
C503 C497 1.428 . S
C503 N502 1.351 . S
C503 C504 1.434 . S
C504 C495 1.429 . S
C504 N501 1.350 . S
C504 C503 1.434 . S
C505 C506 1.369 . S
C505 C507 1.419 . S
C505 H509 0.930 . S
C506 C505 1.369 . S
C506 C515 1.429 . S
C507 C505 1.419 . S
C507 C508 1.363 . S
C507 H510 0.929 . S
C508 C507 1.363 . S
C508 C514 1.428 . S
H509 C505 0.930 . S
H510 C507 0.929 . S
S511 N512 1.613 . S
S511 N513 1.610 . S
N512 S511 1.613 . S
N512 C515 1.350 . S
N513 S511 1.610 . S
N513 C514 1.351 . S
C514 C508 1.428 . S
C514 N513 1.351 . S
C514 C515 1.434 . S
C515 C506 1.429 . S
C515 N512 1.350 . S
C515 C514 1.434 . S
C516 C517 1.369 . S
C516 C518 1.419 . S
C516 H520 0.930 . S
C517 C516 1.369 . S
C517 C526 1.429 . S
C518 C516 1.419 . S
C518 C519 1.363 . S
C518 H521 0.929 . S
C519 C518 1.363 . S
C519 C525 1.428 . S
H520 C516 0.930 . S
H521 C518 0.929 . S
S522 N523 1.613 . S
S522 N524 1.610 . S
N523 S522 1.613 . S
N523 C526 1.350 . S
N524 S522 1.610 . S
N524 C525 1.351 . S
C525 C519 1.428 . S
C525 N524 1.351 . S
C525 C526 1.434 . S
C526 C517 1.429 . S
C526 N523 1.350 . S
C526 C525 1.434 . S
C527 C528 1.369 . S
C527 C529 1.419 . S
C527 H531 0.930 . S
C528 C527 1.369 . S
C528 C537 1.429 . S
C529 C527 1.419 . S
C529 C530 1.363 . S
C529 H532 0.929 . S
C530 C529 1.363 . S
C530 C536 1.428 . S
H531 C527 0.930 . S
H532 C529 0.929 . S
S533 N534 1.613 . S
S533 N535 1.610 . S
N534 S533 1.613 . S
N534 C537 1.350 . S
N535 S533 1.610 . S
N535 C536 1.351 . S
C536 C530 1.428 . S
C536 N535 1.351 . S
C536 C537 1.434 . S
C537 C528 1.429 . S
C537 N534 1.350 . S
C537 C536 1.434 . S
C538 C539 1.369 . S
C538 C540 1.419 . S
C538 H542 0.930 . S
C539 C538 1.369 . S
C539 C548 1.429 . S
C540 C538 1.419 . S
C540 C541 1.363 . S
C540 H543 0.929 . S
C541 C540 1.363 . S
C541 C547 1.428 . S
H542 C538 0.930 . S
H543 C540 0.929 . S
S544 N545 1.613 . S
S544 N546 1.610 . S
N545 S544 1.613 . S
N545 C548 1.350 . S
N546 S544 1.610 . S
N546 C547 1.351 . S
C547 C541 1.428 . S
C547 N546 1.351 . S
C547 C548 1.434 . S
C548 C539 1.429 . S
C548 N545 1.350 . S
C548 C547 1.434 . S
C549 C550 1.369 . S
C549 C551 1.419 . S
C549 H553 0.930 . S
C550 C549 1.369 . S
C550 C559 1.429 . S
C551 C549 1.419 . S
C551 C552 1.363 . S
C551 H554 0.929 . S
C552 C551 1.363 . S
C552 C558 1.428 . S
H553 C549 0.930 . S
H554 C551 0.929 . S
S555 N556 1.613 . S
S555 N557 1.610 . S
N556 S555 1.613 . S
N556 C559 1.350 . S
N557 S555 1.610 . S
N557 C558 1.351 . S
C558 C552 1.428 . S
C558 N557 1.351 . S
C558 C559 1.434 . S
C559 C550 1.429 . S
C559 N556 1.350 . S
C559 C558 1.434 . S
C560 C561 1.369 . S
C560 C562 1.419 . S
C560 H564 0.930 . S
C561 C560 1.369 . S
C561 C570 1.429 . S
C562 C560 1.419 . S
C562 C563 1.363 . S
C562 H565 0.929 . S
C563 C562 1.363 . S
C563 C569 1.428 . S
H564 C560 0.930 . S
H565 C562 0.929 . S
S566 N567 1.613 . S
S566 N568 1.610 . S
N567 S566 1.613 . S
N567 C570 1.350 . S
N568 S566 1.610 . S
N568 C569 1.351 . S
C569 C563 1.428 . S
C569 N568 1.351 . S
C569 C570 1.434 . S
C570 C561 1.429 . S
C570 N567 1.350 . S
C570 C569 1.434 . S
C571 C572 1.369 . S
C571 C573 1.419 . S
C571 H575 0.930 . S
C572 C571 1.369 . S
C572 C581 1.429 . S
C573 C571 1.419 . S
C573 C574 1.363 . S
C573 H576 0.929 . S
C574 C573 1.363 . S
C574 C580 1.428 . S
H575 C571 0.930 . S
H576 C573 0.929 . S
S577 N578 1.613 . S
S577 N579 1.610 . S
N578 S577 1.613 . S
N578 C581 1.350 . S
N579 S577 1.610 . S
N579 C580 1.351 . S
C580 C574 1.428 . S
C580 N579 1.351 . S
C580 C581 1.434 . S
C581 C572 1.429 . S
C581 N578 1.350 . S
C581 C580 1.434 . S
C582 C583 1.369 . S
C582 C584 1.419 . S
C582 H586 0.930 . S
C583 C582 1.369 . S
C583 C592 1.429 . S
C584 C582 1.419 . S
C584 C585 1.363 . S
C584 H587 0.929 . S
C585 C584 1.363 . S
C585 C591 1.428 . S
H586 C582 0.930 . S
H587 C584 0.929 . S
S588 N589 1.613 . S
S588 N590 1.610 . S
N589 S588 1.613 . S
N589 C592 1.350 . S
N590 S588 1.610 . S
N590 C591 1.351 . S
C591 C585 1.428 . S
C591 N590 1.351 . S
C591 C592 1.434 . S
C592 C583 1.429 . S
C592 N589 1.350 . S
C592 C591 1.434 . S
C593 C594 1.369 . S
C593 C595 1.419 . S
C593 H597 0.930 . S
C594 C593 1.369 . S
C594 C603 1.429 . S
C595 C593 1.419 . S
C595 C596 1.363 . S
C595 H598 0.929 . S
C596 C595 1.363 . S
C596 C602 1.428 . S
H597 C593 0.930 . S
H598 C595 0.929 . S
S599 N600 1.613 . S
S599 N601 1.610 . S
N600 S599 1.613 . S
N600 C603 1.350 . S
N601 S599 1.610 . S
N601 C602 1.351 . S
C602 C596 1.428 . S
C602 N601 1.351 . S
C602 C603 1.434 . S
C603 C594 1.429 . S
C603 N600 1.350 . S
C603 C602 1.434 . S
C604 C605 1.369 . S
C604 C606 1.419 . S
C604 H608 0.930 . S
C605 C604 1.369 . S
C605 C614 1.429 . S
C606 C604 1.419 . S
C606 C607 1.363 . S
C606 H609 0.929 . S
C607 C606 1.363 . S
C607 C613 1.428 . S
H608 C604 0.930 . S
H609 C606 0.929 . S
S610 N611 1.613 . S
S610 N612 1.610 . S
N611 S610 1.613 . S
N611 C614 1.350 . S
N612 S610 1.610 . S
N612 C613 1.351 . S
C613 C607 1.428 . S
C613 N612 1.351 . S
C613 C614 1.434 . S
C614 C605 1.429 . S
C614 N611 1.350 . S
C614 C613 1.434 . S
C615 C616 1.369 . S
C615 C617 1.419 . S
C615 H619 0.930 . S
C616 C615 1.369 . S
C616 C625 1.429 . S
C617 C615 1.419 . S
C617 C618 1.363 . S
C617 H620 0.929 . S
C618 C617 1.363 . S
C618 C624 1.428 . S
H619 C615 0.930 . S
H620 C617 0.929 . S
S621 N622 1.613 . S
S621 N623 1.610 . S
N622 S621 1.613 . S
N622 C625 1.350 . S
N623 S621 1.610 . S
N623 C624 1.351 . S
C624 C618 1.428 . S
C624 N623 1.351 . S
C624 C625 1.434 . S
C625 C616 1.429 . S
C625 N622 1.350 . S
C625 C624 1.434 . S
C626 C627 1.369 . S
C626 C628 1.419 . S
C626 H630 0.930 . S
C627 C626 1.369 . S
C627 C636 1.429 . S
C628 C626 1.419 . S
C628 C629 1.363 . S
C628 H631 0.929 . S
C629 C628 1.363 . S
C629 C635 1.428 . S
H630 C626 0.930 . S
H631 C628 0.929 . S
S632 N633 1.613 . S
S632 N634 1.610 . S
N633 S632 1.613 . S
N633 C636 1.350 . S
N634 S632 1.610 . S
N634 C635 1.351 . S
C635 C629 1.428 . S
C635 N634 1.351 . S
C635 C636 1.434 . S
C636 C627 1.429 . S
C636 N633 1.350 . S
C636 C635 1.434 . S
C637 C638 1.369 . S
C637 C639 1.419 . S
C637 H641 0.930 . S
C638 C637 1.369 . S
C638 C647 1.429 . S
C639 C637 1.419 . S
C639 C640 1.363 . S
C639 H642 0.929 . S
C640 C639 1.363 . S
C640 C646 1.428 . S
H641 C637 0.930 . S
H642 C639 0.929 . S
S643 N644 1.613 . S
S643 N645 1.610 . S
N644 S643 1.613 . S
N644 C647 1.350 . S
N645 S643 1.610 . S
N645 C646 1.351 . S
C646 C640 1.428 . S
C646 N645 1.351 . S
C646 C647 1.434 . S
C647 C638 1.429 . S
C647 N644 1.350 . S
C647 C646 1.434 . S
C648 C649 1.369 . S
C648 C650 1.419 . S
C648 H652 0.930 . S
C649 C648 1.369 . S
C649 C658 1.429 . S
C650 C648 1.419 . S
C650 C651 1.363 . S
C650 H653 0.929 . S
C651 C650 1.363 . S
C651 C657 1.428 . S
H652 C648 0.930 . S
H653 C650 0.929 . S
S654 N655 1.613 . S
S654 N656 1.610 . S
N655 S654 1.613 . S
N655 C658 1.350 . S
N656 S654 1.610 . S
N656 C657 1.351 . S
C657 C651 1.428 . S
C657 N656 1.351 . S
C657 C658 1.434 . S
C658 C649 1.429 . S
C658 N655 1.350 . S
C658 C657 1.434 . S
C659 C660 1.369 . S
C659 C661 1.419 . S
C659 H663 0.930 . S
C660 C659 1.369 . S
C660 C669 1.429 . S
C661 C659 1.419 . S
C661 C662 1.363 . S
C661 H664 0.929 . S
C662 C661 1.363 . S
C662 C668 1.428 . S
H663 C659 0.930 . S
H664 C661 0.929 . S
S665 N666 1.613 . S
S665 N667 1.610 . S
N666 S665 1.613 . S
N666 C669 1.350 . S
N667 S665 1.610 . S
N667 C668 1.351 . S
C668 C662 1.428 . S
C668 N667 1.351 . S
C668 C669 1.434 . S
C669 C660 1.429 . S
C669 N666 1.350 . S
C669 C668 1.434 . S
C670 C671 1.369 . S
C670 C672 1.419 . S
C670 H674 0.930 . S
C671 C670 1.369 . S
C671 C680 1.429 . S
C672 C670 1.419 . S
C672 C673 1.363 . S
C672 H675 0.929 . S
C673 C672 1.363 . S
C673 C679 1.428 . S
H674 C670 0.930 . S
H675 C672 0.929 . S
S676 N677 1.613 1_556 S
S676 N678 1.610 . S
N677 S676 1.613 1_554 S
N677 C680 1.350 . S
N678 S676 1.610 . S
N678 C679 1.351 1_556 S
C679 C673 1.428 . S
C679 N678 1.351 1_554 S
C679 C680 1.434 . S
C680 C671 1.429 . S
C680 N677 1.350 . S
C680 C679 1.434 . S
C681 C682 1.369 . S
C681 C683 1.419 . S
C681 H685 0.930 . S
C682 C681 1.369 . S
C682 C691 1.429 . S
C683 C681 1.419 . S
C683 C684 1.363 . S
C683 H686 0.929 . S
C684 C683 1.363 . S
C684 C690 1.428 . S
H685 C681 0.930 . S
H686 C683 0.929 . S
S687 N688 1.613 . S
S687 N689 1.610 . S
N688 S687 1.613 . S
N688 C691 1.350 . S
N689 S687 1.610 . S
N689 C690 1.351 . S
C690 C684 1.428 . S
C690 N689 1.351 . S
C690 C691 1.434 . S
C691 C682 1.429 . S
C691 N688 1.350 . S
C691 C690 1.434 . S
C692 C693 1.369 . S
C692 C694 1.419 . S
C692 H696 0.930 . S
C693 C692 1.369 . S
C693 C702 1.429 . S
C694 C692 1.419 . S
C694 C695 1.363 . S
C694 H697 0.929 . S
C695 C694 1.363 . S
C695 C701 1.428 . S
H696 C692 0.930 . S
H697 C694 0.929 . S
S698 N699 1.613 . S
S698 N700 1.610 . S
N699 S698 1.613 . S
N699 C702 1.350 . S
N700 S698 1.610 . S
N700 C701 1.351 . S
C701 C695 1.428 . S
C701 N700 1.351 . S
C701 C702 1.434 . S
C702 C693 1.429 . S
C702 N699 1.350 . S
C702 C701 1.434 . S
C703 C704 1.369 . S
C703 C705 1.419 . S
C703 H707 0.930 . S
C704 C703 1.369 . S
C704 C713 1.429 . S
C705 C703 1.419 . S
C705 C706 1.363 . S
C705 H708 0.929 . S
C706 C705 1.363 . S
C706 C712 1.428 . S
H707 C703 0.930 . S
H708 C705 0.929 . S
S709 N710 1.613 . S
S709 N711 1.610 . S
N710 S709 1.613 . S
N710 C713 1.350 . S
N711 S709 1.610 . S
N711 C712 1.351 . S
C712 C706 1.428 . S
C712 N711 1.351 . S
C712 C713 1.434 . S
C713 C704 1.429 . S
C713 N710 1.350 . S
C713 C712 1.434 . S
C714 C715 1.369 . S
C714 C716 1.419 . S
C714 H718 0.930 . S
C715 C714 1.369 . S
C715 C724 1.429 . S
C716 C714 1.419 . S
C716 C717 1.363 . S
C716 H719 0.929 . S
C717 C716 1.363 . S
C717 C723 1.428 . S
H718 C714 0.930 . S
H719 C716 0.929 . S
S720 N721 1.613 1_655 S
S720 N722 1.610 . S
N721 S720 1.613 1_455 S
N721 C724 1.350 . S
N722 S720 1.610 . S
N722 C723 1.351 1_655 S
C723 C717 1.428 . S
C723 N722 1.351 1_455 S
C723 C724 1.434 . S
C724 C715 1.429 . S
C724 N721 1.350 . S
C724 C723 1.434 . S
C725 C726 1.369 . S
C725 C727 1.419 . S
C725 H729 0.930 . S
C726 C725 1.369 . S
C726 C735 1.429 . S
C727 C725 1.419 . S
C727 C728 1.363 . S
C727 H730 0.929 . S
C728 C727 1.363 . S
C728 C734 1.428 . S
H729 C725 0.930 . S
H730 C727 0.929 . S
S731 N732 1.613 . S
S731 N733 1.610 . S
N732 S731 1.613 . S
N732 C735 1.350 . S
N733 S731 1.610 . S
N733 C734 1.351 . S
C734 C728 1.428 . S
C734 N733 1.351 . S
C734 C735 1.434 . S
C735 C726 1.429 . S
C735 N732 1.350 . S
C735 C734 1.434 . S
C473 C1 1.304 . S
C475 C318 1.397 . S
C484 C40 1.065 . S
C486 C367 1.070 . S
C497 C402 2.505 . S
C495 C99 2.575 . S
C506 C118 2.473 . S
C508 C441 2.415 . S
C519 C362 2.612 . S
C517 C16 2.394 . S
C530 C321 0.845 . S
C528 C60 0.852 . S
C541 C451 1.926 . S
C539 C79 1.996 . S
C552 C410 1.695 . S
C550 C138 1.711 . S
C561 C21 1.685 . S
C563 C438 1.819 . S
C574 C370 2.350 . S
C572 C94 2.458 . S
C583 C133 2.357 . S
C585 C331 2.344 . S
C594 C55 1.076 . S
C596 C407 1.106 . S
C607 C327 1.398 . S
C605 C157 1.317 . S
C616 C196 1.073 . S
C618 C358 1.068 . S
C627 C255 2.573 . S
C629 C411 2.505 . S
C638 C289 2.470 . S
C640 C450 2.410 . S
C649 C172 2.377 . S
C651 C371 2.610 . S
C662 C330 0.838 . S
C660 C216 0.851 . S
C673 C442 1.927 . S
C671 C235 1.998 . S
C684 C401 1.693 . S
C682 C294 1.713 . S
C693 C177 1.717 . S
C695 C447 1.814 . S
C706 C361 2.350 . S
C704 C250 2.460 . S
C717 C322 2.346 . S
C715 C274 2.360 . S
C726 C211 1.069 . S
C728 C398 1.113 . S
