# Generated by pormake.
# Topology ctn, (3,4)-cn, num edge types: 1
# Building blocks:
#     Node 0, Type 0, BuildingBlock: VETTIZ_charged_linker_0, # of connection points: 3
#     Node 1, Type 0, BuildingBlock: VETTIZ_charged_linker_0, # of connection points: 3
#     Node 2, Type 0, BuildingBlock: VETTIZ_charged_linker_0, # of connection points: 3
#     Node 3, Type 0, BuildingBlock: VETTIZ_charged_linker_0, # of connection points: 3
#     Node 4, Type 0, BuildingBlock: VETTIZ_charged_linker_0, # of connection points: 3
#     Node 5, Type 0, BuildingBlock: VETTIZ_charged_linker_0, # of connection points: 3
#     Node 6, Type 0, BuildingBlock: VETTIZ_charged_linker_0, # of connection points: 3
#     Node 7, Type 0, BuildingBlock: VETTIZ_charged_linker_0, # of connection points: 3
#     Node 8, Type 0, BuildingBlock: VETTIZ_charged_linker_0, # of connection points: 3
#     Node 9, Type 0, BuildingBlock: VETTIZ_charged_linker_0, # of connection points: 3
#     Node 10, Type 0, BuildingBlock: VETTIZ_charged_linker_0, # of connection points: 3
#     Node 11, Type 0, BuildingBlock: VETTIZ_charged_linker_0, # of connection points: 3
#     Node 12, Type 0, BuildingBlock: VETTIZ_charged_linker_0, # of connection points: 3
#     Node 13, Type 0, BuildingBlock: VETTIZ_charged_linker_0, # of connection points: 3
#     Node 14, Type 0, BuildingBlock: VETTIZ_charged_linker_0, # of connection points: 3
#     Node 15, Type 0, BuildingBlock: VETTIZ_charged_linker_0, # of connection points: 3
#     Node 16, Type 1, BuildingBlock: KUFVIS_clean_sbu_0, # of connection points: 4
#     Node 17, Type 1, BuildingBlock: KUFVIS_clean_sbu_0, # of connection points: 4
#     Node 18, Type 1, BuildingBlock: KUFVIS_clean_sbu_0, # of connection points: 4
#     Node 19, Type 1, BuildingBlock: KUFVIS_clean_sbu_0, # of connection points: 4
#     Node 20, Type 1, BuildingBlock: KUFVIS_clean_sbu_0, # of connection points: 4
#     Node 21, Type 1, BuildingBlock: KUFVIS_clean_sbu_0, # of connection points: 4
#     Node 22, Type 1, BuildingBlock: KUFVIS_clean_sbu_0, # of connection points: 4
#     Node 23, Type 1, BuildingBlock: KUFVIS_clean_sbu_0, # of connection points: 4
#     Node 24, Type 1, BuildingBlock: KUFVIS_clean_sbu_0, # of connection points: 4
#     Node 25, Type 1, BuildingBlock: KUFVIS_clean_sbu_0, # of connection points: 4
#     Node 26, Type 1, BuildingBlock: KUFVIS_clean_sbu_0, # of connection points: 4
#     Node 27, Type 1, BuildingBlock: KUFVIS_clean_sbu_0, # of connection points: 4
#     Edge 28, Type (0, 1), BuildingBlock: TEMPAE_clean_linker_10, # of connection points: 2
#     Edge 29, Type (0, 1), BuildingBlock: TEMPAE_clean_linker_10, # of connection points: 2
#     Edge 30, Type (0, 1), BuildingBlock: TEMPAE_clean_linker_10, # of connection points: 2
#     Edge 31, Type (0, 1), BuildingBlock: TEMPAE_clean_linker_10, # of connection points: 2
#     Edge 32, Type (0, 1), BuildingBlock: TEMPAE_clean_linker_10, # of connection points: 2
#     Edge 33, Type (0, 1), BuildingBlock: TEMPAE_clean_linker_10, # of connection points: 2
#     Edge 34, Type (0, 1), BuildingBlock: TEMPAE_clean_linker_10, # of connection points: 2
#     Edge 35, Type (0, 1), BuildingBlock: TEMPAE_clean_linker_10, # of connection points: 2
#     Edge 36, Type (0, 1), BuildingBlock: TEMPAE_clean_linker_10, # of connection points: 2
#     Edge 37, Type (0, 1), BuildingBlock: TEMPAE_clean_linker_10, # of connection points: 2
#     Edge 38, Type (0, 1), BuildingBlock: TEMPAE_clean_linker_10, # of connection points: 2
#     Edge 39, Type (0, 1), BuildingBlock: TEMPAE_clean_linker_10, # of connection points: 2
#     Edge 40, Type (0, 1), BuildingBlock: TEMPAE_clean_linker_10, # of connection points: 2
#     Edge 41, Type (0, 1), BuildingBlock: TEMPAE_clean_linker_10, # of connection points: 2
#     Edge 42, Type (0, 1), BuildingBlock: TEMPAE_clean_linker_10, # of connection points: 2
#     Edge 43, Type (0, 1), BuildingBlock: TEMPAE_clean_linker_10, # of connection points: 2
#     Edge 44, Type (0, 1), BuildingBlock: TEMPAE_clean_linker_10, # of connection points: 2
#     Edge 45, Type (0, 1), BuildingBlock: TEMPAE_clean_linker_10, # of connection points: 2
#     Edge 46, Type (0, 1), BuildingBlock: TEMPAE_clean_linker_10, # of connection points: 2
#     Edge 47, Type (0, 1), BuildingBlock: TEMPAE_clean_linker_10, # of connection points: 2
#     Edge 48, Type (0, 1), BuildingBlock: TEMPAE_clean_linker_10, # of connection points: 2
#     Edge 49, Type (0, 1), BuildingBlock: TEMPAE_clean_linker_10, # of connection points: 2
#     Edge 50, Type (0, 1), BuildingBlock: TEMPAE_clean_linker_10, # of connection points: 2
#     Edge 51, Type (0, 1), BuildingBlock: TEMPAE_clean_linker_10, # of connection points: 2
#     Edge 52, Type (0, 1), BuildingBlock: TEMPAE_clean_linker_10, # of connection points: 2
#     Edge 53, Type (0, 1), BuildingBlock: TEMPAE_clean_linker_10, # of connection points: 2
#     Edge 54, Type (0, 1), BuildingBlock: TEMPAE_clean_linker_10, # of connection points: 2
#     Edge 55, Type (0, 1), BuildingBlock: TEMPAE_clean_linker_10, # of connection points: 2
#     Edge 56, Type (0, 1), BuildingBlock: TEMPAE_clean_linker_10, # of connection points: 2
#     Edge 57, Type (0, 1), BuildingBlock: TEMPAE_clean_linker_10, # of connection points: 2
#     Edge 58, Type (0, 1), BuildingBlock: TEMPAE_clean_linker_10, # of connection points: 2
#     Edge 59, Type (0, 1), BuildingBlock: TEMPAE_clean_linker_10, # of connection points: 2
#     Edge 60, Type (0, 1), BuildingBlock: TEMPAE_clean_linker_10, # of connection points: 2
#     Edge 61, Type (0, 1), BuildingBlock: TEMPAE_clean_linker_10, # of connection points: 2
#     Edge 62, Type (0, 1), BuildingBlock: TEMPAE_clean_linker_10, # of connection points: 2
#     Edge 63, Type (0, 1), BuildingBlock: TEMPAE_clean_linker_10, # of connection points: 2
#     Edge 64, Type (0, 1), BuildingBlock: TEMPAE_clean_linker_10, # of connection points: 2
#     Edge 65, Type (0, 1), BuildingBlock: TEMPAE_clean_linker_10, # of connection points: 2
#     Edge 66, Type (0, 1), BuildingBlock: TEMPAE_clean_linker_10, # of connection points: 2
#     Edge 67, Type (0, 1), BuildingBlock: TEMPAE_clean_linker_10, # of connection points: 2
#     Edge 68, Type (0, 1), BuildingBlock: TEMPAE_clean_linker_10, # of connection points: 2
#     Edge 69, Type (0, 1), BuildingBlock: TEMPAE_clean_linker_10, # of connection points: 2
#     Edge 70, Type (0, 1), BuildingBlock: TEMPAE_clean_linker_10, # of connection points: 2
#     Edge 71, Type (0, 1), BuildingBlock: TEMPAE_clean_linker_10, # of connection points: 2
#     Edge 72, Type (0, 1), BuildingBlock: TEMPAE_clean_linker_10, # of connection points: 2
#     Edge 73, Type (0, 1), BuildingBlock: TEMPAE_clean_linker_10, # of connection points: 2
#     Edge 74, Type (0, 1), BuildingBlock: TEMPAE_clean_linker_10, # of connection points: 2
#     Edge 75, Type (0, 1), BuildingBlock: TEMPAE_clean_linker_10, # of connection points: 2
# Relax obj value: 0.012
# Max RMSD: 0.063
# Mean RMSD: 0.029
data_MOF--net-ctn--node1-KUFVIS_clean_sbu_0--node2-VETTIZ_charged_linker_0--edge1-TEMPAE_clean_linker_10
_symmetry_space_group_name_H-M    P1
_symmetry_Int_Tables_number       1
_symmetry_cell_setting            triclinic
loop_
_symmetry_equiv_pos_as_xyz
'x, y, z'
_cell_length_a     67.023133
_cell_length_b     66.88075
_cell_length_c     67.213999
_cell_angle_alpha  90.872989
_cell_angle_beta   90.222371
_cell_angle_gamma 91.452276
loop_
_atom_site_label
_atom_site_type_symbol
_atom_site_fract_x
_atom_site_fract_y
_atom_site_fract_z
_atom_type_partial_charge
C0 C 0.04158 0.10042 1.00114 0.0
C1 C 0.02447 0.11212 1.00216 0.0
C2 C 0.01012 0.10816 0.01692 0.0
C3 C 0.02981 0.08102 0.0293 0.0
C4 C 0.0438 0.0848 0.01466 0.0
C5 C 0.06037 0.06999 0.0149 0.0
H6 H 0.09975 0.98641 0.05358 0.0
C7 C 0.03619 0.06343 0.04055 0.0
C8 C 0.05396 0.0567 0.03201 0.0
H9 H 0.12324 0.02272 0.00601 0.0
H10 H 0.09587 0.04528 0.0097 0.0
H11 H 0.08861 0.02414 0.08203 0.0
H12 H 0.05414 0.98732 0.04082 0.0
H13 H 0.0388 0.992 0.06141 0.0
H14 H 0.06156 0.97854 0.06477 0.0
H15 H 0.08173 0.99858 0.08692 0.0
H16 H 0.06548 0.01878 0.09319 0.0
C17 C 0.0802 0.08156 0.01952 0.0
C18 C 0.06007 0.05846 0.99473 0.0
C19 C 0.99612 0.04013 0.10051 0.0
C20 C 0.99775 0.02363 0.11304 0.0
C21 C 0.01282 0.00976 0.10952 0.0
C22 C 0.02644 0.0125 0.09396 0.0
C23 C 0.02485 0.0292 0.08163 0.0
C24 C 0.00966 0.04249 0.08479 0.0
C25 C 0.00952 0.0586 0.06938 0.0
C26 C 0.02768 0.05333 0.05706 0.0
C27 C 0.03667 0.03617 0.0644 0.0
C28 C 0.01238 0.07909 0.08017 0.0
C29 C 0.98985 0.05631 0.05721 0.0
C30 C 0.0989 0.99915 0.04387 0.0
C31 C 0.11363 0.00273 0.02942 0.0
C32 C 0.11216 0.0197 0.01734 0.0
C33 C 0.09619 0.03273 0.01943 0.0
C34 C 0.08148 0.02885 0.03383 0.0
C35 C 0.08313 0.01241 0.0459 0.0
C36 C 0.06653 0.01102 0.06085 0.0
C37 C 0.05445 0.02913 0.05557 0.0
C38 C 0.06319 0.03946 0.03963 0.0
C39 C 0.07592 0.01309 0.08192 0.0
C40 C 0.05462 0.99116 0.05698 0.0
H41 H 1.00137 0.0906 0.04153 0.0
H42 H 0.05269 0.10303 0.98975 0.0
H43 H 0.04447 0.05538 0.98963 0.0
H44 H 0.06684 0.04363 0.99555 0.0
H45 H 0.06778 0.06726 0.98303 0.0
H46 H 0.07776 0.09411 0.03021 0.0
H47 H 0.08674 0.088 0.0058 0.0
H48 H 0.09138 0.07223 0.02679 0.0
H49 H 0.9844 0.05078 0.10276 0.0
H50 H 0.01419 0.99692 0.11902 0.0
H51 H 0.03769 1.00149 0.09214 0.0
H52 H 0.02451 0.07845 0.09148 0.0
H53 H 0.9985 0.08337 0.08797 0.0
H54 H 0.01682 0.09124 0.07007 0.0
H55 H 0.98358 0.04075 0.05766 0.0
H56 H 0.99208 0.05916 0.04118 0.0
H57 H 0.97825 0.06639 0.06306 0.0
H58 H 0.99687 0.11706 0.01792 0.0
C59 C 0.01276 0.09279 0.03057 0.0
C60 C 0.2743 0.63486 0.20653 0.0
C61 C 0.25732 0.63206 0.19431 0.0
C62 C 0.25488 0.64476 0.17795 0.0
C63 C 0.28492 0.66364 0.18725 0.0
C64 C 0.28783 0.65066 0.20273 0.0
C65 C 0.30625 0.65615 0.21469 0.0
H66 H 0.38121 0.7225 0.23653 0.0
C67 C 0.30081 0.67938 0.18832 0.0
C68 C 0.31343 0.67501 0.20429 0.0
H69 H 0.36837 0.66522 0.26336 0.0
H70 H 0.34131 0.65912 0.2403 0.0
H71 H 0.33671 0.73564 0.23158 0.0
H72 H 0.37494 0.70563 0.18988 0.0
H73 H 0.36259 0.72471 0.17738 0.0
H74 H 0.37918 0.73117 0.19776 0.0
H75 H 0.35673 0.74859 0.21914 0.0
H76 H 0.33229 0.74556 0.20798 0.0
C77 C 0.29979 0.66053 0.2364 0.0
C78 C 0.32123 0.63896 0.21243 0.0
C79 C 0.29882 0.7379 0.14111 0.0
C80 C 0.30976 0.75612 0.13992 0.0
C81 C 0.32561 0.75977 0.15354 0.0
C82 C 0.3304 0.74565 0.16795 0.0
C83 C 0.31912 0.7277 0.16903 0.0
C84 C 0.30355 0.72416 0.15581 0.0
C85 C 0.29238 0.70488 0.15983 0.0
C86 C 0.30406 0.69718 0.17739 0.0
C87 C 0.31981 0.71052 0.18266 0.0
C88 C 0.27065 0.71 0.16552 0.0
C89 C 0.29414 0.691 0.1413 0.0
C90 C 0.37274 0.70852 0.23725 0.0
C91 C 0.37683 0.69445 0.25203 0.0
C92 C 0.36531 0.67651 0.25246 0.0
C93 C 0.34963 0.67293 0.23897 0.0
C94 C 0.34529 0.6874 0.22478 0.0
C95 C 0.357 0.70465 0.22378 0.0
C96 C 0.35034 0.71808 0.20735 0.0
C97 C 0.33273 0.706 0.19872 0.0
C98 C 0.32973 0.68818 0.20922 0.0
C99 C 0.34377 0.73812 0.21684 0.0
C100 C 0.36762 0.72022 0.19227 0.0
H101 H 0.26568 0.66974 0.16183 0.0
H102 H 0.27665 0.62543 0.21924 0.0
H103 H 0.31876 0.63035 0.19829 0.0
H104 H 0.33689 0.64454 0.21157 0.0
H105 H 0.31981 0.62824 0.22483 0.0
H106 H 0.28608 0.66957 0.23666 0.0
H107 H 0.29645 0.64642 0.24439 0.0
H108 H 0.31102 0.66934 0.24505 0.0
H109 H 0.28672 0.73431 0.13086 0.0
H110 H 0.33412 0.77374 0.15337 0.0
H111 H 0.34253 0.74941 0.17789 0.0
H112 H 0.27014 0.72466 0.17353 0.0
H113 H 0.26103 0.71093 0.15209 0.0
H114 H 0.26379 0.69925 0.17592 0.0
H115 H 0.30925 0.69254 0.13458 0.0
H116 H 0.29238 0.67499 0.14484 0.0
H117 H 0.28305 0.69478 0.12971 0.0
H118 H 0.24222 0.64269 0.16801 0.0
C119 C 0.26856 0.66047 0.17435 0.0
C120 C 0.99673 0.41673 0.99754 0.0
C121 C 0.98581 0.41054 0.98052 0.0
C122 C 0.96873 0.42132 0.97528 0.0
C123 C 0.97327 0.44313 0.00422 0.0
C124 C 0.99012 0.43278 0.00919 0.0
C125 C 0.99939 0.44023 0.02838 0.0
H126 H 0.99706 0.50102 0.10958 0.0
C127 C 0.96994 0.45833 0.02007 0.0
C128 C 0.98515 0.45654 0.03432 0.0
H129 H 0.04125 0.45766 0.0937 0.0
H130 H 0.02333 0.4494 0.06345 0.0
H131 H 0.95838 0.47451 0.09588 0.0
H132 H 0.99353 0.51912 0.06525 0.0
H133 H 0.96825 0.52346 0.06035 0.0
H134 H 0.97737 0.5252 0.08558 0.0
H135 H 0.95701 0.50068 0.10187 0.0
H136 H 0.94181 0.48917 0.08242 0.0
C137 C 0.99892 0.42274 0.04328 0.0
C138 C 0.02057 0.4488 0.02377 0.0
C139 C 0.91156 0.5055 0.01538 0.0
C140 C 0.90411 0.52012 0.02846 0.0
C141 C 0.9137 0.52356 0.04694 0.0
C142 C 0.93061 0.51287 0.05222 0.0
C143 C 0.93799 0.4984 0.03897 0.0
C144 C 0.92834 0.49471 0.02101 0.0
C145 C 0.93766 0.47796 0.00936 0.0
C146 C 0.95493 0.47276 0.02293 0.0
C147 C 0.95509 0.48487 0.04022 0.0
C148 C 0.92208 0.46051 0.00731 0.0
C149 C 0.94507 0.48633 0.98929 0.0
C150 C 1.00271 0.48962 0.09962 0.0
C151 C 0.02057 0.47993 0.10402 0.0
C152 C 0.02763 0.46542 0.09056 0.0
C153 C 0.01714 0.46061 0.07301 0.0
C154 C 0.99938 0.47043 0.06874 0.0
C155 C 0.99249 0.48477 0.08185 0.0
C156 C 0.97371 0.49413 0.07438 0.0
C157 C 0.97043 0.48291 0.05472 0.0
C158 C 0.98545 0.46897 0.05164 0.0
C159 C 0.95677 0.4896 0.08939 0.0
C160 C 0.97824 0.5167 0.0713 0.0
H161 H 0.94931 0.445 0.98225 0.0
H162 H 0.01005 0.40908 1.00195 0.0
H163 H 0.02123 0.45518 0.00859 0.0
H164 H 0.02509 0.4614 0.03378 0.0
H165 H 0.03191 0.43701 0.02454 0.0
H166 H 0.98494 0.41354 0.04152 0.0
H167 H 0.01167 0.41272 0.04082 0.0
H168 H 0.99897 0.42779 0.05898 0.0
H169 H 0.90427 0.50231 1.00123 0.0
H170 H 0.90824 0.53477 0.05722 0.0
H171 H 0.93727 0.5163 0.06644 0.0
H172 H 0.9118 0.46015 0.02027 0.0
H173 H 0.91283 0.46197 0.99369 0.0
H174 H 0.92898 0.44567 0.00717 0.0
H175 H 0.95269 0.50116 0.99157 0.0
H176 H 0.95614 0.47678 0.98198 0.0
H177 H 0.9324 0.48831 0.97886 0.0
H178 H 0.95977 0.41681 0.96246 0.0
C179 C 0.96249 0.43758 0.98695 0.0
C180 C 0.64527 0.81307 0.24908 0.0
C181 C 0.63191 0.79643 0.24929 0.0
C182 C 0.63428 0.78116 0.23476 0.0
C183 C 0.66257 0.7991 0.22054 0.0
C184 C 0.66053 0.81395 0.23486 0.0
C185 C 0.67678 0.82983 0.23362 0.0
H186 H 0.76055 0.86516 0.18871 0.0
C187 C 0.68015 0.80433 0.20823 0.0
C188 C 0.68865 0.82226 0.21596 0.0
H189 H 0.73198 0.88884 0.24134 0.0
H190 H 0.7059 0.8634 0.23833 0.0
H191 H 0.71973 0.8551 0.16351 0.0
H192 H 0.75772 0.82123 0.20119 0.0
H193 H 0.74966 0.80468 0.18218 0.0
H194 H 0.76424 0.82677 0.17598 0.0
H195 H 0.74414 0.84743 0.15622 0.0
H196 H 0.72232 0.83158 0.15197 0.0
C197 C 0.66698 0.85001 0.22923 0.0
C198 C 0.68908 0.82975 0.25321 0.0
C199 C 0.69869 0.76042 0.14863 0.0
C200 C 0.7143 0.76167 0.13465 0.0
C201 C 0.72843 0.77761 0.13645 0.0
C202 C 0.72691 0.79213 0.15153 0.0
C203 C 0.71121 0.79077 0.16523 0.0
C204 C 0.69747 0.77506 0.16376 0.0
C205 C 0.68209 0.77591 0.18007 0.0
C206 C 0.68873 0.79489 0.19128 0.0
C207 C 0.70578 0.80347 0.18246 0.0
C208 C 0.66133 0.77803 0.17028 0.0
C209 C 0.68404 0.75704 0.19298 0.0
C210 C 0.74877 0.86488 0.19969 0.0
C211 C 0.7485 0.87907 0.21535 0.0
C212 C 0.73254 0.87827 0.229 0.0
C213 C 0.71749 0.86333 0.22736 0.0
C214 C 0.71843 0.84886 0.21201 0.0
C215 C 0.73383 0.84992 0.19844 0.0
C216 C 0.73287 0.83303 0.18346 0.0
C217 C 0.71449 0.82146 0.19039 0.0
C218 C 0.70599 0.83083 0.20704 0.0
C219 C 0.72974 0.8421 0.16262 0.0
C220 C 0.75211 0.82078 0.18558 0.0
H221 H 0.65029 0.77035 0.20984 0.0
H222 H 0.64404 0.82522 0.25979 0.0
H223 H 0.68921 0.81453 0.25967 0.0
H224 H 0.705 0.83376 0.25099 0.0
H225 H 0.68275 0.83999 0.26457 0.0
H226 H 0.65493 0.84793 0.21789 0.0
H227 H 0.66022 0.85644 0.24289 0.0
H228 H 0.67752 0.86117 0.22298 0.0
H229 H 0.68752 0.74845 0.14773 0.0
H230 H 0.74089 0.77877 0.12629 0.0
H231 H 0.73816 0.80382 0.15195 0.0
H232 H 0.6621 0.78907 0.15807 0.0
H233 H 0.65587 0.76352 0.16378 0.0
H234 H 0.65 0.78362 0.18068 0.0
H235 H 0.69967 0.75184 0.19319 0.0
H236 H 0.68044 0.75987 0.20879 0.0
H237 H 0.67441 0.74449 0.18716 0.0
H238 H 0.62475 0.76784 0.23468 0.0
C239 C 0.64935 0.78248 0.22038 0.0
C240 C 0.03475 0.91194 0.52137 0.0
C241 C 0.01861 0.89838 0.51844 0.0
C242 C 0.00581 0.90075 0.50203 0.0
C243 C 0.02507 0.93009 0.49192 0.0
C244 C 0.03784 0.92747 0.50784 0.0
C245 C 0.05493 0.94251 0.50812 0.0
H246 H 0.09981 0.02465 0.4687 0.0
C247 C 0.03253 0.94757 0.48063 0.0
C248 C 0.05019 0.95475 0.48993 0.0
H249 H 0.11949 0.99079 0.51902 0.0
H250 H 0.09159 0.96739 0.51435 0.0
H251 H 0.0525 0.02249 0.47895 0.0
H252 H 0.09032 0.98786 0.44098 0.0
H253 H 0.06708 0.98814 0.4289 0.0
H254 H 0.08084 0.01138 0.43332 0.0
H255 H 0.06392 0.03194 0.45675 0.0
H256 H 0.04015 0.01882 0.45599 0.0
C257 C 0.05368 0.95506 0.52759 0.0
C258 C 0.07465 0.93112 0.50563 0.0
C259 C 0.99299 0.97279 0.42143 0.0
C260 C 0.99659 0.98828 0.40774 0.0
C261 C 0.0143 1.00003 0.40986 0.0
C262 C 0.02786 0.99674 0.4253 0.0
C263 C 0.02397 0.98135 0.43883 0.0
C264 C 0.00691 0.96949 0.43664 0.0
C265 C 0.00591 0.9531 0.45179 0.0
C266 C 0.02495 0.95743 0.46368 0.0
C267 C 0.03533 0.97411 0.45607 0.0
C268 C 0.98702 0.95602 0.46457 0.0
C269 C 0.00645 0.93267 0.44062 0.0
C270 C 0.09805 0.01222 0.47876 0.0
C271 C 0.1117 0.00963 0.49438 0.0
C272 C 0.10916 0.99304 0.50687 0.0
C273 C 0.0929 0.97956 0.50418 0.0
C274 C 0.07912 0.98262 0.48872 0.0
C275 C 0.08202 0.9986 0.47618 0.0
C276 C 0.06628 0.99933 0.46024 0.0
C277 C 0.05321 0.98131 0.46542 0.0
C278 C 0.06068 0.97164 0.48219 0.0
C279 C 0.05511 0.01919 0.4629 0.0
C280 C 0.07653 0.99669 0.43973 0.0
H281 H 0.99853 0.91771 0.4767 0.0
H282 H 0.04501 0.9102 0.53368 0.0
H283 H 0.07232 0.91734 0.49634 0.0
H284 H 0.08625 0.93989 0.49773 0.0
H285 H 0.08063 0.92653 0.52026 0.0
H286 H 0.03795 0.95896 0.53075 0.0
H287 H 0.05929 0.94659 0.54047 0.0
H288 H 0.06197 0.96948 0.5269 0.0
H289 H 0.97962 0.9634 0.42044 0.0
H290 H 0.01797 0.01165 0.39934 0.0
H291 H 0.04096 0.00627 0.42599 0.0
H292 H 0.98553 0.97205 0.46882 0.0
H293 H 0.97336 0.95122 0.45619 0.0
H294 H 0.98738 0.94786 0.4787 0.0
H295 H 0.01478 0.93391 0.42639 0.0
H296 H 0.01443 0.92125 0.44906 0.0
H297 H 0.99115 0.92691 0.43699 0.0
H298 H 0.99334 0.89038 0.49952 0.0
C299 C 0.00886 0.9166 0.48884 0.0
C300 C 0.25118 0.64875 0.81586 0.0
C301 C 0.24986 0.63369 0.80096 0.0
C302 C 0.23313 0.63326 0.78808 0.0
C303 C 0.22026 0.66289 0.80423 0.0
C304 C 0.23619 0.66296 0.81734 0.0
C305 C 0.23501 0.6795 0.83271 0.0
H306 H 0.18633 0.75956 0.86947 0.0
C307 C 0.20757 0.67995 0.80948 0.0
C308 C 0.21602 0.6896 0.82635 0.0
H309 H 0.24048 0.7341 0.89201 0.0
H310 H 0.23886 0.70862 0.86617 0.0
H311 H 0.16257 0.7175 0.85906 0.0
H312 H 0.19905 0.75868 0.82586 0.0
H313 H 0.18157 0.74874 0.8087 0.0
H314 H 0.17308 0.76288 0.83002 0.0
H315 H 0.15515 0.7422 0.85264 0.0
H316 H 0.15065 0.72114 0.83606 0.0
C317 C 0.2329 0.66986 0.85344 0.0
C318 C 0.25362 0.69348 0.83052 0.0
C319 C 0.14803 0.69656 0.76577 0.0
C320 C 0.13432 0.71221 0.76641 0.0
C321 C 0.13595 0.72656 0.78198 0.0
C322 C 0.1507 0.7253 0.79665 0.0
C323 C 0.16425 0.70966 0.79579 0.0
C324 C 0.16288 0.69565 0.7805 0.0
C325 C 0.17894 0.68035 0.78186 0.0
C326 C 0.19022 0.68764 0.80039 0.0
C327 C 0.18142 0.70472 0.8085 0.0
C328 C 0.16881 0.65952 0.78483 0.0
C329 C 0.19193 0.68189 0.76293 0.0
C330 C 0.1979 0.74856 0.86888 0.0
C331 C 0.21354 0.74892 0.88291 0.0
C332 C 0.22809 0.73406 0.88162 0.0
C333 C 0.22721 0.71934 0.86649 0.0
C334 C 0.21165 0.71945 0.85239 0.0
C335 C 0.19735 0.73391 0.8538 0.0
C336 C 0.18226 0.73226 0.83724 0.0
C337 C 0.18959 0.71415 0.82585 0.0
C338 C 0.2068 0.70666 0.83475 0.0
C339 C 0.16148 0.72819 0.84659 0.0
C340 C 0.18386 0.75162 0.82481 0.0
H341 H 0.20621 0.64662 0.77926 0.0
H342 H 0.26373 0.64972 0.82604 0.0
H343 H 0.25726 0.69563 0.81455 0.0
H344 H 0.25139 0.70866 0.83662 0.0
H345 H 0.26686 0.68708 0.83781 0.0
H346 H 0.22397 0.65562 0.85247 0.0
H347 H 0.24772 0.6664 0.85977 0.0
H348 H 0.22478 0.67927 0.86417 0.0
H349 H 0.14717 0.68516 0.75417 0.0
H350 H 0.12595 0.73902 0.7827 0.0
H351 H 0.15102 0.73669 0.80805 0.0
H352 H 0.15456 0.6608 0.79316 0.0
H353 H 0.1653 0.65204 0.77032 0.0
H354 H 0.17794 0.64956 0.79392 0.0
H355 H 0.19499 0.69784 0.75922 0.0
H356 H 0.20672 0.67527 0.76463 0.0
H357 H 0.18422 0.67464 0.74995 0.0
H358 H 0.23122 0.62159 0.77685 0.0
C359 C 0.21845 0.64777 0.78958 0.0
C360 C 0.91338 0.5062 0.48861 0.0
C361 C 0.90858 0.48772 0.47918 0.0
C362 C 0.92159 0.48054 0.46433 0.0
C363 C 0.94312 0.51003 0.46833 0.0
C364 C 0.93073 0.51685 0.48318 0.0
C365 C 0.93851 0.53603 0.49265 0.0
H366 H 0.00985 0.60941 0.49902 0.0
C367 C 0.95997 0.52458 0.46643 0.0
C368 C 0.95749 0.5397 0.48086 0.0
H369 H 0.95792 0.60063 0.53603 0.0
H370 H 0.94774 0.57162 0.51646 0.0
H371 H 0.98669 0.59671 0.45545 0.0
H372 H 0.02218 0.56577 0.49809 0.0
H373 H 0.0279 0.55557 0.47467 0.0
H374 H 0.03343 0.58172 0.47984 0.0
H375 H 0.01268 0.60227 0.45996 0.0
H376 H 0.00474 0.58291 0.44259 0.0
C377 C 0.92303 0.55241 0.48899 0.0
C378 C 0.94289 0.53208 0.51493 0.0
C379 C 0.01099 0.5161 0.41124 0.0
C380 C 0.02855 0.52687 0.40616 0.0
C381 C 0.03473 0.54325 0.41842 0.0
C382 C 0.02334 0.54927 0.43477 0.0
C383 C 0.00563 0.53867 0.43927 0.0
C384 C 0.99995 0.52211 0.42789 0.0
C385 C 0.98139 0.51189 0.43577 0.0
C386 C 0.97646 0.52557 0.45323 0.0
C387 C 0.99062 0.54135 0.45507 0.0
C388 C 0.9651 0.5121 0.4194 0.0
C389 C 0.98684 0.49064 0.44259 0.0
C390 C 0.99615 0.60134 0.50261 0.0
C391 C 0.98461 0.60721 0.51899 0.0
C392 C 0.96703 0.59624 0.5235 0.0
C393 C 0.9612 0.57938 0.51215 0.0
C394 C 0.97315 0.57324 0.49619 0.0
C395 C 0.99023 0.58422 0.49153 0.0
C396 C 1.00138 0.57494 0.47447 0.0
C397 C 0.98826 0.55655 0.46983 0.0
C398 C 0.97172 0.55574 0.48256 0.0
C399 C 1.00157 0.58993 0.45715 0.0
C400 C 0.02238 0.56928 0.48197 0.0
H401 H 0.94781 0.48539 0.44731 0.0
H402 H 0.90384 0.51243 0.49995 0.0
H403 H 0.94665 0.51618 0.51734 0.0
H404 H 0.95605 0.5407 0.52063 0.0
H405 H 0.92978 0.53541 0.52436 0.0
H406 H 0.91676 0.551 0.47366 0.0
H407 H 0.9104 0.5511 0.49959 0.0
H408 H 0.92952 0.56772 0.49003 0.0
H409 H 0.00566 0.50343 0.40233 0.0
H410 H 0.04848 0.55149 0.41546 0.0
H411 H 0.02881 0.56194 0.4433 0.0
H412 H 0.96448 0.52716 0.41265 0.0
H413 H 0.96829 0.50112 0.40733 0.0
H414 H 0.94998 0.50882 0.42511 0.0
H415 H 0.00295 0.48982 0.44649 0.0
H416 H 0.97893 0.48621 0.45633 0.0
H417 H 0.98367 0.47926 0.43072 0.0
H418 H 0.91876 0.46619 0.45708 0.0
C419 C 0.93866 0.49163 0.45878 0.0
C420 C 0.81429 0.76672 0.86234 0.0
C421 C 0.79736 0.76506 0.87457 0.0
C422 C 0.78203 0.77894 0.87241 0.0
C423 C 0.80037 0.7955 0.84605 0.0
C424 C 0.81542 0.78191 0.84818 0.0
C425 C 0.832 0.78529 0.83348 0.0
H426 H 0.86898 0.83567 0.75449 0.0
C427 C 0.80605 0.80927 0.82985 0.0
C428 C 0.8246 0.80334 0.82244 0.0
H429 H 0.89379 0.78485 0.78396 0.0
H430 H 0.86736 0.78536 0.80809 0.0
H431 H 0.85869 0.85983 0.79354 0.0
H432 H 0.82267 0.82011 0.75658 0.0
H433 H 0.80901 0.84173 0.76175 0.0
H434 H 0.83232 0.84401 0.74874 0.0
H435 H 0.84716 0.86827 0.77117 0.0
H436 H 0.83435 0.86885 0.79478 0.0
C437 C 0.85146 0.79024 0.84526 0.0
C438 C 0.83298 0.76648 0.81978 0.0
C439 C 0.75974 0.865 0.80999 0.0
C440 C 0.76139 0.88042 0.79595 0.0
C441 C 0.77901 0.882 0.78455 0.0
C442 C 0.79433 0.86832 0.78664 0.0
C443 C 0.79226 0.85284 0.8004 0.0
C444 C 0.77536 0.85156 0.81205 0.0
C445 C 0.77626 0.83462 0.82654 0.0
C446 C 0.79639 0.82589 0.82148 0.0
C447 C 0.80555 0.8365 0.80597 0.0
C448 C 0.77595 0.84364 0.8479 0.0
C449 C 0.7588 0.8197 0.82176 0.0
C450 C 0.8687 0.82465 0.76614 0.0
C451 C 0.88354 0.81019 0.76724 0.0
C452 C 0.88274 0.79633 0.78286 0.0
C453 C 0.86722 0.7965 0.79677 0.0
C454 C 0.85218 0.81063 0.7951 0.0
C455 C 0.85324 0.82459 0.78016 0.0
C456 C 0.836 0.83857 0.78081 0.0
C457 C 0.82415 0.83031 0.79823 0.0
C458 C 0.83366 0.8139 0.8065 0.0
C459 C 0.84435 0.86005 0.78516 0.0
C460 C 0.82434 0.83618 0.76094 0.0
H461 H 0.77127 0.80418 0.8574 0.0
H462 H 0.8262 0.75614 0.86345 0.0
H463 H 0.81782 0.75978 0.8171 0.0
H464 H 0.83872 0.76979 0.80479 0.0
H465 H 0.84224 0.75483 0.82656 0.0
H466 H 0.84832 0.79954 0.8587 0.0
H467 H 0.85861 0.77639 0.8503 0.0
H468 H 0.86238 0.79921 0.83668 0.0
H469 H 0.7465 0.8632 0.81902 0.0
H470 H 0.7811 0.89398 0.77405 0.0
H471 H 0.80721 0.87035 0.77741 0.0
H472 H 0.78422 0.85828 0.84862 0.0
H473 H 0.76043 0.84621 0.85288 0.0
H474 H 0.7835 0.83429 0.85888 0.0
H475 H 0.75641 0.81822 0.8054 0.0
H476 H 0.76162 0.80438 0.82675 0.0
H477 H 0.74465 0.82481 0.82846 0.0
H478 H 0.76893 0.77812 0.88178 0.0
C479 C 0.78346 0.79414 0.85829 0.0
C480 C 0.32467 0.26991 0.36887 0.0
C481 C 0.3089 0.26942 0.38267 0.0
C482 C 0.29407 0.284 0.38134 0.0
C483 C 0.31026 0.2984 0.3525 0.0
C484 C 0.325 0.28439 0.35397 0.0
C485 C 0.34024 0.28643 0.33769 0.0
H486 H 0.37122 0.33123 0.25309 0.0
C487 C 0.31444 0.31068 0.33477 0.0
C488 C 0.33202 0.30369 0.32602 0.0
H489 H 0.39906 0.28333 0.28463 0.0
H490 H 0.37374 0.28471 0.30987 0.0
H491 H 0.36019 0.3579 0.29306 0.0
H492 H 0.32808 0.31459 0.25653 0.0
H493 H 0.31043 0.33191 0.26436 0.0
H494 H 0.33118 0.34015 0.24922 0.0
H495 H 0.35256 0.36245 0.26793 0.0
H496 H 0.33624 0.36708 0.28863 0.0
C497 C 0.36068 0.29194 0.34743 0.0
C498 C 0.3399 0.26669 0.3253 0.0
C499 C 0.26737 0.36596 0.31521 0.0
C500 C 0.26666 0.37869 0.29866 0.0
C501 C 0.2815 0.37689 0.2839 0.0
C502 C 0.29684 0.36323 0.28574 0.0
C503 C 0.29741 0.35082 0.30237 0.0
C504 C 0.28269 0.35208 0.31663 0.0
C505 C 0.28513 0.33677 0.33265 0.0
C506 C 0.30401 0.32654 0.32586 0.0
C507 C 0.31117 0.33498 0.30818 0.0
C508 C 0.28825 0.34797 0.35278 0.0
C509 C 0.26665 0.32235 0.33196 0.0
C510 C 0.37188 0.32104 0.26543 0.0
C511 C 0.3873 0.30722 0.26682 0.0
C512 C 0.38761 0.29437 0.28329 0.0
C513 C 0.37274 0.29505 0.29788 0.0
C514 C 0.35724 0.30866 0.29606 0.0
C515 C 0.3571 0.32148 0.28013 0.0
C516 C 0.33942 0.33488 0.28057 0.0
C517 C 0.32899 0.328 0.29939 0.0
C518 C 0.33944 0.31257 0.30835 0.0
C519 C 0.34735 0.35679 0.28252 0.0
C520 C 0.32659 0.33037 0.26169 0.0
H521 H 0.28287 0.30896 0.36617 0.0
H522 H 0.33644 0.25915 0.36951 0.0
H523 H 0.32438 0.26059 0.32361 0.0
H524 H 0.34531 0.26864 0.30995 0.0
H525 H 0.34886 0.25512 0.33262 0.0
H526 H 0.35878 0.30155 0.36091 0.0
H527 H 0.36855 0.27834 0.35205 0.0
H528 H 0.37053 0.30085 0.33762 0.0
H529 H 0.25633 0.36676 0.32688 0.0
H530 H 0.28115 0.38586 0.27064 0.0
H531 H 0.3076 0.36275 0.27399 0.0
H532 H 0.29832 0.36129 0.35096 0.0
H533 H 0.27384 0.35325 0.35876 0.0
H534 H 0.29549 0.3388 0.3641 0.0
H535 H 0.26078 0.32048 0.31651 0.0
H536 H 0.27009 0.30703 0.33657 0.0
H537 H 0.25438 0.32809 0.34134 0.0
H538 H 0.28155 0.28388 0.39147 0.0
C539 C 0.29471 0.29846 0.36644 0.0
C540 C 0.49255 0.91554 0.501 0.0
C541 C 0.482 0.90926 0.48376 0.0
C542 C 0.46521 0.92016 0.47794 0.0
C543 C 0.4699 0.94299 0.50608 0.0
C544 C 0.4862 0.93222 0.51191 0.0
C545 C 0.49537 0.94027 0.53094 0.0
H546 H 0.49908 0.01062 0.60439 0.0
C547 C 0.46743 0.95964 0.52059 0.0
C548 C 0.48235 0.95809 0.53518 0.0
H549 H 0.53369 0.95727 0.59879 0.0
H550 H 0.51647 0.9482 0.5682 0.0
H551 H 0.45677 0.98793 0.59225 0.0
H552 H 0.49934 0.02273 0.55855 0.0
H553 H 0.47548 0.02876 0.54999 0.0
H554 H 0.48235 0.03419 0.57556 0.0
H555 H 0.46082 0.01435 0.59609 0.0
H556 H 0.44359 0.00467 0.5775 0.0
C557 C 0.49306 0.92398 0.54705 0.0
C558 C 0.51723 0.94681 0.52663 0.0
C559 C 0.41164 0.00924 0.51173 0.0
C560 C 0.40692 0.02708 0.52181 0.0
C561 C 0.4191 0.03387 0.53778 0.0
C562 C 0.43548 0.02286 0.54395 0.0
C563 C 0.43991 0.00491 0.53394 0.0
C564 C 0.42832 0.99857 0.51786 0.0
C565 C 0.43614 0.97987 0.50822 0.0
C566 C 0.45387 0.97566 0.52157 0.0
C567 C 0.45584 0.99026 0.53678 0.0
C568 C 0.41975 0.96321 0.50943 0.0
C569 C 0.44266 0.98497 0.48675 0.0
C570 C 0.5029 0.99705 0.59644 0.0
C571 C 0.51775 0.98463 0.60379 0.0
C572 C 0.52224 0.96696 0.59332 0.0
C573 C 0.51222 0.96175 0.57559 0.0
C574 C 0.49733 0.97421 0.56837 0.0
C575 C 0.49269 0.9914 0.57887 0.0
C576 C 0.47566 1.00217 0.56946 0.0
C577 C 0.47092 0.98862 0.55159 0.0
C578 C 0.48386 0.97245 0.55092 0.0
C579 C 0.45825 0.0025 0.58454 0.0
C580 C 0.48342 0.02313 0.56313 0.0
H581 H 0.44622 0.94447 0.48376 0.0
H582 H 0.50553 0.90767 0.50598 0.0
H583 H 0.51819 0.95501 0.51237 0.0
H584 H 0.52362 0.95717 0.53803 0.0
H585 H 0.52693 0.93363 0.52536 0.0
H586 H 0.48039 0.91339 0.54363 0.0
H587 H 0.50673 0.91502 0.54824 0.0
H588 H 0.48948 0.93034 0.56188 0.0
H589 H 0.40269 0.00388 0.4992 0.0
H590 H 0.4157 0.04758 0.54572 0.0
H591 H 0.44406 0.02874 0.55631 0.0
H592 H 0.41222 0.9637 0.52415 0.0
H593 H 0.40817 0.96504 0.49778 0.0
H594 H 0.42572 0.94802 0.5081 0.0
H595 H 0.44865 1.00061 0.48597 0.0
H596 H 0.45495 0.97568 0.48132 0.0
H597 H 0.42989 0.98349 0.4762 0.0
H598 H 0.45642 0.9155 0.46506 0.0
C599 C 0.45917 0.93695 0.48893 0.0
C600 C 0.14609 0.31336 0.74887 0.0
C601 C 0.13335 0.29626 0.74955 0.0
C602 C 0.13626 0.28069 0.73547 0.0
C603 C 0.16345 0.29949 0.72031 0.0
C604 C 0.16107 0.31454 0.73436 0.0
C605 C 0.17655 0.33111 0.73233 0.0
H606 H 0.25709 0.36924 0.68389 0.0
C607 C 0.18014 0.30544 0.70714 0.0
C608 C 0.18794 0.32394 0.71418 0.0
H609 H 0.23077 0.39107 0.73846 0.0
H610 H 0.20486 0.36541 0.73594 0.0
H611 H 0.21716 0.36052 0.6604 0.0
H612 H 0.254 0.32276 0.69541 0.0
H613 H 0.24789 0.30997 0.67303 0.0
H614 H 0.2615 0.33342 0.67216 0.0
H615 H 0.23883 0.34915 0.65012 0.0
H616 H 0.21463 0.33657 0.64949 0.0
C617 C 0.16572 0.3508 0.72829 0.0
C618 C 0.18971 0.3317 0.75138 0.0
C619 C 0.19901 0.26096 0.64817 0.0
C620 C 0.21268 0.26352 0.63242 0.0
C621 C 0.22399 0.2816 0.63163 0.0
C622 C 0.22226 0.29643 0.64639 0.0
C623 C 0.20894 0.29343 0.66217 0.0
C624 C 0.19722 0.27616 0.66265 0.0
C625 C 0.18285 0.27632 0.67985 0.0
C626 C 0.18825 0.29633 0.6898 0.0
C627 C 0.20377 0.30608 0.67952 0.0
C628 C 0.16137 0.27585 0.67123 0.0
C629 C 0.18754 0.25853 0.69343 0.0
C630 C 0.24583 0.36847 0.69539 0.0
C631 C 0.24618 0.38218 0.71148 0.0
C632 C 0.23086 0.38086 0.7258 0.0
C633 C 0.21594 0.36577 0.72446 0.0
C634 C 0.21637 0.35168 0.70874 0.0
C635 C 0.23104 0.35333 0.69444 0.0
C636 C 0.22959 0.33677 0.67909 0.0
C637 C 0.21201 0.32452 0.6869 0.0
C638 C 0.2042 0.33337 0.70417 0.0
C639 C 0.22495 0.34611 0.65865 0.0
C640 C 0.24925 0.32508 0.67975 0.0
H641 H 0.15244 0.26988 0.71068 0.0
H642 H 0.14449 0.32567 0.75932 0.0
H643 H 0.19008 0.31679 0.75848 0.0
H644 H 0.20554 0.33548 0.74826 0.0
H645 H 0.184 0.34247 0.7626 0.0
H646 H 0.15362 0.34824 0.7171 0.0
H647 H 0.15886 0.35676 0.7421 0.0
H648 H 0.17567 0.36251 0.72207 0.0
H649 H 0.19 0.24739 0.64939 0.0
H650 H 0.23411 0.28449 0.61943 0.0
H651 H 0.23142 0.3097 0.64492 0.0
H652 H 0.16059 0.28488 0.65749 0.0
H653 H 0.15638 0.26032 0.66729 0.0
H654 H 0.15039 0.28251 0.68138 0.0
H655 H 0.2039 0.25615 0.69416 0.0
H656 H 0.18301 0.26105 0.70902 0.0
H657 H 0.18031 0.24444 0.68773 0.0
H658 H 0.1273 0.26701 0.73587 0.0
C659 C 0.15107 0.28227 0.72087 0.0
C660 C 0.77497 0.13571 0.70321 0.0
C661 C 0.75857 0.13266 0.69026 0.0
C662 C 0.7568 0.14521 0.67369 0.0
C663 C 0.78616 0.1645 0.68424 0.0
C664 C 0.78854 0.1516 0.69989 0.0
C665 C 0.8065 0.15723 0.71249 0.0
H666 H 0.88107 0.22355 0.73605 0.0
C667 C 0.80187 0.18038 0.68588 0.0
C668 C 0.81396 0.17611 0.70229 0.0
H669 H 0.86737 0.16641 0.7628 0.0
H670 H 0.84067 0.16044 0.73929 0.0
H671 H 0.83653 0.23677 0.73038 0.0
H672 H 0.87559 0.20694 0.68934 0.0
H673 H 0.86359 0.2262 0.67676 0.0
H674 H 0.87975 0.23239 0.69755 0.0
H675 H 0.85671 0.24982 0.7183 0.0
H676 H 0.83247 0.24668 0.70671 0.0
C677 C 0.79927 0.16162 0.73394 0.0
C678 C 0.82165 0.14012 0.71081 0.0
C679 C 0.80054 0.23927 0.63911 0.0
C680 C 0.81131 0.25761 0.63834 0.0
C681 C 0.82686 0.26125 0.65229 0.0
C682 C 0.83148 0.24704 0.66666 0.0
C683 C 0.82032 0.22897 0.66736 0.0
C684 C 0.80509 0.22542 0.65376 0.0
C685 C 0.79402 0.20598 0.65732 0.0
C686 C 0.80532 0.19825 0.67511 0.0
C687 C 0.82081 0.2117 0.68089 0.0
C688 C 0.77211 0.21083 0.66249 0.0
C689 C 0.79641 0.1923 0.63871 0.0
C690 C 0.87249 0.20963 0.73666 0.0
C691 C 0.87627 0.19553 0.75151 0.0
C692 C 0.86458 0.1777 0.75182 0.0
C693 C 0.84911 0.17419 0.73806 0.0
C694 C 0.84517 0.18862 0.72371 0.0
C695 C 0.85696 0.20584 0.72293 0.0
C696 C 0.85066 0.2193 0.70638 0.0
C697 C 0.83328 0.20721 0.69732 0.0
C698 C 0.83002 0.18938 0.70774 0.0
C699 C 0.84384 0.23929 0.71576 0.0
C700 C 0.86828 0.22153 0.6917 0.0
H701 H 0.76807 0.17022 0.65791 0.0
H702 H 0.77686 0.1264 0.71609 0.0
H703 H 0.81968 0.13142 0.69667 0.0
H704 H 0.8373 0.14578 0.71043 0.0
H705 H 0.81987 0.12946 0.72323 0.0
H706 H 0.78555 0.17065 0.73368 0.0
H707 H 0.79567 0.14752 0.74184 0.0
H708 H 0.81019 0.17047 0.74294 0.0
H709 H 0.78869 0.23567 0.62856 0.0
H710 H 0.83526 0.2753 0.65241 0.0
H711 H 0.84338 0.25079 0.67688 0.0
H712 H 0.77137 0.22505 0.67124 0.0
H713 H 0.76303 0.21256 0.64879 0.0
H714 H 0.7648 0.19954 0.67199 0.0
H715 H 0.81145 0.19451 0.63201 0.0
H716 H 0.79539 0.17622 0.6422 0.0
H717 H 0.78516 0.19562 0.62713 0.0
H718 H 0.74465 0.14293 0.66315 0.0
C719 C 0.77046 0.16106 0.67062 0.0
C720 C 0.54086 0.59995 0.5008 0.0
C721 C 0.52383 0.61174 0.50184 0.0
C722 C 0.50949 0.60789 0.51663 0.0
C723 C 0.52908 0.5807 0.52903 0.0
C724 C 0.54304 0.58436 0.51434 0.0
C725 C 0.55954 0.56949 0.51459 0.0
H726 H 0.59896 0.48616 0.55367 0.0
C727 C 0.53543 0.56314 0.54034 0.0
C728 C 0.55314 0.5563 0.53178 0.0
H729 H 0.62214 0.52202 0.50562 0.0
H730 H 0.59482 0.54461 0.50929 0.0
H731 H 0.58782 0.52421 0.58191 0.0
H732 H 0.55331 0.48694 0.5411 0.0
H733 H 0.53801 0.49184 0.56167 0.0
H734 H 0.56076 0.47839 0.56513 0.0
H735 H 0.58119 0.49862 0.58693 0.0
H736 H 0.56479 0.51867 0.59322 0.0
C737 C 0.57943 0.58099 0.51908 0.0
C738 C 0.55912 0.55786 0.49447 0.0
C739 C 0.49559 0.54046 0.60066 0.0
C740 C 0.49718 0.52403 0.61329 0.0
C741 C 0.51216 0.51005 0.60978 0.0
C742 C 0.52573 0.51262 0.59414 0.0
C743 C 0.52417 0.52925 0.58172 0.0
C744 C 0.50906 0.54263 0.58485 0.0
C745 C 0.50889 0.55863 0.56934 0.0
C746 C 0.52697 0.55318 0.55696 0.0
C747 C 0.53593 0.53605 0.56438 0.0
C748 C 0.51189 0.57918 0.57996 0.0
C749 C 0.48915 0.55632 0.55727 0.0
C750 C 0.59806 0.49881 0.54387 0.0
C751 C 0.6127 0.50226 0.52929 0.0
C752 C 0.61115 0.51911 0.51706 0.0
C753 C 0.59519 0.53215 0.51914 0.0
C754 C 0.58059 0.52842 0.53367 0.0
C755 C 0.58229 0.51209 0.54587 0.0
C756 C 0.56575 0.51082 0.5609 0.0
C757 C 0.55366 0.52889 0.55552 0.0
C758 C 0.56235 0.53909 0.53947 0.0
C759 C 0.57522 0.51305 0.58191 0.0
C760 C 0.55382 0.49094 0.55723 0.0
H761 H 0.5007 0.59044 0.5413 0.0
H762 H 0.55196 0.60249 0.48937 0.0
H763 H 0.54348 0.55494 0.48936 0.0
H764 H 0.56569 0.54294 0.49536 0.0
H765 H 0.56694 0.56651 0.48272 0.0
H766 H 0.57708 0.5936 0.52974 0.0
H767 H 0.58594 0.58736 0.50531 0.0
H768 H 0.59061 0.57165 0.52634 0.0
H769 H 0.48393 0.55118 0.60287 0.0
H770 H 0.51352 0.49727 0.61936 0.0
H771 H 0.53691 0.50155 0.59233 0.0
H772 H 0.52406 0.57858 0.59122 0.0
H773 H 0.49807 0.58358 0.58779 0.0
H774 H 0.51633 0.59124 0.56975 0.0
H775 H 0.48282 0.5408 0.55787 0.0
H776 H 0.49132 0.55903 0.5412 0.0
H777 H 0.47763 0.5665 0.5631 0.0
H778 H 0.49629 0.61687 0.51763 0.0
C779 C 0.51208 0.59255 0.53031 0.0
C780 C 0.53774 0.41241 0.02051 0.0
C781 C 0.52163 0.39877 0.01789 0.0
C782 C 0.50856 0.40097 1.00166 0.0
C783 C 0.52758 0.43026 0.99105 0.0
C784 C 0.54057 0.42783 0.00682 0.0
C785 C 0.55762 0.44292 0.00673 0.0
H786 H 0.60205 0.5244 0.96568 0.0
C787 C 0.53486 0.44761 0.97946 0.0
C788 C 0.55262 0.45492 0.98845 0.0
H789 H 0.6219 0.49152 0.01661 0.0
H790 H 0.59409 0.468 0.01238 0.0
H791 H 0.55474 0.5224 0.97628 0.0
H792 H 0.5922 0.48704 0.93858 0.0
H793 H 0.56886 0.48731 0.92668 0.0
H794 H 0.58282 0.51051 0.93065 0.0
H795 H 0.56614 0.53152 0.95393 0.0
H796 H 0.54235 0.51846 0.95336 0.0
C797 C 0.55653 0.45569 0.02608 0.0
C798 C 0.57734 0.43155 0.00416 0.0
C799 C 0.49445 0.47196 0.92053 0.0
C800 C 0.49788 0.48712 0.90646 0.0
C801 C 0.51569 0.49882 0.90804 0.0
C802 C 0.52949 0.49578 0.92334 0.0
C803 C 0.52575 0.48071 0.93725 0.0
C804 C 0.50862 0.46889 0.93556 0.0
C805 C 0.50783 0.45274 0.95097 0.0
C806 C 0.52706 0.45721 0.96247 0.0
C807 C 0.53737 0.47373 0.95445 0.0
C808 C 0.48917 0.45591 0.96401 0.0
C809 C 0.50813 0.43213 0.94008 0.0
C810 C 0.60035 0.51217 0.97596 0.0
C811 C 0.61406 0.50989 0.99161 0.0
C812 C 0.61157 0.49353 0.00441 0.0
C813 C 0.59534 0.47998 1.00199 0.0
C814 C 0.5815 0.48274 0.98653 0.0
C815 C 0.58432 0.49849 0.97369 0.0
C816 C 0.56842 0.49896 0.95787 0.0
C817 C 0.55537 0.48106 0.96347 0.0
C818 C 0.56301 0.47167 0.98033 0.0
C819 C 0.55731 0.51888 0.96027 0.0
C820 C 0.57846 0.49595 0.93731 0.0
H821 H 0.50084 0.4177 0.97632 0.0
H822 H 0.54818 0.4108 0.03269 0.0
H823 H 0.57496 0.4177 0.99497 0.0
H824 H 0.58886 0.44028 0.9961 0.0
H825 H 0.58346 0.42708 0.01877 0.0
H826 H 0.5408 0.4594 0.02948 0.0
H827 H 0.56251 0.44748 0.03896 0.0
H828 H 0.56456 0.47023 0.02505 0.0
H829 H 0.48103 0.46262 0.91998 0.0
H830 H 0.51924 0.51017 0.89722 0.0
H831 H 0.54265 0.50523 0.92363 0.0
H832 H 0.48784 0.472 0.96811 0.0
H833 H 0.47535 0.45109 0.9559 0.0
H834 H 0.48972 0.4479 0.97822 0.0
H835 H 0.51596 0.43317 0.92555 0.0
H836 H 0.5165 0.42092 0.94843 0.0
H837 H 0.49277 0.42622 0.93707 0.0
H838 H 0.4961 0.39054 0.9994 0.0
C839 C 0.51136 0.41672 0.98831 0.0
C840 C 0.74908 0.14613 0.31923 0.0
C841 C 0.74983 0.13293 0.30269 0.0
C842 C 0.73561 0.13494 0.2873 0.0
C843 C 0.7205 0.1625 0.30497 0.0
C844 C 0.73452 0.16084 0.31994 0.0
C845 C 0.73244 0.17678 0.33582 0.0
H846 H 0.68371 0.25749 0.37096 0.0
C847 C 0.70764 0.17947 0.31003 0.0
C848 C 0.71466 0.18801 0.32805 0.0
H849 H 0.73673 0.23121 0.3952 0.0
H850 H 0.73536 0.20562 0.36951 0.0
H851 H 0.65998 0.2154 0.35922 0.0
H852 H 0.698 0.25674 0.32778 0.0
H853 H 0.6802 0.2479 0.3104 0.0
H854 H 0.67219 0.26159 0.33218 0.0
H855 H 0.6526 0.24003 0.35256 0.0
H856 H 0.64913 0.21898 0.33573 0.0
C857 C 0.72772 0.1664 0.35574 0.0
C858 C 0.7518 0.18998 0.33616 0.0
C859 C 0.64913 0.19605 0.26503 0.0
C860 C 0.63485 0.21117 0.26577 0.0
C861 C 0.63578 0.22524 0.28164 0.0
C862 C 0.65032 0.22413 0.29656 0.0
C863 C 0.66436 0.20891 0.29565 0.0
C864 C 0.66373 0.19528 0.28 0.0
C865 C 0.68033 0.18056 0.28122 0.0
C866 C 0.69078 0.18746 0.30034 0.0
C867 C 0.68128 0.20401 0.30872 0.0
C868 C 0.67081 0.15934 0.28311 0.0
C869 C 0.69388 0.18327 0.26275 0.0
C870 C 0.69512 0.24632 0.37077 0.0
C871 C 0.71038 0.24654 0.38523 0.0
C872 C 0.72464 0.23136 0.38447 0.0
C873 C 0.72397 0.2166 0.36938 0.0
C874 C 0.709 0.21706 0.35468 0.0
C875 C 0.69487 0.23172 0.35564 0.0
C876 C 0.68052 0.2305 0.33841 0.0
C877 C 0.68841 0.21273 0.32686 0.0
C878 C 0.70501 0.2048 0.33649 0.0
C879 C 0.65937 0.22613 0.34676 0.0
C880 C 0.68261 0.25018 0.32656 0.0
H881 H 0.71067 0.15015 0.2762 0.0
H882 H 0.75959 0.14514 0.33142 0.0
H883 H 0.75857 0.19085 0.3211 0.0
H884 H 0.74912 0.2057 0.34044 0.0
H885 H 0.76314 0.18384 0.34634 0.0
H886 H 0.71669 0.15386 0.35339 0.0
H887 H 0.74139 0.16012 0.36232 0.0
H888 H 0.72089 0.17646 0.3668 0.0
H889 H 0.64889 0.18491 0.25316 0.0
H890 H 0.62539 0.23736 0.28245 0.0
H891 H 0.65011 0.23528 0.30818 0.0
H892 H 0.65803 0.15954 0.29363 0.0
H893 H 0.66509 0.15367 0.2685 0.0
H894 H 0.68117 0.1484 0.28916 0.0
H895 H 0.69372 0.19892 0.25737 0.0
H896 H 0.70977 0.18063 0.26602 0.0
H897 H 0.68887 0.1733 0.25024 0.0
H898 H 0.736 0.12552 0.27407 0.0
C899 C 0.72096 0.14948 0.28842 0.0
C900 C 0.41901 0.99834 0.99592 0.0
C901 C 0.41429 0.97976 0.98668 0.0
C902 C 0.4275 0.97236 0.97212 0.0
C903 C 0.44848 1.00233 0.97529 0.0
C904 C 0.43615 0.00916 0.9902 0.0
C905 C 0.44351 0.02877 0.99909 0.0
H906 H 0.50394 0.11062 0.99344 0.0
C907 C 0.46441 0.0177 0.9722 0.0
C908 C 0.46164 0.03315 0.98622 0.0
H909 H 0.4619 0.09485 0.03993 0.0
H910 H 0.45435 0.0638 0.02335 0.0
H911 H 0.47983 0.09079 0.95521 0.0
H912 H 0.52427 0.06893 0.99519 0.0
H913 H 0.52896 0.05789 0.97191 0.0
H914 H 0.53083 0.08477 0.97482 0.0
H915 H 0.50524 0.1 0.95591 0.0
H916 H 0.49795 0.07839 0.94105 0.0
C917 C 0.42708 0.04435 0.99622 0.0
C918 C 0.44931 0.02535 0.02115 0.0
C919 C 0.51352 0.01013 0.91506 0.0
C920 C 0.52894 0.02265 0.90776 0.0
C921 C 0.53278 0.04131 0.91731 0.0
C922 C 0.52155 0.04739 0.93375 0.0
C923 C 0.5062 0.03476 0.94082 0.0
C924 C 0.50239 0.01647 0.93153 0.0
C925 C 0.48531 0.00515 0.94105 0.0
C926 C 0.47975 0.01955 0.95773 0.0
C927 C 0.492 0.03691 0.95743 0.0
C928 C 0.46843 1.00248 0.92537 0.0
C929 C 0.49323 0.98529 0.94917 0.0
C930 C 0.49317 0.10057 1.00024 0.0
C931 C 0.48306 0.10597 0.01785 0.0
C932 C 0.46933 0.09192 0.02597 0.0
C933 C 0.46512 0.07355 0.01648 0.0
C934 C 0.47504 0.06864 0.99885 0.0
C935 C 0.48922 0.08175 0.9913 0.0
C936 C 0.49974 0.07292 0.97358 0.0
C937 C 0.48918 0.05256 0.97161 0.0
C938 C 0.4744 0.05042 0.98618 0.0
C939 C 0.49567 0.08619 0.95541 0.0
C940 C 0.52215 0.0711 0.97894 0.0
H941 H 0.4537 0.97715 0.95505 0.0
H942 H 0.40939 0.00467 0.00713 0.0
H943 H 0.45163 0.00927 0.02424 0.0
H944 H 0.46369 0.0329 0.02523 0.0
H945 H 0.43752 0.03055 0.03144 0.0
H946 H 0.42134 0.04372 0.98066 0.0
H947 H 0.4143 0.04138 0.00632 0.0
H948 H 0.43245 0.05988 0.99888 0.0
H949 H 0.51021 0.99568 0.90816 0.0
H950 H 0.54425 0.05147 0.9118 0.0
H951 H 0.52516 0.06179 0.9402 0.0
H952 H 0.46677 0.01641 0.91674 0.0
H953 H 0.47174 0.99021 0.91465 0.0
H954 H 0.45365 0.99947 0.93196 0.0
H955 H 0.50894 0.98721 0.95442 0.0
H956 H 0.48489 0.97999 0.96231 0.0
H957 H 0.49287 0.97335 0.93749 0.0
H958 H 0.4248 0.95785 0.96513 0.0
C959 C 0.44443 0.98355 0.96633 0.0
Mn960 Mn 0.25374 0.87495 0.01191 0.0
Mn961 Mn 0.25411 0.89651 0.96682 0.0
C962 C 0.23834 0.85887 0.98495 0.0
C963 C 0.26765 0.85471 0.03606 0.0
C964 C 0.22633 0.90902 0.99979 0.0
O965 O 0.27662 0.89536 0.01465 0.0
O966 O 0.27473 0.90942 0.98447 0.0
C967 C 0.29406 0.88375 0.95377 0.0
N968 N 0.27402 0.8846 0.95056 0.0
C969 C 0.27706 0.86935 0.91811 0.0
C970 C 0.29774 0.86837 0.92104 0.0
C971 C 0.30625 0.87549 0.939 0.0
C972 C 0.26565 0.8775 0.93347 0.0
H973 H 0.30071 0.8894 0.96746 0.0
C974 C 0.28254 0.90797 1.00178 0.0
O975 O 0.25534 0.86867 0.04075 0.0
O976 O 0.27214 0.8527 0.01739 0.0
N977 N 0.23532 0.88555 0.9479 0.0
C978 C 0.21503 0.8864 0.94798 0.0
C979 C 0.20414 0.87942 0.93128 0.0
C980 C 0.21424 0.87196 0.91458 0.0
C981 C 0.23512 0.87111 0.91489 0.0
C982 C 0.24515 0.87814 0.932 0.0
H983 H 0.20724 0.89244 0.96066 0.0
O984 O 0.23284 0.85493 0.00301 0.0
O985 O 0.25254 0.87236 0.98314 0.0
O986 O 0.23307 0.89722 0.01281 0.0
O987 O 0.23292 0.90967 0.98203 0.0
C988 C 0.2464 0.8636 0.89891 0.0
C989 C 0.26733 0.86251 0.9006 0.0
H990 H 0.30721 0.86211 0.90962 0.0
H991 H 0.3222 0.87476 0.94139 0.0
H992 H 0.18802 0.88 0.93118 0.0
H993 H 0.20579 0.86684 0.90162 0.0
H994 H 0.23912 0.85844 0.88529 0.0
H995 H 0.27578 0.85633 0.88836 0.0
Mn996 Mn 0.13948 0.50142 0.25264 0.0
Mn997 Mn 0.11775 0.54647 0.25447 0.0
C998 C 0.1547 0.52876 0.23755 0.0
C999 C 0.1602 0.47725 0.26571 0.0
C1000 C 0.10452 0.51343 0.22585 0.0
O1001 O 0.11955 0.49794 0.27518 0.0
O1002 O 0.10586 0.52835 0.27459 0.0
C1003 C 0.13269 0.55921 0.29433 0.0
N1004 N 0.13064 0.56274 0.27453 0.0
C1005 C 0.14618 0.5954 0.2782 0.0
C1006 C 0.14842 0.59216 0.29864 0.0
C1007 C 0.14174 0.57394 0.30672 0.0
C1008 C 0.13732 0.58006 0.26656 0.0
H1009 H 0.12741 0.5453 0.30061 0.0
C1010 C 0.10724 0.51074 0.28154 0.0
O1011 O 0.14609 0.47258 0.25307 0.0
O1012 O 0.16204 0.49592 0.27112 0.0
N1013 N 0.12745 0.56593 0.23612 0.0
C1014 C 0.12481 0.56636 0.21602 0.0
C1015 C 0.13042 0.58366 0.20565 0.0
C1016 C 0.13842 0.60037 0.21608 0.0
C1017 C 0.14132 0.59946 0.23671 0.0
C1018 C 0.13534 0.58188 0.24625 0.0
H1019 H 0.11828 0.5537 0.208 0.0
O1020 O 0.15881 0.51065 0.23207 0.0
O1021 O 0.14191 0.53048 0.252 0.0
O1022 O 0.1168 0.50054 0.23189 0.0
O1023 O 0.10375 0.5311 0.23318 0.0
C1024 C 0.14976 0.61534 0.24821 0.0
C1025 C 0.1524 0.61323 0.2689 0.0
H1026 H 0.15527 0.60354 0.30827 0.0
H1027 H 0.14344 0.57131 0.32247 0.0
H1028 H 0.12829 0.58421 0.1897 0.0
H1029 H 0.14228 0.61384 0.20807 0.0
H1030 H 0.15444 0.62919 0.24127 0.0
H1031 H 0.15918 0.62543 0.27753 0.0
Mn1032 Mn 0.75851 0.62832 0.00359 0.0
Mn1033 Mn 0.71869 0.64865 0.98127 0.0
C1034 C 0.72749 0.61187 0.00416 0.0
C1035 C 0.78706 0.6088 0.00374 0.0
C1036 C 0.73379 0.66229 0.0217 0.0
O1037 O 0.77173 0.64892 0.98539 0.0
O1038 O 0.7439 0.66183 0.97246 0.0
C1039 C 0.72746 0.63435 0.94038 0.0
N1040 N 0.71459 0.63589 0.95592 0.0
C1041 C 0.68792 0.62026 0.93683 0.0
C1042 C 0.70086 0.61852 0.92058 0.0
C1043 C 0.72076 0.62547 0.92241 0.0
C1044 C 0.69558 0.62884 0.95446 0.0
H1045 H 0.74268 0.63993 0.94167 0.0
C1046 C 0.76285 0.66123 0.97433 0.0
O1047 O 0.78458 0.62317 0.01658 0.0
O1048 O 0.7731 0.60594 0.99046 0.0
N1049 N 0.69292 0.63797 0.98788 0.0
C1050 C 0.68253 0.64046 0.00508 0.0
C1051 C 0.66218 0.63505 0.00557 0.0
C1052 C 0.6527 0.62739 0.98831 0.0
C1053 C 0.6638 0.62447 0.97092 0.0
C1054 C 0.68397 0.63034 0.97127 0.0
H1055 H 0.68962 0.64689 0.01822 0.0
O1056 O 0.74103 0.60832 0.01741 0.0
O1057 O 0.73248 0.62487 0.99069 0.0
O1058 O 0.74868 0.65078 0.02207 0.0
O1059 O 0.72137 0.66248 0.00728 0.0
C1060 C 0.65559 0.61628 0.95316 0.0
C1061 C 0.66772 0.61392 0.93621 0.0
H1062 H 0.69569 0.61187 0.90663 0.0
H1063 H 0.73085 0.62418 0.90995 0.0
H1064 H 0.65372 0.63715 0.01909 0.0
H1065 H 0.63686 0.62379 0.9886 0.0
H1066 H 0.64001 0.61162 0.95241 0.0
H1067 H 0.66131 0.60735 0.92273 0.0
Mn1068 Mn 0.87569 0.00752 0.25933 0.0
Mn1069 Mn 0.89719 0.96236 0.25918 0.0
C1070 C 0.85936 0.98007 0.24472 0.0
C1071 C 0.85575 0.03215 0.2733 0.0
C1072 C 0.90925 0.99526 0.23096 0.0
O1073 O 0.89687 0.01095 0.28115 0.0
O1074 O 0.91004 0.98025 0.27955 0.0
C1075 C 0.8842 0.94928 0.29908 0.0
N1076 N 0.88512 0.94599 0.27906 0.0
C1077 C 0.86934 0.91349 0.28201 0.0
C1078 C 0.86828 0.91647 0.30267 0.0
C1079 C 0.87563 0.9345 0.31123 0.0
C1080 C 0.87782 0.92885 0.27065 0.0
H1081 H 0.89 0.96304 0.30574 0.0
C1082 C 0.90915 0.99794 0.28696 0.0
O1083 O 0.86945 0.03639 0.26034 0.0
O1084 O 0.85409 0.01364 0.27878 0.0
N1085 N 0.88626 0.94325 0.24043 0.0
C1086 C 0.88735 0.94325 0.2202 0.0
C1087 C 0.88024 0.92646 0.20928 0.0
C1088 C 0.87241 0.90975 0.2193 0.0
C1089 C 0.87138 0.91013 0.24014 0.0
C1090 C 0.87857 0.92732 0.2502 0.0
H1091 H 0.8937 0.95593 0.21247 0.0
O1092 O 0.85517 0.99811 0.23956 0.0
O1093 O 0.87305 0.97854 0.25839 0.0
O1094 O 0.89699 0.00802 0.23749 0.0
O1095 O 0.91062 0.97774 0.238 0.0
C1096 C 0.86353 0.89414 0.25134 0.0
C1097 C 0.86229 0.8959 0.27223 0.0
H1098 H 0.86178 0.90506 0.3121 0.0
H1099 H 0.87482 0.93694 0.32716 0.0
H1100 H 0.881 0.9263 0.1932 0.0
H1101 H 0.8672 0.89673 0.21083 0.0
H1102 H 0.85822 0.88047 0.24403 0.0
H1103 H 0.85586 0.88366 0.28063 0.0
Mn1104 Mn 0.25593 0.12898 0.50295 0.0
Mn1105 Mn 0.21544 0.14796 0.4806 0.0
C1106 C 0.22549 0.11133 0.5036 0.0
C1107 C 0.28529 0.11071 0.50257 0.0
C1108 C 0.23123 0.16269 0.52065 0.0
O1109 O 0.26814 0.15084 0.48518 0.0
O1110 O 0.24014 0.16004 0.46965 0.0
C1111 C 0.22152 0.13141 0.44003 0.0
N1112 N 0.20967 0.1339 0.45625 0.0
C1113 C 0.18155 0.11825 0.4394 0.0
C1114 C 0.19342 0.11549 0.42248 0.0
C1115 C 0.21353 0.12197 0.42286 0.0
C1116 C 0.19046 0.12732 0.4562 0.0
H1117 H 0.23688 0.13668 0.4402 0.0
C1118 C 0.25905 0.16108 0.4722 0.0
O1119 O 0.28212 0.12448 0.51588 0.0
O1120 O 0.27162 0.10785 0.48898 0.0
N1121 N 0.1901 0.13789 0.48935 0.0
C1122 C 0.18095 0.1411 0.50713 0.0
C1123 C 0.16066 0.13586 0.50918 0.0
C1124 C 0.14995 0.12772 0.49285 0.0
C1125 C 0.15978 0.12419 0.47481 0.0
C1126 C 0.17999 0.12975 0.47365 0.0
H1127 H 0.18895 0.14799 0.51952 0.0
O1128 O 0.23948 0.10784 0.51638 0.0
O1129 O 0.22986 0.12471 0.49031 0.0
O1130 O 0.24515 0.15017 0.52208 0.0
O1131 O 0.21971 0.16355 0.50555 0.0
C1132 C 0.15028 0.11567 0.45783 0.0
C1133 C 0.16123 0.11243 0.44024 0.0
H1134 H 0.18724 0.10843 0.40913 0.0
H1135 H 0.22279 0.1199 0.40987 0.0
H1136 H 0.15318 0.13849 0.52319 0.0
H1137 H 0.13418 0.1242 0.49436 0.0
H1138 H 0.13459 0.11139 0.45819 0.0
H1139 H 0.15384 0.10555 0.42741 0.0
Mn1140 Mn 0.37485 0.50714 0.75964 0.0
Mn1141 Mn 0.39588 0.4618 0.75745 0.0
C1142 C 0.35852 0.48067 0.74334 0.0
C1143 C 0.3548 0.53107 0.77465 0.0
C1144 C 0.40868 0.49594 0.73111 0.0
O1145 O 0.39559 0.50916 0.78196 0.0
O1146 O 0.40885 0.47864 0.77865 0.0
C1147 C 0.38246 0.44707 0.79664 0.0
N1148 N 0.38347 0.44469 0.77651 0.0
C1149 C 0.36717 0.41229 0.77791 0.0
C1150 C 0.36602 0.41435 0.79867 0.0
C1151 C 0.3736 0.43187 0.80805 0.0
C1152 C 0.37597 0.42803 0.76731 0.0
H1153 H 0.38843 0.46044 0.80393 0.0
C1154 C 0.40791 0.49589 0.78703 0.0
O1155 O 0.36894 0.53607 0.76244 0.0
O1156 O 0.35275 0.51222 0.77874 0.0
N1157 N 0.38485 0.44367 0.73783 0.0
C1158 C 0.38605 0.4446 0.71763 0.0
C1159 C 0.37868 0.42844 0.70595 0.0
C1160 C 0.3705 0.41141 0.71515 0.0
C1161 C 0.36938 0.41084 0.73597 0.0
C1162 C 0.37684 0.42743 0.74682 0.0
H1163 H 0.39265 0.45752 0.71052 0.0
O1164 O 0.35468 0.49903 0.739 0.0
O1165 O 0.37194 0.47828 0.75712 0.0
O1166 O 0.39665 0.50861 0.73827 0.0
O1167 O 0.40961 0.47798 0.73711 0.0
C1168 C 0.36118 0.39447 0.74639 0.0
C1169 C 0.35988 0.39528 0.76732 0.0
H1170 H 0.35928 0.40261 0.80753 0.0
H1171 H 0.37272 0.4336 0.82406 0.0
H1172 H 0.37951 0.42902 0.68989 0.0
H1173 H 0.36507 0.39889 0.70609 0.0
H1174 H 0.35566 0.38124 0.73845 0.0
H1175 H 0.35319 0.38277 0.77513 0.0
Mn1176 Mn 0.75375 0.3756 0.51049 0.0
Mn1177 Mn 0.7523 0.39615 0.46497 0.0
C1178 C 0.73776 0.35871 0.48433 0.0
C1179 C 0.76867 0.35605 0.53463 0.0
C1180 C 0.72523 0.4088 0.49843 0.0
O1181 O 0.77631 0.3965 0.51218 0.0
O1182 O 0.77297 0.40996 0.48186 0.0
C1183 C 0.79224 0.38397 0.45134 0.0
N1184 N 0.77212 0.38432 0.44853 0.0
C1185 C 0.77478 0.36831 0.4164 0.0
C1186 C 0.79554 0.36783 0.4189 0.0
C1187 C 0.80429 0.37558 0.43651 0.0
C1188 C 0.76352 0.3766 0.4318 0.0
H1189 H 0.79907 0.3901 0.46475 0.0
C1190 C 0.78135 0.40908 0.49895 0.0
O1191 O 0.7563 0.36993 0.5394 0.0
O1192 O 0.77269 0.35379 0.51587 0.0
N1193 N 0.73333 0.38439 0.44668 0.0
C1194 C 0.71304 0.38498 0.4471 0.0
C1195 C 0.70194 0.37752 0.43073 0.0
C1196 C 0.71184 0.36986 0.414 0.0
C1197 C 0.73274 0.36927 0.41396 0.0
C1198 C 0.74298 0.37681 0.43074 0.0
H1199 H 0.7054 0.39121 0.45979 0.0
O1200 O 0.73293 0.35506 0.50263 0.0
O1201 O 0.75169 0.37235 0.48181 0.0
O1202 O 0.7327 0.39752 0.51152 0.0
O1203 O 0.73118 0.40911 0.48043 0.0
C1204 C 0.74382 0.36158 0.39793 0.0
C1205 C 0.7648 0.36088 0.39924 0.0
H1206 H 0.80489 0.36149 0.40744 0.0
H1207 H 0.8203 0.37524 0.43858 0.0
H1208 H 0.68581 0.37791 0.4309 0.0
H1209 H 0.70323 0.3644 0.40128 0.0
H1210 H 0.73637 0.35599 0.38457 0.0
H1211 H 0.77312 0.35457 0.38697 0.0
Mn1212 Mn 0.63755 0.00649 0.75155 0.0
Mn1213 Mn 0.61729 0.05223 0.75082 0.0
C1214 C 0.65367 0.03238 0.73487 0.0
C1215 C 0.65746 0.98252 0.76618 0.0
C1216 C 0.60269 0.01767 0.72456 0.0
O1217 O 0.61723 0.00501 0.77413 0.0
O1218 O 0.60587 0.03629 0.77281 0.0
C1219 C 0.63382 0.06803 0.78902 0.0
N1220 N 0.63121 0.06983 0.76903 0.0
C1221 C 0.64705 0.1025 0.76947 0.0
C1222 C 0.64987 0.10104 0.79008 0.0
C1223 C 0.64334 0.08366 0.79987 0.0
C1224 C 0.63775 0.08631 0.75941 0.0
H1225 H 0.62859 0.0548 0.79662 0.0
C1226 C 0.60622 0.01897 0.78061 0.0
O1227 O 0.64306 0.9775 0.75401 0.0
O1228 O 0.65997 1.00145 0.77031 0.0
N1229 N 0.62687 0.06968 0.73054 0.0
C1230 C 0.62387 0.06827 0.71051 0.0
C1231 C 0.62964 0.08436 0.69847 0.0
C1232 C 0.6381 0.10183 0.7072 0.0
C1233 C 0.64125 0.10285 0.72783 0.0
C1234 C 0.63525 0.08632 0.73905 0.0
H1235 H 0.6169 0.05507 0.7038 0.0
O1236 O 0.65729 0.01384 0.73057 0.0
O1237 O 0.64087 0.03533 0.74909 0.0
O1238 O 0.61521 0.00506 0.73061 0.0
O1239 O 0.60195 0.03556 0.73135 0.0
C1240 C 0.64997 0.11964 0.73774 0.0
C1241 C 0.65308 0.11938 0.75851 0.0
H1242 H 0.65708 0.11313 0.79852 0.0
H1243 H 0.64549 0.0824 0.81576 0.0
H1244 H 0.62728 0.08344 0.68255 0.0
H1245 H 0.64216 0.11435 0.6979 0.0
H1246 H 0.6545 0.13278 0.72953 0.0
H1247 H 0.66013 0.13223 0.7659 0.0
Mn1248 Mn 0.00457 0.25082 0.87358 0.0
Mn1249 Mn 0.95876 0.24871 0.89438 0.0
C1250 C 0.97833 0.23405 0.85714 0.0
C1251 C 0.02926 0.26559 0.85375 0.0
C1252 C 0.99297 0.22337 0.90797 0.0
O1253 O 0.00619 0.27357 0.89443 0.0
O1254 O 0.97466 0.27145 0.90573 0.0
C1255 C 0.94273 0.28649 0.87934 0.0
N1256 N 0.94109 0.26629 0.88137 0.0
C1257 C 0.90823 0.26541 0.86686 0.0
C1258 C 0.90952 0.28621 0.86464 0.0
C1259 C 0.92692 0.29678 0.87078 0.0
C1260 C 0.92458 0.25594 0.87519 0.0
H1261 H 0.95596 0.2947 0.88433 0.0
C1262 C 0.992 0.2799 0.90534 0.0
O1263 O 0.03354 0.25329 0.86777 0.0
O1264 O 0.01061 0.27003 0.8517 0.0
N1265 N 0.94148 0.2276 0.88459 0.0
C1266 C 0.9432 0.20747 0.88656 0.0
C1267 C 0.92731 0.19465 0.88057 0.0
C1268 C 0.90971 0.20269 0.873 0.0
C1269 C 0.90835 0.22345 0.871 0.0
C1270 C 0.92475 0.23544 0.877 0.0
H1271 H 0.95653 0.20129 0.89281 0.0
O1272 O 0.99673 0.22985 0.85331 0.0
O1273 O 0.97573 0.24799 0.87054 0.0
O1274 O 0.00552 0.22959 0.89518 0.0
O1275 O 0.97526 0.2298 0.90919 0.0
C1276 C 0.89135 0.23274 0.86338 0.0
C1277 C 0.89137 0.25367 0.86109 0.0
H1278 H 0.89729 0.29421 0.85818 0.0
H1279 H 0.92805 0.31284 0.8691 0.0
H1280 H 0.92849 0.17864 0.88207 0.0
H1281 H 0.89737 0.19276 0.86869 0.0
H1282 H 0.87822 0.22393 0.85908 0.0
H1283 H 0.87838 0.26058 0.85483 0.0
Mn1284 Mn 0.50411 0.75156 0.37446 0.0
Mn1285 Mn 0.45814 0.74874 0.39487 0.0
C1286 C 0.47819 0.73456 0.35775 0.0
C1287 C 0.52874 0.76656 0.35472 0.0
C1288 C 0.49246 0.72361 0.40846 0.0
O1289 O 0.50536 0.77421 0.39547 0.0
O1290 O 0.47384 0.77137 0.40665 0.0
C1291 C 0.44212 0.78666 0.38015 0.0
N1292 N 0.44051 0.76643 0.38194 0.0
C1293 C 0.40776 0.76562 0.36718 0.0
C1294 C 0.40902 0.78646 0.36519 0.0
C1295 C 0.42634 0.797 0.37157 0.0
C1296 C 0.42408 0.75611 0.37553 0.0
H1297 H 0.45528 0.79485 0.38531 0.0
C1298 C 0.49105 0.78009 0.40649 0.0
O1299 O 0.5331 0.75433 0.36878 0.0
O1300 O 0.51007 0.7709 0.35267 0.0
N1301 N 0.44099 0.7277 0.38471 0.0
C1302 C 0.44271 0.70756 0.38655 0.0
C1303 C 0.42684 0.69477 0.38044 0.0
C1304 C 0.40927 0.70285 0.37286 0.0
C1305 C 0.40792 0.72362 0.37096 0.0
C1306 C 0.42428 0.73559 0.37712 0.0
H1307 H 0.45601 0.70134 0.39283 0.0
O1308 O 0.49667 0.7306 0.35405 0.0
O1309 O 0.4753 0.7484 0.37117 0.0
O1310 O 0.50513 0.73023 0.39597 0.0
O1311 O 0.47462 0.72972 0.40951 0.0
C1312 C 0.39097 0.73295 0.36329 0.0
C1313 C 0.39097 0.75391 0.36118 0.0
H1314 H 0.39682 0.7945 0.35873 0.0
H1315 H 0.42745 0.81308 0.37007 0.0
H1316 H 0.42802 0.67875 0.38185 0.0
H1317 H 0.39695 0.69294 0.36848 0.0
H1318 H 0.37789 0.72415 0.35878 0.0
H1319 H 0.37801 0.76086 0.35489 0.0
Mn1320 Mn 0.006 0.75349 0.63163 0.0
Mn1321 Mn 0.9836 0.71291 0.6521 0.0
C1322 C 0.00617 0.72265 0.61496 0.0
C1323 C 0.00559 0.78227 0.6123 0.0
C1324 C 0.02418 0.72923 0.66524 0.0
O1325 O 0.98838 0.76604 0.65305 0.0
O1326 O 0.97372 0.73785 0.66426 0.0
C1327 C 0.94254 0.7192 0.63745 0.0
N1328 N 0.95853 0.70722 0.63941 0.0
C1329 C 0.94022 0.67895 0.62546 0.0
C1330 C 0.92352 0.69096 0.62326 0.0
C1331 C 0.92474 0.71122 0.62914 0.0
C1332 C 0.95767 0.68787 0.63337 0.0
H1333 H 0.94335 0.73467 0.6423 0.0
C1334 C 0.97603 0.75688 0.66437 0.0
O1335 O 0.01907 0.77979 0.62587 0.0
O1336 O 0.99194 0.76824 0.61025 0.0
N1337 N 0.99127 0.68737 0.64214 0.0
C1338 C 0.00892 0.67807 0.64469 0.0
C1339 C 0.01011 0.65758 0.64019 0.0
C1340 C 0.99309 0.64686 0.63336 0.0
C1341 C 0.97523 0.65687 0.63028 0.0
C1342 C 0.97492 0.67725 0.63517 0.0
H1343 H 0.02187 0.68612 0.65053 0.0
O1344 O 0.01927 0.73662 0.611 0.0
O1345 O 0.993 0.72716 0.62838 0.0
O1346 O 0.02512 0.74365 0.65307 0.0
O1347 O 0.00929 0.71703 0.66616 0.0
C1348 C 0.95764 0.64738 0.62288 0.0
C1349 C 0.94023 0.65848 0.6202 0.0
H1350 H 0.90969 0.68479 0.61709 0.0
H1351 H 0.91192 0.72058 0.62751 0.0
H1352 H 0.024 0.64998 0.64238 0.0
H1353 H 0.99395 0.63094 0.63042 0.0
H1354 H 0.95737 0.63158 0.61906 0.0
H1355 H 0.9269 0.65109 0.61421 0.0
Mn1356 Mn 0.50905 0.25276 0.12942 0.0
Mn1357 Mn 0.48587 0.21171 0.14806 0.0
C1358 C 0.50919 0.22251 0.1117 0.0
C1359 C 0.50892 0.28215 0.11104 0.0
C1360 C 0.52635 0.22721 0.16254 0.0
O1361 O 0.49133 0.26473 0.15107 0.0
O1362 O 0.47614 0.23631 0.161 0.0
C1363 C 0.4453 0.21939 0.13295 0.0
N1364 N 0.46117 0.20714 0.1343 0.0
C1365 C 0.44292 0.18018 0.11794 0.0
C1366 C 0.42637 0.19248 0.11634 0.0
C1367 C 0.42765 0.21225 0.1237 0.0
C1368 C 0.46038 0.18839 0.12656 0.0
H1369 H 0.44607 0.23443 0.13904 0.0
C1370 C 0.47874 0.2553 0.1619 0.0
O1371 O 0.5223 0.27921 0.12461 0.0
O1372 O 0.49525 0.26824 0.10847 0.0
N1373 N 0.49331 0.18634 0.13733 0.0
C1374 C 0.5099 0.17584 0.14169 0.0
C1375 C 0.51088 0.15568 0.13575 0.0
C1376 C 0.49456 0.14629 0.12597 0.0
C1377 C 0.47731 0.15711 0.12242 0.0
C1378 C 0.47731 0.17728 0.12837 0.0
H1379 H 0.52231 0.18277 0.14966 0.0
O1380 O 0.52236 0.23655 0.10825 0.0
O1381 O 0.49598 0.2267 0.12514 0.0
O1382 O 0.52766 0.24193 0.15074 0.0
O1383 O 0.51135 0.21503 0.16285 0.0
C1384 C 0.45977 0.1484 0.11409 0.0
C1385 C 0.44261 0.15995 0.11178 0.0
H1386 H 0.41257 0.18687 0.10963 0.0
H1387 H 0.41493 0.22183 0.12257 0.0
H1388 H 0.52411 0.14732 0.13892 0.0
H1389 H 0.49528 0.13066 0.12164 0.0
H1390 H 0.4593 0.13281 0.10945 0.0
H1391 H 0.42923 0.1531 0.10529 0.0
C1392 C 0.21045 0.78491 0.89314 0.0
C1393 C 0.21508 0.76527 0.89819 0.0
C1394 C 0.2123 0.80067 0.90705 0.0
C1395 C 0.21943 0.79692 0.92644 0.0
C1396 C 0.22366 0.77706 0.93184 0.0
C1397 C 0.22143 0.76148 0.91766 0.0
C1398 C 0.20752 0.82146 0.90055 0.0
C1399 C 0.23088 0.77233 0.9525 0.0
C1400 C 0.2475 0.83774 0.95577 0.0
C1401 C 0.23278 0.84469 0.96868 0.0
C1402 C 0.24312 0.82276 0.94147 0.0
C1403 C 0.22374 0.81385 0.94064 0.0
C1404 C 0.20882 0.82071 0.95378 0.0
C1405 C 0.21353 0.83609 0.96766 0.0
C1406 C 0.25938 0.81618 0.92753 0.0
C1407 C 0.18803 0.8115 0.95346 0.0
H1408 H 0.20587 0.78813 0.87807 0.0
H1409 H 0.22468 0.74631 0.92183 0.0
H1410 H 0.19992 0.82993 0.91249 0.0
H1411 H 0.22169 0.82946 0.89709 0.0
H1412 H 0.19799 0.82129 0.88699 0.0
H1413 H 0.23218 0.75599 0.95476 0.0
H1414 H 0.24571 0.77963 0.9552 0.0
H1415 H 0.22051 0.77839 0.96379 0.0
H1416 H 0.26264 0.84366 0.95721 0.0
H1417 H 0.20226 0.84115 0.97797 0.0
H1418 H 0.25441 0.81775 0.91187 0.0
H1419 H 0.26245 0.80015 0.92979 0.0
H1420 H 0.2735 0.825 0.92975 0.0
H1421 H 0.18139 0.81267 0.93839 0.0
H1422 H 0.17803 0.81878 0.96438 0.0
H1423 H 0.18868 0.79535 0.95687 0.0
C1424 C 0.04993 0.53645 0.37698 0.0
C1425 C 0.04019 0.52145 0.388 0.0
C1426 C 0.06095 0.5318 0.35992 0.0
C1427 C 0.06179 0.51168 0.35318 0.0
C1428 C 0.05186 0.49644 0.36399 0.0
C1429 C 0.04142 0.50146 0.38141 0.0
C1430 C 0.07156 0.54852 0.34899 0.0
C1431 C 0.05204 0.47489 0.357 0.0
C1432 C 0.0744 0.5093 0.29839 0.0
C1433 C 0.09495 0.50615 0.29903 0.0
C1434 C 0.06303 0.50933 0.31587 0.0
C1435 C 0.07265 0.50698 0.33446 0.0
C1436 C 0.09326 0.50275 0.33504 0.0
C1437 C 0.10415 0.50213 0.31721 0.0
C1438 C 0.04098 0.51327 0.31452 0.0
C1439 C 0.1042 0.50065 0.35453 0.0
H1440 H 0.04874 0.55199 0.38147 0.0
H1441 H 0.03428 0.48964 0.38987 0.0
H1442 H 0.08754 0.54504 0.34698 0.0
H1443 H 0.06492 0.55002 0.33397 0.0
H1444 H 0.07063 0.56313 0.35697 0.0
H1445 H 0.04348 0.46481 0.36701 0.0
H1446 H 0.04555 0.47352 0.34181 0.0
H1447 H 0.06761 0.46973 0.35609 0.0
H1448 H 0.06737 0.51249 0.28427 0.0
H1449 H 0.12014 0.50006 0.31766 0.0
H1450 H 0.03819 0.52876 0.31972 0.0
H1451 H 0.03238 0.50297 0.32426 0.0
H1452 H 0.03525 0.5115 0.29905 0.0
H1453 H 0.1055 0.5155 0.3621 0.0
H1454 H 0.11945 0.49487 0.3524 0.0
H1455 H 0.09582 0.49051 0.36457 0.0
C1456 C 0.77742 0.73782 0.89096 0.0
C1457 C 0.79543 0.74878 0.88934 0.0
C1458 C 0.77498 0.72288 0.90524 0.0
C1459 C 0.7909 0.71885 0.91841 0.0
C1460 C 0.80928 0.72959 0.91662 0.0
C1461 C 0.81136 0.74437 0.90203 0.0
C1462 C 0.7552 0.71164 0.90647 0.0
C1463 C 0.82652 0.72587 0.93047 0.0
C1464 C 0.77208 0.6962 0.96635 0.0
C1465 C 0.77447 0.67577 0.96261 0.0
C1466 C 0.77881 0.71053 0.95273 0.0
C1467 C 0.78767 0.70419 0.93468 0.0
C1468 C 0.79112 0.68357 0.93137 0.0
C1469 C 0.78452 0.66956 0.94548 0.0
C1470 C 0.77511 0.73235 0.95703 0.0
C1471 C 0.80033 0.67615 0.91228 0.0
H1472 H 0.76517 0.74094 0.88098 0.0
H1473 H 0.82529 0.75287 0.90091 0.0
H1474 H 0.75752 0.69529 0.90553 0.0
H1475 H 0.74809 0.71483 0.92102 0.0
H1476 H 0.74473 0.71577 0.89444 0.0
H1477 H 0.8402 0.73453 0.92634 0.0
H1478 H 0.82238 0.7301 0.94591 0.0
H1479 H 0.82995 0.70973 0.93044 0.0
H1480 H 0.76406 0.70091 0.97953 0.0
H1481 H 0.78596 0.65369 0.94245 0.0
H1482 H 0.76307 0.73753 0.94713 0.0
H1483 H 0.78869 0.74159 0.95398 0.0
H1484 H 0.77057 0.73501 0.97271 0.0
H1485 H 0.78948 0.67761 0.8999 0.0
H1486 H 0.80452 0.66022 0.91315 0.0
H1487 H 0.81379 0.68531 0.90855 0.0
C1488 C 0.97191 0.97593 0.3816 0.0
C1489 C 0.9824 0.99192 0.39099 0.0
C1490 C 0.95928 0.97907 0.36526 0.0
C1491 C 0.95744 0.99859 0.35769 0.0
C1492 C 0.96771 0.01484 0.36719 0.0
C1493 C 0.9798 0.01136 0.38386 0.0
C1494 C 0.94827 0.96136 0.3558 0.0
C1495 C 0.9664 0.03582 0.35941 0.0
C1496 C 0.94248 0.99868 0.30318 0.0
C1497 C 0.92205 1.00236 0.30433 0.0
C1498 C 0.95443 0.9987 0.32038 0.0
C1499 C 0.94554 1.00171 0.33924 0.0
C1500 C 0.92499 0.00615 0.34039 0.0
C1501 C 0.91352 0.00666 0.32284 0.0
C1502 C 0.97637 0.9945 0.31841 0.0
C1503 C 0.91482 0.00894 0.36019 0.0
H1504 H 0.97392 0.96081 0.38664 0.0
H1505 H 0.98734 0.02396 0.3912 0.0
H1506 H 0.93215 0.9645 0.35436 0.0
H1507 H 0.95407 0.95863 0.34059 0.0
H1508 H 0.94988 0.94749 0.3645 0.0
H1509 H 0.9749 0.04693 0.36877 0.0
H1510 H 0.97234 0.03634 0.34403 0.0
H1511 H 0.9506 0.04032 0.35869 0.0
H1512 H 0.94899 0.99517 0.28883 0.0
H1513 H 0.8976 0.00905 0.32371 0.0
H1514 H 0.97939 0.97951 0.32439 0.0
H1515 H 0.98542 0.00561 0.32721 0.0
H1516 H 0.9814 0.99488 0.30268 0.0
H1517 H 0.91427 0.99448 0.36809 0.0
H1518 H 0.89933 0.01422 0.3585 0.0
H1519 H 0.92337 0.0198 0.36974 0.0
C1520 C 0.19889 0.23558 0.61024 0.0
C1521 C 0.21517 0.24764 0.61676 0.0
C1522 C 0.20108 0.22098 0.59519 0.0
C1523 C 0.21989 0.21871 0.58601 0.0
C1524 C 0.23639 0.23072 0.59253 0.0
C1525 C 0.23392 0.24475 0.60799 0.0
C1526 C 0.18322 0.20813 0.58896 0.0
C1527 C 0.25663 0.22899 0.58293 0.0
C1528 C 0.23204 0.17128 0.55701 0.0
C1529 C 0.22814 0.17689 0.53739 0.0
C1530 C 0.2289 0.18454 0.57304 0.0
C1531 C 0.22228 0.20408 0.56929 0.0
C1532 C 0.21845 0.20985 0.54947 0.0
C1533 C 0.22114 0.19608 0.53379 0.0
C1534 C 0.23262 0.17764 0.59398 0.0
C1535 C 0.21189 0.2307 0.54479 0.0
H1536 H 0.18427 0.23775 0.61662 0.0
H1537 H 0.24678 0.2535 0.61318 0.0
H1538 H 0.17916 0.21127 0.57333 0.0
H1539 H 0.18691 0.19207 0.58964 0.0
H1540 H 0.17002 0.21078 0.5985 0.0
H1541 H 0.26785 0.23973 0.58945 0.0
H1542 H 0.26216 0.21362 0.58462 0.0
H1543 H 0.25541 0.23177 0.56673 0.0
H1544 H 0.23723 0.15636 0.55986 0.0
H1545 H 0.21822 0.2005 0.51862 0.0
H1546 H 0.21906 0.17969 0.60315 0.0
H1547 H 0.24481 0.18684 0.60097 0.0
H1548 H 0.23675 0.16167 0.59443 0.0
H1549 H 0.1977 0.23386 0.55252 0.0
H1550 H 0.2097 0.23287 0.52858 0.0
H1551 H 0.22322 0.24185 0.55033 0.0
C1552 C 0.48342 0.53534 0.64592 0.0
C1553 C 0.48334 0.52138 0.63018 0.0
C1554 C 0.47128 0.53233 0.66267 0.0
C1555 C 0.4584 0.51521 0.66339 0.0
C1556 C 0.45787 0.50141 0.64717 0.0
C1557 C 0.47058 0.50452 0.63088 0.0
C1558 C 0.47266 0.54712 0.67984 0.0
C1559 C 0.44401 0.48325 0.64711 0.0
C1560 C 0.44095 0.49417 0.71278 0.0
C1561 C 0.42182 0.50199 0.71449 0.0
C1562 C 0.45326 0.49894 0.69658 0.0
C1563 C 0.44601 0.5113 0.68137 0.0
C1564 C 0.4267 0.51931 0.68307 0.0
C1565 C 0.41495 0.5148 0.69978 0.0
C1566 C 0.47395 0.49055 0.69563 0.0
C1567 C 0.41821 0.53209 0.66693 0.0
H1568 H 0.49345 0.5483 0.64536 0.0
H1569 H 0.47052 0.4938 0.61861 0.0
H1570 H 0.45776 0.55318 0.6831 0.0
H1571 H 0.47773 0.53946 0.69342 0.0
H1572 H 0.48319 0.55981 0.67682 0.0
H1573 H 0.44441 0.47476 0.63278 0.0
H1574 H 0.44822 0.47312 0.65926 0.0
H1575 H 0.42846 0.48783 0.64991 0.0
H1576 H 0.44634 0.48437 0.72421 0.0
H1577 H 0.40007 0.52068 0.70096 0.0
H1578 H 0.48517 0.50279 0.69342 0.0
H1579 H 0.47501 0.48009 0.68273 0.0
H1580 H 0.47786 0.48241 0.70934 0.0
H1581 H 0.42822 0.54523 0.6643 0.0
H1582 H 0.40312 0.53747 0.67067 0.0
H1583 H 0.41724 0.52335 0.65278 0.0
C1584 C 0.8208 0.28524 0.6147 0.0
C1585 C 0.80601 0.27293 0.62335 0.0
C1586 C 0.81589 0.2996 0.60053 0.0
C1587 C 0.79577 0.30142 0.59447 0.0
C1588 C 0.78079 0.28906 0.60306 0.0
C1589 C 0.78603 0.27521 0.61755 0.0
C1590 C 0.83225 0.31276 0.59198 0.0
C1591 C 0.75918 0.29034 0.59685 0.0
C1592 C 0.77712 0.34838 0.56997 0.0
C1593 C 0.77699 0.34273 0.5498 0.0
C1594 C 0.78393 0.33538 0.58461 0.0
C1595 C 0.79029 0.31607 0.57898 0.0
C1596 C 0.79044 0.3104 0.55859 0.0
C1597 C 0.78401 0.32389 0.54423 0.0
C1598 C 0.78399 0.34218 0.60613 0.0
C1599 C 0.7967 0.28982 0.55199 0.0
H1600 H 0.8363 0.28352 0.61879 0.0
H1601 H 0.77435 0.26623 0.6244 0.0
H1602 H 0.83344 0.30992 0.57573 0.0
H1603 H 0.82861 0.32874 0.5941 0.0
H1604 H 0.847 0.31016 0.59895 0.0
H1605 H 0.74941 0.27927 0.60456 0.0
H1606 H 0.75369 0.30554 0.60013 0.0
H1607 H 0.75773 0.28773 0.58056 0.0
H1608 H 0.77183 0.36299 0.57433 0.0
H1609 H 0.78383 0.3194 0.52866 0.0
H1610 H 0.7989 0.34002 0.61288 0.0
H1611 H 0.77308 0.33299 0.61464 0.0
H1612 H 0.78011 0.35816 0.60789 0.0
H1613 H 0.81193 0.28686 0.55755 0.0
H1614 H 0.79655 0.28794 0.53554 0.0
H1615 H 0.78647 0.27834 0.55843 0.0
C1616 C 0.54137 0.00685 0.62319 0.0
C1617 C 0.52868 0.98992 0.62235 0.0
C1618 C 0.55299 0.01121 0.64022 0.0
C1619 C 0.55144 0.9986 0.65694 0.0
C1620 C 0.53812 0.98181 0.65631 0.0
C1621 C 0.52711 0.97751 0.63888 0.0
C1622 C 0.56732 0.029 0.64013 0.0
C1623 C 0.53564 0.9683 0.67397 0.0
C1624 C 0.595 0.99808 0.69337 0.0
C1625 C 0.589 0.01177 0.70803 0.0
C1626 C 0.58291 0.99364 0.67668 0.0
C1627 C 0.56413 0.00271 0.67488 0.0
C1628 C 0.55771 0.01604 0.68998 0.0
C1629 C 0.57035 0.02063 0.70623 0.0
C1630 C 0.5905 0.97971 0.66069 0.0
C1631 C 0.53757 0.02559 0.68889 0.0
H1632 H 0.54264 0.01631 0.61027 0.0
H1633 H 0.5172 0.96444 0.63814 0.0
H1634 H 0.56387 0.03945 0.65254 0.0
H1635 H 0.58279 0.02395 0.64248 0.0
H1636 H 0.56676 0.03728 0.62595 0.0
H1637 H 0.5238 0.9566 0.67149 0.0
H1638 H 0.54989 0.96085 0.67711 0.0
H1639 H 0.53187 0.97725 0.68741 0.0
H1640 H 0.6095 0.99136 0.69457 0.0
H1641 H 0.56561 0.03115 0.71758 0.0
H1642 H 0.5915 0.98766 0.64634 0.0
H1643 H 0.57992 0.96684 0.65848 0.0
H1644 H 0.60544 0.97389 0.66434 0.0
H1645 H 0.53695 0.03543 0.67578 0.0
H1646 H 0.5343 0.03463 0.70243 0.0
H1647 H 0.52565 0.01389 0.68692 0.0
C1648 C 0.88774 0.1948 0.78698 0.0
C1649 C 0.89173 0.19961 0.76713 0.0
C1650 C 0.90181 0.19883 0.8021 0.0
C1651 C 0.92028 0.20831 0.79742 0.0
C1652 C 0.92465 0.21276 0.77732 0.0
C1653 C 0.9103 0.20843 0.76243 0.0
C1654 C 0.89629 0.19376 0.82315 0.0
C1655 C 0.94445 0.22223 0.77157 0.0
C1656 C 0.94828 0.24013 0.8363 0.0
C1657 C 0.96234 0.22682 0.84342 0.0
C1658 C 0.93409 0.23407 0.82187 0.0
C1659 C 0.9346 0.21449 0.81359 0.0
C1660 C 0.94903 0.20107 0.82048 0.0
C1661 C 0.96268 0.20738 0.83538 0.0
C1662 C 0.91869 0.2487 0.8153 0.0
C1663 C 0.95025 0.18017 0.81185 0.0
H1664 H 0.87332 0.18828 0.79086 0.0
H1665 H 0.91365 0.21189 0.74708 0.0
H1666 H 0.90936 0.18892 0.83181 0.0
H1667 H 0.89038 0.20731 0.83038 0.0
H1668 H 0.88449 0.1818 0.82366 0.0
H1669 H 0.94608 0.22346 0.75519 0.0
H1670 H 0.94598 0.23742 0.77833 0.0
H1671 H 0.95687 0.21331 0.7774 0.0
H1672 H 0.9487 0.25548 0.84168 0.0
H1673 H 0.97388 0.19723 0.84052 0.0
H1674 H 0.90349 0.24224 0.8177 0.0
H1675 H 0.92022 0.25153 0.79916 0.0
H1676 H 0.92007 0.26323 0.82348 0.0
H1677 H 0.93595 0.17185 0.81419 0.0
H1678 H 0.9625 0.17165 0.81863 0.0
H1679 H 0.9527 0.18086 0.79555 0.0
C1680 C 0.49496 0.87422 0.48213 0.0
C1681 C 0.48797 0.89107 0.47228 0.0
C1682 C 0.49902 0.85644 0.47167 0.0
C1683 C 0.49568 0.85528 0.45087 0.0
C1684 C 0.48957 0.87249 0.44069 0.0
C1685 C 0.48595 0.89018 0.45147 0.0
C1686 C 0.50574 0.83853 0.48308 0.0
C1687 C 0.48565 0.87188 0.41855 0.0
C1688 C 0.51123 0.81008 0.41958 0.0
C1689 C 0.49336 0.79866 0.41891 0.0
C1690 C 0.51249 0.82837 0.43033 0.0
C1691 C 0.49543 0.83547 0.44036 0.0
C1692 C 0.47753 0.82383 0.44 0.0
C1693 C 0.47677 0.80564 0.42946 0.0
C1694 C 0.53193 0.84025 0.43068 0.0
C1695 C 0.4589 0.83083 0.45034 0.0
H1696 H 0.49646 0.87456 0.49819 0.0
H1697 H 0.48109 0.90322 0.44359 0.0
H1698 H 0.49318 0.82748 0.48418 0.0
H1699 H 0.51809 0.83106 0.47521 0.0
H1700 H 0.5108 0.84269 0.49839 0.0
H1701 H 0.48306 0.88698 0.41253 0.0
H1702 H 0.49837 0.86524 0.41054 0.0
H1703 H 0.47226 0.86224 0.41535 0.0
H1704 H 0.52414 0.80488 0.41154 0.0
H1705 H 0.46282 0.79708 0.42917 0.0
H1706 H 0.53634 0.84398 0.44625 0.0
H1707 H 0.53004 0.85459 0.4229 0.0
H1708 H 0.54419 0.83204 0.42341 0.0
H1709 H 0.4619 0.83332 0.46644 0.0
H1710 H 0.44619 0.81993 0.4487 0.0
H1711 H 0.45434 0.84531 0.44414 0.0
C1712 C 0.09942 0.28382 0.76069 0.0
C1713 C 0.11739 0.29435 0.76499 0.0
C1714 C 0.08489 0.2806 0.77537 0.0
C1715 C 0.08798 0.28864 0.79477 0.0
C1716 C 0.10556 0.3001 0.79903 0.0
C1717 C 0.12016 0.30256 0.78423 0.0
C1718 C 0.06652 0.26797 0.77026 0.0
C1719 C 0.10922 0.30934 0.81939 0.0
C1720 C 0.04203 0.28957 0.82806 0.0
C1721 C 0.0448 0.27264 0.83971 0.0
C1722 C 0.05635 0.29547 0.81388 0.0
C1723 C 0.07347 0.28379 0.81089 0.0
C1724 C 0.07636 0.26679 0.82277 0.0
C1725 C 0.06215 0.26161 0.8372 0.0
C1726 C 0.05304 0.31403 0.80194 0.0
C1727 C 0.09412 0.25362 0.81976 0.0
H1728 H 0.09671 0.27788 0.74582 0.0
H1729 H 0.13397 0.31052 0.78797 0.0
H1730 H 0.06599 0.25449 0.7797 0.0
H1731 H 0.05286 0.27646 0.77342 0.0
H1732 H 0.06618 0.26307 0.7544 0.0
H1733 H 0.1224 0.31975 0.81965 0.0
H1734 H 0.09594 0.31763 0.82436 0.0
H1735 H 0.11173 0.2974 0.83033 0.0
H1736 H 0.02869 0.2982 0.83002 0.0
H1737 H 0.06429 0.24841 0.84603 0.0
H1738 H 0.05068 0.3099 0.78605 0.0
H1739 H 0.06645 0.32409 0.80279 0.0
H1740 H 0.03992 0.3224 0.80723 0.0
H1741 H 0.09397 0.2474 0.80436 0.0
H1742 H 0.09425 0.24101 0.83033 0.0
H1743 H 0.10819 0.26254 0.82166 0.0
C1744 C 0.53359 0.64456 0.48692 0.0
C1745 C 0.52065 0.62781 0.48737 0.0
C1746 C 0.52995 0.66048 0.47408 0.0
C1747 C 0.51326 0.65932 0.46104 0.0
C1748 C 0.50052 0.64208 0.46107 0.0
C1749 C 0.50422 0.62666 0.47444 0.0
C1750 C 0.54361 0.67877 0.47484 0.0
C1751 C 0.48287 0.63999 0.44709 0.0
C1752 C 0.49007 0.70642 0.4412 0.0
C1753 C 0.49849 0.70769 0.42218 0.0
C1754 C 0.49524 0.69112 0.4542 0.0
C1755 C 0.50869 0.67635 0.44782 0.0
C1756 C 0.51723 0.67755 0.42861 0.0
C1757 C 0.51224 0.69338 0.41613 0.0
C1758 C 0.48619 0.69069 0.47473 0.0
C1759 C 0.53119 0.66182 0.42103 0.0
H1760 H 0.54623 0.64543 0.49705 0.0
H1761 H 0.49429 0.61361 0.47478 0.0
H1762 H 0.54999 0.68163 0.45993 0.0
H1763 H 0.53496 0.69209 0.47914 0.0
H1764 H 0.55606 0.67724 0.48563 0.0
H1765 H 0.47522 0.62511 0.44807 0.0
H1766 H 0.47192 0.65168 0.45059 0.0
H1767 H 0.48779 0.64223 0.43152 0.0
H1768 H 0.47955 0.71755 0.44599 0.0
H1769 H 0.51864 0.69419 0.40136 0.0
H1770 H 0.49815 0.69007 0.48616 0.0
H1771 H 0.4766 0.67705 0.47629 0.0
H1772 H 0.47703 0.70398 0.47787 0.0
H1773 H 0.54419 0.66075 0.43118 0.0
H1774 H 0.53673 0.66503 0.40582 0.0
H1775 H 0.52339 0.64698 0.42077 0.0
C1776 C 0.89371 0.80972 0.73135 0.0
C1777 C 0.89901 0.80849 0.75151 0.0
C1778 C 0.90733 0.80497 0.71627 0.0
C1779 C 0.9267 0.79878 0.72146 0.0
C1780 C 0.9326 0.79901 0.74172 0.0
C1781 C 0.9187 0.80385 0.75649 0.0
C1782 C 0.90042 0.80499 0.69487 0.0
C1783 C 0.95312 0.79262 0.74793 0.0
C1784 C 0.94873 0.75793 0.68947 0.0
C1785 C 0.96338 0.76828 0.67848 0.0
C1786 C 0.93674 0.76777 0.70328 0.0
C1787 C 0.93928 0.78865 0.70631 0.0
C1788 C 0.9538 0.79938 0.69516 0.0
C1789 C 0.96572 0.78906 0.68134 0.0
C1790 C 0.92143 0.75569 0.71478 0.0
C1791 C 0.95683 0.82167 0.69795 0.0
H1792 H 0.87853 0.8132 0.72733 0.0
H1793 H 0.92303 0.80329 0.77202 0.0
H1794 H 0.91207 0.81169 0.68517 0.0
H1795 H 0.89763 0.78935 0.68963 0.0
H1796 H 0.88643 0.81334 0.69303 0.0
H1797 H 0.95643 0.79655 0.76375 0.0
H1798 H 0.95414 0.77617 0.74599 0.0
H1799 H 0.96475 0.79966 0.73844 0.0
H1800 H 0.94656 0.74192 0.68738 0.0
H1801 H 0.97693 0.79722 0.67293 0.0
H1802 H 0.90631 0.76155 0.71222 0.0
H1803 H 0.9246 0.75706 0.73097 0.0
H1804 H 0.92122 0.73957 0.71051 0.0
H1805 H 0.94257 0.82932 0.69542 0.0
H1806 H 0.96827 0.82794 0.68771 0.0
H1807 H 0.96154 0.82513 0.7135 0.0
C1808 C 0.01216 0.8853 0.55252 0.0
C1809 C 0.01539 0.88156 0.53224 0.0
C1810 C 0.00937 0.86946 0.56583 0.0
C1811 C 0.01044 0.84945 0.55876 0.0
C1812 C 0.01374 0.84566 0.53824 0.0
C1813 C 0.0159 0.86178 0.52518 0.0
C1814 C 0.00539 0.87416 0.58747 0.0
C1815 C 0.01551 0.82459 0.53016 0.0
C1816 C 0.02473 0.80998 0.59604 0.0
C1817 C 0.00648 0.79982 0.59912 0.0
C1818 C 0.02623 0.82604 0.58286 0.0
C1819 C 0.00893 0.8325 0.57292 0.0
C1820 C 0.99034 0.82258 0.57633 0.0
C1821 C 0.98939 0.80615 0.58917 0.0
C1822 C 0.04642 0.83584 0.57928 0.0
C1823 C 0.97146 0.82934 0.56645 0.0
H1824 H 0.01166 0.90064 0.55791 0.0
H1825 H 0.01854 0.85895 0.50949 0.0
H1826 H 0.99162 0.86611 0.59235 0.0
H1827 H 0.01786 0.86891 0.59678 0.0
H1828 H 0.00368 0.89043 0.59033 0.0
H1829 H 0.01802 0.82419 0.51383 0.0
H1830 H 0.02812 0.8172 0.53758 0.0
H1831 H 1.00177 0.81568 0.53345 0.0
H1832 H 0.03803 0.80503 0.60355 0.0
H1833 H 0.97523 0.79839 0.59159 0.0
H1834 H 0.04613 0.85194 0.58343 0.0
H1835 H 0.05014 0.83486 0.56322 0.0
H1836 H 0.05848 0.8288 0.5879 0.0
H1837 H 0.96924 0.84543 0.5698 0.0
H1838 H 0.95807 0.82067 0.57138 0.0
H1839 H 0.97274 0.82769 0.55006 0.0
C1840 C 0.12235 0.70943 0.73088 0.0
C1841 C 0.11844 0.71383 0.75096 0.0
C1842 C 0.1076 0.71153 0.71618 0.0
C1843 C 0.08856 0.71843 0.72165 0.0
C1844 C 0.08449 0.72283 0.74187 0.0
C1845 C 0.09938 0.72031 0.75626 0.0
C1846 C 0.11242 0.70646 0.6948 0.0
C1847 C 0.0644 0.73029 0.74831 0.0
C1848 C 0.05525 0.74181 0.68287 0.0
C1849 C 0.04117 0.72632 0.67906 0.0
C1850 C 0.07092 0.73937 0.69651 0.0
C1851 C 0.07274 0.72091 0.70632 0.0
C1852 C 0.0589 0.70506 0.70215 0.0
C1853 C 0.0432 0.70801 0.68872 0.0
C1854 C 0.08524 0.75671 0.70078 0.0
C1855 C 0.06049 0.68505 0.71207 0.0
H1856 H 0.13707 0.70466 0.72656 0.0
H1857 H 0.09603 0.72336 0.77175 0.0
H1858 H 0.10163 0.69494 0.68894 0.0
H1859 H 0.11094 0.7199 0.6855 0.0
H1860 H 0.12776 0.70079 0.69307 0.0
H1861 H 0.06379 0.73351 0.76455 0.0
H1862 H 0.06092 0.74415 0.74024 0.0
H1863 H 0.05255 0.719 0.74446 0.0
H1864 H 0.05377 0.75602 0.67554 0.0
H1865 H 0.03251 0.69589 0.6858 0.0
H1866 H 0.10081 0.75215 0.6981 0.0
H1867 H 0.0842 0.76127 0.71668 0.0
H1868 H 0.08215 0.76987 0.69147 0.0
H1869 H 0.0756 0.67904 0.70975 0.0
H1870 H 0.04925 0.6739 0.70632 0.0
H1871 H 0.05838 0.68687 0.72836 0.0
C1872 C 0.9937 0.62013 0.55266 0.0
C1873 C 0.9913 0.62381 0.53239 0.0
C1874 C 0.99832 0.63569 0.56617 0.0
C1875 C 1.00001 0.6556 0.55941 0.0
C1876 C 0.99859 0.65927 0.53871 0.0
C1877 C 0.99433 0.64326 0.52539 0.0
C1878 C 1.0001 0.63063 0.58779 0.0
C1879 C 1.00092 0.68017 0.53075 0.0
C1880 C 0.98592 0.69801 0.59464 0.0
C1881 C 0.00455 0.70465 0.60196 0.0
C1882 C 0.98424 0.68182 0.58113 0.0
C1883 C 1.00171 0.67261 0.57403 0.0
C1884 C 0.02063 0.6796 0.58104 0.0
C1885 C 0.02181 0.69552 0.59496 0.0
C1886 C 0.96376 0.67461 0.57437 0.0
C1887 C 0.03959 0.67029 0.57379 0.0
H1888 H 0.99164 0.605 0.55801 0.0
H1889 H 0.99259 0.64604 0.50963 0.0
H1890 H 0.0104 0.64111 0.59591 0.0
H1891 H 0.98506 0.63139 0.59446 0.0
H1892 H 0.0054 0.61517 0.58973 0.0
H1893 H 1.00136 0.68027 0.51423 0.0
H1894 H 0.98825 0.68929 0.5358 0.0
H1895 H 0.01481 0.68748 0.53665 0.0
H1896 H 0.97266 0.70574 0.59922 0.0
H1897 H 0.03628 0.70096 0.60027 0.0
H1898 H 0.96159 0.65856 0.57794 0.0
H1899 H 0.96237 0.67595 0.558 0.0
H1900 H 0.95166 0.68318 0.58152 0.0
H1901 H 0.03965 0.65427 0.57784 0.0
H1902 H 0.05315 0.67787 0.58018 0.0
H1903 H 0.04035 0.67095 0.55732 0.0
C1904 C 0.76195 0.91354 0.22458 0.0
C1905 C 0.76532 0.89391 0.21796 0.0
C1906 C 0.77791 0.92727 0.22784 0.0
C1907 C 0.79774 0.92129 0.22432 0.0
C1908 C 0.80115 0.90172 0.21705 0.0
C1909 C 0.78499 0.88824 0.2142 0.0
C1910 C 0.77358 0.94812 0.23528 0.0
C1911 C 0.82192 0.89467 0.21297 0.0
C1912 C 0.83782 0.96229 0.21948 0.0
C1913 C 0.84561 0.96341 0.23884 0.0
C1914 C 0.82256 0.94832 0.21437 0.0
C1915 C 0.81488 0.93525 0.22903 0.0
C1916 C 0.82306 0.93607 0.2485 0.0
C1917 C 0.83805 0.95041 0.25326 0.0
C1918 C 0.81422 0.94799 0.19348 0.0
C1919 C 0.81559 0.92218 0.26448 0.0
H1920 H 0.74681 0.91821 0.2272 0.0
H1921 H 0.78789 0.87303 0.20948 0.0
H1922 H 0.78049 0.95067 0.25016 0.0
H1923 H 0.78027 0.95936 0.22515 0.0
H1924 H 0.75732 0.95072 0.23645 0.0
H1925 H 0.82187 0.88042 0.20426 0.0
H1926 H 0.83075 0.90611 0.20481 0.0
H1927 H 0.82943 0.89222 0.22736 0.0
H1928 H 0.8434 0.97265 0.20844 0.0
H1929 H 0.84342 0.95189 0.26845 0.0
H1930 H 0.79825 0.95199 0.19381 0.0
H1931 H 0.81497 0.93271 0.18691 0.0
H1932 H 0.82236 0.95857 0.18363 0.0
H1933 H 0.82404 0.92424 0.27864 0.0
H1934 H 0.81682 0.90641 0.25937 0.0
H1935 H 0.79958 0.9248 0.26742 0.0
C1936 C 0.78493 0.12137 0.30859 0.0
C1937 C 0.76557 0.11752 0.30108 0.0
C1938 C 0.80007 0.10737 0.30622 0.0
C1939 C 0.796 0.08929 0.29558 0.0
C1940 C 0.77648 0.08511 0.28828 0.0
C1941 C 0.76148 0.09909 0.29139 0.0
C1942 C 0.82058 0.11219 0.31465 0.0
C1943 C 0.77157 0.06615 0.27657 0.0
C1944 C 0.83856 0.06434 0.26847 0.0
C1945 C 0.84161 0.04745 0.2801 0.0
C1946 C 0.82392 0.07815 0.27349 0.0
C1947 C 0.81239 0.07532 0.29088 0.0
C1948 C 0.81596 0.05872 0.30313 0.0
C1949 C 0.83034 0.04479 0.29742 0.0
C1950 C 0.82031 0.09538 0.25976 0.0
C1951 C 0.80439 0.05551 0.32208 0.0
H1952 H 0.78849 0.13557 0.31588 0.0
H1953 H 0.74653 0.09558 0.286 0.0
H1954 H 0.82601 0.09939 0.32328 0.0
H1955 H 0.83126 0.11478 0.30234 0.0
H1956 H 0.82073 0.12571 0.32446 0.0
H1957 H 0.75558 0.06499 0.27217 0.0
H1958 H 0.78079 0.06565 0.2629 0.0
H1959 H 0.77521 0.05288 0.28544 0.0
H1960 H 0.84712 0.06639 0.25497 0.0
H1961 H 0.83272 0.0318 0.3065 0.0
H1962 H 0.82201 0.1098 0.26802 0.0
H1963 H 0.80479 0.09436 0.25396 0.0
H1964 H 0.83072 0.09558 0.24693 0.0
H1965 H 0.80511 0.06928 0.33151 0.0
H1966 H 0.81012 0.04288 0.3308 0.0
H1967 H 0.78844 0.05234 0.31851 0.0
C1968 C 0.38503 0.95725 0.97704 0.0
C1969 C 0.39543 0.96854 0.99172 0.0
C1970 C 0.36689 0.9473 0.98124 0.0
C1971 C 0.35847 0.94916 1.00044 0.0
C1972 C 0.3688 0.9604 0.01539 0.0
C1973 C 0.38728 0.96966 0.01096 0.0
C1974 C 0.35655 0.93509 0.96496 0.0
C1975 C 0.3601 0.96307 0.03592 0.0
C1976 C 0.30251 0.9397 0.99937 0.0
C1977 C 0.301 0.91984 0.00562 0.0
C1978 C 0.32102 0.94996 0.9991 0.0
C1979 C 0.33851 0.93983 0.00446 0.0
C1980 C 0.33691 0.92006 0.01167 0.0
C1981 C 0.31808 0.91038 0.01244 0.0
C1982 C 0.32198 0.97126 0.99196 0.0
C1983 C 0.3552 0.90853 0.01702 0.0
H1984 H 0.39078 0.95651 0.96202 0.0
H1985 H 0.39526 0.97788 0.02263 0.0
H1986 H 0.35279 0.91983 0.97031 0.0
H1987 H 0.34234 0.94213 0.96084 0.0
H1988 H 0.36586 0.93375 0.95139 0.0
H1989 H 0.37009 0.97213 0.04596 0.0
H1990 H 0.34555 0.97057 0.03483 0.0
H1991 H 0.35718 0.9483 0.04275 0.0
H1992 H 0.28926 0.94697 0.99408 0.0
H1993 H 0.31694 0.8949 0.01694 0.0
H1994 H 0.32871 0.97168 0.97692 0.0
H1995 H 0.33158 0.98072 1.00198 0.0
H1996 H 0.30696 0.97786 0.99115 0.0
H1997 H 0.36364 0.90505 0.00328 0.0
H1998 H 0.35132 0.89426 0.0245 0.0
H1999 H 0.36527 0.9176 0.02691 0.0
C2000 C 0.25447 0.41185 0.28698 0.0
C2001 C 0.2505 0.39355 0.29639 0.0
C2002 C 0.23923 0.4253 0.28317 0.0
C2003 C 0.21955 0.42079 0.28953 0.0
C2004 C 0.21554 0.40287 0.2999 0.0
C2005 C 0.23097 0.38935 0.30296 0.0
C2006 C 0.24413 0.4441 0.2718 0.0
C2007 C 0.19486 0.39775 0.30738 0.0
C2008 C 0.18493 0.46508 0.29053 0.0
C2009 C 0.17426 0.46212 0.27271 0.0
C2010 C 0.19908 0.45125 0.2967 0.0
C2011 C 0.20309 0.43444 0.2844 0.0
C2012 C 0.19215 0.43129 0.2665 0.0
C2013 C 0.17767 0.44502 0.26103 0.0
C2014 C 0.20996 0.45481 0.31618 0.0
C2015 C 0.19629 0.41386 0.25271 0.0
H2016 H 0.26953 0.41567 0.28236 0.0
H2017 H 0.22754 0.37526 0.31007 0.0
H2018 H 0.23516 0.44425 0.25789 0.0
H2019 H 0.24016 0.45748 0.28073 0.0
H2020 H 0.26018 0.4454 0.26785 0.0
H2021 H 0.19462 0.38435 0.31694 0.0
H2022 H 0.1889 0.41055 0.31601 0.0
H2023 H 0.18463 0.39484 0.29459 0.0
H2024 H 0.18221 0.47822 0.29968 0.0
H2025 H 0.16955 0.44274 0.24717 0.0
H2026 H 0.22598 0.45818 0.31333 0.0
H2027 H 0.20913 0.44114 0.32532 0.0
H2028 H 0.20376 0.46745 0.32489 0.0
H2029 H 0.21194 0.41497 0.24742 0.0
H2030 H 0.18619 0.4133 0.23956 0.0
H2031 H 0.19458 0.39957 0.26076 0.0
C2032 C 0.1479 0.01893 0.50025 0.0
C2033 C 0.12807 0.02468 0.49783 0.0
C2034 C 0.16348 0.03338 0.50215 0.0
C2035 C 0.15909 0.05401 0.50179 0.0
C2036 C 0.13894 0.05972 0.50031 0.0
C2037 C 0.12377 0.04505 0.49813 0.0
C2038 C 0.18468 0.02657 0.50416 0.0
C2039 C 0.13329 0.08131 0.50015 0.0
C2040 C 0.1982 0.09227 0.52061 0.0
C2041 C 0.20738 0.09821 0.50288 0.0
C2042 C 0.18238 0.07803 0.5205 0.0
C2043 C 0.17556 0.06954 0.50219 0.0
C2044 C 0.1847 0.07567 0.48422 0.0
C2045 C 0.20078 0.08961 0.48484 0.0
C2046 C 0.17318 0.07186 0.53999 0.0
C2047 C 0.17768 0.0673 0.46436 0.0
H2048 H 0.15127 0.00317 0.50007 0.0
H2049 H 0.10841 0.04954 0.49656 0.0
H2050 H 0.19346 0.03134 0.49103 0.0
H2051 H 0.19184 0.03368 0.51749 0.0
H2052 H 0.18551 0.01006 0.5054 0.0
H2053 H 0.14242 0.09037 0.5109 0.0
H2054 H 0.136 0.08706 0.48504 0.0
H2055 H 0.11727 0.08325 0.50369 0.0
H2056 H 0.20361 0.0986 0.53463 0.0
H2057 H 0.20849 0.09345 0.47124 0.0
H2058 H 0.17473 0.05553 0.54197 0.0
H2059 H 0.15698 0.07488 0.5399 0.0
H2060 H 0.18019 0.07986 0.55293 0.0
H2061 H 0.17947 0.05086 0.46386 0.0
H2062 H 0.18603 0.07396 0.45174 0.0
H2063 H 0.16156 0.07014 0.46234 0.0
C2064 C 0.72258 0.12178 0.6918 0.0
C2065 C 0.74272 0.11734 0.69465 0.0
C2066 C 0.70729 0.10812 0.69686 0.0
C2067 C 0.71211 0.08963 0.70538 0.0
C2068 C 0.73243 0.08478 0.70781 0.0
C2069 C 0.74748 0.09868 0.70242 0.0
C2070 C 0.68598 0.11401 0.6939 0.0
C2071 C 0.73826 0.06502 0.7164 0.0
C2072 C 0.67546 0.06286 0.73961 0.0
C2073 C 0.6668 0.04835 0.72684 0.0
C2074 C 0.68965 0.07686 0.73263 0.0
C2075 C 0.69598 0.07576 0.71256 0.0
C2076 C 0.68736 0.06099 0.69962 0.0
C2077 C 0.67285 0.04747 0.70692 0.0
C2078 C 0.69818 0.09257 0.74685 0.0
C2079 C 0.69381 0.05916 0.67819 0.0
H2080 H 0.71866 0.13627 0.68618 0.0
H2081 H 0.763 0.09495 0.70437 0.0
H2082 H 0.67988 0.11854 0.7085 0.0
H2083 H 0.6847 0.1268 0.68365 0.0
H2084 H 0.67674 0.10128 0.68797 0.0
H2085 H 0.75467 0.06303 0.71624 0.0
H2086 H 0.73299 0.06401 0.73198 0.0
H2087 H 0.73098 0.0525 0.70786 0.0
H2088 H 0.67152 0.06293 0.75523 0.0
H2089 H 0.66648 0.03593 0.69715 0.0
H2090 H 0.69594 0.10768 0.74076 0.0
H2091 H 0.71449 0.09069 0.74855 0.0
H2092 H 0.69119 0.09182 0.76179 0.0
H2093 H 0.69166 0.07351 0.67049 0.0
H2094 H 0.6854 0.04711 0.66997 0.0
H2095 H 0.70996 0.05596 0.67754 0.0
C2096 C 0.39131 0.05883 0.51123 0.0
C2097 C 0.38921 0.03858 0.51604 0.0
C2098 C 0.37454 0.0703 0.50713 0.0
C2099 C 0.35516 0.06144 0.50843 0.0
C2100 C 0.35302 0.04085 0.51293 0.0
C2101 C 0.3701 0.02961 0.51644 0.0
C2102 C 0.37754 0.09204 0.50193 0.0
C2103 C 0.33267 0.03092 0.51494 0.0
C2104 C 0.3133 0.09648 0.52187 0.0
C2105 C 0.30324 0.09825 0.50367 0.0
C2106 C 0.32998 0.08434 0.52363 0.0
C2107 C 0.33718 0.07407 0.50664 0.0
C2108 C 0.32725 0.076 0.48812 0.0
C2109 C 0.31022 0.08786 0.48692 0.0
C2110 C 0.33978 0.08236 0.54376 0.0
C2111 C 0.33475 0.0657 0.46957 0.0
H2112 H 0.40612 0.06572 0.51081 0.0
H2113 H 0.3685 0.01397 0.52031 0.0
H2114 H 0.36901 0.09546 0.48826 0.0
H2115 H 0.37179 0.10164 0.51411 0.0
H2116 H 0.39352 0.09611 0.49953 0.0
H2117 H 0.33355 0.0146 0.51751 0.0
H2118 H 0.32465 0.03784 0.52761 0.0
H2119 H 0.32361 0.03324 0.50137 0.0
H2120 H 0.30788 0.10432 0.53493 0.0
H2121 H 0.30253 0.08923 0.4728 0.0
H2122 H 0.35547 0.08801 0.54318 0.0
H2123 H 0.34012 0.06637 0.54789 0.0
H2124 H 0.33191 0.09074 0.55563 0.0
H2125 H 0.35045 0.07047 0.46677 0.0
H2126 H 0.32563 0.06905 0.45625 0.0
H2127 H 0.33457 0.04928 0.47163 0.0
C2128 C 0.64903 0.49561 0.52425 0.0
C2129 C 0.62941 0.48825 0.52661 0.0
C2130 C 0.66485 0.48258 0.52093 0.0
C2131 C 0.66093 0.46168 0.51971 0.0
C2132 C 0.6412 0.45415 0.52241 0.0
C2133 C 0.6257 0.46751 0.52593 0.0
C2134 C 0.68569 0.49122 0.51837 0.0
C2135 C 0.63635 0.432 0.52098 0.0
C2136 C 0.69713 0.43096 0.48931 0.0
C2137 C 0.70866 0.4221 0.50412 0.0
C2138 C 0.68146 0.44363 0.49422 0.0
C2139 C 0.67728 0.44783 0.51445 0.0
C2140 C 0.68881 0.43898 0.52951 0.0
C2141 C 0.70428 0.42612 0.52417 0.0
C2142 C 0.66939 0.45256 0.47769 0.0
C2143 C 0.68493 0.44325 0.55125 0.0
H2144 H 0.65202 0.51161 0.52504 0.0
H2145 H 0.61054 0.46175 0.52757 0.0
H2146 H 0.69612 0.48411 0.52883 0.0
H2147 H 0.69101 0.48797 0.50308 0.0
H2148 H 0.68644 0.50766 0.52096 0.0
H2149 H 0.62044 0.42848 0.52437 0.0
H2150 H 0.63961 0.42639 0.50575 0.0
H2151 H 0.64587 0.42375 0.53142 0.0
H2152 H 0.70024 0.42789 0.47376 0.0
H2153 H 0.71312 0.41944 0.53573 0.0
H2154 H 0.67081 0.46911 0.47842 0.0
H2155 H 0.65335 0.44852 0.47952 0.0
H2156 H 0.67421 0.44739 0.46272 0.0
H2157 H 0.68673 0.45954 0.55438 0.0
H2158 H 0.69517 0.43516 0.56116 0.0
H2159 H 0.66933 0.43889 0.55499 0.0
C2160 C 0.71864 0.25984 0.41971 0.0
C2161 C 0.71204 0.2632 0.40021 0.0
C2162 C 0.72133 0.27576 0.43345 0.0
C2163 C 0.71718 0.29551 0.42766 0.0
C2164 C 0.70971 0.29884 0.40831 0.0
C2165 C 0.70752 0.28277 0.39479 0.0
C2166 C 0.729 0.27149 0.45407 0.0
C2167 C 0.70491 0.31949 0.40144 0.0
C2168 C 0.71248 0.33561 0.46818 0.0
C2169 C 0.73175 0.3442 0.46849 0.0
C2170 C 0.70735 0.31997 0.45473 0.0
C2171 C 0.72191 0.31276 0.44136 0.0
C2172 C 0.74131 0.32167 0.44147 0.0
C2173 C 0.74608 0.33699 0.4553 0.0
C2174 C 0.68654 0.31085 0.45513 0.0
C2175 C 0.75718 0.31471 0.42726 0.0
H2176 H 0.72181 0.24476 0.42422 0.0
H2177 H 0.70281 0.28573 0.3797 0.0
H2178 H 0.74391 0.2788 0.45626 0.0
H2179 H 0.71892 0.27786 0.46544 0.0
H2180 H 0.7303 0.25521 0.45668 0.0
H2181 H 0.69535 0.31908 0.38789 0.0
H2182 H 0.6973 0.32812 0.41326 0.0
H2183 H 0.71906 0.32745 0.39785 0.0
H2184 H 0.70151 0.34092 0.47869 0.0
H2185 H 0.76124 0.34296 0.45616 0.0
H2186 H 0.68721 0.29481 0.459 0.0
H2187 H 0.67957 0.3116 0.44017 0.0
H2188 H 0.67681 0.3185 0.46605 0.0
H2189 H 0.76031 0.29875 0.42986 0.0
H2190 H 0.77134 0.32359 0.42888 0.0
H2191 H 0.75179 0.31588 0.4117 0.0
C2192 C 0.56116 0.02129 0.88899 0.0
C2193 C 0.54061 0.01687 0.88985 0.0
C2194 C 0.57191 0.01846 0.87134 0.0
C2195 C 0.56191 0.01086 0.85413 0.0
C2196 C 0.54149 0.00505 0.85527 0.0
C2197 C 0.53105 0.00819 0.8731 0.0
C2198 C 0.59367 0.02483 0.8708 0.0
C2199 C 0.53032 0.99673 0.83731 0.0
C2200 C 0.58174 0.03127 0.80562 0.0
C2201 C 0.59375 0.01577 0.79862 0.0
C2202 C 0.57099 0.02956 0.82335 0.0
C2203 C 0.57207 0.01183 0.83447 0.0
C2204 C 0.58357 0.9958 0.82724 0.0
C2205 C 0.59435 0.99797 0.80941 0.0
C2206 C 0.55895 0.04706 0.83049 0.0
C2207 C 0.58489 0.97659 0.83861 0.0
H2208 H 0.56877 0.02755 0.902 0.0
H2209 H 0.51517 0.00477 0.87358 0.0
H2210 H 0.60269 0.01294 0.86388 0.0
H2211 H 0.59547 0.03835 0.86154 0.0
H2212 H 0.59976 0.02836 0.88588 0.0
H2213 H 0.51558 0.99003 0.84137 0.0
H2214 H 0.52783 0.00892 0.82663 0.0
H2215 H 0.53916 0.9852 0.82956 0.0
H2216 H 0.58099 0.04508 0.79746 0.0
H2217 H 0.60352 0.98588 0.80415 0.0
H2218 H 0.56498 0.05281 0.84494 0.0
H2219 H 0.54321 0.04222 0.83298 0.0
H2220 H 0.55914 0.05954 0.81977 0.0
H2221 H 0.59282 0.97951 0.85291 0.0
H2222 H 0.59293 0.96491 0.83015 0.0
H2223 H 0.56972 0.97072 0.84222 0.0
C2224 C 0.31155 0.23338 0.39246 0.0
C2225 C 0.30713 0.25321 0.39766 0.0
C2226 C 0.30745 0.21759 0.40552 0.0
C2227 C 0.29849 0.22164 0.42416 0.0
C2228 C 0.29523 0.24172 0.43001 0.0
C2229 C 0.29967 0.25724 0.41675 0.0
C2230 C 0.31139 0.19644 0.39876 0.0
C2231 C 0.2857 0.24675 0.44971 0.0
C2232 C 0.26032 0.18397 0.44324 0.0
C2233 C 0.27027 0.17535 0.45931 0.0
C2234 C 0.26953 0.19867 0.4316 0.0
C2235 C 0.2894 0.20498 0.43587 0.0
C2236 C 0.29991 0.1959 0.45156 0.0
C2237 C 0.29021 0.18119 0.46316 0.0
C2238 C 0.2577 0.20784 0.41501 0.0
C2239 C 0.32121 0.20206 0.45637 0.0
H2240 H 0.31722 0.23 0.37775 0.0
H2241 H 0.29669 0.27253 0.42114 0.0
H2242 H 0.31806 0.18782 0.41098 0.0
H2243 H 0.29707 0.18881 0.39451 0.0
H2244 H 0.32151 0.19601 0.38571 0.0
H2245 H 0.2865 0.26306 0.45314 0.0
H2246 H 0.26976 0.24183 0.44935 0.0
H2247 H 0.29301 0.23871 0.46195 0.0
H2248 H 0.24502 0.17946 0.43983 0.0
H2249 H 0.29807 0.17462 0.47547 0.0
H2250 H 0.26562 0.20607 0.40066 0.0
H2251 H 0.25623 0.22412 0.41791 0.0
H2252 H 0.2425 0.20098 0.41339 0.0
H2253 H 0.33046 0.2016 0.44272 0.0
H2254 H 0.32792 0.19232 0.4677 0.0
H2255 H 0.32177 0.21771 0.4621 0.0
C2256 C 0.47247 0.47434 0.8812 0.0
C2257 C 0.48339 0.49045 0.88988 0.0
C2258 C 0.45944 0.47716 0.86511 0.0
C2259 C 0.45765 0.49646 0.85702 0.0
C2260 C 0.46839 0.51284 0.86577 0.0
C2261 C 0.48085 0.5097 0.88224 0.0
C2262 C 0.44793 0.45934 0.85647 0.0
C2263 C 0.46718 0.53359 0.85736 0.0
C2264 C 0.44143 0.49538 0.80284 0.0
C2265 C 0.42114 0.49963 0.80432 0.0
C2266 C 0.45373 0.49548 0.81978 0.0
C2267 C 0.44534 0.49918 0.83876 0.0
C2268 C 0.42493 0.50409 0.84024 0.0
C2269 C 0.41311 0.50451 0.82292 0.0
C2270 C 0.47552 0.4908 0.81744 0.0
C2271 C 0.41528 0.50761 0.8602 0.0
H2272 H 0.47442 0.45934 0.8866 0.0
H2273 H 0.48872 0.52241 0.88903 0.0
H2274 H 0.43185 0.4627 0.85529 0.0
H2275 H 0.45333 0.456 0.84123 0.0
H2276 H 0.44953 0.44575 0.86559 0.0
H2277 H 0.4761 0.54484 0.86616 0.0
H2278 H 0.47271 0.53351 0.84182 0.0
H2279 H 0.45145 0.53832 0.85693 0.0
H2280 H 0.44757 0.49152 0.78842 0.0
H2281 H 0.3973 0.50742 0.82405 0.0
H2282 H 0.47844 0.47598 0.82389 0.0
H2283 H 0.48498 0.50205 0.82563 0.0
H2284 H 0.48016 0.49051 0.80159 0.0
H2285 H 0.41488 0.49344 0.8686 0.0
H2286 H 0.39979 0.51293 0.85873 0.0
H2287 H 0.42414 0.51873 0.86916 0.0
C2288 C 0.71204 0.72616 0.12154 0.0
C2289 C 0.71612 0.74654 0.11825 0.0
C2290 C 0.71445 0.71179 0.10629 0.0
C2291 C 0.7213 0.7179 0.08737 0.0
C2292 C 0.7253 0.73843 0.08391 0.0
C2293 C 0.7225 0.75247 0.0993 0.0
C2294 C 0.7098 0.69006 0.11047 0.0
C2295 C 0.73268 0.74557 0.06397 0.0
C2296 C 0.74581 0.68031 0.05275 0.0
C2297 C 0.73052 0.67607 0.03887 0.0
C2298 C 0.74295 0.69371 0.06874 0.0
C2299 C 0.72427 0.7029 0.07108 0.0
C2300 C 0.70866 0.69837 0.05738 0.0
C2301 C 0.71202 0.68516 0.04138 0.0
C2302 C 0.76005 0.69837 0.08289 0.0
C2303 C 0.68845 0.70765 0.0595 0.0
H2304 H 0.70733 0.72136 0.13615 0.0
H2305 H 0.72528 0.76819 0.09643 0.0
H2306 H 0.69856 0.68401 0.09965 0.0
H2307 H 0.72345 0.6812 0.10859 0.0
H2308 H 0.70401 0.68782 0.12576 0.0
H2309 H 0.73543 0.76201 0.0638 0.0
H2310 H 0.74676 0.73808 0.06007 0.0
H2311 H 0.72159 0.74149 0.05221 0.0
H2312 H 0.76017 0.67343 0.05092 0.0
H2313 H 0.70004 0.68192 0.03085 0.0
H2314 H 0.75548 0.69515 0.09838 0.0
H2315 H 0.76415 0.71453 0.08232 0.0
H2316 H 0.77347 0.68961 0.07931 0.0
H2317 H 0.68234 0.70477 0.07453 0.0
H2318 H 0.67758 0.70176 0.0482 0.0
H2319 H 0.68992 0.7241 0.05792 0.0
C2320 C 0.9846 0.034 0.1462 0.0
C2321 C 0.98388 0.02078 0.12986 0.0
C2322 C 0.97244 0.03071 0.16288 0.0
C2323 C 0.9589 0.01408 0.16293 0.0
C2324 C 0.95775 1.00103 0.14612 0.0
C2325 C 0.97048 0.00439 0.12989 0.0
C2326 C 0.97446 0.0447 0.18066 0.0
C2327 C 0.94321 0.98342 0.14537 0.0
C2328 C 0.94097 0.99212 0.21179 0.0
C2329 C 0.92225 1.00076 0.21401 0.0
C2330 C 0.95325 0.99674 0.19552 0.0
C2331 C 0.94641 0.0099 0.18079 0.0
C2332 C 0.9275 0.01866 0.18294 0.0
C2333 C 0.91576 0.01419 0.19966 0.0
C2334 C 0.97351 0.98747 0.19405 0.0
C2335 C 0.91947 0.03236 0.16734 0.0
H2336 H 0.99512 0.04659 0.14614 0.0
H2337 H 0.96995 0.99423 0.11716 0.0
H2338 H 0.95984 0.05125 0.18422 0.0
H2339 H 0.97918 0.03623 0.19387 0.0
H2340 H 0.9855 0.05706 0.17816 0.0
H2341 H 0.94327 0.97549 0.13072 0.0
H2342 H 0.94701 0.97263 0.15708 0.0
H2343 H 0.92787 0.98848 0.1484 0.0
H2344 H 0.94612 0.98184 0.22291 0.0
H2345 H 0.90122 0.02076 0.20121 0.0
H2346 H 0.98525 0.99933 0.19243 0.0
H2347 H 0.97411 0.97766 0.18062 0.0
H2348 H 0.97706 0.97845 0.20728 0.0
H2349 H 0.92987 0.04532 0.1653 0.0
H2350 H 0.90453 0.03803 0.17127 0.0
H2351 H 0.91831 0.02426 0.15283 0.0
C2352 C 0.31915 0.78343 0.1159 0.0
C2353 C 0.30438 0.77131 0.12483 0.0
C2354 C 0.31418 0.79773 0.1017 0.0
C2355 C 0.29402 0.79966 0.09586 0.0
C2356 C 0.27905 0.78745 0.10469 0.0
C2357 C 0.28436 0.77369 0.11922 0.0
C2358 C 0.33053 0.81074 0.0929 0.0
C2359 C 0.25739 0.78883 0.09868 0.0
C2360 C 0.27572 0.84679 0.07141 0.0
C2361 C 0.27555 0.84115 0.05123 0.0
C2362 C 0.28237 0.83369 0.08603 0.0
C2363 C 0.28848 0.8143 0.08039 0.0
C2364 C 0.28848 0.80861 0.06 0.0
C2365 C 0.28225 0.8222 0.04565 0.0
C2366 C 0.28261 0.84051 0.10755 0.0
C2367 C 0.29444 0.78793 0.05339 0.0
H2368 H 0.33469 0.78163 0.11981 0.0
H2369 H 0.27269 0.76486 0.12629 0.0
H2370 H 0.33151 0.80783 0.07665 0.0
H2371 H 0.32703 0.82675 0.09501 0.0
H2372 H 0.34534 0.80806 0.09971 0.0
H2373 H 0.24765 0.77782 0.1065 0.0
H2374 H 0.25201 0.80406 0.102 0.0
H2375 H 0.25576 0.78621 0.08241 0.0
H2376 H 0.27068 0.86149 0.07577 0.0
H2377 H 0.28202 0.81773 0.03008 0.0
H2378 H 0.29758 0.83834 0.11416 0.0
H2379 H 0.27177 0.83135 0.11616 0.0
H2380 H 0.27878 0.8565 0.10933 0.0
H2381 H 0.30973 0.78487 0.05873 0.0
H2382 H 0.29401 0.78597 0.03695 0.0
H2383 H 0.28423 0.77657 0.06005 0.0
C2384 C 0.02266 0.48573 0.14095 0.0
C2385 C 0.03211 0.48499 0.12239 0.0
C2386 C 0.03365 0.48983 0.15847 0.0
C2387 C 0.05452 0.49358 0.15732 0.0
C2388 C 0.06406 0.49308 0.13857 0.0
C2389 C 0.05277 0.48867 0.12136 0.0
C2390 C 0.02299 0.49 0.17821 0.0
C2391 C 0.08621 0.49732 0.13665 0.0
C2392 C 0.08093 0.52308 0.19883 0.0
C2393 C 0.09093 0.50805 0.20896 0.0
C2394 C 0.06885 0.51854 0.1822 0.0
C2395 C 0.0664 0.49842 0.17563 0.0
C2396 C 0.07598 0.48309 0.18607 0.0
C2397 C 0.08825 0.4881 0.20251 0.0
C2398 C 0.05911 0.53535 0.17133 0.0
C2399 C 0.07351 0.46143 0.17968 0.0
H2400 H 0.00672 0.48271 0.1418 0.0
H2401 H 0.06007 0.48832 0.107 0.0
H2402 H 0.02965 0.47896 0.18826 0.0
H2403 H 0.02485 0.50492 0.18551 0.0
H2404 H 0.00678 0.48643 0.1766 0.0
H2405 H 0.09132 0.49647 0.12096 0.0
H2406 H 0.09 0.51247 0.14273 0.0
H2407 H 0.09464 0.48647 0.14548 0.0
H2408 H 0.08286 0.53856 0.20361 0.0
H2409 H 0.09578 0.47636 0.21029 0.0
H2410 H 0.04273 0.53266 0.17053 0.0
H2411 H 0.06468 0.5359 0.15582 0.0
H2412 H 0.06213 0.55015 0.17861 0.0
H2413 H 0.05743 0.45713 0.17879 0.0
H2414 H 0.081 0.4512 0.19004 0.0
H2415 H 0.07985 0.45926 0.1646 0.0
C2416 C 0.38845 0.69387 0.28743 0.0
C2417 C 0.39232 0.69871 0.26757 0.0
C2418 C 0.40249 0.69816 0.3025 0.0
C2419 C 0.4208 0.70792 0.29777 0.0
C2420 C 0.42506 0.71241 0.27766 0.0
C2421 C 0.41074 0.70783 0.26281 0.0
C2422 C 0.39711 0.69304 0.32358 0.0
C2423 C 0.44468 0.72221 0.27186 0.0
C2424 C 0.44817 0.74019 0.33673 0.0
C2425 C 0.4624 0.72711 0.3439 0.0
C2426 C 0.43414 0.73391 0.32222 0.0
C2427 C 0.43502 0.71436 0.31392 0.0
C2428 C 0.44966 0.70119 0.32084 0.0
C2429 C 0.46313 0.70771 0.33582 0.0
C2430 C 0.41853 0.74829 0.3156 0.0
C2431 C 0.45131 0.68036 0.31217 0.0
H2432 H 0.37414 0.68715 0.29136 0.0
H2433 H 0.41399 0.71133 0.24745 0.0
H2434 H 0.41022 0.68795 0.33203 0.0
H2435 H 0.39155 0.70666 0.33097 0.0
H2436 H 0.38515 0.68126 0.32418 0.0
H2437 H 0.44627 0.72342 0.25547 0.0
H2438 H 0.44595 0.73744 0.27857 0.0
H2439 H 0.45727 0.71354 0.27771 0.0
H2440 H 0.44829 0.75553 0.34214 0.0
H2441 H 0.47448 0.69774 0.341 0.0
H2442 H 0.40342 0.74158 0.31794 0.0
H2443 H 0.42006 0.75116 0.29947 0.0
H2444 H 0.41964 0.76283 0.32379 0.0
H2445 H 0.43715 0.67176 0.31442 0.0
H2446 H 0.46369 0.67205 0.31897 0.0
H2447 H 0.45381 0.68114 0.29588 0.0
C2448 C 0.98884 0.39113 0.94827 0.0
C2449 C 0.99143 0.39226 0.969 0.0
C2450 C 0.99198 0.37325 0.93761 0.0
C2451 C 0.99811 0.35609 0.94787 0.0
C2452 C 1.00199 0.35747 0.96856 0.0
C2453 C 0.99844 0.37543 0.97889 0.0
C2454 C 0.98756 0.37241 0.91557 0.0
C2455 C 0.00868 0.33959 0.98006 0.0
C2456 C 0.97829 0.30619 0.92785 0.0
C2457 C 0.99465 0.29875 0.91727 0.0
C2458 C 0.97938 0.32467 0.93787 0.0
C2459 C 0.99739 0.33613 0.93765 0.0
C2460 C 0.01421 0.3286 0.92753 0.0
C2461 C 0.01262 0.31002 0.91734 0.0
C2462 C 0.96102 0.33211 0.94836 0.0
C2463 C 0.03375 0.34029 0.92724 0.0
H2464 H 0.98388 0.40413 0.94038 0.0
H2465 H 1.00032 0.37594 0.9949 0.0
H2466 H 0.99995 0.36538 0.90737 0.0
H2467 H 0.97391 0.36301 0.9128 0.0
H2468 H 0.98514 0.38748 0.90941 0.0
H2469 H 0.01407 0.34386 0.99522 0.0
H2470 H 0.996 0.32873 0.98151 0.0
H2471 H 0.02077 0.33186 0.97204 0.0
H2472 H 0.96427 0.29776 0.92801 0.0
H2473 H 0.02535 0.30448 0.90924 0.0
H2474 H 0.95655 0.34654 0.94195 0.0
H2475 H 0.96431 0.33488 0.96436 0.0
H2476 H 0.94816 0.32135 0.94712 0.0
H2477 H 0.03177 0.3546 0.91942 0.0
H2478 H 0.04573 0.33191 0.9197 0.0
H2479 H 0.03863 0.34409 0.94267 0.0
C2480 C 0.59779 0.78455 0.2606 0.0
C2481 C 0.61602 0.79461 0.26485 0.0
C2482 C 0.58338 0.78136 0.27542 0.0
C2483 C 0.58686 0.78901 0.29491 0.0
C2484 C 0.60472 0.80002 0.29913 0.0
C2485 C 0.61919 0.80239 0.28421 0.0
C2486 C 0.5647 0.76919 0.27035 0.0
C2487 C 0.60881 0.80886 0.3196 0.0
C2488 C 0.54152 0.79053 0.32901 0.0
C2489 C 0.54417 0.77346 0.34049 0.0
C2490 C 0.55566 0.79625 0.3146 0.0
C2491 C 0.57246 0.78422 0.31115 0.0
C2492 C 0.57521 0.76705 0.32282 0.0
C2493 C 0.56121 0.76207 0.33752 0.0
C2494 C 0.55255 0.81502 0.30293 0.0
C2495 C 0.5926 0.7535 0.31933 0.0
H2496 H 0.59477 0.77892 0.24567 0.0
H2497 H 0.63322 0.80993 0.28796 0.0
H2498 H 0.56401 0.75557 0.27958 0.0
H2499 H 0.55127 0.77791 0.27381 0.0
H2500 H 0.56409 0.76453 0.25442 0.0
H2501 H 0.62218 0.81903 0.31984 0.0
H2502 H 0.59576 0.81731 0.32489 0.0
H2503 H 0.61125 0.79669 0.33029 0.0
H2504 H 0.5284 0.79942 0.33131 0.0
H2505 H 0.56324 0.74874 0.34621 0.0
H2506 H 0.54991 0.81112 0.28703 0.0
H2507 H 0.56615 0.82482 0.30372 0.0
H2508 H 0.53966 0.82358 0.30849 0.0
H2509 H 0.5921 0.74755 0.30383 0.0
H2510 H 0.59257 0.74069 0.32966 0.0
H2511 H 0.60689 0.76206 0.32119 0.0
C2512 C 0.0045 0.12712 0.97505 0.0
C2513 C 0.02119 0.12816 0.98766 0.0
C2514 C 1.00076 0.14247 0.9616 0.0
C2515 C 0.01371 0.15954 0.96117 0.0
C2516 C 0.03064 0.1606 0.9739 0.0
C2517 C 0.03432 0.14474 0.98682 0.0
C2518 C 0.98285 0.14048 0.94795 0.0
C2519 C 0.04455 0.17871 0.97425 0.0
C2520 C 0.01244 0.19296 0.91578 0.0
C2521 C 0.99898 0.20756 0.92183 0.0
C2522 C 0.01741 0.17726 0.92842 0.0
C2523 C 0.00918 0.17646 0.94779 0.0
C2524 C 0.99603 0.19152 0.95416 0.0
C2525 C 0.99086 0.20669 0.941 0.0
C2526 C 0.03104 0.16122 0.92086 0.0
C2527 C 0.98733 0.19153 0.97485 0.0
H2528 H 0.99443 0.1142 0.97567 0.0
H2529 H 0.04716 0.14554 0.9967 0.0
H2530 H 0.97215 0.1524 0.95148 0.0
H2531 H 0.98753 0.14242 0.93227 0.0
H2532 H 0.97498 0.12574 0.94927 0.0
H2533 H 0.05712 0.17715 0.98489 0.0
H2534 H 0.05076 0.18127 0.95921 0.0
H2535 H 0.03615 0.1922 0.97849 0.0
H2536 H 0.01861 0.19346 0.90091 0.0
H2537 H 0.98057 0.21803 0.9458 0.0
H2538 H 0.02304 0.14649 0.92093 0.0
H2539 H 0.04418 0.16013 0.93082 0.0
H2540 H 0.03637 0.16412 0.90551 0.0
H2541 H 0.97757 0.17806 0.97675 0.0
H2542 H 0.97842 0.205 0.97794 0.0
H2543 H 0.99945 0.19089 0.98609 0.0
C2544 C 0.42232 0.30138 0.25528 0.0
C2545 C 0.40236 0.30526 0.2507 0.0
C2546 C 0.43601 0.29664 0.24027 0.0
C2547 C 0.42962 0.29583 0.22016 0.0
C2548 C 0.4099 0.3012 0.21532 0.0
C2549 C 0.39649 0.30578 0.23064 0.0
C2550 C 0.4569 0.29106 0.2461 0.0
C2551 C 0.40249 0.30062 0.19408 0.0
C2552 C 0.46796 0.28715 0.17916 0.0
C2553 C 0.46623 0.26631 0.17644 0.0
C2554 C 0.45608 0.29714 0.19325 0.0
C2555 C 0.44224 0.28601 0.20485 0.0
C2556 C 0.44038 0.26505 0.20204 0.0
C2557 C 0.4523 0.25554 0.18794 0.0
C2558 C 0.45835 0.31953 0.19578 0.0
C2559 C 0.42584 0.25254 0.21406 0.0
H2560 H 0.42712 0.30141 0.2707 0.0
H2561 H 0.3811 0.30866 0.2269 0.0
H2562 H 0.45847 0.27466 0.24426 0.0
H2563 H 0.46806 0.29842 0.2363 0.0
H2564 H 0.46042 0.29524 0.26181 0.0
H2565 H 0.3881 0.30835 0.19245 0.0
H2566 H 0.41363 0.30765 0.18404 0.0
H2567 H 0.40023 0.28482 0.18911 0.0
H2568 H 0.47861 0.29564 0.17037 0.0
H2569 H 0.45065 0.23946 0.18603 0.0
H2570 H 0.46311 0.32334 0.21123 0.0
H2571 H 0.44377 0.32662 0.19332 0.0
H2572 H 0.46943 0.32609 0.18533 0.0
H2573 H 0.42932 0.25429 0.23016 0.0
H2574 H 0.42621 0.23639 0.21003 0.0
H2575 H 0.41042 0.25773 0.21175 0.0
C2576 C 0.51946 0.36221 0.0248 0.0
C2577 C 0.51872 0.38201 0.03179 0.0
C2578 C 0.51749 0.34613 0.03792 0.0
C2579 C 0.51414 0.34997 0.05842 0.0
C2580 C 0.51291 0.36999 0.06544 0.0
C2581 C 0.51552 0.38579 0.05206 0.0
C2582 C 0.51942 0.32506 0.02991 0.0
C2583 C 0.50887 0.37472 0.08706 0.0
C2584 C 0.49288 0.30652 0.08839 0.0
C2585 C 0.50991 0.30005 0.09835 0.0
C2586 C 0.49391 0.3231 0.07577 0.0
C2587 C 0.51253 0.33304 0.07258 0.0
C2588 C 0.52976 0.32651 0.08261 0.0
C2589 C 0.52817 0.31028 0.09558 0.0
C2590 C 0.47511 0.32993 0.06579 0.0
C2591 C 0.54997 0.33635 0.07926 0.0
H2592 H 0.52208 0.35936 0.00912 0.0
H2593 H 0.51485 0.40115 0.05739 0.0
H2594 H 0.53192 0.3177 0.03753 0.0
H2595 H 0.50564 0.31614 0.03301 0.0
H2596 H 0.52217 0.32463 0.01362 0.0
H2597 H 0.50724 0.391 0.0899 0.0
H2598 H 0.49503 0.36675 0.09187 0.0
H2599 H 0.52125 0.36939 0.09643 0.0
H2600 H 0.47871 0.2987 0.09058 0.0
H2601 H 0.54142 0.30522 0.1031 0.0
H2602 H 0.47644 0.32818 0.04942 0.0
H2603 H 0.47297 0.34605 0.06905 0.0
H2604 H 0.46165 0.32135 0.07072 0.0
H2605 H 0.5539 0.33529 0.06326 0.0
H2606 H 0.56192 0.3294 0.08809 0.0
H2607 H 0.54958 0.35248 0.08329 0.0
C2608 C 0.62331 0.2082 0.23009 0.0
C2609 C 0.61909 0.21249 0.25014 0.0
C2610 C 0.60865 0.20989 0.21524 0.0
C2611 C 0.58938 0.21634 0.22048 0.0
C2612 C 0.58498 0.22062 0.24065 0.0
C2613 C 0.59979 0.21844 0.25522 0.0
C2614 C 0.61382 0.20493 0.19392 0.0
C2615 C 0.56467 0.22769 0.24685 0.0
C2616 C 0.55681 0.23973 0.18114 0.0
C2617 C 0.54293 0.22418 0.17682 0.0
C2618 C 0.57211 0.23732 0.19518 0.0
C2619 C 0.5738 0.21881 0.20491 0.0
C2620 C 0.56014 0.20291 0.2003 0.0
C2621 C 0.54476 0.20584 0.18648 0.0
C2622 C 0.58618 0.25475 0.19993 0.0
C2623 C 0.56164 0.18284 0.21012 0.0
H2624 H 0.63819 0.20385 0.2259 0.0
H2625 H 0.59617 0.22138 0.27067 0.0
H2626 H 0.60314 0.19343 0.18782 0.0
H2627 H 0.61249 0.21843 0.18467 0.0
H2628 H 0.6292 0.1993 0.19241 0.0
H2629 H 0.56375 0.23071 0.26312 0.0
H2630 H 0.56112 0.24158 0.23889 0.0
H2631 H 0.55304 0.21627 0.24269 0.0
H2632 H 0.55547 0.25399 0.17387 0.0
H2633 H 0.53418 0.19371 0.18324 0.0
H2634 H 0.60184 0.2504 0.19741 0.0
H2635 H 0.58486 0.25904 0.21588 0.0
H2636 H 0.5831 0.26803 0.19079 0.0
H2637 H 0.57683 0.17693 0.20804 0.0
H2638 H 0.55056 0.17167 0.20407 0.0
H2639 H 0.5592 0.18452 0.22636 0.0
C2640 C 0.47195 0.13427 0.03992 0.0
C2641 C 0.48689 0.12575 0.0282 0.0
C2642 C 0.4758 0.1512 0.05196 0.0
C2643 C 0.49486 0.16091 0.05151 0.0
C2644 C 0.50926 0.15386 0.03782 0.0
C2645 C 0.50538 0.13605 0.02691 0.0
C2646 C 0.459 0.15829 0.06494 0.0
C2647 C 0.52878 0.16493 0.03411 0.0
C2648 C 0.49283 0.21013 0.08068 0.0
C2649 C 0.50578 0.20665 0.09655 0.0
C2650 C 0.49041 0.19615 0.065 0.0
C2651 C 0.49991 0.17746 0.06608 0.0
C2652 C 0.5134 0.17417 0.08202 0.0
C2653 C 0.51694 0.18932 0.09643 0.0
C2654 C 0.47747 0.20167 0.0476 0.0
C2655 C 0.52394 0.15461 0.08416 0.0
H2656 H 0.45708 0.12755 0.04006 0.0
H2657 H 0.51713 0.13018 0.01767 0.0
H2658 H 0.46416 0.16799 0.07749 0.0
H2659 H 0.44849 0.16678 0.05571 0.0
H2660 H 0.4504 0.14533 0.07095 0.0
H2661 H 0.53011 0.16807 0.01799 0.0
H2662 H 0.53036 0.17932 0.04245 0.0
H2663 H 0.54141 0.15525 0.03795 0.0
H2664 H 0.48501 0.22412 0.0802 0.0
H2665 H 0.5281 0.18738 0.10789 0.0
H2666 H 0.46157 0.20103 0.05217 0.0
H2667 H 0.47945 0.19179 0.03439 0.0
H2668 H 0.48088 0.21734 0.04325 0.0
H2669 H 0.51341 0.14174 0.0816 0.0
H2670 H 0.53092 0.15321 0.09905 0.0
H2671 H 0.53603 0.15366 0.07305 0.0
C2672 C 0.28265 0.39126 0.70948 0.0
C2673 C 0.26312 0.39691 0.71395 0.0
C2674 C 0.29897 0.40449 0.71253 0.0
C2675 C 0.29587 0.42379 0.72066 0.0
C2676 C 0.27617 0.42981 0.72476 0.0
C2677 C 0.26004 0.41633 0.72134 0.0
C2678 C 0.3196 0.39738 0.70786 0.0
C2679 C 0.27216 0.45041 0.73308 0.0
C2680 C 0.3367 0.45101 0.75061 0.0
C2681 C 0.34445 0.46453 0.73677 0.0
C2682 C 0.32149 0.43711 0.7453 0.0
C2683 C 0.31324 0.4373 0.72587 0.0
C2684 C 0.32105 0.45094 0.71179 0.0
C2685 C 0.33657 0.46441 0.71743 0.0
C2686 C 0.31387 0.4226 0.76066 0.0
C2687 C 0.31261 0.45169 0.69098 0.0
H2688 H 0.28532 0.3762 0.70412 0.0
H2689 H 0.245 0.42098 0.72452 0.0
H2690 H 0.32861 0.40917 0.70039 0.0
H2691 H 0.32712 0.39385 0.72199 0.0
H2692 H 0.31925 0.3837 0.69826 0.0
H2693 H 0.25595 0.45321 0.73437 0.0
H2694 H 0.27908 0.4522 0.74805 0.0
H2695 H 0.27904 0.46199 0.72345 0.0
H2696 H 0.34212 0.45172 0.76582 0.0
H2697 H 0.34228 0.47519 0.70685 0.0
H2698 H 0.31489 0.40704 0.75485 0.0
H2699 H 0.29792 0.42529 0.7638 0.0
H2700 H 0.32239 0.42391 0.77486 0.0
H2701 H 0.31315 0.43672 0.6837 0.0
H2702 H 0.32083 0.46265 0.68159 0.0
H2703 H 0.2967 0.45586 0.69161 0.0
C2704 C 0.27096 0.61131 0.77969 0.0
C2705 C 0.26582 0.61859 0.79867 0.0
C2706 C 0.28564 0.5969 0.77721 0.0
C2707 C 0.29596 0.5899 0.79404 0.0
C2708 C 0.29118 0.59738 0.81321 0.0
C2709 C 0.27604 0.61143 0.81532 0.0
C2710 C 0.29008 0.58913 0.75652 0.0
C2711 C 0.3021 0.59056 0.83148 0.0
C2712 C 0.32121 0.53992 0.78762 0.0
C2713 C 0.34054 0.54598 0.78204 0.0
C2714 C 0.30666 0.55405 0.79209 0.0
C2715 C 0.31171 0.57473 0.79142 0.0
C2716 C 0.33152 0.58088 0.78684 0.0
C2717 C 0.34563 0.56644 0.78193 0.0
C2718 C 0.28563 0.54686 0.79651 0.0
C2719 C 0.33766 0.60275 0.78646 0.0
H2720 H 0.26362 0.61699 0.76663 0.0
H2721 H 0.27209 0.61662 0.83009 0.0
H2722 H 0.3058 0.59283 0.75261 0.0
H2723 H 0.28827 0.57259 0.75596 0.0
H2724 H 0.28019 0.5955 0.74507 0.0
H2725 H 0.29715 0.59837 0.84524 0.0
H2726 H 0.29966 0.57423 0.83334 0.0
H2727 H 0.3184 0.59328 0.82972 0.0
H2728 H 0.31716 0.52412 0.78758 0.0
H2729 H 0.36059 0.57119 0.77773 0.0
H2730 H 0.27545 0.55168 0.78453 0.0
H2731 H 0.28036 0.55363 0.81064 0.0
H2732 H 0.28439 0.53032 0.79761 0.0
H2733 H 0.33008 0.61009 0.77394 0.0
H2734 H 0.35404 0.60498 0.7847 0.0
H2735 H 0.33299 0.61041 0.80039 0.0
C2736 C 0.88274 0.47664 0.50427 0.0
C2737 C 0.89011 0.47609 0.48469 0.0
C2738 C 0.86495 0.46642 0.50936 0.0
C2739 C 0.85456 0.45481 0.49473 0.0
C2740 C 0.86214 0.45369 0.47513 0.0
C2741 C 0.87957 0.46458 0.47028 0.0
C2742 C 0.8571 0.46832 0.53031 0.0
C2743 C 0.8517 0.44116 0.45914 0.0
C2744 C 0.81723 0.41347 0.50794 0.0
C2745 C 0.79927 0.42195 0.50214 0.0
C2746 C 0.83539 0.4243 0.50646 0.0
C2747 C 0.83541 0.44422 0.49955 0.0
C2748 C 0.81706 0.45331 0.49523 0.0
C2749 C 0.79923 0.44193 0.49621 0.0
C2750 C 0.85462 0.41388 0.51073 0.0
C2751 C 0.81635 0.4747 0.48845 0.0
H2752 H 0.89086 0.48505 0.51571 0.0
H2753 H 0.88472 0.46428 0.45503 0.0
H2754 H 0.84197 0.47469 0.53002 0.0
H2755 H 0.85565 0.45336 0.53712 0.0
H2756 H 0.8669 0.47803 0.53995 0.0
H2757 H 0.86033 0.44066 0.44507 0.0
H2758 H 0.84921 0.42563 0.46434 0.0
H2759 H 0.83684 0.44734 0.45593 0.0
H2760 H 0.81725 0.3979 0.5122 0.0
H2761 H 0.7853 0.44844 0.49169 0.0
H2762 H 0.86458 0.42339 0.52033 0.0
H2763 H 0.86261 0.41118 0.49654 0.0
H2764 H 0.852 0.39928 0.51807 0.0
H2765 H 0.82585 0.48458 0.49817 0.0
H2766 H 0.80091 0.48037 0.4885 0.0
H2767 H 0.82228 0.47576 0.47311 0.0
C2768 C 0.73363 0.90167 0.8092 0.0
C2769 C 0.74497 0.89482 0.79304 0.0
C2770 C 0.71845 0.91556 0.80653 0.0
C2771 C 0.71473 0.92308 0.78733 0.0
C2772 C 0.72601 0.91616 0.77097 0.0
C2773 C 0.74077 0.90199 0.77398 0.0
C2774 C 0.70651 0.92231 0.82429 0.0
C2775 C 0.72264 0.92389 0.75025 0.0
C2776 C 0.666 0.94702 0.77287 0.0
C2777 C 0.67128 0.96744 0.77377 0.0
C2778 C 0.67968 0.93243 0.77822 0.0
C2779 C 0.69926 0.93839 0.78419 0.0
C2780 C 0.70447 0.95902 0.78569 0.0
C2781 C 0.69035 0.9733 0.78066 0.0
C2782 C 0.67337 0.91062 0.77686 0.0
C2783 C 0.72527 0.96601 0.79167 0.0
H2784 H 0.73681 0.89647 0.82403 0.0
H2785 H 0.74901 0.89649 0.76128 0.0
H2786 H 0.70907 0.93858 0.82698 0.0
H2787 H 0.69032 0.91987 0.82132 0.0
H2788 H 0.7105 0.91426 0.83803 0.0
H2789 H 0.73294 0.91728 0.73918 0.0
H2790 H 0.70708 0.92045 0.74542 0.0
H2791 H 0.72477 0.9404 0.75021 0.0
H2792 H 0.65123 0.9424 0.7677 0.0
H2793 H 0.69456 0.98906 0.7813 0.0
H2794 H 0.67719 0.90294 0.79084 0.0
H2795 H 0.68156 0.90318 0.76462 0.0
H2796 H 0.65711 0.90855 0.77402 0.0
H2797 H 0.72961 0.95924 0.80596 0.0
H2798 H 0.72661 0.98255 0.79326 0.0
H2799 H 0.73609 0.96101 0.78028 0.0
C2800 C 0.65012 0.51942 0.99808 0.0
C2801 C 0.63036 0.52507 0.99489 0.0
C2802 C 0.66562 0.53392 1.00024 0.0
C2803 C 0.6612 0.55452 0.99938 0.0
C2804 C 0.64114 0.56016 0.9969 0.0
C2805 C 0.62605 0.54542 0.99451 0.0
C2806 C 0.68674 0.52721 0.00313 0.0
C2807 C 0.63551 0.58173 0.99602 0.0
C2808 C 0.69951 0.59268 0.02001 0.0
C2809 C 0.70943 0.59872 0.00271 0.0
C2810 C 0.68363 0.57852 0.01914 0.0
C2811 C 0.6776 0.57011 1.00052 0.0
C2812 C 0.6875 0.57634 0.983 0.0
C2813 C 0.70352 0.59029 0.98436 0.0
C2814 C 0.67347 0.57237 0.03817 0.0
C2815 C 0.68138 0.56804 0.96282 0.0
H2816 H 0.65351 0.50367 0.99838 0.0
H2817 H 0.61075 0.54986 0.99234 0.0
H2818 H 0.69609 0.53215 0.99045 0.0
H2819 H 0.69326 0.53423 0.01682 0.0
H2820 H 0.6876 0.5107 0.00429 0.0
H2821 H 0.64383 0.59087 0.00734 0.0
H2822 H 0.63938 0.58734 0.98108 0.0
H2823 H 0.61927 0.58371 0.99832 0.0
H2824 H 0.70433 0.59892 0.03426 0.0
H2825 H 0.71174 0.59429 0.97109 0.0
H2826 H 0.67497 0.55605 0.04029 0.0
H2827 H 0.65728 0.57533 0.03725 0.0
H2828 H 0.67981 0.58043 0.05141 0.0
H2829 H 0.68332 0.55162 0.96233 0.0
H2830 H 0.69021 0.57485 0.95059 0.0
H2831 H 0.66534 0.57076 0.96012 0.0
C2832 C 0.22142 0.62152 0.19775 0.0
C2833 C 0.24163 0.61679 0.19924 0.0
C2834 C 0.20633 0.60776 0.2031 0.0
C2835 C 0.21145 0.58883 0.21041 0.0
C2836 C 0.23183 0.58381 0.21168 0.0
C2837 C 0.24667 0.59785 0.20609 0.0
C2838 C 0.18493 0.61386 0.20154 0.0
C2839 C 0.23796 0.56365 0.21906 0.0
C2840 C 0.17588 0.55946 0.24373 0.0
C2841 C 0.16725 0.54556 0.23028 0.0
C2842 C 0.18969 0.57413 0.23733 0.0
C2843 C 0.19557 0.5744 0.2171 0.0
C2844 C 0.18684 0.56037 0.20345 0.0
C2845 C 0.1728 0.54609 0.21023 0.0
C2846 C 0.19836 0.58901 0.25231 0.0
C2847 C 0.19274 0.56007 0.1818 0.0
H2848 H 0.21736 0.63624 0.19287 0.0
H2849 H 0.26224 0.59397 0.20706 0.0
H2850 H 0.17561 0.60173 0.19456 0.0
H2851 H 0.17923 0.61669 0.21673 0.0
H2852 H 0.18327 0.62769 0.1928 0.0
H2853 H 0.25437 0.56182 0.21855 0.0
H2854 H 0.2329 0.5617 0.23462 0.0
H2855 H 0.23067 0.55156 0.20994 0.0
H2856 H 0.17225 0.55849 0.25939 0.0
H2857 H 0.16641 0.53506 0.1999 0.0
H2858 H 0.196 0.60447 0.2472 0.0
H2859 H 0.2147 0.58707 0.25364 0.0
H2860 H 0.19158 0.58733 0.26727 0.0
H2861 H 0.19033 0.57492 0.17519 0.0
H2862 H 0.18415 0.54857 0.173 0.0
H2863 H 0.20887 0.557 0.18048 0.0
C2864 C 0.87033 0.53331 0.03619 0.0
C2865 C 0.88642 0.53186 0.02303 0.0
C2866 C 0.85391 0.54515 0.03177 0.0
C2867 C 0.85375 0.55619 0.01394 0.0
C2868 C 0.86988 0.55459 1.00048 0.0
C2869 C 0.88592 0.54227 0.00509 0.0
C2870 C 0.83687 0.54608 0.04635 0.0
C2871 C 0.87051 0.5664 0.98152 0.0
C2872 C 0.80405 0.57649 0.99648 0.0
C2873 C 0.80464 0.59582 0.0049 0.0
C2874 C 0.82002 0.56348 0.99906 0.0
C2875 C 0.83715 0.57011 0.00995 0.0
C2876 C 0.83809 0.58988 0.01784 0.0
C2877 C 0.82175 0.60239 0.01542 0.0
C2878 C 0.81826 0.54242 0.99073 0.0
C2879 C 0.85622 0.59772 0.02918 0.0
H2880 H 0.87061 0.52513 0.04999 0.0
H2881 H 0.89843 0.54128 0.99496 0.0
H2882 H 0.83593 0.56145 0.05264 0.0
H2883 H 0.82251 0.54253 0.03864 0.0
H2884 H 0.83861 0.53554 0.05882 0.0
H2885 H 0.88373 0.56295 0.97228 0.0
H2886 H 0.85682 0.56325 0.97257 0.0
H2887 H 0.8709 0.58264 0.98518 0.0
H2888 H 0.79081 0.57128 0.98845 0.0
H2889 H 0.82235 0.61735 0.02186 0.0
H2890 H 0.81848 0.53161 0.00309 0.0
H2891 H 0.83119 0.53922 0.98105 0.0
H2892 H 0.80431 0.5398 0.98199 0.0
H2893 H 0.85794 0.58923 0.0431 0.0
H2894 H 0.8552 0.61386 0.03311 0.0
H2895 H 0.86989 0.59554 0.02023 0.0
C2896 C 0.15002 0.99608 0.02479 0.0
C2897 C 0.13035 0.98873 0.02674 0.0
C2898 C 0.16587 0.98305 0.02162 0.0
C2899 C 0.16193 0.96217 0.0201 0.0
C2900 C 0.14213 0.95465 0.02233 0.0
C2901 C 0.1266 0.96801 0.02574 0.0
C2902 C 0.18678 0.99167 0.01958 0.0
C2903 C 0.13725 0.93253 0.02055 0.0
C2904 C 0.19871 0.9316 0.99025 0.0
C2905 C 0.20979 0.92247 0.00522 0.0
C2906 C 0.18301 0.94432 0.99491 0.0
C2907 C 0.17836 0.94833 0.01508 0.0
C2908 C 0.18947 0.93923 0.03031 0.0
C2909 C 0.20496 0.9263 0.02521 0.0
C2910 C 0.17138 0.95347 0.97821 0.0
C2911 C 0.18511 0.94331 0.05199 0.0
H2912 H 0.15303 0.01207 0.02581 0.0
H2913 H 0.1114 0.96226 0.02707 0.0
H2914 H 0.19696 0.98444 0.0302 0.0
H2915 H 0.19243 0.98855 0.00438 0.0
H2916 H 0.18752 0.00809 0.02232 0.0
H2917 H 0.12125 0.92901 0.02347 0.0
H2918 H 0.14091 0.92707 0.00536 0.0
H2919 H 0.14646 0.92413 0.03115 0.0
H2920 H 0.20218 0.92868 0.97475 0.0
H2921 H 0.21345 0.9194 0.03689 0.0
H2922 H 0.17283 0.97002 0.97913 0.0
H2923 H 0.15528 0.94947 0.97962 0.0
H2924 H 0.17654 0.94845 0.9633 0.0
H2925 H 0.18684 0.95957 0.05529 0.0
H2926 H 0.19513 0.93512 0.06205 0.0
H2927 H 0.16943 0.93891 0.05535 0.0
loop_
_geom_bond_atom_site_label_1
_geom_bond_atom_site_label_2
_geom_bond_distance
_geom_bond_site_symmetry_2
_ccdc_geom_bond_type
C0 C1 1.391 . S
C0 C4 1.391 . S
C0 H42 0.948 . S
C1 C0 1.391 . S
C1 C2 1.391 . S
C2 C1 1.391 . S
C2 H58 0.953 1_455 S
C2 C59 1.392 1_556 S
C3 C4 1.391 1_554 S
C3 C7 1.397 . S
C3 C59 1.419 . S
C4 C0 1.391 . S
C4 C3 1.391 1_556 S
C4 C5 1.399 . S
C5 C4 1.399 . S
C5 C8 1.396 1_556 S
C5 C17 1.453 . S
C5 C18 1.684 . S
H6 C30 0.948 . S
C7 C3 1.397 . S
C7 C8 1.394 . S
C7 C26 1.723 . S
C8 C5 1.396 1_554 S
C8 C7 1.394 . S
C8 C38 1.723 . S
H9 C32 0.953 1_556 S
H10 C33 0.948 1_556 S
H11 C39 0.942 1_545 S
H12 C40 0.979 . S
H13 C40 0.980 . S
H14 C40 0.983 . S
H15 C39 1.022 . S
H16 C39 0.970 1_545 S
C17 C5 1.453 . S
C17 H46 0.982 1_556 S
C17 H47 0.979 . S
C17 H48 0.977 1_556 S
C18 C5 1.684 . S
C18 H43 0.979 . S
C18 H44 0.980 . S
C18 H45 0.983 . S
C19 C20 1.391 . S
C19 C24 1.391 . S
C19 H49 0.948 . S
C20 C19 1.391 . S
C20 C21 1.391 . S
C21 C20 1.391 . S
C21 C22 1.392 1_655 S
C21 H50 0.953 1_545 S
C22 C21 1.392 1_455 S
C22 C23 1.419 . S
C22 H51 0.948 1_545 S
C23 C22 1.419 . S
C23 C24 1.391 1_455 S
C23 C27 1.397 . S
C24 C19 1.391 . S
C24 C23 1.391 1_655 S
C24 C25 1.399 . S
C25 C24 1.399 . S
C25 C26 1.396 1_655 S
C25 C28 1.453 . S
C25 C29 1.684 . S
C26 C7 1.723 . S
C26 C25 1.396 1_455 S
C26 C27 1.394 . S
C27 C23 1.397 . S
C27 C26 1.394 . S
C27 C37 1.723 . S
C28 C25 1.453 . S
C28 H52 0.982 1_655 S
C28 H53 0.979 . S
C28 H54 0.976 1_655 S
C29 C25 1.684 . S
C29 H55 0.979 . S
C29 H56 0.980 . S
C29 H57 0.983 . S
C30 H6 0.948 . S
C30 C31 1.391 . S
C30 C35 1.391 . S
C31 C30 1.391 . S
C31 C32 1.391 . S
C32 H9 0.953 1_554 S
C32 C31 1.391 . S
C32 C33 1.392 1_565 S
C33 H10 0.948 1_554 S
C33 C32 1.392 1_545 S
C33 C34 1.419 . S
C34 C33 1.419 . S
C34 C35 1.391 1_545 S
C34 C38 1.397 . S
C35 C30 1.391 . S
C35 C34 1.391 1_565 S
C35 C36 1.399 . S
C36 C35 1.399 . S
C36 C37 1.396 1_565 S
C36 C39 1.457 . S
C36 C40 1.684 . S
C37 C27 1.723 . S
C37 C36 1.396 1_545 S
C37 C38 1.394 . S
C38 C8 1.723 . S
C38 C34 1.397 . S
C38 C37 1.394 . S
C39 H11 0.942 1_565 S
C39 H15 1.022 . S
C39 H16 0.970 1_565 S
C39 C36 1.457 . S
C40 H12 0.979 . S
C40 H13 0.980 . S
C40 H14 0.983 . S
C40 C36 1.684 . S
H41 C59 0.948 1_655 S
H42 C0 0.948 . S
H43 C18 0.979 . S
H44 C18 0.980 . S
H45 C18 0.983 . S
H46 C17 0.982 1_554 S
H47 C17 0.979 . S
H48 C17 0.977 1_554 S
H49 C19 0.948 . S
H50 C21 0.953 1_565 S
H51 C22 0.948 1_565 S
H52 C28 0.982 1_455 S
H53 C28 0.979 . S
H54 C28 0.976 1_455 S
H55 C29 0.979 . S
H56 C29 0.980 . S
H57 C29 0.983 . S
H58 C2 0.953 1_655 S
C59 C2 1.392 1_554 S
C59 C3 1.419 . S
C59 H41 0.948 1_455 S
C60 C61 1.391 . S
C60 C64 1.391 . S
C60 H102 0.948 . S
C61 C60 1.391 . S
C61 C62 1.391 . S
C62 C61 1.391 . S
C62 H118 0.947 . S
C62 C119 1.392 . S
C63 C64 1.391 . S
C63 C67 1.397 . S
C63 C119 1.419 . S
C64 C60 1.391 . S
C64 C63 1.391 . S
C64 C65 1.399 . S
C65 C64 1.399 . S
C65 C68 1.396 . S
C65 C77 1.453 . S
C65 C78 1.684 . S
H66 C90 0.948 . S
C67 C63 1.397 . S
C67 C68 1.394 . S
C67 C86 1.723 . S
C68 C65 1.396 . S
C68 C67 1.394 . S
C68 C98 1.723 . S
H69 C92 0.947 . S
H70 C93 0.948 . S
H71 C99 0.982 . S
H72 C100 0.979 . S
H73 C100 0.980 . S
H74 C100 0.983 . S
H75 C99 0.979 . S
H76 C99 0.977 . S
C77 C65 1.453 . S
C77 H106 0.982 . S
C77 H107 0.979 . S
C77 H108 0.977 . S
C78 C65 1.684 . S
C78 H103 0.979 . S
C78 H104 0.980 . S
C78 H105 0.983 . S
C79 C80 1.391 . S
C79 C84 1.391 . S
C79 H109 0.948 . S
C80 C79 1.391 . S
C80 C81 1.391 . S
C81 C80 1.391 . S
C81 C82 1.392 . S
C81 H110 0.947 . S
C82 C81 1.392 . S
C82 C83 1.419 . S
C82 H111 0.948 . S
C83 C82 1.419 . S
C83 C84 1.391 . S
C83 C87 1.397 . S
C84 C79 1.391 . S
C84 C83 1.391 . S
C84 C85 1.399 . S
C85 C84 1.399 . S
C85 C86 1.396 . S
C85 C88 1.453 . S
C85 C89 1.684 . S
C86 C67 1.723 . S
C86 C85 1.396 . S
C86 C87 1.394 . S
C87 C83 1.397 . S
C87 C86 1.394 . S
C87 C97 1.723 . S
C88 C85 1.453 . S
C88 H112 0.982 . S
C88 H113 0.979 . S
C88 H114 0.977 . S
C89 C85 1.684 . S
C89 H115 0.979 . S
C89 H116 0.980 . S
C89 H117 0.983 . S
C90 H66 0.948 . S
C90 C91 1.391 . S
C90 C95 1.391 . S
C91 C90 1.391 . S
C91 C92 1.391 . S
C92 H69 0.947 . S
C92 C91 1.391 . S
C92 C93 1.392 . S
C93 H70 0.948 . S
C93 C92 1.392 . S
C93 C94 1.419 . S
C94 C93 1.419 . S
C94 C95 1.391 . S
C94 C98 1.397 . S
C95 C90 1.391 . S
C95 C94 1.391 . S
C95 C96 1.399 . S
C96 C95 1.399 . S
C96 C97 1.396 . S
C96 C99 1.453 . S
C96 C100 1.684 . S
C97 C87 1.723 . S
C97 C96 1.396 . S
C97 C98 1.394 . S
C98 C68 1.723 . S
C98 C94 1.397 . S
C98 C97 1.394 . S
C99 H71 0.982 . S
C99 H75 0.979 . S
C99 H76 0.977 . S
C99 C96 1.453 . S
C100 H72 0.979 . S
C100 H73 0.980 . S
C100 H74 0.983 . S
C100 C96 1.684 . S
H101 C119 0.948 . S
H102 C60 0.948 . S
H103 C78 0.979 . S
H104 C78 0.980 . S
H105 C78 0.983 . S
H106 C77 0.982 . S
H107 C77 0.979 . S
H108 C77 0.977 . S
H109 C79 0.948 . S
H110 C81 0.947 . S
H111 C82 0.948 . S
H112 C88 0.982 . S
H113 C88 0.979 . S
H114 C88 0.977 . S
H115 C89 0.979 . S
H116 C89 0.980 . S
H117 C89 0.983 . S
H118 C62 0.947 . S
C119 C62 1.392 . S
C119 C63 1.419 . S
C119 H101 0.948 . S
C120 C121 1.391 . S
C120 C124 1.391 1_556 S
C120 H162 0.948 1_655 S
C121 C120 1.391 . S
C121 C122 1.391 . S
C122 C121 1.391 . S
C122 H178 0.947 . S
C122 C179 1.392 . S
C123 C124 1.391 . S
C123 C127 1.397 . S
C123 C179 1.419 1_554 S
C124 C120 1.391 1_554 S
C124 C123 1.391 . S
C124 C125 1.399 . S
C125 C124 1.399 . S
C125 C128 1.396 . S
C125 C137 1.453 . S
C125 C138 1.684 1_655 S
H126 C150 0.948 . S
C127 C123 1.397 . S
C127 C128 1.394 . S
C127 C146 1.723 . S
C128 C125 1.396 . S
C128 C127 1.394 . S
C128 C158 1.723 . S
H129 C152 0.947 . S
H130 C153 0.948 . S
H131 C159 0.982 . S
H132 C160 0.979 . S
H133 C160 0.980 . S
H134 C160 0.983 . S
H135 C159 0.979 . S
H136 C159 0.977 . S
C137 C125 1.453 . S
C137 H166 0.982 . S
C137 H167 0.979 1_655 S
C137 H168 0.977 1_655 S
C138 C125 1.684 1_455 S
C138 H163 0.979 . S
C138 H164 0.980 . S
C138 H165 0.983 . S
C139 C140 1.391 . S
C139 C144 1.391 . S
C139 H169 0.967 . S
C140 C139 1.391 . S
C140 C141 1.391 . S
C141 C140 1.391 . S
C141 C142 1.392 . S
C141 H170 0.947 . S
C142 C141 1.392 . S
C142 C143 1.419 . S
C142 H171 0.948 . S
C143 C142 1.419 . S
C143 C144 1.391 . S
C143 C147 1.397 . S
C144 C139 1.391 . S
C144 C143 1.391 . S
C144 C145 1.399 . S
C145 C144 1.399 . S
C145 C146 1.396 . S
C145 C148 1.453 . S
C145 C149 1.684 1_554 S
C146 C127 1.723 . S
C146 C145 1.396 . S
C146 C147 1.394 . S
C147 C143 1.397 . S
C147 C146 1.394 . S
C147 C157 1.723 . S
C148 C145 1.453 . S
C148 H172 0.982 . S
C148 H173 0.979 1_554 S
C148 H174 0.977 1_554 S
C149 C145 1.684 1_556 S
C149 H175 0.979 . S
C149 H176 0.980 . S
C149 H177 0.983 . S
C150 H126 0.948 . S
C150 C151 1.391 . S
C150 C155 1.391 1_455 S
C151 C150 1.391 . S
C151 C152 1.391 . S
C152 H129 0.947 . S
C152 C151 1.391 . S
C152 C153 1.392 . S
C153 H130 0.948 . S
C153 C152 1.392 . S
C153 C154 1.419 1_455 S
C154 C153 1.419 1_655 S
C154 C155 1.391 . S
C154 C158 1.397 . S
C155 C150 1.391 1_655 S
C155 C154 1.391 . S
C155 C156 1.399 . S
C156 C155 1.399 . S
C156 C157 1.396 . S
C156 C159 1.453 . S
C156 C160 1.684 . S
C157 C147 1.723 . S
C157 C156 1.396 . S
C157 C158 1.394 . S
C158 C128 1.723 . S
C158 C154 1.397 . S
C158 C157 1.394 . S
C159 H131 0.982 . S
C159 H135 0.979 . S
C159 H136 0.977 . S
C159 C156 1.453 . S
C160 H132 0.979 . S
C160 H133 0.980 . S
C160 H134 0.983 . S
C160 C156 1.684 . S
H161 C179 0.948 . S
H162 C120 0.948 1_455 S
H163 C138 0.979 . S
H164 C138 0.980 . S
H165 C138 0.983 . S
H166 C137 0.982 . S
H167 C137 0.979 1_455 S
H168 C137 0.977 1_455 S
H169 C139 0.967 . S
H170 C141 0.947 . S
H171 C142 0.948 . S
H172 C148 0.982 . S
H173 C148 0.979 1_556 S
H174 C148 0.977 1_556 S
H175 C149 0.979 . S
H176 C149 0.980 . S
H177 C149 0.983 . S
H178 C122 0.947 . S
C179 C122 1.392 . S
C179 C123 1.419 1_556 S
C179 H161 0.948 . S
C180 C181 1.391 . S
C180 C184 1.391 . S
C180 H222 0.948 . S
C181 C180 1.391 . S
C181 C182 1.391 . S
C182 C181 1.391 . S
C182 H238 0.947 . S
C182 C239 1.392 . S
C183 C184 1.391 . S
C183 C187 1.397 . S
C183 C239 1.419 . S
C184 C180 1.391 . S
C184 C183 1.391 . S
C184 C185 1.399 . S
C185 C184 1.399 . S
C185 C188 1.396 . S
C185 C197 1.453 . S
C185 C198 1.684 . S
H186 C210 0.948 . S
C187 C183 1.397 . S
C187 C188 1.394 . S
C187 C206 1.723 . S
C188 C185 1.396 . S
C188 C187 1.394 . S
C188 C218 1.723 . S
H189 C212 0.947 . S
H190 C213 0.948 . S
H191 C219 0.982 . S
H192 C220 0.979 . S
H193 C220 0.980 . S
H194 C220 0.983 . S
H195 C219 0.979 . S
H196 C219 0.977 . S
C197 C185 1.453 . S
C197 H226 0.982 . S
C197 H227 0.979 . S
C197 H228 0.977 . S
C198 C185 1.684 . S
C198 H223 0.979 . S
C198 H224 0.980 . S
C198 H225 0.983 . S
C199 C200 1.391 . S
C199 C204 1.391 . S
C199 H229 0.948 . S
C200 C199 1.391 . S
C200 C201 1.391 . S
C201 C200 1.391 . S
C201 C202 1.392 . S
C201 H230 0.947 . S
C202 C201 1.392 . S
C202 C203 1.419 . S
C202 H231 0.948 . S
C203 C202 1.419 . S
C203 C204 1.391 . S
C203 C207 1.397 . S
C204 C199 1.391 . S
C204 C203 1.391 . S
C204 C205 1.399 . S
C205 C204 1.399 . S
C205 C206 1.396 . S
C205 C208 1.453 . S
C205 C209 1.684 . S
C206 C187 1.723 . S
C206 C205 1.396 . S
C206 C207 1.394 . S
C207 C203 1.397 . S
C207 C206 1.394 . S
C207 C217 1.723 . S
C208 C205 1.453 . S
C208 H232 0.982 . S
C208 H233 0.979 . S
C208 H234 0.977 . S
C209 C205 1.684 . S
C209 H235 0.979 . S
C209 H236 0.980 . S
C209 H237 0.983 . S
C210 H186 0.948 . S
C210 C211 1.391 . S
C210 C215 1.391 . S
C211 C210 1.391 . S
C211 C212 1.391 . S
C212 H189 0.947 . S
C212 C211 1.391 . S
C212 C213 1.392 . S
C213 H190 0.948 . S
C213 C212 1.392 . S
C213 C214 1.419 . S
C214 C213 1.419 . S
C214 C215 1.391 . S
C214 C218 1.397 . S
C215 C210 1.391 . S
C215 C214 1.391 . S
C215 C216 1.399 . S
C216 C215 1.399 . S
C216 C217 1.396 . S
C216 C219 1.453 . S
C216 C220 1.684 . S
C217 C207 1.723 . S
C217 C216 1.396 . S
C217 C218 1.394 . S
C218 C188 1.723 . S
C218 C214 1.397 . S
C218 C217 1.394 . S
C219 H191 0.982 . S
C219 H195 0.979 . S
C219 H196 0.977 . S
C219 C216 1.453 . S
C220 H192 0.979 . S
C220 H193 0.980 . S
C220 H194 0.983 . S
C220 C216 1.684 . S
H221 C239 0.948 . S
H222 C180 0.948 . S
H223 C198 0.979 . S
H224 C198 0.980 . S
H225 C198 0.983 . S
H226 C197 0.982 . S
H227 C197 0.979 . S
H228 C197 0.977 . S
H229 C199 0.948 . S
H230 C201 0.947 . S
H231 C202 0.948 . S
H232 C208 0.982 . S
H233 C208 0.979 . S
H234 C208 0.977 . S
H235 C209 0.979 . S
H236 C209 0.980 . S
H237 C209 0.983 . S
H238 C182 0.947 . S
C239 C182 1.392 . S
C239 C183 1.419 . S
C239 H221 0.948 . S
C240 C241 1.391 . S
C240 C244 1.391 . S
C240 H282 0.948 . S
C241 C240 1.391 . S
C241 C242 1.391 . S
C242 C241 1.391 . S
C242 H298 0.915 1_455 S
C242 C299 1.392 . S
C243 C244 1.391 . S
C243 C247 1.397 . S
C243 C299 1.419 . S
C244 C240 1.391 . S
C244 C243 1.391 . S
C244 C245 1.399 . S
C245 C244 1.399 . S
C245 C248 1.396 . S
C245 C257 1.453 . S
C245 C258 1.684 . S
H246 C270 0.948 . S
C247 C243 1.397 . S
C247 C248 1.394 . S
C247 C266 1.723 . S
C248 C245 1.396 . S
C248 C247 1.394 . S
C248 C278 1.723 . S
H249 C272 0.947 . S
H250 C273 0.948 . S
H251 C279 0.982 . S
H252 C280 0.974 1_565 S
H253 C280 0.980 . S
H254 C280 0.983 . S
H255 C279 0.979 . S
H256 C279 0.977 . S
C257 C245 1.453 . S
C257 H286 0.982 . S
C257 H287 0.979 . S
C257 H288 0.977 . S
C258 C245 1.684 . S
C258 H283 0.979 . S
C258 H284 0.980 . S
C258 H285 0.983 . S
C259 C260 1.391 . S
C259 C264 1.391 1_655 S
C259 H289 0.948 . S
C260 C259 1.391 . S
C260 C261 1.391 1_655 S
C261 C260 1.391 1_455 S
C261 C262 1.392 . S
C261 H290 0.947 1_565 S
C262 C261 1.392 . S
C262 C263 1.419 . S
C262 H291 0.948 1_565 S
C263 C262 1.419 . S
C263 C264 1.391 . S
C263 C267 1.397 . S
C264 C259 1.391 1_455 S
C264 C263 1.391 . S
C264 C265 1.399 . S
C265 C264 1.399 . S
C265 C266 1.396 . S
C265 C268 1.453 1_455 S
C265 C269 1.684 1_455 S
C266 C247 1.723 . S
C266 C265 1.396 . S
C266 C267 1.394 . S
C267 C263 1.397 . S
C267 C266 1.394 . S
C267 C277 1.723 . S
C268 C265 1.453 1_655 S
C268 H292 0.982 . S
C268 H293 0.979 . S
C268 H294 0.977 . S
C269 C265 1.684 1_655 S
C269 H295 0.979 1_655 S
C269 H296 0.984 . S
C269 H297 0.983 . S
C270 H246 0.948 . S
C270 C271 1.391 . S
C270 C275 1.391 . S
C271 C270 1.391 . S
C271 C272 1.391 . S
C272 H249 0.947 . S
C272 C271 1.391 . S
C272 C273 1.392 1_545 S
C273 H250 0.948 . S
C273 C272 1.392 1_565 S
C273 C274 1.419 . S
C274 C273 1.419 . S
C274 C275 1.391 1_565 S
C274 C278 1.397 . S
C275 C270 1.391 . S
C275 C274 1.391 1_545 S
C275 C276 1.399 . S
C276 C275 1.399 . S
C276 C277 1.396 1_545 S
C276 C279 1.453 . S
C276 C280 1.684 . S
C277 C267 1.723 . S
C277 C276 1.396 1_565 S
C277 C278 1.394 . S
C278 C248 1.723 . S
C278 C274 1.397 . S
C278 C277 1.394 . S
C279 H251 0.982 . S
C279 H255 0.979 . S
C279 H256 0.977 . S
C279 C276 1.453 . S
C280 H252 0.974 1_545 S
C280 H253 0.980 . S
C280 H254 0.983 . S
C280 C276 1.684 . S
H281 C299 0.948 . S
H282 C240 0.948 . S
H283 C258 0.979 . S
H284 C258 0.980 . S
H285 C258 0.983 . S
H286 C257 0.982 . S
H287 C257 0.979 . S
H288 C257 0.977 . S
H289 C259 0.948 . S
H290 C261 0.947 1_545 S
H291 C262 0.948 1_545 S
H292 C268 0.982 . S
H293 C268 0.979 . S
H294 C268 0.977 . S
H295 C269 0.979 1_455 S
H296 C269 0.984 . S
H297 C269 0.983 . S
H298 C242 0.915 1_655 S
C299 C242 1.392 . S
C299 C243 1.419 . S
C299 H281 0.948 . S
C300 C301 1.391 . S
C300 C304 1.391 . S
C300 H342 0.948 . S
C301 C300 1.391 . S
C301 C302 1.391 . S
C302 C301 1.391 . S
C302 H358 0.947 . S
C302 C359 1.392 . S
C303 C304 1.391 . S
C303 C307 1.397 . S
C303 C359 1.419 . S
C304 C300 1.391 . S
C304 C303 1.391 . S
C304 C305 1.399 . S
C305 C304 1.399 . S
C305 C308 1.396 . S
C305 C317 1.453 . S
C305 C318 1.684 . S
H306 C330 0.948 . S
C307 C303 1.397 . S
C307 C308 1.394 . S
C307 C326 1.723 . S
C308 C305 1.396 . S
C308 C307 1.394 . S
C308 C338 1.723 . S
H309 C332 0.947 . S
H310 C333 0.948 . S
H311 C339 0.982 . S
H312 C340 0.979 . S
H313 C340 0.980 . S
H314 C340 0.983 . S
H315 C339 0.979 . S
H316 C339 0.977 . S
C317 C305 1.453 . S
C317 H346 0.982 . S
C317 H347 0.979 . S
C317 H348 0.977 . S
C318 C305 1.684 . S
C318 H343 0.979 . S
C318 H344 0.980 . S
C318 H345 0.983 . S
C319 C320 1.391 . S
C319 C324 1.391 . S
C319 H349 0.948 . S
C320 C319 1.391 . S
C320 C321 1.391 . S
C321 C320 1.391 . S
C321 C322 1.392 . S
C321 H350 0.947 . S
C322 C321 1.392 . S
C322 C323 1.419 . S
C322 H351 0.948 . S
C323 C322 1.419 . S
C323 C324 1.391 . S
C323 C327 1.397 . S
C324 C319 1.391 . S
C324 C323 1.391 . S
C324 C325 1.399 . S
C325 C324 1.399 . S
C325 C326 1.396 . S
C325 C328 1.453 . S
C325 C329 1.684 . S
C326 C307 1.723 . S
C326 C325 1.396 . S
C326 C327 1.394 . S
C327 C323 1.397 . S
C327 C326 1.394 . S
C327 C337 1.723 . S
C328 C325 1.453 . S
C328 H352 0.982 . S
C328 H353 0.979 . S
C328 H354 0.977 . S
C329 C325 1.684 . S
C329 H355 0.979 . S
C329 H356 0.980 . S
C329 H357 0.983 . S
C330 H306 0.948 . S
C330 C331 1.391 . S
C330 C335 1.391 . S
C331 C330 1.391 . S
C331 C332 1.391 . S
C332 H309 0.947 . S
C332 C331 1.391 . S
C332 C333 1.392 . S
C333 H310 0.948 . S
C333 C332 1.392 . S
C333 C334 1.419 . S
C334 C333 1.419 . S
C334 C335 1.391 . S
C334 C338 1.397 . S
C335 C330 1.391 . S
C335 C334 1.391 . S
C335 C336 1.399 . S
C336 C335 1.399 . S
C336 C337 1.396 . S
C336 C339 1.453 . S
C336 C340 1.684 . S
C337 C327 1.723 . S
C337 C336 1.396 . S
C337 C338 1.394 . S
C338 C308 1.723 . S
C338 C334 1.397 . S
C338 C337 1.394 . S
C339 H311 0.982 . S
C339 H315 0.979 . S
C339 H316 0.977 . S
C339 C336 1.453 . S
C340 H312 0.979 . S
C340 H313 0.980 . S
C340 H314 0.983 . S
C340 C336 1.684 . S
H341 C359 0.948 . S
H342 C300 0.948 . S
H343 C318 0.979 . S
H344 C318 0.980 . S
H345 C318 0.983 . S
H346 C317 0.982 . S
H347 C317 0.979 . S
H348 C317 0.977 . S
H349 C319 0.948 . S
H350 C321 0.947 . S
H351 C322 0.948 . S
H352 C328 0.982 . S
H353 C328 0.979 . S
H354 C328 0.977 . S
H355 C329 0.979 . S
H356 C329 0.980 . S
H357 C329 0.983 . S
H358 C302 0.947 . S
C359 C302 1.392 . S
C359 C303 1.419 . S
C359 H341 0.948 . S
C360 C361 1.391 . S
C360 C364 1.391 . S
C360 H402 0.948 . S
C361 C360 1.391 . S
C361 C362 1.391 . S
C362 C361 1.391 . S
C362 H418 0.947 . S
C362 C419 1.392 . S
C363 C364 1.391 . S
C363 C367 1.397 . S
C363 C419 1.419 . S
C364 C360 1.391 . S
C364 C363 1.391 . S
C364 C365 1.399 . S
C365 C364 1.399 . S
C365 C368 1.396 . S
C365 C377 1.453 . S
C365 C378 1.684 . S
H366 C390 0.948 1_455 S
C367 C363 1.397 . S
C367 C368 1.394 . S
C367 C386 1.723 . S
C368 C365 1.396 . S
C368 C367 1.394 . S
C368 C398 1.723 . S
H369 C392 0.947 . S
H370 C393 0.948 . S
H371 C399 0.982 1_655 S
H372 C400 0.979 . S
H373 C400 0.980 . S
H374 C400 0.983 . S
H375 C399 0.979 . S
H376 C399 0.977 . S
C377 C365 1.453 . S
C377 H406 0.982 . S
C377 H407 0.979 . S
C377 H408 0.977 . S
C378 C365 1.684 . S
C378 H403 0.979 . S
C378 H404 0.980 . S
C378 H405 0.983 . S
C379 C380 1.391 . S
C379 C384 1.391 1_455 S
C379 H409 0.948 . S
C380 C379 1.391 . S
C380 C381 1.391 . S
C381 C380 1.391 . S
C381 C382 1.392 . S
C381 H410 0.947 . S
C382 C381 1.392 . S
C382 C383 1.419 . S
C382 H411 0.948 . S
C383 C382 1.419 . S
C383 C384 1.391 1_455 S
C383 C387 1.397 1_455 S
C384 C379 1.391 1_655 S
C384 C383 1.391 1_655 S
C384 C385 1.399 . S
C385 C384 1.399 . S
C385 C386 1.396 . S
C385 C388 1.453 . S
C385 C389 1.684 . S
C386 C367 1.723 . S
C386 C385 1.396 . S
C386 C387 1.394 . S
C387 C383 1.397 1_655 S
C387 C386 1.394 . S
C387 C397 1.723 . S
C388 C385 1.453 . S
C388 H412 0.982 . S
C388 H413 0.979 . S
C388 H414 0.977 . S
C389 C385 1.684 . S
C389 H415 0.979 . S
C389 H416 0.980 . S
C389 H417 0.983 . S
C390 H366 0.948 1_655 S
C390 C391 1.391 . S
C390 C395 1.391 . S
C391 C390 1.391 . S
C391 C392 1.391 . S
C392 H369 0.947 . S
C392 C391 1.391 . S
C392 C393 1.392 . S
C393 H370 0.948 . S
C393 C392 1.392 . S
C393 C394 1.419 . S
C394 C393 1.419 . S
C394 C395 1.391 . S
C394 C398 1.397 . S
C395 C390 1.391 . S
C395 C394 1.391 . S
C395 C396 1.397 1_655 S
C396 C395 1.397 1_455 S
C396 C397 1.393 1_455 S
C396 C399 1.454 . S
C396 C400 1.690 . S
C397 C387 1.723 . S
C397 C396 1.393 1_655 S
C397 C398 1.394 . S
C398 C368 1.723 . S
C398 C394 1.397 . S
C398 C397 1.394 . S
C399 H371 0.982 1_455 S
C399 H375 0.979 . S
C399 H376 0.977 . S
C399 C396 1.454 . S
C400 H372 0.979 . S
C400 H373 0.980 . S
C400 H374 0.983 . S
C400 C396 1.690 . S
H401 C419 0.948 . S
H402 C360 0.948 . S
H403 C378 0.979 . S
H404 C378 0.980 . S
H405 C378 0.983 . S
H406 C377 0.982 . S
H407 C377 0.979 . S
H408 C377 0.977 . S
H409 C379 0.948 . S
H410 C381 0.947 . S
H411 C382 0.948 . S
H412 C388 0.982 . S
H413 C388 0.979 . S
H414 C388 0.977 . S
H415 C389 0.979 . S
H416 C389 0.980 . S
H417 C389 0.983 . S
H418 C362 0.947 . S
C419 C362 1.392 . S
C419 C363 1.419 . S
C419 H401 0.948 . S
C420 C421 1.391 . S
C420 C424 1.391 . S
C420 H462 0.948 . S
C421 C420 1.391 . S
C421 C422 1.391 . S
C422 C421 1.391 . S
C422 H478 0.947 . S
C422 C479 1.392 . S
C423 C424 1.391 . S
C423 C427 1.397 . S
C423 C479 1.419 . S
C424 C420 1.391 . S
C424 C423 1.391 . S
C424 C425 1.399 . S
C425 C424 1.399 . S
C425 C428 1.396 . S
C425 C437 1.453 . S
C425 C438 1.684 . S
H426 C450 0.948 . S
C427 C423 1.397 . S
C427 C428 1.394 . S
C427 C446 1.723 . S
C428 C425 1.396 . S
C428 C427 1.394 . S
C428 C458 1.723 . S
H429 C452 0.947 . S
H430 C453 0.948 . S
H431 C459 0.982 . S
H432 C460 0.979 . S
H433 C460 0.980 . S
H434 C460 0.983 . S
H435 C459 0.979 . S
H436 C459 0.977 . S
C437 C425 1.453 . S
C437 H466 0.982 . S
C437 H467 0.979 . S
C437 H468 0.977 . S
C438 C425 1.684 . S
C438 H463 0.979 . S
C438 H464 0.980 . S
C438 H465 0.983 . S
C439 C440 1.391 . S
C439 C444 1.391 . S
C439 H469 0.948 . S
C440 C439 1.391 . S
C440 C441 1.391 . S
C441 C440 1.391 . S
C441 C442 1.392 . S
C441 H470 0.947 . S
C442 C441 1.392 . S
C442 C443 1.419 . S
C442 H471 0.948 . S
C443 C442 1.419 . S
C443 C444 1.391 . S
C443 C447 1.397 . S
C444 C439 1.391 . S
C444 C443 1.391 . S
C444 C445 1.399 . S
C445 C444 1.399 . S
C445 C446 1.396 . S
C445 C448 1.453 . S
C445 C449 1.684 . S
C446 C427 1.723 . S
C446 C445 1.396 . S
C446 C447 1.394 . S
C447 C443 1.397 . S
C447 C446 1.394 . S
C447 C457 1.723 . S
C448 C445 1.453 . S
C448 H472 0.982 . S
C448 H473 0.979 . S
C448 H474 0.977 . S
C449 C445 1.684 . S
C449 H475 0.979 . S
C449 H476 0.980 . S
C449 H477 0.983 . S
C450 H426 0.948 . S
C450 C451 1.391 . S
C450 C455 1.391 . S
C451 C450 1.391 . S
C451 C452 1.391 . S
C452 H429 0.947 . S
C452 C451 1.391 . S
C452 C453 1.392 . S
C453 H430 0.948 . S
C453 C452 1.392 . S
C453 C454 1.419 . S
C454 C453 1.419 . S
C454 C455 1.391 . S
C454 C458 1.397 . S
C455 C450 1.391 . S
C455 C454 1.391 . S
C455 C456 1.399 . S
C456 C455 1.399 . S
C456 C457 1.396 . S
C456 C459 1.453 . S
C456 C460 1.684 . S
C457 C447 1.723 . S
C457 C456 1.396 . S
C457 C458 1.394 . S
C458 C428 1.723 . S
C458 C454 1.397 . S
C458 C457 1.394 . S
C459 H431 0.982 . S
C459 H435 0.979 . S
C459 H436 0.977 . S
C459 C456 1.453 . S
C460 H432 0.979 . S
C460 H433 0.980 . S
C460 H434 0.983 . S
C460 C456 1.684 . S
H461 C479 0.948 . S
H462 C420 0.948 . S
H463 C438 0.979 . S
H464 C438 0.980 . S
H465 C438 0.983 . S
H466 C437 0.982 . S
H467 C437 0.979 . S
H468 C437 0.977 . S
H469 C439 0.948 . S
H470 C441 0.947 . S
H471 C442 0.948 . S
H472 C448 0.982 . S
H473 C448 0.979 . S
H474 C448 0.977 . S
H475 C449 0.979 . S
H476 C449 0.980 . S
H477 C449 0.983 . S
H478 C422 0.947 . S
C479 C422 1.392 . S
C479 C423 1.419 . S
C479 H461 0.948 . S
C480 C481 1.391 . S
C480 C484 1.391 . S
C480 H522 0.948 . S
C481 C480 1.391 . S
C481 C482 1.391 . S
C482 C481 1.391 . S
C482 H538 0.947 . S
C482 C539 1.392 . S
C483 C484 1.391 . S
C483 C487 1.397 . S
C483 C539 1.419 . S
C484 C480 1.391 . S
C484 C483 1.391 . S
C484 C485 1.399 . S
C485 C484 1.399 . S
C485 C488 1.396 . S
C485 C497 1.453 . S
C485 C498 1.684 . S
H486 C510 0.948 . S
C487 C483 1.397 . S
C487 C488 1.394 . S
C487 C506 1.723 . S
C488 C485 1.396 . S
C488 C487 1.394 . S
C488 C518 1.723 . S
H489 C512 0.947 . S
H490 C513 0.948 . S
H491 C519 0.982 . S
H492 C520 0.979 . S
H493 C520 0.980 . S
H494 C520 0.983 . S
H495 C519 0.979 . S
H496 C519 0.977 . S
C497 C485 1.453 . S
C497 H526 0.982 . S
C497 H527 0.979 . S
C497 H528 0.977 . S
C498 C485 1.684 . S
C498 H523 0.979 . S
C498 H524 0.980 . S
C498 H525 0.983 . S
C499 C500 1.391 . S
C499 C504 1.391 . S
C499 H529 0.948 . S
C500 C499 1.391 . S
C500 C501 1.391 . S
C501 C500 1.391 . S
C501 C502 1.392 . S
C501 H530 0.947 . S
C502 C501 1.392 . S
C502 C503 1.419 . S
C502 H531 0.948 . S
C503 C502 1.419 . S
C503 C504 1.391 . S
C503 C507 1.397 . S
C504 C499 1.391 . S
C504 C503 1.391 . S
C504 C505 1.399 . S
C505 C504 1.399 . S
C505 C506 1.396 . S
C505 C508 1.453 . S
C505 C509 1.684 . S
C506 C487 1.723 . S
C506 C505 1.396 . S
C506 C507 1.394 . S
C507 C503 1.397 . S
C507 C506 1.394 . S
C507 C517 1.723 . S
C508 C505 1.453 . S
C508 H532 0.982 . S
C508 H533 0.979 . S
C508 H534 0.977 . S
C509 C505 1.684 . S
C509 H535 0.979 . S
C509 H536 0.980 . S
C509 H537 0.983 . S
C510 H486 0.948 . S
C510 C511 1.391 . S
C510 C515 1.391 . S
C511 C510 1.391 . S
C511 C512 1.391 . S
C512 H489 0.947 . S
C512 C511 1.391 . S
C512 C513 1.392 . S
C513 H490 0.948 . S
C513 C512 1.392 . S
C513 C514 1.419 . S
C514 C513 1.419 . S
C514 C515 1.391 . S
C514 C518 1.397 . S
C515 C510 1.391 . S
C515 C514 1.391 . S
C515 C516 1.399 . S
C516 C515 1.399 . S
C516 C517 1.396 . S
C516 C519 1.453 . S
C516 C520 1.684 . S
C517 C507 1.723 . S
C517 C516 1.396 . S
C517 C518 1.394 . S
C518 C488 1.723 . S
C518 C514 1.397 . S
C518 C517 1.394 . S
C519 H491 0.982 . S
C519 H495 0.979 . S
C519 H496 0.977 . S
C519 C516 1.453 . S
C520 H492 0.979 . S
C520 H493 0.980 . S
C520 H494 0.983 . S
C520 C516 1.684 . S
H521 C539 0.948 . S
H522 C480 0.948 . S
H523 C498 0.979 . S
H524 C498 0.980 . S
H525 C498 0.983 . S
H526 C497 0.982 . S
H527 C497 0.979 . S
H528 C497 0.977 . S
H529 C499 0.948 . S
H530 C501 0.947 . S
H531 C502 0.948 . S
H532 C508 0.982 . S
H533 C508 0.979 . S
H534 C508 0.977 . S
H535 C509 0.979 . S
H536 C509 0.980 . S
H537 C509 0.983 . S
H538 C482 0.947 . S
C539 C482 1.392 . S
C539 C483 1.419 . S
C539 H521 0.948 . S
C540 C541 1.391 . S
C540 C544 1.391 . S
C540 H582 0.948 . S
C541 C540 1.391 . S
C541 C542 1.391 . S
C542 C541 1.391 . S
C542 H598 0.947 . S
C542 C599 1.392 . S
C543 C544 1.391 . S
C543 C547 1.397 . S
C543 C599 1.419 . S
C544 C540 1.391 . S
C544 C543 1.391 . S
C544 C545 1.399 . S
C545 C544 1.399 . S
C545 C548 1.396 . S
C545 C557 1.453 . S
C545 C558 1.684 . S
H546 C570 0.948 1_545 S
C547 C543 1.397 . S
C547 C548 1.394 . S
C547 C566 1.723 . S
C548 C545 1.396 . S
C548 C547 1.394 . S
C548 C578 1.723 . S
H549 C572 0.947 . S
H550 C573 0.948 . S
H551 C579 0.982 . S
H552 C580 0.979 . S
H553 C580 0.980 . S
H554 C580 0.983 . S
H555 C579 0.979 1_545 S
H556 C579 0.977 1_545 S
C557 C545 1.453 . S
C557 H586 0.982 . S
C557 H587 0.979 . S
C557 H588 0.977 . S
C558 C545 1.684 . S
C558 H583 0.979 . S
C558 H584 0.980 . S
C558 H585 0.983 . S
C559 C560 1.391 . S
C559 C564 1.391 1_545 S
C559 H589 0.948 . S
C560 C559 1.391 . S
C560 C561 1.391 . S
C561 C560 1.391 . S
C561 C562 1.392 . S
C561 H590 0.947 . S
C562 C561 1.392 . S
C562 C563 1.419 1_545 S
C562 H591 0.948 . S
C563 C562 1.419 1_565 S
C563 C564 1.391 . S
C563 C567 1.397 . S
C564 C559 1.391 1_565 S
C564 C563 1.391 . S
C564 C565 1.399 . S
C565 C564 1.399 . S
C565 C566 1.396 . S
C565 C568 1.453 . S
C565 C569 1.684 . S
C566 C547 1.723 . S
C566 C565 1.396 . S
C566 C567 1.394 . S
C567 C563 1.397 . S
C567 C566 1.394 . S
C567 C577 1.723 . S
C568 C565 1.453 . S
C568 H592 0.982 . S
C568 H593 0.979 . S
C568 H594 0.977 . S
C569 C565 1.684 . S
C569 H595 0.979 . S
C569 H596 0.980 . S
C569 H597 0.983 . S
C570 H546 0.948 1_565 S
C570 C571 1.391 . S
C570 C575 1.391 . S
C571 C570 1.391 . S
C571 C572 1.391 . S
C572 H549 0.947 . S
C572 C571 1.391 . S
C572 C573 1.392 . S
C573 H550 0.948 . S
C573 C572 1.392 . S
C573 C574 1.419 . S
C574 C573 1.419 . S
C574 C575 1.391 . S
C574 C578 1.397 . S
C575 C570 1.391 . S
C575 C574 1.391 . S
C575 C576 1.399 . S
C576 C575 1.399 . S
C576 C577 1.396 . S
C576 C579 1.453 . S
C576 C580 1.684 1_565 S
C577 C567 1.723 . S
C577 C576 1.396 . S
C577 C578 1.394 . S
C578 C548 1.723 . S
C578 C574 1.397 . S
C578 C577 1.394 . S
C579 H551 0.982 . S
C579 H555 0.979 1_565 S
C579 H556 0.977 1_565 S
C579 C576 1.453 . S
C580 H552 0.979 . S
C580 H553 0.980 . S
C580 H554 0.983 . S
C580 C576 1.684 1_545 S
H581 C599 0.948 . S
H582 C540 0.948 . S
H583 C558 0.979 . S
H584 C558 0.980 . S
H585 C558 0.983 . S
H586 C557 0.982 . S
H587 C557 0.979 . S
H588 C557 0.977 . S
H589 C559 0.948 . S
H590 C561 0.947 . S
H591 C562 0.948 . S
H592 C568 0.982 . S
H593 C568 0.979 . S
H594 C568 0.977 . S
H595 C569 0.979 . S
H596 C569 0.980 . S
H597 C569 0.983 . S
H598 C542 0.947 . S
C599 C542 1.392 . S
C599 C543 1.419 . S
C599 H581 0.948 . S
C600 C601 1.391 . S
C600 C604 1.391 . S
C600 H642 0.948 . S
C601 C600 1.391 . S
C601 C602 1.391 . S
C602 C601 1.391 . S
C602 H658 0.947 . S
C602 C659 1.392 . S
C603 C604 1.391 . S
C603 C607 1.397 . S
C603 C659 1.419 . S
C604 C600 1.391 . S
C604 C603 1.391 . S
C604 C605 1.399 . S
C605 C604 1.399 . S
C605 C608 1.396 . S
C605 C617 1.453 . S
C605 C618 1.684 . S
H606 C630 0.948 . S
C607 C603 1.397 . S
C607 C608 1.394 . S
C607 C626 1.723 . S
C608 C605 1.396 . S
C608 C607 1.394 . S
C608 C638 1.723 . S
H609 C632 0.947 . S
H610 C633 0.948 . S
H611 C639 0.982 . S
H612 C640 0.979 . S
H613 C640 0.980 . S
H614 C640 0.983 . S
H615 C639 0.979 . S
H616 C639 0.977 . S
C617 C605 1.453 . S
C617 H646 0.982 . S
C617 H647 0.979 . S
C617 H648 0.977 . S
C618 C605 1.684 . S
C618 H643 0.979 . S
C618 H644 0.980 . S
C618 H645 0.983 . S
C619 C620 1.391 . S
C619 C624 1.391 . S
C619 H649 0.948 . S
C620 C619 1.391 . S
C620 C621 1.391 . S
C621 C620 1.391 . S
C621 C622 1.392 . S
C621 H650 0.947 . S
C622 C621 1.392 . S
C622 C623 1.419 . S
C622 H651 0.948 . S
C623 C622 1.419 . S
C623 C624 1.391 . S
C623 C627 1.397 . S
C624 C619 1.391 . S
C624 C623 1.391 . S
C624 C625 1.399 . S
C625 C624 1.399 . S
C625 C626 1.396 . S
C625 C628 1.453 . S
C625 C629 1.684 . S
C626 C607 1.723 . S
C626 C625 1.396 . S
C626 C627 1.394 . S
C627 C623 1.397 . S
C627 C626 1.394 . S
C627 C637 1.723 . S
C628 C625 1.453 . S
C628 H652 0.982 . S
C628 H653 0.979 . S
C628 H654 0.977 . S
C629 C625 1.684 . S
C629 H655 0.979 . S
C629 H656 0.980 . S
C629 H657 0.983 . S
C630 H606 0.948 . S
C630 C631 1.391 . S
C630 C635 1.391 . S
C631 C630 1.391 . S
C631 C632 1.391 . S
C632 H609 0.947 . S
C632 C631 1.391 . S
C632 C633 1.392 . S
C633 H610 0.948 . S
C633 C632 1.392 . S
C633 C634 1.419 . S
C634 C633 1.419 . S
C634 C635 1.391 . S
C634 C638 1.397 . S
C635 C630 1.391 . S
C635 C634 1.391 . S
C635 C636 1.399 . S
C636 C635 1.399 . S
C636 C637 1.396 . S
C636 C639 1.453 . S
C636 C640 1.684 . S
C637 C627 1.723 . S
C637 C636 1.396 . S
C637 C638 1.394 . S
C638 C608 1.723 . S
C638 C634 1.397 . S
C638 C637 1.394 . S
C639 H611 0.982 . S
C639 H615 0.979 . S
C639 H616 0.977 . S
C639 C636 1.453 . S
C640 H612 0.979 . S
C640 H613 0.980 . S
C640 H614 0.983 . S
C640 C636 1.684 . S
H641 C659 0.948 . S
H642 C600 0.948 . S
H643 C618 0.979 . S
H644 C618 0.980 . S
H645 C618 0.983 . S
H646 C617 0.982 . S
H647 C617 0.979 . S
H648 C617 0.977 . S
H649 C619 0.948 . S
H650 C621 0.947 . S
H651 C622 0.948 . S
H652 C628 0.982 . S
H653 C628 0.979 . S
H654 C628 0.977 . S
H655 C629 0.979 . S
H656 C629 0.980 . S
H657 C629 0.983 . S
H658 C602 0.947 . S
C659 C602 1.392 . S
C659 C603 1.419 . S
C659 H641 0.948 . S
C660 C661 1.391 . S
C660 C664 1.391 . S
C660 H702 0.948 . S
C661 C660 1.391 . S
C661 C662 1.391 . S
C662 C661 1.391 . S
C662 H718 0.947 . S
C662 C719 1.392 . S
C663 C664 1.391 . S
C663 C667 1.397 . S
C663 C719 1.419 . S
C664 C660 1.391 . S
C664 C663 1.391 . S
C664 C665 1.399 . S
C665 C664 1.399 . S
C665 C668 1.396 . S
C665 C677 1.453 . S
C665 C678 1.684 . S
H666 C690 0.948 . S
C667 C663 1.397 . S
C667 C668 1.394 . S
C667 C686 1.723 . S
C668 C665 1.396 . S
C668 C667 1.394 . S
C668 C698 1.723 . S
H669 C692 0.947 . S
H670 C693 0.948 . S
H671 C699 0.982 . S
H672 C700 0.979 . S
H673 C700 0.980 . S
H674 C700 0.983 . S
H675 C699 0.979 . S
H676 C699 0.977 . S
C677 C665 1.453 . S
C677 H706 0.982 . S
C677 H707 0.979 . S
C677 H708 0.977 . S
C678 C665 1.684 . S
C678 H703 0.979 . S
C678 H704 0.980 . S
C678 H705 0.983 . S
C679 C680 1.391 . S
C679 C684 1.391 . S
C679 H709 0.948 . S
C680 C679 1.391 . S
C680 C681 1.391 . S
C681 C680 1.391 . S
C681 C682 1.392 . S
C681 H710 0.947 . S
C682 C681 1.392 . S
C682 C683 1.419 . S
C682 H711 0.948 . S
C683 C682 1.419 . S
C683 C684 1.391 . S
C683 C687 1.397 . S
C684 C679 1.391 . S
C684 C683 1.391 . S
C684 C685 1.399 . S
C685 C684 1.399 . S
C685 C686 1.396 . S
C685 C688 1.453 . S
C685 C689 1.684 . S
C686 C667 1.723 . S
C686 C685 1.396 . S
C686 C687 1.394 . S
C687 C683 1.397 . S
C687 C686 1.394 . S
C687 C697 1.723 . S
C688 C685 1.453 . S
C688 H712 0.982 . S
C688 H713 0.979 . S
C688 H714 0.977 . S
C689 C685 1.684 . S
C689 H715 0.979 . S
C689 H716 0.980 . S
C689 H717 0.983 . S
C690 H666 0.948 . S
C690 C691 1.391 . S
C690 C695 1.391 . S
C691 C690 1.391 . S
C691 C692 1.391 . S
C692 H669 0.947 . S
C692 C691 1.391 . S
C692 C693 1.392 . S
C693 H670 0.948 . S
C693 C692 1.392 . S
C693 C694 1.419 . S
C694 C693 1.419 . S
C694 C695 1.391 . S
C694 C698 1.397 . S
C695 C690 1.391 . S
C695 C694 1.391 . S
C695 C696 1.399 . S
C696 C695 1.399 . S
C696 C697 1.396 . S
C696 C699 1.453 . S
C696 C700 1.684 . S
C697 C687 1.723 . S
C697 C696 1.396 . S
C697 C698 1.394 . S
C698 C668 1.723 . S
C698 C694 1.397 . S
C698 C697 1.394 . S
C699 H671 0.982 . S
C699 H675 0.979 . S
C699 H676 0.977 . S
C699 C696 1.453 . S
C700 H672 0.979 . S
C700 H673 0.980 . S
C700 H674 0.983 . S
C700 C696 1.684 . S
H701 C719 0.948 . S
H702 C660 0.948 . S
H703 C678 0.979 . S
H704 C678 0.980 . S
H705 C678 0.983 . S
H706 C677 0.982 . S
H707 C677 0.979 . S
H708 C677 0.977 . S
H709 C679 0.948 . S
H710 C681 0.947 . S
H711 C682 0.948 . S
H712 C688 0.982 . S
H713 C688 0.979 . S
H714 C688 0.977 . S
H715 C689 0.979 . S
H716 C689 0.980 . S
H717 C689 0.983 . S
H718 C662 0.947 . S
C719 C662 1.392 . S
C719 C663 1.419 . S
C719 H701 0.948 . S
C720 C721 1.391 . S
C720 C724 1.391 . S
C720 H762 0.948 . S
C721 C720 1.391 . S
C721 C722 1.391 . S
C722 C721 1.391 . S
C722 H778 0.947 . S
C722 C779 1.392 . S
C723 C724 1.391 . S
C723 C727 1.397 . S
C723 C779 1.419 . S
C724 C720 1.391 . S
C724 C723 1.391 . S
C724 C725 1.399 . S
C725 C724 1.399 . S
C725 C728 1.396 . S
C725 C737 1.453 . S
C725 C738 1.684 . S
H726 C750 0.948 . S
C727 C723 1.397 . S
C727 C728 1.394 . S
C727 C746 1.723 . S
C728 C725 1.396 . S
C728 C727 1.394 . S
C728 C758 1.723 . S
H729 C752 0.947 . S
H730 C753 0.948 . S
H731 C759 0.982 . S
H732 C760 0.979 . S
H733 C760 0.980 . S
H734 C760 0.983 . S
H735 C759 0.979 . S
H736 C759 0.977 . S
C737 C725 1.453 . S
C737 H766 0.982 . S
C737 H767 0.979 . S
C737 H768 0.977 . S
C738 C725 1.684 . S
C738 H763 0.979 . S
C738 H764 0.980 . S
C738 H765 0.983 . S
C739 C740 1.391 . S
C739 C744 1.391 . S
C739 H769 0.948 . S
C740 C739 1.391 . S
C740 C741 1.391 . S
C741 C740 1.391 . S
C741 C742 1.392 . S
C741 H770 0.947 . S
C742 C741 1.392 . S
C742 C743 1.419 . S
C742 H771 0.948 . S
C743 C742 1.419 . S
C743 C744 1.391 . S
C743 C747 1.397 . S
C744 C739 1.391 . S
C744 C743 1.391 . S
C744 C745 1.399 . S
C745 C744 1.399 . S
C745 C746 1.396 . S
C745 C748 1.453 . S
C745 C749 1.684 . S
C746 C727 1.723 . S
C746 C745 1.396 . S
C746 C747 1.394 . S
C747 C743 1.397 . S
C747 C746 1.394 . S
C747 C757 1.723 . S
C748 C745 1.453 . S
C748 H772 0.982 . S
C748 H773 0.979 . S
C748 H774 0.977 . S
C749 C745 1.684 . S
C749 H775 0.979 . S
C749 H776 0.980 . S
C749 H777 0.983 . S
C750 H726 0.948 . S
C750 C751 1.391 . S
C750 C755 1.391 . S
C751 C750 1.391 . S
C751 C752 1.391 . S
C752 H729 0.947 . S
C752 C751 1.391 . S
C752 C753 1.392 . S
C753 H730 0.948 . S
C753 C752 1.392 . S
C753 C754 1.419 . S
C754 C753 1.419 . S
C754 C755 1.391 . S
C754 C758 1.397 . S
C755 C750 1.391 . S
C755 C754 1.391 . S
C755 C756 1.399 . S
C756 C755 1.399 . S
C756 C757 1.396 . S
C756 C759 1.453 . S
C756 C760 1.684 . S
C757 C747 1.723 . S
C757 C756 1.396 . S
C757 C758 1.394 . S
C758 C728 1.723 . S
C758 C754 1.397 . S
C758 C757 1.394 . S
C759 H731 0.982 . S
C759 H735 0.979 . S
C759 H736 0.977 . S
C759 C756 1.453 . S
C760 H732 0.979 . S
C760 H733 0.980 . S
C760 H734 0.983 . S
C760 C756 1.684 . S
H761 C779 0.948 . S
H762 C720 0.948 . S
H763 C738 0.979 . S
H764 C738 0.980 . S
H765 C738 0.983 . S
H766 C737 0.982 . S
H767 C737 0.979 . S
H768 C737 0.977 . S
H769 C739 0.948 . S
H770 C741 0.947 . S
H771 C742 0.948 . S
H772 C748 0.982 . S
H773 C748 0.979 . S
H774 C748 0.977 . S
H775 C749 0.979 . S
H776 C749 0.980 . S
H777 C749 0.983 . S
H778 C722 0.947 . S
C779 C722 1.392 . S
C779 C723 1.419 . S
C779 H761 0.948 . S
C780 C781 1.391 . S
C780 C784 1.391 . S
C780 H822 0.948 . S
C781 C780 1.391 . S
C781 C782 1.424 . S
C782 C781 1.424 . S
C782 H838 0.946 1_554 S
C782 C839 1.362 1_554 S
C783 C784 1.391 1_556 S
C783 C787 1.397 . S
C783 C839 1.419 . S
C784 C780 1.391 . S
C784 C783 1.391 1_554 S
C784 C785 1.399 . S
C785 C784 1.399 . S
C785 C788 1.396 1_554 S
C785 C797 1.453 . S
C785 C798 1.684 . S
H786 C810 0.948 . S
C787 C783 1.397 . S
C787 C788 1.394 . S
C787 C806 1.723 . S
C788 C785 1.396 1_556 S
C788 C787 1.394 . S
C788 C818 1.723 . S
H789 C812 0.947 1_554 S
H790 C813 0.934 1_554 S
H791 C819 0.982 . S
H792 C820 0.979 . S
H793 C820 0.980 . S
H794 C820 0.983 . S
H795 C819 0.979 . S
H796 C819 0.977 . S
C797 C785 1.453 . S
C797 H826 0.982 . S
C797 H827 0.979 . S
C797 H828 0.977 . S
C798 C785 1.684 . S
C798 H823 0.979 1_554 S
C798 H824 0.980 . S
C798 H825 0.983 . S
C799 C800 1.391 . S
C799 C804 1.391 . S
C799 H829 0.948 . S
C800 C799 1.391 . S
C800 C801 1.391 . S
C801 C800 1.391 . S
C801 C802 1.392 . S
C801 H830 0.947 . S
C802 C801 1.392 . S
C802 C803 1.419 . S
C802 H831 0.948 . S
C803 C802 1.419 . S
C803 C804 1.391 . S
C803 C807 1.397 . S
C804 C799 1.391 . S
C804 C803 1.391 . S
C804 C805 1.399 . S
C805 C804 1.399 . S
C805 C806 1.396 . S
C805 C808 1.453 . S
C805 C809 1.684 . S
C806 C787 1.723 . S
C806 C805 1.396 . S
C806 C807 1.394 . S
C807 C803 1.397 . S
C807 C806 1.394 . S
C807 C817 1.723 . S
C808 C805 1.453 . S
C808 H832 0.982 . S
C808 H833 0.979 . S
C808 H834 0.977 . S
C809 C805 1.684 . S
C809 H835 0.979 . S
C809 H836 0.980 . S
C809 H837 0.983 . S
C810 H786 0.948 . S
C810 C811 1.391 . S
C810 C815 1.391 . S
C811 C810 1.391 . S
C811 C812 1.391 . S
C812 H789 0.947 1_556 S
C812 C811 1.391 . S
C812 C813 1.392 . S
C813 H790 0.934 1_556 S
C813 C812 1.392 . S
C813 C814 1.419 . S
C814 C813 1.419 . S
C814 C815 1.391 . S
C814 C818 1.397 . S
C815 C810 1.391 . S
C815 C814 1.391 . S
C815 C816 1.399 . S
C816 C815 1.399 . S
C816 C817 1.396 . S
C816 C819 1.453 . S
C816 C820 1.684 . S
C817 C807 1.723 . S
C817 C816 1.396 . S
C817 C818 1.394 . S
C818 C788 1.723 . S
C818 C814 1.397 . S
C818 C817 1.394 . S
C819 H791 0.982 . S
C819 H795 0.979 . S
C819 H796 0.977 . S
C819 C816 1.453 . S
C820 H792 0.979 . S
C820 H793 0.980 . S
C820 H794 0.983 . S
C820 C816 1.684 . S
H821 C839 0.948 . S
H822 C780 0.948 . S
H823 C798 0.979 1_556 S
H824 C798 0.980 . S
H825 C798 0.983 . S
H826 C797 0.982 . S
H827 C797 0.979 . S
H828 C797 0.977 . S
H829 C799 0.948 . S
H830 C801 0.947 . S
H831 C802 0.948 . S
H832 C808 0.982 . S
H833 C808 0.979 . S
H834 C808 0.977 . S
H835 C809 0.979 . S
H836 C809 0.980 . S
H837 C809 0.983 . S
H838 C782 0.946 1_556 S
C839 C782 1.362 1_556 S
C839 C783 1.419 . S
C839 H821 0.948 . S
C840 C841 1.391 . S
C840 C844 1.391 . S
C840 H882 0.948 . S
C841 C840 1.391 . S
C841 C842 1.391 . S
C842 C841 1.391 . S
C842 H898 0.947 . S
C842 C899 1.392 . S
C843 C844 1.391 . S
C843 C847 1.397 . S
C843 C899 1.419 . S
C844 C840 1.391 . S
C844 C843 1.391 . S
C844 C845 1.399 . S
C845 C844 1.399 . S
C845 C848 1.396 . S
C845 C857 1.453 . S
C845 C858 1.684 . S
H846 C870 0.948 . S
C847 C843 1.397 . S
C847 C848 1.394 . S
C847 C866 1.723 . S
C848 C845 1.396 . S
C848 C847 1.394 . S
C848 C878 1.723 . S
H849 C872 0.947 . S
H850 C873 0.948 . S
H851 C879 0.982 . S
H852 C880 0.979 . S
H853 C880 0.980 . S
H854 C880 0.983 . S
H855 C879 0.979 . S
H856 C879 0.977 . S
C857 C845 1.453 . S
C857 H886 0.982 . S
C857 H887 0.979 . S
C857 H888 0.977 . S
C858 C845 1.684 . S
C858 H883 0.979 . S
C858 H884 0.980 . S
C858 H885 0.983 . S
C859 C860 1.391 . S
C859 C864 1.391 . S
C859 H889 0.948 . S
C860 C859 1.391 . S
C860 C861 1.391 . S
C861 C860 1.391 . S
C861 C862 1.392 . S
C861 H890 0.947 . S
C862 C861 1.392 . S
C862 C863 1.419 . S
C862 H891 0.948 . S
C863 C862 1.419 . S
C863 C864 1.391 . S
C863 C867 1.397 . S
C864 C859 1.391 . S
C864 C863 1.391 . S
C864 C865 1.399 . S
C865 C864 1.399 . S
C865 C866 1.396 . S
C865 C868 1.453 . S
C865 C869 1.684 . S
C866 C847 1.723 . S
C866 C865 1.396 . S
C866 C867 1.394 . S
C867 C863 1.397 . S
C867 C866 1.394 . S
C867 C877 1.723 . S
C868 C865 1.453 . S
C868 H892 0.982 . S
C868 H893 0.979 . S
C868 H894 0.977 . S
C869 C865 1.684 . S
C869 H895 0.979 . S
C869 H896 0.980 . S
C869 H897 0.983 . S
C870 H846 0.948 . S
C870 C871 1.391 . S
C870 C875 1.391 . S
C871 C870 1.391 . S
C871 C872 1.391 . S
C872 H849 0.947 . S
C872 C871 1.391 . S
C872 C873 1.392 . S
C873 H850 0.948 . S
C873 C872 1.392 . S
C873 C874 1.419 . S
C874 C873 1.419 . S
C874 C875 1.391 . S
C874 C878 1.397 . S
C875 C870 1.391 . S
C875 C874 1.391 . S
C875 C876 1.399 . S
C876 C875 1.399 . S
C876 C877 1.396 . S
C876 C879 1.453 . S
C876 C880 1.684 . S
C877 C867 1.723 . S
C877 C876 1.396 . S
C877 C878 1.394 . S
C878 C848 1.723 . S
C878 C874 1.397 . S
C878 C877 1.394 . S
C879 H851 0.982 . S
C879 H855 0.979 . S
C879 H856 0.977 . S
C879 C876 1.453 . S
C880 H852 0.979 . S
C880 H853 0.980 . S
C880 H854 0.983 . S
C880 C876 1.684 . S
H881 C899 0.948 . S
H882 C840 0.948 . S
H883 C858 0.979 . S
H884 C858 0.980 . S
H885 C858 0.983 . S
H886 C857 0.982 . S
H887 C857 0.979 . S
H888 C857 0.977 . S
H889 C859 0.948 . S
H890 C861 0.947 . S
H891 C862 0.948 . S
H892 C868 0.982 . S
H893 C868 0.979 . S
H894 C868 0.977 . S
H895 C869 0.979 . S
H896 C869 0.980 . S
H897 C869 0.983 . S
H898 C842 0.947 . S
C899 C842 1.392 . S
C899 C843 1.419 . S
C899 H881 0.948 . S
C900 C901 1.391 . S
C900 C904 1.391 1_565 S
C900 H942 0.948 1_566 S
C901 C900 1.391 . S
C901 C902 1.391 . S
C902 C901 1.391 . S
C902 H958 0.947 . S
C902 C959 1.392 . S
C903 C904 1.391 . S
C903 C907 1.397 . S
C903 C959 1.419 1_545 S
C904 C900 1.391 1_545 S
C904 C903 1.391 . S
C904 C905 1.387 1_556 S
C905 C904 1.387 1_554 S
C905 C908 1.377 1_554 S
C905 C917 1.456 . S
C905 C918 1.716 . S
H906 C930 0.948 . S
C907 C903 1.397 . S
C907 C908 1.394 . S
C907 C926 1.723 . S
C908 C905 1.377 1_556 S
C908 C907 1.394 . S
C908 C938 1.723 . S
H909 C932 0.947 . S
H910 C933 0.948 . S
H911 C939 0.982 . S
H912 C940 0.979 . S
H913 C940 0.980 . S
H914 C940 0.983 . S
H915 C939 0.979 . S
H916 C939 0.977 . S
C917 C905 1.456 . S
C917 H946 0.982 1_554 S
C917 H947 0.979 . S
C917 H948 0.977 . S
C918 C905 1.716 . S
C918 H943 0.979 . S
C918 H944 0.980 . S
C918 H945 0.983 . S
C919 C920 1.391 . S
C919 C924 1.391 . S
C919 H949 0.948 . S
C920 C919 1.391 . S
C920 C921 1.391 . S
C921 C920 1.391 . S
C921 C922 1.392 . S
C921 H950 0.947 . S
C922 C921 1.392 . S
C922 C923 1.419 . S
C922 H951 0.948 . S
C923 C922 1.419 . S
C923 C924 1.391 . S
C923 C927 1.397 . S
C924 C919 1.391 . S
C924 C923 1.391 . S
C924 C925 1.399 . S
C925 C924 1.399 . S
C925 C926 1.396 . S
C925 C928 1.453 . S
C925 C929 1.684 1_545 S
C926 C907 1.723 . S
C926 C925 1.396 . S
C926 C927 1.394 . S
C927 C923 1.397 . S
C927 C926 1.394 . S
C927 C937 1.723 . S
C928 C925 1.453 . S
C928 H952 0.982 . S
C928 H953 0.979 1_545 S
C928 H954 0.973 1_545 S
C929 C925 1.684 1_565 S
C929 H955 0.979 . S
C929 H956 0.980 . S
C929 H957 0.983 . S
C930 H906 0.948 . S
C930 C931 1.391 . S
C930 C935 1.379 1_554 S
C931 C930 1.391 . S
C931 C932 1.391 . S
C932 H909 0.947 . S
C932 C931 1.391 . S
C932 C933 1.392 . S
C933 H910 0.948 . S
C933 C932 1.392 . S
C933 C934 1.419 . S
C934 C933 1.419 . S
C934 C935 1.388 1_554 S
C934 C938 1.397 1_554 S
C935 C930 1.379 1_556 S
C935 C934 1.388 1_556 S
C935 C936 1.419 . S
C936 C935 1.419 . S
C936 C937 1.396 . S
C936 C939 1.453 . S
C936 C940 1.684 . S
C937 C927 1.723 . S
C937 C936 1.396 . S
C937 C938 1.394 . S
C938 C908 1.723 . S
C938 C934 1.397 1_556 S
C938 C937 1.394 . S
C939 H911 0.982 . S
C939 H915 0.979 . S
C939 H916 0.977 . S
C939 C936 1.453 . S
C940 H912 0.979 . S
C940 H913 0.980 . S
C940 H914 0.983 . S
C940 C936 1.684 . S
H941 C959 0.948 . S
H942 C900 0.948 1_544 S
H943 C918 0.979 . S
H944 C918 0.980 . S
H945 C918 0.983 . S
H946 C917 0.982 1_556 S
H947 C917 0.979 . S
H948 C917 0.977 . S
H949 C919 0.948 . S
H950 C921 0.947 . S
H951 C922 0.948 . S
H952 C928 0.982 . S
H953 C928 0.979 1_565 S
H954 C928 0.973 1_565 S
H955 C929 0.979 . S
H956 C929 0.980 . S
H957 C929 0.983 . S
H958 C902 0.947 . S
C959 C902 1.392 . S
C959 C903 1.419 1_565 S
C959 H941 0.948 . S
Mn960 O965 2.095 . S
Mn960 O975 2.162 . S
Mn960 O976 2.297 . S
Mn960 O984 2.407 . S
Mn960 O985 2.209 1_554 S
Mn960 O986 2.094 . S
Mn961 O966 2.121 . S
Mn961 N968 2.257 . S
Mn961 N977 2.282 . S
Mn961 O985 2.215 . S
Mn961 O987 2.117 . S
C962 O984 1.193 1_556 S
C962 O985 1.283 . S
C963 O975 1.281 . S
C963 O976 1.236 . S
C964 O986 1.240 . S
C964 O987 1.264 1_554 S
O965 Mn960 2.095 . S
O965 C974 1.250 . S
O966 Mn961 2.121 . S
O966 C974 1.258 1_556 S
C967 N968 1.326 . S
C967 C971 1.460 . S
C967 H973 0.929 . S
N968 Mn961 2.257 . S
N968 C967 1.326 . S
N968 C972 1.362 . S
C969 C970 1.258 . S
C969 C972 1.431 . S
C969 C989 1.449 . S
C970 C969 1.258 . S
C970 C971 1.477 . S
C970 H990 0.931 . S
C971 C967 1.460 . S
C971 C970 1.477 . S
C971 H991 0.930 . S
C972 N968 1.362 . S
C972 C969 1.431 . S
C972 C982 1.476 . S
H973 C967 0.929 . S
C974 O965 1.250 . S
C974 O966 1.258 1_554 S
O975 Mn960 2.162 . S
O975 C963 1.281 . S
O976 Mn960 2.297 . S
O976 C963 1.236 . S
N977 Mn961 2.282 . S
N977 C978 1.328 . S
N977 C982 1.318 . S
C978 N977 1.328 . S
C978 C979 1.457 . S
C978 H983 0.929 . S
C979 C978 1.457 . S
C979 C980 1.291 . S
C979 H992 0.931 . S
C980 C979 1.291 . S
C980 C981 1.373 . S
C980 H993 0.929 . S
C981 C980 1.373 . S
C981 C982 1.396 . S
C981 C988 1.403 . S
C982 C972 1.476 . S
C982 N977 1.318 . S
C982 C981 1.396 . S
H983 C978 0.929 . S
O984 Mn960 2.407 . S
O984 C962 1.193 1_554 S
O985 Mn960 2.209 1_556 S
O985 Mn961 2.215 . S
O985 C962 1.283 . S
O986 Mn960 2.094 . S
O986 C964 1.240 . S
O987 Mn961 2.117 . S
O987 C964 1.264 1_556 S
C988 C981 1.403 . S
C988 C989 1.399 . S
C988 H994 0.929 . S
C989 C969 1.449 . S
C989 C988 1.399 . S
C989 H995 0.930 . S
H990 C970 0.931 . S
H991 C971 0.930 . S
H992 C979 0.931 . S
H993 C980 0.929 . S
H994 C988 0.929 . S
H995 C989 0.930 . S
Mn996 O1001 2.095 . S
Mn996 O1011 2.162 . S
Mn996 O1012 2.297 . S
Mn996 O1020 2.385 . S
Mn996 O1021 2.209 . S
Mn996 O1022 2.094 . S
Mn997 O1002 2.121 . S
Mn997 N1004 2.257 . S
Mn997 N1013 2.282 . S
Mn997 O1021 2.215 . S
Mn997 O1023 2.117 . S
C998 O1020 1.234 . S
C998 O1021 1.283 . S
C999 O1011 1.281 . S
C999 O1012 1.236 . S
C1000 O1022 1.240 . S
C1000 O1023 1.264 . S
O1001 Mn996 2.095 . S
O1001 C1010 1.250 . S
O1002 Mn997 2.121 . S
O1002 C1010 1.258 . S
C1003 N1004 1.326 . S
C1003 C1007 1.460 . S
C1003 H1009 0.929 . S
N1004 Mn997 2.257 . S
N1004 C1003 1.326 . S
N1004 C1008 1.362 . S
C1005 C1006 1.258 . S
C1005 C1008 1.431 . S
C1005 C1025 1.449 . S
C1006 C1005 1.258 . S
C1006 C1007 1.477 . S
C1006 H1026 0.931 . S
C1007 C1003 1.460 . S
C1007 C1006 1.477 . S
C1007 H1027 0.930 . S
C1008 N1004 1.362 . S
C1008 C1005 1.431 . S
C1008 C1018 1.476 . S
H1009 C1003 0.929 . S
C1010 O1001 1.250 . S
C1010 O1002 1.258 . S
O1011 Mn996 2.162 . S
O1011 C999 1.281 . S
O1012 Mn996 2.297 . S
O1012 C999 1.236 . S
N1013 Mn997 2.282 . S
N1013 C1014 1.328 . S
N1013 C1018 1.318 . S
C1014 N1013 1.328 . S
C1014 C1015 1.457 . S
C1014 H1019 0.929 . S
C1015 C1014 1.457 . S
C1015 C1016 1.291 . S
C1015 H1028 0.931 . S
C1016 C1015 1.291 . S
C1016 C1017 1.373 . S
C1016 H1029 0.929 . S
C1017 C1016 1.373 . S
C1017 C1018 1.396 . S
C1017 C1024 1.403 . S
C1018 C1008 1.476 . S
C1018 N1013 1.318 . S
C1018 C1017 1.396 . S
H1019 C1014 0.929 . S
O1020 Mn996 2.385 . S
O1020 C998 1.234 . S
O1021 Mn996 2.209 . S
O1021 Mn997 2.215 . S
O1021 C998 1.283 . S
O1022 Mn996 2.094 . S
O1022 C1000 1.240 . S
O1023 Mn997 2.117 . S
O1023 C1000 1.264 . S
C1024 C1017 1.403 . S
C1024 C1025 1.399 . S
C1024 H1030 0.929 . S
C1025 C1005 1.449 . S
C1025 C1024 1.399 . S
C1025 H1031 0.930 . S
H1026 C1006 0.931 . S
H1027 C1007 0.930 . S
H1028 C1015 0.931 . S
H1029 C1016 0.929 . S
H1030 C1024 0.929 . S
H1031 C1025 0.930 . S
Mn1032 O1037 2.095 1_554 S
Mn1032 O1047 2.162 . S
Mn1032 O1048 2.297 1_554 S
Mn1032 O1056 2.385 . S
Mn1032 O1057 2.209 1_554 S
Mn1032 O1058 2.094 . S
Mn1033 O1038 2.121 . S
Mn1033 N1040 2.257 . S
Mn1033 N1049 2.282 . S
Mn1033 O1057 2.215 . S
Mn1033 O1059 2.117 1_556 S
C1034 O1056 1.276 . S
C1034 O1057 1.255 1_554 S
C1035 O1047 1.281 . S
C1035 O1048 1.236 1_554 S
C1036 O1058 1.240 . S
C1036 O1059 1.264 . S
O1037 Mn1032 2.095 1_556 S
O1037 C1046 1.250 . S
O1038 Mn1033 2.121 . S
O1038 C1046 1.258 . S
C1039 N1040 1.326 . S
C1039 C1043 1.460 . S
C1039 H1045 0.929 . S
N1040 Mn1033 2.257 . S
N1040 C1039 1.326 . S
N1040 C1044 1.362 . S
C1041 C1042 1.258 . S
C1041 C1044 1.431 . S
C1041 C1061 1.449 . S
C1042 C1041 1.258 . S
C1042 C1043 1.477 . S
C1042 H1062 0.931 . S
C1043 C1039 1.460 . S
C1043 C1042 1.477 . S
C1043 H1063 0.930 . S
C1044 N1040 1.362 . S
C1044 C1041 1.431 . S
C1044 C1054 1.476 . S
H1045 C1039 0.929 . S
C1046 O1037 1.250 . S
C1046 O1038 1.258 . S
O1047 Mn1032 2.162 . S
O1047 C1035 1.281 . S
O1048 Mn1032 2.297 1_556 S
O1048 C1035 1.236 1_556 S
N1049 Mn1033 2.282 . S
N1049 C1050 1.328 1_556 S
N1049 C1054 1.318 . S
C1050 N1049 1.328 1_554 S
C1050 C1051 1.457 . S
C1050 H1055 0.929 . S
C1051 C1050 1.457 . S
C1051 C1052 1.291 . S
C1051 H1064 0.931 . S
C1052 C1051 1.291 . S
C1052 C1053 1.373 1_554 S
C1052 H1065 0.929 . S
C1053 C1052 1.373 1_556 S
C1053 C1054 1.396 . S
C1053 C1060 1.403 . S
C1054 C1044 1.476 . S
C1054 N1049 1.318 . S
C1054 C1053 1.396 . S
H1055 C1050 0.929 . S
O1056 Mn1032 2.385 . S
O1056 C1034 1.276 . S
O1057 Mn1032 2.209 1_556 S
O1057 Mn1033 2.215 . S
O1057 C1034 1.255 1_556 S
O1058 Mn1032 2.094 . S
O1058 C1036 1.240 . S
O1059 Mn1033 2.117 1_554 S
O1059 C1036 1.264 . S
C1060 C1053 1.403 . S
C1060 C1061 1.399 . S
C1060 H1066 0.929 . S
C1061 C1041 1.449 . S
C1061 C1060 1.399 . S
C1061 H1067 0.930 . S
H1062 C1042 0.931 . S
H1063 C1043 0.930 . S
H1064 C1051 0.931 . S
H1065 C1052 0.929 . S
H1066 C1060 0.929 . S
H1067 C1061 0.930 . S
Mn1068 O1073 2.095 . S
Mn1068 O1083 2.162 . S
Mn1068 O1084 2.297 . S
Mn1068 O1092 2.385 1_545 S
Mn1068 O1093 2.209 1_545 S
Mn1068 O1094 2.094 . S
Mn1069 O1074 2.121 . S
Mn1069 N1076 2.257 . S
Mn1069 N1085 2.282 . S
Mn1069 O1093 2.215 . S
Mn1069 O1095 2.117 . S
C1070 O1092 1.234 . S
C1070 O1093 1.283 . S
C1071 O1083 1.281 . S
C1071 O1084 1.236 . S
C1072 O1094 1.240 . S
C1072 O1095 1.264 1_545 S
O1073 Mn1068 2.095 . S
O1073 C1082 1.251 . S
O1074 Mn1069 2.121 . S
O1074 C1082 1.257 1_565 S
C1075 N1076 1.326 . S
C1075 C1079 1.460 . S
C1075 H1081 0.929 . S
N1076 Mn1069 2.257 . S
N1076 C1075 1.326 . S
N1076 C1080 1.362 . S
C1077 C1078 1.258 . S
C1077 C1080 1.431 . S
C1077 C1097 1.449 . S
C1078 C1077 1.258 . S
C1078 C1079 1.477 . S
C1078 H1098 0.931 . S
C1079 C1075 1.460 . S
C1079 C1078 1.477 . S
C1079 H1099 0.930 . S
C1080 N1076 1.362 . S
C1080 C1077 1.431 . S
C1080 C1090 1.476 . S
H1081 C1075 0.929 . S
C1082 O1073 1.251 . S
C1082 O1074 1.257 1_545 S
O1083 Mn1068 2.162 . S
O1083 C1071 1.281 . S
O1084 Mn1068 2.297 . S
O1084 C1071 1.236 . S
N1085 Mn1069 2.282 . S
N1085 C1086 1.328 . S
N1085 C1090 1.318 . S
C1086 N1085 1.328 . S
C1086 C1087 1.457 . S
C1086 H1091 0.929 . S
C1087 C1086 1.457 . S
C1087 C1088 1.291 . S
C1087 H1100 0.931 . S
C1088 C1087 1.291 . S
C1088 C1089 1.373 . S
C1088 H1101 0.929 . S
C1089 C1088 1.373 . S
C1089 C1090 1.396 . S
C1089 C1096 1.403 . S
C1090 C1080 1.476 . S
C1090 N1085 1.318 . S
C1090 C1089 1.396 . S
H1091 C1086 0.929 . S
O1092 Mn1068 2.385 1_565 S
O1092 C1070 1.234 . S
O1093 Mn1068 2.209 1_565 S
O1093 Mn1069 2.215 . S
O1093 C1070 1.283 . S
O1094 Mn1068 2.094 . S
O1094 C1072 1.240 . S
O1095 Mn1069 2.117 . S
O1095 C1072 1.264 1_565 S
C1096 C1089 1.403 . S
C1096 C1097 1.399 . S
C1096 H1102 0.929 . S
C1097 C1077 1.449 . S
C1097 C1096 1.399 . S
C1097 H1103 0.930 . S
H1098 C1078 0.931 . S
H1099 C1079 0.930 . S
H1100 C1087 0.931 . S
H1101 C1088 0.929 . S
H1102 C1096 0.929 . S
H1103 C1097 0.930 . S
Mn1104 O1109 2.095 . S
Mn1104 O1119 2.162 . S
Mn1104 O1120 2.297 . S
Mn1104 O1128 2.385 . S
Mn1104 O1129 2.209 . S
Mn1104 O1130 2.094 . S
Mn1105 O1110 2.121 . S
Mn1105 N1112 2.257 . S
Mn1105 N1121 2.282 . S
Mn1105 O1129 2.215 . S
Mn1105 O1131 2.117 . S
C1106 O1128 1.234 . S
C1106 O1129 1.283 . S
C1107 O1119 1.281 . S
C1107 O1120 1.236 . S
C1108 O1130 1.240 . S
C1108 O1131 1.264 . S
O1109 Mn1104 2.095 . S
O1109 C1118 1.250 . S
O1110 Mn1105 2.121 . S
O1110 C1118 1.258 . S
C1111 N1112 1.326 . S
C1111 C1115 1.460 . S
C1111 H1117 0.929 . S
N1112 Mn1105 2.257 . S
N1112 C1111 1.326 . S
N1112 C1116 1.362 . S
C1113 C1114 1.258 . S
C1113 C1116 1.431 . S
C1113 C1133 1.449 . S
C1114 C1113 1.258 . S
C1114 C1115 1.477 . S
C1114 H1134 0.931 . S
C1115 C1111 1.460 . S
C1115 C1114 1.477 . S
C1115 H1135 0.930 . S
C1116 N1112 1.362 . S
C1116 C1113 1.431 . S
C1116 C1126 1.476 . S
H1117 C1111 0.929 . S
C1118 O1109 1.250 . S
C1118 O1110 1.258 . S
O1119 Mn1104 2.162 . S
O1119 C1107 1.281 . S
O1120 Mn1104 2.297 . S
O1120 C1107 1.236 . S
N1121 Mn1105 2.282 . S
N1121 C1122 1.328 . S
N1121 C1126 1.318 . S
C1122 N1121 1.328 . S
C1122 C1123 1.457 . S
C1122 H1127 0.929 . S
C1123 C1122 1.457 . S
C1123 C1124 1.291 . S
C1123 H1136 0.931 . S
C1124 C1123 1.291 . S
C1124 C1125 1.373 . S
C1124 H1137 0.929 . S
C1125 C1124 1.373 . S
C1125 C1126 1.396 . S
C1125 C1132 1.403 . S
C1126 C1116 1.476 . S
C1126 N1121 1.318 . S
C1126 C1125 1.396 . S
H1127 C1122 0.929 . S
O1128 Mn1104 2.385 . S
O1128 C1106 1.234 . S
O1129 Mn1104 2.209 . S
O1129 Mn1105 2.215 . S
O1129 C1106 1.283 . S
O1130 Mn1104 2.094 . S
O1130 C1108 1.240 . S
O1131 Mn1105 2.117 . S
O1131 C1108 1.264 . S
C1132 C1125 1.403 . S
C1132 C1133 1.399 . S
C1132 H1138 0.929 . S
C1133 C1113 1.449 . S
C1133 C1132 1.399 . S
C1133 H1139 0.930 . S
H1134 C1114 0.931 . S
H1135 C1115 0.930 . S
H1136 C1123 0.931 . S
H1137 C1124 0.929 . S
H1138 C1132 0.929 . S
H1139 C1133 0.930 . S
Mn1140 O1145 2.095 . S
Mn1140 O1155 2.162 . S
Mn1140 O1156 2.297 . S
Mn1140 O1164 2.385 . S
Mn1140 O1165 2.209 . S
Mn1140 O1166 2.094 . S
Mn1141 O1146 2.121 . S
Mn1141 N1148 2.257 . S
Mn1141 N1157 2.282 . S
Mn1141 O1165 2.215 . S
Mn1141 O1167 2.117 . S
C1142 O1164 1.234 . S
C1142 O1165 1.283 . S
C1143 O1155 1.281 . S
C1143 O1156 1.236 . S
C1144 O1166 1.240 . S
C1144 O1167 1.264 . S
O1145 Mn1140 2.095 . S
O1145 C1154 1.250 . S
O1146 Mn1141 2.121 . S
O1146 C1154 1.258 . S
C1147 N1148 1.326 . S
C1147 C1151 1.460 . S
C1147 H1153 0.929 . S
N1148 Mn1141 2.257 . S
N1148 C1147 1.326 . S
N1148 C1152 1.362 . S
C1149 C1150 1.258 . S
C1149 C1152 1.431 . S
C1149 C1169 1.449 . S
C1150 C1149 1.258 . S
C1150 C1151 1.477 . S
C1150 H1170 0.931 . S
C1151 C1147 1.460 . S
C1151 C1150 1.477 . S
C1151 H1171 0.930 . S
C1152 N1148 1.362 . S
C1152 C1149 1.431 . S
C1152 C1162 1.476 . S
H1153 C1147 0.929 . S
C1154 O1145 1.250 . S
C1154 O1146 1.258 . S
O1155 Mn1140 2.162 . S
O1155 C1143 1.281 . S
O1156 Mn1140 2.297 . S
O1156 C1143 1.236 . S
N1157 Mn1141 2.282 . S
N1157 C1158 1.328 . S
N1157 C1162 1.318 . S
C1158 N1157 1.328 . S
C1158 C1159 1.457 . S
C1158 H1163 0.929 . S
C1159 C1158 1.457 . S
C1159 C1160 1.291 . S
C1159 H1172 0.931 . S
C1160 C1159 1.291 . S
C1160 C1161 1.373 . S
C1160 H1173 0.929 . S
C1161 C1160 1.373 . S
C1161 C1162 1.396 . S
C1161 C1168 1.403 . S
C1162 C1152 1.476 . S
C1162 N1157 1.318 . S
C1162 C1161 1.396 . S
H1163 C1158 0.929 . S
O1164 Mn1140 2.385 . S
O1164 C1142 1.234 . S
O1165 Mn1140 2.209 . S
O1165 Mn1141 2.215 . S
O1165 C1142 1.283 . S
O1166 Mn1140 2.094 . S
O1166 C1144 1.240 . S
O1167 Mn1141 2.117 . S
O1167 C1144 1.264 . S
C1168 C1161 1.403 . S
C1168 C1169 1.399 . S
C1168 H1174 0.929 . S
C1169 C1149 1.449 . S
C1169 C1168 1.399 . S
C1169 H1175 0.930 . S
H1170 C1150 0.931 . S
H1171 C1151 0.930 . S
H1172 C1159 0.931 . S
H1173 C1160 0.929 . S
H1174 C1168 0.929 . S
H1175 C1169 0.930 . S
Mn1176 O1181 2.095 . S
Mn1176 O1191 2.162 . S
Mn1176 O1192 2.297 . S
Mn1176 O1200 2.385 . S
Mn1176 O1201 2.209 . S
Mn1176 O1202 2.094 . S
Mn1177 O1182 2.121 . S
Mn1177 N1184 2.257 . S
Mn1177 N1193 2.282 . S
Mn1177 O1201 2.215 . S
Mn1177 O1203 2.117 . S
C1178 O1200 1.234 . S
C1178 O1201 1.283 . S
C1179 O1191 1.281 . S
C1179 O1192 1.236 . S
C1180 O1202 1.240 . S
C1180 O1203 1.264 . S
O1181 Mn1176 2.095 . S
O1181 C1190 1.250 . S
O1182 Mn1177 2.121 . S
O1182 C1190 1.258 . S
C1183 N1184 1.326 . S
C1183 C1187 1.460 . S
C1183 H1189 0.929 . S
N1184 Mn1177 2.257 . S
N1184 C1183 1.326 . S
N1184 C1188 1.362 . S
C1185 C1186 1.258 . S
C1185 C1188 1.431 . S
C1185 C1205 1.449 . S
C1186 C1185 1.258 . S
C1186 C1187 1.477 . S
C1186 H1206 0.931 . S
C1187 C1183 1.460 . S
C1187 C1186 1.477 . S
C1187 H1207 0.930 . S
C1188 N1184 1.362 . S
C1188 C1185 1.431 . S
C1188 C1198 1.476 . S
H1189 C1183 0.929 . S
C1190 O1181 1.250 . S
C1190 O1182 1.258 . S
O1191 Mn1176 2.162 . S
O1191 C1179 1.281 . S
O1192 Mn1176 2.297 . S
O1192 C1179 1.236 . S
N1193 Mn1177 2.282 . S
N1193 C1194 1.328 . S
N1193 C1198 1.318 . S
C1194 N1193 1.328 . S
C1194 C1195 1.457 . S
C1194 H1199 0.929 . S
C1195 C1194 1.457 . S
C1195 C1196 1.291 . S
C1195 H1208 0.931 . S
C1196 C1195 1.291 . S
C1196 C1197 1.373 . S
C1196 H1209 0.929 . S
C1197 C1196 1.373 . S
C1197 C1198 1.396 . S
C1197 C1204 1.403 . S
C1198 C1188 1.476 . S
C1198 N1193 1.318 . S
C1198 C1197 1.396 . S
H1199 C1194 0.929 . S
O1200 Mn1176 2.385 . S
O1200 C1178 1.234 . S
O1201 Mn1176 2.209 . S
O1201 Mn1177 2.215 . S
O1201 C1178 1.283 . S
O1202 Mn1176 2.094 . S
O1202 C1180 1.240 . S
O1203 Mn1177 2.117 . S
O1203 C1180 1.264 . S
C1204 C1197 1.403 . S
C1204 C1205 1.399 . S
C1204 H1210 0.929 . S
C1205 C1185 1.449 . S
C1205 C1204 1.399 . S
C1205 H1211 0.930 . S
H1206 C1186 0.931 . S
H1207 C1187 0.930 . S
H1208 C1195 0.931 . S
H1209 C1196 0.929 . S
H1210 C1204 0.929 . S
H1211 C1205 0.930 . S
Mn1212 O1217 2.095 . S
Mn1212 O1227 2.162 . S
Mn1212 O1228 2.297 . S
Mn1212 O1236 2.385 1_565 S
Mn1212 O1237 2.209 1_565 S
Mn1212 O1238 2.094 . S
Mn1213 O1218 2.121 . S
Mn1213 N1220 2.257 . S
Mn1213 N1229 2.282 . S
Mn1213 O1237 2.215 . S
Mn1213 O1239 2.117 . S
C1214 O1236 1.234 . S
C1214 O1237 1.283 . S
C1215 O1227 1.281 . S
C1215 O1228 1.236 . S
C1216 O1238 1.218 1_545 S
C1216 O1239 1.292 . S
O1217 Mn1212 2.095 . S
O1217 C1226 1.250 1_565 S
O1218 Mn1213 2.121 . S
O1218 C1226 1.258 . S
C1219 N1220 1.326 . S
C1219 C1223 1.460 . S
C1219 H1225 0.929 . S
N1220 Mn1213 2.257 . S
N1220 C1219 1.326 . S
N1220 C1224 1.362 . S
C1221 C1222 1.258 . S
C1221 C1224 1.431 . S
C1221 C1241 1.449 . S
C1222 C1221 1.258 . S
C1222 C1223 1.477 . S
C1222 H1242 0.931 . S
C1223 C1219 1.460 . S
C1223 C1222 1.477 . S
C1223 H1243 0.930 . S
C1224 N1220 1.362 . S
C1224 C1221 1.431 . S
C1224 C1234 1.476 . S
H1225 C1219 0.929 . S
C1226 O1217 1.250 1_545 S
C1226 O1218 1.258 . S
O1227 Mn1212 2.162 . S
O1227 C1215 1.281 . S
O1228 Mn1212 2.297 . S
O1228 C1215 1.236 . S
N1229 Mn1213 2.282 . S
N1229 C1230 1.328 . S
N1229 C1234 1.318 . S
C1230 N1229 1.328 . S
C1230 C1231 1.457 . S
C1230 H1235 0.929 . S
C1231 C1230 1.457 . S
C1231 C1232 1.291 . S
C1231 H1244 0.931 . S
C1232 C1231 1.291 . S
C1232 C1233 1.373 . S
C1232 H1245 0.929 . S
C1233 C1232 1.373 . S
C1233 C1234 1.396 . S
C1233 C1240 1.403 . S
C1234 C1224 1.476 . S
C1234 N1229 1.318 . S
C1234 C1233 1.396 . S
H1235 C1230 0.929 . S
O1236 Mn1212 2.385 1_545 S
O1236 C1214 1.234 . S
O1237 Mn1212 2.209 1_545 S
O1237 Mn1213 2.215 . S
O1237 C1214 1.283 . S
O1238 Mn1212 2.094 . S
O1238 C1216 1.218 1_565 S
O1239 Mn1213 2.117 . S
O1239 C1216 1.292 . S
C1240 C1233 1.403 . S
C1240 C1241 1.399 . S
C1240 H1246 0.929 . S
C1241 C1221 1.449 . S
C1241 C1240 1.399 . S
C1241 H1247 0.930 . S
H1242 C1222 0.931 . S
H1243 C1223 0.930 . S
H1244 C1231 0.931 . S
H1245 C1232 0.929 . S
H1246 C1240 0.929 . S
H1247 C1241 0.930 . S
Mn1248 O1253 2.095 . S
Mn1248 O1263 2.162 . S
Mn1248 O1264 2.297 . S
Mn1248 O1272 2.385 1_455 S
Mn1248 O1273 2.209 1_455 S
Mn1248 O1274 2.094 . S
Mn1249 O1254 2.121 . S
Mn1249 N1256 2.257 . S
Mn1249 N1265 2.282 . S
Mn1249 O1273 2.215 . S
Mn1249 O1275 2.117 . S
C1250 O1272 1.234 . S
C1250 O1273 1.283 . S
C1251 O1263 1.281 . S
C1251 O1264 1.236 . S
C1252 O1274 1.240 . S
C1252 O1275 1.264 1_455 S
O1253 Mn1248 2.095 . S
O1253 C1262 1.250 1_455 S
O1254 Mn1249 2.121 . S
O1254 C1262 1.258 . S
C1255 N1256 1.326 . S
C1255 C1259 1.460 . S
C1255 H1261 0.929 . S
N1256 Mn1249 2.257 . S
N1256 C1255 1.326 . S
N1256 C1260 1.362 . S
C1257 C1258 1.258 . S
C1257 C1260 1.431 . S
C1257 C1277 1.449 . S
C1258 C1257 1.258 . S
C1258 C1259 1.477 . S
C1258 H1278 0.931 . S
C1259 C1255 1.460 . S
C1259 C1258 1.477 . S
C1259 H1279 0.930 . S
C1260 N1256 1.362 . S
C1260 C1257 1.431 . S
C1260 C1270 1.476 . S
H1261 C1255 0.929 . S
C1262 O1253 1.250 1_655 S
C1262 O1254 1.258 . S
O1263 Mn1248 2.162 . S
O1263 C1251 1.281 . S
O1264 Mn1248 2.297 . S
O1264 C1251 1.236 . S
N1265 Mn1249 2.282 . S
N1265 C1266 1.328 . S
N1265 C1270 1.318 . S
C1266 N1265 1.328 . S
C1266 C1267 1.457 . S
C1266 H1271 0.929 . S
C1267 C1266 1.457 . S
C1267 C1268 1.291 . S
C1267 H1280 0.931 . S
C1268 C1267 1.291 . S
C1268 C1269 1.373 . S
C1268 H1281 0.929 . S
C1269 C1268 1.373 . S
C1269 C1270 1.396 . S
C1269 C1276 1.403 . S
C1270 C1260 1.476 . S
C1270 N1265 1.318 . S
C1270 C1269 1.396 . S
H1271 C1266 0.929 . S
O1272 Mn1248 2.385 1_655 S
O1272 C1250 1.234 . S
O1273 Mn1248 2.209 1_655 S
O1273 Mn1249 2.215 . S
O1273 C1250 1.283 . S
O1274 Mn1248 2.094 . S
O1274 C1252 1.240 . S
O1275 Mn1249 2.117 . S
O1275 C1252 1.264 1_655 S
C1276 C1269 1.403 . S
C1276 C1277 1.399 . S
C1276 H1282 0.929 . S
C1277 C1257 1.449 . S
C1277 C1276 1.399 . S
C1277 H1283 0.930 . S
H1278 C1258 0.931 . S
H1279 C1259 0.930 . S
H1280 C1267 0.931 . S
H1281 C1268 0.929 . S
H1282 C1276 0.929 . S
H1283 C1277 0.930 . S
Mn1284 O1289 2.095 . S
Mn1284 O1299 2.162 . S
Mn1284 O1300 2.297 . S
Mn1284 O1308 2.385 . S
Mn1284 O1309 2.209 . S
Mn1284 O1310 2.094 . S
Mn1285 O1290 2.121 . S
Mn1285 N1292 2.257 . S
Mn1285 N1301 2.282 . S
Mn1285 O1309 2.215 . S
Mn1285 O1311 2.117 . S
C1286 O1308 1.234 . S
C1286 O1309 1.283 . S
C1287 O1299 1.281 . S
C1287 O1300 1.236 . S
C1288 O1310 1.240 . S
C1288 O1311 1.264 . S
O1289 Mn1284 2.095 . S
O1289 C1298 1.250 . S
O1290 Mn1285 2.121 . S
O1290 C1298 1.258 . S
C1291 N1292 1.326 . S
C1291 C1295 1.460 . S
C1291 H1297 0.929 . S
N1292 Mn1285 2.257 . S
N1292 C1291 1.326 . S
N1292 C1296 1.362 . S
C1293 C1294 1.258 . S
C1293 C1296 1.431 . S
C1293 C1313 1.449 . S
C1294 C1293 1.258 . S
C1294 C1295 1.477 . S
C1294 H1314 0.931 . S
C1295 C1291 1.460 . S
C1295 C1294 1.477 . S
C1295 H1315 0.930 . S
C1296 N1292 1.362 . S
C1296 C1293 1.431 . S
C1296 C1306 1.476 . S
H1297 C1291 0.929 . S
C1298 O1289 1.250 . S
C1298 O1290 1.258 . S
O1299 Mn1284 2.162 . S
O1299 C1287 1.281 . S
O1300 Mn1284 2.297 . S
O1300 C1287 1.236 . S
N1301 Mn1285 2.282 . S
N1301 C1302 1.328 . S
N1301 C1306 1.318 . S
C1302 N1301 1.328 . S
C1302 C1303 1.457 . S
C1302 H1307 0.929 . S
C1303 C1302 1.457 . S
C1303 C1304 1.291 . S
C1303 H1316 0.931 . S
C1304 C1303 1.291 . S
C1304 C1305 1.373 . S
C1304 H1317 0.929 . S
C1305 C1304 1.373 . S
C1305 C1306 1.396 . S
C1305 C1312 1.403 . S
C1306 C1296 1.476 . S
C1306 N1301 1.318 . S
C1306 C1305 1.396 . S
H1307 C1302 0.929 . S
O1308 Mn1284 2.385 . S
O1308 C1286 1.234 . S
O1309 Mn1284 2.209 . S
O1309 Mn1285 2.215 . S
O1309 C1286 1.283 . S
O1310 Mn1284 2.094 . S
O1310 C1288 1.240 . S
O1311 Mn1285 2.117 . S
O1311 C1288 1.264 . S
C1312 C1305 1.403 . S
C1312 C1313 1.399 . S
C1312 H1318 0.929 . S
C1313 C1293 1.449 . S
C1313 C1312 1.399 . S
C1313 H1319 0.930 . S
H1314 C1294 0.931 . S
H1315 C1295 0.930 . S
H1316 C1303 0.931 . S
H1317 C1304 0.929 . S
H1318 C1312 0.929 . S
H1319 C1313 0.930 . S
Mn1320 O1325 2.095 1_455 S
Mn1320 O1335 2.162 . S
Mn1320 O1336 2.297 1_455 S
Mn1320 O1344 2.385 . S
Mn1320 O1345 2.209 1_455 S
Mn1320 O1346 2.094 . S
Mn1321 O1326 2.121 . S
Mn1321 N1328 2.257 . S
Mn1321 N1337 2.282 1_655 S
Mn1321 O1345 2.215 . S
Mn1321 O1347 2.117 1_655 S
C1322 O1344 1.234 . S
C1322 O1345 1.283 1_455 S
C1323 O1335 1.281 . S
C1323 O1336 1.236 1_455 S
C1324 O1346 1.240 . S
C1324 O1347 1.264 . S
O1325 Mn1320 2.095 1_655 S
O1325 C1334 1.250 . S
O1326 Mn1321 2.121 . S
O1326 C1334 1.258 . S
C1327 N1328 1.326 . S
C1327 C1331 1.460 . S
C1327 H1333 0.929 . S
N1328 Mn1321 2.257 . S
N1328 C1327 1.326 . S
N1328 C1332 1.362 . S
C1329 C1330 1.258 . S
C1329 C1332 1.431 . S
C1329 C1349 1.449 . S
C1330 C1329 1.258 . S
C1330 C1331 1.477 . S
C1330 H1350 0.931 . S
C1331 C1327 1.460 . S
C1331 C1330 1.477 . S
C1331 H1351 0.930 . S
C1332 N1328 1.362 . S
C1332 C1329 1.431 . S
C1332 C1342 1.476 . S
H1333 C1327 0.929 . S
C1334 O1325 1.250 . S
C1334 O1326 1.258 . S
O1335 Mn1320 2.162 . S
O1335 C1323 1.281 . S
O1336 Mn1320 2.297 1_655 S
O1336 C1323 1.236 1_655 S
N1337 Mn1321 2.282 1_455 S
N1337 C1338 1.328 . S
N1337 C1342 1.318 1_455 S
C1338 N1337 1.328 . S
C1338 C1339 1.457 . S
C1338 H1343 0.929 . S
C1339 C1338 1.457 . S
C1339 C1340 1.291 . S
C1339 H1352 0.931 . S
C1340 C1339 1.291 . S
C1340 C1341 1.373 1_455 S
C1340 H1353 0.929 . S
C1341 C1340 1.373 1_655 S
C1341 C1342 1.396 . S
C1341 C1348 1.403 . S
C1342 C1332 1.476 . S
C1342 N1337 1.318 1_655 S
C1342 C1341 1.396 . S
H1343 C1338 0.929 . S
O1344 Mn1320 2.385 . S
O1344 C1322 1.234 . S
O1345 Mn1320 2.209 1_655 S
O1345 Mn1321 2.215 . S
O1345 C1322 1.283 1_655 S
O1346 Mn1320 2.094 . S
O1346 C1324 1.240 . S
O1347 Mn1321 2.117 1_455 S
O1347 C1324 1.264 . S
C1348 C1341 1.403 . S
C1348 C1349 1.399 . S
C1348 H1354 0.929 . S
C1349 C1329 1.449 . S
C1349 C1348 1.399 . S
C1349 H1355 0.930 . S
H1350 C1330 0.931 . S
H1351 C1331 0.930 . S
H1352 C1339 0.931 . S
H1353 C1340 0.929 . S
H1354 C1348 0.929 . S
H1355 C1349 0.930 . S
Mn1356 O1361 2.095 . S
Mn1356 O1371 2.162 . S
Mn1356 O1372 2.297 . S
Mn1356 O1380 2.385 . S
Mn1356 O1381 2.209 . S
Mn1356 O1382 2.094 . S
Mn1357 O1362 2.121 . S
Mn1357 N1364 2.257 . S
Mn1357 N1373 2.282 . S
Mn1357 O1381 2.215 . S
Mn1357 O1383 2.117 . S
C1358 O1380 1.234 . S
C1358 O1381 1.283 . S
C1359 O1371 1.281 . S
C1359 O1372 1.236 . S
C1360 O1382 1.240 . S
C1360 O1383 1.264 . S
O1361 Mn1356 2.095 . S
O1361 C1370 1.250 . S
O1362 Mn1357 2.121 . S
O1362 C1370 1.258 . S
C1363 N1364 1.326 . S
C1363 C1367 1.460 . S
C1363 H1369 0.929 . S
N1364 Mn1357 2.257 . S
N1364 C1363 1.326 . S
N1364 C1368 1.362 . S
C1365 C1366 1.258 . S
C1365 C1368 1.431 . S
C1365 C1385 1.449 . S
C1366 C1365 1.258 . S
C1366 C1367 1.477 . S
C1366 H1386 0.931 . S
C1367 C1363 1.460 . S
C1367 C1366 1.477 . S
C1367 H1387 0.930 . S
C1368 N1364 1.362 . S
C1368 C1365 1.431 . S
C1368 C1378 1.476 . S
H1369 C1363 0.929 . S
C1370 O1361 1.250 . S
C1370 O1362 1.258 . S
O1371 Mn1356 2.162 . S
O1371 C1359 1.281 . S
O1372 Mn1356 2.297 . S
O1372 C1359 1.236 . S
N1373 Mn1357 2.282 . S
N1373 C1374 1.328 . S
N1373 C1378 1.318 . S
C1374 N1373 1.328 . S
C1374 C1375 1.457 . S
C1374 H1379 0.929 . S
C1375 C1374 1.457 . S
C1375 C1376 1.291 . S
C1375 H1388 0.931 . S
C1376 C1375 1.291 . S
C1376 C1377 1.373 . S
C1376 H1389 0.929 . S
C1377 C1376 1.373 . S
C1377 C1378 1.396 . S
C1377 C1384 1.403 . S
C1378 C1368 1.476 . S
C1378 N1373 1.318 . S
C1378 C1377 1.396 . S
H1379 C1374 0.929 . S
O1380 Mn1356 2.385 . S
O1380 C1358 1.234 . S
O1381 Mn1356 2.209 . S
O1381 Mn1357 2.215 . S
O1381 C1358 1.283 . S
O1382 Mn1356 2.094 . S
O1382 C1360 1.240 . S
O1383 Mn1357 2.117 . S
O1383 C1360 1.264 . S
C1384 C1377 1.403 . S
C1384 C1385 1.399 . S
C1384 H1390 0.929 . S
C1385 C1365 1.449 . S
C1385 C1384 1.399 . S
C1385 H1391 0.930 . S
H1386 C1366 0.931 . S
H1387 C1367 0.930 . S
H1388 C1375 0.931 . S
H1389 C1376 0.929 . S
H1390 C1384 0.929 . S
H1391 C1385 0.930 . S
C1392 C1393 1.391 . S
C1392 C1394 1.394 . S
C1392 H1408 0.931 . S
C1393 C1392 1.391 . S
C1393 C1397 1.376 . S
C1394 C1392 1.394 . S
C1394 C1395 1.369 . S
C1394 C1398 1.531 . S
C1395 C1394 1.369 . S
C1395 C1396 1.410 . S
C1395 C1403 1.503 . S
C1396 C1395 1.410 . S
C1396 C1397 1.392 . S
C1396 C1399 1.511 . S
C1397 C1393 1.376 . S
C1397 C1396 1.392 . S
C1397 H1409 0.929 . S
C1398 C1394 1.531 . S
C1398 H1410 0.960 . S
C1398 H1411 0.962 . S
C1398 H1412 0.960 . S
C1399 C1396 1.511 . S
C1399 H1413 0.961 . S
C1399 H1414 0.961 . S
C1399 H1415 0.961 . S
C1400 C1401 1.370 . S
C1400 C1402 1.363 . S
C1400 H1416 0.931 . S
C1401 C1400 1.370 . S
C1401 C1405 1.408 . S
C1402 C1400 1.363 . S
C1402 C1403 1.370 . S
C1402 C1406 1.524 . S
C1403 C1395 1.503 . S
C1403 C1402 1.370 . S
C1403 C1404 1.403 . S
C1404 C1403 1.403 . S
C1404 C1405 1.404 . S
C1404 C1407 1.539 . S
C1405 C1401 1.408 . S
C1405 C1404 1.404 . S
C1405 H1417 0.930 . S
C1406 C1402 1.524 . S
C1406 H1418 0.956 . S
C1406 H1419 0.961 . S
C1406 H1420 0.961 . S
C1407 C1404 1.539 . S
C1407 H1421 0.958 . S
C1407 H1422 0.961 . S
C1407 H1423 0.960 . S
H1408 C1392 0.931 . S
H1409 C1397 0.929 . S
H1410 C1398 0.960 . S
H1411 C1398 0.962 . S
H1412 C1398 0.960 . S
H1413 C1399 0.961 . S
H1414 C1399 0.961 . S
H1415 C1399 0.961 . S
H1416 C1400 0.931 . S
H1417 C1405 0.930 . S
H1418 C1406 0.956 . S
H1419 C1406 0.961 . S
H1420 C1406 0.961 . S
H1421 C1407 0.958 . S
H1422 C1407 0.961 . S
H1423 C1407 0.960 . S
C1424 C1425 1.391 . S
C1424 C1426 1.394 . S
C1424 H1440 0.931 . S
C1425 C1424 1.391 . S
C1425 C1429 1.376 . S
C1426 C1424 1.394 . S
C1426 C1427 1.369 . S
C1426 C1430 1.531 . S
C1427 C1426 1.369 . S
C1427 C1428 1.410 . S
C1427 C1435 1.503 . S
C1428 C1427 1.410 . S
C1428 C1429 1.392 . S
C1428 C1431 1.511 . S
C1429 C1425 1.376 . S
C1429 C1428 1.392 . S
C1429 H1441 0.929 . S
C1430 C1426 1.531 . S
C1430 H1442 0.960 . S
C1430 H1443 0.962 . S
C1430 H1444 0.960 . S
C1431 C1428 1.511 . S
C1431 H1445 0.961 . S
C1431 H1446 0.961 . S
C1431 H1447 0.961 . S
C1432 C1433 1.370 . S
C1432 C1434 1.363 . S
C1432 H1448 0.931 . S
C1433 C1432 1.370 . S
C1433 C1437 1.408 . S
C1434 C1432 1.363 . S
C1434 C1435 1.370 . S
C1434 C1438 1.524 . S
C1435 C1427 1.503 . S
C1435 C1434 1.370 . S
C1435 C1436 1.403 . S
C1436 C1435 1.403 . S
C1436 C1437 1.404 . S
C1436 C1439 1.539 . S
C1437 C1433 1.408 . S
C1437 C1436 1.404 . S
C1437 H1449 0.930 . S
C1438 C1434 1.524 . S
C1438 H1450 0.956 . S
C1438 H1451 0.961 . S
C1438 H1452 0.961 . S
C1439 C1436 1.539 . S
C1439 H1453 0.958 . S
C1439 H1454 0.961 . S
C1439 H1455 0.960 . S
H1440 C1424 0.931 . S
H1441 C1429 0.929 . S
H1442 C1430 0.960 . S
H1443 C1430 0.962 . S
H1444 C1430 0.960 . S
H1445 C1431 0.961 . S
H1446 C1431 0.961 . S
H1447 C1431 0.961 . S
H1448 C1432 0.931 . S
H1449 C1437 0.930 . S
H1450 C1438 0.956 . S
H1451 C1438 0.961 . S
H1452 C1438 0.961 . S
H1453 C1439 0.958 . S
H1454 C1439 0.961 . S
H1455 C1439 0.960 . S
C1456 C1457 1.391 . S
C1456 C1458 1.394 . S
C1456 H1472 0.931 . S
C1457 C1456 1.391 . S
C1457 C1461 1.376 . S
C1458 C1456 1.394 . S
C1458 C1459 1.369 . S
C1458 C1462 1.531 . S
C1459 C1458 1.369 . S
C1459 C1460 1.410 . S
C1459 C1467 1.503 . S
C1460 C1459 1.410 . S
C1460 C1461 1.392 . S
C1460 C1463 1.511 . S
C1461 C1457 1.376 . S
C1461 C1460 1.392 . S
C1461 H1473 0.929 . S
C1462 C1458 1.531 . S
C1462 H1474 0.960 . S
C1462 H1475 0.962 . S
C1462 H1476 0.960 . S
C1463 C1460 1.511 . S
C1463 H1477 0.961 . S
C1463 H1478 0.961 . S
C1463 H1479 0.961 . S
C1464 C1465 1.370 . S
C1464 C1466 1.363 . S
C1464 H1480 0.931 . S
C1465 C1464 1.370 . S
C1465 C1469 1.408 . S
C1466 C1464 1.363 . S
C1466 C1467 1.370 . S
C1466 C1470 1.524 . S
C1467 C1459 1.503 . S
C1467 C1466 1.370 . S
C1467 C1468 1.403 . S
C1468 C1467 1.403 . S
C1468 C1469 1.404 . S
C1468 C1471 1.539 . S
C1469 C1465 1.408 . S
C1469 C1468 1.404 . S
C1469 H1481 0.930 . S
C1470 C1466 1.524 . S
C1470 H1482 0.956 . S
C1470 H1483 0.961 . S
C1470 H1484 0.961 . S
C1471 C1468 1.539 . S
C1471 H1485 0.958 . S
C1471 H1486 0.961 . S
C1471 H1487 0.960 . S
H1472 C1456 0.931 . S
H1473 C1461 0.929 . S
H1474 C1462 0.960 . S
H1475 C1462 0.962 . S
H1476 C1462 0.960 . S
H1477 C1463 0.961 . S
H1478 C1463 0.961 . S
H1479 C1463 0.961 . S
H1480 C1464 0.931 . S
H1481 C1469 0.930 . S
H1482 C1470 0.956 . S
H1483 C1470 0.961 . S
H1484 C1470 0.961 . S
H1485 C1471 0.958 . S
H1486 C1471 0.961 . S
H1487 C1471 0.960 . S
C1488 C1489 1.391 . S
C1488 C1490 1.394 . S
C1488 H1504 0.931 . S
C1489 C1488 1.391 . S
C1489 C1493 1.376 . S
C1490 C1488 1.394 . S
C1490 C1491 1.369 . S
C1490 C1494 1.531 . S
C1491 C1490 1.369 . S
C1491 C1492 1.407 . S
C1491 C1499 1.503 . S
C1492 C1491 1.407 . S
C1492 C1493 1.392 . S
C1492 C1495 1.514 1_565 S
C1493 C1489 1.376 . S
C1493 C1492 1.392 . S
C1493 H1505 0.929 1_565 S
C1494 C1490 1.531 . S
C1494 H1506 0.960 . S
C1494 H1507 0.962 . S
C1494 H1508 0.960 . S
C1495 C1492 1.514 1_545 S
C1495 H1509 0.961 . S
C1495 H1510 0.961 . S
C1495 H1511 0.961 . S
C1496 C1497 1.395 . S
C1496 C1498 1.363 . S
C1496 H1512 0.931 . S
C1497 C1496 1.395 . S
C1497 C1501 1.371 1_545 S
C1498 C1496 1.363 . S
C1498 C1499 1.370 1_545 S
C1498 C1502 1.524 . S
C1499 C1491 1.503 . S
C1499 C1498 1.370 1_565 S
C1499 C1500 1.403 . S
C1500 C1499 1.403 . S
C1500 C1501 1.404 . S
C1500 C1503 1.539 . S
C1501 C1497 1.371 1_565 S
C1501 C1500 1.404 . S
C1501 H1513 0.930 . S
C1502 C1498 1.524 . S
C1502 H1514 0.956 . S
C1502 H1515 0.961 . S
C1502 H1516 0.961 . S
C1503 C1500 1.539 . S
C1503 H1517 0.958 . S
C1503 H1518 0.961 . S
C1503 H1519 0.960 . S
H1504 C1488 0.931 . S
H1505 C1493 0.929 1_545 S
H1506 C1494 0.960 . S
H1507 C1494 0.962 . S
H1508 C1494 0.960 . S
H1509 C1495 0.961 . S
H1510 C1495 0.961 . S
H1511 C1495 0.961 . S
H1512 C1496 0.931 . S
H1513 C1501 0.930 . S
H1514 C1502 0.956 . S
H1515 C1502 0.961 . S
H1516 C1502 0.961 . S
H1517 C1503 0.958 . S
H1518 C1503 0.961 . S
H1519 C1503 0.960 . S
C1520 C1521 1.391 . S
C1520 C1522 1.394 . S
C1520 H1536 0.931 . S
C1521 C1520 1.391 . S
C1521 C1525 1.376 . S
C1522 C1520 1.394 . S
C1522 C1523 1.369 . S
C1522 C1526 1.531 . S
C1523 C1522 1.369 . S
C1523 C1524 1.410 . S
C1523 C1531 1.503 . S
C1524 C1523 1.410 . S
C1524 C1525 1.392 . S
C1524 C1527 1.511 . S
C1525 C1521 1.376 . S
C1525 C1524 1.392 . S
C1525 H1537 0.929 . S
C1526 C1522 1.531 . S
C1526 H1538 0.960 . S
C1526 H1539 0.962 . S
C1526 H1540 0.960 . S
C1527 C1524 1.511 . S
C1527 H1541 0.961 . S
C1527 H1542 0.961 . S
C1527 H1543 0.961 . S
C1528 C1529 1.370 . S
C1528 C1530 1.363 . S
C1528 H1544 0.931 . S
C1529 C1528 1.370 . S
C1529 C1533 1.408 . S
C1530 C1528 1.363 . S
C1530 C1531 1.370 . S
C1530 C1534 1.524 . S
C1531 C1523 1.503 . S
C1531 C1530 1.370 . S
C1531 C1532 1.403 . S
C1532 C1531 1.403 . S
C1532 C1533 1.404 . S
C1532 C1535 1.539 . S
C1533 C1529 1.408 . S
C1533 C1532 1.404 . S
C1533 H1545 0.930 . S
C1534 C1530 1.524 . S
C1534 H1546 0.956 . S
C1534 H1547 0.961 . S
C1534 H1548 0.961 . S
C1535 C1532 1.539 . S
C1535 H1549 0.958 . S
C1535 H1550 0.961 . S
C1535 H1551 0.960 . S
H1536 C1520 0.931 . S
H1537 C1525 0.929 . S
H1538 C1526 0.960 . S
H1539 C1526 0.962 . S
H1540 C1526 0.960 . S
H1541 C1527 0.961 . S
H1542 C1527 0.961 . S
H1543 C1527 0.961 . S
H1544 C1528 0.931 . S
H1545 C1533 0.930 . S
H1546 C1534 0.956 . S
H1547 C1534 0.961 . S
H1548 C1534 0.961 . S
H1549 C1535 0.958 . S
H1550 C1535 0.961 . S
H1551 C1535 0.960 . S
C1552 C1553 1.391 . S
C1552 C1554 1.394 . S
C1552 H1568 0.931 . S
C1553 C1552 1.391 . S
C1553 C1557 1.376 . S
C1554 C1552 1.394 . S
C1554 C1555 1.369 . S
C1554 C1558 1.531 . S
C1555 C1554 1.369 . S
C1555 C1556 1.410 . S
C1555 C1563 1.503 . S
C1556 C1555 1.410 . S
C1556 C1557 1.392 . S
C1556 C1559 1.511 . S
C1557 C1553 1.376 . S
C1557 C1556 1.392 . S
C1557 H1569 0.929 . S
C1558 C1554 1.531 . S
C1558 H1570 0.960 . S
C1558 H1571 0.962 . S
C1558 H1572 0.960 . S
C1559 C1556 1.511 . S
C1559 H1573 0.961 . S
C1559 H1574 0.961 . S
C1559 H1575 0.961 . S
C1560 C1561 1.370 . S
C1560 C1562 1.363 . S
C1560 H1576 0.931 . S
C1561 C1560 1.370 . S
C1561 C1565 1.408 . S
C1562 C1560 1.363 . S
C1562 C1563 1.370 . S
C1562 C1566 1.524 . S
C1563 C1555 1.503 . S
C1563 C1562 1.370 . S
C1563 C1564 1.403 . S
C1564 C1563 1.403 . S
C1564 C1565 1.404 . S
C1564 C1567 1.539 . S
C1565 C1561 1.408 . S
C1565 C1564 1.404 . S
C1565 H1577 0.930 . S
C1566 C1562 1.524 . S
C1566 H1578 0.956 . S
C1566 H1579 0.961 . S
C1566 H1580 0.961 . S
C1567 C1564 1.539 . S
C1567 H1581 0.958 . S
C1567 H1582 0.961 . S
C1567 H1583 0.960 . S
H1568 C1552 0.931 . S
H1569 C1557 0.929 . S
H1570 C1558 0.960 . S
H1571 C1558 0.962 . S
H1572 C1558 0.960 . S
H1573 C1559 0.961 . S
H1574 C1559 0.961 . S
H1575 C1559 0.961 . S
H1576 C1560 0.931 . S
H1577 C1565 0.930 . S
H1578 C1566 0.956 . S
H1579 C1566 0.961 . S
H1580 C1566 0.961 . S
H1581 C1567 0.958 . S
H1582 C1567 0.961 . S
H1583 C1567 0.960 . S
C1584 C1585 1.391 . S
C1584 C1586 1.394 . S
C1584 H1600 0.931 . S
C1585 C1584 1.391 . S
C1585 C1589 1.376 . S
C1586 C1584 1.394 . S
C1586 C1587 1.369 . S
C1586 C1590 1.531 . S
C1587 C1586 1.369 . S
C1587 C1588 1.410 . S
C1587 C1595 1.503 . S
C1588 C1587 1.410 . S
C1588 C1589 1.392 . S
C1588 C1591 1.511 . S
C1589 C1585 1.376 . S
C1589 C1588 1.392 . S
C1589 H1601 0.929 . S
C1590 C1586 1.531 . S
C1590 H1602 0.960 . S
C1590 H1603 0.962 . S
C1590 H1604 0.960 . S
C1591 C1588 1.511 . S
C1591 H1605 0.961 . S
C1591 H1606 0.961 . S
C1591 H1607 0.961 . S
C1592 C1593 1.370 . S
C1592 C1594 1.363 . S
C1592 H1608 0.931 . S
C1593 C1592 1.370 . S
C1593 C1597 1.408 . S
C1594 C1592 1.363 . S
C1594 C1595 1.370 . S
C1594 C1598 1.524 . S
C1595 C1587 1.503 . S
C1595 C1594 1.370 . S
C1595 C1596 1.403 . S
C1596 C1595 1.403 . S
C1596 C1597 1.404 . S
C1596 C1599 1.539 . S
C1597 C1593 1.408 . S
C1597 C1596 1.404 . S
C1597 H1609 0.930 . S
C1598 C1594 1.524 . S
C1598 H1610 0.956 . S
C1598 H1611 0.961 . S
C1598 H1612 0.961 . S
C1599 C1596 1.539 . S
C1599 H1613 0.958 . S
C1599 H1614 0.961 . S
C1599 H1615 0.960 . S
H1600 C1584 0.931 . S
H1601 C1589 0.929 . S
H1602 C1590 0.960 . S
H1603 C1590 0.962 . S
H1604 C1590 0.960 . S
H1605 C1591 0.961 . S
H1606 C1591 0.961 . S
H1607 C1591 0.961 . S
H1608 C1592 0.931 . S
H1609 C1597 0.930 . S
H1610 C1598 0.956 . S
H1611 C1598 0.961 . S
H1612 C1598 0.961 . S
H1613 C1599 0.958 . S
H1614 C1599 0.961 . S
H1615 C1599 0.960 . S
C1616 C1617 1.356 1_545 S
C1616 C1618 1.400 . S
C1616 H1632 0.960 . S
C1617 C1616 1.356 1_565 S
C1617 C1621 1.376 . S
C1618 C1616 1.400 . S
C1618 C1619 1.369 1_545 S
C1618 C1622 1.531 . S
C1619 C1618 1.369 1_565 S
C1619 C1620 1.410 . S
C1619 C1627 1.503 . S
C1620 C1619 1.410 . S
C1620 C1621 1.392 . S
C1620 C1623 1.511 . S
C1621 C1617 1.376 . S
C1621 C1620 1.392 . S
C1621 H1633 0.929 . S
C1622 C1618 1.531 . S
C1622 H1634 0.960 . S
C1622 H1635 0.962 . S
C1622 H1636 0.960 . S
C1623 C1620 1.511 . S
C1623 H1637 0.961 . S
C1623 H1638 0.961 . S
C1623 H1639 0.961 . S
C1624 C1625 1.370 . S
C1624 C1626 1.363 . S
C1624 H1640 0.931 . S
C1625 C1624 1.370 . S
C1625 C1629 1.408 1_565 S
C1626 C1624 1.363 . S
C1626 C1627 1.370 . S
C1626 C1630 1.524 . S
C1627 C1619 1.503 . S
C1627 C1626 1.370 . S
C1627 C1628 1.403 1_565 S
C1628 C1627 1.403 1_545 S
C1628 C1629 1.404 . S
C1628 C1631 1.539 . S
C1629 C1625 1.408 1_545 S
C1629 C1628 1.404 . S
C1629 H1641 0.930 . S
C1630 C1626 1.524 . S
C1630 H1642 0.956 . S
C1630 H1643 0.961 . S
C1630 H1644 0.961 . S
C1631 C1628 1.539 . S
C1631 H1645 0.958 . S
C1631 H1646 0.961 . S
C1631 H1647 0.960 . S
H1632 C1616 0.960 . S
H1633 C1621 0.929 . S
H1634 C1622 0.960 . S
H1635 C1622 0.962 . S
H1636 C1622 0.960 . S
H1637 C1623 0.961 . S
H1638 C1623 0.961 . S
H1639 C1623 0.961 . S
H1640 C1624 0.931 . S
H1641 C1629 0.930 . S
H1642 C1630 0.956 . S
H1643 C1630 0.961 . S
H1644 C1630 0.961 . S
H1645 C1631 0.958 . S
H1646 C1631 0.961 . S
H1647 C1631 0.960 . S
C1648 C1649 1.391 . S
C1648 C1650 1.394 . S
C1648 H1664 0.931 . S
C1649 C1648 1.391 . S
C1649 C1653 1.376 . S
C1650 C1648 1.394 . S
C1650 C1651 1.369 . S
C1650 C1654 1.531 . S
C1651 C1650 1.369 . S
C1651 C1652 1.410 . S
C1651 C1659 1.503 . S
C1652 C1651 1.410 . S
C1652 C1653 1.392 . S
C1652 C1655 1.511 . S
C1653 C1649 1.376 . S
C1653 C1652 1.392 . S
C1653 H1665 0.929 . S
C1654 C1650 1.531 . S
C1654 H1666 0.960 . S
C1654 H1667 0.962 . S
C1654 H1668 0.960 . S
C1655 C1652 1.511 . S
C1655 H1669 0.961 . S
C1655 H1670 0.961 . S
C1655 H1671 0.961 . S
C1656 C1657 1.370 . S
C1656 C1658 1.363 . S
C1656 H1672 0.931 . S
C1657 C1656 1.370 . S
C1657 C1661 1.408 . S
C1658 C1656 1.363 . S
C1658 C1659 1.370 . S
C1658 C1662 1.524 . S
C1659 C1651 1.503 . S
C1659 C1658 1.370 . S
C1659 C1660 1.403 . S
C1660 C1659 1.403 . S
C1660 C1661 1.404 . S
C1660 C1663 1.539 . S
C1661 C1657 1.408 . S
C1661 C1660 1.404 . S
C1661 H1673 0.930 . S
C1662 C1658 1.524 . S
C1662 H1674 0.956 . S
C1662 H1675 0.961 . S
C1662 H1676 0.961 . S
C1663 C1660 1.539 . S
C1663 H1677 0.958 . S
C1663 H1678 0.961 . S
C1663 H1679 0.960 . S
H1664 C1648 0.931 . S
H1665 C1653 0.929 . S
H1666 C1654 0.960 . S
H1667 C1654 0.962 . S
H1668 C1654 0.960 . S
H1669 C1655 0.961 . S
H1670 C1655 0.961 . S
H1671 C1655 0.961 . S
H1672 C1656 0.931 . S
H1673 C1661 0.930 . S
H1674 C1662 0.956 . S
H1675 C1662 0.961 . S
H1676 C1662 0.961 . S
H1677 C1663 0.958 . S
H1678 C1663 0.961 . S
H1679 C1663 0.960 . S
C1680 C1681 1.391 . S
C1680 C1682 1.394 . S
C1680 H1696 0.931 . S
C1681 C1680 1.391 . S
C1681 C1685 1.376 . S
C1682 C1680 1.394 . S
C1682 C1683 1.369 . S
C1682 C1686 1.531 . S
C1683 C1682 1.369 . S
C1683 C1684 1.410 . S
C1683 C1691 1.503 . S
C1684 C1683 1.410 . S
C1684 C1685 1.392 . S
C1684 C1687 1.511 . S
C1685 C1681 1.376 . S
C1685 C1684 1.392 . S
C1685 H1697 0.929 . S
C1686 C1682 1.531 . S
C1686 H1698 0.960 . S
C1686 H1699 0.962 . S
C1686 H1700 0.960 . S
C1687 C1684 1.511 . S
C1687 H1701 0.961 . S
C1687 H1702 0.961 . S
C1687 H1703 0.961 . S
C1688 C1689 1.370 . S
C1688 C1690 1.363 . S
C1688 H1704 0.931 . S
C1689 C1688 1.370 . S
C1689 C1693 1.408 . S
C1690 C1688 1.363 . S
C1690 C1691 1.370 . S
C1690 C1694 1.524 . S
C1691 C1683 1.503 . S
C1691 C1690 1.370 . S
C1691 C1692 1.403 . S
C1692 C1691 1.403 . S
C1692 C1693 1.404 . S
C1692 C1695 1.539 . S
C1693 C1689 1.408 . S
C1693 C1692 1.404 . S
C1693 H1705 0.930 . S
C1694 C1690 1.524 . S
C1694 H1706 0.956 . S
C1694 H1707 0.961 . S
C1694 H1708 0.961 . S
C1695 C1692 1.539 . S
C1695 H1709 0.958 . S
C1695 H1710 0.961 . S
C1695 H1711 0.960 . S
H1696 C1680 0.931 . S
H1697 C1685 0.929 . S
H1698 C1686 0.960 . S
H1699 C1686 0.962 . S
H1700 C1686 0.960 . S
H1701 C1687 0.961 . S
H1702 C1687 0.961 . S
H1703 C1687 0.961 . S
H1704 C1688 0.931 . S
H1705 C1693 0.930 . S
H1706 C1694 0.956 . S
H1707 C1694 0.961 . S
H1708 C1694 0.961 . S
H1709 C1695 0.958 . S
H1710 C1695 0.961 . S
H1711 C1695 0.960 . S
C1712 C1713 1.391 . S
C1712 C1714 1.394 . S
C1712 H1728 0.931 . S
C1713 C1712 1.391 . S
C1713 C1717 1.376 . S
C1714 C1712 1.394 . S
C1714 C1715 1.369 . S
C1714 C1718 1.531 . S
C1715 C1714 1.369 . S
C1715 C1716 1.410 . S
C1715 C1723 1.503 . S
C1716 C1715 1.410 . S
C1716 C1717 1.392 . S
C1716 C1719 1.511 . S
C1717 C1713 1.376 . S
C1717 C1716 1.392 . S
C1717 H1729 0.929 . S
C1718 C1714 1.531 . S
C1718 H1730 0.960 . S
C1718 H1731 0.962 . S
C1718 H1732 0.960 . S
C1719 C1716 1.511 . S
C1719 H1733 0.961 . S
C1719 H1734 0.961 . S
C1719 H1735 0.961 . S
C1720 C1721 1.370 . S
C1720 C1722 1.363 . S
C1720 H1736 0.931 . S
C1721 C1720 1.370 . S
C1721 C1725 1.408 . S
C1722 C1720 1.363 . S
C1722 C1723 1.370 . S
C1722 C1726 1.524 . S
C1723 C1715 1.503 . S
C1723 C1722 1.370 . S
C1723 C1724 1.403 . S
C1724 C1723 1.403 . S
C1724 C1725 1.404 . S
C1724 C1727 1.539 . S
C1725 C1721 1.408 . S
C1725 C1724 1.404 . S
C1725 H1737 0.930 . S
C1726 C1722 1.524 . S
C1726 H1738 0.956 . S
C1726 H1739 0.961 . S
C1726 H1740 0.961 . S
C1727 C1724 1.539 . S
C1727 H1741 0.958 . S
C1727 H1742 0.961 . S
C1727 H1743 0.960 . S
H1728 C1712 0.931 . S
H1729 C1717 0.929 . S
H1730 C1718 0.960 . S
H1731 C1718 0.962 . S
H1732 C1718 0.960 . S
H1733 C1719 0.961 . S
H1734 C1719 0.961 . S
H1735 C1719 0.961 . S
H1736 C1720 0.931 . S
H1737 C1725 0.930 . S
H1738 C1726 0.956 . S
H1739 C1726 0.961 . S
H1740 C1726 0.961 . S
H1741 C1727 0.958 . S
H1742 C1727 0.961 . S
H1743 C1727 0.960 . S
C1744 C1745 1.391 . S
C1744 C1746 1.394 . S
C1744 H1760 0.931 . S
C1745 C1744 1.391 . S
C1745 C1749 1.376 . S
C1746 C1744 1.394 . S
C1746 C1747 1.369 . S
C1746 C1750 1.531 . S
C1747 C1746 1.369 . S
C1747 C1748 1.410 . S
C1747 C1755 1.503 . S
C1748 C1747 1.410 . S
C1748 C1749 1.392 . S
C1748 C1751 1.511 . S
C1749 C1745 1.376 . S
C1749 C1748 1.392 . S
C1749 H1761 0.929 . S
C1750 C1746 1.531 . S
C1750 H1762 0.960 . S
C1750 H1763 0.962 . S
C1750 H1764 0.960 . S
C1751 C1748 1.511 . S
C1751 H1765 0.961 . S
C1751 H1766 0.961 . S
C1751 H1767 0.961 . S
C1752 C1753 1.370 . S
C1752 C1754 1.363 . S
C1752 H1768 0.931 . S
C1753 C1752 1.370 . S
C1753 C1757 1.408 . S
C1754 C1752 1.363 . S
C1754 C1755 1.370 . S
C1754 C1758 1.524 . S
C1755 C1747 1.503 . S
C1755 C1754 1.370 . S
C1755 C1756 1.403 . S
C1756 C1755 1.403 . S
C1756 C1757 1.404 . S
C1756 C1759 1.539 . S
C1757 C1753 1.408 . S
C1757 C1756 1.404 . S
C1757 H1769 0.930 . S
C1758 C1754 1.524 . S
C1758 H1770 0.956 . S
C1758 H1771 0.961 . S
C1758 H1772 0.961 . S
C1759 C1756 1.539 . S
C1759 H1773 0.958 . S
C1759 H1774 0.961 . S
C1759 H1775 0.960 . S
H1760 C1744 0.931 . S
H1761 C1749 0.929 . S
H1762 C1750 0.960 . S
H1763 C1750 0.962 . S
H1764 C1750 0.960 . S
H1765 C1751 0.961 . S
H1766 C1751 0.961 . S
H1767 C1751 0.961 . S
H1768 C1752 0.931 . S
H1769 C1757 0.930 . S
H1770 C1758 0.956 . S
H1771 C1758 0.961 . S
H1772 C1758 0.961 . S
H1773 C1759 0.958 . S
H1774 C1759 0.961 . S
H1775 C1759 0.960 . S
C1776 C1777 1.391 . S
C1776 C1778 1.394 . S
C1776 H1792 0.931 . S
C1777 C1776 1.391 . S
C1777 C1781 1.376 . S
C1778 C1776 1.394 . S
C1778 C1779 1.369 . S
C1778 C1782 1.531 . S
C1779 C1778 1.369 . S
C1779 C1780 1.410 . S
C1779 C1787 1.503 . S
C1780 C1779 1.410 . S
C1780 C1781 1.392 . S
C1780 C1783 1.511 . S
C1781 C1777 1.376 . S
C1781 C1780 1.392 . S
C1781 H1793 0.929 . S
C1782 C1778 1.531 . S
C1782 H1794 0.960 . S
C1782 H1795 0.962 . S
C1782 H1796 0.960 . S
C1783 C1780 1.511 . S
C1783 H1797 0.961 . S
C1783 H1798 0.961 . S
C1783 H1799 0.961 . S
C1784 C1785 1.370 . S
C1784 C1786 1.363 . S
C1784 H1800 0.931 . S
C1785 C1784 1.370 . S
C1785 C1789 1.408 . S
C1786 C1784 1.363 . S
C1786 C1787 1.370 . S
C1786 C1790 1.524 . S
C1787 C1779 1.503 . S
C1787 C1786 1.370 . S
C1787 C1788 1.403 . S
C1788 C1787 1.403 . S
C1788 C1789 1.404 . S
C1788 C1791 1.539 . S
C1789 C1785 1.408 . S
C1789 C1788 1.404 . S
C1789 H1801 0.930 . S
C1790 C1786 1.524 . S
C1790 H1802 0.956 . S
C1790 H1803 0.961 . S
C1790 H1804 0.961 . S
C1791 C1788 1.539 . S
C1791 H1805 0.958 . S
C1791 H1806 0.961 . S
C1791 H1807 0.960 . S
H1792 C1776 0.931 . S
H1793 C1781 0.929 . S
H1794 C1782 0.960 . S
H1795 C1782 0.962 . S
H1796 C1782 0.960 . S
H1797 C1783 0.961 . S
H1798 C1783 0.961 . S
H1799 C1783 0.961 . S
H1800 C1784 0.931 . S
H1801 C1789 0.930 . S
H1802 C1790 0.956 . S
H1803 C1790 0.961 . S
H1804 C1790 0.961 . S
H1805 C1791 0.958 . S
H1806 C1791 0.961 . S
H1807 C1791 0.960 . S
C1808 C1809 1.391 . S
C1808 C1810 1.394 . S
C1808 H1824 0.931 . S
C1809 C1808 1.391 . S
C1809 C1813 1.376 . S
C1810 C1808 1.394 . S
C1810 C1811 1.369 . S
C1810 C1814 1.531 . S
C1811 C1810 1.369 . S
C1811 C1812 1.410 . S
C1811 C1819 1.503 . S
C1812 C1811 1.410 . S
C1812 C1813 1.392 . S
C1812 C1815 1.511 1_455 S
C1813 C1809 1.376 . S
C1813 C1812 1.392 . S
C1813 H1825 0.929 . S
C1814 C1810 1.531 . S
C1814 H1826 0.960 . S
C1814 H1827 0.962 . S
C1814 H1828 0.960 . S
C1815 C1812 1.511 1_655 S
C1815 H1829 0.961 . S
C1815 H1830 0.942 1_655 S
C1815 H1831 0.961 . S
C1816 C1817 1.370 . S
C1816 C1818 1.363 . S
C1816 H1832 0.931 . S
C1817 C1816 1.370 . S
C1817 C1821 1.408 1_455 S
C1818 C1816 1.363 . S
C1818 C1819 1.370 . S
C1818 C1822 1.524 . S
C1819 C1811 1.503 . S
C1819 C1818 1.370 . S
C1819 C1820 1.403 1_455 S
C1820 C1819 1.403 1_655 S
C1820 C1821 1.404 . S
C1820 C1823 1.539 . S
C1821 C1817 1.408 1_655 S
C1821 C1820 1.404 . S
C1821 H1833 0.930 . S
C1822 C1818 1.524 . S
C1822 H1834 0.956 . S
C1822 H1835 0.961 . S
C1822 H1836 0.961 . S
C1823 C1820 1.539 . S
C1823 H1837 0.958 . S
C1823 H1838 0.961 . S
C1823 H1839 0.960 . S
H1824 C1808 0.931 . S
H1825 C1813 0.929 . S
H1826 C1814 0.960 . S
H1827 C1814 0.962 . S
H1828 C1814 0.960 . S
H1829 C1815 0.961 . S
H1830 C1815 0.942 1_455 S
H1831 C1815 0.961 . S
H1832 C1816 0.931 . S
H1833 C1821 0.930 . S
H1834 C1822 0.956 . S
H1835 C1822 0.961 . S
H1836 C1822 0.961 . S
H1837 C1823 0.958 . S
H1838 C1823 0.961 . S
H1839 C1823 0.960 . S
C1840 C1841 1.391 . S
C1840 C1842 1.394 . S
C1840 H1856 0.931 . S
C1841 C1840 1.391 . S
C1841 C1845 1.376 . S
C1842 C1840 1.394 . S
C1842 C1843 1.369 . S
C1842 C1846 1.531 . S
C1843 C1842 1.369 . S
C1843 C1844 1.410 . S
C1843 C1851 1.503 . S
C1844 C1843 1.410 . S
C1844 C1845 1.392 . S
C1844 C1847 1.511 . S
C1845 C1841 1.376 . S
C1845 C1844 1.392 . S
C1845 H1857 0.929 . S
C1846 C1842 1.531 . S
C1846 H1858 0.960 . S
C1846 H1859 0.962 . S
C1846 H1860 0.960 . S
C1847 C1844 1.511 . S
C1847 H1861 0.961 . S
C1847 H1862 0.961 . S
C1847 H1863 0.961 . S
C1848 C1849 1.370 . S
C1848 C1850 1.363 . S
C1848 H1864 0.931 . S
C1849 C1848 1.370 . S
C1849 C1853 1.408 . S
C1850 C1848 1.363 . S
C1850 C1851 1.370 . S
C1850 C1854 1.524 . S
C1851 C1843 1.503 . S
C1851 C1850 1.370 . S
C1851 C1852 1.403 . S
C1852 C1851 1.403 . S
C1852 C1853 1.404 . S
C1852 C1855 1.539 . S
C1853 C1849 1.408 . S
C1853 C1852 1.404 . S
C1853 H1865 0.930 . S
C1854 C1850 1.524 . S
C1854 H1866 0.956 . S
C1854 H1867 0.961 . S
C1854 H1868 0.961 . S
C1855 C1852 1.539 . S
C1855 H1869 0.958 . S
C1855 H1870 0.961 . S
C1855 H1871 0.960 . S
H1856 C1840 0.931 . S
H1857 C1845 0.929 . S
H1858 C1846 0.960 . S
H1859 C1846 0.962 . S
H1860 C1846 0.960 . S
H1861 C1847 0.961 . S
H1862 C1847 0.961 . S
H1863 C1847 0.961 . S
H1864 C1848 0.931 . S
H1865 C1853 0.930 . S
H1866 C1854 0.956 . S
H1867 C1854 0.961 . S
H1868 C1854 0.961 . S
H1869 C1855 0.958 . S
H1870 C1855 0.961 . S
H1871 C1855 0.960 . S
C1872 C1873 1.391 . S
C1872 C1874 1.394 . S
C1872 H1888 0.931 . S
C1873 C1872 1.391 . S
C1873 C1877 1.376 . S
C1874 C1872 1.394 . S
C1874 C1875 1.369 . S
C1874 C1878 1.531 . S
C1875 C1874 1.369 . S
C1875 C1876 1.410 . S
C1875 C1883 1.503 . S
C1876 C1875 1.410 . S
C1876 C1877 1.392 . S
C1876 C1879 1.511 1_655 S
C1877 C1873 1.376 . S
C1877 C1876 1.392 . S
C1877 H1889 0.929 . S
C1878 C1874 1.531 . S
C1878 H1890 0.960 1_655 S
C1878 H1891 0.962 . S
C1878 H1892 0.960 . S
C1879 C1876 1.511 1_455 S
C1879 H1893 0.961 1_455 S
C1879 H1894 0.961 1_455 S
C1879 H1895 0.961 . S
C1880 C1881 1.320 1_655 S
C1880 C1882 1.363 . S
C1880 H1896 0.931 . S
C1881 C1880 1.320 1_455 S
C1881 C1885 1.459 . S
C1882 C1880 1.363 . S
C1882 C1883 1.370 . S
C1882 C1886 1.524 . S
C1883 C1875 1.503 . S
C1883 C1882 1.370 . S
C1883 C1884 1.403 1_655 S
C1884 C1883 1.403 1_455 S
C1884 C1885 1.404 . S
C1884 C1887 1.539 . S
C1885 C1881 1.459 . S
C1885 C1884 1.404 . S
C1885 H1897 0.930 . S
C1886 C1882 1.524 . S
C1886 H1898 0.956 . S
C1886 H1899 0.961 . S
C1886 H1900 0.961 . S
C1887 C1884 1.539 . S
C1887 H1901 0.958 . S
C1887 H1902 0.961 . S
C1887 H1903 0.960 . S
H1888 C1872 0.931 . S
H1889 C1877 0.929 . S
H1890 C1878 0.960 1_455 S
H1891 C1878 0.962 . S
H1892 C1878 0.960 . S
H1893 C1879 0.961 1_655 S
H1894 C1879 0.961 1_655 S
H1895 C1879 0.961 . S
H1896 C1880 0.931 . S
H1897 C1885 0.930 . S
H1898 C1886 0.956 . S
H1899 C1886 0.961 . S
H1900 C1886 0.961 . S
H1901 C1887 0.958 . S
H1902 C1887 0.961 . S
H1903 C1887 0.960 . S
C1904 C1905 1.391 . S
C1904 C1906 1.394 . S
C1904 H1920 0.931 . S
C1905 C1904 1.391 . S
C1905 C1909 1.376 . S
C1906 C1904 1.394 . S
C1906 C1907 1.369 . S
C1906 C1910 1.531 . S
C1907 C1906 1.369 . S
C1907 C1908 1.410 . S
C1907 C1915 1.503 . S
C1908 C1907 1.410 . S
C1908 C1909 1.392 . S
C1908 C1911 1.511 . S
C1909 C1905 1.376 . S
C1909 C1908 1.392 . S
C1909 H1921 0.929 . S
C1910 C1906 1.531 . S
C1910 H1922 0.960 . S
C1910 H1923 0.962 . S
C1910 H1924 0.960 . S
C1911 C1908 1.511 . S
C1911 H1925 0.961 . S
C1911 H1926 0.961 . S
C1911 H1927 0.961 . S
C1912 C1913 1.370 . S
C1912 C1914 1.363 . S
C1912 H1928 0.931 . S
C1913 C1912 1.370 . S
C1913 C1917 1.408 . S
C1914 C1912 1.363 . S
C1914 C1915 1.370 . S
C1914 C1918 1.524 . S
C1915 C1907 1.503 . S
C1915 C1914 1.370 . S
C1915 C1916 1.403 . S
C1916 C1915 1.403 . S
C1916 C1917 1.404 . S
C1916 C1919 1.539 . S
C1917 C1913 1.408 . S
C1917 C1916 1.404 . S
C1917 H1929 0.930 . S
C1918 C1914 1.524 . S
C1918 H1930 0.956 . S
C1918 H1931 0.961 . S
C1918 H1932 0.961 . S
C1919 C1916 1.539 . S
C1919 H1933 0.958 . S
C1919 H1934 0.961 . S
C1919 H1935 0.960 . S
H1920 C1904 0.931 . S
H1921 C1909 0.929 . S
H1922 C1910 0.960 . S
H1923 C1910 0.962 . S
H1924 C1910 0.960 . S
H1925 C1911 0.961 . S
H1926 C1911 0.961 . S
H1927 C1911 0.961 . S
H1928 C1912 0.931 . S
H1929 C1917 0.930 . S
H1930 C1918 0.956 . S
H1931 C1918 0.961 . S
H1932 C1918 0.961 . S
H1933 C1919 0.958 . S
H1934 C1919 0.961 . S
H1935 C1919 0.960 . S
C1936 C1937 1.391 . S
C1936 C1938 1.394 . S
C1936 H1952 0.931 . S
C1937 C1936 1.391 . S
C1937 C1941 1.376 . S
C1938 C1936 1.394 . S
C1938 C1939 1.369 . S
C1938 C1942 1.531 . S
C1939 C1938 1.369 . S
C1939 C1940 1.410 . S
C1939 C1947 1.503 . S
C1940 C1939 1.410 . S
C1940 C1941 1.392 . S
C1940 C1943 1.511 . S
C1941 C1937 1.376 . S
C1941 C1940 1.392 . S
C1941 H1953 0.929 . S
C1942 C1938 1.531 . S
C1942 H1954 0.960 . S
C1942 H1955 0.962 . S
C1942 H1956 0.960 . S
C1943 C1940 1.511 . S
C1943 H1957 0.961 . S
C1943 H1958 0.961 . S
C1943 H1959 0.961 . S
C1944 C1945 1.370 . S
C1944 C1946 1.363 . S
C1944 H1960 0.931 . S
C1945 C1944 1.370 . S
C1945 C1949 1.408 . S
C1946 C1944 1.363 . S
C1946 C1947 1.370 . S
C1946 C1950 1.524 . S
C1947 C1939 1.503 . S
C1947 C1946 1.370 . S
C1947 C1948 1.403 . S
C1948 C1947 1.403 . S
C1948 C1949 1.404 . S
C1948 C1951 1.539 . S
C1949 C1945 1.408 . S
C1949 C1948 1.404 . S
C1949 H1961 0.930 . S
C1950 C1946 1.524 . S
C1950 H1962 0.956 . S
C1950 H1963 0.961 . S
C1950 H1964 0.961 . S
C1951 C1948 1.539 . S
C1951 H1965 0.958 . S
C1951 H1966 0.961 . S
C1951 H1967 0.960 . S
H1952 C1936 0.931 . S
H1953 C1941 0.929 . S
H1954 C1942 0.960 . S
H1955 C1942 0.962 . S
H1956 C1942 0.960 . S
H1957 C1943 0.961 . S
H1958 C1943 0.961 . S
H1959 C1943 0.961 . S
H1960 C1944 0.931 . S
H1961 C1949 0.930 . S
H1962 C1950 0.956 . S
H1963 C1950 0.961 . S
H1964 C1950 0.961 . S
H1965 C1951 0.958 . S
H1966 C1951 0.961 . S
H1967 C1951 0.960 . S
C1968 C1969 1.391 . S
C1968 C1970 1.394 . S
C1968 H1984 0.931 . S
C1969 C1968 1.391 . S
C1969 C1973 1.376 1_556 S
C1970 C1968 1.394 . S
C1970 C1971 1.369 . S
C1970 C1974 1.531 . S
C1971 C1970 1.369 . S
C1971 C1972 1.410 1_556 S
C1971 C1979 1.503 . S
C1972 C1971 1.410 1_554 S
C1972 C1973 1.392 . S
C1972 C1975 1.511 . S
C1973 C1969 1.376 1_554 S
C1973 C1972 1.392 . S
C1973 H1985 0.929 . S
C1974 C1970 1.531 . S
C1974 H1986 0.960 . S
C1974 H1987 0.962 . S
C1974 H1988 0.960 . S
C1975 C1972 1.511 . S
C1975 H1989 0.961 . S
C1975 H1990 0.961 . S
C1975 H1991 0.961 . S
C1976 C1977 1.370 . S
C1976 C1978 1.363 . S
C1976 H1992 0.931 . S
C1977 C1976 1.370 . S
C1977 C1981 1.408 1_554 S
C1978 C1976 1.363 . S
C1978 C1979 1.370 1_554 S
C1978 C1982 1.524 . S
C1979 C1971 1.503 . S
C1979 C1978 1.370 1_556 S
C1979 C1980 1.403 . S
C1980 C1979 1.403 . S
C1980 C1981 1.404 . S
C1980 C1983 1.539 . S
C1981 C1977 1.408 1_556 S
C1981 C1980 1.404 . S
C1981 H1993 0.930 . S
C1982 C1978 1.524 . S
C1982 H1994 0.956 1_554 S
C1982 H1995 0.961 . S
C1982 H1996 0.961 . S
C1983 C1980 1.539 . S
C1983 H1997 0.958 . S
C1983 H1998 0.961 . S
C1983 H1999 0.960 . S
H1984 C1968 0.931 . S
H1985 C1973 0.929 . S
H1986 C1974 0.960 . S
H1987 C1974 0.962 . S
H1988 C1974 0.960 . S
H1989 C1975 0.961 . S
H1990 C1975 0.961 . S
H1991 C1975 0.961 . S
H1992 C1976 0.931 . S
H1993 C1981 0.930 . S
H1994 C1982 0.956 1_556 S
H1995 C1982 0.961 . S
H1996 C1982 0.961 . S
H1997 C1983 0.958 . S
H1998 C1983 0.961 . S
H1999 C1983 0.960 . S
C2000 C2001 1.391 . S
C2000 C2002 1.394 . S
C2000 H2016 0.931 . S
C2001 C2000 1.391 . S
C2001 C2005 1.376 . S
C2002 C2000 1.394 . S
C2002 C2003 1.369 . S
C2002 C2006 1.531 . S
C2003 C2002 1.369 . S
C2003 C2004 1.410 . S
C2003 C2011 1.503 . S
C2004 C2003 1.410 . S
C2004 C2005 1.392 . S
C2004 C2007 1.511 . S
C2005 C2001 1.376 . S
C2005 C2004 1.392 . S
C2005 H2017 0.929 . S
C2006 C2002 1.531 . S
C2006 H2018 0.960 . S
C2006 H2019 0.962 . S
C2006 H2020 0.960 . S
C2007 C2004 1.511 . S
C2007 H2021 0.961 . S
C2007 H2022 0.961 . S
C2007 H2023 0.961 . S
C2008 C2009 1.370 . S
C2008 C2010 1.363 . S
C2008 H2024 0.931 . S
C2009 C2008 1.370 . S
C2009 C2013 1.408 . S
C2010 C2008 1.363 . S
C2010 C2011 1.370 . S
C2010 C2014 1.524 . S
C2011 C2003 1.503 . S
C2011 C2010 1.370 . S
C2011 C2012 1.403 . S
C2012 C2011 1.403 . S
C2012 C2013 1.404 . S
C2012 C2015 1.539 . S
C2013 C2009 1.408 . S
C2013 C2012 1.404 . S
C2013 H2025 0.930 . S
C2014 C2010 1.524 . S
C2014 H2026 0.956 . S
C2014 H2027 0.961 . S
C2014 H2028 0.961 . S
C2015 C2012 1.539 . S
C2015 H2029 0.958 . S
C2015 H2030 0.961 . S
C2015 H2031 0.960 . S
H2016 C2000 0.931 . S
H2017 C2005 0.929 . S
H2018 C2006 0.960 . S
H2019 C2006 0.962 . S
H2020 C2006 0.960 . S
H2021 C2007 0.961 . S
H2022 C2007 0.961 . S
H2023 C2007 0.961 . S
H2024 C2008 0.931 . S
H2025 C2013 0.930 . S
H2026 C2014 0.956 . S
H2027 C2014 0.961 . S
H2028 C2014 0.961 . S
H2029 C2015 0.958 . S
H2030 C2015 0.961 . S
H2031 C2015 0.960 . S
C2032 C2033 1.391 . S
C2032 C2034 1.394 . S
C2032 H2048 0.931 . S
C2033 C2032 1.391 . S
C2033 C2037 1.376 . S
C2034 C2032 1.394 . S
C2034 C2035 1.369 . S
C2034 C2038 1.531 . S
C2035 C2034 1.369 . S
C2035 C2036 1.410 . S
C2035 C2043 1.503 . S
C2036 C2035 1.410 . S
C2036 C2037 1.392 . S
C2036 C2039 1.511 . S
C2037 C2033 1.376 . S
C2037 C2036 1.392 . S
C2037 H2049 0.929 . S
C2038 C2034 1.531 . S
C2038 H2050 0.960 . S
C2038 H2051 0.962 . S
C2038 H2052 0.960 . S
C2039 C2036 1.511 . S
C2039 H2053 0.961 . S
C2039 H2054 0.961 . S
C2039 H2055 0.961 . S
C2040 C2041 1.370 . S
C2040 C2042 1.363 . S
C2040 H2056 0.931 . S
C2041 C2040 1.370 . S
C2041 C2045 1.408 . S
C2042 C2040 1.363 . S
C2042 C2043 1.370 . S
C2042 C2046 1.524 . S
C2043 C2035 1.503 . S
C2043 C2042 1.370 . S
C2043 C2044 1.403 . S
C2044 C2043 1.403 . S
C2044 C2045 1.404 . S
C2044 C2047 1.539 . S
C2045 C2041 1.408 . S
C2045 C2044 1.404 . S
C2045 H2057 0.930 . S
C2046 C2042 1.524 . S
C2046 H2058 0.956 . S
C2046 H2059 0.961 . S
C2046 H2060 0.961 . S
C2047 C2044 1.539 . S
C2047 H2061 0.958 . S
C2047 H2062 0.961 . S
C2047 H2063 0.960 . S
H2048 C2032 0.931 . S
H2049 C2037 0.929 . S
H2050 C2038 0.960 . S
H2051 C2038 0.962 . S
H2052 C2038 0.960 . S
H2053 C2039 0.961 . S
H2054 C2039 0.961 . S
H2055 C2039 0.961 . S
H2056 C2040 0.931 . S
H2057 C2045 0.930 . S
H2058 C2046 0.956 . S
H2059 C2046 0.961 . S
H2060 C2046 0.961 . S
H2061 C2047 0.958 . S
H2062 C2047 0.961 . S
H2063 C2047 0.960 . S
C2064 C2065 1.391 . S
C2064 C2066 1.394 . S
C2064 H2080 0.931 . S
C2065 C2064 1.391 . S
C2065 C2069 1.376 . S
C2066 C2064 1.394 . S
C2066 C2067 1.369 . S
C2066 C2070 1.531 . S
C2067 C2066 1.369 . S
C2067 C2068 1.410 . S
C2067 C2075 1.503 . S
C2068 C2067 1.410 . S
C2068 C2069 1.392 . S
C2068 C2071 1.511 . S
C2069 C2065 1.376 . S
C2069 C2068 1.392 . S
C2069 H2081 0.929 . S
C2070 C2066 1.531 . S
C2070 H2082 0.960 . S
C2070 H2083 0.962 . S
C2070 H2084 0.960 . S
C2071 C2068 1.511 . S
C2071 H2085 0.961 . S
C2071 H2086 0.961 . S
C2071 H2087 0.961 . S
C2072 C2073 1.370 . S
C2072 C2074 1.363 . S
C2072 H2088 0.931 . S
C2073 C2072 1.370 . S
C2073 C2077 1.408 . S
C2074 C2072 1.363 . S
C2074 C2075 1.370 . S
C2074 C2078 1.524 . S
C2075 C2067 1.503 . S
C2075 C2074 1.370 . S
C2075 C2076 1.403 . S
C2076 C2075 1.403 . S
C2076 C2077 1.404 . S
C2076 C2079 1.539 . S
C2077 C2073 1.408 . S
C2077 C2076 1.404 . S
C2077 H2089 0.930 . S
C2078 C2074 1.524 . S
C2078 H2090 0.956 . S
C2078 H2091 0.961 . S
C2078 H2092 0.961 . S
C2079 C2076 1.539 . S
C2079 H2093 0.958 . S
C2079 H2094 0.961 . S
C2079 H2095 0.960 . S
H2080 C2064 0.931 . S
H2081 C2069 0.929 . S
H2082 C2070 0.960 . S
H2083 C2070 0.962 . S
H2084 C2070 0.960 . S
H2085 C2071 0.961 . S
H2086 C2071 0.961 . S
H2087 C2071 0.961 . S
H2088 C2072 0.931 . S
H2089 C2077 0.930 . S
H2090 C2078 0.956 . S
H2091 C2078 0.961 . S
H2092 C2078 0.961 . S
H2093 C2079 0.958 . S
H2094 C2079 0.961 . S
H2095 C2079 0.960 . S
C2096 C2097 1.391 . S
C2096 C2098 1.394 . S
C2096 H2112 0.931 . S
C2097 C2096 1.391 . S
C2097 C2101 1.376 . S
C2098 C2096 1.394 . S
C2098 C2099 1.369 . S
C2098 C2102 1.531 . S
C2099 C2098 1.369 . S
C2099 C2100 1.410 . S
C2099 C2107 1.503 . S
C2100 C2099 1.410 . S
C2100 C2101 1.392 . S
C2100 C2103 1.511 . S
C2101 C2097 1.376 . S
C2101 C2100 1.392 . S
C2101 H2113 0.929 . S
C2102 C2098 1.531 . S
C2102 H2114 0.960 . S
C2102 H2115 0.962 . S
C2102 H2116 0.960 . S
C2103 C2100 1.511 . S
C2103 H2117 0.961 . S
C2103 H2118 0.961 . S
C2103 H2119 0.961 . S
C2104 C2105 1.370 . S
C2104 C2106 1.363 . S
C2104 H2120 0.931 . S
C2105 C2104 1.370 . S
C2105 C2109 1.408 . S
C2106 C2104 1.363 . S
C2106 C2107 1.370 . S
C2106 C2110 1.524 . S
C2107 C2099 1.503 . S
C2107 C2106 1.370 . S
C2107 C2108 1.403 . S
C2108 C2107 1.403 . S
C2108 C2109 1.404 . S
C2108 C2111 1.539 . S
C2109 C2105 1.408 . S
C2109 C2108 1.404 . S
C2109 H2121 0.930 . S
C2110 C2106 1.524 . S
C2110 H2122 0.956 . S
C2110 H2123 0.961 . S
C2110 H2124 0.961 . S
C2111 C2108 1.539 . S
C2111 H2125 0.958 . S
C2111 H2126 0.961 . S
C2111 H2127 0.960 . S
H2112 C2096 0.931 . S
H2113 C2101 0.929 . S
H2114 C2102 0.960 . S
H2115 C2102 0.962 . S
H2116 C2102 0.960 . S
H2117 C2103 0.961 . S
H2118 C2103 0.961 . S
H2119 C2103 0.961 . S
H2120 C2104 0.931 . S
H2121 C2109 0.930 . S
H2122 C2110 0.956 . S
H2123 C2110 0.961 . S
H2124 C2110 0.961 . S
H2125 C2111 0.958 . S
H2126 C2111 0.961 . S
H2127 C2111 0.960 . S
C2128 C2129 1.391 . S
C2128 C2130 1.394 . S
C2128 H2144 0.931 . S
C2129 C2128 1.391 . S
C2129 C2133 1.376 . S
C2130 C2128 1.394 . S
C2130 C2131 1.369 . S
C2130 C2134 1.531 . S
C2131 C2130 1.369 . S
C2131 C2132 1.410 . S
C2131 C2139 1.503 . S
C2132 C2131 1.410 . S
C2132 C2133 1.392 . S
C2132 C2135 1.511 . S
C2133 C2129 1.376 . S
C2133 C2132 1.392 . S
C2133 H2145 0.929 . S
C2134 C2130 1.531 . S
C2134 H2146 0.960 . S
C2134 H2147 0.962 . S
C2134 H2148 0.960 . S
C2135 C2132 1.511 . S
C2135 H2149 0.961 . S
C2135 H2150 0.961 . S
C2135 H2151 0.961 . S
C2136 C2137 1.370 . S
C2136 C2138 1.363 . S
C2136 H2152 0.931 . S
C2137 C2136 1.370 . S
C2137 C2141 1.408 . S
C2138 C2136 1.363 . S
C2138 C2139 1.370 . S
C2138 C2142 1.524 . S
C2139 C2131 1.503 . S
C2139 C2138 1.370 . S
C2139 C2140 1.403 . S
C2140 C2139 1.403 . S
C2140 C2141 1.404 . S
C2140 C2143 1.539 . S
C2141 C2137 1.408 . S
C2141 C2140 1.404 . S
C2141 H2153 0.930 . S
C2142 C2138 1.524 . S
C2142 H2154 0.956 . S
C2142 H2155 0.961 . S
C2142 H2156 0.961 . S
C2143 C2140 1.539 . S
C2143 H2157 0.958 . S
C2143 H2158 0.961 . S
C2143 H2159 0.960 . S
H2144 C2128 0.931 . S
H2145 C2133 0.929 . S
H2146 C2134 0.960 . S
H2147 C2134 0.962 . S
H2148 C2134 0.960 . S
H2149 C2135 0.961 . S
H2150 C2135 0.961 . S
H2151 C2135 0.961 . S
H2152 C2136 0.931 . S
H2153 C2141 0.930 . S
H2154 C2142 0.956 . S
H2155 C2142 0.961 . S
H2156 C2142 0.961 . S
H2157 C2143 0.958 . S
H2158 C2143 0.961 . S
H2159 C2143 0.960 . S
C2160 C2161 1.391 . S
C2160 C2162 1.394 . S
C2160 H2176 0.931 . S
C2161 C2160 1.391 . S
C2161 C2165 1.376 . S
C2162 C2160 1.394 . S
C2162 C2163 1.369 . S
C2162 C2166 1.531 . S
C2163 C2162 1.369 . S
C2163 C2164 1.410 . S
C2163 C2171 1.503 . S
C2164 C2163 1.410 . S
C2164 C2165 1.392 . S
C2164 C2167 1.511 . S
C2165 C2161 1.376 . S
C2165 C2164 1.392 . S
C2165 H2177 0.929 . S
C2166 C2162 1.531 . S
C2166 H2178 0.960 . S
C2166 H2179 0.962 . S
C2166 H2180 0.960 . S
C2167 C2164 1.511 . S
C2167 H2181 0.961 . S
C2167 H2182 0.961 . S
C2167 H2183 0.961 . S
C2168 C2169 1.370 . S
C2168 C2170 1.363 . S
C2168 H2184 0.931 . S
C2169 C2168 1.370 . S
C2169 C2173 1.408 . S
C2170 C2168 1.363 . S
C2170 C2171 1.370 . S
C2170 C2174 1.524 . S
C2171 C2163 1.503 . S
C2171 C2170 1.370 . S
C2171 C2172 1.403 . S
C2172 C2171 1.403 . S
C2172 C2173 1.404 . S
C2172 C2175 1.539 . S
C2173 C2169 1.408 . S
C2173 C2172 1.404 . S
C2173 H2185 0.930 . S
C2174 C2170 1.524 . S
C2174 H2186 0.956 . S
C2174 H2187 0.961 . S
C2174 H2188 0.961 . S
C2175 C2172 1.539 . S
C2175 H2189 0.958 . S
C2175 H2190 0.961 . S
C2175 H2191 0.960 . S
H2176 C2160 0.931 . S
H2177 C2165 0.929 . S
H2178 C2166 0.960 . S
H2179 C2166 0.962 . S
H2180 C2166 0.960 . S
H2181 C2167 0.961 . S
H2182 C2167 0.961 . S
H2183 C2167 0.961 . S
H2184 C2168 0.931 . S
H2185 C2173 0.930 . S
H2186 C2174 0.956 . S
H2187 C2174 0.961 . S
H2188 C2174 0.961 . S
H2189 C2175 0.958 . S
H2190 C2175 0.961 . S
H2191 C2175 0.960 . S
C2192 C2193 1.391 . S
C2192 C2194 1.394 . S
C2192 H2208 0.931 . S
C2193 C2192 1.391 . S
C2193 C2197 1.376 . S
C2194 C2192 1.394 . S
C2194 C2195 1.369 . S
C2194 C2198 1.531 . S
C2195 C2194 1.369 . S
C2195 C2196 1.410 . S
C2195 C2203 1.503 . S
C2196 C2195 1.410 . S
C2196 C2197 1.392 . S
C2196 C2199 1.511 1_545 S
C2197 C2193 1.376 . S
C2197 C2196 1.392 . S
C2197 H2209 0.929 . S
C2198 C2194 1.531 . S
C2198 H2210 0.960 . S
C2198 H2211 0.962 . S
C2198 H2212 0.960 . S
C2199 C2196 1.511 1_565 S
C2199 H2213 0.957 1_565 S
C2199 H2214 0.961 1_565 S
C2199 H2215 0.961 . S
C2200 C2201 1.370 . S
C2200 C2202 1.363 . S
C2200 H2216 0.931 . S
C2201 C2200 1.370 . S
C2201 C2205 1.408 1_545 S
C2202 C2200 1.363 . S
C2202 C2203 1.370 . S
C2202 C2206 1.524 . S
C2203 C2195 1.503 . S
C2203 C2202 1.370 . S
C2203 C2204 1.403 1_545 S
C2204 C2203 1.403 1_565 S
C2204 C2205 1.404 . S
C2204 C2207 1.539 . S
C2205 C2201 1.408 1_565 S
C2205 C2204 1.404 . S
C2205 H2217 0.930 . S
C2206 C2202 1.524 . S
C2206 H2218 0.956 . S
C2206 H2219 0.961 . S
C2206 H2220 0.961 . S
C2207 C2204 1.539 . S
C2207 H2221 0.958 . S
C2207 H2222 0.961 . S
C2207 H2223 0.960 . S
H2208 C2192 0.931 . S
H2209 C2197 0.929 . S
H2210 C2198 0.960 . S
H2211 C2198 0.962 . S
H2212 C2198 0.960 . S
H2213 C2199 0.957 1_545 S
H2214 C2199 0.961 1_545 S
H2215 C2199 0.961 . S
H2216 C2200 0.931 . S
H2217 C2205 0.930 . S
H2218 C2206 0.956 . S
H2219 C2206 0.961 . S
H2220 C2206 0.961 . S
H2221 C2207 0.958 . S
H2222 C2207 0.961 . S
H2223 C2207 0.960 . S
C2224 C2225 1.391 . S
C2224 C2226 1.394 . S
C2224 H2240 0.931 . S
C2225 C2224 1.391 . S
C2225 C2229 1.376 . S
C2226 C2224 1.394 . S
C2226 C2227 1.369 . S
C2226 C2230 1.531 . S
C2227 C2226 1.369 . S
C2227 C2228 1.410 . S
C2227 C2235 1.503 . S
C2228 C2227 1.410 . S
C2228 C2229 1.392 . S
C2228 C2231 1.511 . S
C2229 C2225 1.376 . S
C2229 C2228 1.392 . S
C2229 H2241 0.929 . S
C2230 C2226 1.531 . S
C2230 H2242 0.960 . S
C2230 H2243 0.962 . S
C2230 H2244 0.960 . S
C2231 C2228 1.511 . S
C2231 H2245 0.961 . S
C2231 H2246 0.961 . S
C2231 H2247 0.961 . S
C2232 C2233 1.370 . S
C2232 C2234 1.363 . S
C2232 H2248 0.931 . S
C2233 C2232 1.370 . S
C2233 C2237 1.408 . S
C2234 C2232 1.363 . S
C2234 C2235 1.370 . S
C2234 C2238 1.524 . S
C2235 C2227 1.503 . S
C2235 C2234 1.370 . S
C2235 C2236 1.403 . S
C2236 C2235 1.403 . S
C2236 C2237 1.404 . S
C2236 C2239 1.539 . S
C2237 C2233 1.408 . S
C2237 C2236 1.404 . S
C2237 H2249 0.930 . S
C2238 C2234 1.524 . S
C2238 H2250 0.956 . S
C2238 H2251 0.961 . S
C2238 H2252 0.961 . S
C2239 C2236 1.539 . S
C2239 H2253 0.958 . S
C2239 H2254 0.961 . S
C2239 H2255 0.960 . S
H2240 C2224 0.931 . S
H2241 C2229 0.929 . S
H2242 C2230 0.960 . S
H2243 C2230 0.962 . S
H2244 C2230 0.960 . S
H2245 C2231 0.961 . S
H2246 C2231 0.961 . S
H2247 C2231 0.961 . S
H2248 C2232 0.931 . S
H2249 C2237 0.930 . S
H2250 C2238 0.956 . S
H2251 C2238 0.961 . S
H2252 C2238 0.961 . S
H2253 C2239 0.958 . S
H2254 C2239 0.961 . S
H2255 C2239 0.960 . S
C2256 C2257 1.391 . S
C2256 C2258 1.394 . S
C2256 H2272 0.931 . S
C2257 C2256 1.391 . S
C2257 C2261 1.376 . S
C2258 C2256 1.394 . S
C2258 C2259 1.369 . S
C2258 C2262 1.531 . S
C2259 C2258 1.369 . S
C2259 C2260 1.410 . S
C2259 C2267 1.503 . S
C2260 C2259 1.410 . S
C2260 C2261 1.392 . S
C2260 C2263 1.511 . S
C2261 C2257 1.376 . S
C2261 C2260 1.392 . S
C2261 H2273 0.929 . S
C2262 C2258 1.531 . S
C2262 H2274 0.960 . S
C2262 H2275 0.962 . S
C2262 H2276 0.960 . S
C2263 C2260 1.511 . S
C2263 H2277 0.961 . S
C2263 H2278 0.961 . S
C2263 H2279 0.961 . S
C2264 C2265 1.370 . S
C2264 C2266 1.363 . S
C2264 H2280 0.931 . S
C2265 C2264 1.370 . S
C2265 C2269 1.408 . S
C2266 C2264 1.363 . S
C2266 C2267 1.370 . S
C2266 C2270 1.524 . S
C2267 C2259 1.503 . S
C2267 C2266 1.370 . S
C2267 C2268 1.403 . S
C2268 C2267 1.403 . S
C2268 C2269 1.404 . S
C2268 C2271 1.539 . S
C2269 C2265 1.408 . S
C2269 C2268 1.404 . S
C2269 H2281 0.930 . S
C2270 C2266 1.524 . S
C2270 H2282 0.956 . S
C2270 H2283 0.961 . S
C2270 H2284 0.961 . S
C2271 C2268 1.539 . S
C2271 H2285 0.958 . S
C2271 H2286 0.961 . S
C2271 H2287 0.960 . S
H2272 C2256 0.931 . S
H2273 C2261 0.929 . S
H2274 C2262 0.960 . S
H2275 C2262 0.962 . S
H2276 C2262 0.960 . S
H2277 C2263 0.961 . S
H2278 C2263 0.961 . S
H2279 C2263 0.961 . S
H2280 C2264 0.931 . S
H2281 C2269 0.930 . S
H2282 C2270 0.956 . S
H2283 C2270 0.961 . S
H2284 C2270 0.961 . S
H2285 C2271 0.958 . S
H2286 C2271 0.961 . S
H2287 C2271 0.960 . S
C2288 C2289 1.391 . S
C2288 C2290 1.394 . S
C2288 H2304 0.931 . S
C2289 C2288 1.391 . S
C2289 C2293 1.376 . S
C2290 C2288 1.394 . S
C2290 C2291 1.369 . S
C2290 C2294 1.531 . S
C2291 C2290 1.369 . S
C2291 C2292 1.410 . S
C2291 C2299 1.503 . S
C2292 C2291 1.410 . S
C2292 C2293 1.392 . S
C2292 C2295 1.511 . S
C2293 C2289 1.376 . S
C2293 C2292 1.392 . S
C2293 H2305 0.929 . S
C2294 C2290 1.531 . S
C2294 H2306 0.960 . S
C2294 H2307 0.962 . S
C2294 H2308 0.960 . S
C2295 C2292 1.511 . S
C2295 H2309 0.961 . S
C2295 H2310 0.961 . S
C2295 H2311 0.961 . S
C2296 C2297 1.370 . S
C2296 C2298 1.363 . S
C2296 H2312 0.931 . S
C2297 C2296 1.370 . S
C2297 C2301 1.408 . S
C2298 C2296 1.363 . S
C2298 C2299 1.370 . S
C2298 C2302 1.524 . S
C2299 C2291 1.503 . S
C2299 C2298 1.370 . S
C2299 C2300 1.403 . S
C2300 C2299 1.403 . S
C2300 C2301 1.404 . S
C2300 C2303 1.539 . S
C2301 C2297 1.408 . S
C2301 C2300 1.404 . S
C2301 H2313 0.930 . S
C2302 C2298 1.524 . S
C2302 H2314 0.956 . S
C2302 H2315 0.961 . S
C2302 H2316 0.961 . S
C2303 C2300 1.539 . S
C2303 H2317 0.958 . S
C2303 H2318 0.961 . S
C2303 H2319 0.960 . S
H2304 C2288 0.931 . S
H2305 C2293 0.929 . S
H2306 C2294 0.960 . S
H2307 C2294 0.962 . S
H2308 C2294 0.960 . S
H2309 C2295 0.961 . S
H2310 C2295 0.961 . S
H2311 C2295 0.961 . S
H2312 C2296 0.931 . S
H2313 C2301 0.930 . S
H2314 C2302 0.956 . S
H2315 C2302 0.961 . S
H2316 C2302 0.961 . S
H2317 C2303 0.958 . S
H2318 C2303 0.961 . S
H2319 C2303 0.960 . S
C2320 C2321 1.391 . S
C2320 C2322 1.394 . S
C2320 H2336 0.931 . S
C2321 C2320 1.391 . S
C2321 C2325 1.376 . S
C2322 C2320 1.394 . S
C2322 C2323 1.369 . S
C2322 C2326 1.531 . S
C2323 C2322 1.369 . S
C2323 C2324 1.410 . S
C2323 C2331 1.503 . S
C2324 C2323 1.410 . S
C2324 C2325 1.392 . S
C2324 C2327 1.511 1_545 S
C2325 C2321 1.376 . S
C2325 C2324 1.392 . S
C2325 H2337 0.929 . S
C2326 C2322 1.531 . S
C2326 H2338 0.960 . S
C2326 H2339 0.962 . S
C2326 H2340 0.960 . S
C2327 C2324 1.511 1_565 S
C2327 H2341 0.961 . S
C2327 H2342 0.961 . S
C2327 H2343 0.961 1_565 S
C2328 C2329 1.370 . S
C2328 C2330 1.363 . S
C2328 H2344 0.931 1_545 S
C2329 C2328 1.370 . S
C2329 C2333 1.408 . S
C2330 C2328 1.363 . S
C2330 C2331 1.370 . S
C2330 C2334 1.524 1_545 S
C2331 C2323 1.503 . S
C2331 C2330 1.370 . S
C2331 C2332 1.403 . S
C2332 C2331 1.403 . S
C2332 C2333 1.404 . S
C2332 C2335 1.539 . S
C2333 C2329 1.408 . S
C2333 C2332 1.404 . S
C2333 H2345 0.930 . S
C2334 C2330 1.524 1_565 S
C2334 H2346 0.977 . S
C2334 H2347 0.961 . S
C2334 H2348 0.961 . S
C2335 C2332 1.539 . S
C2335 H2349 0.958 . S
C2335 H2350 0.961 . S
C2335 H2351 0.960 . S
H2336 C2320 0.931 . S
H2337 C2325 0.929 . S
H2338 C2326 0.960 . S
H2339 C2326 0.962 . S
H2340 C2326 0.960 . S
H2341 C2327 0.961 . S
H2342 C2327 0.961 . S
H2343 C2327 0.961 1_545 S
H2344 C2328 0.931 1_565 S
H2345 C2333 0.930 . S
H2346 C2334 0.977 . S
H2347 C2334 0.961 . S
H2348 C2334 0.961 . S
H2349 C2335 0.958 . S
H2350 C2335 0.961 . S
H2351 C2335 0.960 . S
C2352 C2353 1.391 . S
C2352 C2354 1.394 . S
C2352 H2368 0.931 . S
C2353 C2352 1.391 . S
C2353 C2357 1.376 . S
C2354 C2352 1.394 . S
C2354 C2355 1.369 . S
C2354 C2358 1.531 . S
C2355 C2354 1.369 . S
C2355 C2356 1.410 . S
C2355 C2363 1.503 . S
C2356 C2355 1.410 . S
C2356 C2357 1.392 . S
C2356 C2359 1.511 . S
C2357 C2353 1.376 . S
C2357 C2356 1.392 . S
C2357 H2369 0.929 . S
C2358 C2354 1.531 . S
C2358 H2370 0.960 . S
C2358 H2371 0.962 . S
C2358 H2372 0.960 . S
C2359 C2356 1.511 . S
C2359 H2373 0.961 . S
C2359 H2374 0.961 . S
C2359 H2375 0.961 . S
C2360 C2361 1.370 . S
C2360 C2362 1.363 . S
C2360 H2376 0.931 . S
C2361 C2360 1.370 . S
C2361 C2365 1.408 . S
C2362 C2360 1.363 . S
C2362 C2363 1.370 . S
C2362 C2366 1.524 . S
C2363 C2355 1.503 . S
C2363 C2362 1.370 . S
C2363 C2364 1.403 . S
C2364 C2363 1.403 . S
C2364 C2365 1.404 . S
C2364 C2367 1.539 . S
C2365 C2361 1.408 . S
C2365 C2364 1.404 . S
C2365 H2377 0.930 . S
C2366 C2362 1.524 . S
C2366 H2378 0.956 . S
C2366 H2379 0.961 . S
C2366 H2380 0.961 . S
C2367 C2364 1.539 . S
C2367 H2381 0.958 . S
C2367 H2382 0.961 . S
C2367 H2383 0.960 . S
H2368 C2352 0.931 . S
H2369 C2357 0.929 . S
H2370 C2358 0.960 . S
H2371 C2358 0.962 . S
H2372 C2358 0.960 . S
H2373 C2359 0.961 . S
H2374 C2359 0.961 . S
H2375 C2359 0.961 . S
H2376 C2360 0.931 . S
H2377 C2365 0.930 . S
H2378 C2366 0.956 . S
H2379 C2366 0.961 . S
H2380 C2366 0.961 . S
H2381 C2367 0.958 . S
H2382 C2367 0.961 . S
H2383 C2367 0.960 . S
C2384 C2385 1.391 . S
C2384 C2386 1.394 . S
C2384 H2400 0.931 . S
C2385 C2384 1.391 . S
C2385 C2389 1.376 . S
C2386 C2384 1.394 . S
C2386 C2387 1.369 . S
C2386 C2390 1.531 . S
C2387 C2386 1.369 . S
C2387 C2388 1.410 . S
C2387 C2395 1.503 . S
C2388 C2387 1.410 . S
C2388 C2389 1.392 . S
C2388 C2391 1.511 . S
C2389 C2385 1.376 . S
C2389 C2388 1.392 . S
C2389 H2401 0.929 . S
C2390 C2386 1.531 . S
C2390 H2402 0.960 . S
C2390 H2403 0.962 . S
C2390 H2404 0.960 . S
C2391 C2388 1.511 . S
C2391 H2405 0.961 . S
C2391 H2406 0.961 . S
C2391 H2407 0.961 . S
C2392 C2393 1.370 . S
C2392 C2394 1.363 . S
C2392 H2408 0.931 . S
C2393 C2392 1.370 . S
C2393 C2397 1.408 . S
C2394 C2392 1.363 . S
C2394 C2395 1.370 . S
C2394 C2398 1.524 . S
C2395 C2387 1.503 . S
C2395 C2394 1.370 . S
C2395 C2396 1.403 . S
C2396 C2395 1.403 . S
C2396 C2397 1.404 . S
C2396 C2399 1.539 . S
C2397 C2393 1.408 . S
C2397 C2396 1.404 . S
C2397 H2409 0.930 . S
C2398 C2394 1.524 . S
C2398 H2410 0.956 . S
C2398 H2411 0.961 . S
C2398 H2412 0.961 . S
C2399 C2396 1.539 . S
C2399 H2413 0.958 . S
C2399 H2414 0.961 . S
C2399 H2415 0.960 . S
H2400 C2384 0.931 . S
H2401 C2389 0.929 . S
H2402 C2390 0.960 . S
H2403 C2390 0.962 . S
H2404 C2390 0.960 . S
H2405 C2391 0.961 . S
H2406 C2391 0.961 . S
H2407 C2391 0.961 . S
H2408 C2392 0.931 . S
H2409 C2397 0.930 . S
H2410 C2398 0.956 . S
H2411 C2398 0.961 . S
H2412 C2398 0.961 . S
H2413 C2399 0.958 . S
H2414 C2399 0.961 . S
H2415 C2399 0.960 . S
C2416 C2417 1.391 . S
C2416 C2418 1.394 . S
C2416 H2432 0.931 . S
C2417 C2416 1.391 . S
C2417 C2421 1.376 . S
C2418 C2416 1.394 . S
C2418 C2419 1.369 . S
C2418 C2422 1.531 . S
C2419 C2418 1.369 . S
C2419 C2420 1.410 . S
C2419 C2427 1.503 . S
C2420 C2419 1.410 . S
C2420 C2421 1.392 . S
C2420 C2423 1.511 . S
C2421 C2417 1.376 . S
C2421 C2420 1.392 . S
C2421 H2433 0.929 . S
C2422 C2418 1.531 . S
C2422 H2434 0.960 . S
C2422 H2435 0.962 . S
C2422 H2436 0.960 . S
C2423 C2420 1.511 . S
C2423 H2437 0.961 . S
C2423 H2438 0.961 . S
C2423 H2439 0.961 . S
C2424 C2425 1.370 . S
C2424 C2426 1.363 . S
C2424 H2440 0.931 . S
C2425 C2424 1.370 . S
C2425 C2429 1.408 . S
C2426 C2424 1.363 . S
C2426 C2427 1.370 . S
C2426 C2430 1.524 . S
C2427 C2419 1.503 . S
C2427 C2426 1.370 . S
C2427 C2428 1.403 . S
C2428 C2427 1.403 . S
C2428 C2429 1.404 . S
C2428 C2431 1.539 . S
C2429 C2425 1.408 . S
C2429 C2428 1.404 . S
C2429 H2441 0.930 . S
C2430 C2426 1.524 . S
C2430 H2442 0.956 . S
C2430 H2443 0.961 . S
C2430 H2444 0.961 . S
C2431 C2428 1.539 . S
C2431 H2445 0.958 . S
C2431 H2446 0.961 . S
C2431 H2447 0.960 . S
H2432 C2416 0.931 . S
H2433 C2421 0.929 . S
H2434 C2422 0.960 . S
H2435 C2422 0.962 . S
H2436 C2422 0.960 . S
H2437 C2423 0.961 . S
H2438 C2423 0.961 . S
H2439 C2423 0.961 . S
H2440 C2424 0.931 . S
H2441 C2429 0.930 . S
H2442 C2430 0.956 . S
H2443 C2430 0.961 . S
H2444 C2430 0.961 . S
H2445 C2431 0.958 . S
H2446 C2431 0.961 . S
H2447 C2431 0.960 . S
C2448 C2449 1.391 . S
C2448 C2450 1.394 . S
C2448 H2464 0.931 . S
C2449 C2448 1.391 . S
C2449 C2453 1.376 . S
C2450 C2448 1.394 . S
C2450 C2451 1.369 . S
C2450 C2454 1.531 1_655 S
C2451 C2450 1.369 . S
C2451 C2452 1.410 . S
C2451 C2459 1.503 . S
C2452 C2451 1.410 . S
C2452 C2453 1.392 . S
C2452 C2455 1.511 . S
C2453 C2449 1.376 . S
C2453 C2452 1.392 . S
C2453 H2465 0.929 . S
C2454 C2450 1.531 1_455 S
C2454 H2466 0.960 . S
C2454 H2467 0.962 1_455 S
C2454 H2468 0.960 . S
C2455 C2452 1.511 . S
C2455 H2469 0.961 . S
C2455 H2470 0.961 . S
C2455 H2471 0.961 . S
C2456 C2457 1.417 . S
C2456 C2458 1.363 . S
C2456 H2472 0.931 . S
C2457 C2456 1.417 . S
C2457 C2461 1.367 1_655 S
C2458 C2456 1.363 . S
C2458 C2459 1.370 . S
C2458 C2462 1.524 . S
C2459 C2451 1.503 . S
C2459 C2458 1.370 . S
C2459 C2460 1.403 1_655 S
C2460 C2459 1.403 1_455 S
C2460 C2461 1.404 . S
C2460 C2463 1.539 . S
C2461 C2457 1.367 1_455 S
C2461 C2460 1.404 . S
C2461 H2473 0.930 . S
C2462 C2458 1.524 . S
C2462 H2474 0.956 . S
C2462 H2475 0.961 . S
C2462 H2476 0.961 . S
C2463 C2460 1.539 . S
C2463 H2477 0.958 . S
C2463 H2478 0.961 . S
C2463 H2479 0.960 . S
H2464 C2448 0.931 . S
H2465 C2453 0.929 . S
H2466 C2454 0.960 . S
H2467 C2454 0.962 1_655 S
H2468 C2454 0.960 . S
H2469 C2455 0.961 . S
H2470 C2455 0.961 . S
H2471 C2455 0.961 . S
H2472 C2456 0.931 . S
H2473 C2461 0.930 . S
H2474 C2462 0.956 . S
H2475 C2462 0.961 . S
H2476 C2462 0.961 . S
H2477 C2463 0.958 . S
H2478 C2463 0.961 . S
H2479 C2463 0.960 . S
C2480 C2481 1.391 . S
C2480 C2482 1.394 . S
C2480 H2496 0.931 . S
C2481 C2480 1.391 . S
C2481 C2485 1.376 . S
C2482 C2480 1.394 . S
C2482 C2483 1.369 . S
C2482 C2486 1.531 . S
C2483 C2482 1.369 . S
C2483 C2484 1.410 . S
C2483 C2491 1.503 . S
C2484 C2483 1.410 . S
C2484 C2485 1.392 . S
C2484 C2487 1.511 . S
C2485 C2481 1.376 . S
C2485 C2484 1.392 . S
C2485 H2497 0.929 . S
C2486 C2482 1.531 . S
C2486 H2498 0.960 . S
C2486 H2499 0.962 . S
C2486 H2500 0.960 . S
C2487 C2484 1.511 . S
C2487 H2501 0.961 . S
C2487 H2502 0.961 . S
C2487 H2503 0.961 . S
C2488 C2489 1.370 . S
C2488 C2490 1.363 . S
C2488 H2504 0.931 . S
C2489 C2488 1.370 . S
C2489 C2493 1.408 . S
C2490 C2488 1.363 . S
C2490 C2491 1.370 . S
C2490 C2494 1.524 . S
C2491 C2483 1.503 . S
C2491 C2490 1.370 . S
C2491 C2492 1.403 . S
C2492 C2491 1.403 . S
C2492 C2493 1.404 . S
C2492 C2495 1.539 . S
C2493 C2489 1.408 . S
C2493 C2492 1.404 . S
C2493 H2505 0.930 . S
C2494 C2490 1.524 . S
C2494 H2506 0.956 . S
C2494 H2507 0.961 . S
C2494 H2508 0.961 . S
C2495 C2492 1.539 . S
C2495 H2509 0.958 . S
C2495 H2510 0.961 . S
C2495 H2511 0.960 . S
H2496 C2480 0.931 . S
H2497 C2485 0.929 . S
H2498 C2486 0.960 . S
H2499 C2486 0.962 . S
H2500 C2486 0.960 . S
H2501 C2487 0.961 . S
H2502 C2487 0.961 . S
H2503 C2487 0.961 . S
H2504 C2488 0.931 . S
H2505 C2493 0.930 . S
H2506 C2494 0.956 . S
H2507 C2494 0.961 . S
H2508 C2494 0.961 . S
H2509 C2495 0.958 . S
H2510 C2495 0.961 . S
H2511 C2495 0.960 . S
C2512 C2513 1.391 . S
C2512 C2514 1.400 . S
C2512 H2528 0.931 1_455 S
C2513 C2512 1.391 . S
C2513 C2517 1.376 . S
C2514 C2512 1.400 . S
C2514 C2515 1.407 . S
C2514 C2518 1.487 1_455 S
C2515 C2514 1.407 . S
C2515 C2516 1.410 . S
C2515 C2523 1.503 . S
C2516 C2515 1.410 . S
C2516 C2517 1.392 . S
C2516 C2519 1.511 . S
C2517 C2513 1.376 . S
C2517 C2516 1.392 . S
C2517 H2529 0.929 . S
C2518 C2514 1.487 1_655 S
C2518 H2530 0.960 . S
C2518 H2531 0.962 . S
C2518 H2532 0.960 . S
C2519 C2516 1.511 . S
C2519 H2533 0.961 . S
C2519 H2534 0.961 . S
C2519 H2535 0.961 . S
C2520 C2521 1.370 . S
C2520 C2522 1.363 . S
C2520 H2536 0.931 . S
C2521 C2520 1.370 . S
C2521 C2525 1.408 . S
C2522 C2520 1.363 . S
C2522 C2523 1.370 . S
C2522 C2526 1.524 . S
C2523 C2515 1.503 . S
C2523 C2522 1.370 . S
C2523 C2524 1.403 . S
C2524 C2523 1.403 . S
C2524 C2525 1.404 . S
C2524 C2527 1.539 . S
C2525 C2521 1.408 . S
C2525 C2524 1.404 . S
C2525 H2537 0.930 . S
C2526 C2522 1.524 . S
C2526 H2538 0.956 1_455 S
C2526 H2539 0.961 . S
C2526 H2540 0.961 . S
C2527 C2524 1.539 . S
C2527 H2541 0.958 . S
C2527 H2542 0.961 . S
C2527 H2543 0.960 . S
H2528 C2512 0.931 1_655 S
H2529 C2517 0.929 . S
H2530 C2518 0.960 . S
H2531 C2518 0.962 . S
H2532 C2518 0.960 . S
H2533 C2519 0.961 . S
H2534 C2519 0.961 . S
H2535 C2519 0.961 . S
H2536 C2520 0.931 . S
H2537 C2525 0.930 . S
H2538 C2526 0.956 1_655 S
H2539 C2526 0.961 . S
H2540 C2526 0.961 . S
H2541 C2527 0.958 . S
H2542 C2527 0.961 . S
H2543 C2527 0.960 . S
C2544 C2545 1.391 . S
C2544 C2546 1.394 . S
C2544 H2560 0.931 . S
C2545 C2544 1.391 . S
C2545 C2549 1.376 . S
C2546 C2544 1.394 . S
C2546 C2547 1.369 . S
C2546 C2550 1.531 . S
C2547 C2546 1.369 . S
C2547 C2548 1.410 . S
C2547 C2555 1.503 . S
C2548 C2547 1.410 . S
C2548 C2549 1.392 . S
C2548 C2551 1.511 . S
C2549 C2545 1.376 . S
C2549 C2548 1.392 . S
C2549 H2561 0.929 . S
C2550 C2546 1.531 . S
C2550 H2562 0.960 . S
C2550 H2563 0.962 . S
C2550 H2564 0.960 . S
C2551 C2548 1.511 . S
C2551 H2565 0.961 . S
C2551 H2566 0.961 . S
C2551 H2567 0.961 . S
C2552 C2553 1.370 . S
C2552 C2554 1.363 . S
C2552 H2568 0.931 . S
C2553 C2552 1.370 . S
C2553 C2557 1.408 . S
C2554 C2552 1.363 . S
C2554 C2555 1.370 . S
C2554 C2558 1.524 . S
C2555 C2547 1.503 . S
C2555 C2554 1.370 . S
C2555 C2556 1.403 . S
C2556 C2555 1.403 . S
C2556 C2557 1.404 . S
C2556 C2559 1.539 . S
C2557 C2553 1.408 . S
C2557 C2556 1.404 . S
C2557 H2569 0.930 . S
C2558 C2554 1.524 . S
C2558 H2570 0.956 . S
C2558 H2571 0.961 . S
C2558 H2572 0.961 . S
C2559 C2556 1.539 . S
C2559 H2573 0.958 . S
C2559 H2574 0.961 . S
C2559 H2575 0.960 . S
H2560 C2544 0.931 . S
H2561 C2549 0.929 . S
H2562 C2550 0.960 . S
H2563 C2550 0.962 . S
H2564 C2550 0.960 . S
H2565 C2551 0.961 . S
H2566 C2551 0.961 . S
H2567 C2551 0.961 . S
H2568 C2552 0.931 . S
H2569 C2557 0.930 . S
H2570 C2558 0.956 . S
H2571 C2558 0.961 . S
H2572 C2558 0.961 . S
H2573 C2559 0.958 . S
H2574 C2559 0.961 . S
H2575 C2559 0.960 . S
C2576 C2577 1.391 . S
C2576 C2578 1.394 . S
C2576 H2592 0.931 . S
C2577 C2576 1.391 . S
C2577 C2581 1.376 . S
C2578 C2576 1.394 . S
C2578 C2579 1.369 . S
C2578 C2582 1.531 . S
C2579 C2578 1.369 . S
C2579 C2580 1.410 . S
C2579 C2587 1.503 . S
C2580 C2579 1.410 . S
C2580 C2581 1.392 . S
C2580 C2583 1.511 . S
C2581 C2577 1.376 . S
C2581 C2580 1.392 . S
C2581 H2593 0.929 . S
C2582 C2578 1.531 . S
C2582 H2594 0.960 . S
C2582 H2595 0.962 . S
C2582 H2596 0.960 . S
C2583 C2580 1.511 . S
C2583 H2597 0.961 . S
C2583 H2598 0.961 . S
C2583 H2599 0.961 . S
C2584 C2585 1.370 . S
C2584 C2586 1.363 . S
C2584 H2600 0.931 . S
C2585 C2584 1.370 . S
C2585 C2589 1.408 . S
C2586 C2584 1.363 . S
C2586 C2587 1.370 . S
C2586 C2590 1.524 . S
C2587 C2579 1.503 . S
C2587 C2586 1.370 . S
C2587 C2588 1.403 . S
C2588 C2587 1.403 . S
C2588 C2589 1.404 . S
C2588 C2591 1.539 . S
C2589 C2585 1.408 . S
C2589 C2588 1.404 . S
C2589 H2601 0.930 . S
C2590 C2586 1.524 . S
C2590 H2602 0.956 . S
C2590 H2603 0.961 . S
C2590 H2604 0.961 . S
C2591 C2588 1.539 . S
C2591 H2605 0.958 . S
C2591 H2606 0.961 . S
C2591 H2607 0.960 . S
H2592 C2576 0.931 . S
H2593 C2581 0.929 . S
H2594 C2582 0.960 . S
H2595 C2582 0.962 . S
H2596 C2582 0.960 . S
H2597 C2583 0.961 . S
H2598 C2583 0.961 . S
H2599 C2583 0.961 . S
H2600 C2584 0.931 . S
H2601 C2589 0.930 . S
H2602 C2590 0.956 . S
H2603 C2590 0.961 . S
H2604 C2590 0.961 . S
H2605 C2591 0.958 . S
H2606 C2591 0.961 . S
H2607 C2591 0.960 . S
C2608 C2609 1.391 . S
C2608 C2610 1.394 . S
C2608 H2624 0.931 . S
C2609 C2608 1.391 . S
C2609 C2613 1.376 . S
C2610 C2608 1.394 . S
C2610 C2611 1.369 . S
C2610 C2614 1.531 . S
C2611 C2610 1.369 . S
C2611 C2612 1.410 . S
C2611 C2619 1.503 . S
C2612 C2611 1.410 . S
C2612 C2613 1.392 . S
C2612 C2615 1.511 . S
C2613 C2609 1.376 . S
C2613 C2612 1.392 . S
C2613 H2625 0.929 . S
C2614 C2610 1.531 . S
C2614 H2626 0.960 . S
C2614 H2627 0.962 . S
C2614 H2628 0.960 . S
C2615 C2612 1.511 . S
C2615 H2629 0.961 . S
C2615 H2630 0.961 . S
C2615 H2631 0.961 . S
C2616 C2617 1.370 . S
C2616 C2618 1.363 . S
C2616 H2632 0.931 . S
C2617 C2616 1.370 . S
C2617 C2621 1.408 . S
C2618 C2616 1.363 . S
C2618 C2619 1.370 . S
C2618 C2622 1.524 . S
C2619 C2611 1.503 . S
C2619 C2618 1.370 . S
C2619 C2620 1.403 . S
C2620 C2619 1.403 . S
C2620 C2621 1.404 . S
C2620 C2623 1.539 . S
C2621 C2617 1.408 . S
C2621 C2620 1.404 . S
C2621 H2633 0.930 . S
C2622 C2618 1.524 . S
C2622 H2634 0.956 . S
C2622 H2635 0.961 . S
C2622 H2636 0.961 . S
C2623 C2620 1.539 . S
C2623 H2637 0.958 . S
C2623 H2638 0.961 . S
C2623 H2639 0.960 . S
H2624 C2608 0.931 . S
H2625 C2613 0.929 . S
H2626 C2614 0.960 . S
H2627 C2614 0.962 . S
H2628 C2614 0.960 . S
H2629 C2615 0.961 . S
H2630 C2615 0.961 . S
H2631 C2615 0.961 . S
H2632 C2616 0.931 . S
H2633 C2621 0.930 . S
H2634 C2622 0.956 . S
H2635 C2622 0.961 . S
H2636 C2622 0.961 . S
H2637 C2623 0.958 . S
H2638 C2623 0.961 . S
H2639 C2623 0.960 . S
C2640 C2641 1.391 . S
C2640 C2642 1.394 . S
C2640 H2656 0.931 . S
C2641 C2640 1.391 . S
C2641 C2645 1.376 . S
C2642 C2640 1.394 . S
C2642 C2643 1.369 . S
C2642 C2646 1.531 . S
C2643 C2642 1.369 . S
C2643 C2644 1.410 . S
C2643 C2651 1.503 . S
C2644 C2643 1.410 . S
C2644 C2645 1.392 . S
C2644 C2647 1.511 . S
C2645 C2641 1.376 . S
C2645 C2644 1.392 . S
C2645 H2657 0.929 . S
C2646 C2642 1.531 . S
C2646 H2658 0.960 . S
C2646 H2659 0.962 . S
C2646 H2660 0.960 . S
C2647 C2644 1.511 . S
C2647 H2661 0.961 . S
C2647 H2662 0.961 . S
C2647 H2663 0.961 . S
C2648 C2649 1.370 . S
C2648 C2650 1.363 . S
C2648 H2664 0.931 . S
C2649 C2648 1.370 . S
C2649 C2653 1.408 . S
C2650 C2648 1.363 . S
C2650 C2651 1.370 . S
C2650 C2654 1.524 . S
C2651 C2643 1.503 . S
C2651 C2650 1.370 . S
C2651 C2652 1.403 . S
C2652 C2651 1.403 . S
C2652 C2653 1.404 . S
C2652 C2655 1.539 . S
C2653 C2649 1.408 . S
C2653 C2652 1.404 . S
C2653 H2665 0.930 . S
C2654 C2650 1.524 . S
C2654 H2666 0.956 . S
C2654 H2667 0.961 . S
C2654 H2668 0.961 . S
C2655 C2652 1.539 . S
C2655 H2669 0.958 . S
C2655 H2670 0.961 . S
C2655 H2671 0.960 . S
H2656 C2640 0.931 . S
H2657 C2645 0.929 . S
H2658 C2646 0.960 . S
H2659 C2646 0.962 . S
H2660 C2646 0.960 . S
H2661 C2647 0.961 . S
H2662 C2647 0.961 . S
H2663 C2647 0.961 . S
H2664 C2648 0.931 . S
H2665 C2653 0.930 . S
H2666 C2654 0.956 . S
H2667 C2654 0.961 . S
H2668 C2654 0.961 . S
H2669 C2655 0.958 . S
H2670 C2655 0.961 . S
H2671 C2655 0.960 . S
C2672 C2673 1.391 . S
C2672 C2674 1.394 . S
C2672 H2688 0.931 . S
C2673 C2672 1.391 . S
C2673 C2677 1.376 . S
C2674 C2672 1.394 . S
C2674 C2675 1.369 . S
C2674 C2678 1.531 . S
C2675 C2674 1.369 . S
C2675 C2676 1.410 . S
C2675 C2683 1.503 . S
C2676 C2675 1.410 . S
C2676 C2677 1.392 . S
C2676 C2679 1.511 . S
C2677 C2673 1.376 . S
C2677 C2676 1.392 . S
C2677 H2689 0.929 . S
C2678 C2674 1.531 . S
C2678 H2690 0.960 . S
C2678 H2691 0.962 . S
C2678 H2692 0.960 . S
C2679 C2676 1.511 . S
C2679 H2693 0.961 . S
C2679 H2694 0.961 . S
C2679 H2695 0.961 . S
C2680 C2681 1.370 . S
C2680 C2682 1.363 . S
C2680 H2696 0.931 . S
C2681 C2680 1.370 . S
C2681 C2685 1.408 . S
C2682 C2680 1.363 . S
C2682 C2683 1.370 . S
C2682 C2686 1.524 . S
C2683 C2675 1.503 . S
C2683 C2682 1.370 . S
C2683 C2684 1.403 . S
C2684 C2683 1.403 . S
C2684 C2685 1.404 . S
C2684 C2687 1.539 . S
C2685 C2681 1.408 . S
C2685 C2684 1.404 . S
C2685 H2697 0.930 . S
C2686 C2682 1.524 . S
C2686 H2698 0.956 . S
C2686 H2699 0.961 . S
C2686 H2700 0.961 . S
C2687 C2684 1.539 . S
C2687 H2701 0.958 . S
C2687 H2702 0.961 . S
C2687 H2703 0.960 . S
H2688 C2672 0.931 . S
H2689 C2677 0.929 . S
H2690 C2678 0.960 . S
H2691 C2678 0.962 . S
H2692 C2678 0.960 . S
H2693 C2679 0.961 . S
H2694 C2679 0.961 . S
H2695 C2679 0.961 . S
H2696 C2680 0.931 . S
H2697 C2685 0.930 . S
H2698 C2686 0.956 . S
H2699 C2686 0.961 . S
H2700 C2686 0.961 . S
H2701 C2687 0.958 . S
H2702 C2687 0.961 . S
H2703 C2687 0.960 . S
C2704 C2705 1.391 . S
C2704 C2706 1.394 . S
C2704 H2720 0.931 . S
C2705 C2704 1.391 . S
C2705 C2709 1.376 . S
C2706 C2704 1.394 . S
C2706 C2707 1.369 . S
C2706 C2710 1.531 . S
C2707 C2706 1.369 . S
C2707 C2708 1.410 . S
C2707 C2715 1.503 . S
C2708 C2707 1.410 . S
C2708 C2709 1.392 . S
C2708 C2711 1.511 . S
C2709 C2705 1.376 . S
C2709 C2708 1.392 . S
C2709 H2721 0.929 . S
C2710 C2706 1.531 . S
C2710 H2722 0.960 . S
C2710 H2723 0.962 . S
C2710 H2724 0.960 . S
C2711 C2708 1.511 . S
C2711 H2725 0.961 . S
C2711 H2726 0.961 . S
C2711 H2727 0.961 . S
C2712 C2713 1.370 . S
C2712 C2714 1.363 . S
C2712 H2728 0.931 . S
C2713 C2712 1.370 . S
C2713 C2717 1.408 . S
C2714 C2712 1.363 . S
C2714 C2715 1.370 . S
C2714 C2718 1.524 . S
C2715 C2707 1.503 . S
C2715 C2714 1.370 . S
C2715 C2716 1.403 . S
C2716 C2715 1.403 . S
C2716 C2717 1.404 . S
C2716 C2719 1.539 . S
C2717 C2713 1.408 . S
C2717 C2716 1.404 . S
C2717 H2729 0.930 . S
C2718 C2714 1.524 . S
C2718 H2730 0.956 . S
C2718 H2731 0.961 . S
C2718 H2732 0.961 . S
C2719 C2716 1.539 . S
C2719 H2733 0.958 . S
C2719 H2734 0.961 . S
C2719 H2735 0.960 . S
H2720 C2704 0.931 . S
H2721 C2709 0.929 . S
H2722 C2710 0.960 . S
H2723 C2710 0.962 . S
H2724 C2710 0.960 . S
H2725 C2711 0.961 . S
H2726 C2711 0.961 . S
H2727 C2711 0.961 . S
H2728 C2712 0.931 . S
H2729 C2717 0.930 . S
H2730 C2718 0.956 . S
H2731 C2718 0.961 . S
H2732 C2718 0.961 . S
H2733 C2719 0.958 . S
H2734 C2719 0.961 . S
H2735 C2719 0.960 . S
C2736 C2737 1.391 . S
C2736 C2738 1.394 . S
C2736 H2752 0.931 . S
C2737 C2736 1.391 . S
C2737 C2741 1.376 . S
C2738 C2736 1.394 . S
C2738 C2739 1.369 . S
C2738 C2742 1.531 . S
C2739 C2738 1.369 . S
C2739 C2740 1.410 . S
C2739 C2747 1.503 . S
C2740 C2739 1.410 . S
C2740 C2741 1.392 . S
C2740 C2743 1.511 . S
C2741 C2737 1.376 . S
C2741 C2740 1.392 . S
C2741 H2753 0.929 . S
C2742 C2738 1.531 . S
C2742 H2754 0.960 . S
C2742 H2755 0.962 . S
C2742 H2756 0.960 . S
C2743 C2740 1.511 . S
C2743 H2757 0.961 . S
C2743 H2758 0.961 . S
C2743 H2759 0.961 . S
C2744 C2745 1.370 . S
C2744 C2746 1.363 . S
C2744 H2760 0.931 . S
C2745 C2744 1.370 . S
C2745 C2749 1.408 . S
C2746 C2744 1.363 . S
C2746 C2747 1.370 . S
C2746 C2750 1.524 . S
C2747 C2739 1.503 . S
C2747 C2746 1.370 . S
C2747 C2748 1.403 . S
C2748 C2747 1.403 . S
C2748 C2749 1.404 . S
C2748 C2751 1.539 . S
C2749 C2745 1.408 . S
C2749 C2748 1.404 . S
C2749 H2761 0.930 . S
C2750 C2746 1.524 . S
C2750 H2762 0.956 . S
C2750 H2763 0.961 . S
C2750 H2764 0.961 . S
C2751 C2748 1.539 . S
C2751 H2765 0.958 . S
C2751 H2766 0.961 . S
C2751 H2767 0.960 . S
H2752 C2736 0.931 . S
H2753 C2741 0.929 . S
H2754 C2742 0.960 . S
H2755 C2742 0.962 . S
H2756 C2742 0.960 . S
H2757 C2743 0.961 . S
H2758 C2743 0.961 . S
H2759 C2743 0.961 . S
H2760 C2744 0.931 . S
H2761 C2749 0.930 . S
H2762 C2750 0.956 . S
H2763 C2750 0.961 . S
H2764 C2750 0.961 . S
H2765 C2751 0.958 . S
H2766 C2751 0.961 . S
H2767 C2751 0.960 . S
C2768 C2769 1.391 . S
C2768 C2770 1.394 . S
C2768 H2784 0.931 . S
C2769 C2768 1.391 . S
C2769 C2773 1.376 . S
C2770 C2768 1.394 . S
C2770 C2771 1.369 . S
C2770 C2774 1.531 . S
C2771 C2770 1.369 . S
C2771 C2772 1.410 . S
C2771 C2779 1.503 . S
C2772 C2771 1.410 . S
C2772 C2773 1.392 . S
C2772 C2775 1.511 . S
C2773 C2769 1.376 . S
C2773 C2772 1.392 . S
C2773 H2785 0.929 . S
C2774 C2770 1.531 . S
C2774 H2786 0.960 . S
C2774 H2787 0.962 . S
C2774 H2788 0.960 . S
C2775 C2772 1.511 . S
C2775 H2789 0.961 . S
C2775 H2790 0.961 . S
C2775 H2791 0.961 . S
C2776 C2777 1.370 . S
C2776 C2778 1.363 . S
C2776 H2792 0.931 . S
C2777 C2776 1.370 . S
C2777 C2781 1.408 . S
C2778 C2776 1.363 . S
C2778 C2779 1.370 . S
C2778 C2782 1.524 . S
C2779 C2771 1.503 . S
C2779 C2778 1.370 . S
C2779 C2780 1.403 . S
C2780 C2779 1.403 . S
C2780 C2781 1.404 . S
C2780 C2783 1.539 . S
C2781 C2777 1.408 . S
C2781 C2780 1.404 . S
C2781 H2793 0.930 . S
C2782 C2778 1.524 . S
C2782 H2794 0.956 . S
C2782 H2795 0.961 . S
C2782 H2796 0.961 . S
C2783 C2780 1.539 . S
C2783 H2797 0.958 . S
C2783 H2798 0.961 . S
C2783 H2799 0.960 . S
H2784 C2768 0.931 . S
H2785 C2773 0.929 . S
H2786 C2774 0.960 . S
H2787 C2774 0.962 . S
H2788 C2774 0.960 . S
H2789 C2775 0.961 . S
H2790 C2775 0.961 . S
H2791 C2775 0.961 . S
H2792 C2776 0.931 . S
H2793 C2781 0.930 . S
H2794 C2782 0.956 . S
H2795 C2782 0.961 . S
H2796 C2782 0.961 . S
H2797 C2783 0.958 . S
H2798 C2783 0.961 . S
H2799 C2783 0.960 . S
C2800 C2801 1.391 . S
C2800 C2802 1.394 . S
C2800 H2816 0.959 . S
C2801 C2800 1.391 . S
C2801 C2805 1.376 . S
C2802 C2800 1.394 . S
C2802 C2803 1.369 . S
C2802 C2806 1.531 1_556 S
C2803 C2802 1.369 . S
C2803 C2804 1.410 . S
C2803 C2811 1.503 . S
C2804 C2803 1.410 . S
C2804 C2805 1.392 . S
C2804 C2807 1.511 . S
C2805 C2801 1.376 . S
C2805 C2804 1.392 . S
C2805 H2817 0.929 . S
C2806 C2802 1.531 1_554 S
C2806 H2818 0.960 . S
C2806 H2819 0.962 . S
C2806 H2820 0.960 . S
C2807 C2804 1.511 . S
C2807 H2821 0.961 . S
C2807 H2822 0.961 . S
C2807 H2823 0.961 . S
C2808 C2809 1.370 1_554 S
C2808 C2810 1.363 . S
C2808 H2824 0.931 . S
C2809 C2808 1.370 1_556 S
C2809 C2813 1.408 . S
C2810 C2808 1.363 . S
C2810 C2811 1.370 1_554 S
C2810 C2814 1.524 . S
C2811 C2803 1.503 . S
C2811 C2810 1.370 1_556 S
C2811 C2812 1.403 . S
C2812 C2811 1.403 . S
C2812 C2813 1.404 . S
C2812 C2815 1.539 . S
C2813 C2809 1.408 . S
C2813 C2812 1.404 . S
C2813 H2825 0.930 . S
C2814 C2810 1.524 . S
C2814 H2826 0.956 . S
C2814 H2827 0.961 . S
C2814 H2828 0.961 . S
C2815 C2812 1.539 . S
C2815 H2829 0.958 . S
C2815 H2830 0.961 . S
C2815 H2831 0.960 . S
H2816 C2800 0.959 . S
H2817 C2805 0.929 . S
H2818 C2806 0.960 . S
H2819 C2806 0.962 . S
H2820 C2806 0.960 . S
H2821 C2807 0.961 . S
H2822 C2807 0.961 . S
H2823 C2807 0.961 . S
H2824 C2808 0.931 . S
H2825 C2813 0.930 . S
H2826 C2814 0.956 . S
H2827 C2814 0.961 . S
H2828 C2814 0.961 . S
H2829 C2815 0.958 . S
H2830 C2815 0.961 . S
H2831 C2815 0.960 . S
C2832 C2833 1.391 . S
C2832 C2834 1.394 . S
C2832 H2848 0.931 . S
C2833 C2832 1.391 . S
C2833 C2837 1.376 . S
C2834 C2832 1.394 . S
C2834 C2835 1.369 . S
C2834 C2838 1.531 . S
C2835 C2834 1.369 . S
C2835 C2836 1.410 . S
C2835 C2843 1.503 . S
C2836 C2835 1.410 . S
C2836 C2837 1.392 . S
C2836 C2839 1.511 . S
C2837 C2833 1.376 . S
C2837 C2836 1.392 . S
C2837 H2849 0.929 . S
C2838 C2834 1.531 . S
C2838 H2850 0.960 . S
C2838 H2851 0.962 . S
C2838 H2852 0.960 . S
C2839 C2836 1.511 . S
C2839 H2853 0.961 . S
C2839 H2854 0.961 . S
C2839 H2855 0.961 . S
C2840 C2841 1.370 . S
C2840 C2842 1.363 . S
C2840 H2856 0.931 . S
C2841 C2840 1.370 . S
C2841 C2845 1.408 . S
C2842 C2840 1.363 . S
C2842 C2843 1.370 . S
C2842 C2846 1.524 . S
C2843 C2835 1.503 . S
C2843 C2842 1.370 . S
C2843 C2844 1.403 . S
C2844 C2843 1.403 . S
C2844 C2845 1.404 . S
C2844 C2847 1.539 . S
C2845 C2841 1.408 . S
C2845 C2844 1.404 . S
C2845 H2857 0.930 . S
C2846 C2842 1.524 . S
C2846 H2858 0.956 . S
C2846 H2859 0.961 . S
C2846 H2860 0.961 . S
C2847 C2844 1.539 . S
C2847 H2861 0.958 . S
C2847 H2862 0.961 . S
C2847 H2863 0.960 . S
H2848 C2832 0.931 . S
H2849 C2837 0.929 . S
H2850 C2838 0.960 . S
H2851 C2838 0.962 . S
H2852 C2838 0.960 . S
H2853 C2839 0.961 . S
H2854 C2839 0.961 . S
H2855 C2839 0.961 . S
H2856 C2840 0.931 . S
H2857 C2845 0.930 . S
H2858 C2846 0.956 . S
H2859 C2846 0.961 . S
H2860 C2846 0.961 . S
H2861 C2847 0.958 . S
H2862 C2847 0.961 . S
H2863 C2847 0.960 . S
C2864 C2865 1.391 . S
C2864 C2866 1.394 . S
C2864 H2880 0.931 . S
C2865 C2864 1.391 . S
C2865 C2869 1.376 . S
C2866 C2864 1.394 . S
C2866 C2867 1.369 . S
C2866 C2870 1.531 . S
C2867 C2866 1.369 . S
C2867 C2868 1.410 . S
C2867 C2875 1.503 . S
C2868 C2867 1.410 . S
C2868 C2869 1.392 . S
C2868 C2871 1.511 1_554 S
C2869 C2865 1.376 . S
C2869 C2868 1.392 . S
C2869 H2881 0.929 . S
C2870 C2866 1.531 . S
C2870 H2882 0.960 . S
C2870 H2883 0.962 . S
C2870 H2884 0.960 . S
C2871 C2868 1.511 1_556 S
C2871 H2885 0.961 . S
C2871 H2886 0.961 . S
C2871 H2887 0.961 1_556 S
C2872 C2873 1.370 1_556 S
C2872 C2874 1.363 . S
C2872 H2888 0.931 . S
C2873 C2872 1.370 1_554 S
C2873 C2877 1.408 . S
C2874 C2872 1.363 . S
C2874 C2875 1.370 1_556 S
C2874 C2878 1.524 . S
C2875 C2867 1.503 . S
C2875 C2874 1.370 1_554 S
C2875 C2876 1.403 . S
C2876 C2875 1.403 . S
C2876 C2877 1.404 . S
C2876 C2879 1.539 . S
C2877 C2873 1.408 . S
C2877 C2876 1.404 . S
C2877 H2889 0.930 . S
C2878 C2874 1.524 . S
C2878 H2890 0.956 . S
C2878 H2891 0.961 . S
C2878 H2892 0.961 . S
C2879 C2876 1.539 . S
C2879 H2893 0.958 . S
C2879 H2894 0.961 . S
C2879 H2895 0.960 . S
H2880 C2864 0.931 . S
H2881 C2869 0.929 . S
H2882 C2870 0.960 . S
H2883 C2870 0.962 . S
H2884 C2870 0.960 . S
H2885 C2871 0.961 . S
H2886 C2871 0.961 . S
H2887 C2871 0.961 1_554 S
H2888 C2872 0.931 . S
H2889 C2877 0.930 . S
H2890 C2878 0.956 . S
H2891 C2878 0.961 . S
H2892 C2878 0.961 . S
H2893 C2879 0.958 . S
H2894 C2879 0.961 . S
H2895 C2879 0.960 . S
C2896 C2897 1.391 . S
C2896 C2898 1.394 . S
C2896 H2912 0.931 . S
C2897 C2896 1.391 . S
C2897 C2901 1.376 . S
C2898 C2896 1.394 . S
C2898 C2899 1.369 . S
C2898 C2902 1.531 . S
C2899 C2898 1.369 . S
C2899 C2900 1.410 . S
C2899 C2907 1.503 . S
C2900 C2899 1.410 . S
C2900 C2901 1.392 . S
C2900 C2903 1.511 . S
C2901 C2897 1.376 . S
C2901 C2900 1.392 . S
C2901 H2913 0.929 . S
C2902 C2898 1.531 . S
C2902 H2914 0.960 . S
C2902 H2915 0.962 1_554 S
C2902 H2916 0.960 . S
C2903 C2900 1.511 . S
C2903 H2917 0.961 . S
C2903 H2918 0.961 . S
C2903 H2919 0.961 . S
C2904 C2905 1.398 . S
C2904 C2906 1.369 . S
C2904 H2920 0.897 1_554 S
C2905 C2904 1.398 . S
C2905 C2909 1.408 . S
C2906 C2904 1.369 . S
C2906 C2907 1.370 . S
C2906 C2910 1.524 1_554 S
C2907 C2899 1.503 . S
C2907 C2906 1.370 . S
C2907 C2908 1.403 . S
C2908 C2907 1.403 . S
C2908 C2909 1.404 . S
C2908 C2911 1.539 . S
C2909 C2905 1.408 . S
C2909 C2908 1.404 . S
C2909 H2921 0.930 . S
C2910 C2906 1.524 1_556 S
C2910 H2922 0.956 . S
C2910 H2923 0.961 . S
C2910 H2924 0.961 . S
C2911 C2908 1.539 . S
C2911 H2925 0.958 . S
C2911 H2926 0.961 . S
C2911 H2927 0.960 . S
H2912 C2896 0.931 . S
H2913 C2901 0.929 . S
H2914 C2902 0.960 . S
H2915 C2902 0.962 1_556 S
H2916 C2902 0.960 . S
H2917 C2903 0.961 . S
H2918 C2903 0.961 . S
H2919 C2903 0.961 . S
H2920 C2904 0.897 1_556 S
H2921 C2909 0.930 . S
H2922 C2910 0.956 . S
H2923 C2910 0.961 . S
H2924 C2910 0.961 . S
H2925 C2911 0.958 . S
H2926 C2911 0.961 . S
H2927 C2911 0.960 . S
C1401 C962 1.447 . S
C1393 C331 1.430 . S
C1433 C1010 1.632 . S
C1425 C380 1.643 . S
C1457 C421 1.378 . S
C1465 C1046 1.382 . S
C1497 C1082 1.578 . S
C1489 C260 1.609 . S
C1529 C1108 1.471 . S
C1521 C620 1.424 . S
C1561 C1144 1.582 . S
C1553 C740 1.564 . S
C1585 C680 1.500 . S
C1593 C1179 1.503 . S
C1625 C1216 1.605 1_565 S
C1617 C571 1.607 . S
C1649 C691 1.416 . S
C1657 C1250 1.442 . S
C1689 C1298 1.546 . S
C1681 C541 1.593 . S
C1713 C601 1.374 . S
C1721 C1251 1.460 . S
C1753 C1288 1.611 . S
C1745 C721 1.590 . S
C1777 C451 1.445 . S
C1785 C1334 1.421 . S
C1809 C241 1.600 . S
C1817 C1323 1.626 . S
C1841 C320 1.485 . S
C1849 C1324 1.490 . S
C1873 C391 1.638 . S
C1881 C1322 1.655 . S
C1905 C211 1.406 . S
C1913 C1070 1.460 . S
C1937 C841 1.431 . S
C1945 C1071 1.451 . S
C1977 C974 1.607 . S
C1969 C901 1.617 . S
C2009 C999 1.470 . S
C2001 C500 1.408 . S
C2033 C271 1.585 . S
C2041 C1106 1.632 . S
C2073 C1214 1.473 . S
C2065 C661 1.448 . S
C2105 C1107 1.596 . S
C2097 C560 1.581 . S
C2137 C1180 1.620 . S
C2129 C751 1.615 . S
C2169 C1178 1.449 . S
C2161 C871 1.398 . S
C2193 C920 1.662 . S
C2201 C1226 1.641 . S
C2225 C481 1.420 . S
C2233 C1118 1.376 . S
C2265 C1154 1.580 . S
C2257 C800 1.611 . S
C2289 C200 1.454 . S
C2297 C1036 1.469 . S
C2329 C1072 1.586 . S
C2321 C20 1.582 . S
C2361 C963 1.503 . S
C2353 C80 1.490 . S
C2393 C1000 1.609 . S
C2385 C151 1.574 . S
C2417 C91 1.431 . S
C2425 C1286 1.430 . S
C2449 C121 1.597 . S
C2457 C1262 1.567 . S
C2481 C181 1.371 . S
C2489 C1287 1.459 . S
C2513 C1 1.585 . S
C2521 C1252 1.617 . S
C2553 C1370 1.402 . S
C2545 C511 1.399 . S
C2585 C1359 1.624 . S
C2577 C781 1.602 . S
C2617 C1360 1.489 . S
C2609 C860 1.485 . S
C2641 C931 1.617 . S
C2649 C1358 1.648 . S
C2673 C631 1.437 . S
C2681 C1142 1.445 . S
C2713 C1143 1.453 . S
C2705 C301 1.410 . S
C2745 C1190 1.592 . S
C2737 C361 1.643 . S
C2777 C1215 1.470 . S
C2769 C440 1.441 . S
C2801 C811 1.588 . S
C2809 C1034 1.622 1_556 S
C2841 C998 1.469 . S
C2833 C61 1.487 . S
C2865 C140 1.561 . S
C2873 C1035 1.591 . S
C2905 C964 1.620 . S
C2897 C31 1.607 . S
