# Generated by pormake.
# Topology llj, (12,3)-cn, num edge types: 1
# Building blocks:
#     Node 0, Type 0, BuildingBlock: QEWDON_clean_sbu_0, # of connection points: 12
#     Node 1, Type 0, BuildingBlock: QEWDON_clean_sbu_0, # of connection points: 12
#     Node 2, Type 1, BuildingBlock: VETTIZ_charged_linker_0, # of connection points: 3
#     Node 3, Type 1, BuildingBlock: VETTIZ_charged_linker_0, # of connection points: 3
#     Node 4, Type 1, BuildingBlock: VETTIZ_charged_linker_0, # of connection points: 3
#     Node 5, Type 1, BuildingBlock: VETTIZ_charged_linker_0, # of connection points: 3
#     Node 6, Type 1, BuildingBlock: VETTIZ_charged_linker_0, # of connection points: 3
#     Node 7, Type 1, BuildingBlock: VETTIZ_charged_linker_0, # of connection points: 3
#     Node 8, Type 1, BuildingBlock: VETTIZ_charged_linker_0, # of connection points: 3
#     Node 9, Type 1, BuildingBlock: VETTIZ_charged_linker_0, # of connection points: 3
#     Edge 10, Type (0, 1), None
#     Edge 11, Type (0, 1), None
#     Edge 12, Type (0, 1), None
#     Edge 13, Type (0, 1), None
#     Edge 14, Type (0, 1), None
#     Edge 15, Type (0, 1), None
#     Edge 16, Type (0, 1), None
#     Edge 17, Type (0, 1), None
#     Edge 18, Type (0, 1), None
#     Edge 19, Type (0, 1), None
#     Edge 20, Type (0, 1), None
#     Edge 21, Type (0, 1), None
#     Edge 22, Type (0, 1), None
#     Edge 23, Type (0, 1), None
#     Edge 24, Type (0, 1), None
#     Edge 25, Type (0, 1), None
#     Edge 26, Type (0, 1), None
#     Edge 27, Type (0, 1), None
#     Edge 28, Type (0, 1), None
#     Edge 29, Type (0, 1), None
#     Edge 30, Type (0, 1), None
#     Edge 31, Type (0, 1), None
#     Edge 32, Type (0, 1), None
#     Edge 33, Type (0, 1), None
# Relax obj value: 0.012
# Max RMSD: 0.065
# Mean RMSD: 0.059
data_MOF--net-llj--node1-QEWDON_clean_sbu_0--node2-VETTIZ_charged_linker_0--edge1-none
_symmetry_space_group_name_H-M    P1
_symmetry_Int_Tables_number       1
_symmetry_cell_setting            triclinic
loop_
_symmetry_equiv_pos_as_xyz
'x, y, z'
_cell_length_a     26.36909
_cell_length_b     26.390656
_cell_length_c     18.408164
_cell_angle_alpha  89.812627
_cell_angle_beta   90.805101
_cell_angle_gamma 90.170007
loop_
_atom_site_label
_atom_site_type_symbol
_atom_site_fract_x
_atom_site_fract_y
_atom_site_fract_z
_atom_type_partial_charge
Zn0 Zn 0.91021 0.08487 0.90638 0.0
Zn1 Zn 0.91612 0.10055 0.07516 0.0
O2 O 0.95937 0.08382 0.99113 0.0
H3 H 0.98832 0.06151 -0.0074 0.0
C4 C 0.85737 0.98162 0.82383 0.0
O5 O 0.84448 0.00453 0.88403 0.0
Zn6 Zn 0.0887 0.91494 0.09717 0.0
Zn7 Zn 0.08362 0.89781 0.92871 0.0
O8 O 0.041 0.91847 0.01325 0.0
H9 H 0.01287 0.94168 0.00906 0.0
Zn10 Zn 0.89623 0.90869 0.92814 0.0
O11 O 0.90955 0.95859 0.00809 0.0
Zn12 Zn 0.90348 0.91844 0.09935 0.0
H13 H 0.93113 0.98775 0.00136 0.0
Zn14 Zn 0.10432 0.08648 0.89995 0.0
O15 O 0.0926 0.04566 0.99047 0.0
H16 H 0.07127 0.01589 0.99077 0.0
Zn17 Zn 0.10027 0.09563 0.06986 0.0
C18 C 0.13984 0.99934 0.82088 0.0
O19 O 0.14754 0.98246 0.88732 0.0
O20 O 0.85147 0.13432 0.92206 0.0
O21 O 0.85749 0.14661 0.04145 0.0
O22 O 0.14453 0.85325 0.95699 0.0
O23 O 0.14586 0.86471 0.07677 0.0
O24 O 0.85146 0.85015 0.96127 0.0
O25 O 0.8565 0.8562 0.08181 0.0
C26 C 0.00833 0.13423 0.1481 0.0
O27 O 0.14544 0.15179 0.91721 0.0
O28 O 0.14492 0.15457 0.03796 0.0
O29 O 0.04224 0.88025 0.83695 0.0
C30 C 0.83646 0.15586 0.9797 0.0
O31 O 0.94396 0.08702 0.80635 0.0
C32 C 1.00126 0.89524 0.18672 0.0
O33 O 0.8803 0.93942 0.82764 0.0
C34 C 0.16351 0.84405 0.01967 0.0
O35 O 0.12158 0.04341 0.81127 0.0
C36 C 0.87639 0.01246 0.16997 0.0
O37 O 0.96012 0.13427 0.15216 0.0
O38 O 0.02858 0.11689 0.09121 0.0
C39 C 0.83909 0.83471 0.02419 0.0
O40 O 0.04952 0.8949 0.18554 0.0
O41 O 0.9767 0.90245 0.12752 0.0
C42 C 0.12945 0.01279 0.16436 0.0
O43 O 0.87433 0.96437 0.17551 0.0
O44 O 0.89395 0.03169 0.11207 0.0
C45 C 0.15884 0.17256 0.97688 0.0
O46 O 0.13082 0.0608 0.15787 0.0
O47 O 0.11237 0.98696 0.11118 0.0
C48 C 0.99934 0.85883 0.844 0.0
O49 O 0.98358 0.84706 0.90932 0.0
C50 C 0.98792 0.10668 0.80373 0.0
O51 O 0.00915 0.12375 0.86384 0.0
Zn52 Zn 0.41022 0.58487 0.40638 0.0
Zn53 Zn 0.41612 0.60055 0.57516 0.0
O54 O 0.45937 0.58382 0.49113 0.0
H55 H 0.48833 0.56151 0.4926 0.0
C56 C 0.35737 0.48162 0.32383 0.0
O57 O 0.34448 0.50454 0.38403 0.0
Zn58 Zn 0.5887 0.41493 0.59717 0.0
Zn59 Zn 0.58362 0.39781 0.42871 0.0
O60 O 0.541 0.41847 0.51325 0.0
H61 H 0.51287 0.44168 0.50906 0.0
Zn62 Zn 0.39622 0.40869 0.42814 0.0
O63 O 0.40955 0.4586 0.50808 0.0
Zn64 Zn 0.40348 0.41845 0.59934 0.0
H65 H 0.43113 0.48775 0.50136 0.0
Zn66 Zn 0.60432 0.58648 0.39995 0.0
O67 O 0.5926 0.54566 0.49047 0.0
H68 H 0.57127 0.51589 0.49078 0.0
Zn69 Zn 0.60027 0.59562 0.56986 0.0
C70 C 0.63984 0.49934 0.32088 0.0
O71 O 0.64754 0.48246 0.38732 0.0
O72 O 0.35147 0.63432 0.42206 0.0
O73 O 0.35749 0.64661 0.54145 0.0
O74 O 0.64453 0.35324 0.45699 0.0
O75 O 0.64586 0.36471 0.57677 0.0
O76 O 0.35146 0.35016 0.46127 0.0
O77 O 0.35649 0.3562 0.58181 0.0
C78 C 0.50834 0.63423 0.64811 0.0
O79 O 0.64545 0.65179 0.41721 0.0
O80 O 0.64492 0.65456 0.53796 0.0
O81 O 0.54224 0.38025 0.33695 0.0
C82 C 0.33646 0.65586 0.4797 0.0
O83 O 0.44396 0.58702 0.30635 0.0
C84 C 0.50126 0.39525 0.68672 0.0
O85 O 0.38029 0.43942 0.32764 0.0
C86 C 0.66351 0.34404 0.51967 0.0
O87 O 0.62158 0.54341 0.31127 0.0
C88 C 0.37639 0.51247 0.66997 0.0
O89 O 0.46012 0.63427 0.65216 0.0
O90 O 0.52858 0.61689 0.59121 0.0
C91 C 0.33908 0.33471 0.52418 0.0
O92 O 0.54952 0.3949 0.68554 0.0
O93 O 0.4767 0.40245 0.62751 0.0
C94 C 0.62945 0.51278 0.66436 0.0
O95 O 0.37433 0.46437 0.6755 0.0
O96 O 0.39395 0.53169 0.61207 0.0
C97 C 0.65884 0.67256 0.47688 0.0
O98 O 0.63082 0.56079 0.65787 0.0
O99 O 0.61237 0.48695 0.61118 0.0
C100 C 0.49934 0.35883 0.344 0.0
O101 O 0.48357 0.34706 0.40932 0.0
C102 C 0.48792 0.60668 0.30373 0.0
O103 O 0.50915 0.62375 0.36384 0.0
C104 C 0.42693 0.37078 0.76307 0.0
C105 C 0.47602 0.39097 0.75738 0.0
C106 C 0.50331 0.40377 0.82114 0.0
C107 C 0.43456 0.373 0.89485 0.0
C108 C 0.40712 0.36176 0.83229 0.0
C109 C 0.35815 0.33493 0.84858 0.0
H110 H 0.21182 0.21374 0.09133 0.0
C111 C 0.40542 0.35506 0.9578 0.0
C112 C 0.3601 0.33352 0.93122 0.0
H113 H 0.18927 0.22735 0.85876 0.0
H114 H 0.25854 0.28683 0.85249 0.0
H115 H 0.32888 0.20225 0.08879 0.0
H116 H 0.23725 0.33509 0.11873 0.0
H117 H 0.29091 0.34195 0.17552 0.0
H118 H 0.24763 0.28978 0.19025 0.0
H119 H 0.29205 0.21289 0.16863 0.0
H120 H 0.35544 0.23724 0.16097 0.0
C121 C 0.3613 0.28104 0.81567 0.0
C122 C 0.31335 0.36711 0.81865 0.0
C123 C 0.48386 0.36371 0.2106 0.0
C124 C 0.46691 0.3493 0.27951 0.0
C125 C 0.41843 0.32715 0.28592 0.0
C126 C 0.38738 0.31969 0.22434 0.0
C127 C 0.4052 0.33404 0.15558 0.0
C128 C 0.45245 0.35615 0.14992 0.0
C129 C 0.46466 0.37121 0.07355 0.0
C130 C 0.41709 0.35358 0.03334 0.0
C131 C 0.38264 0.33148 0.08174 0.0
C132 C 0.51287 0.342 0.05069 0.0
C133 C 0.47021 0.42953 0.07288 0.0
C134 C 0.22137 0.22998 0.03914 0.0
C135 C 0.19556 0.21503 0.97527 0.0
C136 C 0.20899 0.23753 0.90863 0.0
C137 C 0.24954 0.27177 0.90494 0.0
C138 C 0.2777 0.28288 0.96823 0.0
C139 C 0.2624 0.26358 0.0343 0.0
C140 C 0.29721 0.27928 0.09573 0.0
C141 C 0.33691 0.3095 0.05501 0.0
C142 C 0.3254 0.31121 0.98032 0.0
C143 C 0.31956 0.23066 0.13106 0.0
C144 C 0.26692 0.31301 0.1484 0.0
H145 H 0.50656 0.40383 0.93548 0.0
H146 H 0.40553 0.35978 0.71504 0.0
H147 H 0.32382 0.40777 0.81381 0.0
H148 H 0.28037 0.36653 0.85525 0.0
H149 H 0.30105 0.35414 0.76381 0.0
H150 H 0.39907 0.26394 0.82743 0.0
H151 H 0.35601 0.28226 0.75574 0.0
H152 H 0.33355 0.25421 0.83821 0.0
H153 H 0.52081 0.38101 0.20378 0.0
H154 H 0.40435 0.31587 0.33854 0.0
H155 H 0.35083 0.30283 0.23261 0.0
H156 H 0.51611 0.30508 0.07973 0.0
H157 H 0.54781 0.36404 0.06327 0.0
H158 H 0.51246 0.33165 -0.00739 0.0
H159 H 0.43611 0.44719 0.09634 0.0
H160 H 0.4745 0.44598 0.01846 0.0
H161 H 0.50291 0.44181 0.10706 0.0
H162 H 0.54122 0.41959 0.81822 0.0
C163 C 0.48289 0.39496 0.88958 0.0
C164 C 0.65779 0.43884 0.74247 0.0
C165 C 0.64203 0.48962 0.73555 0.0
C166 C 0.63979 0.51995 0.79819 0.0
C167 C 0.66505 0.44893 0.87327 0.0
C168 C 0.66969 0.41946 0.81196 0.0
C169 C 0.69162 0.36807 0.83011 0.0
H170 H 0.79542 0.2131 0.08826 0.0
C171 C 0.67981 0.41832 0.93702 0.0
C172 C 0.69645 0.371 0.91264 0.0
H173 H 0.78961 0.1906 0.85568 0.0
H174 H 0.73777 0.26497 0.84094 0.0
H175 H 0.81509 0.32999 0.08934 0.0
H176 H 0.67606 0.24474 0.09807 0.0
H177 H 0.66618 0.29956 0.14961 0.0
H178 H 0.71471 0.25509 0.17757 0.0
H179 H 0.79717 0.29131 0.16535 0.0
H180 H 0.77695 0.35607 0.15757 0.0
C181 C 0.74394 0.36429 0.79334 0.0
C182 C 0.65288 0.32723 0.80595 0.0
C183 C 0.64618 0.48761 0.18745 0.0
C184 C 0.65368 0.46832 0.25782 0.0
C185 C 0.67524 0.41984 0.26688 0.0
C186 C 0.68958 0.39132 0.2064 0.0
C187 C 0.6826 0.4117 0.13629 0.0
C188 C 0.66122 0.45908 0.12795 0.0
C189 C 0.65648 0.47502 0.04993 0.0
C190 C 0.67721 0.42859 0.01232 0.0
C191 C 0.69264 0.3918 0.06302 0.0
C192 C 0.68975 0.52301 0.03821 0.0
C193 C 0.59958 0.48262 0.03241 0.0
C194 C 0.78277 0.22398 0.03419 0.0
C195 C 0.79789 0.1965 0.97295 0.0
C196 C 0.77947 0.2115 0.90373 0.0
C197 C 0.74972 0.25509 0.89508 0.0
C198 C 0.73826 0.2843 0.95621 0.0
C199 C 0.7531 0.26755 0.0246 0.0
C200 C 0.73616 0.30261 0.08361 0.0
C201 C 0.71239 0.34497 0.03893 0.0
C202 C 0.71362 0.3342 0.96419 0.0
C203 C 0.78357 0.32096 0.12684 0.0
C204 C 0.69647 0.27426 0.13021 0.0
H205 H 0.64946 0.52527 0.91165 0.0
H206 H 0.66215 0.41531 0.69507 0.0
H207 H 0.61419 0.33737 0.82433 0.0
H208 H 0.66097 0.28957 0.82946 0.0
H209 H 0.65136 0.32397 0.74588 0.0
H210 H 0.76375 0.40158 0.79395 0.0
H211 H 0.73981 0.35247 0.73582 0.0
H212 H 0.77031 0.33837 0.8217 0.0
H213 H 0.62909 0.52439 0.17853 0.0
H214 H 0.68125 0.40401 0.32067 0.0
H215 H 0.706 0.35479 0.2166 0.0
H216 H 0.71767 0.52888 0.08331 0.0
H217 H 0.66616 0.55779 0.03453 0.0
H218 H 0.7131 0.52011 0.98876 0.0
H219 H 0.57786 0.44932 0.05152 0.0
H220 H 0.59094 0.48541 0.97393 0.0
H221 H 0.58484 0.51688 0.05982 0.0
H222 H 0.62868 0.55938 0.79452 0.0
C223 C 0.65152 0.5 0.86657 0.0
C224 C 0.56117 0.63706 0.23038 0.0
C225 C 0.51315 0.61382 0.23345 0.0
C226 C 0.4881 0.60019 0.16834 0.0
C227 C 0.55729 0.63518 0.09875 0.0
C228 C 0.58248 0.64731 0.16268 0.0
C229 C 0.63115 0.67569 0.14958 0.0
H230 H 0.78913 0.78837 0.91156 0.0
C231 C 0.58797 0.65409 0.03793 0.0
C232 C 0.63154 0.67753 0.06714 0.0
H233 H 0.79799 0.79128 0.14644 0.0
H234 H 0.72614 0.73456 0.15249 0.0
H235 H 0.76061 0.66735 0.89423 0.0
H236 H 0.6699 0.80306 0.90169 0.0
H237 H 0.64816 0.76498 0.82931 0.0
H238 H 0.7118 0.78938 0.82821 0.0
H239 H 0.75743 0.71115 0.81946 0.0
H240 H 0.71102 0.66129 0.82995 0.0
C241 C 0.67558 0.64392 0.18096 0.0
C242 C 0.62636 0.72923 0.18334 0.0
C243 C 0.51956 0.636 0.78143 0.0
C244 C 0.5391 0.64694 0.71292 0.0
C245 C 0.58773 0.66884 0.708 0.0
C246 C 0.6164 0.67978 0.77109 0.0
C247 C 0.59604 0.6686 0.83964 0.0
C248 C 0.54872 0.6463 0.84343 0.0
C249 C 0.53412 0.63307 0.91936 0.0
C250 C 0.57947 0.65337 0.96178 0.0
C251 C 0.61561 0.67447 0.91502 0.0
C252 C 0.53075 0.5746 0.92297 0.0
C253 C 0.48411 0.66121 0.93668 0.0
C254 C 0.77622 0.7763 0.96448 0.0
C255 C 0.79949 0.79462 0.02875 0.0
C256 C 0.78101 0.77784 0.09617 0.0
C257 C 0.739 0.74505 0.09948 0.0
C258 C 0.71472 0.7292 0.03474 0.0
C259 C 0.73388 0.74434 0.96865 0.0
C260 C 0.70191 0.72608 0.90538 0.0
C261 C 0.65983 0.69817 0.94441 0.0
C262 C 0.6677 0.69982 0.02013 0.0
C263 C 0.73423 0.68979 0.85919 0.0
C264 C 0.68192 0.77305 0.8633 0.0
H265 H 0.48743 0.60181 0.05405 0.0
H266 H 0.58118 0.64847 0.27946 0.0
H267 H 0.58634 0.7425 0.18179 0.0
H268 H 0.6474 0.75857 0.15314 0.0
H269 H 0.63928 0.72934 0.24099 0.0
H270 H 0.67054 0.6033 0.16705 0.0
H271 H 0.67769 0.64694 0.24112 0.0
H272 H 0.71264 0.65461 0.15835 0.0
H273 H 0.48257 0.61844 0.78681 0.0
H274 H 0.60316 0.6782 0.65562 0.0
H275 H 0.65315 0.69658 0.76414 0.0
H276 H 0.56612 0.55781 0.90233 0.0
H277 H 0.4995 0.56015 0.88776 0.0
H278 H 0.52614 0.55914 0.97792 0.0
H279 H 0.48118 0.69753 0.90603 0.0
H280 H 0.4816 0.67254 -0.00579 0.0
H281 H 0.45042 0.63798 0.92167 0.0
H282 H 0.45097 0.58247 0.1691 0.0
C283 C 0.5097 0.61109 0.10117 0.0
C284 C 0.32983 0.55541 0.24701 0.0
C285 C 0.34621 0.50483 0.25245 0.0
C286 C 0.35206 0.47631 0.18865 0.0
C287 C 0.32969 0.54944 0.11559 0.0
C288 C 0.32175 0.57687 0.17809 0.0
C289 C 0.30241 0.62942 0.1619 0.0
H290 H 0.21437 0.79597 0.91069 0.0
C291 C 0.31938 0.58286 0.0529 0.0
C292 C 0.30233 0.62941 0.0792 0.0
H293 H 0.20168 0.80189 0.14446 0.0
H294 H 0.25548 0.72883 0.15661 0.0
H295 H 0.33747 0.76298 0.91477 0.0
H296 H 0.19781 0.67854 0.89059 0.0
H297 H 0.24117 0.66006 0.82332 0.0
H298 H 0.21929 0.72426 0.82514 0.0
H299 H 0.30293 0.76127 0.83011 0.0
H300 H 0.34844 0.71282 0.85454 0.0
C301 C 0.34121 0.66809 0.19276 0.0
C302 C 0.2483 0.6345 0.19346 0.0
C303 C 0.36321 0.52129 0.80211 0.0
C304 C 0.36221 0.54363 0.7329 0.0
C305 C 0.34605 0.59426 0.72548 0.0
C306 C 0.32976 0.62165 0.78632 0.0
C307 C 0.32972 0.598 0.85503 0.0
C308 C 0.34702 0.54886 0.86183 0.0
C309 C 0.34706 0.53012 0.93874 0.0
C310 C 0.32648 0.57594 0.9775 0.0
C311 C 0.31598 0.61555 0.92849 0.0
C312 C 0.40261 0.51968 0.96132 0.0
C313 C 0.31138 0.48335 0.94394 0.0
C314 C 0.22353 0.78177 0.96454 0.0
C315 C 0.20301 0.80445 0.02679 0.0
C316 C 0.21667 0.78522 0.09579 0.0
C317 C 0.24732 0.74225 0.10274 0.0
C318 C 0.26419 0.71782 0.04003 0.0
C319 C 0.25381 0.73846 0.97235 0.0
C320 C 0.2751 0.70685 0.91191 0.0
C321 C 0.29563 0.66175 0.95444 0.0
C322 C 0.28944 0.66873 0.02949 0.0
C323 C 0.31803 0.7374 0.87525 0.0
C324 C 0.23129 0.69162 0.85948 0.0
H325 H 0.34773 0.4742 0.07416 0.0
H326 H 0.32369 0.57794 0.29513 0.0
H327 H 0.23194 0.59725 0.20942 0.0
H328 H 0.2209 0.65017 0.15314 0.0
H329 H 0.24836 0.65878 0.24259 0.0
H330 H 0.38022 0.65837 0.17538 0.0
H331 H 0.34105 0.668 0.25305 0.0
H332 H 0.33399 0.70711 0.17345 0.0
H333 H 0.37661 0.48288 0.80999 0.0
H334 H 0.34486 0.6122 0.67264 0.0
H335 H 0.31718 0.65985 0.7775 0.0
H336 H 0.42646 0.55264 0.94696 0.0
H337 H 0.41738 0.48578 0.93311 0.0
H338 H 0.4083 0.51497 0.02015 0.0
H339 H 0.28407 0.48148 0.8974 0.0
H340 H 0.28731 0.48455 -0.00722 0.0
H341 H 0.33329 0.44747 0.94445 0.0
H342 H 0.36339 0.43693 0.19138 0.0
C343 C 0.34323 0.49814 0.12045 0.0
C344 C 0.92693 0.87078 0.26307 0.0
C345 C 0.97602 0.89096 0.25738 0.0
C346 C 0.00331 0.90376 0.32114 0.0
C347 C 0.93457 0.87299 0.39485 0.0
C348 C 0.90712 0.86176 0.33229 0.0
C349 C 0.85815 0.83493 0.34858 0.0
H350 H 0.71183 0.71373 0.59133 0.0
C351 C 0.90542 0.85505 0.4578 0.0
C352 C 0.86011 0.83351 0.43122 0.0
H353 H 0.68928 0.72735 0.35876 0.0
H354 H 0.75855 0.78682 0.35249 0.0
H355 H 0.82889 0.70224 0.58879 0.0
H356 H 0.73726 0.83508 0.61873 0.0
H357 H 0.79092 0.84194 0.67552 0.0
H358 H 0.74764 0.78978 0.69025 0.0
H359 H 0.79206 0.71288 0.66863 0.0
H360 H 0.85545 0.73724 0.66097 0.0
C361 C 0.8613 0.78104 0.31567 0.0
C362 C 0.81335 0.86711 0.31865 0.0
C363 C 0.98386 0.86371 0.7106 0.0
C364 C 0.96691 0.84929 0.77951 0.0
C365 C 0.91844 0.82715 0.78592 0.0
C366 C 0.88738 0.81968 0.72434 0.0
C367 C 0.90521 0.83404 0.65558 0.0
C368 C 0.95245 0.85615 0.64992 0.0
C369 C 0.96466 0.8712 0.57355 0.0
C370 C 0.9171 0.85357 0.53334 0.0
C371 C 0.88265 0.83147 0.58174 0.0
C372 C 0.01287 0.842 0.55069 0.0
C373 C 0.97021 0.92952 0.57288 0.0
C374 C 0.72138 0.72997 0.53914 0.0
C375 C 0.69557 0.71502 0.47527 0.0
C376 C 0.70899 0.73753 0.40863 0.0
C377 C 0.74955 0.77176 0.40494 0.0
C378 C 0.7777 0.78288 0.46823 0.0
C379 C 0.76241 0.76357 0.5343 0.0
C380 C 0.79721 0.77927 0.59573 0.0
C381 C 0.83692 0.8095 0.55501 0.0
C382 C 0.82541 0.81121 0.48032 0.0
C383 C 0.81957 0.73065 0.63106 0.0
C384 C 0.76693 0.813 0.6484 0.0
H385 H 0.00656 0.90383 0.43548 0.0
H386 H 0.90554 0.85977 0.21504 0.0
H387 H 0.82383 0.90776 0.31382 0.0
H388 H 0.78037 0.86653 0.35525 0.0
H389 H 0.80105 0.85414 0.26381 0.0
H390 H 0.89907 0.76394 0.32743 0.0
H391 H 0.85602 0.78226 0.25574 0.0
H392 H 0.83356 0.75421 0.33821 0.0
H393 H 0.02082 0.881 0.70378 0.0
H394 H 0.90436 0.81586 0.83854 0.0
H395 H 0.85083 0.80282 0.73261 0.0
H396 H 0.01612 0.80507 0.57974 0.0
H397 H 0.04781 0.86403 0.56327 0.0
H398 H 0.01246 0.83164 0.49261 0.0
H399 H 0.93612 0.94719 0.59634 0.0
H400 H 0.9745 0.94597 0.51846 0.0
H401 H 0.00292 0.9418 0.60706 0.0
H402 H 0.04122 0.91959 0.31822 0.0
C403 C 0.98289 0.89495 0.38959 0.0
C404 C 0.1578 0.93884 0.24247 0.0
C405 C 0.14203 0.98962 0.23555 0.0
C406 C 0.1398 0.01995 0.29819 0.0
C407 C 0.16505 0.94893 0.37327 0.0
C408 C 0.16969 0.91946 0.31196 0.0
C409 C 0.19163 0.86808 0.3301 0.0
H410 H 0.29542 0.71311 0.58826 0.0
C411 C 0.17981 0.91832 0.43702 0.0
C412 C 0.19645 0.871 0.41264 0.0
H413 H 0.28961 0.6906 0.35568 0.0
H414 H 0.23777 0.76497 0.34094 0.0
H415 H 0.31509 0.82999 0.58934 0.0
H416 H 0.17606 0.74474 0.59807 0.0
H417 H 0.16618 0.79956 0.64961 0.0
H418 H 0.21471 0.75509 0.67757 0.0
H419 H 0.29717 0.79131 0.66535 0.0
H420 H 0.27695 0.85608 0.65756 0.0
C421 C 0.24394 0.8643 0.29334 0.0
C422 C 0.15288 0.82723 0.30595 0.0
C423 C 0.14618 0.98761 0.68745 0.0
C424 C 0.15368 0.96832 0.75782 0.0
C425 C 0.17524 0.91984 0.76688 0.0
C426 C 0.18958 0.89132 0.7064 0.0
C427 C 0.1826 0.9117 0.63629 0.0
C428 C 0.16122 0.95908 0.62795 0.0
C429 C 0.15648 0.97502 0.54993 0.0
C430 C 0.17721 0.92859 0.51232 0.0
C431 C 0.19264 0.89181 0.56302 0.0
C432 C 0.18975 0.02301 0.53821 0.0
C433 C 0.09958 0.98262 0.53241 0.0
C434 C 0.28278 0.72399 0.53419 0.0
C435 C 0.2979 0.6965 0.47295 0.0
C436 C 0.27947 0.71151 0.40373 0.0
C437 C 0.24972 0.75509 0.39508 0.0
C438 C 0.23827 0.7843 0.4562 0.0
C439 C 0.2531 0.76755 0.5246 0.0
C440 C 0.23616 0.80261 0.58361 0.0
C441 C 0.21239 0.84498 0.53893 0.0
C442 C 0.21362 0.8342 0.46419 0.0
C443 C 0.28357 0.82096 0.62684 0.0
C444 C 0.19647 0.77427 0.63021 0.0
H445 H 0.14946 0.02527 0.41165 0.0
H446 H 0.16216 0.91531 0.19507 0.0
H447 H 0.1142 0.83737 0.32433 0.0
H448 H 0.16097 0.78958 0.32946 0.0
H449 H 0.15136 0.82397 0.24588 0.0
H450 H 0.26375 0.90159 0.29395 0.0
H451 H 0.23982 0.85248 0.23582 0.0
H452 H 0.27032 0.83838 0.3217 0.0
H453 H 0.12909 0.02439 0.67853 0.0
H454 H 0.18125 0.90401 0.82067 0.0
H455 H 0.206 0.85479 0.7166 0.0
H456 H 0.21767 0.02888 0.58331 0.0
H457 H 0.16616 0.05779 0.53453 0.0
H458 H 0.2131 0.02012 0.48876 0.0
H459 H 0.07786 0.94932 0.55152 0.0
H460 H 0.09094 0.98542 0.47392 0.0
H461 H 0.08484 0.01688 0.55982 0.0
H462 H 0.12868 0.05938 0.29452 0.0
C463 C 0.15152 1.0 0.36656 0.0
C464 C 0.06116 0.13706 0.73038 0.0
C465 C 0.01315 0.11382 0.73345 0.0
C466 C 0.9881 0.10019 0.66833 0.0
C467 C 0.05729 0.13518 0.59875 0.0
C468 C 0.08248 0.14732 0.66268 0.0
C469 C 0.13115 0.17569 0.64958 0.0
H470 H 0.28912 0.28837 0.41155 0.0
C471 C 0.08797 0.1541 0.53793 0.0
C472 C 0.13154 0.17753 0.56713 0.0
H473 H 0.29798 0.29128 0.64644 0.0
H474 H 0.22614 0.23456 0.65248 0.0
H475 H 0.26061 0.16736 0.39423 0.0
H476 H 0.1699 0.30306 0.40169 0.0
H477 H 0.14816 0.26498 0.32931 0.0
H478 H 0.21179 0.28939 0.32821 0.0
H479 H 0.25743 0.21115 0.31945 0.0
H480 H 0.21101 0.16129 0.32995 0.0
C481 C 0.17558 0.14392 0.68096 0.0
C482 C 0.12635 0.22923 0.68333 0.0
C483 C 0.01956 0.136 0.28143 0.0
C484 C 0.0391 0.14694 0.21292 0.0
C485 C 0.08773 0.16884 0.208 0.0
C486 C 0.1164 0.17979 0.27109 0.0
C487 C 0.09604 0.1686 0.33964 0.0
C488 C 0.04872 0.1463 0.34343 0.0
C489 C 0.03411 0.13307 0.41936 0.0
C490 C 0.07947 0.15337 0.46178 0.0
C491 C 0.11561 0.17447 0.41502 0.0
C492 C 0.03075 0.0746 0.42297 0.0
C493 C 0.98411 0.16122 0.43667 0.0
C494 C 0.27621 0.2763 0.46448 0.0
C495 C 0.29949 0.29463 0.52874 0.0
C496 C 0.28101 0.27784 0.59617 0.0
C497 C 0.23899 0.24506 0.59948 0.0
C498 C 0.21472 0.2292 0.53474 0.0
C499 C 0.23388 0.24435 0.46865 0.0
C500 C 0.20191 0.22609 0.40538 0.0
C501 C 0.15983 0.19817 0.44441 0.0
C502 C 0.16769 0.19982 0.52013 0.0
C503 C 0.23423 0.1898 0.35919 0.0
C504 C 0.18191 0.27306 0.3633 0.0
H505 H 0.98743 0.10181 0.55405 0.0
H506 H 0.08118 0.14848 0.77946 0.0
H507 H 0.08633 0.24251 0.68178 0.0
H508 H 0.14739 0.25857 0.65314 0.0
H509 H 0.13928 0.22935 0.74099 0.0
H510 H 0.17054 0.1033 0.66705 0.0
H511 H 0.17769 0.14694 0.74112 0.0
H512 H 0.21264 0.15462 0.65835 0.0
H513 H 0.98257 0.11844 0.28681 0.0
H514 H 0.10316 0.17821 0.15561 0.0
H515 H 0.15315 0.19658 0.26414 0.0
H516 H 0.06612 0.05781 0.40232 0.0
H517 H 0.99949 0.06016 0.38776 0.0
H518 H 0.02614 0.05914 0.47792 0.0
H519 H 0.98118 0.19754 0.40604 0.0
H520 H 0.9816 0.17254 0.49421 0.0
H521 H 0.95042 0.13798 0.42167 0.0
H522 H 0.95097 0.08247 0.6691 0.0
C523 C 0.0097 0.11109 0.60117 0.0
C524 C 0.82983 0.05541 0.74701 0.0
C525 C 0.84622 0.00482 0.75245 0.0
C526 C 0.85207 0.9763 0.68866 0.0
C527 C 0.82969 0.04944 0.61559 0.0
C528 C 0.82175 0.07687 0.67809 0.0
C529 C 0.80241 0.12941 0.6619 0.0
H530 H 0.71437 0.29597 0.41069 0.0
C531 C 0.81938 0.08285 0.5529 0.0
C532 C 0.80233 0.12941 0.57921 0.0
H533 H 0.70167 0.30188 0.64446 0.0
H534 H 0.75547 0.22882 0.65661 0.0
H535 H 0.83747 0.26297 0.41478 0.0
H536 H 0.69781 0.17853 0.39059 0.0
H537 H 0.74117 0.16005 0.32332 0.0
H538 H 0.71928 0.22426 0.32514 0.0
H539 H 0.80292 0.26126 0.33012 0.0
H540 H 0.84844 0.21281 0.35454 0.0
C541 C 0.8412 0.16808 0.69276 0.0
C542 C 0.74829 0.13449 0.69346 0.0
C543 C 0.86321 0.02129 0.30211 0.0
C544 C 0.86221 0.04362 0.2329 0.0
C545 C 0.84605 0.09425 0.22548 0.0
C546 C 0.82976 0.12165 0.28632 0.0
C547 C 0.82972 0.098 0.35503 0.0
C548 C 0.84702 0.04886 0.36183 0.0
C549 C 0.84706 0.03011 0.43874 0.0
C550 C 0.82648 0.07593 0.4775 0.0
C551 C 0.81598 0.11555 0.42849 0.0
C552 C 0.90262 0.01968 0.46132 0.0
C553 C 0.81139 0.98334 0.44394 0.0
C554 C 0.72353 0.28177 0.46455 0.0
C555 C 0.703 0.30444 0.52679 0.0
C556 C 0.71666 0.28521 0.5958 0.0
C557 C 0.74732 0.24224 0.60274 0.0
C558 C 0.76419 0.21781 0.54003 0.0
C559 C 0.75381 0.23846 0.47236 0.0
C560 C 0.7751 0.20685 0.41191 0.0
C561 C 0.79563 0.16174 0.45444 0.0
C562 C 0.78944 0.16872 0.52949 0.0
C563 C 0.81803 0.23739 0.37526 0.0
C564 C 0.73129 0.19161 0.35948 0.0
H565 H 0.84773 0.97419 0.57416 0.0
H566 H 0.82369 0.07793 0.79513 0.0
H567 H 0.73194 0.09724 0.70942 0.0
H568 H 0.72089 0.15016 0.65314 0.0
H569 H 0.74835 0.15877 0.74259 0.0
H570 H 0.88022 0.15836 0.67538 0.0
H571 H 0.84105 0.168 0.75305 0.0
H572 H 0.83399 0.2071 0.67346 0.0
H573 H 0.87662 0.98288 0.30999 0.0
H574 H 0.84486 0.1122 0.17265 0.0
H575 H 0.81717 0.15985 0.2775 0.0
H576 H 0.92647 0.05264 0.44697 0.0
H577 H 0.91739 0.98578 0.43311 0.0
H578 H 0.90831 0.01496 0.52015 0.0
H579 H 0.78408 0.98147 0.3974 0.0
H580 H 0.78732 0.98455 0.49279 0.0
H581 H 0.8333 0.94747 0.44445 0.0
H582 H 0.86339 0.93692 0.69138 0.0
C583 C 0.84323 0.99814 0.62045 0.0
loop_
_geom_bond_atom_site_label_1
_geom_bond_atom_site_label_2
_geom_bond_distance
_geom_bond_site_symmetry_2
_ccdc_geom_bond_type
Zn0 O2 1.933 1_556 S
Zn0 O20 1.985 . S
Zn0 O31 1.955 . S
Zn1 O2 1.911 . S
Zn1 O21 1.970 . S
Zn1 O37 1.945 . S
Zn1 O44 1.981 . S
O2 Zn0 1.933 1_554 S
O2 Zn1 1.911 . S
O2 H3 0.841 1_655 S
H3 O2 0.841 1_455 S
C4 O5 1.246 . S
C4 O33 1.276 1_545 S
O5 C4 1.246 . S
Zn6 O8 1.911 . S
Zn6 O23 1.970 . S
Zn6 O40 1.945 . S
Zn6 O47 1.981 . S
Zn7 O8 1.933 1_556 S
Zn7 O22 1.985 . S
Zn7 O29 1.955 . S
O8 Zn6 1.911 . S
O8 Zn7 1.933 1_554 S
O8 H9 0.841 1_455 S
H9 O8 0.841 1_655 S
Zn10 O11 1.933 1_556 S
Zn10 O24 1.985 . S
Zn10 O33 1.955 . S
O11 Zn10 1.933 1_554 S
O11 Zn12 1.911 . S
O11 H13 0.841 1_565 S
Zn12 O11 1.911 . S
Zn12 O25 1.970 . S
Zn12 O41 1.981 . S
Zn12 O43 1.945 . S
H13 O11 0.841 1_545 S
Zn14 O15 1.933 1_556 S
Zn14 O27 1.985 . S
Zn14 O35 1.955 . S
O15 Zn14 1.933 1_554 S
O15 H16 0.841 1_545 S
O15 Zn17 1.911 . S
H16 O15 0.841 1_565 S
Zn17 O15 1.911 . S
Zn17 O28 1.970 . S
Zn17 O38 1.981 . S
Zn17 O46 1.945 . S
C18 O19 1.246 . S
C18 O35 1.276 1_565 S
O19 C18 1.246 . S
O20 Zn0 1.985 . S
O20 C30 1.245 1_556 S
O21 Zn1 1.970 . S
O21 C30 1.263 . S
O22 Zn7 1.985 . S
O22 C34 1.245 1_556 S
O23 Zn6 1.970 . S
O23 C34 1.263 . S
O24 Zn10 1.985 . S
O24 C39 1.245 1_556 S
O25 Zn12 1.970 . S
O25 C39 1.263 . S
C26 O37 1.262 1_455 S
C26 O38 1.245 . S
O27 Zn14 1.985 . S
O27 C45 1.245 1_556 S
O28 Zn17 1.970 . S
O28 C45 1.263 . S
O29 Zn7 1.955 . S
O29 C48 1.276 1_455 S
C30 O20 1.245 1_554 S
C30 O21 1.263 . S
O31 Zn0 1.955 . S
O31 C50 1.276 1_655 S
C32 O40 1.262 1_655 S
C32 O41 1.245 . S
O33 C4 1.276 1_565 S
O33 Zn10 1.955 . S
C34 O22 1.245 1_554 S
C34 O23 1.263 . S
O35 Zn14 1.955 . S
O35 C18 1.276 1_545 S
C36 O43 1.262 1_545 S
C36 O44 1.245 . S
O37 Zn1 1.945 . S
O37 C26 1.262 1_655 S
O38 Zn17 1.981 . S
O38 C26 1.245 . S
C39 O24 1.245 1_554 S
C39 O25 1.263 . S
O40 Zn6 1.945 . S
O40 C32 1.262 1_455 S
O41 Zn12 1.981 . S
O41 C32 1.245 . S
C42 O46 1.262 1_565 S
C42 O47 1.245 . S
O43 Zn12 1.945 . S
O43 C36 1.262 1_565 S
O44 Zn1 1.981 . S
O44 C36 1.245 . S
C45 O27 1.245 1_554 S
C45 O28 1.263 . S
O46 Zn17 1.945 . S
O46 C42 1.262 1_545 S
O47 Zn6 1.981 . S
O47 C42 1.245 . S
C48 O29 1.276 1_655 S
C48 O49 1.246 . S
O49 C48 1.246 . S
C50 O31 1.276 1_455 S
C50 O51 1.246 . S
O51 C50 1.246 . S
Zn52 O54 1.933 . S
Zn52 O72 1.985 . S
Zn52 O83 1.955 . S
Zn53 O54 1.911 . S
Zn53 O73 1.970 . S
Zn53 O89 1.945 . S
Zn53 O96 1.981 . S
O54 Zn52 1.933 . S
O54 Zn53 1.911 . S
O54 H55 0.841 . S
H55 O54 0.841 . S
C56 O57 1.246 . S
C56 O85 1.276 . S
O57 C56 1.246 . S
Zn58 O60 1.911 . S
Zn58 O75 1.970 . S
Zn58 O92 1.945 . S
Zn58 O99 1.981 . S
Zn59 O60 1.933 . S
Zn59 O74 1.985 . S
Zn59 O81 1.955 . S
O60 Zn58 1.911 . S
O60 Zn59 1.933 . S
O60 H61 0.841 . S
H61 O60 0.841 . S
Zn62 O63 1.933 . S
Zn62 O76 1.985 . S
Zn62 O85 1.955 . S
O63 Zn62 1.933 . S
O63 Zn64 1.911 . S
O63 H65 0.841 . S
Zn64 O63 1.911 . S
Zn64 O77 1.970 . S
Zn64 O93 1.981 . S
Zn64 O95 1.945 . S
H65 O63 0.841 . S
Zn66 O67 1.933 . S
Zn66 O79 1.985 . S
Zn66 O87 1.955 . S
O67 Zn66 1.933 . S
O67 H68 0.841 . S
O67 Zn69 1.911 . S
H68 O67 0.841 . S
Zn69 O67 1.911 . S
Zn69 O80 1.970 . S
Zn69 O90 1.981 . S
Zn69 O98 1.945 . S
C70 O71 1.246 . S
C70 O87 1.276 . S
O71 C70 1.246 . S
O72 Zn52 1.985 . S
O72 C82 1.245 . S
O73 Zn53 1.970 . S
O73 C82 1.263 . S
O74 Zn59 1.985 . S
O74 C86 1.245 . S
O75 Zn58 1.970 . S
O75 C86 1.263 . S
O76 Zn62 1.985 . S
O76 C91 1.245 . S
O77 Zn64 1.970 . S
O77 C91 1.263 . S
C78 O89 1.262 . S
C78 O90 1.245 . S
O79 Zn66 1.985 . S
O79 C97 1.245 . S
O80 Zn69 1.970 . S
O80 C97 1.263 . S
O81 Zn59 1.955 . S
O81 C100 1.276 . S
C82 O72 1.245 . S
C82 O73 1.263 . S
O83 Zn52 1.955 . S
O83 C102 1.276 . S
C84 O92 1.262 . S
C84 O93 1.245 . S
O85 C56 1.276 . S
O85 Zn62 1.955 . S
C86 O74 1.245 . S
C86 O75 1.263 . S
O87 Zn66 1.955 . S
O87 C70 1.276 . S
C88 O95 1.262 . S
C88 O96 1.245 . S
O89 Zn53 1.945 . S
O89 C78 1.262 . S
O90 Zn69 1.981 . S
O90 C78 1.245 . S
C91 O76 1.245 . S
C91 O77 1.263 . S
O92 Zn58 1.945 . S
O92 C84 1.262 . S
O93 Zn64 1.981 . S
O93 C84 1.245 . S
C94 O98 1.262 . S
C94 O99 1.245 . S
O95 Zn64 1.945 . S
O95 C88 1.262 . S
O96 Zn53 1.981 . S
O96 C88 1.245 . S
C97 O79 1.245 . S
C97 O80 1.263 . S
O98 Zn69 1.945 . S
O98 C94 1.262 . S
O99 Zn58 1.981 . S
O99 C94 1.245 . S
C100 O81 1.276 . S
C100 O101 1.246 . S
O101 C100 1.246 . S
C102 O83 1.276 . S
C102 O103 1.246 . S
O103 C102 1.246 . S
C104 C105 1.391 . S
C104 C108 1.391 . S
C104 H146 0.948 . S
C105 C104 1.391 . S
C105 C106 1.391 . S
C106 C105 1.391 . S
C106 H162 0.947 . S
C106 C163 1.392 . S
C107 C108 1.391 . S
C107 C111 1.397 . S
C107 C163 1.419 . S
C108 C104 1.391 . S
C108 C107 1.391 . S
C108 C109 1.399 . S
C109 C108 1.399 . S
C109 C112 1.396 . S
C109 C121 1.453 . S
C109 C122 1.684 . S
H110 C134 0.948 . S
C111 C107 1.397 . S
C111 C112 1.394 . S
C111 C130 1.723 1_556 S
C112 C109 1.396 . S
C112 C111 1.394 . S
C112 C142 1.723 . S
H113 C136 0.947 . S
H114 C137 0.948 . S
H115 C143 0.982 . S
H116 C144 0.979 . S
H117 C144 0.980 . S
H118 C144 0.983 . S
H119 C143 0.979 . S
H120 C143 0.977 . S
C121 C109 1.453 . S
C121 H150 0.982 . S
C121 H151 0.979 . S
C121 H152 0.977 . S
C122 C109 1.684 . S
C122 H147 0.979 . S
C122 H148 0.980 . S
C122 H149 0.983 . S
C123 C124 1.391 . S
C123 C128 1.391 . S
C123 H153 0.948 . S
C124 C123 1.391 . S
C124 C125 1.391 . S
C125 C124 1.391 . S
C125 C126 1.392 . S
C125 H154 0.947 . S
C126 C125 1.392 . S
C126 C127 1.419 . S
C126 H155 0.948 . S
C127 C126 1.419 . S
C127 C128 1.391 . S
C127 C131 1.397 . S
C128 C123 1.391 . S
C128 C127 1.391 . S
C128 C129 1.399 . S
C129 C128 1.399 . S
C129 C130 1.396 . S
C129 C132 1.453 . S
C129 C133 1.684 . S
C130 C111 1.723 1_554 S
C130 C129 1.396 . S
C130 C131 1.394 . S
C131 C127 1.397 . S
C131 C130 1.394 . S
C131 C141 1.723 . S
C132 C129 1.453 . S
C132 H156 0.982 . S
C132 H157 0.979 . S
C132 H158 0.977 1_554 S
C133 C129 1.684 . S
C133 H159 0.979 . S
C133 H160 0.980 1_554 S
C133 H161 0.983 . S
C134 H110 0.948 . S
C134 C135 1.391 1_554 S
C134 C139 1.391 . S
C135 C134 1.391 1_556 S
C135 C136 1.391 . S
C136 H113 0.947 . S
C136 C135 1.391 . S
C136 C137 1.392 . S
C137 H114 0.948 . S
C137 C136 1.392 . S
C137 C138 1.419 . S
C138 C137 1.419 . S
C138 C139 1.391 1_556 S
C138 C142 1.397 . S
C139 C134 1.391 . S
C139 C138 1.391 1_554 S
C139 C140 1.399 . S
C140 C139 1.399 . S
C140 C141 1.396 . S
C140 C143 1.453 . S
C140 C144 1.684 . S
C141 C131 1.723 . S
C141 C140 1.396 . S
C141 C142 1.394 1_554 S
C142 C112 1.723 . S
C142 C138 1.397 . S
C142 C141 1.394 1_556 S
C143 H115 0.982 . S
C143 H119 0.979 . S
C143 H120 0.977 . S
C143 C140 1.453 . S
C144 H116 0.979 . S
C144 H117 0.980 . S
C144 H118 0.983 . S
C144 C140 1.684 . S
H145 C163 0.948 . S
H146 C104 0.948 . S
H147 C122 0.979 . S
H148 C122 0.980 . S
H149 C122 0.983 . S
H150 C121 0.982 . S
H151 C121 0.979 . S
H152 C121 0.977 . S
H153 C123 0.948 . S
H154 C125 0.947 . S
H155 C126 0.948 . S
H156 C132 0.982 . S
H157 C132 0.979 . S
H158 C132 0.977 1_556 S
H159 C133 0.979 . S
H160 C133 0.980 1_556 S
H161 C133 0.983 . S
H162 C106 0.947 . S
C163 C106 1.392 . S
C163 C107 1.419 . S
C163 H145 0.948 . S
C164 C165 1.391 . S
C164 C168 1.391 . S
C164 H206 0.948 . S
C165 C164 1.391 . S
C165 C166 1.391 . S
C166 C165 1.391 . S
C166 H222 0.947 . S
C166 C223 1.392 . S
C167 C168 1.391 . S
C167 C171 1.397 . S
C167 C223 1.419 . S
C168 C164 1.391 . S
C168 C167 1.391 . S
C168 C169 1.399 . S
C169 C168 1.399 . S
C169 C172 1.396 . S
C169 C181 1.453 . S
C169 C182 1.684 . S
H170 C194 0.948 . S
C171 C167 1.397 . S
C171 C172 1.394 . S
C171 C190 1.723 1_556 S
C172 C169 1.396 . S
C172 C171 1.394 . S
C172 C202 1.723 . S
H173 C196 0.947 . S
H174 C197 0.948 . S
H175 C203 0.982 . S
H176 C204 0.979 . S
H177 C204 0.980 . S
H178 C204 0.983 . S
H179 C203 0.979 . S
H180 C203 0.977 . S
C181 C169 1.453 . S
C181 H210 0.982 . S
C181 H211 0.979 . S
C181 H212 0.977 . S
C182 C169 1.684 . S
C182 H207 0.979 . S
C182 H208 0.980 . S
C182 H209 0.983 . S
C183 C184 1.391 . S
C183 C188 1.391 . S
C183 H213 0.948 . S
C184 C183 1.391 . S
C184 C185 1.391 . S
C185 C184 1.391 . S
C185 C186 1.392 . S
C185 H214 0.947 . S
C186 C185 1.392 . S
C186 C187 1.419 . S
C186 H215 0.948 . S
C187 C186 1.419 . S
C187 C188 1.391 . S
C187 C191 1.397 . S
C188 C183 1.391 . S
C188 C187 1.391 . S
C188 C189 1.399 . S
C189 C188 1.399 . S
C189 C190 1.396 . S
C189 C192 1.453 . S
C189 C193 1.684 . S
C190 C171 1.723 1_554 S
C190 C189 1.396 . S
C190 C191 1.394 . S
C191 C187 1.397 . S
C191 C190 1.394 . S
C191 C201 1.723 . S
C192 C189 1.453 . S
C192 H216 0.982 . S
C192 H217 0.979 . S
C192 H218 0.977 1_554 S
C193 C189 1.684 . S
C193 H219 0.979 . S
C193 H220 0.980 1_554 S
C193 H221 0.983 . S
C194 H170 0.948 . S
C194 C195 1.391 1_554 S
C194 C199 1.391 . S
C195 C194 1.391 1_556 S
C195 C196 1.391 . S
C196 H173 0.947 . S
C196 C195 1.391 . S
C196 C197 1.392 . S
C197 H174 0.948 . S
C197 C196 1.392 . S
C197 C198 1.419 . S
C198 C197 1.419 . S
C198 C199 1.391 1_556 S
C198 C202 1.397 . S
C199 C194 1.391 . S
C199 C198 1.391 1_554 S
C199 C200 1.399 . S
C200 C199 1.399 . S
C200 C201 1.396 . S
C200 C203 1.453 . S
C200 C204 1.684 . S
C201 C191 1.723 . S
C201 C200 1.396 . S
C201 C202 1.394 1_554 S
C202 C172 1.723 . S
C202 C198 1.397 . S
C202 C201 1.394 1_556 S
C203 H175 0.982 . S
C203 H179 0.979 . S
C203 H180 0.977 . S
C203 C200 1.453 . S
C204 H176 0.979 . S
C204 H177 0.980 . S
C204 H178 0.983 . S
C204 C200 1.684 . S
H205 C223 0.948 . S
H206 C164 0.948 . S
H207 C182 0.979 . S
H208 C182 0.980 . S
H209 C182 0.983 . S
H210 C181 0.982 . S
H211 C181 0.979 . S
H212 C181 0.977 . S
H213 C183 0.948 . S
H214 C185 0.947 . S
H215 C186 0.948 . S
H216 C192 0.982 . S
H217 C192 0.979 . S
H218 C192 0.977 1_556 S
H219 C193 0.979 . S
H220 C193 0.980 1_556 S
H221 C193 0.983 . S
H222 C166 0.947 . S
C223 C166 1.392 . S
C223 C167 1.419 . S
C223 H205 0.948 . S
C224 C225 1.391 . S
C224 C228 1.391 . S
C224 H266 0.948 . S
C225 C224 1.391 . S
C225 C226 1.391 . S
C226 C225 1.391 . S
C226 H282 0.947 . S
C226 C283 1.392 . S
C227 C228 1.391 . S
C227 C231 1.397 . S
C227 C283 1.419 . S
C228 C224 1.391 . S
C228 C227 1.391 . S
C228 C229 1.399 . S
C229 C228 1.399 . S
C229 C232 1.396 . S
C229 C241 1.453 . S
C229 C242 1.684 . S
H230 C254 0.948 . S
C231 C227 1.397 . S
C231 C232 1.394 . S
C231 C250 1.723 1_554 S
C232 C229 1.396 . S
C232 C231 1.394 . S
C232 C262 1.723 . S
H233 C256 0.947 . S
H234 C257 0.948 . S
H235 C263 0.982 . S
H236 C264 0.979 . S
H237 C264 0.980 . S
H238 C264 0.983 . S
H239 C263 0.979 . S
H240 C263 0.977 . S
C241 C229 1.453 . S
C241 H270 0.982 . S
C241 H271 0.979 . S
C241 H272 0.977 . S
C242 C229 1.684 . S
C242 H267 0.979 . S
C242 H268 0.980 . S
C242 H269 0.983 . S
C243 C244 1.391 . S
C243 C248 1.391 . S
C243 H273 0.948 . S
C244 C243 1.391 . S
C244 C245 1.391 . S
C245 C244 1.391 . S
C245 C246 1.392 . S
C245 H274 0.947 . S
C246 C245 1.392 . S
C246 C247 1.419 . S
C246 H275 0.948 . S
C247 C246 1.419 . S
C247 C248 1.391 . S
C247 C251 1.397 . S
C248 C243 1.391 . S
C248 C247 1.391 . S
C248 C249 1.399 . S
C249 C248 1.399 . S
C249 C250 1.396 . S
C249 C252 1.453 . S
C249 C253 1.684 . S
C250 C231 1.723 1_556 S
C250 C249 1.396 . S
C250 C251 1.394 . S
C251 C247 1.397 . S
C251 C250 1.394 . S
C251 C261 1.723 . S
C252 C249 1.453 . S
C252 H276 0.982 . S
C252 H277 0.979 . S
C252 H278 0.977 1_556 S
C253 C249 1.684 . S
C253 H279 0.979 . S
C253 H280 0.980 1_556 S
C253 H281 0.983 . S
C254 H230 0.948 . S
C254 C255 1.391 1_556 S
C254 C259 1.391 . S
C255 C254 1.391 1_554 S
C255 C256 1.391 . S
C256 H233 0.947 . S
C256 C255 1.391 . S
C256 C257 1.392 . S
C257 H234 0.948 . S
C257 C256 1.392 . S
C257 C258 1.419 . S
C258 C257 1.419 . S
C258 C259 1.391 1_554 S
C258 C262 1.397 . S
C259 C254 1.391 . S
C259 C258 1.391 1_556 S
C259 C260 1.399 . S
C260 C259 1.399 . S
C260 C261 1.396 . S
C260 C263 1.453 . S
C260 C264 1.684 . S
C261 C251 1.723 . S
C261 C260 1.396 . S
C261 C262 1.394 1_556 S
C262 C232 1.723 . S
C262 C258 1.397 . S
C262 C261 1.394 1_554 S
C263 H235 0.982 . S
C263 H239 0.979 . S
C263 H240 0.977 . S
C263 C260 1.453 . S
C264 H236 0.979 . S
C264 H237 0.980 . S
C264 H238 0.983 . S
C264 C260 1.684 . S
H265 C283 0.948 . S
H266 C224 0.948 . S
H267 C242 0.979 . S
H268 C242 0.980 . S
H269 C242 0.983 . S
H270 C241 0.982 . S
H271 C241 0.979 . S
H272 C241 0.977 . S
H273 C243 0.948 . S
H274 C245 0.947 . S
H275 C246 0.948 . S
H276 C252 0.982 . S
H277 C252 0.979 . S
H278 C252 0.977 1_554 S
H279 C253 0.979 . S
H280 C253 0.980 1_554 S
H281 C253 0.983 . S
H282 C226 0.947 . S
C283 C226 1.392 . S
C283 C227 1.419 . S
C283 H265 0.948 . S
C284 C285 1.391 . S
C284 C288 1.391 . S
C284 H326 0.948 . S
C285 C284 1.391 . S
C285 C286 1.391 . S
C286 C285 1.391 . S
C286 H342 0.947 . S
C286 C343 1.392 . S
C287 C288 1.391 . S
C287 C291 1.397 . S
C287 C343 1.419 . S
C288 C284 1.391 . S
C288 C287 1.391 . S
C288 C289 1.399 . S
C289 C288 1.399 . S
C289 C292 1.396 . S
C289 C301 1.453 . S
C289 C302 1.684 . S
H290 C314 0.948 . S
C291 C287 1.397 . S
C291 C292 1.394 . S
C291 C310 1.723 1_554 S
C292 C289 1.396 . S
C292 C291 1.394 . S
C292 C322 1.723 . S
H293 C316 0.947 . S
H294 C317 0.948 . S
H295 C323 0.982 . S
H296 C324 0.979 . S
H297 C324 0.980 . S
H298 C324 0.983 . S
H299 C323 0.979 . S
H300 C323 0.977 . S
C301 C289 1.453 . S
C301 H330 0.982 . S
C301 H331 0.979 . S
C301 H332 0.977 . S
C302 C289 1.684 . S
C302 H327 0.979 . S
C302 H328 0.980 . S
C302 H329 0.983 . S
C303 C304 1.391 . S
C303 C308 1.391 . S
C303 H333 0.948 . S
C304 C303 1.391 . S
C304 C305 1.391 . S
C305 C304 1.391 . S
C305 C306 1.392 . S
C305 H334 0.947 . S
C306 C305 1.392 . S
C306 C307 1.419 . S
C306 H335 0.948 . S
C307 C306 1.419 . S
C307 C308 1.391 . S
C307 C311 1.397 . S
C308 C303 1.391 . S
C308 C307 1.391 . S
C308 C309 1.399 . S
C309 C308 1.399 . S
C309 C310 1.396 . S
C309 C312 1.453 . S
C309 C313 1.684 . S
C310 C291 1.723 1_556 S
C310 C309 1.396 . S
C310 C311 1.394 . S
C311 C307 1.397 . S
C311 C310 1.394 . S
C311 C321 1.723 . S
C312 C309 1.453 . S
C312 H336 0.982 . S
C312 H337 0.979 . S
C312 H338 0.977 1_556 S
C313 C309 1.684 . S
C313 H339 0.979 . S
C313 H340 0.980 1_556 S
C313 H341 0.983 . S
C314 H290 0.948 . S
C314 C315 1.391 1_556 S
C314 C319 1.391 . S
C315 C314 1.391 1_554 S
C315 C316 1.391 . S
C316 H293 0.947 . S
C316 C315 1.391 . S
C316 C317 1.392 . S
C317 H294 0.948 . S
C317 C316 1.392 . S
C317 C318 1.419 . S
C318 C317 1.419 . S
C318 C319 1.391 1_554 S
C318 C322 1.397 . S
C319 C314 1.391 . S
C319 C318 1.391 1_556 S
C319 C320 1.399 . S
C320 C319 1.399 . S
C320 C321 1.396 . S
C320 C323 1.453 . S
C320 C324 1.684 . S
C321 C311 1.723 . S
C321 C320 1.396 . S
C321 C322 1.394 1_556 S
C322 C292 1.723 . S
C322 C318 1.397 . S
C322 C321 1.394 1_554 S
C323 H295 0.982 . S
C323 H299 0.979 . S
C323 H300 0.977 . S
C323 C320 1.453 . S
C324 H296 0.979 . S
C324 H297 0.980 . S
C324 H298 0.983 . S
C324 C320 1.684 . S
H325 C343 0.948 . S
H326 C284 0.948 . S
H327 C302 0.979 . S
H328 C302 0.980 . S
H329 C302 0.983 . S
H330 C301 0.982 . S
H331 C301 0.979 . S
H332 C301 0.977 . S
H333 C303 0.948 . S
H334 C305 0.947 . S
H335 C306 0.948 . S
H336 C312 0.982 . S
H337 C312 0.979 . S
H338 C312 0.977 1_554 S
H339 C313 0.979 . S
H340 C313 0.980 1_554 S
H341 C313 0.983 . S
H342 C286 0.947 . S
C343 C286 1.392 . S
C343 C287 1.419 . S
C343 H325 0.948 . S
C344 C345 1.391 . S
C344 C348 1.391 . S
C344 H386 0.948 . S
C345 C344 1.391 . S
C345 C346 1.391 . S
C346 C345 1.391 . S
C346 H402 0.947 1_655 S
C346 C403 1.392 . S
C347 C348 1.391 . S
C347 C351 1.397 . S
C347 C403 1.419 . S
C348 C344 1.391 . S
C348 C347 1.391 . S
C348 C349 1.399 . S
C349 C348 1.399 . S
C349 C352 1.396 . S
C349 C361 1.453 . S
C349 C362 1.684 . S
H350 C374 0.948 . S
C351 C347 1.397 . S
C351 C352 1.394 . S
C351 C370 1.723 . S
C352 C349 1.396 . S
C352 C351 1.394 . S
C352 C382 1.723 . S
H353 C376 0.947 . S
H354 C377 0.948 . S
H355 C383 0.982 . S
H356 C384 0.979 . S
H357 C384 0.980 . S
H358 C384 0.983 . S
H359 C383 0.979 . S
H360 C383 0.977 . S
C361 C349 1.453 . S
C361 H390 0.982 . S
C361 H391 0.979 . S
C361 H392 0.977 . S
C362 C349 1.684 . S
C362 H387 0.979 . S
C362 H388 0.980 . S
C362 H389 0.983 . S
C363 C364 1.391 . S
C363 C368 1.391 . S
C363 H393 0.954 . S
C364 C363 1.391 . S
C364 C365 1.391 . S
C365 C364 1.391 . S
C365 C366 1.392 . S
C365 H394 0.947 . S
C366 C365 1.392 . S
C366 C367 1.419 . S
C366 H395 0.948 . S
C367 C366 1.419 . S
C367 C368 1.391 . S
C367 C371 1.397 . S
C368 C363 1.391 . S
C368 C367 1.391 . S
C368 C369 1.399 . S
C369 C368 1.399 . S
C369 C370 1.396 . S
C369 C372 1.453 1_655 S
C369 C373 1.684 . S
C370 C351 1.723 . S
C370 C369 1.396 . S
C370 C371 1.394 . S
C371 C367 1.397 . S
C371 C370 1.394 . S
C371 C381 1.723 . S
C372 C369 1.453 1_455 S
C372 H396 0.982 . S
C372 H397 0.979 . S
C372 H398 0.977 . S
C373 C369 1.684 . S
C373 H399 0.979 . S
C373 H400 0.980 . S
C373 H401 0.983 . S
C374 H350 0.948 . S
C374 C375 1.391 . S
C374 C379 1.391 . S
C375 C374 1.391 . S
C375 C376 1.391 . S
C376 H353 0.947 . S
C376 C375 1.391 . S
C376 C377 1.392 . S
C377 H354 0.948 . S
C377 C376 1.392 . S
C377 C378 1.419 . S
C378 C377 1.419 . S
C378 C379 1.391 . S
C378 C382 1.397 . S
C379 C374 1.391 . S
C379 C378 1.391 . S
C379 C380 1.399 . S
C380 C379 1.399 . S
C380 C381 1.396 . S
C380 C383 1.453 . S
C380 C384 1.684 . S
C381 C371 1.723 . S
C381 C380 1.396 . S
C381 C382 1.394 . S
C382 C352 1.723 . S
C382 C378 1.397 . S
C382 C381 1.394 . S
C383 H355 0.982 . S
C383 H359 0.979 . S
C383 H360 0.977 . S
C383 C380 1.453 . S
C384 H356 0.979 . S
C384 H357 0.980 . S
C384 H358 0.983 . S
C384 C380 1.684 . S
H385 C403 0.948 . S
H386 C344 0.948 . S
H387 C362 0.979 . S
H388 C362 0.980 . S
H389 C362 0.983 . S
H390 C361 0.982 . S
H391 C361 0.979 . S
H392 C361 0.977 . S
H393 C363 0.954 . S
H394 C365 0.947 . S
H395 C366 0.948 . S
H396 C372 0.982 . S
H397 C372 0.979 . S
H398 C372 0.977 . S
H399 C373 0.979 . S
H400 C373 0.980 . S
H401 C373 0.983 . S
H402 C346 0.947 1_455 S
C403 C346 1.392 . S
C403 C347 1.419 . S
C403 H385 0.948 . S
C404 C405 1.391 . S
C404 C408 1.391 . S
C404 H446 0.948 . S
C405 C404 1.391 . S
C405 C406 1.391 . S
C406 C405 1.391 . S
C406 H462 0.947 1_565 S
C406 C463 1.392 . S
C407 C408 1.391 . S
C407 C411 1.397 . S
C407 C463 1.419 . S
C408 C404 1.391 . S
C408 C407 1.391 . S
C408 C409 1.399 . S
C409 C408 1.399 . S
C409 C412 1.396 . S
C409 C421 1.453 . S
C409 C422 1.684 . S
H410 C434 0.948 . S
C411 C407 1.397 . S
C411 C412 1.394 . S
C411 C430 1.723 . S
C412 C409 1.396 . S
C412 C411 1.394 . S
C412 C442 1.723 . S
H413 C436 0.947 . S
H414 C437 0.948 . S
H415 C443 0.982 . S
H416 C444 0.979 . S
H417 C444 0.980 . S
H418 C444 0.983 . S
H419 C443 0.979 . S
H420 C443 0.977 . S
C421 C409 1.453 . S
C421 H450 0.982 . S
C421 H451 0.979 . S
C421 H452 0.977 . S
C422 C409 1.684 . S
C422 H447 0.979 . S
C422 H448 0.980 . S
C422 H449 0.983 . S
C423 C424 1.391 . S
C423 C428 1.391 . S
C423 H453 0.954 . S
C424 C423 1.391 . S
C424 C425 1.391 . S
C425 C424 1.391 . S
C425 C426 1.392 . S
C425 H454 0.947 . S
C426 C425 1.392 . S
C426 C427 1.419 . S
C426 H455 0.948 . S
C427 C426 1.419 . S
C427 C428 1.391 . S
C427 C431 1.397 . S
C428 C423 1.391 . S
C428 C427 1.391 . S
C428 C429 1.399 . S
C429 C428 1.399 . S
C429 C430 1.396 . S
C429 C432 1.453 1_565 S
C429 C433 1.684 . S
C430 C411 1.723 . S
C430 C429 1.396 . S
C430 C431 1.394 . S
C431 C427 1.397 . S
C431 C430 1.394 . S
C431 C441 1.723 . S
C432 C429 1.453 1_545 S
C432 H456 0.982 . S
C432 H457 0.979 . S
C432 H458 0.977 . S
C433 C429 1.684 . S
C433 H459 0.979 . S
C433 H460 0.980 . S
C433 H461 0.983 . S
C434 H410 0.948 . S
C434 C435 1.391 . S
C434 C439 1.391 . S
C435 C434 1.391 . S
C435 C436 1.391 . S
C436 H413 0.947 . S
C436 C435 1.391 . S
C436 C437 1.392 . S
C437 H414 0.948 . S
C437 C436 1.392 . S
C437 C438 1.419 . S
C438 C437 1.419 . S
C438 C439 1.391 . S
C438 C442 1.397 . S
C439 C434 1.391 . S
C439 C438 1.391 . S
C439 C440 1.399 . S
C440 C439 1.399 . S
C440 C441 1.396 . S
C440 C443 1.453 . S
C440 C444 1.684 . S
C441 C431 1.723 . S
C441 C440 1.396 . S
C441 C442 1.394 . S
C442 C412 1.723 . S
C442 C438 1.397 . S
C442 C441 1.394 . S
C443 H415 0.982 . S
C443 H419 0.979 . S
C443 H420 0.977 . S
C443 C440 1.453 . S
C444 H416 0.979 . S
C444 H417 0.980 . S
C444 H418 0.983 . S
C444 C440 1.684 . S
H445 C463 0.948 . S
H446 C404 0.948 . S
H447 C422 0.979 . S
H448 C422 0.980 . S
H449 C422 0.983 . S
H450 C421 0.982 . S
H451 C421 0.979 . S
H452 C421 0.977 . S
H453 C423 0.954 . S
H454 C425 0.947 . S
H455 C426 0.948 . S
H456 C432 0.982 . S
H457 C432 0.979 . S
H458 C432 0.977 . S
H459 C433 0.979 . S
H460 C433 0.980 . S
H461 C433 0.983 . S
H462 C406 0.947 1_545 S
C463 C406 1.392 . S
C463 C407 1.419 . S
C463 H445 0.948 . S
C464 C465 1.391 . S
C464 C468 1.391 . S
C464 H506 0.948 . S
C465 C464 1.391 . S
C465 C466 1.391 . S
C466 C465 1.391 . S
C466 H522 0.947 1_455 S
C466 C523 1.392 . S
C467 C468 1.391 . S
C467 C471 1.397 . S
C467 C523 1.419 . S
C468 C464 1.391 . S
C468 C467 1.391 . S
C468 C469 1.399 . S
C469 C468 1.399 . S
C469 C472 1.396 . S
C469 C481 1.453 . S
C469 C482 1.684 . S
H470 C494 0.948 . S
C471 C467 1.397 . S
C471 C472 1.394 . S
C471 C490 1.723 . S
C472 C469 1.396 . S
C472 C471 1.394 . S
C472 C502 1.723 . S
H473 C496 0.947 . S
H474 C497 0.948 . S
H475 C503 0.982 . S
H476 C504 0.979 . S
H477 C504 0.980 . S
H478 C504 0.983 . S
H479 C503 0.979 . S
H480 C503 0.977 . S
C481 C469 1.453 . S
C481 H510 0.982 . S
C481 H511 0.979 . S
C481 H512 0.977 . S
C482 C469 1.684 . S
C482 H507 0.979 . S
C482 H508 0.980 . S
C482 H509 0.983 . S
C483 C484 1.391 . S
C483 C488 1.391 . S
C483 H513 0.948 1_455 S
C484 C483 1.391 . S
C484 C485 1.391 . S
C485 C484 1.391 . S
C485 C486 1.392 . S
C485 H514 0.947 . S
C486 C485 1.392 . S
C486 C487 1.419 . S
C486 H515 0.948 . S
C487 C486 1.419 . S
C487 C488 1.391 . S
C487 C491 1.397 . S
C488 C483 1.391 . S
C488 C487 1.391 . S
C488 C489 1.399 . S
C489 C488 1.399 . S
C489 C490 1.396 . S
C489 C492 1.453 . S
C489 C493 1.684 1_455 S
C490 C471 1.723 . S
C490 C489 1.396 . S
C490 C491 1.394 . S
C491 C487 1.397 . S
C491 C490 1.394 . S
C491 C501 1.723 . S
C492 C489 1.453 . S
C492 H516 0.982 . S
C492 H517 0.979 . S
C492 H518 0.977 . S
C493 C489 1.684 1_655 S
C493 H519 0.979 . S
C493 H520 0.980 . S
C493 H521 0.983 . S
C494 H470 0.948 . S
C494 C495 1.391 . S
C494 C499 1.391 . S
C495 C494 1.391 . S
C495 C496 1.391 . S
C496 H473 0.947 . S
C496 C495 1.391 . S
C496 C497 1.392 . S
C497 H474 0.948 . S
C497 C496 1.392 . S
C497 C498 1.419 . S
C498 C497 1.419 . S
C498 C499 1.391 . S
C498 C502 1.397 . S
C499 C494 1.391 . S
C499 C498 1.391 . S
C499 C500 1.399 . S
C500 C499 1.399 . S
C500 C501 1.396 . S
C500 C503 1.453 . S
C500 C504 1.684 . S
C501 C491 1.723 . S
C501 C500 1.396 . S
C501 C502 1.394 . S
C502 C472 1.723 . S
C502 C498 1.397 . S
C502 C501 1.394 . S
C503 H475 0.982 . S
C503 H479 0.979 . S
C503 H480 0.977 . S
C503 C500 1.453 . S
C504 H476 0.979 . S
C504 H477 0.980 . S
C504 H478 0.983 . S
C504 C500 1.684 . S
H505 C523 0.938 1_655 S
H506 C464 0.948 . S
H507 C482 0.979 . S
H508 C482 0.980 . S
H509 C482 0.983 . S
H510 C481 0.982 . S
H511 C481 0.979 . S
H512 C481 0.977 . S
H513 C483 0.948 1_655 S
H514 C485 0.947 . S
H515 C486 0.948 . S
H516 C492 0.982 . S
H517 C492 0.979 . S
H518 C492 0.977 . S
H519 C493 0.979 . S
H520 C493 0.980 . S
H521 C493 0.983 . S
H522 C466 0.947 1_655 S
C523 C466 1.392 . S
C523 C467 1.419 . S
C523 H505 0.938 1_455 S
C524 C525 1.391 . S
C524 C528 1.391 . S
C524 H566 0.948 . S
C525 C524 1.391 . S
C525 C526 1.391 . S
C526 C525 1.391 . S
C526 H582 0.947 1_545 S
C526 C583 1.392 . S
C527 C528 1.391 . S
C527 C531 1.397 . S
C527 C583 1.419 . S
C528 C524 1.391 . S
C528 C527 1.391 . S
C528 C529 1.399 . S
C529 C528 1.399 . S
C529 C532 1.396 . S
C529 C541 1.453 . S
C529 C542 1.684 . S
H530 C554 0.948 . S
C531 C527 1.397 . S
C531 C532 1.394 . S
C531 C550 1.723 . S
C532 C529 1.396 . S
C532 C531 1.394 . S
C532 C562 1.723 . S
H533 C556 0.947 . S
H534 C557 0.948 . S
H535 C563 0.982 . S
H536 C564 0.979 . S
H537 C564 0.980 . S
H538 C564 0.983 . S
H539 C563 0.979 . S
H540 C563 0.977 . S
C541 C529 1.453 . S
C541 H570 0.982 . S
C541 H571 0.979 . S
C541 H572 0.977 . S
C542 C529 1.684 . S
C542 H567 0.979 . S
C542 H568 0.980 . S
C542 H569 0.983 . S
C543 C544 1.391 . S
C543 C548 1.391 . S
C543 H573 0.948 1_545 S
C544 C543 1.391 . S
C544 C545 1.391 . S
C545 C544 1.391 . S
C545 C546 1.392 . S
C545 H574 0.947 . S
C546 C545 1.392 . S
C546 C547 1.419 . S
C546 H575 0.948 . S
C547 C546 1.419 . S
C547 C548 1.391 . S
C547 C551 1.397 . S
C548 C543 1.391 . S
C548 C547 1.391 . S
C548 C549 1.399 . S
C549 C548 1.399 . S
C549 C550 1.396 . S
C549 C552 1.453 . S
C549 C553 1.684 1_545 S
C550 C531 1.723 . S
C550 C549 1.396 . S
C550 C551 1.394 . S
C551 C547 1.397 . S
C551 C550 1.394 . S
C551 C561 1.723 . S
C552 C549 1.453 . S
C552 H576 0.982 . S
C552 H577 0.979 . S
C552 H578 0.977 . S
C553 C549 1.684 1_565 S
C553 H579 0.979 . S
C553 H580 0.980 . S
C553 H581 0.983 . S
C554 H530 0.948 . S
C554 C555 1.391 . S
C554 C559 1.391 . S
C555 C554 1.391 . S
C555 C556 1.391 . S
C556 H533 0.947 . S
C556 C555 1.391 . S
C556 C557 1.392 . S
C557 H534 0.948 . S
C557 C556 1.392 . S
C557 C558 1.419 . S
C558 C557 1.419 . S
C558 C559 1.391 . S
C558 C562 1.397 . S
C559 C554 1.391 . S
C559 C558 1.391 . S
C559 C560 1.399 . S
C560 C559 1.399 . S
C560 C561 1.396 . S
C560 C563 1.453 . S
C560 C564 1.684 . S
C561 C551 1.723 . S
C561 C560 1.396 . S
C561 C562 1.394 . S
C562 C532 1.723 . S
C562 C558 1.397 . S
C562 C561 1.394 . S
C563 H535 0.982 . S
C563 H539 0.979 . S
C563 H540 0.977 . S
C563 C560 1.453 . S
C564 H536 0.979 . S
C564 H537 0.980 . S
C564 H538 0.983 . S
C564 C560 1.684 . S
H565 C583 0.938 1_565 S
H566 C524 0.948 . S
H567 C542 0.979 . S
H568 C542 0.980 . S
H569 C542 0.983 . S
H570 C541 0.982 . S
H571 C541 0.979 . S
H572 C541 0.977 . S
H573 C543 0.948 1_565 S
H574 C545 0.947 . S
H575 C546 0.948 . S
H576 C552 0.982 . S
H577 C552 0.979 . S
H578 C552 0.977 . S
H579 C553 0.979 . S
H580 C553 0.980 . S
H581 C553 0.983 . S
H582 C526 0.947 1_565 S
C583 C526 1.392 . S
C583 C527 1.419 . S
C583 H565 0.938 1_545 S
C45 C135 1.776 1_554 S
C30 C195 1.776 1_554 S
C39 C255 1.956 . S
C315 C34 1.956 . S
C97 C375 1.779 . S
C435 C82 1.779 . S
C495 C91 1.954 . S
C555 C86 1.954 . S
C484 C26 1.778 . S
C544 C36 1.783 . S
C345 C32 1.524 . S
C405 C42 1.520 . S
C18 C424 1.808 . S
C465 C50 1.882 . S
C4 C525 1.886 . S
C48 C364 1.812 . S
C244 C78 1.781 . S
C88 C304 1.781 . S
C105 C84 1.522 . S
C165 C94 1.522 . S
C184 C70 1.810 . S
C225 C102 1.884 . S
C56 C285 1.884 . S
C100 C124 1.810 . S
