# Generated by pormake.
# Topology ctn, (3,4)-cn, num edge types: 1
# Building blocks:
#     Node 0, Type 0, BuildingBlock: QEWDON_clean_linker_0, # of connection points: 3
#     Node 1, Type 0, BuildingBlock: QEWDON_clean_linker_0, # of connection points: 3
#     Node 2, Type 0, BuildingBlock: QEWDON_clean_linker_0, # of connection points: 3
#     Node 3, Type 0, BuildingBlock: QEWDON_clean_linker_0, # of connection points: 3
#     Node 4, Type 0, BuildingBlock: QEWDON_clean_linker_0, # of connection points: 3
#     Node 5, Type 0, BuildingBlock: QEWDON_clean_linker_0, # of connection points: 3
#     Node 6, Type 0, BuildingBlock: QEWDON_clean_linker_0, # of connection points: 3
#     Node 7, Type 0, BuildingBlock: QEWDON_clean_linker_0, # of connection points: 3
#     Node 8, Type 0, BuildingBlock: QEWDON_clean_linker_0, # of connection points: 3
#     Node 9, Type 0, BuildingBlock: QEWDON_clean_linker_0, # of connection points: 3
#     Node 10, Type 0, BuildingBlock: QEWDON_clean_linker_0, # of connection points: 3
#     Node 11, Type 0, BuildingBlock: QEWDON_clean_linker_0, # of connection points: 3
#     Node 12, Type 0, BuildingBlock: QEWDON_clean_linker_0, # of connection points: 3
#     Node 13, Type 0, BuildingBlock: QEWDON_clean_linker_0, # of connection points: 3
#     Node 14, Type 0, BuildingBlock: QEWDON_clean_linker_0, # of connection points: 3
#     Node 15, Type 0, BuildingBlock: QEWDON_clean_linker_0, # of connection points: 3
#     Node 16, Type 1, BuildingBlock: AZAVOO_clean_sbu_0, # of connection points: 4
#     Node 17, Type 1, BuildingBlock: AZAVOO_clean_sbu_0, # of connection points: 4
#     Node 18, Type 1, BuildingBlock: AZAVOO_clean_sbu_0, # of connection points: 4
#     Node 19, Type 1, BuildingBlock: AZAVOO_clean_sbu_0, # of connection points: 4
#     Node 20, Type 1, BuildingBlock: AZAVOO_clean_sbu_0, # of connection points: 4
#     Node 21, Type 1, BuildingBlock: AZAVOO_clean_sbu_0, # of connection points: 4
#     Node 22, Type 1, BuildingBlock: AZAVOO_clean_sbu_0, # of connection points: 4
#     Node 23, Type 1, BuildingBlock: AZAVOO_clean_sbu_0, # of connection points: 4
#     Node 24, Type 1, BuildingBlock: AZAVOO_clean_sbu_0, # of connection points: 4
#     Node 25, Type 1, BuildingBlock: AZAVOO_clean_sbu_0, # of connection points: 4
#     Node 26, Type 1, BuildingBlock: AZAVOO_clean_sbu_0, # of connection points: 4
#     Node 27, Type 1, BuildingBlock: AZAVOO_clean_sbu_0, # of connection points: 4
#     Edge 28, Type (0, 1), BuildingBlock: ZUJKAS_clean_linker_0, # of connection points: 2
#     Edge 29, Type (0, 1), BuildingBlock: ZUJKAS_clean_linker_0, # of connection points: 2
#     Edge 30, Type (0, 1), BuildingBlock: ZUJKAS_clean_linker_0, # of connection points: 2
#     Edge 31, Type (0, 1), BuildingBlock: ZUJKAS_clean_linker_0, # of connection points: 2
#     Edge 32, Type (0, 1), BuildingBlock: ZUJKAS_clean_linker_0, # of connection points: 2
#     Edge 33, Type (0, 1), BuildingBlock: ZUJKAS_clean_linker_0, # of connection points: 2
#     Edge 34, Type (0, 1), BuildingBlock: ZUJKAS_clean_linker_0, # of connection points: 2
#     Edge 35, Type (0, 1), BuildingBlock: ZUJKAS_clean_linker_0, # of connection points: 2
#     Edge 36, Type (0, 1), BuildingBlock: ZUJKAS_clean_linker_0, # of connection points: 2
#     Edge 37, Type (0, 1), BuildingBlock: ZUJKAS_clean_linker_0, # of connection points: 2
#     Edge 38, Type (0, 1), BuildingBlock: ZUJKAS_clean_linker_0, # of connection points: 2
#     Edge 39, Type (0, 1), BuildingBlock: ZUJKAS_clean_linker_0, # of connection points: 2
#     Edge 40, Type (0, 1), BuildingBlock: ZUJKAS_clean_linker_0, # of connection points: 2
#     Edge 41, Type (0, 1), BuildingBlock: ZUJKAS_clean_linker_0, # of connection points: 2
#     Edge 42, Type (0, 1), BuildingBlock: ZUJKAS_clean_linker_0, # of connection points: 2
#     Edge 43, Type (0, 1), BuildingBlock: ZUJKAS_clean_linker_0, # of connection points: 2
#     Edge 44, Type (0, 1), BuildingBlock: ZUJKAS_clean_linker_0, # of connection points: 2
#     Edge 45, Type (0, 1), BuildingBlock: ZUJKAS_clean_linker_0, # of connection points: 2
#     Edge 46, Type (0, 1), BuildingBlock: ZUJKAS_clean_linker_0, # of connection points: 2
#     Edge 47, Type (0, 1), BuildingBlock: ZUJKAS_clean_linker_0, # of connection points: 2
#     Edge 48, Type (0, 1), BuildingBlock: ZUJKAS_clean_linker_0, # of connection points: 2
#     Edge 49, Type (0, 1), BuildingBlock: ZUJKAS_clean_linker_0, # of connection points: 2
#     Edge 50, Type (0, 1), BuildingBlock: ZUJKAS_clean_linker_0, # of connection points: 2
#     Edge 51, Type (0, 1), BuildingBlock: ZUJKAS_clean_linker_0, # of connection points: 2
#     Edge 52, Type (0, 1), BuildingBlock: ZUJKAS_clean_linker_0, # of connection points: 2
#     Edge 53, Type (0, 1), BuildingBlock: ZUJKAS_clean_linker_0, # of connection points: 2
#     Edge 54, Type (0, 1), BuildingBlock: ZUJKAS_clean_linker_0, # of connection points: 2
#     Edge 55, Type (0, 1), BuildingBlock: ZUJKAS_clean_linker_0, # of connection points: 2
#     Edge 56, Type (0, 1), BuildingBlock: ZUJKAS_clean_linker_0, # of connection points: 2
#     Edge 57, Type (0, 1), BuildingBlock: ZUJKAS_clean_linker_0, # of connection points: 2
#     Edge 58, Type (0, 1), BuildingBlock: ZUJKAS_clean_linker_0, # of connection points: 2
#     Edge 59, Type (0, 1), BuildingBlock: ZUJKAS_clean_linker_0, # of connection points: 2
#     Edge 60, Type (0, 1), BuildingBlock: ZUJKAS_clean_linker_0, # of connection points: 2
#     Edge 61, Type (0, 1), BuildingBlock: ZUJKAS_clean_linker_0, # of connection points: 2
#     Edge 62, Type (0, 1), BuildingBlock: ZUJKAS_clean_linker_0, # of connection points: 2
#     Edge 63, Type (0, 1), BuildingBlock: ZUJKAS_clean_linker_0, # of connection points: 2
#     Edge 64, Type (0, 1), BuildingBlock: ZUJKAS_clean_linker_0, # of connection points: 2
#     Edge 65, Type (0, 1), BuildingBlock: ZUJKAS_clean_linker_0, # of connection points: 2
#     Edge 66, Type (0, 1), BuildingBlock: ZUJKAS_clean_linker_0, # of connection points: 2
#     Edge 67, Type (0, 1), BuildingBlock: ZUJKAS_clean_linker_0, # of connection points: 2
#     Edge 68, Type (0, 1), BuildingBlock: ZUJKAS_clean_linker_0, # of connection points: 2
#     Edge 69, Type (0, 1), BuildingBlock: ZUJKAS_clean_linker_0, # of connection points: 2
#     Edge 70, Type (0, 1), BuildingBlock: ZUJKAS_clean_linker_0, # of connection points: 2
#     Edge 71, Type (0, 1), BuildingBlock: ZUJKAS_clean_linker_0, # of connection points: 2
#     Edge 72, Type (0, 1), BuildingBlock: ZUJKAS_clean_linker_0, # of connection points: 2
#     Edge 73, Type (0, 1), BuildingBlock: ZUJKAS_clean_linker_0, # of connection points: 2
#     Edge 74, Type (0, 1), BuildingBlock: ZUJKAS_clean_linker_0, # of connection points: 2
#     Edge 75, Type (0, 1), BuildingBlock: ZUJKAS_clean_linker_0, # of connection points: 2
# Relax obj value: 0.112
# Max RMSD: 0.291
# Mean RMSD: 0.159
data_MOF--net-ctn--node1-AZAVOO_clean_sbu_0--node2-QEWDON_clean_linker_0--edge1-ZUJKAS_clean_linker_0
_symmetry_space_group_name_H-M    P1
_symmetry_Int_Tables_number       1
_symmetry_cell_setting            triclinic
loop_
_symmetry_equiv_pos_as_xyz
'x, y, z'
_cell_length_a     67.906887
_cell_length_b     71.56626
_cell_length_c     75.979872
_cell_angle_alpha  97.91883
_cell_angle_beta   94.255662
_cell_angle_gamma 98.173237
loop_
_atom_site_label
_atom_site_type_symbol
_atom_site_fract_x
_atom_site_fract_y
_atom_site_fract_z
_atom_type_partial_charge
H0 H 0.09178 0.02994 0.04381 0.0
C1 C 0.08237 0.02687 0.05429 0.0
C2 C 0.08151 0.00922 0.06068 0.0
C3 C 0.07222 0.04111 0.0622 0.0
H4 H 0.06961 0.99261 0.08031 0.0
C5 C 0.07011 0.00598 0.07507 0.0
C6 C 0.05987 0.02016 0.08311 0.0
C7 C 0.0607 0.03746 0.07626 0.0
C8 C 0.0749 0.06051 0.05708 0.0
H9 H 0.05256 0.04837 0.08209 0.0
C10 C 0.07256 0.06331 0.0391 0.0
C11 C 0.07441 0.08195 0.03466 0.0
C12 C 0.07954 0.07647 0.07053 0.0
H13 H 0.08169 0.0747 0.08445 0.0
C14 C 0.08146 0.09487 0.06622 0.0
H15 H 0.06911 0.05105 0.02869 0.0
C16 C 0.07879 0.09764 0.04848 0.0
H17 H 0.0798 0.11214 0.04564 0.0
H18 H 0.08486 0.10706 0.0767 0.0
H19 H 0.34654 0.75144 0.2469 0.0
C20 C 0.33533 0.73885 0.24314 0.0
C21 C 0.33883 0.72128 0.24798 0.0
C22 C 0.31731 0.74049 0.23358 0.0
H23 H 0.32609 0.69175 0.24714 0.0
C24 C 0.32405 0.70519 0.24279 0.0
C25 C 0.30599 0.70653 0.23305 0.0
C26 C 0.30274 0.72427 0.22841 0.0
C27 C 0.31327 0.75957 0.23038 0.0
H28 H 0.28871 0.72559 0.22125 0.0
C29 C 0.30923 0.76354 0.21297 0.0
C30 C 0.30646 0.7821 0.21013 0.0
C31 C 0.31409 0.77411 0.24497 0.0
H32 H 0.31713 0.7713 0.25848 0.0
C33 C 0.31087 0.79234 0.24226 0.0
H34 H 0.309 0.75242 0.20169 0.0
C35 C 0.30712 0.79636 0.225 0.0
H36 H 0.30464 0.81065 0.22329 0.0
H37 H 0.31137 0.80343 0.25359 0.0
H38 H 0.02831 0.47559 0.04031 0.0
C39 C 0.01601 0.48368 0.03956 0.0
C40 C 0.00935 0.49235 0.05535 0.0
C41 C 0.00777 0.48654 0.02283 0.0
H42 H 0.98875 0.51022 0.06631 0.0
C43 C 0.99393 0.5035 0.0542 0.0
C44 C 0.98501 0.50576 0.03749 0.0
C45 C 0.99211 0.4973 0.02194 0.0
C46 C 0.01622 0.47957 0.00618 0.0
H47 H 0.98576 0.49951 0.009 0.0
C48 C 0.01805 0.4602 1.00161 0.0
C49 C 0.02439 0.45366 0.98495 0.0
C50 C 0.02161 0.49241 0.99427 0.0
H51 H 0.02051 0.50742 0.99758 0.0
C52 C 0.02836 0.48601 0.97797 0.0
H53 H 0.01369 0.45015 0.01059 0.0
C54 C 0.02958 0.46673 0.97323 0.0
H55 H 0.03463 0.46199 0.9604 0.0
H56 H 0.03244 0.496 0.96889 0.0
H57 H 0.77652 0.81399 0.24355 0.0
C58 C 0.7757 0.80644 0.23006 0.0
C59 C 0.78379 0.81581 0.21652 0.0
C60 C 0.768 0.7869 0.22657 0.0
H61 H 0.78968 0.81261 0.18881 0.0
C62 C 0.7833 0.80553 0.19926 0.0
C63 C 0.77552 0.78599 0.19561 0.0
C64 C 0.76785 0.77683 0.20938 0.0
C65 C 0.76187 0.77637 0.24115 0.0
H66 H 0.76192 0.76172 0.2068 0.0
C67 C 0.7455 0.78042 0.25049 0.0
C68 C 0.73902 0.76936 0.26357 0.0
C69 C 0.77207 0.76154 0.24519 0.0
H70 H 0.78471 0.75823 0.23811 0.0
C71 C 0.76601 0.75081 0.25834 0.0
H72 H 0.73766 0.79188 0.24732 0.0
C73 C 0.74955 0.75456 0.26739 0.0
H74 H 0.74477 0.7455 0.27706 0.0
H75 H 0.77389 0.73933 0.26132 0.0
H76 H 0.10902 0.97178 0.49636 0.0
C77 C 0.09736 0.97532 0.48745 0.0
C78 C 0.09914 0.99355 0.4822 0.0
C79 C 0.08105 0.96126 0.48051 0.0
H80 H 0.08559 0.01137 0.46561 0.0
C81 C 0.08398 0.99766 0.47031 0.0
C82 C 0.06753 0.98371 0.46331 0.0
C83 C 0.06621 0.96553 0.46852 0.0
C84 C 0.08089 0.94134 0.48365 0.0
H85 H 0.05383 0.95448 0.46297 0.0
C86 C 0.0776 0.93583 0.50042 0.0
C87 C 0.07759 0.91667 0.50295 0.0
C88 C 0.08411 0.92767 0.46949 0.0
H89 H 0.08665 0.93169 0.45651 0.0
C90 C 0.08426 0.90877 0.47199 0.0
H91 H 0.07502 0.94636 0.51135 0.0
C92 C 0.08104 0.90327 0.48857 0.0
H93 H 0.08085 0.88841 0.49005 0.0
H94 H 0.08678 0.89831 0.461 0.0
H95 H 0.25696 0.67073 0.76912 0.0
C96 C 0.25447 0.68033 0.78079 0.0
C97 C 0.2637 0.67869 0.79755 0.0
C98 C 0.24272 0.69469 0.77878 0.0
H99 H 0.26769 0.6902 0.82552 0.0
C100 C 0.26075 0.6915 0.81252 0.0
C101 C 0.24892 0.70593 0.81085 0.0
C102 C 0.23978 0.70728 0.79391 0.0
C103 C 0.23492 0.69731 0.76061 0.0
H104 H 0.23126 0.71875 0.79234 0.0
C105 C 0.21511 0.70054 0.75693 0.0
C106 C 0.20785 0.70216 0.73942 0.0
C107 C 0.24749 0.69638 0.74671 0.0
H108 H 0.26289 0.69433 0.7492 0.0
C109 C 0.24043 0.69826 0.72946 0.0
H110 H 0.20521 0.70117 0.76748 0.0
C111 C 0.22075 0.70103 0.72579 0.0
H112 H 0.21564 0.70252 0.71227 0.0
H113 H 0.25026 0.69756 0.71888 0.0
H114 H 0.97074 0.55511 0.45124 0.0
C115 C 0.9612 0.54324 0.45522 0.0
C116 C 0.95759 0.54342 0.47325 0.0
C117 C 0.95179 0.52821 0.44215 0.0
H118 H 0.94116 0.5286 0.49174 0.0
C119 C 0.94469 0.52813 0.47802 0.0
C120 C 0.93507 0.51302 0.46506 0.0
C121 C 0.93882 0.51317 0.44712 0.0
C122 C 0.95301 0.5295 0.42303 0.0
H123 H 0.93134 0.50179 0.43689 0.0
C124 C 0.96953 0.52475 0.41418 0.0
C125 C 0.96978 0.52528 0.39568 0.0
C126 C 0.93695 0.53509 0.41344 0.0
H127 H 0.92413 0.53876 0.42007 0.0
C128 C 0.93729 0.536 0.39527 0.0
H129 H 0.98181 0.52017 0.42155 0.0
C130 C 0.95353 0.53112 0.38643 0.0
H131 H 0.95343 0.53208 0.37232 0.0
H132 H 0.92489 0.54044 0.38799 0.0
H133 H 0.8352 0.81275 0.78743 0.0
C134 C 0.83285 0.80119 0.79525 0.0
C135 C 0.84094 0.78433 0.79055 0.0
C136 C 0.82235 0.80348 0.81044 0.0
H137 H 0.84419 0.75659 0.79751 0.0
C138 C 0.83791 0.76955 0.801 0.0
C139 C 0.82734 0.77162 0.81622 0.0
C140 C 0.81968 0.7887 0.82079 0.0
C141 C 0.81575 0.82191 0.81666 0.0
H142 H 0.81209 0.79081 0.83281 0.0
C143 C 0.80169 0.82945 0.80619 0.0
C144 C 0.79471 0.84643 0.81297 0.0
C145 C 0.82316 0.8317 0.83368 0.0
H146 H 0.83403 0.82616 0.84191 0.0
C147 C 0.81671 0.84871 0.84024 0.0
H148 H 0.7957 0.82176 0.79316 0.0
C149 C 0.80257 0.85602 0.83002 0.0
H150 H 0.79788 0.86931 0.83545 0.0
H151 H 0.82261 0.85622 0.85333 0.0
H152 H 0.33647 0.31011 0.29129 0.0
C153 C 0.33437 0.29863 0.29922 0.0
C154 C 0.34323 0.2821 0.29494 0.0
C155 C 0.32345 0.30075 0.31417 0.0
H156 H 0.34749 0.25486 0.30271 0.0
C157 C 0.34051 0.26749 0.30565 0.0
C158 C 0.32928 0.26926 0.32045 0.0
C159 C 0.32081 0.28594 0.32451 0.0
C160 C 0.31639 0.31907 0.32028 0.0
H161 H 0.31267 0.28776 0.33622 0.0
C162 C 0.30471 0.32795 0.30875 0.0
C163 C 0.29771 0.34505 0.31522 0.0
C164 C 0.32124 0.3276 0.33817 0.0
H165 H 0.33039 0.32121 0.34724 0.0
C166 C 0.31442 0.34444 0.34458 0.0
H167 H 0.301 0.32151 0.29493 0.0
C168 C 0.30267 0.35305 0.33328 0.0
H169 H 0.29721 0.3659 0.33881 0.0
H170 H 0.31814 0.35078 0.35841 0.0
H171 H 0.53215 0.97872 0.53468 0.0
C172 C 0.52069 0.98777 0.53409 0.0
C173 C 0.51428 0.99662 0.54995 0.0
C174 C 0.51294 0.99111 0.5174 0.0
H175 H 0.49468 0.01568 0.5608 0.0
C176 C 0.49931 0.00832 0.54874 0.0
C177 C 0.49112 0.01146 0.532 0.0
C178 C 0.49806 0.0027 0.51646 0.0
C179 C 0.52137 0.98379 0.50089 0.0
H180 H 0.4919 0.00487 0.50345 0.0
C181 C 0.52129 0.96412 0.49581 0.0
C182 C 0.52865 0.95737 0.47964 0.0
C183 C 0.52922 0.9967 0.48992 0.0
H184 H 0.52949 0.01192 0.49364 0.0
C185 C 0.53694 0.99014 0.47414 0.0
H186 H 0.51486 0.95414 0.5041 0.0
C187 C 0.53666 0.97063 0.46899 0.0
H188 H 0.54281 0.96592 0.45669 0.0
H189 H 0.54311 1.0002 0.46583 0.0
H190 H 0.28486 0.31898 0.74941 0.0
C191 C 0.28226 0.31114 0.73598 0.0
C192 C 0.28981 0.31942 0.72163 0.0
C193 C 0.27166 0.29254 0.7333 0.0
H194 H 0.29273 0.31454 0.69331 0.0
C195 C 0.28618 0.30878 0.70438 0.0
C196 C 0.27539 0.29014 0.70147 0.0
C197 C 0.26798 0.2822 0.71604 0.0
C198 C 0.26661 0.28319 0.74885 0.0
H199 H 0.26002 0.26772 0.71409 0.0
C200 C 0.24664 0.27734 0.75181 0.0
C201 C 0.2422 0.26848 0.7668 0.0
C202 C 0.28212 0.28007 0.76084 0.0
H203 H 0.29759 0.28448 0.75872 0.0
C204 C 0.2778 0.27108 0.77555 0.0
H205 H 0.23466 0.27981 0.74258 0.0
C206 C 0.258 0.26532 0.77854 0.0
H207 H 0.25504 0.25877 0.7903 0.0
H208 H 0.28984 0.2687 0.78473 0.0
H209 H 0.84884 0.2532 0.75059 0.0
C210 C 0.83724 0.24089 0.74697 0.0
C211 C 0.83999 0.22344 0.75246 0.0
C212 C 0.81927 0.24282 0.73746 0.0
H213 H 0.82654 0.19431 0.7525 0.0
C214 C 0.82453 0.20786 0.7483 0.0
C215 C 0.80643 0.20955 0.73889 0.0
C216 C 0.80401 0.227 0.73314 0.0
C217 C 0.81592 0.26191 0.73367 0.0
H218 H 0.78992 0.22859 0.72626 0.0
C219 C 0.81122 0.26521 0.71613 0.0
C220 C 0.80899 0.28373 0.71273 0.0
C221 C 0.81792 0.2771 0.74783 0.0
H222 H 0.82143 0.27482 0.76145 0.0
C223 C 0.81525 0.29531 0.74459 0.0
H224 H 0.81003 0.25357 0.70517 0.0
C225 C 0.81086 0.29865 0.72719 0.0
H226 H 0.80881 0.31293 0.72506 0.0
H227 H 0.81667 0.30691 0.7556 0.0
H228 H 0.58903 0.5307 0.53973 0.0
C229 C 0.58014 0.52695 0.55036 0.0
C230 C 0.58051 0.50927 0.55649 0.0
C231 C 0.56896 0.54022 0.5584 0.0
H232 H 0.56929 0.49148 0.57555 0.0
C233 C 0.5689 0.50485 0.57045 0.0
C234 C 0.5572 0.51787 0.57823 0.0
C235 C 0.55742 0.5355 0.57213 0.0
C236 C 0.57046 0.55969 0.55368 0.0
H237 H 0.54904 0.54594 0.57848 0.0
C238 C 0.56539 0.56274 0.53612 0.0
C239 C 0.56547 0.58144 0.53226 0.0
C240 C 0.57627 0.57545 0.56718 0.0
H241 H 0.58034 0.5734 0.58076 0.0
C242 C 0.57687 0.59397 0.5633 0.0
H243 H 0.56062 0.55063 0.5257 0.0
C244 C 0.57141 0.59699 0.546 0.0
H245 H 0.5719 0.61152 0.54332 0.0
H246 H 0.58142 0.60603 0.57377 0.0
H247 H 0.61028 0.4706 0.99379 0.0
C248 C 0.59864 0.47469 0.98524 0.0
C249 C 0.60082 0.49314 0.98042 0.0
C250 C 0.5819 0.46112 0.97829 0.0
H251 H 0.58766 0.51174 0.96443 0.0
C252 C 0.58572 0.4979 0.96889 0.0
C253 C 0.56895 0.48441 0.9618 0.0
C254 C 0.56713 0.46608 0.96668 0.0
C255 C 0.58118 0.44093 0.98066 0.0
H256 H 0.55449 0.45538 0.96101 0.0
C257 C 0.57611 0.43445 0.99666 0.0
C258 C 0.57383 0.41477 0.99781 0.0
C259 C 0.58456 0.42779 0.96612 0.0
H260 H 0.58844 0.43257 0.95372 0.0
C261 C 0.58281 0.40841 0.96739 0.0
H262 H 0.57322 0.44451 0.00784 0.0
C263 C 0.57737 0.4019 0.98307 0.0
H264 H 0.57596 0.38674 0.9837 0.0
H265 H 0.58547 0.39837 0.95613 0.0
H266 H 0.76233 0.17908 0.26634 0.0
C267 C 0.75883 0.18704 0.27861 0.0
C268 C 0.76709 0.18346 0.29508 0.0
C269 C 0.74632 0.20099 0.27776 0.0
H270 H 0.76903 0.19137 0.32362 0.0
C271 C 0.76244 0.19387 0.31088 0.0
C272 C 0.7501 0.20808 0.31033 0.0
C273 C 0.74182 0.2113 0.29366 0.0
C274 C 0.73964 0.20597 0.26019 0.0
H275 H 0.7329 0.22263 0.29298 0.0
C276 C 0.71949 0.20751 0.2556 0.0
C277 C 0.71343 0.21172 0.23861 0.0
C278 C 0.7537 0.20918 0.24784 0.0
H279 H 0.76933 0.20835 0.25114 0.0
C280 C 0.74785 0.21374 0.23121 0.0
H281 H 0.70852 0.20481 0.26497 0.0
C282 C 0.72789 0.21498 0.22658 0.0
H283 H 0.72378 0.21862 0.21357 0.0
H284 H 0.75882 0.21631 0.22184 0.0
H285 H 0.47061 0.06006 0.94943 0.0
C286 C 0.46125 0.04806 0.95337 0.0
C287 C 0.45751 0.04817 0.97136 0.0
C288 C 0.45224 0.03287 0.94028 0.0
H289 H 0.44117 0.03309 0.98974 0.0
C290 C 0.44484 0.03268 0.97607 0.0
C291 C 0.4356 0.01742 0.96307 0.0
C292 C 0.43952 0.01762 0.94518 0.0
C293 C 0.45353 0.03423 0.92118 0.0
H294 H 0.43231 0.00614 0.93492 0.0
C295 C 0.46989 0.02912 0.91228 0.0
C296 C 0.47021 0.0298 0.89381 0.0
C297 C 0.43772 0.04029 0.91168 0.0
H298 H 0.42503 0.04425 0.91836 0.0
C299 C 0.43813 0.04131 0.89354 0.0
H300 H 0.48197 0.0242 0.91959 0.0
C301 C 0.45421 0.0361 0.88464 0.0
H302 H 0.45419 0.03716 0.87055 0.0
H303 H 0.42592 0.04611 0.88632 0.0
Mg304 Mg 0.24356 0.85097 0.01285 0.0
O305 O 0.27281 0.87109 0.01076 0.0
O306 O 0.29769 0.85388 0.01264 0.0
Mg307 Mg 0.28491 0.82343 0.01602 0.0
C308 C 0.29136 0.86954 0.01083 0.0
C309 C 0.20706 0.86986 0.01065 0.0
O310 O 0.20223 0.85425 0.01768 0.0
O311 O 0.24435 0.83684 0.98394 0.0
O312 O 0.26905 0.81969 0.98768 0.0
O313 O 0.24716 0.85741 0.04264 0.0
O314 O 0.25903 0.83382 0.02718 0.0
C315 C 0.25547 0.82497 0.97775 0.0
C316 C 0.25712 0.84327 0.04248 0.0
O317 O 0.22441 0.87304 0.00538 0.0
Mg318 Mg 0.15654 0.50637 0.25509 0.0
O319 O 0.13822 0.49891 0.22732 0.0
O320 O 0.16071 0.49929 0.20726 0.0
Mg321 Mg 0.19231 0.50578 0.22124 0.0
C322 C 0.14263 0.49729 0.21114 0.0
C323 C 0.13131 0.50548 0.28625 0.0
O324 O 0.14887 0.51506 0.29286 0.0
O325 O 0.16532 0.47639 0.25334 0.0
O326 O 0.18781 0.47784 0.23329 0.0
O327 O 0.15737 0.53759 0.25399 0.0
O328 O 0.18034 0.521 0.2441 0.0
C329 C 0.17811 0.46896 0.24422 0.0
C330 C 0.17364 0.53702 0.24619 0.0
O331 O 0.12891 0.49856 0.26974 0.0
Mg332 Mg 0.81774 0.66 1.00162 0.0
O333 O 0.7875 0.63982 0.99867 0.0
O334 O 0.76375 0.65847 0.99858 0.0
Mg335 Mg 0.77808 0.68966 1.00085 0.0
C336 C 0.7691 0.64201 0.99798 0.0
C337 C 0.85196 0.63878 0.00528 0.0
O338 O 0.85707 0.65587 0.01468 0.0
O339 O 0.81381 0.66442 0.97231 0.0
O340 O 0.79046 0.68355 0.97355 0.0
O341 O 0.81788 0.66343 0.03113 0.0
O342 O 0.80492 0.68243 0.01449 0.0
C343 C 0.8026 0.67461 0.9649 0.0
C344 C 0.80822 0.67762 0.03004 0.0
O345 O 0.83501 0.63497 0.99617 0.0
Mg346 Mg 0.94377 0.03158 0.27178 0.0
O347 O 0.92244 0.00303 0.26351 0.0
O348 O 0.94151 0.98058 0.25651 0.0
Mg349 Mg 0.97432 0.9939 0.26112 0.0
C350 C 0.92441 0.98572 0.25811 0.0
C351 C 0.91716 0.06239 0.27665 0.0
O352 O 0.93078 0.06878 0.26661 0.0
O353 O 0.95212 0.02296 0.29904 0.0
O354 O 0.97112 1.00069 0.29111 0.0
O355 O 0.94375 0.03623 0.2432 0.0
O356 O 0.96541 0.0212 0.25641 0.0
C357 C 0.96313 0.01076 0.30299 0.0
C358 C 0.95857 0.02672 0.24205 0.0
O359 O 0.91807 0.04639 0.28193 0.0
Mg360 Mg 0.31497 0.16264 0.50914 0.0
O361 O 0.28492 0.14205 0.5045 0.0
O362 O 0.26093 0.16034 0.50298 0.0
Mg363 Mg 0.27493 0.19167 0.50586 0.0
C364 C 0.26646 0.14398 0.50276 0.0
C365 C 0.34719 0.1396 0.51686 0.0
O366 O 0.34963 0.15459 0.52937 0.0
O367 O 0.31305 0.16718 0.47977 0.0
O368 O 0.28918 0.18572 0.47946 0.0
O369 O 0.3127 0.16587 0.53848 0.0
O370 O 0.30096 0.18478 0.52106 0.0
C371 C 0.30208 0.17705 0.47164 0.0
C372 C 0.30307 0.17994 0.53672 0.0
O373 O 0.333 0.13793 0.50454 0.0
Mg374 Mg 0.44881 0.53756 0.7706 0.0
O375 O 0.42993 0.50786 0.76139 0.0
O376 O 0.4511 0.48765 0.75331 0.0
Mg377 Mg 0.48302 0.50333 0.75934 0.0
C378 C 0.43342 0.49127 0.7551 0.0
C379 C 0.42151 0.5671 0.77909 0.0
O380 O 0.43694 0.5763 0.77276 0.0
O381 O 0.45771 0.52862 0.79754 0.0
O382 O 0.47851 0.50814 0.78926 0.0
O383 O 0.44842 0.54296 0.74223 0.0
O384 O 0.47172 0.52978 0.75552 0.0
C385 C 0.46955 0.51701 0.80123 0.0
C386 C 0.46423 0.53483 0.74118 0.0
O387 O 0.42149 0.54962 0.7806 0.0
Mg388 Mg 0.74109 0.34859 0.51452 0.0
O389 O 0.77074 0.36814 0.5125 0.0
O390 O 0.79531 0.35062 0.5146 0.0
Mg391 Mg 0.78188 0.32033 0.51795 0.0
C392 C 0.78923 0.36637 0.51269 0.0
C393 C 0.72588 0.38722 0.5168 0.0
O394 O 0.74093 0.39052 0.52929 0.0
O395 O 0.74188 0.3343 0.48565 0.0
O396 O 0.76625 0.31682 0.48956 0.0
O397 O 0.74461 0.35498 0.54435 0.0
O398 O 0.75611 0.33115 0.52893 0.0
C399 C 0.75286 0.32225 0.47955 0.0
C400 C 0.75433 0.34068 0.54421 0.0
O401 O 0.72264 0.37113 0.50674 0.0
Mg402 Mg 0.65549 0.00914 0.75266 0.0
O403 O 0.63652 1.0015 0.72525 0.0
O404 O 0.65848 1.00089 0.70474 0.0
Mg405 Mg 0.69037 0.00833 0.71809 0.0
C406 C 0.64052 0.99915 0.70896 0.0
C407 C 0.63127 0.00703 0.7846 0.0
O408 O 0.64915 0.01571 0.7913 0.0
O409 O 0.66441 0.97916 0.75079 0.0
O410 O 0.68689 0.98083 0.7308 0.0
O411 O 0.65593 0.0403 0.75171 0.0
O412 O 0.67864 0.02393 0.74094 0.0
C413 C 0.67742 0.97191 0.74182 0.0
C414 C 0.67181 0.03988 0.74334 0.0
O415 O 0.62836 1.00119 0.76788 0.0
Mg416 Mg 0.05284 0.22433 0.89338 0.0
O417 O 0.02293 0.21848 0.87592 0.0
O418 O 0.9987 0.21117 0.89328 0.0
Mg419 Mg 0.01301 0.21257 0.92175 0.0
C420 C 0.00451 0.21387 0.87809 0.0
C421 C 0.06865 0.22659 0.85609 0.0
O422 O 0.0581 0.2094 0.85303 0.0
O423 O 0.04573 0.25333 0.90538 0.0
O424 O 0.02203 0.24507 0.92307 0.0
O425 O 0.0559 0.19329 0.88917 0.0
O426 O 0.0413 0.20727 0.91127 0.0
C427 C 0.0335 0.25772 0.9167 0.0
C428 C 0.04647 0.19194 0.90326 0.0
O429 O 0.06873 0.23672 0.87123 0.0
Mg430 Mg 0.55067 0.72636 0.39173 0.0
O431 O 0.5208 0.71908 0.37416 0.0
O432 O 0.49694 0.71101 0.39172 0.0
Mg433 Mg 0.51133 0.71346 0.42032 0.0
C434 C 0.50253 0.7137 0.37646 0.0
C435 C 0.57284 0.7284 0.35764 0.0
O436 O 0.56973 0.70992 0.35798 0.0
O437 O 0.54195 0.75482 0.40311 0.0
O438 O 0.51915 0.7461 0.42141 0.0
O439 O 0.55535 0.69571 0.38805 0.0
O440 O 0.5398 0.70897 0.40978 0.0
C441 C 0.52987 0.75896 0.41464 0.0
C442 C 0.54571 0.69395 0.40194 0.0
O443 O 0.56601 0.73939 0.36949 0.0
Mg444 Mg 0.99626 0.74473 0.62173 0.0
O445 O 0.02433 0.74061 0.63911 0.0
O446 O 0.04722 0.73447 0.62033 0.0
Mg447 Mg 0.03437 0.73397 0.59163 0.0
C448 C 0.0418 0.73701 0.63611 0.0
C449 C 0.96423 0.74828 0.64745 0.0
O450 O 0.95634 0.7344 0.63465 0.0
O451 O 0.01133 0.77444 0.61726 0.0
O452 O 0.03301 0.766 0.59799 0.0
O453 O 0.98506 0.71319 0.61779 0.0
O454 O 0.00425 0.72722 0.59981 0.0
C455 C 0.02491 0.77874 0.60704 0.0
C456 C 0.99488 0.71171 0.60385 0.0
O457 O 0.98189 0.75663 0.64649 0.0
Mg458 Mg 0.49621 0.24781 0.12358 0.0
O459 O 0.52363 0.24113 0.14028 0.0
O460 O 0.54554 0.23352 0.12098 0.0
Mg461 Mg 0.53351 0.23619 0.09281 0.0
C462 C 0.54035 0.23588 0.13684 0.0
C463 C 0.47541 0.24742 0.15857 0.0
O464 O 0.47719 0.22938 0.15416 0.0
O465 O 0.51301 0.27726 0.12036 0.0
O466 O 0.53465 0.26843 0.10114 0.0
O467 O 0.48301 0.21666 0.11795 0.0
O468 O 0.50312 0.23085 0.10075 0.0
C469 C 0.5272 0.28131 0.11068 0.0
C470 C 0.49283 0.21541 0.104 0.0
O471 O 0.4828 0.25946 0.14904 0.0
H472 H 0.21551 0.72094 0.82047 0.0
H473 H 0.213 0.74492 0.84626 0.0
H474 H 0.27545 0.74674 0.86281 0.0
H475 H 0.27826 0.7234 0.8369 0.0
H476 H 0.22023 0.7429 0.88221 0.0
H477 H 0.27136 0.80297 0.86396 0.0
H478 H 0.26129 0.78194 0.84816 0.0
H479 H 0.28272 0.78179 0.86357 0.0
C480 C 0.22875 0.72663 0.8295 0.0
C481 C 0.24709 0.72024 0.82661 0.0
C482 C 0.22727 0.74026 0.84426 0.0
C483 C 0.24412 0.74788 0.85627 0.0
C484 C 0.26235 0.74139 0.8535 0.0
H485 H 0.2814 0.80669 0.95879 0.0
H486 H 0.27596 0.79014 0.92821 0.0
C487 C 0.26386 0.72781 0.8388 0.0
C488 C 0.24266 0.762 0.87219 0.0
H489 H 0.26532 0.80509 0.89501 0.0
C490 C 0.22976 0.75668 0.88487 0.0
C491 C 0.25501 0.78004 0.87557 0.0
C492 C 0.26822 0.78711 0.862 0.0
C493 C 0.22987 0.76837 0.90134 0.0
C494 C 0.24309 0.78587 0.90511 0.0
C495 C 0.25523 0.79163 0.89208 0.0
C496 C 0.24633 0.79717 0.92322 0.0
C497 C 0.21672 0.76148 0.91503 0.0
C498 C 0.23158 0.80699 0.93043 0.0
C499 C 0.23467 0.81663 0.94802 0.0
C500 C 0.25251 0.81643 0.95864 0.0
C501 C 0.26741 0.80701 0.95108 0.0
C502 C 0.26437 0.79757 0.93357 0.0
H503 H 0.20881 0.74669 0.91068 0.0
H504 H 0.22579 0.76196 0.92791 0.0
H505 H 0.20539 0.77106 0.91742 0.0
H506 H 0.21761 0.80698 0.92255 0.0
H507 H 0.22292 0.82375 0.95343 0.0
H508 H 0.9677 0.5033 0.36304 0.0
H509 H 0.99516 0.49689 0.34522 0.0
H510 H 0.03758 0.52838 0.38777 0.0
H511 H 0.01007 0.53493 0.40572 0.0
H512 H 0.02214 0.52467 0.33406 0.0
H513 H 0.06171 0.47961 0.37405 0.0
H514 H 0.03652 0.48379 0.37728 0.0
H515 H 0.05741 0.50172 0.38637 0.0
C516 C 0.98288 0.50879 0.36867 0.0
C517 C 0.98669 0.51977 0.38576 0.0
C518 C 0.99856 0.50504 0.35849 0.0
C519 C 0.01844 0.51203 0.36518 0.0
C520 C 0.02238 0.52253 0.38245 0.0
H521 H 0.13244 0.51945 0.32162 0.0
H522 H 0.10466 0.51974 0.34017 0.0
C523 C 0.00665 0.52629 0.39269 0.0
C524 C 0.03479 0.50947 0.35354 0.0
H525 H 0.07819 0.4908 0.35009 0.0
C526 C 0.03432 0.51714 0.33749 0.0
C527 C 0.05069 0.49969 0.35806 0.0
C528 C 0.05161 0.49057 0.3748 0.0
C529 C 0.04954 0.5157 0.32605 0.0
C530 C 0.06549 0.50596 0.33058 0.0
C531 C 0.06591 0.49818 0.34659 0.0
C532 C 0.08238 0.50458 0.31933 0.0
C533 C 0.04872 0.52519 0.30951 0.0
C534 C 0.07922 0.49555 0.30149 0.0
C535 C 0.09513 0.49542 0.29074 0.0
C536 C 0.11452 0.50421 0.29771 0.0
C537 C 0.11771 0.51262 0.31576 0.0
C538 C 0.10183 0.51277 0.32644 0.0
H539 H 0.03829 0.53585 0.31022 0.0
H540 H 0.06376 0.53246 0.30744 0.0
H541 H 0.04342 0.51419 0.29771 0.0
H542 H 0.0644 0.48879 0.29582 0.0
H543 H 0.09218 0.48872 0.27694 0.0
H544 H 0.79448 0.75915 0.83273 0.0
H545 H 0.79217 0.73734 0.8548 0.0
H546 H 0.85255 0.72755 0.8481 0.0
H547 H 0.85533 0.75005 0.82657 0.0
H548 H 0.79622 0.69941 0.85385 0.0
H549 H 0.85534 0.74584 0.90137 0.0
H550 H 0.84439 0.75382 0.88192 0.0
H551 H 0.86291 0.73824 0.87972 0.0
C552 C 0.80732 0.75242 0.83598 0.0
C553 C 0.82519 0.75659 0.82804 0.0
C554 C 0.80591 0.73982 0.8485 0.0
C555 C 0.82231 0.73108 0.85337 0.0
C556 C 0.83984 0.73444 0.84483 0.0
H557 H 0.83396 0.66897 0.94492 0.0
H558 H 0.83942 0.67918 0.91589 0.0
C559 C 0.84131 0.74714 0.83235 0.0
C560 C 0.82115 0.71915 0.86792 0.0
H561 H 0.84033 0.71758 0.91047 0.0
C562 C 0.80599 0.70328 0.86617 0.0
C563 C 0.83391 0.72419 0.884 0.0
C564 C 0.84996 0.74153 0.88701 0.0
C565 C 0.80298 0.69257 0.88019 0.0
C566 C 0.81531 0.698 0.89644 0.0
C567 C 0.83096 0.71339 0.89795 0.0
C568 C 0.81102 0.68931 0.91266 0.0
C569 C 0.78645 0.67569 0.87757 0.0
C570 C 0.79316 0.69139 0.92035 0.0
C571 C 0.79006 0.6857 0.93691 0.0
C572 C 0.80476 0.67778 0.94619 0.0
C573 C 0.82228 0.6749 0.93809 0.0
C574 C 0.82546 0.68078 0.92154 0.0
H575 H 0.78259 0.6699 0.8632 0.0
H576 H 0.79069 0.66411 0.88472 0.0
H577 H 0.77287 0.68028 0.88298 0.0
H578 H 0.78197 0.69825 0.91393 0.0
H579 H 0.77638 0.68812 0.94272 0.0
H580 H 0.05207 0.96063 0.43225 0.0
H581 H 0.02943 0.96774 0.40845 0.0
H582 H 0.02693 0.02279 0.43877 0.0
H583 H 0.04976 0.01578 0.46271 0.0
H584 H 0.99097 0.97669 0.40805 0.0
H585 H 0.04456 0.03669 0.3915 0.0
H586 H 0.05198 0.02031 0.40583 0.0
H587 H 0.03842 0.03891 0.4142 0.0
C588 C 0.04651 0.97415 0.434 0.0
C589 C 0.05275 0.98766 0.44937 0.0
C590 C 0.03361 0.97823 0.42033 0.0
C591 C 0.0267 0.99589 0.42171 0.0
C592 C 0.03241 0.00922 0.43726 0.0
H593 H 0.96133 0.03634 0.33316 0.0
H594 H 0.97346 0.03389 0.36394 0.0
C595 C 0.04541 0.00518 0.45093 0.0
C596 C 0.01397 1.00033 0.40656 0.0
H597 H 0.01379 0.02871 0.37391 0.0
C598 C 0.99586 0.9882 0.4007 0.0
C599 C 0.02031 0.01541 0.39702 0.0
C600 C 0.03994 0.02852 0.40231 0.0
C601 C 0.98425 0.99037 0.38525 0.0
C602 C 0.99102 0.00492 0.37531 0.0
C603 C 0.00861 0.01762 0.38162 0.0
C604 C 0.98151 0.00576 0.3573 0.0
C605 C 0.96504 0.97681 0.37946 0.0
C606 C 0.98193 0.99073 0.34346 0.0
C607 C 0.9752 0.99214 0.32597 0.0
C608 C 0.96787 0.00862 0.3219 0.0
C609 C 0.96677 0.02341 0.33588 0.0
C610 C 0.97374 0.02207 0.35344 0.0
H611 H 0.95893 0.97055 0.39088 0.0
H612 H 0.95358 0.98411 0.37319 0.0
H613 H 0.96797 0.96493 0.36947 0.0
H614 H 0.98818 0.97816 0.34608 0.0
H615 H 0.97622 0.98045 0.31554 0.0
H616 H 0.28123 0.25307 0.69332 0.0
H617 H 0.2811 0.23465 0.66373 0.0
H618 H 0.26553 0.28223 0.63939 0.0
H619 H 0.26572 0.30083 0.66904 0.0
H620 H 0.25195 0.22369 0.63495 0.0
H621 H 0.31676 0.27208 0.61749 0.0
H622 H 0.30947 0.27317 0.63991 0.0
H623 H 0.29581 0.28349 0.62353 0.0
C624 C 0.27746 0.25953 0.68169 0.0
C625 C 0.27356 0.27844 0.68351 0.0
C626 C 0.27747 0.249 0.66478 0.0
C627 C 0.27363 0.25718 0.64937 0.0
C628 C 0.26896 0.2758 0.65112 0.0
H629 H 0.28632 0.21267 0.53829 0.0
H630 H 0.27622 0.23117 0.56477 0.0
C631 C 0.26904 0.28638 0.66804 0.0
C632 C 0.27522 0.24635 0.63157 0.0
H633 H 0.30241 0.24627 0.59553 0.0
C634 C 0.2629 0.22866 0.62628 0.0
C635 C 0.28954 0.25287 0.62029 0.0
C636 C 0.30379 0.27135 0.6256 0.0
C637 C 0.26464 0.21725 0.61005 0.0
C638 C 0.27922 0.22361 0.59897 0.0
C639 C 0.29118 0.24149 0.60404 0.0
C640 C 0.28329 0.21147 0.58263 0.0
C641 C 0.25089 0.19847 0.60491 0.0
C642 C 0.29052 0.19425 0.5839 0.0
C643 C 0.29633 0.18368 0.56883 0.0
C644 C 0.29507 0.19019 0.55221 0.0
C645 C 0.28735 0.20721 0.55087 0.0
C646 C 0.28162 0.21782 0.56599 0.0
H647 H 0.23716 0.19817 0.61203 0.0
H648 H 0.24649 0.19559 0.59031 0.0
H649 H 0.25877 0.18678 0.60855 0.0
H650 H 0.29231 0.18929 0.59668 0.0
H651 H 0.30228 0.17067 0.57033 0.0
H652 H 0.56992 0.50422 0.60833 0.0
H653 H 0.5528 0.50268 0.63552 0.0
H654 H 0.50214 0.52232 0.61038 0.0
H655 H 0.51895 0.5235 0.58311 0.0
H656 H 0.54173 0.53482 0.65491 0.0
H657 H 0.47551 0.47901 0.63446 0.0
H658 H 0.49693 0.48119 0.62173 0.0
H659 H 0.47847 0.49669 0.61984 0.0
C660 C 0.55489 0.50765 0.60844 0.0
C661 C 0.54578 0.51401 0.59361 0.0
C662 C 0.54519 0.50688 0.624 0.0
C663 C 0.52613 0.51223 0.62493 0.0
C664 C 0.51667 0.5178 0.60988 0.0
H665 H 0.44959 0.54007 0.70791 0.0
H666 H 0.46471 0.53389 0.67978 0.0
C667 C 0.52637 0.51862 0.59436 0.0
C668 C 0.51701 0.51398 0.64211 0.0
H669 H 0.47501 0.49969 0.66191 0.0
C670 C 0.52725 0.52697 0.65652 0.0
C671 C 0.49803 0.50388 0.64409 0.0
C672 C 0.48665 0.48928 0.62926 0.0
C673 C 0.51882 0.53051 0.67273 0.0
C674 C 0.49978 0.52049 0.6747 0.0
C675 C 0.48959 0.50737 0.66035 0.0
C676 C 0.49025 0.52353 0.69159 0.0
C677 C 0.53011 0.54539 0.6874 0.0
C678 C 0.49944 0.51948 0.70747 0.0
C679 C 0.49093 0.52308 0.72353 0.0
C680 C 0.47291 0.53062 0.72401 0.0
C681 C 0.4635 0.5343 0.708 0.0
C682 C 0.47208 0.53073 0.69192 0.0
H683 H 0.54178 0.55514 0.68223 0.0
H684 H 0.51982 0.55406 0.69427 0.0
H685 H 0.53761 0.53818 0.69742 0.0
H686 H 0.5133 0.51363 0.70747 0.0
H687 H 0.49864 0.52016 0.7356 0.0
H688 H 0.78327 0.26231 0.68538 0.0
H689 H 0.77581 0.27009 0.6554 0.0
H690 H 0.81779 0.32229 0.66859 0.0
H691 H 0.82578 0.31436 0.69824 0.0
H692 H 0.76012 0.3016 0.64716 0.0
H693 H 0.8337 0.30002 0.6205 0.0
H694 H 0.82735 0.28976 0.64015 0.0
H695 H 0.83525 0.31506 0.64166 0.0
C696 C 0.79117 0.27526 0.68177 0.0
C697 C 0.80507 0.28774 0.69422 0.0
C698 C 0.78682 0.27974 0.66468 0.0
C699 C 0.79643 0.29665 0.65969 0.0
C700 C 0.81047 0.30899 0.67202 0.0
H701 H 0.75463 0.35911 0.57827 0.0
H702 H 0.76535 0.3482 0.60607 0.0
C703 C 0.81482 0.30454 0.68905 0.0
C704 C 0.79094 0.30207 0.64204 0.0
H705 H 0.81037 0.31525 0.60459 0.0
C706 C 0.77107 0.30442 0.63778 0.0
C707 C 0.8052 0.30558 0.62975 0.0
C708 C 0.82653 0.3023 0.63314 0.0
C709 C 0.76517 0.31069 0.62177 0.0
C710 C 0.77963 0.31506 0.60987 0.0
C711 C 0.79938 0.31217 0.61387 0.0
C712 C 0.77443 0.32237 0.59307 0.0
C713 C 0.74347 0.31241 0.61769 0.0
C714 C 0.77677 0.31187 0.57656 0.0
C715 C 0.77082 0.31815 0.56065 0.0
C716 C 0.76251 0.3351 0.56098 0.0
C717 C 0.76088 0.34594 0.57756 0.0
C718 C 0.76687 0.33967 0.59345 0.0
H719 H 0.73362 0.30384 0.62564 0.0
H720 H 0.74147 0.32757 0.62105 0.0
H721 H 0.73855 0.3077 0.6033 0.0
H722 H 0.78269 0.29854 0.57597 0.0
H723 H 0.77223 0.30942 0.54813 0.0
H724 H 0.55395 0.99575 0.5588 0.0
H725 H 0.57034 0.99253 0.58761 0.0
H726 H 0.51406 0.99074 0.61055 0.0
H727 H 0.49723 0.99335 0.58145 0.0
H728 H 0.54833 0.01747 0.6303 0.0
H729 H 0.56497 0.94388 0.61297 0.0
H730 H 0.57154 0.95937 0.59691 0.0
H731 H 0.54574 0.95312 0.60057 0.0
C732 C 0.54488 0.99426 0.56981 0.0
C733 C 0.52416 0.99457 0.56766 0.0
C734 C 0.55434 0.99252 0.58632 0.0
C735 C 0.54337 0.99113 0.60113 0.0
C736 C 0.52276 0.99168 0.59922 0.0
H737 H 0.59996 0.9977 0.71129 0.0
H738 H 0.57364 0.994 0.68656 0.0
C739 C 0.5132 0.99328 0.58261 0.0
C740 C 0.55383 0.98978 0.61866 0.0
H741 H 0.5835 0.96273 0.63893 0.0
C742 C 0.55574 0.00538 0.63238 0.0
C743 C 0.56342 0.97397 0.62128 0.0
C744 C 0.56121 0.95653 0.60722 0.0
C745 C 0.56806 0.0061 0.64827 0.0
C746 C 0.57837 0.9906 0.65057 0.0
C747 C 0.57562 0.97461 0.63716 0.0
C748 C 0.59372 0.99154 0.66581 0.0
C749 C 0.57086 0.0239 0.66195 0.0
C750 C 0.6136 0.99068 0.66238 0.0
C751 C 0.62857 0.9926 0.67639 0.0
C752 C 0.62407 0.99543 0.69427 0.0
C753 C 0.604 0.99565 0.69771 0.0
C754 C 0.58895 0.99367 0.68359 0.0
H755 H 0.56487 0.03588 0.65663 0.0
H756 H 0.56286 0.02082 0.67369 0.0
H757 H 0.58693 0.02855 0.66658 0.0
H758 H 0.61764 0.98897 0.64878 0.0
H759 H 0.64379 0.99224 0.67314 0.0
H760 H 0.84293 0.20666 0.78248 0.0
H761 H 0.87319 0.20417 0.80092 0.0
H762 H 0.90915 0.2337 0.76579 0.0
H763 H 0.87879 0.23638 0.74729 0.0
H764 H 0.90567 0.18687 0.79229 0.0
H765 H 0.9287 0.2648 0.81446 0.0
H766 H 0.90423 0.25488 0.80348 0.0
H767 H 0.92542 0.25759 0.7907 0.0
C768 C 0.85728 0.21251 0.7786 0.0
C769 C 0.85849 0.22173 0.76344 0.0
C770 C 0.87456 0.21113 0.78918 0.0
C771 C 0.8934 0.21895 0.78486 0.0
C772 C 0.89473 0.22792 0.76958 0.0
H773 H 0.00985 0.22463 0.84527 0.0
H774 H 0.98407 0.22465 0.82095 0.0
C775 C 0.8774 0.22941 0.75902 0.0
C776 C 0.91153 0.21761 0.79647 0.0
H777 H 0.94999 0.24438 0.82455 0.0
C778 C 0.91542 0.19944 0.79928 0.0
C779 C 0.92426 0.23404 0.80553 0.0
C780 C 0.92042 0.25395 0.80356 0.0
C781 C 0.93151 0.19726 0.81112 0.0
C782 C 0.94391 0.21368 0.82049 0.0
C783 C 0.94044 0.23183 0.81728 0.0
C784 C 0.9597 0.21241 0.8346 0.0
C785 C 0.93508 0.17742 0.8136 0.0
C786 C 0.95448 0.2055 0.85029 0.0
C787 C 0.9691 0.20556 0.86424 0.0
C788 C 0.98926 0.21253 0.86277 0.0
C789 C 0.99449 0.21909 0.84684 0.0
C790 C 0.9798 0.21915 0.83293 0.0
H791 H 0.92779 0.16658 0.80223 0.0
H792 H 0.95132 0.17662 0.81504 0.0
H793 H 0.92871 0.17372 0.82594 0.0
H794 H 0.939 0.20052 0.85193 0.0
H795 H 0.96452 0.20041 0.87629 0.0
H796 H 0.53667 0.92962 0.49957 0.0
H797 H 0.53584 0.89554 0.48901 0.0
H798 H 0.51799 0.9042 0.43544 0.0
H799 H 0.51812 0.93803 0.44594 0.0
H800 H 0.49616 0.87228 0.44529 0.0
H801 H 0.57772 0.87323 0.45986 0.0
H802 H 0.56529 0.88208 0.47862 0.0
H803 H 0.56678 0.89478 0.45982 0.0
C804 C 0.53239 0.92422 0.48558 0.0
C805 C 0.52767 0.93658 0.47356 0.0
C806 C 0.53213 0.9048 0.47954 0.0
C807 C 0.52721 0.89743 0.46139 0.0
C808 C 0.522 0.90963 0.44947 0.0
H809 H 0.55022 0.79069 0.40384 0.0
H810 H 0.54884 0.82418 0.41491 0.0
C811 C 0.52224 0.92899 0.45548 0.0
C812 C 0.52743 0.87702 0.45468 0.0
H813 H 0.55801 0.84307 0.44981 0.0
C814 C 0.50966 0.86587 0.44629 0.0
C815 C 0.54515 0.8688 0.45577 0.0
C816 C 0.56488 0.88034 0.46385 0.0
C817 C 0.5091 0.84664 0.43907 0.0
C818 C 0.52671 0.8383 0.44054 0.0
C819 C 0.54451 0.84949 0.44881 0.0
C820 C 0.52704 0.81799 0.43351 0.0
C821 C 0.48977 0.83554 0.4296 0.0
C822 C 0.5153 0.80344 0.44036 0.0
C823 C 0.516 0.78429 0.43403 0.0
C824 C 0.52859 0.7793 0.42081 0.0
C825 C 0.54033 0.79397 0.41397 0.0
C826 C 0.53959 0.81313 0.42031 0.0
H827 H 0.47932 0.84515 0.42557 0.0
H828 H 0.49256 0.826 0.41752 0.0
H829 H 0.48234 0.82655 0.43871 0.0
H830 H 0.5058 0.80688 0.45079 0.0
H831 H 0.50682 0.7734 0.43969 0.0
H832 H 0.22529 0.23519 0.77687 0.0
H833 H 0.19251 0.22838 0.7879 0.0
H834 H 0.17928 0.28324 0.77748 0.0
H835 H 0.21208 0.29011 0.76631 0.0
H836 H 0.18206 0.25043 0.8173 0.0
H837 H 0.12685 0.24751 0.75889 0.0
H838 H 0.15276 0.24529 0.75665 0.0
H839 H 0.14569 0.26836 0.76292 0.0
C840 C 0.21526 0.24568 0.77667 0.0
C841 C 0.22128 0.26323 0.77085 0.0
C842 C 0.19653 0.24175 0.78291 0.0
C843 C 0.18342 0.25526 0.78343 0.0
C844 C 0.189 0.27246 0.77688 0.0
H845 H 0.09363 0.26065 0.85888 0.0
H846 H 0.12013 0.26895 0.83994 0.0
C847 C 0.20775 0.27638 0.77054 0.0
C848 C 0.16503 0.25215 0.79267 0.0
H849 H 0.11408 0.2477 0.78725 0.0
C850 C 0.1672 0.24981 0.81071 0.0
C851 C 0.14568 0.25128 0.78402 0.0
C852 C 0.14249 0.25307 0.76451 0.0
C853 C 0.15057 0.24663 0.82037 0.0
C854 C 0.13122 0.24612 0.81185 0.0
C855 C 0.12897 0.24834 0.79377 0.0
C856 C 0.11325 0.24252 0.82151 0.0
C857 C 0.15383 0.24344 0.83954 0.0
C858 C 0.10004 0.2253 0.81691 0.0
C859 C 0.08482 0.22051 0.82767 0.0
C860 C 0.08258 0.2329 0.84321 0.0
C861 C 0.09506 0.25069 0.84711 0.0
C862 C 0.11024 0.25546 0.83633 0.0
H863 H 0.16905 0.24014 0.84283 0.0
H864 H 0.15201 0.25656 0.84851 0.0
H865 H 0.14269 0.23155 0.84236 0.0
H866 H 0.10211 0.21515 0.80548 0.0
H867 H 0.07539 0.20676 0.82421 0.0
H868 H 0.53928 0.60478 0.52352 0.0
H869 H 0.53198 0.6144 0.49449 0.0
H870 H 0.56974 0.57612 0.47094 0.0
H871 H 0.57736 0.56656 0.50027 0.0
H872 H 0.57969 0.61297 0.46467 0.0
H873 H 0.49853 0.59058 0.44829 0.0
H874 H 0.50397 0.60285 0.47072 0.0
H875 H 0.51285 0.58051 0.4646 0.0
C876 C 0.54579 0.59819 0.5121 0.0
C877 C 0.55902 0.58506 0.51415 0.0
C878 C 0.5414 0.60351 0.49546 0.0
C879 C 0.55006 0.59576 0.48047 0.0
C880 C 0.56272 0.58209 0.48231 0.0
H881 H 0.55783 0.66007 0.38927 0.0
H882 H 0.55735 0.63179 0.40427 0.0
C883 C 0.56704 0.57664 0.49902 0.0
C884 C 0.54794 0.60408 0.46375 0.0
H885 H 0.51314 0.6187 0.43615 0.0
C886 C 0.56519 0.61377 0.45803 0.0
C887 C 0.52902 0.60506 0.4551 0.0
C888 C 0.51008 0.594 0.45989 0.0
C889 C 0.56392 0.62581 0.44503 0.0
C890 C 0.54487 0.62793 0.43736 0.0
C891 C 0.52771 0.61712 0.44211 0.0
C892 C 0.54242 0.6433 0.42655 0.0
C893 C 0.58285 0.63732 0.44066 0.0
C894 C 0.53337 0.65871 0.4337 0.0
C895 C 0.53356 0.67479 0.42518 0.0
C896 C 0.54274 0.67575 0.40929 0.0
C897 C 0.55073 0.65981 0.40155 0.0
C898 C 0.55054 0.64367 0.41012 0.0
H899 H 0.59609 0.63594 0.44962 0.0
H900 H 0.58569 0.63231 0.42673 0.0
H901 H 0.58131 0.65267 0.4417 0.0
H902 H 0.52703 0.65871 0.44637 0.0
H903 H 0.52729 0.68678 0.43154 0.0
H904 H 0.83967 0.75367 0.76435 0.0
H905 H 0.86164 0.7502 0.74028 0.0
H906 H 0.89267 0.80724 0.75842 0.0
H907 H 0.87085 0.81081 0.78258 0.0
H908 H 0.86911 0.77734 0.71289 0.0
H909 H 0.93644 0.7697 0.75629 0.0
H910 H 0.91144 0.7645 0.76285 0.0
H911 H 0.92276 0.78878 0.76328 0.0
C912 C 0.85119 0.76547 0.76322 0.0
C913 C 0.85353 0.78252 0.77537 0.0
C914 C 0.86367 0.76348 0.74945 0.0
C915 C 0.87886 0.7784 0.7477 0.0
C916 C 0.88111 0.79552 0.75964 0.0
H917 H 0.97353 0.77874 0.67468 0.0
H918 H 0.9531 0.78776 0.69893 0.0
C919 C 0.86853 0.79758 0.77333 0.0
C920 C 0.89231 0.776 0.73333 0.0
H921 H 0.93965 0.7684 0.72553 0.0
C922 C 0.88456 0.77545 0.71562 0.0
C923 C 0.91249 0.77378 0.73701 0.0
C924 C 0.92139 0.77411 0.75585 0.0
C925 C 0.89642 0.77256 0.70141 0.0
C926 C 0.91643 0.76958 0.70499 0.0
C927 C 0.92432 0.77063 0.72278 0.0
C928 C 0.92897 0.76429 0.6904 0.0
C929 C 0.88742 0.77289 0.68271 0.0
C930 C 0.92242 0.74792 0.6778 0.0
C931 C 0.93394 0.74283 0.66396 0.0
C932 C 0.95246 0.75384 0.6625 0.0
C933 C 0.9593 0.77 0.67538 0.0
C934 C 0.94765 0.77517 0.68923 0.0
H935 H 0.87494 0.7814 0.68277 0.0
H936 H 0.89877 0.77894 0.6744 0.0
H937 H 0.88128 0.75809 0.67638 0.0
H938 H 0.90837 0.73897 0.6787 0.0
H939 H 0.92828 0.73016 0.65442 0.0
H940 H 0.04706 0.92382 0.5233 0.0
H941 H 0.03711 0.90854 0.549 0.0
H942 H 0.08804 0.8788 0.54647 0.0
H943 H 0.09814 0.89419 0.52115 0.0
H944 H 0.0269 0.86989 0.54684 0.0
H945 H 0.08881 0.89482 0.59978 0.0
H946 H 0.08511 0.90715 0.58087 0.0
H947 H 0.09802 0.88675 0.57901 0.0
C948 C 0.05643 0.91447 0.52861 0.0
C949 C 0.07333 0.91013 0.5202 0.0
C950 C 0.0507 0.90569 0.54323 0.0
C951 C 0.06196 0.89269 0.54982 0.0
C952 C 0.07935 0.88908 0.54192 0.0
H953 H 0.05884 0.7939 0.59404 0.0
H954 H 0.06601 0.82488 0.58416 0.0
C955 C 0.085 0.89774 0.52731 0.0
C956 C 0.0544 0.88091 0.56326 0.0
H957 H 0.06985 0.86344 0.60069 0.0
C958 C 0.03599 0.86883 0.55891 0.0
C959 C 0.06625 0.87958 0.57903 0.0
C960 C 0.08555 0.89293 0.58504 0.0
C961 C 0.02995 0.85437 0.56902 0.0
C962 C 0.04252 0.85215 0.58406 0.0
C963 C 0.06025 0.86511 0.58914 0.0
C964 C 0.03914 0.83479 0.59279 0.0
C965 C 0.01092 0.84067 0.56272 0.0
C966 C 0.02198 0.8303 0.6016 0.0
C967 C 0.01779 0.81244 0.60731 0.0
C968 C 0.03068 0.79882 0.60421 0.0
C969 C 0.04846 0.80394 0.59644 0.0
C970 C 0.05264 0.82171 0.59084 0.0
H971 H 0.00429 0.84288 0.54949 0.0
H972 H 0.01377 0.82568 0.56178 0.0
H973 H 0.99977 0.8427 0.5725 0.0
H974 H 0.01151 0.84032 0.60347 0.0
H975 H 0.004 0.80896 0.61329 0.0
H976 H 0.18716 0.72845 0.75634 0.0
H977 H 0.1543 0.73579 0.74605 0.0
H978 H 0.14912 0.68996 0.70189 0.0
H979 H 0.18159 0.68251 0.71216 0.0
H980 H 0.14629 0.7472 0.71336 0.0
H981 H 0.09344 0.68253 0.71874 0.0
H982 H 0.11806 0.68789 0.73072 0.0
H983 H 0.11472 0.67661 0.70777 0.0
C984 C 0.17872 0.71967 0.74472 0.0
C985 C 0.18693 0.70498 0.73498 0.0
C986 C 0.16002 0.72389 0.73883 0.0
C987 C 0.14913 0.71327 0.72332 0.0
C988 C 0.157 0.6981 0.71408 0.0
H989 H 0.08169 0.73589 0.63526 0.0
H990 H 0.10577 0.73247 0.6595 0.0
C991 C 0.17567 0.69398 0.71986 0.0
C992 C 0.13081 0.71924 0.71539 0.0
H993 H 0.08365 0.7013 0.69612 0.0
C994 C 0.13242 0.73734 0.70998 0.0
C995 C 0.1126 0.7065 0.71115 0.0
C996 C 0.10952 0.68738 0.71758 0.0
C997 C 0.1169 0.74242 0.69926 0.0
C998 C 0.09943 0.72898 0.69365 0.0
C999 C 0.09716 0.7115 0.70023 0.0
C1000 C 0.08457 0.73192 0.67938 0.0
C1001 C 0.11962 0.76187 0.69346 0.0
C1002 C 0.0645 0.73246 0.68242 0.0
C1003 C 0.05055 0.73444 0.66849 0.0
C1004 C 0.05642 0.73561 0.65123 0.0
C1005 C 0.07657 0.73503 0.64833 0.0
C1006 C 0.09044 0.73321 0.66223 0.0
H1007 H 0.13038 0.7723 0.70301 0.0
H1008 H 0.12567 0.76082 0.68024 0.0
H1009 H 0.10518 0.7674 0.69221 0.0
H1010 H 0.05964 0.73131 0.69555 0.0
H1011 H 0.03515 0.73476 0.67117 0.0
H1012 H 0.97399 0.54389 0.50741 0.0
H1013 H 0.98307 0.57161 0.53092 0.0
H1014 H 0.96809 0.60874 0.49354 0.0
H1015 H 0.95869 0.58115 0.47007 0.0
H1016 H 0.01118 0.60742 0.53229 0.0
H1017 H 0.9318 0.6176 0.53533 0.0
H1018 H 0.93898 0.59565 0.52494 0.0
H1019 H 0.94045 0.61605 0.51345 0.0
C1020 C 0.97276 0.55798 0.50418 0.0
C1021 C 0.96553 0.56031 0.4869 0.0
C1022 C 0.97803 0.57379 0.51759 0.0
C1023 C 0.976 0.59215 0.514 0.0
C1024 C 0.96957 0.59463 0.49661 0.0
H1025 H 0.0134 0.70461 0.57339 0.0
H1026 H 0.01028 0.67458 0.55308 0.0
C1027 C 0.96439 0.57887 0.48318 0.0
C1028 C 0.97968 0.60863 0.52859 0.0
H1029 H 0.9562 0.6416 0.5522 0.0
C1030 C 0.99918 0.61488 0.53671 0.0
C1031 C 0.96392 0.61811 0.53451 0.0
C1032 C 0.94256 0.61147 0.52675 0.0
C1033 C 0.00343 0.63076 0.55029 0.0
C1034 C 0.98777 0.64065 0.55575 0.0
C1035 C 0.96819 0.63404 0.54795 0.0
C1036 C 0.99136 0.6583 0.56906 0.0
C1037 C 0.0246 0.63679 0.55873 0.0
C1038 C 0.98172 0.65916 0.58481 0.0
C1039 C 0.98351 0.67635 0.59652 0.0
C1040 C 0.9948 0.69305 0.59257 0.0
C1041 C 0.00478 0.69201 0.57697 0.0
C1042 C 0.00306 0.67481 0.56533 0.0
H1043 H 0.03361 0.62501 0.55657 0.0
H1044 H 0.03179 0.64892 0.55263 0.0
H1045 H 0.02489 0.64156 0.5733 0.0
H1046 H 0.9725 0.64659 0.58787 0.0
H1047 H 0.97556 0.67667 0.60837 0.0
H1048 H 0.81975 0.82987 0.20607 0.0
H1049 H 0.83822 0.86213 0.21359 0.0
H1050 H 0.79102 0.87916 0.24419 0.0
H1051 H 0.77232 0.84665 0.23671 0.0
H1052 H 0.8277 0.89672 0.20689 0.0
H1053 H 0.84071 0.89515 0.2799 0.0
H1054 H 0.83182 0.87385 0.26411 0.0
H1055 H 0.81513 0.89039 0.27044 0.0
C1056 C 0.81313 0.84051 0.21422 0.0
C1057 C 0.79451 0.83573 0.22072 0.0
C1058 C 0.82377 0.85893 0.21857 0.0
C1059 C 0.81609 0.873 0.22958 0.0
C1060 C 0.79737 0.86842 0.23593 0.0
H1061 H 0.88602 0.98772 0.26671 0.0
H1062 H 0.85685 0.9624 0.25975 0.0
C1063 C 0.7867 0.84989 0.23162 0.0
C1064 C 0.82808 0.89229 0.23438 0.0
H1065 H 0.85591 0.92232 0.26906 0.0
C1066 C 0.83363 0.90245 0.22052 0.0
C1067 C 0.83576 0.89977 0.25219 0.0
C1068 C 0.83072 0.88923 0.26755 0.0
C1069 C 0.8473 0.91946 0.22389 0.0
C1070 C 0.8557 0.92642 0.24154 0.0
C1071 C 0.84935 0.91689 0.25555 0.0
C1072 C 0.87284 0.94209 0.24536 0.0
C1073 C 0.8532 0.92957 0.20848 0.0
C1074 C 0.8914 0.93891 0.23967 0.0
C1075 C 0.90802 0.95315 0.24372 0.0
C1076 C 0.90643 0.97096 0.25352 0.0
C1077 C 0.88772 0.9742 0.25908 0.0
C1078 C 0.87107 0.95978 0.25516 0.0
H1079 H 0.84197 0.92531 0.19668 0.0
H1080 H 0.85506 0.9453 0.21237 0.0
H1081 H 0.86772 0.92582 0.20451 0.0
H1082 H 0.89308 0.92525 0.23226 0.0
H1083 H 0.92215 0.95016 0.23918 0.0
H1084 H 0.76907 0.1557 0.31655 0.0
H1085 H 0.79377 0.1337 0.3173 0.0
H1086 H 0.82277 0.15874 0.27566 0.0
H1087 H 0.79838 0.18071 0.27489 0.0
H1088 H 0.80378 0.10704 0.28572 0.0
H1089 H 0.86744 0.16122 0.3182 0.0
H1090 H 0.84166 0.16438 0.31981 0.0
H1091 H 0.8533 0.16812 0.29985 0.0
C1092 C 0.78077 0.15653 0.30762 0.0
C1093 C 0.78174 0.16989 0.29561 0.0
C1094 C 0.79479 0.14394 0.30802 0.0
C1095 C 0.81015 0.14473 0.29663 0.0
C1096 C 0.81111 0.15801 0.28465 0.0
H1097 H 0.91066 0.09566 0.26535 0.0
H1098 H 0.88404 0.1142 0.27213 0.0
C1099 C 0.79706 0.17044 0.28413 0.0
C1100 C 0.82521 0.13166 0.29696 0.0
H1101 H 0.87538 0.13164 0.30445 0.0
C1102 C 0.81941 0.11227 0.29007 0.0
C1103 C 0.84554 0.13861 0.30265 0.0
C1104 C 0.85242 0.15919 0.3107 0.0
C1105 C 0.83362 0.09983 0.28779 0.0
C1106 C 0.85409 0.10695 0.29289 0.0
C1107 C 0.85971 0.12619 0.3005 0.0
C1108 C 0.87013 0.09526 0.28906 0.0
C1109 C 0.82673 0.07946 0.27908 0.0
C1110 C 0.8713 0.07843 0.29642 0.0
C1111 C 0.88656 0.06765 0.29247 0.0
C1112 C 0.90099 0.07362 0.2812 0.0
C1113 C 0.89984 0.0906 0.27407 0.0
C1114 C 0.88461 0.10126 0.27795 0.0
H1115 H 0.81118 0.07735 0.27264 0.0
H1116 H 0.83672 0.07509 0.26886 0.0
H1117 H 0.82719 0.06988 0.28936 0.0
H1118 H 0.86052 0.07371 0.30531 0.0
H1119 H 0.88708 0.0547 0.29826 0.0
H1120 H 0.39954 1.00094 0.94495 0.0
H1121 H 0.37459 0.97671 0.95374 0.0
H1122 H 0.41266 0.97527 1.00138 0.0
H1123 H 0.43787 0.99936 0.99259 0.0
H1124 H 0.37838 0.9397 0.96031 0.0
H1125 H 0.35892 0.98424 0.02039 0.0
H1126 H 0.37254 0.99427 0.00349 0.0
H1127 H 0.38515 0.98313 0.01988 0.0
C1128 C 0.40276 0.99532 0.95719 0.0
C1129 C 0.42075 0.00211 0.96806 0.0
C1130 C 0.38839 0.98157 0.96226 0.0
C1131 C 0.39163 0.97443 0.97834 0.0
C1132 C 0.40967 0.98092 0.9891 0.0
H1133 H 0.33173 0.87122 0.00961 0.0
H1134 H 0.35543 0.89712 0.00202 0.0
C1135 C 0.42407 0.99465 0.98404 0.0
C1136 C 0.37629 0.95986 0.98363 0.0
H1137 H 0.34545 0.9512 0.01612 0.0
C1138 C 0.37114 0.94223 0.97248 0.0
C1139 C 0.36666 0.96331 0.99939 0.0
C1140 C 0.37092 0.98231 0.01143 0.0
C1141 C 0.35694 0.92778 0.97687 0.0
C1142 C 0.34783 0.93097 0.99294 0.0
C1143 C 0.35261 0.94875 0.00389 0.0
C1144 C 0.33352 0.91583 0.99865 0.0
C1145 C 0.35169 0.90923 0.9642 0.0
C1146 C 0.31343 0.91802 0.99987 0.0
C1147 C 0.29974 0.9032 0.00427 0.0
C1148 C 0.30597 0.88597 0.00762 0.0
C1149 C 0.32631 0.88419 0.007 0.0
C1150 C 0.33991 0.89896 0.00258 0.0
H1151 H 0.35619 0.91075 0.95064 0.0
H1152 H 0.35962 0.89827 0.96934 0.0
H1153 H 0.33538 0.90399 0.96313 0.0
H1154 H 0.30825 0.93101 0.99699 0.0
H1155 H 0.28424 0.90512 0.00467 0.0
H1156 H 0.29983 0.38325 0.31421 0.0
H1157 H 0.27638 0.39943 0.29854 0.0
H1158 H 0.24362 0.34503 0.27342 0.0
H1159 H 0.26658 0.32861 0.28996 0.0
H1160 H 0.26646 0.40032 0.26461 0.0
H1161 H 0.19934 0.36973 0.29467 0.0
H1162 H 0.2243 0.36684 0.30247 0.0
H1163 H 0.21184 0.35242 0.28239 0.0
C1164 C 0.28756 0.37466 0.30546 0.0
C1165 C 0.28489 0.35461 0.30363 0.0
C1166 C 0.27421 0.38396 0.29639 0.0
C1167 C 0.25791 0.37349 0.28509 0.0
C1168 C 0.25575 0.35344 0.28244 0.0
H1169 H 0.19264 0.44252 0.22137 0.0
H1170 H 0.20928 0.41623 0.22918 0.0
C1171 C 0.26907 0.34407 0.29169 0.0
C1172 C 0.24332 0.38391 0.27642 0.0
H1173 H 0.19454 0.39115 0.27436 0.0
C1174 C 0.2507 0.3982 0.26662 0.0
C1175 C 0.22278 0.38131 0.27923 0.0
C1176 C 0.21406 0.36688 0.29039 0.0
C1177 C 0.23836 0.41036 0.26008 0.0
C1178 C 0.21777 0.4077 0.26276 0.0
C1179 C 0.21024 0.39307 0.27215 0.0
C1180 C 0.20428 0.42095 0.25715 0.0
C1181 C 0.24785 0.42659 0.25124 0.0
C1182 C 0.19443 0.43131 0.26991 0.0
C1183 C 0.18436 0.446 0.26534 0.0
C1184 C 0.18419 0.45071 0.24798 0.0
C1185 C 0.19274 0.43937 0.23492 0.0
C1186 C 0.20243 0.42445 0.23941 0.0
H1187 H 0.26433 0.4296 0.25449 0.0
H1188 H 0.24486 0.42272 0.23654 0.0
H1189 H 0.24164 0.43988 0.25537 0.0
H1190 H 0.19548 0.42878 0.28365 0.0
H1191 H 0.17797 0.45451 0.27571 0.0
H1192 H 0.13801 0.98705 0.48421 0.0
H1193 H 0.16837 0.0107 0.49045 0.0
H1194 H 0.13254 0.05584 0.49745 0.0
H1195 H 0.10214 0.03227 0.49191 0.0
H1196 H 0.17968 0.03895 0.47097 0.0
H1197 H 0.17328 0.07081 0.54053 0.0
H1198 H 0.15844 0.04852 0.53016 0.0
H1199 H 0.15121 0.0709 0.52605 0.0
C1200 C 0.13657 0.00197 0.48757 0.0
C1201 C 0.1176 0.00775 0.48765 0.0
C1202 C 0.15396 0.01548 0.49097 0.0
C1203 C 0.15276 0.03503 0.49463 0.0
C1204 C 0.13387 0.04082 0.49502 0.0
H1205 H 0.22598 0.14309 0.50055 0.0
H1206 H 0.20003 0.11547 0.49884 0.0
C1207 C 0.11648 0.02733 0.49166 0.0
C1208 C 0.17114 0.04947 0.4968 0.0
H1209 H 0.19599 0.08894 0.52419 0.0
C1210 C 0.18343 0.04972 0.48272 0.0
C1211 C 0.17605 0.06347 0.51216 0.0
C1212 C 0.16416 0.06333 0.52816 0.0
C1213 C 0.19996 0.0641 0.48324 0.0
C1214 C 0.2044 0.07849 0.49831 0.0
C1215 C 0.19249 0.07792 0.51262 0.0
C1216 C 0.22052 0.09497 0.49904 0.0
C1217 C 0.21206 0.06429 0.46738 0.0
C1218 C 0.24072 0.0926 0.49972 0.0
C1219 C 0.25573 0.10843 0.50071 0.0
C1220 C 0.25076 0.12692 0.50105 0.0
C1221 C 0.23044 0.12912 0.50027 0.0
C1222 C 0.21553 0.11334 0.49935 0.0
H1223 H 0.20469 0.05405 0.45563 0.0
H1224 H 0.21455 0.07881 0.46356 0.0
H1225 H 0.2269 0.06034 0.47097 0.0
H1226 H 0.24489 0.07854 0.4997 0.0
H1227 H 0.27119 0.10621 0.50136 0.0
H1228 H 0.79232 0.18922 0.7641 0.0
H1229 H 0.76711 0.16066 0.75993 0.0
H1230 H 0.75768 0.1644 0.70383 0.0
H1231 H 0.78292 0.19339 0.70803 0.0
H1232 H 0.72197 0.15412 0.71952 0.0
H1233 H 0.77876 0.10928 0.73582 0.0
H1234 H 0.77902 0.1293 0.75292 0.0
H1235 H 0.78535 0.13326 0.731 0.0
C1236 C 0.78486 0.18398 0.75087 0.0
C1237 C 0.7898 0.19329 0.73632 0.0
C1238 C 0.77048 0.16766 0.7485 0.0
C1239 C 0.76091 0.16014 0.7315 0.0
C1240 C 0.76506 0.16989 0.71704 0.0
H1241 H 0.70149 0.04247 0.72083 0.0
H1242 H 0.72116 0.07138 0.71408 0.0
C1243 C 0.77942 0.18641 0.71944 0.0
C1244 C 0.7471 0.14177 0.729 0.0
H1245 H 0.74467 0.0959 0.73721 0.0
C1246 C 0.72692 0.14128 0.72314 0.0
C1247 C 0.75368 0.12493 0.73333 0.0
C1248 C 0.77543 0.12412 0.73843 0.0
C1249 C 0.71293 0.12461 0.72239 0.0
C1250 C 0.71929 0.10819 0.72804 0.0
C1251 C 0.73967 0.10849 0.73305 0.0
C1252 C 0.70518 0.09077 0.72976 0.0
C1253 C 0.69155 0.12481 0.71557 0.0
C1254 C 0.68931 0.09195 0.74053 0.0
C1255 C 0.67779 0.07535 0.74417 0.0
C1256 C 0.68218 0.05726 0.73745 0.0
C1257 C 0.69767 0.05612 0.72625 0.0
C1258 C 0.70897 0.07269 0.72238 0.0
H1259 H 0.69061 0.13525 0.70611 0.0
H1260 H 0.68427 0.1105 0.70876 0.0
H1261 H 0.68306 0.12919 0.72697 0.0
H1262 H 0.6864 0.10567 0.74682 0.0
H1263 H 0.66607 0.07674 0.75297 0.0
H1264 H 0.4592 0.01515 0.55183 0.0
H1265 H 0.43394 0.03603 0.54857 0.0
H1266 H 0.46299 0.05733 0.50514 0.0
H1267 H 0.48876 0.03741 0.50893 0.0
H1268 H 0.45339 0.08564 0.52727 0.0
H1269 H 0.38735 0.02897 0.51082 0.0
H1270 H 0.40107 0.02806 0.53172 0.0
H1271 H 0.41264 0.02385 0.51128 0.0
C1272 C 0.46029 0.02441 0.5417 0.0
C1273 C 0.47591 0.02441 0.53051 0.0
C1274 C 0.44566 0.03612 0.53966 0.0
C1275 C 0.44626 0.04792 0.5263 0.0
C1276 C 0.46204 0.0482 0.51539 0.0
H1277 H 0.35061 0.10913 0.49137 0.0
H1278 H 0.37451 0.08646 0.49282 0.0
C1279 C 0.47671 0.03665 0.5175 0.0
C1280 C 0.43099 0.06058 0.52403 0.0
H1281 H 0.38079 0.06103 0.51658 0.0
C1282 C 0.43753 0.08021 0.52485 0.0
C1283 C 0.4103 0.05348 0.52053 0.0
C1284 C 0.4024 0.03242 0.51834 0.0
C1285 C 0.424 0.09299 0.52263 0.0
C1286 C 0.40325 0.08604 0.52001 0.0
C1287 C 0.39668 0.06635 0.51877 0.0
C1288 C 0.38822 0.09915 0.51919 0.0
C1289 C 0.43211 0.1138 0.52291 0.0
C1290 C 0.38771 0.11346 0.53365 0.0
C1291 C 0.37429 0.12642 0.5328 0.0
C1292 C 0.36082 0.12523 0.51755 0.0
C1293 C 0.36085 0.11048 0.50326 0.0
C1294 C 0.37447 0.09752 0.50408 0.0
H1295 H 0.44782 0.11575 0.51946 0.0
H1296 H 0.42294 0.12033 0.51344 0.0
H1297 H 0.4319 0.12163 0.53654 0.0
H1298 H 0.39781 0.11468 0.54562 0.0
H1299 H 0.37452 0.13742 0.54417 0.0
H1300 H 0.61868 0.51838 0.54756 0.0
H1301 H 0.64131 0.49669 0.5368 0.0
H1302 H 0.596 0.44844 0.53858 0.0
H1303 H 0.57301 0.47008 0.54904 0.0
H1304 H 0.63338 0.44621 0.55607 0.0
H1305 H 0.64126 0.46371 0.48781 0.0
H1306 H 0.64526 0.4842 0.50495 0.0
H1307 H 0.621 0.46979 0.50052 0.0
C1308 C 0.6133 0.50318 0.54527 0.0
C1309 C 0.59393 0.49601 0.54909 0.0
C1310 C 0.6263 0.49079 0.53912 0.0
C1311 C 0.62024 0.47097 0.53663 0.0
C1312 C 0.60092 0.46371 0.54031 0.0
H1313 H 0.69025 0.38308 0.49586 0.0
H1314 H 0.66397 0.40324 0.49923 0.0
C1315 C 0.58785 0.4761 0.54641 0.0
C1316 C 0.63462 0.45787 0.53145 0.0
H1317 H 0.6653 0.44599 0.49937 0.0
C1318 C 0.6402 0.44602 0.54359 0.0
C1319 C 0.6434 0.45754 0.51511 0.0
C1320 C 0.63732 0.46935 0.50125 0.0
C1321 C 0.65484 0.43436 0.54012 0.0
C1322 C 0.66424 0.43466 0.52414 0.0
C1323 C 0.65818 0.44596 0.51168 0.0
C1324 C 0.68081 0.42369 0.52058 0.0
C1325 C 0.6603 0.42191 0.55364 0.0
C1326 C 0.69918 0.42893 0.53103 0.0
C1327 C 0.7142 0.41756 0.5291 0.0
C1328 C 0.71114 0.40066 0.51669 0.0
C1329 C 0.69308 0.39597 0.50556 0.0
C1330 C 0.67804 0.40744 0.50748 0.0
H1331 H 0.64888 0.42023 0.56328 0.0
H1332 H 0.6621 0.40754 0.5469 0.0
H1333 H 0.67478 0.42851 0.56125 0.0
H1334 H 0.70166 0.44155 0.54107 0.0
H1335 H 0.72794 0.42169 0.53782 0.0
H1336 H 0.71592 0.22147 0.32025 0.0
H1337 H 0.71241 0.24399 0.34687 0.0
H1338 H 0.7745 0.24554 0.36461 0.0
H1339 H 0.77831 0.22369 0.33794 0.0
H1340 H 0.71904 0.24089 0.38307 0.0
H1341 H 0.76997 0.30198 0.36627 0.0
H1342 H 0.76008 0.28122 0.35007 0.0
H1343 H 0.78139 0.2808 0.36551 0.0
C1344 C 0.72884 0.22671 0.32978 0.0
C1345 C 0.7474 0.22077 0.32694 0.0
C1346 C 0.72679 0.23951 0.345 0.0
C1347 C 0.74329 0.24672 0.35752 0.0
C1348 C 0.76167 0.24048 0.35492 0.0
H1349 H 0.7788 0.30378 0.4608 0.0
H1350 H 0.77363 0.28746 0.43015 0.0
C1351 C 0.76374 0.22773 0.33977 0.0
C1352 C 0.74144 0.26048 0.37358 0.0
H1353 H 0.76335 0.30347 0.3971 0.0
C1354 C 0.7284 0.25475 0.38601 0.0
C1355 C 0.75354 0.27863 0.37729 0.0
C1356 C 0.76688 0.28612 0.36399 0.0
C1357 C 0.72816 0.26616 0.40258 0.0
C1358 C 0.74118 0.28376 0.4067 0.0
C1359 C 0.75343 0.28993 0.3939 0.0
C1360 C 0.74415 0.29475 0.42493 0.0
C1361 C 0.71489 0.25888 0.41602 0.0
C1362 C 0.72938 0.3046 0.43204 0.0
C1363 C 0.73233 0.31412 0.44968 0.0
C1364 C 0.75002 0.31375 0.46043 0.0
C1365 C 0.76492 0.30423 0.45299 0.0
C1366 C 0.76203 0.29492 0.43543 0.0
H1367 H 0.70692 0.24417 0.41131 0.0
H1368 H 0.72389 0.25897 0.42886 0.0
H1369 H 0.70362 0.26847 0.41865 0.0
H1370 H 0.71554 0.30474 0.42404 0.0
H1371 H 0.72058 0.32131 0.45501 0.0
H1372 H 0.51057 0.03856 0.90394 0.0
H1373 H 0.53794 0.03169 0.88587 0.0
H1374 H 0.49511 1.00126 0.84316 0.0
H1375 H 0.4678 0.00794 0.86108 0.0
H1376 H 0.54822 0.99615 0.86838 0.0
H1377 H 0.52741 0.04347 0.82021 0.0
H1378 H 0.5181 0.04418 0.84189 0.0
H1379 H 0.50745 0.02557 0.82399 0.0
C1380 C 0.50702 0.03017 0.89081 0.0
C1381 C 0.487 0.02405 0.88384 0.0
C1382 C 0.52265 0.02631 0.88048 0.0
C1383 C 0.51852 0.01631 0.86304 0.0
C1384 C 0.49862 0.00938 0.85642 0.0
H1385 H 0.59151 0.99293 0.77506 0.0
H1386 H 0.56404 0.99326 0.79428 0.0
C1387 C 0.48303 0.01323 0.86669 0.0
C1388 C 0.53489 0.01364 0.85146 0.0
H1389 H 0.55282 0.0252 0.81288 0.0
C1390 C 0.54928 0.00252 0.85626 0.0
C1391 C 0.53619 0.02192 0.83563 0.0
C1392 C 0.52159 0.03459 0.83014 0.0
C1393 C 0.56481 0.99926 0.84551 0.0
C1394 C 0.56617 0.00764 0.82972 0.0
C1395 C 0.55171 0.01868 0.82491 0.0
C1396 C 0.58294 0.00592 0.81838 0.0
C1397 C 0.57941 0.9866 0.85101 0.0
C1398 C 0.60268 0.0129 0.82552 0.0
C1399 C 0.61836 0.0127 0.81461 0.0
C1400 C 0.61465 0.00567 0.79624 0.0
C1401 C 0.5949 0.99839 0.78914 0.0
C1402 C 0.57919 0.9986 0.8001 0.0
H1403 H 0.57298 0.97686 0.86002 0.0
H1404 H 0.584 0.9779 0.83919 0.0
H1405 H 0.59297 0.99564 0.85833 0.0
H1406 H 0.60593 0.01904 0.83946 0.0
H1407 H 0.63336 0.0185 0.82054 0.0
H1408 H 0.29607 0.25563 0.33589 0.0
H1409 H 0.29393 0.23455 0.35859 0.0
H1410 H 0.35554 0.22754 0.35456 0.0
H1411 H 0.35808 0.24934 0.33238 0.0
H1412 H 0.29978 0.19739 0.35936 0.0
H1413 H 0.35569 0.2474 0.40723 0.0
H1414 H 0.34499 0.25413 0.38704 0.0
H1415 H 0.36437 0.23943 0.38615 0.0
C1416 C 0.3092 0.24965 0.33984 0.0
C1417 C 0.32733 0.25443 0.33248 0.0
C1418 C 0.30791 0.23747 0.35273 0.0
C1419 C 0.32468 0.22975 0.35855 0.0
C1420 C 0.34252 0.23364 0.35056 0.0
H1421 H 0.33486 0.17202 0.45334 0.0
H1422 H 0.3414 0.18137 0.42416 0.0
C1423 C 0.34386 0.24593 0.3377 0.0
C1424 C 0.32355 0.21843 0.37356 0.0
H1425 H 0.34128 0.21932 0.41701 0.0
C1426 C 0.309 0.20208 0.3719 0.0
C1427 C 0.3356 0.22453 0.38995 0.0
C1428 C 0.35094 0.24241 0.39284 0.0
C1429 C 0.30584 0.19196 0.3863 0.0
C1430 C 0.31739 0.19847 0.40284 0.0
C1431 C 0.3325 0.21431 0.40428 0.0
C1432 C 0.31268 0.19043 0.41931 0.0
C1433 C 0.28994 0.17456 0.38379 0.0
C1434 C 0.29432 0.19226 0.42616 0.0
C1435 C 0.2906 0.18709 0.4428 0.0
C1436 C 0.30518 0.17994 0.453 0.0
C1437 C 0.32328 0.17736 0.44579 0.0
C1438 C 0.32706 0.18275 0.42915 0.0
H1439 H 0.2868 0.16814 0.36951 0.0
H1440 H 0.2944 0.16359 0.39163 0.0
H1441 H 0.27588 0.17877 0.38848 0.0
H1442 H 0.28314 0.19848 0.41897 0.0
H1443 H 0.27649 0.18924 0.44791 0.0
H1444 H 0.55379 0.46214 0.93031 0.0
H1445 H 0.53191 0.47013 0.90643 0.0
H1446 H 0.52947 0.52468 0.93772 0.0
H1447 H 0.55166 0.51682 0.9617 0.0
H1448 H 0.49397 0.47915 0.9051 0.0
H1449 H 0.54843 0.54016 0.8917 0.0
H1450 H 0.55522 0.52339 0.90587 0.0
H1451 H 0.54131 0.54179 0.91409 0.0
C1452 C 0.54839 0.47574 0.93224 0.0
C1453 C 0.55447 0.48887 0.9479 0.0
C1454 C 0.53593 0.48032 0.91854 0.0
C1455 C 0.52927 0.49811 0.92016 0.0
C1456 C 0.53478 0.51104 0.93601 0.0
H1457 H 0.46564 0.54086 0.83197 0.0
H1458 H 0.47689 0.53736 0.86269 0.0
C1459 C 0.54739 0.50651 0.94971 0.0
C1460 C 0.51707 0.50309 0.90494 0.0
H1461 H 0.51819 0.53274 0.87329 0.0
C1462 C 0.49916 0.491 0.89827 0.0
C1463 C 0.52383 0.5186 0.89604 0.0
C1464 C 0.54331 0.53167 0.90215 0.0
C1465 C 0.48818 0.49361 0.88264 0.0
C1466 C 0.49535 0.50863 0.8734 0.0
C1467 C 0.51271 0.52129 0.8805 0.0
C1468 C 0.48654 0.51006 0.8553 0.0
C1469 C 0.46924 0.48002 0.87586 0.0
C1470 C 0.48819 0.49584 0.84106 0.0
C1471 C 0.48201 0.49788 0.8236 0.0
C1472 C 0.47397 0.51416 0.81998 0.0
C1473 C 0.47167 0.52811 0.83434 0.0
C1474 C 0.47812 0.52616 0.85186 0.0
H1475 H 0.46286 0.47283 0.88669 0.0
H1476 H 0.45784 0.48758 0.86989 0.0
H1477 H 0.47261 0.46884 0.86537 0.0
H1478 H 0.49492 0.48345 0.8434 0.0
H1479 H 0.48394 0.48684 0.81287 0.0
H1480 H 0.78677 0.75079 0.18853 0.0
H1481 H 0.78999 0.73277 0.15947 0.0
H1482 H 0.77122 0.77799 0.1334 0.0
H1483 H 0.76739 0.796 0.16254 0.0
H1484 H 0.75298 0.7399 0.11749 0.0
H1485 H 0.83562 0.74736 0.12854 0.0
H1486 H 0.82272 0.73817 0.14608 0.0
H1487 H 0.82121 0.7621 0.142 0.0
C1488 C 0.78304 0.75682 0.17663 0.0
C1489 C 0.7768 0.77484 0.17784 0.0
C1490 C 0.7851 0.74658 0.16004 0.0
C1491 C 0.78112 0.75419 0.14434 0.0
C1492 C 0.77448 0.77196 0.14541 0.0
H1493 H 0.7908 0.71002 0.03273 0.0
H1494 H 0.78268 0.72865 0.06 0.0
C1495 C 0.77241 0.78226 0.16204 0.0
C1496 C 0.78419 0.74359 0.12688 0.0
H1497 H 0.81988 0.72528 0.10354 0.0
C1498 C 0.7676 0.7368 0.11433 0.0
C1499 C 0.80331 0.73966 0.12284 0.0
C1500 C 0.82179 0.74734 0.13549 0.0
C1501 C 0.76956 0.72558 0.09804 0.0
C1502 C 0.78864 0.72134 0.09419 0.0
C1503 C 0.80525 0.72845 0.10661 0.0
C1504 C 0.79184 0.70935 0.07746 0.0
C1505 C 0.75116 0.71788 0.08534 0.0
C1506 C 0.79973 0.69238 0.07827 0.0
C1507 C 0.80447 0.68176 0.06276 0.0
C1508 C 0.80147 0.68798 0.04614 0.0
C1509 C 0.79312 0.70477 0.0453 0.0
C1510 C 0.78841 0.7154 0.06086 0.0
H1511 H 0.73722 0.7187 0.092 0.0
H1512 H 0.75083 0.72643 0.07423 0.0
H1513 H 0.75136 0.7028 0.07954 0.0
H1514 H 0.80255 0.68751 0.09097 0.0
H1515 H 0.81087 0.6689 0.06386 0.0
H1516 H 0.05961 0.04672 0.11253 0.0
H1517 H 0.04144 0.04358 0.13859 0.0
H1518 H 0.01893 0.98471 0.11748 0.0
H1519 H 0.03633 0.98805 0.09062 0.0
H1520 H 0.98981 0.00296 0.13095 0.0
H1521 H 0.05616 0.01784 0.1802 0.0
H1522 H 0.05572 0.03668 0.16697 0.0
H1523 H 0.05808 0.01303 0.1565 0.0
C1524 C 0.05064 0.03312 0.11325 0.0
C1525 C 0.04933 0.01767 0.09935 0.0
C1526 C 0.0405 0.03126 0.12835 0.0
C1527 C 0.02914 0.01381 0.13019 0.0
C1528 C 0.02776 0.99828 0.11641 0.0
H1529 H 0.98731 0.00422 0.23483 0.0
H1530 H 0.00258 0.99806 0.20705 0.0
C1531 C 0.03782 1.00017 0.10113 0.0
C1532 C 0.01832 0.01218 0.14634 0.0
H1533 H 0.02481 0.02201 0.1918 0.0
C1534 C 0.99747 0.00686 0.14427 0.0
C1535 C 0.02833 0.01689 0.16374 0.0
C1536 C 0.05083 0.02122 0.16699 0.0
C1537 C 0.98628 0.00697 0.15913 0.0
C1538 C 0.99618 0.01308 0.17648 0.0
C1539 C 0.01712 0.01759 0.17853 0.0
C1540 C 0.98526 0.01532 0.19273 0.0
C1541 C 0.96402 1.00042 0.15603 0.0
C1542 C 0.97029 0.02699 0.19401 0.0
C1543 C 0.96119 0.03023 0.20986 0.0
C1544 C 0.96717 0.02218 0.22488 0.0
C1545 C 0.98212 0.01048 0.22353 0.0
C1546 C 0.99098 0.007 0.20763 0.0
H1547 H 0.95998 0.9903 0.14339 0.0
H1548 H 0.95833 0.99337 0.16718 0.0
H1549 H 0.95635 0.01296 0.15491 0.0
H1550 H 0.96602 0.03408 0.18294 0.0
H1551 H 0.94988 0.03949 0.21049 0.0
H1552 H 0.28261 0.76105 0.1814 0.0
H1553 H 0.2764 0.76991 0.15166 0.0
H1554 H 0.31631 0.823 0.168 0.0
H1555 H 0.32306 0.81404 0.19745 0.0
H1556 H 0.26005 0.80138 0.14385 0.0
H1557 H 0.33555 0.80324 0.1204 0.0
H1558 H 0.32838 0.79185 0.13923 0.0
H1559 H 0.33554 0.81733 0.14186 0.0
C1560 C 0.29033 0.77445 0.17854 0.0
C1561 C 0.30328 0.78686 0.1918 0.0
C1562 C 0.28669 0.77953 0.16159 0.0
C1563 C 0.29608 0.79701 0.15756 0.0
C1564 C 0.30919 0.8093 0.1707 0.0
H1565 H 0.25634 0.86105 0.07661 0.0
H1566 H 0.2665 0.84975 0.10436 0.0
C1567 C 0.31282 0.80425 0.18761 0.0
C1568 C 0.29131 0.80299 0.14001 0.0
H1569 H 0.31237 0.8181 0.10397 0.0
C1570 C 0.27146 0.8049 0.13506 0.0
C1571 C 0.30619 0.8074 0.12849 0.0
C1572 C 0.32758 0.80468 0.13265 0.0
C1573 C 0.26615 0.81157 0.11912 0.0
C1574 C 0.28118 0.81678 0.10799 0.0
C1575 C 0.30094 0.81437 0.11267 0.0
C1576 C 0.27654 0.82446 0.09127 0.0
C1577 C 0.24447 0.81281 0.11425 0.0
C1578 C 0.27961 0.81442 0.07476 0.0
C1579 C 0.27396 0.82091 0.05888 0.0
C1580 C 0.26522 0.83763 0.05925 0.0
C1581 C 0.26293 0.84808 0.07586 0.0
C1582 C 0.26861 0.84158 0.09172 0.0
H1583 H 0.23437 0.80379 0.12166 0.0
H1584 H 0.24197 0.82781 0.11769 0.0
H1585 H 0.2403 0.80831 0.09972 0.0
H1586 H 0.28582 0.80124 0.07413 0.0
H1587 H 0.27588 0.81249 0.04634 0.0
H1588 H 0.01634 0.45978 0.0681 0.0
H1589 H 0.03443 0.45717 0.09659 0.0
H1590 H 0.04424 0.51859 0.11006 0.0
H1591 H 0.02536 0.52109 0.08204 0.0
H1592 H 0.071 0.468 0.10778 0.0
H1593 H 0.02836 0.50569 0.15637 0.0
H1594 H 0.01917 0.49904 0.13314 0.0
H1595 H 0.03628 0.52088 0.14055 0.0
C1596 C 0.02212 0.47267 0.07732 0.0
C1597 C 0.01934 0.49062 0.07297 0.0
C1598 C 0.03244 0.47119 0.09359 0.0
C1599 C 0.04043 0.48766 0.10575 0.0
C1600 C 0.03766 0.50561 0.10132 0.0
H1601 H 0.1464 0.50257 0.17668 0.0
H1602 H 0.12038 0.49832 0.15213 0.0
C1603 C 0.02699 0.50706 0.08522 0.0
C1604 C 0.05305 0.48619 0.12228 0.0
H1605 H 0.06255 0.50375 0.16675 0.0
C1606 C 0.06889 0.47558 0.12071 0.0
C1607 C 0.05018 0.49566 0.13934 0.0
C1608 C 0.03242 0.50575 0.14248 0.0
C1609 C 0.08245 0.47498 0.13542 0.0
C1610 C 0.08066 0.4859 0.15209 0.0
C1611 C 0.06421 0.49567 0.15392 0.0
C1612 C 0.09635 0.48833 0.16735 0.0
C1613 C 0.09854 0.46259 0.13287 0.0
C1614 C 0.09151 0.48494 0.18443 0.0
C1615 C 0.10645 0.48775 0.19875 0.0
C1616 C 0.12651 0.49394 0.19621 0.0
C1617 C 0.1312 0.49746 0.17911 0.0
C1618 C 0.1163 0.49491 0.16496 0.0
H1619 H 0.09353 0.45021 0.12218 0.0
H1620 H 0.11191 0.47107 0.12871 0.0
H1621 H 0.10292 0.45712 0.14534 0.0
H1622 H 0.07619 0.48005 0.18668 0.0
H1623 H 0.10231 0.485 0.21176 0.0
H1624 H 0.36064 0.69158 0.24682 0.0
H1625 H 0.38884 0.68836 0.26751 0.0
H1626 H 0.38791 0.74508 0.29497 0.0
H1627 H 0.35888 0.74791 0.27532 0.0
H1628 H 0.42579 0.70689 0.27555 0.0
H1629 H 0.38487 0.71538 0.33573 0.0
H1630 H 0.3725 0.71243 0.31348 0.0
H1631 H 0.38508 0.73555 0.32411 0.0
C1632 C 0.36624 0.7033 0.25741 0.0
C1633 C 0.35722 0.71992 0.25947 0.0
C1634 C 0.38251 0.70149 0.26912 0.0
C1635 C 0.39021 0.7163 0.28307 0.0
C1636 C 0.38189 0.73324 0.28463 0.0
H1637 H 0.50448 0.73081 0.34649 0.0
H1638 H 0.47762 0.72997 0.32301 0.0
C1639 C 0.36544 0.73496 0.27313 0.0
C1640 C 0.40675 0.71396 0.29613 0.0
H1641 H 0.42025 0.7176 0.34076 0.0
C1642 C 0.42454 0.70908 0.28981 0.0
C1643 C 0.40498 0.71639 0.31472 0.0
C1644 C 0.38575 0.72001 0.3224 0.0
C1645 C 0.44079 0.70704 0.30161 0.0
C1646 C 0.43942 0.71059 0.32025 0.0
C1647 C 0.42144 0.71505 0.3265 0.0
C1648 C 0.45635 0.70995 0.33364 0.0
C1649 C 0.45905 0.70076 0.2939 0.0
C1650 C 0.45332 0.69927 0.34767 0.0
C1651 C 0.46849 0.70014 0.36135 0.0
C1652 C 0.48711 0.71152 0.36119 0.0
C1653 C 0.49037 0.72173 0.34687 0.0
C1654 C 0.47505 0.72115 0.33335 0.0
H1655 H 0.45524 0.6925 0.28029 0.0
H1656 H 0.46996 0.71355 0.29281 0.0
H1657 H 0.46633 0.69182 0.30246 0.0
H1658 H 0.43905 0.69054 0.34822 0.0
H1659 H 0.46555 0.69206 0.37218 0.0
H1660 H 0.0443 0.42982 0.00222 0.0
H1661 H 0.0475 0.39656 0.99115 0.0
H1662 H 0.00821 0.39812 0.94421 0.0
H1663 H 0.00574 0.43146 0.95488 0.0
H1664 H 0.02222 0.36454 0.98341 0.0
H1665 H 0.05441 0.38006 0.92136 0.0
H1666 H 0.05135 0.39869 0.93903 0.0
H1667 H 0.03068 0.38807 0.9228 0.0
C1668 C 0.03636 0.42296 0.98957 0.0
C1669 C 0.025 0.43316 0.97926 0.0
C1670 C 0.03821 0.40403 0.98323 0.0
C1671 C 0.02856 0.39501 0.96658 0.0
C1672 C 0.0164 0.40497 0.95675 0.0
H1673 H 0.00279 0.27324 0.93107 0.0
H1674 H 1.00238 0.30655 0.94326 0.0
C1675 C 0.01485 0.42394 0.96291 0.0
C1676 C 0.03099 0.37514 0.95951 0.0
H1677 H 0.0418 0.34724 0.92238 0.0
C1678 C 0.02669 0.36078 0.97013 0.0
C1679 C 0.03728 0.37026 0.94233 0.0
C1680 C 0.04391 0.38513 0.93082 0.0
C1681 C 0.02786 0.34162 0.96383 0.0
C1682 C 0.03276 0.33657 0.94617 0.0
C1683 C 0.0377 0.35102 0.93579 0.0
C1684 C 0.03279 0.31642 0.93817 0.0
C1685 C 0.02415 0.3271 0.97633 0.0
C1686 C 0.04961 0.311 0.93032 0.0
C1687 C 0.04968 0.29201 0.92287 0.0
C1688 C 0.03299 0.27807 0.92329 0.0
C1689 C 0.016 0.28361 0.93077 0.0
C1690 C 0.01581 0.30263 0.93792 0.0
H1691 H 0.0274 0.33386 0.99051 0.0
H1692 H 0.00817 0.32055 0.97432 0.0
H1693 H 0.03345 0.31561 0.97385 0.0
H1694 H 0.06283 0.32141 0.9302 0.0
H1695 H 0.063 0.28818 0.91722 0.0
H1696 H 0.70369 0.77783 0.24901 0.0
H1697 H 0.6725 0.77878 0.263 0.0
H1698 H 0.70128 0.76685 0.31188 0.0
H1699 H 0.7327 0.76716 0.29845 0.0
H1700 H 0.65113 0.75039 0.2735 0.0
H1701 H 0.67027 0.80604 0.33223 0.0
H1702 H 0.68646 0.80365 0.31452 0.0
H1703 H 0.68785 0.78965 0.33247 0.0
C1704 C 0.70357 0.77608 0.26293 0.0
C1705 C 0.72072 0.77232 0.27257 0.0
C1706 C 0.68566 0.77647 0.27087 0.0
C1707 C 0.68453 0.77312 0.28859 0.0
C1708 C 0.70181 0.76998 0.29837 0.0
H1709 H 0.5953 0.7092 0.33539 0.0
H1710 H 0.61969 0.72242 0.31678 0.0
C1711 C 0.71973 0.76982 0.29054 0.0
C1712 C 0.66498 0.77063 0.29626 0.0
H1713 H 0.64344 0.78019 0.335 0.0
C1714 C 0.6493 0.75726 0.28679 0.0
C1715 C 0.66225 0.77988 0.31341 0.0
C1716 C 0.67756 0.79576 0.32361 0.0
C1717 C 0.63166 0.75184 0.29454 0.0
C1718 C 0.62992 0.75949 0.31245 0.0
C1719 C 0.6449 0.77396 0.3214 0.0
C1720 C 0.61376 0.75147 0.32267 0.0
C1721 C 0.61525 0.73769 0.2835 0.0
C1722 C 0.60253 0.76342 0.33259 0.0
C1723 C 0.58875 0.75591 0.34361 0.0
C1724 C 0.58597 0.7363 0.34487 0.0
C1725 C 0.5969 0.72434 0.33461 0.0
C1726 C 0.61078 0.73187 0.3238 0.0
H1727 H 0.61519 0.73918 0.26913 0.0
H1728 H 0.61791 0.72298 0.2848 0.0
H1729 H 0.60031 0.73955 0.28785 0.0
H1730 H 0.60467 0.77862 0.33205 0.0
H1731 H 0.58057 0.7655 0.35137 0.0
H1732 H 0.09506 0.10952 0.0187 0.0
H1733 H 0.08624 0.11896 0.99001 0.0
H1734 H 0.03867 0.07091 0.97838 0.0
H1735 H 0.04648 0.06217 0.00788 0.0
H1736 H 0.08419 0.10432 0.95638 0.0
H1737 H 0.00736 0.11321 0.97337 0.0
H1738 H 0.02595 0.10817 0.98947 0.0
H1739 H 0.01336 0.08949 0.97237 0.0
C1740 C 0.08261 0.10098 0.01013 0.0
C1741 C 0.07113 0.08541 0.01586 0.0
C1742 C 0.07772 0.10628 0.99359 0.0
C1743 C 0.06142 0.09597 0.98217 0.0
C1744 C 0.05091 0.07945 0.98717 0.0
H1745 H 0.05147 0.15593 0.88818 0.0
H1746 H 0.05129 0.1277 0.90325 0.0
C1747 C 0.0556 0.07431 0.00396 0.0
C1748 C 0.05504 0.10363 0.9658 0.0
H1749 H 0.01777 0.1246 0.94777 0.0
C1750 C 0.06957 0.10852 0.9543 0.0
C1751 C 0.03589 0.10903 0.96307 0.0
C1752 C 0.01975 0.10486 0.97526 0.0
C1753 C 0.06617 0.12011 0.94125 0.0
C1754 C 0.04732 0.12627 0.93908 0.0
C1755 C 0.0322 0.1199 0.94949 0.0
C1756 C 0.0441 0.1418 0.92854 0.0
C1757 C 0.08337 0.12689 0.93103 0.0
C1758 C 0.03871 0.15865 0.93729 0.0
C1759 C 0.03824 0.17452 0.9286 0.0
C1760 C 0.04342 0.17401 0.911 0.0
C1761 C 0.04764 0.1568 0.90183 0.0
C1762 C 0.04772 0.14072 0.91047 0.0
H1763 H 0.09785 0.12376 0.9368 0.0
H1764 H 0.0807 0.11954 0.91703 0.0
H1765 H 0.08475 0.14252 0.93088 0.0
H1766 H 0.03577 0.15987 0.95119 0.0
H1767 H 0.0349 0.18753 0.93606 0.0
H1768 H 0.34588 0.25029 0.27101 0.0
H1769 H 0.36912 0.24706 0.24813 0.0
H1770 H 0.39271 0.30699 0.26136 0.0
H1771 H 0.37026 0.31016 0.28491 0.0
H1772 H 0.37385 0.26356 0.2185 0.0
H1773 H 0.44325 0.28357 0.26472 0.0
H1774 H 0.41889 0.27857 0.27253 0.0
H1775 H 0.42707 0.30137 0.26591 0.0
C1776 C 0.35614 0.26277 0.26921 0.0
C1777 C 0.35627 0.28045 0.27998 0.0
C1778 C 0.36934 0.26092 0.25601 0.0
C1779 C 0.38297 0.27669 0.25324 0.0
C1780 C 0.38269 0.2945 0.26352 0.0
H1781 H 0.4687 0.28347 0.17204 0.0
H1782 H 0.4466 0.29199 0.19508 0.0
C1783 C 0.36958 0.29635 0.27682 0.0
C1784 C 0.39738 0.27436 0.23955 0.0
H1785 H 0.44726 0.27859 0.2338 0.0
C1786 C 0.38989 0.2669 0.22186 0.0
C1787 C 0.41836 0.27868 0.24393 0.0
C1788 C 0.42742 0.28582 0.26282 0.0
C1789 C 0.40274 0.26357 0.20851 0.0
C1790 C 0.42363 0.26777 0.21293 0.0
C1791 C 0.4312 0.27554 0.23048 0.0
C1792 C 0.43776 0.26296 0.19967 0.0
C1793 C 0.39399 0.25539 0.18974 0.0
C1794 C 0.44034 0.2439 0.19494 0.0
C1795 C 0.453 0.23901 0.18195 0.0
C1796 C 0.46329 0.25309 0.17333 0.0
C1797 C 0.46099 0.27228 0.17839 0.0
C1798 C 0.44838 0.27718 0.19153 0.0
H1799 H 0.37766 0.25569 0.18785 0.0
H1800 H 0.40151 0.26345 0.17998 0.0
H1801 H 0.39653 0.24035 0.18676 0.0
H1802 H 0.43234 0.23275 0.20117 0.0
H1803 H 0.45438 0.2241 0.17843 0.0
H1804 H 0.59054 0.42517 0.03241 0.0
H1805 H 0.58344 0.40801 0.05776 0.0
H1806 H 0.53569 0.37005 0.02477 0.0
H1807 H 0.54284 0.38689 0.99953 0.0
H1808 H 0.54606 0.39547 0.07547 0.0
H1809 H 0.57901 0.33676 0.03876 0.0
H1810 H 0.58253 0.36072 0.03336 0.0
H1811 H 0.55955 0.34488 0.02586 0.0
C1812 C 0.57823 0.41346 0.03077 0.0
C1813 C 0.5674 0.40715 0.014 0.0
C1814 C 0.57419 0.40369 0.04522 0.0
C1815 C 0.55922 0.38762 0.04303 0.0
C1816 C 0.54744 0.38228 0.02666 0.0
H1817 H 0.5042 0.30914 0.10703 0.0
H1818 H 0.51386 0.33822 0.09412 0.0
C1819 C 0.55156 0.39188 0.01226 0.0
C1820 C 0.55726 0.37495 0.05689 0.0
H1821 H 0.56152 0.32948 0.06339 0.0
C1822 C 0.54963 0.3811 0.07301 0.0
C1823 C 0.56227 0.35635 0.05375 0.0
C1824 C 0.57147 0.34929 0.03708 0.0
C1825 C 0.54614 0.36876 0.08578 0.0
C1826 C 0.55013 0.34978 0.08215 0.0
C1827 C 0.55842 0.34399 0.06627 0.0
C1828 C 0.54514 0.33513 0.09395 0.0
C1829 C 0.53828 0.3762 0.103 0.0
C1830 C 0.55951 0.3239 0.09862 0.0
C1831 C 0.55389 0.30707 0.10557 0.0
C1832 C 0.53386 0.3013 0.10833 0.0
C1833 C 0.5198 0.31341 0.10528 0.0
C1834 C 0.52535 0.3301 0.09793 0.0
H1835 H 0.54251 0.39194 0.10638 0.0
H1836 H 0.52172 0.37296 0.10147 0.0
H1837 H 0.54394 0.36943 0.11426 0.0
H1838 H 0.57486 0.32746 0.09573 0.0
H1839 H 0.56502 0.29798 0.10781 0.0
H1840 H 0.69245 0.19621 0.20679 0.0
H1841 H 0.65875 0.20007 0.1961 0.0
H1842 H 0.65201 0.23217 0.24708 0.0
H1843 H 0.68622 0.22881 0.25778 0.0
H1844 H 0.62159 0.18989 0.20846 0.0
H1845 H 0.64065 0.26875 0.2117 0.0
H1846 H 0.65962 0.25368 0.21366 0.0
H1847 H 0.64511 0.25907 0.23199 0.0
C1848 C 0.68385 0.20414 0.21575 0.0
C1849 C 0.69213 0.21248 0.23303 0.0
C1850 C 0.66451 0.20621 0.20966 0.0
C1851 C 0.65297 0.21666 0.22068 0.0
C1852 C 0.6608 0.22433 0.23824 0.0
H1853 H 0.5408 0.24735 0.17306 0.0
H1854 H 0.56546 0.24243 0.19673 0.0
C1855 C 0.68025 0.22225 0.24439 0.0
C1856 C 0.63315 0.21995 0.21318 0.0
H1857 H 0.60931 0.25421 0.19757 0.0
C1858 C 0.61874 0.204 0.20639 0.0
C1859 C 0.6294 0.23838 0.21053 0.0
C1860 C 0.64449 0.256 0.21723 0.0
C1861 C 0.60122 0.20587 0.19621 0.0
C1862 C 0.5981 0.22413 0.1926 0.0
C1863 C 0.61179 0.24023 0.20038 0.0
C1864 C 0.58242 0.22644 0.17877 0.0
C1865 C 0.58652 0.1882 0.18878 0.0
C1866 C 0.58394 0.21922 0.1609 0.0
C1867 C 0.57013 0.22214 0.14743 0.0
C1868 C 0.55438 0.23234 0.1515 0.0
C1869 C 0.55269 0.23938 0.16948 0.0
C1870 C 0.56675 0.2366 0.18301 0.0
H1871 H 0.5879 0.17646 0.19674 0.0
H1872 H 0.57092 0.19126 0.18846 0.0
H1873 H 0.58956 0.18318 0.17491 0.0
H1874 H 0.5961 0.21159 0.15732 0.0
H1875 H 0.57189 0.21646 0.13377 0.0
H1876 H 0.45809 0.08581 0.96805 0.0
H1877 H 0.46717 0.11353 0.99139 0.0
H1878 H 0.48205 0.07673 0.02914 0.0
H1879 H 0.47339 0.04893 0.00574 0.0
H1880 H 0.44833 0.11832 0.02333 0.0
H1881 H 0.53023 0.12044 0.03693 0.0
H1882 H 0.51619 0.10756 0.01669 0.0
H1883 H 0.5152 0.09768 0.03714 0.0
C1884 C 0.46377 0.08364 0.98119 0.0
C1885 C 0.46508 0.06515 0.98502 0.0
C1886 C 0.4688 0.09949 0.99455 0.0
C1887 C 0.47541 0.0972 0.01196 0.0
C1888 C 0.47725 0.07885 0.01574 0.0
H1889 H 0.47249 0.18031 0.10726 0.0
H1890 H 0.46888 0.15081 0.08584 0.0
C1891 C 0.47215 0.06297 0.00239 0.0
C1892 C 0.47901 0.11387 0.02638 0.0
H1893 H 0.51498 0.14157 0.0565 0.0
C1894 C 0.46289 0.1234 0.0306 0.0
C1895 C 0.49804 0.1205 0.03577 0.0
C1896 C 0.51599 0.11115 0.03136 0.0
C1897 C 0.46527 0.13938 0.04398 0.0
C1898 C 0.48424 0.14587 0.05354 0.0
C1899 C 0.5004 0.13641 0.04928 0.0
C1900 C 0.48773 0.16311 0.06732 0.0
C1901 C 0.44758 0.14947 0.04751 0.0
C1902 C 0.49998 0.17959 0.06424 0.0
C1903 C 0.50205 0.19643 0.07641 0.0
C1904 C 0.49205 0.19708 0.092 0.0
C1905 C 0.48036 0.18032 0.09537 0.0
C1906 C 0.47822 0.16347 0.08313 0.0
H1907 H 0.43519 0.14501 0.0367 0.0
H1908 H 0.44189 0.14607 0.0602 0.0
H1909 H 0.45202 0.16519 0.04892 0.0
H1910 H 0.50743 0.1796 0.05211 0.0
H1911 H 0.51106 0.20906 0.07329 0.0
H1912 H 0.29225 0.34756 0.70016 0.0
H1913 H 0.31547 0.3776 0.70458 0.0
H1914 H 0.33877 0.36524 0.75534 0.0
H1915 H 0.31693 0.33466 0.75046 0.0
H1916 H 0.32111 0.4089 0.72885 0.0
H1917 H 0.38912 0.3747 0.73194 0.0
H1918 H 0.3646 0.36115 0.72531 0.0
H1919 H 0.37317 0.3683 0.74862 0.0
C1920 C 0.3025 0.35108 0.71216 0.0
C1921 C 0.30275 0.33848 0.72485 0.0
C1922 C 0.31563 0.36838 0.71474 0.0
C1923 C 0.32918 0.37349 0.73011 0.0
C1924 C 0.32884 0.36138 0.74315 0.0
H1925 H 0.39742 0.48617 0.76919 0.0
H1926 H 0.3712 0.45824 0.76232 0.0
C1927 C 0.31601 0.34398 0.74045 0.0
C1928 C 0.3439 0.39131 0.73244 0.0
H1929 H 0.39367 0.40827 0.74158 0.0
C1930 C 0.33701 0.40878 0.73149 0.0
C1931 C 0.36468 0.39112 0.73554 0.0
C1932 C 0.37335 0.37279 0.73522 0.0
C1933 C 0.35029 0.4261 0.73392 0.0
C1934 C 0.37097 0.42598 0.73799 0.0
C1935 C 0.37783 0.40845 0.73864 0.0
C1936 C 0.38596 0.44368 0.74139 0.0
C1937 C 0.34203 0.44421 0.73172 0.0
C1938 C 0.40319 0.44472 0.73219 0.0
C1939 C 0.41839 0.46036 0.73647 0.0
C1940 C 0.41659 0.47547 0.74986 0.0
C1941 C 0.3991 0.4748 0.75869 0.0
C1942 C 0.38403 0.4589 0.75466 0.0
H1943 H 0.32766 0.44118 0.72309 0.0
H1944 H 0.33911 0.45131 0.74499 0.0
H1945 H 0.35271 0.45426 0.72582 0.0
H1946 H 0.40506 0.43321 0.72189 0.0
H1947 H 0.43166 0.46056 0.72936 0.0
H1948 H 0.25839 0.64132 0.78158 0.0
H1949 H 0.2828 0.61922 0.78111 0.0
H1950 H 0.32479 0.66179 0.81592 0.0
H1951 H 0.30051 0.68396 0.81642 0.0
H1952 H 0.31909 0.62557 0.76806 0.0
H1953 H 0.32956 0.61401 0.83854 0.0
H1954 H 0.30855 0.62401 0.82984 0.0
H1955 H 0.33244 0.63881 0.83604 0.0
C1956 C 0.27275 0.64591 0.7893 0.0
C1957 C 0.27751 0.66443 0.79901 0.0
C1958 C 0.28665 0.63323 0.78907 0.0
C1959 C 0.30556 0.63875 0.79864 0.0
C1960 C 0.31014 0.65702 0.80878 0.0
H1961 H 0.41732 0.60383 0.77596 0.0
H1962 H 0.38834 0.61968 0.7812 0.0
C1963 C 0.29623 0.66971 0.80903 0.0
C1964 C 0.32113 0.62617 0.79657 0.0
H1965 H 0.3547 0.60511 0.81979 0.0
C1966 C 0.32669 0.62092 0.77937 0.0
C1967 C 0.33095 0.61995 0.81129 0.0
C1968 C 0.32496 0.62431 0.82995 0.0
C1969 C 0.34227 0.61024 0.77655 0.0
C1970 C 0.35276 0.60485 0.79135 0.0
C1971 C 0.34674 0.60943 0.80849 0.0
C1972 C 0.37062 0.59529 0.78924 0.0
C1973 C 0.34753 0.60494 0.75775 0.0
C1974 C 0.37047 0.57643 0.7925 0.0
C1975 C 0.3871 0.56724 0.7895 0.0
C1976 C 0.40418 0.57685 0.78332 0.0
C1977 C 0.40441 0.59594 0.78061 0.0
C1978 C 0.38782 0.60504 0.78355 0.0
H1979 H 0.33509 0.60584 0.74769 0.0
H1980 H 0.36078 0.61496 0.75538 0.0
H1981 H 0.35132 0.59025 0.75567 0.0
H1982 H 0.35734 0.5687 0.79698 0.0
H1983 H 0.38647 0.55257 0.79177 0.0
H1984 H 0.8987 0.49716 0.44718 0.0
H1985 H 0.87351 0.47317 0.45601 0.0
H1986 H 0.91175 0.47099 0.50335 0.0
H1987 H 0.93719 0.49483 0.49451 0.0
H1988 H 0.87686 0.43599 0.46226 0.0
H1989 H 0.85837 0.48042 0.52282 0.0
H1990 H 0.87199 0.49045 0.50592 0.0
H1991 H 0.88451 0.479 0.52211 0.0
C1992 C 0.90189 0.49143 0.45937 0.0
C1993 C 0.92001 0.49792 0.47013 0.0
C1994 C 0.8874 0.47782 0.46446 0.0
C1995 C 0.89062 0.47053 0.48047 0.0
C1996 C 0.90877 0.47675 0.49113 0.0
H1997 H 0.82951 0.36747 0.5112 0.0
H1998 H 0.85352 0.3932 0.5037 0.0
C1999 C 0.92331 0.49034 0.48604 0.0
C2000 C 0.87517 0.45606 0.48575 0.0
H2001 H 0.84446 0.4475 0.51836 0.0
C2002 C 0.86973 0.43852 0.47449 0.0
C2003 C 0.86569 0.45951 0.5016 0.0
C2004 C 0.87026 0.47842 0.51376 0.0
C2005 C 0.8554 0.42416 0.47885 0.0
C2006 C 0.84643 0.42735 0.495 0.0
C2007 C 0.8515 0.44504 0.50607 0.0
C2008 C 0.83196 0.41231 0.50066 0.0
C2009 C 0.84983 0.40573 0.46606 0.0
C2010 C 0.81196 0.41478 0.50203 0.0
C2011 C 0.7981 0.40007 0.50637 0.0
C2012 C 0.80405 0.38266 0.50953 0.0
C2013 C 0.8243 0.38059 0.50875 0.0
C2014 C 0.83808 0.39525 0.50439 0.0
H2015 H 0.85429 0.4073 0.4525 0.0
H2016 H 0.85761 0.39459 0.47105 0.0
H2017 H 0.83349 0.4007 0.46504 0.0
H2018 H 0.80698 0.42791 0.49931 0.0
H2019 H 0.78268 0.40221 0.50691 0.0
H2020 H 0.79185 0.84983 0.7773 0.0
H2021 H 0.76821 0.86612 0.7614 0.0
H2022 H 0.73928 0.87757 0.80951 0.0
H2023 H 0.76236 0.86089 0.82528 0.0
H2024 H 0.71223 0.86725 0.77871 0.0
H2025 H 0.77386 0.92456 0.77048 0.0
H2026 H 0.77708 0.90079 0.76137 0.0
H2027 H 0.77698 0.90713 0.78508 0.0
C2028 C 0.78023 0.85552 0.78438 0.0
C2029 C 0.7792 0.85435 0.80263 0.0
C2030 C 0.76684 0.86496 0.77533 0.0
C2031 C 0.75224 0.8734 0.78438 0.0
C2032 C 0.75051 0.87131 0.8023 0.0
H2033 H 0.67095 0.95376 0.77095 0.0
H2034 H 0.68706 0.92746 0.7796 0.0
C2035 C 0.76384 0.86191 0.81133 0.0
C2036 C 0.73951 0.88542 0.77567 0.0
H2037 H 0.7416 0.92744 0.75889 0.0
C2038 C 0.71863 0.88035 0.77424 0.0
C2039 C 0.74788 0.90257 0.76997 0.0
C2040 C 0.77016 0.90925 0.7719 0.0
C2041 C 0.70589 0.89198 0.76725 0.0
C2042 C 0.71428 0.90927 0.76181 0.0
C2043 C 0.73517 0.91414 0.76298 0.0
C2044 C 0.70191 0.92302 0.75545 0.0
C2045 C 0.68361 0.88559 0.76564 0.0
C2046 C 0.70466 0.92916 0.73893 0.0
C2047 C 0.69563 0.94428 0.73403 0.0
C2048 C 0.68365 0.95367 0.74558 0.0
C2049 C 0.67995 0.94678 0.76168 0.0
C2050 C 0.68912 0.93167 0.76663 0.0
H2051 H 0.67989 0.8699 0.76524 0.0
H2052 H 0.67733 0.89262 0.77743 0.0
H2053 H 0.67625 0.88959 0.75346 0.0
H2054 H 0.71444 0.92271 0.73008 0.0
H2055 H 0.69872 0.94912 0.72148 0.0
H2056 H 0.60494 0.53179 0.99097 0.0
H2057 H 0.63584 0.55477 0.99579 0.0
H2058 H 0.67023 0.50867 0.9872 0.0
H2059 H 0.63938 0.48563 0.98167 0.0
H2060 H 0.66959 0.55945 0.01994 0.0
H2061 H 0.68869 0.54197 0.95027 0.0
H2062 H 0.66445 0.53387 0.95711 0.0
H2063 H 0.68533 0.52212 0.96243 0.0
C2064 C 0.61908 0.52653 0.99012 0.0
C2065 C 0.61964 0.50687 0.98577 0.0
C2066 C 0.63673 0.53968 0.99297 0.0
C2067 C 0.65532 0.53347 0.9915 0.0
C2068 C 0.65603 0.51381 0.98803 0.0
H2069 H 0.77332 0.60399 0.99483 0.0
H2070 H 0.74694 0.57657 0.99424 0.0
C2071 C 0.63837 0.50063 0.98512 0.0
C2072 C 0.67379 0.54769 0.99309 0.0
H2073 H 0.71135 0.56529 0.9695 0.0
C2074 C 0.67878 0.56065 0.00895 0.0
C2075 C 0.68581 0.54923 0.97873 0.0
C2076 C 0.68078 0.53618 0.96111 0.0
C2077 C 0.69529 0.57525 0.01077 0.0
C2078 C 0.70697 0.57709 0.99627 0.0
C2079 C 0.70238 0.5638 0.9806 0.0
C2080 C 0.72306 0.59353 0.99664 0.0
C2081 C 0.70005 0.58868 0.02818 0.0
C2082 C 0.71828 0.61205 0.99783 0.0
C2083 C 0.73321 0.62767 0.99806 0.0
C2084 C 0.75331 0.62514 0.99709 0.0
C2085 C 0.75803 0.60649 0.99566 0.0
C2086 C 0.74299 0.5908 0.99533 0.0
H2087 H 0.69339 0.58236 0.03935 0.0
H2088 H 0.71646 0.59253 0.03158 0.0
H2089 H 0.69381 0.602 0.02693 0.0
H2090 H 0.70293 0.61442 0.99849 0.0
H2091 H 0.72894 0.64177 0.99912 0.0
H2092 H 0.26637 0.70472 0.23835 0.0
H2093 H 0.24161 0.67587 0.23666 0.0
H2094 H 0.28499 0.6413 0.2177 0.0
H2095 H 0.30981 0.67003 0.21946 0.0
H2096 H 0.22561 0.64436 0.20921 0.0
H2097 H 0.27066 0.62256 0.26474 0.0
H2098 H 0.27502 0.64626 0.2588 0.0
H2099 H 0.28417 0.62688 0.24589 0.0
C2100 C 0.27047 0.69101 0.23344 0.0
C2101 C 0.29009 0.68959 0.22923 0.0
C2102 C 0.25634 0.67455 0.23253 0.0
C2103 C 0.26161 0.65646 0.2274 0.0
C2104 C 0.28076 0.65512 0.22204 0.0
H2105 H 0.209 0.54026 0.23111 0.0
H2106 H 0.22879 0.56925 0.22458 0.0
C2107 C 0.2949 0.67152 0.22304 0.0
C2108 C 0.24769 0.63894 0.22892 0.0
H2109 H 0.2429 0.6003 0.25092 0.0
C2110 C 0.22932 0.63471 0.21834 0.0
C2111 C 0.25254 0.6265 0.24097 0.0
C2112 C 0.27157 0.63081 0.25338 0.0
C2113 C 0.21587 0.61805 0.21916 0.0
C2114 C 0.22089 0.6055 0.23104 0.0
C2115 C 0.23917 0.60987 0.24172 0.0
C2116 C 0.20751 0.58773 0.23282 0.0
C2117 C 0.19662 0.61378 0.20709 0.0
C2118 C 0.18882 0.58844 0.23941 0.0
C2119 C 0.17738 0.57181 0.24312 0.0
C2120 C 0.18451 0.55422 0.24039 0.0
C2121 C 0.20297 0.55351 0.23327 0.0
C2122 C 0.21435 0.57009 0.22956 0.0
H2123 H 0.19716 0.62226 0.19589 0.0
H2124 H 0.19325 0.59837 0.20151 0.0
H2125 H 0.18418 0.61741 0.21493 0.0
H2126 H 0.18342 0.60196 0.24236 0.0
H2127 H 0.16327 0.57287 0.24867 0.0
H2128 H 0.98423 0.54169 0.05494 0.0
H2129 H 0.95976 0.56285 0.04927 0.0
H2130 H 0.92566 0.51822 0.01034 0.0
H2131 H 0.94993 0.497 0.01602 0.0
H2132 H 0.95065 0.57245 0.01356 0.0
H2133 H 0.88339 0.53918 0.04193 0.0
H2134 H 0.90834 0.53517 0.04869 0.0
H2135 H 0.8958 0.52338 0.02763 0.0
C2136 C 0.97126 0.53627 0.04549 0.0
C2137 C 0.96898 0.51772 0.03591 0.0
C2138 C 0.95738 0.54838 0.04219 0.0
C2139 C 0.94087 0.54204 0.02946 0.0
C2140 C 0.93817 0.52331 0.02036 0.0
H2141 H 0.84548 0.60093 0.98999 0.0
H2142 H 0.86707 0.57681 0.99429 0.0
C2143 C 0.9521 0.51126 0.02354 0.0
C2144 C 0.92735 0.55546 0.02468 0.0
H2145 H 0.87945 0.56471 0.02592 0.0
C2146 C 0.93509 0.5708 0.01629 0.0
C2147 C 0.907 0.55305 0.02799 0.0
C2148 C 0.89807 0.5369 0.03716 0.0
C2149 C 0.92304 0.58388 0.01116 0.0
C2150 C 0.90281 0.58183 0.01493 0.0
C2151 C 0.89496 0.56626 0.02303 0.0
C2152 C 0.88998 0.59638 0.01163 0.0
C2153 C 0.93207 0.59965 1.00156 0.0
C2154 C 0.89563 0.61531 0.02 0.0
C2155 C 0.88347 0.62905 0.0175 0.0
C2156 C 0.8652 0.62416 0.00671 0.0
C2157 C 0.85951 0.60518 0.99828 0.0
C2158 C 0.87178 0.59138 1.00078 0.0
H2159 H 0.9451 0.5957 0.99467 0.0
H2160 H 0.92093 0.60315 0.99156 0.0
H2161 H 0.93742 0.61266 0.01141 0.0
H2162 H 0.90935 0.61942 0.02877 0.0
H2163 H 0.88829 0.64348 0.02432 0.0
H2164 H 0.08784 0.99896 0.02558 0.0
H2165 H 0.10925 0.97648 0.01358 0.0
H2166 H 0.12373 0.96407 0.06655 0.0
H2167 H 0.10315 0.98709 0.07874 0.0
H2168 H 0.15678 0.97037 0.04862 0.0
H2169 H 0.09763 0.91854 0.00614 0.0
H2170 H 0.09916 0.94267 1.00165 0.0
H2171 H 0.09198 0.937 0.02283 0.0
C2172 C 0.09562 0.99149 0.03469 0.0
C2173 C 0.09364 0.99478 0.05313 0.0
C2174 C 0.10769 0.97848 0.02777 0.0
C2175 C 0.11787 0.96837 0.03912 0.0
C2176 C 0.11592 0.97162 0.05751 0.0
H2177 H 0.16967 0.86668 0.02168 0.0
H2178 H 0.14868 0.89147 0.02638 0.0
C2179 C 0.10395 0.98466 0.06444 0.0
C2180 C 0.13099 0.95472 0.03206 0.0
H2181 H 0.13087 0.91271 0.00454 0.0
C2182 C 0.15116 0.9578 0.03891 0.0
C2183 C 0.12358 0.93829 0.01946 0.0
C2184 C 0.10187 0.93377 0.01218 0.0
C2185 C 0.16403 0.94472 0.03381 0.0
C2186 C 0.15664 0.9283 0.02118 0.0
C2187 C 0.13656 0.92541 0.01406 0.0
C2188 C 0.16891 0.91301 0.0166 0.0
C2189 C 0.18517 0.94821 0.0426 0.0
C2190 C 0.18707 0.91666 0.00902 0.0
C2191 C 0.19927 0.90246 0.00639 0.0
C2192 C 0.1934 0.88433 0.01119 0.0
C2193 C 0.17474 0.8805 0.01793 0.0
C2194 C 0.16266 0.89467 0.0206 0.0
H2195 H 0.18713 0.95919 0.05471 0.0
H2196 H 0.1895 0.93483 0.04645 0.0
H2197 H 0.19554 0.95331 0.03306 0.0
H2198 H 0.192 0.9306 0.00546 0.0
H2199 H 0.2135 0.90584 1.00108 0.0
loop_
_geom_bond_atom_site_label_1
_geom_bond_atom_site_label_2
_geom_bond_distance
_geom_bond_site_symmetry_2
_ccdc_geom_bond_type
H0 C1 0.949 . S
C1 H0 0.949 . S
C1 C2 1.395 . S
C1 C3 1.391 . S
C2 C1 1.395 . S
C2 C5 1.390 . S
C3 C1 1.391 . S
C3 C7 1.387 . S
C3 C8 1.491 . S
H4 C5 0.950 1_565 S
C5 C2 1.390 . S
C5 H4 0.950 1_545 S
C5 C6 1.378 . S
C6 C5 1.378 . S
C6 C7 1.409 . S
C7 C3 1.387 . S
C7 C6 1.409 . S
C7 H9 0.951 . S
C8 C3 1.491 . S
C8 C10 1.382 . S
C8 C12 1.404 . S
H9 C7 0.951 . S
C10 C8 1.382 . S
C10 C11 1.356 1_554 S
C10 H15 0.949 . S
C11 C10 1.356 1_556 S
C11 C16 1.375 1_556 S
C12 C8 1.404 . S
C12 H13 0.950 . S
C12 C14 1.375 . S
H13 C12 0.950 . S
C14 C12 1.375 . S
C14 C16 1.382 . S
C14 H18 0.950 . S
H15 C10 0.949 . S
C16 C11 1.375 1_554 S
C16 C14 1.382 . S
C16 H17 0.952 . S
H17 C16 0.952 . S
H18 C14 0.950 . S
H19 C20 0.949 . S
C20 H19 0.949 . S
C20 C21 1.395 . S
C20 C22 1.391 . S
C21 C20 1.395 . S
C21 C24 1.390 . S
C22 C20 1.391 . S
C22 C26 1.387 . S
C22 C27 1.491 . S
H23 C24 0.950 . S
C24 C21 1.390 . S
C24 H23 0.950 . S
C24 C25 1.378 . S
C25 C24 1.378 . S
C25 C26 1.409 . S
C26 C22 1.387 . S
C26 C25 1.409 . S
C26 H28 0.951 . S
C27 C22 1.491 . S
C27 C29 1.382 . S
C27 C31 1.404 . S
H28 C26 0.951 . S
C29 C27 1.382 . S
C29 C30 1.390 . S
C29 H34 0.949 . S
C30 C29 1.390 . S
C30 C35 1.399 . S
C31 C27 1.404 . S
C31 H32 0.950 . S
C31 C33 1.375 . S
H32 C31 0.950 . S
C33 C31 1.375 . S
C33 C35 1.382 . S
C33 H37 0.950 . S
H34 C29 0.949 . S
C35 C30 1.399 . S
C35 C33 1.382 . S
C35 H36 0.952 . S
H36 C35 0.952 . S
H37 C33 0.950 . S
H38 C39 0.949 . S
C39 H38 0.949 . S
C39 C40 1.395 . S
C39 C41 1.391 1_455 S
C40 C39 1.395 . S
C40 C43 1.390 1_455 S
C41 C39 1.391 1_655 S
C41 C45 1.387 . S
C41 C46 1.480 1_655 S
H42 C43 0.950 . S
C43 C40 1.390 1_655 S
C43 H42 0.950 . S
C43 C44 1.378 . S
C44 C43 1.378 . S
C44 C45 1.409 . S
C45 C41 1.387 . S
C45 C44 1.409 . S
C45 H47 0.951 . S
C46 C41 1.480 1_455 S
C46 C48 1.393 . S
C46 C50 1.407 1_554 S
H47 C45 0.951 . S
C48 C46 1.393 . S
C48 C49 1.390 1_554 S
C48 H53 0.949 . S
C49 C48 1.390 1_556 S
C49 C54 1.399 . S
C50 C46 1.407 1_556 S
C50 H51 0.951 1_455 S
C50 C52 1.375 . S
H51 C50 0.951 1_655 S
C52 C50 1.375 . S
C52 C54 1.382 . S
C52 H56 0.950 . S
H53 C48 0.949 . S
C54 C49 1.399 . S
C54 C52 1.382 . S
C54 H55 0.952 . S
H55 C54 0.952 . S
H56 C52 0.950 . S
H57 C58 0.949 . S
C58 H57 0.949 . S
C58 C59 1.395 . S
C58 C60 1.391 . S
C59 C58 1.395 . S
C59 C62 1.390 . S
C60 C58 1.391 . S
C60 C64 1.387 . S
C60 C65 1.491 . S
H61 C62 0.950 . S
C62 C59 1.390 . S
C62 H61 0.950 . S
C62 C63 1.378 . S
C63 C62 1.378 . S
C63 C64 1.409 . S
C64 C60 1.387 . S
C64 C63 1.409 . S
C64 H66 0.951 . S
C65 C60 1.491 . S
C65 C67 1.382 . S
C65 C69 1.404 . S
H66 C64 0.951 . S
C67 C65 1.382 . S
C67 C68 1.390 . S
C67 H72 0.949 . S
C68 C67 1.390 . S
C68 C73 1.399 . S
C69 C65 1.404 . S
C69 H70 0.950 . S
C69 C71 1.375 . S
H70 C69 0.950 . S
C71 C69 1.375 . S
C71 C73 1.382 . S
C71 H75 0.950 . S
H72 C67 0.949 . S
C73 C68 1.399 . S
C73 C71 1.382 . S
C73 H74 0.952 . S
H74 C73 0.952 . S
H75 C71 0.950 . S
H76 C77 0.949 . S
C77 H76 0.949 . S
C77 C78 1.395 . S
C77 C79 1.391 . S
C78 C77 1.395 . S
C78 C81 1.390 . S
C79 C77 1.391 . S
C79 C83 1.387 . S
C79 C84 1.491 . S
H80 C81 0.951 . S
C81 C78 1.390 . S
C81 H80 0.951 . S
C81 C82 1.378 . S
C82 C81 1.378 . S
C82 C83 1.409 . S
C83 C79 1.387 . S
C83 C82 1.409 . S
C83 H85 0.951 . S
C84 C79 1.491 . S
C84 C86 1.382 . S
C84 C88 1.404 . S
H85 C83 0.951 . S
C86 C84 1.382 . S
C86 C87 1.390 . S
C86 H91 0.949 . S
C87 C86 1.390 . S
C87 C92 1.399 . S
C88 C84 1.404 . S
C88 H89 0.950 . S
C88 C90 1.375 . S
H89 C88 0.950 . S
C90 C88 1.375 . S
C90 C92 1.382 . S
C90 H94 0.950 . S
H91 C86 0.949 . S
C92 C87 1.399 . S
C92 C90 1.382 . S
C92 H93 0.952 . S
H93 C92 0.952 . S
H94 C90 0.950 . S
H95 C96 0.949 . S
C96 H95 0.949 . S
C96 C97 1.395 . S
C96 C98 1.391 . S
C97 C96 1.395 . S
C97 C100 1.390 . S
C98 C96 1.391 . S
C98 C102 1.387 . S
C98 C103 1.491 . S
H99 C100 0.950 . S
C100 C97 1.390 . S
C100 H99 0.950 . S
C100 C101 1.378 . S
C101 C100 1.378 . S
C101 C102 1.409 . S
C102 C98 1.387 . S
C102 C101 1.409 . S
C102 H104 0.951 . S
C103 C98 1.491 . S
C103 C105 1.382 . S
C103 C107 1.404 . S
H104 C102 0.951 . S
C105 C103 1.382 . S
C105 C106 1.390 . S
C105 H110 0.949 . S
C106 C105 1.390 . S
C106 C111 1.399 . S
C107 C103 1.404 . S
C107 H108 0.950 . S
C107 C109 1.375 . S
H108 C107 0.950 . S
C109 C107 1.375 . S
C109 C111 1.382 . S
C109 H113 0.950 . S
H110 C105 0.949 . S
C111 C106 1.399 . S
C111 C109 1.382 . S
C111 H112 0.952 . S
H112 C111 0.952 . S
H113 C109 0.950 . S
H114 C115 0.949 . S
C115 H114 0.949 . S
C115 C116 1.395 . S
C115 C117 1.391 . S
C116 C115 1.395 . S
C116 C119 1.390 . S
C117 C115 1.391 . S
C117 C121 1.387 . S
C117 C122 1.491 . S
H118 C119 0.950 . S
C119 C116 1.390 . S
C119 H118 0.950 . S
C119 C120 1.378 . S
C120 C119 1.378 . S
C120 C121 1.409 . S
C121 C117 1.387 . S
C121 C120 1.409 . S
C121 H123 0.951 . S
C122 C117 1.491 . S
C122 C124 1.382 . S
C122 C126 1.404 . S
H123 C121 0.951 . S
C124 C122 1.382 . S
C124 C125 1.393 . S
C124 H129 0.949 1_655 S
C125 C124 1.393 . S
C125 C130 1.404 . S
C126 C122 1.404 . S
C126 H127 0.950 . S
C126 C128 1.375 . S
H127 C126 0.950 . S
C128 C126 1.375 . S
C128 C130 1.382 . S
C128 H132 0.950 . S
H129 C124 0.949 1_455 S
C130 C125 1.404 . S
C130 C128 1.382 . S
C130 H131 0.952 . S
H131 C130 0.952 . S
H132 C128 0.950 . S
H133 C134 0.949 . S
C134 H133 0.949 . S
C134 C135 1.395 . S
C134 C136 1.391 . S
C135 C134 1.395 . S
C135 C138 1.390 . S
C136 C134 1.391 . S
C136 C140 1.387 . S
C136 C141 1.491 . S
H137 C138 0.950 . S
C138 C135 1.390 . S
C138 H137 0.950 . S
C138 C139 1.378 . S
C139 C138 1.378 . S
C139 C140 1.409 . S
C140 C136 1.387 . S
C140 C139 1.409 . S
C140 H142 0.951 . S
C141 C136 1.491 . S
C141 C143 1.382 . S
C141 C145 1.404 . S
H142 C140 0.951 . S
C143 C141 1.382 . S
C143 C144 1.390 . S
C143 H148 0.949 . S
C144 C143 1.390 . S
C144 C149 1.399 . S
C145 C141 1.404 . S
C145 H146 0.950 . S
C145 C147 1.375 . S
H146 C145 0.950 . S
C147 C145 1.375 . S
C147 C149 1.382 . S
C147 H151 0.950 . S
H148 C143 0.949 . S
C149 C144 1.399 . S
C149 C147 1.382 . S
C149 H150 0.952 . S
H150 C149 0.952 . S
H151 C147 0.950 . S
H152 C153 0.949 . S
C153 H152 0.949 . S
C153 C154 1.395 . S
C153 C155 1.391 . S
C154 C153 1.395 . S
C154 C157 1.390 . S
C155 C153 1.391 . S
C155 C159 1.387 . S
C155 C160 1.491 . S
H156 C157 0.950 . S
C157 C154 1.390 . S
C157 H156 0.950 . S
C157 C158 1.378 . S
C158 C157 1.378 . S
C158 C159 1.409 . S
C159 C155 1.387 . S
C159 C158 1.409 . S
C159 H161 0.951 . S
C160 C155 1.491 . S
C160 C162 1.382 . S
C160 C164 1.404 . S
H161 C159 0.951 . S
C162 C160 1.382 . S
C162 C163 1.390 . S
C162 H167 0.949 . S
C163 C162 1.390 . S
C163 C168 1.399 . S
C164 C160 1.404 . S
C164 H165 0.950 . S
C164 C166 1.375 . S
H165 C164 0.950 . S
C166 C164 1.375 . S
C166 C168 1.382 . S
C166 H170 0.950 . S
H167 C162 0.949 . S
C168 C163 1.399 . S
C168 C166 1.382 . S
C168 H169 0.952 . S
H169 C168 0.952 . S
H170 C166 0.950 . S
H171 C172 0.949 . S
C172 H171 0.949 . S
C172 C173 1.395 . S
C172 C174 1.391 . S
C173 C172 1.395 . S
C173 C176 1.390 . S
C174 C172 1.391 . S
C174 C178 1.387 . S
C174 C179 1.491 . S
H175 C176 0.950 . S
C176 C173 1.390 . S
C176 H175 0.950 . S
C176 C177 1.378 . S
C177 C176 1.378 . S
C177 C178 1.409 . S
C178 C174 1.387 . S
C178 C177 1.409 . S
C178 H180 0.951 . S
C179 C174 1.491 . S
C179 C181 1.382 . S
C179 C183 1.404 . S
H180 C178 0.951 . S
C181 C179 1.382 . S
C181 C182 1.390 . S
C181 H186 0.949 . S
C182 C181 1.390 . S
C182 C187 1.399 . S
C183 C179 1.404 . S
C183 H184 0.950 . S
C183 C185 1.375 . S
H184 C183 0.950 . S
C185 C183 1.375 . S
C185 C187 1.382 . S
C185 H189 0.950 . S
H186 C181 0.949 . S
C187 C182 1.399 . S
C187 C185 1.382 . S
C187 H188 0.952 . S
H188 C187 0.952 . S
H189 C185 0.950 . S
H190 C191 0.949 . S
C191 H190 0.949 . S
C191 C192 1.395 . S
C191 C193 1.391 . S
C192 C191 1.395 . S
C192 C195 1.390 . S
C193 C191 1.391 . S
C193 C197 1.387 . S
C193 C198 1.491 . S
H194 C195 0.950 . S
C195 C192 1.390 . S
C195 H194 0.950 . S
C195 C196 1.378 . S
C196 C195 1.378 . S
C196 C197 1.409 . S
C197 C193 1.387 . S
C197 C196 1.409 . S
C197 H199 0.951 . S
C198 C193 1.491 . S
C198 C200 1.382 . S
C198 C202 1.404 . S
H199 C197 0.951 . S
C200 C198 1.382 . S
C200 C201 1.390 . S
C200 H205 0.949 . S
C201 C200 1.390 . S
C201 C206 1.399 . S
C202 C198 1.404 . S
C202 H203 0.950 . S
C202 C204 1.375 . S
H203 C202 0.950 . S
C204 C202 1.375 . S
C204 C206 1.382 . S
C204 H208 0.950 . S
H205 C200 0.949 . S
C206 C201 1.399 . S
C206 C204 1.382 . S
C206 H207 0.952 . S
H207 C206 0.952 . S
H208 C204 0.950 . S
H209 C210 0.949 . S
C210 H209 0.949 . S
C210 C211 1.395 . S
C210 C212 1.391 . S
C211 C210 1.395 . S
C211 C214 1.390 . S
C212 C210 1.391 . S
C212 C216 1.387 . S
C212 C217 1.491 . S
H213 C214 0.950 . S
C214 C211 1.390 . S
C214 H213 0.950 . S
C214 C215 1.378 . S
C215 C214 1.378 . S
C215 C216 1.409 . S
C216 C212 1.387 . S
C216 C215 1.409 . S
C216 H218 0.951 . S
C217 C212 1.491 . S
C217 C219 1.382 . S
C217 C221 1.404 . S
H218 C216 0.951 . S
C219 C217 1.382 . S
C219 C220 1.390 . S
C219 H224 0.949 . S
C220 C219 1.390 . S
C220 C225 1.399 . S
C221 C217 1.404 . S
C221 H222 0.950 . S
C221 C223 1.375 . S
H222 C221 0.950 . S
C223 C221 1.375 . S
C223 C225 1.382 . S
C223 H227 0.950 . S
H224 C219 0.949 . S
C225 C220 1.399 . S
C225 C223 1.382 . S
C225 H226 0.952 . S
H226 C225 0.952 . S
H227 C223 0.950 . S
H228 C229 0.949 . S
C229 H228 0.949 . S
C229 C230 1.395 . S
C229 C231 1.391 . S
C230 C229 1.395 . S
C230 C233 1.390 . S
C231 C229 1.391 . S
C231 C235 1.387 . S
C231 C236 1.491 . S
H232 C233 0.950 . S
C233 C230 1.390 . S
C233 H232 0.950 . S
C233 C234 1.378 . S
C234 C233 1.378 . S
C234 C235 1.409 . S
C235 C231 1.387 . S
C235 C234 1.409 . S
C235 H237 0.951 . S
C236 C231 1.491 . S
C236 C238 1.382 . S
C236 C240 1.404 . S
H237 C235 0.951 . S
C238 C236 1.382 . S
C238 C239 1.390 . S
C238 H243 0.949 . S
C239 C238 1.390 . S
C239 C244 1.399 . S
C240 C236 1.404 . S
C240 H241 0.950 . S
C240 C242 1.375 . S
H241 C240 0.950 . S
C242 C240 1.375 . S
C242 C244 1.382 . S
C242 H246 0.950 . S
H243 C238 0.949 . S
C244 C239 1.399 . S
C244 C242 1.382 . S
C244 H245 0.952 . S
H245 C244 0.952 . S
H246 C242 0.950 . S
H247 C248 0.949 1_554 S
C248 H247 0.949 1_556 S
C248 C249 1.395 . S
C248 C250 1.391 . S
C249 C248 1.395 . S
C249 C252 1.390 . S
C250 C248 1.391 . S
C250 C254 1.387 . S
C250 C255 1.491 . S
H251 C252 0.950 . S
C252 C249 1.390 . S
C252 H251 0.950 . S
C252 C253 1.378 . S
C253 C252 1.378 . S
C253 C254 1.409 . S
C254 C250 1.387 . S
C254 C253 1.409 . S
C254 H256 0.951 . S
C255 C250 1.491 . S
C255 C257 1.382 1_556 S
C255 C259 1.404 . S
H256 C254 0.951 . S
C257 C255 1.382 1_554 S
C257 C258 1.390 . S
C257 H262 0.949 . S
C258 C257 1.390 . S
C258 C263 1.399 . S
C259 C255 1.404 . S
C259 H260 0.950 . S
C259 C261 1.375 . S
H260 C259 0.950 . S
C261 C259 1.375 . S
C261 C263 1.382 1_556 S
C261 H265 0.950 . S
H262 C257 0.949 . S
C263 C258 1.399 . S
C263 C261 1.382 1_554 S
C263 H264 0.952 . S
H264 C263 0.952 . S
H265 C261 0.950 . S
H266 C267 0.949 . S
C267 H266 0.949 . S
C267 C268 1.395 . S
C267 C269 1.391 . S
C268 C267 1.395 . S
C268 C271 1.390 . S
C269 C267 1.391 . S
C269 C273 1.387 . S
C269 C274 1.491 . S
H270 C271 0.950 . S
C271 C268 1.390 . S
C271 H270 0.950 . S
C271 C272 1.378 . S
C272 C271 1.378 . S
C272 C273 1.409 . S
C273 C269 1.387 . S
C273 C272 1.409 . S
C273 H275 0.951 . S
C274 C269 1.491 . S
C274 C276 1.382 . S
C274 C278 1.404 . S
H275 C273 0.951 . S
C276 C274 1.382 . S
C276 C277 1.390 . S
C276 H281 0.949 . S
C277 C276 1.390 . S
C277 C282 1.399 . S
C278 C274 1.404 . S
C278 H279 0.950 . S
C278 C280 1.375 . S
H279 C278 0.950 . S
C280 C278 1.375 . S
C280 C282 1.382 . S
C280 H284 0.950 . S
H281 C276 0.949 . S
C282 C277 1.399 . S
C282 C280 1.382 . S
C282 H283 0.952 . S
H283 C282 0.952 . S
H284 C280 0.950 . S
H285 C286 0.949 . S
C286 H285 0.949 . S
C286 C287 1.395 . S
C286 C288 1.391 . S
C287 C286 1.395 . S
C287 C290 1.390 . S
C288 C286 1.391 . S
C288 C292 1.387 . S
C288 C293 1.491 . S
H289 C290 0.950 . S
C290 C287 1.390 . S
C290 H289 0.950 . S
C290 C291 1.378 . S
C291 C290 1.378 . S
C291 C292 1.409 . S
C292 C288 1.387 . S
C292 C291 1.409 . S
C292 H294 0.951 . S
C293 C288 1.491 . S
C293 C295 1.382 . S
C293 C297 1.404 . S
H294 C292 0.951 . S
C295 C293 1.382 . S
C295 C296 1.390 . S
C295 H300 0.949 . S
C296 C295 1.390 . S
C296 C301 1.399 . S
C297 C293 1.404 . S
C297 H298 0.950 . S
C297 C299 1.375 . S
H298 C297 0.950 . S
C299 C297 1.375 . S
C299 C301 1.382 . S
C299 H303 0.950 . S
H300 C295 0.949 . S
C301 C296 1.399 . S
C301 C299 1.382 . S
C301 H302 0.952 . S
H302 C301 0.952 . S
H303 C299 0.950 . S
Mg304 O305 2.028 . S
Mg304 O311 1.986 . S
Mg304 O313 2.114 . S
Mg304 O314 2.251 . S
Mg304 O317 2.010 . S
O305 Mg304 2.028 . S
O305 C308 1.250 . S
O306 Mg307 2.028 . S
O306 C308 1.248 . S
Mg307 O306 2.028 . S
Mg307 O312 2.032 . S
Mg307 O314 2.079 . S
C308 O305 1.250 . S
C308 O306 1.248 . S
C309 O310 1.264 . S
C309 O317 1.249 . S
O310 C309 1.264 . S
O311 Mg304 1.986 . S
O311 C315 1.246 1_554 S
O312 Mg307 2.032 . S
O312 C315 1.259 1_554 S
O313 Mg304 2.114 . S
O313 C316 1.252 . S
O314 Mg304 2.251 . S
O314 Mg307 2.079 . S
O314 C316 1.273 . S
C315 O311 1.246 1_556 S
C315 O312 1.259 1_556 S
C316 O313 1.252 . S
C316 O314 1.273 . S
O317 Mg304 2.010 . S
O317 C309 1.249 . S
Mg318 O319 2.028 . S
Mg318 O325 1.986 . S
Mg318 O327 2.114 . S
Mg318 O328 2.251 . S
Mg318 O331 2.010 . S
O319 Mg318 2.028 . S
O319 C322 1.250 . S
O320 Mg321 2.028 . S
O320 C322 1.248 . S
Mg321 O320 2.028 . S
Mg321 O326 2.032 . S
Mg321 O328 2.079 . S
C322 O319 1.250 . S
C322 O320 1.248 . S
C323 O324 1.264 . S
C323 O331 1.249 . S
O324 C323 1.264 . S
O325 Mg318 1.986 . S
O325 C329 1.246 . S
O326 Mg321 2.032 . S
O326 C329 1.259 . S
O327 Mg318 2.114 . S
O327 C330 1.252 . S
O328 Mg318 2.251 . S
O328 Mg321 2.079 . S
O328 C330 1.273 . S
C329 O325 1.246 . S
C329 O326 1.259 . S
C330 O327 1.252 . S
C330 O328 1.273 . S
O331 Mg318 2.010 . S
O331 C323 1.249 . S
Mg332 O333 2.029 1_554 S
Mg332 O339 1.986 1_554 S
Mg332 O341 2.114 . S
Mg332 O342 2.251 . S
Mg332 O345 2.010 . S
O333 Mg332 2.029 1_556 S
O333 C336 1.250 . S
O334 Mg335 2.024 . S
O334 C336 1.248 . S
Mg335 O334 2.024 . S
Mg335 O340 2.068 . S
Mg335 O342 2.055 1_556 S
C336 O333 1.250 . S
C336 O334 1.248 . S
C337 O338 1.264 . S
C337 O345 1.249 . S
O338 C337 1.264 . S
O339 Mg332 1.986 1_556 S
O339 C343 1.246 . S
O340 Mg335 2.068 . S
O340 C343 1.259 . S
O341 Mg332 2.114 . S
O341 C344 1.252 . S
O342 Mg332 2.251 . S
O342 Mg335 2.055 1_554 S
O342 C344 1.273 . S
C343 O339 1.246 . S
C343 O340 1.259 . S
C344 O341 1.252 . S
C344 O342 1.273 . S
O345 Mg332 2.010 . S
O345 C337 1.249 . S
Mg346 O347 2.028 . S
Mg346 O353 1.986 . S
Mg346 O355 2.114 . S
Mg346 O356 2.251 . S
Mg346 O359 2.010 . S
O347 Mg346 2.028 . S
O347 C350 1.250 1_545 S
O348 Mg349 2.028 . S
O348 C350 1.248 . S
Mg349 O348 2.028 . S
Mg349 O354 2.032 1_565 S
Mg349 O356 2.079 1_565 S
C350 O347 1.250 1_565 S
C350 O348 1.248 . S
C351 O352 1.264 . S
C351 O359 1.249 . S
O352 C351 1.264 . S
O353 Mg346 1.986 . S
O353 C357 1.246 . S
O354 Mg349 2.032 1_545 S
O354 C357 1.259 . S
O355 Mg346 2.114 . S
O355 C358 1.252 . S
O356 Mg346 2.251 . S
O356 Mg349 2.079 1_545 S
O356 C358 1.273 . S
C357 O353 1.246 . S
C357 O354 1.259 . S
C358 O355 1.252 . S
C358 O356 1.273 . S
O359 Mg346 2.010 . S
O359 C351 1.249 . S
Mg360 O361 2.028 . S
Mg360 O367 1.986 . S
Mg360 O369 2.114 . S
Mg360 O370 2.251 . S
Mg360 O373 2.010 . S
O361 Mg360 2.028 . S
O361 C364 1.250 . S
O362 Mg363 2.028 . S
O362 C364 1.248 . S
Mg363 O362 2.028 . S
Mg363 O368 2.032 . S
Mg363 O370 2.079 . S
C364 O361 1.250 . S
C364 O362 1.248 . S
C365 O366 1.264 . S
C365 O373 1.249 . S
O366 C365 1.264 . S
O367 Mg360 1.986 . S
O367 C371 1.246 . S
O368 Mg363 2.032 . S
O368 C371 1.259 . S
O369 Mg360 2.114 . S
O369 C372 1.252 . S
O370 Mg360 2.251 . S
O370 Mg363 2.079 . S
O370 C372 1.273 . S
C371 O367 1.246 . S
C371 O368 1.259 . S
C372 O369 1.252 . S
C372 O370 1.273 . S
O373 Mg360 2.010 . S
O373 C365 1.249 . S
Mg374 O375 2.028 . S
Mg374 O381 1.986 . S
Mg374 O383 2.114 . S
Mg374 O384 2.251 . S
Mg374 O387 2.010 . S
O375 Mg374 2.028 . S
O375 C378 1.250 . S
O376 Mg377 2.028 . S
O376 C378 1.248 . S
Mg377 O376 2.028 . S
Mg377 O382 2.032 . S
Mg377 O384 2.079 . S
C378 O375 1.250 . S
C378 O376 1.248 . S
C379 O380 1.264 . S
C379 O387 1.249 . S
O380 C379 1.264 . S
O381 Mg374 1.986 . S
O381 C385 1.246 . S
O382 Mg377 2.032 . S
O382 C385 1.259 . S
O383 Mg374 2.114 . S
O383 C386 1.252 . S
O384 Mg374 2.251 . S
O384 Mg377 2.079 . S
O384 C386 1.273 . S
C385 O381 1.246 . S
C385 O382 1.259 . S
C386 O383 1.252 . S
C386 O384 1.273 . S
O387 Mg374 2.010 . S
O387 C379 1.249 . S
Mg388 O389 2.028 . S
Mg388 O395 1.986 . S
Mg388 O397 2.114 . S
Mg388 O398 2.251 . S
Mg388 O401 2.010 . S
O389 Mg388 2.028 . S
O389 C392 1.250 . S
O390 Mg391 2.028 . S
O390 C392 1.248 . S
Mg391 O390 2.028 . S
Mg391 O396 2.032 . S
Mg391 O398 2.079 . S
C392 O389 1.250 . S
C392 O390 1.248 . S
C393 O394 1.264 . S
C393 O401 1.249 . S
O394 C393 1.264 . S
O395 Mg388 1.986 . S
O395 C399 1.246 . S
O396 Mg391 2.032 . S
O396 C399 1.259 . S
O397 Mg388 2.114 . S
O397 C400 1.252 . S
O398 Mg388 2.251 . S
O398 Mg391 2.079 . S
O398 C400 1.273 . S
C399 O395 1.246 . S
C399 O396 1.259 . S
C400 O397 1.252 . S
C400 O398 1.273 . S
O401 Mg388 2.010 . S
O401 C393 1.249 . S
Mg402 O403 2.028 . S
Mg402 O409 1.986 1_545 S
Mg402 O411 2.114 . S
Mg402 O412 2.251 . S
Mg402 O415 2.010 . S
O403 Mg402 2.028 . S
O403 C406 1.250 . S
O404 Mg405 2.028 . S
O404 C406 1.248 . S
Mg405 O404 2.028 . S
Mg405 O410 2.032 1_545 S
Mg405 O412 2.079 . S
C406 O403 1.250 . S
C406 O404 1.248 . S
C407 O408 1.264 . S
C407 O415 1.249 . S
O408 C407 1.264 . S
O409 Mg402 1.986 1_565 S
O409 C413 1.246 . S
O410 Mg405 2.032 1_565 S
O410 C413 1.259 . S
O411 Mg402 2.114 . S
O411 C414 1.252 . S
O412 Mg402 2.251 . S
O412 Mg405 2.079 . S
O412 C414 1.273 . S
C413 O409 1.246 . S
C413 O410 1.259 . S
C414 O411 1.252 . S
C414 O412 1.273 . S
O415 Mg402 2.010 . S
O415 C407 1.249 . S
Mg416 O417 2.028 . S
Mg416 O423 1.986 . S
Mg416 O425 2.114 . S
Mg416 O426 2.251 . S
Mg416 O429 2.010 . S
O417 Mg416 2.028 . S
O417 C420 1.250 1_455 S
O418 Mg419 2.028 . S
O418 C420 1.248 . S
Mg419 O418 2.028 . S
Mg419 O424 2.032 . S
Mg419 O426 2.079 1_655 S
C420 O417 1.250 1_655 S
C420 O418 1.248 . S
C421 O422 1.264 . S
C421 O429 1.249 . S
O422 C421 1.264 . S
O423 Mg416 1.986 . S
O423 C427 1.246 . S
O424 Mg419 2.032 . S
O424 C427 1.259 1_655 S
O425 Mg416 2.114 . S
O425 C428 1.252 . S
O426 Mg416 2.251 . S
O426 Mg419 2.079 1_455 S
O426 C428 1.273 . S
C427 O423 1.246 . S
C427 O424 1.259 1_455 S
C428 O425 1.252 . S
C428 O426 1.273 . S
O429 Mg416 2.010 . S
O429 C421 1.249 . S
Mg430 O431 2.028 . S
Mg430 O437 1.986 . S
Mg430 O439 2.114 . S
Mg430 O440 2.251 . S
Mg430 O443 2.010 . S
O431 Mg430 2.028 . S
O431 C434 1.250 . S
O432 Mg433 2.028 . S
O432 C434 1.248 . S
Mg433 O432 2.028 . S
Mg433 O438 2.032 . S
Mg433 O440 2.079 . S
C434 O431 1.250 . S
C434 O432 1.248 . S
C435 O436 1.264 . S
C435 O443 1.249 . S
O436 C435 1.264 . S
O437 Mg430 1.986 . S
O437 C441 1.246 . S
O438 Mg433 2.032 . S
O438 C441 1.259 . S
O439 Mg430 2.114 . S
O439 C442 1.252 . S
O440 Mg430 2.251 . S
O440 Mg433 2.079 . S
O440 C442 1.273 . S
C441 O437 1.246 . S
C441 O438 1.259 . S
C442 O439 1.252 . S
C442 O440 1.273 . S
O443 Mg430 2.010 . S
O443 C435 1.249 . S
Mg444 O445 2.028 1_655 S
Mg444 O451 1.986 1_655 S
Mg444 O453 2.114 . S
Mg444 O454 2.251 1_655 S
Mg444 O457 2.010 . S
O445 Mg444 2.028 1_455 S
O445 C448 1.250 . S
O446 Mg447 2.028 . S
O446 C448 1.248 . S
Mg447 O446 2.028 . S
Mg447 O452 2.032 . S
Mg447 O454 2.079 . S
C448 O445 1.250 . S
C448 O446 1.248 . S
C449 O450 1.264 . S
C449 O457 1.249 . S
O450 C449 1.264 . S
O451 Mg444 1.986 1_455 S
O451 C455 1.246 . S
O452 Mg447 2.032 . S
O452 C455 1.259 . S
O453 Mg444 2.114 . S
O453 C456 1.252 . S
O454 Mg444 2.251 1_455 S
O454 Mg447 2.079 . S
O454 C456 1.273 1_455 S
C455 O451 1.246 . S
C455 O452 1.259 . S
C456 O453 1.252 . S
C456 O454 1.273 1_655 S
O457 Mg444 2.010 . S
O457 C449 1.249 . S
Mg458 O459 2.028 . S
Mg458 O465 1.986 . S
Mg458 O467 2.114 . S
Mg458 O468 2.251 . S
Mg458 O471 2.010 . S
O459 Mg458 2.028 . S
O459 C462 1.250 . S
O460 Mg461 2.028 . S
O460 C462 1.248 . S
Mg461 O460 2.028 . S
Mg461 O466 2.032 . S
Mg461 O468 2.079 . S
C462 O459 1.250 . S
C462 O460 1.248 . S
C463 O464 1.264 . S
C463 O471 1.249 . S
O464 C463 1.264 . S
O465 Mg458 1.986 . S
O465 C469 1.246 . S
O466 Mg461 2.032 . S
O466 C469 1.259 . S
O467 Mg458 2.114 . S
O467 C470 1.252 . S
O468 Mg458 2.251 . S
O468 Mg461 2.079 . S
O468 C470 1.273 . S
C469 O465 1.246 . S
C469 O466 1.259 . S
C470 O467 1.252 . S
C470 O468 1.273 . S
O471 Mg458 2.010 . S
O471 C463 1.249 . S
H472 C480 0.929 . S
H473 C482 0.930 . S
H474 C484 0.930 . S
H475 C487 0.929 . S
H476 C490 0.930 . S
H477 C492 0.960 . S
H478 C492 0.960 . S
H479 C492 0.960 . S
C480 H472 0.929 . S
C480 C481 1.377 . S
C480 C482 1.384 . S
C481 C480 1.377 . S
C481 C487 1.390 . S
C482 H473 0.930 . S
C482 C480 1.384 . S
C482 C483 1.372 . S
C483 C482 1.372 . S
C483 C484 1.400 . S
C483 C488 1.490 . S
C484 H474 0.930 . S
C484 C483 1.400 . S
C484 C487 1.386 . S
H485 C501 0.930 . S
H486 C502 0.931 . S
C487 H475 0.929 . S
C487 C481 1.390 . S
C487 C484 1.386 . S
C488 C483 1.490 . S
C488 C490 1.395 . S
C488 C491 1.403 . S
H489 C495 0.930 . S
C490 H476 0.930 . S
C490 C488 1.395 . S
C490 C493 1.403 . S
C491 C488 1.403 . S
C491 C492 1.524 . S
C491 C495 1.400 . S
C492 H477 0.960 . S
C492 H478 0.960 . S
C492 H479 0.960 . S
C492 C491 1.524 . S
C493 C490 1.403 . S
C493 C494 1.392 . S
C493 C497 1.495 . S
C494 C493 1.392 . S
C494 C495 1.385 . S
C494 C496 1.478 . S
C495 H489 0.930 . S
C495 C491 1.400 . S
C495 C494 1.385 . S
C496 C494 1.478 . S
C496 C498 1.381 . S
C496 C502 1.383 . S
C497 C493 1.495 . S
C497 H503 0.959 . S
C497 H504 0.961 . S
C497 H505 0.960 . S
C498 C496 1.381 . S
C498 C499 1.394 . S
C498 H506 0.930 . S
C499 C498 1.394 . S
C499 C500 1.383 . S
C499 H507 0.929 . S
C500 C499 1.383 . S
C500 C501 1.377 . S
C501 H485 0.930 . S
C501 C500 1.377 . S
C501 C502 1.379 . S
C502 H486 0.931 . S
C502 C496 1.383 . S
C502 C501 1.379 . S
H503 C497 0.959 . S
H504 C497 0.961 . S
H505 C497 0.960 . S
H506 C498 0.930 . S
H507 C499 0.929 . S
H508 C516 0.929 1_655 S
H509 C518 0.930 . S
H510 C520 0.930 . S
H511 C523 0.929 . S
H512 C526 0.930 . S
H513 C528 0.960 . S
H514 C528 0.960 . S
H515 C528 0.960 . S
C516 H508 0.929 1_455 S
C516 C517 1.377 . S
C516 C518 1.384 . S
C517 C516 1.377 . S
C517 C523 1.390 . S
C518 H509 0.930 . S
C518 C516 1.384 . S
C518 C519 1.372 . S
C519 C518 1.372 . S
C519 C520 1.400 . S
C519 C524 1.490 . S
C520 H510 0.930 . S
C520 C519 1.400 . S
C520 C523 1.386 . S
H521 C537 0.930 . S
H522 C538 0.931 . S
C523 H511 0.929 . S
C523 C517 1.390 . S
C523 C520 1.386 . S
C524 C519 1.490 . S
C524 C526 1.395 . S
C524 C527 1.403 . S
H525 C531 0.930 . S
C526 H512 0.930 . S
C526 C524 1.395 . S
C526 C529 1.403 . S
C527 C524 1.403 . S
C527 C528 1.524 . S
C527 C531 1.400 . S
C528 H513 0.960 . S
C528 H514 0.960 . S
C528 H515 0.960 . S
C528 C527 1.524 . S
C529 C526 1.403 . S
C529 C530 1.392 . S
C529 C533 1.495 . S
C530 C529 1.392 . S
C530 C531 1.385 . S
C530 C532 1.478 . S
C531 H525 0.930 . S
C531 C527 1.400 . S
C531 C530 1.385 . S
C532 C530 1.478 . S
C532 C534 1.381 . S
C532 C538 1.383 . S
C533 C529 1.495 . S
C533 H539 0.959 . S
C533 H540 0.961 . S
C533 H541 0.960 . S
C534 C532 1.381 . S
C534 C535 1.394 . S
C534 H542 0.930 . S
C535 C534 1.394 . S
C535 C536 1.383 . S
C535 H543 0.929 . S
C536 C535 1.383 . S
C536 C537 1.377 . S
C537 H521 0.930 . S
C537 C536 1.377 . S
C537 C538 1.379 . S
C538 H522 0.931 . S
C538 C532 1.383 . S
C538 C537 1.379 . S
H539 C533 0.959 . S
H540 C533 0.961 . S
H541 C533 0.960 . S
H542 C534 0.930 . S
H543 C535 0.929 . S
H544 C552 0.929 . S
H545 C554 0.930 . S
H546 C556 0.930 . S
H547 C559 0.929 . S
H548 C562 0.930 . S
H549 C564 0.960 . S
H550 C564 0.960 . S
H551 C564 0.960 . S
C552 H544 0.929 . S
C552 C553 1.377 . S
C552 C554 1.384 . S
C553 C552 1.377 . S
C553 C559 1.390 . S
C554 H545 0.930 . S
C554 C552 1.384 . S
C554 C555 1.372 . S
C555 C554 1.372 . S
C555 C556 1.400 . S
C555 C560 1.490 . S
C556 H546 0.930 . S
C556 C555 1.400 . S
C556 C559 1.386 . S
H557 C573 0.930 . S
H558 C574 0.931 . S
C559 H547 0.929 . S
C559 C553 1.390 . S
C559 C556 1.386 . S
C560 C555 1.490 . S
C560 C562 1.395 . S
C560 C563 1.403 . S
H561 C567 0.930 . S
C562 H548 0.930 . S
C562 C560 1.395 . S
C562 C565 1.403 . S
C563 C560 1.403 . S
C563 C564 1.524 . S
C563 C567 1.400 . S
C564 H549 0.960 . S
C564 H550 0.960 . S
C564 H551 0.960 . S
C564 C563 1.524 . S
C565 C562 1.403 . S
C565 C566 1.392 . S
C565 C569 1.495 . S
C566 C565 1.392 . S
C566 C567 1.385 . S
C566 C568 1.478 . S
C567 H561 0.930 . S
C567 C563 1.400 . S
C567 C566 1.385 . S
C568 C566 1.478 . S
C568 C570 1.381 . S
C568 C574 1.383 . S
C569 C565 1.495 . S
C569 H575 0.959 . S
C569 H576 0.961 . S
C569 H577 0.960 . S
C570 C568 1.381 . S
C570 C571 1.394 . S
C570 H578 0.930 . S
C571 C570 1.394 . S
C571 C572 1.383 . S
C571 H579 0.929 . S
C572 C571 1.383 . S
C572 C573 1.377 . S
C573 H557 0.930 . S
C573 C572 1.377 . S
C573 C574 1.379 . S
C574 H558 0.931 . S
C574 C568 1.383 . S
C574 C573 1.379 . S
H575 C569 0.959 . S
H576 C569 0.961 . S
H577 C569 0.960 . S
H578 C570 0.930 . S
H579 C571 0.929 . S
H580 C588 0.929 . S
H581 C590 0.930 . S
H582 C592 0.930 . S
H583 C595 0.929 1_545 S
H584 C598 0.930 . S
H585 C600 0.960 . S
H586 C600 0.960 . S
H587 C600 0.960 . S
C588 H580 0.929 . S
C588 C589 1.377 . S
C588 C590 1.384 . S
C589 C588 1.377 . S
C589 C595 1.390 . S
C590 H581 0.930 . S
C590 C588 1.384 . S
C590 C591 1.372 . S
C591 C590 1.372 . S
C591 C592 1.400 1_565 S
C591 C596 1.490 . S
C592 H582 0.930 . S
C592 C591 1.400 1_545 S
C592 C595 1.386 1_545 S
H593 C609 0.930 . S
H594 C610 0.931 . S
C595 H583 0.929 1_565 S
C595 C589 1.390 . S
C595 C592 1.386 1_565 S
C596 C591 1.490 . S
C596 C598 1.395 . S
C596 C599 1.403 1_565 S
H597 C603 0.930 . S
C598 H584 0.930 . S
C598 C596 1.395 . S
C598 C601 1.403 . S
C599 C596 1.403 1_545 S
C599 C600 1.524 . S
C599 C603 1.400 . S
C600 H585 0.960 . S
C600 H586 0.960 . S
C600 H587 0.960 . S
C600 C599 1.524 . S
C601 C598 1.403 . S
C601 C602 1.392 1_565 S
C601 C605 1.495 . S
C602 C601 1.392 1_545 S
C602 C603 1.385 . S
C602 C604 1.478 . S
C603 H597 0.930 . S
C603 C599 1.400 . S
C603 C602 1.385 . S
C604 C602 1.478 . S
C604 C606 1.388 . S
C604 C610 1.383 1_455 S
C605 C601 1.495 . S
C605 H611 0.959 . S
C605 H612 0.961 1_455 S
C605 H613 0.960 . S
C606 C604 1.388 . S
C606 C607 1.434 . S
C606 H614 0.910 1_545 S
C607 C606 1.434 . S
C607 C608 1.339 1_455 S
C607 H615 0.950 . S
C608 C607 1.339 1_655 S
C608 C609 1.377 . S
C609 H593 0.930 . S
C609 C608 1.377 . S
C609 C610 1.379 . S
C610 H594 0.931 . S
C610 C604 1.383 1_655 S
C610 C609 1.379 . S
H611 C605 0.959 . S
H612 C605 0.961 1_655 S
H613 C605 0.960 . S
H614 C606 0.910 1_565 S
H615 C607 0.950 . S
H616 C624 0.929 . S
H617 C626 0.930 . S
H618 C628 0.930 . S
H619 C631 0.929 . S
H620 C634 0.930 . S
H621 C636 0.960 . S
H622 C636 0.960 . S
H623 C636 0.960 . S
C624 H616 0.929 . S
C624 C625 1.377 . S
C624 C626 1.384 . S
C625 C624 1.377 . S
C625 C631 1.390 . S
C626 H617 0.930 . S
C626 C624 1.384 . S
C626 C627 1.372 . S
C627 C626 1.372 . S
C627 C628 1.400 . S
C627 C632 1.490 . S
C628 H618 0.930 . S
C628 C627 1.400 . S
C628 C631 1.386 . S
H629 C645 0.930 . S
H630 C646 0.931 . S
C631 H619 0.929 . S
C631 C625 1.390 . S
C631 C628 1.386 . S
C632 C627 1.490 . S
C632 C634 1.395 . S
C632 C635 1.403 . S
H633 C639 0.930 . S
C634 H620 0.930 . S
C634 C632 1.395 . S
C634 C637 1.403 . S
C635 C632 1.403 . S
C635 C636 1.524 . S
C635 C639 1.400 . S
C636 H621 0.960 . S
C636 H622 0.960 . S
C636 H623 0.960 . S
C636 C635 1.524 . S
C637 C634 1.403 . S
C637 C638 1.392 . S
C637 C641 1.495 . S
C638 C637 1.392 . S
C638 C639 1.385 . S
C638 C640 1.478 . S
C639 H633 0.930 . S
C639 C635 1.400 . S
C639 C638 1.385 . S
C640 C638 1.478 . S
C640 C642 1.381 . S
C640 C646 1.383 . S
C641 C637 1.495 . S
C641 H647 0.959 . S
C641 H648 0.961 . S
C641 H649 0.960 . S
C642 C640 1.381 . S
C642 C643 1.394 . S
C642 H650 0.930 . S
C643 C642 1.394 . S
C643 C644 1.383 . S
C643 H651 0.929 . S
C644 C643 1.383 . S
C644 C645 1.377 . S
C645 H629 0.930 . S
C645 C644 1.377 . S
C645 C646 1.379 . S
C646 H630 0.931 . S
C646 C640 1.383 . S
C646 C645 1.379 . S
H647 C641 0.959 . S
H648 C641 0.961 . S
H649 C641 0.960 . S
H650 C642 0.930 . S
H651 C643 0.929 . S
H652 C660 0.929 . S
H653 C662 0.930 . S
H654 C664 0.930 . S
H655 C667 0.929 . S
H656 C670 0.930 . S
H657 C672 0.960 . S
H658 C672 0.960 . S
H659 C672 0.960 . S
C660 H652 0.929 . S
C660 C661 1.377 . S
C660 C662 1.384 . S
C661 C660 1.377 . S
C661 C667 1.390 . S
C662 H653 0.930 . S
C662 C660 1.384 . S
C662 C663 1.372 . S
C663 C662 1.372 . S
C663 C664 1.400 . S
C663 C668 1.490 . S
C664 H654 0.930 . S
C664 C663 1.400 . S
C664 C667 1.386 . S
H665 C681 0.930 . S
H666 C682 0.931 . S
C667 H655 0.929 . S
C667 C661 1.390 . S
C667 C664 1.386 . S
C668 C663 1.490 . S
C668 C670 1.395 . S
C668 C671 1.403 . S
H669 C675 0.930 . S
C670 H656 0.930 . S
C670 C668 1.395 . S
C670 C673 1.403 . S
C671 C668 1.403 . S
C671 C672 1.524 . S
C671 C675 1.400 . S
C672 H657 0.960 . S
C672 H658 0.960 . S
C672 H659 0.960 . S
C672 C671 1.524 . S
C673 C670 1.403 . S
C673 C674 1.392 . S
C673 C677 1.495 . S
C674 C673 1.392 . S
C674 C675 1.385 . S
C674 C676 1.478 . S
C675 H669 0.930 . S
C675 C671 1.400 . S
C675 C674 1.385 . S
C676 C674 1.478 . S
C676 C678 1.381 . S
C676 C682 1.383 . S
C677 C673 1.495 . S
C677 H683 0.959 . S
C677 H684 0.961 . S
C677 H685 0.960 . S
C678 C676 1.381 . S
C678 C679 1.394 . S
C678 H686 0.930 . S
C679 C678 1.394 . S
C679 C680 1.383 . S
C679 H687 0.929 . S
C680 C679 1.383 . S
C680 C681 1.377 . S
C681 H665 0.930 . S
C681 C680 1.377 . S
C681 C682 1.379 . S
C682 H666 0.931 . S
C682 C676 1.383 . S
C682 C681 1.379 . S
H683 C677 0.959 . S
H684 C677 0.961 . S
H685 C677 0.960 . S
H686 C678 0.930 . S
H687 C679 0.929 . S
H688 C696 0.929 . S
H689 C698 0.930 . S
H690 C700 0.930 . S
H691 C703 0.929 . S
H692 C706 0.930 . S
H693 C708 0.960 . S
H694 C708 0.960 . S
H695 C708 0.960 . S
C696 H688 0.929 . S
C696 C697 1.377 . S
C696 C698 1.384 . S
C697 C696 1.377 . S
C697 C703 1.390 . S
C698 H689 0.930 . S
C698 C696 1.384 . S
C698 C699 1.372 . S
C699 C698 1.372 . S
C699 C700 1.400 . S
C699 C704 1.490 . S
C700 H690 0.930 . S
C700 C699 1.400 . S
C700 C703 1.386 . S
H701 C717 0.930 . S
H702 C718 0.931 . S
C703 H691 0.929 . S
C703 C697 1.390 . S
C703 C700 1.386 . S
C704 C699 1.490 . S
C704 C706 1.395 . S
C704 C707 1.403 . S
H705 C711 0.930 . S
C706 H692 0.930 . S
C706 C704 1.395 . S
C706 C709 1.403 . S
C707 C704 1.403 . S
C707 C708 1.524 . S
C707 C711 1.400 . S
C708 H693 0.960 . S
C708 H694 0.960 . S
C708 H695 0.960 . S
C708 C707 1.524 . S
C709 C706 1.403 . S
C709 C710 1.392 . S
C709 C713 1.495 . S
C710 C709 1.392 . S
C710 C711 1.385 . S
C710 C712 1.478 . S
C711 H705 0.930 . S
C711 C707 1.400 . S
C711 C710 1.385 . S
C712 C710 1.478 . S
C712 C714 1.381 . S
C712 C718 1.383 . S
C713 C709 1.495 . S
C713 H719 0.959 . S
C713 H720 0.961 . S
C713 H721 0.960 . S
C714 C712 1.381 . S
C714 C715 1.394 . S
C714 H722 0.930 . S
C715 C714 1.394 . S
C715 C716 1.383 . S
C715 H723 0.929 . S
C716 C715 1.383 . S
C716 C717 1.377 . S
C717 H701 0.930 . S
C717 C716 1.377 . S
C717 C718 1.379 . S
C718 H702 0.931 . S
C718 C712 1.383 . S
C718 C717 1.379 . S
H719 C713 0.959 . S
H720 C713 0.961 . S
H721 C713 0.960 . S
H722 C714 0.930 . S
H723 C715 0.929 . S
H724 C732 0.929 . S
H725 C734 0.930 1_545 S
H726 C736 0.930 . S
H727 C739 0.929 . S
H728 C742 0.930 . S
H729 C744 0.960 . S
H730 C744 0.960 . S
H731 C744 0.960 . S
C732 H724 0.929 . S
C732 C733 1.377 . S
C732 C734 1.384 . S
C733 C732 1.377 . S
C733 C739 1.390 . S
C734 H725 0.930 1_565 S
C734 C732 1.384 . S
C734 C735 1.372 . S
C735 C734 1.372 . S
C735 C736 1.400 . S
C735 C740 1.490 . S
C736 H726 0.930 . S
C736 C735 1.400 . S
C736 C739 1.386 . S
H737 C753 0.930 . S
H738 C754 0.931 . S
C739 H727 0.929 . S
C739 C733 1.390 . S
C739 C736 1.386 . S
C740 C735 1.490 . S
C740 C742 1.395 1_565 S
C740 C743 1.403 . S
H741 C747 0.930 . S
C742 H728 0.930 . S
C742 C740 1.395 1_545 S
C742 C745 1.403 . S
C743 C740 1.403 . S
C743 C744 1.524 . S
C743 C747 1.400 . S
C744 H729 0.960 . S
C744 H730 0.960 . S
C744 H731 0.960 . S
C744 C743 1.524 . S
C745 C742 1.403 . S
C745 C746 1.392 1_545 S
C745 C749 1.495 . S
C746 C745 1.392 1_565 S
C746 C747 1.385 . S
C746 C748 1.478 1_565 S
C747 H741 0.930 . S
C747 C743 1.400 . S
C747 C746 1.385 . S
C748 C746 1.478 1_545 S
C748 C750 1.381 . S
C748 C754 1.383 1_545 S
C749 C745 1.495 . S
C749 H755 0.959 . S
C749 H756 0.961 . S
C749 H757 0.960 . S
C750 C748 1.381 . S
C750 C751 1.394 . S
C750 H758 0.930 . S
C751 C750 1.394 . S
C751 C752 1.383 . S
C751 H759 0.929 . S
C752 C751 1.383 . S
C752 C753 1.377 1_545 S
C753 H737 0.930 . S
C753 C752 1.377 1_565 S
C753 C754 1.379 . S
C754 H738 0.931 . S
C754 C748 1.383 1_565 S
C754 C753 1.379 . S
H755 C749 0.959 . S
H756 C749 0.961 . S
H757 C749 0.960 . S
H758 C750 0.930 . S
H759 C751 0.929 . S
H760 C768 0.929 . S
H761 C770 0.930 . S
H762 C772 0.930 . S
H763 C775 0.929 . S
H764 C778 0.930 . S
H765 C780 0.960 . S
H766 C780 0.960 . S
H767 C780 0.960 . S
C768 H760 0.929 . S
C768 C769 1.377 . S
C768 C770 1.384 . S
C769 C768 1.377 . S
C769 C775 1.390 . S
C770 H761 0.930 . S
C770 C768 1.384 . S
C770 C771 1.372 . S
C771 C770 1.372 . S
C771 C772 1.400 . S
C771 C776 1.490 . S
C772 H762 0.930 . S
C772 C771 1.400 . S
C772 C775 1.386 . S
H773 C789 0.930 . S
H774 C790 0.931 . S
C775 H763 0.929 . S
C775 C769 1.390 . S
C775 C772 1.386 . S
C776 C771 1.490 . S
C776 C778 1.395 . S
C776 C779 1.403 . S
H777 C783 0.930 . S
C778 H764 0.930 . S
C778 C776 1.395 . S
C778 C781 1.403 . S
C779 C776 1.403 . S
C779 C780 1.524 . S
C779 C783 1.400 . S
C780 H765 0.960 . S
C780 H766 0.960 . S
C780 H767 0.960 . S
C780 C779 1.524 . S
C781 C778 1.403 . S
C781 C782 1.392 . S
C781 C785 1.495 . S
C782 C781 1.392 . S
C782 C783 1.385 . S
C782 C784 1.478 . S
C783 H777 0.930 . S
C783 C779 1.400 . S
C783 C782 1.385 . S
C784 C782 1.478 . S
C784 C786 1.381 . S
C784 C790 1.383 . S
C785 C781 1.495 . S
C785 H791 0.959 . S
C785 H792 0.961 . S
C785 H793 0.960 . S
C786 C784 1.381 . S
C786 C787 1.394 . S
C786 H794 0.930 . S
C787 C786 1.394 . S
C787 C788 1.383 . S
C787 H795 0.929 . S
C788 C787 1.383 . S
C788 C789 1.377 . S
C789 H773 0.930 . S
C789 C788 1.377 . S
C789 C790 1.379 . S
C790 H774 0.931 . S
C790 C784 1.383 . S
C790 C789 1.379 . S
H791 C785 0.959 . S
H792 C785 0.961 . S
H793 C785 0.960 . S
H794 C786 0.930 . S
H795 C787 0.929 . S
H796 C804 0.929 . S
H797 C806 0.930 . S
H798 C808 0.930 . S
H799 C811 0.929 . S
H800 C814 0.930 . S
H801 C816 0.960 . S
H802 C816 0.960 . S
H803 C816 0.960 . S
C804 H796 0.929 . S
C804 C805 1.377 . S
C804 C806 1.384 . S
C805 C804 1.377 . S
C805 C811 1.390 . S
C806 H797 0.930 . S
C806 C804 1.384 . S
C806 C807 1.372 . S
C807 C806 1.372 . S
C807 C808 1.400 . S
C807 C812 1.490 . S
C808 H798 0.930 . S
C808 C807 1.400 . S
C808 C811 1.386 . S
H809 C825 0.930 . S
H810 C826 0.931 . S
C811 H799 0.929 . S
C811 C805 1.390 . S
C811 C808 1.386 . S
C812 C807 1.490 . S
C812 C814 1.395 . S
C812 C815 1.403 . S
H813 C819 0.930 . S
C814 H800 0.930 . S
C814 C812 1.395 . S
C814 C817 1.403 . S
C815 C812 1.403 . S
C815 C816 1.524 . S
C815 C819 1.400 . S
C816 H801 0.960 . S
C816 H802 0.960 . S
C816 H803 0.960 . S
C816 C815 1.524 . S
C817 C814 1.403 . S
C817 C818 1.392 . S
C817 C821 1.495 . S
C818 C817 1.392 . S
C818 C819 1.385 . S
C818 C820 1.478 . S
C819 H813 0.930 . S
C819 C815 1.400 . S
C819 C818 1.385 . S
C820 C818 1.478 . S
C820 C822 1.381 . S
C820 C826 1.383 . S
C821 C817 1.495 . S
C821 H827 0.959 . S
C821 H828 0.961 . S
C821 H829 0.960 . S
C822 C820 1.381 . S
C822 C823 1.394 . S
C822 H830 0.930 . S
C823 C822 1.394 . S
C823 C824 1.383 . S
C823 H831 0.929 . S
C824 C823 1.383 . S
C824 C825 1.377 . S
C825 H809 0.930 . S
C825 C824 1.377 . S
C825 C826 1.379 . S
C826 H810 0.931 . S
C826 C820 1.383 . S
C826 C825 1.379 . S
H827 C821 0.959 . S
H828 C821 0.961 . S
H829 C821 0.960 . S
H830 C822 0.930 . S
H831 C823 0.929 . S
H832 C840 0.929 . S
H833 C842 0.930 . S
H834 C844 0.930 . S
H835 C847 0.929 . S
H836 C850 0.930 . S
H837 C852 0.960 . S
H838 C852 0.960 . S
H839 C852 0.960 . S
C840 H832 0.929 . S
C840 C841 1.377 . S
C840 C842 1.384 . S
C841 C840 1.377 . S
C841 C847 1.390 . S
C842 H833 0.930 . S
C842 C840 1.384 . S
C842 C843 1.372 . S
C843 C842 1.372 . S
C843 C844 1.400 . S
C843 C848 1.490 . S
C844 H834 0.930 . S
C844 C843 1.400 . S
C844 C847 1.386 . S
H845 C861 0.930 . S
H846 C862 0.931 . S
C847 H835 0.929 . S
C847 C841 1.390 . S
C847 C844 1.386 . S
C848 C843 1.490 . S
C848 C850 1.395 . S
C848 C851 1.403 . S
H849 C855 0.930 . S
C850 H836 0.930 . S
C850 C848 1.395 . S
C850 C853 1.403 . S
C851 C848 1.403 . S
C851 C852 1.524 . S
C851 C855 1.400 . S
C852 H837 0.960 . S
C852 H838 0.960 . S
C852 H839 0.960 . S
C852 C851 1.524 . S
C853 C850 1.403 . S
C853 C854 1.392 . S
C853 C857 1.495 . S
C854 C853 1.392 . S
C854 C855 1.385 . S
C854 C856 1.478 . S
C855 H849 0.930 . S
C855 C851 1.400 . S
C855 C854 1.385 . S
C856 C854 1.478 . S
C856 C858 1.381 . S
C856 C862 1.383 . S
C857 C853 1.495 . S
C857 H863 0.959 . S
C857 H864 0.961 . S
C857 H865 0.960 . S
C858 C856 1.381 . S
C858 C859 1.394 . S
C858 H866 0.930 . S
C859 C858 1.394 . S
C859 C860 1.383 . S
C859 H867 0.929 . S
C860 C859 1.383 . S
C860 C861 1.377 . S
C861 H845 0.930 . S
C861 C860 1.377 . S
C861 C862 1.379 . S
C862 H846 0.931 . S
C862 C856 1.383 . S
C862 C861 1.379 . S
H863 C857 0.959 . S
H864 C857 0.961 . S
H865 C857 0.960 . S
H866 C858 0.930 . S
H867 C859 0.929 . S
H868 C876 0.929 . S
H869 C878 0.930 . S
H870 C880 0.930 . S
H871 C883 0.929 . S
H872 C886 0.930 . S
H873 C888 0.960 . S
H874 C888 0.960 . S
H875 C888 0.960 . S
C876 H868 0.929 . S
C876 C877 1.377 . S
C876 C878 1.384 . S
C877 C876 1.377 . S
C877 C883 1.390 . S
C878 H869 0.930 . S
C878 C876 1.384 . S
C878 C879 1.372 . S
C879 C878 1.372 . S
C879 C880 1.400 . S
C879 C884 1.490 . S
C880 H870 0.930 . S
C880 C879 1.400 . S
C880 C883 1.386 . S
H881 C897 0.930 . S
H882 C898 0.931 . S
C883 H871 0.929 . S
C883 C877 1.390 . S
C883 C880 1.386 . S
C884 C879 1.490 . S
C884 C886 1.395 . S
C884 C887 1.403 . S
H885 C891 0.930 . S
C886 H872 0.930 . S
C886 C884 1.395 . S
C886 C889 1.403 . S
C887 C884 1.403 . S
C887 C888 1.524 . S
C887 C891 1.400 . S
C888 H873 0.960 . S
C888 H874 0.960 . S
C888 H875 0.960 . S
C888 C887 1.524 . S
C889 C886 1.403 . S
C889 C890 1.392 . S
C889 C893 1.495 . S
C890 C889 1.392 . S
C890 C891 1.385 . S
C890 C892 1.478 . S
C891 H885 0.930 . S
C891 C887 1.400 . S
C891 C890 1.385 . S
C892 C890 1.478 . S
C892 C894 1.381 . S
C892 C898 1.383 . S
C893 C889 1.495 . S
C893 H899 0.959 . S
C893 H900 0.961 . S
C893 H901 0.960 . S
C894 C892 1.381 . S
C894 C895 1.394 . S
C894 H902 0.930 . S
C895 C894 1.394 . S
C895 C896 1.383 . S
C895 H903 0.929 . S
C896 C895 1.383 . S
C896 C897 1.377 . S
C897 H881 0.930 . S
C897 C896 1.377 . S
C897 C898 1.379 . S
C898 H882 0.931 . S
C898 C892 1.383 . S
C898 C897 1.379 . S
H899 C893 0.959 . S
H900 C893 0.961 . S
H901 C893 0.960 . S
H902 C894 0.930 . S
H903 C895 0.929 . S
H904 C912 0.929 . S
H905 C914 0.930 . S
H906 C916 0.930 . S
H907 C919 0.929 . S
H908 C922 0.930 . S
H909 C924 0.960 . S
H910 C924 0.960 . S
H911 C924 0.960 . S
C912 H904 0.929 . S
C912 C913 1.377 . S
C912 C914 1.384 . S
C913 C912 1.377 . S
C913 C919 1.390 . S
C914 H905 0.930 . S
C914 C912 1.384 . S
C914 C915 1.372 . S
C915 C914 1.372 . S
C915 C916 1.400 . S
C915 C920 1.490 . S
C916 H906 0.930 . S
C916 C915 1.400 . S
C916 C919 1.386 . S
H917 C933 0.930 . S
H918 C934 0.931 . S
C919 H907 0.929 . S
C919 C913 1.390 . S
C919 C916 1.386 . S
C920 C915 1.490 . S
C920 C922 1.395 . S
C920 C923 1.403 . S
H921 C927 0.930 . S
C922 H908 0.930 . S
C922 C920 1.395 . S
C922 C925 1.403 . S
C923 C920 1.403 . S
C923 C924 1.524 . S
C923 C927 1.400 . S
C924 H909 0.960 . S
C924 H910 0.960 . S
C924 H911 0.960 . S
C924 C923 1.524 . S
C925 C922 1.403 . S
C925 C926 1.392 . S
C925 C929 1.495 . S
C926 C925 1.392 . S
C926 C927 1.385 . S
C926 C928 1.478 . S
C927 H921 0.930 . S
C927 C923 1.400 . S
C927 C926 1.385 . S
C928 C926 1.478 . S
C928 C930 1.381 . S
C928 C934 1.383 . S
C929 C925 1.495 . S
C929 H935 0.959 . S
C929 H936 0.961 . S
C929 H937 0.960 . S
C930 C928 1.381 . S
C930 C931 1.394 . S
C930 H938 0.930 . S
C931 C930 1.394 . S
C931 C932 1.383 . S
C931 H939 0.929 . S
C932 C931 1.383 . S
C932 C933 1.377 . S
C933 H917 0.930 . S
C933 C932 1.377 . S
C933 C934 1.379 . S
C934 H918 0.931 . S
C934 C928 1.383 . S
C934 C933 1.379 . S
H935 C929 0.959 . S
H936 C929 0.961 . S
H937 C929 0.960 . S
H938 C930 0.930 . S
H939 C931 0.929 . S
H940 C948 0.929 . S
H941 C950 0.930 . S
H942 C952 0.930 . S
H943 C955 0.929 . S
H944 C958 0.930 . S
H945 C960 0.960 . S
H946 C960 0.960 . S
H947 C960 0.960 . S
C948 H940 0.929 . S
C948 C949 1.377 . S
C948 C950 1.384 . S
C949 C948 1.377 . S
C949 C955 1.390 . S
C950 H941 0.930 . S
C950 C948 1.384 . S
C950 C951 1.372 . S
C951 C950 1.372 . S
C951 C952 1.400 . S
C951 C956 1.490 . S
C952 H942 0.930 . S
C952 C951 1.400 . S
C952 C955 1.386 . S
H953 C969 0.930 . S
H954 C970 0.931 . S
C955 H943 0.929 . S
C955 C949 1.390 . S
C955 C952 1.386 . S
C956 C951 1.490 . S
C956 C958 1.395 . S
C956 C959 1.403 . S
H957 C963 0.930 . S
C958 H944 0.930 . S
C958 C956 1.395 . S
C958 C961 1.403 . S
C959 C956 1.403 . S
C959 C960 1.524 . S
C959 C963 1.400 . S
C960 H945 0.960 . S
C960 H946 0.960 . S
C960 H947 0.960 . S
C960 C959 1.524 . S
C961 C958 1.403 . S
C961 C962 1.392 . S
C961 C965 1.495 . S
C962 C961 1.392 . S
C962 C963 1.385 . S
C962 C964 1.478 . S
C963 H957 0.930 . S
C963 C959 1.400 . S
C963 C962 1.385 . S
C964 C962 1.478 . S
C964 C966 1.381 . S
C964 C970 1.383 . S
C965 C961 1.495 . S
C965 H971 0.959 1_455 S
C965 H972 0.957 1_455 S
C965 H973 0.953 1_455 S
C966 C964 1.381 . S
C966 C967 1.394 . S
C966 H974 0.930 . S
C967 C966 1.394 . S
C967 C968 1.383 . S
C967 H975 0.929 . S
C968 C967 1.383 . S
C968 C969 1.377 . S
C969 H953 0.930 . S
C969 C968 1.377 . S
C969 C970 1.379 . S
C970 H954 0.931 . S
C970 C964 1.383 . S
C970 C969 1.379 . S
H971 C965 0.959 1_655 S
H972 C965 0.957 1_655 S
H973 C965 0.953 1_655 S
H974 C966 0.930 . S
H975 C967 0.929 . S
H976 C984 0.929 . S
H977 C986 0.930 . S
H978 C988 0.930 . S
H979 C991 0.929 . S
H980 C994 0.930 . S
H981 C996 0.960 . S
H982 C996 0.960 . S
H983 C996 0.960 . S
C984 H976 0.929 . S
C984 C985 1.377 . S
C984 C986 1.384 . S
C985 C984 1.377 . S
C985 C991 1.390 . S
C986 H977 0.930 . S
C986 C984 1.384 . S
C986 C987 1.372 . S
C987 C986 1.372 . S
C987 C988 1.400 . S
C987 C992 1.490 . S
C988 H978 0.930 . S
C988 C987 1.400 . S
C988 C991 1.386 . S
H989 C1005 0.930 . S
H990 C1006 0.931 . S
C991 H979 0.929 . S
C991 C985 1.390 . S
C991 C988 1.386 . S
C992 C987 1.490 . S
C992 C994 1.395 . S
C992 C995 1.403 . S
H993 C999 0.930 . S
C994 H980 0.930 . S
C994 C992 1.395 . S
C994 C997 1.403 . S
C995 C992 1.403 . S
C995 C996 1.524 . S
C995 C999 1.400 . S
C996 H981 0.960 . S
C996 H982 0.960 . S
C996 H983 0.960 . S
C996 C995 1.524 . S
C997 C994 1.403 . S
C997 C998 1.392 . S
C997 C1001 1.495 . S
C998 C997 1.392 . S
C998 C999 1.385 . S
C998 C1000 1.478 . S
C999 H993 0.930 . S
C999 C995 1.400 . S
C999 C998 1.385 . S
C1000 C998 1.478 . S
C1000 C1002 1.381 . S
C1000 C1006 1.383 . S
C1001 C997 1.495 . S
C1001 H1007 0.959 . S
C1001 H1008 0.961 . S
C1001 H1009 0.960 . S
C1002 C1000 1.381 . S
C1002 C1003 1.394 . S
C1002 H1010 0.930 . S
C1003 C1002 1.394 . S
C1003 C1004 1.383 . S
C1003 H1011 0.929 . S
C1004 C1003 1.383 . S
C1004 C1005 1.377 . S
C1005 H989 0.930 . S
C1005 C1004 1.377 . S
C1005 C1006 1.379 . S
C1006 H990 0.931 . S
C1006 C1000 1.383 . S
C1006 C1005 1.379 . S
H1007 C1001 0.959 . S
H1008 C1001 0.961 . S
H1009 C1001 0.960 . S
H1010 C1002 0.930 . S
H1011 C1003 0.929 . S
H1012 C1020 0.929 . S
H1013 C1022 0.930 . S
H1014 C1024 0.930 . S
H1015 C1027 0.929 . S
H1016 C1030 0.930 1_455 S
H1017 C1032 0.960 . S
H1018 C1032 0.960 . S
H1019 C1032 0.960 . S
C1020 H1012 0.929 . S
C1020 C1021 1.377 . S
C1020 C1022 1.384 . S
C1021 C1020 1.377 . S
C1021 C1027 1.390 . S
C1022 H1013 0.930 . S
C1022 C1020 1.384 . S
C1022 C1023 1.372 . S
C1023 C1022 1.372 . S
C1023 C1024 1.400 . S
C1023 C1028 1.490 . S
C1024 H1014 0.930 . S
C1024 C1023 1.400 . S
C1024 C1027 1.386 . S
H1025 C1041 0.930 . S
H1026 C1042 0.931 . S
C1027 H1015 0.929 . S
C1027 C1021 1.390 . S
C1027 C1024 1.386 . S
C1028 C1023 1.490 . S
C1028 C1030 1.395 . S
C1028 C1031 1.403 . S
H1029 C1035 0.930 . S
C1030 H1016 0.930 1_655 S
C1030 C1028 1.395 . S
C1030 C1033 1.405 . S
C1031 C1028 1.403 . S
C1031 C1032 1.524 . S
C1031 C1035 1.400 . S
C1032 H1017 0.960 . S
C1032 H1018 0.960 . S
C1032 H1019 0.960 . S
C1032 C1031 1.524 . S
C1033 C1030 1.405 . S
C1033 C1034 1.422 . S
C1033 C1037 1.465 1_655 S
C1034 C1033 1.422 . S
C1034 C1035 1.385 . S
C1034 C1036 1.478 . S
C1035 H1029 0.930 . S
C1035 C1031 1.400 . S
C1035 C1034 1.385 . S
C1036 C1034 1.478 . S
C1036 C1038 1.381 . S
C1036 C1042 1.383 . S
C1037 C1033 1.465 1_455 S
C1037 H1043 0.959 . S
C1037 H1044 0.961 . S
C1037 H1045 0.960 . S
C1038 C1036 1.381 . S
C1038 C1039 1.394 . S
C1038 H1046 0.930 . S
C1039 C1038 1.394 . S
C1039 C1040 1.383 . S
C1039 H1047 0.929 . S
C1040 C1039 1.383 . S
C1040 C1041 1.377 . S
C1041 H1025 0.930 . S
C1041 C1040 1.377 . S
C1041 C1042 1.379 . S
C1042 H1026 0.931 . S
C1042 C1036 1.383 . S
C1042 C1041 1.379 . S
H1043 C1037 0.959 . S
H1044 C1037 0.961 . S
H1045 C1037 0.960 . S
H1046 C1038 0.930 . S
H1047 C1039 0.929 . S
H1048 C1056 0.929 . S
H1049 C1058 0.930 . S
H1050 C1060 0.930 . S
H1051 C1063 0.929 . S
H1052 C1066 0.930 . S
H1053 C1068 0.960 . S
H1054 C1068 0.960 . S
H1055 C1068 0.960 . S
C1056 H1048 0.929 . S
C1056 C1057 1.377 . S
C1056 C1058 1.384 . S
C1057 C1056 1.377 . S
C1057 C1063 1.390 . S
C1058 H1049 0.930 . S
C1058 C1056 1.384 . S
C1058 C1059 1.372 . S
C1059 C1058 1.372 . S
C1059 C1060 1.400 . S
C1059 C1064 1.490 . S
C1060 H1050 0.930 . S
C1060 C1059 1.400 . S
C1060 C1063 1.386 . S
H1061 C1077 0.930 . S
H1062 C1078 0.931 . S
C1063 H1051 0.929 . S
C1063 C1057 1.390 . S
C1063 C1060 1.386 . S
C1064 C1059 1.490 . S
C1064 C1066 1.395 . S
C1064 C1067 1.403 . S
H1065 C1071 0.930 . S
C1066 H1052 0.930 . S
C1066 C1064 1.395 . S
C1066 C1069 1.403 . S
C1067 C1064 1.403 . S
C1067 C1068 1.524 . S
C1067 C1071 1.400 . S
C1068 H1053 0.960 . S
C1068 H1054 0.960 . S
C1068 H1055 0.960 . S
C1068 C1067 1.524 . S
C1069 C1066 1.403 . S
C1069 C1070 1.392 . S
C1069 C1073 1.495 . S
C1070 C1069 1.392 . S
C1070 C1071 1.385 . S
C1070 C1072 1.478 . S
C1071 H1065 0.930 . S
C1071 C1067 1.400 . S
C1071 C1070 1.385 . S
C1072 C1070 1.478 . S
C1072 C1074 1.381 . S
C1072 C1078 1.383 . S
C1073 C1069 1.495 . S
C1073 H1079 0.959 . S
C1073 H1080 0.961 . S
C1073 H1081 0.960 . S
C1074 C1072 1.381 . S
C1074 C1075 1.394 . S
C1074 H1082 0.930 . S
C1075 C1074 1.394 . S
C1075 C1076 1.383 . S
C1075 H1083 0.929 . S
C1076 C1075 1.383 . S
C1076 C1077 1.377 . S
C1077 H1061 0.930 . S
C1077 C1076 1.377 . S
C1077 C1078 1.379 . S
C1078 H1062 0.931 . S
C1078 C1072 1.383 . S
C1078 C1077 1.379 . S
H1079 C1073 0.959 . S
H1080 C1073 0.961 . S
H1081 C1073 0.960 . S
H1082 C1074 0.930 . S
H1083 C1075 0.929 . S
H1084 C1092 0.929 . S
H1085 C1094 0.930 . S
H1086 C1096 0.930 . S
H1087 C1099 0.929 . S
H1088 C1102 0.930 . S
H1089 C1104 0.960 . S
H1090 C1104 0.960 . S
H1091 C1104 0.960 . S
C1092 H1084 0.929 . S
C1092 C1093 1.377 . S
C1092 C1094 1.384 . S
C1093 C1092 1.377 . S
C1093 C1099 1.390 . S
C1094 H1085 0.930 . S
C1094 C1092 1.384 . S
C1094 C1095 1.372 . S
C1095 C1094 1.372 . S
C1095 C1096 1.400 . S
C1095 C1100 1.490 . S
C1096 H1086 0.930 . S
C1096 C1095 1.400 . S
C1096 C1099 1.386 . S
H1097 C1113 0.930 . S
H1098 C1114 0.931 . S
C1099 H1087 0.929 . S
C1099 C1093 1.390 . S
C1099 C1096 1.386 . S
C1100 C1095 1.490 . S
C1100 C1102 1.395 . S
C1100 C1103 1.403 . S
H1101 C1107 0.930 . S
C1102 H1088 0.930 . S
C1102 C1100 1.395 . S
C1102 C1105 1.403 . S
C1103 C1100 1.403 . S
C1103 C1104 1.524 . S
C1103 C1107 1.400 . S
C1104 H1089 0.960 . S
C1104 H1090 0.960 . S
C1104 H1091 0.960 . S
C1104 C1103 1.524 . S
C1105 C1102 1.403 . S
C1105 C1106 1.392 . S
C1105 C1109 1.495 . S
C1106 C1105 1.392 . S
C1106 C1107 1.385 . S
C1106 C1108 1.478 . S
C1107 H1101 0.930 . S
C1107 C1103 1.400 . S
C1107 C1106 1.385 . S
C1108 C1106 1.478 . S
C1108 C1110 1.381 . S
C1108 C1114 1.383 . S
C1109 C1105 1.495 . S
C1109 H1115 0.959 . S
C1109 H1116 0.961 . S
C1109 H1117 0.960 . S
C1110 C1108 1.381 . S
C1110 C1111 1.394 . S
C1110 H1118 0.930 . S
C1111 C1110 1.394 . S
C1111 C1112 1.383 . S
C1111 H1119 0.929 . S
C1112 C1111 1.383 . S
C1112 C1113 1.377 . S
C1113 H1097 0.930 . S
C1113 C1112 1.377 . S
C1113 C1114 1.379 . S
C1114 H1098 0.931 . S
C1114 C1108 1.383 . S
C1114 C1113 1.379 . S
H1115 C1109 0.959 . S
H1116 C1109 0.961 . S
H1117 C1109 0.960 . S
H1118 C1110 0.930 . S
H1119 C1111 0.929 . S
H1120 C1128 0.929 . S
H1121 C1130 0.930 . S
H1122 C1132 0.937 1_554 S
H1123 C1135 0.929 . S
H1124 C1138 0.930 . S
H1125 C1140 0.970 1_554 S
H1126 C1140 0.960 1_545 S
H1127 C1140 0.960 1_544 S
C1128 H1120 0.929 . S
C1128 C1129 1.377 1_565 S
C1128 C1130 1.384 . S
C1129 C1128 1.377 1_545 S
C1129 C1135 1.390 . S
C1130 H1121 0.930 . S
C1130 C1128 1.384 . S
C1130 C1131 1.372 . S
C1131 C1130 1.372 . S
C1131 C1132 1.359 1_565 S
C1131 C1136 1.490 . S
C1132 H1122 0.937 1_556 S
C1132 C1131 1.359 1_545 S
C1132 C1135 1.424 . S
H1133 C1149 0.930 . S
H1134 C1150 0.931 . S
C1135 H1123 0.929 . S
C1135 C1129 1.390 . S
C1135 C1132 1.424 . S
C1136 C1131 1.490 . S
C1136 C1138 1.395 . S
C1136 C1139 1.403 . S
H1137 C1143 0.930 . S
C1138 H1124 0.930 . S
C1138 C1136 1.395 . S
C1138 C1141 1.403 . S
C1139 C1136 1.403 . S
C1139 C1140 1.524 . S
C1139 C1143 1.400 1_556 S
C1140 H1125 0.970 1_556 S
C1140 H1126 0.960 1_565 S
C1140 H1127 0.960 1_566 S
C1140 C1139 1.524 . S
C1141 C1138 1.403 . S
C1141 C1142 1.392 1_556 S
C1141 C1145 1.495 . S
C1142 C1141 1.392 1_554 S
C1142 C1143 1.385 . S
C1142 C1144 1.478 . S
C1143 H1137 0.930 . S
C1143 C1139 1.400 1_554 S
C1143 C1142 1.385 . S
C1144 C1142 1.478 . S
C1144 C1146 1.381 1_554 S
C1144 C1150 1.383 . S
C1145 C1141 1.495 . S
C1145 H1151 0.959 . S
C1145 H1152 0.961 1_556 S
C1145 H1153 0.960 . S
C1146 C1144 1.381 1_556 S
C1146 C1147 1.394 1_556 S
C1146 H1154 0.930 . S
C1147 C1146 1.394 1_554 S
C1147 C1148 1.383 . S
C1147 H1155 0.929 1_554 S
C1148 C1147 1.383 . S
C1148 C1149 1.377 . S
C1149 H1133 0.930 . S
C1149 C1148 1.377 . S
C1149 C1150 1.379 . S
C1150 H1134 0.931 . S
C1150 C1144 1.383 . S
C1150 C1149 1.379 . S
H1151 C1145 0.959 . S
H1152 C1145 0.961 1_554 S
H1153 C1145 0.960 . S
H1154 C1146 0.930 . S
H1155 C1147 0.929 1_556 S
H1156 C1164 0.929 . S
H1157 C1166 0.930 . S
H1158 C1168 0.930 . S
H1159 C1171 0.929 . S
H1160 C1174 0.930 . S
H1161 C1176 0.960 . S
H1162 C1176 0.960 . S
H1163 C1176 0.960 . S
C1164 H1156 0.929 . S
C1164 C1165 1.377 . S
C1164 C1166 1.384 . S
C1165 C1164 1.377 . S
C1165 C1171 1.390 . S
C1166 H1157 0.930 . S
C1166 C1164 1.384 . S
C1166 C1167 1.372 . S
C1167 C1166 1.372 . S
C1167 C1168 1.400 . S
C1167 C1172 1.490 . S
C1168 H1158 0.930 . S
C1168 C1167 1.400 . S
C1168 C1171 1.386 . S
H1169 C1185 0.930 . S
H1170 C1186 0.931 . S
C1171 H1159 0.929 . S
C1171 C1165 1.390 . S
C1171 C1168 1.386 . S
C1172 C1167 1.490 . S
C1172 C1174 1.395 . S
C1172 C1175 1.403 . S
H1173 C1179 0.930 . S
C1174 H1160 0.930 . S
C1174 C1172 1.395 . S
C1174 C1177 1.403 . S
C1175 C1172 1.403 . S
C1175 C1176 1.524 . S
C1175 C1179 1.400 . S
C1176 H1161 0.960 . S
C1176 H1162 0.960 . S
C1176 H1163 0.960 . S
C1176 C1175 1.524 . S
C1177 C1174 1.403 . S
C1177 C1178 1.392 . S
C1177 C1181 1.495 . S
C1178 C1177 1.392 . S
C1178 C1179 1.385 . S
C1178 C1180 1.478 . S
C1179 H1173 0.930 . S
C1179 C1175 1.400 . S
C1179 C1178 1.385 . S
C1180 C1178 1.478 . S
C1180 C1182 1.381 . S
C1180 C1186 1.383 . S
C1181 C1177 1.495 . S
C1181 H1187 0.959 . S
C1181 H1188 0.961 . S
C1181 H1189 0.960 . S
C1182 C1180 1.381 . S
C1182 C1183 1.394 . S
C1182 H1190 0.930 . S
C1183 C1182 1.394 . S
C1183 C1184 1.383 . S
C1183 H1191 0.929 . S
C1184 C1183 1.383 . S
C1184 C1185 1.377 . S
C1185 H1169 0.930 . S
C1185 C1184 1.377 . S
C1185 C1186 1.379 . S
C1186 H1170 0.931 . S
C1186 C1180 1.383 . S
C1186 C1185 1.379 . S
H1187 C1181 0.959 . S
H1188 C1181 0.961 . S
H1189 C1181 0.960 . S
H1190 C1182 0.930 . S
H1191 C1183 0.929 . S
H1192 C1200 0.929 . S
H1193 C1202 0.930 . S
H1194 C1204 0.930 . S
H1195 C1207 0.929 . S
H1196 C1210 0.930 . S
H1197 C1212 0.960 . S
H1198 C1212 0.960 . S
H1199 C1212 0.960 . S
C1200 H1192 0.929 . S
C1200 C1201 1.377 1_565 S
C1200 C1202 1.384 1_565 S
C1201 C1200 1.377 1_545 S
C1201 C1207 1.390 . S
C1202 H1193 0.930 . S
C1202 C1200 1.384 1_545 S
C1202 C1203 1.372 . S
C1203 C1202 1.372 . S
C1203 C1204 1.400 . S
C1203 C1208 1.490 . S
C1204 H1194 0.930 . S
C1204 C1203 1.400 . S
C1204 C1207 1.386 . S
H1205 C1221 0.930 . S
H1206 C1222 0.931 . S
C1207 H1195 0.929 . S
C1207 C1201 1.390 . S
C1207 C1204 1.386 . S
C1208 C1203 1.490 . S
C1208 C1210 1.395 . S
C1208 C1211 1.403 . S
H1209 C1215 0.930 . S
C1210 H1196 0.930 . S
C1210 C1208 1.395 . S
C1210 C1213 1.403 . S
C1211 C1208 1.403 . S
C1211 C1212 1.524 . S
C1211 C1215 1.400 . S
C1212 H1197 0.960 . S
C1212 H1198 0.960 . S
C1212 H1199 0.960 . S
C1212 C1211 1.524 . S
C1213 C1210 1.403 . S
C1213 C1214 1.392 . S
C1213 C1217 1.495 . S
C1214 C1213 1.392 . S
C1214 C1215 1.385 . S
C1214 C1216 1.478 . S
C1215 H1209 0.930 . S
C1215 C1211 1.400 . S
C1215 C1214 1.385 . S
C1216 C1214 1.478 . S
C1216 C1218 1.381 . S
C1216 C1222 1.383 . S
C1217 C1213 1.495 . S
C1217 H1223 0.959 . S
C1217 H1224 0.961 . S
C1217 H1225 0.960 . S
C1218 C1216 1.381 . S
C1218 C1219 1.394 . S
C1218 H1226 0.930 . S
C1219 C1218 1.394 . S
C1219 C1220 1.383 . S
C1219 H1227 0.929 . S
C1220 C1219 1.383 . S
C1220 C1221 1.377 . S
C1221 H1205 0.930 . S
C1221 C1220 1.377 . S
C1221 C1222 1.379 . S
C1222 H1206 0.931 . S
C1222 C1216 1.383 . S
C1222 C1221 1.379 . S
H1223 C1217 0.959 . S
H1224 C1217 0.961 . S
H1225 C1217 0.960 . S
H1226 C1218 0.930 . S
H1227 C1219 0.929 . S
H1228 C1236 0.929 . S
H1229 C1238 0.930 . S
H1230 C1240 0.930 . S
H1231 C1243 0.929 . S
H1232 C1246 0.930 . S
H1233 C1248 0.960 . S
H1234 C1248 0.960 . S
H1235 C1248 0.960 . S
C1236 H1228 0.929 . S
C1236 C1237 1.377 . S
C1236 C1238 1.384 . S
C1237 C1236 1.377 . S
C1237 C1243 1.390 . S
C1238 H1229 0.930 . S
C1238 C1236 1.384 . S
C1238 C1239 1.372 . S
C1239 C1238 1.372 . S
C1239 C1240 1.400 . S
C1239 C1244 1.490 . S
C1240 H1230 0.930 . S
C1240 C1239 1.400 . S
C1240 C1243 1.386 . S
H1241 C1257 0.930 . S
H1242 C1258 0.931 . S
C1243 H1231 0.929 . S
C1243 C1237 1.390 . S
C1243 C1240 1.386 . S
C1244 C1239 1.490 . S
C1244 C1246 1.395 . S
C1244 C1247 1.403 . S
H1245 C1251 0.930 . S
C1246 H1232 0.930 . S
C1246 C1244 1.395 . S
C1246 C1249 1.403 . S
C1247 C1244 1.403 . S
C1247 C1248 1.524 . S
C1247 C1251 1.400 . S
C1248 H1233 0.960 . S
C1248 H1234 0.960 . S
C1248 H1235 0.960 . S
C1248 C1247 1.524 . S
C1249 C1246 1.403 . S
C1249 C1250 1.392 . S
C1249 C1253 1.495 . S
C1250 C1249 1.392 . S
C1250 C1251 1.385 . S
C1250 C1252 1.478 . S
C1251 H1245 0.930 . S
C1251 C1247 1.400 . S
C1251 C1250 1.385 . S
C1252 C1250 1.478 . S
C1252 C1254 1.381 . S
C1252 C1258 1.383 . S
C1253 C1249 1.495 . S
C1253 H1259 0.959 . S
C1253 H1260 0.961 . S
C1253 H1261 0.960 . S
C1254 C1252 1.381 . S
C1254 C1255 1.394 . S
C1254 H1262 0.930 . S
C1255 C1254 1.394 . S
C1255 C1256 1.383 . S
C1255 H1263 0.929 . S
C1256 C1255 1.383 . S
C1256 C1257 1.377 . S
C1257 H1241 0.930 . S
C1257 C1256 1.377 . S
C1257 C1258 1.379 . S
C1258 H1242 0.931 . S
C1258 C1252 1.383 . S
C1258 C1257 1.379 . S
H1259 C1253 0.959 . S
H1260 C1253 0.961 . S
H1261 C1253 0.960 . S
H1262 C1254 0.930 . S
H1263 C1255 0.929 . S
H1264 C1272 0.929 . S
H1265 C1274 0.930 . S
H1266 C1276 0.930 . S
H1267 C1279 0.929 . S
H1268 C1282 0.930 . S
H1269 C1284 0.960 . S
H1270 C1284 0.960 . S
H1271 C1284 0.960 . S
C1272 H1264 0.929 . S
C1272 C1273 1.377 . S
C1272 C1274 1.384 . S
C1273 C1272 1.377 . S
C1273 C1279 1.390 . S
C1274 H1265 0.930 . S
C1274 C1272 1.384 . S
C1274 C1275 1.372 . S
C1275 C1274 1.372 . S
C1275 C1276 1.400 . S
C1275 C1280 1.490 . S
C1276 H1266 0.930 . S
C1276 C1275 1.400 . S
C1276 C1279 1.386 . S
H1277 C1293 0.930 . S
H1278 C1294 0.931 . S
C1279 H1267 0.929 . S
C1279 C1273 1.390 . S
C1279 C1276 1.386 . S
C1280 C1275 1.490 . S
C1280 C1282 1.395 . S
C1280 C1283 1.403 . S
H1281 C1287 0.930 . S
C1282 H1268 0.930 . S
C1282 C1280 1.395 . S
C1282 C1285 1.403 . S
C1283 C1280 1.403 . S
C1283 C1284 1.524 . S
C1283 C1287 1.400 . S
C1284 H1269 0.960 . S
C1284 H1270 0.960 . S
C1284 H1271 0.960 . S
C1284 C1283 1.524 . S
C1285 C1282 1.403 . S
C1285 C1286 1.392 . S
C1285 C1289 1.495 . S
C1286 C1285 1.392 . S
C1286 C1287 1.385 . S
C1286 C1288 1.478 . S
C1287 H1281 0.930 . S
C1287 C1283 1.400 . S
C1287 C1286 1.385 . S
C1288 C1286 1.478 . S
C1288 C1290 1.381 . S
C1288 C1294 1.383 . S
C1289 C1285 1.495 . S
C1289 H1295 0.959 . S
C1289 H1296 0.961 . S
C1289 H1297 0.960 . S
C1290 C1288 1.381 . S
C1290 C1291 1.394 . S
C1290 H1298 0.930 . S
C1291 C1290 1.394 . S
C1291 C1292 1.383 . S
C1291 H1299 0.929 . S
C1292 C1291 1.383 . S
C1292 C1293 1.377 . S
C1293 H1277 0.930 . S
C1293 C1292 1.377 . S
C1293 C1294 1.379 . S
C1294 H1278 0.931 . S
C1294 C1288 1.383 . S
C1294 C1293 1.379 . S
H1295 C1289 0.959 . S
H1296 C1289 0.961 . S
H1297 C1289 0.960 . S
H1298 C1290 0.930 . S
H1299 C1291 0.929 . S
H1300 C1308 0.929 . S
H1301 C1310 0.930 . S
H1302 C1312 0.930 . S
H1303 C1315 0.929 . S
H1304 C1318 0.930 . S
H1305 C1320 0.960 . S
H1306 C1320 0.960 . S
H1307 C1320 0.960 . S
C1308 H1300 0.929 . S
C1308 C1309 1.377 . S
C1308 C1310 1.384 . S
C1309 C1308 1.377 . S
C1309 C1315 1.390 . S
C1310 H1301 0.930 . S
C1310 C1308 1.384 . S
C1310 C1311 1.372 . S
C1311 C1310 1.372 . S
C1311 C1312 1.400 . S
C1311 C1316 1.490 . S
C1312 H1302 0.930 . S
C1312 C1311 1.400 . S
C1312 C1315 1.386 . S
H1313 C1329 0.930 . S
H1314 C1330 0.931 . S
C1315 H1303 0.929 . S
C1315 C1309 1.390 . S
C1315 C1312 1.386 . S
C1316 C1311 1.490 . S
C1316 C1318 1.395 . S
C1316 C1319 1.403 . S
H1317 C1323 0.930 . S
C1318 H1304 0.930 . S
C1318 C1316 1.395 . S
C1318 C1321 1.403 . S
C1319 C1316 1.403 . S
C1319 C1320 1.524 . S
C1319 C1323 1.400 . S
C1320 H1305 0.960 . S
C1320 H1306 0.960 . S
C1320 H1307 0.960 . S
C1320 C1319 1.524 . S
C1321 C1318 1.403 . S
C1321 C1322 1.392 . S
C1321 C1325 1.495 . S
C1322 C1321 1.392 . S
C1322 C1323 1.385 . S
C1322 C1324 1.478 . S
C1323 H1317 0.930 . S
C1323 C1319 1.400 . S
C1323 C1322 1.385 . S
C1324 C1322 1.478 . S
C1324 C1326 1.381 . S
C1324 C1330 1.383 . S
C1325 C1321 1.495 . S
C1325 H1331 0.959 . S
C1325 H1332 0.961 . S
C1325 H1333 0.960 . S
C1326 C1324 1.381 . S
C1326 C1327 1.394 . S
C1326 H1334 0.930 . S
C1327 C1326 1.394 . S
C1327 C1328 1.383 . S
C1327 H1335 0.929 . S
C1328 C1327 1.383 . S
C1328 C1329 1.377 . S
C1329 H1313 0.930 . S
C1329 C1328 1.377 . S
C1329 C1330 1.379 . S
C1330 H1314 0.931 . S
C1330 C1324 1.383 . S
C1330 C1329 1.379 . S
H1331 C1325 0.959 . S
H1332 C1325 0.961 . S
H1333 C1325 0.960 . S
H1334 C1326 0.930 . S
H1335 C1327 0.929 . S
H1336 C1344 0.929 . S
H1337 C1346 0.930 . S
H1338 C1348 0.930 . S
H1339 C1351 0.929 . S
H1340 C1354 0.930 . S
H1341 C1356 0.960 . S
H1342 C1356 0.960 . S
H1343 C1356 0.960 . S
C1344 H1336 0.929 . S
C1344 C1345 1.377 . S
C1344 C1346 1.384 . S
C1345 C1344 1.377 . S
C1345 C1351 1.390 . S
C1346 H1337 0.930 . S
C1346 C1344 1.384 . S
C1346 C1347 1.372 . S
C1347 C1346 1.372 . S
C1347 C1348 1.400 . S
C1347 C1352 1.490 . S
C1348 H1338 0.930 . S
C1348 C1347 1.400 . S
C1348 C1351 1.386 . S
H1349 C1365 0.930 . S
H1350 C1366 0.931 . S
C1351 H1339 0.929 . S
C1351 C1345 1.390 . S
C1351 C1348 1.386 . S
C1352 C1347 1.490 . S
C1352 C1354 1.395 . S
C1352 C1355 1.403 . S
H1353 C1359 0.930 . S
C1354 H1340 0.930 . S
C1354 C1352 1.395 . S
C1354 C1357 1.403 . S
C1355 C1352 1.403 . S
C1355 C1356 1.524 . S
C1355 C1359 1.400 . S
C1356 H1341 0.960 . S
C1356 H1342 0.960 . S
C1356 H1343 0.960 . S
C1356 C1355 1.524 . S
C1357 C1354 1.403 . S
C1357 C1358 1.392 . S
C1357 C1361 1.495 . S
C1358 C1357 1.392 . S
C1358 C1359 1.385 . S
C1358 C1360 1.478 . S
C1359 H1353 0.930 . S
C1359 C1355 1.400 . S
C1359 C1358 1.385 . S
C1360 C1358 1.478 . S
C1360 C1362 1.381 . S
C1360 C1366 1.383 . S
C1361 C1357 1.495 . S
C1361 H1367 0.959 . S
C1361 H1368 0.961 . S
C1361 H1369 0.960 . S
C1362 C1360 1.381 . S
C1362 C1363 1.394 . S
C1362 H1370 0.930 . S
C1363 C1362 1.394 . S
C1363 C1364 1.383 . S
C1363 H1371 0.929 . S
C1364 C1363 1.383 . S
C1364 C1365 1.377 . S
C1365 H1349 0.930 . S
C1365 C1364 1.377 . S
C1365 C1366 1.379 . S
C1366 H1350 0.931 . S
C1366 C1360 1.383 . S
C1366 C1365 1.379 . S
H1367 C1361 0.959 . S
H1368 C1361 0.961 . S
H1369 C1361 0.960 . S
H1370 C1362 0.930 . S
H1371 C1363 0.929 . S
H1372 C1380 0.929 . S
H1373 C1382 0.930 . S
H1374 C1384 0.930 . S
H1375 C1387 0.929 . S
H1376 C1390 0.930 . S
H1377 C1392 0.960 . S
H1378 C1392 0.960 . S
H1379 C1392 0.960 . S
C1380 H1372 0.929 . S
C1380 C1381 1.377 . S
C1380 C1382 1.384 . S
C1381 C1380 1.377 . S
C1381 C1387 1.390 . S
C1382 H1373 0.930 . S
C1382 C1380 1.384 . S
C1382 C1383 1.372 . S
C1383 C1382 1.372 . S
C1383 C1384 1.400 . S
C1383 C1388 1.490 . S
C1384 H1374 0.930 . S
C1384 C1383 1.400 . S
C1384 C1387 1.386 . S
H1385 C1401 0.886 1_565 S
H1386 C1402 0.950 . S
C1387 H1375 0.929 . S
C1387 C1381 1.390 . S
C1387 C1384 1.386 . S
C1388 C1383 1.490 . S
C1388 C1390 1.395 . S
C1388 C1391 1.403 . S
H1389 C1395 0.930 . S
C1390 H1376 0.930 . S
C1390 C1388 1.395 . S
C1390 C1393 1.403 . S
C1391 C1388 1.403 . S
C1391 C1392 1.524 . S
C1391 C1395 1.400 . S
C1392 H1377 0.960 . S
C1392 H1378 0.960 . S
C1392 H1379 0.960 . S
C1392 C1391 1.524 . S
C1393 C1390 1.403 . S
C1393 C1394 1.392 . S
C1393 C1397 1.495 . S
C1394 C1393 1.392 . S
C1394 C1395 1.385 . S
C1394 C1396 1.478 . S
C1395 H1389 0.930 . S
C1395 C1391 1.400 . S
C1395 C1394 1.385 . S
C1396 C1394 1.478 . S
C1396 C1398 1.381 . S
C1396 C1402 1.383 . S
C1397 C1393 1.495 . S
C1397 H1403 0.959 . S
C1397 H1404 0.961 . S
C1397 H1405 0.960 . S
C1398 C1396 1.381 . S
C1398 C1399 1.394 . S
C1398 H1406 0.930 . S
C1399 C1398 1.394 . S
C1399 C1400 1.383 . S
C1399 H1407 0.929 . S
C1400 C1399 1.383 . S
C1400 C1401 1.377 . S
C1401 H1385 0.886 1_545 S
C1401 C1400 1.377 . S
C1401 C1402 1.379 . S
C1402 H1386 0.950 . S
C1402 C1396 1.383 . S
C1402 C1401 1.379 . S
H1403 C1397 0.959 . S
H1404 C1397 0.961 . S
H1405 C1397 0.960 . S
H1406 C1398 0.930 . S
H1407 C1399 0.929 . S
H1408 C1416 0.929 . S
H1409 C1418 0.930 . S
H1410 C1420 0.930 . S
H1411 C1423 0.929 . S
H1412 C1426 0.930 . S
H1413 C1428 0.960 . S
H1414 C1428 0.960 . S
H1415 C1428 0.960 . S
C1416 H1408 0.929 . S
C1416 C1417 1.377 . S
C1416 C1418 1.384 . S
C1417 C1416 1.377 . S
C1417 C1423 1.390 . S
C1418 H1409 0.930 . S
C1418 C1416 1.384 . S
C1418 C1419 1.372 . S
C1419 C1418 1.372 . S
C1419 C1420 1.400 . S
C1419 C1424 1.490 . S
C1420 H1410 0.930 . S
C1420 C1419 1.400 . S
C1420 C1423 1.386 . S
H1421 C1437 0.930 . S
H1422 C1438 0.931 . S
C1423 H1411 0.929 . S
C1423 C1417 1.390 . S
C1423 C1420 1.386 . S
C1424 C1419 1.490 . S
C1424 C1426 1.395 . S
C1424 C1427 1.403 . S
H1425 C1431 0.930 . S
C1426 H1412 0.930 . S
C1426 C1424 1.395 . S
C1426 C1429 1.403 . S
C1427 C1424 1.403 . S
C1427 C1428 1.524 . S
C1427 C1431 1.400 . S
C1428 H1413 0.960 . S
C1428 H1414 0.960 . S
C1428 H1415 0.960 . S
C1428 C1427 1.524 . S
C1429 C1426 1.403 . S
C1429 C1430 1.392 . S
C1429 C1433 1.495 . S
C1430 C1429 1.392 . S
C1430 C1431 1.385 . S
C1430 C1432 1.478 . S
C1431 H1425 0.930 . S
C1431 C1427 1.400 . S
C1431 C1430 1.385 . S
C1432 C1430 1.478 . S
C1432 C1434 1.381 . S
C1432 C1438 1.383 . S
C1433 C1429 1.495 . S
C1433 H1439 0.959 . S
C1433 H1440 0.961 . S
C1433 H1441 0.960 . S
C1434 C1432 1.381 . S
C1434 C1435 1.394 . S
C1434 H1442 0.930 . S
C1435 C1434 1.394 . S
C1435 C1436 1.383 . S
C1435 H1443 0.929 . S
C1436 C1435 1.383 . S
C1436 C1437 1.377 . S
C1437 H1421 0.930 . S
C1437 C1436 1.377 . S
C1437 C1438 1.379 . S
C1438 H1422 0.931 . S
C1438 C1432 1.383 . S
C1438 C1437 1.379 . S
H1439 C1433 0.959 . S
H1440 C1433 0.961 . S
H1441 C1433 0.960 . S
H1442 C1434 0.930 . S
H1443 C1435 0.929 . S
H1444 C1452 0.929 . S
H1445 C1454 0.930 . S
H1446 C1456 0.930 . S
H1447 C1459 0.929 . S
H1448 C1462 0.930 . S
H1449 C1464 0.960 . S
H1450 C1464 0.960 . S
H1451 C1464 0.960 . S
C1452 H1444 0.929 . S
C1452 C1453 1.377 . S
C1452 C1454 1.384 . S
C1453 C1452 1.377 . S
C1453 C1459 1.390 . S
C1454 H1445 0.930 . S
C1454 C1452 1.384 . S
C1454 C1455 1.372 . S
C1455 C1454 1.372 . S
C1455 C1456 1.400 . S
C1455 C1460 1.490 . S
C1456 H1446 0.930 . S
C1456 C1455 1.400 . S
C1456 C1459 1.386 . S
H1457 C1473 0.930 . S
H1458 C1474 0.931 . S
C1459 H1447 0.929 . S
C1459 C1453 1.390 . S
C1459 C1456 1.386 . S
C1460 C1455 1.490 . S
C1460 C1462 1.395 . S
C1460 C1463 1.403 . S
H1461 C1467 0.930 . S
C1462 H1448 0.930 . S
C1462 C1460 1.395 . S
C1462 C1465 1.403 . S
C1463 C1460 1.403 . S
C1463 C1464 1.524 . S
C1463 C1467 1.400 . S
C1464 H1449 0.960 . S
C1464 H1450 0.960 . S
C1464 H1451 0.960 . S
C1464 C1463 1.524 . S
C1465 C1462 1.403 . S
C1465 C1466 1.392 . S
C1465 C1469 1.495 . S
C1466 C1465 1.392 . S
C1466 C1467 1.385 . S
C1466 C1468 1.478 . S
C1467 H1461 0.930 . S
C1467 C1463 1.400 . S
C1467 C1466 1.385 . S
C1468 C1466 1.478 . S
C1468 C1470 1.381 . S
C1468 C1474 1.383 . S
C1469 C1465 1.495 . S
C1469 H1475 0.959 . S
C1469 H1476 0.961 . S
C1469 H1477 0.960 . S
C1470 C1468 1.381 . S
C1470 C1471 1.394 . S
C1470 H1478 0.930 . S
C1471 C1470 1.394 . S
C1471 C1472 1.383 . S
C1471 H1479 0.929 . S
C1472 C1471 1.383 . S
C1472 C1473 1.377 . S
C1473 H1457 0.930 . S
C1473 C1472 1.377 . S
C1473 C1474 1.379 . S
C1474 H1458 0.931 . S
C1474 C1468 1.383 . S
C1474 C1473 1.379 . S
H1475 C1469 0.959 . S
H1476 C1469 0.961 . S
H1477 C1469 0.960 . S
H1478 C1470 0.930 . S
H1479 C1471 0.929 . S
H1480 C1488 0.929 . S
H1481 C1490 0.930 . S
H1482 C1492 0.930 . S
H1483 C1495 0.929 . S
H1484 C1498 0.930 . S
H1485 C1500 0.960 . S
H1486 C1500 0.960 . S
H1487 C1500 0.960 . S
C1488 H1480 0.929 . S
C1488 C1489 1.377 . S
C1488 C1490 1.384 . S
C1489 C1488 1.377 . S
C1489 C1495 1.390 . S
C1490 H1481 0.930 . S
C1490 C1488 1.384 . S
C1490 C1491 1.372 . S
C1491 C1490 1.372 . S
C1491 C1492 1.400 . S
C1491 C1496 1.490 . S
C1492 H1482 0.930 . S
C1492 C1491 1.400 . S
C1492 C1495 1.386 . S
H1493 C1509 0.930 . S
H1494 C1510 0.931 . S
C1495 H1483 0.929 . S
C1495 C1489 1.390 . S
C1495 C1492 1.386 . S
C1496 C1491 1.490 . S
C1496 C1498 1.395 . S
C1496 C1499 1.403 . S
H1497 C1503 0.930 . S
C1498 H1484 0.930 . S
C1498 C1496 1.395 . S
C1498 C1501 1.403 . S
C1499 C1496 1.403 . S
C1499 C1500 1.524 . S
C1499 C1503 1.400 . S
C1500 H1485 0.960 . S
C1500 H1486 0.960 . S
C1500 H1487 0.960 . S
C1500 C1499 1.524 . S
C1501 C1498 1.403 . S
C1501 C1502 1.392 . S
C1501 C1505 1.495 . S
C1502 C1501 1.392 . S
C1502 C1503 1.385 . S
C1502 C1504 1.478 . S
C1503 H1497 0.930 . S
C1503 C1499 1.400 . S
C1503 C1502 1.385 . S
C1504 C1502 1.478 . S
C1504 C1506 1.381 . S
C1504 C1510 1.383 . S
C1505 C1501 1.495 . S
C1505 H1511 0.959 . S
C1505 H1512 0.961 . S
C1505 H1513 0.960 . S
C1506 C1504 1.381 . S
C1506 C1507 1.394 . S
C1506 H1514 0.930 . S
C1507 C1506 1.394 . S
C1507 C1508 1.383 . S
C1507 H1515 0.929 . S
C1508 C1507 1.383 . S
C1508 C1509 1.377 . S
C1509 H1493 0.930 . S
C1509 C1508 1.377 . S
C1509 C1510 1.379 . S
C1510 H1494 0.931 . S
C1510 C1504 1.383 . S
C1510 C1509 1.379 . S
H1511 C1505 0.959 . S
H1512 C1505 0.961 . S
H1513 C1505 0.960 . S
H1514 C1506 0.930 . S
H1515 C1507 0.929 . S
H1516 C1524 0.929 . S
H1517 C1526 0.930 . S
H1518 C1528 0.930 1_565 S
H1519 C1531 0.929 1_565 S
H1520 C1534 0.930 . S
H1521 C1536 0.960 . S
H1522 C1536 0.960 . S
H1523 C1536 0.960 . S
C1524 H1516 0.929 . S
C1524 C1525 1.377 . S
C1524 C1526 1.384 . S
C1525 C1524 1.377 . S
C1525 C1531 1.390 . S
C1526 H1517 0.930 . S
C1526 C1524 1.384 . S
C1526 C1527 1.372 . S
C1527 C1526 1.372 . S
C1527 C1528 1.400 . S
C1527 C1532 1.490 . S
C1528 H1518 0.930 1_545 S
C1528 C1527 1.400 . S
C1528 C1531 1.386 . S
H1529 C1545 0.930 . S
H1530 C1546 0.953 . S
C1531 H1519 0.929 1_545 S
C1531 C1525 1.390 . S
C1531 C1528 1.386 . S
C1532 C1527 1.490 . S
C1532 C1534 1.395 1_455 S
C1532 C1535 1.403 . S
H1533 C1539 0.930 . S
C1534 H1520 0.930 . S
C1534 C1532 1.395 1_655 S
C1534 C1537 1.403 . S
C1535 C1532 1.403 . S
C1535 C1536 1.524 . S
C1535 C1539 1.400 . S
C1536 H1521 0.960 . S
C1536 H1522 0.960 . S
C1536 H1523 0.960 . S
C1536 C1535 1.524 . S
C1537 C1534 1.403 . S
C1537 C1538 1.392 . S
C1537 C1541 1.495 . S
C1538 C1537 1.392 . S
C1538 C1539 1.385 1_655 S
C1538 C1540 1.478 . S
C1539 H1533 0.930 . S
C1539 C1535 1.400 . S
C1539 C1538 1.385 1_455 S
C1540 C1538 1.478 . S
C1540 C1542 1.381 . S
C1540 C1546 1.383 . S
C1541 C1537 1.495 . S
C1541 H1547 0.959 . S
C1541 H1548 0.961 . S
C1541 H1549 0.960 . S
C1542 C1540 1.381 . S
C1542 C1543 1.394 . S
C1542 H1550 0.930 . S
C1543 C1542 1.394 . S
C1543 C1544 1.383 . S
C1543 H1551 0.929 . S
C1544 C1543 1.383 . S
C1544 C1545 1.377 . S
C1545 H1529 0.930 . S
C1545 C1544 1.377 . S
C1545 C1546 1.379 . S
C1546 H1530 0.953 . S
C1546 C1540 1.383 . S
C1546 C1545 1.379 . S
H1547 C1541 0.959 . S
H1548 C1541 0.961 . S
H1549 C1541 0.960 . S
H1550 C1542 0.930 . S
H1551 C1543 0.929 . S
H1552 C1560 0.929 . S
H1553 C1562 0.930 . S
H1554 C1564 0.930 . S
H1555 C1567 0.929 . S
H1556 C1570 0.930 . S
H1557 C1572 0.960 . S
H1558 C1572 0.960 . S
H1559 C1572 0.960 . S
C1560 H1552 0.929 . S
C1560 C1561 1.377 . S
C1560 C1562 1.384 . S
C1561 C1560 1.377 . S
C1561 C1567 1.390 . S
C1562 H1553 0.930 . S
C1562 C1560 1.384 . S
C1562 C1563 1.372 . S
C1563 C1562 1.372 . S
C1563 C1564 1.400 . S
C1563 C1568 1.490 . S
C1564 H1554 0.930 . S
C1564 C1563 1.400 . S
C1564 C1567 1.386 . S
H1565 C1581 0.930 . S
H1566 C1582 0.931 . S
C1567 H1555 0.929 . S
C1567 C1561 1.390 . S
C1567 C1564 1.386 . S
C1568 C1563 1.490 . S
C1568 C1570 1.395 . S
C1568 C1571 1.403 . S
H1569 C1575 0.930 . S
C1570 H1556 0.930 . S
C1570 C1568 1.395 . S
C1570 C1573 1.403 . S
C1571 C1568 1.403 . S
C1571 C1572 1.524 . S
C1571 C1575 1.400 . S
C1572 H1557 0.960 . S
C1572 H1558 0.960 . S
C1572 H1559 0.960 . S
C1572 C1571 1.524 . S
C1573 C1570 1.403 . S
C1573 C1574 1.392 . S
C1573 C1577 1.495 . S
C1574 C1573 1.392 . S
C1574 C1575 1.385 . S
C1574 C1576 1.478 . S
C1575 H1569 0.930 . S
C1575 C1571 1.400 . S
C1575 C1574 1.385 . S
C1576 C1574 1.478 . S
C1576 C1578 1.381 . S
C1576 C1582 1.383 . S
C1577 C1573 1.495 . S
C1577 H1583 0.959 . S
C1577 H1584 0.961 . S
C1577 H1585 0.960 . S
C1578 C1576 1.381 . S
C1578 C1579 1.394 . S
C1578 H1586 0.930 . S
C1579 C1578 1.394 . S
C1579 C1580 1.383 . S
C1579 H1587 0.929 . S
C1580 C1579 1.383 . S
C1580 C1581 1.377 . S
C1581 H1565 0.930 . S
C1581 C1580 1.377 . S
C1581 C1582 1.379 . S
C1582 H1566 0.931 . S
C1582 C1576 1.383 . S
C1582 C1581 1.379 . S
H1583 C1577 0.959 . S
H1584 C1577 0.961 . S
H1585 C1577 0.960 . S
H1586 C1578 0.930 . S
H1587 C1579 0.929 . S
H1588 C1596 0.929 . S
H1589 C1598 0.930 . S
H1590 C1600 0.930 . S
H1591 C1603 0.929 . S
H1592 C1606 0.930 . S
H1593 C1608 0.960 . S
H1594 C1608 0.960 . S
H1595 C1608 0.960 . S
C1596 H1588 0.929 . S
C1596 C1597 1.377 . S
C1596 C1598 1.384 . S
C1597 C1596 1.377 . S
C1597 C1603 1.390 . S
C1598 H1589 0.930 . S
C1598 C1596 1.384 . S
C1598 C1599 1.372 . S
C1599 C1598 1.372 . S
C1599 C1600 1.400 . S
C1599 C1604 1.490 . S
C1600 H1590 0.930 . S
C1600 C1599 1.400 . S
C1600 C1603 1.386 . S
H1601 C1617 0.930 . S
H1602 C1618 0.931 . S
C1603 H1591 0.929 . S
C1603 C1597 1.390 . S
C1603 C1600 1.386 . S
C1604 C1599 1.490 . S
C1604 C1606 1.395 . S
C1604 C1607 1.403 . S
H1605 C1611 0.930 . S
C1606 H1592 0.930 . S
C1606 C1604 1.395 . S
C1606 C1609 1.403 . S
C1607 C1604 1.403 . S
C1607 C1608 1.524 . S
C1607 C1611 1.400 . S
C1608 H1593 0.960 . S
C1608 H1594 0.960 . S
C1608 H1595 0.960 . S
C1608 C1607 1.524 . S
C1609 C1606 1.403 . S
C1609 C1610 1.392 . S
C1609 C1613 1.495 . S
C1610 C1609 1.392 . S
C1610 C1611 1.385 . S
C1610 C1612 1.478 . S
C1611 H1605 0.930 . S
C1611 C1607 1.400 . S
C1611 C1610 1.385 . S
C1612 C1610 1.478 . S
C1612 C1614 1.381 . S
C1612 C1618 1.383 . S
C1613 C1609 1.495 . S
C1613 H1619 0.959 . S
C1613 H1620 0.961 . S
C1613 H1621 0.960 . S
C1614 C1612 1.381 . S
C1614 C1615 1.394 . S
C1614 H1622 0.930 . S
C1615 C1614 1.394 . S
C1615 C1616 1.383 . S
C1615 H1623 0.929 . S
C1616 C1615 1.383 . S
C1616 C1617 1.377 . S
C1617 H1601 0.930 . S
C1617 C1616 1.377 . S
C1617 C1618 1.379 . S
C1618 H1602 0.931 . S
C1618 C1612 1.383 . S
C1618 C1617 1.379 . S
H1619 C1613 0.959 . S
H1620 C1613 0.961 . S
H1621 C1613 0.960 . S
H1622 C1614 0.930 . S
H1623 C1615 0.929 . S
H1624 C1632 0.929 . S
H1625 C1634 0.930 . S
H1626 C1636 0.930 . S
H1627 C1639 0.929 . S
H1628 C1642 0.930 . S
H1629 C1644 0.960 . S
H1630 C1644 0.960 . S
H1631 C1644 0.960 . S
C1632 H1624 0.929 . S
C1632 C1633 1.377 . S
C1632 C1634 1.384 . S
C1633 C1632 1.377 . S
C1633 C1639 1.390 . S
C1634 H1625 0.930 . S
C1634 C1632 1.384 . S
C1634 C1635 1.372 . S
C1635 C1634 1.372 . S
C1635 C1636 1.400 . S
C1635 C1640 1.490 . S
C1636 H1626 0.930 . S
C1636 C1635 1.400 . S
C1636 C1639 1.386 . S
H1637 C1653 0.930 . S
H1638 C1654 0.931 . S
C1639 H1627 0.929 . S
C1639 C1633 1.390 . S
C1639 C1636 1.386 . S
C1640 C1635 1.490 . S
C1640 C1642 1.395 . S
C1640 C1643 1.403 . S
H1641 C1647 0.930 . S
C1642 H1628 0.930 . S
C1642 C1640 1.395 . S
C1642 C1645 1.403 . S
C1643 C1640 1.403 . S
C1643 C1644 1.524 . S
C1643 C1647 1.400 . S
C1644 H1629 0.960 . S
C1644 H1630 0.960 . S
C1644 H1631 0.960 . S
C1644 C1643 1.524 . S
C1645 C1642 1.403 . S
C1645 C1646 1.392 . S
C1645 C1649 1.495 . S
C1646 C1645 1.392 . S
C1646 C1647 1.385 . S
C1646 C1648 1.478 . S
C1647 H1641 0.930 . S
C1647 C1643 1.400 . S
C1647 C1646 1.385 . S
C1648 C1646 1.478 . S
C1648 C1650 1.381 . S
C1648 C1654 1.383 . S
C1649 C1645 1.495 . S
C1649 H1655 0.959 . S
C1649 H1656 0.961 . S
C1649 H1657 0.960 . S
C1650 C1648 1.381 . S
C1650 C1651 1.394 . S
C1650 H1658 0.930 . S
C1651 C1650 1.394 . S
C1651 C1652 1.383 . S
C1651 H1659 0.929 . S
C1652 C1651 1.383 . S
C1652 C1653 1.377 . S
C1653 H1637 0.930 . S
C1653 C1652 1.377 . S
C1653 C1654 1.379 . S
C1654 H1638 0.931 . S
C1654 C1648 1.383 . S
C1654 C1653 1.379 . S
H1655 C1649 0.959 . S
H1656 C1649 0.961 . S
H1657 C1649 0.960 . S
H1658 C1650 0.930 . S
H1659 C1651 0.929 . S
H1660 C1668 0.929 1_554 S
H1661 C1670 0.930 . S
H1662 C1672 0.931 1_655 S
H1663 C1675 0.929 . S
H1664 C1678 0.945 . S
H1665 C1680 0.960 . S
H1666 C1680 0.960 . S
H1667 C1680 0.960 . S
C1668 H1660 0.929 1_556 S
C1668 C1669 1.377 . S
C1668 C1670 1.384 . S
C1669 C1668 1.377 . S
C1669 C1675 1.390 1_455 S
C1670 H1661 0.930 . S
C1670 C1668 1.384 . S
C1670 C1671 1.372 . S
C1671 C1670 1.372 . S
C1671 C1672 1.398 . S
C1671 C1676 1.490 . S
C1672 H1662 0.931 1_455 S
C1672 C1671 1.398 . S
C1672 C1675 1.386 1_455 S
H1673 C1689 0.930 1_655 S
H1674 C1690 0.902 1_655 S
C1675 H1663 0.929 . S
C1675 C1669 1.390 1_655 S
C1675 C1672 1.386 1_655 S
C1676 C1671 1.490 . S
C1676 C1678 1.385 1_455 S
C1676 C1679 1.403 . S
H1677 C1683 0.930 . S
C1678 H1664 0.945 . S
C1678 C1676 1.385 1_655 S
C1678 C1681 1.406 . S
C1679 C1676 1.403 . S
C1679 C1680 1.524 . S
C1679 C1683 1.400 . S
C1680 H1665 0.960 . S
C1680 H1666 0.960 . S
C1680 H1667 0.960 . S
C1680 C1679 1.524 . S
C1681 C1678 1.406 . S
C1681 C1682 1.370 1_655 S
C1681 C1685 1.512 . S
C1682 C1681 1.370 1_455 S
C1682 C1683 1.385 . S
C1682 C1684 1.478 . S
C1683 H1677 0.930 . S
C1683 C1679 1.400 . S
C1683 C1682 1.385 . S
C1684 C1682 1.478 . S
C1684 C1686 1.381 . S
C1684 C1690 1.401 . S
C1685 C1681 1.512 . S
C1685 H1691 0.959 . S
C1685 H1692 0.961 . S
C1685 H1693 0.960 . S
C1686 C1684 1.381 . S
C1686 C1687 1.394 . S
C1686 H1694 0.930 . S
C1687 C1686 1.394 . S
C1687 C1688 1.383 . S
C1687 H1695 0.929 . S
C1688 C1687 1.383 . S
C1688 C1689 1.377 . S
C1689 H1673 0.930 1_455 S
C1689 C1688 1.377 . S
C1689 C1690 1.393 . S
C1690 H1674 0.902 1_455 S
C1690 C1684 1.401 . S
C1690 C1689 1.393 . S
H1691 C1685 0.959 . S
H1692 C1685 0.961 . S
H1693 C1685 0.960 . S
H1694 C1686 0.930 . S
H1695 C1687 0.929 . S
H1696 C1704 0.929 . S
H1697 C1706 0.930 . S
H1698 C1708 0.930 . S
H1699 C1711 0.929 . S
H1700 C1714 0.930 . S
H1701 C1716 0.960 . S
H1702 C1716 0.960 . S
H1703 C1716 0.960 . S
C1704 H1696 0.929 . S
C1704 C1705 1.377 . S
C1704 C1706 1.384 . S
C1705 C1704 1.377 . S
C1705 C1711 1.390 . S
C1706 H1697 0.930 . S
C1706 C1704 1.384 . S
C1706 C1707 1.372 . S
C1707 C1706 1.372 . S
C1707 C1708 1.400 . S
C1707 C1712 1.490 . S
C1708 H1698 0.930 . S
C1708 C1707 1.400 . S
C1708 C1711 1.386 . S
H1709 C1725 0.930 . S
H1710 C1726 0.931 . S
C1711 H1699 0.929 . S
C1711 C1705 1.390 . S
C1711 C1708 1.386 . S
C1712 C1707 1.490 . S
C1712 C1714 1.395 . S
C1712 C1715 1.403 . S
H1713 C1719 0.930 . S
C1714 H1700 0.930 . S
C1714 C1712 1.395 . S
C1714 C1717 1.403 . S
C1715 C1712 1.403 . S
C1715 C1716 1.524 . S
C1715 C1719 1.400 . S
C1716 H1701 0.960 . S
C1716 H1702 0.960 . S
C1716 H1703 0.960 . S
C1716 C1715 1.524 . S
C1717 C1714 1.403 . S
C1717 C1718 1.392 . S
C1717 C1721 1.495 . S
C1718 C1717 1.392 . S
C1718 C1719 1.385 . S
C1718 C1720 1.478 . S
C1719 H1713 0.930 . S
C1719 C1715 1.400 . S
C1719 C1718 1.385 . S
C1720 C1718 1.478 . S
C1720 C1722 1.381 . S
C1720 C1726 1.383 . S
C1721 C1717 1.495 . S
C1721 H1727 0.959 . S
C1721 H1728 0.961 . S
C1721 H1729 0.960 . S
C1722 C1720 1.381 . S
C1722 C1723 1.394 . S
C1722 H1730 0.930 . S
C1723 C1722 1.394 . S
C1723 C1724 1.383 . S
C1723 H1731 0.929 . S
C1724 C1723 1.383 . S
C1724 C1725 1.377 . S
C1725 H1709 0.930 . S
C1725 C1724 1.377 . S
C1725 C1726 1.379 . S
C1726 H1710 0.931 . S
C1726 C1720 1.383 . S
C1726 C1725 1.379 . S
H1727 C1721 0.959 . S
H1728 C1721 0.961 . S
H1729 C1721 0.960 . S
H1730 C1722 0.930 . S
H1731 C1723 0.929 . S
H1732 C1740 0.929 . S
H1733 C1742 0.930 . S
H1734 C1744 0.930 . S
H1735 C1747 0.929 . S
H1736 C1750 0.930 . S
H1737 C1752 0.960 . S
H1738 C1752 0.960 . S
H1739 C1752 0.960 . S
C1740 H1732 0.929 . S
C1740 C1741 1.377 . S
C1740 C1742 1.384 . S
C1741 C1740 1.377 . S
C1741 C1747 1.390 . S
C1742 H1733 0.930 . S
C1742 C1740 1.384 . S
C1742 C1743 1.372 . S
C1743 C1742 1.372 . S
C1743 C1744 1.400 . S
C1743 C1748 1.490 . S
C1744 H1734 0.930 . S
C1744 C1743 1.400 . S
C1744 C1747 1.386 . S
H1745 C1761 0.930 . S
H1746 C1762 0.931 . S
C1747 H1735 0.929 . S
C1747 C1741 1.390 . S
C1747 C1744 1.386 . S
C1748 C1743 1.490 . S
C1748 C1750 1.395 . S
C1748 C1751 1.403 . S
H1749 C1755 0.916 1_655 S
C1750 H1736 0.930 . S
C1750 C1748 1.395 . S
C1750 C1753 1.403 . S
C1751 C1748 1.403 . S
C1751 C1752 1.524 1_455 S
C1751 C1755 1.400 . S
C1752 H1737 0.960 . S
C1752 H1738 0.960 . S
C1752 H1739 0.960 . S
C1752 C1751 1.524 1_655 S
C1753 C1750 1.403 . S
C1753 C1754 1.392 . S
C1753 C1757 1.495 . S
C1754 C1753 1.392 . S
C1754 C1755 1.385 . S
C1754 C1756 1.478 . S
C1755 H1749 0.916 1_455 S
C1755 C1751 1.400 . S
C1755 C1754 1.385 . S
C1756 C1754 1.478 . S
C1756 C1758 1.381 . S
C1756 C1762 1.383 . S
C1757 C1753 1.495 . S
C1757 H1763 0.959 . S
C1757 H1764 0.961 . S
C1757 H1765 0.960 . S
C1758 C1756 1.381 . S
C1758 C1759 1.394 . S
C1758 H1766 0.930 . S
C1759 C1758 1.394 . S
C1759 C1760 1.383 . S
C1759 H1767 0.929 . S
C1760 C1759 1.383 . S
C1760 C1761 1.377 . S
C1761 H1745 0.930 . S
C1761 C1760 1.377 . S
C1761 C1762 1.379 . S
C1762 H1746 0.931 . S
C1762 C1756 1.383 . S
C1762 C1761 1.379 . S
H1763 C1757 0.959 . S
H1764 C1757 0.961 . S
H1765 C1757 0.960 . S
H1766 C1758 0.930 . S
H1767 C1759 0.929 . S
H1768 C1776 0.929 . S
H1769 C1778 0.930 . S
H1770 C1780 0.930 . S
H1771 C1783 0.929 . S
H1772 C1786 0.930 . S
H1773 C1788 0.960 . S
H1774 C1788 0.960 . S
H1775 C1788 0.960 . S
C1776 H1768 0.929 . S
C1776 C1777 1.377 . S
C1776 C1778 1.384 . S
C1777 C1776 1.377 . S
C1777 C1783 1.390 . S
C1778 H1769 0.930 . S
C1778 C1776 1.384 . S
C1778 C1779 1.372 . S
C1779 C1778 1.372 . S
C1779 C1780 1.400 . S
C1779 C1784 1.490 . S
C1780 H1770 0.930 . S
C1780 C1779 1.400 . S
C1780 C1783 1.386 . S
H1781 C1797 0.930 . S
H1782 C1798 0.931 . S
C1783 H1771 0.929 . S
C1783 C1777 1.390 . S
C1783 C1780 1.386 . S
C1784 C1779 1.490 . S
C1784 C1786 1.395 . S
C1784 C1787 1.403 . S
H1785 C1791 0.930 . S
C1786 H1772 0.930 . S
C1786 C1784 1.395 . S
C1786 C1789 1.403 . S
C1787 C1784 1.403 . S
C1787 C1788 1.524 . S
C1787 C1791 1.400 . S
C1788 H1773 0.960 . S
C1788 H1774 0.960 . S
C1788 H1775 0.960 . S
C1788 C1787 1.524 . S
C1789 C1786 1.403 . S
C1789 C1790 1.392 . S
C1789 C1793 1.495 . S
C1790 C1789 1.392 . S
C1790 C1791 1.385 . S
C1790 C1792 1.478 . S
C1791 H1785 0.930 . S
C1791 C1787 1.400 . S
C1791 C1790 1.385 . S
C1792 C1790 1.478 . S
C1792 C1794 1.381 . S
C1792 C1798 1.383 . S
C1793 C1789 1.495 . S
C1793 H1799 0.959 . S
C1793 H1800 0.961 . S
C1793 H1801 0.960 . S
C1794 C1792 1.381 . S
C1794 C1795 1.394 . S
C1794 H1802 0.930 . S
C1795 C1794 1.394 . S
C1795 C1796 1.383 . S
C1795 H1803 0.929 . S
C1796 C1795 1.383 . S
C1796 C1797 1.377 . S
C1797 H1781 0.930 . S
C1797 C1796 1.377 . S
C1797 C1798 1.379 . S
C1798 H1782 0.931 . S
C1798 C1792 1.383 . S
C1798 C1797 1.379 . S
H1799 C1793 0.959 . S
H1800 C1793 0.961 . S
H1801 C1793 0.960 . S
H1802 C1794 0.930 . S
H1803 C1795 0.929 . S
H1804 C1812 0.929 . S
H1805 C1814 0.930 . S
H1806 C1816 0.930 . S
H1807 C1819 0.929 . S
H1808 C1822 0.930 . S
H1809 C1824 0.960 . S
H1810 C1824 0.960 . S
H1811 C1824 0.960 . S
C1812 H1804 0.929 . S
C1812 C1813 1.377 . S
C1812 C1814 1.384 . S
C1813 C1812 1.377 . S
C1813 C1819 1.390 . S
C1814 H1805 0.930 . S
C1814 C1812 1.384 . S
C1814 C1815 1.372 . S
C1815 C1814 1.372 . S
C1815 C1816 1.400 . S
C1815 C1820 1.490 . S
C1816 H1806 0.930 . S
C1816 C1815 1.400 . S
C1816 C1819 1.386 . S
H1817 C1833 0.930 . S
H1818 C1834 0.931 . S
C1819 H1807 0.929 . S
C1819 C1813 1.390 . S
C1819 C1816 1.386 . S
C1820 C1815 1.490 . S
C1820 C1822 1.395 . S
C1820 C1823 1.403 . S
H1821 C1827 0.930 . S
C1822 H1808 0.930 . S
C1822 C1820 1.395 . S
C1822 C1825 1.403 . S
C1823 C1820 1.403 . S
C1823 C1824 1.524 . S
C1823 C1827 1.400 . S
C1824 H1809 0.960 . S
C1824 H1810 0.960 . S
C1824 H1811 0.960 . S
C1824 C1823 1.524 . S
C1825 C1822 1.403 . S
C1825 C1826 1.392 . S
C1825 C1829 1.495 . S
C1826 C1825 1.392 . S
C1826 C1827 1.385 . S
C1826 C1828 1.478 . S
C1827 H1821 0.930 . S
C1827 C1823 1.400 . S
C1827 C1826 1.385 . S
C1828 C1826 1.478 . S
C1828 C1830 1.381 . S
C1828 C1834 1.383 . S
C1829 C1825 1.495 . S
C1829 H1835 0.959 . S
C1829 H1836 0.961 . S
C1829 H1837 0.960 . S
C1830 C1828 1.381 . S
C1830 C1831 1.394 . S
C1830 H1838 0.930 . S
C1831 C1830 1.394 . S
C1831 C1832 1.383 . S
C1831 H1839 0.929 . S
C1832 C1831 1.383 . S
C1832 C1833 1.377 . S
C1833 H1817 0.930 . S
C1833 C1832 1.377 . S
C1833 C1834 1.379 . S
C1834 H1818 0.931 . S
C1834 C1828 1.383 . S
C1834 C1833 1.379 . S
H1835 C1829 0.959 . S
H1836 C1829 0.961 . S
H1837 C1829 0.960 . S
H1838 C1830 0.930 . S
H1839 C1831 0.929 . S
H1840 C1848 0.929 . S
H1841 C1850 0.930 . S
H1842 C1852 0.930 . S
H1843 C1855 0.929 . S
H1844 C1858 0.930 . S
H1845 C1860 0.960 . S
H1846 C1860 0.960 . S
H1847 C1860 0.960 . S
C1848 H1840 0.929 . S
C1848 C1849 1.377 . S
C1848 C1850 1.384 . S
C1849 C1848 1.377 . S
C1849 C1855 1.390 . S
C1850 H1841 0.930 . S
C1850 C1848 1.384 . S
C1850 C1851 1.372 . S
C1851 C1850 1.372 . S
C1851 C1852 1.400 . S
C1851 C1856 1.490 . S
C1852 H1842 0.930 . S
C1852 C1851 1.400 . S
C1852 C1855 1.386 . S
H1853 C1869 0.930 . S
H1854 C1870 0.931 . S
C1855 H1843 0.929 . S
C1855 C1849 1.390 . S
C1855 C1852 1.386 . S
C1856 C1851 1.490 . S
C1856 C1858 1.395 . S
C1856 C1859 1.403 . S
H1857 C1863 0.930 . S
C1858 H1844 0.930 . S
C1858 C1856 1.395 . S
C1858 C1861 1.403 . S
C1859 C1856 1.403 . S
C1859 C1860 1.524 . S
C1859 C1863 1.400 . S
C1860 H1845 0.960 . S
C1860 H1846 0.960 . S
C1860 H1847 0.960 . S
C1860 C1859 1.524 . S
C1861 C1858 1.403 . S
C1861 C1862 1.392 . S
C1861 C1865 1.495 . S
C1862 C1861 1.392 . S
C1862 C1863 1.385 . S
C1862 C1864 1.478 . S
C1863 H1857 0.930 . S
C1863 C1859 1.400 . S
C1863 C1862 1.385 . S
C1864 C1862 1.478 . S
C1864 C1866 1.381 . S
C1864 C1870 1.383 . S
C1865 C1861 1.495 . S
C1865 H1871 0.959 . S
C1865 H1872 0.961 . S
C1865 H1873 0.960 . S
C1866 C1864 1.381 . S
C1866 C1867 1.394 . S
C1866 H1874 0.930 . S
C1867 C1866 1.394 . S
C1867 C1868 1.383 . S
C1867 H1875 0.929 . S
C1868 C1867 1.383 . S
C1868 C1869 1.377 . S
C1869 H1853 0.930 . S
C1869 C1868 1.377 . S
C1869 C1870 1.379 . S
C1870 H1854 0.931 . S
C1870 C1864 1.383 . S
C1870 C1869 1.379 . S
H1871 C1865 0.959 . S
H1872 C1865 0.961 . S
H1873 C1865 0.960 . S
H1874 C1866 0.930 . S
H1875 C1867 0.929 . S
H1876 C1884 0.929 . S
H1877 C1886 0.930 . S
H1878 C1888 0.930 . S
H1879 C1891 0.929 . S
H1880 C1894 0.930 . S
H1881 C1896 0.960 . S
H1882 C1896 0.960 . S
H1883 C1896 0.960 . S
C1884 H1876 0.929 . S
C1884 C1885 1.377 . S
C1884 C1886 1.384 . S
C1885 C1884 1.377 . S
C1885 C1891 1.390 1_556 S
C1886 H1877 0.930 . S
C1886 C1884 1.384 . S
C1886 C1887 1.372 1_556 S
C1887 C1886 1.372 1_554 S
C1887 C1888 1.400 . S
C1887 C1892 1.490 . S
C1888 H1878 0.930 . S
C1888 C1887 1.400 . S
C1888 C1891 1.386 . S
H1889 C1905 0.930 . S
H1890 C1906 0.931 . S
C1891 H1879 0.929 . S
C1891 C1885 1.390 1_554 S
C1891 C1888 1.386 . S
C1892 C1887 1.490 . S
C1892 C1894 1.395 . S
C1892 C1895 1.403 . S
H1893 C1899 0.930 . S
C1894 H1880 0.930 . S
C1894 C1892 1.395 . S
C1894 C1897 1.403 . S
C1895 C1892 1.403 . S
C1895 C1896 1.524 . S
C1895 C1899 1.400 . S
C1896 H1881 0.960 . S
C1896 H1882 0.960 . S
C1896 H1883 0.960 . S
C1896 C1895 1.524 . S
C1897 C1894 1.403 . S
C1897 C1898 1.392 . S
C1897 C1901 1.495 . S
C1898 C1897 1.392 . S
C1898 C1899 1.385 . S
C1898 C1900 1.478 . S
C1899 H1893 0.930 . S
C1899 C1895 1.400 . S
C1899 C1898 1.385 . S
C1900 C1898 1.478 . S
C1900 C1902 1.381 . S
C1900 C1906 1.383 . S
C1901 C1897 1.495 . S
C1901 H1907 0.959 . S
C1901 H1908 0.961 . S
C1901 H1909 0.960 . S
C1902 C1900 1.381 . S
C1902 C1903 1.394 . S
C1902 H1910 0.930 . S
C1903 C1902 1.394 . S
C1903 C1904 1.383 . S
C1903 H1911 0.929 . S
C1904 C1903 1.383 . S
C1904 C1905 1.377 . S
C1905 H1889 0.930 . S
C1905 C1904 1.377 . S
C1905 C1906 1.379 . S
C1906 H1890 0.931 . S
C1906 C1900 1.383 . S
C1906 C1905 1.379 . S
H1907 C1901 0.959 . S
H1908 C1901 0.961 . S
H1909 C1901 0.960 . S
H1910 C1902 0.930 . S
H1911 C1903 0.929 . S
H1912 C1920 0.929 . S
H1913 C1922 0.930 . S
H1914 C1924 0.930 . S
H1915 C1927 0.929 . S
H1916 C1930 0.930 . S
H1917 C1932 0.960 . S
H1918 C1932 0.960 . S
H1919 C1932 0.960 . S
C1920 H1912 0.929 . S
C1920 C1921 1.377 . S
C1920 C1922 1.384 . S
C1921 C1920 1.377 . S
C1921 C1927 1.390 . S
C1922 H1913 0.930 . S
C1922 C1920 1.384 . S
C1922 C1923 1.372 . S
C1923 C1922 1.372 . S
C1923 C1924 1.400 . S
C1923 C1928 1.490 . S
C1924 H1914 0.930 . S
C1924 C1923 1.400 . S
C1924 C1927 1.386 . S
H1925 C1941 0.930 . S
H1926 C1942 0.931 . S
C1927 H1915 0.929 . S
C1927 C1921 1.390 . S
C1927 C1924 1.386 . S
C1928 C1923 1.490 . S
C1928 C1930 1.395 . S
C1928 C1931 1.403 . S
H1929 C1935 0.930 . S
C1930 H1916 0.930 . S
C1930 C1928 1.395 . S
C1930 C1933 1.403 . S
C1931 C1928 1.403 . S
C1931 C1932 1.524 . S
C1931 C1935 1.400 . S
C1932 H1917 0.960 . S
C1932 H1918 0.960 . S
C1932 H1919 0.960 . S
C1932 C1931 1.524 . S
C1933 C1930 1.403 . S
C1933 C1934 1.392 . S
C1933 C1937 1.495 . S
C1934 C1933 1.392 . S
C1934 C1935 1.385 . S
C1934 C1936 1.478 . S
C1935 H1929 0.930 . S
C1935 C1931 1.400 . S
C1935 C1934 1.385 . S
C1936 C1934 1.478 . S
C1936 C1938 1.381 . S
C1936 C1942 1.383 . S
C1937 C1933 1.495 . S
C1937 H1943 0.959 . S
C1937 H1944 0.961 . S
C1937 H1945 0.960 . S
C1938 C1936 1.381 . S
C1938 C1939 1.394 . S
C1938 H1946 0.930 . S
C1939 C1938 1.394 . S
C1939 C1940 1.383 . S
C1939 H1947 0.929 . S
C1940 C1939 1.383 . S
C1940 C1941 1.377 . S
C1941 H1925 0.930 . S
C1941 C1940 1.377 . S
C1941 C1942 1.379 . S
C1942 H1926 0.931 . S
C1942 C1936 1.383 . S
C1942 C1941 1.379 . S
H1943 C1937 0.959 . S
H1944 C1937 0.961 . S
H1945 C1937 0.960 . S
H1946 C1938 0.930 . S
H1947 C1939 0.929 . S
H1948 C1956 0.929 . S
H1949 C1958 0.930 . S
H1950 C1960 0.930 . S
H1951 C1963 0.929 . S
H1952 C1966 0.930 . S
H1953 C1968 0.960 . S
H1954 C1968 0.960 . S
H1955 C1968 0.960 . S
C1956 H1948 0.929 . S
C1956 C1957 1.377 . S
C1956 C1958 1.384 . S
C1957 C1956 1.377 . S
C1957 C1963 1.390 . S
C1958 H1949 0.930 . S
C1958 C1956 1.384 . S
C1958 C1959 1.372 . S
C1959 C1958 1.372 . S
C1959 C1960 1.400 . S
C1959 C1964 1.490 . S
C1960 H1950 0.930 . S
C1960 C1959 1.400 . S
C1960 C1963 1.386 . S
H1961 C1977 0.930 . S
H1962 C1978 0.931 . S
C1963 H1951 0.929 . S
C1963 C1957 1.390 . S
C1963 C1960 1.386 . S
C1964 C1959 1.490 . S
C1964 C1966 1.395 . S
C1964 C1967 1.403 . S
H1965 C1971 0.930 . S
C1966 H1952 0.930 . S
C1966 C1964 1.395 . S
C1966 C1969 1.403 . S
C1967 C1964 1.403 . S
C1967 C1968 1.524 . S
C1967 C1971 1.400 . S
C1968 H1953 0.960 . S
C1968 H1954 0.960 . S
C1968 H1955 0.960 . S
C1968 C1967 1.524 . S
C1969 C1966 1.403 . S
C1969 C1970 1.392 . S
C1969 C1973 1.495 . S
C1970 C1969 1.392 . S
C1970 C1971 1.385 . S
C1970 C1972 1.478 . S
C1971 H1965 0.930 . S
C1971 C1967 1.400 . S
C1971 C1970 1.385 . S
C1972 C1970 1.478 . S
C1972 C1974 1.381 . S
C1972 C1978 1.383 . S
C1973 C1969 1.495 . S
C1973 H1979 0.959 . S
C1973 H1980 0.961 . S
C1973 H1981 0.960 . S
C1974 C1972 1.381 . S
C1974 C1975 1.394 . S
C1974 H1982 0.930 . S
C1975 C1974 1.394 . S
C1975 C1976 1.383 . S
C1975 H1983 0.929 . S
C1976 C1975 1.383 . S
C1976 C1977 1.377 . S
C1977 H1961 0.930 . S
C1977 C1976 1.377 . S
C1977 C1978 1.379 . S
C1978 H1962 0.931 . S
C1978 C1972 1.383 . S
C1978 C1977 1.379 . S
H1979 C1973 0.959 . S
H1980 C1973 0.961 . S
H1981 C1973 0.960 . S
H1982 C1974 0.930 . S
H1983 C1975 0.929 . S
H1984 C1992 0.929 . S
H1985 C1994 0.930 . S
H1986 C1996 0.930 . S
H1987 C1999 0.929 . S
H1988 C2002 0.930 . S
H1989 C2004 0.960 . S
H1990 C2004 0.960 . S
H1991 C2004 0.960 . S
C1992 H1984 0.929 . S
C1992 C1993 1.377 . S
C1992 C1994 1.384 . S
C1993 C1992 1.377 . S
C1993 C1999 1.390 . S
C1994 H1985 0.930 . S
C1994 C1992 1.384 . S
C1994 C1995 1.372 . S
C1995 C1994 1.372 . S
C1995 C1996 1.400 . S
C1995 C2000 1.490 . S
C1996 H1986 0.930 . S
C1996 C1995 1.400 . S
C1996 C1999 1.386 . S
H1997 C2013 0.930 . S
H1998 C2014 0.931 . S
C1999 H1987 0.929 . S
C1999 C1993 1.390 . S
C1999 C1996 1.386 . S
C2000 C1995 1.490 . S
C2000 C2002 1.395 . S
C2000 C2003 1.403 . S
H2001 C2007 0.930 . S
C2002 H1988 0.930 . S
C2002 C2000 1.395 . S
C2002 C2005 1.403 . S
C2003 C2000 1.403 . S
C2003 C2004 1.524 . S
C2003 C2007 1.400 . S
C2004 H1989 0.960 . S
C2004 H1990 0.960 . S
C2004 H1991 0.960 . S
C2004 C2003 1.524 . S
C2005 C2002 1.403 . S
C2005 C2006 1.392 . S
C2005 C2009 1.495 . S
C2006 C2005 1.392 . S
C2006 C2007 1.385 . S
C2006 C2008 1.478 . S
C2007 H2001 0.930 . S
C2007 C2003 1.400 . S
C2007 C2006 1.385 . S
C2008 C2006 1.478 . S
C2008 C2010 1.381 . S
C2008 C2014 1.383 . S
C2009 C2005 1.495 . S
C2009 H2015 0.959 . S
C2009 H2016 0.961 . S
C2009 H2017 0.960 . S
C2010 C2008 1.381 . S
C2010 C2011 1.394 . S
C2010 H2018 0.930 . S
C2011 C2010 1.394 . S
C2011 C2012 1.383 . S
C2011 H2019 0.929 . S
C2012 C2011 1.383 . S
C2012 C2013 1.377 . S
C2013 H1997 0.930 . S
C2013 C2012 1.377 . S
C2013 C2014 1.379 . S
C2014 H1998 0.931 . S
C2014 C2008 1.383 . S
C2014 C2013 1.379 . S
H2015 C2009 0.959 . S
H2016 C2009 0.961 . S
H2017 C2009 0.960 . S
H2018 C2010 0.930 . S
H2019 C2011 0.929 . S
H2020 C2028 0.929 . S
H2021 C2030 0.930 . S
H2022 C2032 0.930 . S
H2023 C2035 0.929 . S
H2024 C2038 0.930 . S
H2025 C2040 0.960 . S
H2026 C2040 0.960 . S
H2027 C2040 0.960 . S
C2028 H2020 0.929 . S
C2028 C2029 1.377 . S
C2028 C2030 1.384 . S
C2029 C2028 1.377 . S
C2029 C2035 1.390 . S
C2030 H2021 0.930 . S
C2030 C2028 1.384 . S
C2030 C2031 1.372 . S
C2031 C2030 1.372 . S
C2031 C2032 1.400 . S
C2031 C2036 1.490 . S
C2032 H2022 0.930 . S
C2032 C2031 1.400 . S
C2032 C2035 1.386 . S
H2033 C2049 0.930 . S
H2034 C2050 0.931 . S
C2035 H2023 0.929 . S
C2035 C2029 1.390 . S
C2035 C2032 1.386 . S
C2036 C2031 1.490 . S
C2036 C2038 1.395 . S
C2036 C2039 1.403 . S
H2037 C2043 0.930 . S
C2038 H2024 0.930 . S
C2038 C2036 1.395 . S
C2038 C2041 1.403 . S
C2039 C2036 1.403 . S
C2039 C2040 1.524 . S
C2039 C2043 1.400 . S
C2040 H2025 0.960 . S
C2040 H2026 0.960 . S
C2040 H2027 0.960 . S
C2040 C2039 1.524 . S
C2041 C2038 1.403 . S
C2041 C2042 1.392 . S
C2041 C2045 1.495 . S
C2042 C2041 1.392 . S
C2042 C2043 1.385 . S
C2042 C2044 1.478 . S
C2043 H2037 0.930 . S
C2043 C2039 1.400 . S
C2043 C2042 1.385 . S
C2044 C2042 1.478 . S
C2044 C2046 1.381 . S
C2044 C2050 1.383 . S
C2045 C2041 1.495 . S
C2045 H2051 0.959 . S
C2045 H2052 0.961 . S
C2045 H2053 0.960 . S
C2046 C2044 1.381 . S
C2046 C2047 1.394 . S
C2046 H2054 0.930 . S
C2047 C2046 1.394 . S
C2047 C2048 1.383 . S
C2047 H2055 0.929 . S
C2048 C2047 1.383 . S
C2048 C2049 1.377 . S
C2049 H2033 0.930 . S
C2049 C2048 1.377 . S
C2049 C2050 1.379 . S
C2050 H2034 0.931 . S
C2050 C2044 1.383 . S
C2050 C2049 1.379 . S
H2051 C2045 0.959 . S
H2052 C2045 0.961 . S
H2053 C2045 0.960 . S
H2054 C2046 0.930 . S
H2055 C2047 0.929 . S
H2056 C2064 0.929 . S
H2057 C2066 0.930 . S
H2058 C2068 0.913 1_554 S
H2059 C2071 0.929 1_554 S
H2060 C2074 0.930 1_554 S
H2061 C2076 0.960 . S
H2062 C2076 0.960 . S
H2063 C2076 0.960 . S
C2064 H2056 0.929 . S
C2064 C2065 1.377 . S
C2064 C2066 1.384 . S
C2065 C2064 1.377 . S
C2065 C2071 1.390 . S
C2066 H2057 0.930 . S
C2066 C2064 1.384 . S
C2066 C2067 1.372 . S
C2067 C2066 1.372 . S
C2067 C2068 1.422 . S
C2067 C2072 1.490 . S
C2068 H2058 0.913 1_556 S
C2068 C2067 1.422 . S
C2068 C2071 1.381 . S
H2069 C2085 0.930 . S
H2070 C2086 0.931 . S
C2071 H2059 0.929 1_556 S
C2071 C2065 1.390 . S
C2071 C2068 1.381 . S
C2072 C2067 1.490 . S
C2072 C2074 1.395 . S
C2072 C2075 1.403 . S
H2073 C2079 0.930 . S
C2074 H2060 0.930 1_556 S
C2074 C2072 1.395 . S
C2074 C2077 1.404 . S
C2075 C2072 1.403 . S
C2075 C2076 1.524 . S
C2075 C2079 1.400 . S
C2076 H2061 0.960 . S
C2076 H2062 0.960 . S
C2076 H2063 0.960 . S
C2076 C2075 1.524 . S
C2077 C2074 1.404 . S
C2077 C2078 1.390 . S
C2077 C2081 1.497 1_556 S
C2078 C2077 1.390 . S
C2078 C2079 1.385 . S
C2078 C2080 1.478 . S
C2079 H2073 0.930 . S
C2079 C2075 1.400 . S
C2079 C2078 1.385 . S
C2080 C2078 1.478 . S
C2080 C2082 1.381 . S
C2080 C2086 1.383 1_556 S
C2081 C2077 1.497 1_554 S
C2081 H2087 0.959 . S
C2081 H2088 0.961 . S
C2081 H2089 0.926 1_554 S
C2082 C2080 1.381 . S
C2082 C2083 1.394 . S
C2082 H2090 0.930 . S
C2083 C2082 1.394 . S
C2083 C2084 1.383 . S
C2083 H2091 0.929 . S
C2084 C2083 1.383 . S
C2084 C2085 1.377 1_556 S
C2085 H2069 0.930 . S
C2085 C2084 1.377 1_554 S
C2085 C2086 1.379 . S
C2086 H2070 0.931 . S
C2086 C2080 1.383 1_554 S
C2086 C2085 1.379 . S
H2087 C2081 0.959 . S
H2088 C2081 0.961 . S
H2089 C2081 0.926 1_556 S
H2090 C2082 0.930 . S
H2091 C2083 0.929 . S
H2092 C2100 0.929 . S
H2093 C2102 0.930 . S
H2094 C2104 0.930 . S
H2095 C2107 0.929 . S
H2096 C2110 0.930 . S
H2097 C2112 0.960 . S
H2098 C2112 0.960 . S
H2099 C2112 0.960 . S
C2100 H2092 0.929 . S
C2100 C2101 1.377 . S
C2100 C2102 1.384 . S
C2101 C2100 1.377 . S
C2101 C2107 1.390 . S
C2102 H2093 0.930 . S
C2102 C2100 1.384 . S
C2102 C2103 1.372 . S
C2103 C2102 1.372 . S
C2103 C2104 1.400 . S
C2103 C2108 1.490 . S
C2104 H2094 0.930 . S
C2104 C2103 1.400 . S
C2104 C2107 1.386 . S
H2105 C2121 0.930 . S
H2106 C2122 0.931 . S
C2107 H2095 0.929 . S
C2107 C2101 1.390 . S
C2107 C2104 1.386 . S
C2108 C2103 1.490 . S
C2108 C2110 1.395 . S
C2108 C2111 1.403 . S
H2109 C2115 0.930 . S
C2110 H2096 0.930 . S
C2110 C2108 1.395 . S
C2110 C2113 1.403 . S
C2111 C2108 1.403 . S
C2111 C2112 1.524 . S
C2111 C2115 1.400 . S
C2112 H2097 0.960 . S
C2112 H2098 0.960 . S
C2112 H2099 0.960 . S
C2112 C2111 1.524 . S
C2113 C2110 1.403 . S
C2113 C2114 1.392 . S
C2113 C2117 1.495 . S
C2114 C2113 1.392 . S
C2114 C2115 1.385 . S
C2114 C2116 1.478 . S
C2115 H2109 0.930 . S
C2115 C2111 1.400 . S
C2115 C2114 1.385 . S
C2116 C2114 1.478 . S
C2116 C2118 1.381 . S
C2116 C2122 1.383 . S
C2117 C2113 1.495 . S
C2117 H2123 0.959 . S
C2117 H2124 0.961 . S
C2117 H2125 0.960 . S
C2118 C2116 1.381 . S
C2118 C2119 1.394 . S
C2118 H2126 0.930 . S
C2119 C2118 1.394 . S
C2119 C2120 1.383 . S
C2119 H2127 0.929 . S
C2120 C2119 1.383 . S
C2120 C2121 1.377 . S
C2121 H2105 0.930 . S
C2121 C2120 1.377 . S
C2121 C2122 1.379 . S
C2122 H2106 0.931 . S
C2122 C2116 1.383 . S
C2122 C2121 1.379 . S
H2123 C2117 0.959 . S
H2124 C2117 0.961 . S
H2125 C2117 0.960 . S
H2126 C2118 0.930 . S
H2127 C2119 0.929 . S
H2128 C2136 0.929 . S
H2129 C2138 0.930 . S
H2130 C2140 0.930 . S
H2131 C2143 0.929 . S
H2132 C2146 0.930 . S
H2133 C2148 0.960 . S
H2134 C2148 0.960 . S
H2135 C2148 0.960 . S
C2136 H2128 0.929 . S
C2136 C2137 1.377 . S
C2136 C2138 1.384 . S
C2137 C2136 1.377 . S
C2137 C2143 1.390 . S
C2138 H2129 0.930 . S
C2138 C2136 1.384 . S
C2138 C2139 1.372 . S
C2139 C2138 1.372 . S
C2139 C2140 1.400 . S
C2139 C2144 1.490 . S
C2140 H2130 0.930 . S
C2140 C2139 1.400 . S
C2140 C2143 1.386 . S
H2141 C2157 0.930 . S
H2142 C2158 0.923 1_556 S
C2143 H2131 0.929 . S
C2143 C2137 1.390 . S
C2143 C2140 1.386 . S
C2144 C2139 1.490 . S
C2144 C2146 1.395 . S
C2144 C2147 1.403 . S
H2145 C2151 0.930 . S
C2146 H2132 0.930 . S
C2146 C2144 1.395 . S
C2146 C2149 1.403 . S
C2147 C2144 1.403 . S
C2147 C2148 1.524 . S
C2147 C2151 1.400 . S
C2148 H2133 0.960 . S
C2148 H2134 0.960 . S
C2148 H2135 0.960 . S
C2148 C2147 1.524 . S
C2149 C2146 1.403 . S
C2149 C2150 1.392 . S
C2149 C2153 1.495 1_554 S
C2150 C2149 1.392 . S
C2150 C2151 1.385 . S
C2150 C2152 1.478 . S
C2151 H2145 0.930 . S
C2151 C2147 1.400 . S
C2151 C2150 1.385 . S
C2152 C2150 1.478 . S
C2152 C2154 1.381 . S
C2152 C2158 1.399 . S
C2153 C2149 1.495 1_556 S
C2153 H2159 0.959 . S
C2153 H2160 0.961 . S
C2153 H2161 0.950 1_556 S
C2154 C2152 1.381 . S
C2154 C2155 1.394 . S
C2154 H2162 0.930 . S
C2155 C2154 1.394 . S
C2155 C2156 1.383 . S
C2155 H2163 0.929 . S
C2156 C2155 1.383 . S
C2156 C2157 1.377 1_554 S
C2157 H2141 0.930 . S
C2157 C2156 1.377 1_556 S
C2157 C2158 1.373 1_556 S
C2158 H2142 0.923 1_554 S
C2158 C2152 1.399 . S
C2158 C2157 1.373 1_554 S
H2159 C2153 0.959 . S
H2160 C2153 0.961 . S
H2161 C2153 0.950 1_554 S
H2162 C2154 0.930 . S
H2163 C2155 0.929 . S
H2164 C2172 0.929 . S
H2165 C2174 0.930 . S
H2166 C2176 0.930 . S
H2167 C2179 0.929 . S
H2168 C2182 0.930 . S
H2169 C2184 0.960 . S
H2170 C2184 0.960 . S
H2171 C2184 0.960 . S
C2172 H2164 0.929 . S
C2172 C2173 1.377 . S
C2172 C2174 1.384 . S
C2173 C2172 1.377 . S
C2173 C2179 1.390 . S
C2174 H2165 0.930 . S
C2174 C2172 1.384 . S
C2174 C2175 1.372 . S
C2175 C2174 1.372 . S
C2175 C2176 1.400 . S
C2175 C2180 1.490 . S
C2176 H2166 0.930 . S
C2176 C2175 1.400 . S
C2176 C2179 1.386 . S
H2177 C2193 0.930 . S
H2178 C2194 0.931 . S
C2179 H2167 0.929 . S
C2179 C2173 1.390 . S
C2179 C2176 1.386 . S
C2180 C2175 1.490 . S
C2180 C2182 1.395 . S
C2180 C2183 1.403 . S
H2181 C2187 0.930 . S
C2182 H2168 0.930 . S
C2182 C2180 1.395 . S
C2182 C2185 1.403 . S
C2183 C2180 1.403 . S
C2183 C2184 1.524 . S
C2183 C2187 1.400 . S
C2184 H2169 0.960 . S
C2184 H2170 0.960 . S
C2184 H2171 0.960 . S
C2184 C2183 1.524 . S
C2185 C2182 1.403 . S
C2185 C2186 1.392 . S
C2185 C2189 1.495 . S
C2186 C2185 1.392 . S
C2186 C2187 1.385 . S
C2186 C2188 1.478 . S
C2187 H2181 0.930 . S
C2187 C2183 1.400 . S
C2187 C2186 1.385 . S
C2188 C2186 1.478 . S
C2188 C2190 1.381 . S
C2188 C2194 1.383 . S
C2189 C2185 1.495 . S
C2189 H2195 0.959 . S
C2189 H2196 0.961 . S
C2189 H2197 0.960 . S
C2190 C2188 1.381 . S
C2190 C2191 1.394 . S
C2190 H2198 0.930 . S
C2191 C2190 1.394 . S
C2191 C2192 1.383 . S
C2191 H2199 0.929 . S
C2192 C2191 1.383 . S
C2192 C2193 1.377 . S
C2193 H2177 0.930 . S
C2193 C2192 1.377 . S
C2193 C2194 1.379 . S
C2194 H2178 0.931 . S
C2194 C2188 1.383 . S
C2194 C2193 1.379 . S
H2195 C2189 0.959 . S
H2196 C2189 0.961 . S
H2197 C2189 0.960 . S
H2198 C2190 0.930 . S
H2199 C2191 0.929 . S
C500 C315 1.798 . S
C481 C101 1.838 . S
C536 C323 0.946 . S
C517 C125 0.946 1_455 S
C553 C139 2.036 . S
C572 C343 1.984 . S
C608 C357 1.792 . S
C589 C82 1.857 . S
C644 C372 1.589 . S
C625 C196 1.605 . S
C680 C386 1.910 . S
C661 C234 1.908 . S
C697 C220 0.771 . S
C716 C400 0.755 . S
C752 C406 1.634 . S
C733 C173 1.686 . S
C769 C211 1.054 . S
C788 C420 1.058 . S
C824 C441 0.997 . S
C805 C182 0.981 . S
C841 C201 1.259 . S
C860 C421 1.081 . S
C896 C442 1.273 . S
C877 C239 1.190 . S
C913 C135 1.654 . S
C932 C449 1.373 . S
C949 C87 1.893 . S
C968 C455 2.032 . S
C985 C106 1.063 . S
C1004 C448 1.137 . S
C1021 C116 1.115 . S
C1040 C456 1.129 . S
C1057 C59 1.970 . S
C1076 C350 1.930 . S
C1093 C268 2.355 . S
C1112 C351 2.161 . S
C1148 C308 1.089 . S
C1129 C291 1.146 . S
C1184 C329 1.392 . S
C1165 C163 1.286 . S
C1201 C78 2.147 1_545 S
C1220 C364 2.138 . S
C1256 C414 1.103 . S
C1237 C215 1.103 . S
C1292 C365 1.357 . S
C1273 C177 1.560 1_545 S
C1328 C393 1.580 . S
C1309 C230 1.895 . S
C1364 C399 1.836 . S
C1345 C272 1.859 . S
C1381 C296 0.968 . S
C1400 C407 0.800 . S
C1417 C158 2.033 . S
C1436 C371 1.978 . S
C1472 C385 1.772 . S
C1453 C253 1.828 . S
C1489 C63 1.589 . S
C1508 C344 1.574 . S
C1544 C358 1.900 . S
C1525 C6 1.911 . S
C1580 C316 0.747 . S
C1561 C30 0.774 . S
C1616 C322 1.638 . S
C1597 C40 1.716 . S
C1633 C21 1.087 . S
C1652 C434 1.109 . S
C1669 C49 0.962 . S
C1688 C427 0.982 . S
C1705 C68 1.252 . S
C1724 C435 1.165 . S
C1741 C11 1.234 . S
C1760 C428 1.276 . S
C1796 C463 1.348 . S
C1777 C154 1.620 . S
C1832 C469 2.050 . S
C1813 C258 1.899 . S
C1868 C462 1.188 . S
C1849 C277 1.105 . S
C1885 C287 1.121 . S
C1904 C470 1.121 . S
C1921 C192 1.965 . S
C1940 C378 1.945 . S
C1976 C379 2.104 . S
C1957 C97 2.328 . S
C2012 C392 1.101 . S
C1993 C120 1.151 . S
C2048 C413 1.406 . S
C2029 C144 1.303 . S
C2065 C249 2.139 . S
C2084 C336 2.109 . S
C2120 C330 1.130 . S
C2101 C25 1.130 . S
C2137 C44 1.512 . S
C2156 C337 1.333 . S
C2192 C309 1.635 . S
C2173 C2 1.895 1_565 S
