# Generated by pormake.
# Topology sqc, (4,8)-cn, num edge types: 1
# Building blocks:
#     Node 0, Type 0, BuildingBlock: NAHDIM_clean_linker_0, # of connection points: 4
#     Node 1, Type 0, BuildingBlock: NAHDIM_clean_linker_0, # of connection points: 4
#     Node 2, Type 0, BuildingBlock: NAHDIM_clean_linker_0, # of connection points: 4
#     Node 3, Type 0, BuildingBlock: NAHDIM_clean_linker_0, # of connection points: 4
#     Node 4, Type 0, BuildingBlock: NAHDIM_clean_linker_0, # of connection points: 4
#     Node 5, Type 0, BuildingBlock: NAHDIM_clean_linker_0, # of connection points: 4
#     Node 6, Type 0, BuildingBlock: NAHDIM_clean_linker_0, # of connection points: 4
#     Node 7, Type 0, BuildingBlock: NAHDIM_clean_linker_0, # of connection points: 4
#     Node 8, Type 1, BuildingBlock: TAGTUT_clean_sbu_3, # of connection points: 8
#     Node 9, Type 1, BuildingBlock: TAGTUT_clean_sbu_3, # of connection points: 8
#     Node 10, Type 1, BuildingBlock: TAGTUT_clean_sbu_3, # of connection points: 8
#     Node 11, Type 1, BuildingBlock: TAGTUT_clean_sbu_3, # of connection points: 8
#     Edge 12, Type (0, 1), BuildingBlock: TEMPAE_clean_linker_10, # of connection points: 2
#     Edge 13, Type (0, 1), BuildingBlock: TEMPAE_clean_linker_10, # of connection points: 2
#     Edge 14, Type (0, 1), BuildingBlock: TEMPAE_clean_linker_10, # of connection points: 2
#     Edge 15, Type (0, 1), BuildingBlock: TEMPAE_clean_linker_10, # of connection points: 2
#     Edge 16, Type (0, 1), BuildingBlock: TEMPAE_clean_linker_10, # of connection points: 2
#     Edge 17, Type (0, 1), BuildingBlock: TEMPAE_clean_linker_10, # of connection points: 2
#     Edge 18, Type (0, 1), BuildingBlock: TEMPAE_clean_linker_10, # of connection points: 2
#     Edge 19, Type (0, 1), BuildingBlock: TEMPAE_clean_linker_10, # of connection points: 2
#     Edge 20, Type (0, 1), BuildingBlock: TEMPAE_clean_linker_10, # of connection points: 2
#     Edge 21, Type (0, 1), BuildingBlock: TEMPAE_clean_linker_10, # of connection points: 2
#     Edge 22, Type (0, 1), BuildingBlock: TEMPAE_clean_linker_10, # of connection points: 2
#     Edge 23, Type (0, 1), BuildingBlock: TEMPAE_clean_linker_10, # of connection points: 2
#     Edge 24, Type (0, 1), BuildingBlock: TEMPAE_clean_linker_10, # of connection points: 2
#     Edge 25, Type (0, 1), BuildingBlock: TEMPAE_clean_linker_10, # of connection points: 2
#     Edge 26, Type (0, 1), BuildingBlock: TEMPAE_clean_linker_10, # of connection points: 2
#     Edge 27, Type (0, 1), BuildingBlock: TEMPAE_clean_linker_10, # of connection points: 2
#     Edge 28, Type (0, 1), BuildingBlock: TEMPAE_clean_linker_10, # of connection points: 2
#     Edge 29, Type (0, 1), BuildingBlock: TEMPAE_clean_linker_10, # of connection points: 2
#     Edge 30, Type (0, 1), BuildingBlock: TEMPAE_clean_linker_10, # of connection points: 2
#     Edge 31, Type (0, 1), BuildingBlock: TEMPAE_clean_linker_10, # of connection points: 2
#     Edge 32, Type (0, 1), BuildingBlock: TEMPAE_clean_linker_10, # of connection points: 2
#     Edge 33, Type (0, 1), BuildingBlock: TEMPAE_clean_linker_10, # of connection points: 2
#     Edge 34, Type (0, 1), BuildingBlock: TEMPAE_clean_linker_10, # of connection points: 2
#     Edge 35, Type (0, 1), BuildingBlock: TEMPAE_clean_linker_10, # of connection points: 2
#     Edge 36, Type (0, 1), BuildingBlock: TEMPAE_clean_linker_10, # of connection points: 2
#     Edge 37, Type (0, 1), BuildingBlock: TEMPAE_clean_linker_10, # of connection points: 2
#     Edge 38, Type (0, 1), BuildingBlock: TEMPAE_clean_linker_10, # of connection points: 2
#     Edge 39, Type (0, 1), BuildingBlock: TEMPAE_clean_linker_10, # of connection points: 2
#     Edge 40, Type (0, 1), BuildingBlock: TEMPAE_clean_linker_10, # of connection points: 2
#     Edge 41, Type (0, 1), BuildingBlock: TEMPAE_clean_linker_10, # of connection points: 2
#     Edge 42, Type (0, 1), BuildingBlock: TEMPAE_clean_linker_10, # of connection points: 2
#     Edge 43, Type (0, 1), BuildingBlock: TEMPAE_clean_linker_10, # of connection points: 2
# Relax obj value: 0.120
# Max RMSD: 0.249
# Mean RMSD: 0.121
data_MOF--net-sqc--node1-TAGTUT_clean_sbu_3--node2-NAHDIM_clean_linker_0--edge1-TEMPAE_clean_linker_10
_symmetry_space_group_name_H-M    P1
_symmetry_Int_Tables_number       1
_symmetry_cell_setting            triclinic
loop_
_symmetry_equiv_pos_as_xyz
'x, y, z'
_cell_length_a     31.187488
_cell_length_b     31.182451
_cell_length_c     104.64044
_cell_angle_alpha  90.25236
_cell_angle_beta   89.574954
_cell_angle_gamma 90.017025
loop_
_atom_site_label
_atom_site_type_symbol
_atom_site_fract_x
_atom_site_fract_y
_atom_site_fract_z
_atom_type_partial_charge
C0 C 0.78964 0.03695 0.46469 0.0
C1 C 0.80447 0.99786 0.45692 0.0
C2 C 0.86161 0.96293 0.4694 0.0
C3 C 0.87079 0.92747 0.47703 0.0
C4 C 0.91096 0.92276 0.4828 0.0
C5 C 0.94275 0.95437 0.48082 0.0
C6 C 0.93456 0.98912 0.47252 0.0
C7 C 0.89394 0.99333 0.46699 0.0
C8 C 0.91864 0.88534 0.49158 0.0
C9 C 0.96805 0.02311 0.47004 0.0
C10 C 0.18721 0.77373 0.46242 0.0
C11 C 0.20242 0.82036 0.46322 0.0
C12 C 0.16459 0.86013 0.47964 0.0
C13 C 0.15479 0.8986 0.47343 0.0
C14 C 0.11957 0.92353 0.47736 0.0
C15 C 0.09355 0.90938 0.48765 0.0
C16 C 0.10376 0.87074 0.49401 0.0
C17 C 0.13969 0.84693 0.49004 0.0
C18 C 0.11029 0.96504 0.47056 0.0
C19 C 0.07659 0.85446 0.50496 0.0
C20 C 0.1936 0.07509 0.54632 0.0
C21 C 0.17698 0.09642 0.53563 0.0
C22 C 0.13396 0.09124 0.53215 0.0
C23 C 0.1073 0.06327 0.53928 0.0
C24 C 0.12326 0.04347 0.55039 0.0
C25 C 0.16619 0.05007 0.55384 0.0
C26 C 0.11755 0.11416 0.52049 0.0
C27 C 0.09563 0.01365 0.55822 0.0
C28 C 0.75926 0.10882 0.52995 0.0
C29 C 0.78713 0.10083 0.54167 0.0
C30 C 0.86459 0.11423 0.54092 0.0
C31 C 0.89435 0.1386 0.53404 0.0
C32 C 0.93656 0.12408 0.5322 0.0
C33 C 0.94917 0.08447 0.53754 0.0
C34 C 0.92042 0.06195 0.5456 0.0
C35 C 0.87834 0.07711 0.54724 0.0
C36 C 0.96665 0.14939 0.52377 0.0
C37 C 0.9333 0.02035 0.55179 0.0
C38 C 0.98151 0.95524 0.48894 0.0
C39 C 0.01794 0.93229 0.4851 0.0
C40 C 0.05623 0.93542 0.49196 0.0
C41 C 0.05865 0.96316 0.50268 0.0
C42 C 0.09731 0.96943 0.50925 0.0
C43 C 0.09948 0.99757 0.51958 0.0
C44 C 0.06297 0.02023 0.52383 0.0
C45 C 0.06523 0.05028 0.53398 0.0
C46 C 0.02789 0.07056 0.53844 0.0
C47 C 0.98834 0.06261 0.53265 0.0
C48 C 0.9861 0.03475 0.52196 0.0
C49 C 0.94739 0.02823 0.51541 0.0
C50 C 0.94577 0.00209 0.50466 0.0
C51 C 0.98262 0.98074 0.50013 0.0
C52 C 0.02153 0.98549 0.50685 0.0
C53 C 0.02348 0.01328 0.51761 0.0
C54 C 0.28148 0.05606 0.53223 0.0
C55 C 0.27 0.09051 0.54215 0.0
O56 O 0.82099 0.96677 0.46493 0.0
O57 O 0.82299 0.12716 0.54105 0.0
O58 O 0.23563 0.07716 0.54964 0.0
O59 O 0.19767 0.8351 0.47566 0.0
H60 H 0.82933 0.00837 0.44994 0.0
H61 H 0.81743 0.05199 0.46953 0.0
H62 H 0.76576 0.02761 0.4721 0.0
H63 H 0.77508 0.06116 0.45828 0.0
H64 H 0.84577 0.90404 0.47877 0.0
H65 H 0.88758 0.02107 0.46114 0.0
H66 H 0.94858 0.86846 0.48872 0.0
H67 H 0.89168 0.86206 0.49149 0.0
H68 H 0.92296 0.89728 0.5015 0.0
H69 H 0.95954 0.04387 0.46184 0.0
H70 H 0.99973 0.00808 0.4681 0.0
H71 H 0.97129 0.04367 0.47867 0.0
H72 H 0.1816 0.83891 0.45663 0.0
H73 H 0.19153 0.76111 0.45255 0.0
H74 H 0.1526 0.77191 0.46495 0.0
H75 H 0.20523 0.75313 0.46915 0.0
H76 H 0.1749 0.90917 0.46556 0.0
H77 H 0.1478 0.81725 0.4948 0.0
H78 H 0.10757 0.99168 0.4776 0.0
H79 H 0.0791 0.96246 0.46557 0.0
H80 H 0.13552 0.97321 0.46342 0.0
H81 H 0.08613 0.82173 0.50798 0.0
H82 H 0.04227 0.85396 0.5022 0.0
H83 H 0.07973 0.87646 0.51326 0.0
H84 H 0.26176 0.1207 0.53714 0.0
H85 H 0.19722 0.11667 0.5298 0.0
H86 H 0.17909 0.03421 0.56217 0.0
H87 H 0.11506 0.091 0.51244 0.0
H88 H 0.13919 0.14064 0.51749 0.0
H89 H 0.08507 0.12749 0.52234 0.0
H90 H 0.11235 0.00189 0.56686 0.0
H91 H 0.08617 0.98564 0.55229 0.0
H92 H 0.06577 0.03038 0.56124 0.0
H93 H 0.79635 0.06637 0.54123 0.0
H94 H 0.73012 0.08833 0.5303 0.0
H95 H 0.77761 0.10072 0.52112 0.0
H96 H 0.74939 0.14301 0.52943 0.0
H97 H 0.88373 0.16787 0.52951 0.0
H98 H 0.85609 0.05938 0.5532 0.0
H99 H 0.9725 0.13142 0.51474 0.0
H100 H 0.99804 0.15355 0.52856 0.0
H101 H 0.95356 0.18148 0.52139 0.0
H102 H 0.91017 0.0104 0.55934 0.0
H103 H 0.96569 0.02336 0.55604 0.0
H104 H 0.93482 0.99472 0.5444 0.0
H105 H 0.0166 0.91215 0.47664 0.0
H106 H 0.1265 0.95314 0.50638 0.0
H107 H 0.13023 0.00126 0.52419 0.0
H108 H 0.02975 0.0933 0.54629 0.0
H109 H 0.9179 0.04378 0.51835 0.0
H110 H 0.91511 0.99883 0.49998 0.0
H111 H 0.28902 0.02518 0.53697 0.0
H112 H 0.30965 0.06636 0.52644 0.0
H113 H 0.25417 0.05086 0.52565 0.0
C114 C 0.19751 0.90753 0.79217 0.0
C115 C 0.20217 0.90048 0.80661 0.0
C116 C 0.25779 0.84432 0.80773 0.0
C117 C 0.30072 0.83662 0.81067 0.0
C118 C 0.31958 0.79644 0.80838 0.0
C119 C 0.29478 0.76311 0.80296 0.0
C120 C 0.25077 0.76995 0.80052 0.0
C121 C 0.23263 0.81044 0.80295 0.0
C122 C 0.36649 0.79013 0.81125 0.0
C123 C 0.22339 0.73494 0.79483 0.0
C124 C 0.41332 0.43333 0.82619 0.0
C125 C 0.37232 0.45922 0.82414 0.0
C126 C 0.36306 0.537 0.82451 0.0
C127 C 0.3269 0.53903 0.81661 0.0
C128 C 0.31604 0.57733 0.81042 0.0
C129 C 0.34239 0.61394 0.81197 0.0
C130 C 0.3767 0.61282 0.82074 0.0
C131 C 0.38625 0.57436 0.82703 0.0
C132 C 0.27812 0.57785 0.80156 0.0
C133 C 0.40497 0.65145 0.82283 0.0
C134 C 0.46421 0.51696 0.74228 0.0
C135 C 0.42205 0.52927 0.73937 0.0
C136 C 0.40687 0.57021 0.74257 0.0
C137 C 0.43453 0.59963 0.74868 0.0
C138 C 0.47784 0.58852 0.7508 0.0
C139 C 0.49219 0.54723 0.7475 0.0
C140 C 0.36081 0.58159 0.7398 0.0
C141 C 0.50837 0.61965 0.757 0.0
C142 C 0.39518 0.92444 0.72943 0.0
C143 C 0.42474 0.89962 0.72027 0.0
C144 C 0.40647 0.82499 0.72552 0.0
C145 C 0.3787 0.79143 0.72244 0.0
C146 C 0.37501 0.75525 0.73029 0.0
C147 C 0.40077 0.7522 0.74132 0.0
C148 C 0.43004 0.78539 0.74428 0.0
C149 C 0.43206 0.82177 0.73649 0.0
C150 C 0.34335 0.72054 0.72685 0.0
C151 C 0.4592 0.78261 0.75571 0.0
C152 C 0.31607 0.72319 0.79841 0.0
C153 C 0.31809 0.68785 0.80661 0.0
C154 C 0.33911 0.65013 0.80283 0.0
C155 C 0.35848 0.64741 0.79057 0.0
C156 C 0.38005 0.61005 0.78649 0.0
C157 C 0.39879 0.60752 0.77443 0.0
C158 C 0.39763 0.64257 0.76605 0.0
C159 C 0.41681 0.64035 0.75379 0.0
C160 C 0.41704 0.67636 0.74592 0.0
C161 C 0.39721 0.71446 0.74982 0.0
C162 C 0.37583 0.71661 0.76178 0.0
C163 C 0.35365 0.75368 0.76571 0.0
C164 C 0.33378 0.75582 0.77764 0.0
C165 C 0.33527 0.72094 0.78612 0.0
C166 C 0.35666 0.68298 0.78223 0.0
C167 C 0.37671 0.68072 0.77001 0.0
C168 C 0.47004 0.40803 0.75002 0.0
C169 C 0.45474 0.43923 0.73972 0.0
O170 O 0.24264 0.88494 0.80942 0.0
O171 O 0.40743 0.85961 0.71766 0.0
O172 O 0.47902 0.47643 0.74033 0.0
O173 O 0.37713 0.49956 0.82958 0.0
H174 H 0.17743 0.87698 0.80974 0.0
H175 H 0.19951 0.87656 0.78694 0.0
H176 H 0.22326 0.9288 0.78845 0.0
H177 H 0.16585 0.92216 0.79008 0.0
H178 H 0.31981 0.8627 0.81448 0.0
H179 H 0.19917 0.8154 0.8008 0.0
H180 H 0.37099 0.76051 0.81693 0.0
H181 H 0.38028 0.8177 0.81658 0.0
H182 H 0.38461 0.78607 0.80215 0.0
H183 H 0.18906 0.74423 0.79429 0.0
H184 H 0.22612 0.70531 0.80061 0.0
H185 H 0.23514 0.72729 0.78503 0.0
H186 H 0.36855 0.46212 0.81359 0.0
H187 H 0.4101 0.40081 0.82191 0.0
H188 H 0.42038 0.43017 0.83653 0.0
H189 H 0.44082 0.44974 0.82149 0.0
H190 H 0.3077 0.5106 0.81503 0.0
H191 H 0.41348 0.57266 0.83338 0.0
H192 H 0.25984 0.60821 0.80269 0.0
H193 H 0.25622 0.55035 0.8033 0.0
H194 H 0.28974 0.57601 0.79151 0.0
H195 H 0.42936 0.64589 0.83033 0.0
H196 H 0.38504 0.67947 0.82566 0.0
H197 H 0.42173 0.65972 0.81377 0.0
H198 H 0.42055 0.44527 0.74222 0.0
H199 H 0.40051 0.50718 0.73473 0.0
H200 H 0.52497 0.53786 0.74942 0.0
H201 H 0.34315 0.58665 0.74894 0.0
H202 H 0.34419 0.55619 0.73425 0.0
H203 H 0.35942 0.61205 0.73437 0.0
H204 H 0.54176 0.60726 0.75717 0.0
H205 H 0.49769 0.62613 0.76697 0.0
H206 H 0.50803 0.65064 0.75181 0.0
H207 H 0.45689 0.89605 0.72463 0.0
H208 H 0.39167 0.90691 0.73859 0.0
H209 H 0.40882 0.95659 0.73157 0.0
H210 H 0.3629 0.92847 0.72518 0.0
H211 H 0.35921 0.79409 0.71394 0.0
H212 H 0.45394 0.84715 0.73907 0.0
H213 H 0.32326 0.71222 0.73529 0.0
H214 H 0.36103 0.69121 0.72389 0.0
H215 H 0.32204 0.73021 0.7189 0.0
H216 H 0.485 0.80717 0.75543 0.0
H217 H 0.4742 0.75038 0.75625 0.0
H218 H 0.44013 0.78761 0.76459 0.0
H219 H 0.30365 0.6899 0.81605 0.0
H220 H 0.38271 0.58214 0.79254 0.0
H221 H 0.41466 0.57783 0.77184 0.0
H222 H 0.43264 0.67462 0.73663 0.0
H223 H 0.35143 0.78153 0.7596 0.0
H224 H 0.31739 0.78532 0.78012 0.0
H225 H 0.45447 0.37621 0.74882 0.0
H226 H 0.46125 0.42078 0.75962 0.0
H227 H 0.50542 0.40417 0.74974 0.0
C228 C 0.69972 0.95172 0.10561 0.0
C229 C 0.72029 0.94425 0.09245 0.0
C230 C 0.70183 0.98607 0.07384 0.0
C231 C 0.70846 0.95503 0.0643 0.0
C232 C 0.68599 0.95684 0.05276 0.0
C233 C 0.65605 0.99024 0.05082 0.0
C234 C 0.65126 0.02301 0.06013 0.0
C235 C 0.67484 0.0208 0.07149 0.0
C236 C 0.69287 0.92206 0.04289 0.0
C237 C 0.6196 0.05904 0.05838 0.0
C238 C 0.45422 0.75707 0.05255 0.0
C239 C 0.4475 0.8052 0.05478 0.0
C240 C 0.46803 0.85791 0.0393 0.0
C241 C 0.46304 0.89895 0.04451 0.0
C242 C 0.492 0.93184 0.04142 0.0
C243 C 0.52704 0.92295 0.03312 0.0
C244 C 0.53149 0.88148 0.02766 0.0
C245 C 0.5014 0.84956 0.03069 0.0
C246 C 0.48594 0.97563 0.04733 0.0
C247 C 0.56899 0.87027 0.01907 0.0
C248 C 0.49413 0.02738 0.95528 0.0
C249 C 0.48649 0.05888 0.96464 0.0
C250 C 0.51689 0.0672 0.97415 0.0
C251 C 0.55538 0.0432 0.97434 0.0
C252 C 0.56404 0.01303 0.9645 0.0
C253 C 0.53339 0.00594 0.95498 0.0
C254 C 0.50739 0.10076 0.98421 0.0
C255 C 0.60502 0.98732 0.96428 0.0
C256 C 0.87114 0.17652 0.99586 0.0
C257 C 0.84858 0.1527 0.98496 0.0
C258 C 0.77002 0.14459 0.98605 0.0
C259 C 0.73297 0.167 0.98962 0.0
C260 C 0.6942 0.14545 0.99201 0.0
C261 C 0.6924 0.10038 0.99057 0.0
C262 C 0.72932 0.07762 0.98651 0.0
C263 C 0.76773 0.09989 0.98432 0.0
C264 C 0.65532 0.17069 0.99624 0.0
C265 C 0.72822 0.02964 0.9845 0.0
C266 C 0.62618 0.9878 0.03988 0.0
C267 C 0.59099 0.96039 0.04112 0.0
C268 C 0.56143 0.95538 0.03127 0.0
C269 C 0.56641 0.97919 0.01989 0.0
C270 C 0.53662 0.97597 0.00993 0.0
C271 C 0.54259 0.99845 0.9986 0.0
C272 C 0.57846 0.02525 0.99682 0.0
C273 C 0.58528 0.04754 0.98523 0.0
C274 C 0.6219 0.07288 0.98365 0.0
C275 C 0.65216 0.07669 0.99338 0.0
C276 C 0.64538 0.05555 0.00516 0.0
C277 C 0.67479 0.05936 0.01524 0.0
C278 C 0.66848 0.03742 0.02666 0.0
C279 C 0.63256 0.01082 0.02842 0.0
C280 C 0.60238 0.00666 0.01842 0.0
C281 C 0.60858 0.02942 0.00683 0.0
C282 C 0.40855 0.96429 0.94662 0.0
C283 C 0.42082 0.01098 0.94928 0.0
O284 O 0.71957 0.98215 0.08558 0.0
O285 O 0.80672 0.16744 0.98417 0.0
O286 O 0.46402 0.0166 0.94656 0.0
O287 O 0.44228 0.82548 0.04315 0.0
H288 H 0.69985 0.91947 0.08776 0.0
H289 H 0.6653 0.95989 0.10445 0.0
H290 H 0.71539 0.97865 0.11075 0.0
H291 H 0.70189 0.92222 0.11149 0.0
H292 H 0.73052 0.9289 0.06598 0.0
H293 H 0.67045 0.04488 0.07888 0.0
H294 H 0.66452 0.90052 0.04278 0.0
H295 H 0.72176 0.90246 0.04492 0.0
H296 H 0.69623 0.93626 0.03322 0.0
H297 H 0.61987 0.08215 0.06649 0.0
H298 H 0.58675 0.04567 0.05744 0.0
H299 H 0.62708 0.07659 0.04943 0.0
H300 H 0.47722 0.81692 0.05956 0.0
H301 H 0.45691 0.74011 0.06183 0.0
H302 H 0.48437 0.75181 0.04704 0.0
H303 H 0.4274 0.74294 0.04702 0.0
H304 H 0.43695 0.90486 0.05119 0.0
H305 H 0.50484 0.81746 0.02681 0.0
H306 H 0.49048 0.00099 0.04002 0.0
H307 H 0.51042 0.98065 0.05484 0.0
H308 H 0.45368 0.97934 0.05177 0.0
H309 H 0.5698 0.83561 0.01657 0.0
H310 H 0.59959 0.87894 0.02378 0.0
H311 H 0.56701 0.88893 0.01009 0.0
H312 H 0.41408 0.01662 0.95963 0.0
H313 H 0.45668 0.07669 0.96455 0.0
H314 H 0.53917 0.98226 0.94755 0.0
H315 H 0.50158 0.08486 0.99354 0.0
H316 H 0.47875 0.12026 0.98184 0.0
H317 H 0.53537 0.12244 0.98536 0.0
H318 H 0.606 0.96374 0.9563 0.0
H319 H 0.60864 0.96988 0.97344 0.0
H320 H 0.63283 0.00931 0.96329 0.0
H321 H 0.84993 0.11842 0.98776 0.0
H322 H 0.90577 0.1682 0.99605 0.0
H323 H 0.85658 0.167 0.00515 0.0
H324 H 0.8673 0.21178 0.99491 0.0
H325 H 0.73476 0.20152 0.99075 0.0
H326 H 0.79542 0.08197 0.98114 0.0
H327 H 0.64324 0.15816 0.00551 0.0
H328 H 0.62933 0.16661 0.98914 0.0
H329 H 0.66231 0.20545 0.99732 0.0
H330 H 0.75863 0.01712 0.98033 0.0
H331 H 0.70143 0.02088 0.97806 0.0
H332 H 0.7224 0.01351 0.99379 0.0
H333 H 0.58694 0.94204 0.04984 0.0
H334 H 0.50848 0.9558 0.01077 0.0
H335 H 0.5188 0.99428 0.99122 0.0
H336 H 0.62744 0.08898 0.97462 0.0
H337 H 0.7031 0.07929 0.0144 0.0
H338 H 0.69225 0.04133 0.03406 0.0
H339 H 0.41547 0.95543 0.93652 0.0
H340 H 0.37389 0.95916 0.94864 0.0
H341 H 0.42727 0.94275 0.95291 0.0
C342 C 0.21208 0.06802 0.232 0.0
C343 C 0.20628 0.08974 0.21901 0.0
C344 C 0.25633 0.15104 0.21975 0.0
C345 C 0.2957 0.1663 0.21524 0.0
C346 C 0.31243 0.20557 0.2195 0.0
C347 C 0.289 0.23032 0.2285 0.0
C348 C 0.24849 0.21581 0.23285 0.0
C349 C 0.23257 0.17626 0.22847 0.0
C350 C 0.3557 0.22012 0.21464 0.0
C351 C 0.22261 0.24161 0.24239 0.0
C352 C 0.34698 0.56267 0.21758 0.0
C353 C 0.31748 0.54204 0.20768 0.0
C354 C 0.29763 0.47205 0.21715 0.0
C355 C 0.26688 0.452 0.22484 0.0
C356 C 0.27327 0.41043 0.22952 0.0
C357 C 0.31109 0.38791 0.22615 0.0
C358 C 0.3413 0.40701 0.21776 0.0
C359 C 0.3347 0.44919 0.21353 0.0
C360 C 0.24025 0.39116 0.23842 0.0
C361 C 0.38135 0.38343 0.21362 0.0
C362 C 0.49934 0.45527 0.28274 0.0
C363 C 0.46071 0.44599 0.28913 0.0
C364 C 0.44002 0.40656 0.28733 0.0
C365 C 0.45837 0.3759 0.27895 0.0
C366 C 0.49897 0.3838 0.2733 0.0
C367 C 0.51918 0.42343 0.27538 0.0
C368 C 0.3975 0.3985 0.29386 0.0
C369 C 0.51985 0.3513 0.26454 0.0
C370 C 0.41319 0.04972 0.29428 0.0
C371 C 0.43885 0.07295 0.30466 0.0
C372 C 0.42115 0.14846 0.30031 0.0
C373 C 0.3939 0.18194 0.30393 0.0
C374 C 0.39168 0.21971 0.29675 0.0
C375 C 0.41807 0.22427 0.28579 0.0
C376 C 0.44683 0.19114 0.28229 0.0
C377 C 0.44783 0.15334 0.28951 0.0
C378 C 0.36069 0.25448 0.30078 0.0
C379 C 0.47604 0.19547 0.2708 0.0
C380 C 0.30847 0.26962 0.23406 0.0
C381 C 0.3018 0.30892 0.22797 0.0
C382 C 0.32104 0.34656 0.2325 0.0
C383 C 0.34856 0.34487 0.24318 0.0
C384 C 0.3695 0.3818 0.24775 0.0
C385 C 0.39754 0.3796 0.25797 0.0
C386 C 0.40454 0.34072 0.26438 0.0
C387 C 0.43287 0.33823 0.27485 0.0
C388 C 0.43721 0.29978 0.28149 0.0
C389 C 0.41442 0.2632 0.2778 0.0
C390 C 0.38766 0.26444 0.26695 0.0
C391 C 0.36576 0.22775 0.26264 0.0
C392 C 0.3402 0.22921 0.25181 0.0
C393 C 0.33443 0.26775 0.24508 0.0
C394 C 0.35516 0.30536 0.2495 0.0
C395 C 0.3825 0.30348 0.26027 0.0
C396 C 0.51282 0.56323 0.27315 0.0
C397 C 0.49475 0.53312 0.28339 0.0
O398 O 0.24314 0.11181 0.21555 0.0
O399 O 0.42026 0.11223 0.30749 0.0
O400 O 0.51741 0.49487 0.28314 0.0
O401 O 0.2899 0.51323 0.21358 0.0
H402 H 0.17884 0.11244 0.21968 0.0
H403 H 0.21773 0.09236 0.23957 0.0
H404 H 0.2399 0.04577 0.23174 0.0
H405 H 0.18274 0.04971 0.23461 0.0
H406 H 0.31375 0.14684 0.20849 0.0
H407 H 0.20196 0.16524 0.23209 0.0
H408 H 0.35309 0.25279 0.21054 0.0
H409 H 0.36905 0.19815 0.20723 0.0
H410 H 0.37853 0.2219 0.22272 0.0
H411 H 0.19057 0.22731 0.24427 0.0
H412 H 0.21826 0.27482 0.23884 0.0
H413 H 0.24027 0.2437 0.25155 0.0
H414 H 0.33731 0.52534 0.20034 0.0
H415 H 0.3687 0.5862 0.2129 0.0
H416 H 0.36696 0.53769 0.22216 0.0
H417 H 0.32788 0.5793 0.22511 0.0
H418 H 0.23822 0.46969 0.22749 0.0
H419 H 0.35886 0.46384 0.20752 0.0
H420 H 0.22729 0.36126 0.23413 0.0
H421 H 0.21315 0.41339 0.24041 0.0
H422 H 0.25545 0.38248 0.24761 0.0
H423 H 0.39703 0.39881 0.20525 0.0
H424 H 0.37379 0.34959 0.21117 0.0
H425 H 0.40453 0.3832 0.22161 0.0
H426 H 0.46071 0.5276 0.28063 0.0
H427 H 0.44617 0.46976 0.29531 0.0
H428 H 0.54946 0.43056 0.27071 0.0
H429 H 0.3717 0.39776 0.28661 0.0
H430 H 0.38963 0.42362 0.30107 0.0
H431 H 0.39784 0.36678 0.29864 0.0
H432 H 0.55282 0.36091 0.26166 0.0
H433 H 0.5002 0.34742 0.2558 0.0
H434 H 0.52127 0.31961 0.26932 0.0
H435 H 0.47241 0.07779 0.3013 0.0
H436 H 0.41314 0.06871 0.28533 0.0
H437 H 0.42777 0.01798 0.29211 0.0
H438 H 0.37943 0.04493 0.29745 0.0
H439 H 0.37365 0.17798 0.3123 0.0
H440 H 0.4694 0.12795 0.28658 0.0
H441 H 0.33883 0.26207 0.29277 0.0
H442 H 0.37872 0.28416 0.30313 0.0
H443 H 0.34112 0.2452 0.30924 0.0
H444 H 0.49935 0.16863 0.27002 0.0
H445 H 0.494 0.22618 0.27132 0.0
H446 H 0.45654 0.19613 0.26197 0.0
H447 H 0.28137 0.31025 0.21964 0.0
H448 H 0.365 0.41284 0.24338 0.0
H449 H 0.41328 0.40899 0.26086 0.0
H450 H 0.45823 0.2984 0.2897 0.0
H451 H 0.36857 0.1973 0.26749 0.0
H452 H 0.32468 0.19978 0.24885 0.0
H453 H 0.49683 0.59503 0.27374 0.0
H454 H 0.50682 0.54942 0.26353 0.0
H455 H 0.54797 0.56755 0.27418 0.0
C456 C 0.63708 0.34934 0.32673 0.0
C457 C 0.68013 0.36293 0.32091 0.0
C458 C 0.70754 0.32185 0.30286 0.0
C459 C 0.75092 0.31947 0.30622 0.0
C460 C 0.77751 0.28747 0.30106 0.0
C461 C 0.76036 0.25749 0.29229 0.0
C462 C 0.71681 0.26033 0.28869 0.0
C463 C 0.69103 0.29295 0.29393 0.0
C464 C 0.82403 0.28581 0.30491 0.0
C465 C 0.69764 0.22903 0.2793 0.0
C466 C 0.76432 0.93058 0.31947 0.0
C467 C 0.78448 0.95727 0.30922 0.0
C468 C 0.81122 0.03111 0.30704 0.0
C469 C 0.79906 0.03584 0.29421 0.0
C470 C 0.8023 0.07562 0.28807 0.0
C471 C 0.82076 0.111 0.2946 0.0
C472 C 0.83541 0.10562 0.30728 0.0
C473 C 0.82982 0.06591 0.31338 0.0
C474 C 0.78465 0.07971 0.27471 0.0
C475 C 0.8563 0.1419 0.31451 0.0
C476 C 0.00301 0.08913 0.22764 0.0
C477 C 0.95928 0.07889 0.22853 0.0
C478 C 0.92932 0.10944 0.23273 0.0
C479 C 0.9438 0.15025 0.23689 0.0
C480 C 0.98796 0.16058 0.236 0.0
C481 C 0.01682 0.13011 0.23108 0.0
C482 C 0.8823 0.09775 0.23268 0.0
C483 C 0.00483 0.20361 0.24031 0.0
C484 C 0.75491 0.43759 0.21492 0.0
C485 C 0.80226 0.42531 0.21376 0.0
C486 C 0.82476 0.35053 0.21591 0.0
C487 C 0.80739 0.30947 0.21478 0.0
C488 C 0.82376 0.27514 0.22184 0.0
C489 C 0.85893 0.28212 0.23006 0.0
C490 C 0.8786 0.32297 0.23057 0.0
C491 C 0.86132 0.35686 0.22346 0.0
C492 C 0.80243 0.23179 0.2209 0.0
C493 C 0.91692 0.33104 0.23895 0.0
C494 C 0.78869 0.22434 0.28654 0.0
C495 C 0.79345 0.18537 0.29292 0.0
C496 C 0.82196 0.15397 0.28842 0.0
C497 C 0.84761 0.16249 0.27751 0.0
C498 C 0.87978 0.13392 0.27342 0.0
C499 C 0.90257 0.14114 0.26214 0.0
C500 C 0.89303 0.17645 0.25431 0.0
C501 C 0.91291 0.182 0.24222 0.0
C502 C 0.90199 0.21722 0.23465 0.0
C503 C 0.87232 0.24769 0.23894 0.0
C504 C 0.85305 0.24329 0.25113 0.0
C505 C 0.82394 0.27402 0.25589 0.0
C506 C 0.80383 0.26856 0.26766 0.0
C507 C 0.81088 0.23144 0.27493 0.0
C508 C 0.84056 0.20043 0.27043 0.0
C509 C 0.86252 0.20692 0.25867 0.0
C510 C 0.07718 0.00495 0.23009 0.0
C511 C 0.03237 0.01689 0.22526 0.0
O512 O 0.68096 0.35165 0.30809 0.0
O513 O 0.80532 0.3831 0.20963 0.0
O514 O 0.03245 0.06074 0.22311 0.0
O515 O 0.80427 0.99428 0.31372 0.0
H516 H 0.70512 0.3452 0.32631 0.0
H517 H 0.63347 0.31398 0.32598 0.0
H518 H 0.60997 0.36461 0.32163 0.0
H519 H 0.63547 0.35849 0.337 0.0
H520 H 0.76407 0.34286 0.3128 0.0
H521 H 0.65757 0.29544 0.2913 0.0
H522 H 0.83117 0.25419 0.30925 0.0
H523 H 0.83242 0.31145 0.31185 0.0
H524 H 0.84481 0.28916 0.2963 0.0
H525 H 0.66273 0.23429 0.27797 0.0
H526 H 0.70281 0.19569 0.28265 0.0
H527 H 0.71402 0.23221 0.2699 0.0
H528 H 0.80466 0.93959 0.30211 0.0
H529 H 0.69846 0.93344 0.31538 0.0
H530 H 0.77807 0.94204 0.32881 0.0
H531 H 0.78289 0.89962 0.31933 0.0
H532 H 0.7859 0.00894 0.28899 0.0
H533 H 0.83959 0.06199 0.32322 0.0
H534 H 0.81146 0.0785 0.26769 0.0
H535 H 0.76753 0.11062 0.27348 0.0
H536 H 0.76217 0.0532 0.27237 0.0
H537 H 0.87436 0.13017 0.32292 0.0
H538 H 0.83119 0.1644 0.31799 0.0
H539 H 0.87854 0.16005 0.3082 0.0
H540 H 0.00921 0.0085 0.233 0.0
H541 H 0.94826 0.04742 0.22563 0.0
H542 H 0.05062 0.13777 0.2302 0.0
H543 H 0.87254 0.08679 0.24235 0.0
H544 H 0.87564 0.07126 0.22585 0.0
H545 H 0.86209 0.12571 0.23014 0.0
H546 H 0.04041 0.20417 0.24077 0.0
H547 H 0.99162 0.21204 0.24988 0.0
H548 H 0.99439 0.22868 0.23352 0.0
H549 H 0.81588 0.4292 0.2235 0.0
H550 H 0.75166 0.47149 0.21811 0.0
H551 H 0.73886 0.41679 0.2221 0.0
H552 H 0.73832 0.43348 0.20563 0.0
H553 H 0.77976 0.30477 0.2087 0.0
H554 H 0.87623 0.3882 0.22388 0.0
H555 H 0.78838 0.22312 0.23032 0.0
H556 H 0.8266 0.20695 0.21838 0.0
H557 H 0.77661 0.23116 0.21365 0.0
H558 H 0.93078 0.36349 0.23749 0.0
H559 H 0.94206 0.30663 0.23699 0.0
H560 H 0.90724 0.32788 0.24914 0.0
H561 H 0.77423 0.1792 0.30141 0.0
H562 H 0.88747 0.10557 0.27889 0.0
H563 H 0.92697 0.11804 0.25947 0.0
H564 H 0.91614 0.22051 0.2252 0.0
H565 H 0.81632 0.30267 0.25056 0.0
H566 H 0.78175 0.29327 0.27081 0.0
H567 H 0.10095 0.00501 0.22214 0.0
H568 H 0.07692 0.97299 0.23472 0.0
H569 H 0.08772 0.02848 0.23743 0.0
C570 C 0.66733 0.58225 0.73923 0.0
C571 C 0.66134 0.59344 0.72511 0.0
C572 C 0.71225 0.65412 0.72304 0.0
C573 C 0.75433 0.66379 0.71944 0.0
C574 C 0.77298 0.7034 0.72253 0.0
C575 C 0.74848 0.73461 0.72918 0.0
C576 C 0.70506 0.72595 0.73228 0.0
C577 C 0.68741 0.68561 0.72928 0.0
C578 C 0.81937 0.71128 0.71906 0.0
C579 C 0.6778 0.75882 0.73915 0.0
C580 C 0.88603 0.05292 0.70514 0.0
C581 C 0.8409 0.03412 0.70631 0.0
C582 C 0.82647 0.95686 0.70695 0.0
C583 C 0.79187 0.95727 0.71561 0.0
C584 C 0.78011 0.91993 0.72225 0.0
C585 C 0.80376 0.88163 0.72029 0.0
C586 C 0.8367 0.88055 0.71091 0.0
C587 C 0.84723 0.91815 0.70424 0.0
C588 C 0.74383 0.92198 0.73184 0.0
C589 C 0.86222 0.84026 0.7084 0.0
C590 C 0.96127 0.95562 0.78485 0.0
C591 C 0.91732 0.95903 0.78772 0.0
C592 C 0.89001 0.92359 0.78626 0.0
C593 C 0.90701 0.88426 0.78171 0.0
C594 C 0.95163 0.88018 0.77952 0.0
C595 C 0.97825 0.91593 0.78125 0.0
C596 C 0.84277 0.92858 0.78908 0.0
C597 C 0.97092 0.83855 0.77484 0.0
C598 C 0.76537 0.5857 0.81416 0.0
C599 C 0.81179 0.60159 0.81401 0.0
C600 C 0.82261 0.67752 0.80959 0.0
C601 C 0.79841 0.7151 0.81041 0.0
C602 C 0.80579 0.7492 0.80197 0.0
C603 C 0.83886 0.74575 0.79269 0.0
C604 C 0.86504 0.7087 0.79229 0.0
C605 C 0.85662 0.67489 0.80076 0.0
C606 C 0.77768 0.7885 0.80276 0.0
C607 C 0.90145 0.70462 0.78279 0.0
C608 C 0.76982 0.77418 0.73398 0.0
C609 C 0.77477 0.80917 0.72572 0.0
C610 C 0.79864 0.84525 0.72936 0.0
C611 C 0.81859 0.84627 0.74147 0.0
C612 C 0.84491 0.8808 0.74514 0.0
C613 C 0.86447 0.88162 0.75701 0.0
C614 C 0.8582 0.84817 0.7658 0.0
C615 C 0.87781 0.84893 0.77794 0.0
C616 C 0.87085 0.8153 0.78649 0.0
C617 C 0.84513 0.78033 0.78315 0.0
C618 C 0.82583 0.77864 0.77095 0.0
C619 C 0.80066 0.74346 0.76716 0.0
C620 C 0.78254 0.74178 0.75506 0.0
C621 C 0.78793 0.77571 0.74636 0.0
C622 C 0.81264 0.81174 0.75006 0.0
C623 C 0.83211 0.81291 0.76229 0.0
C624 C 0.0126 0.05687 0.77763 0.0
C625 C 0.97683 0.0326 0.78458 0.0
O626 O 0.69754 0.61401 0.72036 0.0
O627 O 0.81251 0.64455 0.81748 0.0
O628 O 0.98825 0.98974 0.78529 0.0
O629 O 0.8409 0.99303 0.70112 0.0
H630 H 0.63295 0.6147 0.72407 0.0
H631 H 0.6719 0.61181 0.74501 0.0
H632 H 0.69584 0.56132 0.74045 0.0
H633 H 0.6385 0.56539 0.74299 0.0
H634 H 0.77308 0.63947 0.71452 0.0
H635 H 0.65452 0.67891 0.73194 0.0
H636 H 0.82185 0.73991 0.71284 0.0
H637 H 0.83413 0.68354 0.71399 0.0
H638 H 0.83804 0.718 0.72784 0.0
H639 H 0.64344 0.74947 0.73947 0.0
H640 H 0.68078 0.79045 0.73438 0.0
H641 H 0.68936 0.76269 0.74909 0.0
H642 H 0.83321 0.03312 0.71672 0.0
H643 H 0.88692 0.08579 0.70928 0.0
H644 H 0.89648 0.05426 0.69498 0.0
H645 H 0.90902 0.03258 0.71046 0.0
H646 H 0.77439 0.98677 0.71731 0.0
H647 H 0.87323 0.91798 0.69731 0.0
H648 H 0.72315 0.89311 0.73102 0.0
H649 H 0.72379 0.95109 0.73058 0.0
H650 H 0.75722 0.92258 0.74164 0.0
H651 H 0.88732 0.84489 0.70094 0.0
H652 H 0.84033 0.81428 0.70525 0.0
H653 H 0.87783 0.82955 0.71734 0.0
H654 H 0.94733 0.03622 0.77874 0.0
H655 H 0.90413 0.98932 0.79097 0.0
H656 H 0.01235 0.91351 0.77929 0.0
H657 H 0.82474 0.92812 0.77997 0.0
H658 H 0.83552 0.95908 0.79418 0.0
H659 H 0.83109 0.90134 0.79496 0.0
H660 H 0.00631 0.84053 0.77371 0.0
H661 H 0.95676 0.82966 0.76549 0.0
H662 H 0.96317 0.81248 0.78167 0.0
H663 H 0.82372 0.59702 0.80404 0.0
H664 H 0.76405 0.55119 0.81149 0.0
H665 H 0.74628 0.60409 0.80714 0.0
H666 H 0.75059 0.59008 0.82377 0.0
H667 H 0.77275 0.71705 0.81743 0.0
H668 H 0.87667 0.64654 0.80051 0.0
H669 H 0.76134 0.79341 0.79349 0.0
H670 H 0.79775 0.81726 0.80461 0.0
H671 H 0.75301 0.78602 0.81044 0.0
H672 H 0.9207 0.67512 0.78429 0.0
H673 H 0.92289 0.73296 0.78351 0.0
H674 H 0.88843 0.70389 0.77295 0.0
H675 H 0.76067 0.80794 0.71629 0.0
H676 H 0.85109 0.90757 0.73884 0.0
H677 H 0.88451 0.90898 0.7592 0.0
H678 H 0.88589 0.81619 0.7958 0.0
H679 H 0.79502 0.71657 0.77347 0.0
H680 H 0.76401 0.71357 0.75266 0.0
H681 H 0.00398 0.09125 0.77659 0.0
H682 H 0.01749 0.04303 0.76793 0.0
H683 H 0.04319 0.05445 0.78297 0.0
C684 C 0.74747 0.67036 0.03001 0.0
C685 C 0.73179 0.66268 0.04377 0.0
C686 C 0.67324 0.60975 0.04214 0.0
C687 C 0.66105 0.568 0.04532 0.0
C688 C 0.6201 0.55231 0.04238 0.0
C689 C 0.59085 0.57893 0.03586 0.0
C690 C 0.60251 0.62157 0.03285 0.0
C691 C 0.64349 0.63666 0.03607 0.0
C692 C 0.6085 0.50693 0.04598 0.0
C693 C 0.57199 0.65086 0.02595 0.0
C694 C 0.25494 0.56076 0.07524 0.0
C695 C 0.29107 0.54352 0.0674 0.0
C696 C 0.35668 0.56958 0.05698 0.0
C697 C 0.37517 0.60453 0.0507 0.0
C698 C 0.41365 0.60016 0.04377 0.0
C699 C 0.43471 0.55996 0.04346 0.0
C700 C 0.41757 0.52516 0.05052 0.0
C701 C 0.37826 0.53005 0.05696 0.0
C702 C 0.43113 0.63821 0.03655 0.0
C703 C 0.44009 0.48233 0.05102 0.0
C704 C 0.33464 0.40035 0.98404 0.0
C705 C 0.34831 0.43787 0.97784 0.0
C706 C 0.39066 0.45258 0.97914 0.0
C707 C 0.41975 0.4293 0.98677 0.0
C708 C 0.40683 0.38987 0.99223 0.0
C709 C 0.36446 0.37574 0.99068 0.0
C710 C 0.40381 0.49405 0.97286 0.0
C711 C 0.43716 0.36379 0.00024 0.0
C712 C 0.75111 0.42314 0.98534 0.0
C713 C 0.73586 0.39136 0.97512 0.0
C714 C 0.66111 0.41529 0.97256 0.0
C715 C 0.63537 0.4439 0.9658 0.0
C716 C 0.59426 0.45515 0.97026 0.0
C717 C 0.57829 0.43654 0.98163 0.0
C718 C 0.60294 0.40524 0.98803 0.0
C719 C 0.64424 0.39528 0.98352 0.0
C720 C 0.56874 0.4884 0.96317 0.0
C721 C 0.58643 0.38361 -3e-05 0.0
C722 C 0.5493 0.56128 0.03138 0.0
C723 C 0.51242 0.56888 0.03875 0.0
C724 C 0.47247 0.55308 0.03495 0.0
C725 C 0.46903 0.52928 0.02345 0.0
C726 C 0.42919 0.51413 0.01911 0.0
C727 C 0.42646 0.48833 0.00829 0.0
C728 C 0.46341 0.47699 0.00125 0.0
C729 C 0.46119 0.44898 0.99059 0.0
C730 C 0.4988 0.43728 0.98406 0.0
C731 C 0.53869 0.45348 0.98782 0.0
C732 C 0.54117 0.48274 0.99817 0.0
C733 C 0.58051 0.50084 0.00189 0.0
C734 C 0.58311 0.52739 0.01256 0.0
C735 C 0.54657 0.53645 0.02006 0.0
C736 C 0.50636 0.52002 0.01617 0.0
C737 C 0.50358 0.49357 0.00511 0.0
C738 C 0.22734 0.40238 0.99443 0.0
C739 C 0.25683 0.41226 0.98308 0.0
O740 O 0.71402 0.62213 0.04491 0.0
O741 O 0.70196 0.40862 0.96831 0.0
O742 O 0.29323 0.38681 0.98389 0.0
O743 O 0.31824 0.57544 0.06292 0.0
H744 H 0.7073 0.68759 0.04603 0.0
H745 H 0.71978 0.67353 0.02349 0.0
H746 H 0.76734 0.64319 0.02648 0.0
H747 H 0.76643 0.70048 0.02947 0.0
H748 H 0.68401 0.54751 0.05005 0.0
H749 H 0.65207 0.66915 0.03358 0.0
H750 H 0.57642 0.50611 0.05066 0.0
H751 H 0.63234 0.4925 0.05253 0.0
H752 H 0.60684 0.48685 0.03722 0.0
H753 H 0.58619 0.68288 0.02402 0.0
H754 H 0.5424 0.65525 0.03177 0.0
H755 H 0.56249 0.63603 0.01673 0.0
H756 H 0.28206 0.51986 0.05987 0.0
H757 H 0.25313 0.59622 0.07326 0.0
H758 H 0.26631 0.53607 0.09352 0.0
H759 H 0.22531 0.55271 0.06963 0.0
H760 H 0.35858 0.63506 0.05093 0.0
H761 H 0.36467 0.50282 0.06192 0.0
H762 H 0.43768 0.62925 0.02644 0.0
H763 H 0.46193 0.64842 0.04085 0.0
H764 H 0.40874 0.66591 0.03675 0.0
H765 H 0.42905 0.46295 0.0593 0.0
H766 H 0.47537 0.48657 0.05163 0.0
H767 H 0.43312 0.46394 0.04217 0.0
H768 H 0.26519 0.44688 0.98384 0.0
H769 H 0.32596 0.45595 0.97212 0.0
H770 H 0.35385 0.34627 0.99515 0.0
H771 H 0.4077 0.51922 0.9803 0.0
H772 H 0.37971 0.50522 0.96586 0.0
H773 H 0.43521 0.49011 0.96792 0.0
H774 H 0.4227 0.33301 0.0034 0.0
H775 H 0.44654 0.38255 0.00882 0.0
H776 H 0.46684 0.35676 0.99469 0.0
H777 H 0.72547 0.36116 0.97981 0.0
H778 H 0.77889 0.4097 0.99057 0.0
H779 H 0.72508 0.42953 0.99239 0.0
H780 H 0.76074 0.45404 0.98091 0.0
H781 H 0.64835 0.45878 0.95727 0.0
H782 H 0.66311 0.37236 0.98876 0.0
H783 H 0.56345 0.51678 0.96944 0.0
H784 H 0.53676 0.47523 0.9607 0.0
H785 H 0.58511 0.49898 0.95426 0.0
H786 H 0.60555 0.35476 0.00241 0.0
H787 H 0.55238 0.37401 0.99881 0.0
H788 H 0.58808 0.40647 0.00812 0.0
H789 H 0.51493 0.58695 0.04759 0.0
H790 H 0.39961 0.52158 0.02412 0.0
H791 H 0.39495 0.47701 0.00563 0.0
H792 H 0.49714 0.41453 0.97621 0.0
H793 H 0.60989 0.49452 0.99664 0.0
H794 H 0.61434 0.54009 0.01498 0.0
H795 H 0.21793 0.36799 0.99443 0.0
H796 H 0.19795 0.42247 0.99404 0.0
H797 H 0.2442 0.40956 0.0035 0.0
C798 C 0.99976 0.71701 0.45479 0.0
C799 C 0.98391 0.67183 0.45797 0.0
C800 C 0.99678 0.63926 0.47843 0.0
C801 C 0.99325 0.59547 0.47566 0.0
C802 C 0.0173 0.56526 0.48243 0.0
C803 C 0.04615 0.57941 0.49196 0.0
C804 C 0.04836 0.62358 0.49511 0.0
C805 C 0.02288 0.65295 0.48843 0.0
C806 C 0.01335 0.5184 0.47897 0.0
C807 C 0.07932 0.64 0.50501 0.0
C808 C 0.3056 0.4496 0.44511 0.0
C809 C 0.29494 0.49569 0.44913 0.0
C810 C 0.25709 0.49966 0.46967 0.0
C811 C 0.25888 0.52092 0.4814 0.0
C812 C 0.2224 0.52468 0.48922 0.0
C813 C 0.18358 0.50507 0.48537 0.0
C814 C 0.18196 0.48212 0.47369 0.0
C815 C 0.21869 0.47991 0.4659 0.0
C816 C 0.22532 0.55027 0.50147 0.0
C817 C 0.14137 0.46022 0.46938 0.0
C818 C 0.21754 0.3294 0.55058 0.0
C819 C 0.22926 0.37274 0.55144 0.0
C820 C 0.19919 0.40521 0.5491 0.0
C821 C 0.15701 0.39391 0.54543 0.0
C822 C 0.1448 0.35019 0.54506 0.0
C823 C 0.17517 0.3185 0.54787 0.0
C824 C 0.21288 0.45148 0.55024 0.0
C825 C 0.10009 0.33688 0.54129 0.0
C826 C 0.88043 0.58796 0.58085 0.0
C827 C 0.89657 0.54315 0.57725 0.0
C828 C 0.96984 0.52103 0.57225 0.0
C829 C 0.01188 0.53626 0.57261 0.0
C830 C 0.04339 0.51978 0.56432 0.0
C831 C 0.03253 0.48658 0.55566 0.0
C832 C 0.99066 0.46914 0.55581 0.0
C833 C 0.95961 0.48669 0.56408 0.0
C834 C 0.08793 0.53868 0.56454 0.0
C835 C 0.97853 0.43275 0.547 0.0
C836 C 0.07795 0.54885 0.49719 0.0
C837 C 0.11387 0.53982 0.48959 0.0
C838 C 0.14448 0.50994 0.49339 0.0
C839 C 0.13881 0.48745 0.50495 0.0
C840 C 0.16725 0.45483 0.50857 0.0
C841 C 0.16259 0.43425 0.52025 0.0
C842 C 0.12997 0.44631 0.52891 0.0
C843 C 0.12658 0.42748 0.54115 0.0
C844 C 0.09416 0.44074 0.54958 0.0
C845 C 0.06438 0.47192 0.54602 0.0
C846 C 0.06651 0.49026 0.53368 0.0
C847 C 0.03626 0.52077 0.52963 0.0
C848 C 0.03915 0.53913 0.51754 0.0
C849 C 0.07329 0.52892 0.50924 0.0
C850 C 0.10391 0.49802 0.51311 0.0
C851 C 0.09999 0.47803 0.52522 0.0
C852 C 0.30066 0.25442 0.54273 0.0
C853 C 0.28881 0.2984 0.5482 0.0
O854 O 0.97713 0.66882 0.47105 0.0
O855 O 0.94001 0.5406 0.57978 0.0
O856 O 0.24637 0.29737 0.5522 0.0
O857 O 0.2931 0.49882 0.46232 0.0
H858 H 0.00995 0.64944 0.45488 0.0
H859 H 0.03055 0.72325 0.45974 0.0
H860 H 0.97614 0.74159 0.45796 0.0
H861 H 0.00526 0.72016 0.44433 0.0
H862 H 0.9724 0.58517 0.46799 0.0
H863 H 0.02512 0.68697 0.49048 0.0
H864 H 0.04216 0.50834 0.47344 0.0
H865 H 0.98455 0.51191 0.47308 0.0
H866 H 0.0117 0.49851 0.48774 0.0
H867 H 0.07772 0.6754 0.50615 0.0
H868 H 0.11258 0.63093 0.50226 0.0
H869 H 0.07224 0.62498 0.51438 0.0
H870 H 0.26347 0.50448 0.44491 0.0
H871 H 0.30788 0.4472 0.43453 0.0
H872 H 0.28005 0.42742 0.44843 0.0
H873 H 0.33646 0.43906 0.4493 0.0
H874 H 0.2888 0.53573 0.48424 0.0
H875 H 0.21726 0.46247 0.45695 0.0
H876 H 0.19803 0.57302 0.50229 0.0
H877 H 0.25575 0.56867 0.50209 0.0
H878 H 0.22358 0.52822 0.50975 0.0
H879 H 0.14723 0.43791 0.46124 0.0
H880 H 0.11799 0.48485 0.4663 0.0
H881 H 0.1266 0.44204 0.47738 0.0
H882 H 0.29275 0.32194 0.54028 0.0
H883 H 0.26182 0.38124 0.55393 0.0
H884 H 0.16642 0.28488 0.54743 0.0
H885 H 0.21802 0.46492 0.54055 0.0
H886 H 0.24322 0.45491 0.55565 0.0
H887 H 0.18756 0.47083 0.55506 0.0
H888 H 0.09651 0.30147 0.54071 0.0
H889 H 0.09193 0.35086 0.53187 0.0
H890 H 0.07664 0.34945 0.5484 0.0
H891 H 0.8909 0.53964 0.56679 0.0
H892 H 0.84548 0.59059 0.579 0.0
H893 H 0.89735 0.61236 0.57498 0.0
H894 H 0.88646 0.59512 0.59109 0.0
H895 H 0.01956 0.56229 0.5791 0.0
H896 H 0.92744 0.47366 0.56408 0.0
H897 H 0.09602 0.55204 0.555 0.0
H898 H 0.11165 0.51314 0.56661 0.0
H899 H 0.09116 0.56451 0.57181 0.0
H900 H 0.9459 0.42018 0.54909 0.0
H901 H 0.00202 0.40616 0.54786 0.0
H902 H 0.97957 0.44399 0.53695 0.0
H903 H 0.1182 0.55654 0.48059 0.0
H904 H 0.19346 0.44486 0.5024 0.0
H905 H 0.18544 0.40933 0.52249 0.0
H906 H 0.09228 0.42688 0.55906 0.0
H907 H 0.00988 0.53069 0.53573 0.0
H908 H 0.01488 0.56219 0.51488 0.0
H909 H 0.33436 0.25443 0.53921 0.0
H910 H 0.27942 0.2465 0.53458 0.0
H911 H 0.29678 0.22922 0.55013 0.0
C912 C 0.10051 0.69071 0.15448 0.0
C913 C 0.94052 0.6385 0.15355 0.0
C914 C 0.94376 0.69272 0.11521 0.0
Mg915 Mg 0.14878 0.76624 0.13919 0.0
Mg916 Mg 0.10279 0.84741 0.1239 0.0
O917 O 0.10114 0.78938 0.12844 0.0
Mg918 Mg 0.05201 0.75551 0.13554 0.0
O919 O 0.0066 0.71709 0.14281 0.0
Mg920 Mg 0.02497 0.66192 0.13444 0.0
Mg921 Mg 0.94806 0.73037 0.14221 0.0
C922 C 0.00813 0.82261 0.11465 0.0
O923 O 0.02436 0.80867 0.14839 0.0
O924 O 0.19619 0.79876 0.12507 0.0
O925 O 0.95354 0.79418 0.1506 0.0
O926 O 0.14785 0.82783 0.15229 0.0
O927 O 0.16168 0.84648 0.11285 0.0
O928 O 0.11579 0.88065 0.14148 0.0
O929 O 0.07517 0.69992 0.12289 0.0
O930 O 0.14573 0.70786 0.12625 0.0
C931 C 0.11412 0.68755 0.12136 0.0
C932 C 0.19541 0.82512 0.11568 0.0
O933 O 0.00895 0.78596 0.12027 0.0
O934 O 0.97475 0.62831 0.14735 0.0
O935 O 0.03888 0.85007 0.11531 0.0
O936 O 0.97444 0.66755 0.11824 0.0
O937 O 0.92454 0.67636 0.15316 0.0
O938 O 0.93023 0.7223 0.12265 0.0
O939 O 0.09709 0.72999 0.15091 0.0
O940 O 0.07554 0.66145 0.1501 0.0
C941 C 0.13485 0.86679 0.15141 0.0
C942 C 0.98646 0.81818 0.15246 0.0
C943 C 0.64055 0.79297 0.40473 0.0
C944 C 0.72223 0.65604 0.40231 0.0
C945 C 0.64949 0.63117 0.36688 0.0
Mg946 Mg 0.55043 0.82732 0.39421 0.0
Mg947 Mg 0.47251 0.76618 0.38305 0.0
O948 O 0.53088 0.77717 0.38378 0.0
Mg949 Mg 0.57579 0.73466 0.38842 0.0
O950 O 0.62546 0.6979 0.39314 0.0
Mg951 Mg 0.67136 0.72476 0.38244 0.0
Mg952 Mg 0.62778 0.63924 0.39572 0.0
C953 C 0.50947 0.68561 0.36816 0.0
O954 O 0.534 0.69733 0.40329 0.0
O955 O 0.50154 0.86874 0.38316 0.0
O956 O 0.56649 0.63272 0.40512 0.0
O957 O 0.49846 0.81357 0.41025 0.0
O958 O 0.45281 0.82509 0.3743 0.0
O959 O 0.45278 0.76482 0.40243 0.0
O960 O 0.61864 0.7671 0.37339 0.0
O961 O 0.599 0.83493 0.37786 0.0
C962 C 0.62154 0.80772 0.37148 0.0
C963 C 0.46901 0.86241 0.37595 0.0
O964 O 0.54707 0.68952 0.37302 0.0
O965 O 0.72134 0.68576 0.39387 0.0
O966 O 0.47755 0.70947 0.37131 0.0
O967 O 0.66592 0.66909 0.36682 0.0
O968 O 0.68872 0.63439 0.40527 0.0
O969 O 0.63266 0.61525 0.37693 0.0
O970 O 0.60103 0.78269 0.40312 0.0
O971 O 0.67092 0.77534 0.39824 0.0
C972 C 0.4658 0.78868 0.41155 0.0
C973 C 0.53534 0.65853 0.40745 0.0
C974 C 0.61836 0.1842 0.65452 0.0
C975 C 0.47324 0.10698 0.64891 0.0
C976 C 0.46828 0.17371 0.6127 0.0
Mg977 Mg 0.65366 0.27537 0.64318 0.0
Mg978 Mg 0.58902 0.35115 0.63193 0.0
O979 O 0.60398 0.29328 0.63238 0.0
Mg980 Mg 0.56231 0.24782 0.6371 0.0
O981 O 0.5243 0.19889 0.64174 0.0
Mg982 Mg 0.55351 0.15228 0.63178 0.0
Mg983 Mg 0.46465 0.202 0.64073 0.0
C984 C 0.50958 0.31252 0.61736 0.0
O985 O 0.52365 0.28879 0.6516 0.0
O986 O 0.69375 0.327 0.63211 0.0
O987 O 0.45688 0.26053 0.6518 0.0
O988 O 0.63767 0.32733 0.65907 0.0
O989 O 0.64751 0.37444 0.6237 0.0
O990 O 0.58894 0.37265 0.65117 0.0
O991 O 0.59721 0.20457 0.62284 0.0
O992 O 0.66434 0.22524 0.62732 0.0
C993 C 0.63792 0.20151 0.6211 0.0
C994 C 0.68568 0.36047 0.62537 0.0
O995 O 0.51792 0.2749 0.62165 0.0
O996 O 0.50883 0.10465 0.64265 0.0
O997 O 0.53026 0.34622 0.62082 0.0
O998 O 0.50418 0.15549 0.6151 0.0
O999 O 0.45131 0.14164 0.6496 0.0
O1000 O 0.44895 0.19693 0.621 0.0
O1001 O 0.60929 0.22374 0.65229 0.0
O1002 O 0.60043 0.15354 0.64832 0.0
C1003 C 0.61299 0.36016 0.66023 0.0
C1004 C 0.48436 0.28864 0.65545 0.0
C1005 C 0.12631 0.31433 0.90149 0.0
C1006 C 0.19813 0.16309 0.89734 0.0
C1007 C 0.13553 0.15681 0.86136 0.0
Mg1008 Mg 0.03927 0.35186 0.88898 0.0
Mg1009 Mg 0.9602 0.29014 0.87871 0.0
O1010 O 0.01899 0.30165 0.87867 0.0
Mg1011 Mg 0.06197 0.25824 0.88407 0.0
O1012 O 0.10891 0.21879 0.88946 0.0
Mg1013 Mg 0.15851 0.24438 0.87983 0.0
Mg1014 Mg 0.10272 0.15948 0.88874 0.0
C1015 C 0.99506 0.20725 0.86456 0.0
O1016 O 0.01763 0.2235 0.89867 0.0
O1017 O 0.99093 0.39309 0.87726 0.0
O1018 O 0.04348 0.15586 0.89964 0.0
O1019 O 0.98673 0.34191 0.90486 0.0
O1020 O 0.94018 0.3486 0.86971 0.0
O1021 O 0.9394 0.2932 0.89809 0.0
O1022 O 0.10921 0.28881 0.87005 0.0
O1023 O 0.09091 0.35745 0.87331 0.0
C1024 C 0.11448 0.32895 0.86781 0.0
C1025 C 0.95692 0.38602 0.87068 0.0
O1026 O 0.03337 0.21373 0.86864 0.0
O1027 O 0.20288 0.19894 0.89146 0.0
O1028 O 0.96267 0.22996 0.86809 0.0
O1029 O 0.15645 0.19123 0.86387 0.0
O1030 O 0.16227 0.14303 0.89765 0.0
O1031 O 0.10819 0.14111 0.86916 0.0
O1032 O 0.08691 0.30568 0.89902 0.0
O1033 O 0.15721 0.2947 0.89578 0.0
C1034 C 0.95325 0.31873 0.90668 0.0
C1035 C 0.01621 0.18482 0.90292 0.0
C1036 C 0.25837 0.84469 0.44732 0.0
C1037 C 0.24871 0.82417 0.45887 0.0
C1038 C 0.29964 0.84263 0.44196 0.0
C1039 C 0.33202 0.81908 0.44826 0.0
C1040 C 0.32339 0.80114 0.46041 0.0
C1041 C 0.28178 0.804 0.46561 0.0
C1042 C 0.30747 0.86252 0.42902 0.0
C1043 C 0.35717 0.77626 0.46749 0.0
C1044 C 0.40338 0.76271 0.42428 0.0
C1045 C 0.43781 0.79148 0.42306 0.0
C1046 C 0.37001 0.77019 0.43301 0.0
C1047 C 0.37141 0.80686 0.441 0.0
C1048 C 0.40792 0.83391 0.4407 0.0
C1049 C 0.44072 0.82604 0.43166 0.0
C1050 C 0.33163 0.74054 0.43297 0.0
C1051 C 0.41091 0.87292 0.44922 0.0
H1052 H 0.23306 0.86069 0.44213 0.0
H1053 H 0.27453 0.78856 0.47463 0.0
H1054 H 0.33777 0.88114 0.429 0.0
H1055 H 0.31074 0.83678 0.42171 0.0
H1056 H 0.28087 0.88405 0.42616 0.0
H1057 H 0.34809 0.77113 0.47765 0.0
H1058 H 0.36158 0.74444 0.46287 0.0
H1059 H 0.38847 0.79313 0.46708 0.0
H1060 H 0.40112 0.73538 0.41788 0.0
H1061 H 0.46721 0.84839 0.43084 0.0
H1062 H 0.30257 0.75845 0.43007 0.0
H1063 H 0.32565 0.72794 0.44272 0.0
H1064 H 0.33587 0.71305 0.42631 0.0
H1065 H 0.39073 0.8989 0.44526 0.0
H1066 H 0.44437 0.88491 0.44988 0.0
H1067 H 0.3988 0.86581 0.45898 0.0
C1068 C 0.46198 0.95704 0.70762 0.0
C1069 C 0.43084 0.92468 0.70804 0.0
C1070 C 0.46689 0.98298 0.69682 0.0
C1071 C 0.44009 0.97628 0.68614 0.0
C1072 C 0.40899 0.94324 0.68639 0.0
C1073 C 0.40424 0.91821 0.69743 0.0
C1074 C 0.49995 0.01842 0.69702 0.0
C1075 C 0.38022 0.93492 0.6751 0.0
C1076 C 0.42695 0.07561 0.66603 0.0
C1077 C 0.45961 0.07016 0.65686 0.0
C1078 C 0.41865 0.04414 0.67522 0.0
C1079 C 0.44311 0.00595 0.67512 0.0
C1080 C 0.47376 0.99873 0.66531 0.0
C1081 C 0.48189 0.03109 0.65632 0.0
C1082 C 0.3859 0.05323 0.6856 0.0
C1083 C 0.49972 0.95791 0.66474 0.0
H1084 H 0.482 0.96254 0.71589 0.0
H1085 H 0.3795 0.89383 0.69778 0.0
H1086 H 0.52241 0.0148 0.68882 0.0
H1087 H 0.48386 0.04996 0.69603 0.0
H1088 H 0.51882 0.01872 0.70599 0.0
H1089 H 0.36057 0.9055 0.67635 0.0
H1090 H 0.35833 0.96254 0.67377 0.0
H1091 H 0.39965 0.93162 0.66623 0.0
H1092 H 0.40934 0.10553 0.66651 0.0
H1093 H 0.50684 0.02636 0.64919 0.0
H1094 H 0.4025 0.05771 0.69486 0.0
H1095 H 0.36364 0.02575 0.68671 0.0
H1096 H 0.36681 0.08251 0.68363 0.0
H1097 H 0.52331 0.95787 0.67262 0.0
H1098 H 0.51743 0.9545 0.65554 0.0
H1099 H 0.47868 0.92954 0.66604 0.0
C1100 C 0.39958 0.04249 0.92798 0.0
C1101 C 0.39406 0.04098 0.94129 0.0
C1102 C 0.37136 0.066 0.92033 0.0
C1103 C 0.33698 0.08861 0.92614 0.0
C1104 C 0.33265 0.08902 0.93962 0.0
C1105 C 0.36111 0.06498 0.94703 0.0
C1106 C 0.37694 0.06466 0.90599 0.0
C1107 C 0.2966 0.11301 0.94619 0.0
C1108 C 0.27127 0.16859 0.90713 0.0
C1109 C 0.23495 0.14403 0.90414 0.0
C1110 C 0.30519 0.15093 0.91415 0.0
C1111 C 0.30277 0.10767 0.91815 0.0
C1112 C 0.2667 0.08249 0.91488 0.0
C1113 C 0.23323 0.101 0.90797 0.0
C1114 C 0.34309 0.17874 0.91753 0.0
C1115 C 0.26306 0.03609 0.91885 0.0
H1116 H 0.42506 0.02393 0.92354 0.0
H1117 H 0.35678 0.06389 0.95731 0.0
H1118 H 0.35037 0.04594 0.9017 0.0
H1119 H 0.37546 0.09747 0.90197 0.0
H1120 H 0.40781 0.04966 0.90306 0.0
H1121 H 0.30047 0.114 0.95673 0.0
H1122 H 0.29476 0.14636 0.94259 0.0
H1123 H 0.26561 0.0972 0.944 0.0
H1124 H 0.27281 0.20189 0.90423 0.0
H1125 H 0.20553 0.08161 0.9056 0.0
H1126 H 0.37333 0.16324 0.91432 0.0
H1127 H 0.3449 0.18249 0.92807 0.0
H1128 H 0.34109 0.2111 0.91318 0.0
H1129 H 0.29138 0.01779 0.91539 0.0
H1130 H 0.23366 0.0205 0.91511 0.0
H1131 H 0.26254 0.03389 0.92943 0.0
C1132 C 0.15445 0.05218 0.20431 0.0
C1133 C 0.1963 0.05635 0.20889 0.0
C1134 C 0.14411 0.02095 0.19517 0.0
C1135 C 0.17623 0.99261 0.19054 0.0
C1136 C 0.21867 0.99665 0.19514 0.0
C1137 C 0.22816 0.02833 0.2043 0.0
C1138 C 0.0987 0.01844 0.19051 0.0
C1139 C 0.25418 0.96793 0.19024 0.0
C1140 C 0.14477 0.88684 0.17455 0.0
C1141 C 0.14544 0.89817 0.1616 0.0
C1142 C 0.15409 0.9174 0.18411 0.0
C1143 C 0.1658 0.95976 0.18059 0.0
C1144 C 0.16755 0.97086 0.16749 0.0
C1145 C 0.15677 0.94018 0.1582 0.0
C1146 C 0.15059 0.90472 0.19797 0.0
C1147 C 0.18107 0.01513 0.16326 0.0
H1148 H 0.12963 0.07344 0.20794 0.0
H1149 H 0.26054 0.03132 0.20788 0.0
H1150 H 0.09795 0.02327 0.18004 0.0
H1151 H 0.08577 0.98617 0.19258 0.0
H1152 H 0.07758 0.04282 0.19509 0.0
H1153 H 0.28552 0.97543 0.19471 0.0
H1154 H 0.2462 0.93389 0.19218 0.0
H1155 H 0.25749 0.97137 0.17973 0.0
H1156 H 0.13583 0.85446 0.1772 0.0
H1157 H 0.15788 0.94893 0.14819 0.0
H1158 H 0.1271 0.9258 0.20296 0.0
H1159 H 0.18191 0.90919 0.20275 0.0
H1160 H 0.14038 0.87082 0.19915 0.0
H1161 H 0.15828 0.03943 0.16704 0.0
H1162 H 0.1825 0.01807 0.15269 0.0
H1163 H 0.21312 0.02295 0.16718 0.0
C1164 C 0.31815 0.07147 0.56067 0.0
C1165 C 0.30797 0.09941 0.55067 0.0
C1166 C 0.35045 0.08181 0.56941 0.0
C1167 C 0.37317 0.12091 0.56807 0.0
C1168 C 0.3656 0.14724 0.55733 0.0
C1169 C 0.33308 0.13612 0.54875 0.0
C1170 C 0.35805 0.05239 0.58059 0.0
C1171 C 0.38954 0.18863 0.55522 0.0
C1172 C 0.40208 0.1736 0.59948 0.0
C1173 C 0.44578 0.16367 0.60062 0.0
C1174 C 0.37853 0.16035 0.58884 0.0
C1175 C 0.39919 0.13713 0.57892 0.0
C1176 C 0.44355 0.12799 0.57977 0.0
C1177 C 0.46634 0.14116 0.59066 0.0
C1178 C 0.33134 0.17113 0.58823 0.0
C1179 C 0.46661 0.10344 0.56934 0.0
H1180 H 0.29961 0.04237 0.56194 0.0
H1181 H 0.32622 0.15705 0.54078 0.0
H1182 H 0.39288 0.04724 0.58199 0.0
H1183 H 0.34511 0.06745 0.58944 0.0
H1184 H 0.34227 0.02074 0.57929 0.0
H1185 H 0.39122 0.19675 0.5449 0.0
H1186 H 0.37212 0.21494 0.56019 0.0
H1187 H 0.42263 0.18714 0.55898 0.0
H1188 H 0.38577 0.19082 0.60711 0.0
H1189 H 0.50007 0.13333 0.59145 0.0
H1190 H 0.31947 0.18676 0.59713 0.0
H1191 H 0.3121 0.14171 0.58661 0.0
H1192 H 0.32558 0.19295 0.58007 0.0
H1193 H 0.45348 0.07043 0.56872 0.0
H1194 H 0.50168 0.10142 0.57103 0.0
H1195 H 0.46123 0.1189 0.55996 0.0
C1196 C 0.22323 0.97705 0.81208 0.0
C1197 C 0.1952 0.94225 0.8138 0.0
C1198 C 0.21706 0.01578 0.81875 0.0
C1199 C 0.18236 0.01962 0.82748 0.0
C1200 C 0.15421 0.98446 0.82933 0.0
C1201 C 0.16087 0.94636 0.82243 0.0
C1202 C 0.24805 0.05231 0.81665 0.0
C1203 C 0.11814 0.98598 0.83902 0.0
C1204 C 0.182 0.09618 0.85559 0.0
C1205 C 0.15264 0.12725 0.85163 0.0
C1206 C 0.19403 0.06228 0.84752 0.0
C1207 C 0.17627 0.05951 0.83515 0.0
C1208 C 0.14886 0.0926 0.83077 0.0
C1209 C 0.13676 0.12594 0.83918 0.0
C1210 C 0.2238 0.02817 0.85252 0.0
C1211 C 0.13037 0.09152 0.8175 0.0
H1212 H 0.25016 0.97382 0.80554 0.0
H1213 H 0.13942 0.91945 0.82394 0.0
H1214 H 0.23042 0.08161 0.8138 0.0
H1215 H 0.26484 0.05983 0.82569 0.0
H1216 H 0.27242 0.04477 0.80917 0.0
H1217 H 0.09274 0.96216 0.83679 0.0
H1218 H 0.1311 0.97825 0.84858 0.0
H1219 H 0.10346 0.01827 0.83964 0.0
H1220 H 0.19406 0.09735 0.86529 0.0
H1221 H 0.11398 0.15001 0.8362 0.0
H1222 H 0.24915 0.02055 0.84538 0.0
H1223 H 0.2054 0.9983 0.85429 0.0
H1224 H 0.23932 0.03804 0.86159 0.0
H1225 H 0.15332 0.07778 0.81045 0.0
H1226 H 0.1214 0.12416 0.81428 0.0
H1227 H 0.10133 0.07098 0.81749 0.0
C1228 C 0.36812 0.7993 0.05999 0.0
C1229 C 0.40909 0.81383 0.06337 0.0
C1230 C 0.33306 0.80436 0.06835 0.0
C1231 C 0.3389 0.82545 0.08022 0.0
C1232 C 0.37966 0.84225 0.08337 0.0
C1233 C 0.41431 0.83604 0.07494 0.0
C1234 C 0.29018 0.78569 0.06468 0.0
C1235 C 0.387 0.86554 0.09585 0.0
C1236 C 0.23857 0.86082 0.09835 0.0
C1237 C 0.23361 0.82743 0.10718 0.0
C1238 C 0.27327 0.86122 0.08968 0.0
C1239 C 0.3032 0.82706 0.08973 0.0
C1240 C 0.29861 0.79358 0.09872 0.0
C1241 C 0.26411 0.79434 0.10738 0.0
C1242 C 0.27758 0.89783 0.08037 0.0
C1243 C 0.32943 0.75622 0.09897 0.0
H1244 H 0.36375 0.78298 0.05093 0.0
H1245 H 0.44576 0.84799 0.07749 0.0
H1246 H 0.28133 0.75977 0.07144 0.0
H1247 H 0.26486 0.81058 0.06535 0.0
H1248 H 0.29043 0.77223 0.05483 0.0
H1249 H 0.41947 0.8801 0.09633 0.0
H1250 H 0.36273 0.89119 0.09721 0.0
H1251 H 0.38329 0.84282 0.10391 0.0
H1252 H 0.21521 0.88653 0.09815 0.0
H1253 H 0.26037 0.76811 0.11406 0.0
H1254 H 0.27443 0.88561 0.07045 0.0
H1255 H 0.30984 0.91259 0.08115 0.0
H1256 H 0.25297 0.92305 0.08201 0.0
H1257 H 0.32745 0.73807 0.08985 0.0
H1258 H 0.32257 0.73388 0.10697 0.0
H1259 H 0.36287 0.76792 0.09988 0.0
C1260 C 0.40698 0.04762 0.32574 0.0
C1261 C 0.44009 0.04569 0.31658 0.0
C1262 C 0.40737 0.02105 0.33653 0.0
C1263 C 0.44103 0.99112 0.33799 0.0
C1264 C 0.47427 0.98872 0.32872 0.0
C1265 C 0.47336 0.01603 0.31813 0.0
C1266 C 0.37159 0.02465 0.34627 0.0
C1267 C 0.51047 0.95679 0.32986 0.0
C1268 C 0.47099 0.93948 0.36935 0.0
C1269 C 0.45428 0.89801 0.36774 0.0
C1270 C 0.46451 0.97121 0.3601 0.0
C1271 C 0.44112 0.96106 0.34895 0.0
C1272 C 0.4216 0.9203 0.34772 0.0
C1273 C 0.42817 0.88936 0.35717 0.0
C1274 C 0.48509 0.01464 0.36187 0.0
C1275 C 0.39651 0.90821 0.33595 0.0
H1276 H 0.38064 0.06981 0.32444 0.0
H1277 H 0.49847 0.0139 0.31093 0.0
H1278 H 0.35325 0.99419 0.34662 0.0
H1279 H 0.38504 0.0301 0.35593 0.0
H1280 H 0.34908 0.05118 0.34408 0.0
H1281 H 0.53396 0.95926 0.32187 0.0
H1282 H 0.52769 0.96187 0.33899 0.0
H1283 H 0.4974 0.92369 0.33001 0.0
H1284 H 0.49084 0.94665 0.37755 0.0
H1285 H 0.41496 0.85751 0.35584 0.0
H1286 H 0.46201 0.04057 0.35963 0.0
H1287 H 0.51262 0.01783 0.35516 0.0
H1288 H 0.49694 0.01943 0.37176 0.0
H1289 H 0.37262 0.93334 0.33369 0.0
H1290 H 0.37953 0.87711 0.33707 0.0
H1291 H 0.4187 0.9056 0.32764 0.0
C1292 C 0.74707 0.07643 0.56148 0.0
C1293 C 0.76206 0.11007 0.5538 0.0
C1294 C 0.72354 0.08475 0.57273 0.0
C1295 C 0.7147 0.12771 0.57628 0.0
C1296 C 0.72893 0.16172 0.56838 0.0
C1297 C 0.7524 0.15247 0.55724 0.0
C1298 C 0.70889 0.04772 0.58091 0.0
C1299 C 0.72007 0.208 0.57182 0.0
C1300 C 0.62971 0.16232 0.60031 0.0
C1301 C 0.65531 0.17418 0.61071 0.0
C1302 C 0.64819 0.14431 0.58923 0.0
C1303 C 0.69314 0.13784 0.58865 0.0
C1304 C 0.71843 0.14633 0.59954 0.0
C1305 C 0.69921 0.16448 0.61042 0.0
C1306 C 0.62007 0.13531 0.57785 0.0
C1307 C 0.76636 0.13932 0.59939 0.0
H1308 H 0.75406 0.04359 0.55874 0.0
H1309 H 0.7635 0.17846 0.55122 0.0
H1310 H 0.72517 0.04911 0.5903 0.0
H1311 H 0.67392 0.04999 0.5828 0.0
H1312 H 0.7159 0.01618 0.57638 0.0
H1313 H 0.73163 0.23051 0.56435 0.0
H1314 H 0.68514 0.21301 0.57325 0.0
H1315 H 0.73606 0.21618 0.58095 0.0
H1316 H 0.59571 0.16957 0.60049 0.0
H1317 H 0.71907 0.17291 0.61852 0.0
H1318 H 0.62829 0.10394 0.57344 0.0
H1319 H 0.62552 0.16034 0.57051 0.0
H1320 H 0.58547 0.13531 0.58048 0.0
H1321 H 0.78045 0.14235 0.60907 0.0
H1322 H 0.7818 0.16339 0.59307 0.0
H1323 H 0.77427 0.10713 0.59549 0.0
C1324 C 0.7294 0.90675 0.30133 0.0
C1325 C 0.74148 0.96324 0.30579 0.0
C1326 C 0.71437 0.87304 0.31453 0.0
C1327 C 0.70369 0.89588 0.33011 0.0
C1328 C 0.70469 0.95303 0.33298 0.0
C1329 C 0.7193 0.98951 0.32041 0.0
C1330 C 0.70908 0.82604 0.31245 0.0
C1331 C 0.69226 0.97032 0.34578 0.0
C1332 C 0.61909 0.84406 0.35071 0.0
C1333 C 0.64371 0.82401 0.36007 0.0
C1334 C 0.63855 0.86591 0.34056 0.0
C1335 C 0.68376 0.86851 0.33994 0.0
C1336 C 0.70891 0.84712 0.34913 0.0
C1337 C 0.68849 0.8247 0.35914 0.0
C1338 C 0.61055 0.88748 0.33078 0.0
C1339 C 0.75716 0.84954 0.34867 0.0
H1340 H 0.73916 0.89324 0.29222 0.0
H1341 H 0.72295 0.02351 0.32221 0.0
H1342 H 0.72857 0.80838 0.31951 0.0
H1343 H 0.67503 0.81721 0.31409 0.0
H1344 H 0.71891 0.81698 0.30259 0.0
H1345 H 0.70038 0.00488 0.3465 0.0
H1346 H 0.65725 0.96606 0.34723 0.0
H1347 H 0.70885 0.95193 0.35333 0.0
H1348 H 0.58439 0.84352 0.35152 0.0
H1349 H 0.70736 0.80954 0.36652 0.0
H1350 H 0.62116 0.87858 0.32097 0.0
H1351 H 0.61354 0.92281 0.33172 0.0
H1352 H 0.5762 0.87874 0.33193 0.0
H1353 H 0.76901 0.83896 0.33913 0.0
H1354 H 0.77229 0.8295 0.35614 0.0
H1355 H 0.76742 0.88336 0.35002 0.0
C1356 C 0.79651 0.94998 0.10067 0.0
C1357 C 0.7658 0.92771 0.0935 0.0
C1358 C 0.83736 0.93252 0.10269 0.0
C1359 C 0.8483 0.89267 0.09699 0.0
C1360 C 0.81844 0.8716 0.08902 0.0
C1361 C 0.77745 0.88918 0.08745 0.0
C1362 C 0.86797 0.95565 0.11146 0.0
C1363 C 0.82955 0.83017 0.08231 0.0
C1364 C 0.96666 0.86342 0.09826 0.0
C1365 C 0.96734 0.83635 0.10891 0.0
C1366 C 0.92778 0.88044 0.09382 0.0
C1367 C 0.88915 0.87116 0.10046 0.0
C1368 C 0.88971 0.8429 0.111 0.0
C1369 C 0.92875 0.82571 0.11504 0.0
C1370 C 0.92817 0.90917 0.08225 0.0
C1371 C 0.8493 0.83219 0.11838 0.0
H1372 H 0.78809 0.98037 0.10506 0.0
H1373 H 0.75417 0.87231 0.08166 0.0
H1374 H 0.87409 0.93565 0.12 0.0
H1375 H 0.89923 0.9608 0.10659 0.0
H1376 H 0.8553 0.98721 0.11469 0.0
H1377 H 0.80152 0.81564 0.07744 0.0
H1378 H 0.85493 0.83636 0.07507 0.0
H1379 H 0.84256 0.80667 0.08919 0.0
H1380 H 0.99656 0.87168 0.09353 0.0
H1381 H 0.92932 0.8058 0.1235 0.0
H1382 H 0.91971 0.94239 0.08515 0.0
H1383 H 0.90375 0.89833 0.07529 0.0
H1384 H 0.96002 0.90973 0.07743 0.0
H1385 H 0.83521 0.86195 0.12248 0.0
H1386 H 0.85524 0.8093 0.12627 0.0
H1387 H 0.82515 0.81796 0.11188 0.0
C1388 C 0.94366 0.08795 0.79921 0.0
C1389 C 0.96991 0.05173 0.79776 0.0
C1390 C 0.94174 0.11047 0.81084 0.0
C1391 C 0.96674 0.09637 0.82124 0.0
C1392 C 0.99113 0.05828 0.82007 0.0
C1393 C 0.99298 0.03676 0.8083 0.0
C1394 C 0.91524 0.1509 0.81167 0.0
C1395 C 0.01738 0.04181 0.83105 0.0
C1396 C 0.01534 0.17954 0.84323 0.0
C1397 C 0.98889 0.17663 0.85403 0.0
C1398 C 0.00726 0.15465 0.83235 0.0
C1399 C 0.97316 0.12465 0.83253 0.0
C1400 C 0.94668 0.1211 0.84352 0.0
C1401 C 0.95437 0.14788 0.8541 0.0
C1402 C 0.03412 0.16172 0.82048 0.0
C1403 C 0.90996 0.08961 0.84401 0.0
H1404 H 0.92611 0.09977 0.79105 0.0
H1405 H 0.0137 0.00906 0.80723 0.0
H1406 H 0.89835 0.15328 0.82101 0.0
H1407 H 0.93664 0.17918 0.81083 0.0
H1408 H 0.89119 0.15251 0.80391 0.0
H1409 H 0.03234 0.01033 0.82883 0.0
H1410 H 0.04294 0.06527 0.83339 0.0
H1411 H 0.99697 0.03835 0.83971 0.0
H1412 H 0.04123 0.20278 0.84307 0.0
H1413 H 0.93361 0.14628 0.86244 0.0
H1414 H 0.01413 0.17687 0.81303 0.0
H1415 H 0.04558 0.13073 0.81654 0.0
H1416 H 0.06208 0.18292 0.82227 0.0
H1417 H 0.88646 0.09725 0.83645 0.0
H1418 H 0.89316 0.09 0.85341 0.0
H1419 H 0.92186 0.05666 0.8421 0.0
C1420 C 0.73468 0.95661 0.45625 0.0
C1421 C 0.76754 0.97818 0.44967 0.0
C1422 C 0.70471 0.93149 0.44967 0.0
C1423 C 0.70797 0.92771 0.43622 0.0
C1424 C 0.73851 0.95264 0.42946 0.0
C1425 C 0.76798 0.97762 0.43628 0.0
C1426 C 0.67225 0.90592 0.45721 0.0
C1427 C 0.74277 0.94982 0.4151 0.0
C1428 C 0.69154 0.81969 0.42076 0.0
C1429 C 0.65301 0.8255 0.41422 0.0
C1430 C 0.70844 0.85207 0.42846 0.0
C1431 C 0.68644 0.89162 0.42956 0.0
C1432 C 0.64625 0.89698 0.42352 0.0
C1433 C 0.62976 0.86354 0.41592 0.0
C1434 C 0.75103 0.84458 0.4349 0.0
C1435 C 0.6219 0.93866 0.4245 0.0
H1436 H 0.73403 0.9573 0.46661 0.0
H1437 H 0.79293 0.99473 0.43114 0.0
H1438 H 0.64072 0.90568 0.45237 0.0
H1439 H 0.6833 0.87219 0.45791 0.0
H1440 H 0.66797 0.91882 0.46705 0.0
H1441 H 0.76319 0.97589 0.41117 0.0
H1442 H 0.75747 0.91859 0.41243 0.0
H1443 H 0.71082 0.95133 0.41054 0.0
H1444 H 0.7092 0.78994 0.41956 0.0
H1445 H 0.60001 0.86803 0.41082 0.0
H1446 H 0.7485 0.85191 0.44526 0.0
H1447 H 0.77561 0.86633 0.43077 0.0
H1448 H 0.76244 0.81101 0.43375 0.0
H1449 H 0.622 0.9511 0.43445 0.0
H1450 H 0.58817 0.93509 0.42132 0.0
H1451 H 0.63778 0.96301 0.41839 0.0
C1452 C 0.99425 0.0113 0.20375 0.0
C1453 C 0.01976 0.99217 0.2132 0.0
C1454 C 0.98114 0.98836 0.19288 0.0
C1455 C 0.99517 0.94563 0.19112 0.0
C1456 C 0.02022 0.9258 0.20066 0.0
C1457 C 0.0309 0.94876 0.21172 0.0
C1458 C 0.95294 0.01057 0.1833 0.0
C1459 C 0.03658 0.88044 0.19907 0.0
C1460 C 0.95 0.85848 0.17013 0.0
C1461 C 0.9816 0.85668 0.16054 0.0
C1462 C 0.9512 0.89057 0.17956 0.0
C1463 C 0.9848 0.92107 0.17934 0.0
C1464 C 0.01305 0.92251 0.16872 0.0
C1465 C 0.01146 0.88995 0.15951 0.0
C1466 C 0.91841 0.89006 0.19024 0.0
C1467 C 0.0475 0.95598 0.16757 0.0
H1468 H 0.98445 0.04442 0.2047 0.0
H1469 H 0.0489 0.93261 0.21906 0.0
H1470 H 0.9734 0.02866 0.17648 0.0
H1471 H 0.93301 0.98764 0.17779 0.0
H1472 H 0.9314 0.03407 0.18812 0.0
H1473 H 0.05746 0.87046 0.20708 0.0
H1474 H 0.00925 0.85778 0.19851 0.0
H1475 H 0.05513 0.87752 0.19001 0.0
H1476 H 0.92613 0.83329 0.17079 0.0
H1477 H 0.03491 0.88948 0.15182 0.0
H1478 H 0.9075 0.92314 0.19249 0.0
H1479 H 0.93312 0.87676 0.19899 0.0
H1480 H 0.89011 0.8701 0.18777 0.0
H1481 H 0.03522 0.98798 0.1704 0.0
H1482 H 0.06075 0.95794 0.15771 0.0
H1483 H 0.07378 0.94727 0.17408 0.0
C1484 C 0.86304 0.12573 0.96261 0.0
C1485 C 0.8706 0.15709 0.97199 0.0
C1486 C 0.88264 0.12787 0.95052 0.0
C1487 C 0.91089 0.16207 0.94775 0.0
C1488 C 0.91806 0.19444 0.95701 0.0
C1489 C 0.89729 0.192 0.96892 0.0
C1490 C 0.87387 0.09296 0.94084 0.0
C1491 C 0.94831 0.23133 0.95439 0.0
C1492 C 0.00049 0.14878 0.92349 0.0
C1493 C 0.98625 0.17468 0.91346 0.0
C1494 C 0.97558 0.14321 0.93455 0.0
C1495 C 0.93494 0.16314 0.93544 0.0
C1496 C 0.91913 0.18693 0.92499 0.0
C1497 C 0.94538 0.19316 0.91418 0.0
C1498 C 0.99384 0.11802 0.94554 0.0
C1499 C 0.87505 0.20672 0.92543 0.0
H1500 H 0.84205 0.09907 0.96477 0.0
H1501 H 0.90277 0.21726 0.97583 0.0
H1502 H 0.86507 0.1071 0.93151 0.0
H1503 H 0.90331 0.07364 0.93926 0.0
H1504 H 0.84771 0.07114 0.94398 0.0
H1505 H 0.95274 0.25227 0.96289 0.0
H1506 H 0.98019 0.21904 0.95135 0.0
H1507 H 0.93577 0.25107 0.94645 0.0
H1508 H 0.03225 0.1347 0.92301 0.0
H1509 H 0.93408 0.21258 0.90633 0.0
H1510 H 0.97079 0.09311 0.94872 0.0
H1511 H 0.99935 0.13983 0.95378 0.0
H1512 H 0.02468 0.10223 0.94299 0.0
H1513 H 0.85086 0.18265 0.92844 0.0
H1514 H 0.8655 0.21986 0.91602 0.0
H1515 H 0.87445 0.23281 0.93264 0.0
C1516 C 0.80657 0.06152 0.68607 0.0
C1517 C 0.80908 0.06238 0.69944 0.0
C1518 C 0.77722 0.08751 0.6796 0.0
C1519 C 0.7499 0.1153 0.68666 0.0
C1520 C 0.75364 0.11772 0.70012 0.0
C1521 C 0.78326 0.09125 0.70635 0.0
C1522 C 0.77428 0.08393 0.66523 0.0
C1523 C 0.72528 0.14707 0.70797 0.0
C1524 C 0.68694 0.19518 0.66666 0.0
C1525 C 0.64946 0.17168 0.6644 0.0
C1526 C 0.7195 0.17827 0.67444 0.0
C1527 C 0.71399 0.13727 0.68006 0.0
C1528 C 0.6749 0.115 0.67846 0.0
C1529 C 0.64326 0.13245 0.67066 0.0
C1530 C 0.76062 0.20311 0.67605 0.0
C1531 C 0.66736 0.07143 0.68435 0.0
H1532 H 0.82723 0.03997 0.68069 0.0
H1533 H 0.78583 0.09266 0.71667 0.0
H1534 H 0.74292 0.0697 0.6626 0.0
H1535 H 0.77601 0.11618 0.66083 0.0
H1536 H 0.80019 0.06364 0.66109 0.0
H1537 H 0.73561 0.14903 0.71809 0.0
H1538 H 0.72524 0.17982 0.70387 0.0
H1539 H 0.69178 0.13513 0.70775 0.0
H1540 H 0.6918 0.22548 0.66182 0.0
H1541 H 0.61396 0.11449 0.66909 0.0
H1542 H 0.78654 0.18736 0.67043 0.0
H1543 H 0.77062 0.20328 0.6862 0.0
H1544 H 0.75751 0.23676 0.67274 0.0
H1545 H 0.68955 0.04769 0.67995 0.0
H1546 H 0.63396 0.05996 0.68299 0.0
H1547 H 0.67411 0.07239 0.69474 0.0
C1548 C 0.79633 0.34313 0.96778 0.0
C1549 C 0.77252 0.38076 0.96607 0.0
C1550 C 0.82977 0.33208 0.95935 0.0
C1551 C 0.84006 0.3596 0.94905 0.0
C1552 C 0.81744 0.39869 0.94764 0.0
C1553 C 0.78409 0.40891 0.95621 0.0
C1554 C 0.85349 0.29059 0.96135 0.0
C1555 C 0.82733 0.42895 0.93679 0.0
C1556 C 0.94212 0.34691 0.92907 0.0
C1557 C 0.9264 0.32534 0.91828 0.0
C1558 C 0.91485 0.357 0.93945 0.0
C1559 C 0.87089 0.34557 0.93893 0.0
C1560 C 0.85532 0.32264 0.92824 0.0
C1561 C 0.88315 0.31296 0.91808 0.0
C1562 C 0.9327 0.38117 0.95074 0.0
C1563 C 0.80886 0.30925 0.92735 0.0
H1564 H 0.78827 0.32192 0.97562 0.0
H1565 H 0.76648 0.4386 0.95507 0.0
H1566 H 0.85193 0.27036 0.95263 0.0
H1567 H 0.88771 0.29764 0.9632 0.0
H1568 H 0.8404 0.27199 0.96953 0.0
H1569 H 0.80912 0.45947 0.9376 0.0
H1570 H 0.8621 0.43643 0.9365 0.0
H1571 H 0.81916 0.41337 0.92756 0.0
H1572 H 0.97548 0.35662 0.9293 0.0
H1573 H 0.87045 0.29676 0.90974 0.0
H1574 H 0.92374 0.36492 0.95978 0.0
H1575 H 0.91868 0.41385 0.9511 0.0
H1576 H 0.96818 0.38409 0.95024 0.0
H1577 H 0.79961 0.29014 0.93585 0.0
H1578 H 0.80235 0.28984 0.91865 0.0
H1579 H 0.78806 0.33811 0.92721 0.0
C1580 C 0.81673 0.45169 0.1913 0.0
C1581 C 0.82506 0.45457 0.20443 0.0
C1582 C 0.8355 0.48048 0.18264 0.0
C1583 C 0.86334 0.51283 0.18723 0.0
C1584 C 0.8724 0.51546 0.20045 0.0
C1585 C 0.85296 0.48641 0.2089 0.0
C1586 C 0.82497 0.47676 0.16862 0.0
C1587 C 0.90216 0.54934 0.2057 0.0
C1588 C 0.94052 0.5665 0.16408 0.0
C1589 C 0.91986 0.6057 0.16178 0.0
C1590 C 0.92237 0.53586 0.17227 0.0
C1591 C 0.88243 0.54445 0.17825 0.0
C1592 C 0.86103 0.58358 0.17582 0.0
C1593 C 0.88006 0.6138 0.16765 0.0
C1594 C 0.94624 0.49458 0.17469 0.0
C1595 C 0.8182 0.59369 0.18195 0.0
H1596 H 0.79494 0.42723 0.18784 0.0
H1597 H 0.85924 0.48884 0.21905 0.0
H1598 H 0.80922 0.50663 0.16535 0.0
H1599 H 0.85483 0.47285 0.16291 0.0
H1600 H 0.80342 0.44924 0.16657 0.0
H1601 H 0.90694 0.54616 0.21616 0.0
H1602 H 0.93386 0.54728 0.20085 0.0
H1603 H 0.889 0.58169 0.20375 0.0
H1604 H 0.97134 0.55991 0.15964 0.0
H1605 H 0.86375 0.64387 0.1659 0.0
H1606 H 0.92583 0.4667 0.17217 0.0
H1607 H 0.95381 0.49193 0.185 0.0
H1608 H 0.97663 0.49247 0.16912 0.0
H1609 H 0.79467 0.56821 0.1796 0.0
H1610 H 0.80518 0.62503 0.17879 0.0
H1611 H 0.82144 0.5944 0.1925 0.0
C1612 C 0.94439 0.63305 0.44037 0.0
C1613 C 0.94321 0.66166 0.45075 0.0
C1614 C 0.90829 0.62675 0.43266 0.0
C1615 C 0.87028 0.65005 0.43529 0.0
C1616 C 0.86841 0.67782 0.44603 0.0
C1617 C 0.90488 0.68317 0.45367 0.0
C1618 C 0.91148 0.59661 0.42136 0.0
C1619 C 0.82856 0.70346 0.44912 0.0
C1620 C 0.79689 0.67838 0.40786 0.0
C1621 C 0.76207 0.65056 0.40984 0.0
C1622 C 0.83258 0.67784 0.41592 0.0
C1623 C 0.83387 0.64847 0.42618 0.0
C1624 C 0.79979 0.61902 0.42794 0.0
C1625 C 0.7642 0.62049 0.41977 0.0
C1626 C 0.86824 0.70986 0.41372 0.0
C1627 C 0.80032 0.5869 0.43868 0.0
H1628 H 0.97398 0.61639 0.43808 0.0
H1629 H 0.90394 0.70534 0.46167 0.0
H1630 H 0.88377 0.57429 0.42126 0.0
H1631 H 0.91054 0.61529 0.41237 0.0
H1632 H 0.94155 0.57751 0.42143 0.0
H1633 H 0.83122 0.72113 0.45832 0.0
H1634 H 0.82272 0.727 0.4414 0.0
H1635 H 0.80018 0.68207 0.4496 0.0
H1636 H 0.79576 0.70177 0.40024 0.0
H1637 H 0.73757 0.5988 0.4214 0.0
H1638 H 0.89942 0.69303 0.41274 0.0
H1639 H 0.87062 0.73171 0.42208 0.0
H1640 H 0.86309 0.7295 0.40503 0.0
H1641 H 0.83072 0.56843 0.43848 0.0
H1642 H 0.77303 0.56408 0.43817 0.0
H1643 H 0.79874 0.604 0.448 0.0
C1644 C 0.6875 0.53041 0.71162 0.0
C1645 C 0.65341 0.55267 0.71746 0.0
C1646 C 0.68001 0.49461 0.70378 0.0
C1647 C 0.63753 0.47968 0.70207 0.0
C1648 C 0.60343 0.49967 0.70885 0.0
C1649 C 0.61174 0.53613 0.71639 0.0
C1650 C 0.71732 0.47458 0.69667 0.0
C1651 C 0.55785 0.48397 0.70768 0.0
C1652 C 0.61366 0.43352 0.66937 0.0
C1653 C 0.617 0.3892 0.67139 0.0
C1654 C 0.61966 0.46295 0.67932 0.0
C1655 C 0.62844 0.44787 0.69176 0.0
C1656 C 0.63084 0.40308 0.69398 0.0
C1657 C 0.62582 0.37415 0.68369 0.0
C1658 C 0.61764 0.51035 0.67641 0.0
C1659 C 0.63886 0.38586 0.7072 0.0
H1660 H 0.72003 0.54192 0.71278 0.0
H1661 H 0.58548 0.55235 0.72124 0.0
H1662 H 0.7171 0.43925 0.69781 0.0
H1663 H 0.71438 0.48137 0.68631 0.0
H1664 H 0.74869 0.48713 0.69999 0.0
H1665 H 0.53709 0.49628 0.71556 0.0
H1666 H 0.54437 0.49506 0.69849 0.0
H1667 H 0.55673 0.44844 0.70771 0.0
H1668 H 0.60747 0.44544 0.65985 0.0
H1669 H 0.62831 0.33992 0.68528 0.0
H1670 H 0.64853 0.52585 0.6789 0.0
H1671 H 0.59223 0.5258 0.6823 0.0
H1672 H 0.6109 0.51673 0.66619 0.0
H1673 H 0.67136 0.39528 0.7104 0.0
H1674 H 0.63625 0.35036 0.70755 0.0
H1675 H 0.61556 0.39997 0.7141 0.0
C1676 C 0.75984 0.68838 0.06501 0.0
C1677 C 0.76769 0.66696 0.05342 0.0
C1678 C 0.79145 0.69126 0.07444 0.0
C1679 C 0.83211 0.67229 0.07224 0.0
C1680 C 0.84033 0.65041 0.06061 0.0
C1681 C 0.80777 0.64727 0.05144 0.0
C1682 C 0.78095 0.71384 0.08687 0.0
C1683 C 0.88339 0.6301 0.05788 0.0
C1684 C 0.91915 0.71622 0.09382 0.0
C1685 C 0.92023 0.68497 0.10335 0.0
C1686 C 0.89264 0.71111 0.08313 0.0
C1687 C 0.86542 0.67478 0.08232 0.0
C1688 C 0.86745 0.64261 0.09181 0.0
C1689 C 0.89536 0.64788 0.10215 0.0
C1690 C 0.89364 0.74463 0.07277 0.0
C1691 C 0.83862 0.60372 0.09141 0.0
H1692 H 0.72861 0.70256 0.06678 0.0
H1693 H 0.8138 0.62928 0.04275 0.0
H1694 H 0.78013 0.6901 0.09473 0.0
H1695 H 0.80614 0.73763 0.08921 0.0
H1696 H 0.74951 0.73053 0.08659 0.0
H1697 H 0.88504 0.61527 0.04822 0.0
H1698 H 0.90907 0.65459 0.05864 0.0
H1699 H 0.8902 0.60507 0.06508 0.0
H1700 H 0.93875 0.74478 0.0948 0.0
H1701 H 0.89615 0.62402 0.10966 0.0
H1702 H 0.86073 0.75359 0.06987 0.0
H1703 H 0.91003 0.73119 0.06421 0.0
H1704 H 0.91111 0.77399 0.07579 0.0
H1705 H 0.80476 0.61388 0.0927 0.0
H1706 H 0.84648 0.58018 0.09897 0.0
H1707 H 0.84111 0.58753 0.08197 0.0
C1708 C 0.71485 0.42607 0.33187 0.0
C1709 C 0.68665 0.41075 0.32254 0.0
C1710 C 0.71408 0.46922 0.3357 0.0
C1711 C 0.68382 0.49746 0.33022 0.0
C1712 C 0.65905 0.48325 0.31973 0.0
C1713 C 0.66066 0.43996 0.31602 0.0
C1714 C 0.74191 0.48312 0.34671 0.0
C1715 C 0.62757 0.51252 0.31331 0.0
C1716 C 0.62983 0.56312 0.356 0.0
C1717 C 0.65267 0.60196 0.35563 0.0
C1718 C 0.6387 0.52979 0.34744 0.0
C1719 C 0.66992 0.53579 0.33774 0.0
C1720 C 0.69023 0.57629 0.33646 0.0
C1721 C 0.68172 0.60891 0.34554 0.0
C1722 C 0.61691 0.4869 0.34944 0.0
C1723 C 0.72304 0.58439 0.3261 0.0
H1724 H 0.7355 0.40372 0.3368 0.0
H1725 H 0.6393 0.42831 0.30865 0.0
H1726 H 0.7557 0.51534 0.34492 0.0
H1727 H 0.72207 0.48517 0.35554 0.0
H1728 H 0.7685 0.46018 0.34839 0.0
H1729 H 0.61728 0.49971 0.30389 0.0
H1730 H 0.59871 0.51606 0.31948 0.0
H1731 H 0.64192 0.5447 0.31192 0.0
H1732 H 0.60653 0.55755 0.36355 0.0
H1733 H 0.69935 0.63883 0.34509 0.0
H1734 H 0.64114 0.46213 0.35176 0.0
H1735 H 0.60056 0.47655 0.34057 0.0
H1736 H 0.59302 0.48771 0.35736 0.0
H1737 H 0.75496 0.57372 0.32944 0.0
H1738 H 0.72523 0.61909 0.32382 0.0
H1739 H 0.71547 0.56633 0.31724 0.0
C1740 C 0.87686 0.50579 0.59791 0.0
C1741 C 0.87227 0.50921 0.58463 0.0
C1742 C 0.85074 0.47798 0.60504 0.0
C1743 C 0.81967 0.45273 0.5987 0.0
C1744 C 0.81673 0.45417 0.58521 0.0
C1745 C 0.84283 0.48269 0.57835 0.0
C1746 C 0.85465 0.47756 0.61941 0.0
C1747 C 0.78441 0.4273 0.57808 0.0
C1748 C 0.76044 0.36388 0.61636 0.0
C1749 C 0.72133 0.3841 0.61922 0.0
C1750 C 0.79317 0.38586 0.60978 0.0
C1751 C 0.7867 0.42911 0.6062 0.0
C1752 C 0.74776 0.44993 0.60941 0.0
C1753 C 0.71552 0.42711 0.61579 0.0
C1754 C 0.83411 0.36254 0.60637 0.0
C1755 C 0.73981 0.49623 0.60592 0.0
H1756 H 0.89981 0.52614 0.60277 0.0
H1757 H 0.8394 0.48511 0.56808 0.0
H1758 H 0.8258 0.49267 0.62377 0.0
H1759 H 0.85624 0.44416 0.62297 0.0
H1760 H 0.88344 0.49524 0.62274 0.0
H1761 H 0.78986 0.42808 0.56758 0.0
H1762 H 0.78566 0.39349 0.58131 0.0
H1763 H 0.75163 0.43944 0.58012 0.0
H1764 H 0.76501 0.33057 0.61893 0.0
H1765 H 0.68555 0.44309 0.6181 0.0
H1766 H 0.835 0.32964 0.61039 0.0
H1767 H 0.86224 0.38069 0.60992 0.0
H1768 H 0.83741 0.36026 0.59582 0.0
H1769 H 0.76574 0.51685 0.60976 0.0
H1770 H 0.70858 0.50822 0.60965 0.0
H1771 H 0.74015 0.49975 0.59538 0.0
C1772 C 0.86697 0.54431 0.81831 0.0
C1773 C 0.83872 0.57551 0.8231 0.0
C1774 C 0.88884 0.51668 0.82656 0.0
C1775 C 0.88192 0.52003 0.83991 0.0
C1776 C 0.85454 0.55242 0.84484 0.0
C1777 C 0.83324 0.5798 0.83637 0.0
C1778 C 0.91794 0.48269 0.82093 0.0
C1779 C 0.84622 0.55691 0.85901 0.0
C1780 C 0.89595 0.41661 0.85832 0.0
C1781 C 0.9369 0.42179 0.86358 0.0
C1782 C 0.87735 0.44884 0.85089 0.0
C1783 C 0.90032 0.4872 0.84857 0.0
C1784 C 0.94124 0.49317 0.85407 0.0
C1785 C 0.95901 0.46043 0.86156 0.0
C1786 C 0.83345 0.44138 0.84529 0.0
C1787 C 0.9667 0.53361 0.85176 0.0
H1788 H 0.87112 0.54079 0.80807 0.0
H1789 H 0.81123 0.60376 0.84009 0.0
H1790 H 0.94966 0.4835 0.82565 0.0
H1791 H 0.90391 0.45051 0.82264 0.0
H1792 H 0.92281 0.48675 0.81047 0.0
H1793 H 0.82726 0.58608 0.86137 0.0
H1794 H 0.82835 0.52844 0.8625 0.0
H1795 H 0.87692 0.55821 0.86428 0.0
H1796 H 0.87841 0.38707 0.8599 0.0
H1797 H 0.99069 0.46472 0.86556 0.0
H1798 H 0.83568 0.44095 0.8347 0.0
H1799 H 0.81154 0.46795 0.84803 0.0
H1800 H 0.81901 0.41064 0.8485 0.0
H1801 H 0.97469 0.53627 0.84144 0.0
H1802 H 0.99699 0.5343 0.85728 0.0
H1803 H 0.94732 0.56218 0.85439 0.0
C1804 C 0.25656 0.48971 0.08153 0.0
C1805 C 0.30336 0.52603 0.07916 0.0
C1806 C 0.21 0.51512 0.08852 0.0
C1807 C 0.21337 0.56892 0.0949 0.0
C1808 C 0.26335 0.59821 0.09547 0.0
C1809 C 0.31159 0.57562 0.08877 0.0
C1810 C 0.16848 0.49155 0.08904 0.0
C1811 C 0.26474 0.64166 0.10146 0.0
C1812 C 0.12426 0.6471 0.10122 0.0
C1813 C 0.12457 0.64775 0.11458 0.0
C1814 C 0.14992 0.61768 0.09442 0.0
C1815 C 0.17599 0.58869 0.10123 0.0
C1816 C 0.17227 0.58605 0.11467 0.0
C1817 C 0.14672 0.61593 0.12122 0.0
C1818 C 0.1526 0.62075 0.08007 0.0
C1819 C 0.19892 0.55493 0.12224 0.0
H1820 H 0.25421 0.45911 0.07667 0.0
H1821 H 0.3409 0.59409 0.08815 0.0
H1822 H 0.15734 0.48945 0.09911 0.0
H1823 H 0.144 0.50979 0.08368 0.0
H1824 H 0.17206 0.45892 0.0849 0.0
H1825 H 0.29725 0.65578 0.10051 0.0
H1826 H 0.24081 0.66267 0.09682 0.0
H1827 H 0.2558 0.63919 0.11171 0.0
H1828 H 0.10752 0.67219 0.09613 0.0
H1829 H 0.14711 0.61686 0.13159 0.0
H1830 H 0.15335 0.58825 0.0757 0.0
H1831 H 0.18272 0.63746 0.07735 0.0
H1832 H 0.12516 0.63891 0.07609 0.0
H1833 H 0.19928 0.52292 0.11756 0.0
H1834 H 0.18678 0.5515 0.1322 0.0
H1835 H 0.2325 0.56666 0.12262 0.0
C1836 C 0.30361 0.41675 0.82212 0.0
C1837 C 0.33414 0.43644 0.82997 0.0
C1838 C 0.26777 0.39592 0.82739 0.0
C1839 C 0.26269 0.39442 0.84084 0.0
C1840 C 0.29406 0.41323 0.84881 0.0
C1841 C 0.32935 0.43413 0.84328 0.0
C1842 C 0.23482 0.37651 0.81859 0.0
C1843 C 0.28988 0.4121 0.8632 0.0
C1844 C 0.1522 0.3868 0.85582 0.0
C1845 C 0.15079 0.34388 0.85979 0.0
C1846 C 0.18781 0.40313 0.84923 0.0
C1847 C 0.22315 0.376 0.84661 0.0
C1848 C 0.22141 0.33224 0.85015 0.0
C1849 C 0.18505 0.31658 0.85664 0.0
C1850 C 0.18817 0.44986 0.84546 0.0
C1851 C 0.25855 0.30239 0.84752 0.0
H1852 H 0.3075 0.41819 0.81183 0.0
H1853 H 0.35317 0.44903 0.84935 0.0
H1854 H 0.22902 0.34248 0.82112 0.0
H1855 H 0.20389 0.39371 0.81975 0.0
H1856 H 0.24481 0.37815 0.80839 0.0
H1857 H 0.31838 0.42584 0.86803 0.0
H1858 H 0.26114 0.43054 0.86626 0.0
H1859 H 0.28537 0.3786 0.86648 0.0
H1860 H 0.12562 0.40803 0.85804 0.0
H1861 H 0.18415 0.28335 0.8596 0.0
H1862 H 0.19576 0.45307 0.83514 0.0
H1863 H 0.21356 0.46707 0.85081 0.0
H1864 H 0.157 0.46588 0.84744 0.0
H1865 H 0.26795 0.30374 0.83728 0.0
H1866 H 0.25092 0.26863 0.85002 0.0
H1867 H 0.28673 0.31278 0.85315 0.0
C1868 C 0.31058 0.2943 0.57148 0.0
C1869 C 0.31838 0.30979 0.55912 0.0
C1870 C 0.3404 0.30082 0.58127 0.0
C1871 C 0.37931 0.32251 0.57857 0.0
C1872 C 0.38667 0.3395 0.56623 0.0
C1873 C 0.35618 0.33274 0.55664 0.0
C1874 C 0.33102 0.28316 0.5944 0.0
C1875 C 0.42766 0.36292 0.56297 0.0
C1876 C 0.44964 0.35222 0.60686 0.0
C1877 C 0.47676 0.31644 0.60739 0.0
C1878 C 0.41797 0.35524 0.59741 0.0
C1879 C 0.4143 0.32219 0.58816 0.0
C1880 C 0.44305 0.2871 0.58836 0.0
C1881 C 0.47336 0.28424 0.5981 0.0
C1882 C 0.38824 0.3934 0.59739 0.0
C1883 C 0.44141 0.25223 0.57837 0.0
H1884 H 0.28166 0.27609 0.5734 0.0
H1885 H 0.36248 0.3443 0.54705 0.0
H1886 H 0.35647 0.26023 0.59716 0.0
H1887 H 0.33124 0.30954 0.60154 0.0
H1888 H 0.29947 0.26669 0.59492 0.0
H1889 H 0.42552 0.37991 0.55368 0.0
H1890 H 0.4357 0.38653 0.57054 0.0
H1891 H 0.4545 0.33965 0.56235 0.0
H1892 H 0.45256 0.37729 0.61402 0.0
H1893 H 0.495 0.25703 0.59833 0.0
H1894 H 0.3549 0.38268 0.59929 0.0
H1895 H 0.38855 0.40883 0.58786 0.0
H1896 H 0.39711 0.41768 0.60471 0.0
H1897 H 0.40964 0.23653 0.5788 0.0
H1898 H 0.46674 0.22766 0.57965 0.0
H1899 H 0.44503 0.26614 0.56869 0.0
C1900 C 0.45934 0.55396 0.30429 0.0
C1901 C 0.49644 0.55289 0.29663 0.0
C1902 C 0.46003 0.57159 0.31662 0.0
C1903 C 0.49828 0.59034 0.32118 0.0
C1904 C 0.53583 0.58967 0.31351 0.0
C1905 C 0.53481 0.5697 0.30148 0.0
C1906 C 0.41957 0.57103 0.32464 0.0
C1907 C 0.57666 0.61117 0.31787 0.0
C1908 C 0.48935 0.67945 0.34559 0.0
C1909 C 0.50455 0.65944 0.35661 0.0
C1910 C 0.48686 0.65718 0.33401 0.0
C1911 C 0.49847 0.6134 0.33359 0.0
C1912 C 0.51217 0.59252 0.34484 0.0
C1913 C 0.51619 0.61618 0.35624 0.0
C1914 C 0.4732 0.68093 0.32215 0.0
C1915 C 0.52236 0.54532 0.34479 0.0
H1916 H 0.42957 0.54112 0.30062 0.0
H1917 H 0.56384 0.56819 0.29575 0.0
H1918 H 0.42649 0.55951 0.33443 0.0
H1919 H 0.40663 0.60403 0.32555 0.0
H1920 H 0.39439 0.55026 0.3204 0.0
H1921 H 0.60195 0.6109 0.31035 0.0
H1922 H 0.57021 0.645 0.32059 0.0
H1923 H 0.58903 0.59483 0.32649 0.0
H1924 H 0.48089 0.71319 0.34593 0.0
H1925 H 0.52779 0.60091 0.36483 0.0
H1926 H 0.4448 0.66522 0.31787 0.0
H1927 H 0.49934 0.67989 0.3149 0.0
H1928 H 0.46519 0.71502 0.32416 0.0
H1929 H 0.4944 0.52683 0.34127 0.0
H1930 H 0.53073 0.5335 0.35445 0.0
H1931 H 0.54933 0.53891 0.3381 0.0
C1932 C 0.2138 0.43706 0.96408 0.0
C1933 C 0.23369 0.40351 0.97067 0.0
C1934 C 0.19124 0.42923 0.95273 0.0
C1935 C 0.18851 0.38685 0.94791 0.0
C1936 C 0.20759 0.35273 0.95472 0.0
C1937 C 0.22965 0.36145 0.96606 0.0
C1938 C 0.17097 0.46631 0.94579 0.0
C1939 C 0.2055 0.30704 0.9499 0.0
C1940 C 0.11025 0.347 0.92292 0.0
C1941 C 0.13765 0.34265 0.91231 0.0
C1942 C 0.12538 0.36453 0.93445 0.0
C1943 C 0.16871 0.37799 0.93528 0.0
C1944 C 0.19507 0.3774 0.92422 0.0
C1945 C 0.17919 0.35977 0.91288 0.0
C1946 C 0.09604 0.36527 0.94597 0.0
C1947 C 0.24129 0.39182 0.92462 0.0
H1948 H 0.21607 0.46948 0.9678 0.0
H1949 H 0.24407 0.33532 0.97131 0.0
H1950 H 0.18702 0.47075 0.93639 0.0
H1951 H 0.13669 0.45941 0.9439 0.0
H1952 H 0.17326 0.49679 0.95128 0.0
H1953 H 0.2206 0.28404 0.95658 0.0
H1954 H 0.17163 0.29739 0.94845 0.0
H1955 H 0.22209 0.30452 0.94051 0.0
H1956 H 0.07806 0.33394 0.92252 0.0
H1957 H 0.20028 0.35711 0.90462 0.0
H1958 H 0.09991 0.39551 0.95147 0.0
H1959 H 0.1045 0.33839 0.9524 0.0
H1960 H 0.06183 0.36174 0.94325 0.0
H1961 H 0.24409 0.42329 0.92952 0.0
H1962 H 0.25566 0.39451 0.91491 0.0
H1963 H 0.26033 0.36832 0.93014 0.0
C1964 C 0.42543 0.43122 0.71742 0.0
C1965 C 0.45724 0.42076 0.7263 0.0
C1966 C 0.4269 0.41519 0.70488 0.0
C1967 C 0.46035 0.38704 0.70125 0.0
C1968 C 0.4931 0.37707 0.71004 0.0
C1969 C 0.49182 0.39502 0.72233 0.0
C1970 C 0.39227 0.42776 0.69561 0.0
C1971 C 0.52888 0.34643 0.70658 0.0
C1972 C 0.44484 0.30265 0.67569 0.0
C1973 C 0.47198 0.31776 0.66597 0.0
C1974 C 0.43906 0.326 0.68703 0.0
C1975 C 0.46019 0.36583 0.68853 0.0
C1976 C 0.4847 0.3829 0.67831 0.0
C1977 C 0.49079 0.35832 0.66718 0.0
C1978 C 0.4129 0.30651 0.69774 0.0
C1979 C 0.50643 0.42594 0.6794 0.0
H1980 H 0.39904 0.45169 0.72029 0.0
H1981 H 0.51756 0.38803 0.72887 0.0
H1982 H 0.40676 0.43892 0.6865 0.0
H1983 H 0.3721 0.39946 0.69335 0.0
H1984 H 0.37124 0.45352 0.6995 0.0
H1985 H 0.51529 0.31443 0.70429 0.0
H1986 H 0.54601 0.35777 0.69792 0.0
H1987 H 0.55235 0.34269 0.71442 0.0
H1988 H 0.43033 0.27118 0.6748 0.0
H1989 H 0.51094 0.37039 0.65954 0.0
H1990 H 0.3889 0.32983 0.7014 0.0
H1991 H 0.43432 0.29836 0.70579 0.0
H1992 H 0.39589 0.27693 0.69468 0.0
H1993 H 0.48447 0.45006 0.68371 0.0
H1994 H 0.51781 0.43786 0.66998 0.0
H1995 H 0.5344 0.42298 0.68579 0.0
C1996 C 0.31951 0.55465 0.43424 0.0
C1997 C 0.32877 0.52636 0.44422 0.0
C1998 C 0.35132 0.58149 0.42913 0.0
C1999 C 0.39351 0.57944 0.43399 0.0
C2000 C 0.40267 0.55209 0.44438 0.0
C2001 C 0.37016 0.52591 0.44938 0.0
C2002 C 0.34024 0.61008 0.41803 0.0
C2003 C 0.44734 0.54867 0.44975 0.0
C2004 C 0.48475 0.59885 0.41082 0.0
C2005 C 0.4978 0.64042 0.41409 0.0
C2006 C 0.45042 0.57913 0.4171 0.0
C2007 C 0.42909 0.60122 0.42711 0.0
C2008 C 0.44203 0.64334 0.43049 0.0
C2009 C 0.47598 0.66289 0.42375 0.0
C2010 C 0.43738 0.53437 0.4131 0.0
C2011 C 0.42075 0.66707 0.44141 0.0
H2012 H 0.28755 0.55516 0.43024 0.0
H2013 H 0.37732 0.50416 0.45713 0.0
H2014 H 0.30515 0.61582 0.41743 0.0
H2015 H 0.35688 0.64142 0.41874 0.0
H2016 H 0.35093 0.59448 0.409 0.0
H2017 H 0.44795 0.53014 0.45879 0.0
H2018 H 0.46857 0.53241 0.44268 0.0
H2019 H 0.46093 0.58098 0.45155 0.0
H2020 H 0.5014 0.58171 0.40323 0.0
H2021 H 0.48634 0.69498 0.4263 0.0
H2022 H 0.40322 0.53411 0.41022 0.0
H2023 H 0.44059 0.51209 0.42128 0.0
H2024 H 0.45708 0.52193 0.40501 0.0
H2025 H 0.38558 0.66808 0.43999 0.0
H2026 H 0.43311 0.70027 0.4425 0.0
H2027 H 0.42634 0.6497 0.45047 0.0
C2028 C 0.2536 0.59221 0.2067 0.0
C2029 C 0.29121 0.57605 0.20103 0.0
C2030 C 0.226 0.61907 0.19988 0.0
C2031 C 0.23666 0.63057 0.18717 0.0
C2032 C 0.27674 0.61806 0.18192 0.0
C2033 C 0.30356 0.59087 0.18891 0.0
C2034 C 0.18368 0.63184 0.20587 0.0
C2035 C 0.28969 0.6303 0.16849 0.0
C2036 C 0.14359 0.63273 0.16433 0.0
C2037 C 0.13615 0.67679 0.16278 0.0
C2038 C 0.17639 0.61771 0.17213 0.0
C2039 C 0.20275 0.64739 0.17864 0.0
C2040 C 0.19601 0.69201 0.17705 0.0
C2041 C 0.16268 0.70627 0.1691 0.0
C2042 C 0.18257 0.56981 0.17344 0.0
C2043 C 0.22358 0.72453 0.18385 0.0
H2044 H 0.24463 0.58194 0.21624 0.0
H2045 H 0.33328 0.57953 0.18466 0.0
H2046 H 0.17655 0.66606 0.20399 0.0
H2047 H 0.15761 0.61249 0.20155 0.0
H2048 H 0.18323 0.6265 0.21636 0.0
H2049 H 0.32447 0.62508 0.16672 0.0
H2050 H 0.27146 0.6105 0.16157 0.0
H2051 H 0.28197 0.6644 0.16661 0.0
H2052 H 0.12372 0.60953 0.1594 0.0
H2053 H 0.1572 0.74035 0.16794 0.0
H2054 H 0.21547 0.56075 0.17037 0.0
H2055 H 0.15936 0.55109 0.16765 0.0
H2056 H 0.17878 0.56034 0.1836 0.0
H2057 H 0.21776 0.72257 0.1943 0.0
H2058 H 0.21683 0.75782 0.1807 0.0
H2059 H 0.25804 0.7175 0.18217 0.0
loop_
_geom_bond_atom_site_label_1
_geom_bond_atom_site_label_2
_geom_bond_distance
_geom_bond_site_symmetry_2
_ccdc_geom_bond_type
C0 C1 1.560 . S
C0 H61 0.959 . S
C0 H62 0.959 . S
C0 H63 0.960 . S
C1 C0 1.560 . S
C1 O56 1.426 . S
C1 H60 0.980 . S
C2 C3 1.407 . S
C2 C7 1.418 . S
C2 O56 1.334 . S
C3 C2 1.407 . S
C3 C4 1.360 . S
C3 H64 0.929 . S
C4 C3 1.360 . S
C4 C5 1.401 . S
C4 C8 1.527 . S
C5 C4 1.401 . S
C5 C6 1.405 . S
C5 C38 1.587 . S
C6 C5 1.405 . S
C6 C7 1.332 . S
C6 C9 1.496 1_565 S
C7 C2 1.418 . S
C7 C6 1.332 . S
C7 H65 0.931 . S
C8 C4 1.527 . S
C8 H66 0.959 . S
C8 H67 0.961 . S
C8 H68 0.961 . S
C9 C6 1.496 1_545 S
C9 H69 0.960 . S
C9 H70 0.960 . S
C9 H71 0.961 . S
C10 C11 1.517 . S
C10 H73 0.961 . S
C10 H74 0.960 . S
C10 H75 0.959 . S
C11 C10 1.517 . S
C11 O59 1.468 . S
C11 H72 0.980 . S
C12 C13 1.349 . S
C12 C17 1.367 . S
C12 O59 1.408 . S
C13 C12 1.349 . S
C13 C14 1.407 . S
C13 H76 0.930 . S
C14 C13 1.407 . S
C14 C15 1.449 . S
C14 C18 1.535 . S
C15 C14 1.449 . S
C15 C16 1.384 . S
C15 C40 1.553 . S
C16 C15 1.384 . S
C16 C17 1.364 . S
C16 C19 1.450 . S
C17 C12 1.367 . S
C17 C16 1.364 . S
C17 H77 0.931 . S
C18 C14 1.535 . S
C18 H78 0.959 . S
C18 H79 0.961 . S
C18 H80 0.959 . S
C19 C16 1.450 . S
C19 H81 0.960 . S
C19 H82 0.960 . S
C19 H83 0.960 . S
C20 C21 1.309 . S
C20 C25 1.304 . S
C20 O58 1.435 . S
C21 C20 1.309 . S
C21 C22 1.476 . S
C21 H85 0.930 . S
C22 C21 1.476 . S
C22 C23 1.400 . S
C22 C26 1.567 . S
C23 C22 1.400 . S
C23 C24 1.373 . S
C23 C45 1.432 . S
C24 C23 1.373 . S
C24 C25 1.339 . S
C24 C27 1.530 1_545 S
C25 C20 1.304 . S
C25 C24 1.339 . S
C25 H86 0.930 1_545 S
C26 C22 1.567 . S
C26 H87 0.961 . S
C26 H88 0.960 . S
C26 H89 0.958 . S
C27 C24 1.530 1_565 S
C27 H90 0.961 . S
C27 H91 0.960 . S
C27 H92 0.960 . S
C28 C29 1.530 . S
C28 H94 0.961 . S
C28 H95 0.961 . S
C28 H96 0.959 . S
C29 C28 1.530 . S
C29 O57 1.412 . S
C29 H93 0.980 . S
C30 C31 1.288 . S
C30 C35 1.377 . S
C30 O57 1.393 . S
C31 C30 1.288 . S
C31 C32 1.369 . S
C31 H97 0.932 . S
C32 C31 1.369 . S
C32 C33 1.398 . S
C32 C36 1.527 . S
C33 C32 1.398 . S
C33 C34 1.380 . S
C33 C47 1.497 . S
C34 C33 1.380 . S
C34 C35 1.383 . S
C34 C37 1.603 1_545 S
C35 C30 1.377 . S
C35 C34 1.383 . S
C35 H98 0.929 . S
C36 C32 1.527 . S
C36 H99 0.961 . S
C36 H100 0.959 . S
C36 H101 0.959 . S
C37 C34 1.603 1_565 S
C37 H102 0.960 . S
C37 H103 0.962 . S
C37 H104 0.961 . S
C38 C5 1.587 . S
C38 C39 1.360 1_655 S
C38 C51 1.412 . S
C39 C38 1.360 1_455 S
C39 C40 1.365 . S
C39 H105 0.929 . S
C40 C15 1.553 . S
C40 C39 1.365 . S
C40 C41 1.404 . S
C41 C40 1.404 . S
C41 C42 1.395 . S
C41 C52 1.451 . S
C42 C41 1.395 . S
C42 C43 1.322 . S
C42 H106 0.930 . S
C43 C42 1.322 . S
C43 C44 1.459 . S
C43 H107 0.929 . S
C44 C43 1.459 . S
C44 C45 1.445 1_565 S
C44 C53 1.395 . S
C45 C23 1.432 . S
C45 C44 1.445 1_545 S
C45 C46 1.370 . S
C46 C45 1.370 . S
C46 C47 1.438 1_455 S
C46 H108 0.930 . S
C47 C33 1.497 . S
C47 C46 1.438 1_655 S
C47 C48 1.360 . S
C48 C47 1.360 . S
C48 C49 1.401 . S
C48 C53 1.446 1_645 S
C49 C48 1.401 . S
C49 C50 1.347 1_545 S
C49 H109 0.929 . S
C50 C49 1.347 1_565 S
C50 C51 1.455 . S
C50 H110 0.930 . S
C51 C38 1.412 . S
C51 C50 1.455 . S
C51 C52 1.331 1_655 S
C52 C41 1.451 . S
C52 C51 1.331 1_455 S
C52 C53 1.497 . S
C53 C44 1.395 . S
C53 C48 1.446 1_465 S
C53 C52 1.497 . S
C54 C55 1.582 . S
C54 H111 0.962 . S
C54 H112 0.959 . S
C54 H113 0.958 . S
C55 C54 1.582 . S
C55 O58 1.458 . S
C55 H84 0.980 . S
O56 C1 1.426 . S
O56 C2 1.334 . S
O57 C29 1.412 . S
O57 C30 1.393 . S
O58 C20 1.435 . S
O58 C55 1.458 . S
O59 C11 1.468 . S
O59 C12 1.408 . S
H60 C1 0.980 . S
H61 C0 0.959 . S
H62 C0 0.959 . S
H63 C0 0.960 . S
H64 C3 0.929 . S
H65 C7 0.931 . S
H66 C8 0.959 . S
H67 C8 0.961 . S
H68 C8 0.961 . S
H69 C9 0.960 . S
H70 C9 0.960 . S
H71 C9 0.961 . S
H72 C11 0.980 . S
H73 C10 0.961 . S
H74 C10 0.960 . S
H75 C10 0.959 . S
H76 C13 0.930 . S
H77 C17 0.931 . S
H78 C18 0.959 . S
H79 C18 0.961 . S
H80 C18 0.959 . S
H81 C19 0.960 . S
H82 C19 0.960 . S
H83 C19 0.960 . S
H84 C55 0.980 . S
H85 C21 0.930 . S
H86 C25 0.930 1_565 S
H87 C26 0.961 . S
H88 C26 0.960 . S
H89 C26 0.958 . S
H90 C27 0.961 . S
H91 C27 0.960 . S
H92 C27 0.960 . S
H93 C29 0.980 . S
H94 C28 0.961 . S
H95 C28 0.961 . S
H96 C28 0.959 . S
H97 C31 0.932 . S
H98 C35 0.929 . S
H99 C36 0.961 . S
H100 C36 0.959 . S
H101 C36 0.959 . S
H102 C37 0.960 . S
H103 C37 0.962 . S
H104 C37 0.961 . S
H105 C39 0.929 . S
H106 C42 0.930 . S
H107 C43 0.929 . S
H108 C46 0.930 . S
H109 C49 0.929 . S
H110 C50 0.930 . S
H111 C54 0.962 . S
H112 C54 0.959 . S
H113 C54 0.958 . S
C114 C115 1.560 . S
C114 H175 0.959 . S
C114 H176 0.959 . S
C114 H177 0.960 . S
C115 C114 1.560 . S
C115 O170 1.426 . S
C115 H174 0.980 . S
C116 C117 1.407 . S
C116 C121 1.418 . S
C116 O170 1.334 . S
C117 C116 1.407 . S
C117 C118 1.360 . S
C117 H178 0.929 . S
C118 C117 1.360 . S
C118 C119 1.401 . S
C118 C122 1.527 . S
C119 C118 1.401 . S
C119 C120 1.405 . S
C119 C152 1.587 . S
C120 C119 1.405 . S
C120 C121 1.332 . S
C120 C123 1.496 . S
C121 C116 1.418 . S
C121 C120 1.332 . S
C121 H179 0.929 . S
C122 C118 1.527 . S
C122 H180 0.959 . S
C122 H181 0.961 . S
C122 H182 0.961 . S
C123 C120 1.496 . S
C123 H183 0.960 . S
C123 H184 0.960 . S
C123 H185 0.961 . S
C124 C125 1.517 . S
C124 H187 0.961 . S
C124 H188 0.960 . S
C124 H189 0.959 . S
C125 C124 1.517 . S
C125 O173 1.468 . S
C125 H186 0.980 . S
C126 C127 1.349 . S
C126 C131 1.367 . S
C126 O173 1.408 . S
C127 C126 1.349 . S
C127 C128 1.407 . S
C127 H190 0.930 . S
C128 C127 1.407 . S
C128 C129 1.449 . S
C128 C132 1.535 . S
C129 C128 1.449 . S
C129 C130 1.384 . S
C129 C154 1.553 . S
C130 C129 1.384 . S
C130 C131 1.364 . S
C130 C133 1.450 . S
C131 C126 1.367 . S
C131 C130 1.364 . S
C131 H191 0.931 . S
C132 C128 1.535 . S
C132 H192 0.959 . S
C132 H193 0.961 . S
C132 H194 0.959 . S
C133 C130 1.450 . S
C133 H195 0.960 . S
C133 H196 0.960 . S
C133 H197 0.960 . S
C134 C135 1.309 . S
C134 C139 1.304 . S
C134 O172 1.435 . S
C135 C134 1.309 . S
C135 C136 1.476 . S
C135 H199 0.930 . S
C136 C135 1.476 . S
C136 C137 1.400 . S
C136 C140 1.567 . S
C137 C136 1.400 . S
C137 C138 1.373 . S
C137 C159 1.432 . S
C138 C137 1.373 . S
C138 C139 1.339 . S
C138 C141 1.530 . S
C139 C134 1.304 . S
C139 C138 1.339 . S
C139 H200 0.930 . S
C140 C136 1.567 . S
C140 H201 0.961 . S
C140 H202 0.960 . S
C140 H203 0.958 . S
C141 C138 1.530 . S
C141 H204 0.961 . S
C141 H205 0.960 . S
C141 H206 0.960 . S
C142 C143 1.530 . S
C142 H208 0.961 . S
C142 H209 0.961 . S
C142 H210 0.959 . S
C143 C142 1.530 . S
C143 O171 1.412 . S
C143 H207 0.980 . S
C144 C145 1.288 . S
C144 C149 1.377 . S
C144 O171 1.393 . S
C145 C144 1.288 . S
C145 C146 1.369 . S
C145 H211 0.932 . S
C146 C145 1.369 . S
C146 C147 1.398 . S
C146 C150 1.527 . S
C147 C146 1.398 . S
C147 C148 1.380 . S
C147 C161 1.497 . S
C148 C147 1.380 . S
C148 C149 1.383 . S
C148 C151 1.603 . S
C149 C144 1.377 . S
C149 C148 1.383 . S
C149 H212 0.929 . S
C150 C146 1.527 . S
C150 H213 0.961 . S
C150 H214 0.959 . S
C150 H215 0.959 . S
C151 C148 1.603 . S
C151 H216 0.960 . S
C151 H217 0.962 . S
C151 H218 0.961 . S
C152 C119 1.587 . S
C152 C153 1.360 . S
C152 C165 1.412 . S
C153 C152 1.360 . S
C153 C154 1.365 . S
C153 H219 0.929 . S
C154 C129 1.553 . S
C154 C153 1.365 . S
C154 C155 1.404 . S
C155 C154 1.404 . S
C155 C156 1.395 . S
C155 C166 1.451 . S
C156 C155 1.395 . S
C156 C157 1.322 . S
C156 H220 0.930 . S
C157 C156 1.322 . S
C157 C158 1.459 . S
C157 H221 0.929 . S
C158 C157 1.459 . S
C158 C159 1.445 . S
C158 C167 1.395 . S
C159 C137 1.432 . S
C159 C158 1.445 . S
C159 C160 1.370 . S
C160 C159 1.370 . S
C160 C161 1.438 . S
C160 H222 0.930 . S
C161 C147 1.497 . S
C161 C160 1.438 . S
C161 C162 1.360 . S
C162 C161 1.360 . S
C162 C163 1.401 . S
C162 C167 1.446 . S
C163 C162 1.401 . S
C163 C164 1.347 . S
C163 H223 0.929 . S
C164 C163 1.347 . S
C164 C165 1.455 . S
C164 H224 0.930 . S
C165 C152 1.412 . S
C165 C164 1.455 . S
C165 C166 1.331 . S
C166 C155 1.451 . S
C166 C165 1.331 . S
C166 C167 1.497 . S
C167 C158 1.395 . S
C167 C162 1.446 . S
C167 C166 1.497 . S
C168 C169 1.582 . S
C168 H225 0.962 . S
C168 H226 0.959 . S
C168 H227 0.958 . S
C169 C168 1.582 . S
C169 O172 1.458 . S
C169 H198 0.980 . S
O170 C115 1.426 . S
O170 C116 1.334 . S
O171 C143 1.412 . S
O171 C144 1.393 . S
O172 C134 1.435 . S
O172 C169 1.458 . S
O173 C125 1.468 . S
O173 C126 1.408 . S
H174 C115 0.980 . S
H175 C114 0.959 . S
H176 C114 0.959 . S
H177 C114 0.960 . S
H178 C117 0.929 . S
H179 C121 0.929 . S
H180 C122 0.959 . S
H181 C122 0.961 . S
H182 C122 0.961 . S
H183 C123 0.960 . S
H184 C123 0.960 . S
H185 C123 0.961 . S
H186 C125 0.980 . S
H187 C124 0.961 . S
H188 C124 0.960 . S
H189 C124 0.959 . S
H190 C127 0.930 . S
H191 C131 0.931 . S
H192 C132 0.959 . S
H193 C132 0.961 . S
H194 C132 0.959 . S
H195 C133 0.960 . S
H196 C133 0.960 . S
H197 C133 0.960 . S
H198 C169 0.980 . S
H199 C135 0.930 . S
H200 C139 0.930 . S
H201 C140 0.961 . S
H202 C140 0.960 . S
H203 C140 0.958 . S
H204 C141 0.961 . S
H205 C141 0.960 . S
H206 C141 0.960 . S
H207 C143 0.980 . S
H208 C142 0.961 . S
H209 C142 0.961 . S
H210 C142 0.959 . S
H211 C145 0.932 . S
H212 C149 0.929 . S
H213 C150 0.961 . S
H214 C150 0.959 . S
H215 C150 0.959 . S
H216 C151 0.960 . S
H217 C151 0.962 . S
H218 C151 0.961 . S
H219 C153 0.929 . S
H220 C156 0.930 . S
H221 C157 0.929 . S
H222 C160 0.930 . S
H223 C163 0.929 . S
H224 C164 0.930 . S
H225 C168 0.962 . S
H226 C168 0.959 . S
H227 C168 0.958 . S
C228 C229 1.560 . S
C228 H289 0.959 . S
C228 H290 0.959 . S
C228 H291 0.960 . S
C229 C228 1.560 . S
C229 O284 1.426 . S
C229 H288 0.980 . S
C230 C231 1.407 . S
C230 C235 1.418 . S
C230 O284 1.334 . S
C231 C230 1.407 . S
C231 C232 1.360 . S
C231 H292 0.929 . S
C232 C231 1.360 . S
C232 C233 1.401 . S
C232 C236 1.527 . S
C233 C232 1.401 . S
C233 C234 1.405 . S
C233 C266 1.587 . S
C234 C233 1.405 . S
C234 C235 1.332 . S
C234 C237 1.496 1_565 S
C235 C230 1.418 . S
C235 C234 1.332 . S
C235 H293 0.929 . S
C236 C232 1.527 . S
C236 H294 0.959 . S
C236 H295 0.961 . S
C236 H296 0.961 . S
C237 C234 1.496 1_545 S
C237 H297 0.960 . S
C237 H298 0.961 . S
C237 H299 0.961 . S
C238 C239 1.517 . S
C238 H301 0.961 . S
C238 H302 0.960 . S
C238 H303 0.959 . S
C239 C238 1.517 . S
C239 O287 1.468 . S
C239 H300 0.980 . S
C240 C241 1.349 . S
C240 C245 1.367 . S
C240 O287 1.408 . S
C241 C240 1.349 . S
C241 C242 1.407 . S
C241 H304 0.930 . S
C242 C241 1.407 . S
C242 C243 1.449 . S
C242 C246 1.535 . S
C243 C242 1.449 . S
C243 C244 1.384 . S
C243 C268 1.553 . S
C244 C243 1.384 . S
C244 C245 1.364 . S
C244 C247 1.450 . S
C245 C240 1.367 . S
C245 C244 1.364 . S
C245 H305 0.931 . S
C246 C242 1.535 . S
C246 H306 0.959 . S
C246 H307 0.961 . S
C246 H308 0.959 . S
C247 C244 1.450 . S
C247 H309 0.960 . S
C247 H310 0.960 . S
C247 H311 0.960 . S
C248 C249 1.309 . S
C248 C253 1.304 . S
C248 O286 1.435 . S
C249 C248 1.309 . S
C249 C250 1.476 . S
C249 H313 0.930 . S
C250 C249 1.476 . S
C250 C251 1.400 . S
C250 C254 1.567 . S
C251 C250 1.400 . S
C251 C252 1.373 . S
C251 C273 1.432 . S
C252 C251 1.373 . S
C252 C253 1.339 . S
C252 C255 1.530 1_545 S
C253 C248 1.304 . S
C253 C252 1.339 . S
C253 H314 0.930 1_545 S
C254 C250 1.567 . S
C254 H315 0.961 1_556 S
C254 H316 0.960 1_556 S
C254 H317 0.958 . S
C255 C252 1.530 1_565 S
C255 H318 0.961 . S
C255 H319 0.960 . S
C255 H320 0.960 . S
C256 C257 1.530 . S
C256 H322 0.961 . S
C256 H323 0.961 . S
C256 H324 0.959 . S
C257 C256 1.530 . S
C257 O285 1.412 . S
C257 H321 0.980 . S
C258 C259 1.288 . S
C258 C263 1.377 . S
C258 O285 1.393 . S
C259 C258 1.288 . S
C259 C260 1.369 . S
C259 H325 0.932 . S
C260 C259 1.369 . S
C260 C261 1.398 . S
C260 C264 1.527 . S
C261 C260 1.398 . S
C261 C262 1.380 . S
C261 C275 1.497 . S
C262 C261 1.380 . S
C262 C263 1.383 . S
C262 C265 1.603 1_545 S
C263 C258 1.377 . S
C263 C262 1.383 . S
C263 H326 0.929 . S
C264 C260 1.527 . S
C264 H327 0.961 1_556 S
C264 H328 0.959 . S
C264 H329 0.959 1_556 S
C265 C262 1.603 1_565 S
C265 H330 0.960 . S
C265 H331 0.962 . S
C265 H332 0.961 . S
C266 C233 1.587 . S
C266 C267 1.360 . S
C266 C279 1.412 . S
C267 C266 1.360 . S
C267 C268 1.365 . S
C267 H333 0.929 . S
C268 C243 1.553 . S
C268 C267 1.365 . S
C268 C269 1.404 . S
C269 C268 1.404 . S
C269 C270 1.395 . S
C269 C280 1.451 . S
C270 C269 1.395 . S
C270 C271 1.322 . S
C270 H334 0.930 . S
C271 C270 1.322 . S
C271 C272 1.452 1_554 S
C271 H335 0.969 . S
C272 C271 1.452 1_556 S
C272 C273 1.461 1_565 S
C272 C281 1.387 1_556 S
C273 C251 1.432 . S
C273 C272 1.461 1_545 S
C273 C274 1.370 . S
C274 C273 1.370 . S
C274 C275 1.438 . S
C274 H336 0.930 . S
C275 C261 1.497 . S
C275 C274 1.438 . S
C275 C276 1.360 1_556 S
C276 C275 1.360 1_554 S
C276 C277 1.401 . S
C276 C281 1.446 1_545 S
C277 C276 1.401 . S
C277 C278 1.347 1_545 S
C277 H337 0.929 . S
C278 C277 1.347 1_565 S
C278 C279 1.455 . S
C278 H338 0.930 . S
C279 C266 1.412 . S
C279 C278 1.455 . S
C279 C280 1.331 . S
C280 C269 1.451 . S
C280 C279 1.331 . S
C280 C281 1.497 . S
C281 C272 1.387 1_554 S
C281 C276 1.446 1_565 S
C281 C280 1.497 . S
C282 C283 1.582 . S
C282 H339 0.962 . S
C282 H340 0.959 . S
C282 H341 0.958 . S
C283 C282 1.582 . S
C283 O286 1.458 . S
C283 H312 0.980 . S
O284 C229 1.426 . S
O284 C230 1.334 . S
O285 C257 1.412 . S
O285 C258 1.393 . S
O286 C248 1.435 . S
O286 C283 1.458 . S
O287 C239 1.468 . S
O287 C240 1.408 . S
H288 C229 0.980 . S
H289 C228 0.959 . S
H290 C228 0.959 . S
H291 C228 0.960 . S
H292 C231 0.929 . S
H293 C235 0.929 . S
H294 C236 0.959 . S
H295 C236 0.961 . S
H296 C236 0.961 . S
H297 C237 0.960 . S
H298 C237 0.961 . S
H299 C237 0.961 . S
H300 C239 0.980 . S
H301 C238 0.961 . S
H302 C238 0.960 . S
H303 C238 0.959 . S
H304 C241 0.930 . S
H305 C245 0.931 . S
H306 C246 0.959 . S
H307 C246 0.961 . S
H308 C246 0.959 . S
H309 C247 0.960 . S
H310 C247 0.960 . S
H311 C247 0.960 . S
H312 C283 0.980 . S
H313 C249 0.930 . S
H314 C253 0.930 1_565 S
H315 C254 0.961 1_554 S
H316 C254 0.960 1_554 S
H317 C254 0.958 . S
H318 C255 0.961 . S
H319 C255 0.960 . S
H320 C255 0.960 . S
H321 C257 0.980 . S
H322 C256 0.961 . S
H323 C256 0.961 . S
H324 C256 0.959 . S
H325 C259 0.932 . S
H326 C263 0.929 . S
H327 C264 0.961 1_554 S
H328 C264 0.959 . S
H329 C264 0.959 1_554 S
H330 C265 0.960 . S
H331 C265 0.962 . S
H332 C265 0.961 . S
H333 C267 0.929 . S
H334 C270 0.930 . S
H335 C271 0.969 . S
H336 C274 0.930 . S
H337 C277 0.929 . S
H338 C278 0.930 . S
H339 C282 0.962 . S
H340 C282 0.959 . S
H341 C282 0.958 . S
C342 C343 1.560 . S
C342 H403 0.959 . S
C342 H404 0.959 . S
C342 H405 0.960 . S
C343 C342 1.560 . S
C343 O398 1.426 . S
C343 H402 0.980 . S
C344 C345 1.407 . S
C344 C349 1.418 . S
C344 O398 1.334 . S
C345 C344 1.407 . S
C345 C346 1.360 . S
C345 H406 0.929 . S
C346 C345 1.360 . S
C346 C347 1.401 . S
C346 C350 1.527 . S
C347 C346 1.401 . S
C347 C348 1.405 . S
C347 C380 1.587 . S
C348 C347 1.405 . S
C348 C349 1.332 . S
C348 C351 1.496 . S
C349 C344 1.418 . S
C349 C348 1.332 . S
C349 H407 0.929 . S
C350 C346 1.527 . S
C350 H408 0.959 . S
C350 H409 0.961 . S
C350 H410 0.961 . S
C351 C348 1.496 . S
C351 H411 0.960 . S
C351 H412 0.960 . S
C351 H413 0.961 . S
C352 C353 1.517 . S
C352 H415 0.961 . S
C352 H416 0.960 . S
C352 H417 0.959 . S
C353 C352 1.517 . S
C353 O401 1.468 . S
C353 H414 0.980 . S
C354 C355 1.349 . S
C354 C359 1.367 . S
C354 O401 1.408 . S
C355 C354 1.349 . S
C355 C356 1.407 . S
C355 H418 0.930 . S
C356 C355 1.407 . S
C356 C357 1.449 . S
C356 C360 1.535 . S
C357 C356 1.449 . S
C357 C358 1.384 . S
C357 C382 1.553 . S
C358 C357 1.384 . S
C358 C359 1.364 . S
C358 C361 1.450 . S
C359 C354 1.367 . S
C359 C358 1.364 . S
C359 H419 0.931 . S
C360 C356 1.535 . S
C360 H420 0.959 . S
C360 H421 0.961 . S
C360 H422 0.959 . S
C361 C358 1.450 . S
C361 H423 0.960 . S
C361 H424 0.960 . S
C361 H425 0.960 . S
C362 C363 1.309 . S
C362 C367 1.304 . S
C362 O400 1.435 . S
C363 C362 1.309 . S
C363 C364 1.476 . S
C363 H427 0.930 . S
C364 C363 1.476 . S
C364 C365 1.400 . S
C364 C368 1.567 . S
C365 C364 1.400 . S
C365 C366 1.373 . S
C365 C387 1.432 . S
C366 C365 1.373 . S
C366 C367 1.339 . S
C366 C369 1.530 . S
C367 C362 1.304 . S
C367 C366 1.339 . S
C367 H428 0.930 . S
C368 C364 1.567 . S
C368 H429 0.961 . S
C368 H430 0.960 . S
C368 H431 0.958 . S
C369 C366 1.530 . S
C369 H432 0.961 . S
C369 H433 0.960 . S
C369 H434 0.960 . S
C370 C371 1.530 . S
C370 H436 0.961 . S
C370 H437 0.961 . S
C370 H438 0.959 . S
C371 C370 1.530 . S
C371 O399 1.412 . S
C371 H435 0.980 . S
C372 C373 1.288 . S
C372 C377 1.377 . S
C372 O399 1.393 . S
C373 C372 1.288 . S
C373 C374 1.369 . S
C373 H439 0.932 . S
C374 C373 1.369 . S
C374 C375 1.398 . S
C374 C378 1.527 . S
C375 C374 1.398 . S
C375 C376 1.380 . S
C375 C389 1.497 . S
C376 C375 1.380 . S
C376 C377 1.383 . S
C376 C379 1.603 . S
C377 C372 1.377 . S
C377 C376 1.383 . S
C377 H440 0.929 . S
C378 C374 1.527 . S
C378 H441 0.961 . S
C378 H442 0.959 . S
C378 H443 0.959 . S
C379 C376 1.603 . S
C379 H444 0.960 . S
C379 H445 0.962 . S
C379 H446 0.961 . S
C380 C347 1.587 . S
C380 C381 1.360 . S
C380 C393 1.412 . S
C381 C380 1.360 . S
C381 C382 1.365 . S
C381 H447 0.929 . S
C382 C357 1.553 . S
C382 C381 1.365 . S
C382 C383 1.404 . S
C383 C382 1.404 . S
C383 C384 1.395 . S
C383 C394 1.451 . S
C384 C383 1.395 . S
C384 C385 1.322 . S
C384 H448 0.930 . S
C385 C384 1.322 . S
C385 C386 1.459 . S
C385 H449 0.929 . S
C386 C385 1.459 . S
C386 C387 1.445 . S
C386 C395 1.395 . S
C387 C365 1.432 . S
C387 C386 1.445 . S
C387 C388 1.370 . S
C388 C387 1.370 . S
C388 C389 1.438 . S
C388 H450 0.930 . S
C389 C375 1.497 . S
C389 C388 1.438 . S
C389 C390 1.360 . S
C390 C389 1.360 . S
C390 C391 1.401 . S
C390 C395 1.446 . S
C391 C390 1.401 . S
C391 C392 1.347 . S
C391 H451 0.929 . S
C392 C391 1.347 . S
C392 C393 1.455 . S
C392 H452 0.930 . S
C393 C380 1.412 . S
C393 C392 1.455 . S
C393 C394 1.331 . S
C394 C383 1.451 . S
C394 C393 1.331 . S
C394 C395 1.497 . S
C395 C386 1.395 . S
C395 C390 1.446 . S
C395 C394 1.497 . S
C396 C397 1.582 . S
C396 H453 0.962 . S
C396 H454 0.959 . S
C396 H455 0.958 . S
C397 C396 1.582 . S
C397 O400 1.458 . S
C397 H426 0.980 . S
O398 C343 1.426 . S
O398 C344 1.334 . S
O399 C371 1.412 . S
O399 C372 1.393 . S
O400 C362 1.435 . S
O400 C397 1.458 . S
O401 C353 1.468 . S
O401 C354 1.408 . S
H402 C343 0.980 . S
H403 C342 0.959 . S
H404 C342 0.959 . S
H405 C342 0.960 . S
H406 C345 0.929 . S
H407 C349 0.929 . S
H408 C350 0.959 . S
H409 C350 0.961 . S
H410 C350 0.961 . S
H411 C351 0.960 . S
H412 C351 0.960 . S
H413 C351 0.961 . S
H414 C353 0.980 . S
H415 C352 0.961 . S
H416 C352 0.960 . S
H417 C352 0.959 . S
H418 C355 0.930 . S
H419 C359 0.931 . S
H420 C360 0.959 . S
H421 C360 0.961 . S
H422 C360 0.959 . S
H423 C361 0.960 . S
H424 C361 0.960 . S
H425 C361 0.960 . S
H426 C397 0.980 . S
H427 C363 0.930 . S
H428 C367 0.930 . S
H429 C368 0.961 . S
H430 C368 0.960 . S
H431 C368 0.958 . S
H432 C369 0.961 . S
H433 C369 0.960 . S
H434 C369 0.960 . S
H435 C371 0.980 . S
H436 C370 0.961 . S
H437 C370 0.961 . S
H438 C370 0.959 . S
H439 C373 0.932 . S
H440 C377 0.929 . S
H441 C378 0.961 . S
H442 C378 0.959 . S
H443 C378 0.959 . S
H444 C379 0.960 . S
H445 C379 0.962 . S
H446 C379 0.961 . S
H447 C381 0.929 . S
H448 C384 0.930 . S
H449 C385 0.929 . S
H450 C388 0.930 . S
H451 C391 0.929 . S
H452 C392 0.930 . S
H453 C396 0.962 . S
H454 C396 0.959 . S
H455 C396 0.958 . S
C456 C457 1.560 . S
C456 H517 0.959 . S
C456 H518 0.959 . S
C456 H519 0.960 . S
C457 C456 1.560 . S
C457 O512 1.426 . S
C457 H516 0.980 . S
C458 C459 1.407 . S
C458 C463 1.418 . S
C458 O512 1.334 . S
C459 C458 1.407 . S
C459 C460 1.360 . S
C459 H520 0.929 . S
C460 C459 1.360 . S
C460 C461 1.401 . S
C460 C464 1.527 . S
C461 C460 1.401 . S
C461 C462 1.405 . S
C461 C494 1.587 . S
C462 C461 1.405 . S
C462 C463 1.332 . S
C462 C465 1.496 . S
C463 C458 1.418 . S
C463 C462 1.332 . S
C463 H521 0.929 . S
C464 C460 1.527 . S
C464 H522 0.959 . S
C464 H523 0.961 . S
C464 H524 0.961 . S
C465 C462 1.496 . S
C465 H525 0.960 . S
C465 H526 0.960 . S
C465 H527 0.961 . S
C466 C467 1.517 . S
C466 H529 0.961 . S
C466 H530 0.960 . S
C466 H531 0.959 . S
C467 C466 1.517 . S
C467 O515 1.468 . S
C467 H528 0.980 . S
C468 C469 1.349 . S
C468 C473 1.367 . S
C468 O515 1.408 1_545 S
C469 C468 1.349 . S
C469 C470 1.407 . S
C469 H532 0.930 . S
C470 C469 1.407 . S
C470 C471 1.449 . S
C470 C474 1.535 . S
C471 C470 1.449 . S
C471 C472 1.384 . S
C471 C496 1.553 . S
C472 C471 1.384 . S
C472 C473 1.364 . S
C472 C475 1.450 . S
C473 C468 1.367 . S
C473 C472 1.364 . S
C473 H533 0.931 . S
C474 C470 1.535 . S
C474 H534 0.959 . S
C474 H535 0.961 . S
C474 H536 0.959 . S
C475 C472 1.450 . S
C475 H537 0.960 . S
C475 H538 0.960 . S
C475 H539 0.960 . S
C476 C477 1.309 . S
C476 C481 1.304 . S
C476 O514 1.435 1_545 S
C477 C476 1.309 . S
C477 C478 1.476 . S
C477 H541 0.930 . S
C478 C477 1.476 . S
C478 C479 1.400 . S
C478 C482 1.567 . S
C479 C478 1.400 . S
C479 C480 1.373 . S
C479 C501 1.432 . S
C480 C479 1.373 . S
C480 C481 1.339 . S
C480 C483 1.530 . S
C481 C476 1.304 . S
C481 C480 1.339 . S
C481 H542 0.930 . S
C482 C478 1.567 . S
C482 H543 0.961 . S
C482 H544 0.960 . S
C482 H545 0.958 . S
C483 C480 1.530 . S
C483 H546 0.961 . S
C483 H547 0.960 . S
C483 H548 0.960 . S
C484 C485 1.530 . S
C484 H550 0.961 . S
C484 H551 0.961 . S
C484 H552 0.959 . S
C485 C484 1.530 . S
C485 O513 1.412 . S
C485 H549 0.980 . S
C486 C487 1.288 . S
C486 C491 1.377 . S
C486 O513 1.393 . S
C487 C486 1.288 . S
C487 C488 1.369 . S
C487 H553 0.932 . S
C488 C487 1.369 . S
C488 C489 1.398 . S
C488 C492 1.527 . S
C489 C488 1.398 . S
C489 C490 1.380 . S
C489 C503 1.497 . S
C490 C489 1.380 . S
C490 C491 1.383 . S
C490 C493 1.603 . S
C491 C486 1.377 . S
C491 C490 1.383 . S
C491 H554 0.929 . S
C492 C488 1.527 . S
C492 H555 0.961 . S
C492 H556 0.959 . S
C492 H557 0.959 . S
C493 C490 1.603 . S
C493 H558 0.960 . S
C493 H559 0.962 . S
C493 H560 0.961 . S
C494 C461 1.587 . S
C494 C495 1.360 . S
C494 C507 1.412 . S
C495 C494 1.360 . S
C495 C496 1.365 . S
C495 H561 0.929 . S
C496 C471 1.553 . S
C496 C495 1.365 . S
C496 C497 1.404 . S
C497 C496 1.404 . S
C497 C498 1.395 . S
C497 C508 1.451 . S
C498 C497 1.395 . S
C498 C499 1.322 . S
C498 H562 0.930 . S
C499 C498 1.322 . S
C499 C500 1.459 . S
C499 H563 0.929 . S
C500 C499 1.459 . S
C500 C501 1.445 . S
C500 C509 1.395 . S
C501 C479 1.432 . S
C501 C500 1.445 . S
C501 C502 1.370 . S
C502 C501 1.370 . S
C502 C503 1.438 . S
C502 H564 0.930 . S
C503 C489 1.497 . S
C503 C502 1.438 . S
C503 C504 1.360 . S
C504 C503 1.360 . S
C504 C505 1.401 . S
C504 C509 1.446 . S
C505 C504 1.401 . S
C505 C506 1.347 . S
C505 H565 0.929 . S
C506 C505 1.347 . S
C506 C507 1.455 . S
C506 H566 0.930 . S
C507 C494 1.412 . S
C507 C506 1.455 . S
C507 C508 1.331 . S
C508 C497 1.451 . S
C508 C507 1.331 . S
C508 C509 1.497 . S
C509 C500 1.395 . S
C509 C504 1.446 . S
C509 C508 1.497 . S
C510 C511 1.582 . S
C510 H567 0.962 . S
C510 H568 0.959 . S
C510 H569 0.958 . S
C511 C510 1.582 . S
C511 O514 1.458 . S
C511 H540 0.980 . S
O512 C457 1.426 . S
O512 C458 1.334 . S
O513 C485 1.412 . S
O513 C486 1.393 . S
O514 C476 1.435 1_565 S
O514 C511 1.458 . S
O515 C467 1.468 . S
O515 C468 1.408 1_565 S
H516 C457 0.980 . S
H517 C456 0.959 . S
H518 C456 0.959 . S
H519 C456 0.960 . S
H520 C459 0.929 . S
H521 C463 0.929 . S
H522 C464 0.959 . S
H523 C464 0.961 . S
H524 C464 0.961 . S
H525 C465 0.960 . S
H526 C465 0.960 . S
H527 C465 0.961 . S
H528 C467 0.980 . S
H529 C466 0.961 . S
H530 C466 0.960 . S
H531 C466 0.959 . S
H532 C469 0.930 . S
H533 C473 0.931 . S
H534 C474 0.959 . S
H535 C474 0.961 . S
H536 C474 0.959 . S
H537 C475 0.960 . S
H538 C475 0.960 . S
H539 C475 0.960 . S
H540 C511 0.980 . S
H541 C477 0.930 . S
H542 C481 0.930 . S
H543 C482 0.961 . S
H544 C482 0.960 . S
H545 C482 0.958 . S
H546 C483 0.961 . S
H547 C483 0.960 . S
H548 C483 0.960 . S
H549 C485 0.980 . S
H550 C484 0.961 . S
H551 C484 0.961 . S
H552 C484 0.959 . S
H553 C487 0.932 . S
H554 C491 0.929 . S
H555 C492 0.961 . S
H556 C492 0.959 . S
H557 C492 0.959 . S
H558 C493 0.960 . S
H559 C493 0.962 . S
H560 C493 0.961 . S
H561 C495 0.929 . S
H562 C498 0.930 . S
H563 C499 0.929 . S
H564 C502 0.930 . S
H565 C505 0.929 . S
H566 C506 0.930 . S
H567 C510 0.962 . S
H568 C510 0.959 . S
H569 C510 0.958 . S
C570 C571 1.560 . S
C570 H631 0.959 . S
C570 H632 0.959 . S
C570 H633 0.960 . S
C571 C570 1.560 . S
C571 O626 1.426 . S
C571 H630 0.980 . S
C572 C573 1.407 . S
C572 C577 1.418 . S
C572 O626 1.334 . S
C573 C572 1.407 . S
C573 C574 1.360 . S
C573 H634 0.929 . S
C574 C573 1.360 . S
C574 C575 1.401 . S
C574 C578 1.527 . S
C575 C574 1.401 . S
C575 C576 1.405 . S
C575 C608 1.587 . S
C576 C575 1.405 . S
C576 C577 1.332 . S
C576 C579 1.496 . S
C577 C572 1.418 . S
C577 C576 1.332 . S
C577 H635 0.929 . S
C578 C574 1.527 . S
C578 H636 0.959 . S
C578 H637 0.961 . S
C578 H638 0.961 . S
C579 C576 1.496 . S
C579 H639 0.960 . S
C579 H640 0.960 . S
C579 H641 0.961 . S
C580 C581 1.517 . S
C580 H643 0.961 . S
C580 H644 0.960 . S
C580 H645 0.959 . S
C581 C580 1.517 . S
C581 O629 1.468 . S
C581 H642 0.980 . S
C582 C583 1.349 . S
C582 C587 1.367 . S
C582 O629 1.408 1_565 S
C583 C582 1.349 . S
C583 C584 1.407 . S
C583 H646 0.930 . S
C584 C583 1.407 . S
C584 C585 1.449 . S
C584 C588 1.535 . S
C585 C584 1.449 . S
C585 C586 1.384 . S
C585 C610 1.553 . S
C586 C585 1.384 . S
C586 C587 1.364 . S
C586 C589 1.450 . S
C587 C582 1.367 . S
C587 C586 1.364 . S
C587 H647 0.931 . S
C588 C584 1.535 . S
C588 H648 0.959 . S
C588 H649 0.961 . S
C588 H650 0.959 . S
C589 C586 1.450 . S
C589 H651 0.960 . S
C589 H652 0.960 . S
C589 H653 0.960 . S
C590 C591 1.309 . S
C590 C595 1.304 . S
C590 O628 1.435 1_565 S
C591 C590 1.309 . S
C591 C592 1.476 . S
C591 H655 0.930 . S
C592 C591 1.476 . S
C592 C593 1.400 . S
C592 C596 1.567 . S
C593 C592 1.400 . S
C593 C594 1.373 . S
C593 C615 1.432 . S
C594 C593 1.373 . S
C594 C595 1.339 . S
C594 C597 1.530 . S
C595 C590 1.304 . S
C595 C594 1.339 . S
C595 H656 0.930 . S
C596 C592 1.567 . S
C596 H657 0.961 . S
C596 H658 0.960 . S
C596 H659 0.958 . S
C597 C594 1.530 . S
C597 H660 0.961 . S
C597 H661 0.960 . S
C597 H662 0.960 . S
C598 C599 1.530 . S
C598 H664 0.961 . S
C598 H665 0.961 . S
C598 H666 0.959 . S
C599 C598 1.530 . S
C599 O627 1.412 . S
C599 H663 0.980 . S
C600 C601 1.288 . S
C600 C605 1.377 . S
C600 O627 1.393 . S
C601 C600 1.288 . S
C601 C602 1.369 . S
C601 H667 0.932 . S
C602 C601 1.369 . S
C602 C603 1.398 . S
C602 C606 1.527 . S
C603 C602 1.398 . S
C603 C604 1.380 . S
C603 C617 1.497 . S
C604 C603 1.380 . S
C604 C605 1.383 . S
C604 C607 1.603 . S
C605 C600 1.377 . S
C605 C604 1.383 . S
C605 H668 0.929 . S
C606 C602 1.527 . S
C606 H669 0.961 . S
C606 H670 0.959 . S
C606 H671 0.959 . S
C607 C604 1.603 . S
C607 H672 0.960 . S
C607 H673 0.962 . S
C607 H674 0.961 . S
C608 C575 1.587 . S
C608 C609 1.360 . S
C608 C621 1.412 . S
C609 C608 1.360 . S
C609 C610 1.365 . S
C609 H675 0.929 . S
C610 C585 1.553 . S
C610 C609 1.365 . S
C610 C611 1.404 . S
C611 C610 1.404 . S
C611 C612 1.395 . S
C611 C622 1.451 . S
C612 C611 1.395 . S
C612 C613 1.322 . S
C612 H676 0.930 . S
C613 C612 1.322 . S
C613 C614 1.459 . S
C613 H677 0.929 . S
C614 C613 1.459 . S
C614 C615 1.445 . S
C614 C623 1.395 . S
C615 C593 1.432 . S
C615 C614 1.445 . S
C615 C616 1.370 . S
C616 C615 1.370 . S
C616 C617 1.438 . S
C616 H678 0.930 . S
C617 C603 1.497 . S
C617 C616 1.438 . S
C617 C618 1.360 . S
C618 C617 1.360 . S
C618 C619 1.401 . S
C618 C623 1.446 . S
C619 C618 1.401 . S
C619 C620 1.347 . S
C619 H679 0.929 . S
C620 C619 1.347 . S
C620 C621 1.455 . S
C620 H680 0.930 . S
C621 C608 1.412 . S
C621 C620 1.455 . S
C621 C622 1.331 . S
C622 C611 1.451 . S
C622 C621 1.331 . S
C622 C623 1.497 . S
C623 C614 1.395 . S
C623 C618 1.446 . S
C623 C622 1.497 . S
C624 C625 1.582 . S
C624 H681 0.962 . S
C624 H682 0.959 . S
C624 H683 0.958 . S
C625 C624 1.582 . S
C625 O628 1.458 . S
C625 H654 0.980 . S
O626 C571 1.426 . S
O626 C572 1.334 . S
O627 C599 1.412 . S
O627 C600 1.393 . S
O628 C590 1.435 1_545 S
O628 C625 1.458 . S
O629 C581 1.468 . S
O629 C582 1.408 1_545 S
H630 C571 0.980 . S
H631 C570 0.959 . S
H632 C570 0.959 . S
H633 C570 0.960 . S
H634 C573 0.929 . S
H635 C577 0.929 . S
H636 C578 0.959 . S
H637 C578 0.961 . S
H638 C578 0.961 . S
H639 C579 0.960 . S
H640 C579 0.960 . S
H641 C579 0.961 . S
H642 C581 0.980 . S
H643 C580 0.961 . S
H644 C580 0.960 . S
H645 C580 0.959 . S
H646 C583 0.930 . S
H647 C587 0.931 . S
H648 C588 0.959 . S
H649 C588 0.961 . S
H650 C588 0.959 . S
H651 C589 0.960 . S
H652 C589 0.960 . S
H653 C589 0.960 . S
H654 C625 0.980 . S
H655 C591 0.930 . S
H656 C595 0.930 . S
H657 C596 0.961 . S
H658 C596 0.960 . S
H659 C596 0.958 . S
H660 C597 0.961 . S
H661 C597 0.960 . S
H662 C597 0.960 . S
H663 C599 0.980 . S
H664 C598 0.961 . S
H665 C598 0.961 . S
H666 C598 0.959 . S
H667 C601 0.932 . S
H668 C605 0.929 . S
H669 C606 0.961 . S
H670 C606 0.959 . S
H671 C606 0.959 . S
H672 C607 0.960 . S
H673 C607 0.962 . S
H674 C607 0.961 . S
H675 C609 0.929 . S
H676 C612 0.930 . S
H677 C613 0.929 . S
H678 C616 0.930 . S
H679 C619 0.929 . S
H680 C620 0.930 . S
H681 C624 0.962 . S
H682 C624 0.959 . S
H683 C624 0.958 . S
C684 C685 1.560 . S
C684 H745 0.959 . S
C684 H746 0.959 . S
C684 H747 0.960 . S
C685 C684 1.560 . S
C685 O740 1.426 . S
C685 H744 0.980 . S
C686 C687 1.407 . S
C686 C691 1.418 . S
C686 O740 1.334 . S
C687 C686 1.407 . S
C687 C688 1.360 . S
C687 H748 0.929 . S
C688 C687 1.360 . S
C688 C689 1.401 . S
C688 C692 1.527 . S
C689 C688 1.401 . S
C689 C690 1.405 . S
C689 C722 1.587 . S
C690 C689 1.405 . S
C690 C691 1.332 . S
C690 C693 1.496 . S
C691 C686 1.418 . S
C691 C690 1.332 . S
C691 H749 0.929 . S
C692 C688 1.527 . S
C692 H750 0.959 . S
C692 H751 0.961 . S
C692 H752 0.961 . S
C693 C690 1.496 . S
C693 H753 0.960 . S
C693 H754 0.960 . S
C693 H755 0.961 . S
C694 C695 1.517 . S
C694 H757 0.961 . S
C694 H758 0.960 . S
C694 H759 0.959 . S
C695 C694 1.517 . S
C695 O743 1.468 . S
C695 H756 0.980 . S
C696 C697 1.349 . S
C696 C701 1.367 . S
C696 O743 1.408 . S
C697 C696 1.349 . S
C697 C698 1.407 . S
C697 H760 0.930 . S
C698 C697 1.407 . S
C698 C699 1.449 . S
C698 C702 1.535 . S
C699 C698 1.449 . S
C699 C700 1.384 . S
C699 C724 1.553 . S
C700 C699 1.384 . S
C700 C701 1.364 . S
C700 C703 1.450 . S
C701 C696 1.367 . S
C701 C700 1.364 . S
C701 H761 0.931 . S
C702 C698 1.535 . S
C702 H762 0.959 . S
C702 H763 0.961 . S
C702 H764 0.959 . S
C703 C700 1.450 . S
C703 H765 0.960 . S
C703 H766 0.960 . S
C703 H767 0.960 . S
C704 C705 1.309 . S
C704 C709 1.304 . S
C704 O742 1.435 . S
C705 C704 1.309 . S
C705 C706 1.476 . S
C705 H769 0.930 . S
C706 C705 1.476 . S
C706 C707 1.400 . S
C706 C710 1.567 . S
C707 C706 1.400 . S
C707 C708 1.373 . S
C707 C729 1.432 . S
C708 C707 1.373 . S
C708 C709 1.339 . S
C708 C711 1.530 1_556 S
C709 C704 1.304 . S
C709 C708 1.339 . S
C709 H770 0.930 . S
C710 C706 1.567 . S
C710 H771 0.961 . S
C710 H772 0.960 . S
C710 H773 0.958 . S
C711 C708 1.530 1_554 S
C711 H774 0.961 . S
C711 H775 0.960 . S
C711 H776 0.960 1_554 S
C712 C713 1.530 . S
C712 H778 0.961 . S
C712 H779 0.961 . S
C712 H780 0.959 . S
C713 C712 1.530 . S
C713 O741 1.412 . S
C713 H777 0.980 . S
C714 C715 1.288 . S
C714 C719 1.377 . S
C714 O741 1.393 . S
C715 C714 1.288 . S
C715 C716 1.369 . S
C715 H781 0.932 . S
C716 C715 1.369 . S
C716 C717 1.398 . S
C716 C720 1.527 . S
C717 C716 1.398 . S
C717 C718 1.380 . S
C717 C731 1.497 . S
C718 C717 1.380 . S
C718 C719 1.383 . S
C718 C721 1.603 . S
C719 C714 1.377 . S
C719 C718 1.383 . S
C719 H782 0.929 . S
C720 C716 1.527 . S
C720 H783 0.961 . S
C720 H784 0.959 . S
C720 H785 0.959 . S
C721 C718 1.603 . S
C721 H786 0.960 . S
C721 H787 0.967 . S
C721 H788 0.961 1_556 S
C722 C689 1.587 . S
C722 C723 1.360 . S
C722 C735 1.412 . S
C723 C722 1.360 . S
C723 C724 1.365 . S
C723 H789 0.929 . S
C724 C699 1.553 . S
C724 C723 1.365 . S
C724 C725 1.404 . S
C725 C724 1.404 . S
C725 C726 1.395 . S
C725 C736 1.451 . S
C726 C725 1.395 . S
C726 C727 1.322 . S
C726 H790 0.930 . S
C727 C726 1.322 . S
C727 C728 1.459 . S
C727 H791 0.929 . S
C728 C727 1.459 . S
C728 C729 1.445 1_554 S
C728 C737 1.395 . S
C729 C707 1.432 . S
C729 C728 1.445 1_556 S
C729 C730 1.370 . S
C730 C729 1.370 . S
C730 C731 1.438 . S
C730 H792 0.930 . S
C731 C717 1.497 . S
C731 C730 1.438 . S
C731 C732 1.360 1_556 S
C732 C731 1.360 1_554 S
C732 C733 1.401 . S
C732 C737 1.446 . S
C733 C732 1.401 . S
C733 C734 1.347 . S
C733 H793 0.929 . S
C734 C733 1.347 . S
C734 C735 1.455 . S
C734 H794 0.930 . S
C735 C722 1.412 . S
C735 C734 1.455 . S
C735 C736 1.331 . S
C736 C725 1.451 . S
C736 C735 1.331 . S
C736 C737 1.497 . S
C737 C728 1.395 . S
C737 C732 1.446 . S
C737 C736 1.497 . S
C738 C739 1.582 . S
C738 H795 0.962 . S
C738 H796 0.959 . S
C738 H797 0.958 . S
C739 C738 1.582 . S
C739 O742 1.458 . S
C739 H768 0.980 . S
O740 C685 1.426 . S
O740 C686 1.334 . S
O741 C713 1.412 . S
O741 C714 1.393 . S
O742 C704 1.435 . S
O742 C739 1.458 . S
O743 C695 1.468 . S
O743 C696 1.408 . S
H744 C685 0.980 . S
H745 C684 0.959 . S
H746 C684 0.959 . S
H747 C684 0.960 . S
H748 C687 0.929 . S
H749 C691 0.929 . S
H750 C692 0.959 . S
H751 C692 0.961 . S
H752 C692 0.961 . S
H753 C693 0.960 . S
H754 C693 0.960 . S
H755 C693 0.961 . S
H756 C695 0.980 . S
H757 C694 0.961 . S
H758 C694 0.960 . S
H759 C694 0.959 . S
H760 C697 0.930 . S
H761 C701 0.931 . S
H762 C702 0.959 . S
H763 C702 0.961 . S
H764 C702 0.959 . S
H765 C703 0.960 . S
H766 C703 0.960 . S
H767 C703 0.960 . S
H768 C739 0.980 . S
H769 C705 0.930 . S
H770 C709 0.930 . S
H771 C710 0.961 . S
H772 C710 0.960 . S
H773 C710 0.958 . S
H774 C711 0.961 . S
H775 C711 0.960 . S
H776 C711 0.960 1_556 S
H777 C713 0.980 . S
H778 C712 0.961 . S
H779 C712 0.961 . S
H780 C712 0.959 . S
H781 C715 0.932 . S
H782 C719 0.929 . S
H783 C720 0.961 . S
H784 C720 0.959 . S
H785 C720 0.959 . S
H786 C721 0.960 . S
H787 C721 0.967 . S
H788 C721 0.961 1_554 S
H789 C723 0.929 . S
H790 C726 0.930 . S
H791 C727 0.929 . S
H792 C730 0.930 . S
H793 C733 0.929 . S
H794 C734 0.930 . S
H795 C738 0.962 . S
H796 C738 0.959 . S
H797 C738 0.958 . S
C798 C799 1.560 . S
C798 H859 0.959 . S
C798 H860 0.959 . S
C798 H861 0.960 . S
C799 C798 1.560 . S
C799 O854 1.426 . S
C799 H858 0.980 . S
C800 C801 1.407 . S
C800 C805 1.418 1_655 S
C800 O854 1.334 . S
C801 C800 1.407 . S
C801 C802 1.360 1_655 S
C801 H862 0.929 . S
C802 C801 1.360 1_455 S
C802 C803 1.401 . S
C802 C806 1.527 . S
C803 C802 1.401 . S
C803 C804 1.405 . S
C803 C836 1.587 . S
C804 C803 1.405 . S
C804 C805 1.332 . S
C804 C807 1.496 . S
C805 C800 1.418 1_455 S
C805 C804 1.332 . S
C805 H863 0.929 . S
C806 C802 1.527 . S
C806 H864 0.959 . S
C806 H865 0.961 . S
C806 H866 0.961 . S
C807 C804 1.496 . S
C807 H867 0.960 . S
C807 H868 0.960 . S
C807 H869 0.961 . S
C808 C809 1.517 . S
C808 H871 0.961 . S
C808 H872 0.960 . S
C808 H873 0.959 . S
C809 C808 1.517 . S
C809 O857 1.468 . S
C809 H870 0.980 . S
C810 C811 1.349 . S
C810 C815 1.367 . S
C810 O857 1.408 . S
C811 C810 1.349 . S
C811 C812 1.407 . S
C811 H874 0.930 . S
C812 C811 1.407 . S
C812 C813 1.449 . S
C812 C816 1.535 . S
C813 C812 1.449 . S
C813 C814 1.384 . S
C813 C838 1.553 . S
C814 C813 1.384 . S
C814 C815 1.364 . S
C814 C817 1.450 . S
C815 C810 1.367 . S
C815 C814 1.364 . S
C815 H875 0.931 . S
C816 C812 1.535 . S
C816 H876 0.959 . S
C816 H877 0.961 . S
C816 H878 0.959 . S
C817 C814 1.450 . S
C817 H879 0.960 . S
C817 H880 0.960 . S
C817 H881 0.960 . S
C818 C819 1.309 . S
C818 C823 1.304 . S
C818 O856 1.435 . S
C819 C818 1.309 . S
C819 C820 1.476 . S
C819 H883 0.930 . S
C820 C819 1.476 . S
C820 C821 1.400 . S
C820 C824 1.567 . S
C821 C820 1.400 . S
C821 C822 1.373 . S
C821 C843 1.432 . S
C822 C821 1.373 . S
C822 C823 1.339 . S
C822 C825 1.530 . S
C823 C818 1.304 . S
C823 C822 1.339 . S
C823 H884 0.930 . S
C824 C820 1.567 . S
C824 H885 0.961 . S
C824 H886 0.960 . S
C824 H887 0.958 . S
C825 C822 1.530 . S
C825 H888 0.961 . S
C825 H889 0.960 . S
C825 H890 0.960 . S
C826 C827 1.530 . S
C826 H892 0.961 . S
C826 H893 0.961 . S
C826 H894 0.959 . S
C827 C826 1.530 . S
C827 O855 1.412 . S
C827 H891 0.980 . S
C828 C829 1.288 1_655 S
C828 C833 1.377 1_655 S
C828 O855 1.393 . S
C829 C828 1.288 1_455 S
C829 C830 1.369 . S
C829 H895 0.932 . S
C830 C829 1.369 . S
C830 C831 1.398 . S
C830 C834 1.527 . S
C831 C830 1.398 . S
C831 C832 1.380 . S
C831 C845 1.497 . S
C832 C831 1.380 . S
C832 C833 1.383 . S
C832 C835 1.603 . S
C833 C828 1.377 1_455 S
C833 C832 1.383 . S
C833 H896 0.929 1_455 S
C834 C830 1.527 . S
C834 H897 0.961 . S
C834 H898 0.959 . S
C834 H899 0.959 . S
C835 C832 1.603 . S
C835 H900 0.960 . S
C835 H901 0.962 . S
C835 H902 0.961 . S
C836 C803 1.587 . S
C836 C837 1.360 . S
C836 C849 1.412 . S
C837 C836 1.360 . S
C837 C838 1.365 . S
C837 H903 0.929 . S
C838 C813 1.553 . S
C838 C837 1.365 . S
C838 C839 1.404 . S
C839 C838 1.404 . S
C839 C840 1.395 . S
C839 C850 1.451 . S
C840 C839 1.395 . S
C840 C841 1.322 . S
C840 H904 0.930 . S
C841 C840 1.322 . S
C841 C842 1.459 . S
C841 H905 0.929 . S
C842 C841 1.459 . S
C842 C843 1.445 . S
C842 C851 1.395 . S
C843 C821 1.432 . S
C843 C842 1.445 . S
C843 C844 1.370 . S
C844 C843 1.370 . S
C844 C845 1.438 . S
C844 H906 0.930 . S
C845 C831 1.497 . S
C845 C844 1.438 . S
C845 C846 1.360 . S
C846 C845 1.360 . S
C846 C847 1.401 . S
C846 C851 1.446 . S
C847 C846 1.401 . S
C847 C848 1.347 . S
C847 H907 0.929 . S
C848 C847 1.347 . S
C848 C849 1.455 . S
C848 H908 0.930 . S
C849 C836 1.412 . S
C849 C848 1.455 . S
C849 C850 1.331 . S
C850 C839 1.451 . S
C850 C849 1.331 . S
C850 C851 1.497 . S
C851 C842 1.395 . S
C851 C846 1.446 . S
C851 C850 1.497 . S
C852 C853 1.582 . S
C852 H909 0.962 . S
C852 H910 0.959 . S
C852 H911 0.958 . S
C853 C852 1.582 . S
C853 O856 1.458 . S
C853 H882 0.980 . S
O854 C799 1.426 . S
O854 C800 1.334 . S
O855 C827 1.412 . S
O855 C828 1.393 . S
O856 C818 1.435 . S
O856 C853 1.458 . S
O857 C809 1.468 . S
O857 C810 1.408 . S
H858 C799 0.980 . S
H859 C798 0.959 . S
H860 C798 0.959 . S
H861 C798 0.960 . S
H862 C801 0.929 . S
H863 C805 0.929 . S
H864 C806 0.959 . S
H865 C806 0.961 . S
H866 C806 0.961 . S
H867 C807 0.960 . S
H868 C807 0.960 . S
H869 C807 0.961 . S
H870 C809 0.980 . S
H871 C808 0.961 . S
H872 C808 0.960 . S
H873 C808 0.959 . S
H874 C811 0.930 . S
H875 C815 0.931 . S
H876 C816 0.959 . S
H877 C816 0.961 . S
H878 C816 0.959 . S
H879 C817 0.960 . S
H880 C817 0.960 . S
H881 C817 0.960 . S
H882 C853 0.980 . S
H883 C819 0.930 . S
H884 C823 0.930 . S
H885 C824 0.961 . S
H886 C824 0.960 . S
H887 C824 0.958 . S
H888 C825 0.961 . S
H889 C825 0.960 . S
H890 C825 0.960 . S
H891 C827 0.980 . S
H892 C826 0.961 . S
H893 C826 0.961 . S
H894 C826 0.959 . S
H895 C829 0.932 . S
H896 C833 0.929 1_655 S
H897 C834 0.961 . S
H898 C834 0.959 . S
H899 C834 0.959 . S
H900 C835 0.960 . S
H901 C835 0.962 . S
H902 C835 0.961 . S
H903 C837 0.929 . S
H904 C840 0.930 . S
H905 C841 0.929 . S
H906 C844 0.930 . S
H907 C847 0.929 . S
H908 C848 0.930 . S
H909 C852 0.962 . S
H910 C852 0.959 . S
H911 C852 0.958 . S
C912 O939 1.312 . S
C912 O940 1.208 . S
C913 O934 1.331 1_655 S
C913 O937 1.244 . S
C914 O936 1.264 1_655 S
C914 O938 1.273 . S
Mg915 O917 1.936 . S
Mg915 O924 2.081 . S
Mg915 O926 2.023 . S
Mg915 O930 2.031 . S
Mg915 O939 2.291 . S
Mg916 O917 1.963 . S
Mg916 O927 1.942 . S
Mg916 O928 1.955 . S
Mg916 O935 1.986 . S
O917 Mg915 1.936 . S
O917 Mg916 1.963 . S
O917 Mg918 1.915 . S
Mg918 O917 1.915 . S
Mg918 O919 1.915 . S
Mg918 O923 2.013 . S
Mg918 O929 2.114 . S
Mg918 O933 2.013 . S
Mg918 O939 2.114 . S
O919 Mg918 1.915 . S
O919 Mg920 1.936 . S
O919 Mg921 1.963 1_455 S
Mg920 O919 1.936 . S
Mg920 O929 2.291 . S
Mg920 O934 2.081 . S
Mg920 O936 2.023 . S
Mg920 O940 2.031 . S
Mg921 O919 1.963 1_655 S
Mg921 O925 1.986 . S
Mg921 O937 1.942 . S
Mg921 O938 1.955 . S
C922 O933 1.191 . S
C922 O935 1.307 . S
O923 Mg918 2.013 . S
O923 C942 1.191 . S
O924 Mg915 2.081 . S
O924 C932 1.331 . S
O925 Mg921 1.986 . S
O925 C942 1.307 1_655 S
O926 Mg915 2.023 . S
O926 C941 1.264 . S
O927 Mg916 1.942 . S
O927 C932 1.244 . S
O928 Mg916 1.955 . S
O928 C941 1.273 . S
O929 Mg918 2.114 . S
O929 Mg920 2.291 . S
O929 C931 1.312 . S
O930 Mg915 2.031 . S
O930 C931 1.208 . S
C931 O929 1.312 . S
C931 O930 1.208 . S
C932 O924 1.331 . S
C932 O927 1.244 . S
O933 Mg918 2.013 . S
O933 C922 1.191 . S
O934 C913 1.331 1_455 S
O934 Mg920 2.081 . S
O935 Mg916 1.986 . S
O935 C922 1.307 . S
O936 C914 1.264 1_455 S
O936 Mg920 2.023 . S
O937 C913 1.244 . S
O937 Mg921 1.942 . S
O938 C914 1.273 . S
O938 Mg921 1.955 . S
O939 C912 1.312 . S
O939 Mg915 2.291 . S
O939 Mg918 2.114 . S
O940 C912 1.208 . S
O940 Mg920 2.031 . S
C941 O926 1.264 . S
C941 O928 1.273 . S
C942 O923 1.191 . S
C942 O925 1.307 1_455 S
C943 O970 1.312 . S
C943 O971 1.208 . S
C944 O965 1.331 . S
C944 O968 1.244 . S
C945 O967 1.264 . S
C945 O969 1.273 . S
Mg946 O948 1.936 . S
Mg946 O955 2.081 . S
Mg946 O957 2.023 . S
Mg946 O961 2.031 . S
Mg946 O970 2.291 . S
Mg947 O948 1.963 . S
Mg947 O958 1.942 . S
Mg947 O959 1.955 . S
Mg947 O966 1.986 . S
O948 Mg946 1.936 . S
O948 Mg947 1.963 . S
O948 Mg949 1.915 . S
Mg949 O948 1.915 . S
Mg949 O950 1.915 . S
Mg949 O954 2.013 . S
Mg949 O960 2.114 . S
Mg949 O964 2.013 . S
Mg949 O970 2.114 . S
O950 Mg949 1.915 . S
O950 Mg951 1.936 . S
O950 Mg952 1.963 . S
Mg951 O950 1.936 . S
Mg951 O960 2.291 . S
Mg951 O965 2.081 . S
Mg951 O967 2.023 . S
Mg951 O971 2.031 . S
Mg952 O950 1.963 . S
Mg952 O956 1.986 . S
Mg952 O968 1.942 . S
Mg952 O969 1.955 . S
C953 O964 1.191 . S
C953 O966 1.307 . S
O954 Mg949 2.013 . S
O954 C973 1.191 . S
O955 Mg946 2.081 . S
O955 C963 1.331 . S
O956 Mg952 1.986 . S
O956 C973 1.307 . S
O957 Mg946 2.023 . S
O957 C972 1.264 . S
O958 Mg947 1.942 . S
O958 C963 1.244 . S
O959 Mg947 1.955 . S
O959 C972 1.273 . S
O960 Mg949 2.114 . S
O960 Mg951 2.291 . S
O960 C962 1.312 . S
O961 Mg946 2.031 . S
O961 C962 1.208 . S
C962 O960 1.312 . S
C962 O961 1.208 . S
C963 O955 1.331 . S
C963 O958 1.244 . S
O964 Mg949 2.013 . S
O964 C953 1.191 . S
O965 C944 1.331 . S
O965 Mg951 2.081 . S
O966 Mg947 1.986 . S
O966 C953 1.307 . S
O967 C945 1.264 . S
O967 Mg951 2.023 . S
O968 C944 1.244 . S
O968 Mg952 1.942 . S
O969 C945 1.273 . S
O969 Mg952 1.955 . S
O970 C943 1.312 . S
O970 Mg946 2.291 . S
O970 Mg949 2.114 . S
O971 C943 1.208 . S
O971 Mg951 2.031 . S
C972 O957 1.264 . S
C972 O959 1.273 . S
C973 O954 1.191 . S
C973 O956 1.307 . S
C974 O1001 1.312 . S
C974 O1002 1.208 . S
C975 O996 1.331 . S
C975 O999 1.244 . S
C976 O998 1.264 . S
C976 O1000 1.273 . S
Mg977 O979 1.936 . S
Mg977 O986 2.081 . S
Mg977 O988 2.023 . S
Mg977 O992 2.031 . S
Mg977 O1001 2.291 . S
Mg978 O979 1.963 . S
Mg978 O989 1.942 . S
Mg978 O990 1.955 . S
Mg978 O997 1.986 . S
O979 Mg977 1.936 . S
O979 Mg978 1.963 . S
O979 Mg980 1.915 . S
Mg980 O979 1.915 . S
Mg980 O981 1.915 . S
Mg980 O985 2.013 . S
Mg980 O991 2.114 . S
Mg980 O995 2.013 . S
Mg980 O1001 2.114 . S
O981 Mg980 1.915 . S
O981 Mg982 1.936 . S
O981 Mg983 1.963 . S
Mg982 O981 1.936 . S
Mg982 O991 2.291 . S
Mg982 O996 2.081 . S
Mg982 O998 2.023 . S
Mg982 O1002 2.031 . S
Mg983 O981 1.963 . S
Mg983 O987 1.986 . S
Mg983 O999 1.942 . S
Mg983 O1000 1.955 . S
C984 O995 1.191 . S
C984 O997 1.307 . S
O985 Mg980 2.013 . S
O985 C1004 1.191 . S
O986 Mg977 2.081 . S
O986 C994 1.331 . S
O987 Mg983 1.986 . S
O987 C1004 1.307 . S
O988 Mg977 2.023 . S
O988 C1003 1.264 . S
O989 Mg978 1.942 . S
O989 C994 1.244 . S
O990 Mg978 1.955 . S
O990 C1003 1.273 . S
O991 Mg980 2.114 . S
O991 Mg982 2.291 . S
O991 C993 1.312 . S
O992 Mg977 2.031 . S
O992 C993 1.208 . S
C993 O991 1.312 . S
C993 O992 1.208 . S
C994 O986 1.331 . S
C994 O989 1.244 . S
O995 Mg980 2.013 . S
O995 C984 1.191 . S
O996 C975 1.331 . S
O996 Mg982 2.081 . S
O997 Mg978 1.986 . S
O997 C984 1.307 . S
O998 C976 1.264 . S
O998 Mg982 2.023 . S
O999 C975 1.244 . S
O999 Mg983 1.942 . S
O1000 C976 1.273 . S
O1000 Mg983 1.955 . S
O1001 C974 1.312 . S
O1001 Mg977 2.291 . S
O1001 Mg980 2.114 . S
O1002 C974 1.208 . S
O1002 Mg982 2.031 . S
C1003 O988 1.264 . S
C1003 O990 1.273 . S
C1004 O985 1.191 . S
C1004 O987 1.307 . S
C1005 O1032 1.312 . S
C1005 O1033 1.208 . S
C1006 O1027 1.331 . S
C1006 O1030 1.244 . S
C1007 O1029 1.264 . S
C1007 O1031 1.273 . S
Mg1008 O1010 1.936 . S
Mg1008 O1017 2.081 . S
Mg1008 O1019 2.023 . S
Mg1008 O1023 2.031 . S
Mg1008 O1032 2.291 . S
Mg1009 O1010 1.963 1_655 S
Mg1009 O1020 1.942 . S
Mg1009 O1021 1.955 . S
Mg1009 O1028 1.986 . S
O1010 Mg1008 1.936 . S
O1010 Mg1009 1.963 1_455 S
O1010 Mg1011 1.915 . S
Mg1011 O1010 1.915 . S
Mg1011 O1012 1.915 . S
Mg1011 O1016 2.013 . S
Mg1011 O1022 2.114 . S
Mg1011 O1026 2.013 . S
Mg1011 O1032 2.114 . S
O1012 Mg1011 1.915 . S
O1012 Mg1013 1.936 . S
O1012 Mg1014 1.963 . S
Mg1013 O1012 1.936 . S
Mg1013 O1022 2.291 . S
Mg1013 O1027 2.081 . S
Mg1013 O1029 2.023 . S
Mg1013 O1033 2.031 . S
Mg1014 O1012 1.963 . S
Mg1014 O1018 1.986 . S
Mg1014 O1030 1.942 . S
Mg1014 O1031 1.955 . S
C1015 O1026 1.191 . S
C1015 O1028 1.307 1_455 S
O1016 Mg1011 2.013 . S
O1016 C1035 1.191 . S
O1017 Mg1008 2.081 . S
O1017 C1025 1.331 1_455 S
O1018 Mg1014 1.986 . S
O1018 C1035 1.307 . S
O1019 Mg1008 2.023 . S
O1019 C1034 1.264 1_455 S
O1020 Mg1009 1.942 . S
O1020 C1025 1.244 . S
O1021 Mg1009 1.955 . S
O1021 C1034 1.273 . S
O1022 Mg1011 2.114 . S
O1022 Mg1013 2.291 . S
O1022 C1024 1.312 . S
O1023 Mg1008 2.031 . S
O1023 C1024 1.208 . S
C1024 O1022 1.312 . S
C1024 O1023 1.208 . S
C1025 O1017 1.331 1_655 S
C1025 O1020 1.244 . S
O1026 Mg1011 2.013 . S
O1026 C1015 1.191 . S
O1027 C1006 1.331 . S
O1027 Mg1013 2.081 . S
O1028 Mg1009 1.986 . S
O1028 C1015 1.307 1_655 S
O1029 C1007 1.264 . S
O1029 Mg1013 2.023 . S
O1030 C1006 1.244 . S
O1030 Mg1014 1.942 . S
O1031 C1007 1.273 . S
O1031 Mg1014 1.955 . S
O1032 C1005 1.312 . S
O1032 Mg1008 2.291 . S
O1032 Mg1011 2.114 . S
O1033 C1005 1.208 . S
O1033 Mg1013 2.031 . S
C1034 O1019 1.264 1_655 S
C1034 O1021 1.273 . S
C1035 O1016 1.191 . S
C1035 O1018 1.307 . S
C1036 C1037 1.391 . S
C1036 C1038 1.394 . S
C1036 H1052 0.931 . S
C1037 C1036 1.391 . S
C1037 C1041 1.376 . S
C1038 C1036 1.394 . S
C1038 C1039 1.369 . S
C1038 C1042 1.531 . S
C1039 C1038 1.369 . S
C1039 C1040 1.410 . S
C1039 C1047 1.503 . S
C1040 C1039 1.410 . S
C1040 C1041 1.392 . S
C1040 C1043 1.511 . S
C1041 C1037 1.376 . S
C1041 C1040 1.392 . S
C1041 H1053 0.929 . S
C1042 C1038 1.531 . S
C1042 H1054 0.960 . S
C1042 H1055 0.962 . S
C1042 H1056 0.960 . S
C1043 C1040 1.511 . S
C1043 H1057 0.961 . S
C1043 H1058 0.961 . S
C1043 H1059 0.961 . S
C1044 C1045 1.370 . S
C1044 C1046 1.363 . S
C1044 H1060 0.931 . S
C1045 C1044 1.370 . S
C1045 C1049 1.408 . S
C1046 C1044 1.363 . S
C1046 C1047 1.370 . S
C1046 C1050 1.524 . S
C1047 C1039 1.503 . S
C1047 C1046 1.370 . S
C1047 C1048 1.403 . S
C1048 C1047 1.403 . S
C1048 C1049 1.404 . S
C1048 C1051 1.539 . S
C1049 C1045 1.408 . S
C1049 C1048 1.404 . S
C1049 H1061 0.930 . S
C1050 C1046 1.524 . S
C1050 H1062 0.956 . S
C1050 H1063 0.961 . S
C1050 H1064 0.961 . S
C1051 C1048 1.539 . S
C1051 H1065 0.958 . S
C1051 H1066 0.961 . S
C1051 H1067 0.960 . S
H1052 C1036 0.931 . S
H1053 C1041 0.929 . S
H1054 C1042 0.960 . S
H1055 C1042 0.962 . S
H1056 C1042 0.960 . S
H1057 C1043 0.961 . S
H1058 C1043 0.961 . S
H1059 C1043 0.961 . S
H1060 C1044 0.931 . S
H1061 C1049 0.930 . S
H1062 C1050 0.956 . S
H1063 C1050 0.961 . S
H1064 C1050 0.961 . S
H1065 C1051 0.958 . S
H1066 C1051 0.961 . S
H1067 C1051 0.960 . S
C1068 C1069 1.391 . S
C1068 C1070 1.394 . S
C1068 H1084 0.931 . S
C1069 C1068 1.391 . S
C1069 C1073 1.376 . S
C1070 C1068 1.394 . S
C1070 C1071 1.369 . S
C1070 C1074 1.531 . S
C1071 C1070 1.369 . S
C1071 C1072 1.410 . S
C1071 C1079 1.503 1_565 S
C1072 C1071 1.410 . S
C1072 C1073 1.392 . S
C1072 C1075 1.511 1_565 S
C1073 C1069 1.376 . S
C1073 C1072 1.392 . S
C1073 H1085 0.929 . S
C1074 C1070 1.531 . S
C1074 H1086 0.960 . S
C1074 H1087 0.962 . S
C1074 H1088 0.960 . S
C1075 C1072 1.511 1_545 S
C1075 H1089 0.961 . S
C1075 H1090 0.961 . S
C1075 H1091 0.961 . S
C1076 C1077 1.370 . S
C1076 C1078 1.363 . S
C1076 H1092 0.931 . S
C1077 C1076 1.370 . S
C1077 C1081 1.408 . S
C1078 C1076 1.363 . S
C1078 C1079 1.370 . S
C1078 C1082 1.524 . S
C1079 C1071 1.503 1_545 S
C1079 C1078 1.370 . S
C1079 C1080 1.403 . S
C1080 C1079 1.403 . S
C1080 C1081 1.404 . S
C1080 C1083 1.539 1_545 S
C1081 C1077 1.408 . S
C1081 C1080 1.404 . S
C1081 H1093 0.930 . S
C1082 C1078 1.524 . S
C1082 H1094 0.956 . S
C1082 H1095 0.961 . S
C1082 H1096 0.961 . S
C1083 C1080 1.539 1_565 S
C1083 H1097 0.958 . S
C1083 H1098 0.961 1_565 S
C1083 H1099 0.960 . S
H1084 C1068 0.931 . S
H1085 C1073 0.929 . S
H1086 C1074 0.960 . S
H1087 C1074 0.962 . S
H1088 C1074 0.960 . S
H1089 C1075 0.961 . S
H1090 C1075 0.961 . S
H1091 C1075 0.961 . S
H1092 C1076 0.931 . S
H1093 C1081 0.930 . S
H1094 C1082 0.956 . S
H1095 C1082 0.961 . S
H1096 C1082 0.961 . S
H1097 C1083 0.958 . S
H1098 C1083 0.961 1_545 S
H1099 C1083 0.960 . S
C1100 C1101 1.391 . S
C1100 C1102 1.394 . S
C1100 H1116 0.931 . S
C1101 C1100 1.391 . S
C1101 C1105 1.376 . S
C1102 C1100 1.394 . S
C1102 C1103 1.369 . S
C1102 C1106 1.531 . S
C1103 C1102 1.369 . S
C1103 C1104 1.410 . S
C1103 C1111 1.503 . S
C1104 C1103 1.410 . S
C1104 C1105 1.392 . S
C1104 C1107 1.511 . S
C1105 C1101 1.376 . S
C1105 C1104 1.392 . S
C1105 H1117 0.929 . S
C1106 C1102 1.531 . S
C1106 H1118 0.960 . S
C1106 H1119 0.962 . S
C1106 H1120 0.960 . S
C1107 C1104 1.511 . S
C1107 H1121 0.961 . S
C1107 H1122 0.961 . S
C1107 H1123 0.961 . S
C1108 C1109 1.370 . S
C1108 C1110 1.363 . S
C1108 H1124 0.931 . S
C1109 C1108 1.370 . S
C1109 C1113 1.408 . S
C1110 C1108 1.363 . S
C1110 C1111 1.370 . S
C1110 C1114 1.524 . S
C1111 C1103 1.503 . S
C1111 C1110 1.370 . S
C1111 C1112 1.403 . S
C1112 C1111 1.403 . S
C1112 C1113 1.404 . S
C1112 C1115 1.539 . S
C1113 C1109 1.408 . S
C1113 C1112 1.404 . S
C1113 H1125 0.930 . S
C1114 C1110 1.524 . S
C1114 H1126 0.956 . S
C1114 H1127 0.961 . S
C1114 H1128 0.961 . S
C1115 C1112 1.539 . S
C1115 H1129 0.958 . S
C1115 H1130 0.961 . S
C1115 H1131 0.960 . S
H1116 C1100 0.931 . S
H1117 C1105 0.929 . S
H1118 C1106 0.960 . S
H1119 C1106 0.962 . S
H1120 C1106 0.960 . S
H1121 C1107 0.961 . S
H1122 C1107 0.961 . S
H1123 C1107 0.961 . S
H1124 C1108 0.931 . S
H1125 C1113 0.930 . S
H1126 C1114 0.956 . S
H1127 C1114 0.961 . S
H1128 C1114 0.961 . S
H1129 C1115 0.958 . S
H1130 C1115 0.961 . S
H1131 C1115 0.960 . S
C1132 C1133 1.391 . S
C1132 C1134 1.394 . S
C1132 H1148 0.931 . S
C1133 C1132 1.391 . S
C1133 C1137 1.376 . S
C1134 C1132 1.394 . S
C1134 C1135 1.369 1_545 S
C1134 C1138 1.531 . S
C1135 C1134 1.369 1_565 S
C1135 C1136 1.410 . S
C1135 C1143 1.503 . S
C1136 C1135 1.410 . S
C1136 C1137 1.392 1_565 S
C1136 C1139 1.511 . S
C1137 C1133 1.376 . S
C1137 C1136 1.392 1_545 S
C1137 H1149 0.929 . S
C1138 C1134 1.531 . S
C1138 H1150 0.960 . S
C1138 H1151 0.962 . S
C1138 H1152 0.960 . S
C1139 C1136 1.511 . S
C1139 H1153 0.961 . S
C1139 H1154 0.961 . S
C1139 H1155 0.961 . S
C1140 C1141 1.370 . S
C1140 C1142 1.363 . S
C1140 H1156 0.931 . S
C1141 C1140 1.370 . S
C1141 C1145 1.408 . S
C1142 C1140 1.363 . S
C1142 C1143 1.370 . S
C1142 C1146 1.524 . S
C1143 C1135 1.503 . S
C1143 C1142 1.370 . S
C1143 C1144 1.403 . S
C1144 C1143 1.403 . S
C1144 C1145 1.404 . S
C1144 C1147 1.539 . S
C1145 C1141 1.408 . S
C1145 C1144 1.404 . S
C1145 H1157 0.930 . S
C1146 C1142 1.524 . S
C1146 H1158 0.956 . S
C1146 H1159 0.961 . S
C1146 H1160 0.961 . S
C1147 C1144 1.539 . S
C1147 H1161 0.958 . S
C1147 H1162 0.961 . S
C1147 H1163 0.960 . S
H1148 C1132 0.931 . S
H1149 C1137 0.929 . S
H1150 C1138 0.960 . S
H1151 C1138 0.962 . S
H1152 C1138 0.960 . S
H1153 C1139 0.961 . S
H1154 C1139 0.961 . S
H1155 C1139 0.961 . S
H1156 C1140 0.931 . S
H1157 C1145 0.930 . S
H1158 C1146 0.956 . S
H1159 C1146 0.961 . S
H1160 C1146 0.961 . S
H1161 C1147 0.958 . S
H1162 C1147 0.961 . S
H1163 C1147 0.960 . S
C1164 C1165 1.391 . S
C1164 C1166 1.394 . S
C1164 H1180 0.931 . S
C1165 C1164 1.391 . S
C1165 C1169 1.376 . S
C1166 C1164 1.394 . S
C1166 C1167 1.369 . S
C1166 C1170 1.531 . S
C1167 C1166 1.369 . S
C1167 C1168 1.410 . S
C1167 C1175 1.503 . S
C1168 C1167 1.410 . S
C1168 C1169 1.392 . S
C1168 C1171 1.511 . S
C1169 C1165 1.376 . S
C1169 C1168 1.392 . S
C1169 H1181 0.929 . S
C1170 C1166 1.531 . S
C1170 H1182 0.960 . S
C1170 H1183 0.962 . S
C1170 H1184 0.960 . S
C1171 C1168 1.511 . S
C1171 H1185 0.961 . S
C1171 H1186 0.961 . S
C1171 H1187 0.961 . S
C1172 C1173 1.370 . S
C1172 C1174 1.363 . S
C1172 H1188 0.931 . S
C1173 C1172 1.370 . S
C1173 C1177 1.408 . S
C1174 C1172 1.363 . S
C1174 C1175 1.370 . S
C1174 C1178 1.524 . S
C1175 C1167 1.503 . S
C1175 C1174 1.370 . S
C1175 C1176 1.403 . S
C1176 C1175 1.403 . S
C1176 C1177 1.404 . S
C1176 C1179 1.539 . S
C1177 C1173 1.408 . S
C1177 C1176 1.404 . S
C1177 H1189 0.930 . S
C1178 C1174 1.524 . S
C1178 H1190 0.956 . S
C1178 H1191 0.961 . S
C1178 H1192 0.961 . S
C1179 C1176 1.539 . S
C1179 H1193 0.958 . S
C1179 H1194 0.961 . S
C1179 H1195 0.960 . S
H1180 C1164 0.931 . S
H1181 C1169 0.929 . S
H1182 C1170 0.960 . S
H1183 C1170 0.962 . S
H1184 C1170 0.960 . S
H1185 C1171 0.961 . S
H1186 C1171 0.961 . S
H1187 C1171 0.961 . S
H1188 C1172 0.931 . S
H1189 C1177 0.930 . S
H1190 C1178 0.956 . S
H1191 C1178 0.961 . S
H1192 C1178 0.961 . S
H1193 C1179 0.958 . S
H1194 C1179 0.961 . S
H1195 C1179 0.960 . S
C1196 C1197 1.391 . S
C1196 C1198 1.394 1_565 S
C1196 H1212 0.931 . S
C1197 C1196 1.391 . S
C1197 C1201 1.376 . S
C1198 C1196 1.394 1_545 S
C1198 C1199 1.369 . S
C1198 C1202 1.531 . S
C1199 C1198 1.369 . S
C1199 C1200 1.410 1_545 S
C1199 C1207 1.503 . S
C1200 C1199 1.410 1_565 S
C1200 C1201 1.392 . S
C1200 C1203 1.511 . S
C1201 C1197 1.376 . S
C1201 C1200 1.392 . S
C1201 H1213 0.929 . S
C1202 C1198 1.531 . S
C1202 H1214 0.960 . S
C1202 H1215 0.962 . S
C1202 H1216 0.960 . S
C1203 C1200 1.511 . S
C1203 H1217 0.961 . S
C1203 H1218 0.961 . S
C1203 H1219 0.961 . S
C1204 C1205 1.370 . S
C1204 C1206 1.363 . S
C1204 H1220 0.931 . S
C1205 C1204 1.370 . S
C1205 C1209 1.408 . S
C1206 C1204 1.363 . S
C1206 C1207 1.370 . S
C1206 C1210 1.524 . S
C1207 C1199 1.503 . S
C1207 C1206 1.370 . S
C1207 C1208 1.403 . S
C1208 C1207 1.403 . S
C1208 C1209 1.404 . S
C1208 C1211 1.539 . S
C1209 C1205 1.408 . S
C1209 C1208 1.404 . S
C1209 H1221 0.930 . S
C1210 C1206 1.524 . S
C1210 H1222 0.956 . S
C1210 H1223 0.961 1_545 S
C1210 H1224 0.961 . S
C1211 C1208 1.539 . S
C1211 H1225 0.958 . S
C1211 H1226 0.961 . S
C1211 H1227 0.960 . S
H1212 C1196 0.931 . S
H1213 C1201 0.929 . S
H1214 C1202 0.960 . S
H1215 C1202 0.962 . S
H1216 C1202 0.960 . S
H1217 C1203 0.961 . S
H1218 C1203 0.961 . S
H1219 C1203 0.961 . S
H1220 C1204 0.931 . S
H1221 C1209 0.930 . S
H1222 C1210 0.956 . S
H1223 C1210 0.961 1_565 S
H1224 C1210 0.961 . S
H1225 C1211 0.958 . S
H1226 C1211 0.961 . S
H1227 C1211 0.960 . S
C1228 C1229 1.391 . S
C1228 C1230 1.394 . S
C1228 H1244 0.931 . S
C1229 C1228 1.391 . S
C1229 C1233 1.376 . S
C1230 C1228 1.394 . S
C1230 C1231 1.369 . S
C1230 C1234 1.531 . S
C1231 C1230 1.369 . S
C1231 C1232 1.410 . S
C1231 C1239 1.503 . S
C1232 C1231 1.410 . S
C1232 C1233 1.392 . S
C1232 C1235 1.511 . S
C1233 C1229 1.376 . S
C1233 C1232 1.392 . S
C1233 H1245 0.929 . S
C1234 C1230 1.531 . S
C1234 H1246 0.960 . S
C1234 H1247 0.962 . S
C1234 H1248 0.960 . S
C1235 C1232 1.511 . S
C1235 H1249 0.961 . S
C1235 H1250 0.961 . S
C1235 H1251 0.961 . S
C1236 C1237 1.370 . S
C1236 C1238 1.363 . S
C1236 H1252 0.931 . S
C1237 C1236 1.370 . S
C1237 C1241 1.408 . S
C1238 C1236 1.363 . S
C1238 C1239 1.370 . S
C1238 C1242 1.524 . S
C1239 C1231 1.503 . S
C1239 C1238 1.370 . S
C1239 C1240 1.403 . S
C1240 C1239 1.403 . S
C1240 C1241 1.404 . S
C1240 C1243 1.539 . S
C1241 C1237 1.408 . S
C1241 C1240 1.404 . S
C1241 H1253 0.930 . S
C1242 C1238 1.524 . S
C1242 H1254 0.956 . S
C1242 H1255 0.961 . S
C1242 H1256 0.961 . S
C1243 C1240 1.539 . S
C1243 H1257 0.958 . S
C1243 H1258 0.961 . S
C1243 H1259 0.960 . S
H1244 C1228 0.931 . S
H1245 C1233 0.929 . S
H1246 C1234 0.960 . S
H1247 C1234 0.962 . S
H1248 C1234 0.960 . S
H1249 C1235 0.961 . S
H1250 C1235 0.961 . S
H1251 C1235 0.961 . S
H1252 C1236 0.931 . S
H1253 C1241 0.930 . S
H1254 C1242 0.956 . S
H1255 C1242 0.961 . S
H1256 C1242 0.961 . S
H1257 C1243 0.958 . S
H1258 C1243 0.961 . S
H1259 C1243 0.960 . S
C1260 C1261 1.391 . S
C1260 C1262 1.394 . S
C1260 H1276 0.931 . S
C1261 C1260 1.391 . S
C1261 C1265 1.376 . S
C1262 C1260 1.394 . S
C1262 C1263 1.369 . S
C1262 C1266 1.531 1_545 S
C1263 C1262 1.369 . S
C1263 C1264 1.410 . S
C1263 C1271 1.503 1_545 S
C1264 C1263 1.410 . S
C1264 C1265 1.392 . S
C1264 C1267 1.511 . S
C1265 C1261 1.376 . S
C1265 C1264 1.392 . S
C1265 H1277 0.929 . S
C1266 C1262 1.531 1_565 S
C1266 H1278 0.960 . S
C1266 H1279 0.962 . S
C1266 H1280 0.960 . S
C1267 C1264 1.511 . S
C1267 H1281 0.961 . S
C1267 H1282 0.961 . S
C1267 H1283 0.961 . S
C1268 C1269 1.370 . S
C1268 C1270 1.363 . S
C1268 H1284 0.931 . S
C1269 C1268 1.370 . S
C1269 C1273 1.408 . S
C1270 C1268 1.363 . S
C1270 C1271 1.370 . S
C1270 C1274 1.524 1_565 S
C1271 C1263 1.503 1_565 S
C1271 C1270 1.370 . S
C1271 C1272 1.403 . S
C1272 C1271 1.403 . S
C1272 C1273 1.404 . S
C1272 C1275 1.539 . S
C1273 C1269 1.408 . S
C1273 C1272 1.404 . S
C1273 H1285 0.930 . S
C1274 C1270 1.524 1_545 S
C1274 H1286 0.956 . S
C1274 H1287 0.961 . S
C1274 H1288 0.961 . S
C1275 C1272 1.539 . S
C1275 H1289 0.958 . S
C1275 H1290 0.961 . S
C1275 H1291 0.960 . S
H1276 C1260 0.931 . S
H1277 C1265 0.929 . S
H1278 C1266 0.960 . S
H1279 C1266 0.962 . S
H1280 C1266 0.960 . S
H1281 C1267 0.961 . S
H1282 C1267 0.961 . S
H1283 C1267 0.961 . S
H1284 C1268 0.931 . S
H1285 C1273 0.930 . S
H1286 C1274 0.956 . S
H1287 C1274 0.961 . S
H1288 C1274 0.961 . S
H1289 C1275 0.958 . S
H1290 C1275 0.961 . S
H1291 C1275 0.960 . S
C1292 C1293 1.391 . S
C1292 C1294 1.394 . S
C1292 H1308 0.931 . S
C1293 C1292 1.391 . S
C1293 C1297 1.376 . S
C1294 C1292 1.394 . S
C1294 C1295 1.369 . S
C1294 C1298 1.531 . S
C1295 C1294 1.369 . S
C1295 C1296 1.410 . S
C1295 C1303 1.503 . S
C1296 C1295 1.410 . S
C1296 C1297 1.392 . S
C1296 C1299 1.511 . S
C1297 C1293 1.376 . S
C1297 C1296 1.392 . S
C1297 H1309 0.929 . S
C1298 C1294 1.531 . S
C1298 H1310 0.960 . S
C1298 H1311 0.962 . S
C1298 H1312 0.960 . S
C1299 C1296 1.511 . S
C1299 H1313 0.961 . S
C1299 H1314 0.961 . S
C1299 H1315 0.961 . S
C1300 C1301 1.370 . S
C1300 C1302 1.363 . S
C1300 H1316 0.931 . S
C1301 C1300 1.370 . S
C1301 C1305 1.408 . S
C1302 C1300 1.363 . S
C1302 C1303 1.370 . S
C1302 C1306 1.524 . S
C1303 C1295 1.503 . S
C1303 C1302 1.370 . S
C1303 C1304 1.403 . S
C1304 C1303 1.403 . S
C1304 C1305 1.404 . S
C1304 C1307 1.539 . S
C1305 C1301 1.408 . S
C1305 C1304 1.404 . S
C1305 H1317 0.930 . S
C1306 C1302 1.524 . S
C1306 H1318 0.956 . S
C1306 H1319 0.961 . S
C1306 H1320 0.961 . S
C1307 C1304 1.539 . S
C1307 H1321 0.958 . S
C1307 H1322 0.961 . S
C1307 H1323 0.960 . S
H1308 C1292 0.931 . S
H1309 C1297 0.929 . S
H1310 C1298 0.960 . S
H1311 C1298 0.962 . S
H1312 C1298 0.960 . S
H1313 C1299 0.961 . S
H1314 C1299 0.961 . S
H1315 C1299 0.961 . S
H1316 C1300 0.931 . S
H1317 C1305 0.930 . S
H1318 C1306 0.956 . S
H1319 C1306 0.961 . S
H1320 C1306 0.961 . S
H1321 C1307 0.958 . S
H1322 C1307 0.961 . S
H1323 C1307 0.960 . S
C1324 C1325 1.391 . S
C1324 C1326 1.394 . S
C1324 H1340 0.931 . S
C1325 C1324 1.391 . S
C1325 C1329 1.376 . S
C1326 C1324 1.394 . S
C1326 C1327 1.369 . S
C1326 C1330 1.531 . S
C1327 C1326 1.369 . S
C1327 C1328 1.410 . S
C1327 C1335 1.503 . S
C1328 C1327 1.410 . S
C1328 C1329 1.392 . S
C1328 C1331 1.511 . S
C1329 C1325 1.376 . S
C1329 C1328 1.392 . S
C1329 H1341 0.929 . S
C1330 C1326 1.531 . S
C1330 H1342 0.960 . S
C1330 H1343 0.962 . S
C1330 H1344 0.960 . S
C1331 C1328 1.511 . S
C1331 H1345 0.961 . S
C1331 H1346 0.961 . S
C1331 H1347 0.961 . S
C1332 C1333 1.370 . S
C1332 C1334 1.363 . S
C1332 H1348 0.931 . S
C1333 C1332 1.370 . S
C1333 C1337 1.408 . S
C1334 C1332 1.363 . S
C1334 C1335 1.370 . S
C1334 C1338 1.524 . S
C1335 C1327 1.503 . S
C1335 C1334 1.370 . S
C1335 C1336 1.403 . S
C1336 C1335 1.403 . S
C1336 C1337 1.404 . S
C1336 C1339 1.539 . S
C1337 C1333 1.408 . S
C1337 C1336 1.404 . S
C1337 H1349 0.930 . S
C1338 C1334 1.524 . S
C1338 H1350 0.956 . S
C1338 H1351 0.961 . S
C1338 H1352 0.961 . S
C1339 C1336 1.539 . S
C1339 H1353 0.958 . S
C1339 H1354 0.961 . S
C1339 H1355 0.960 . S
H1340 C1324 0.931 . S
H1341 C1329 0.929 . S
H1342 C1330 0.960 . S
H1343 C1330 0.962 . S
H1344 C1330 0.960 . S
H1345 C1331 0.961 . S
H1346 C1331 0.961 . S
H1347 C1331 0.961 . S
H1348 C1332 0.931 . S
H1349 C1337 0.930 . S
H1350 C1338 0.956 . S
H1351 C1338 0.961 . S
H1352 C1338 0.961 . S
H1353 C1339 0.958 . S
H1354 C1339 0.961 . S
H1355 C1339 0.960 . S
C1356 C1357 1.391 . S
C1356 C1358 1.394 . S
C1356 H1372 0.931 . S
C1357 C1356 1.391 . S
C1357 C1361 1.376 . S
C1358 C1356 1.394 . S
C1358 C1359 1.369 . S
C1358 C1362 1.531 . S
C1359 C1358 1.369 . S
C1359 C1360 1.410 . S
C1359 C1367 1.503 . S
C1360 C1359 1.410 . S
C1360 C1361 1.392 . S
C1360 C1363 1.511 . S
C1361 C1357 1.376 . S
C1361 C1360 1.392 . S
C1361 H1373 0.929 . S
C1362 C1358 1.531 . S
C1362 H1374 0.960 . S
C1362 H1375 0.962 . S
C1362 H1376 0.960 . S
C1363 C1360 1.511 . S
C1363 H1377 0.961 . S
C1363 H1378 0.961 . S
C1363 H1379 0.961 . S
C1364 C1365 1.370 . S
C1364 C1366 1.363 1_455 S
C1364 H1380 0.931 . S
C1365 C1364 1.370 . S
C1365 C1369 1.408 1_455 S
C1366 C1364 1.363 1_655 S
C1366 C1367 1.370 . S
C1366 C1370 1.524 1_655 S
C1367 C1359 1.503 . S
C1367 C1366 1.370 . S
C1367 C1368 1.403 . S
C1368 C1367 1.403 . S
C1368 C1369 1.404 . S
C1368 C1371 1.539 . S
C1369 C1365 1.408 1_655 S
C1369 C1368 1.404 . S
C1369 H1381 0.930 . S
C1370 C1366 1.524 1_455 S
C1370 H1382 0.956 . S
C1370 H1383 0.961 1_455 S
C1370 H1384 0.961 . S
C1371 C1368 1.539 . S
C1371 H1385 0.958 . S
C1371 H1386 0.961 . S
C1371 H1387 0.960 . S
H1372 C1356 0.931 . S
H1373 C1361 0.929 . S
H1374 C1362 0.960 . S
H1375 C1362 0.962 . S
H1376 C1362 0.960 . S
H1377 C1363 0.961 . S
H1378 C1363 0.961 . S
H1379 C1363 0.961 . S
H1380 C1364 0.931 . S
H1381 C1369 0.930 . S
H1382 C1370 0.956 . S
H1383 C1370 0.961 1_655 S
H1384 C1370 0.961 . S
H1385 C1371 0.958 . S
H1386 C1371 0.961 . S
H1387 C1371 0.960 . S
C1388 C1389 1.391 . S
C1388 C1390 1.394 . S
C1388 H1404 0.931 . S
C1389 C1388 1.391 . S
C1389 C1393 1.376 . S
C1390 C1388 1.394 . S
C1390 C1391 1.369 . S
C1390 C1394 1.531 . S
C1391 C1390 1.369 . S
C1391 C1392 1.410 . S
C1391 C1399 1.503 . S
C1392 C1391 1.410 . S
C1392 C1393 1.392 . S
C1392 C1395 1.511 1_655 S
C1393 C1389 1.376 . S
C1393 C1392 1.392 . S
C1393 H1405 0.929 . S
C1394 C1390 1.531 . S
C1394 H1406 0.960 . S
C1394 H1407 0.962 . S
C1394 H1408 0.960 . S
C1395 C1392 1.511 1_455 S
C1395 H1409 0.961 . S
C1395 H1410 0.961 . S
C1395 H1411 0.961 . S
C1396 C1397 1.370 1_655 S
C1396 C1398 1.363 . S
C1396 H1412 0.931 . S
C1397 C1396 1.370 1_455 S
C1397 C1401 1.408 1_455 S
C1398 C1396 1.363 . S
C1398 C1399 1.370 . S
C1398 C1402 1.524 . S
C1399 C1391 1.503 . S
C1399 C1398 1.370 . S
C1399 C1400 1.403 . S
C1400 C1399 1.403 . S
C1400 C1401 1.404 . S
C1400 C1403 1.539 . S
C1401 C1397 1.408 1_655 S
C1401 C1400 1.404 . S
C1401 H1413 0.930 1_655 S
C1402 C1398 1.524 . S
C1402 H1414 0.956 . S
C1402 H1415 0.961 . S
C1402 H1416 0.961 . S
C1403 C1400 1.539 . S
C1403 H1417 0.958 . S
C1403 H1418 0.961 1_655 S
C1403 H1419 0.960 . S
H1404 C1388 0.931 . S
H1405 C1393 0.929 . S
H1406 C1394 0.960 . S
H1407 C1394 0.962 . S
H1408 C1394 0.960 . S
H1409 C1395 0.961 . S
H1410 C1395 0.961 . S
H1411 C1395 0.961 . S
H1412 C1396 0.931 . S
H1413 C1401 0.930 1_455 S
H1414 C1402 0.956 . S
H1415 C1402 0.961 . S
H1416 C1402 0.961 . S
H1417 C1403 0.958 . S
H1418 C1403 0.961 1_455 S
H1419 C1403 0.960 . S
C1420 C1421 1.391 . S
C1420 C1422 1.394 . S
C1420 H1436 0.931 . S
C1421 C1420 1.391 . S
C1421 C1425 1.376 . S
C1422 C1420 1.394 . S
C1422 C1423 1.369 . S
C1422 C1426 1.531 . S
C1423 C1422 1.369 . S
C1423 C1424 1.410 . S
C1423 C1431 1.503 . S
C1424 C1423 1.410 . S
C1424 C1425 1.392 . S
C1424 C1427 1.511 . S
C1425 C1421 1.376 . S
C1425 C1424 1.392 . S
C1425 H1437 0.929 . S
C1426 C1422 1.531 . S
C1426 H1438 0.960 . S
C1426 H1439 0.962 . S
C1426 H1440 0.960 . S
C1427 C1424 1.511 . S
C1427 H1441 0.961 . S
C1427 H1442 0.961 . S
C1427 H1443 0.961 . S
C1428 C1429 1.370 . S
C1428 C1430 1.363 . S
C1428 H1444 0.931 . S
C1429 C1428 1.370 . S
C1429 C1433 1.408 . S
C1430 C1428 1.363 . S
C1430 C1431 1.370 . S
C1430 C1434 1.524 . S
C1431 C1423 1.503 . S
C1431 C1430 1.370 . S
C1431 C1432 1.403 . S
C1432 C1431 1.403 . S
C1432 C1433 1.404 . S
C1432 C1435 1.539 . S
C1433 C1429 1.408 . S
C1433 C1432 1.404 . S
C1433 H1445 0.930 . S
C1434 C1430 1.524 . S
C1434 H1446 0.956 . S
C1434 H1447 0.961 . S
C1434 H1448 0.961 . S
C1435 C1432 1.539 . S
C1435 H1449 0.958 . S
C1435 H1450 0.961 . S
C1435 H1451 0.960 . S
H1436 C1420 0.931 . S
H1437 C1425 0.929 . S
H1438 C1426 0.960 . S
H1439 C1426 0.962 . S
H1440 C1426 0.960 . S
H1441 C1427 0.961 . S
H1442 C1427 0.961 . S
H1443 C1427 0.961 . S
H1444 C1428 0.931 . S
H1445 C1433 0.930 . S
H1446 C1434 0.956 . S
H1447 C1434 0.961 . S
H1448 C1434 0.961 . S
H1449 C1435 0.958 . S
H1450 C1435 0.961 . S
H1451 C1435 0.960 . S
C1452 C1453 1.391 . S
C1452 C1454 1.394 . S
C1452 H1468 0.931 . S
C1453 C1452 1.391 . S
C1453 C1457 1.376 . S
C1454 C1452 1.394 . S
C1454 C1455 1.369 . S
C1454 C1458 1.531 . S
C1455 C1454 1.369 . S
C1455 C1456 1.410 . S
C1455 C1463 1.503 . S
C1456 C1455 1.410 . S
C1456 C1457 1.392 . S
C1456 C1459 1.511 . S
C1457 C1453 1.376 . S
C1457 C1456 1.392 . S
C1457 H1469 0.929 . S
C1458 C1454 1.531 . S
C1458 H1470 0.960 . S
C1458 H1471 0.962 . S
C1458 H1472 0.960 . S
C1459 C1456 1.511 . S
C1459 H1473 0.961 . S
C1459 H1474 0.961 . S
C1459 H1475 0.961 1_655 S
C1460 C1461 1.370 1_655 S
C1460 C1462 1.363 . S
C1460 H1476 0.931 . S
C1461 C1460 1.370 1_455 S
C1461 C1465 1.408 . S
C1462 C1460 1.363 . S
C1462 C1463 1.370 . S
C1462 C1466 1.524 . S
C1463 C1455 1.503 . S
C1463 C1462 1.370 . S
C1463 C1464 1.403 1_655 S
C1464 C1463 1.403 1_455 S
C1464 C1465 1.404 . S
C1464 C1467 1.539 . S
C1465 C1461 1.408 . S
C1465 C1464 1.404 . S
C1465 H1477 0.930 . S
C1466 C1462 1.524 . S
C1466 H1478 0.956 . S
C1466 H1479 0.961 . S
C1466 H1480 0.961 . S
C1467 C1464 1.539 . S
C1467 H1481 0.958 . S
C1467 H1482 0.961 . S
C1467 H1483 0.960 . S
H1468 C1452 0.931 . S
H1469 C1457 0.929 . S
H1470 C1458 0.960 . S
H1471 C1458 0.962 . S
H1472 C1458 0.960 . S
H1473 C1459 0.961 . S
H1474 C1459 0.961 . S
H1475 C1459 0.961 1_455 S
H1476 C1460 0.931 . S
H1477 C1465 0.930 . S
H1478 C1466 0.956 . S
H1479 C1466 0.961 . S
H1480 C1466 0.961 . S
H1481 C1467 0.958 . S
H1482 C1467 0.961 . S
H1483 C1467 0.960 . S
C1484 C1485 1.391 . S
C1484 C1486 1.394 . S
C1484 H1500 0.931 . S
C1485 C1484 1.391 . S
C1485 C1489 1.376 . S
C1486 C1484 1.394 . S
C1486 C1487 1.369 . S
C1486 C1490 1.531 . S
C1487 C1486 1.369 . S
C1487 C1488 1.410 . S
C1487 C1495 1.503 . S
C1488 C1487 1.410 . S
C1488 C1489 1.392 . S
C1488 C1491 1.511 . S
C1489 C1485 1.376 . S
C1489 C1488 1.392 . S
C1489 H1501 0.929 . S
C1490 C1486 1.531 . S
C1490 H1502 0.960 . S
C1490 H1503 0.962 . S
C1490 H1504 0.960 . S
C1491 C1488 1.511 . S
C1491 H1505 0.961 . S
C1491 H1506 0.961 . S
C1491 H1507 0.961 . S
C1492 C1493 1.370 . S
C1492 C1494 1.363 1_455 S
C1492 H1508 0.931 . S
C1493 C1492 1.370 . S
C1493 C1497 1.408 1_455 S
C1494 C1492 1.363 1_655 S
C1494 C1495 1.370 . S
C1494 C1498 1.524 . S
C1495 C1487 1.503 . S
C1495 C1494 1.370 . S
C1495 C1496 1.403 . S
C1496 C1495 1.403 . S
C1496 C1497 1.404 . S
C1496 C1499 1.539 . S
C1497 C1493 1.408 1_655 S
C1497 C1496 1.404 . S
C1497 H1509 0.930 . S
C1498 C1494 1.524 . S
C1498 H1510 0.956 . S
C1498 H1511 0.961 . S
C1498 H1512 0.961 1_655 S
C1499 C1496 1.539 . S
C1499 H1513 0.958 . S
C1499 H1514 0.961 . S
C1499 H1515 0.960 . S
H1500 C1484 0.931 . S
H1501 C1489 0.929 . S
H1502 C1490 0.960 . S
H1503 C1490 0.962 . S
H1504 C1490 0.960 . S
H1505 C1491 0.961 . S
H1506 C1491 0.961 . S
H1507 C1491 0.961 . S
H1508 C1492 0.931 . S
H1509 C1497 0.930 . S
H1510 C1498 0.956 . S
H1511 C1498 0.961 . S
H1512 C1498 0.961 1_455 S
H1513 C1499 0.958 . S
H1514 C1499 0.961 . S
H1515 C1499 0.960 . S
C1516 C1517 1.391 . S
C1516 C1518 1.394 . S
C1516 H1532 0.931 . S
C1517 C1516 1.391 . S
C1517 C1521 1.376 . S
C1518 C1516 1.394 . S
C1518 C1519 1.369 . S
C1518 C1522 1.531 . S
C1519 C1518 1.369 . S
C1519 C1520 1.410 . S
C1519 C1527 1.503 . S
C1520 C1519 1.410 . S
C1520 C1521 1.392 . S
C1520 C1523 1.511 . S
C1521 C1517 1.376 . S
C1521 C1520 1.392 . S
C1521 H1533 0.929 . S
C1522 C1518 1.531 . S
C1522 H1534 0.960 . S
C1522 H1535 0.962 . S
C1522 H1536 0.960 . S
C1523 C1520 1.511 . S
C1523 H1537 0.961 . S
C1523 H1538 0.961 . S
C1523 H1539 0.961 . S
C1524 C1525 1.370 . S
C1524 C1526 1.363 . S
C1524 H1540 0.931 . S
C1525 C1524 1.370 . S
C1525 C1529 1.408 . S
C1526 C1524 1.363 . S
C1526 C1527 1.370 . S
C1526 C1530 1.524 . S
C1527 C1519 1.503 . S
C1527 C1526 1.370 . S
C1527 C1528 1.403 . S
C1528 C1527 1.403 . S
C1528 C1529 1.404 . S
C1528 C1531 1.539 . S
C1529 C1525 1.408 . S
C1529 C1528 1.404 . S
C1529 H1541 0.930 . S
C1530 C1526 1.524 . S
C1530 H1542 0.956 . S
C1530 H1543 0.961 . S
C1530 H1544 0.961 . S
C1531 C1528 1.539 . S
C1531 H1545 0.958 . S
C1531 H1546 0.961 . S
C1531 H1547 0.960 . S
H1532 C1516 0.931 . S
H1533 C1521 0.929 . S
H1534 C1522 0.960 . S
H1535 C1522 0.962 . S
H1536 C1522 0.960 . S
H1537 C1523 0.961 . S
H1538 C1523 0.961 . S
H1539 C1523 0.961 . S
H1540 C1524 0.931 . S
H1541 C1529 0.930 . S
H1542 C1530 0.956 . S
H1543 C1530 0.961 . S
H1544 C1530 0.961 . S
H1545 C1531 0.958 . S
H1546 C1531 0.961 . S
H1547 C1531 0.960 . S
C1548 C1549 1.391 . S
C1548 C1550 1.394 . S
C1548 H1564 0.931 . S
C1549 C1548 1.391 . S
C1549 C1553 1.376 . S
C1550 C1548 1.394 . S
C1550 C1551 1.369 . S
C1550 C1554 1.531 . S
C1551 C1550 1.369 . S
C1551 C1552 1.410 . S
C1551 C1559 1.503 . S
C1552 C1551 1.410 . S
C1552 C1553 1.392 . S
C1552 C1555 1.511 . S
C1553 C1549 1.376 . S
C1553 C1552 1.392 . S
C1553 H1565 0.929 . S
C1554 C1550 1.531 . S
C1554 H1566 0.960 . S
C1554 H1567 0.962 . S
C1554 H1568 0.960 . S
C1555 C1552 1.511 . S
C1555 H1569 0.961 . S
C1555 H1570 0.961 . S
C1555 H1571 0.961 . S
C1556 C1557 1.370 . S
C1556 C1558 1.363 . S
C1556 H1572 0.931 . S
C1557 C1556 1.370 . S
C1557 C1561 1.408 . S
C1558 C1556 1.363 . S
C1558 C1559 1.370 . S
C1558 C1562 1.524 . S
C1559 C1551 1.503 . S
C1559 C1558 1.370 . S
C1559 C1560 1.403 . S
C1560 C1559 1.403 . S
C1560 C1561 1.404 . S
C1560 C1563 1.539 . S
C1561 C1557 1.408 . S
C1561 C1560 1.404 . S
C1561 H1573 0.930 . S
C1562 C1558 1.524 . S
C1562 H1574 0.956 . S
C1562 H1575 0.961 . S
C1562 H1576 0.961 . S
C1563 C1560 1.539 . S
C1563 H1577 0.958 . S
C1563 H1578 0.961 . S
C1563 H1579 0.960 . S
H1564 C1548 0.931 . S
H1565 C1553 0.929 . S
H1566 C1554 0.960 . S
H1567 C1554 0.962 . S
H1568 C1554 0.960 . S
H1569 C1555 0.961 . S
H1570 C1555 0.961 . S
H1571 C1555 0.961 . S
H1572 C1556 0.931 . S
H1573 C1561 0.930 . S
H1574 C1562 0.956 . S
H1575 C1562 0.961 . S
H1576 C1562 0.961 . S
H1577 C1563 0.958 . S
H1578 C1563 0.961 . S
H1579 C1563 0.960 . S
C1580 C1581 1.391 . S
C1580 C1582 1.394 . S
C1580 H1596 0.931 . S
C1581 C1580 1.391 . S
C1581 C1585 1.376 . S
C1582 C1580 1.394 . S
C1582 C1583 1.369 . S
C1582 C1586 1.531 . S
C1583 C1582 1.369 . S
C1583 C1584 1.410 . S
C1583 C1591 1.503 . S
C1584 C1583 1.410 . S
C1584 C1585 1.392 . S
C1584 C1587 1.511 . S
C1585 C1581 1.376 . S
C1585 C1584 1.392 . S
C1585 H1597 0.929 . S
C1586 C1582 1.531 . S
C1586 H1598 0.960 . S
C1586 H1599 0.962 . S
C1586 H1600 0.960 . S
C1587 C1584 1.511 . S
C1587 H1601 0.961 . S
C1587 H1602 0.961 . S
C1587 H1603 0.961 . S
C1588 C1589 1.370 . S
C1588 C1590 1.363 . S
C1588 H1604 0.931 1_655 S
C1589 C1588 1.370 . S
C1589 C1593 1.408 . S
C1590 C1588 1.363 . S
C1590 C1591 1.370 . S
C1590 C1594 1.524 1_655 S
C1591 C1583 1.503 . S
C1591 C1590 1.370 . S
C1591 C1592 1.403 . S
C1592 C1591 1.403 . S
C1592 C1593 1.404 . S
C1592 C1595 1.539 . S
C1593 C1589 1.408 . S
C1593 C1592 1.404 . S
C1593 H1605 0.930 . S
C1594 C1590 1.524 1_455 S
C1594 H1606 0.956 . S
C1594 H1607 0.961 . S
C1594 H1608 0.961 . S
C1595 C1592 1.539 . S
C1595 H1609 0.958 . S
C1595 H1610 0.961 . S
C1595 H1611 0.960 . S
H1596 C1580 0.931 . S
H1597 C1585 0.929 . S
H1598 C1586 0.960 . S
H1599 C1586 0.962 . S
H1600 C1586 0.960 . S
H1601 C1587 0.961 . S
H1602 C1587 0.961 . S
H1603 C1587 0.961 . S
H1604 C1588 0.931 1_455 S
H1605 C1593 0.930 . S
H1606 C1594 0.956 . S
H1607 C1594 0.961 . S
H1608 C1594 0.961 . S
H1609 C1595 0.958 . S
H1610 C1595 0.961 . S
H1611 C1595 0.960 . S
C1612 C1613 1.391 . S
C1612 C1614 1.394 . S
C1612 H1628 0.931 . S
C1613 C1612 1.391 . S
C1613 C1617 1.376 . S
C1614 C1612 1.394 . S
C1614 C1615 1.369 . S
C1614 C1618 1.531 . S
C1615 C1614 1.369 . S
C1615 C1616 1.410 . S
C1615 C1623 1.503 . S
C1616 C1615 1.410 . S
C1616 C1617 1.392 . S
C1616 C1619 1.511 . S
C1617 C1613 1.376 . S
C1617 C1616 1.392 . S
C1617 H1629 0.929 . S
C1618 C1614 1.531 . S
C1618 H1630 0.960 . S
C1618 H1631 0.962 . S
C1618 H1632 0.960 . S
C1619 C1616 1.511 . S
C1619 H1633 0.961 . S
C1619 H1634 0.961 . S
C1619 H1635 0.961 . S
C1620 C1621 1.370 . S
C1620 C1622 1.363 . S
C1620 H1636 0.931 . S
C1621 C1620 1.370 . S
C1621 C1625 1.408 . S
C1622 C1620 1.363 . S
C1622 C1623 1.370 . S
C1622 C1626 1.524 . S
C1623 C1615 1.503 . S
C1623 C1622 1.370 . S
C1623 C1624 1.403 . S
C1624 C1623 1.403 . S
C1624 C1625 1.404 . S
C1624 C1627 1.539 . S
C1625 C1621 1.408 . S
C1625 C1624 1.404 . S
C1625 H1637 0.930 . S
C1626 C1622 1.524 . S
C1626 H1638 0.956 . S
C1626 H1639 0.961 . S
C1626 H1640 0.961 . S
C1627 C1624 1.539 . S
C1627 H1641 0.958 . S
C1627 H1642 0.961 . S
C1627 H1643 0.960 . S
H1628 C1612 0.931 . S
H1629 C1617 0.929 . S
H1630 C1618 0.960 . S
H1631 C1618 0.962 . S
H1632 C1618 0.960 . S
H1633 C1619 0.961 . S
H1634 C1619 0.961 . S
H1635 C1619 0.961 . S
H1636 C1620 0.931 . S
H1637 C1625 0.930 . S
H1638 C1626 0.956 . S
H1639 C1626 0.961 . S
H1640 C1626 0.961 . S
H1641 C1627 0.958 . S
H1642 C1627 0.961 . S
H1643 C1627 0.960 . S
C1644 C1645 1.391 . S
C1644 C1646 1.394 . S
C1644 H1660 0.931 . S
C1645 C1644 1.391 . S
C1645 C1649 1.376 . S
C1646 C1644 1.394 . S
C1646 C1647 1.369 . S
C1646 C1650 1.531 . S
C1647 C1646 1.369 . S
C1647 C1648 1.410 . S
C1647 C1655 1.503 . S
C1648 C1647 1.410 . S
C1648 C1649 1.392 . S
C1648 C1651 1.511 . S
C1649 C1645 1.376 . S
C1649 C1648 1.392 . S
C1649 H1661 0.929 . S
C1650 C1646 1.531 . S
C1650 H1662 0.960 . S
C1650 H1663 0.962 . S
C1650 H1664 0.960 . S
C1651 C1648 1.511 . S
C1651 H1665 0.961 . S
C1651 H1666 0.961 . S
C1651 H1667 0.961 . S
C1652 C1653 1.370 . S
C1652 C1654 1.363 . S
C1652 H1668 0.931 . S
C1653 C1652 1.370 . S
C1653 C1657 1.408 . S
C1654 C1652 1.363 . S
C1654 C1655 1.370 . S
C1654 C1658 1.524 . S
C1655 C1647 1.503 . S
C1655 C1654 1.370 . S
C1655 C1656 1.403 . S
C1656 C1655 1.403 . S
C1656 C1657 1.404 . S
C1656 C1659 1.539 . S
C1657 C1653 1.408 . S
C1657 C1656 1.404 . S
C1657 H1669 0.930 . S
C1658 C1654 1.524 . S
C1658 H1670 0.956 . S
C1658 H1671 0.961 . S
C1658 H1672 0.961 . S
C1659 C1656 1.539 . S
C1659 H1673 0.958 . S
C1659 H1674 0.961 . S
C1659 H1675 0.960 . S
H1660 C1644 0.931 . S
H1661 C1649 0.929 . S
H1662 C1650 0.960 . S
H1663 C1650 0.962 . S
H1664 C1650 0.960 . S
H1665 C1651 0.961 . S
H1666 C1651 0.961 . S
H1667 C1651 0.961 . S
H1668 C1652 0.931 . S
H1669 C1657 0.930 . S
H1670 C1658 0.956 . S
H1671 C1658 0.961 . S
H1672 C1658 0.961 . S
H1673 C1659 0.958 . S
H1674 C1659 0.961 . S
H1675 C1659 0.960 . S
C1676 C1677 1.391 . S
C1676 C1678 1.394 . S
C1676 H1692 0.931 . S
C1677 C1676 1.391 . S
C1677 C1681 1.376 . S
C1678 C1676 1.394 . S
C1678 C1679 1.369 . S
C1678 C1682 1.531 . S
C1679 C1678 1.369 . S
C1679 C1680 1.410 . S
C1679 C1687 1.503 . S
C1680 C1679 1.410 . S
C1680 C1681 1.392 . S
C1680 C1683 1.511 . S
C1681 C1677 1.376 . S
C1681 C1680 1.392 . S
C1681 H1693 0.929 . S
C1682 C1678 1.531 . S
C1682 H1694 0.960 . S
C1682 H1695 0.962 . S
C1682 H1696 0.960 . S
C1683 C1680 1.511 . S
C1683 H1697 0.961 . S
C1683 H1698 0.961 . S
C1683 H1699 0.961 . S
C1684 C1685 1.370 . S
C1684 C1686 1.363 . S
C1684 H1700 0.931 . S
C1685 C1684 1.370 . S
C1685 C1689 1.408 . S
C1686 C1684 1.363 . S
C1686 C1687 1.370 . S
C1686 C1690 1.524 . S
C1687 C1679 1.503 . S
C1687 C1686 1.370 . S
C1687 C1688 1.403 . S
C1688 C1687 1.403 . S
C1688 C1689 1.404 . S
C1688 C1691 1.539 . S
C1689 C1685 1.408 . S
C1689 C1688 1.404 . S
C1689 H1701 0.930 . S
C1690 C1686 1.524 . S
C1690 H1702 0.956 . S
C1690 H1703 0.961 . S
C1690 H1704 0.961 . S
C1691 C1688 1.539 . S
C1691 H1705 0.958 . S
C1691 H1706 0.961 . S
C1691 H1707 0.960 . S
H1692 C1676 0.931 . S
H1693 C1681 0.929 . S
H1694 C1682 0.960 . S
H1695 C1682 0.962 . S
H1696 C1682 0.960 . S
H1697 C1683 0.961 . S
H1698 C1683 0.961 . S
H1699 C1683 0.961 . S
H1700 C1684 0.931 . S
H1701 C1689 0.930 . S
H1702 C1690 0.956 . S
H1703 C1690 0.961 . S
H1704 C1690 0.961 . S
H1705 C1691 0.958 . S
H1706 C1691 0.961 . S
H1707 C1691 0.960 . S
C1708 C1709 1.391 . S
C1708 C1710 1.394 . S
C1708 H1724 0.931 . S
C1709 C1708 1.391 . S
C1709 C1713 1.376 . S
C1710 C1708 1.394 . S
C1710 C1711 1.369 . S
C1710 C1714 1.531 . S
C1711 C1710 1.369 . S
C1711 C1712 1.410 . S
C1711 C1719 1.503 . S
C1712 C1711 1.410 . S
C1712 C1713 1.392 . S
C1712 C1715 1.511 . S
C1713 C1709 1.376 . S
C1713 C1712 1.392 . S
C1713 H1725 0.929 . S
C1714 C1710 1.531 . S
C1714 H1726 0.960 . S
C1714 H1727 0.962 . S
C1714 H1728 0.960 . S
C1715 C1712 1.511 . S
C1715 H1729 0.961 . S
C1715 H1730 0.961 . S
C1715 H1731 0.961 . S
C1716 C1717 1.370 . S
C1716 C1718 1.363 . S
C1716 H1732 0.931 . S
C1717 C1716 1.370 . S
C1717 C1721 1.408 . S
C1718 C1716 1.363 . S
C1718 C1719 1.370 . S
C1718 C1722 1.524 . S
C1719 C1711 1.503 . S
C1719 C1718 1.370 . S
C1719 C1720 1.403 . S
C1720 C1719 1.403 . S
C1720 C1721 1.404 . S
C1720 C1723 1.539 . S
C1721 C1717 1.408 . S
C1721 C1720 1.404 . S
C1721 H1733 0.930 . S
C1722 C1718 1.524 . S
C1722 H1734 0.956 . S
C1722 H1735 0.961 . S
C1722 H1736 0.961 . S
C1723 C1720 1.539 . S
C1723 H1737 0.958 . S
C1723 H1738 0.961 . S
C1723 H1739 0.960 . S
H1724 C1708 0.931 . S
H1725 C1713 0.929 . S
H1726 C1714 0.960 . S
H1727 C1714 0.962 . S
H1728 C1714 0.960 . S
H1729 C1715 0.961 . S
H1730 C1715 0.961 . S
H1731 C1715 0.961 . S
H1732 C1716 0.931 . S
H1733 C1721 0.930 . S
H1734 C1722 0.956 . S
H1735 C1722 0.961 . S
H1736 C1722 0.961 . S
H1737 C1723 0.958 . S
H1738 C1723 0.961 . S
H1739 C1723 0.960 . S
C1740 C1741 1.391 . S
C1740 C1742 1.394 . S
C1740 H1756 0.931 . S
C1741 C1740 1.391 . S
C1741 C1745 1.376 . S
C1742 C1740 1.394 . S
C1742 C1743 1.369 . S
C1742 C1746 1.531 . S
C1743 C1742 1.369 . S
C1743 C1744 1.410 . S
C1743 C1751 1.503 . S
C1744 C1743 1.410 . S
C1744 C1745 1.392 . S
C1744 C1747 1.511 . S
C1745 C1741 1.376 . S
C1745 C1744 1.392 . S
C1745 H1757 0.929 . S
C1746 C1742 1.531 . S
C1746 H1758 0.960 . S
C1746 H1759 0.962 . S
C1746 H1760 0.960 . S
C1747 C1744 1.511 . S
C1747 H1761 0.961 . S
C1747 H1762 0.961 . S
C1747 H1763 0.961 . S
C1748 C1749 1.370 . S
C1748 C1750 1.363 . S
C1748 H1764 0.931 . S
C1749 C1748 1.370 . S
C1749 C1753 1.408 . S
C1750 C1748 1.363 . S
C1750 C1751 1.370 . S
C1750 C1754 1.524 . S
C1751 C1743 1.503 . S
C1751 C1750 1.370 . S
C1751 C1752 1.403 . S
C1752 C1751 1.403 . S
C1752 C1753 1.404 . S
C1752 C1755 1.539 . S
C1753 C1749 1.408 . S
C1753 C1752 1.404 . S
C1753 H1765 0.930 . S
C1754 C1750 1.524 . S
C1754 H1766 0.956 . S
C1754 H1767 0.961 . S
C1754 H1768 0.961 . S
C1755 C1752 1.539 . S
C1755 H1769 0.958 . S
C1755 H1770 0.961 . S
C1755 H1771 0.960 . S
H1756 C1740 0.931 . S
H1757 C1745 0.929 . S
H1758 C1746 0.960 . S
H1759 C1746 0.962 . S
H1760 C1746 0.960 . S
H1761 C1747 0.961 . S
H1762 C1747 0.961 . S
H1763 C1747 0.961 . S
H1764 C1748 0.931 . S
H1765 C1753 0.930 . S
H1766 C1754 0.956 . S
H1767 C1754 0.961 . S
H1768 C1754 0.961 . S
H1769 C1755 0.958 . S
H1770 C1755 0.961 . S
H1771 C1755 0.960 . S
C1772 C1773 1.391 . S
C1772 C1774 1.394 . S
C1772 H1788 0.931 . S
C1773 C1772 1.391 . S
C1773 C1777 1.376 . S
C1774 C1772 1.394 . S
C1774 C1775 1.369 . S
C1774 C1778 1.531 . S
C1775 C1774 1.369 . S
C1775 C1776 1.410 . S
C1775 C1783 1.503 . S
C1776 C1775 1.410 . S
C1776 C1777 1.392 . S
C1776 C1779 1.511 1_655 S
C1777 C1773 1.376 . S
C1777 C1776 1.392 . S
C1777 H1789 0.929 . S
C1778 C1774 1.531 . S
C1778 H1790 0.960 . S
C1778 H1791 0.962 . S
C1778 H1792 0.960 . S
C1779 C1776 1.511 1_455 S
C1779 H1793 0.961 . S
C1779 H1794 0.956 1_455 S
C1779 H1795 0.961 . S
C1780 C1781 1.370 . S
C1780 C1782 1.363 . S
C1780 H1796 0.931 . S
C1781 C1780 1.370 . S
C1781 C1785 1.408 . S
C1782 C1780 1.363 . S
C1782 C1783 1.370 . S
C1782 C1786 1.524 . S
C1783 C1775 1.503 . S
C1783 C1782 1.370 . S
C1783 C1784 1.403 . S
C1784 C1783 1.403 . S
C1784 C1785 1.404 . S
C1784 C1787 1.539 1_655 S
C1785 C1781 1.408 . S
C1785 C1784 1.404 . S
C1785 H1797 0.930 1_655 S
C1786 C1782 1.524 . S
C1786 H1798 0.956 . S
C1786 H1799 0.961 . S
C1786 H1800 0.961 . S
C1787 C1784 1.539 1_455 S
C1787 H1801 0.958 . S
C1787 H1802 0.961 . S
C1787 H1803 0.960 . S
H1788 C1772 0.931 . S
H1789 C1777 0.929 . S
H1790 C1778 0.960 . S
H1791 C1778 0.962 . S
H1792 C1778 0.960 . S
H1793 C1779 0.961 . S
H1794 C1779 0.956 1_655 S
H1795 C1779 0.961 . S
H1796 C1780 0.931 . S
H1797 C1785 0.930 1_455 S
H1798 C1786 0.956 . S
H1799 C1786 0.961 . S
H1800 C1786 0.961 . S
H1801 C1787 0.958 . S
H1802 C1787 0.961 . S
H1803 C1787 0.960 . S
C1804 C1805 1.391 . S
C1804 C1806 1.394 . S
C1804 H1820 0.931 . S
C1805 C1804 1.391 . S
C1805 C1809 1.376 . S
C1806 C1804 1.394 . S
C1806 C1807 1.369 . S
C1806 C1810 1.531 . S
C1807 C1806 1.369 . S
C1807 C1808 1.410 . S
C1807 C1815 1.503 . S
C1808 C1807 1.410 . S
C1808 C1809 1.392 . S
C1808 C1811 1.511 . S
C1809 C1805 1.376 . S
C1809 C1808 1.392 . S
C1809 H1821 0.929 . S
C1810 C1806 1.531 . S
C1810 H1822 0.960 . S
C1810 H1823 0.962 . S
C1810 H1824 0.960 . S
C1811 C1808 1.511 . S
C1811 H1825 0.961 . S
C1811 H1826 0.961 . S
C1811 H1827 0.961 . S
C1812 C1813 1.370 . S
C1812 C1814 1.363 . S
C1812 H1828 0.931 . S
C1813 C1812 1.370 . S
C1813 C1817 1.408 . S
C1814 C1812 1.363 . S
C1814 C1815 1.370 . S
C1814 C1818 1.524 . S
C1815 C1807 1.503 . S
C1815 C1814 1.370 . S
C1815 C1816 1.403 . S
C1816 C1815 1.403 . S
C1816 C1817 1.404 . S
C1816 C1819 1.539 . S
C1817 C1813 1.408 . S
C1817 C1816 1.404 . S
C1817 H1829 0.930 . S
C1818 C1814 1.524 . S
C1818 H1830 0.956 . S
C1818 H1831 0.961 . S
C1818 H1832 0.961 . S
C1819 C1816 1.539 . S
C1819 H1833 0.958 . S
C1819 H1834 0.961 . S
C1819 H1835 0.960 . S
H1820 C1804 0.931 . S
H1821 C1809 0.929 . S
H1822 C1810 0.960 . S
H1823 C1810 0.962 . S
H1824 C1810 0.960 . S
H1825 C1811 0.961 . S
H1826 C1811 0.961 . S
H1827 C1811 0.961 . S
H1828 C1812 0.931 . S
H1829 C1817 0.930 . S
H1830 C1818 0.956 . S
H1831 C1818 0.961 . S
H1832 C1818 0.961 . S
H1833 C1819 0.958 . S
H1834 C1819 0.961 . S
H1835 C1819 0.960 . S
C1836 C1837 1.391 . S
C1836 C1838 1.394 . S
C1836 H1852 0.931 . S
C1837 C1836 1.391 . S
C1837 C1841 1.376 . S
C1838 C1836 1.394 . S
C1838 C1839 1.369 . S
C1838 C1842 1.531 . S
C1839 C1838 1.369 . S
C1839 C1840 1.410 . S
C1839 C1847 1.503 . S
C1840 C1839 1.410 . S
C1840 C1841 1.392 . S
C1840 C1843 1.511 . S
C1841 C1837 1.376 . S
C1841 C1840 1.392 . S
C1841 H1853 0.929 . S
C1842 C1838 1.531 . S
C1842 H1854 0.960 . S
C1842 H1855 0.962 . S
C1842 H1856 0.960 . S
C1843 C1840 1.511 . S
C1843 H1857 0.961 . S
C1843 H1858 0.961 . S
C1843 H1859 0.961 . S
C1844 C1845 1.370 . S
C1844 C1846 1.363 . S
C1844 H1860 0.931 . S
C1845 C1844 1.370 . S
C1845 C1849 1.408 . S
C1846 C1844 1.363 . S
C1846 C1847 1.370 . S
C1846 C1850 1.524 . S
C1847 C1839 1.503 . S
C1847 C1846 1.370 . S
C1847 C1848 1.403 . S
C1848 C1847 1.403 . S
C1848 C1849 1.404 . S
C1848 C1851 1.539 . S
C1849 C1845 1.408 . S
C1849 C1848 1.404 . S
C1849 H1861 0.930 . S
C1850 C1846 1.524 . S
C1850 H1862 0.956 . S
C1850 H1863 0.961 . S
C1850 H1864 0.961 . S
C1851 C1848 1.539 . S
C1851 H1865 0.958 . S
C1851 H1866 0.961 . S
C1851 H1867 0.960 . S
H1852 C1836 0.931 . S
H1853 C1841 0.929 . S
H1854 C1842 0.960 . S
H1855 C1842 0.962 . S
H1856 C1842 0.960 . S
H1857 C1843 0.961 . S
H1858 C1843 0.961 . S
H1859 C1843 0.961 . S
H1860 C1844 0.931 . S
H1861 C1849 0.930 . S
H1862 C1850 0.956 . S
H1863 C1850 0.961 . S
H1864 C1850 0.961 . S
H1865 C1851 0.958 . S
H1866 C1851 0.961 . S
H1867 C1851 0.960 . S
C1868 C1869 1.391 . S
C1868 C1870 1.394 . S
C1868 H1884 0.931 . S
C1869 C1868 1.391 . S
C1869 C1873 1.376 . S
C1870 C1868 1.394 . S
C1870 C1871 1.369 . S
C1870 C1874 1.531 . S
C1871 C1870 1.369 . S
C1871 C1872 1.410 . S
C1871 C1879 1.503 . S
C1872 C1871 1.410 . S
C1872 C1873 1.392 . S
C1872 C1875 1.511 . S
C1873 C1869 1.376 . S
C1873 C1872 1.392 . S
C1873 H1885 0.929 . S
C1874 C1870 1.531 . S
C1874 H1886 0.960 . S
C1874 H1887 0.962 . S
C1874 H1888 0.960 . S
C1875 C1872 1.511 . S
C1875 H1889 0.961 . S
C1875 H1890 0.961 . S
C1875 H1891 0.961 . S
C1876 C1877 1.370 . S
C1876 C1878 1.363 . S
C1876 H1892 0.931 . S
C1877 C1876 1.370 . S
C1877 C1881 1.408 . S
C1878 C1876 1.363 . S
C1878 C1879 1.370 . S
C1878 C1882 1.524 . S
C1879 C1871 1.503 . S
C1879 C1878 1.370 . S
C1879 C1880 1.403 . S
C1880 C1879 1.403 . S
C1880 C1881 1.404 . S
C1880 C1883 1.539 . S
C1881 C1877 1.408 . S
C1881 C1880 1.404 . S
C1881 H1893 0.930 . S
C1882 C1878 1.524 . S
C1882 H1894 0.956 . S
C1882 H1895 0.961 . S
C1882 H1896 0.961 . S
C1883 C1880 1.539 . S
C1883 H1897 0.958 . S
C1883 H1898 0.961 . S
C1883 H1899 0.960 . S
H1884 C1868 0.931 . S
H1885 C1873 0.929 . S
H1886 C1874 0.960 . S
H1887 C1874 0.962 . S
H1888 C1874 0.960 . S
H1889 C1875 0.961 . S
H1890 C1875 0.961 . S
H1891 C1875 0.961 . S
H1892 C1876 0.931 . S
H1893 C1881 0.930 . S
H1894 C1882 0.956 . S
H1895 C1882 0.961 . S
H1896 C1882 0.961 . S
H1897 C1883 0.958 . S
H1898 C1883 0.961 . S
H1899 C1883 0.960 . S
C1900 C1901 1.391 . S
C1900 C1902 1.394 . S
C1900 H1916 0.931 . S
C1901 C1900 1.391 . S
C1901 C1905 1.376 . S
C1902 C1900 1.394 . S
C1902 C1903 1.369 . S
C1902 C1906 1.531 . S
C1903 C1902 1.369 . S
C1903 C1904 1.410 . S
C1903 C1911 1.503 . S
C1904 C1903 1.410 . S
C1904 C1905 1.392 . S
C1904 C1907 1.511 . S
C1905 C1901 1.376 . S
C1905 C1904 1.392 . S
C1905 H1917 0.929 . S
C1906 C1902 1.531 . S
C1906 H1918 0.960 . S
C1906 H1919 0.962 . S
C1906 H1920 0.960 . S
C1907 C1904 1.511 . S
C1907 H1921 0.961 . S
C1907 H1922 0.961 . S
C1907 H1923 0.961 . S
C1908 C1909 1.370 . S
C1908 C1910 1.363 . S
C1908 H1924 0.931 . S
C1909 C1908 1.370 . S
C1909 C1913 1.408 . S
C1910 C1908 1.363 . S
C1910 C1911 1.370 . S
C1910 C1914 1.524 . S
C1911 C1903 1.503 . S
C1911 C1910 1.370 . S
C1911 C1912 1.403 . S
C1912 C1911 1.403 . S
C1912 C1913 1.404 . S
C1912 C1915 1.539 . S
C1913 C1909 1.408 . S
C1913 C1912 1.404 . S
C1913 H1925 0.930 . S
C1914 C1910 1.524 . S
C1914 H1926 0.956 . S
C1914 H1927 0.961 . S
C1914 H1928 0.961 . S
C1915 C1912 1.539 . S
C1915 H1929 0.958 . S
C1915 H1930 0.961 . S
C1915 H1931 0.960 . S
H1916 C1900 0.931 . S
H1917 C1905 0.929 . S
H1918 C1906 0.960 . S
H1919 C1906 0.962 . S
H1920 C1906 0.960 . S
H1921 C1907 0.961 . S
H1922 C1907 0.961 . S
H1923 C1907 0.961 . S
H1924 C1908 0.931 . S
H1925 C1913 0.930 . S
H1926 C1914 0.956 . S
H1927 C1914 0.961 . S
H1928 C1914 0.961 . S
H1929 C1915 0.958 . S
H1930 C1915 0.961 . S
H1931 C1915 0.960 . S
C1932 C1933 1.391 . S
C1932 C1934 1.394 . S
C1932 H1948 0.931 . S
C1933 C1932 1.391 . S
C1933 C1937 1.376 . S
C1934 C1932 1.394 . S
C1934 C1935 1.369 . S
C1934 C1938 1.531 . S
C1935 C1934 1.369 . S
C1935 C1936 1.410 . S
C1935 C1943 1.503 . S
C1936 C1935 1.410 . S
C1936 C1937 1.392 . S
C1936 C1939 1.511 . S
C1937 C1933 1.376 . S
C1937 C1936 1.392 . S
C1937 H1949 0.929 . S
C1938 C1934 1.531 . S
C1938 H1950 0.960 . S
C1938 H1951 0.962 . S
C1938 H1952 0.960 . S
C1939 C1936 1.511 . S
C1939 H1953 0.961 . S
C1939 H1954 0.961 . S
C1939 H1955 0.961 . S
C1940 C1941 1.370 . S
C1940 C1942 1.363 . S
C1940 H1956 0.931 . S
C1941 C1940 1.370 . S
C1941 C1945 1.408 . S
C1942 C1940 1.363 . S
C1942 C1943 1.370 . S
C1942 C1946 1.524 . S
C1943 C1935 1.503 . S
C1943 C1942 1.370 . S
C1943 C1944 1.403 . S
C1944 C1943 1.403 . S
C1944 C1945 1.404 . S
C1944 C1947 1.539 . S
C1945 C1941 1.408 . S
C1945 C1944 1.404 . S
C1945 H1957 0.930 . S
C1946 C1942 1.524 . S
C1946 H1958 0.956 . S
C1946 H1959 0.961 . S
C1946 H1960 0.961 . S
C1947 C1944 1.539 . S
C1947 H1961 0.958 . S
C1947 H1962 0.961 . S
C1947 H1963 0.960 . S
H1948 C1932 0.931 . S
H1949 C1937 0.929 . S
H1950 C1938 0.960 . S
H1951 C1938 0.962 . S
H1952 C1938 0.960 . S
H1953 C1939 0.961 . S
H1954 C1939 0.961 . S
H1955 C1939 0.961 . S
H1956 C1940 0.931 . S
H1957 C1945 0.930 . S
H1958 C1946 0.956 . S
H1959 C1946 0.961 . S
H1960 C1946 0.961 . S
H1961 C1947 0.958 . S
H1962 C1947 0.961 . S
H1963 C1947 0.960 . S
C1964 C1965 1.391 . S
C1964 C1966 1.394 . S
C1964 H1980 0.931 . S
C1965 C1964 1.391 . S
C1965 C1969 1.376 . S
C1966 C1964 1.394 . S
C1966 C1967 1.369 . S
C1966 C1970 1.531 . S
C1967 C1966 1.369 . S
C1967 C1968 1.410 . S
C1967 C1975 1.503 . S
C1968 C1967 1.410 . S
C1968 C1969 1.392 . S
C1968 C1971 1.511 . S
C1969 C1965 1.376 . S
C1969 C1968 1.392 . S
C1969 H1981 0.929 . S
C1970 C1966 1.531 . S
C1970 H1982 0.960 . S
C1970 H1983 0.962 . S
C1970 H1984 0.960 . S
C1971 C1968 1.511 . S
C1971 H1985 0.961 . S
C1971 H1986 0.961 . S
C1971 H1987 0.961 . S
C1972 C1973 1.370 . S
C1972 C1974 1.363 . S
C1972 H1988 0.931 . S
C1973 C1972 1.370 . S
C1973 C1977 1.408 . S
C1974 C1972 1.363 . S
C1974 C1975 1.370 . S
C1974 C1978 1.524 . S
C1975 C1967 1.503 . S
C1975 C1974 1.370 . S
C1975 C1976 1.403 . S
C1976 C1975 1.403 . S
C1976 C1977 1.404 . S
C1976 C1979 1.539 . S
C1977 C1973 1.408 . S
C1977 C1976 1.404 . S
C1977 H1989 0.930 . S
C1978 C1974 1.524 . S
C1978 H1990 0.956 . S
C1978 H1991 0.961 . S
C1978 H1992 0.961 . S
C1979 C1976 1.539 . S
C1979 H1993 0.958 . S
C1979 H1994 0.961 . S
C1979 H1995 0.960 . S
H1980 C1964 0.931 . S
H1981 C1969 0.929 . S
H1982 C1970 0.960 . S
H1983 C1970 0.962 . S
H1984 C1970 0.960 . S
H1985 C1971 0.961 . S
H1986 C1971 0.961 . S
H1987 C1971 0.961 . S
H1988 C1972 0.931 . S
H1989 C1977 0.930 . S
H1990 C1978 0.956 . S
H1991 C1978 0.961 . S
H1992 C1978 0.961 . S
H1993 C1979 0.958 . S
H1994 C1979 0.961 . S
H1995 C1979 0.960 . S
C1996 C1997 1.391 . S
C1996 C1998 1.394 . S
C1996 H2012 0.931 . S
C1997 C1996 1.391 . S
C1997 C2001 1.376 . S
C1998 C1996 1.394 . S
C1998 C1999 1.369 . S
C1998 C2002 1.531 . S
C1999 C1998 1.369 . S
C1999 C2000 1.410 . S
C1999 C2007 1.503 . S
C2000 C1999 1.410 . S
C2000 C2001 1.392 . S
C2000 C2003 1.511 . S
C2001 C1997 1.376 . S
C2001 C2000 1.392 . S
C2001 H2013 0.929 . S
C2002 C1998 1.531 . S
C2002 H2014 0.960 . S
C2002 H2015 0.962 . S
C2002 H2016 0.960 . S
C2003 C2000 1.511 . S
C2003 H2017 0.961 . S
C2003 H2018 0.961 . S
C2003 H2019 0.961 . S
C2004 C2005 1.370 . S
C2004 C2006 1.363 . S
C2004 H2020 0.931 . S
C2005 C2004 1.370 . S
C2005 C2009 1.408 . S
C2006 C2004 1.363 . S
C2006 C2007 1.370 . S
C2006 C2010 1.524 . S
C2007 C1999 1.503 . S
C2007 C2006 1.370 . S
C2007 C2008 1.403 . S
C2008 C2007 1.403 . S
C2008 C2009 1.404 . S
C2008 C2011 1.539 . S
C2009 C2005 1.408 . S
C2009 C2008 1.404 . S
C2009 H2021 0.930 . S
C2010 C2006 1.524 . S
C2010 H2022 0.956 . S
C2010 H2023 0.961 . S
C2010 H2024 0.961 . S
C2011 C2008 1.539 . S
C2011 H2025 0.958 . S
C2011 H2026 0.961 . S
C2011 H2027 0.960 . S
H2012 C1996 0.931 . S
H2013 C2001 0.929 . S
H2014 C2002 0.960 . S
H2015 C2002 0.962 . S
H2016 C2002 0.960 . S
H2017 C2003 0.961 . S
H2018 C2003 0.961 . S
H2019 C2003 0.961 . S
H2020 C2004 0.931 . S
H2021 C2009 0.930 . S
H2022 C2010 0.956 . S
H2023 C2010 0.961 . S
H2024 C2010 0.961 . S
H2025 C2011 0.958 . S
H2026 C2011 0.961 . S
H2027 C2011 0.960 . S
C2028 C2029 1.391 . S
C2028 C2030 1.394 . S
C2028 H2044 0.931 . S
C2029 C2028 1.391 . S
C2029 C2033 1.376 . S
C2030 C2028 1.394 . S
C2030 C2031 1.369 . S
C2030 C2034 1.531 . S
C2031 C2030 1.369 . S
C2031 C2032 1.410 . S
C2031 C2039 1.503 . S
C2032 C2031 1.410 . S
C2032 C2033 1.392 . S
C2032 C2035 1.511 . S
C2033 C2029 1.376 . S
C2033 C2032 1.392 . S
C2033 H2045 0.929 . S
C2034 C2030 1.531 . S
C2034 H2046 0.960 . S
C2034 H2047 0.962 . S
C2034 H2048 0.960 . S
C2035 C2032 1.511 . S
C2035 H2049 0.961 . S
C2035 H2050 0.961 . S
C2035 H2051 0.961 . S
C2036 C2037 1.370 . S
C2036 C2038 1.363 . S
C2036 H2052 0.931 . S
C2037 C2036 1.370 . S
C2037 C2041 1.408 . S
C2038 C2036 1.363 . S
C2038 C2039 1.370 . S
C2038 C2042 1.524 . S
C2039 C2031 1.503 . S
C2039 C2038 1.370 . S
C2039 C2040 1.403 . S
C2040 C2039 1.403 . S
C2040 C2041 1.404 . S
C2040 C2043 1.539 . S
C2041 C2037 1.408 . S
C2041 C2040 1.404 . S
C2041 H2053 0.930 . S
C2042 C2038 1.524 . S
C2042 H2054 0.956 . S
C2042 H2055 0.961 . S
C2042 H2056 0.961 . S
C2043 C2040 1.539 . S
C2043 H2057 0.958 . S
C2043 H2058 0.961 . S
C2043 H2059 0.960 . S
H2044 C2028 0.931 . S
H2045 C2033 0.929 . S
H2046 C2034 0.960 . S
H2047 C2034 0.962 . S
H2048 C2034 0.960 . S
H2049 C2035 0.961 . S
H2050 C2035 0.961 . S
H2051 C2035 0.961 . S
H2052 C2036 0.931 . S
H2053 C2041 0.930 . S
H2054 C2042 0.956 . S
H2055 C2042 0.961 . S
H2056 C2042 0.961 . S
H2057 C2043 0.958 . S
H2058 C2043 0.961 . S
H2059 C2043 0.960 . S
C1045 C972 1.891 . S
C1037 C11 1.382 . S
C1069 C143 1.368 . S
C1077 C975 1.754 . S
C1101 C283 1.233 . S
C1109 C1006 1.837 . S
C1141 C941 1.711 . S
C1133 C343 1.498 . S
C1173 C976 1.941 . S
C1165 C55 1.342 . S
C1205 C1007 1.699 . S
C1197 C115 1.461 . S
C1237 C932 1.776 . S
C1229 C239 1.165 . S
C1269 C963 1.785 . S
C1261 C371 1.382 . S
C1293 C29 1.015 . S
C1301 C993 1.039 . S
C1325 C467 0.770 . S
C1333 C962 1.192 . S
C1357 C229 0.693 . S
C1365 C922 0.964 . S
C1397 C1015 1.222 . S
C1389 C625 1.038 . S
C1429 C943 1.006 . S
C1421 C1 0.787 . S
C1453 C511 0.943 . S
C1461 C942 1.216 . S
C1485 C257 0.944 . S
C1493 C1035 1.026 . S
C1525 C974 1.181 . S
C1517 C581 0.720 . S
C1549 C713 1.509 . S
C1557 C1034 1.826 . S
C1581 C485 1.300 . S
C1589 C913 1.758 . S
C1613 C799 1.460 . S
C1621 C944 1.646 . S
C1645 C571 1.461 . S
C1653 C1003 1.698 . S
C1685 C914 1.735 . S
C1677 C685 1.517 . S
C1709 C457 1.510 . S
C1717 C945 1.699 . S
C1741 C827 1.295 . S
C1749 C994 1.742 . S
C1781 C1025 1.764 . S
C1773 C599 1.402 . S
C1805 C695 0.644 . S
C1813 C931 1.196 . S
C1837 C125 0.724 . S
C1845 C1024 1.210 . S
C1869 C853 0.878 . S
C1877 C984 1.224 . S
C1909 C953 1.255 . S
C1901 C397 1.015 . S
C1941 C1005 1.240 . S
C1933 C739 1.074 . S
C1973 C1004 1.240 . S
C1965 C169 0.986 . S
C2005 C973 1.188 . S
C1997 C809 0.811 . S
C2037 C912 1.237 . S
C2029 C353 0.835 . S
